Infrared Spectrum: N-METHYLANILINE
Formula: C7 H9 N
CAS: 100-61-8
State: LIQUID (NEAT)
Boiling point: 74 C AT 10 mmHg
Class: COBLENTZ III
Instrument: BECKMAN IR-4 (HYBRID PRISM-GRATING)
Sampling: TRANSMISSION
Path length: CAPILLARY
Resolution: 4
Origin: UNIVERSITY OF FLORIDA
MICROMETERS	TRANSMITTANCE
0.964	0.92
1.00062	0.921
1.03724	0.919
1.07386	0.917
1.11048	0.92
1.1471	0.922
1.18372	0.919
1.22034	0.915
1.25696	0.917
1.29358	0.92
1.3302	0.921
1.36681	0.921
1.40343	0.921
1.44005	0.919
1.47667	0.917
1.51329	0.919
1.54991	0.919
1.58653	0.919
1.62315	0.922
1.65977	0.923
1.69639	0.922
1.73301	0.921
1.76963	0.919
1.80625	0.918
1.84287	0.919
1.87949	0.918
1.91611	0.918
1.95273	0.917
1.98935	0.919
2.02597	0.919
2.06259	0.915
2.09921	0.915
2.13583	0.916
2.17244	0.915
2.20906	0.909
2.24568	0.909
2.2823	0.915
2.31892	0.914
2.35554	0.912
2.39216	0.908
2.42878	0.894
2.4654	0.909
2.50202	0.916
2.53864	0.915
2.57526	0.916
2.61188	0.915
2.6485	0.913
2.68512	0.908
2.72174	0.9
2.75836	0.899
2.79498	0.891
2.8316	0.879
2.86822	0.849
2.90484	0.66
2.94145	0.428
2.97807	0.616
3.01469	0.786
3.05131	0.843
3.08793	0.882
3.12455	0.889
3.16117	0.887
3.19779	0.868
3.23441	0.758
3.27103	0.659
3.30765	0.648
3.34427	0.686
3.38089	0.667
3.41751	0.577
3.45413	0.559
3.49075	0.674
3.52737	0.702
3.56399	0.754
3.60061	0.869
3.63723	0.891
3.67385	0.912
3.71046	0.912
3.74708	0.91
3.7837	0.91
3.82032	0.909
3.85694	0.885
3.89356	0.882
3.93018	0.915
3.9668	0.925
4.00342	0.923
4.04004	0.923
4.07666	0.928
4.11328	0.925
4.1499	0.92
4.18652	0.921
4.22314	0.921
4.25976	0.923
4.29638	0.925
4.333	0.925
4.36962	0.928
4.40624	0.93
4.44286	0.93
4.47947	0.93
4.51609	0.93
4.55271	0.93
4.58933	0.929
4.62595	0.928
4.66257	0.919
4.69919	0.913
4.73581	0.915
4.77243	0.918
4.80905	0.917
4.84567	0.914
4.88229	0.915
4.91891	0.916
4.95553	0.913
4.99215	0.91
5.02877	0.905
5.06539	0.905
5.10201	0.9
5.13863	0.887
5.17525	0.862
5.21187	0.859
5.24849	0.883
5.2851	0.9
5.32172	0.904
5.35834	0.9
5.39496	0.893
5.43158	0.877
5.4682	0.87
5.50482	0.877
5.54144	0.888
5.57806	0.879
5.61468	0.87
5.6513	0.87
5.68792	0.88
5.72454	0.88
5.76116	0.879
5.79778	0.877
5.8344	0.859
5.87102	0.84
5.90764	0.828
5.94426	0.828
5.98088	0.827
6.0175	0.827
6.05411	0.806
6.09073	0.773
6.12735	0.696
6.16397	0.51
6.20059	0.209
6.23721	0.081
6.27383	0.251
6.31045	0.47
6.34707	0.621
6.38369	0.708
6.42031	0.71
6.45693	0.695
6.49355	0.571
6.53017	0.451
6.56679	0.159
6.60341	0.141
6.64003	0.192
6.67665	0.342
6.71327	0.495
6.74989	0.504
6.78651	0.533
6.82312	0.64
6.85974	0.636
6.89636	0.597
6.93298	0.666
6.9696	0.699
7.00622	0.667
7.04284	0.616
7.07946	0.749
7.11608	0.805
7.1527	0.827
7.18932	0.826
7.22594	0.824
7.26256	0.826
7.29918	0.827
7.3358	0.815
7.37242	0.801
7.40904	0.764
7.44566	0.656
7.48228	0.562
7.5189	0.443
7.55552	0.238
7.59214	0.251
7.62875	0.43
7.66537	0.597
7.70199	0.686
7.73861	0.724
7.77523	0.712
7.81185	0.663
7.84847	0.573
7.88509	0.424
7.92171	0.322
7.95833	0.41
7.99495	0.595
8.03157	0.705
8.06819	0.774
8.10481	0.797
8.14143	0.813
8.17805	0.82
8.21467	0.819
8.25129	0.813
8.28791	0.802
8.32453	0.799
8.36115	0.791
8.39776	0.77
8.43438	0.671
8.471	0.421
8.50762	0.495
8.54424	0.698
8.58086	0.716
8.61748	0.689
8.6541	0.572
8.69072	0.458
8.72734	0.587
8.76396	0.692
8.80058	0.745
8.8372	0.748
8.87382	0.733
8.91044	0.725
8.94706	0.742
8.98368	0.773
9.0203	0.799
9.05692	0.81
9.09354	0.82
9.13016	0.824
9.16678	0.822
9.20339	0.817
9.24001	0.801
9.27663	0.75
9.31325	0.653
9.34987	0.517
9.38649	0.559
9.42311	0.604
9.45973	0.671
9.49635	0.733
9.53297	0.797
9.56959	0.821
9.60621	0.835
9.64283	0.84
9.67945	0.838
9.71607	0.824
9.75269	0.783
9.78931	0.752
9.82593	0.796
9.86255	0.824
9.89917	0.841
9.93579	0.849
9.9724	0.849
10.009	0.844
10.0456	0.824
10.0823	0.761
10.1189	0.611
10.1555	0.665
10.1921	0.787
10.2287	0.813
10.2654	0.82
10.302	0.827
10.3386	0.827
10.3752	0.828
10.4118	0.831
10.4485	0.838
10.4851	0.838
10.5217	0.838
10.5583	0.842
10.5949	0.843
10.6316	0.846
10.6682	0.849
10.7048	0.85
10.7414	0.85
10.778	0.85
10.8147	0.85
10.8513	0.85
10.8879	0.85
10.9245	0.85
10.9611	0.851
10.9978	0.852
11.0344	0.851
11.071	0.85
11.1076	0.847
11.1442	0.843
11.1808	0.842
11.2175	0.839
11.2541	0.832
11.2907	0.822
11.3273	0.81
11.3639	0.785
11.4006	0.753
11.4372	0.7
11.4738	0.638
11.5104	0.603
11.547	0.605
11.5837	0.64
11.6203	0.702
11.6569	0.761
11.6935	0.789
11.7301	0.801
11.7668	0.812
11.8034	0.813
11.84	0.817
11.8766	0.818
11.9132	0.817
11.9499	0.813
11.9865	0.811
12.0231	0.806
12.0597	0.8
12.0963	0.791
12.133	0.782
12.1696	0.773
12.2062	0.771
12.2428	0.771
12.2794	0.772
12.3161	0.776
12.3527	0.782
12.3893	0.788
12.4259	0.788
12.4625	0.784
12.4992	0.774
12.5358	0.755
12.5724	0.734
12.609	0.722
12.6456	0.72
12.6822	0.722
12.7189	0.722
12.7555	0.722
12.7921	0.722
12.8287	0.717
12.8653	0.712
12.902	0.706
12.9386	0.698
12.9752	0.684
13.0118	0.668
13.0484	0.635
13.0851	0.6
13.1217	0.534
13.1583	0.449
13.1949	0.336
13.2315	0.229
13.2682	0.13
13.3048	0.098
13.3414	0.093
13.378	0.101
13.4146	0.149
13.4513	0.226
13.4879	0.328
13.5245	0.405
13.5611	0.471
13.5977	0.521
13.6344	0.555
13.671	0.581
13.7076	0.6
13.7442	0.617
13.7808	0.621
13.8175	0.623
13.8541	0.625
13.8907	0.627
13.9273	0.617
13.9639	0.612
14.0006	0.613
14.0372	0.604
14.0738	0.598
14.1104	0.587
14.147	0.578
14.1837	0.565
14.2203	0.54
14.2569	0.511
14.2935	0.475
14.3301	0.409
14.3667	0.31
14.4034	0.211
14.44	0.135
14.4766	0.127
14.5132	0.175
14.5498	0.226
14.5865	0.315
14.6231	0.399
14.6597	0.461
14.6963	0.5
14.7329	0.52
14.7696	0.535
14.8062	0.541
14.8428	0.541
14.8794	0.545
14.916	0.546
14.9527	0.544
14.9893	0.537
15.0259	0.511
