Infrared Spectrum: 1-CYCLOHEXENE, 4-VINYL-
Formula: C8 H12
CAS: 100-40-3
State: SOLUTION (CCl4/CsBr FOR 4000-1335, CS2/CsI FOR 1335-623, CCl4/CsBr FOR 623-300 CM^-^1)
Class: COBLENTZ III
Instrument: PERKIN-ELMER 621 (GRATING)
Instrument parameters: GRATING CHANGE AT 623; ORDER CHANGE AT 2000. FILTERS AT 3146, 2494, 2000, 1146, 698, 497 CM^-^1
Sampling: TRANSMISSION
Path length: 0.01 CM, 0.01 CM, 0.01 CM
Resolution: 2
Origin: PERKIN-ELMER CORP. (R. HANNAH)
1/CM	TRANSMITTANCE
4002	0.8828
3992	0.883
3982	0.8832
3972	0.8834
3962	0.8828
3952	0.882
3942	0.8813
3932	0.8817
3922	0.8821
3912	0.8825
3902	0.8828
3892	0.8832
3882	0.8835
3872	0.8841
3862	0.8849
3852	0.8857
3842	0.8861
3832	0.8863
3822	0.8865
3812	0.8867
3802	0.887
3792	0.8871
3782	0.8873
3772	0.8875
3762	0.8875
3752	0.8878
3742	0.8878
3732	0.8881
3722	0.8887
3712	0.8894
3702	0.8901
3692	0.8908
3682	0.8915
3672	0.8921
3662	0.893
3652	0.8937
3642	0.8944
3632	0.8952
3622	0.8959
3612	0.8964
3602	0.897
3592	0.8975
3582	0.8981
3572	0.8986
3562	0.8991
3552	0.8993
3542	0.8994
3532	0.8995
3522	0.8996
3512	0.8997
3502	0.9002
3492	0.9007
3482	0.9012
3472	0.9016
3462	0.9021
3452	0.9025
3442	0.9028
3432	0.9033
3422	0.9037
3412	0.9036
3402	0.9035
3392	0.9034
3382	0.9031
3372	0.9021
3362	0.9013
3352	0.9004
3342	0.8987
3332	0.8957
3322	0.8918
3312	0.8868
3302	0.882
3292	0.8791
3282	0.8798
3272	0.8828
3262	0.8851
3252	0.8868
3242	0.8885
3232	0.8897
3222	0.8907
3212	0.8917
3202	0.8925
3192	0.8925
3182	0.8921
3172	0.8915
3162	0.89
3152	0.8885
3142	0.8866
3132	0.8834
3122	0.8787
3112	0.8728
3102	0.8632
3092	0.7588
3082	0.5465
3072	0.5728
3062	0.5962
3052	0.7158
3042	0.6699
3032	0.4
3022	0.1896
3012	0.4687
3002	0.5262
2992	0.5387
2982	0.5146
2972	0.439
2962	0.5174
2952	0.4976
2942	0.3441
2932	0.1871
2922	0.0859
2912	0.0667
2902	0.0758
2892	0.2146
2882	0.2334
2872	0.3327
2862	0.446
2852	0.368
2842	0.3046
2832	0.2381
2822	0.6841
2812	0.7838
2802	0.819
2792	0.8443
2782	0.8518
2772	0.8548
2762	0.8542
2752	0.8689
2742	0.8765
2732	0.8805
2722	0.8806
2712	0.8802
2702	0.8799
2692	0.8799
2682	0.8798
2672	0.8778
2662	0.8589
2652	0.8585
2642	0.8723
2632	0.8808
2622	0.8835
2612	0.8813
2602	0.882
2592	0.8831
2582	0.8843
2572	0.8856
2562	0.8868
2552	0.8878
2542	0.8886
2532	0.8894
2522	0.8909
2512	0.8934
2502	0.8988
2492	0.901
2482	0.8963
2472	0.8944
2462	0.8956
2452	0.8981
2442	0.8988
2432	0.8986
2422	0.8984
2412	0.8982
2402	0.898
2392	0.8978
2382	0.8977
2372	0.8978
2362	0.8981
2352	0.8983
2342	0.8985
2332	0.8988
2322	0.8992
2312	0.8997
2302	0.9001
2292	0.9004
2282	0.9007
2272	0.9009
2262	0.9012
2252	0.9008
2242	0.9002
2232	0.9003
2222	0.9009
2212	0.9013
2202	0.9006
2192	0.9002
2182	0.9025
2172	0.9032
2162	0.9039
2152	0.9053
2142	0.9065
2132	0.9058
2122	0.905
2112	0.9007
2102	0.8968
2092	0.9003
2082	0.9024
2072	0.9039
2062	0.9053
2052	0.9066
2042	0.908
2032	0.9084
2022	0.9083
2012	0.9073
2002	0.9062
1992	0.901
1982	0.8968
1972	0.8944
1962	0.8965
1952	0.8988
1942	0.8994
1932	0.8985
1922	0.8978
1912	0.8978
1902	0.8975
1892	0.8991
1882	0.9002
1872	0.8892
1862	0.8911
1852	0.8944
1842	0.8862
1832	0.8402
1822	0.8324
1812	0.878
1802	0.892
1792	0.8955
1782	0.8984
1772	0.9003
1762	0.9003
1752	0.9002
1742	0.8989
1732	0.8971
1722	0.8956
1712	0.8941
1702	0.8899
1692	0.8775
1682	0.8746
1672	0.8718
1662	0.8475
1652	0.6203
1642	0.5192
1632	0.634
1622	0.8132
1612	0.837
1602	0.8706
1592	0.8971
1582	0.9102
1572	0.9074
1562	0.9159
1552	0.9313
1542	0.9382
1532	0.9371
1522	0.9342
1512	0.9297
1502	0.9207
1492	0.9031
1482	0.8949
1472	0.8842
1462	0.8478
1452	0.63
1442	0.708
1432	0.3432
1422	0.6968
1412	0.7514
1402	0.8335
1392	0.8507
1382	0.8593
1372	0.8685
1362	0.8675
1352	0.851
1342	0.8485
1332	0.8051
1322	0.8341
1312	0.8537
1302	0.834
1292	0.8264
1282	0.8547
1272	0.8512
1262	0.8816
1252	0.8228
1242	0.8698
1232	0.8998
1222	0.9028
1212	0.8971
1202	0.9024
1192	0.8647
1182	0.8686
1172	0.9018
1162	0.9236
1152	0.9193
1142	0.7399
1132	0.8297
1122	0.8628
1112	0.9161
1102	0.9606
1092	0.9704
1082	0.9289
1072	0.8923
1062	0.9021
1052	0.875
1042	0.6767
1032	0.8216
1022	0.7898
1012	0.8256
1002	0.7126
992	0.3173
982	0.7564
972	0.8017
962	0.8287
952	0.8187
942	0.7699
932	0.776
922	0.4968
912	0.0584
902	0.3716
892	0.7739
882	0.8805
872	0.7975
862	0.9036
852	0.9436
842	0.9827
832	0.9737
822	0.9686
812	0.9653
802	0.9325
792	0.9289
782	0.9201
772	0.9327
762	0.9245
752	0.8806
742	0.9285
732	0.7033
722	0.7344
712	0.8797
702	0.8866
692	0.8739
682	0.7684
672	0.6227
662	0.255
652	0.244
642	0.668
632	0.8021
622	0.8675
612	0.8778
602	0.8868
592	0.8953
582	0.8995
572	0.9004
562	0.9034
552	0.9018
542	0.8975
532	0.9001
522	0.9012
512	0.8951
502	0.901
492	0.8878
482	0.8732
472	0.9064
462	0.915
452	0.9164
442	0.9186
432	0.9173
422	0.9138
412	0.8975
402	0.8904
392	0.9086
382	0.9108
372	0.9112
362	0.9115
352	0.9093
342	0.9091
332	0.9112
322	0.9161
312	0.9188
302	0.9185
292	0.9137
282	0.9017
272	0.8993
262	0.8975
252	0.8974
