Infrared Spectrum: MORPHOLINE, 4-ETHYL-
Formula: C6 H13 N O
CAS: 100-74-3
State: SOLUTION (10% CCl4 FOR 3800-1335, 10% CS2 FOR 1335-450 CM^-^1)
Class: COBLENTZ III
Instrument: DOW KBr FOREPRISM-GRATING
Instrument parameters: BLAZED AT 3.5, 12.0, 20.0 MICRON AND CHANGED AT 5.0, 7.5, 14.9 MICRON
Sampling: TRANSMISSION
Path length: 0.011 CM, 0.011 CM
Resolution: 2
Origin: DOW CHEMICAL COMPANY
1/CM	TRANSMITTANCE
446	0.7978
455	0.804
464	0.8028
473	0.8167
482	0.8188
491	0.775
500	0.8243
509	0.8456
518	0.8568
527	0.8615
536	0.8649
545	0.8633
554	0.8749
563	0.8762
572	0.8734
581	0.8643
590	0.8586
599	0.8335
608	0.3578
617	0.8298
626	0.8578
635	0.8494
644	0.8284
653	0.8108
662	0.8558
671	0.8501
680	0.8614
689	0.8634
698	0.8641
707	0.8597
716	0.8608
725	0.8549
734	0.8517
743	0.8314
752	0.7076
761	0.5401
770	0.3837
779	0.7315
788	0.8357
797	0.8133
806	0.7898
815	0.8444
824	0.8374
833	0.796
842	0.6568
851	0.087
860	0.2783
869	0.7117
878	0.7785
887	0.8101
896	0.7811
905	0.4133
914	0.5474
923	0.7367
932	0.374
941	0.293
950	0.7553
959	0.8334
968	0.8467
977	0.8389
986	0.8043
995	0.7725
1004	0.6468
1013	0.5069
1022	0.1803
1031	0.3484
1040	0.7632
1049	0.7571
1058	0.5838
1067	0.342
1076	0.6689
1085	0.5601
1094	0.5526
1103	0.2868
1112	0.0027
1121	0.033
1130	0.2425
1139	0.3327
1148	0.0796
1157	0.3295
1166	0.6684
1175	0.7064
1184	0.698
1193	0.636
1202	0.4988
1211	0.7931
1220	0.7758
1229	0.7931
1238	0.7234
1247	0.4016
1256	0.3384
1265	0.3834
1274	0.5003
1283	0.5676
1292	0.4451
1301	0.1057
1310	0.4238
1319	0.6122
1328	0.3624
1337	0.6294
1346	0.4734
1355	0.3994
1364	0.4527
1373	0.3914
1382	0.5603
1391	0.3875
1400	0.6471
1409	0.6583
1418	0.6601
1427	0.6172
1436	0.5237
1445	0.1296
1454	0.3152
1463	0.4368
1472	0.3972
1481	0.6865
1490	0.6933
1499	0.6775
1508	0.6377
1517	0.6008
1526	0.5614
1535	0.5066
1544	0.4226
1553	0.4242
1562	0.5045
1571	0.5619
1580	0.577
1589	0.6335
1598	0.6976
1607	0.7294
1616	0.7322
1625	0.726
1634	0.7108
1643	0.6854
1652	0.6567
1661	0.6428
1670	0.6546
1679	0.5429
1688	0.5642
1697	0.7732
1706	0.7894
1715	0.801
1724	0.8132
1733	0.8015
1742	0.8074
1751	0.8262
1760	0.8264
1769	0.8395
1778	0.8507
1787	0.8434
1796	0.8436
1805	0.8506
1814	0.8518
1823	0.8501
1832	0.848
1841	0.8454
1850	0.8417
1859	0.8401
1868	0.8453
1877	0.8428
1886	0.8353
1895	0.8347
1904	0.8399
1913	0.8325
1922	0.8198
1931	0.8158
1940	0.8309
1949	0.8309
1958	0.8071
1967	0.7818
1976	0.8058
1985	0.8367
1994	0.8473
2003	0.8581
2012	0.8603
2021	0.8592
2030	0.8553
2039	0.8516
2048	0.8488
2057	0.8468
2066	0.8461
2075	0.8507
2084	0.8556
2093	0.8583
2102	0.8568
2111	0.8541
2120	0.8514
2129	0.8497
2138	0.8548
2147	0.8563
2156	0.8558
2165	0.8565
2174	0.8571
2183	0.8567
2192	0.8601
2201	0.8582
2210	0.8546
2219	0.8508
2228	0.8467
2237	0.8432
2246	0.8425
2255	0.8442
2264	0.8437
2273	0.8365
2282	0.8281
2291	0.8234
2300	0.8228
2309	0.8301
2318	0.8385
2327	0.8468
2336	0.854
2345	0.8613
2354	0.8615
2363	0.8571
2372	0.8514
2381	0.8441
2390	0.8414
2399	0.84
2408	0.8386
2417	0.8402
2426	0.8457
2435	0.8483
2444	0.847
2453	0.8393
2462	0.8347
2471	0.8349
2480	0.8341
2489	0.8325
2498	0.8303
2507	0.8278
2516	0.8255
2525	0.8217
2534	0.8174
2543	0.8106
2552	0.8006
2561	0.7988
2570	0.8124
2579	0.8061
2588	0.7911
2597	0.7835
2606	0.7756
2615	0.7591
2624	0.7367
2633	0.7025
2642	0.6662
2651	0.5751
2660	0.6737
2669	0.5576
2678	0.5294
2687	0.4634
2696	0.5673
2705	0.5636
2714	0.4769
2723	0.4481
2732	0.4341
2741	0.3395
2750	0.255
2759	0.1121
2768	0.1872
2777	0.1608
2786	0.1152
2795	0.0696
2804	0.031
2813	0.0505
2822	0.1163
2831	0.2359
2840	0.218
2849	0.111
2858	0.039
2867	0.1485
2876	0.2195
2885	0.1185
2894	0.1517
2903	0.1244
2912	0.1051
2921	0.0917
2930	0.0784
2939	0.0756
2948	0.0748
2957	0.0374
2966	0.0138
2975	0.114
2984	0.2798
2993	0.4408
3002	0.6245
3011	0.7015
3020	0.7268
3029	0.7378
3038	0.7484
3047	0.7569
3056	0.7625
3065	0.7651
3074	0.7668
3083	0.7682
3092	0.7665
3101	0.7641
3110	0.7612
3119	0.7583
3128	0.7547
3137	0.7508
3146	0.746
3155	0.7399
3164	0.7325
3173	0.7257
3182	0.7196
3191	0.7135
3200	0.7084
3209	0.7035
3218	0.6987
3227	0.6942
3236	0.6899
3245	0.6856
3254	0.6815
3263	0.6781
3272	0.6745
3281	0.6711
3290	0.6676
3299	0.6643
3308	0.6608
3317	0.6575
3326	0.6544
3335	0.6511
3344	0.6492
3353	0.6478
3362	0.6468
3371	0.6455
3380	0.6457
3389	0.646
3398	0.6464
3407	0.648
3416	0.6503
3425	0.6525
3434	0.6557
3443	0.6596
3452	0.6635
3461	0.6684
3470	0.6743
3479	0.6804
3488	0.6887
3497	0.6969
3506	0.7069
3515	0.7171
3524	0.7294
3533	0.7421
3542	0.7554
3551	0.7691
3560	0.778
3569	0.779
3578	0.7925
3587	0.8061
3596	0.8186
3605	0.8298
3614	0.8395
3623	0.8478
3632	0.8546
3641	0.858
3650	0.8495
3659	0.8407
3668	0.8465
3677	0.8625
3686	0.8723
3695	0.8771
3704	0.8805
3713	0.8836
3722	0.8859
3731	0.8851
3740	0.8841
3749	0.8831
3758	0.8825
3767	0.8832
3776	0.8836
