Infrared Spectrum: 3-CYANOPYRIDINE
Formula: C6 H4 N2
CAS: 100-54-9
State: SOLUTION (10% CCl4 FOR 2.5-7.5, 10% CS2 FOR 7.5-16 MICRON)
Class: COBLENTZ
Instrument: Not specified, most likely a prism, grating, or hybrid spectrometer.
Sampling: TRANSMISSION
Path length: 0.01 CM, 0.01 CM
Resolution: 4
Origin: DOW CHEMICAL COMPANY
MICROMETERS	TRANSMITTANCE
2.043	0.934
2.07907	0.928
2.11514	0.923
2.15122	0.923
2.18729	0.928
2.22336	0.93
2.25943	0.93
2.29551	0.93
2.33158	0.928
2.36765	0.928
2.40372	0.923
2.4398	0.923
2.47587	0.93
2.51194	0.932
2.54801	0.934
2.58409	0.934
2.62016	0.937
2.65623	0.939
2.6923	0.941
2.72838	0.948
2.76445	0.941
2.80052	0.936
2.83659	0.932
2.87267	0.918
2.90874	0.916
2.94481	0.923
2.98088	0.925
3.01696	0.927
3.05303	0.927
3.0891	0.918
3.12517	0.902
3.16125	0.896
3.19732	0.875
3.23339	0.806
3.26946	0.779
3.30554	0.809
3.34161	0.863
3.37768	0.9
3.41375	0.92
3.44983	0.925
3.4859	0.925
3.52197	0.928
3.55804	0.927
3.59412	0.925
3.63019	0.932
3.66626	0.928
3.70233	0.923
3.73841	0.925
3.77448	0.927
3.81055	0.928
3.84662	0.923
3.8827	0.923
3.91877	0.925
3.95484	0.928
3.99091	0.93
4.02699	0.927
4.06306	0.927
4.09913	0.923
4.1352	0.916
4.17128	0.912
4.20735	0.918
4.24342	0.923
4.27949	0.932
4.31557	0.93
4.35164	0.921
4.38771	0.9
4.42378	0.705
4.45986	0.593
4.49593	0.834
4.532	0.902
4.56807	0.916
4.60415	0.923
4.64022	0.93
4.67629	0.932
4.71236	0.932
4.74844	0.934
4.78451	0.936
4.82058	0.93
4.85665	0.927
4.89273	0.923
4.9288	0.927
4.96487	0.928
5.00094	0.921
5.03702	0.904
5.07309	0.891
5.10916	0.888
5.14523	0.877
5.18131	0.888
5.21738	0.877
5.25345	0.891
5.28952	0.9
5.3256	0.902
5.36167	0.911
5.39774	0.898
5.43381	0.912
5.46989	0.921
5.50596	0.92
5.54203	0.921
5.5781	0.92
5.61418	0.912
5.65025	0.898
5.68632	0.895
5.72239	0.904
5.75847	0.904
5.79454	0.911
5.83061	0.92
5.86668	0.921
5.90276	0.925
5.93883	0.923
5.9749	0.918
6.01097	0.905
6.04705	0.898
6.08312	0.904
6.11919	0.902
6.15526	0.896
6.19134	0.884
6.22741	0.769
6.26348	0.341
6.29955	0.458
6.33563	0.573
6.3717	0.55
6.40777	0.733
6.44384	0.85
6.47992	0.88
6.51599	0.907
6.55206	0.923
6.58813	0.914
6.62421	0.896
6.66028	0.879
6.69635	0.824
6.73242	0.561
6.7685	0.479
6.80457	0.808
6.84064	0.868
6.87671	0.896
6.91279	0.895
6.94886	0.852
6.98493	0.502
7.021	0.23
7.05708	0.55
7.09315	0.637
7.12922	0.71
7.16529	0.817
7.20137	0.845
7.23744	0.861
7.27351	0.886
7.30958	0.891
7.34566	0.891
7.38173	0.896
7.4178	0.886
7.45387	0.838
7.48995	0.859
7.52602	0.884
7.56209	0.888
7.59816	0.896
7.63424	0.914
7.67031	0.93
7.70638	0.937
7.74245	0.939
7.77853	0.937
7.8146	0.936
7.85067	0.934
7.88674	0.93
7.92282	0.92
7.95889	0.911
7.99496	0.904
8.03103	0.895
8.06711	0.87
8.10318	0.868
8.13925	0.875
8.17532	0.875
8.2114	0.744
8.24747	0.671
8.28354	0.785
8.31961	0.795
8.35569	0.756
8.39176	0.488
8.42783	0.605
8.4639	0.795
8.49998	0.843
8.53605	0.856
8.57212	0.873
8.60819	0.888
8.64427	0.895
8.68034	0.9
8.71641	0.9
8.75248	0.895
8.78856	0.877
8.82463	0.852
8.8607	0.753
8.89677	0.669
8.93285	0.73
8.96892	0.822
9.00499	0.849
9.04106	0.856
9.07714	0.856
9.11321	0.838
9.14928	0.824
9.18535	0.847
9.22143	0.856
9.2575	0.87
9.29357	0.879
9.32964	0.886
9.36572	0.886
9.40179	0.872
9.43786	0.843
9.47393	0.84
9.51001	0.854
9.54608	0.87
9.58215	0.865
9.61822	0.822
9.6543	0.774
9.69037	0.722
9.72644	0.497
9.76251	0.246
9.79859	0.481
9.83466	0.724
9.87073	0.806
9.9068	0.845
9.94288	0.863
9.97895	0.877
10.015	0.888
10.0511	0.909
10.0872	0.9
10.1232	0.9
10.1593	0.898
10.1954	0.898
10.2315	0.898
10.2675	0.893
10.3036	0.872
10.3397	0.849
10.3757	0.811
10.4118	0.744
10.4479	0.737
10.484	0.801
10.52	0.847
10.5561	0.87
10.5922	0.877
10.6283	0.884
10.6643	0.884
10.7004	0.884
10.7365	0.866
10.7725	0.836
10.8086	0.827
10.8447	0.852
10.8808	0.882
10.9168	0.902
10.9529	0.914
10.989	0.916
11.0251	0.911
11.0611	0.893
11.0972	0.889
11.1333	0.9
11.1693	0.914
11.2054	0.927
11.2415	0.932
11.2776	0.937
11.3136	0.943
11.3497	0.952
11.3858	0.953
11.4218	0.952
11.4579	0.952
11.494	0.952
11.5301	0.952
11.5661	0.95
11.6022	0.948
11.6383	0.946
11.6744	0.944
11.7104	0.943
11.7465	0.943
11.7826	0.943
11.8186	0.936
11.8547	0.921
11.8908	0.895
11.9269	0.879
11.9629	0.873
11.999	0.868
12.0351	0.872
12.0712	0.868
12.1072	0.854
12.1433	0.836
12.1794	0.806
12.2154	0.761
12.2515	0.71
12.2876	0.609
12.3237	0.484
12.3597	0.342
12.3958	0.238
12.4319	0.12
12.468	0.106
12.504	0.179
12.5401	0.365
12.5762	0.539
12.6122	0.678
12.6483	0.749
12.6844	0.799
12.7205	0.82
12.7565	0.836
12.7926	0.85
12.8287	0.854
12.8647	0.85
12.9008	0.85
12.9369	0.857
12.973	0.872
13.009	0.889
13.0451	0.896
13.0812	0.9
13.1173	0.905
13.1533	0.909
13.1894	0.912
13.2255	0.914
13.2615	0.914
13.2976	0.912
13.3337	0.911
13.3698	0.911
13.4058	0.912
13.4419	0.912
13.478	0.912
13.5141	0.912
13.5501	0.909
13.5862	0.905
13.6223	0.898
13.6583	0.888
13.6944	0.868
13.7305	0.852
13.7666	0.829
13.8026	0.817
13.8387	0.813
13.8748	0.815
13.9109	0.813
13.9469	0.801
13.983	0.777
14.0191	0.742
14.0551	0.69
14.0912	0.595
14.1273	0.46
14.1634	0.312
14.1994	0.197
14.2355	0.097
14.2716	0.072
14.3076	0.083
14.3437	0.15
14.3798	0.241
14.4159	0.403
14.4519	0.522
14.488	0.607
14.5241	0.671
14.5602	0.703
14.5962	0.731
14.6323	0.746
14.6684	0.756
14.7044	0.763
14.7405	0.774
14.7766	0.79
14.8127	0.804
14.8487	0.829
14.8848	0.841
14.9209	0.849
14.957	0.856
14.993	0.861
15.0291	0.872
15.0652	0.88
15.1012	0.882
15.1373	0.884
15.1734	0.884
15.2095	0.886
15.2455	0.884
15.2816	0.884
15.3177	0.884
15.3538	0.884
15.3898	0.884
15.4259	0.884
15.462	0.884
15.498	0.888
15.5341	0.889
15.5702	0.891
15.6063	0.889
15.6423	0.891
15.6784	0.891
15.7145	0.893
15.7505	0.898
15.7866	0.898
15.8227	0.9
15.8588	0.9
15.8948	0.9
15.9309	0.9
15.967	0.9
16.0031	0.9
