Infrared Spectrum: 4-NITROBENZYL CHLORIDE
Formula: C7 H6 Cl N O2
CAS: 100-14-1
State: SOLUTION (10% IN CCl4 FOR 3800-1300, 10% IN CS2 FOR 1300-650, AND 10% IN CCl4 FOR 650-250 CM^-^1) VERSUS SOLVENT
Class: COBLENTZ
Instrument: Not specified, most likely a prism, grating, or hybrid spectrometer.
Sampling: TRANSMISSION
Path length: 0.010, 0.010, AND 0.010 CM (CsBr CELL)
Resolution: 4
Origin: DOW CHEMICAL COMPANY
1/CM	TRANSMITTANCE
422.519	0.833
432	0.833
441.482	0.833
450.963	0.829
460.445	0.82
469.926	0.809
479.408	0.796
488.889	0.807
498.371	0.902
507.852	0.94
517.334	0.944
526.815	0.935
536.297	0.974
545.778	0.99
555.26	0.996
564.741	0.996
574.223	0.996
583.704	1.003
593.185	1.003
602.667	0.998
612.148	0.977
621.63	0.8701
631.111	0.8409
640.593	0.916
650.074	0.876
659.556	0.902
669.037	0.863
678.519	0.768
688	0.767
697.482	0.626
706.963	0.205
716.445	0.0599
725.926	0.3779
735.408	0.6629
744.889	0.789
754.371	0.78
763.852	0.8168
773.333	0.911
782.815	0.898
792.296	0.815
801.778	0.2769
811.259	0.5355
820.741	0.5759
830.222	0.709
839.704	0.565
849.185	0.323
858.667	0.2921
868.148	0.5428
877.63	0.781
887.111	0.857
896.593	0.902
906.074	0.8831
915.556	0.8021
925.037	0.824
934.518	0.926
944	0.944
953.481	0.927
962.963	0.929
972.444	0.939
981.926	0.957
991.407	0.964
1000.89	0.957
1010.37	0.9071
1019.85	0.43
1029.33	0.959
1038.81	0.963
1048.3	0.963
1057.78	0.963
1067.26	0.955
1076.74	0.933
1086.22	0.878
1095.7	0.872
1105.18	0.6023
1114.67	0.5497
1124.15	0.948
1133.63	0.951
1143.11	0.918
1152.59	0.902
1162.07	0.903
1171.56	0.863
1181.04	0.6241
1190.52	0.876
1200	0.874
1209.48	0.876
1218.96	0.931
1228.44	0.924
1237.93	0.876
1247.41	0.844
1256.89	0.7281
1266.37	0.1921
1275.85	0.715
1285.33	0.804
1294.81	0.7521
1304.3	0.63
1313.78	0.604
1323.26	0.469
1332.74	0.3841
1342.22	0.1031
1351.7	0.005
1361.18	0.1789
1370.67	0.661
1380.15	0.822
1389.63	0.853
1399.11	0.866
1408.59	0.826
1418.07	0.818
1427.55	0.852
1437.04	0.802
1446.52	0.741
1456	0.853
1465.48	0.857
1474.96	0.831
1484.44	0.7501
1493.93	0.489
1503.41	0.558
1512.89	0.414
1522.37	0.0331
1531.85	0.009
1541.33	0.0959
1550.81	0.284
1560.3	0.393
1569.78	0.445
1579.26	0.519
1588.74	0.55
1598.22	0.523
1607.7	0.201
1617.18	0.7266
1626.67	0.878
1636.15	0.916
1645.63	0.922
1655.11	0.939
1664.59	0.94
1674.07	0.933
1683.55	0.942
1693.04	0.959
1702.52	0.975
1712	0.983
1721.48	0.983
1730.96	0.968
1740.44	0.959
1749.93	0.972
1759.41	0.985
1768.89	0.987
1778.37	0.985
1787.85	0.963
1797.33	0.914
1806.81	0.966
1816.3	0.981
1825.78	0.987
1835.26	0.987
1844.74	0.987
1854.22	0.988
1863.7	0.988
1873.18	0.99
1882.67	0.99
1892.15	0.987
1901.63	0.983
1911.11	0.977
1920.59	0.926
1930.07	0.903
1939.55	0.977
1949.04	0.988
1958.52	0.992
1968	0.983
1977.48	0.981
1986.96	0.99
1996.44	0.994
2005.92	1
2015.41	1
2024.89	1.001
2034.37	1.005
2043.85	1.006
2053.33	1.003
2062.81	1.004
2072.3	1.003
2081.78	1.005
2091.26	1.007
2100.74	1.004
2110.22	1.005
2119.7	1.002
2129.18	1.001
2138.67	1.004
2148.15	1.004
2157.63	1.003
2167.11	1.005
2176.59	1.005
2186.07	1.003
2195.55	1.002
2205.04	0.995
2214.52	0.986
2224	0.9875
2233.48	0.9969
2242.96	0.998
2252.44	0.994
2261.92	0.989
2271.41	0.982
2280.89	0.968
2290.37	0.9515
2299.85	0.967
2309.33	0.981
2318.81	0.961
2328.29	0.9764
2337.78	0.984
2347.26	0.9806
2356.74	0.999
2366.22	0.995
2375.7	0.983
2385.18	0.977
2394.67	0.996
2404.15	1
2413.63	0.991
2423.11	0.993
2432.59	0.995
2442.07	0.9885
2451.55	0.9495
2461.04	0.9594
2470.52	0.9884
2480	0.996
2489.48	1
2498.96	0.999
2508.44	0.994
2517.92	0.991
2527.41	0.988
2536.89	0.997
2546.37	1.0005
2555.85	1.0005
2565.33	0.998
2574.81	0.993
2584.29	0.988
2593.78	0.985
2603.26	0.985
2612.74	0.981
2622.22	0.985
2631.7	0.981
2641.18	0.986
2650.66	0.99
2660.15	0.988
2669.63	0.987
2679.11	0.983
2688.59	0.982
2698.07	0.9745
2707.55	0.96
2717.04	0.9715
2726.52	0.986
2736	0.9875
2745.48	0.987
2754.96	0.987
2764.44	0.987
2773.92	0.987
2783.41	0.982
2792.89	0.975
2802.37	0.979
2811.85	0.981
2821.33	0.98
2830.81	0.968
2840.29	0.9525
2849.78	0.9173
2859.26	0.8386
2868.74	0.8424
2878.22	0.9385
2887.7	0.963
2897.18	0.964
2906.66	0.963
2916.15	0.96
2925.63	0.9495
2935.11	0.933
2944.59	0.8807
2954.07	0.8525
2963.55	0.862
2973.03	0.9145
2982.52	0.9395
2992	0.947
3001.48	0.9505
3010.96	0.958
3020.44	0.961
3029.92	0.955
3039.41	0.935
3048.89	0.919
3058.37	0.904
3067.85	0.9135
3077.33	0.8787
3086.81	0.7978
3096.29	0.9205
3105.78	0.9286
3115.26	0.916
3124.74	0.949
3134.22	0.967
3143.7	0.977
3153.18	0.982
3162.66	0.983
3172.15	0.986
3181.63	0.988
3191.11	0.987
3200.59	0.984
3210.07	0.979
3219.55	0.985
3229.03	0.992
3238.52	0.997
3248	0.999
3257.48	0.995
3266.96	0.994
3276.44	0.994
3285.92	0.992
3295.4	0.992
3304.89	0.99
3314.37	0.99
3323.85	0.99
3333.33	0.988
3342.81	0.987
3352.29	0.99
3361.78	0.99
3371.26	0.988
3380.74	0.988
3390.22	0.987
3399.7	0.988
3409.18	0.987
3418.66	0.9875
3428.15	0.987
3437.63	0.99
3447.11	0.99
3456.59	0.988
3466.07	0.991
3475.55	0.992
3485.03	0.992
3494.52	0.996
3504	0.996
3513.48	0.997
3522.96	0.998
3532.44	0.998
3541.92	0.998
3551.4	0.998
3560.89	0.998
3570.37	0.998
3579.85	0.998
3589.33	0.999
3598.81	1
3608.29	1
3617.77	1
3627.26	0.998
3636.74	0.998
3646.22	0.998
3655.7	0.996
3665.18	0.996
3674.66	0.995
3684.15	0.994
3693.63	0.994
3703.11	0.994
3712.59	0.996
3722.07	0.998
3731.55	1
3741.03	1.001
