Infrared Spectrum: BENZALDEHYDE
Formula: C7 H6 O
CAS: 100-52-7
State: SOLUTION (2% IN CCl4 FOR 3800-1330, 2% IN CS2 FOR 1330-450 CM^-^1)
Class: COBLENTZ III
Instrument: DOW KBr FOREPRISM-GRATING
Instrument parameters: BLAZED AT 3.5, 12.0, 20.0 MICRON, CHANGED AT 5.0, 7.5, 14.9 MICRON
Sampling: TRANSMISSION
Path length: 0.012, 0.012 CM
Resolution: 4
Origin: DOW CHEMICAL COMPANY
1/CM	TRANSMITTANCE
432.508	0.872
440.944	0.877
449.381	0.89
457.817	0.912
466.254	0.923
474.69	0.931
483.127	0.939
491.563	0.952
500	0.956
508.436	0.959
516.873	0.967
525.309	0.976
533.746	0.978
542.182	0.988
550.619	0.994
559.055	0.998
567.491	0.996
575.928	0.992
584.364	0.998
592.801	0.992
601.237	0.997
609.674	0.992
618.11	0.992
626.547	0.98
634.983	0.953
643.42	0.852
651.856	0.614
660.293	0.924
668.729	0.953
677.165	0.945
685.602	0.581
694.038	0.865
702.475	0.985
710.911	0.984
719.348	0.998
727.784	0.982
736.221	0.829
744.657	0.193
753.094	0.911
761.53	1.01
769.967	1.023
778.403	1.023
786.84	1.025
795.276	1.025
803.712	1.001
812.149	0.988
820.585	0.928
829.022	0.4142
837.458	0.944
845.895	0.898
854.331	0.823
862.768	0.85
871.204	0.901
879.641	0.939
888.077	0.99
896.514	1.015
904.95	1.023
913.387	1.009
921.823	1.027
930.259	1.035
938.696	1.04
947.132	1.04
955.569	1.038
964.005	1.035
972.442	1.032
980.878	1.03
989.315	1.029
997.751	1.011
1006.19	1.021
1014.62	1.022
1023.06	0.912
1031.5	1.023
1039.93	1.023
1048.37	1.025
1056.81	1.018
1065.24	0.993
1073.68	1
1082.12	1.022
1090.55	1.022
1098.99	1.025
1107.43	1.031
1115.86	1.042
1124.3	1.038
1132.73	1.025
1141.17	1.014
1149.61	1.007
1158.04	0.934
1166.48	0.6301
1174.92	1.002
1183.35	1.006
1191.79	0.978
1200.23	0.4998
1208.66	0.8701
1217.1	1.022
1225.54	1.032
1233.97	1.026
1242.41	1.018
1250.85	1.018
1259.28	1.011
1267.72	1.009
1276.15	1
1284.59	0.968
1293.03	1.007
1301.46	0.988
1309.9	0.637
1318.34	1.007
1326.77	1.011
1335.21	0.986
1343.65	1.017
1352.08	1.023
1360.52	1.022
1368.96	1.018
1377.39	1
1385.83	0.948
1394.27	0.965
1402.7	0.978
1411.14	0.967
1419.57	0.968
1428.01	0.973
1436.45	0.984
1444.88	0.978
1453.32	0.8679
1461.76	0.8362
1470.19	0.986
1478.63	0.968
1487.07	0.943
1495.5	0.901
1503.94	0.857
1512.38	0.792
1520.81	0.738
1529.25	0.679
1537.68	0.572
1546.12	0.476
1554.56	0.464
1562.99	0.536
1571.43	0.631
1579.87	0.626
1588.3	0.4281
1596.74	0.5679
1605.18	0.726
1613.61	0.8781
1622.05	0.94
1630.49	0.931
1638.92	0.91
1647.36	0.91
1655.8	0.891
1664.23	0.956
1672.67	0.932
1681.1	0.947
1689.54	0.897
1697.98	0.6909
1706.41	0.0939
1714.85	0.0524
1723.29	0.7161
1731.72	0.883
1740.16	0.952
1748.6	0.963
1757.03	1
1765.47	0.993
1773.91	1
1782.34	1.007
1790.78	1.013
1799.22	1.013
1807.65	1.005
1816.09	0.986
1824.52	0.998
1832.96	1
1841.4	1.003
1849.83	1.006
1858.27	1.011
1866.71	1.015
1875.14	1.015
1883.58	1.011
1892.02	1.001
1900.45	1.006
1908.89	1.006
1917.33	1.015
1925.76	1.01
1934.2	1.014
1942.64	1.018
1951.07	1.015
1959.51	1.006
1967.94	1.007
1976.38	1
1984.82	1.007
1993.25	1.003
2001.69	1
2010.13	1
2018.56	1
2027	0.988
2035.44	1.0011
2043.87	1.009
2052.31	1.002
2060.75	1.009
2069.18	1.013
2077.62	1.014
2086.06	1.013
2094.49	1.011
2102.93	1.013
2111.36	1.0141
2119.8	1.0149
2128.24	1.011
2136.67	1.01
2145.11	1.006
2153.55	1.01
2161.98	1.009
2170.42	1.009
2178.86	1.009
2187.29	1.013
2195.73	1.0091
2204.17	1.01
2212.6	1.007
2221.04	1.005
2229.48	1.003
2237.91	1.001
2246.35	1
2254.78	0.9978
2263.22	0.993
2271.66	0.9836
2280.09	0.9808
2288.53	0.978
2296.97	0.978
2305.4	0.9768
2313.84	0.978
2322.28	0.9776
2330.71	0.963
2339.15	0.9926
2347.59	0.9845
2356.02	0.9875
2364.46	0.978
2372.9	0.985
2381.33	1
2389.77	0.998
2398.2	0.998
2406.64	1
2415.08	1.0017
2423.51	1.001
2431.95	1.001
2440.39	1.0023
2448.82	1.003
2457.26	1
2465.7	0.998
2474.13	0.998
2482.57	1
2491.01	0.998
2499.44	0.998
2507.88	0.996
2516.31	0.997
2524.75	0.997
2533.19	0.996
2541.62	0.993
2550.06	0.9947
2558.5	0.994
2566.93	0.994
2575.37	0.993
2583.81	0.99
2592.24	0.989
2600.68	0.99
2609.12	0.99
2617.55	0.992
2625.99	0.9896
2634.43	0.986
2642.86	0.9856
2651.3	0.984
2659.73	0.9816
2668.17	0.9776
2676.61	0.9731
2685.04	0.9489
2693.48	0.8974
2701.92	0.952
2710.35	0.9422
2718.79	0.8885
2727.23	0.7409
2735.66	0.7227
2744.1	0.8975
2752.54	0.955
2760.97	0.9635
2769.41	0.9615
2777.85	0.955
2786.28	0.9268
2794.72	0.8646
2803.15	0.7575
2811.59	0.7231
2820.03	0.7689
2828.46	0.8928
2836.9	0.9234
2845.34	0.8856
2853.77	0.9199
2862.21	0.9459
2870.65	0.9556
2879.08	0.961
2887.52	0.964
2895.96	0.9618
2904.39	0.96
2912.83	0.96
2921.27	0.9622
2929.7	0.963
2938.14	0.961
2946.57	0.961
2955.01	0.96
2963.45	0.959
2971.88	0.9577
2980.32	0.956
2988.76	0.953
2997.19	0.9497
3005.63	0.937
3014.07	0.925
3022.5	0.9015
3030.94	0.8671
3039.38	0.8907
3047.81	0.9094
3056.25	0.8989
3064.69	0.856
3073.12	0.8903
3081.56	0.8961
3089.99	0.8747
3098.43	0.9237
3106.87	0.9267
3115.3	0.949
3123.74	0.947
3132.18	0.947
3140.61	0.9442
3149.05	0.943
3157.49	0.943
3165.92	0.943
3174.36	0.9478
3182.8	0.948
3191.23	0.948
3199.67	0.948
3208.11	0.948
3216.54	0.9454
3224.98	0.9414
3233.41	0.9408
3241.85	0.943
3250.29	0.945
3258.72	0.947
3267.16	0.9415
3275.6	0.94
3284.03	0.94
3292.47	0.937
3300.91	0.9351
3309.34	0.934
3317.78	0.931
3326.22	0.928
3334.65	0.9221
3343.09	0.9113
3351.52	0.9032
3359.96	0.8971
3368.4	0.8901
3376.83	0.8821
3385.27	0.8751
3393.71	0.8581
3402.14	0.853
3410.58	0.8685
3419.02	0.8889
3427.45	0.8988
3435.89	0.9099
3444.33	0.924
3452.76	0.932
3461.2	0.9389
3469.64	0.9519
3478.07	0.957
3486.51	0.965
3494.94	0.976
3503.38	0.978
3511.82	0.982
3520.25	0.988
3528.69	0.988
3537.13	0.989
3545.56	0.992
3554	0.996
3562.44	1
3570.87	0.998
3579.31	0.988
3587.75	1.0011
3596.18	1.0009
3604.62	1
3613.06	1
3621.49	1
3629.93	1
3638.36	1
3646.8	1.001
3655.24	1
3663.67	1
3672.11	0.997
3680.55	0.9929
3688.98	0.9881
3697.42	0.9921
3705.86	1
3714.29	0.998
3722.73	0.996
3731.17	0.9962
3739.6	0.998
3748.04	0.9978
3756.48	0.996
3764.91	0.997
