Infrared Spectrum: 3-CYCLOHEXENE CARBONITRILE
Formula: C7 H9 N
CAS: 100-45-8
State: LIQUID
Boiling point: 39 C AT 1.4-2.0 mmHg
Class: COBLENTZ
Instrument: Not specified, most likely a prism, grating, or hybrid spectrometer.
Sampling: TRANSMISSION
Path length: SMEAR
Resolution: 4
Origin: TENNESSEE EASTMAN COMPANY, RESEARCH LABORATORIES
MICROMETERS	TRANSMITTANCE
2.027	0.969
2.06786	0.969
2.10871	0.969
2.14957	0.964
2.19042	0.964
2.23128	0.96
2.27213	0.931
2.31299	0.924
2.35384	0.923
2.3947	0.938
2.43556	0.941
2.47641	0.945
2.51727	0.94
2.55812	0.936
2.59898	0.936
2.63983	0.943
2.68069	0.948
2.72154	0.943
2.7624	0.94
2.80326	0.938
2.84411	0.941
2.88497	0.948
2.92582	0.952
2.96668	0.95
3.00753	0.941
3.04839	0.924
3.08924	0.941
3.1301	0.941
3.17096	0.928
3.21181	0.921
3.25267	0.846
3.29352	0.367
3.33438	0.721
3.37523	0.198
3.41609	0.191
3.45694	0.391
3.4978	0.294
3.53866	0.852
3.57951	0.892
3.62037	0.919
3.66122	0.941
3.70208	0.941
3.74293	0.933
3.78379	0.912
3.82464	0.938
3.8655	0.953
3.90636	0.957
3.94721	0.957
3.98807	0.957
4.02892	0.958
4.06978	0.962
4.11063	0.965
4.15149	0.96
4.19234	0.955
4.2332	0.955
4.27406	0.955
4.31491	0.953
4.35577	0.948
4.39662	0.929
4.43748	0.738
4.47833	0.302
4.51919	0.986
4.56004	0.965
4.6009	0.982
4.64176	0.981
4.68261	0.979
4.72347	0.974
4.76432	0.982
4.80518	0.991
4.84603	0.991
4.88689	0.989
4.92774	0.988
4.9686	0.986
5.00946	0.991
5.05031	0.984
5.09117	0.981
5.13202	0.974
5.17288	0.967
5.21373	0.969
5.25459	0.986
5.29544	0.972
5.3363	0.974
5.37716	0.981
5.41801	0.984
5.45887	0.981
5.49972	0.991
5.54058	0.991
5.58143	0.986
5.62229	0.984
5.66314	0.981
5.704	0.979
5.74486	0.964
5.78571	0.947
5.82657	0.935
5.86742	0.95
5.90828	0.933
5.94913	0.928
5.98999	0.924
6.03084	0.81
6.0717	0.77
6.11256	0.882
6.15341	0.859
6.19427	0.885
6.23512	0.938
6.27598	0.962
6.31683	0.967
6.35769	0.962
6.39854	0.96
6.4394	0.965
6.48026	0.941
6.52111	0.96
6.56197	0.948
6.60282	0.95
6.64368	0.95
6.68453	0.933
6.72539	0.916
6.76624	0.83
6.8071	0.688
6.84796	0.389
6.88881	0.321
6.92967	0.172
6.97052	0.511
7.01138	0.805
7.05223	0.868
7.09309	0.892
7.13394	0.844
7.1748	0.793
7.21566	0.87
7.25651	0.892
7.29737	0.859
7.33822	0.827
7.37908	0.772
7.41993	0.77
7.46079	0.825
7.50164	0.861
7.5425	0.74
7.58336	0.803
7.62421	0.841
7.66507	0.895
7.70592	0.887
7.74678	0.813
7.78763	0.834
7.82849	0.791
7.86934	0.796
7.9102	0.835
7.95106	0.769
7.99191	0.847
8.03277	0.89
8.07362	0.842
8.11448	0.841
8.15533	0.897
8.19619	0.888
8.23704	0.858
8.2779	0.769
8.31876	0.772
8.35961	0.755
8.40047	0.776
8.44132	0.69
8.48218	0.813
8.52303	0.873
8.56389	0.883
8.60474	0.883
8.6456	0.87
8.68646	0.786
8.72731	0.547
8.76817	0.656
8.80902	0.818
8.84988	0.852
8.89073	0.861
8.93159	0.864
8.97244	0.87
9.0133	0.87
9.05416	0.871
9.09501	0.87
9.13587	0.854
9.17672	0.839
9.21758	0.77
9.25843	0.688
9.29929	0.774
9.34014	0.796
9.381	0.794
9.42186	0.779
9.46271	0.76
9.50357	0.661
9.54442	0.589
9.58528	0.605
9.62613	0.639
9.66699	0.811
9.70784	0.842
9.7487	0.842
9.78956	0.803
9.83041	0.741
9.87127	0.782
9.91212	0.834
9.95298	0.858
9.99383	0.875
10.0347	0.887
10.0755	0.892
10.1164	0.892
10.1573	0.883
10.1981	0.875
10.239	0.863
10.2798	0.847
10.3207	0.823
10.3615	0.755
10.4024	0.642
10.4432	0.741
10.4841	0.707
10.525	0.699
10.5658	0.827
10.6067	0.868
10.6475	0.885
10.6884	0.887
10.7292	0.861
10.7701	0.815
10.8109	0.752
10.8518	0.611
10.8927	0.541
10.9335	0.586
10.9744	0.74
11.0152	0.758
11.0561	0.772
11.0969	0.83
11.1378	0.841
11.1786	0.786
11.2195	0.642
11.2604	0.641
11.3012	0.762
11.3421	0.83
11.3829	0.863
11.4238	0.863
11.4646	0.81
11.5055	0.723
11.5463	0.803
11.5872	0.852
11.6281	0.868
11.6689	0.87
11.7098	0.806
11.7506	0.77
11.7915	0.839
11.8323	0.905
11.8732	0.938
11.914	0.947
11.9549	0.952
11.9958	0.955
12.0366	0.955
12.0775	0.953
12.1183	0.948
12.1592	0.941
12.2	0.943
12.2409	0.943
12.2817	0.943
12.3226	0.938
12.3635	0.924
12.4043	0.909
12.4452	0.899
12.486	0.902
12.5269	0.902
12.5677	0.888
12.6086	0.899
12.6494	0.916
12.6903	0.921
12.7312	0.929
12.772	0.929
12.8129	0.929
12.8537	0.928
12.8946	0.921
12.9354	0.911
12.9763	0.895
13.0171	0.876
13.058	0.835
13.0989	0.776
13.1397	0.644
13.1806	0.471
13.2214	0.362
13.2623	0.415
13.3031	0.56
13.344	0.682
13.3848	0.757
13.4257	0.798
13.4666	0.818
13.5074	0.825
13.5483	0.825
13.5891	0.808
13.63	0.765
13.6708	0.668
13.7117	0.516
13.7525	0.37
13.7934	0.341
13.8343	0.442
13.8751	0.553
13.916	0.635
13.9568	0.69
13.9977	0.717
14.0385	0.74
14.0794	0.753
14.1202	0.762
14.1611	0.762
14.202	0.765
14.2428	0.765
14.2837	0.762
14.3245	0.758
14.3654	0.752
14.4062	0.748
14.4471	0.741
14.4879	0.735
14.5288	0.721
14.5697	0.705
14.6105	0.688
14.6514	0.67
14.6922	0.651
14.7331	0.622
14.7739	0.598
14.8148	0.569
14.8556	0.538
14.8965	0.514
14.9374	0.49
14.9782	0.439
15.0191	0.365
15.0599	0.305
15.1008	0.278
15.1416	0.259
15.1825	0.258
15.2233	0.258
15.2642	0.278
15.3051	0.305
15.3459	0.347
15.3868	0.401
15.4276	0.456
15.4685	0.514
15.5093	0.565
15.5502	0.603
15.591	0.634
15.6319	0.656
15.6728	0.676
15.7136	0.69
15.7545	0.7
15.7953	0.711
15.8362	0.719
15.877	0.724
15.9179	0.729
15.9587	0.729
15.9996	0.729
