Infrared Spectrum: BENZYL ALCOHOL
Formula: C7 H8 O
CAS: 100-51-6
State: SOLUTION (CS2 FOR 2-6.2 AND 7.3-15 microns, AND C2Cl4 FOR 6.2-7.3 microns)
Class: COBLENTZ III
Instrument: PERKIN-ELMER 21 (GRATING)
Instrument parameters: FILTER AT ABOUT 10 MICRONS
Sampling: TRANSMISSION
Path length: 0.1 CM
Resolution: 2
1/CM	TRANSMITTANCE
4000	0.957
3991	0.9553
3982	0.9535
3973	0.9521
3964	0.9517
3955	0.9521
3946	0.9542
3937	0.9562
3928	0.958
3919	0.9597
3910	0.9609
3901	0.9621
3892	0.9631
3883	0.9634
3874	0.9636
3865	0.9638
3856	0.9636
3847	0.9633
3838	0.9625
3829	0.9612
3820	0.9599
3811	0.9583
3802	0.9563
3793	0.9543
3784	0.9527
3775	0.9523
3766	0.9521
3757	0.9528
3748	0.9535
3739	0.9549
3730	0.9561
3721	0.9567
3712	0.9571
3703	0.9571
3694	0.9568
3685	0.9563
3676	0.955
3667	0.9528
3658	0.9503
3649	0.9464
3640	0.9415
3631	0.9289
3622	0.9021
3613	0.868
3604	0.8375
3595	0.7675
3586	0.6912
3577	0.6147
3568	0.5377
3559	0.5205
3550	0.5362
3541	0.5782
3532	0.6204
3523	0.6628
3514	0.7055
3505	0.7444
3496	0.7515
3487	0.7515
3478	0.75
3469	0.7438
3460	0.7361
3451	0.7294
3442	0.7239
3433	0.7203
3424	0.7178
3415	0.7169
3406	0.7165
3397	0.7161
3388	0.7161
3379	0.7162
3370	0.7164
3361	0.7174
3352	0.7186
3343	0.7205
3334	0.7228
3325	0.7251
3316	0.7283
3307	0.7324
3298	0.7378
3289	0.7439
3280	0.7515
3271	0.7601
3262	0.7708
3253	0.7868
3244	0.8005
3235	0.8138
3226	0.8246
3217	0.8325
3208	0.8405
3199	0.8495
3190	0.8587
3181	0.8678
3172	0.8771
3163	0.8859
3154	0.8923
3145	0.898
3136	0.9031
3127	0.9061
3118	0.9078
3109	0.9083
3100	0.9056
3091	0.8877
3082	0.8417
3073	0.794
3064	0.7461
3055	0.7001
3046	0.6853
3037	0.6792
3028	0.643
3019	0.5954
3010	0.5921
3001	0.6153
2992	0.6674
2983	0.7198
2974	0.7725
2965	0.8105
2956	0.8122
2947	0.8115
2938	0.7925
2929	0.7604
2920	0.7281
2911	0.6656
2902	0.6455
2893	0.636
2884	0.6226
2875	0.6126
2866	0.6024
2857	0.562
2848	0.5212
2839	0.5143
2830	0.5607
2821	0.6177
2812	0.6751
2803	0.728
2794	0.7474
2785	0.7656
2776	0.785
2767	0.8115
2758	0.8321
2749	0.8509
2740	0.8639
2731	0.8771
2722	0.8898
2713	0.9007
2704	0.9092
2695	0.916
2686	0.9221
2677	0.9281
2668	0.9331
2659	0.938
2650	0.943
2641	0.9481
2632	0.9533
2623	0.9581
2614	0.9591
2605	0.9594
2596	0.9588
2587	0.9594
2578	0.9606
2569	0.9637
2560	0.9678
2551	0.972
2542	0.9761
2533	0.98
2524	0.9833
2515	0.9854
2506	0.9861
2497	0.9859
2488	0.9858
2479	0.9858
2470	0.9858
2461	0.9864
2452	0.9871
2443	0.9882
2434	0.9918
2425	0.9965
2416	0.9988
2407	0.9999
2398	1.0007
2389	1.0013
2380	1.002
2371	1.0025
2362	1.0033
2353	1.0034
2344	1.0036
2335	1.0037
2326	1.0039
2317	1.004
2308	1.0042
2299	1.0043
2290	1.0045
2281	1.0041
2272	1.0037
2263	1.0033
2254	1.0028
2245	1.0024
2236	1.0018
2227	1.0014
2218	1.0008
2209	1.0004
2200	1.0007
2191	1.001
2182	1.0013
2173	1.0016
2164	1.0023
2155	1.0031
2146	1.0038
2137	1.0049
2128	1.0068
2119	1.0087
2110	1.0098
2101	1.0103
2092	1.0108
2083	1.0105
2074	1.0084
2065	1.0032
2056	0.997
2047	0.9923
2038	0.9897
2029	0.9878
2020	0.9875
2011	0.9873
2002	0.9855
1993	0.9841
1984	0.9828
1975	0.9825
1966	0.9796
1957	0.9574
1948	0.936
1939	0.9056
1930	0.8937
1921	0.9534
1912	0.9668
1903	0.9761
1894	0.9801
1885	0.9761
1876	0.9564
1867	0.9345
1858	0.9165
1849	0.9354
1840	0.9605
1831	0.9701
1822	0.9689
1813	0.9449
1804	0.9343
1795	0.8978
1786	0.9389
1777	0.9586
1768	0.9611
1759	0.9627
1750	0.9634
1741	0.9506
1732	0.9475
1723	0.9523
1714	0.9532
1705	0.9509
1696	0.9587
1687	0.9665
1678	0.9641
1669	0.9603
1660	0.9547
1651	0.9505
1642	0.9464
1633	0.944
1624	0.9437
1615	0.9363
1606	0.8605
1597	0.8567
1588	0.8586
1579	0.8703
1570	0.8864
1561	0.9092
1552	0.9239
1543	0.9344
1534	0.9393
1525	0.939
1516	0.9378
1507	0.9418
1498	0.516
1489	0.7411
1480	0.8078
1471	0.7808
1462	0.6433
1453	0.2872
1444	0.6273
1435	0.7145
1426	0.729
1417	0.7137
1408	0.674
1399	0.6331
1390	0.5469
1381	0.4627
1372	0.4102
1363	0.5171
1354	0.6432
1345	0.6845
1336	0.6838
1327	0.684
1318	0.6901
1309	0.6982
1300	0.7072
1291	0.7237
1282	0.739
1273	0.7503
1264	0.7568
1255	0.7641
1246	0.761
1237	0.7542
1228	0.7346
1219	0.7019
1210	0.6256
1201	0.448
1192	0.4886
1183	0.4846
1174	0.4705
1165	0.5379
1156	0.621
1147	0.6958
1138	0.7504
1129	0.7867
1120	0.8042
1111	0.804
1102	0.8005
1093	0.7878
1084	0.7451
1075	0.6294
1066	0.6499
1057	0.6278
1048	0.4622
1039	0.2587
1030	0.2183
1021	0.1353
1012	0.1163
1003	0.1602
994	0.3012
985	0.4273
976	0.4801
967	0.497
958	0.5556
949	0.6743
940	0.7496
931	0.7867
922	0.7975
913	0.7783
904	0.6747
895	0.7161
886	0.8064
877	0.8495
868	0.8671
859	0.877
850	0.8817
841	0.8721
832	0.8565
823	0.8562
814	0.8265
805	0.8065
796	0.791
787	0.8175
778	0.8378
769	0.8143
760	0.7218
751	0.4277
742	0.1228
733	0.059
724	0.2662
715	0.5227
706	0.5145
697	0.0836
688	0.4203
679	0.708
670	0.7628
