Infrared Spectrum: BENZYLAMINE
Formula: C7 H9 N
CAS: 100-46-9
State: LIQUID (NEAT)
Class: COBLENTZ II
Instrument: PERKIN-ELMER 521 (GRATING)
Instrument parameters: FILTERS AT 3130, 2475, 2000, 620. GRATING CHANGES: 2000, 630 CM^-^1
Sampling: TRANSMISSION
Path length: CAPILLARY
Resolution: 2
Origin: SOUTHERN RESEARCH INSTITUTE
1/CM	TRANSMITTANCE
254.288	0.604
264.492	0.6247
274.696	0.6476
284.9	0.6598
295.104	0.6695
305.308	0.6827
315.512	0.692
325.717	0.6996
335.921	0.71
346.125	0.7114
356.329	0.717
366.533	0.7225
376.737	0.729
386.941	0.73
397.145	0.73
407.349	0.735
417.553	0.7499
427.757	0.758
437.961	0.7545
448.166	0.7348
458.37	0.6695
468.574	0.6696
478.778	0.682
488.982	0.7692
499.186	0.8017
509.39	0.805
519.594	0.8023
529.798	0.7987
540.002	0.7937
550.206	0.7769
560.41	0.7352
570.614	0.5998
580.819	0.5272
591.023	0.7273
601.227	0.768
611.431	0.768
621.635	0.786
631.839	0.786
642.043	0.7822
652.247	0.761
662.451	0.7155
672.655	0.7083
682.859	0.5791
693.063	0.1738
703.267	0.43
713.472	0.4918
723.676	0.2797
733.88	0.217
744.084	0.2465
754.288	0.4402
764.492	0.4776
774.696	0.4675
784.9	0.5197
795.104	0.5896
805.308	0.5407
815.512	0.4947
825.716	0.4313
835.921	0.3816
846.125	0.3639
856.329	0.362
866.533	0.365
876.737	0.3778
886.941	0.4027
897.145	0.4134
907.349	0.4268
917.553	0.5064
927.757	0.5806
937.961	0.6446
948.165	0.664
958.369	0.6454
968.574	0.636
978.778	0.6433
988.982	0.682
999.186	0.7051
1009.39	0.7012
1019.59	0.5312
1029.8	0.7173
1040	0.6756
1050.21	0.6236
1060.41	0.6953
1070.61	0.7192
1080.82	0.8055
1091.02	0.8293
1101.23	0.836
1111.43	0.834
1121.63	0.827
1131.84	0.8084
1142.04	0.7846
1152.25	0.782
1162.45	0.7871
1172.66	0.783
1182.86	0.7874
1193.06	0.7545
1203.27	0.785
1213.47	0.8308
1223.68	0.834
1233.88	0.8301
1244.08	0.8168
1254.29	0.7897
1264.49	0.7863
1274.7	0.787
1284.9	0.782
1295.1	0.787
1305.31	0.783
1315.51	0.7684
1325.72	0.7521
1335.92	0.7388
1346.12	0.7057
1356.33	0.7386
1366.53	0.7191
1376.74	0.6229
1386.94	0.6553
1397.14	0.7882
1407.35	0.809
1417.55	0.7918
1427.76	0.7566
1437.96	0.6588
1448.17	0.2649
1458.37	0.6528
1468.57	0.7557
1478.78	0.7465
1488.98	0.3309
1499.19	0.7487
1509.39	0.792
1519.59	0.7894
1529.8	0.7695
1540	0.7426
1550.21	0.7186
1560.41	0.6814
1570.61	0.6235
1580.82	0.5567
1591.02	0.5429
1601.23	0.49
1611.43	0.5924
1621.63	0.6484
1631.84	0.6856
1642.04	0.7162
1652.25	0.7513
1662.45	0.7698
1672.66	0.7955
1682.86	0.8164
1693.06	0.8278
1703.27	0.84
1713.47	0.851
1723.68	0.852
1733.88	0.85
1744.08	0.846
1754.29	0.844
1764.49	0.847
1774.7	0.851
1784.9	0.852
1795.1	0.8348
1805.31	0.817
1815.51	0.8286
1825.72	0.84
1835.92	0.847
1846.12	0.8492
1856.33	0.8387
1866.53	0.828
1876.74	0.824
1886.94	0.829
1897.14	0.838
1907.35	0.852
1917.55	0.8501
1927.76	0.8385
1937.96	0.8139
1948.17	0.7904
1958.37	0.8145
1968.57	0.8327
1978.78	0.8505
1988.98	0.8564
1999.19	0.862
2009.39	0.864
2019.59	0.866
2029.8	0.87
2040	0.872
2050.21	0.872
2060.41	0.8744
2070.61	0.875
2080.82	0.875
2091.02	0.875
2101.23	0.875
2111.43	0.875
2121.63	0.874
2131.84	0.874
2142.04	0.874
2152.25	0.874
2162.45	0.874
2172.65	0.872
2182.86	0.872
2193.06	0.871
2203.27	0.871
2213.47	0.87
2223.68	0.867
2233.88	0.867
2244.08	0.8694
2254.29	0.87
2264.49	0.871
2274.7	0.87
2284.9	0.867
2295.1	0.866
2305.31	0.866
2315.51	0.867
2325.72	0.8677
2335.92	0.869
2346.12	0.871
2356.33	0.871
2366.53	0.871
2376.74	0.872
2386.94	0.872
2397.14	0.871
2407.35	0.871
2417.55	0.869
2427.76	0.867
2437.96	0.867
2448.17	0.866
2458.37	0.866
2468.57	0.865
2478.78	0.865
2488.98	0.8633
2499.19	0.862
2509.39	0.862
2519.59	0.862
2529.8	0.862
2540	0.862
2550.21	0.8616
2560.41	0.86
2570.61	0.858
2580.82	0.858
2591.02	0.852
2601.23	0.851
2611.43	0.846
2621.63	0.8436
2631.84	0.8434
2642.04	0.844
2652.25	0.844
2662.45	0.843
2672.65	0.8447
2682.86	0.844
2693.06	0.8403
2703.27	0.8336
2713.47	0.8263
2723.68	0.8143
2733.88	0.7946
2744.08	0.789
2754.29	0.795
2764.49	0.7933
2774.7	0.789
2784.9	0.7739
2795.1	0.7443
2805.31	0.7046
2815.51	0.6342
2825.72	0.5956
2835.92	0.5579
2846.12	0.493
2856.33	0.5012
2866.53	0.5613
2876.74	0.575
2886.94	0.5613
2897.14	0.5399
2907.35	0.533
2917.55	0.5414
2927.76	0.5741
2937.96	0.6306
2948.16	0.6959
2958.37	0.7254
2968.57	0.725
2978.78	0.7113
2988.98	0.6715
2999.19	0.6403
3009.39	0.5661
3019.59	0.3887
3029.8	0.5347
3040	0.5909
3050.21	0.5082
3060.41	0.5492
3070.61	0.5972
3080.82	0.5922
3091.02	0.689
3101.23	0.6914
3111.43	0.7114
3121.63	0.7083
3131.84	0.7006
3142.04	0.687
3152.25	0.6646
3162.45	0.6519
3172.65	0.6427
3182.86	0.6416
3193.06	0.639
3203.27	0.636
3213.47	0.6329
3223.68	0.627
3233.88	0.6189
3244.08	0.6029
3254.29	0.5843
3264.49	0.5626
3274.7	0.5506
3284.9	0.548
3295.1	0.5504
3305.31	0.5628
3315.51	0.5804
3325.72	0.592
3335.92	0.5832
3346.12	0.5542
3356.33	0.5091
3366.53	0.4954
3376.74	0.5138
3386.94	0.5642
3397.14	0.6332
3407.35	0.6661
3417.55	0.687
3427.76	0.6981
3437.96	0.7104
3448.16	0.7227
3458.37	0.733
3468.57	0.7444
3478.78	0.752
3488.98	0.7624
3499.19	0.7704
3509.39	0.7814
3519.59	0.7904
3529.8	0.7964
3540	0.8044
3550.21	0.8104
3560.41	0.8157
3570.61	0.82
3580.82	0.824
3591.02	0.8276
3601.23	0.828
3611.43	0.825
3621.63	0.823
3631.84	0.819
3642.04	0.8146
3652.25	0.8084
3662.45	0.824
3672.65	0.8384
3682.86	0.8481
3693.06	0.857
3703.27	0.861
3713.47	0.861
3723.67	0.864
3733.88	0.86
3744.08	0.86
3754.29	0.857
3764.49	0.8654
3774.7	0.865
3784.9	0.865
3795.1	0.864
3805.31	0.862
3815.51	0.861
3825.72	0.86
3835.92	0.8606
3846.12	0.86
3856.33	0.855
3866.53	0.8604
3876.74	0.86
3886.94	0.86
3897.14	0.862
3907.35	0.861
3917.55	0.861
3927.76	0.8606
3937.96	0.861
3948.16	0.86
3958.37	0.858
3968.57	0.8543
3978.78	0.8493
