Infrared Spectrum: P-NITROPHENOL
Formula: C6 H5 N O3
CAS: 100-02-7
State: SOLUTION (ETHYL ETHER)
Class: COBLENTZ
Instrument: Not specified, most likely a prism, grating, or hybrid spectrometer.
Sampling: TRANSMISSION
Path length: 0.0200 CM
Resolution: 4
Origin: BATTELLE MEMORIAL INSTITUTE (R. JAKOBSEN)
1/CM	TRANSMITTANCE
299.668	0.541
300.598	0.561
301.527	0.573
302.457	0.582
303.386	0.602
304.316	0.637
305.246	0.679
306.175	0.719
307.105	0.733
308.035	0.805
308.964	0.831
309.894	0.862
310.823	0.87
311.753	0.886
312.683	0.895
313.612	0.896
314.542	0.895
315.471	0.895
316.401	0.894
317.331	0.894
318.26	0.895
319.19	0.894
320.12	0.892
321.049	0.894
321.979	0.892
322.908	0.892
323.838	0.892
324.768	0.894
325.697	0.895
326.627	0.891
327.556	0.894
328.486	0.89
329.416	0.895
330.345	0.896
331.275	0.9
332.205	0.901
333.134	0.901
334.064	0.903
334.993	0.901
335.923	0.903
336.853	0.9
337.782	0.901
338.712	0.9
339.641	0.9
340.571	0.899
341.501	0.899
342.43	0.899
343.36	0.9
344.289	0.9
345.219	0.901
346.149	0.901
347.078	0.901
348.008	0.899
348.938	0.9
349.867	0.9
350.797	0.9
351.726	0.899
352.656	0.898
353.586	0.9
354.515	0.9
355.445	0.9
356.374	0.901
357.304	0.9
358.234	0.9
359.163	0.9
360.093	0.758
361.023	0.756
361.952	0.744
362.882	0.713
363.811	0.699
364.741	0.711
365.671	0.739
366.6	0.757
367.53	0.774
368.459	0.778
369.389	0.781
370.319	0.789
371.248	0.793
372.178	0.798
373.108	0.797
374.037	0.797
374.967	0.797
375.896	0.801
376.826	0.801
377.756	0.797
378.685	0.794
379.615	0.793
380.544	0.794
381.474	0.794
382.404	0.793
383.333	0.793
384.263	0.802
385.193	0.81
386.122	0.817
387.052	0.831
387.981	0.831
388.911	0.835
389.841	0.839
390.77	0.845
391.7	0.849
392.629	0.854
393.559	0.863
394.489	0.868
395.418	0.876
396.348	0.879
397.278	0.89
398.207	0.894
399.137	0.903
400.066	0.907
400.996	0.908
401.926	0.907
402.855	0.903
403.785	0.911
404.714	0.915
405.644	0.916
406.574	0.919
407.503	0.921
408.433	0.912
409.363	0.913
410.292	0.912
411.222	0.912
412.151	0.908
413.081	0.907
414.011	0.899
414.94	0.898
415.87	0.89
416.799	0.878
417.729	0.868
418.659	0.866
419.588	0.867
420.518	0.866
421.447	0.862
422.377	0.858
423.307	0.852
424.236	0.852
425.166	0.845
426.096	0.839
427.025	0.842
427.955	0.835
428.884	0.83
429.814	0.822
430.744	0.818
431.673	0.806
432.603	0.798
433.532	0.77
434.462	0.723
435.392	0.699
436.321	0.655
437.251	0.619
438.181	0.598
439.11	0.586
440.04	0.581
440.969	0.58
441.899	0.582
442.829	0.598
443.758	0.637
444.688	0.666
445.617	0.687
446.547	0.713
447.477	0.74
448.406	0.764
449.336	0.778
450.266	0.789
451.195	0.794
452.125	0.802
453.054	0.81
453.984	0.818
454.914	0.826
455.843	0.834
456.773	0.837
457.702	0.839
458.632	0.841
459.562	0.846
460.491	0.847
461.421	0.849
462.351	0.85
463.28	0.854
464.21	0.855
465.139	0.855
466.069	0.856
466.999	0.86
467.928	0.854
468.858	0.851
469.787	0.851
470.717	0.85
471.647	0.847
472.576	0.839
473.506	0.838
474.436	0.837
475.365	0.835
476.295	0.831
477.224	0.825
478.154	0.818
479.084	0.809
480.013	0.805
480.943	0.798
481.872	0.79
482.802	0.777
483.732	0.764
484.661	0.748
485.591	0.733
486.521	0.709
487.45	0.686
488.38	0.659
489.309	0.631
490.239	0.611
491.169	0.6
492.098	0.565
493.028	0.519
493.957	0.43
494.887	0.381
495.817	0.332
496.746	0.29
497.676	0.251
498.605	0.229
499.535	0.222
500.465	0.218
501.394	0.221
502.324	0.227
503.254	0.271
504.183	0.317
505.113	0.35
506.042	0.394
506.972	0.442
507.902	0.491
508.831	0.519
509.761	0.541
510.69	0.558
511.62	0.582
512.55	0.602
513.479	0.635
514.409	0.652
515.339	0.662
516.268	0.67
517.198	0.684
518.127	0.688
519.057	0.691
519.987	0.698
520.916	0.698
521.846	0.699
522.775	0.695
523.705	0.679
524.635	0.659
525.564	0.639
526.494	0.606
527.424	0.569
528.353	0.529
529.283	0.508
530.212	0.495
531.142	0.488
532.072	0.482
533.001	0.486
533.931	0.513
534.86	0.549
535.79	0.578
536.72	0.609
537.649	0.649
538.579	0.667
539.509	0.688
540.438	0.703
541.368	0.715
542.297	0.731
543.227	0.75
544.157	0.764
545.086	0.766
546.016	0.773
546.945	0.781
547.875	0.782
548.805	0.788
549.734	0.789
550.664	0.789
551.594	0.79
552.523	0.79
553.453	0.788
554.382	0.784
555.312	0.789
556.242	0.79
557.171	0.792
558.101	0.797
559.03	0.798
559.96	0.801
560.89	0.8
561.819	0.801
562.749	0.806
563.679	0.809
564.608	0.807
565.538	0.807
566.467	0.805
567.397	0.803
568.327	0.803
569.256	0.803
570.186	0.802
571.115	0.801
572.045	0.8
572.975	0.798
573.904	0.798
574.834	0.801
575.763	0.801
576.693	0.801
577.623	0.8
578.552	0.8
579.482	0.8
580.412	0.8
581.341	0.8
582.271	0.793
583.2	0.792
584.13	0.79
585.06	0.788
585.989	0.781
586.919	0.778
587.848	0.774
588.778	0.772
589.708	0.77
590.637	0.762
591.567	0.757
592.497	0.757
593.426	0.756
594.356	0.754
595.285	0.752
596.215	0.752
597.145	0.749
598.074	0.747
599.004	0.741
599.933	0.741
600.863	0.741
601.793	0.741
602.722	0.741
603.652	0.739
604.582	0.737
605.511	0.731
606.441	0.725
607.37	0.72
608.3	0.709
609.23	0.7
610.159	0.692
611.089	0.69
612.018	0.683
612.948	0.672
613.878	0.65
614.807	0.633
615.737	0.611
616.667	0.584
617.596	0.541
618.526	0.508
619.455	0.449
620.385	0.418
621.315	0.386
622.244	0.315
623.174	0.255
624.103	0.149
625.033	0.113
625.963	0.072
626.892	0.052
627.822	0.055
628.752	0.067
629.681	0.092
630.611	0.112
631.54	0.137
632.47	0.168
633.4	0.223
634.329	0.29
635.259	0.343
636.188	0.414
637.118	0.499
638.048	0.543
638.977	0.58
639.907	0.593
640.837	0.603
641.766	0.621
642.696	0.633
643.625	0.647
644.555	0.658
645.485	0.666
646.414	0.671
647.344	0.674
648.273	0.679
649.203	0.682
650.133	0.684
651.062	0.686
651.992	0.69
652.921	0.692
653.851	0.695
654.781	0.695
655.71	0.695
656.64	0.698
657.57	0.7
658.499	0.7
659.429	0.701
