Infrared Spectrum: CYCLOHEXANONE OXIME
Formula: C6 H11 N O
CAS: 100-64-1
State: SOLUTION (10% CCl4 FOR 5000-1330, 10% CS2 FOR 1330-625 CM^-^1)
Class: COBLENTZ
Instrument: Not specified, most likely a prism, grating, or hybrid spectrometer.
Sampling: TRANSMISSION
Path length: 0.0124 CM, 0.0105 CM
Resolution: 4
Origin: DOW CHEMICAL COMPANY
MICROMETERS	TRANSMITTANCE
2.021	0.899
2.06214	0.899
2.10327	0.899
2.14441	0.901
2.18554	0.899
2.22668	0.889
2.26782	0.882
2.30895	0.882
2.35009	0.885
2.39122	0.887
2.43236	0.887
2.47349	0.887
2.51463	0.887
2.55577	0.889
2.5969	0.896
2.63804	0.899
2.67917	0.894
2.72031	0.85
2.76145	0.746
2.80258	0.752
2.84372	0.649
2.88485	0.468
2.92599	0.311
2.96712	0.16
3.00826	0.1
3.0494	0.083
3.09053	0.078
3.13167	0.097
3.1728	0.139
3.21394	0.168
3.25508	0.253
3.29621	0.315
3.33735	0.26
3.37848	0.086
3.41962	0.027
3.46075	0.081
3.50189	0.247
3.54303	0.468
3.58416	0.536
3.6253	0.597
3.66643	0.64
3.70757	0.671
3.74871	0.706
3.78984	0.759
3.83098	0.792
3.87211	0.804
3.91325	0.827
3.95438	0.841
3.99552	0.848
4.03666	0.85
4.07779	0.855
4.11893	0.862
4.16006	0.86
4.2012	0.858
4.24234	0.853
4.28347	0.85
4.32461	0.868
4.36574	0.87
4.40688	0.872
4.44801	0.872
4.48915	0.87
4.53029	0.872
4.57142	0.872
4.61256	0.872
4.65369	0.873
4.69483	0.873
4.73597	0.873
4.7771	0.873
4.81824	0.879
4.85937	0.877
4.90051	0.873
4.94164	0.875
4.98278	0.882
5.02392	0.882
5.06505	0.877
5.10619	0.872
5.14732	0.868
5.18846	0.867
5.2296	0.865
5.27073	0.865
5.31187	0.856
5.353	0.851
5.39414	0.848
5.43527	0.846
5.47641	0.843
5.51755	0.841
5.55868	0.841
5.59982	0.839
5.64095	0.834
5.68209	0.836
5.72323	0.834
5.76436	0.834
5.8055	0.829
5.84663	0.817
5.88777	0.802
5.9289	0.727
5.97004	0.548
6.01118	0.49
6.05231	0.659
6.09345	0.764
6.13458	0.775
6.17572	0.776
6.21686	0.778
6.25799	0.766
6.29913	0.751
6.34026	0.746
6.3814	0.732
6.42253	0.695
6.46367	0.626
6.50481	0.565
6.54594	0.546
6.58708	0.562
6.62821	0.58
6.66935	0.551
6.71049	0.461
6.75162	0.386
6.79276	0.354
6.83389	0.301
6.87503	0.16
6.91616	0.178
6.9573	0.214
6.99844	0.318
7.03957	0.492
7.08071	0.545
7.12184	0.58
7.16298	0.604
7.20412	0.618
7.24525	0.625
7.28639	0.618
7.32752	0.66
7.36866	0.579
7.40979	0.495
7.45093	0.516
7.49207	0.536
7.5332	0.454
7.57434	0.48
7.61547	0.701
7.65661	0.771
7.69775	0.8
7.73888	0.817
7.78002	0.824
7.82115	0.787
7.86229	0.744
7.90342	0.73
7.94456	0.616
7.9857	0.388
8.02683	0.524
8.06797	0.688
8.1091	0.691
8.15024	0.531
8.19138	0.494
8.23251	0.766
8.27365	0.86
8.31478	0.892
8.35592	0.899
8.39705	0.906
8.43819	0.913
8.47933	0.913
8.52046	0.909
8.5616	0.908
8.60273	0.904
8.64387	0.896
8.68501	0.877
8.72614	0.821
8.76728	0.691
8.80841	0.715
8.84955	0.822
8.89068	0.88
8.93182	0.879
8.97296	0.851
9.01409	0.729
9.05523	0.567
9.09636	0.693
9.1375	0.848
9.17864	0.858
9.21977	0.843
9.26091	0.85
9.30204	0.868
9.34318	0.877
9.38431	0.902
9.42545	0.921
9.46659	0.926
9.50772	0.928
9.54886	0.928
9.58999	0.928
9.63113	0.925
9.67227	0.916
9.7134	0.899
9.75454	0.851
9.79567	0.846
9.83681	0.858
9.87794	0.856
9.91908	0.816
9.96022	0.725
10.0014	0.592
10.0425	0.286
10.0836	0.09
10.1248	0.109
10.1659	0.352
10.207	0.504
10.2482	0.517
10.2893	0.451
10.3304	0.35
10.3716	0.218
10.4127	0.165
10.4538	0.178
10.495	0.207
10.5361	0.168
10.5773	0.097
10.6184	0.182
10.6595	0.304
10.7007	0.374
10.7418	0.425
10.7829	0.516
10.8241	0.439
10.8652	0.345
10.9063	0.398
10.9475	0.551
10.9886	0.618
11.0297	0.599
11.0709	0.456
11.112	0.277
11.1532	0.117
11.1943	0.09
11.2354	0.218
11.2766	0.311
11.3177	0.485
11.3588	0.626
11.4	0.7
11.4411	0.744
11.4822	0.759
11.5234	0.768
11.5645	0.771
11.6056	0.768
11.6468	0.734
11.6879	0.7
11.7291	0.705
11.7702	0.742
11.8113	0.735
11.8525	0.652
11.8936	0.512
11.9347	0.424
11.9759	0.512
12.017	0.688
12.0581	0.724
12.0993	0.744
12.1404	0.746
12.1816	0.742
12.2227	0.73
12.2638	0.722
12.305	0.708
12.3461	0.698
12.3872	0.689
12.4284	0.676
12.4695	0.662
12.5106	0.647
12.5518	0.635
12.5929	0.621
12.634	0.609
12.6752	0.596
12.7163	0.586
12.7575	0.563
12.7986	0.54
12.8397	0.483
12.8809	0.465
12.922	0.458
12.9631	0.449
13.0043	0.442
13.0454	0.475
13.0865	0.494
13.1277	0.5
13.1688	0.507
13.2099	0.507
13.2511	0.502
13.2922	0.49
13.3334	0.487
13.3745	0.48
13.4156	0.48
13.4568	0.478
13.4979	0.478
13.539	0.478
13.5802	0.478
13.6213	0.483
13.6624	0.497
13.7036	0.5
13.7447	0.504
13.7858	0.517
13.827	0.526
13.8681	0.536
13.9093	0.545
13.9504	0.557
13.9915	0.558
14.0327	0.572
14.0738	0.584
14.1149	0.591
14.1561	0.596
14.1972	0.603
14.2383	0.611
14.2795	0.618
14.3206	0.628
14.3618	0.633
14.4029	0.635
14.444	0.643
14.4852	0.647
14.5263	0.65
14.5674	0.652
14.6086	0.655
14.6497	0.655
14.6908	0.655
14.732	0.655
14.7731	0.655
14.8142	0.655
14.8554	0.655
14.8965	0.649
14.9377	0.635
14.9788	0.62
15.0199	0.601
15.0611	0.58
15.1022	0.548
15.1433	0.517
15.1845	0.495
15.2256	0.482
15.2667	0.48
15.3079	0.48
15.349	0.488
15.3901	0.502
15.4313	0.528
15.4724	0.541
15.5136	0.558
15.5547	0.57
15.5958	0.579
15.637	0.584
15.6781	0.587
15.7192	0.586
15.7604	0.596
15.8015	0.597
15.8426	0.599
15.8838	0.599
