Infrared Spectrum: p-METHOXY ACETOPHENONE
Formula: C9 H10 O2
CAS: 100-06-1
State: LIQUID
Class: COBLENTZ
Instrument: Not specified, most likely a prism, grating, or hybrid spectrometer.
Sampling: TRANSMISSION
Path length: FILM
Resolution: 4
Origin: INFRACORD
MICROMETERS	TRANSMITTANCE
2.524	0.936
2.55948	0.933
2.59495	0.933
2.63043	0.934
2.66591	0.936
2.70139	0.936
2.73686	0.932
2.77234	0.914
2.80782	0.901
2.8433	0.9
2.87877	0.901
2.91425	0.906
2.94973	0.921
2.98521	0.926
3.02068	0.918
3.05616	0.919
3.09164	0.924
3.12712	0.925
3.16259	0.918
3.19807	0.912
3.23355	0.898
3.26903	0.874
3.3045	0.861
3.33998	0.82
3.37546	0.801
3.41094	0.786
3.44641	0.812
3.48189	0.858
3.51737	0.886
3.55285	0.823
3.58832	0.895
3.6238	0.905
3.65928	0.906
3.69476	0.913
3.73023	0.914
3.76571	0.914
3.80119	0.913
3.83667	0.898
3.87214	0.893
3.90762	0.891
3.9431	0.885
3.97857	0.892
4.01405	0.894
4.04953	0.897
4.08501	0.903
4.12048	0.905
4.15596	0.898
4.19144	0.895
4.22692	0.895
4.26239	0.905
4.29787	0.908
4.33335	0.912
4.36883	0.903
4.4043	0.898
4.43978	0.899
4.47526	0.9
4.51074	0.898
4.54621	0.897
4.58169	0.895
4.61717	0.893
4.65265	0.897
4.68812	0.898
4.7236	0.9
4.75908	0.894
4.79456	0.893
4.83003	0.891
4.86551	0.877
4.90099	0.865
4.93647	0.869
4.97194	0.879
5.00742	0.884
5.0429	0.877
5.07838	0.871
5.11385	0.88
5.14933	0.874
5.18481	0.865
5.22029	0.871
5.25576	0.867
5.29124	0.872
5.32672	0.879
5.3622	0.88
5.39767	0.882
5.43315	0.885
5.46863	0.885
5.5041	0.881
5.53958	0.879
5.57506	0.875
5.61054	0.877
5.64601	0.872
5.68149	0.869
5.71697	0.869
5.75245	0.867
5.78792	0.867
5.8234	0.862
5.85888	0.848
5.89436	0.835
5.92983	0.788
5.96531	0.625
6.00079	0.16
6.03627	0.085
6.07174	0.509
6.10722	0.754
6.1427	0.769
6.17818	0.758
6.21365	0.645
6.24913	0.322
6.28461	0.095
6.32009	0.278
6.35556	0.505
6.39104	0.431
6.42652	0.739
6.462	0.817
6.49747	0.833
6.53295	0.835
6.56843	0.83
6.60391	0.822
6.63938	0.622
6.67486	0.356
6.71034	0.739
6.74582	0.81
6.78129	0.814
6.81677	0.782
6.85225	0.663
6.88772	0.625
6.9232	0.637
6.95868	0.683
6.99416	0.657
7.02963	0.651
7.06511	0.609
7.10059	0.54
7.13607	0.654
7.17154	0.764
7.20702	0.812
7.2425	0.823
7.27798	0.813
7.31345	0.763
7.34893	0.638
7.38441	0.458
7.41989	0.335
7.45536	0.498
7.49084	0.73
7.52632	0.788
7.5618	0.775
7.59727	0.69
7.63275	0.55
7.66823	0.49
7.70371	0.476
7.73918	0.608
7.77466	0.667
7.81014	0.643
7.84562	0.533
7.88109	0.254
7.91657	0.126
7.95205	0.125
7.98753	0.063
8.023	0.052
8.05848	0.114
8.09396	0.25
8.12944	0.465
8.16491	0.648
8.20039	0.739
8.23587	0.781
8.27134	0.803
8.30682	0.812
8.3423	0.812
8.37778	0.804
8.41325	0.745
8.44873	0.624
8.48421	0.484
8.51969	0.281
8.55516	0.182
8.59064	0.195
8.62612	0.626
8.6616	0.754
8.69707	0.771
8.73255	0.778
8.76803	0.793
8.80351	0.81
8.83898	0.828
8.87446	0.833
8.90994	0.834
8.94542	0.799
8.98089	0.7
9.01637	0.697
9.05185	0.784
9.08733	0.828
9.1228	0.833
9.15828	0.835
9.19376	0.838
9.22924	0.835
9.26471	0.817
9.30019	0.765
9.33567	0.771
9.37115	0.816
9.40662	0.83
9.4421	0.834
9.47758	0.834
9.51306	0.834
9.54853	0.825
9.58401	0.807
9.61949	0.764
9.65497	0.678
9.69044	0.516
9.72592	0.39
9.7614	0.349
9.79687	0.406
9.83235	0.529
9.86783	0.673
9.90331	0.742
9.93878	0.77
9.97426	0.782
10.0097	0.801
10.0452	0.814
10.0807	0.823
10.1162	0.825
10.1516	0.827
10.1871	0.823
10.2226	0.816
10.2581	0.806
10.2936	0.788
10.329	0.754
10.3645	0.703
10.4	0.622
10.4355	0.554
10.4709	0.549
10.5064	0.641
10.5419	0.724
10.5774	0.769
10.6129	0.79
10.6483	0.806
10.6838	0.82
10.7193	0.826
10.7548	0.828
10.7902	0.832
10.8257	0.833
10.8612	0.834
10.8967	0.835
10.9322	0.835
10.9676	0.835
11.0031	0.835
11.0386	0.835
11.0741	0.835
11.1095	0.835
11.145	0.834
11.1805	0.833
11.216	0.828
11.2514	0.826
11.2869	0.827
11.3224	0.827
11.3579	0.827
11.3934	0.827
11.4288	0.827
11.4643	0.827
11.4998	0.826
11.5353	0.823
11.5707	0.819
11.6062	0.808
11.6417	0.796
11.6772	0.78
11.7127	0.751
11.7481	0.705
11.7836	0.637
11.8191	0.559
11.8546	0.495
11.89	0.417
11.9255	0.358
11.961	0.329
11.9965	0.32
12.032	0.395
12.0674	0.502
12.1029	0.619
12.1384	0.68
12.1739	0.702
12.2093	0.71
12.2448	0.711
12.2803	0.706
12.3158	0.691
12.3513	0.658
12.3867	0.596
12.4222	0.598
12.4577	0.682
12.4932	0.749
12.5286	0.782
12.5641	0.795
12.5996	0.803
12.6351	0.806
12.6705	0.81
12.706	0.813
12.7415	0.814
12.777	0.814
12.8125	0.814
12.8479	0.814
12.8834	0.814
12.9189	0.814
12.9544	0.814
12.9898	0.814
13.0253	0.814
13.0608	0.813
13.0963	0.81
13.1318	0.808
13.1672	0.807
13.2027	0.803
13.2382	0.802
13.2737	0.801
13.3091	0.801
13.3446	0.801
13.3801	0.801
13.4156	0.799
13.4511	0.797
13.4865	0.796
13.522	0.794
13.5575	0.794
13.593	0.791
13.6284	0.789
13.6639	0.789
13.6994	0.787
13.7349	0.781
13.7703	0.774
13.8058	0.77
13.8413	0.773
13.8768	0.773
13.9123	0.773
13.9477	0.771
13.9832	0.77
14.0187	0.769
14.0542	0.768
14.0896	0.765
14.1251	0.762
14.1606	0.76
14.1961	0.757
14.2316	0.756
14.267	0.754
14.3025	0.754
14.338	0.752
14.3735	0.751
14.4089	0.749
14.4444	0.745
14.4799	0.741
14.5154	0.736
14.5509	0.73
14.5863	0.728
14.6218	0.722
14.6573	0.719
14.6928	0.71
14.7282	0.702
14.7637	0.691
14.7992	0.684
14.8347	0.682
14.8701	0.682
