Infrared Spectrum: DIETHYLAMINOETHANOL
Formula: C6 H15 N O
CAS: 100-37-8
State: LIQUID (NEAT)
Class: COBLENTZ III
Instrument: BAIRD (PRISM)
Instrument parameters: NaCl PRISM
Sampling: TRANSMISSION
Path length: 0.003 CM
Resolution: 2
Origin: WYANDOTTE CHEMICALS CORP.
MICROMETERS	TRANSMITTANCE
2.005	0.977
2.04274	0.979
2.08047	0.986
2.11821	0.989
2.15594	0.99
2.19368	0.9797
2.23142	0.9539
2.26915	0.954
2.30689	0.956
2.34463	0.9571
2.38236	0.959
2.4201	0.957
2.45783	0.956
2.49557	0.962
2.53331	0.9649
2.57104	0.968
2.60878	0.968
2.64651	0.968
2.68425	0.968
2.72199	0.9668
2.75972	0.9412
2.79746	0.8554
2.83519	0.6697
2.87293	0.4098
2.91067	0.2692
2.9484	0.1855
2.98614	0.159
3.02388	0.1681
3.06161	0.1886
3.09935	0.2129
3.13708	0.2321
3.17482	0.265
3.21256	0.3101
3.25029	0.3557
3.28803	0.4101
3.32576	0.3451
3.3635	0.0288
3.40124	0.021
3.43897	0.0321
3.47671	0.0489
3.51444	0.0511
3.55218	0.0455
3.58992	0.0372
3.62765	0.1781
3.66539	0.2889
3.70313	0.3393
3.74086	0.4631
3.7786	0.5254
3.81633	0.6002
3.85407	0.6384
3.89181	0.6609
3.92954	0.6858
3.96728	0.725
4.00501	0.7521
4.04275	0.774
4.08049	0.7927
4.11822	0.8121
4.15596	0.8304
4.1937	0.843
4.23143	0.863
4.26917	0.87
4.3069	0.867
4.34464	0.8711
4.38238	0.8859
4.42011	0.9131
4.45785	0.92
4.49558	0.921
4.53332	0.93
4.57106	0.933
4.60879	0.941
4.64653	0.941
4.68426	0.941
4.722	0.942
4.75974	0.943
4.79747	0.943
4.83521	0.937
4.87295	0.937
4.91068	0.9411
4.94842	0.945
4.98615	0.951
5.02389	0.954
5.06163	0.956
5.09936	0.956
5.1371	0.953
5.17483	0.954
5.21257	0.9524
5.25031	0.95
5.28804	0.953
5.32578	0.953
5.36352	0.953
5.40125	0.953
5.43899	0.9545
5.47672	0.954
5.51446	0.9448
5.5522	0.942
5.58993	0.942
5.62767	0.9382
5.6654	0.932
5.70314	0.93
5.74088	0.9223
5.77861	0.906
5.81635	0.901
5.85408	0.905
5.89182	0.902
5.92956	0.8943
5.96729	0.883
6.00503	0.8596
6.04277	0.852
6.0805	0.849
6.11824	0.847
6.15597	0.846
6.19371	0.843
6.23145	0.845
6.26918	0.847
6.30692	0.839
6.34465	0.8369
6.38239	0.83
6.42013	0.825
6.45786	0.8216
6.4956	0.8043
6.53333	0.7984
6.57107	0.7797
6.60881	0.7527
6.64654	0.7047
6.68428	0.6088
6.72202	0.4066
6.75975	0.2895
6.79749	0.198
6.83522	0.204
6.87296	0.2264
6.9107	0.2915
6.94843	0.3612
6.98617	0.4187
7.0239	0.4337
7.06164	0.3795
7.09938	0.3406
7.13711	0.3271
7.17485	0.2092
7.21259	0.1412
7.25032	0.1384
7.28806	0.1667
7.32579	0.2668
7.36353	0.3088
7.40127	0.321
7.439	0.3341
7.47674	0.374
7.51447	0.3977
7.55221	0.4394
7.58995	0.4526
7.62768	0.4511
7.66542	0.4011
7.70315	0.3188
7.74089	0.3091
7.77863	0.4135
7.81636	0.4892
7.8541	0.5242
7.89184	0.5415
7.92957	0.543
7.96731	0.545
8.00504	0.5189
8.04278	0.4947
8.08052	0.4692
8.11825	0.4759
8.15599	0.493
8.19372	0.4668
8.23146	0.3819
8.2692	0.3019
8.30693	0.2139
8.34467	0.2052
8.3824	0.3091
8.42014	0.4393
8.45788	0.4628
8.49561	0.4148
8.53335	0.3583
8.57109	0.3533
8.60882	0.4375
8.64656	0.5154
8.68429	0.562
8.72203	0.57
8.75977	0.5546
8.7975	0.5031
8.83524	0.4634
8.87297	0.457
8.91071	0.4691
8.94845	0.5018
8.98618	0.5058
9.02392	0.449
9.06166	0.3504
9.09939	0.2352
9.13713	0.1606
9.17486	0.1289
9.2126	0.1176
9.25034	0.115
9.28807	0.1076
9.32581	0.09
9.36354	0.0683
9.40128	0.051
9.43902	0.0348
9.47675	0.0231
9.51449	0.019
9.55222	0.019
9.58996	0.026
9.6277	0.0329
9.66543	0.0585
9.70317	0.1079
9.74091	0.1811
9.77864	0.2517
9.81638	0.3339
9.85411	0.4085
9.89185	0.4755
9.92959	0.5033
9.96732	0.516
10.0051	0.493
10.0428	0.4756
10.0805	0.4874
10.1183	0.5306
10.156	0.5767
10.1937	0.6079
10.2315	0.632
10.2692	0.6475
10.3069	0.663
10.3447	0.6988
10.3824	0.7345
10.4202	0.758
10.4579	0.769
10.4956	0.77
10.5334	0.77
10.5711	0.7653
10.6088	0.7507
10.6466	0.746
10.6843	0.743
10.722	0.743
10.7598	0.741
10.7975	0.74
10.8353	0.7261
10.873	0.712
10.9107	0.6854
10.9485	0.6669
10.9862	0.659
11.0239	0.6685
11.0617	0.6853
11.0994	0.6975
11.1371	0.7147
11.1749	0.7339
11.2126	0.7562
11.2504	0.765
11.2881	0.765
11.3258	0.748
11.3636	0.7199
11.4013	0.6671
11.439	0.6023
11.4768	0.5808
11.5145	0.589
11.5522	0.626
11.59	0.6584
11.6277	0.6836
11.6654	0.7039
11.7032	0.7294
11.7409	0.75
11.7787	0.761
11.8164	0.7739
11.8541	0.7827
11.8919	0.7932
11.9296	0.7985
11.9673	0.8
12.0051	0.8
12.0428	0.7909
12.0805	0.7814
12.1183	0.7612
12.156	0.7478
12.1938	0.7265
12.2315	0.7036
12.2692	0.6806
12.307	0.6588
12.3447	0.6382
12.3824	0.6232
12.4202	0.6124
12.4579	0.602
12.4956	0.599
12.5334	0.6
12.5711	0.6062
12.6089	0.6179
12.6466	0.6286
12.6843	0.6176
12.7221	0.6009
12.7598	0.5862
12.7975	0.583
12.8353	0.581
12.873	0.578
12.9107	0.575
12.9485	0.575
12.9862	0.5756
13.0239	0.5844
13.0617	0.5919
13.0994	0.6052
13.1372	0.6191
13.1749	0.6368
13.2126	0.645
13.2504	0.647
13.2881	0.6385
13.3258	0.6303
13.3636	0.612
13.4013	0.5847
13.439	0.5533
13.4768	0.5319
13.5145	0.5111
13.5523	0.492
13.59	0.4786
13.6277	0.456
13.6655	0.4479
13.7032	0.4399
13.7409	0.4562
13.7787	0.498
13.8164	0.5461
13.8541	0.5942
13.8919	0.6188
13.9296	0.6396
13.9674	0.653
14.0051	0.6647
14.0428	0.6704
14.0806	0.678
14.1183	0.679
14.156	0.685
14.1938	0.686
14.2315	0.689
14.2692	0.695
14.307	0.695
14.3447	0.695
14.3824	0.695
14.4202	0.6872
14.4579	0.695
14.4957	0.692
14.5334	0.686
14.5711	0.685
14.6089	0.684
14.6466	0.68
14.6843	0.6789
14.7221	0.677
14.7598	0.678
14.7975	0.6755
14.8353	0.671
14.873	0.671
14.9108	0.669
14.9485	0.6688
14.9862	0.666
15.024	0.6563
15.0617	0.653
15.0994	0.6596
15.1372	0.661
15.1749	0.66
15.2126	0.657
15.2504	0.6529
15.2881	0.65
15.3259	0.645
15.3636	0.6424
15.4013	0.643
15.4391	0.6416
15.4768	0.637
15.5145	0.631
15.5523	0.631
15.59	0.627
15.6277	0.629
15.6655	0.6255
15.7032	0.624
15.7409	0.6225
15.7787	0.62
15.8164	0.619
15.8542	0.6171
15.8919	0.614
15.9296	0.6098
15.9674	0.609
