Infrared Spectrum: 1,4-DIISOPROPYL BENZENE
Formula: C12 H18
CAS: 100-18-5
State: LIQUID
Class: COBLENTZ
Instrument: PERKIN-ELMER
Sampling: TRANSMISSION
Path length: 0.0024 CM
Resolution: 4
Origin: STANDARD OIL OF OHIO
1/CM	TRANSMITTANCE
584.555	0.615
593.011	0.605
601.466	0.6
609.922	0.602
618.377	0.612
626.833	0.622
635.288	0.636
643.744	0.664
652.199	0.685
660.655	0.697
669.111	0.708
677.566	0.7469
686.022	0.774
694.477	0.796
702.933	0.813
711.388	0.827
719.844	0.834
728.3	0.84
736.755	0.846
745.211	0.847
753.666	0.859
762.122	0.862
770.577	0.859
779.033	0.854
787.488	0.856
795.944	0.847
804.4	0.83
812.855	0.7801
821.311	0.6019
829.766	0.0377
838.222	0.1702
846.677	0.7488
855.133	0.829
863.588	0.851
872.044	0.859
880.5	0.851
888.955	0.7879
897.411	0.8389
905.866	0.859
914.322	0.829
922.777	0.736
931.233	0.849
939.689	0.857
948.144	0.861
956.6	0.854
965.055	0.871
973.511	0.879
981.966	0.883
990.422	0.871
998.877	0.857
1007.33	0.8219
1015.79	0.5215
1024.24	0.6324
1032.7	0.8
1041.16	0.7369
1049.61	0.4972
1058.07	0.6051
1066.52	0.5002
1074.98	0.6512
1083.43	0.769
1091.89	0.6859
1100.34	0.558
1108.8	0.607
1117.26	0.681
1125.71	0.771
1134.17	0.764
1142.62	0.68
1151.08	0.7849
1159.53	0.866
1167.99	0.868
1176.44	0.859
1184.9	0.84
1193.36	0.857
1201.81	0.847
1210.27	0.825
1218.72	0.851
1227.18	0.849
1235.63	0.849
1244.09	0.857
1252.54	0.847
1261	0.82
1269.46	0.7171
1277.91	0.6582
1286.37	0.7
1294.82	0.5242
1303.28	0.686
1311.73	0.736
1320.19	0.6661
1328.64	0.5931
1337.1	0.661
1345.56	0.61
1354.01	0.5091
1362.47	0.3973
1370.92	0.5241
1379.38	0.3403
1387.83	0.597
1396.29	0.524
1404.74	0.516
1413.2	0.4279
1421.66	0.5099
1430.11	0.636
1438.57	0.598
1447.02	0.4668
1455.48	0.297
1463.93	0.126
1472.39	0.289
1480.84	0.6372
1489.3	0.71
1497.76	0.6268
1506.21	0.406
1514.67	0.2721
1523.12	0.5779
1531.58	0.8073
1540.03	0.891
1548.49	0.898
1556.94	0.9
1565.4	0.9
1573.86	0.9
1582.31	0.908
1590.77	0.912
1599.22	0.906
1607.68	0.9
1616.13	0.898
1624.59	0.9
1633.04	0.898
1641.5	0.89
1649.96	0.8469
1658.41	0.768
1666.87	0.8121
1675.32	0.89
1683.78	0.9
1692.23	0.903
1700.69	0.906
1709.14	0.91
1717.6	0.908
1726.06	0.91
1734.51	0.91
1742.97	0.91
1751.42	0.906
1759.88	0.898
1768.33	0.878
1776.79	0.886
1785.24	0.8569
1793.7	0.869
1802.16	0.91
1810.61	0.92
1819.07	0.92
1827.52	0.92
1835.98	0.918
1844.43	0.917
1852.89	0.915
1861.34	0.913
1869.8	0.905
1878.26	0.888
1886.71	0.8639
1895.17	0.802
1903.62	0.7492
1912.08	0.883
1920.53	0.905
1928.99	0.91
1937.44	0.91
1945.9	0.913
1954.36	0.913
1962.81	0.915
1971.27	0.92
1979.72	0.92
1988.18	0.92
1996.63	0.918
2005.09	0.922
2013.54	0.92
2022	0.92
2030.46	0.92
2038.91	0.9179
2047.37	0.92
2055.82	0.92
2064.28	0.92
2072.73	0.92
2081.19	0.922
2089.64	0.922
2098.1	0.922
2106.56	0.92
2115.01	0.92
2123.47	0.92
2131.92	0.92
2140.38	0.92
2148.83	0.92
2157.29	0.9206
2165.74	0.92
2174.2	0.92
2182.66	0.92
2191.11	0.92
2199.57	0.92
2208.02	0.92
2216.48	0.917
2224.93	0.9138
2233.39	0.9109
2241.84	0.9069
2250.3	0.8973
2258.76	0.8941
2267.21	0.9005
2275.67	0.9
2284.12	0.898
2292.58	0.903
2301.03	0.906
2309.49	0.906
2317.94	0.9068
2326.4	0.9056
2334.86	0.901
2343.31	0.901
2351.77	0.901
2360.22	0.903
2368.68	0.903
2377.13	0.905
2385.59	0.906
2394.04	0.906
2402.5	0.9085
2410.96	0.91
2419.41	0.912
2427.87	0.913
2436.32	0.9128
2444.78	0.9104
2453.23	0.9097
2461.69	0.9
2470.14	0.903
2478.6	0.901
2487.06	0.9
2495.51	0.9
2503.97	0.901
2512.42	0.903
2520.88	0.903
2529.33	0.903
2537.79	0.901
2546.24	0.901
2554.7	0.8951
2563.16	0.89
2571.61	0.888
2580.07	0.8741
2588.52	0.8521
2596.98	0.8488
2605.43	0.8617
2613.89	0.8789
2622.34	0.893
2630.8	0.893
2639.26	0.893
2647.71	0.893
2656.17	0.8884
2664.62	0.884
2673.08	0.8838
2681.53	0.8875
2689.99	0.886
2698.44	0.881
2706.9	0.8674
2715.36	0.8362
2723.81	0.835
2732.27	0.853
2740.72	0.861
2749.18	0.8508
2757.63	0.834
2766.09	0.854
2774.54	0.859
2783	0.849
2791.46	0.8303
2799.91	0.8026
2808.37	0.7638
2816.82	0.761
2825.28	0.7515
2833.73	0.7346
2842.19	0.67
2850.65	0.5784
2859.1	0.4527
2867.56	0.2845
2876.01	0.0622
2884.47	0.0647
2892.92	0.12
2901.38	0.1237
2909.83	0.1344
2918.29	0.1493
2926.75	0.0953
2935.2	0.0414
2943.66	0.0414
2952.11	0.0497
2960.57	0.014
2969.02	0.01
2977.48	0.0102
2985.93	0.1215
2994.39	0.3019
3002.85	0.409
3011.3	0.3601
3019.76	0.3007
3028.21	0.3043
3036.67	0.5446
3045.12	0.5599
3053.58	0.4682
3062.03	0.4561
3070.49	0.6814
3078.95	0.7168
3087.4	0.681
3095.86	0.685
3104.31	0.7487
3112.77	0.8348
3121.22	0.829
3129.68	0.825
3138.13	0.829
3146.59	0.8565
3155.05	0.862
3163.5	0.861
3171.96	0.8543
3180.41	0.851
3188.87	0.849
3197.32	0.8506
3205.78	0.852
3214.23	0.8586
3222.69	0.8655
3231.15	0.8705
3239.6	0.8802
3248.06	0.884
3256.51	0.891
3264.97	0.895
3273.42	0.896
3281.88	0.898
3290.33	0.898
3298.79	0.8993
3307.25	0.9
3315.7	0.9
3324.16	0.9
3332.61	0.9
3341.07	0.901
3349.52	0.9
3357.98	0.9
3366.43	0.899
3374.89	0.898
3383.35	0.895
3391.8	0.893
3400.26	0.891
3408.71	0.8919
3417.17	0.895
3425.62	0.895
3434.08	0.895
3442.53	0.895
3450.99	0.8956
3459.45	0.895
3467.9	0.895
3476.36	0.895
3484.81	0.893
3493.27	0.893
3501.72	0.893
3510.18	0.895
3518.63	0.895
3527.09	0.895
3535.55	0.898
3544	0.9
3552.46	0.9
3560.91	0.9
3569.37	0.9
3577.82	0.9
3586.28	0.9
3594.73	0.8998
3603.19	0.898
3611.65	0.898
3620.1	0.9
3628.56	0.898
3637.01	0.896
3645.47	0.891
3653.92	0.891
3662.38	0.89
3670.83	0.89
3679.29	0.89
3687.75	0.89
3696.2	0.8909
3704.66	0.8901
3713.11	0.89
3721.57	0.89
3730.02	0.89
3738.48	0.89
3746.93	0.8884
3755.39	0.888
3763.85	0.886
3772.3	0.886
3780.76	0.884
3789.21	0.884
3797.67	0.883
3806.12	0.883
3814.58	0.883
3823.03	0.883
3831.49	0.883
3839.95	0.883
3848.4	0.883
3856.86	0.883
3865.31	0.884
3873.77	0.884
3882.22	0.884
3890.68	0.884
3899.13	0.883
3907.59	0.881
3916.05	0.883
3924.5	0.883
3932.96	0.8835
