Infrared Spectrum: m-Fluorobenzylamine
Formula: C7 H8 F N
CAS: 100-82-3
State: LIQUID (NEAT)
Class: COBLENTZ III
Instrument: DOW KBr FOREPRISM-GRATING
Instrument parameters: BLAZED AT 3.5, 12.0, 20.0 MICRON AND CHANGED AT 5.0, 7.5, 14.9 MICRON
Sampling: TRANSMISSION
Path length: CAPILLARY
Resolution: 2
Origin: DOW CHEMICAL COMPANY
1/CM	TRANSMITTANCE
459	0.7665
468	0.7986
477	0.8058
486	0.8067
495	0.8033
504	0.7933
513	0.7389
522	0.5793
531	0.706
540	0.7775
549	0.8132
558	0.8243
567	0.8236
576	0.8216
585	0.8208
594	0.8175
603	0.8108
612	0.8065
621	0.8062
630	0.8283
639	0.8282
648	0.827
657	0.822
666	0.8082
675	0.7508
684	0.4184
693	0.3873
702	0.713
711	0.7531
720	0.6844
729	0.4919
738	0.5731
747	0.6568
756	0.6724
765	0.6187
774	0.4195
783	0.1877
792	0.2559
801	0.4898
810	0.5277
819	0.5004
828	0.4683
837	0.436
846	0.4016
855	0.3682
864	0.3338
873	0.33
882	0.3689
891	0.3903
900	0.4526
909	0.4309
918	0.4307
927	0.5123
936	0.6045
945	0.6625
954	0.6883
963	0.7039
972	0.7121
981	0.744
990	0.7474
999	0.756
1008	0.78
1017	0.8061
1026	0.7994
1035	0.7788
1044	0.7678
1053	0.7712
1062	0.7743
1071	0.7438
1080	0.7942
1089	0.8282
1098	0.8362
1107	0.8333
1116	0.7926
1125	0.6821
1134	0.4108
1143	0.4967
1152	0.6869
1161	0.6734
1170	0.7874
1179	0.8103
1188	0.8521
1197	0.8478
1206	0.8314
1215	0.7751
1224	0.6725
1233	0.5332
1242	0.3516
1251	0.2238
1260	0.2724
1269	0.3626
1278	0.6441
1287	0.7193
1296	0.7574
1305	0.7595
1314	0.7675
1323	0.7762
1332	0.7511
1341	0.708
1350	0.7346
1359	0.7621
1368	0.7418
1377	0.6815
1386	0.6867
1395	0.7739
1404	0.796
1413	0.7691
1422	0.7049
1431	0.586
1440	0.3818
1449	0.1863
1458	0.3414
1467	0.5382
1476	0.5672
1485	0.2364
1494	0.4635
1503	0.7105
1512	0.7372
1521	0.7078
1530	0.7515
1539	0.7588
1548	0.746
1557	0.7134
1566	0.631
1575	0.456
1584	0.2402
1593	0.1652
1602	0.4319
1611	0.3309
1620	0.3027
1629	0.5781
1638	0.6461
1647	0.5773
1656	0.6718
1665	0.7151
1674	0.7546
1683	0.7781
1692	0.7976
1701	0.8207
1710	0.8349
1719	0.8389
1728	0.8393
1737	0.8361
1746	0.8353
1755	0.8365
1764	0.8418
1773	0.8478
1782	0.8506
1791	0.8531
1800	0.8553
1809	0.8568
1818	0.8571
1827	0.8573
1836	0.8545
1845	0.8489
1854	0.8405
1863	0.8321
1872	0.8351
1881	0.8463
1890	0.8518
1899	0.8563
1908	0.8575
1917	0.8521
1926	0.8424
1935	0.8301
1944	0.8291
1953	0.8434
1962	0.8525
1971	0.8523
1980	0.8512
1989	0.8507
1998	0.8734
2007	0.8884
2016	0.8884
2025	0.8878
2034	0.888
2043	0.8884
2052	0.889
2061	0.8895
2070	0.89
2079	0.8904
2088	0.8903
2097	0.8903
2106	0.89
2115	0.8893
2124	0.8886
2133	0.8875
2142	0.8863
2151	0.8848
2160	0.8847
2169	0.8848
2178	0.8852
2187	0.8856
2196	0.8861
2205	0.8866
2214	0.887
2223	0.887
2232	0.8871
2241	0.8871
2250	0.8871
2259	0.8871
2268	0.8871
2277	0.8871
2286	0.8874
2295	0.8877
2304	0.888
2313	0.8871
2322	0.8862
2331	0.8839
2340	0.8812
2349	0.8775
2358	0.8742
2367	0.8711
2376	0.8685
2385	0.8671
2394	0.8671
2403	0.8678
2412	0.8675
2421	0.8674
2430	0.8677
2439	0.8678
2448	0.8675
2457	0.8674
2466	0.8673
2475	0.8671
2484	0.8667
2493	0.8657
2502	0.8646
2511	0.8637
2520	0.8628
2529	0.8616
2538	0.8604
2547	0.8582
2556	0.8568
2565	0.8563
2574	0.8557
2583	0.855
2592	0.8541
2601	0.8533
2610	0.8524
2619	0.8515
2628	0.8503
2637	0.849
2646	0.8478
2655	0.8464
2664	0.8441
2673	0.8417
2682	0.8394
2691	0.837
2700	0.8347
2709	0.8302
2718	0.8252
2727	0.8194
2736	0.8125
2745	0.8074
2754	0.8046
2763	0.8025
2772	0.8
2781	0.7976
2790	0.7887
2799	0.7783
2808	0.7668
2817	0.7518
2826	0.7324
2835	0.7015
2844	0.6548
2853	0.6082
2862	0.5918
2871	0.6065
2880	0.6248
2889	0.6408
2898	0.6396
2907	0.6268
2916	0.6178
2925	0.6166
2934	0.6233
2943	0.6388
2952	0.663
2961	0.6898
2970	0.7211
2979	0.7462
2988	0.7528
2997	0.7528
3006	0.7434
3015	0.7282
3024	0.7096
3033	0.686
3042	0.6621
3051	0.6574
3060	0.6507
3069	0.6444
3078	0.6526
3087	0.6631
3096	0.6844
3105	0.7026
3114	0.703
3123	0.6996
3132	0.6937
3141	0.6861
3150	0.6767
3159	0.6668
3168	0.6568
3177	0.6488
3186	0.6431
3195	0.64
3204	0.6373
3213	0.6346
3222	0.6324
3231	0.6283
3240	0.6224
3249	0.6136
3258	0.6039
3267	0.5927
3276	0.5816
3285	0.5721
3294	0.5689
3303	0.5702
3312	0.576
3321	0.5855
3330	0.5905
3339	0.5915
3348	0.587
3357	0.5768
3366	0.5615
3375	0.5496
3384	0.5503
3393	0.5598
3402	0.5833
3411	0.6199
3420	0.6418
3429	0.651
3438	0.6669
3447	0.6803
3456	0.6925
3465	0.701
3474	0.7095
3483	0.7175
3492	0.7255
3501	0.7333
3510	0.7411
3519	0.749
3528	0.7568
3537	0.7644
3546	0.7708
3555	0.7771
3564	0.7835
3573	0.7882
3582	0.793
3591	0.7975
3600	0.8021
3609	0.8065
3618	0.8085
3627	0.8087
3636	0.8054
3645	0.8017
3654	0.7972
3663	0.7918
3672	0.7918
3681	0.7998
3690	0.8121
3699	0.8214
3708	0.8289
3717	0.8345
3726	0.8389
3735	0.8407
3744	0.8415
3753	0.8416
3762	0.8406
3771	0.8394
3780	0.8375
3789	0.8358
3798	0.8346
3807	0.8342
