Infrared Spectrum: BENZENE, ETHYL-
Formula: C8 H10
CAS: 100-41-4
State: GAS (10 mmHg, N2 ADDED, TOTAL PRESSURE 600 mmHg)
Class: COBLENTZ
Instrument: PERKIN-ELMER 180
Sampling: TRANSMISSION
Path length: 10 CM
Resolution: 2
Origin: DOW CHEMICAL COMPANY
1/CM	TRANSMITTANCE
291.423	0.004
301.979	0.004
312.535	0.004
323.091	0.004
333.647	0.032
344.204	0.085
354.76	0.16
365.316	0.2319
375.872	0.328
386.428	0.401
396.984	0.493
407.54	0.578
418.096	0.65
428.652	0.707
439.208	0.757
449.765	0.781
460.321	0.781
470.877	0.7361
481.433	0.715
491.989	0.784
502.545	0.896
513.101	0.925
523.657	0.923
534.213	0.887
544.77	0.83
555.326	0.7699
565.882	0.86
576.438	0.9369
586.994	0.95
597.55	0.961
608.106	0.952
618.662	0.953
629.218	0.952
639.774	0.953
650.331	0.949
660.887	0.94
671.443	0.821
681.999	0.5353
692.555	0.1944
703.111	0.3009
713.667	0.491
724.223	0.4971
734.779	0.43
745.336	0.403
755.892	0.5178
766.448	0.626
777.004	0.736
787.56	0.8109
798.116	0.866
808.672	0.901
819.228	0.916
829.784	0.925
840.34	0.925
850.897	0.923
861.453	0.923
872.009	0.902
882.565	0.883
893.121	0.874
903.677	0.883
914.233	0.901
924.789	0.926
935.345	0.928
945.902	0.91
956.458	0.854
967.014	0.8629
977.57	0.902
988.126	0.908
998.682	0.917
1009.24	0.8631
1019.79	0.767
1030.35	0.769
1040.91	0.829
1051.46	0.773
1062.02	0.791
1072.57	0.869
1083.13	0.868
1093.69	0.872
1104.24	0.895
1114.8	0.901
1125.36	0.916
1135.91	0.923
1146.47	0.925
1157.02	0.928
1167.58	0.925
1178.14	0.923
1188.69	0.934
1199.25	0.928
1209.8	0.94
1220.36	0.937
1230.92	0.928
1241.47	0.914
1252.03	0.919
1262.58	0.92
1273.14	0.92
1283.7	0.907
1294.25	0.895
1304.81	0.889
1315.37	0.848
1325.92	0.803
1336.48	0.857
1347.03	0.89
1357.59	0.869
1368.15	0.805
1378.7	0.761
1389.26	0.8329
1399.81	0.875
1410.37	0.887
1420.93	0.8571
1431.48	0.7731
1442.04	0.574
1452.59	0.464
1463.15	0.5319
1473.71	0.722
1484.26	0.578
1494.82	0.467
1505.38	0.767
1515.93	0.893
1526.49	0.902
1537.04	0.904
1547.6	0.908
1558.16	0.916
1568.71	0.902
1579.27	0.86
1589.82	0.76
1600.38	0.649
1610.94	0.7579
1621.49	0.911
1632.05	0.92
1642.6	0.911
1653.16	0.908
1663.72	0.919
1674.27	0.923
1684.83	0.926
1695.38	0.914
1705.94	0.919
1716.5	0.907
1727.05	0.88
1737.61	0.895
1748.17	0.92
1758.72	0.922
1769.28	0.917
1779.83	0.881
1790.39	0.848
1800.95	0.887
1811.5	0.914
1822.06	0.926
1832.61	0.928
1843.17	0.905
1853.73	0.878
1864.28	0.857
1874.84	0.883
1885.39	0.911
1895.95	0.931
1906.51	0.925
1917.06	0.907
1927.62	0.862
1938.18	0.854
1948.73	0.859
1959.29	0.893
1969.84	0.932
1980.4	0.929
1990.96	0.931
2001.51	0.939
2012.07	0.9399
2022.62	0.935
2033.18	0.941
2043.74	0.9423
2054.29	0.9444
2064.85	0.9463
2075.4	0.944
2085.96	0.941
2096.52	0.9387
2107.07	0.941
2117.63	0.9392
2128.19	0.937
2138.74	0.934
2149.3	0.937
2159.85	0.9359
2170.41	0.9349
2180.97	0.9346
2191.52	0.9337
2202.08	0.9313
2212.63	0.9275
2223.19	0.9275
2233.75	0.929
2244.3	0.928
2254.86	0.925
2265.41	0.9175
2275.97	0.9197
2286.53	0.923
2297.08	0.9179
2307.64	0.913
2318.2	0.9147
2328.75	0.91
2339.31	0.916
2349.86	0.9204
2360.42	0.9193
2370.98	0.9253
2381.53	0.928
2392.09	0.923
2402.64	0.9246
2413.2	0.9274
2423.76	0.9201
2434.31	0.9185
2444.87	0.929
2455.42	0.9286
2465.98	0.92
2476.54	0.929
2487.09	0.919
2497.65	0.9176
2508.21	0.9175
2518.76	0.919
2529.32	0.9133
2539.87	0.9216
2550.43	0.9212
2560.99	0.911
2571.54	0.9149
2582.1	0.911
2592.65	0.9031
2603.21	0.9078
2613.77	0.9014
2624.32	0.8951
2634.88	0.9
2645.43	0.907
2655.99	0.91
2666.55	0.91
2677.1	0.907
2687.66	0.907
2698.21	0.905
2708.77	0.9037
2719.33	0.892
2729.88	0.883
2740.44	0.8949
2751	0.895
2761.55	0.8798
2772.11	0.8678
2782.66	0.868
2793.22	0.8653
2803.78	0.8582
2814.33	0.835
2824.89	0.7874
2835.44	0.7273
2846	0.639
2856.56	0.4755
2867.11	0.2926
2877.67	0.3084
2888.22	0.3743
2898.78	0.3856
2909.34	0.392
2919.89	0.2668
2930.45	0.1463
2941.01	0.2055
2951.56	0.1382
2962.12	0.0022
2972.67	0.0526
2983.23	0.5359
2993.79	0.6367
3004.34	0.5702
3014.9	0.3418
3025.45	0.1515
3036.01	0.2978
3046.57	0.523
3057.12	0.3426
3067.68	0.3023
3078.23	0.4625
3088.79	0.5501
3099.35	0.6771
3109.9	0.7635
3120.46	0.8691
3131.02	0.884
3141.57	0.889
3152.13	0.8841
3162.68	0.8735
3173.24	0.8722
3183.8	0.8874
3194.35	0.9011
3204.91	0.9076
3215.46	0.91
3226.02	0.91
3236.58	0.911
3247.13	0.91
3257.69	0.9064
3268.24	0.908
3278.8	0.9104
3289.36	0.913
3299.91	0.916
3310.47	0.916
3321.03	0.9119
3331.58	0.911
3342.14	0.9122
3352.69	0.913
3363.25	0.9116
3373.81	0.911
3384.36	0.911
3394.92	0.911
3405.47	0.9113
3416.03	0.911
3426.59	0.91
3437.14	0.908
3447.7	0.908
3458.25	0.909
3468.81	0.911
3479.37	0.9104
3489.92	0.9082
3500.48	0.908
3511.04	0.905
3521.59	0.9072
3532.15	0.91
3542.7	0.91
3553.26	0.908
3563.82	0.905
3574.37	0.907
3584.93	0.908
3595.48	0.907
3606.04	0.91
3616.6	0.908
3627.15	0.907
3637.71	0.907
3648.26	0.904
3658.82	0.9047
3669.38	0.907
3679.93	0.9095
3690.49	0.9133
3701.04	0.9168
3711.6	0.9178
3722.16	0.9199
3732.71	0.9241
3743.27	0.922
3753.83	0.927
3764.38	0.9221
3774.94	0.9256
3785.49	0.9203
3796.05	0.925
3806.61	0.9228
3817.16	0.922
3827.72	0.9197
3838.27	0.9198
3848.83	0.919
3859.39	0.917
3869.94	0.92
3880.5	0.9219
3891.05	0.923
3901.61	0.92
3912.17	0.9179
3922.72	0.914
3933.28	0.9117
3943.84	0.9102
3954.39	0.9124
3964.95	0.911
3975.5	0.91
3986.06	0.9124
3996.62	0.9109
4007.17	0.9106
