Infrared Spectrum: P-NITROCHLORO BENZENE
Formula: C6 H4 Cl N O2
CAS: 100-00-5
State: SOLUTION (CCl4 FOR 3800-1330, CS2 FOR 1330-625 CM^-^1)
Class: COBLENTZ
Instrument: Not specified, most likely a prism, grating, or hybrid spectrometer.
Sampling: TRANSMISSION
Path length: 0.01 CM, 0.01 CM
Resolution: 4
Origin: WYANDOTTE CHEMICALS CORP., WYANDOTTE, MICHIGAN, USA
MICROMETERS	TRANSMITTANCE
2	0.979
2.04094	0.982
2.08187	0.991
2.12281	1
2.16374	1
2.20468	0.994
2.24561	0.994
2.28655	0.996
2.32748	0.996
2.36842	0.994
2.40935	0.998
2.45029	1.003
2.49122	1.003
2.53216	1.001
2.57309	1
2.61403	1.001
2.65497	1.005
2.6959	1.006
2.73684	1.006
2.77777	1.006
2.81871	1.005
2.85964	1.003
2.90058	1.001
2.94151	0.996
2.98245	0.989
3.02338	0.988
3.06432	0.979
3.10525	0.96
3.14619	0.95
3.18713	0.88
3.22806	0.779
3.269	0.902
3.30993	0.921
3.35087	0.901
3.3918	0.868
3.43274	0.895
3.47367	0.822
3.51461	0.899
3.55554	0.94
3.59648	0.941
3.63741	0.936
3.67835	0.936
3.71928	0.928
3.76022	0.955
3.80116	0.953
3.84209	0.952
3.88303	0.96
3.92396	0.964
3.9649	0.969
4.00583	0.97
4.04677	0.96
4.0877	0.923
4.12864	0.957
4.16957	0.972
4.21051	0.959
4.25144	0.962
4.29238	0.988
4.33332	1.011
4.37425	1.001
4.41519	0.989
4.45612	0.984
4.49706	1
4.53799	0.993
4.57893	0.986
4.61986	1.001
4.6608	1.003
4.70173	1.005
4.74267	1.001
4.7836	1.005
4.82454	1.003
4.86547	1.003
4.90641	1.003
4.94735	1
4.98828	1
5.02922	1.001
5.07015	1.001
5.11109	0.988
5.15202	0.989
5.19296	0.984
5.23389	0.883
5.27483	0.941
5.31576	0.988
5.3567	0.988
5.39763	0.993
5.43857	0.974
5.4795	0.972
5.52044	0.984
5.56138	0.976
5.60231	0.928
5.64325	0.943
5.68418	0.984
5.72512	0.984
5.76605	0.952
5.80699	0.933
5.84792	0.924
5.88886	0.901
5.92979	0.865
5.97073	0.769
6.01166	0.776
6.0526	0.8
6.09354	0.718
6.13447	0.703
6.17541	0.341
6.21634	0.324
6.25728	0.322
6.29821	0.083
6.33915	0.534
6.38008	0.431
6.42102	0.196
6.46195	0.097
6.50289	0.025
6.54382	0.03
6.58476	0.319
6.62569	0.636
6.66663	0.663
6.70757	0.394
6.7485	0.107
6.78944	0.65
6.83037	0.795
6.87131	0.813
6.91224	0.812
6.95318	0.749
6.99411	0.517
7.03505	0.694
7.07598	0.769
7.11692	0.686
7.15785	0.609
7.19879	0.517
7.23972	0.549
7.28066	0.551
7.3216	0.344
7.36253	0.035
7.40347	0.022
7.4444	0.017
7.48534	0.151
7.52627	0.404
7.56721	0.578
7.60814	0.366
7.64908	0.704
7.69001	0.819
7.73095	0.834
7.77188	0.684
7.81282	0.503
7.85376	0.738
7.89469	0.813
7.93563	0.824
7.97656	0.827
8.0175	0.839
8.05843	0.825
8.09937	0.769
8.1403	0.771
8.18124	0.778
8.22217	0.749
8.26311	0.749
8.30404	0.802
8.34498	0.839
8.38591	0.856
8.42685	0.856
8.46779	0.846
8.50872	0.667
8.54966	0.706
8.59059	0.86
8.63153	0.875
8.67246	0.87
8.7134	0.873
8.75433	0.872
8.79527	0.856
8.8362	0.815
8.87714	0.761
8.91807	0.709
8.95901	0.43
8.99995	0.087
9.04088	0.23
9.08182	0.136
9.12275	0.049
9.16369	0.474
9.20462	0.616
9.24556	0.701
9.28649	0.726
9.32743	0.726
9.36836	0.721
9.4093	0.761
9.45023	0.81
9.49117	0.848
9.5321	0.837
9.57304	0.831
9.61398	0.863
9.65491	0.89
9.69585	0.897
9.73678	0.865
9.77772	0.791
9.81865	0.529
9.85959	0.203
9.90052	0.409
9.94146	0.694
9.98239	0.819
10.0233	0.854
10.0643	0.854
10.1052	0.858
10.1461	0.854
10.1871	0.844
10.228	0.846
10.2689	0.841
10.3099	0.819
10.3508	0.81
10.3917	0.798
10.4327	0.778
10.4736	0.752
10.5146	0.691
10.5555	0.721
10.5964	0.791
10.6374	0.813
10.6783	0.82
10.7192	0.822
10.7602	0.824
10.8011	0.839
10.842	0.849
10.883	0.856
10.9239	0.866
10.9648	0.87
11.0058	0.877
11.0467	0.882
11.0876	0.883
11.1286	0.878
11.1695	0.878
11.2105	0.882
11.2514	0.88
11.2923	0.872
11.3333	0.861
11.3742	0.846
11.4151	0.822
11.4561	0.803
11.497	0.776
11.5379	0.745
11.5789	0.696
11.6198	0.6
11.6607	0.45
11.7017	0.194
11.7426	0.044
11.7835	0.027
11.8245	0.023
11.8654	0.022
11.9064	0.032
11.9473	0.163
11.9882	0.397
12.0292	0.58
12.0701	0.648
12.111	0.684
12.152	0.687
12.1929	0.682
12.2338	0.682
12.2748	0.711
12.3157	0.747
12.3566	0.769
12.3976	0.791
12.4385	0.812
12.4794	0.81
12.5204	0.778
12.5613	0.74
12.6023	0.686
12.6432	0.706
12.6841	0.807
12.7251	0.854
12.766	0.861
12.8069	0.86
12.8479	0.863
12.8888	0.863
12.9297	0.861
12.9707	0.866
13.0116	0.863
13.0525	0.868
13.0935	0.861
13.1344	0.854
13.1754	0.839
13.2163	0.822
13.2572	0.8
13.2982	0.754
13.3391	0.692
13.38	0.583
13.421	0.382
13.4619	0.165
13.5028	0.054
13.5438	0.042
13.5847	0.127
13.6256	0.349
13.6666	0.54
13.7075	0.648
13.7484	0.73
13.7894	0.795
13.8303	0.836
13.8713	0.849
13.9122	0.863
13.9531	0.873
13.9941	0.882
14.035	0.894
14.0759	0.911
14.1169	0.912
14.1578	0.911
14.1987	0.916
14.2397	0.914
14.2806	0.912
14.3215	0.912
14.3625	0.907
14.4034	0.901
14.4443	0.892
14.4853	0.882
14.5262	0.873
14.5672	0.866
14.6081	0.861
14.649	0.849
14.69	0.815
14.7309	0.755
14.7718	0.679
14.8128	0.53
14.8537	0.424
14.8946	0.383
14.9356	0.457
14.9765	0.581
15.0174	0.653
15.0584	0.713
15.0993	0.774
15.1402	0.795
15.1812	0.808
15.2221	0.813
15.2631	0.82
15.304	0.812
15.3449	0.805
15.3859	0.808
15.4268	0.805
15.4677	0.812
15.5087	0.817
15.5496	0.813
15.5905	0.817
15.6315	0.82
15.6724	0.819
15.7133	0.813
15.7543	0.81
15.7952	0.805
15.8361	0.802
15.8771	0.796
15.918	0.795
15.959	0.79
