Infrared Spectrum: M-METHYL ANISOLE
Formula: C8 H10 O
CAS: 100-84-5
State: LIQUID
Boiling point: 62-67 C AT 10 mmHg
Class: COBLENTZ
Instrument: Not specified, most likely a prism, grating, or hybrid spectrometer.
Sampling: TRANSMISSION
Path length: 0.003 CM
Resolution: 4
Origin: WYANDOTTE CHEMICALS CORP., WYANDOTTE, MICHIGAN, USA
MICROMETERS	TRANSMITTANCE
2.03	0.966
2.06879	0.962
2.10759	0.966
2.14638	0.957
2.18518	0.923
2.22397	0.935
2.26277	0.951
2.30156	0.954
2.34036	0.94
2.37915	0.927
2.41795	0.933
2.45674	0.953
2.49553	0.957
2.53433	0.964
2.57312	0.972
2.61192	0.977
2.65071	0.972
2.68951	0.97
2.7283	0.972
2.7671	0.972
2.80589	0.966
2.84469	0.966
2.88348	0.967
2.92227	0.972
2.96107	0.966
2.99986	0.969
3.03866	0.966
3.07745	0.953
3.11625	0.946
3.15504	0.925
3.19384	0.854
3.23263	0.613
3.27143	0.466
3.31022	0.407
3.34901	0.237
3.38781	0.258
3.4266	0.438
3.4654	0.571
3.50419	0.462
3.54299	0.865
3.58178	0.907
3.62058	0.912
3.65937	0.911
3.69817	0.953
3.73696	0.956
3.77575	0.948
3.81455	0.948
3.85334	0.935
3.89214	0.93
3.93093	0.917
3.96973	0.938
4.00852	0.954
4.04732	0.944
4.08611	0.949
4.12491	0.936
4.1637	0.935
4.20249	0.938
4.24129	0.959
4.28008	0.969
4.31888	0.97
4.35767	0.956
4.39647	0.97
4.43526	0.974
4.47406	0.977
4.51285	0.975
4.55165	0.967
4.59044	0.948
4.62923	0.946
4.66803	0.949
4.70682	0.956
4.74562	0.964
4.78441	0.953
4.82321	0.944
4.862	0.94
4.9008	0.933
4.93959	0.93
4.97839	0.94
5.01718	0.954
5.05597	0.941
5.09477	0.943
5.13356	0.936
5.17236	0.928
5.21115	0.904
5.24995	0.907
5.28874	0.932
5.32754	0.901
5.36633	0.932
5.40512	0.935
5.44392	0.907
5.48271	0.914
5.52151	0.928
5.5603	0.946
5.5991	0.956
5.63789	0.941
5.67669	0.907
5.71548	0.855
5.75428	0.745
5.79307	0.686
5.83186	0.8
5.87066	0.868
5.90945	0.883
5.94825	0.875
5.98704	0.857
6.02584	0.786
6.06463	0.647
6.10343	0.323
6.14222	0.035
6.18102	0.038
6.21981	0.046
6.2586	0.279
6.2974	0.487
6.33619	0.558
6.37499	0.601
6.41378	0.598
6.45258	0.564
6.49137	0.551
6.53017	0.503
6.56896	0.412
6.60776	0.186
6.64655	0.064
6.68534	0.271
6.72414	0.213
6.76293	0.061
6.80173	0.097
6.84052	0.181
6.87932	0.197
6.91811	0.194
6.95691	0.344
6.9957	0.474
7.0345	0.614
7.07329	0.687
7.11208	0.758
7.15088	0.792
7.18967	0.737
7.22847	0.733
7.26726	0.771
7.30606	0.736
7.34485	0.744
7.38365	0.749
7.42244	0.703
7.46124	0.551
7.50003	0.488
7.53882	0.432
7.57762	0.234
7.61641	0.255
7.65521	0.194
7.694	0.061
7.7328	0.092
7.77159	0.2
7.81039	0.071
7.84918	0.032
7.88798	0.029
7.92677	0.084
7.96556	0.323
8.00436	0.357
8.04315	0.555
8.08195	0.658
8.12074	0.653
8.15954	0.621
8.19833	0.711
8.23713	0.762
8.27592	0.762
8.31472	0.582
8.35351	0.262
8.3923	0.522
8.4311	0.59
8.46989	0.432
8.50869	0.098
8.54748	0.058
8.58628	0.077
8.62507	0.035
8.66387	0.189
8.70266	0.542
8.74146	0.673
8.78025	0.749
8.81904	0.792
8.85784	0.813
8.89663	0.834
8.93543	0.834
8.97422	0.828
9.01302	0.813
9.05181	0.723
9.09061	0.645
9.1294	0.6
9.1682	0.533
9.20699	0.65
9.24578	0.668
9.28458	0.585
9.32337	0.409
9.36217	0.186
9.40096	0.063
9.43976	0.048
9.47855	0.076
9.51735	0.05
9.55614	0.082
9.59494	0.247
9.63373	0.422
9.67252	0.553
9.71132	0.64
9.75011	0.681
9.78891	0.715
9.8277	0.733
9.8665	0.752
9.90529	0.758
9.94409	0.742
9.98288	0.65
10.0217	0.598
10.0605	0.692
10.0993	0.749
10.1381	0.786
10.1769	0.812
10.2156	0.826
10.2544	0.831
10.2932	0.83
10.332	0.83
10.3708	0.839
10.4096	0.849
10.4484	0.854
10.4872	0.868
10.526	0.873
10.5648	0.878
10.6036	0.878
10.6424	0.878
10.6812	0.875
10.72	0.875
10.7588	0.862
10.7976	0.847
10.8364	0.783
10.8752	0.656
10.9139	0.453
10.9527	0.42
10.9915	0.582
11.0303	0.669
11.0691	0.601
11.1079	0.487
11.1467	0.572
11.1855	0.684
11.2243	0.71
11.2631	0.674
11.3019	0.61
11.3407	0.543
11.3795	0.478
11.4183	0.469
11.4571	0.53
11.4959	0.598
11.5347	0.65
11.5735	0.644
11.6123	0.598
11.651	0.542
11.6898	0.521
11.7286	0.535
11.7674	0.537
11.8062	0.519
11.845	0.498
11.8838	0.532
11.9226	0.658
11.9614	0.755
12.0002	0.807
12.039	0.846
12.0778	0.855
12.1166	0.862
12.1554	0.859
12.1942	0.852
12.233	0.851
12.2718	0.849
12.3106	0.852
12.3493	0.843
12.3881	0.838
12.4269	0.83
12.4657	0.813
12.5045	0.784
12.5433	0.733
12.5821	0.674
12.6209	0.58
12.6597	0.412
12.6985	0.208
12.7373	0.103
12.7761	0.072
12.8149	0.055
12.8537	0.058
12.8925	0.053
12.9313	0.048
12.9701	0.063
13.0089	0.124
13.0476	0.31
13.0864	0.466
13.1252	0.59
13.164	0.668
13.2028	0.72
13.2416	0.763
13.2804	0.799
13.3192	0.818
13.358	0.836
13.3968	0.844
13.4356	0.854
13.4744	0.872
13.5132	0.872
13.552	0.872
13.5908	0.865
13.6296	0.852
13.6684	0.805
13.7072	0.655
13.746	0.483
13.7847	0.491
13.8235	0.614
13.8623	0.597
13.9011	0.59
13.9399	0.721
13.9787	0.797
14.0175	0.838
14.0563	0.849
14.0951	0.854
14.1339	0.851
14.1727	0.844
14.2115	0.823
14.2503	0.799
14.2891	0.76
14.3279	0.682
14.3667	0.576
14.4055	0.419
14.4443	0.239
14.483	0.179
14.5218	0.155
14.5606	0.221
14.5994	0.354
14.6382	0.5
14.677	0.631
14.7158	0.708
14.7546	0.763
14.7934	0.797
14.8322	0.818
14.871	0.834
14.9098	0.841
14.9486	0.843
14.9874	0.843
15.0262	0.833
15.065	0.851
15.1038	0.87
15.1426	0.87
15.1813	0.865
15.2201	0.859
15.2589	0.862
15.2977	0.854
15.3365	0.857
15.3753	0.851
15.4141	0.843
15.4529	0.838
15.4917	0.831
15.5305	0.83
15.5693	0.831
15.6081	0.825
15.6469	0.822
15.6857	0.82
15.7245	0.817
15.7633	0.804
15.8021	0.805
15.8409	0.804
15.8797	0.791
15.9184	0.8
15.9572	0.799
15.996	0.789
