Infrared Spectrum: CYCLOHEXANAMINE, N-METHYL-
Formula: C7 H15 N
CAS: 100-60-7
State: LIQUID (NEAT)
Class: COBLENTZ III
Instrument: DOW KBr FOREPRISM-GRATING
Instrument parameters: BLAZED AT 3.5, 12.0, 20.0 MICRON, CHANGED AT 5.0, 7.5, 14.9 MICRON
Sampling: TRANSMISSION
Path length: CAPILLARY
Resolution: 4
Origin: DOW CHEMICAL COMPANY
1/CM	TRANSMITTANCE
380.347	0.959
389.018	0.947
397.688	0.929
406.359	0.909
415.029	0.869
423.7	0.796
432.37	0.831
441.041	0.888
449.711	0.867
458.382	0.812
467.052	0.836
475.723	0.851
484.393	0.866
493.064	0.881
501.735	0.877
510.405	0.888
519.076	0.871
527.746	0.873
536.417	0.822
545.087	0.793
553.758	0.873
562.428	0.888
571.099	0.878
579.769	0.871
588.44	0.884
597.11	0.893
605.781	0.898
614.452	0.878
623.122	0.845
631.793	0.862
640.463	0.878
649.134	0.854
657.804	0.845
666.475	0.824
675.145	0.791
683.816	0.738
692.486	0.69
701.157	0.653
709.827	0.636
718.498	0.603
727.169	0.543
735.839	0.485
744.51	0.502
753.18	0.59
761.851	0.632
770.521	0.673
779.192	0.695
787.862	0.669
796.533	0.679
805.203	0.684
813.874	0.706
822.544	0.729
831.215	0.742
839.885	0.734
848.556	0.8
857.227	0.814
865.897	0.822
874.568	0.835
883.238	0.6979
891.909	0.594
900.579	0.819
909.25	0.855
917.92	0.842
926.591	0.85
935.261	0.84
943.932	0.762
952.602	0.88
961.273	0.898
969.944	0.896
978.614	0.902
987.285	0.909
995.955	0.9
1004.63	0.889
1013.3	0.843
1021.97	0.809
1030.64	0.811
1039.31	0.867
1047.98	0.849
1056.65	0.89
1065.32	0.792
1073.99	0.853
1082.66	0.814
1091.33	0.6529
1100	0.64
1108.67	0.727
1117.34	0.731
1126.01	0.582
1134.68	0.614
1143.35	0.552
1152.02	0.535
1160.7	0.5861
1169.37	0.78
1178.04	0.814
1186.71	0.863
1195.38	0.862
1204.05	0.882
1212.72	0.88
1221.39	0.898
1230.06	0.894
1238.73	0.866
1247.4	0.85
1256.07	0.783
1264.74	0.843
1273.41	0.874
1282.08	0.892
1290.75	0.888
1299.42	0.871
1308.09	0.815
1316.77	0.851
1325.44	0.814
1334.11	0.811
1342.78	0.747
1351.45	0.6961
1360.12	0.696
1368.79	0.456
1377.46	0.7571
1386.13	0.84
1394.8	0.859
1403.47	0.869
1412.14	0.858
1420.81	0.789
1429.48	0.784
1438.15	0.6609
1446.82	0.3929
1455.49	0.2211
1464.16	0.526
1472.83	0.6189
1481.51	0.5102
1490.18	0.738
1498.85	0.826
1507.52	0.861
1516.19	0.904
1524.86	0.916
1533.53	0.921
1542.2	0.917
1550.87	0.928
1559.54	0.905
1568.21	0.925
1576.88	0.916
1585.55	0.925
1594.22	0.923
1602.89	0.925
1611.56	0.927
1620.23	0.931
1628.9	0.931
1637.57	0.925
1646.25	0.931
1654.92	0.931
1663.59	0.933
1672.26	0.931
1680.93	0.931
1689.6	0.939
1698.27	0.931
1706.94	0.944
1715.61	0.942
1724.28	0.954
1732.95	0.95
1741.62	0.955
1750.29	0.951
1758.96	0.954
1767.63	0.951
1776.3	0.955
1784.97	0.952
1793.64	0.954
1802.32	0.954
1810.99	0.952
1819.66	0.951
1828.33	0.947
1837	0.954
1845.67	0.952
1854.34	0.954
1863.01	0.951
1871.68	0.95
1880.35	0.95
1889.02	0.95
1897.69	0.952
1906.36	0.954
1915.03	0.954
1923.7	0.954
1932.37	0.951
1941.04	0.951
1949.71	0.956
1958.38	0.9641
1967.06	0.955
1975.73	0.952
1984.4	0.95
1993.07	0.94
2001.74	0.936
2010.41	0.938
2019.08	0.939
2027.75	0.943
2036.42	0.9594
2045.09	0.9269
2053.76	0.925
2062.43	0.9268
2071.1	0.925
2079.77	0.927
2088.44	0.927
2097.11	0.925
2105.78	0.925
2114.45	0.9294
2123.13	0.928
2131.8	0.9226
2140.47	0.921
2149.14	0.92
2157.81	0.917
2166.48	0.9185
2175.15	0.913
2183.82	0.911
2192.49	0.909
2201.16	0.9097
2209.83	0.912
2218.5	0.9131
2227.17	0.912
2235.84	0.909
2244.51	0.912
2253.18	0.915
2261.85	0.915
2270.52	0.9137
2279.19	0.9155
2287.87	0.916
2296.54	0.913
2305.21	0.913
2313.88	0.913
2322.55	0.912
2331.22	0.911
2339.89	0.911
2348.56	0.911
2357.23	0.912
2365.9	0.911
2374.57	0.912
2383.24	0.912
2391.91	0.911
2400.58	0.911
2409.25	0.909
2417.92	0.911
2426.59	0.912
2435.26	0.911
2443.93	0.912
2452.61	0.912
2461.28	0.912
2469.95	0.9094
2478.62	0.904
2487.29	0.904
2495.96	0.904
2504.63	0.902
2513.3	0.9
2521.97	0.897
2530.64	0.8971
2539.31	0.8921
2547.98	0.8851
2556.65	0.8781
2565.32	0.876
2573.99	0.87
2582.66	0.8531
2591.33	0.8152
2600	0.803
2608.68	0.83
2617.35	0.842
2626.02	0.836
2634.69	0.8135
2643.36	0.7739
2652.03	0.7736
2660.7	0.736
2669.37	0.7385
2678.04	0.8148
2686.71	0.831
2695.38	0.835
2704.05	0.8345
2712.72	0.8294
2721.39	0.8136
2730.06	0.7878
2738.73	0.7831
2747.4	0.7508
2756.07	0.6685
2764.74	0.5482
2773.42	0.4146
2782.09	0.3056
2790.76	0.2457
2799.43	0.2917
2808.1	0.46
2816.77	0.5354
2825.44	0.5279
2834.11	0.468
2842.78	0.3144
2851.45	0.0713
2860.12	0.0359
2868.79	0.1617
2877.46	0.2732
2886.13	0.2961
2894.8	0.2297
2903.47	0.1178
2912.14	0.0728
2920.81	0.0363
2929.49	0.022
2938.16	0.021
2946.83	0.032
2955.5	0.1367
2964.17	0.2544
2972.84	0.3728
2981.51	0.4622
2990.18	0.6531
2998.85	0.7761
3007.52	0.8247
3016.19	0.8484
3024.86	0.8611
3033.53	0.8724
3042.2	0.8795
3050.87	0.8847
3059.54	0.888
3068.21	0.8898
3076.88	0.889
3085.55	0.89
3094.23	0.89
3102.9	0.893
3111.57	0.893
3120.24	0.893
3128.91	0.894
3137.58	0.892
3146.25	0.8918
3154.92	0.8891
3163.59	0.888
3172.26	0.886
3180.93	0.884
3189.6	0.882
3198.27	0.882
3206.94	0.878
3215.61	0.873
3224.28	0.866
3232.95	0.8578
3241.62	0.8507
3250.29	0.8337
3258.97	0.8173
3267.64	0.7874
3276.31	0.7655
3284.98	0.7429
3293.65	0.741
3302.32	0.7539
3310.99	0.7841
3319.66	0.8152
3328.33	0.8406
3337	0.8595
3345.67	0.8702
3354.34	0.8773
3363.01	0.8825
3371.68	0.8893
3380.35	0.894
3389.02	0.8973
3397.69	0.904
3406.36	0.9083
3415.04	0.9124
3423.71	0.916
3432.38	0.917
3441.05	0.917
3449.72	0.917
3458.39	0.92
3467.06	0.921
3475.73	0.9245
3484.4	0.9285
3493.07	0.935
3501.74	0.938
3510.41	0.941
3519.08	0.944
3527.75	0.946
3536.42	0.9491
3545.09	0.9516
3553.76	0.954
3562.43	0.955
3571.1	0.954
3579.78	0.959
3588.45	0.9531
3597.12	0.958
3605.79	0.959
3614.46	0.956
3623.13	0.959
3631.8	0.9558
3640.47	0.9615
3649.14	0.96
3657.81	0.9598
3666.48	0.9662
3675.15	0.956
3683.82	0.9614
3692.49	0.964
3701.16	0.973
3709.83	0.9702
3718.5	0.9699
3727.17	0.97
3735.85	0.966
3744.52	0.964
3753.19	0.967
3761.86	0.9709
3770.53	0.973
3779.2	0.974
3787.87	0.977
3796.54	0.978
