Infrared Spectrum: PYRIDINE-2-CARBONITRILE
Formula: C6 H4 N2
CAS: 100-70-9
State: LIQUID (NEAT)
Class: COBLENTZ III
Instrument: PERKIN-ELMER 521 (GRATING)
Instrument parameters: FILTERS AT 3150, 2500, 2000, 1150, 700, 410 AND GRATING CHANGES AT 2000, 630 CM^-^1
Sampling: TRANSMISSION
Path length: 0.0037 CM, NaCl CELL
Resolution: 4
Origin: STANDARD OIL OF OHIO
1/CM	TRANSMITTANCE
237.192	0
246.68	0
256.167	0
265.655	0
275.143	0
284.63	0
294.118	0
303.606	0
313.094	0
322.581	0
332.069	0
341.557	0
351.044	0
360.532	0
370.02	0
379.507	0
388.995	0.003
398.483	0.008
407.97	0.009
417.458	0.011
426.946	0.004
436.433	0.004
445.921	0.004
455.409	0.004
464.897	0.004
474.384	0.005
483.872	0.011
493.36	0.023
502.847	0.042
512.335	0.056
521.823	0.079
531.31	0.101
540.798	0.118
550.286	0.024
559.773	0.076
569.261	0.235
578.749	0.3
588.236	0.362
597.724	0.409
607.212	0.448
616.7	0.488
626.187	0.489
635.675	0.575
645.163	0.634
654.65	0.679
664.138	0.71
673.626	0.721
683.113	0.717
692.601	0.711
702.089	0.669
711.576	0.631
721.064	0.531
730.552	0.3108
740.04	0.4071
749.527	0.634
759.015	0.585
768.503	0.1759
777.99	0.018
787.478	0.047
796.966	0.398
806.453	0.616
815.941	0.708
825.429	0.752
834.916	0.759
844.404	0.768
853.892	0.814
863.379	0.824
872.867	0.818
882.355	0.782
891.843	0.723
901.33	0.622
910.818	0.604
920.306	0.756
929.793	0.77
939.281	0.778
948.769	0.779
958.256	0.764
967.744	0.646
977.232	0.558
986.719	0.1438
996.207	0.4791
1005.69	0.724
1015.18	0.756
1024.67	0.749
1034.16	0.654
1043.65	0.1102
1053.13	0.742
1062.62	0.79
1072.11	0.778
1081.6	0.657
1091.08	0.4001
1100.57	0.68
1110.06	0.796
1119.55	0.802
1129.03	0.785
1138.52	0.68
1148.01	0.3789
1157.5	0.5181
1166.99	0.76
1176.47	0.756
1185.96	0.794
1195.45	0.721
1204.94	0.747
1214.42	0.831
1223.91	0.827
1233.4	0.801
1242.89	0.6279
1252.37	0.5781
1261.86	0.753
1271.35	0.781
1280.84	0.6168
1290.33	0.373
1299.81	0.6871
1309.3	0.792
1318.79	0.818
1328.28	0.792
1337.76	0.816
1347.25	0.834
1356.74	0.8
1366.23	0.739
1375.71	0.75
1385.2	0.772
1394.69	0.725
1404.18	0.63
1413.67	0.614
1423.15	0.3249
1432.64	0.0401
1442.13	0.494
1451.62	0.2128
1461.1	0.04
1470.59	0.3911
1480.08	0.72
1489.57	0.781
1499.05	0.8
1508.54	0.79
1518.03	0.751
1527.52	0.769
1537.01	0.724
1546.49	0.71
1555.98	0.4858
1565.47	0.1618
1574.96	0.02
1584.44	0.0892
1593.93	0.323
1603.42	0.5421
1612.91	0.688
1622.39	0.6149
1631.88	0.682
1641.37	0.708
1650.86	0.759
1660.35	0.79
1669.83	0.75
1679.32	0.672
1688.81	0.564
1698.3	0.6332
1707.78	0.781
1717.27	0.85
1726.76	0.854
1736.25	0.855
1745.73	0.823
1755.22	0.797
1764.71	0.841
1774.2	0.855
1783.69	0.848
1793.17	0.828
1802.66	0.815
1812.15	0.841
1821.64	0.86
1831.12	0.868
1840.61	0.873
1850.1	0.869
1859.59	0.842
1869.07	0.781
1878.56	0.76
1888.05	0.789
1897.54	0.801
1907.03	0.796
1916.51	0.805
1926	0.807
1935.49	0.779
1944.98	0.79
1954.46	0.798
1963.95	0.782
1973.44	0.732
1982.93	0.715
1992.41	0.752
2001.9	0.764
2011.39	0.7888
2020.88	0.8108
2030.37	0.8408
2039.85	0.8649
2049.34	0.869
2058.83	0.8669
2068.32	0.8819
2077.8	0.8838
2087.29	0.8879
2096.78	0.888
2106.27	0.888
2115.75	0.8801
2125.24	0.8694
2134.73	0.8792
2144.22	0.885
2153.71	0.885
2163.19	0.8794
2172.68	0.863
2182.17	0.8528
2191.66	0.8507
2201.14	0.8136
2210.63	0.807
2220.12	0.6926
2229.61	0.1584
2239.09	0.32
2248.58	0.7899
2258.07	0.8535
2267.56	0.86
2277.05	0.8443
2286.53	0.8043
2296.02	0.8217
2305.51	0.8319
2315	0.8609
2324.48	0.866
2333.97	0.8686
2343.46	0.8736
2352.95	0.875
2362.43	0.874
2371.92	0.8714
2381.41	0.8613
2390.9	0.8373
2400.39	0.8281
2409.87	0.8646
2419.36	0.873
2428.85	0.87
2438.34	0.8555
2447.82	0.852
2457.31	0.8694
2466.8	0.8623
2476.29	0.8568
2485.77	0.819
2495.26	0.8125
2504.75	0.8484
2514.24	0.8554
2523.73	0.8654
2533.21	0.8674
2542.7	0.8734
2552.19	0.876
2561.68	0.874
2571.16	0.872
2580.65	0.871
2590.14	0.8677
2599.63	0.8663
2609.11	0.8644
2618.6	0.8607
2628.09	0.8467
2637.58	0.8673
2647.07	0.8618
2656.55	0.8575
2666.04	0.8691
2675.53	0.8894
2685.02	0.8906
2694.5	0.885
2703.99	0.8683
2713.48	0.8523
2722.97	0.868
2732.45	0.8644
2741.94	0.846
2751.43	0.842
2760.92	0.8307
2770.4	0.8077
2779.89	0.8152
2789.38	0.8735
2798.87	0.884
2808.36	0.88
2817.84	0.879
2827.33	0.878
2836.82	0.8779
2846.31	0.871
2855.79	0.861
2865.28	0.862
2874.77	0.863
2884.26	0.8502
2893.74	0.8292
2903.23	0.7972
2912.72	0.8038
2922.21	0.8307
2931.7	0.839
2941.18	0.8303
2950.67	0.8153
2960.16	0.7985
2969.65	0.7602
2979.13	0.7113
2988.62	0.6862
2998.11	0.6107
3007.6	0.5979
3017.08	0.633
3026.57	0.6168
3036.06	0.5801
3045.55	0.4436
3055.04	0.2468
3064.52	0.3331
3074.01	0.375
3083.5	0.4032
3092.99	0.498
3102.47	0.601
3111.96	0.6675
3121.45	0.682
3130.94	0.682
3140.42	0.6857
3149.91	0.6883
3159.4	0.6776
3168.89	0.7354
3178.38	0.7728
3187.86	0.7916
3197.35	0.7988
3206.84	0.801
3216.33	0.8
3225.81	0.8
3235.3	0.8006
3244.79	0.8045
3254.28	0.8105
3263.76	0.814
3273.25	0.814
3282.74	0.8155
3292.23	0.815
3301.72	0.812
3311.2	0.8066
3320.69	0.801
3330.18	0.7967
3339.67	0.7911
3349.15	0.7816
3358.64	0.7742
3368.13	0.7684
3377.62	0.757
3387.1	0.7482
3396.59	0.7443
3406.08	0.7319
3415.57	0.7136
3425.06	0.682
3434.54	0.6337
3444.03	0.6458
3453.52	0.679
3463.01	0.68
3472.49	0.682
3481.98	0.6843
3491.47	0.6898
3500.96	0.7105
3510.44	0.717
3519.93	0.7192
3529.42	0.719
3538.91	0.7136
3548.4	0.711
3557.88	0.713
3567.37	0.714
3576.86	0.7153
3586.35	0.7139
3595.83	0.701
3605.32	0.6919
3614.81	0.6868
3624.3	0.682
3633.78	0.685
3643.27	0.7016
3652.76	0.7153
3662.25	0.7398
3671.74	0.8092
3681.22	0.8292
3690.71	0.846
3700.2	0.8501
3709.69	0.869
3719.17	0.879
3728.66	0.88
3738.15	0.88
3747.64	0.88
3757.12	0.879
3766.61	0.878
3776.1	0.8741
3785.59	0.8721
3795.08	0.8681
3804.56	0.8612
3814.05	0.8541
3823.54	0.856
3833.03	0.8531
3842.51	0.85
3852	0.8565
3861.49	0.8671
3870.98	0.8746
3880.46	0.88
3889.95	0.882
3899.44	0.881
