Infrared Spectrum: CYCLOHEXANEMETHANOL
Formula: C7 H14 O
CAS: 100-49-2
State: LIQUID (NEAT)
Class: COBLENTZ III
Instrument: PERKIN-ELMER 21 (GRATING)
Instrument parameters: FILTER CHANGE AT 1085 CM^-^1
Sampling: TRANSMISSION
Path length: CAPILLARY
Resolution: 2
Origin: SOUTHERN RESEARCH INSTITUTE
1/CM	TRANSMITTANCE
604.835	0.633
613.985	0.633
623.136	0.63
632.286	0.6348
641.436	0.635
650.587	0.6357
659.737	0.64
668.887	0.6461
678.038	0.6525
687.188	0.6589
696.338	0.6704
705.489	0.682
714.639	0.6883
723.789	0.6984
732.94	0.7113
742.09	0.723
751.24	0.7331
760.391	0.746
769.541	0.748
778.691	0.749
787.842	0.7571
796.992	0.7796
806.142	0.797
815.293	0.803
824.443	0.804
833.594	0.7985
842.744	0.7407
851.894	0.7428
861.045	0.791
870.195	0.77
879.345	0.799
888.496	0.7692
897.646	0.5179
906.796	0.7989
915.947	0.8062
925.097	0.811
934.247	0.8202
943.398	0.7914
952.548	0.6586
961.698	0.6572
970.849	0.762
979.999	0.7865
989.149	0.6353
998.3	0.7276
1007.45	0.6834
1016.6	0.5277
1025.75	0.1911
1034.9	0.1739
1044.05	0.2359
1053.2	0.5543
1062.35	0.5259
1071.5	0.724
1080.65	0.6205
1089.8	0.5647
1098.95	0.4067
1108.1	0.487
1117.25	0.6895
1126.4	0.7561
1135.55	0.7422
1144.71	0.6876
1153.86	0.749
1163.01	0.763
1172.16	0.7521
1181.31	0.7279
1190.46	0.7122
1199.61	0.7489
1208.76	0.6983
1217.91	0.6874
1227.06	0.7509
1236.21	0.757
1245.36	0.7536
1254.51	0.7123
1263.66	0.6754
1272.81	0.6339
1281.96	0.6803
1291.11	0.7161
1300.26	0.7303
1309.41	0.7218
1318.56	0.674
1327.71	0.6651
1336.86	0.6465
1346.01	0.631
1355.16	0.63
1364.31	0.6548
1373.46	0.6494
1382.61	0.5944
1391.76	0.6085
1400.91	0.6399
1410.06	0.624
1419.22	0.6193
1428.37	0.597
1437.52	0.5842
1446.67	0.5295
1455.82	0.2295
1464.97	0.3719
1474.12	0.5218
1483.27	0.6282
1492.42	0.7139
1501.57	0.7681
1510.72	0.785
1519.87	0.8097
1529.02	0.8158
1538.17	0.8218
1547.32	0.824
1556.47	0.8227
1565.62	0.8238
1574.77	0.833
1583.92	0.833
1593.07	0.833
1602.22	0.8343
1611.37	0.837
1620.52	0.8345
1629.67	0.8317
1638.82	0.83
1647.97	0.829
1657.12	0.829
1666.27	0.83
1675.42	0.83
1684.58	0.8366
1693.73	0.8358
1702.88	0.83
1712.03	0.834
1721.18	0.838
1730.33	0.839
1739.48	0.8414
1748.63	0.8504
1757.78	0.854
1766.93	0.8507
1776.08	0.856
1785.23	0.855
1794.38	0.854
1803.53	0.856
1812.68	0.856
1821.83	0.857
1830.98	0.857
1840.13	0.857
1849.28	0.857
1858.43	0.856
1867.58	0.856
1876.73	0.856
1885.88	0.856
1895.03	0.856
1904.18	0.856
1913.33	0.856
1922.48	0.8552
1931.63	0.856
1940.78	0.857
1949.94	0.8571
1959.09	0.859
1968.24	0.859
1977.39	0.859
1986.54	0.857
1995.69	0.857
2004.84	0.856
2013.99	0.856
2023.14	0.855
2032.29	0.854
2041.44	0.852
2050.59	0.852
2059.74	0.8473
2068.89	0.846
2078.04	0.8454
2087.19	0.8477
2096.34	0.856
2105.49	0.857
2114.64	0.857
2123.79	0.856
2132.94	0.855
2142.09	0.855
2151.24	0.857
2160.39	0.856
2169.54	0.854
2178.69	0.856
2187.84	0.856
2196.99	0.856
2206.14	0.855
2215.29	0.8519
2224.45	0.8507
2233.6	0.851
2242.75	0.8486
2251.9	0.8557
2261.05	0.859
2270.2	0.859
2279.35	0.857
2288.5	0.8543
2297.65	0.8503
2306.8	0.8477
2315.95	0.8507
2325.1	0.851
2334.25	0.848
2343.4	0.848
2352.55	0.8423
2361.7	0.838
2370.85	0.8404
2380	0.846
2389.15	0.8423
2398.3	0.8413
2407.45	0.834
2416.6	0.834
2425.75	0.835
2434.9	0.8377
2444.05	0.841
2453.2	0.839
2462.35	0.8376
2471.5	0.828
2480.65	0.834
2489.81	0.8306
2498.96	0.828
2508.11	0.825
2517.26	0.824
2526.41	0.817
2535.56	0.813
2544.71	0.815
2553.86	0.8123
2563.01	0.806
2572.16	0.802
2581.31	0.797
2590.46	0.7903
2599.61	0.7826
2608.76	0.7753
2617.91	0.7757
2627.06	0.776
2636.21	0.7713
2645.36	0.7606
2654.51	0.7469
2663.66	0.717
2672.81	0.714
2681.96	0.7254
2691.11	0.7384
2700.26	0.74
2709.41	0.7375
2718.56	0.7313
2727.71	0.7263
2736.86	0.723
2746.01	0.7206
2755.16	0.7136
2764.32	0.7029
2773.47	0.692
2782.62	0.6535
2791.77	0.6105
2800.92	0.5801
2810.07	0.5435
2819.22	0.5047
2828.37	0.4332
2837.52	0.299
2846.67	0.1258
2855.82	0.0903
2864.97	0.1001
2874.12	0.1551
2883.27	0.1664
2892.42	0.184
2901.57	0.1336
2910.72	0.0882
2919.87	0.0493
2929.02	0.047
2938.17	0.0534
2947.32	0.0765
2956.47	0.1512
2965.62	0.2637
2974.77	0.4676
2983.92	0.5823
2993.07	0.6365
3002.22	0.6821
3011.37	0.691
3020.52	0.7068
3029.68	0.709
3038.83	0.7097
3047.98	0.71
3057.13	0.704
3066.28	0.702
3075.43	0.6959
3084.58	0.6863
3093.73	0.6733
3102.88	0.6643
3112.03	0.6393
3121.18	0.6132
3130.33	0.5785
3139.48	0.5606
3148.63	0.5311
3157.78	0.5022
3166.93	0.4856
3176.08	0.4642
3185.23	0.4483
3194.38	0.4266
3203.53	0.3903
3212.68	0.3773
3221.83	0.3479
3230.98	0.3231
3240.13	0.3042
3249.28	0.2819
3258.43	0.2666
3267.58	0.2486
3276.73	0.2299
3285.88	0.2156
3295.04	0.2026
3304.19	0.1923
3313.34	0.1833
3322.49	0.18
3331.64	0.179
3340.79	0.1743
3349.94	0.171
3359.09	0.1724
3368.24	0.1747
3377.39	0.1814
3386.54	0.1877
3395.69	0.1957
3404.84	0.2121
3413.99	0.2324
3423.14	0.2497
3432.29	0.2661
3441.44	0.2854
3450.59	0.3108
3459.74	0.3437
3468.89	0.3683
3478.04	0.3877
3487.19	0.4257
3496.34	0.4655
3505.49	0.5045
3514.64	0.5268
3523.79	0.5621
3532.94	0.5808
3542.09	0.6061
3551.24	0.6335
3560.39	0.6527
3569.55	0.6828
3578.7	0.7074
3587.85	0.733
3597	0.741
3606.15	0.7625
3615.3	0.775
3624.45	0.7834
3633.6	0.7924
3642.75	0.798
3651.9	0.808
3661.05	0.8117
3670.2	0.8144
3679.35	0.817
3688.5	0.8271
3697.65	0.8364
3706.8	0.839
3715.95	0.841
3725.1	0.8417
3734.25	0.842
3743.4	0.8427
3752.55	0.846
3761.7	0.846
3770.85	0.847
3780	0.848
3789.15	0.848
3798.3	0.848
3807.45	0.848
3816.6	0.847
3825.75	0.847
3834.91	0.8477
3844.06	0.854
3853.21	0.852
3862.36	0.8433
3871.51	0.8437
3880.66	0.846
3889.81	0.8446
3898.96	0.843
3908.11	0.844
3917.26	0.855
3926.41	0.8486
3935.56	0.846
3944.71	0.847
3953.86	0.848
3963.01	0.846
3972.16	0.838
3981.31	0.838
3990.46	0.839
3999.61	0.839
