Infrared Spectrum: BENZENE, ETHENYL-
Formula: C8 H8
CAS: 100-42-5
State: GAS (6 mmHg, N2 ADD, TOTAL PRESSURE 600 mmHg)
Class: COBLENTZ
Instrument: DIGILAB FTS-14
Sampling: TRANSMISSION
Path length: 75 CM
Resolution: 2
Origin: DOW CHEMICAL COMPANY
1/CM	TRANSMITTANCE
398.699	0.306
407.805	0.6198
416.91	0.704
426.016	0.714
435.122	0.718
444.227	0.785
453.333	0.838
462.439	0.861
471.544	0.873
480.65	0.879
489.756	0.871
498.862	0.887
507.967	0.914
517.073	0.963
526.179	0.989
535.284	0.975
544.39	0.944
553.496	0.8461
562.601	0.834
571.707	0.924
580.813	0.944
589.918	0.961
599.024	0.963
608.13	0.948
617.235	0.938
626.341	0.948
635.447	0.944
644.552	0.9441
653.658	0.955
662.764	0.953
671.87	0.916
680.975	0.7592
690.081	0.4341
699.187	0.065
708.292	0.3529
717.398	0.6458
726.504	0.838
735.609	0.889
744.715	0.891
753.821	0.851
762.926	0.646
772.032	0.4222
781.138	0.083
790.243	0.467
799.349	0.7038
808.455	0.83
817.56	0.855
826.666	0.853
835.772	0.855
844.878	0.846
853.983	0.838
863.089	0.844
872.195	0.857
881.3	0.865
890.406	0.824
899.512	0.6261
908.617	0.418
917.723	0.2919
926.829	0.461
935.934	0.7529
945.04	0.84
954.146	0.834
963.251	0.8001
972.357	0.746
981.463	0.6591
990.568	0.589
999.674	0.5628
1008.78	0.6549
1017.89	0.7081
1026.99	0.646
1036.1	0.702
1045.2	0.777
1054.31	0.795
1063.41	0.8
1072.52	0.797
1081.63	0.7461
1090.73	0.744
1099.84	0.751
1108.94	0.769
1118.05	0.779
1127.15	0.8
1136.26	0.81
1145.37	0.806
1154.47	0.8
1163.58	0.795
1172.68	0.785
1181.79	0.775
1190.89	0.763
1200	0.751
1209.1	0.74
1218.21	0.744
1227.32	0.761
1236.42	0.767
1245.53	0.777
1254.63	0.793
1263.74	0.769
1272.84	0.779
1281.95	0.795
1291.06	0.771
1300.16	0.763
1309.27	0.793
1318.37	0.8
1327.48	0.789
1336.58	0.787
1345.69	0.771
1354.8	0.789
1363.9	0.793
1373.01	0.785
1382.11	0.777
1391.22	0.759
1400.32	0.726
1409.43	0.6971
1418.54	0.693
1427.64	0.667
1436.75	0.706
1445.85	0.718
1454.96	0.71
1464.06	0.6864
1473.17	0.767
1482.28	0.777
1491.38	0.663
1500.49	0.487
1509.59	0.4551
1518.7	0.767
1527.8	0.7238
1536.91	0.7401
1546.02	0.6789
1555.12	0.755
1564.23	0.6299
1573.33	0.7121
1582.44	0.704
1591.54	0.691
1600.65	0.683
1609.75	0.663
1618.86	0.673
1627.97	0.634
1637.07	0.555
1646.18	0.565
1655.28	0.6869
1664.39	0.761
1673.49	0.706
1682.6	0.7377
1691.71	0.7278
1700.81	0.665
1709.92	0.7401
1719.02	0.7421
1728.13	0.759
1737.23	0.7181
1746.34	0.71
1755.45	0.681
1764.55	0.74
1773.66	0.736
1782.76	0.755
1791.87	0.736
1800.97	0.714
1810.08	0.71
1819.19	0.659
1828.29	0.616
1837.4	0.6889
1846.5	0.742
1855.61	0.753
1864.71	0.734
1873.82	0.695
1882.93	0.702
1892.03	0.708
1901.14	0.728
1910.24	0.746
1919.35	0.744
1928.45	0.734
1937.56	0.714
1946.67	0.7
1955.77	0.685
1964.88	0.695
1973.98	0.724
1983.09	0.732
1992.19	0.74
2001.3	0.743
2010.41	0.744
2019.51	0.741
2028.62	0.738
2037.72	0.736
2046.83	0.734
2055.93	0.734
2065.04	0.734
2074.14	0.734
2083.25	0.734
2092.36	0.7329
2101.46	0.7337
2110.57	0.7289
2119.67	0.728
2128.78	0.7268
2137.88	0.726
2146.99	0.726
2156.1	0.728
2165.2	0.726
2174.31	0.724
2183.41	0.722
2192.52	0.718
2201.62	0.72
2210.73	0.718
2219.84	0.718
2228.94	0.718
2238.05	0.716
2247.15	0.716
2256.26	0.7127
2265.36	0.71
2274.47	0.708
2283.58	0.708
2292.68	0.708
2301.79	0.708
2310.89	0.706
2320	0.7036
2329.1	0.702
2338.21	0.697
2347.32	0.695
2356.42	0.695
2365.53	0.6992
2374.63	0.7
2383.74	0.7055
2392.84	0.706
2401.95	0.704
2411.06	0.7
2420.16	0.6955
2429.27	0.693
2438.37	0.695
2447.48	0.6956
2456.58	0.6993
2465.69	0.7
2474.79	0.7
2483.9	0.6964
2493.01	0.693
2502.11	0.689
2511.22	0.689
2520.32	0.6877
2529.43	0.691
2538.53	0.693
2547.64	0.695
2556.75	0.693
2565.85	0.691
2574.96	0.687
2584.06	0.6833
2593.17	0.681
2602.27	0.679
2611.38	0.681
2620.49	0.683
2629.59	0.685
2638.7	0.685
2647.8	0.683
2656.91	0.6812
2666.01	0.679
2675.12	0.679
2684.23	0.679
2693.33	0.6828
2702.44	0.683
2711.54	0.681
2720.65	0.681
2729.75	0.681
2738.86	0.677
2747.97	0.675
2757.07	0.6741
2766.18	0.673
2775.28	0.673
2784.39	0.673
2793.49	0.671
2802.6	0.669
2811.71	0.664
2820.81	0.663
2829.92	0.663
2839.02	0.6611
2848.13	0.663
2857.23	0.6629
2866.34	0.6599
2875.45	0.657
2884.55	0.6539
2893.66	0.648
2902.76	0.6449
2911.87	0.6419
2920.97	0.638
2930.08	0.636
2939.18	0.638
2948.29	0.6402
2957.4	0.6428
2966.5	0.6318
2975.61	0.6188
2984.71	0.5773
2993.82	0.5468
3002.92	0.5375
3012.03	0.5108
3021.14	0.4033
3030.24	0.2865
3039.35	0.3066
3048.45	0.2668
3057.56	0.369
3066.66	0.304
3075.77	0.227
3084.88	0.2174
3093.98	0.2174
3103.09	0.2684
3112.19	0.3569
3121.3	0.52
3130.4	0.6096
3139.51	0.6248
3148.62	0.62
3157.72	0.6166
3166.83	0.6209
3175.93	0.6335
3185.04	0.636
3194.14	0.636
3203.25	0.634
3212.36	0.634
3221.46	0.632
3230.57	0.632
3239.67	0.6325
3248.78	0.634
3257.88	0.636
3266.99	0.6329
3276.1	0.632
3285.2	0.632
3294.31	0.6374
3303.41	0.634
3312.52	0.63
3321.62	0.628
3330.73	0.6307
3339.83	0.6287
3348.94	0.6327
3358.05	0.6374
3367.15	0.636
3376.26	0.6303
3385.36	0.6227
3394.47	0.63
3403.57	0.6203
3412.68	0.6242
3421.79	0.6215
3430.89	0.624
3440	0.6212
3449.1	0.628
3458.21	0.628
3467.31	0.6262
3476.42	0.622
3485.53	0.6121
3494.63	0.6069
3503.74	0.6059
3512.84	0.6209
3521.95	0.6201
3531.05	0.6191
3540.16	0.6082
3549.27	0.6031
3558.37	0.5931
3567.48	0.5589
3576.58	0.587
3585.69	0.5631
3594.79	0.5769
3603.9	0.617
3613.01	0.612
3622.11	0.6079
3631.22	0.5343
3640.32	0.5539
3649.43	0.502
3658.53	0.5357
3667.64	0.5701
3676.75	0.5451
3685.85	0.582
3694.96	0.5548
3704.06	0.5333
3713.17	0.4893
3722.27	0.4433
3731.38	0.4106
3740.49	0.3784
3749.59	0.4239
3758.7	0.4945
3767.8	0.4946
3776.91	0.4675
3786.01	0.3841
3795.12	0.2552
