Infrared Spectrum: BENZONITRILE
Formula: C7 H5 N
CAS: 100-47-0
State: LIQUID
Class: COBLENTZ
Instrument: PERKIN-ELMER
Sampling: TRANSMISSION
Path length: 0.0066 CM
Resolution: 4
Origin: STANDARD OIL OF OHIO
MICROMETERS	TRANSMITTANCE
2.054	0.989
2.08777	0.988
2.12153	0.991
2.1553	0.97
2.18907	0.923
2.22283	0.953
2.2566	0.976
2.29037	0.977
2.32413	0.969
2.3579	0.969
2.39167	0.941
2.42543	0.948
2.4592	0.912
2.49297	0.827
2.52673	0.94
2.5605	0.957
2.59427	0.959
2.62803	0.916
2.6618	0.94
2.69556	0.953
2.72933	0.923
2.7631	0.849
2.79686	0.877
2.83063	0.889
2.8644	0.86
2.89816	0.926
2.93193	0.923
2.9657	0.882
2.99946	0.952
3.03323	0.965
3.067	0.957
3.10076	0.923
3.13453	0.877
3.1683	0.813
3.20206	0.762
3.23583	0.607
3.2696	0.334
3.30336	0.508
3.33713	0.687
3.3709	0.79
3.40466	0.878
3.43843	0.899
3.4722	0.914
3.50596	0.94
3.53973	0.955
3.5735	0.952
3.60726	0.923
3.64103	0.894
3.6748	0.941
3.70856	0.96
3.74233	0.899
3.77609	0.916
3.80986	0.948
3.84363	0.943
3.87739	0.935
3.91116	0.928
3.94493	0.947
3.97869	0.962
4.01246	0.953
4.04623	0.947
4.07999	0.967
4.11376	0.97
4.14753	0.97
4.18129	0.945
4.21506	0.911
4.24883	0.899
4.28259	0.875
4.31636	0.866
4.35013	0.899
4.38389	0.928
4.41766	0.892
4.45143	0.704
4.48519	0.32
4.51896	0.069
4.55273	0.691
4.58649	0.88
4.62026	0.865
4.65403	0.952
4.68779	0.967
4.72156	0.972
4.75533	0.976
4.78909	0.976
4.82286	0.976
4.85662	0.969
4.89039	0.962
4.92416	0.953
4.95792	0.941
4.99169	0.901
5.02546	0.802
5.05922	0.725
5.09299	0.686
5.12676	0.738
5.16052	0.849
5.19429	0.825
5.22806	0.764
5.26182	0.694
5.29559	0.665
5.32936	0.812
5.36312	0.911
5.39689	0.914
5.43066	0.882
5.46442	0.819
5.49819	0.757
5.53196	0.704
5.56572	0.808
5.59949	0.848
5.63326	0.802
5.66702	0.747
5.70079	0.773
5.73456	0.841
5.76832	0.878
5.80209	0.889
5.83586	0.895
5.86962	0.904
5.90339	0.861
5.93716	0.733
5.97092	0.749
6.00469	0.858
6.03845	0.89
6.07222	0.897
6.10599	0.885
6.13975	0.854
6.17352	0.786
6.20729	0.703
6.24105	0.544
6.27482	0.308
6.30859	0.631
6.34235	0.488
6.37612	0.636
6.40989	0.778
6.44365	0.86
6.47742	0.865
6.51119	0.854
6.54495	0.807
6.57872	0.803
6.61249	0.807
6.64625	0.808
6.68002	0.745
6.71379	0.17
6.74755	0.165
6.78132	0.535
6.81509	0.728
6.84885	0.779
6.88262	0.706
6.91639	0.213
6.95015	0.136
6.98392	0.558
7.01769	0.766
7.05145	0.822
7.08522	0.851
7.11898	0.848
7.15275	0.805
7.18652	0.749
7.22028	0.699
7.25405	0.762
7.28782	0.808
7.32158	0.829
7.35535	0.849
7.38912	0.866
7.42288	0.866
7.45665	0.841
7.49042	0.749
7.52418	0.621
7.55795	0.721
7.59172	0.776
7.62548	0.766
7.65925	0.779
7.69302	0.791
7.72678	0.74
7.76055	0.641
7.79432	0.278
7.82808	0.414
7.86185	0.704
7.89562	0.808
7.92938	0.854
7.96315	0.872
7.99692	0.877
8.03068	0.875
8.06445	0.865
8.09822	0.86
8.13198	0.848
8.16575	0.813
8.19951	0.762
8.23328	0.73
8.26705	0.728
8.30081	0.735
8.33458	0.749
8.36835	0.738
8.40211	0.534
8.43588	0.409
8.46965	0.549
8.50341	0.409
8.53718	0.3
8.57095	0.494
8.60471	0.558
8.63848	0.45
8.67225	0.564
8.70601	0.68
8.73978	0.752
8.77355	0.795
8.80731	0.82
8.84108	0.839
8.87485	0.849
8.90861	0.861
8.94238	0.865
8.97615	0.868
9.00991	0.868
9.04368	0.86
9.07745	0.824
9.11121	0.706
9.14498	0.573
9.17875	0.636
9.21251	0.718
9.24628	0.744
9.28005	0.738
9.31381	0.621
9.34758	0.399
9.38134	0.267
9.41511	0.448
9.44888	0.634
9.48264	0.757
9.51641	0.805
9.55018	0.831
9.58394	0.836
9.61771	0.837
9.65148	0.829
9.68524	0.793
9.71901	0.699
9.75278	0.382
9.78654	0.175
9.82031	0.465
9.85408	0.65
9.88784	0.728
9.92161	0.754
9.95538	0.757
9.98914	0.701
10.0229	0.447
10.0567	0.605
10.0904	0.701
10.1242	0.732
10.158	0.749
10.1917	0.759
10.2255	0.762
10.2593	0.755
10.293	0.74
10.3268	0.74
10.3606	0.759
10.3943	0.779
10.4281	0.796
10.4619	0.805
10.4956	0.81
10.5294	0.808
10.5632	0.795
10.5969	0.771
10.6307	0.73
10.6645	0.668
10.6982	0.58
10.732	0.464
10.7658	0.312
10.7995	0.226
10.8333	0.179
10.8671	0.22
10.9008	0.329
10.9346	0.436
10.9684	0.535
11.0021	0.622
11.0359	0.692
11.0697	0.738
11.1034	0.764
11.1372	0.788
11.171	0.798
11.2047	0.807
11.2385	0.808
11.2723	0.803
11.306	0.784
11.3398	0.79
11.3736	0.813
11.4073	0.836
11.4411	0.843
11.4749	0.846
11.5086	0.846
11.5424	0.846
11.5762	0.843
11.6099	0.832
11.6437	0.82
11.6775	0.802
11.7112	0.779
11.745	0.75
11.7788	0.716
11.8125	0.679
11.8463	0.658
11.8801	0.643
11.9138	0.648
11.9476	0.68
11.9814	0.709
12.0151	0.737
12.0489	0.757
12.0827	0.773
12.1164	0.778
12.1502	0.783
12.184	0.783
12.2177	0.783
12.2515	0.781
12.2853	0.776
12.319	0.769
12.3528	0.759
12.3866	0.754
12.4203	0.749
12.4541	0.735
12.4879	0.72
12.5216	0.701
12.5554	0.682
12.5892	0.668
12.6229	0.663
12.6567	0.656
12.6905	0.643
12.7242	0.631
12.758	0.609
12.7918	0.575
12.8255	0.537
12.8593	0.484
12.8931	0.416
12.9268	0.334
12.9606	0.244
12.9944	0.15
13.0281	0.063
13.0619	0.022
13.0957	0.013
13.1294	0.01
13.1632	0.01
13.197	0.01
13.2307	0.01
13.2645	0.01
13.2983	0.01
13.332	0.01
13.3658	0.013
13.3996	0.049
13.4333	0.136
13.4671	0.226
13.5009	0.31
13.5346	0.387
13.5684	0.452
13.6022	0.506
13.6359	0.547
13.6697	0.569
13.7035	0.585
13.7372	0.597
13.771	0.602
13.8048	0.602
13.8385	0.598
13.8723	0.59
13.9061	0.575
13.9398	0.556
13.9736	0.539
14.0074	0.525
14.0411	0.515
14.0749	0.51
14.1087	0.508
14.1424	0.5
14.1762	0.484
14.21	0.447
14.2437	0.39
14.2775	0.317
14.3113	0.223
14.345	0.155
14.3788	0.122
14.4126	0.097
14.4463	0.069
14.4801	0.04
14.5139	0.018
14.5476	0.017
14.5814	0.013
14.6152	0.011
14.6489	0.011
14.6827	0.013
14.7165	0.017
14.7502	0.047
14.784	0.095
14.8178	0.138
14.8515	0.16
14.8853	0.17
14.9191	0.186
14.9528	0.211
14.9866	0.238
15.0204	0.291
15.0541	0.392
15.0879	0.477
15.1217	0.53
15.1554	0.569
15.1892	0.607
15.223	0.627
15.2567	0.648
15.2905	0.658
15.3243	0.668
15.358	0.675
15.3918	0.677
