Infrared Spectrum: BENZALDEHYDE, p-DIMETHYLAMINO-
Formula: C9 H11 N O
CAS: 100-10-7
State: SOLUTION (10% CCl4 FOR 3800-1330, 10% CS2 FOR 1330-450 CM^-^1)
Class: COBLENTZ III
Instrument: DOW KBr FOREPRISM-GRATING
Instrument parameters: BLAZED AT 3.5, 12.0, 20.0 MICRON AND CHANGED AT 5.0, 7.5, 14.9 MICRON
Sampling: TRANSMISSION
Path length: 0.011 CM, 0.012 CM
Resolution: 2
Origin: DOW CHEMICAL COMPANY
1/CM	TRANSMITTANCE
448.185	0.806
456.967	0.805
465.749	0.781
474.532	0.755
483.314	0.781
492.096	0.791
500.878	0.78
509.66	0.531
518.443	0.403
527.225	0.741
536.007	0.881
544.789	0.919
553.572	0.93
562.354	0.943
571.136	0.94
579.918	0.917
588.7	0.7959
597.483	0.093
606.265	0.83
615.047	0.928
623.829	0.946
632.611	0.889
641.394	0.908
650.176	0.886
658.958	0.885
667.74	0.946
676.522	0.946
685.305	0.944
694.087	0.939
702.869	0.926
711.651	0.879
720.433	0.7409
729.216	0.046
737.998	0.838
746.78	0.908
755.562	0.918
764.345	0.917
773.127	0.908
781.909	0.871
790.691	0.766
799.473	0.339
808.256	0.1888
817.038	0.0171
825.82	0.368
834.602	0.36
843.384	0.523
852.167	0.508
860.949	0.678
869.731	0.765
878.513	0.825
887.295	0.872
896.078	0.903
904.86	0.904
913.642	0.897
922.424	0.872
931.206	0.791
939.989	0.276
948.771	0.4931
957.553	0.831
966.335	0.89
975.118	0.903
983.9	0.889
992.682	0.83
1001.46	0.354
1010.25	0.85
1019.03	0.857
1027.81	0.857
1036.59	0.841
1045.38	0.799
1054.16	0.678
1062.94	0.354
1071.72	0.622
1080.5	0.719
1089.29	0.725
1098.07	0.696
1106.85	0.628
1115.63	0.512
1124.42	0.337
1133.2	0.379
1141.98	0.27
1150.76	0.082
1159.54	0
1168.33	0.001
1177.11	0.15
1185.89	0.548
1194.67	0.667
1203.45	0.676
1212.24	0.595
1221.02	0.319
1229.8	0.092
1238.58	0.037
1247.37	0.2222
1256.15	0.628
1264.93	0.689
1273.71	0.711
1282.49	0.712
1291.28	0.649
1300.06	0.5129
1308.84	0.147
1317.62	0.1091
1326.41	0.345
1335.19	0.274
1343.97	0.444
1352.75	0.23
1361.53	0.022
1370.32	0
1379.1	0.096
1387.88	0.349
1396.66	0.426
1405.45	0.636
1414.23	0.4529
1423.01	0.584
1431.79	0.265
1440.57	0.1541
1449.36	0.2731
1458.14	0.436
1466.92	0.515
1475.7	0.436
1484.49	0.225
1493.27	0.447
1502.05	0.541
1510.83	0.3969
1519.61	0.1849
1528.4	0.005
1537.18	0.016
1545.96	0.131
1554.74	0.024
1563.53	0.022
1572.31	0.207
1581.09	0.077
1589.87	0.002
1598.65	0.001
1607.44	0.001
1616.22	0.035
1625	0.2111
1633.78	0.342
1642.57	0.451
1651.35	0.357
1660.13	0.1129
1668.91	0.015
1677.69	0.006
1686.48	0.005
1695.26	0.008
1704.04	0.2561
1712.82	0.639
1721.61	0.714
1730.39	0.774
1739.17	0.846
1747.95	0.871
1756.73	0.872
1765.52	0.885
1774.3	0.896
1783.08	0.901
1791.86	0.901
1800.65	0.901
1809.43	0.912
1818.21	0.914
1826.99	0.912
1835.77	0.912
1844.56	0.912
1853.34	0.911
1862.12	0.9
1870.9	0.892
1879.68	0.901
1888.47	0.877
1897.25	0.842
1906.03	0.91
1914.81	0.908
1923.6	0.917
1932.38	0.922
1941.16	0.921
1949.94	0.91
1958.72	0.89
1967.51	0.895
1976.29	0.919
1985.07	0.912
1993.85	0.878
2002.64	0.8635
2011.42	0.8631
2020.2	0.8951
2028.98	0.9126
2037.76	0.9285
2046.55	0.933
2055.33	0.9354
2064.11	0.9294
2072.89	0.9192
2081.68	0.914
2090.46	0.9095
2099.24	0.8938
2108.02	0.9089
2116.8	0.9239
2125.59	0.9213
2134.37	0.921
2143.15	0.9314
2151.93	0.9327
2160.72	0.9299
2169.5	0.924
2178.28	0.9247
2187.06	0.932
2195.84	0.93
2204.63	0.9393
2213.41	0.9456
2222.19	0.946
2230.97	0.9414
2239.76	0.9326
2248.54	0.9166
2257.32	0.9032
2266.1	0.907
2274.88	0.912
2283.67	0.912
2292.45	0.9149
2301.23	0.912
2310.01	0.914
2318.8	0.914
2327.58	0.9073
2336.36	0.9011
2345.14	0.9258
2353.92	0.932
2362.71	0.9399
2371.49	0.948
2380.27	0.937
2389.05	0.933
2397.84	0.914
2406.62	0.9221
2415.4	0.933
2424.18	0.9249
2432.96	0.9169
2441.75	0.9149
2450.53	0.9098
2459.31	0.8999
2468.09	0.8948
2476.88	0.8933
2485.66	0.9114
2494.44	0.9181
2503.22	0.924
2512	0.9237
2520.79	0.9113
2529.57	0.8853
2538.35	0.87
2547.13	0.868
2555.92	0.8672
2564.7	0.8712
2573.48	0.8987
2582.26	0.9085
2591.04	0.91
2599.83	0.904
2608.61	0.9013
2617.39	0.8752
2626.17	0.8518
2634.95	0.8307
2643.74	0.818
2652.52	0.7979
2661.3	0.776
2670.08	0.7771
2678.87	0.7904
2687.65	0.7651
2696.43	0.5278
2705.21	0.5539
2713.99	0.5555
2722.78	0.4244
2731.56	0.2972
2740.34	0.2711
2749.12	0.4953
2757.91	0.6672
2766.69	0.71
2775.47	0.7115
2784.25	0.6349
2793.03	0.4989
2801.82	0.3065
2810.6	0.2693
2819.38	0.222
2828.16	0.2607
2836.95	0.4218
2845.73	0.5
2854.51	0.4798
2863.29	0.417
2872.07	0.4277
2880.86	0.444
2889.64	0.4111
2898.42	0.3377
2907.2	0.3037
2915.99	0.3098
2924.77	0.3508
2933.55	0.4007
2942.33	0.4024
2951.11	0.4344
2959.9	0.518
2968.68	0.597
2977.46	0.635
2986.24	0.6171
2995.03	0.5788
3003.81	0.6094
3012.59	0.651
3021.37	0.6918
3030.15	0.732
3038.94	0.7618
3047.72	0.769
3056.5	0.7943
3065.28	0.8116
3074.07	0.8033
3082.85	0.7774
3091.63	0.7691
3100.41	0.791
3109.19	0.8378
3117.98	0.8519
3126.76	0.9025
3135.54	0.914
3144.32	0.9249
3153.11	0.935
3161.89	0.937
3170.67	0.933
3179.45	0.936
3188.23	0.9319
3197.02	0.911
3205.8	0.9372
3214.58	0.9551
3223.36	0.9642
3232.15	0.966
3240.93	0.966
3249.71	0.9663
3258.49	0.9718
3267.27	0.9703
3276.06	0.97
3284.84	0.9677
3293.62	0.9652
3302.4	0.965
3311.18	0.9614
3319.97	0.952
3328.75	0.9384
3337.53	0.9273
3346.31	0.9108
3355.1	0.9327
3363.88	0.9518
3372.66	0.9628
3381.44	0.97
3390.22	0.97
3399.01	0.9735
3407.79	0.977
3416.57	0.976
3425.35	0.979
3434.14	0.979
3442.92	0.977
3451.7	0.9743
3460.48	0.9742
3469.26	0.9724
3478.05	0.976
3486.83	0.973
3495.61	0.97
3504.39	0.97
3513.18	0.973
3521.96	0.97
3530.74	0.97
3539.52	0.9715
3548.3	0.97
3557.09	0.971
3565.87	0.971
3574.65	0.9564
3583.43	0.9761
3592.22	0.9713
3601	0.9726
3609.78	0.977
3618.56	0.9756
3627.34	0.969
3636.13	0.9737
3644.91	0.968
3653.69	0.9696
3662.47	0.9735
3671.26	0.9683
3680.04	0.9697
3688.82	0.965
3697.6	0.9714
3706.38	0.9763
3715.17	0.973
3723.95	0.9738
3732.73	0.976
3741.51	0.972
3750.3	0.976
3759.08	0.9752
3767.86	0.969
3776.64	0.9744
3785.42	0.9798
