Infrared Spectrum: Nitrous oxide
Formula: N2 O
CAS: 10024-97-2
State: GAS (100 mmHg, N2 ADDED, TOTAL PRESSURE 600 mmHg)
Class: COBLENTZ
Instrument: DOW KBr FOREPRISM-GRATING
Instrument parameters: GRATING CHANGED AT 5.0, 7.5, 15.0 MICRON
Sampling: TRANSMISSION
Resolution: 2
Origin: DOW CHEMICAL COMPANY
1/CM	TRANSMITTANCE
477	0.8725
486	0.8731
495	0.8707
504	0.868
513	0.8655
522	0.8656
531	0.8678
540	0.8639
549	0.855
558	0.8353
567	0.7985
576	0.7715
585	0.7618
594	0.7401
603	0.7232
612	0.7772
621	0.8445
630	0.8695
639	0.8786
648	0.8793
657	0.8785
666	0.8778
675	0.8771
684	0.877
693	0.8767
702	0.8802
711	0.881
720	0.8801
729	0.8815
738	0.8828
747	0.8825
756	0.8836
765	0.8862
774	0.886
783	0.8855
792	0.8841
801	0.8824
810	0.8814
819	0.8818
828	0.8839
837	0.8837
846	0.8877
855	0.896
864	0.8944
873	0.893
882	0.8924
891	0.8921
900	0.8928
909	0.8959
918	0.8988
927	0.9014
936	0.903
945	0.9031
954	0.9027
963	0.9025
972	0.9021
981	0.9012
990	0.9
999	0.9004
1008	0.9025
1017	0.9105
1026	0.925
1035	0.923
1044	0.9214
1053	0.9142
1062	0.9103
1071	0.9091
1080	0.9097
1089	0.9108
1098	0.9116
1107	0.9083
1116	0.9012
1125	0.8928
1134	0.8746
1143	0.8456
1152	0.8256
1161	0.8403
1170	0.8716
1179	0.8283
1188	0.8473
1197	0.8805
1206	0.8956
1215	0.9085
1224	0.899
1233	0.8747
1242	0.8046
1251	0.6377
1260	0.4267
1269	0.2713
1278	0.2265
1287	0.5842
1296	0.2622
1305	0.1683
1314	0.3956
1323	0.7506
1332	0.8578
1341	0.8743
1350	0.8813
1359	0.8834
1368	0.8611
1377	0.8471
1386	0.8497
1395	0.8516
1404	0.8504
1413	0.8495
1422	0.8493
1431	0.8495
1440	0.8511
1449	0.8524
1458	0.8533
1467	0.8534
1476	0.8528
1485	0.8514
1494	0.8496
1503	0.8465
1512	0.8421
1521	0.8371
1530	0.8295
1539	0.8209
1548	0.8115
1557	0.8042
1566	0.8061
1575	0.8187
1584	0.8335
1593	0.8475
1602	0.8454
1611	0.8387
1620	0.8218
1629	0.7975
1638	0.778
1647	0.7635
1656	0.761
1665	0.7795
1674	0.8083
1683	0.8325
1692	0.8627
1701	0.8707
1710	0.8707
1719	0.8663
1728	0.8751
1737	0.8666
1746	0.8702
1755	0.8721
1764	0.876
1773	0.8764
1782	0.8757
1791	0.8652
1800	0.8768
1809	0.878
1818	0.8777
1827	0.8691
1836	0.8783
1845	0.8705
1854	0.874
1863	0.8677
1872	0.8748
1881	0.851
1890	0.8725
1899	0.8756
1908	0.8762
1917	0.8746
1926	0.8784
1935	0.8749
1944	0.8782
1953	0.8791
1962	0.876
1971	0.8765
1980	0.8777
1989	0.8784
1998	0.8793
2007	0.8778
2016	0.8815
2025	0.8828
2034	0.8834
2043	0.8832
2052	0.8824
2061	0.8811
2070	0.8799
2079	0.8785
2088	0.8775
2097	0.8767
2106	0.8763
2115	0.8759
2124	0.8734
2133	0.8684
2142	0.8571
2151	0.8274
2160	0.7785
2169	0.6312
2178	0.4032
2187	0.1687
2196	0.0871
2205	0.0232
2214	0.0152
2223	0.1363
2232	0.0084
2241	0.0108
2250	0.0864
2259	0.6099
2268	0.8804
2277	0.8825
2286	0.8816
2295	0.8788
2304	0.8753
2313	0.8765
2322	0.8745
2331	0.8718
2340	0.8734
2349	0.8782
2358	0.8821
2367	0.885
2376	0.8855
2385	0.8849
2394	0.8835
2403	0.8807
2412	0.8739
2421	0.8646
2430	0.8509
2439	0.8271
2448	0.8218
2457	0.8645
2466	0.8281
2475	0.8126
2484	0.845
2493	0.8764
2502	0.8804
2511	0.8727
2520	0.8446
2529	0.7921
2538	0.716
2547	0.6855
2556	0.7097
2565	0.7708
2574	0.6246
2583	0.6678
2592	0.7856
2601	0.8648
2610	0.8794
2619	0.8827
2628	0.8841
2637	0.8844
2646	0.8848
2655	0.8851
2664	0.8855
2673	0.8857
2682	0.8857
2691	0.8854
2700	0.8851
2709	0.8843
2718	0.8833
2727	0.882
2736	0.8808
2745	0.8787
2754	0.8762
2763	0.8727
2772	0.8688
2781	0.87
2790	0.8665
2799	0.8112
2808	0.87
2817	0.8731
2826	0.8807
2835	0.8813
2844	0.8802
2853	0.8788
2862	0.8771
2871	0.8766
2880	0.8771
2889	0.8775
2898	0.877
2907	0.8762
2916	0.8755
2925	0.8742
2934	0.8728
2943	0.8718
2952	0.8707
2961	0.87
2970	0.8693
2979	0.8686
2988	0.868
2997	0.8677
3006	0.8677
3015	0.8677
3024	0.8675
3033	0.8674
3042	0.8663
3051	0.8646
3060	0.8627
3069	0.8608
3078	0.8591
3087	0.8581
3096	0.8575
3105	0.8575
3114	0.8604
3123	0.865
3132	0.8693
3141	0.8706
3150	0.8709
3159	0.8701
3168	0.869
3177	0.8677
3186	0.8656
3195	0.8632
3204	0.8609
3213	0.8589
3222	0.8574
3231	0.8548
3240	0.8518
3249	0.8485
3258	0.8449
3267	0.8414
3276	0.839
3285	0.8405
3294	0.8461
3303	0.8458
3312	0.8461
3321	0.8455
3330	0.8448
3339	0.8442
3348	0.8524
3357	0.8575
3366	0.85
3375	0.8524
3384	0.8631
3393	0.8695
3402	0.8685
3411	0.8647
3420	0.8518
3429	0.8097
3438	0.7362
3447	0.6324
3456	0.6277
3465	0.6874
3474	0.7725
3483	0.5093
3492	0.7305
3501	0.8739
3510	0.874
3519	0.8744
3528	0.8747
3537	0.8756
3546	0.8771
3555	0.8784
3564	0.8789
3573	0.8787
3582	0.8782
3591	0.8775
3600	0.8771
3609	0.8758
3618	0.8783
3627	0.8794
3636	0.8791
3645	0.8766
3654	0.8775
3663	0.8782
3672	0.876
3681	0.8768
3690	0.8789
3699	0.878
3708	0.8716
3717	0.8749
3726	0.8764
3735	0.8733
3744	0.8748
3753	0.8796
3762	0.8824
3771	0.8818
3780	0.8787
