Infrared Spectrum: ACETIC ACID, 2-ETHYLBUTYL ESTER
Formula: C8 H16 O2
CAS: 10031-87-5
State: SOLUTION (10% IN CCl4 FOR 3800-1330, 10% IN CS2 FOR 1330-400 CM^-^1)
Class: COBLENTZ III
Instrument: DOW KBr FOREPRISM-GRATING
Instrument parameters: BLAZED AT 3.5, 12.0, 20.0 MICRON, CHANGED AT 5.0, 7.5, 14.9 MICRON
Sampling: TRANSMISSION
Path length: 0.011, 0.011 CM
Resolution: 4
Origin: DOW CHEMICAL COMPANY
1/CM	TRANSMITTANCE
383.106	0.272
391.638	0.3
400.171	0.417
408.703	0.672
417.236	0.79
425.768	0.833
434.301	0.864
442.833	0.873
451.365	0.87
459.898	0.848
468.43	0.856
476.963	0.857
485.495	0.856
494.028	0.902
502.56	0.921
511.092	0.953
519.625	0.972
528.157	0.981
536.69	0.985
545.222	0.989
553.755	0.984
562.287	0.99
570.819	0.986
579.352	0.978
587.884	0.962
596.417	0.902
604.949	0.69
613.481	0.893
622.014	0.896
630.546	0.857
639.079	0.808
647.611	0.88
656.144	0.893
664.676	0.938
673.208	0.966
681.741	0.986
690.273	0.994
698.806	1.001
707.338	1.005
715.871	1.005
724.403	1.004
732.935	1
741.468	0.982
750	0.926
758.533	0.913
767.065	0.904
775.598	0.778
784.13	0.908
792.662	0.969
801.195	0.961
809.727	0.921
818.26	0.892
826.792	0.885
835.325	0.913
843.857	0.818
852.389	0.748
860.922	0.782
869.454	0.82
877.987	0.804
886.519	0.78
895.052	0.86
903.584	0.852
912.116	0.822
920.649	0.896
929.181	0.901
937.714	0.768
946.246	0.812
954.779	0.736
963.311	0.836
971.843	0.864
980.376	0.854
988.908	0.782
997.441	0.725
1005.97	0.593
1014.51	0.39
1023.04	0.206
1031.57	0.134
1040.1	0.196
1048.64	0.241
1057.17	0.526
1065.7	0.72
1074.23	0.784
1082.76	0.818
1091.3	0.825
1099.83	0.794
1108.36	0.758
1116.89	0.804
1125.43	0.857
1133.96	0.866
1142.49	0.824
1151.02	0.789
1159.56	0.77
1168.09	0.754
1176.62	0.725
1185.15	0.714
1193.69	0.68
1202.22	0.533
1210.75	0.356
1219.28	0.1
1227.82	0.006
1236.35	0.009
1244.88	0.017
1253.41	0.052
1261.95	0.156
1270.48	0.289
1279.01	0.406
1287.54	0.513
1296.08	0.648
1304.61	0.68
1313.14	0.76
1321.67	0.797
1330.21	0.793
1338.74	0.789
1347.27	0.76
1355.8	0.6209
1364.33	0.1519
1372.87	0.2571
1381.4	0.238
1389.93	0.249
1398.46	0.4601
1407	0.658
1415.53	0.662
1424.06	0.633
1432.59	0.585
1441.13	0.564
1449.66	0.453
1458.19	0.3059
1466.72	0.162
1475.26	0.446
1483.79	0.6621
1492.32	0.761
1500.85	0.75
1509.39	0.714
1517.92	0.68
1526.45	0.646
1534.98	0.578
1543.52	0.508
1552.05	0.478
1560.58	0.525
1569.11	0.61
1577.65	0.646
1586.18	0.672
1594.71	0.729
1603.24	0.812
1611.78	0.865
1620.31	0.882
1628.84	0.888
1637.37	0.881
1645.9	0.862
1654.44	0.841
1662.97	0.849
1671.5	0.836
1680.03	0.798
1688.57	0.726
1697.1	0.582
1705.63	0.3999
1714.16	0.2
1722.7	0.098
1731.23	0.008
1739.76	0.008
1748.29	0.018
1756.83	0.2241
1765.36	0.538
1773.89	0.693
1782.42	0.786
1790.96	0.828
1799.49	0.864
1808.02	0.885
1816.55	0.904
1825.09	0.916
1833.62	0.928
1842.15	0.934
1850.68	0.942
1859.22	0.946
1867.75	0.952
1876.28	0.952
1884.81	0.958
1893.35	0.958
1901.88	0.964
1910.41	0.961
1918.94	0.962
1927.48	0.962
1936.01	0.964
1944.54	0.966
1953.07	0.97
1961.6	0.97
1970.14	0.97
1978.67	0.964
1987.2	0.958
1995.73	0.922
2004.27	0.918
2012.8	0.919
2021.33	0.923
2029.86	0.926
2038.4	0.925
2046.93	0.924
2055.46	0.925
2063.99	0.924
2072.53	0.918
2081.06	0.9215
2089.59	0.924
2098.12	0.928
2106.66	0.928
2115.19	0.925
2123.72	0.9205
2132.25	0.9189
2140.79	0.9205
2149.32	0.92
2157.85	0.92
2166.38	0.9215
2174.92	0.928
2183.45	0.933
2191.98	0.936
2200.51	0.9365
2209.05	0.936
2217.58	0.934
2226.11	0.936
2234.64	0.936
2243.17	0.934
2251.71	0.9325
2260.24	0.9285
2268.77	0.9245
2277.3	0.917
2285.84	0.914
2294.37	0.914
2302.9	0.916
2311.43	0.9189
2319.97	0.92
2328.5	0.92
2337.03	0.922
2345.56	0.925
2354.1	0.928
2362.63	0.932
2371.16	0.932
2379.69	0.9324
2388.23	0.936
2396.76	0.934
2405.29	0.9334
2413.82	0.936
2422.36	0.936
2430.89	0.9364
2439.42	0.937
2447.95	0.936
2456.49	0.9336
2465.02	0.9296
2473.55	0.9256
2482.08	0.9244
2490.62	0.9284
2499.15	0.933
2507.68	0.9364
2516.21	0.9374
2524.74	0.938
2533.28	0.937
2541.81	0.936
2550.34	0.933
2558.87	0.929
2567.41	0.928
2575.94	0.9272
2584.47	0.921
2593	0.9136
2601.54	0.91
2610.07	0.9124
2618.6	0.91
2627.13	0.9084
2635.67	0.912
2644.2	0.914
2652.73	0.914
2661.26	0.9096
2669.8	0.9072
2678.33	0.905
2686.86	0.904
2695.39	0.901
2703.93	0.898
2712.46	0.8952
2720.99	0.8926
2729.52	0.882
2738.06	0.873
2746.59	0.8774
2755.12	0.8894
2763.65	0.892
2772.19	0.886
2780.72	0.8846
2789.25	0.8793
2797.78	0.8693
2806.31	0.8496
2814.85	0.8356
2823.38	0.8082
2831.91	0.7692
2840.44	0.7266
2848.98	0.6663
2857.51	0.4613
2866.04	0.269
2874.57	0.1885
2883.11	0.1869
2891.64	0.3041
2900.17	0.2609
2908.7	0.2273
2917.24	0.1939
2925.77	0.1212
2934.3	0.0859
2942.83	0.0804
2951.37	0.1187
2959.9	0.0805
2968.43	0.0193
2976.96	0.0337
2985.5	0.1956
2994.03	0.4564
3002.56	0.6012
3011.09	0.6946
3019.63	0.742
3028.16	0.767
3036.69	0.7959
3045.22	0.819
3053.76	0.8326
3062.29	0.8453
3070.82	0.854
3079.35	0.862
3087.88	0.8659
3096.42	0.8723
3104.95	0.8763
3113.48	0.881
3122.01	0.8843
3130.55	0.886
3139.08	0.888
3147.61	0.888
3156.14	0.886
3164.68	0.885
3173.21	0.885
3181.74	0.886
3190.27	0.889
3198.81	0.8897
3207.34	0.8906
3215.87	0.893
3224.4	0.897
3232.94	0.898
3241.47	0.9003
3250	0.9013
3258.53	0.904
3267.07	0.905
3275.6	0.909
3284.13	0.9093
3292.66	0.91
3301.2	0.912
3309.73	0.913
3318.26	0.914
3326.79	0.914
3335.33	0.916
3343.86	0.917
3352.39	0.92
3360.92	0.922
3369.45	0.9235
3377.99	0.925
3386.52	0.9283
3395.05	0.932
3403.58	0.9297
3412.12	0.9287
3420.65	0.925
3429.18	0.9217
3437.71	0.914
3446.25	0.9047
3454.78	0.8935
3463.31	0.889
3471.84	0.8978
3480.38	0.9105
3488.91	0.9163
3497.44	0.92
3505.97	0.9178
3514.51	0.916
3523.04	0.9128
3531.57	0.912
3540.1	0.91
3548.64	0.9132
3557.17	0.9162
3565.7	0.921
3574.23	0.9307
3582.77	0.9412
3591.3	0.9507
3599.83	0.9577
3608.36	0.964
3616.9	0.962
3625.43	0.96
3633.96	0.9538
3642.49	0.9505
3651.02	0.9628
3659.56	0.9772
3668.09	0.981
3676.62	0.9778
3685.15	0.9698
3693.69	0.9664
3702.22	0.9784
3710.75	0.984
3719.28	0.9892
3727.82	0.993
3736.35	0.993
3744.88	0.993
3753.41	0.994
3761.95	0.996
3770.48	0.9972
3779.01	0.998
3787.54	0.997
