Infrared Spectrum: cis-1,3-Dichloropropene
Formula: C 3 H 4 Cl 2
CAS: 10061-01-5
State: liquid
Instrument: Bruker Tensor 27 FTIR
Resolution: 0.4821395
Origin: Pacific Northwest National Laboratory Under IARPA Contract
1/cm	dispersion index
7797.62	1.45178
7779.06	1.45179
7760.5	1.45179
7741.94	1.45178
7723.38	1.45178
7704.81	1.45178
7686.25	1.45178
7667.69	1.45177
7649.13	1.45177
7630.57	1.45177
7612.01	1.45176
7593.44	1.45176
7574.88	1.45176
7556.32	1.45175
7537.76	1.45175
7519.2	1.45175
7500.64	1.45175
7482.07	1.45174
7463.51	1.45174
7444.95	1.45173
7426.39	1.45173
7407.83	1.45173
7389.26	1.45172
7370.7	1.45172
7352.14	1.45171
7333.58	1.45171
7315.02	1.4517
7296.46	1.4517
7277.89	1.45169
7259.33	1.45169
7240.77	1.45168
7222.21	1.45168
7203.65	1.45167
7185.09	1.45167
7166.52	1.45166
7147.96	1.45165
7129.4	1.45165
7110.84	1.45164
7092.28	1.45163
7073.71	1.45162
7055.15	1.45161
7036.59	1.4516
7018.03	1.45159
6999.47	1.45158
6980.91	1.45156
6962.34	1.45154
6943.78	1.45148
6925.22	1.45156
6906.66	1.4515
6888.1	1.45161
6869.54	1.45159
6850.97	1.45159
6832.41	1.45159
6813.85	1.45157
6795.29	1.4516
6776.73	1.45161
6758.16	1.45159
6739.6	1.45157
6721.04	1.45155
6702.48	1.45153
6683.92	1.45152
6665.36	1.45151
6646.79	1.4515
6628.23	1.45149
6609.67	1.45147
6591.11	1.45147
6572.55	1.45145
6553.99	1.45144
6535.42	1.45143
6516.86	1.45142
6498.3	1.4514
6479.74	1.45139
6461.18	1.45138
6442.61	1.45136
6424.05	1.45134
6405.49	1.45133
6386.93	1.45131
6368.37	1.45129
6349.81	1.45127
6331.24	1.45125
6312.68	1.45124
6294.12	1.45122
6275.56	1.45119
6257	1.45117
6238.44	1.45114
6219.87	1.45113
6201.31	1.45109
6182.75	1.45105
6164.19	1.45099
6145.63	1.4509
6127.06	1.45074
6108.5	1.45109
6089.94	1.4511
6071.38	1.45107
6052.82	1.45096
6034.26	1.451
6015.69	1.45111
5997.13	1.45107
5978.57	1.45111
5960.01	1.45099
5941.45	1.45095
5922.89	1.451
5904.32	1.45089
5885.76	1.45085
5867.2	1.45084
5848.64	1.45078
5830.08	1.45068
5811.51	1.4509
5792.95	1.4508
5774.39	1.45073
5755.83	1.4507
5737.27	1.45065
5718.71	1.45055
5700.14	1.45046
5681.58	1.45054
5663.02	1.45047
5644.46	1.45038
5625.9	1.45031
5607.34	1.45022
5588.77	1.45011
5570.21	1.44996
5551.65	1.44981
5533.09	1.44957
5514.53	1.44957
5495.96	1.44917
5477.4	1.44869
5458.84	1.44781
5440.28	1.45245
5421.72	1.45093
5403.16	1.45025
5384.59	1.44898
5366.03	1.45352
5347.47	1.45175
5328.91	1.45166
5310.35	1.45126
5291.79	1.45081
5273.22	1.45055
5254.66	1.45019
5236.1	1.45029
5217.54	1.45024
5198.98	1.44995
5180.41	1.44977
5161.85	1.44962
5143.29	1.44948
5124.73	1.44931
5106.17	1.44894
5087.61	1.44896
5069.04	1.44915
5050.48	1.44907
5031.92	1.44868
5013.36	1.44856
4994.8	1.44825
4976.24	1.44804
4957.67	1.44772
4939.11	1.44744
4920.55	1.44716
4901.99	1.4467
4883.43	1.44631
4864.86	1.44583
4846.3	1.44513
4827.74	1.44423
4809.18	1.4437
4790.62	1.44232
4772.06	1.44082
4753.49	1.43912
4734.93	1.43678
4716.37	1.39203
4697.81	1.45747
4679.25	1.45064
4660.69	1.44545
4642.12	1.44124
4623.56	1.4308
4605	1.44384
4586.44	1.43492
4567.88	1.39515
4549.31	1.44388
4530.75	1.38345
4512.19	1.45869
4493.63	1.4562
4475.07	1.45528
4456.51	1.44793
4437.94	1.44306
4419.38	1.42905
4400.82	1.4414
4382.26	1.43441
4363.7	1.42488
4345.14	1.42406
4326.57	1.40401
4308.01	1.36199
4289.45	1.23524
4270.89	1.65949
4252.33	1.54726
4233.76	1.53726
4215.2	1.51226
4196.64	1.49415
4178.08	1.47276
4159.52	1.49076
4140.96	1.47941
4122.39	1.48351
4103.83	1.4862
4085.27	3.51992e-05
4066.71	3.21147e-05
4048.15	2.76697e-05
4029.58	2.83507e-05
4011.02	3.33559e-05
3992.46	3.52395e-05
3973.9	3.42784e-05
3955.34	3.39178e-05
3936.78	3.23561e-05
3918.21	3.51992e-05
3899.65	4.6451e-05
3881.09	3.81615e-05
3862.53	4.68518e-05
3843.97	4.4049e-05
3825.41	4.48491e-05
3806.84	4.60501e-05
3788.28	3.66401e-05
3769.72	4.24471e-05
3751.16	4.04444e-05
3732.6	3.88828e-05
3714.03	4.56508e-05
3695.47	4.04444e-05
3676.91	3.8242e-05
3658.35	3.53184e-05
3639.79	3.06335e-05
3621.23	3.15947e-05
3602.66	2.94728e-05
3584.1	2.93923e-05
3565.54	2.95919e-05
3546.98	2.71094e-05
3528.42	2.59084e-05
3509.86	2.20237e-05
3491.29	2.12638e-05
3472.73	1.98616e-05
3454.17	1.66981e-05
3435.61	1.61781e-05
3417.05	1.66176e-05
3398.48	1.50962e-05
3379.92	1.60976e-05
3361.36	2.17033e-05
3342.8	1.60171e-05
3324.24	1.6418e-05
3305.68	1.65789e-05
3287.11	2.47477e-05
3268.55	7.56839e-05
3249.99	0.000148162
3231.43	0.000374812
3212.87	0.000355591
3194.31	0.000524576
3175.74	0.000376414
3157.18	0.000275502
3138.62	0.000321153
3120.06	0.000299129
3101.5	0.000317949
3082.93	0.000237061
3064.37	0.000108119
3045.81	4.60501e-05
3027.25	4.00435e-05
3008.69	3.69203e-05
2990.13	4.24471e-05
2971.56	3.64405e-05
2953	4.08452e-05
2934.44	4.48491e-05
2915.88	3.94028e-05
2897.32	5.72632e-05
2878.76	3.9443e-05
2860.19	4.16454e-05
2841.63	4.525e-05
2823.07	3.94028e-05
2804.51	2.90719e-05
2785.95	4.4049e-05
2767.38	3.15142e-05
2748.82	2.66297e-05
2730.26	2.00225e-05
2711.7	2.87515e-05
2693.14	2.39459e-05
2674.58	2.33052e-05
2656.01	4.12445e-05
2637.45	4.92539e-05
2618.89	6.04669e-05
2600.33	3.66804e-05
2581.77	5.36586e-05
2563.21	6.88756e-05
2544.64	7.8886e-05
2526.08	9.2902e-05
2507.52	6.76745e-05
2488.96	7.4082e-05
2470.4	0.000105316
2451.83	0.000197817
2433.27	0.00043648
2414.71	0.00230253
2396.15	0.0010051
2377.59	0.00080088
2359.03	0.000792871
2340.46	0.000812893
2321.9	0.00111723
2303.34	0.00076484
2284.78	0.0010932
2266.22	0.000524576
2247.66	0.000516568
2229.09	0.000432476
2210.53	0.000330763
2191.97	0.000472519
2173.41	0.000552608
2154.85	0.000480529
2136.28	0.000708778
2117.72	0.00131344
2099.16	0.000536589
2080.6	0.000520572
2062.04	0.000592651
2043.48	0.000528581
2024.91	0.00050055
2006.35	0.000480529
1987.79	0.000644708
1969.23	0.00050055
1950.67	0.000448493
1932.11	0.00042847
1913.54	0.000398038
1894.98	0.000350384
1876.42	0.000351587
1857.86	0.000476523
1839.3	0.000616678
1820.73	0.00178196
1802.17	0.00122535
1783.61	0.00195415
1765.05	0.00358394
1746.49	0.0187005
1727.93	0.00812893
1709.36	0.0056462
1690.8	0.00844928
1672.24	0.0160977
1653.68	0.00276704
1635.12	0.00370407
1616.56	0.00130143
1597.99	0.000660725
1579.43	0.000484532
1560.87	0.000668735
1542.31	0.000880969
1523.75	0.000688757
1505.18	0.000316748
1486.62	0.000322755
1468.06	0.000584642
1449.5	0.000596655
1430.94	0.000624686
1412.38	0.000632695
1393.81	0.00217839
1375.25	0.00240264
1356.69	0.000792871
1338.13	0.000370407
1319.57	0.000416457
1301.01	0.000341575
1282.44	0.000386025
1263.88	0.000253879
1245.32	0.000560616
1226.76	0.000279907
1208.2	0.000251076
1189.63	0.000524576
1171.07	0.000676744
1152.51	0.000370006
1133.95	0.000917007
1115.39	0.00235058
1096.83	0.00224647
1078.26	0.00596655
1059.7	0.0080088
1041.14	0.0174592
1022.58	0.0227049
1004.02	0.0301932
985.455	0.00744818
966.894	0.00237461
948.332	0.00357593
929.77	0.0149364
911.208	0.0152968
892.647	0.0121734
874.085	0.0368405
855.523	0.0232255
836.961	0.0444488
818.399	0.0370807
799.838	0.0162178
781.276	0.0266693
762.714	0.00812893
744.152	0.00480528
725.591	0.00953047
707.029	0.0144158
688.467	0.00836919
669.905	0.0142957
651.344	0.0312744
632.782	0.0126939
614.22	0.0296726
595.658	0.234257
577.096	1.30543
558.535	0.129342
539.973	0.1818
521.411	0.0188607
502.849	0.00204224
484.288	0.0040044
465.726	0.0168185
447.164	0.00289518
428.602	0.0480528
410.041	0.00540594
