Infrared Spectrum: 1-PROPENE, 1,3-DICHLORO- (E)
Formula: C3 H4 Cl2
CAS: 10061-02-6
State: SOLUTION (10% IN CCl4 FOR 3800-1333 AND 10% IN CS2 FOR 1333-400 CM^-^1)
Class: COBLENTZ III
Instrument: DOW KBr FOREPRISM-GRATING
Instrument parameters: BLAZED AT 3.5, 12.0, 20.0 MICRON, CHANGED AT 5.0, 7.5, 14.9 MICRON
Sampling: TRANSMISSION
Path length: 0.010, 0.011 CM
Resolution: 4
Origin: DOW CHEMICAL COMPANY
1/CM	TRANSMITTANCE
406.084	0.616
414.775	0.683
423.466	0.721
432.157	0.728
440.848	0.706
449.539	0.497
458.23	0.794
466.921	0.896
475.611	0.922
484.302	0.937
492.993	0.942
501.684	0.944
510.375	0.933
519.066	0.847
527.757	0.917
536.448	0.96
545.139	0.967
553.83	0.975
562.521	0.976
571.212	0.978
579.903	0.976
588.594	0.975
597.285	0.974
605.976	0.971
614.666	0.968
623.357	0.966
632.048	0.953
640.739	0.922
649.43	0.87
658.121	0.819
666.812	0.751
675.503	0.436
684.194	0.055
692.885	0.286
701.576	0.684
710.267	0.847
718.958	0.9
727.649	0.913
736.34	0.915
745.031	0.902
753.721	0.892
762.412	0.86
771.103	0.733
779.794	0.447
788.485	0.759
797.176	0.875
805.867	0.869
814.558	0.802
823.249	0.451
831.94	0.842
840.631	0.842
849.322	0.752
858.013	0.504
866.704	0.686
875.395	0.815
884.085	0.843
892.776	0.834
901.467	0.75
910.158	0.434
918.849	0.2249
927.54	0.158
936.231	0.0571
944.922	0.6081
953.613	0.812
962.304	0.87
970.995	0.896
979.686	0.911
988.377	0.906
997.068	0.892
1005.76	0.911
1014.45	0.933
1023.14	0.936
1031.83	0.933
1040.52	0.937
1049.21	0.933
1057.9	0.919
1066.6	0.862
1075.29	0.889
1083.98	0.907
1092.67	0.917
1101.36	0.915
1110.05	0.914
1118.74	0.913
1127.43	0.911
1136.12	0.906
1144.81	0.877
1153.5	0.77
1162.2	0.911
1170.89	0.911
1179.58	0.923
1188.27	0.93
1196.96	0.93
1205.65	0.917
1214.34	0.855
1223.03	0.824
1231.72	0.5009
1240.41	0.4062
1249.1	0.778
1257.8	0.766
1266.49	0.633
1275.18	0.379
1283.87	0.573
1292.56	0.694
1301.25	0.834
1309.94	0.873
1318.63	0.895
1327.32	0.902
1336.01	0.917
1344.71	0.918
1353.4	0.917
1362.09	0.913
1370.78	0.917
1379.47	0.925
1388.16	0.93
1396.85	0.926
1405.54	0.923
1414.23	0.914
1422.92	0.898
1431.61	0.834
1440.31	0.7239
1449	0.7941
1457.69	0.898
1466.38	0.906
1475.07	0.906
1483.76	0.892
1492.45	0.862
1501.14	0.819
1509.83	0.769
1518.52	0.722
1527.21	0.675
1535.91	0.604
1544.6	0.51
1553.29	0.52
1561.98	0.592
1570.67	0.653
1579.36	0.665
1588.05	0.69
1596.74	0.707
1605.43	0.758
1614.12	0.728
1622.82	0.4209
1631.51	0.236
1640.2	0.5571
1648.89	0.7971
1657.58	0.908
1666.27	0.925
1674.96	0.926
1683.65	0.937
1692.34	0.93
1701.03	0.891
1709.72	0.879
1718.42	0.936
1727.11	0.945
1735.8	0.93
1744.49	0.934
1753.18	0.955
1761.87	0.976
1770.56	0.982
1779.25	0.983
1787.94	0.98
1796.63	0.978
1805.32	0.976
1814.02	0.976
1822.71	0.976
1831.4	0.978
1840.09	0.976
1848.78	0.974
1857.47	0.972
1866.16	0.978
1874.85	0.983
1883.54	0.986
1892.23	0.989
1900.93	0.991
1909.62	0.993
1918.31	0.993
1927	0.995
1935.69	0.993
1944.38	0.991
1953.07	0.991
1961.76	0.99
1970.45	0.991
1979.14	0.991
1987.83	0.99
1996.53	0.993
2005.22	0.991
2013.91	0.991
2022.6	0.991
2031.29	0.993
2039.98	0.993
2048.67	0.993
2057.36	0.993
2066.05	0.993
2074.74	0.994
2083.43	0.994
2092.13	0.995
2100.82	0.995
2109.51	0.997
2118.2	0.995
2126.89	0.995
2135.58	0.995
2144.27	0.993
2152.96	0.994
2161.65	0.9951
2170.34	0.995
2179.03	1.0022
2187.73	0.9941
2196.42	0.994
2205.11	0.993
2213.8	0.987
2222.49	0.9832
2231.18	0.9751
2239.87	0.9778
2248.56	0.983
2257.25	0.985
2265.94	0.9821
2274.64	0.9751
2283.33	0.9722
2292.02	0.9682
2300.71	0.968
2309.4	0.966
2318.09	0.9778
2326.78	0.989
2335.47	0.991
2344.16	0.991
2352.85	0.99
2361.54	0.991
2370.24	0.991
2378.93	0.9901
2387.62	0.99
2396.31	0.9909
2405	0.9927
2413.69	0.993
2422.38	0.9913
2431.07	0.991
2439.76	0.993
2448.45	0.991
2457.14	0.993
2465.84	0.993
2474.53	0.993
2483.22	0.993
2491.91	0.99
2500.6	0.99
2509.29	0.989
2517.98	0.989
2526.67	0.987
2535.36	0.99
2544.05	0.991
2552.75	0.99
2561.44	0.99
2570.13	0.99
2578.82	0.991
2587.51	0.991
2596.2	0.99
2604.89	0.991
2613.58	0.991
2622.27	0.991
2630.96	0.99
2639.65	0.99
2648.35	0.99
2657.04	0.99
2665.73	0.9834
2674.42	0.98
2683.11	0.982
2691.8	0.9804
2700.49	0.9792
2709.18	0.9752
2717.87	0.9776
2726.56	0.9858
2735.25	0.986
2743.95	0.987
2752.64	0.987
2761.33	0.987
2770.02	0.986
2778.71	0.983
2787.4	0.985
2796.09	0.9853
2804.78	0.985
2813.47	0.9823
2822.16	0.9765
2830.86	0.9705
2839.55	0.9555
2848.24	0.947
2856.93	0.9166
2865.62	0.9252
2874.31	0.9574
2883	0.961
2891.69	0.9568
2900.38	0.9513
2909.07	0.948
2917.76	0.934
2926.46	0.9103
2935.15	0.8665
2943.84	0.8439
2952.53	0.7743
2961.22	0.7075
2969.91	0.8909
2978.6	0.9321
2987.29	0.936
2995.98	0.9367
3004.67	0.9557
3013.36	0.966
3022.06	0.966
3030.75	0.963
3039.44	0.954
3048.13	0.9383
3056.82	0.894
3065.51	0.741
3074.2	0.8779
3082.89	0.9073
3091.58	0.9458
3100.27	0.9693
3108.97	0.978
3117.66	0.978
3126.35	0.982
3135.04	0.9843
3143.73	0.985
3152.42	0.985
3161.11	0.9866
3169.8	0.989
3178.49	0.989
3187.18	0.989
3195.87	0.989
3204.57	0.99
3213.26	0.989
3221.95	0.987
3230.64	0.987
3239.33	0.9864
3248.02	0.985
3256.71	0.989
3265.4	0.989
3274.09	0.9906
3282.78	0.991
3291.47	0.99
3300.17	0.9906
3308.86	0.99
3317.55	0.989
3326.24	0.989
3334.93	0.987
3343.62	0.989
3352.31	0.989
3361	0.9894
3369.69	0.989
3378.38	0.9896
3387.08	0.989
3395.77	0.989
3404.46	0.989
3413.15	0.987
3421.84	0.985
3430.53	0.986
3439.22	0.986
3447.91	0.986
3456.6	0.987
3465.29	0.986
3473.98	0.987
3482.68	0.9865
3491.37	0.9865
3500.06	0.9865
3508.75	0.986
3517.44	0.985
3526.13	0.985
3534.82	0.982
3543.51	0.985
3552.2	0.985
3560.89	0.984
3569.58	0.985
3578.28	0.985
3586.97	0.985
3595.66	0.983
3604.35	0.984
3613.04	0.9865
3621.73	0.9875
3630.42	0.983
3639.11	0.984
3647.8	0.986
3656.49	0.986
3665.19	0.986
3673.88	0.985
3682.57	0.983
3691.26	0.983
3699.95	0.9855
3708.64	0.989
3717.33	0.987
3726.02	0.986
3734.71	0.989
3743.4	0.9879
3752.09	0.987
3760.79	0.987
3769.48	0.987
3778.17	0.987
3786.86	0.987
