Infrared Spectrum: DI-(4-METHOXY PHENYL) AMINE
Formula: C14 H15 N O2
CAS: 101-70-2
State: SOLID (MINERAL OIL MULL)
Class: COBLENTZ
Instrument: PERKIN-ELMER
Sampling: TRANSMISSION
Resolution: 4
MICROMETERS	TRANSMITTANCE
2.04	0.363
2.07366	0.367
2.10732	0.37
2.14098	0.373
2.17465	0.38
2.20831	0.38
2.24197	0.384
2.27563	0.387
2.30929	0.382
2.34295	0.382
2.37661	0.382
2.41028	0.385
2.44394	0.39
2.4776	0.394
2.51126	0.401
2.54492	0.411
2.57858	0.412
2.61224	0.419
2.64591	0.423
2.67957	0.423
2.71323	0.429
2.74689	0.433
2.78055	0.439
2.81421	0.45
2.84788	0.451
2.88154	0.451
2.9152	0.45
2.94886	0.45
2.98252	0.45
3.01618	0.453
3.04984	0.456
3.08351	0.461
3.11717	0.461
3.15083	0.463
3.18449	0.46
3.21815	0.453
3.25181	0.433
3.28547	0.409
3.31914	0.37
3.3528	0.191
3.38646	0.05
3.42012	0.018
3.45378	0.025
3.48744	0.028
3.5211	0.108
3.55477	0.353
3.58843	0.45
3.62209	0.487
3.65575	0.502
3.68941	0.505
3.72307	0.516
3.75673	0.516
3.7904	0.522
3.82406	0.524
3.85772	0.531
3.89138	0.538
3.92504	0.551
3.9587	0.556
3.99236	0.563
4.02603	0.571
4.05969	0.576
4.09335	0.582
4.12701	0.587
4.16067	0.588
4.19433	0.59
4.228	0.59
4.26166	0.59
4.29532	0.59
4.32898	0.592
4.36264	0.602
4.3963	0.609
4.42996	0.612
4.46363	0.614
4.49729	0.62
4.53095	0.624
4.56461	0.627
4.59827	0.629
4.63193	0.632
4.66559	0.639
4.69926	0.641
4.73292	0.642
4.76658	0.644
4.80024	0.646
4.8339	0.644
4.86756	0.632
4.90122	0.639
4.93489	0.649
4.96855	0.649
5.00221	0.651
5.03587	0.654
5.06953	0.663
5.10319	0.668
5.13685	0.668
5.17052	0.671
5.20418	0.671
5.23784	0.675
5.2715	0.671
5.30516	0.636
5.33882	0.641
5.37248	0.666
5.40615	0.675
5.43981	0.685
5.47347	0.69
5.50713	0.692
5.54079	0.693
5.57445	0.693
5.60812	0.698
5.64178	0.7
5.67544	0.703
5.7091	0.703
5.74276	0.703
5.77642	0.708
5.81008	0.71
5.84375	0.71
5.87741	0.714
5.91107	0.712
5.94473	0.714
5.97839	0.714
6.01205	0.714
6.04571	0.702
6.07938	0.695
6.11304	0.705
6.1467	0.717
6.18036	0.714
6.21402	0.714
6.24768	0.724
6.28134	0.73
6.31501	0.734
6.34867	0.734
6.38233	0.732
6.41599	0.73
6.44965	0.72
6.48331	0.705
6.51697	0.615
6.55064	0.495
6.5843	0.213
6.61796	0.201
6.65162	0.284
6.68528	0.35
6.71894	0.392
6.7526	0.414
6.78627	0.289
6.81993	0.133
6.85359	0.135
6.88725	0.184
6.92091	0.262
6.95457	0.377
6.98824	0.504
7.0219	0.57
7.05556	0.59
7.08922	0.629
7.12288	0.648
7.15654	0.651
7.1902	0.631
7.22387	0.512
7.25753	0.377
7.29119	0.47
7.32485	0.521
7.35851	0.602
7.39217	0.612
7.42583	0.615
7.4595	0.607
7.49316	0.612
7.52682	0.631
7.56048	0.648
7.59414	0.641
7.6278	0.634
7.66146	0.597
7.69513	0.467
7.72879	0.504
7.76245	0.553
7.79611	0.522
7.82977	0.551
7.86343	0.602
7.89709	0.592
7.93076	0.494
7.96442	0.28
7.99808	0.201
8.03174	0.199
8.0654	0.206
8.09906	0.243
8.13272	0.289
8.16639	0.34
8.20005	0.39
8.23371	0.439
8.26737	0.482
8.30103	0.517
8.33469	0.543
8.36836	0.57
8.40202	0.585
8.43568	0.582
8.46934	0.399
8.503	0.441
8.53666	0.504
8.57032	0.561
8.60399	0.593
8.63765	0.609
8.67131	0.604
8.70497	0.602
8.73863	0.612
8.77229	0.61
8.80595	0.585
8.83962	0.582
8.87328	0.58
8.90694	0.531
8.9406	0.514
8.97426	0.517
9.00792	0.502
9.04158	0.494
9.07525	0.575
9.10891	0.629
9.14257	0.653
9.17623	0.666
9.20989	0.671
9.24355	0.654
9.27721	0.563
9.31088	0.485
9.34454	0.541
9.3782	0.609
9.41186	0.642
9.44552	0.664
9.47918	0.671
9.51284	0.673
9.54651	0.663
9.58017	0.631
9.61383	0.585
9.64749	0.443
9.68115	0.279
9.71481	0.211
9.74848	0.243
9.78214	0.321
9.8158	0.421
9.84946	0.482
9.88312	0.531
9.91678	0.561
9.95044	0.573
9.98411	0.58
10.0178	0.598
10.0514	0.629
10.0851	0.642
10.1188	0.651
10.1524	0.659
10.1861	0.671
10.2197	0.675
10.2534	0.675
10.2871	0.676
10.3207	0.678
10.3544	0.68
10.388	0.68
10.4217	0.683
10.4554	0.683
10.489	0.683
10.5227	0.683
10.5564	0.681
10.59	0.683
10.6237	0.693
10.6573	0.695
10.691	0.695
10.7247	0.697
10.7583	0.702
10.792	0.703
10.8256	0.71
10.8593	0.719
10.893	0.72
10.9266	0.722
10.9603	0.724
10.9939	0.727
11.0276	0.729
11.0613	0.734
11.0949	0.737
11.1286	0.737
11.1623	0.736
11.1959	0.734
11.2296	0.734
11.2632	0.734
11.2969	0.734
11.3306	0.736
11.3642	0.736
11.3979	0.734
11.4315	0.729
11.4652	0.72
11.4989	0.724
11.5325	0.729
11.5662	0.729
11.5999	0.732
11.6335	0.73
11.6672	0.722
11.7008	0.715
11.7345	0.708
11.7682	0.698
11.8018	0.676
11.8355	0.659
11.8691	0.62
11.9028	0.563
11.9365	0.497
11.9701	0.351
12.0038	0.26
12.0375	0.236
12.0711	0.221
12.1048	0.228
12.1384	0.287
12.1721	0.341
12.2058	0.343
12.2394	0.357
12.2731	0.455
12.3067	0.524
12.3404	0.571
12.3741	0.614
12.4077	0.644
12.4414	0.661
12.4751	0.68
12.5087	0.692
12.5424	0.7
12.576	0.712
12.6097	0.724
12.6434	0.727
12.677	0.729
12.7107	0.73
12.7443	0.734
12.778	0.737
12.8117	0.739
12.8453	0.739
12.879	0.736
12.9127	0.734
12.9463	0.727
12.98	0.71
13.0136	0.676
13.0473	0.588
13.081	0.504
13.1146	0.524
13.1483	0.592
13.1819	0.641
13.2156	0.68
13.2493	0.69
13.2829	0.702
13.3166	0.705
13.3503	0.71
13.3839	0.715
13.4176	0.719
13.4512	0.72
13.4849	0.715
13.5186	0.71
13.5522	0.703
13.5859	0.7
13.6195	0.7
13.6532	0.695
13.6869	0.692
13.7205	0.685
13.7542	0.678
13.7879	0.663
13.8215	0.631
13.8552	0.588
13.8888	0.571
13.9225	0.592
13.9562	0.627
13.9898	0.649
14.0235	0.671
14.0571	0.673
14.0908	0.675
14.1245	0.681
14.1581	0.698
14.1918	0.71
14.2254	0.72
14.2591	0.729
14.2928	0.734
14.3264	0.736
14.3601	0.736
14.3938	0.739
14.4274	0.742
14.4611	0.744
14.4947	0.742
14.5284	0.741
14.5621	0.741
14.5957	0.737
14.6294	0.732
14.663	0.732
14.6967	0.73
14.7304	0.73
14.764	0.724
14.7977	0.724
14.8314	0.72
14.865	0.714
14.8987	0.714
14.9323	0.712
14.966	0.712
14.9997	0.708
15.0333	0.703
15.067	0.695
15.1006	0.695
15.1343	0.692
15.168	0.685
