Infrared Spectrum: BENZENE, 1,1'-OXYBIS-
Formula: C12 H10 O
CAS: 101-84-8
State: LIQUID (NEAT)
Class: COBLENTZ II
Instrument: PERKIN-ELMER 521 (GRATING)
Instrument parameters: GRATING CHANGES AT 2000, 630 CM^-^1
Sampling: TRANSMISSION
Path length: CAPILLARY
Resolution: 4
Origin: DOW CORNING CORP.
1/CM	TRANSMITTANCE
238.978	0.872
247.924	0.876
256.869	0.89
265.815	0.904
274.761	0.933
283.707	0.949
292.652	0.954
301.598	0.963
310.544	0.97
319.49	0.979
328.435	0.991
337.381	0.998
346.327	1
355.272	1
364.218	1
373.164	0.998
382.11	0.993
391.055	0.977
400.001	0.98
408.947	0.986
417.892	0.991
426.838	1
435.784	1.001
444.73	1
453.675	0.993
462.621	0.979
471.567	0.951
480.513	0.848
489.458	0.897
498.404	0.863
507.35	0.895
516.295	0.961
525.241	0.972
534.187	0.975
543.133	0.98
552.078	0.979
561.024	0.98
569.97	0.979
578.915	0.986
587.861	0.986
596.807	0.98
605.753	0.98
614.698	0.98
623.644	0.977
632.59	0.98
641.536	0.984
650.481	0.98
659.427	0.968
668.373	0.972
677.318	0.961
686.264	0.841
695.21	0.4408
704.156	0.8209
713.101	0.954
722.047	0.956
730.993	0.938
739.938	0.879
748.884	0.4393
757.83	0.5669
766.776	0.818
775.721	0.881
784.667	0.867
793.613	0.811
802.559	0.774
811.504	0.8949
820.45	0.919
829.396	0.917
838.341	0.947
847.287	0.945
856.233	0.921
865.179	0.7096
874.124	0.8546
883.07	0.91
892.016	0.891
900.961	0.881
909.907	0.893
918.853	0.944
927.799	0.963
936.744	0.968
945.69	0.968
954.636	0.963
963.582	0.958
972.527	0.956
981.473	0.952
990.419	0.952
999.364	0.952
1008.31	0.949
1017.26	0.935
1026.2	0.771
1035.15	0.963
1044.09	0.965
1053.04	0.963
1061.98	0.938
1070.93	0.8229
1079.88	0.8879
1088.82	0.956
1097.77	0.958
1106.71	0.958
1115.66	0.958
1124.6	0.958
1133.55	0.947
1142.5	0.928
1151.44	0.872
1160.39	0.7149
1169.33	0.7588
1178.28	0.848
1187.22	0.874
1196.17	0.813
1205.12	0.855
1214.06	0.82
1223.01	0.6048
1231.95	0.2141
1240.9	0.172
1249.84	0.3382
1258.79	0.7239
1267.74	0.842
1276.68	0.846
1285.63	0.804
1294.57	0.862
1303.52	0.895
1312.46	0.9
1321.41	0.902
1330.36	0.886
1339.3	0.884
1348.25	0.931
1357.19	0.944
1366.14	0.944
1375.08	0.944
1384.03	0.937
1392.98	0.94
1401.92	0.949
1410.87	0.954
1419.81	0.954
1428.76	0.954
1437.7	0.947
1446.65	0.921
1455.6	0.795
1464.54	0.797
1473.49	0.649
1482.43	0.3959
1491.38	0.1323
1500.32	0.6709
1509.27	0.87
1518.22	0.914
1527.16	0.928
1536.11	0.921
1545.05	0.904
1554	0.898
1562.94	0.879
1571.89	0.794
1580.84	0.6156
1589.78	0.415
1598.73	0.6001
1607.67	0.813
1616.62	0.902
1625.57	0.928
1634.51	0.938
1643.46	0.944
1652.4	0.947
1661.35	0.951
1670.29	0.949
1679.24	0.949
1688.19	0.949
1697.13	0.945
1706.08	0.935
1715.02	0.93
1723.97	0.94
1732.91	0.942
1741.86	0.945
1750.81	0.947
1759.75	0.951
1768.7	0.949
1777.64	0.942
1786.59	0.938
1795.53	0.947
1804.48	0.949
1813.43	0.954
1822.37	0.954
1831.32	0.954
1840.26	0.947
1849.21	0.938
1858.15	0.935
1867.1	0.933
1876.05	0.94
1884.99	0.949
1893.94	0.951
1902.88	0.952
1911.83	0.947
1920.77	0.938
1929.72	0.928
1938.67	0.917
1947.61	0.928
1956.56	0.931
1965.5	0.938
1974.45	0.94
1983.39	0.935
1992.34	0.935
2001.29	0.9445
2010.23	0.954
2019.18	0.953
2028.12	0.931
2037.07	0.935
2046.01	0.947
2054.96	0.948
2063.91	0.935
2072.85	0.95
2081.8	0.954
2090.74	0.952
2099.69	0.952
2108.63	0.956
2117.58	0.954
2126.53	0.952
2135.47	0.952
2144.42	0.951
2153.36	0.952
2162.31	0.954
2171.25	0.952
2180.2	0.9515
2189.15	0.951
2198.09	0.952
2207.04	0.952
2215.98	0.95
2224.93	0.947
2233.87	0.945
2242.82	0.945
2251.77	0.949
2260.71	0.945
2269.66	0.944
2278.6	0.944
2287.55	0.945
2296.49	0.944
2305.44	0.941
2314.39	0.938
2323.33	0.9375
2332.28	0.937
2341.22	0.936
2350.17	0.935
2359.11	0.936
2368.06	0.935
2377.01	0.935
2385.95	0.928
2394.9	0.924
2403.84	0.926
2412.79	0.925
2421.73	0.917
2430.68	0.917
2439.63	0.923
2448.57	0.928
2457.52	0.928
2466.46	0.93
2475.41	0.931
2484.35	0.935
2493.3	0.935
2502.25	0.935
2511.19	0.935
2520.14	0.934
2529.08	0.935
2538.03	0.934
2546.97	0.933
2555.92	0.933
2564.87	0.931
2573.81	0.931
2582.76	0.931
2591.7	0.932
2600.65	0.933
2609.59	0.93
2618.54	0.93
2627.49	0.93
2636.43	0.93
2645.38	0.932
2654.32	0.933
2663.27	0.931
2672.21	0.931
2681.16	0.9305
2690.11	0.931
2699.05	0.932
2708	0.931
2716.94	0.931
2725.89	0.931
2734.83	0.928
2743.78	0.93
2752.73	0.931
2761.67	0.931
2770.62	0.931
2779.56	0.93
2788.51	0.928
2797.45	0.926
2806.4	0.928
2815.35	0.928
2824.29	0.928
2833.24	0.928
2842.18	0.928
2851.13	0.926
2860.07	0.926
2869.02	0.926
2877.97	0.922
2886.91	0.923
2895.86	0.924
2904.8	0.923
2913.75	0.923
2922.69	0.923
2931.64	0.923
2940.59	0.923
2949.53	0.924
2958.48	0.923
2967.42	0.926
2976.37	0.923
2985.31	0.92
2994.26	0.916
3003.21	0.9075
3012.15	0.89
3021.1	0.8705
3030.04	0.846
3038.99	0.7996
3047.93	0.828
3056.88	0.83
3065.83	0.821
3074.77	0.83
3083.72	0.851
3092.66	0.872
3101.61	0.893
3110.56	0.9095
3119.5	0.917
3128.45	0.919
3137.39	0.93
3146.34	0.93
3155.28	0.93
3164.23	0.93
3173.18	0.93
3182.12	0.932
3191.07	0.933
3200.01	0.935
3208.96	0.935
3217.9	0.937
3226.85	0.937
3235.8	0.938
3244.74	0.94
3253.69	0.94
3262.63	0.938
3271.58	0.94
3280.52	0.94
3289.47	0.938
3298.42	0.938
3307.36	0.938
3316.31	0.938
3325.25	0.9375
3334.2	0.938
3343.14	0.938
3352.09	0.938
3361.04	0.938
3369.98	0.938
3378.93	0.937
3387.87	0.938
3396.82	0.94
3405.76	0.94
3414.71	0.94
3423.66	0.94
3432.6	0.938
3441.55	0.937
3450.49	0.937
3459.44	0.937
3468.38	0.935
3477.33	0.937
3486.28	0.935
3495.22	0.935
3504.17	0.935
3513.11	0.935
3522.06	0.937
3531	0.935
3539.95	0.933
3548.9	0.933
3557.84	0.937
3566.79	0.935
3575.73	0.935
3584.68	0.935
3593.62	0.933
3602.57	0.935
3611.52	0.935
3620.46	0.931
3629.41	0.933
3638.35	0.931
3647.3	0.931
3656.24	0.931
3665.19	0.933
3674.14	0.933
3683.08	0.933
3692.03	0.933
3700.97	0.931
3709.92	0.935
3718.86	0.936
3727.81	0.935
3736.76	0.935
3745.7	0.935
3754.65	0.935
3763.59	0.933
3772.54	0.933
3781.48	0.933
3790.43	0.935
