Infrared Spectrum: PHENYL ACETALDEHYDE, DIMETHYL ACETAL
Formula: C10 H14 O2
CAS: 101-48-4
State: LIQUID
Class: COBLENTZ
Instrument: Not specified, most likely a prism, grating, or hybrid spectrometer.
Sampling: TRANSMISSION
Path length: 0.0025 CM
Resolution: 4
Origin: INFRACORD
MICROMETERS	TRANSMITTANCE
2.518	0.912
2.55349	0.912
2.58899	0.915
2.62448	0.914
2.65998	0.901
2.69547	0.88
2.73097	0.873
2.76646	0.86
2.80196	0.849
2.83745	0.849
2.87294	0.856
2.90844	0.863
2.94393	0.868
2.97943	0.873
3.01492	0.875
3.05042	0.878
3.08591	0.879
3.12141	0.876
3.1569	0.836
3.19239	0.693
3.22789	0.584
3.26338	0.487
3.29888	0.413
3.33437	0.257
3.36987	0.182
3.40536	0.253
3.44086	0.433
3.47635	0.506
3.51184	0.461
3.54734	0.795
3.58283	0.853
3.61833	0.866
3.65382	0.871
3.68932	0.872
3.72481	0.869
3.76031	0.867
3.7958	0.871
3.83129	0.876
3.86679	0.889
3.90228	0.904
3.93778	0.908
3.97327	0.911
4.00877	0.914
4.04426	0.914
4.07976	0.915
4.11525	0.915
4.15074	0.915
4.18624	0.915
4.22173	0.915
4.25723	0.914
4.29272	0.915
4.32822	0.915
4.36371	0.915
4.39921	0.915
4.4347	0.914
4.47019	0.919
4.50569	0.921
4.54118	0.921
4.57668	0.921
4.61217	0.921
4.64767	0.921
4.68316	0.92
4.71866	0.917
4.75415	0.913
4.78964	0.912
4.82514	0.912
4.86063	0.912
4.89613	0.907
4.93162	0.906
4.96712	0.906
5.00261	0.905
5.03811	0.906
5.0736	0.901
5.1091	0.867
5.14459	0.866
5.18008	0.9
5.21558	0.913
5.25107	0.915
5.28657	0.913
5.32206	0.9
5.35756	0.898
5.39305	0.914
5.42855	0.92
5.46404	0.921
5.49953	0.92
5.53503	0.906
5.57052	0.908
5.60602	0.918
5.64151	0.918
5.67701	0.917
5.7125	0.918
5.748	0.918
5.78349	0.918
5.81898	0.918
5.85448	0.918
5.88997	0.919
5.92547	0.923
5.96096	0.924
5.99646	0.925
6.03195	0.924
6.06745	0.924
6.10294	0.919
6.13843	0.905
6.17393	0.892
6.20942	0.794
6.24492	0.689
6.28041	0.792
6.31591	0.814
6.3514	0.869
6.3869	0.886
6.42239	0.9
6.45788	0.9
6.49338	0.9
6.52887	0.9
6.56437	0.9
6.59986	0.899
6.63536	0.881
6.67085	0.576
6.70635	0.362
6.74184	0.684
6.77733	0.687
6.81283	0.55
6.84832	0.476
6.88382	0.4
6.91931	0.314
6.95481	0.418
6.9903	0.461
7.0258	0.655
7.06129	0.773
7.09678	0.818
7.13228	0.83
7.16777	0.827
7.20327	0.74
7.23876	0.56
7.27426	0.431
7.30975	0.323
7.34525	0.293
7.38074	0.325
7.41623	0.634
7.45173	0.757
7.48722	0.777
7.52272	0.779
7.55821	0.784
7.59371	0.79
7.6292	0.805
7.6647	0.813
7.70019	0.802
7.73568	0.786
7.77118	0.792
7.80667	0.81
7.84217	0.828
7.87766	0.84
7.91316	0.841
7.94865	0.842
7.98415	0.833
8.01964	0.772
8.05513	0.697
8.09063	0.6
8.12612	0.532
8.16162	0.467
8.19711	0.485
8.23261	0.533
8.2681	0.506
8.3036	0.422
8.33909	0.398
8.37458	0.363
8.41008	0.25
8.44557	0.237
8.48107	0.282
8.51656	0.336
8.55206	0.396
8.58755	0.489
8.62305	0.51
8.65854	0.495
8.69403	0.468
8.72953	0.468
8.76502	0.409
8.80052	0.292
8.83601	0.142
8.87151	0.033
8.907	0.005
8.9425	0.002
8.97799	0.003
9.01348	0.06
9.04898	0.159
9.08447	0.265
9.11997	0.308
9.15546	0.3
9.19096	0.158
9.22645	0.06
9.26195	0.021
9.29744	0.018
9.33293	0.018
9.36843	0.018
9.40392	0.018
9.43942	0.018
9.47491	0.02
9.51041	0.044
9.5459	0.078
9.5814	0.092
9.61689	0.111
9.65238	0.177
9.68788	0.254
9.72337	0.319
9.75887	0.457
9.79436	0.562
9.82986	0.577
9.86535	0.575
9.90085	0.534
9.93634	0.455
9.97183	0.391
10.0073	0.339
10.0428	0.35
10.0783	0.397
10.1138	0.41
10.1493	0.396
10.1848	0.34
10.2203	0.272
10.2558	0.243
10.2913	0.265
10.3268	0.36
10.3623	0.461
10.3978	0.579
10.4333	0.648
10.4688	0.691
10.5043	0.727
10.5397	0.766
10.5752	0.795
10.6107	0.815
10.6462	0.816
10.6817	0.804
10.7172	0.725
10.7527	0.668
10.7882	0.66
10.8237	0.694
10.8592	0.756
10.8947	0.773
10.9302	0.777
10.9657	0.756
11.0012	0.674
11.0367	0.617
11.0722	0.59
11.1077	0.627
11.1432	0.726
11.1786	0.81
11.2141	0.853
11.2496	0.871
11.2851	0.88
11.3206	0.886
11.3561	0.889
11.3916	0.894
11.4271	0.894
11.4626	0.898
11.4981	0.899
11.5336	0.898
11.5691	0.898
11.6046	0.887
11.6401	0.862
11.6756	0.846
11.7111	0.83
11.7466	0.807
11.7821	0.771
11.8175	0.698
11.853	0.604
11.8885	0.523
11.924	0.45
11.9595	0.431
11.995	0.467
12.0305	0.544
12.066	0.584
12.1015	0.588
12.137	0.579
12.1725	0.573
12.208	0.584
12.2435	0.643
12.279	0.707
12.3145	0.764
12.35	0.795
12.3855	0.822
12.421	0.849
12.4564	0.868
12.4919	0.879
12.5274	0.887
12.5629	0.891
12.5984	0.895
12.6339	0.895
12.6694	0.895
12.7049	0.895
12.7404	0.895
12.7759	0.895
12.8114	0.894
12.8469	0.893
12.8824	0.887
12.9179	0.874
12.9534	0.868
12.9889	0.85
13.0244	0.827
13.0599	0.796
13.0953	0.755
13.1308	0.687
13.1663	0.601
13.2018	0.505
13.2373	0.397
13.2728	0.286
13.3083	0.213
13.3438	0.168
13.3793	0.163
13.4148	0.165
13.4503	0.205
13.4858	0.267
13.5213	0.337
13.5568	0.381
13.5923	0.422
13.6278	0.463
13.6633	0.504
13.6988	0.564
13.7342	0.607
13.7697	0.648
13.8052	0.681
13.8407	0.702
13.8762	0.713
13.9117	0.718
13.9472	0.719
13.9827	0.718
14.0182	0.692
14.0537	0.642
14.0892	0.565
14.1247	0.474
14.1602	0.362
14.1957	0.227
14.2312	0.124
14.2667	0.059
14.3022	0.04
14.3377	0.048
14.3731	0.165
14.4086	0.31
14.4441	0.443
14.4796	0.536
14.5151	0.631
14.5506	0.663
14.5861	0.682
14.6216	0.695
14.6571	0.7
14.6926	0.7
14.7281	0.7
14.7636	0.7
14.7991	0.7
14.8346	0.7
14.8701	0.7
14.9056	0.7
14.9411	0.7
14.9766	0.7
