Infrared Spectrum: BENZENE, 1-BROMO-4-PHENOXY-
Formula: C12 H9 Br O
CAS: 101-55-3
State: SOLUTION (10% IN CCl4 FOR 3800-1300, 10% IN CS2 FOR 1300-650, AND 10% IN CCl4 FOR 650-250 CM^-^1) VERSUS SOLVENT
Class: COBLENTZ III
Instrument: PERKIN-ELMER 521 (GRATING)
Instrument parameters: FILTERS AT 3150, 2500, 2000, 1150, 700, 410; GRATING CHANGES AT 2000, 630 CM^-^1
Sampling: TRANSMISSION
Path length: 0.011, 0.011, AND 0.020 CM (CsBr CELL)
Resolution: 4
Origin: DOW CORNING CORP.
1/CM	TRANSMITTANCE
249.081	0.884
258.034	0.879
266.987	0.867
275.94	0.856
284.892	0.849
293.845	0.848
302.798	0.849
311.751	0.851
320.704	0.851
329.657	0.851
338.61	0.849
347.563	0.844
356.515	0.835
365.468	0.815
374.421	0.787
383.374	0.773
392.327	0.769
401.28	0.745
410.233	0.712
419.186	0.757
428.138	0.795
437.091	0.837
446.044	0.835
454.997	0.816
463.95	0.799
472.903	0.757
481.856	0.595
490.809	0.198
499.761	0.2068
508.714	0.5749
517.667	0.787
526.62	0.834
535.573	0.851
544.526	0.858
553.479	0.86
562.432	0.853
571.384	0.846
580.337	0.832
589.29	0.6631
598.243	0.701
607.196	0.757
616.149	0.7589
625.102	0.797
634.055	0.684
643.007	0.6091
651.96	0.8416
660.913	0.834
669.866	0.846
678.819	0.849
687.772	0.729
696.725	0.572
705.678	0.759
714.63	0.825
723.583	0.849
732.536	0.841
741.489	0.769
750.442	0.422
759.395	0.5578
768.348	0.787
777.301	0.771
786.253	0.727
795.206	0.717
804.159	0.76
813.112	0.729
822.065	0.5463
831.018	0.535
839.971	0.591
848.924	0.7428
857.876	0.799
866.829	0.633
875.782	0.7871
884.735	0.842
893.688	0.813
902.641	0.795
911.594	0.844
920.547	0.867
929.499	0.867
938.452	0.865
947.405	0.86
956.358	0.863
965.311	0.867
974.264	0.865
983.217	0.863
992.17	0.837
1001.12	0.799
1010.08	0.3972
1019.03	0.813
1027.98	0.7799
1036.93	0.837
1045.89	0.821
1054.84	0.804
1063.79	0.731
1072.75	0.418
1081.7	0.795
1090.65	0.773
1099.6	0.771
1108.56	0.842
1117.51	0.865
1126.46	0.867
1135.42	0.86
1144.37	0.832
1153.32	0.76
1162.27	0.448
1171.23	0.788
1180.18	0.788
1189.13	0.757
1198.09	0.631
1207.04	0.708
1215.99	0.631
1224.94	0.3559
1233.9	0.176
1242.85	0.19
1251.8	0.296
1260.76	0.563
1269.71	0.631
1278.66	0.549
1287.61	0.684
1296.57	0.689
1305.52	0.71
1314.47	0.767
1323.43	0.792
1332.38	0.71
1341.33	0.801
1350.28	0.816
1359.24	0.828
1368.19	0.834
1377.14	0.827
1386.1	0.815
1395.05	0.778
1404	0.731
1412.95	0.821
1421.91	0.75
1430.86	0.743
1439.81	0.774
1448.77	0.748
1457.72	0.575
1466.67	0.4179
1475.62	0.0821
1484.58	0.003
1493.53	0.0222
1502.48	0.4743
1511.44	0.633
1520.39	0.717
1529.34	0.757
1538.29	0.755
1547.25	0.745
1556.2	0.732
1565.15	0.692
1574.11	0.4499
1583.06	0.1111
1592.01	0.305
1600.96	0.42
1609.92	0.5891
1618.87	0.7461
1627.82	0.795
1636.78	0.802
1645.73	0.808
1654.68	0.816
1663.64	0.841
1672.59	0.855
1681.54	0.86
1690.49	0.856
1699.45	0.851
1708.4	0.841
1717.35	0.832
1726.31	0.835
1735.26	0.844
1744.21	0.851
1753.16	0.848
1762.12	0.844
1771.07	0.849
1780.02	0.841
1788.98	0.848
1797.93	0.863
1806.88	0.87
1815.83	0.876
1824.79	0.874
1833.74	0.867
1842.69	0.856
1851.65	0.841
1860.6	0.828
1869.55	0.808
1878.5	0.776
1887.46	0.7781
1896.41	0.849
1905.36	0.865
1914.32	0.86
1923.27	0.851
1932.22	0.823
1941.17	0.828
1950.13	0.841
1959.08	0.856
1968.03	0.869
1976.99	0.865
1985.94	0.855
1994.89	0.855
2003.84	0.846
2012.8	0.837
2021.75	0.8275
2030.7	0.828
2039.66	0.839
2048.61	0.86
2057.56	0.8555
2066.51	0.8337
2075.47	0.8446
2084.42	0.87
2093.37	0.872
2102.33	0.876
2111.28	0.876
2120.23	0.876
2129.18	0.8765
2138.14	0.874
2147.09	0.8731
2156.04	0.8741
2165	0.877
2173.95	0.8739
2182.9	0.8751
2191.85	0.877
2200.81	0.879
2209.76	0.876
2218.71	0.8749
2227.67	0.867
2236.62	0.865
2245.57	0.8669
2254.52	0.8624
2263.48	0.862
2272.43	0.8626
2281.38	0.8652
2290.34	0.869
2299.29	0.865
2308.24	0.8624
2317.19	0.8616
2326.15	0.8554
2335.1	0.8562
2344.05	0.86
2353.01	0.8578
2361.96	0.8592
2370.91	0.8598
2379.86	0.8554
2388.82	0.8455
2397.77	0.8331
2406.72	0.8324
2415.68	0.8351
2424.63	0.8125
2433.58	0.8086
2442.54	0.8216
2451.49	0.8384
2460.44	0.8463
2469.39	0.846
2478.35	0.8516
2487.3	0.858
2496.25	0.86
2505.21	0.8593
2514.16	0.862
2523.11	0.862
2532.06	0.8617
2541.02	0.858
2549.97	0.8577
2558.92	0.856
2567.88	0.858
2576.83	0.86
2585.78	0.862
2594.73	0.862
2603.69	0.863
2612.64	0.8644
2621.59	0.863
2630.55	0.8636
2639.5	0.862
2648.45	0.86
2657.4	0.863
2666.36	0.865
2675.31	0.863
2684.26	0.865
2693.22	0.862
2702.17	0.8644
2711.12	0.867
2720.07	0.8623
2729.03	0.862
2737.98	0.862
2746.93	0.8605
2755.89	0.86
2764.84	0.8575
2773.79	0.858
2782.74	0.8565
2791.7	0.856
2800.65	0.856
2809.6	0.8535
2818.56	0.8487
2827.51	0.8445
2836.46	0.8385
2845.41	0.832
2854.37	0.8277
2863.32	0.823
2872.27	0.82
2881.23	0.8245
2890.18	0.828
2899.13	0.828
2908.08	0.83
2917.04	0.8304
2925.99	0.8277
2934.94	0.8214
2943.9	0.8326
2952.85	0.835
2961.8	0.8334
2970.75	0.83
2979.71	0.8286
2988.66	0.8414
2997.61	0.8501
3006.57	0.8396
3015.52	0.8138
3024.47	0.7888
3033.42	0.7354
3042.38	0.6549
3051.33	0.6852
3060.28	0.7349
3069.24	0.6881
3078.19	0.666
3087.14	0.7167
3096.09	0.743
3105.05	0.7852
3114	0.8291
3122.95	0.855
3131.91	0.8617
3140.86	0.862
3149.81	0.863
3158.76	0.863
3167.72	0.865
3176.67	0.867
3185.62	0.869
3194.58	0.87
3203.53	0.872
3212.48	0.874
3221.44	0.876
3230.39	0.8748
3239.34	0.874
3248.29	0.8748
3257.25	0.877
3266.2	0.877
3275.15	0.877
3284.11	0.8764
3293.06	0.8761
3302.01	0.876
3310.96	0.876
3319.92	0.874
3328.87	0.876
3337.82	0.874
3346.78	0.876
3355.73	0.874
3364.68	0.874
3373.63	0.874
3382.59	0.8741
3391.54	0.876
3400.49	0.876
3409.45	0.876
3418.4	0.876
3427.35	0.876
3436.3	0.876
3445.26	0.8765
3454.21	0.879
3463.16	0.876
3472.12	0.877
3481.07	0.8765
3490.02	0.876
3498.97	0.879
3507.93	0.881
3516.88	0.881
3525.83	0.8809
3534.79	0.881
3543.74	0.881
3552.69	0.883
3561.64	0.883
3570.6	0.883
3579.55	0.886
3588.5	0.886
3597.46	0.881
3606.41	0.8845
3615.36	0.884
3624.31	0.885
3633.27	0.886
3642.22	0.884
3651.17	0.881
3660.13	0.883
3669.08	0.883
3678.03	0.8835
3686.98	0.883
3695.94	0.883
3704.89	0.884
3713.84	0.886
3722.8	0.8861
3731.75	0.8891
3740.7	0.89
3749.65	0.891
3758.61	0.891
3767.56	0.8921
3776.51	0.8909
3785.47	0.8869
