Infrared Spectrum: 4,4'-Methylenebis[2-chloroaniline]
Formula: C13 H12 Cl2 N2
CAS: 101-14-4
State: SOLID (SPLIT MULL)
Class: COBLENTZ III
Instrument: DOW KBr FOREPRISM-GRATING
Instrument parameters: BLAZED AT 3.5, 12.0, 20.0 MICRON AND CHANGED AT 5.0, 7.5, 14.9 MICRON
Sampling: TRANSMISSION
Resolution: 2
Origin: DOW CHEMICAL COMPANY
1/CM	TRANSMITTANCE
448	0.7869
457	0.7867
466	0.7792
475	0.7574
484	0.6892
493	0.7017
502	0.4706
511	0.7151
520	0.6734
529	0.6074
538	0.5358
547	0.4078
556	0.2701
565	0.7203
574	0.6606
583	0.5129
592	0.452
601	0.4625
610	0.4947
619	0.4545
628	0.5928
637	0.6212
646	0.6385
655	0.67
664	0.7095
673	0.7138
682	0.503
691	0.7428
700	0.8139
709	0.6711
718	0.5715
727	0.6093
736	0.7518
745	0.7849
754	0.8064
763	0.7948
772	0.5878
781	0.8165
790	0.8498
799	0.8358
808	0.5665
817	0.6266
826	0.5342
835	0.7825
844	0.8481
853	0.8405
862	0.7983
871	0.7355
880	0.7417
889	0.7788
898	0.7874
907	0.7215
916	0.8249
925	0.6724
934	0.8442
943	0.8521
952	0.8831
961	0.8865
970	0.8891
979	0.9003
988	0.9074
997	0.9093
1006	0.9052
1015	0.9006
1024	0.8889
1033	0.8195
1042	0.5974
1051	0.8216
1060	0.843
1069	0.8398
1078	0.8305
1087	0.8114
1096	0.8458
1105	0.8986
1114	0.8983
1123	0.8909
1132	0.879
1141	0.8511
1150	0.6995
1159	0.8528
1168	0.8699
1177	0.8612
1186	0.8477
1195	0.6932
1204	0.8728
1213	0.8833
1222	0.871
1231	0.8456
1240	0.7984
1249	0.7375
1258	0.5655
1267	0.7826
1276	0.7749
1285	0.6939
1294	0.4293
1303	0.4997
1312	0.6017
1321	0.7756
1330	0.8313
1339	0.7376
1348	0.7833
1357	0.8514
1366	0.8716
1375	0.8678
1384	0.8593
1393	0.8544
1402	0.825
1411	0.709
1420	0.8435
1429	0.8316
1438	0.7542
1447	0.8525
1456	0.835
1465	0.7984
1474	0.7428
1483	0.6646
1492	0.4396
1501	0.3357
1510	0.4387
1519	0.9493
1528	0.9631
1537	0.9573
1546	0.9206
1555	0.8817
1564	0.8581
1573	0.8606
1582	0.8304
1591	0.7775
1600	0.7258
1609	0.6297
1618	0.3572
1627	0.7018
1636	0.8901
1645	0.971
1654	0.9963
1663	0.9962
1672	0.991
1681	0.9837
1690	0.9787
1699	0.975
1708	0.9705
1717	0.9606
1726	0.9585
1735	0.9528
1744	0.9435
1753	0.9311
1762	0.9263
1771	0.9223
1780	0.914
1789	0.9125
1798	0.9197
1807	0.9245
1816	0.9231
1825	0.9184
1834	0.9143
1843	0.9104
1852	0.9056
1861	0.9007
1870	0.8938
1879	0.8839
1888	0.8728
1897	0.9005
1906	0.9028
1915	0.9006
1924	0.8968
1933	0.8942
1942	0.8917
1951	0.8884
1960	0.8855
1969	0.8814
1978	0.8787
1987	0.8788
1996	0.8796
2005	0.8838
2014	0.889
2023	0.8871
2032	0.8831
2041	0.8782
2050	0.8744
2059	0.8708
2068	0.8673
2077	0.8633
2086	0.8593
2095	0.8549
2104	0.8503
2113	0.8455
2122	0.8406
2131	0.8359
2140	0.8314
2149	0.8268
2158	0.8224
2167	0.8178
2176	0.8135
2185	0.8092
2194	0.806
2203	0.8032
2212	0.8014
2221	0.7955
2230	0.7862
2239	0.778
2248	0.7715
2257	0.7657
2266	0.7607
2275	0.7557
2284	0.7501
2293	0.7456
2302	0.7417
2311	0.7381
2320	0.7342
2329	0.7308
2338	0.729
2347	0.7287
2356	0.7293
2365	0.7305
2374	0.7317
2383	0.7344
2392	0.7351
2401	0.7347
2410	0.7342
2419	0.7321
2428	0.7301
2437	0.7278
2446	0.7254
2455	0.7246
2464	0.7243
2473	0.7244
2482	0.7235
2491	0.7225
2500	0.7217
2509	0.7208
2518	0.7198
2527	0.7186
2536	0.7175
2545	0.7165
2554	0.7153
2563	0.7139
2572	0.7128
2581	0.7118
2590	0.7104
2599	0.7083
2608	0.7062
2617	0.7042
2626	0.7019
2635	0.6996
2644	0.6972
2653	0.6949
2662	0.6924
2671	0.6899
2680	0.6872
2689	0.6846
2698	0.6815
2707	0.6785
2716	0.6751
2725	0.6717
2734	0.6682
2743	0.6646
2752	0.661
2761	0.6572
2770	0.6539
2779	0.6505
2788	0.6471
2797	0.6437
2806	0.6401
2815	0.6365
2824	0.6323
2833	0.6278
2842	0.6226
2851	0.6173
2860	0.6175
2869	0.6171
2878	0.6148
2887	0.611
2896	0.6053
2905	0.5981
2914	0.5896
2923	0.5814
2932	0.5769
2941	0.5935
2950	0.6016
2959	0.5978
2968	0.5932
2977	0.5889
2986	0.5846
2995	0.5794
3004	0.5717
3013	0.5579
3022	0.5684
3031	0.5643
3040	0.5386
3049	0.5789
3058	0.5849
3067	0.5834
3076	0.5795
3085	0.5751
3094	0.5716
3103	0.5682
3112	0.5646
3121	0.5612
3130	0.5597
3139	0.5562
3148	0.5516
3157	0.5467
3166	0.5415
3175	0.536
3184	0.5321
3193	0.5307
3202	0.53
3211	0.5308
3220	0.5306
3229	0.5294
3238	0.5274
3247	0.5239
3256	0.5194
3265	0.5141
3274	0.5088
3283	0.5041
3292	0.4983
3301	0.4894
3310	0.4779
3319	0.4655
3328	0.4522
3337	0.4359
3346	0.4112
3355	0.3537
3364	0.2969
3373	0.4871
3382	0.5
3391	0.4989
3400	0.4948
3409	0.4827
3418	0.4598
3427	0.4369
3436	0.3866
3445	0.391
3454	0.5036
3463	0.5012
3472	0.5005
3481	0.5041
3490	0.5064
3499	0.5043
3508	0.5018
3517	0.4991
3526	0.4964
3535	0.4931
3544	0.4897
3553	0.4857
3562	0.4818
3571	0.4783
3580	0.4748
3589	0.4719
3598	0.4693
3607	0.4668
3616	0.4642
3625	0.4617
3634	0.4597
3643	0.4576
3652	0.4555
3661	0.4534
3670	0.4516
3679	0.4498
3688	0.4481
3697	0.4462
3706	0.4447
3715	0.4432
3724	0.4417
3733	0.4402
3742	0.439
3751	0.438
3760	0.437
3769	0.4355
3778	0.434
3787	0.4324
