Infrared Spectrum: ISOPROPYL M-CHLORO CARBANILATE
Formula: C10 H12 Cl N O2
CAS: 101-21-3
State: SOLUTION (1% CCl4 FOR 5000-1330, 1% CS2 FOR 1330-625 CM^-^1)
Class: COBLENTZ
Instrument: Not specified, most likely a prism, grating, or hybrid spectrometer.
Sampling: TRANSMISSION
Path length: 0.102 CM, 0.102 CM
Resolution: 4
Origin: DOW CHEMICAL COMPANY
MICROMETERS	TRANSMITTANCE
2.04	0.904
2.08012	0.899
2.12023	0.896
2.16035	0.896
2.20046	0.894
2.24058	0.876
2.28069	0.883
2.32081	0.886
2.36093	0.886
2.40104	0.886
2.44116	0.891
2.48127	0.896
2.52139	0.898
2.56151	0.901
2.60162	0.903
2.64174	0.903
2.68185	0.899
2.72197	0.894
2.76208	0.879
2.8022	0.858
2.84232	0.786
2.88243	0.549
2.92255	0.834
2.96266	0.797
3.00278	0.831
3.0429	0.843
3.08301	0.848
3.12313	0.846
3.16324	0.833
3.20336	0.814
3.24347	0.813
3.28359	0.791
3.32371	0.51
3.36382	0.699
3.40394	0.744
3.44405	0.797
3.48417	0.849
3.52429	0.873
3.5644	0.874
3.60452	0.879
3.64463	0.866
3.68475	0.886
3.72486	0.883
3.76498	0.891
3.8051	0.889
3.84521	0.889
3.88533	0.888
3.92544	0.889
3.96556	0.901
4.00567	0.893
4.04579	0.889
4.08591	0.889
4.12602	0.886
4.16614	0.876
4.20625	0.863
4.24637	0.806
4.28649	0.746
4.3266	0.707
4.36672	0.746
4.40683	0.813
4.44695	0.854
4.48706	0.881
4.52718	0.888
4.5673	0.898
4.60741	0.899
4.64753	0.896
4.68764	0.894
4.72776	0.898
4.76788	0.903
4.80799	0.903
4.84811	0.884
4.88822	0.863
4.92834	0.863
4.96845	0.838
5.00857	0.841
5.04869	0.858
5.0888	0.868
5.12892	0.869
5.16903	0.869
5.20915	0.866
5.24927	0.863
5.28938	0.861
5.3295	0.831
5.36961	0.794
5.40973	0.786
5.44984	0.771
5.48996	0.776
5.53008	0.781
5.57019	0.772
5.61031	0.732
5.65042	0.527
5.69054	0.18
5.73065	0.03
5.77077	0.141
5.81089	0.237
5.851	0.442
5.89112	0.606
5.93123	0.712
5.97135	0.759
6.01147	0.764
6.05158	0.734
6.0917	0.679
6.13181	0.53
6.17193	0.372
6.21204	0.093
6.25216	0.023
6.29228	0.023
6.33239	0.025
6.37251	0.026
6.41262	0.025
6.45274	0.016
6.49286	0.02
6.53297	0.02
6.57309	0.018
6.6132	0.028
6.65332	0.101
6.69343	0.126
6.73355	0.148
6.77367	0.3
6.81378	0.397
6.8539	0.442
6.89401	0.49
6.93413	0.499
6.97425	0.21
7.01436	0.14
7.05448	0.228
7.09459	0.237
7.13471	0.308
7.17482	0.442
7.21494	0.397
7.25506	0.393
7.29517	0.606
7.33529	0.709
7.3754	0.701
7.41552	0.682
7.45564	0.666
7.49575	0.636
7.53587	0.562
7.57598	0.494
7.6161	0.414
7.65621	0.347
7.69633	0.424
7.73645	0.545
7.77656	0.542
7.81668	0.33
7.85679	0.225
7.89691	0.472
7.93702	0.492
7.97714	0.363
8.01726	0.282
8.05737	0.185
8.09749	0.282
8.1376	0.233
8.17772	0.088
8.21784	0.023
8.25795	0.003
8.29807	0.025
8.33818	0.178
8.3783	0.295
8.41841	0.25
8.45853	0.126
8.49865	0.198
8.53876	0.275
8.57888	0.332
8.61899	0.455
8.65911	0.489
8.69923	0.432
8.73934	0.385
8.77946	0.445
8.81957	0.485
8.85969	0.465
8.8998	0.375
8.93992	0.213
8.98004	0.05
9.02015	0.023
9.06027	0.103
9.10038	0.138
9.1405	0.268
9.18062	0.437
9.22073	0.509
9.26085	0.442
9.30096	0.388
9.34108	0.53
9.38119	0.559
9.42131	0.51
9.46143	0.412
9.50154	0.337
9.54166	0.277
9.58177	0.232
9.62189	0.325
9.662	0.472
9.70212	0.584
9.74224	0.647
9.78235	0.706
9.82247	0.737
9.86258	0.754
9.9027	0.761
9.94282	0.759
9.98293	0.749
10.023	0.612
10.0632	0.676
10.1033	0.808
10.1434	0.811
10.1835	0.821
10.2236	0.826
10.2637	0.829
10.3039	0.819
10.344	0.811
10.3841	0.823
10.4242	0.823
10.4643	0.818
10.5044	0.816
10.5446	0.804
10.5847	0.767
10.6248	0.712
10.6649	0.652
10.705	0.585
10.7451	0.564
10.7852	0.564
10.8254	0.577
10.8655	0.642
10.9056	0.682
10.9457	0.689
10.9858	0.629
11.0259	0.459
11.0661	0.258
11.1062	0.322
11.1463	0.372
11.1864	0.297
11.2265	0.275
11.2666	0.318
11.3068	0.302
11.3469	0.208
11.387	0.148
11.4271	0.141
11.4672	0.15
11.5073	0.15
11.5474	0.138
11.5876	0.123
11.6277	0.108
11.6678	0.085
11.7079	0.08
11.748	0.07
11.7881	0.068
11.8283	0.163
11.8684	0.262
11.9085	0.345
11.9486	0.387
11.9887	0.38
12.0288	0.308
12.069	0.3
12.1091	0.373
12.1492	0.474
12.1893	0.55
12.2294	0.595
12.2695	0.616
12.3096	0.624
12.3498	0.627
12.3899	0.629
12.43	0.636
12.4701	0.637
12.5102	0.636
12.5503	0.626
12.5905	0.612
12.6306	0.599
12.6707	0.582
12.7108	0.555
12.7509	0.514
12.791	0.449
12.8312	0.28
12.8713	0.153
12.9114	0.093
12.9515	0.095
12.9916	0.1
13.0317	0.088
13.0718	0.088
13.112	0.17
13.1521	0.292
13.1922	0.395
13.2323	0.48
13.2724	0.542
13.3125	0.589
13.3527	0.616
13.3928	0.626
13.4329	0.641
13.473	0.644
13.5131	0.647
13.5532	0.651
13.5934	0.649
13.6335	0.647
13.6736	0.639
13.7137	0.626
13.7538	0.616
13.7939	0.611
13.834	0.602
13.8742	0.597
13.9143	0.589
13.9544	0.575
13.9945	0.567
14.0346	0.564
14.0747	0.562
14.1149	0.56
14.155	0.552
14.1951	0.539
14.2352	0.514
14.2753	0.48
14.3154	0.439
14.3556	0.395
14.3957	0.358
14.4358	0.348
14.4759	0.347
14.516	0.34
14.5561	0.323
14.5963	0.298
14.6364	0.26
14.6765	0.2
14.7166	0.16
14.7567	0.14
14.7968	0.166
14.8369	0.243
14.8771	0.297
14.9172	0.327
14.9573	0.342
14.9974	0.347
15.0375	0.348
15.0776	0.343
15.1178	0.32
15.1579	0.295
15.198	0.288
15.2381	0.268
15.2782	0.253
15.3183	0.243
15.3585	0.242
15.3986	0.238
15.4387	0.235
15.4788	0.237
15.5189	0.238
15.559	0.245
15.5991	0.252
15.6393	0.258
15.6794	0.265
15.7195	0.272
15.7596	0.273
15.7997	0.277
15.8398	0.278
15.88	0.278
