Infrared Spectrum: p-Phenylenediamine, N-isopropyl-N'-phenyl-
Formula: C15 H18 N2
CAS: 101-72-4
State: SOLUTION (1% CCl4 FOR 3800-1330, 1% CS2 FOR 1330-400 CM^-^1)
Melting point: 72 C
Class: COBLENTZ III
Instrument: BECKMAN IR-9 (GRATING)
Instrument parameters: ORDER CHANGES: 670, 1200, 2000 CM^-^1
Path length: 0.102 CM, 0.103 CM
Resolution: 2
Origin: DOW CHEMICAL COMPANY
1/CM	TRANSMITTANCE
402	0.1115
411	0.043
420	0.0217
429	0.119
438	0.2414
447	0.3438
456	0.3999
465	0.435
474	0.4618
483	0.4805
492	0.4757
501	0.4192
510	0.4344
519	0.461
528	0.6287
537	0.6658
546	0.6769
555	0.6838
564	0.6908
573	0.7008
582	0.6916
591	0.6799
600	0.6773
609	0.6597
618	0.5978
627	0.5848
636	0.5314
645	0.4436
654	0.3509
663	0.3934
672	0.517
681	0.5769
690	0.1542
699	0.4767
708	0.6197
717	0.6263
726	0.6608
735	0.632
744	0.0204
753	0.4834
762	0.6843
771	0.7305
780	0.689
789	0.5421
798	0.4281
807	0.4006
816	0.3106
825	0.3758
834	0.4368
843	0.2274
852	0.0761
861	0.1055
870	0.1578
879	0.2293
888	0.4439
897	0.6295
906	0.7817
915	0.8205
924	0.8152
933	0.8444
942	0.8279
951	0.845
960	0.8625
969	0.8547
978	0.8367
987	0.8227
996	0.7011
1005	0.8703
1014	0.8706
1023	0.8562
1032	0.7034
1041	0.8471
1050	0.8521
1059	0.8664
1068	0.8688
1077	0.7796
1086	0.8416
1095	0.8504
1104	0.7491
1113	0.6435
1122	0.6071
1131	0.6609
1140	0.7308
1149	0.5952
1158	0.5491
1167	0.4176
1176	0.1826
1185	0.4762
1194	0.6842
1203	0.7537
1212	0.7445
1221	0.6491
1230	0.48
1239	0.3532
1248	0.2962
1257	0.1191
1266	0.405
1275	0.4589
1284	0.3036
1293	0.1232
1302	0.0348
1311	0.0692
1320	0.2361
1329	0.4051
1338	0.4174
1347	0.5491
1356	0.6419
1365	0.4635
1374	0.6237
1383	0.2957
1392	0.5955
1401	0.4884
1410	0.6027
1419	0.6069
1428	0.5063
1437	0.5169
1446	0.5511
1455	0.4823
1464	0.36
1473	0.3263
1482	0.2659
1491	0.044
1500	0.0001
1509	0
1518	0
1527	0
1536	0
1545	0
1554	0
1563	0
1572	0
1581	0
1590	0
1599	0
1608	0.0736
1617	0.1369
1626	0.3882
1635	0.5467
1644	0.6469
1653	0.699
1662	0.7281
1671	0.7485
1680	0.7638
1689	0.7705
1698	0.7762
1707	0.7821
1716	0.7914
1725	0.7905
1734	0.8126
1743	0.8147
1752	0.8154
1761	0.8181
1770	0.8146
1779	0.813
1788	0.8157
1797	0.817
1806	0.8108
1815	0.7952
1824	0.7762
1833	0.762
1842	0.751
1851	0.743
1860	0.7419
1869	0.7439
1878	0.7601
1887	0.7878
1896	0.8042
1905	0.8108
1914	0.8044
1923	0.7931
1932	0.8068
1941	0.8113
1950	0.8226
1959	0.8223
1968	0.8171
1977	0.8119
1986	0.8057
1995	0.794
2004	0.7836
2013	0.7867
2022	0.7937
2031	0.807
2040	0.8176
2049	0.8224
2058	0.8312
2067	0.8387
2076	0.8452
2085	0.8486
2094	0.8495
2103	0.8495
2112	0.8504
2121	0.8521
2130	0.8543
2139	0.8553
2148	0.8569
2157	0.8592
2166	0.8628
2175	0.8649
2184	0.8646
2193	0.8642
2202	0.8617
2211	0.8572
2220	0.8514
2229	0.8436
2238	0.8336
2247	0.8218
2256	0.7987
2265	0.7731
2274	0.7478
2283	0.708
2292	0.6673
2301	0.6664
2310	0.6764
2319	0.6918
2328	0.7082
2337	0.7242
2346	0.7389
2355	0.7569
2364	0.7771
2373	0.7968
2382	0.8128
2391	0.8248
2400	0.8346
2409	0.8428
2418	0.8481
2427	0.8522
2436	0.8546
2445	0.8553
2454	0.8544
2463	0.8517
2472	0.8474
2481	0.8443
2490	0.8439
2499	0.845
2508	0.8442
2517	0.8403
2526	0.835
2535	0.829
2544	0.8224
2553	0.8182
2562	0.8166
2571	0.8187
2580	0.8242
2589	0.8285
2598	0.8315
2607	0.8316
2616	0.829
2625	0.8245
2634	0.8231
2643	0.8281
2652	0.8314
2661	0.8337
2670	0.8355
2679	0.8358
2688	0.8348
2697	0.8315
2706	0.8244
2715	0.8159
2724	0.8105
2733	0.8098
2742	0.8118
2751	0.8141
2760	0.8163
2769	0.8181
2778	0.8176
2787	0.8128
2796	0.8055
2805	0.7952
2814	0.7839
2823	0.7801
2832	0.7798
2841	0.7621
2850	0.7228
2859	0.6526
2868	0.5363
2877	0.5526
2886	0.6176
2895	0.6201
2904	0.608
2913	0.5729
2922	0.5279
2931	0.4517
2940	0.4957
2949	0.5525
2958	0.354
2967	0.2142
2976	0.2294
2985	0.4062
2994	0.6131
3003	0.6317
3012	0.5969
3021	0.4884
3030	0.4651
3039	0.5404
3048	0.4935
3057	0.4814
3066	0.6135
3075	0.659
3084	0.6821
3093	0.6836
3102	0.6993
3111	0.7637
3120	0.7937
3129	0.8131
3138	0.8217
3147	0.828
3156	0.8325
3165	0.8356
3174	0.835
3183	0.83
3192	0.827
3201	0.8271
3210	0.8286
3219	0.8301
3228	0.8323
3237	0.8321
3246	0.833
3255	0.8343
3264	0.8359
3273	0.8362
3282	0.8358
3291	0.8353
3300	0.8345
3309	0.8327
3318	0.8292
3327	0.8256
3336	0.8218
3345	0.8175
3354	0.809
3363	0.7959
3372	0.7752
3381	0.7441
3390	0.7039
3399	0.653
3408	0.5685
3417	0.493
3426	0.4652
3435	0.5287
3444	0.6594
3453	0.7299
3462	0.7698
3471	0.7883
3480	0.8017
3489	0.8127
3498	0.822
3507	0.8286
3516	0.8337
3525	0.8383
3534	0.8427
3543	0.8444
3552	0.8453
3561	0.8466
3570	0.8481
3579	0.8495
3588	0.8497
3597	0.8495
3606	0.8493
3615	0.8491
3624	0.8489
3633	0.8484
3642	0.848
3651	0.8475
3660	0.8474
3669	0.8473
3678	0.8472
3687	0.847
3696	0.8468
3705	0.8465
3714	0.8465
3723	0.847
3732	0.8475
3741	0.8481
3750	0.8488
3759	0.8495
3768	0.8502
3777	0.8506
3786	0.8507
3795	0.8508
