Infrared Spectrum: Diphenylamine, 4,4'-dioctyl-
Formula: C28 H43 N
CAS: 101-67-7
State: SOLID (SPLIT MULL)
Class: COBLENTZ III
Instrument: PERKIN-ELMER 521 (GRATING)
Instrument parameters: FILTERS AT 3150, 2500, 2000, 1150, 700, 410. GRATING CHANGES: 2000, 630
Resolution: 2
Origin: DOW CORNING CORP.
1/CM	TRANSMITTANCE
242	0.8488
251	0.8609
260	0.8815
269	0.8891
278	0.8954
287	0.9034
296	0.9031
305	0.9231
314	0.9197
323	0.9272
332	0.9215
341	0.9106
350	0.9025
359	0.9003
368	0.8864
377	0.8607
386	0.8508
395	0.8413
404	0.8553
413	0.8441
422	0.8761
431	0.8936
440	0.8987
449	0.9047
458	0.9125
467	0.919
476	0.9229
485	0.9251
494	0.9242
503	0.9154
512	0.8714
521	0.8503
530	0.9051
539	0.9151
548	0.8988
557	0.8554
566	0.9051
575	0.8986
584	0.8653
593	0.8265
602	0.9103
611	0.9102
620	0.8731
629	0.8686
638	0.8717
647	0.8879
656	0.8885
665	0.8901
674	0.8884
683	0.8801
692	0.8716
701	0.8669
710	0.8617
719	0.8391
728	0.7695
737	0.8289
746	0.8455
755	0.8601
764	0.866
773	0.8669
782	0.8663
791	0.8644
800	0.8529
809	0.7338
818	0.5315
827	0.5734
836	0.7439
845	0.8346
854	0.8514
863	0.8575
872	0.8503
881	0.8303
890	0.8245
899	0.8473
908	0.838
917	0.8232
926	0.835
935	0.8284
944	0.8399
953	0.8365
962	0.8328
971	0.8184
980	0.8193
989	0.8412
998	0.8366
1007	0.8157
1016	0.8258
1025	0.8334
1034	0.8343
1043	0.8361
1052	0.8372
1061	0.8387
1070	0.8364
1079	0.8303
1088	0.8098
1097	0.7587
1106	0.8186
1115	0.819
1124	0.8076
1133	0.7855
1142	0.7963
1151	0.8026
1160	0.7973
1169	0.7962
1178	0.7862
1187	0.65
1196	0.6811
1205	0.7612
1214	0.7881
1223	0.7641
1232	0.7123
1241	0.6078
1250	0.6686
1259	0.7361
1268	0.7815
1277	0.7702
1286	0.7481
1295	0.7153
1304	0.6887
1313	0.6218
1322	0.4119
1331	0.1822
1340	0.3725
1349	0.6607
1358	0.4711
1367	0.358
1376	0.7737
1385	0.6555
1394	0.5975
1403	0.7995
1412	0.784
1421	0.7581
1430	0.7839
1439	0.7214
1448	0.6376
1457	0.5996
1466	0.4793
1475	0.5858
1484	0.6876
1493	0.6476
1502	0.4296
1511	0.1276
1520	0.0408
1529	0.2832
1538	0.7177
1547	0.8176
1556	0.8498
1565	0.8391
1574	0.7775
1583	0.7741
1592	0.6697
1601	0.3846
1610	0.1976
1619	0.7726
1628	0.8563
1637	0.8837
1646	0.8915
1655	0.9181
1664	0.925
1673	0.928
1682	0.9285
1691	0.9296
1700	0.9339
1709	0.9283
1718	0.9323
1727	0.9333
1736	0.9306
1745	0.9284
1754	0.9278
1763	0.9275
1772	0.9286
1781	0.9348
1790	0.9367
1799	0.9403
1808	0.9446
1817	0.9464
1826	0.9468
1835	0.9456
1844	0.9417
1853	0.9367
1862	0.9318
1871	0.9264
1880	0.9178
1889	0.9204
1898	0.9283
1907	0.9394
1916	0.9454
1925	0.9463
1934	0.9465
1943	0.9468
1952	0.9451
1961	0.9454
1970	0.9447
1979	0.9452
1988	0.9459
1997	0.9464
2006	0.9459
2015	0.9456
2024	0.9451
2033	0.9443
2042	0.9419
2051	0.9378
2060	0.9337
2069	0.9293
2078	0.9249
2087	0.9205
2096	0.9162
2105	0.9128
2114	0.9109
2123	0.9109
2132	0.9115
2141	0.9092
2150	0.9028
2159	0.8957
2168	0.8903
2177	0.8877
2186	0.8886
2195	0.89
2204	0.8887
2213	0.8836
2222	0.875
2231	0.8662
2240	0.861
2249	0.8565
2258	0.8533
2267	0.8507
2276	0.8491
2285	0.8476
2294	0.8461
2303	0.8447
2312	0.847
2321	0.8515
2330	0.8552
2339	0.8581
2348	0.8603
2357	0.8615
2366	0.8623
2375	0.8615
2384	0.8606
2393	0.8597
2402	0.8621
2411	0.8661
2420	0.8711
2429	0.8744
2438	0.875
2447	0.8752
2456	0.8751
2465	0.8749
2474	0.8749
2483	0.8751
2492	0.8737
2501	0.8715
2510	0.8692
2519	0.8665
2528	0.8638
2537	0.862
2546	0.8611
2555	0.8601
2564	0.8614
2573	0.8665
2582	0.8695
2591	0.8691
2600	0.8679
2609	0.8654
2618	0.8621
2627	0.8587
2636	0.8556
2645	0.8526
2654	0.8497
2663	0.8454
2672	0.8422
2681	0.8419
2690	0.8355
2699	0.826
2708	0.8216
2717	0.8194
2726	0.8207
2735	0.8175
2744	0.8145
2753	0.8134
2762	0.8105
2771	0.8056
2780	0.7941
2789	0.7875
2798	0.7756
2807	0.7556
2816	0.737
2825	0.7165
2834	0.6612
2843	0.6453
2852	0.5788
2861	0.4804
2870	0.382
2879	0.3574
2888	0.3599
2897	0.3214
2906	0.2862
2915	0.3255
2924	0.3559
2933	0.3188
2942	0.2682
2951	0.1743
2960	0.124
2969	0.1929
2978	0.2271
2987	0.37
2996	0.5503
3005	0.6053
3014	0.6632
3023	0.6592
3032	0.7264
3041	0.7558
3050	0.7106
3059	0.7104
3068	0.7717
3077	0.7934
3086	0.7968
3095	0.7946
3104	0.7975
3113	0.8009
3122	0.7991
3131	0.7954
3140	0.795
3149	0.794
3158	0.7929
3167	0.7913
3176	0.7897
3185	0.7876
3194	0.7856
3203	0.784
3212	0.7826
3221	0.7811
3230	0.7804
3239	0.7796
3248	0.7789
3257	0.7781
3266	0.7773
3275	0.7765
3284	0.7757
3293	0.773
3302	0.7701
3311	0.7671
3320	0.7629
3329	0.7575
3338	0.7521
3347	0.7465
3356	0.7407
3365	0.7349
3374	0.7279
3383	0.7207
3392	0.7128
3401	0.7025
3410	0.6453
3419	0.5268
3428	0.4517
3437	0.6972
3446	0.722
3455	0.7355
3464	0.7438
3473	0.7458
3482	0.7468
3491	0.7476
3500	0.7484
3509	0.7491
3518	0.7494
3527	0.7496
3536	0.7499
3545	0.7491
3554	0.7484
3563	0.7476
3572	0.7469
3581	0.7463
3590	0.7459
3599	0.7454
3608	0.745
3617	0.7445
3626	0.7433
3635	0.742
3644	0.7407
3653	0.7385
3662	0.7352
3671	0.735
3680	0.7343
3689	0.733
3698	0.7317
3707	0.7303
3716	0.7281
3725	0.7256
3734	0.7225
3743	0.7185
3752	0.714
3761	0.7132
3770	0.7212
3779	0.7209
3788	0.7179
3797	0.7129
3806	0.7095
