Infrared Spectrum: CARBANILIC ACID, ETHYL ESTER
Formula: C9 H11 N O2
CAS: 101-99-5
State: SOLID (2 mg / 100 mg KBr)
Melting point: 50-51 C
Class: COBLENTZ
Instrument: Not specified, most likely a grating spectrometer.
Sampling: TRANSMISSION
Resolution: 4
Origin: CITRUS EXPERIMENT STATION, UNIVERSITY OF FLORIDA (G. EDWARDS)
MICROMETERS	TRANSMITTANCE
2.026	0.515
2.05911	0.519
2.09223	0.523
2.12534	0.528
2.15846	0.531
2.19157	0.532
2.22469	0.539
2.2578	0.54
2.29092	0.544
2.32403	0.55
2.35715	0.559
2.39026	0.562
2.42338	0.567
2.45649	0.574
2.48961	0.578
2.52272	0.584
2.55584	0.591
2.58895	0.598
2.62207	0.602
2.65518	0.602
2.68829	0.602
2.72141	0.604
2.75452	0.614
2.78764	0.618
2.82075	0.62
2.85387	0.622
2.88698	0.618
2.9201	0.604
2.95321	0.562
2.98633	0.451
3.01944	0.242
3.05256	0.44
3.08567	0.58
3.11879	0.592
3.1519	0.62
3.18502	0.6
3.21813	0.63
3.25125	0.607
3.28436	0.608
3.31747	0.602
3.35059	0.555
3.3837	0.602
3.41682	0.615
3.44993	0.652
3.48305	0.668
3.51616	0.69
3.54928	0.698
3.58239	0.688
3.61551	0.7
3.64862	0.704
3.68174	0.712
3.71485	0.712
3.74797	0.719
3.78108	0.723
3.8142	0.728
3.84731	0.735
3.88043	0.738
3.91354	0.734
3.94665	0.74
3.97977	0.743
4.01288	0.743
4.046	0.746
4.07911	0.75
4.11223	0.742
4.14534	0.758
4.17846	0.758
4.21157	0.761
4.24469	0.77
4.2778	0.771
4.31092	0.774
4.34403	0.773
4.37715	0.775
4.41026	0.779
4.44338	0.779
4.47649	0.775
4.50961	0.786
4.54272	0.79
4.57583	0.793
4.60895	0.791
4.64206	0.791
4.67518	0.795
4.70829	0.797
4.74141	0.797
4.77452	0.799
4.80764	0.798
4.84075	0.798
4.87387	0.801
4.90698	0.806
4.9401	0.807
4.97321	0.805
5.00633	0.803
5.03944	0.801
5.07256	0.797
5.10567	0.791
5.13879	0.799
5.1719	0.806
5.20501	0.81
5.23813	0.807
5.27124	0.801
5.30436	0.795
5.33747	0.797
5.37059	0.797
5.4037	0.795
5.43682	0.791
5.46993	0.787
5.50305	0.782
5.53616	0.773
5.56928	0.767
5.60239	0.758
5.63551	0.742
5.66862	0.728
5.70174	0.631
5.73485	0.531
5.76797	0.397
5.80108	0.292
5.83419	0.186
5.86731	0.192
5.90042	0.316
5.93354	0.515
5.96665	0.591
5.99977	0.63
6.03288	0.671
6.066	0.708
6.09911	0.719
6.13223	0.714
6.16534	0.636
6.19846	0.519
6.23157	0.371
6.26469	0.343
6.2978	0.624
6.33092	0.732
6.36403	0.69
6.39715	0.543
6.43026	0.391
6.46337	0.267
6.49649	0.256
6.5296	0.364
6.56272	0.524
6.59583	0.528
6.62895	0.415
6.66206	0.523
6.69518	0.582
6.72829	0.627
6.76141	0.683
6.79452	0.716
6.82764	0.676
6.86075	0.546
6.89387	0.423
6.92698	0.283
6.9601	0.552
6.99321	0.674
7.02633	0.726
7.05944	0.754
7.09255	0.755
7.12567	0.747
7.15878	0.719
7.1919	0.722
7.22501	0.74
7.25813	0.743
7.29124	0.712
7.32436	0.735
7.35747	0.774
7.39059	0.77
7.4237	0.747
7.45682	0.711
7.48993	0.668
7.52305	0.55
7.55616	0.425
7.58928	0.349
7.62239	0.476
7.65551	0.522
7.68862	0.492
7.72173	0.638
7.75485	0.71
7.78796	0.728
7.82108	0.71
7.85419	0.695
7.88731	0.671
7.92042	0.626
7.95354	0.562
7.98665	0.479
8.01977	0.305
8.05288	0.15
8.086	0.102
8.11911	0.118
8.15223	0.198
8.18534	0.296
8.21846	0.391
8.25157	0.468
8.28469	0.575
8.3178	0.639
8.35091	0.687
8.38403	0.72
8.41714	0.736
8.45026	0.712
8.48337	0.719
8.51649	0.732
8.5496	0.74
8.58272	0.734
8.61583	0.744
8.64895	0.787
8.68206	0.811
8.71518	0.823
8.74829	0.835
8.78141	0.843
8.81452	0.851
8.84764	0.851
8.88075	0.839
8.91387	0.833
8.94698	0.817
8.98009	0.801
9.01321	0.797
9.04632	0.799
9.07944	0.778
9.11255	0.74
9.14567	0.699
9.17878	0.696
9.2119	0.66
9.24501	0.643
9.27813	0.688
9.31124	0.648
9.34436	0.535
9.37747	0.372
9.41059	0.299
9.4437	0.311
9.47682	0.388
9.50993	0.535
9.54305	0.611
9.57616	0.706
9.60927	0.753
9.64239	0.774
9.6755	0.734
9.70862	0.582
9.74173	0.634
9.77485	0.731
9.80796	0.755
9.84108	0.783
9.87419	0.815
9.90731	0.827
9.94042	0.833
9.97354	0.839
10.0067	0.835
10.0398	0.834
10.0729	0.854
10.106	0.867
10.1391	0.873
10.1722	0.877
10.2053	0.881
10.2385	0.883
10.2716	0.881
10.3047	0.873
10.3378	0.875
10.3709	0.899
10.404	0.91
10.4371	0.909
10.4703	0.913
10.5034	0.909
10.5365	0.913
10.5696	0.914
10.6027	0.915
10.6358	0.918
10.6689	0.918
10.7021	0.919
10.7352	0.921
10.7683	0.915
10.8014	0.911
10.8345	0.897
10.8676	0.883
10.9007	0.842
10.9339	0.854
10.967	0.867
11.0001	0.881
11.0332	0.871
11.0663	0.853
11.0994	0.835
11.1326	0.85
11.1657	0.867
11.1988	0.895
11.2319	0.91
11.265	0.918
11.2981	0.919
11.3312	0.921
11.3644	0.923
11.3975	0.925
11.4306	0.925
11.4637	0.925
11.4968	0.925
11.5299	0.925
11.563	0.925
11.5962	0.925
11.6293	0.925
11.6624	0.925
11.6955	0.926
11.7286	0.926
11.7617	0.925
11.7948	0.923
11.828	0.922
11.8611	0.921
11.8942	0.919
11.9273	0.913
11.9604	0.901
11.9935	0.875
12.0267	0.846
12.0598	0.822
12.0929	0.822
12.126	0.837
12.1591	0.843
12.1922	0.85
12.2253	0.857
12.2585	0.87
12.2916	0.882
12.3247	0.897
12.3578	0.906
12.3909	0.914
12.424	0.917
12.4571	0.919
12.4903	0.918
12.5234	0.914
12.5565	0.917
12.5896	0.913
12.6227	0.906
12.6558	0.894
12.6889	0.89
12.7221	0.881
12.7552	0.873
12.7883	0.854
12.8214	0.826
12.8545	0.785
12.8876	0.7
12.9207	0.595
12.9539	0.566
12.987	0.62
13.0201	0.68
13.0532	0.711
13.0863	0.71
13.1194	0.682
13.1526	0.647
13.1857	0.615
13.2188	0.587
13.2519	0.558
13.285	0.546
13.3181	0.539
13.3512	0.535
13.3844	0.536
13.4175	0.546
13.4506	0.568
13.4837	0.594
13.5168	0.626
13.5499	0.658
13.583	0.683
13.6162	0.696
13.6493	0.71
13.6824	0.72
13.7155	0.727
13.7486	0.734
13.7817	0.742
13.8148	0.75
13.848	0.758
13.8811	0.761
13.9142	0.771
13.9473	0.782
13.9804	0.785
14.0135	0.786
14.0466	0.789
14.0798	0.794
14.1129	0.782
14.146	0.779
14.1791	0.761
14.2122	0.738
14.2453	0.727
14.2785	0.7
14.3116	0.642
14.3447	0.626
14.3778	0.59
14.4109	0.578
14.444	0.579
14.4771	0.59
14.5103	0.615
14.5434	0.656
14.5765	0.699
14.6096	0.728
14.6427	0.743
14.6758	0.738
14.7089	0.742
14.7421	0.742
14.7752	0.739
14.8083	0.738
14.8414	0.734
14.8745	0.734
14.9076	0.731
14.9407	0.738
14.9739	0.765
15.007	0.773
