Infrared Spectrum: DIPHENYL METHANE
Formula: C13 H12
CAS: 101-81-5
State: SOLUTION (10% IN CCl4 FOR 3800-1300, 2% IN CS2 FOR 1300-650, AND 10% IN CCl4 FOR 650-250 CM^-^1) VERSUS SOLVENT
Class: COBLENTZ
Instrument: Not specified, most likely a grating or hybrid spectrometer.
Sampling: TRANSMISSION
Path length: 0.011, 0.011 CM (NaCl CELL), AND 0.010 CM (CsBr CELL)
Resolution: 4
Origin: DOW CORNING CORP.
1/CM	TRANSMITTANCE
250.36	0.906
259.313	0.909
268.266	0.908
277.219	0.897
286.171	0.904
295.124	0.908
304.077	0.906
313.03	0.902
321.983	0.899
330.936	0.899
339.889	0.911
348.842	0.918
357.794	0.92
366.747	0.923
375.7	0.928
384.653	0.935
393.606	0.923
402.559	0.925
411.512	0.927
420.465	0.928
429.417	0.92
438.37	0.909
447.323	0.845
456.276	0.656
465.229	0.5841
474.182	0.833
483.135	0.871
492.088	0.894
501.04	0.896
509.993	0.896
518.946	0.894
527.899	0.89
536.852	0.883
545.805	0.842
554.758	0.7584
563.71	0.896
572.663	0.899
581.616	0.892
590.569	0.861
599.522	0.708
608.475	0.5061
617.428	0.767
626.381	0.826
635.333	0.83
644.286	0.83
653.239	0.826
662.192	0.798
671.145	0.798
680.098	0.807
689.051	0.734
698.004	0.3291
706.956	0.7079
715.909	0.71
724.862	0.506
733.815	0.389
742.768	0.7097
751.721	0.811
760.674	0.83
769.627	0.835
778.579	0.835
787.532	0.833
796.485	0.831
805.438	0.83
814.391	0.83
823.344	0.835
832.297	0.835
841.249	0.835
850.202	0.837
859.155	0.835
868.108	0.833
877.061	0.833
886.014	0.828
894.967	0.828
903.92	0.824
912.872	0.826
921.825	0.828
930.778	0.826
939.731	0.833
948.684	0.833
957.637	0.833
966.59	0.833
975.543	0.826
984.495	0.826
993.448	0.826
1002.4	0.818
1011.35	0.804
1020.31	0.786
1029.26	0.648
1038.21	0.814
1047.17	0.818
1056.12	0.802
1065.07	0.771
1074.02	0.731
1082.98	0.809
1091.93	0.809
1100.88	0.811
1109.84	0.819
1118.79	0.814
1127.74	0.811
1136.69	0.812
1145.65	0.797
1154.6	0.8
1163.55	0.802
1172.51	0.798
1181.46	0.819
1190.41	0.821
1199.36	0.826
1208.32	0.833
1217.27	0.835
1226.22	0.837
1235.18	0.838
1244.13	0.842
1253.08	0.845
1262.03	0.849
1270.99	0.85
1279.94	0.852
1288.89	0.856
1297.85	0.859
1306.8	0.856
1315.75	0.823
1324.7	0.826
1333.66	0.828
1342.61	0.863
1351.56	0.868
1360.52	0.868
1369.47	0.854
1378.42	0.833
1387.37	0.859
1396.33	0.864
1405.28	0.863
1414.23	0.85
1423.19	0.771
1432.14	0.611
1441.09	0.6228
1450.04	0.2231
1459	0.781
1467.95	0.823
1476.9	0.778
1485.86	0.459
1494.81	0.1752
1503.76	0.819
1512.71	0.852
1521.67	0.856
1530.62	0.837
1539.57	0.844
1548.53	0.835
1557.48	0.842
1566.43	0.812
1575.38	0.766
1584.34	0.762
1593.29	0.6025
1602.24	0.564
1611.2	0.795
1620.15	0.845
1629.1	0.852
1638.06	0.85
1647.01	0.838
1655.96	0.845
1664.91	0.859
1673.87	0.861
1682.82	0.863
1691.77	0.861
1700.73	0.859
1709.68	0.857
1718.63	0.856
1727.58	0.852
1736.54	0.85
1745.49	0.837
1754.44	0.833
1763.4	0.837
1772.35	0.833
1781.3	0.838
1790.25	0.821
1799.21	0.759
1808.16	0.833
1817.11	0.842
1826.07	0.859
1835.02	0.852
1843.97	0.838
1852.92	0.833
1861.88	0.831
1870.83	0.823
1879.78	0.831
1888.74	0.835
1897.69	0.845
1906.64	0.859
1915.59	0.857
1924.55	0.847
1933.5	0.792
1942.45	0.772
1951.41	0.811
1960.36	0.84
1969.31	0.87
1978.26	0.863
1987.22	0.876
1996.17	0.871
2005.12	0.871
2014.08	0.878
2023.03	0.88
2031.98	0.88
2040.93	0.878
2049.89	0.878
2058.84	0.876
2067.79	0.876
2076.75	0.876
2085.7	0.875
2094.65	0.8731
2103.6	0.873
2112.56	0.873
2121.51	0.873
2130.46	0.873
2139.42	0.8741
2148.37	0.873
2157.32	0.871
2166.27	0.87
2175.23	0.8706
2184.18	0.871
2193.13	0.873
2202.09	0.8731
2211.04	0.871
2219.99	0.873
2228.94	0.8722
2237.9	0.8701
2246.85	0.8672
2255.8	0.864
2264.76	0.866
2273.71	0.868
2282.66	0.8672
2291.61	0.8642
2300.57	0.8582
2309.52	0.856
2318.47	0.854
2327.43	0.856
2336.38	0.8578
2345.33	0.859
2354.28	0.859
2363.24	0.8608
2372.19	0.8648
2381.14	0.8643
2390.1	0.864
2399.05	0.866
2408	0.8621
2416.95	0.866
2425.91	0.864
2434.86	0.866
2443.81	0.864
2452.77	0.863
2461.72	0.8636
2470.67	0.861
2479.62	0.8617
2488.58	0.864
2497.53	0.863
2506.48	0.8593
2515.44	0.861
2524.39	0.861
2533.34	0.863
2542.29	0.861
2551.25	0.863
2560.2	0.8632
2569.15	0.861
2578.11	0.8574
2587.06	0.859
2596.01	0.8544
2604.97	0.8563
2613.92	0.8586
2622.87	0.857
2631.82	0.856
2640.78	0.863
2649.73	0.8638
2658.68	0.864
2667.64	0.8632
2676.59	0.864
2685.54	0.866
2694.49	0.863
2703.45	0.866
2712.4	0.863
2721.35	0.863
2730.31	0.8605
2739.26	0.859
2748.21	0.856
2757.16	0.856
2766.12	0.8535
2775.07	0.852
2784.02	0.852
2792.98	0.854
2801.93	0.854
2810.88	0.8478
2819.83	0.833
2828.79	0.8009
2837.74	0.7429
2846.69	0.731
2855.65	0.7873
2864.6	0.814
2873.55	0.7978
2882.5	0.7659
2891.46	0.7275
2900.41	0.6412
2909.36	0.585
2918.32	0.5992
2927.27	0.648
2936.22	0.7228
2945.17	0.7682
2954.13	0.8183
2963.08	0.8302
2972.03	0.8261
2980.99	0.8093
2989.94	0.7854
2998.89	0.7196
3007.84	0.6799
3016.8	0.5821
3025.75	0.2622
3034.7	0.2626
3043.66	0.5894
3052.61	0.5825
3061.56	0.3777
3070.51	0.4988
3079.47	0.526
3088.42	0.4383
3097.37	0.7057
3106.33	0.7505
3115.28	0.8212
3124.23	0.85
3133.18	0.8706
3142.14	0.871
3151.09	0.8717
3160.04	0.8701
3169	0.8756
3177.95	0.882
3186.9	0.8807
3195.85	0.882
3204.81	0.882
3213.76	0.883
3222.71	0.883
3231.67	0.885
3240.62	0.883
3249.57	0.887
3258.52	0.885
3267.48	0.885
3276.43	0.8858
3285.38	0.883
3294.34	0.8838
3303.29	0.883
3312.24	0.883
3321.19	0.8832
3330.15	0.885
3339.1	0.8867
3348.05	0.883
3357.01	0.883
3365.96	0.8839
3374.91	0.883
3383.86	0.8826
3392.82	0.883
3401.77	0.883
3410.72	0.8831
3419.68	0.8839
3428.63	0.883
3437.58	0.882
3446.53	0.883
3455.49	0.883
3464.44	0.883
3473.39	0.883
3482.35	0.8819
3491.3	0.8825
3500.25	0.8849
3509.21	0.882
3518.16	0.882
3527.11	0.883
3536.06	0.882
3545.02	0.882
3553.97	0.883
3562.92	0.887
3571.88	0.889
3580.83	0.8895
3589.78	0.885
3598.73	0.884
3607.69	0.878
3616.64	0.873
3625.59	0.878
3634.55	0.875
3643.5	0.876
3652.45	0.876
3661.4	0.8819
3670.36	0.881
3679.31	0.8829
3688.26	0.8811
3697.22	0.8819
3706.17	0.8825
3715.12	0.883
3724.07	0.885
3733.03	0.8897
3741.98	0.8922
3750.93	0.885
3759.89	0.8826
3768.84	0.882
3777.79	0.882
3786.74	0.8849
