Infrared Spectrum: CYCLOHEXANAMINE, N-CYCLOHEXYL-
Formula: C12 H23 N
CAS: 101-83-7
State: LIQUID (NEAT)
Class: COBLENTZ III
Instrument: PERKIN-ELMER 521 (GRATING)
Instrument parameters: FILTERS AT 3150, 2500, 2000, 1150, 700, 410 AND GRATING CHANGES AT 2000, 630 CM^-^1
Sampling: TRANSMISSION
Path length: 0.0025 CM KBr CELL
Resolution: 4
Origin: STANDARD OIL OF OHIO
1/CM	TRANSMITTANCE
237.261	0.71
246.815	0.706
256.369	0.706
265.923	0.707
275.478	0.706
285.032	0.706
294.586	0.706
304.14	0.706
313.694	0.706
323.248	0.705
332.802	0.703
342.357	0.69
351.911	0.711
361.465	0.792
371.019	0.849
380.573	0.865
390.127	0.87
399.681	0.87
409.236	0.87
418.79	0.89
428.344	0.872
437.898	0.928
447.452	0.931
457.006	0.937
466.561	0.914
476.115	0.839
485.669	0.846
495.223	0.871
504.777	0.888
514.331	0.89
523.885	0.866
533.44	0.809
542.994	0.732
552.548	0.798
562.102	0.84
571.656	0.857
581.21	0.826
590.764	0.638
600.319	0.818
609.873	0.811
619.427	0.752
628.981	0.758
638.535	0.8
648.089	0.819
657.643	0.802
667.198	0.751
676.752	0.638
686.306	0.471
695.86	0.317
705.414	0.311
714.968	0.432
724.522	0.624
734.077	0.75
743.631	0.801
753.185	0.87
762.739	0.888
772.293	0.864
781.847	0.736
791.401	0.777
800.956	0.729
810.51	0.868
820.064	0.912
829.618	0.908
839.172	0.84
848.726	0.853
858.281	0.874
867.835	0.884
877.389	0.713
886.943	0.219
896.497	0.789
906.051	0.906
915.605	0.818
925.16	0.87
934.714	0.94
944.268	0.918
953.822	0.723
963.376	0.922
972.93	0.957
982.484	0.893
992.039	0.919
1001.59	0.922
1011.15	0.889
1020.7	0.769
1030.26	0.837
1039.81	0.828
1049.36	0.831
1058.92	0.858
1068.47	0.767
1078.03	0.788
1087.58	0.698
1097.13	0.589
1106.69	0.349
1116.24	0.242
1125.8	0.198
1135.35	0.23
1144.9	0.243
1154.46	0.598
1164.01	0.8
1173.57	0.821
1183.12	0.852
1192.68	0.876
1202.23	0.91
1211.78	0.906
1221.34	0.882
1230.89	0.815
1240.45	0.686
1250	0.624
1259.55	0.56
1269.11	0.752
1278.66	0.853
1288.22	0.831
1297.77	0.736
1307.33	0.676
1316.88	0.706
1326.43	0.611
1335.99	0.584
1345.54	0.383
1355.1	0.565
1364.65	0.315
1374.2	0.5801
1383.76	0.8
1393.31	0.85
1402.87	0.849
1412.42	0.832
1421.98	0.776
1431.53	0.5409
1441.08	0.1559
1450.64	0.0571
1460.19	0.133
1469.75	0.2671
1479.3	0.6631
1488.85	0.826
1498.41	0.85
1507.96	0.926
1517.52	0.948
1527.07	0.957
1536.62	0.972
1546.18	0.976
1555.73	0.979
1565.29	0.98
1574.84	0.98
1584.4	0.977
1593.95	0.967
1603.5	0.953
1613.06	0.973
1622.61	0.975
1632.17	0.976
1641.72	0.976
1651.27	0.972
1660.83	0.971
1670.38	0.973
1679.94	0.976
1689.49	0.978
1699.05	0.975
1708.6	0.969
1718.15	0.963
1727.71	0.984
1737.26	0.989
1746.82	0.991
1756.37	0.991
1765.92	0.991
1775.48	0.989
1785.03	0.989
1794.59	0.989
1804.14	0.989
1813.7	0.989
1823.25	0.988
1832.8	0.988
1842.36	0.992
1851.91	0.994
1861.47	0.994
1871.02	0.994
1880.57	0.995
1890.13	0.994
1899.68	0.995
1909.24	0.994
1918.79	0.992
1928.34	0.992
1937.9	0.991
1947.45	0.995
1957.01	1.002
1966.56	1.003
1976.12	1.003
1985.67	1.001
1995.22	1.001
2004.78	1.0015
2014.33	1.0005
2023.89	1
2033.44	1
2042.99	0.9965
2052.55	0.994
2062.1	0.992
2071.66	0.992
2081.21	0.991
2090.77	0.991
2100.32	0.991
2109.87	0.991
2119.43	0.9885
2128.98	0.985
2138.54	0.9835
2148.09	0.982
2157.64	0.98
2167.2	0.9785
2176.75	0.975
2186.31	0.972
2195.86	0.977
2205.42	0.98
2214.97	0.977
2224.52	0.967
2234.08	0.9675
2243.63	0.977
2253.19	0.977
2262.74	0.9775
2272.29	0.9795
2281.85	0.98
2291.4	0.98
2300.96	0.98
2310.51	0.978
2320.06	0.9705
2329.62	0.967
2339.17	0.9665
2348.73	0.965
2358.28	0.96
2367.84	0.961
2377.39	0.9595
2386.94	0.96
2396.5	0.968
2406.05	0.967
2415.61	0.969
2425.16	0.968
2434.71	0.969
2444.27	0.971
2453.82	0.971
2463.38	0.968
2472.93	0.957
2482.49	0.953
2492.04	0.956
2501.59	0.9525
2511.15	0.9415
2520.7	0.939
2530.26	0.9375
2539.81	0.9315
2549.36	0.924
2558.92	0.9125
2568.47	0.9005
2578.03	0.851
2587.58	0.776
2597.14	0.774
2606.69	0.8045
2616.24	0.8185
2625.8	0.8085
2635.35	0.7855
2644.91	0.7251
2654.46	0.663
2664.01	0.599
2673.57	0.6425
2683.12	0.752
2692.68	0.769
2702.23	0.788
2711.78	0.809
2721.34	0.804
2730.89	0.792
2740.45	0.7715
2750	0.736
2759.56	0.6991
2769.11	0.601
2778.66	0.5031
2788.22	0.3795
2797.77	0.3455
2807.33	0.3595
2816.88	0.2996
2826.43	0.237
2835.99	0.1022
2845.54	0.0075
2855.1	0.0105
2864.65	0.04
2874.21	0.099
2883.76	0.0655
2893.31	0.01
2902.87	0.008
2912.42	0.008
2921.98	0.009
2931.53	0.01
2941.08	0.0145
2950.64	0.0464
2960.19	0.193
2969.75	0.3943
2979.3	0.5975
2988.86	0.7025
2998.41	0.775
3007.96	0.827
3017.52	0.859
3027.07	0.897
3036.63	0.9225
3046.18	0.936
3055.73	0.941
3065.29	0.9405
3074.84	0.941
3084.4	0.941
3093.95	0.942
3103.5	0.9445
3113.06	0.945
3122.61	0.944
3132.17	0.942
3141.72	0.944
3151.28	0.94
3160.83	0.941
3170.38	0.942
3179.94	0.944
3189.49	0.946
3199.05	0.948
3208.6	0.948
3218.15	0.947
3227.71	0.945
3237.26	0.94
3246.82	0.937
3256.37	0.9325
3265.93	0.9255
3275.48	0.9205
3285.03	0.917
3294.59	0.9115
3304.14	0.907
3313.7	0.9125
3323.25	0.924
3332.8	0.9255
3342.36	0.927
3351.91	0.928
3361.47	0.931
3371.02	0.932
3380.58	0.932
3390.13	0.933
3399.68	0.936
3409.24	0.94
3418.79	0.942
3428.35	0.9475
3437.9	0.9505
3447.45	0.951
3457.01	0.951
3466.56	0.953
3476.12	0.9565
3485.67	0.962
3495.22	0.964
3504.78	0.966
3514.33	0.966
3523.89	0.969
3533.44	0.9705
3543	0.9715
3552.55	0.9725
3562.1	0.974
3571.66	0.976
3581.21	0.9755
3590.77	0.976
3600.32	0.975
3609.87	0.973
3619.43	0.9725
3628.98	0.971
3638.54	0.971
3648.09	0.9725
3657.65	0.9725
3667.2	0.97
3676.75	0.9655
3686.31	0.966
3695.86	0.965
3705.42	0.964
3714.97	0.963
3724.52	0.963
3734.08	0.961
3743.63	0.962
3753.19	0.9635
3762.74	0.96
3772.3	0.959
3781.85	0.96
3791.4	0.961
3800.96	0.961
3810.51	0.959
3820.07	0.958
3829.62	0.958
3839.17	0.959
3848.73	0.961
3858.28	0.96
3867.84	0.959
3877.39	0.955
3886.94	0.952
3896.5	0.9505
3906.05	0.95
3915.61	0.948
3925.16	0.948
3934.72	0.948
3944.27	0.948
3953.82	0.948
3963.38	0.948
3972.93	0.948
3982.49	0.947
3992.04	0.9445
4001.59	0.94
