Infrared Spectrum: ANILINE, 4,4'-METHYLENEDI-
Formula: C13 H14 N2
CAS: 101-77-9
State: LIQUID (NEAT)
Class: COBLENTZ III
Instrument: BECKMAN IR-4 (HYBRID PRISM-GRATING)
Instrument parameters: NaCl PRISM
Sampling: TRANSMISSION
Path length: CAPILLARY
Resolution: 2
Origin: MONSANTO (J. FREEMAN)
1/CM	TRANSMITTANCE
4000	0.5309
3991	0.5331
3982	0.5353
3973	0.5375
3964	0.54
3955	0.5425
3946	0.545
3937	0.5476
3928	0.5502
3919	0.5527
3910	0.5553
3901	0.5579
3892	0.5605
3883	0.5631
3874	0.5656
3865	0.5681
3856	0.5705
3847	0.573
3838	0.5755
3829	0.5779
3820	0.5805
3811	0.583
3802	0.5857
3793	0.5883
3784	0.591
3775	0.5935
3766	0.5957
3757	0.598
3748	0.6003
3739	0.6025
3730	0.6048
3721	0.6071
3712	0.6092
3703	0.611
3694	0.6127
3685	0.6144
3676	0.616
3667	0.6179
3658	0.6194
3649	0.6206
3640	0.6215
3631	0.6222
3622	0.6227
3613	0.6234
3604	0.6241
3595	0.6248
3586	0.6255
3577	0.6262
3568	0.6271
3559	0.6278
3550	0.6285
3541	0.6293
3532	0.6296
3523	0.6295
3514	0.6295
3505	0.6276
3496	0.6245
3487	0.6169
3478	0.6059
3469	0.5895
3460	0.5623
3451	0.5379
3442	0.5306
3433	0.4412
3424	0.3016
3415	0.2713
3406	0.2635
3397	0.2581
3388	0.2559
3379	0.2808
3370	0.3409
3361	0.4014
3352	0.4623
3343	0.4959
3334	0.4949
3325	0.335
3316	0.1809
3307	0.1779
3298	0.2216
3289	0.266
3280	0.3107
3271	0.3556
3262	0.4008
3253	0.4462
3244	0.4862
3235	0.4865
3226	0.467
3217	0.4466
3208	0.426
3199	0.4071
3190	0.4042
3181	0.4322
3172	0.474
3163	0.5159
3154	0.552
3145	0.5775
3136	0.5874
3127	0.595
3118	0.5983
3109	0.601
3100	0.6022
3091	0.6026
3082	0.6016
3073	0.5991
3064	0.5956
3055	0.5895
3046	0.58
3037	0.5488
3028	0.5026
3019	0.4565
3010	0.4401
3001	0.4378
2992	0.4034
2983	0.3474
2974	0.2911
2965	0.2345
2956	0.1775
2947	0.1202
2938	0.0625
2929	0.0375
2920	0.0375
2911	0.0408
2902	0.0479
2893	0.0605
2884	0.0919
2875	0.132
2866	0.1408
2857	0.1432
2848	0.1527
2839	0.2685
2830	0.4055
2821	0.5434
2812	0.6819
2803	0.7508
2794	0.7625
2785	0.7725
2776	0.7774
2767	0.7798
2758	0.7812
2749	0.7824
2740	0.7834
2731	0.7839
2722	0.7843
2713	0.7833
2704	0.7796
2695	0.7771
2686	0.7757
2677	0.7787
2668	0.7845
2659	0.7941
2650	0.8032
2641	0.806
2632	0.8085
2623	0.8111
2614	0.814
2605	0.8167
2596	0.821
2587	0.8254
2578	0.8296
2569	0.833
2560	0.8364
2551	0.8399
2542	0.8433
2533	0.8467
2524	0.8516
2515	0.8549
2506	0.8582
2497	0.8625
2488	0.8671
2479	0.8712
2470	0.8734
2461	0.8735
2452	0.874
2443	0.8766
2434	0.8795
2425	0.8828
2416	0.8851
2407	0.8867
2398	0.8885
2389	0.8911
2380	0.8942
2371	0.8996
2362	0.9025
2353	0.9045
2344	0.9049
2335	0.9054
2326	0.9061
2317	0.9068
2308	0.9078
2299	0.9085
2290	0.9094
2281	0.9102
2272	0.911
2263	0.9118
2254	0.9135
2245	0.9153
2236	0.9171
2227	0.9178
2218	0.9181
2209	0.9182
2200	0.9183
2191	0.9192
2182	0.9234
2173	0.9271
2164	0.9297
2155	0.9308
2146	0.9318
2137	0.9328
2128	0.9342
2119	0.9355
2110	0.9371
2101	0.9389
2092	0.9408
2083	0.9427
2074	0.9447
2065	0.9465
2056	0.9481
2047	0.946
2038	0.9447
2029	0.9447
2020	0.9447
2011	0.9449
2002	0.9453
1993	0.9459
1984	0.947
1975	0.9483
1966	0.9517
1957	0.9611
1948	0.969
1939	0.9694
1930	0.9664
1921	0.9564
1912	0.937
1903	0.9323
1894	0.9351
1885	0.909
1876	0.9214
1867	0.9518
1858	0.9645
1849	0.9728
1840	0.9791
1831	0.9837
1822	0.988
1813	0.9918
1804	0.9939
1795	0.9912
1786	0.9893
1777	0.9894
1768	0.9911
1759	0.9937
1750	0.997
1741	0.9988
1732	1
1723	1.0009
1714	1.0009
1705	0.9999
1696	0.9975
1687	0.992
1678	0.9821
1669	0.9668
1660	0.9392
1651	0.7988
1642	0.5393
1633	0.2181
1624	0.1691
1615	0.3534
1606	0.5399
1597	0.7285
1588	0.7767
1579	0.8124
1570	0.9153
1561	0.9449
1552	0.9427
1543	0.866
1534	0.598
1525	0.1729
1516	0.0797
1507	0.4676
1498	0.6736
1489	0.7881
1480	0.7337
1471	0.5397
1462	0.4317
1453	0.5508
1444	0.599
1435	0.6014
1426	0.7554
1417	0.9421
1408	0.967
1399	0.9647
1390	0.9355
1381	0.6861
1372	0.8225
1363	0.8881
1354	0.8712
1345	0.8518
1336	0.8304
1327	0.7315
1318	0.6834
1309	0.756
1300	0.6715
1291	0.2358
1282	0.3222
1273	0.2754
1264	0.5135
1255	0.7364
1246	0.859
1237	0.895
1228	0.9178
1219	0.9254
1210	0.8296
1201	0.9461
1192	0.867
1183	0.571
1174	0.6504
1165	0.898
1156	0.9225
1147	0.934
1138	0.9102
1129	0.7344
1120	0.8283
1111	0.9138
1102	0.919
1093	0.8891
1084	0.8428
1075	0.8674
1066	0.9488
1057	0.9744
1048	0.9785
1039	0.9783
1030	0.9788
1021	0.9767
1012	0.9353
1003	0.973
994	0.9724
985	0.9684
976	0.9605
967	0.9507
958	0.9251
949	0.8924
940	0.9634
931	0.9565
922	0.9465
913	0.8683
904	0.8111
895	0.9352
886	0.9439
877	0.935
868	0.9187
859	0.8734
850	0.7257
841	0.5729
832	0.5425
823	0.3679
814	0.2275
805	0.466
796	0.788
787	0.8084
778	0.7611
769	0.6962
760	0.6975
751	0.8014
742	0.7768
733	0.7454
724	0.7051
715	0.6975
706	0.6906
697	0.6903
688	0.6561
679	0.6047
670	0.5132
661	0.4987
652	0.5221
643	0.5206
634	0.5302
