Infrared Spectrum: ANILINE, 4,4'-METHYLENEBIS-(N,N-DIMETHYL)-
Formula: C17 H22 N2
CAS: 101-61-1
State: SOLID (SPLIT MULL)
Class: COBLENTZ III
Instrument: DOW KBr FOREPRISM-GRATING
Instrument parameters: BLAZED AT 3.5, 12.0, 20.0 AND CHANGED AT 5.0, 7.5, 14.9 MICRON
Sampling: TRANSMISSION
Resolution: 2
Origin: DOW CHEMICAL COMPANY
1/CM	TRANSMITTANCE
3820	0.2753
3811	0.2774
3802	0.2791
3793	0.2802
3784	0.2815
3775	0.2832
3766	0.2849
3757	0.2865
3748	0.2883
3739	0.2901
3730	0.2919
3721	0.2937
3712	0.2955
3703	0.2973
3694	0.2992
3685	0.301
3676	0.3029
3667	0.3048
3658	0.3067
3649	0.3084
3640	0.3104
3631	0.3123
3622	0.3142
3613	0.316
3604	0.3179
3595	0.3198
3586	0.3216
3577	0.3236
3568	0.3256
3559	0.3275
3550	0.3295
3541	0.3314
3532	0.3334
3523	0.3354
3514	0.3372
3505	0.339
3496	0.3408
3487	0.3426
3478	0.3447
3469	0.3466
3460	0.3488
3451	0.3508
3442	0.3529
3433	0.3547
3424	0.3566
3415	0.3584
3406	0.3602
3397	0.3621
3388	0.3639
3379	0.3656
3370	0.3673
3361	0.3689
3352	0.3706
3343	0.3722
3334	0.3743
3325	0.3762
3316	0.3784
3307	0.3804
3298	0.3825
3289	0.3847
3280	0.3874
3271	0.39
3262	0.3926
3253	0.3952
3244	0.3977
3235	0.4
3226	0.4025
3217	0.4048
3208	0.4073
3199	0.4097
3190	0.4122
3181	0.4146
3172	0.4169
3163	0.4191
3154	0.4214
3145	0.4233
3136	0.4253
3127	0.4272
3118	0.4291
3109	0.4316
3100	0.4337
3091	0.4289
3082	0.4124
3073	0.408
3064	0.405
3055	0.4199
3046	0.4349
3037	0.4352
3028	0.4342
3019	0.431
3010	0.395
3001	0.3934
2992	0.4012
2983	0.4095
2974	0.4178
2965	0.4243
2956	0.428
2947	0.4268
2938	0.406
2929	0.3859
2920	0.3641
2911	0.3504
2902	0.3366
2893	0.323
2884	0.3099
2875	0.3083
2866	0.3197
2857	0.3276
2848	0.3482
2839	0.3738
2830	0.3868
2821	0.3775
2812	0.3144
2803	0.3013
2794	0.3045
2785	0.3492
2776	0.3748
2767	0.393
2758	0.4056
2749	0.4154
2740	0.4243
2731	0.4328
2722	0.4399
2713	0.447
2704	0.4526
2695	0.4577
2686	0.4629
2677	0.4678
2668	0.4723
2659	0.4768
2650	0.4812
2641	0.4858
2632	0.4894
2623	0.493
2614	0.4965
2605	0.5
2596	0.5031
2587	0.506
2578	0.5092
2569	0.5121
2560	0.5153
2551	0.5184
2542	0.5217
2533	0.5248
2524	0.5279
2515	0.5309
2506	0.5339
2497	0.5368
2488	0.5398
2479	0.5428
2470	0.5458
2461	0.5488
2452	0.5508
2443	0.5528
2434	0.5548
2425	0.5566
2416	0.5585
2407	0.5601
2398	0.5616
2389	0.563
2380	0.5632
2371	0.5632
2362	0.563
2353	0.5628
2344	0.5632
2335	0.5635
2326	0.5649
2317	0.5681
2308	0.5721
2299	0.5762
2290	0.5808
2281	0.5853
2272	0.5892
2263	0.593
2254	0.5967
2245	0.6005
2236	0.6049
2227	0.6096
2218	0.6171
2209	0.6246
2200	0.6301
2191	0.6356
2182	0.6411
2173	0.646
2164	0.6508
2155	0.6558
2146	0.6608
2137	0.665
2128	0.6693
2119	0.6736
2110	0.6772
2101	0.6806
2092	0.684
2083	0.6875
2074	0.6911
2065	0.6948
2056	0.6986
2047	0.7025
2038	0.7068
2029	0.7112
2020	0.716
2011	0.7207
2002	0.7244
1993	0.7119
1984	0.7268
1975	0.7315
1966	0.7358
1957	0.7399
1948	0.7439
1939	0.7468
1930	0.751
1921	0.7551
1912	0.7576
1903	0.7508
1894	0.7368
1885	0.748
1876	0.7143
1867	0.7353
1858	0.7536
1849	0.7568
1840	0.7568
1831	0.7688
1822	0.7761
1813	0.781
1804	0.7858
1795	0.7907
1786	0.7956
1777	0.8001
1768	0.8047
1759	0.8055
1750	0.8022
1741	0.8074
1732	0.8211
1723	0.834
1714	0.8416
1705	0.8482
1696	0.8541
1687	0.8595
1678	0.8658
1669	0.8741
1660	0.8844
1651	0.8953
1642	0.8907
1633	0.8813
1624	0.8324
1615	0.4184
1606	0.2913
1597	0.5962
1588	0.72
1579	0.7939
1570	0.8352
1561	0.6855
1552	0.7791
1543	0.8122
1534	0.6285
1525	0.2185
1516	0.067
1507	0.2481
1498	0.4501
1489	0.5717
1480	0.5378
1471	0.571
1462	0.6425
1453	0.6607
1444	0.4458
1435	0.531
1426	0.6069
1417	0.6628
1408	0.6926
1399	0.7178
1390	0.7392
1381	0.7554
1372	0.7575
1363	0.6106
1354	0.2613
1345	0.2731
1336	0.2344
1327	0.3945
1318	0.5221
1309	0.5354
1300	0.5338
1291	0.5931
1282	0.6255
1273	0.6202
1264	0.6475
1255	0.668
1246	0.6667
1237	0.5146
1228	0.2854
1219	0.4226
1210	0.4868
1201	0.5382
1192	0.6293
1183	0.4217
1174	0.5886
1165	0.3782
1156	0.4648
1147	0.581
1138	0.6262
1129	0.6421
1120	0.5865
1111	0.6499
1102	0.6775
1093	0.696
1084	0.7078
1075	0.689
1066	0.5281
1057	0.6582
1048	0.7135
1039	0.7398
1030	0.7521
1021	0.7571
1012	0.7621
1003	0.7678
994	0.775
985	0.7834
976	0.7857
967	0.783
958	0.7781
949	0.67
940	0.5653
931	0.6855
922	0.7524
913	0.7655
904	0.7699
895	0.6886
886	0.7643
877	0.7858
868	0.7968
859	0.799
850	0.7965
841	0.7826
832	0.7068
823	0.6226
814	0.7548
805	0.6854
796	0.3566
787	0.5192
778	0.709
769	0.7494
760	0.7674
751	0.7724
742	0.7724
733	0.7278
724	0.7412
715	0.7037
706	0.7488
697	0.7808
688	0.8142
679	0.7341
670	0.8218
661	0.8849
652	0.8891
643	0.8909
634	0.8739
625	0.8901
616	0.8892
607	0.889
598	0.8867
589	0.8839
580	0.8705
571	0.7764
562	0.8033
553	0.8544
544	0.856
535	0.8506
526	0.8338
517	0.7919
508	0.6458
499	0.7428
490	0.8165
481	0.8191
472	0.8085
463	0.8138
454	0.8098
