Infrared Spectrum: Phosphonic acid, (carbamoylmethyl)-, dibenzyl ester
Formula: C16 H18 N O4 P
CAS: 101288-23-7
State: SOLID (0.8 mg / 650 mg KBr DISC)
Class: COBLENTZ III
Instrument: PERKIN-ELMER 21 (GRATING)
Instrument parameters: FILTER CHANGE ABOUT 980 CM^-^1
Sampling: TRANSMISSION
Resolution: 2
Origin: SOUTHERN RESEARCH INSTITUTE
1/CM	TRANSMITTANCE
600.34	0.7585
608.355	0.7618
616.37	0.7611
624.385	0.7479
632.399	0.7306
640.414	0.715
648.429	0.698
656.444	0.6759
664.459	0.6468
672.474	0.6108
680.489	0.5772
688.503	0.5341
696.518	0.4294
704.533	0.3315
712.548	0.4184
720.563	0.4389
728.578	0.4758
736.593	0.45
744.607	0.2424
752.622	0.4455
760.637	0.7036
768.652	0.7238
776.667	0.7203
784.682	0.7251
792.697	0.7329
800.711	0.7138
808.726	0.6853
816.741	0.6769
824.756	0.6434
832.771	0.6212
840.786	0.6207
848.8	0.6625
856.815	0.6961
864.83	0.7006
872.845	0.6621
880.86	0.532
888.875	0.4667
896.89	0.5267
904.904	0.6471
912.919	0.6435
920.934	0.6151
928.949	0.6779
936.964	0.7055
944.979	0.7064
952.994	0.6793
961.008	0.6225
969.023	0.4916
977.038	0.4049
985.053	0.441
993.068	0.3398
1001.08	0.1092
1009.1	0.1415
1017.11	0.1498
1025.13	0.1981
1033.14	0.2353
1041.16	0.2698
1049.17	0.279
1057.19	0.3205
1065.2	0.4636
1073.22	0.5996
1081.23	0.5885
1089.25	0.5556
1097.26	0.6734
1105.28	0.6914
1113.29	0.6946
1121.31	0.6968
1129.32	0.7178
1137.34	0.7267
1145.35	0.7273
1153.36	0.7137
1161.38	0.7071
1169.39	0.708
1177.41	0.6914
1185.42	0.6954
1193.44	0.6994
1201.45	0.683
1209.47	0.6294
1217.48	0.4816
1225.5	0.3737
1233.51	0.2914
1241.53	0.1461
1249.54	0.2521
1257.56	0.363
1265.57	0.4529
1273.59	0.654
1281.6	0.7019
1289.62	0.7363
1297.63	0.7493
1305.65	0.7482
1313.66	0.7444
1321.68	0.7458
1329.69	0.7383
1337.71	0.7203
1345.72	0.7157
1353.74	0.6967
1361.75	0.6889
1369.77	0.648
1377.78	0.4595
1385.8	0.3839
1393.81	0.51
1401.83	0.6352
1409.84	0.6319
1417.86	0.5794
1425.87	0.5062
1433.88	0.5582
1441.9	0.648
1449.91	0.6787
1457.93	0.6285
1465.94	0.5778
1473.96	0.6877
1481.97	0.7541
1489.99	0.7564
1498	0.7036
1506.02	0.7094
1514.03	0.7705
1522.05	0.7714
1530.06	0.7724
1538.08	0.7693
1546.09	0.764
1554.11	0.7563
1562.12	0.7464
1570.14	0.7361
1578.15	0.7156
1586.17	0.6891
1594.18	0.6651
1602.2	0.6233
1610.21	0.5376
1618.23	0.4484
1626.24	0.3589
1634.26	0.1951
1642.27	0.1886
1650.29	0.2185
1658.3	0.2207
1666.32	0.2697
1674.33	0.3878
1682.35	0.4764
1690.36	0.6151
1698.38	0.6765
1706.39	0.7395
1714.4	0.7682
1722.42	0.7834
1730.43	0.7933
1738.45	0.796
1746.46	0.8033
1754.48	0.8106
1762.49	0.8118
1770.51	0.814
1778.52	0.8167
1786.54	0.8198
1794.55	0.8215
1802.57	0.8233
1810.58	0.8256
1818.6	0.8266
1826.61	0.8297
1834.63	0.8313
1842.64	0.8349
1850.66	0.8379
1858.67	0.8368
1866.69	0.836
1874.7	0.8344
1882.72	0.8323
1890.73	0.8316
1898.75	0.8337
1906.76	0.8387
1914.78	0.8384
1922.79	0.8356
1930.81	0.8433
1938.82	0.8432
1946.84	0.8402
1954.85	0.8403
1962.87	0.8357
1970.88	0.8327
1978.89	0.838
1986.91	0.8399
1994.92	0.8415
2002.94	0.8437
2010.95	0.8466
2018.97	0.8483
2026.98	0.8486
2035	0.8483
2043.01	0.8482
2051.03	0.8483
2059.04	0.8485
2067.06	0.8486
2075.07	0.8484
2083.09	0.8484
2091.1	0.8523
2099.12	0.8534
2107.13	0.8525
2115.15	0.852
2123.16	0.8515
2131.18	0.851
2139.19	0.8499
2147.21	0.8486
2155.22	0.8491
2163.24	0.8544
2171.25	0.8535
2179.27	0.8523
2187.28	0.8515
2195.3	0.8509
2203.31	0.8508
2211.33	0.851
2219.34	0.8507
2227.36	0.8502
2235.37	0.8498
2243.39	0.8492
2251.4	0.8498
2259.41	0.8504
2267.43	0.8514
2275.44	0.8516
2283.46	0.8513
2291.47	0.8515
2299.49	0.8526
2307.5	0.8545
2315.52	0.8576
2323.53	0.8646
2331.55	0.8665
2339.56	0.8652
2347.58	0.8639
2355.59	0.8626
2363.61	0.8614
2371.62	0.863
2379.64	0.8616
2387.65	0.8585
2395.67	0.8549
2403.68	0.8572
2411.7	0.8608
2419.71	0.8625
2427.73	0.8612
2435.74	0.8596
2443.76	0.857
2451.77	0.8546
2459.79	0.854
2467.8	0.8562
2475.82	0.8589
2483.83	0.8592
2491.85	0.8591
2499.86	0.8564
2507.88	0.8534
2515.89	0.8559
2523.91	0.8617
2531.92	0.8666
2539.93	0.865
2547.95	0.8625
2555.96	0.8599
2563.98	0.8572
2571.99	0.8561
2580.01	0.8556
2588.02	0.8521
2596.04	0.8503
2604.05	0.856
2612.07	0.8603
2620.08	0.8604
2628.1	0.8594
2636.11	0.8576
2644.13	0.8554
2652.14	0.8537
2660.16	0.852
2668.17	0.8504
2676.19	0.8485
2684.2	0.8506
2692.22	0.8519
2700.23	0.8493
2708.25	0.8472
2716.26	0.8467
2724.28	0.8456
2732.29	0.8441
2740.31	0.8417
2748.32	0.8371
2756.34	0.8314
2764.35	0.8285
2772.37	0.8281
2780.38	0.8278
2788.4	0.827
2796.41	0.8261
2804.43	0.8226
2812.44	0.8175
2820.45	0.812
2828.47	0.8049
2836.48	0.7958
2844.5	0.7875
2852.51	0.7792
2860.53	0.7706
2868.54	0.7604
2876.56	0.7485
2884.57	0.7356
2892.59	0.7273
2900.6	0.7266
2908.62	0.7384
2916.63	0.7405
2924.65	0.7473
2932.66	0.7476
2940.68	0.7416
2948.69	0.728
2956.71	0.7175
2964.72	0.7123
2972.74	0.7203
2980.75	0.7361
2988.77	0.751
2996.78	0.753
3004.8	0.7468
3012.81	0.7389
3020.83	0.7238
3028.84	0.704
3036.86	0.7041
3044.87	0.7044
3052.89	0.7031
3060.9	0.6977
3068.92	0.6962
3076.93	0.6982
3084.94	0.6926
3092.96	0.6792
3100.97	0.6648
3108.99	0.6498
3117	0.6214
3125.02	0.5736
3133.03	0.5282
3141.05	0.4684
3149.06	0.4297
3157.08	0.4121
3165.09	0.4066
3173.11	0.411
3181.12	0.4437
3189.14	0.4661
3197.15	0.4863
3205.17	0.5079
3213.18	0.5335
3221.2	0.5517
3229.21	0.5556
3237.23	0.5561
3245.24	0.5538
3253.26	0.548
3261.27	0.5387
3269.29	0.5285
3277.3	0.5162
3285.32	0.4985
3293.33	0.4746
3301.35	0.4489
3309.36	0.4241
3317.38	0.3978
3325.39	0.3641
3333.41	0.3357
3341.42	0.3193
3349.44	0.3203
3357.45	0.3283
3365.46	0.3566
3373.48	0.3965
3381.49	0.4297
3389.51	0.4675
3397.52	0.5063
3405.54	0.5396
3413.55	0.5687
3421.57	0.5891
3429.58	0.6028
3437.6	0.6146
3445.61	0.6251
3453.63	0.6344
3461.64	0.6433
3469.66	0.6528
3477.67	0.6614
3485.69	0.6696
3493.7	0.6789
3501.72	0.6862
3509.73	0.696
3517.75	0.7055
3525.76	0.7055
3533.78	0.7109
3541.79	0.7208
3549.81	0.7286
3557.82	0.7318
3565.84	0.7402
3573.85	0.7554
3581.87	0.7643
3589.88	0.7709
3597.9	0.7765
3605.91	0.7817
3613.93	0.7878
3621.94	0.7952
3629.96	0.8011
3637.97	0.8045
3645.98	0.8117
3654	0.8156
3662.01	0.8177
3670.03	0.8166
3678.04	0.8178
3686.06	0.8249
3694.07	0.8305
3702.09	0.8343
3710.1	0.8357
3718.12	0.8365
3726.13	0.8362
3734.15	0.8346
3742.16	0.832
3750.18	0.8284
3758.19	0.8265
3766.21	0.8271
3774.22	0.8308
3782.24	0.832
3790.25	0.8269
3798.27	0.8251
