Infrared Spectrum: BUTYRALDEHYDE, 3-METHOXY-, DIMETHYL ACETAL
Formula: C7 H16 O3
CAS: 10138-89-3
State: SOLUTION (10% CCl4 FOR 3800-1340, 10% CS2 FOR 1340-470 CM^-^1)
Class: COBLENTZ III
Instrument: DOW KBr FOREPRISM-GRATING
Instrument parameters: BLAZED AT 3.5, 12.0, 20.0 MICRON AND CHANGED AT 5.0, 7.5, 14.9 MICRON
Sampling: TRANSMISSION
Path length: 0.011 CM, 0.011 CM
Resolution: 2
Origin: DOW CHEMICAL COMPANY
1/CM	TRANSMITTANCE
465	0.8008
474	0.8288
483	0.8507
492	0.851
501	0.8421
510	0.8291
519	0.8151
528	0.8065
537	0.8089
546	0.8215
555	0.8254
564	0.8164
573	0.8018
582	0.7871
591	0.8028
600	0.8507
609	0.8838
618	0.89
627	0.8799
636	0.8709
645	0.8699
654	0.8725
663	0.9033
672	0.8809
681	0.8768
690	0.8766
699	0.8846
708	0.8901
717	0.898
726	0.9078
735	0.9131
744	0.9208
753	0.931
762	0.9323
771	0.9225
780	0.8785
789	0.7121
798	0.5997
807	0.7761
816	0.8337
825	0.8072
834	0.7803
843	0.7076
852	0.7628
861	0.8032
870	0.8393
879	0.8612
888	0.8704
897	0.8015
906	0.4826
915	0.5353
924	0.6696
933	0.7171
942	0.7026
951	0.4579
960	0.2242
969	0.5159
978	0.7668
987	0.8516
996	0.824
1005	0.6682
1014	0.5662
1023	0.5209
1032	0.4187
1041	0.2612
1050	0.0358
1059	0.0661
1068	0.0674
1077	0.0423
1086	0.048
1095	0.0161
1104	0.0288
1113	0.0401
1122	0.0057
1131	0.0293
1140	0.0639
1149	0.1639
1158	0.3298
1167	0.4573
1176	0.2881
1185	0.2365
1194	0.2773
1203	0.2974
1212	0.4994
1221	0.7315
1230	0.7974
1239	0.8004
1248	0.8044
1257	0.8125
1266	0.8305
1275	0.78
1284	0.7717
1293	0.8242
1302	0.8471
1311	0.8577
1320	0.854
1329	0.8069
1338	0.6661
1347	0.5917
1356	0.4891
1365	0.4302
1374	0.2097
1383	0.2697
1392	0.351
1401	0.5795
1410	0.6828
1419	0.6712
1428	0.583
1437	0.5112
1446	0.3572
1455	0.3878
1464	0.3216
1473	0.4777
1482	0.6362
1491	0.7005
1500	0.7061
1509	0.6826
1518	0.655
1527	0.6151
1536	0.5589
1545	0.4718
1554	0.4477
1563	0.5062
1572	0.576
1581	0.5994
1590	0.6208
1599	0.7001
1608	0.7565
1617	0.7958
1626	0.8155
1635	0.8253
1644	0.8263
1653	0.8364
1662	0.8411
1671	0.8404
1680	0.8357
1689	0.8234
1698	0.7976
1707	0.8149
1716	0.7971
1725	0.7471
1734	0.6762
1743	0.7488
1752	0.8015
1761	0.8231
1770	0.8354
1779	0.8441
1788	0.8495
1797	0.8518
1806	0.8536
1815	0.8553
1824	0.8556
1833	0.8556
1842	0.8551
1851	0.8544
1860	0.8543
1869	0.8545
1878	0.8547
1887	0.8561
1896	0.858
1905	0.8589
1914	0.8578
1923	0.8552
1932	0.8521
1941	0.8525
1950	0.8567
1959	0.8635
1968	0.8514
1977	0.8501
1986	0.8497
1995	0.8478
2004	0.8315
2013	0.8018
2022	0.8039
2031	0.8145
2040	0.8139
2049	0.8148
2058	0.818
2067	0.8188
2076	0.8184
2085	0.8165
2094	0.8142
2103	0.8151
2112	0.8172
2121	0.8201
2130	0.8201
2139	0.8196
2148	0.8178
2157	0.8136
2166	0.8112
2175	0.8151
2184	0.8205
2193	0.8264
2202	0.8291
2211	0.8291
2220	0.8289
2229	0.8275
2238	0.8264
2247	0.8251
2256	0.8239
2265	0.8221
2274	0.8195
2283	0.816
2292	0.815
2301	0.8201
2310	0.827
2319	0.8356
2328	0.8425
2337	0.8448
2346	0.8448
2355	0.844
2364	0.8421
2373	0.8399
2382	0.8387
2391	0.84
2400	0.8418
2409	0.8441
2418	0.8459
2427	0.8473
2436	0.8489
2445	0.851
2454	0.8534
2463	0.8541
2472	0.8542
2481	0.8539
2490	0.8544
2499	0.8544
2508	0.854
2517	0.8535
2526	0.8527
2535	0.8518
2544	0.8506
2553	0.8484
2562	0.8458
2571	0.8418
2580	0.836
2589	0.8311
2598	0.8292
2607	0.8292
2616	0.8314
2625	0.8334
2634	0.8317
2643	0.8248
2652	0.8165
2661	0.8105
2670	0.8092
2679	0.8092
2688	0.8049
2697	0.801
2706	0.7978
2715	0.7947
2724	0.7948
2733	0.7985
2742	0.8047
2751	0.8028
2760	0.7969
2769	0.789
2778	0.7758
2787	0.7548
2796	0.7221
2805	0.6821
2814	0.5012
2823	0.2152
2832	0.1645
2841	0.3116
2850	0.5003
2859	0.4839
2868	0.3909
2877	0.2961
2886	0.2259
2895	0.1844
2904	0.1596
2913	0.1592
2922	0.1367
2931	0.0721
2940	0.0762
2949	0.1301
2958	0.1283
2967	0.1214
2976	0.0758
2985	0.1526
2994	0.2434
3003	0.3232
3012	0.5809
3021	0.6621
3030	0.7091
3039	0.7371
3048	0.7571
3057	0.7692
3066	0.7793
3075	0.7886
3084	0.7968
3093	0.8051
3102	0.8122
3111	0.8191
3120	0.8247
3129	0.8275
3138	0.8282
3147	0.8263
3156	0.8182
3165	0.8147
3174	0.8343
3183	0.8368
3192	0.8378
3201	0.839
3210	0.8402
3219	0.8409
3228	0.8412
3237	0.841
3246	0.8414
3255	0.8427
3264	0.8406
3273	0.8353
3282	0.8268
3291	0.8141
3300	0.7975
3309	0.7717
3318	0.7685
3327	0.7976
3336	0.8108
3345	0.8133
3354	0.8243
3363	0.8324
3372	0.8377
3381	0.8416
3390	0.8462
3399	0.8503
3408	0.8525
3417	0.8531
3426	0.8525
3435	0.8521
3444	0.8528
3453	0.8546
3462	0.857
3471	0.8583
3480	0.8575
3489	0.8568
3498	0.8568
3507	0.8581
3516	0.8596
3525	0.8628
3534	0.8668
3543	0.8702
3552	0.8732
3561	0.8759
3570	0.8786
3579	0.8816
3588	0.8844
3597	0.8834
3606	0.8828
3615	0.8836
3624	0.8851
3633	0.8863
3642	0.8871
3651	0.8871
3660	0.8868
3669	0.8811
3678	0.876
3687	0.8785
3696	0.8851
3705	0.8895
3714	0.8906
3723	0.8908
3732	0.8906
3741	0.891
3750	0.8917
3759	0.892
3768	0.8924
3777	0.8928
3786	0.893
3795	0.8924
