Infrared Spectrum: ACETIC ACID, 3-HYDROXYPHENYL ESTER
Formula: C8 H8 O3
CAS: 102-29-4
State: LIQUID (NEAT)
Class: COBLENTZ III
Instrument: BECKMAN IR-7 (GRATING)
Instrument parameters: GRATING CHANGES AT 3000, 2200, 1150 CM^-^1
Sampling: TRANSMISSION
Resolution: 4
Origin: WESTERN REGIONAL RES. USDA
1/CM	TRANSMITTANCE
600.806	0.499
609.677	0.498
618.548	0.541
627.419	0.565
636.29	0.595
645.161	0.61
654.032	0.621
662.903	0.592
671.774	0.553
680.645	0.506
689.516	0.195
698.387	0.419
707.258	0.545
716.129	0.644
725	0.671
733.871	0.679
742.742	0.676
751.613	0.597
760.484	0.411
769.355	0.431
778.226	0.418
787.097	0.323
795.968	0.494
804.839	0.6
813.71	0.665
822.581	0.694
831.452	0.684
840.323	0.565
849.194	0.43
858.065	0.469
866.936	0.54
875.807	0.5
884.678	0.573
893.549	0.586
902.42	0.4161
911.291	0.41
920.162	0.451
929.033	0.521
937.904	0.6239
946.775	0.663
955.646	0.46
964.517	0.133
973.388	0.312
982.259	0.506
991.13	0.559
1000	0.4821
1008.87	0.39
1017.74	0.217
1026.61	0.3379
1035.48	0.4999
1044.36	0.483
1053.23	0.497
1062.1	0.595
1070.97	0.575
1079.84	0.469
1088.71	0.586
1097.58	0.628
1106.45	0.627
1115.32	0.4792
1124.19	0.093
1133.07	0.046
1141.94	0.097
1150.81	0.151
1159.68	0.212
1168.55	0.241
1177.42	0.275
1186.29	0.159
1195.16	0.056
1204.03	0.029
1212.9	0.024
1221.78	0.022
1230.65	0.025
1239.52	0.03
1248.39	0.05
1257.26	0.102
1266.13	0.146
1275	0.13
1283.87	0.2319
1292.74	0.325
1301.61	0.2881
1310.49	0.223
1319.36	0.332
1328.23	0.342
1337.1	0.374
1345.97	0.381
1354.84	0.34
1363.71	0.2
1372.58	0.071
1381.45	0.1839
1390.32	0.326
1399.2	0.432
1408.07	0.479
1416.94	0.495
1425.81	0.42
1434.68	0.366
1443.55	0.374
1452.42	0.325
1461.29	0.223
1470.16	0.275
1479.03	0.192
1487.91	0.08
1496.78	0.199
1505.65	0.263
1514.52	0.428
1523.39	0.5
1532.26	0.54
1541.13	0.581
1550	0.585
1558.87	0.579
1567.74	0.569
1576.62	0.528
1585.49	0.3899
1594.36	0.083
1603.23	0.044
1612.1	0.077
1620.97	0.163
1629.84	0.281
1638.71	0.37
1647.58	0.479
1656.45	0.548
1665.33	0.577
1674.2	0.593
1683.07	0.594
1691.94	0.576
1700.81	0.527
1709.68	0.422
1718.55	0.199
1727.42	0.07
1736.29	0.045
1745.16	0.08
1754.04	0.102
1762.91	0.07
1771.78	0.09
1780.65	0.222
1789.52	0.422
1798.39	0.554
1807.26	0.627
1816.13	0.655
1825	0.681
1833.87	0.698
1842.75	0.718
1851.62	0.724
1860.49	0.733
1869.36	0.737
1878.23	0.735
1887.1	0.731
1895.97	0.729
1904.84	0.733
1913.71	0.737
1922.58	0.733
1931.46	0.733
1940.33	0.74
1949.2	0.748
1958.07	0.754
1966.94	0.758
1975.81	0.764
1984.68	0.767
1993.55	0.771
2002.42	0.7748
2011.29	0.7755
2020.17	0.7763
2029.04	0.777
2037.91	0.777
2046.78	0.778
2055.65	0.7775
2064.52	0.776
2073.39	0.7749
2082.26	0.774
2091.13	0.773
2100	0.771
2108.88	0.77
2117.75	0.77
2126.62	0.769
2135.49	0.768
2144.36	0.767
2153.23	0.767
2162.1	0.767
2170.97	0.7707
2179.84	0.7755
2188.71	0.7783
2197.59	0.7811
2206.46	0.782
2215.33	0.7837
2224.2	0.7835
2233.07	0.782
2241.94	0.782
2250.81	0.781
2259.68	0.781
2268.55	0.7814
2277.42	0.782
2286.3	0.782
2295.17	0.782
2304.04	0.783
2312.91	0.783
2321.78	0.783
2330.65	0.783
2339.52	0.782
2348.39	0.781
2357.26	0.7787
2366.13	0.7779
2375.01	0.7761
2383.88	0.7703
2392.75	0.7615
2401.62	0.7558
2410.49	0.7469
2419.36	0.7403
2428.23	0.737
2437.1	0.735
2445.97	0.7338
2454.84	0.733
2463.71	0.7348
2472.59	0.7376
2481.46	0.7414
2490.33	0.7483
2499.2	0.7509
2508.07	0.7527
2516.94	0.752
2525.81	0.75
2534.68	0.7478
2543.55	0.7424
2552.42	0.7367
2561.3	0.7301
2570.17	0.7275
2579.04	0.725
2587.91	0.725
2596.78	0.7246
2605.65	0.725
2614.52	0.725
2623.39	0.725
2632.26	0.7258
2641.13	0.726
2650.01	0.726
2658.88	0.7259
2667.75	0.725
2676.62	0.725
2685.49	0.7235
2694.36	0.7217
2703.23	0.7199
2712.1	0.7181
2720.97	0.717
2729.84	0.716
2738.72	0.716
2747.59	0.717
2756.46	0.717
2765.33	0.717
2774.2	0.718
2783.07	0.7188
2791.94	0.717
2800.81	0.7162
2809.68	0.7145
2818.55	0.713
2827.43	0.709
2836.3	0.7081
2845.17	0.707
2854.04	0.7045
2862.91	0.7037
2871.78	0.7009
2880.65	0.7
2889.52	0.6967
2898.39	0.6946
2907.26	0.692
2916.14	0.691
2925.01	0.6874
2933.88	0.6713
2942.75	0.6568
2951.62	0.643
2960.49	0.66
2969.36	0.6583
2978.23	0.654
2987.1	0.6484
2995.97	0.6428
3004.85	0.6301
3013.72	0.6187
3022.59	0.6155
3031.46	0.6102
3040.33	0.5946
3049.2	0.566
3058.07	0.559
3066.94	0.5551
3075.81	0.5402
3084.68	0.527
3093.56	0.516
3102.43	0.516
3111.3	0.517
3120.17	0.5169
3129.04	0.516
3137.91	0.5126
3146.78	0.5085
3155.65	0.5009
3164.52	0.4874
3173.39	0.472
3182.27	0.4563
3191.14	0.4423
3200.01	0.4283
3208.88	0.4087
3217.75	0.3882
3226.62	0.3736
3235.49	0.3632
3244.36	0.3485
3253.23	0.3312
3262.1	0.3172
3270.98	0.3042
3279.85	0.2899
3288.72	0.2752
3297.59	0.2594
3306.46	0.2489
3315.33	0.2285
3324.2	0.2164
3333.07	0.2019
3341.94	0.1927
3350.81	0.1857
3359.69	0.1754
3368.56	0.1613
3377.43	0.1539
3386.3	0.1492
3395.17	0.1454
3404.04	0.144
3412.91	0.145
3421.78	0.147
3430.65	0.149
3439.52	0.1515
3448.4	0.1567
3457.27	0.1643
3466.14	0.1823
3475.01	0.2043
3483.88	0.2309
3492.75	0.2477
3501.62	0.2757
3510.49	0.3155
3519.36	0.3473
3528.23	0.3765
3537.11	0.4068
3545.98	0.4451
3554.85	0.4651
3563.72	0.4963
3572.59	0.5412
3581.46	0.5782
3590.33	0.6096
3599.2	0.6332
3608.07	0.6558
3616.94	0.6746
3625.82	0.6849
3634.69	0.6949
3643.56	0.7112
3652.43	0.7264
3661.3	0.7363
3670.17	0.7441
3679.04	0.757
3687.91	0.763
3696.78	0.7654
3705.65	0.766
3714.53	0.767
3723.4	0.769
3732.27	0.77
3741.14	0.772
3750.01	0.7732
3758.88	0.774
3767.75	0.775
3776.62	0.7765
3785.49	0.778
3794.36	0.778
3803.24	0.779
3812.11	0.7807
3820.98	0.7815
3829.85	0.782
3838.72	0.781
3847.59	0.781
3856.46	0.781
3865.33	0.781
3874.2	0.7808
3883.07	0.78
3891.95	0.78
3900.82	0.779
3909.69	0.779
3918.56	0.7789
3927.43	0.778
3936.3	0.778
3945.17	0.778
3954.04	0.778
3962.91	0.7769
3971.78	0.7751
