Infrared Spectrum: 1,3,5-TRIETHYL BENZENE
Formula: C12 H18
CAS: 102-25-0
State: LIQUID
Class: COBLENTZ
Instrument: PERKIN-ELMER
Sampling: TRANSMISSION
Path length: 0.0025 CM
Resolution: 4
Origin: STANDARD OIL OF OHIO
1/CM	TRANSMITTANCE
585.859	0.616
594.277	0.609
602.694	0.616
611.112	0.625
619.529	0.64
627.947	0.653
636.364	0.679
644.782	0.701
653.199	0.712
661.617	0.731
670.034	0.731
678.452	0.721
686.869	0.625
695.287	0.2655
703.704	0.331
712.122	0.6988
720.539	0.785
728.957	0.815
737.374	0.831
745.792	0.837
754.209	0.834
762.627	0.817
771.044	0.775
779.462	0.7609
787.879	0.839
796.297	0.861
804.714	0.863
813.132	0.861
821.549	0.853
829.967	0.837
838.384	0.809
846.802	0.6555
855.219	0.114
863.637	0.1595
872.054	0.385
880.472	0.4217
888.889	0.731
897.307	0.837
905.724	0.868
914.142	0.88
922.56	0.883
930.977	0.885
939.395	0.881
947.812	0.878
956.23	0.876
964.647	0.876
973.065	0.876
981.482	0.868
989.9	0.846
998.317	0.842
1006.73	0.849
1015.15	0.844
1023.57	0.837
1031.99	0.819
1040.4	0.768
1048.82	0.6264
1057.24	0.56
1065.66	0.4788
1074.07	0.731
1082.49	0.81
1090.91	0.844
1099.33	0.859
1107.74	0.868
1116.16	0.869
1124.58	0.869
1133	0.869
1141.41	0.866
1149.83	0.844
1158.25	0.859
1166.67	0.878
1175.08	0.876
1183.5	0.876
1191.92	0.871
1200.34	0.864
1208.75	0.858
1217.17	0.847
1225.59	0.839
1234.01	0.826
1242.42	0.807
1250.84	0.795
1259.26	0.783
1267.68	0.77
1276.1	0.751
1284.51	0.741
1292.93	0.722
1301.35	0.5724
1309.77	0.56
1318.18	0.6799
1326.6	0.763
1335.02	0.783
1343.44	0.77
1351.85	0.6672
1360.27	0.467
1368.69	0.6138
1377.11	0.712
1385.52	0.721
1393.94	0.709
1402.36	0.667
1410.78	0.619
1419.19	0.5592
1427.61	0.505
1436.03	0.3641
1444.45	0.189
1452.86	0.045
1461.28	0.3
1469.7	0.55
1478.12	0.67
1486.53	0.739
1494.95	0.763
1503.37	0.798
1511.79	0.831
1520.2	0.846
1528.62	0.854
1537.04	0.861
1545.46	0.859
1553.87	0.842
1562.29	0.822
1570.71	0.7562
1579.13	0.638
1587.54	0.355
1595.96	0.145
1604.38	0.2218
1612.8	0.662
1621.21	0.773
1629.63	0.832
1638.05	0.851
1646.47	0.869
1654.88	0.873
1663.3	0.88
1671.72	0.883
1680.14	0.885
1688.55	0.888
1696.97	0.886
1705.39	0.883
1713.81	0.875
1722.22	0.869
1730.64	0.849
1739.06	0.7832
1747.48	0.741
1755.89	0.815
1764.31	0.782
1772.73	0.782
1781.15	0.851
1789.56	0.891
1797.98	0.903
1806.4	0.912
1814.82	0.912
1823.23	0.912
1831.65	0.912
1840.07	0.908
1848.49	0.907
1856.9	0.91
1865.32	0.912
1873.74	0.913
1882.16	0.913
1890.57	0.913
1898.99	0.913
1907.41	0.908
1915.83	0.907
1924.24	0.905
1932.66	0.902
1941.08	0.902
1949.5	0.902
1957.91	0.907
1966.33	0.912
1974.75	0.913
1983.17	0.912
1991.58	0.905
2000	0.907
2008.42	0.905
2016.84	0.903
2025.25	0.902
2033.67	0.902
2042.09	0.902
2050.51	0.907
2058.92	0.908
2067.34	0.91
2075.76	0.912
2084.18	0.913
2092.59	0.913
2101.01	0.913
2109.43	0.91
2117.85	0.908
2126.26	0.907
2134.68	0.905
2143.1	0.903
2151.52	0.902
2159.93	0.902
2168.35	0.907
2176.77	0.908
2185.19	0.91
2193.6	0.907
2202.02	0.902
2210.44	0.9
2218.86	0.896
2227.27	0.896
2235.69	0.896
2244.11	0.9
2252.53	0.905
2260.94	0.91
2269.36	0.913
2277.78	0.91
2286.2	0.908
2294.61	0.905
2303.03	0.902
2311.45	0.902
2319.87	0.902
2328.28	0.902
2336.7	0.902
2345.12	0.902
2353.54	0.902
2361.95	0.902
2370.37	0.902
2378.79	0.903
2387.21	0.902
2395.62	0.902
2404.04	0.903
2412.46	0.902
2420.88	0.895
2429.29	0.891
2437.71	0.893
2446.13	0.896
2454.55	0.902
2462.96	0.9
2471.38	0.902
2479.8	0.905
2488.22	0.9
2496.63	0.898
2505.05	0.893
2513.47	0.893
2521.89	0.893
2530.3	0.895
2538.72	0.898
2547.14	0.902
2555.56	0.903
2563.97	0.903
2572.39	0.902
2580.81	0.9
2589.23	0.893
2597.64	0.885
2606.06	0.886
2614.48	0.885
2622.9	0.881
2631.31	0.883
2639.73	0.883
2648.15	0.881
2656.57	0.885
2664.98	0.886
2673.4	0.885
2681.82	0.88
2690.24	0.878
2698.65	0.873
2707.07	0.854
2715.49	0.844
2723.91	0.819
2732.32	0.832
2740.74	0.847
2749.16	0.837
2757.58	0.822
2765.99	0.814
2774.41	0.802
2782.83	0.788
2791.25	0.773
2799.66	0.758
2808.08	0.746
2816.5	0.721
2824.92	0.641
2833.33	0.5521
2841.75	0.434
2850.17	0.2822
2858.59	0.116
2867	0.097
2875.42	0.062
2883.84	0.1089
2892.26	0.108
2900.67	0.111
2909.09	0.111
2917.51	0.069
2925.93	0.033
2934.34	0.018
2942.76	0.042
2951.18	0.0571
2959.6	0.016
2968.02	0.015
2976.43	0.028
2984.85	0.136
2993.27	0.285
3001.69	0.3321
3010.1	0.234
3018.52	0.19
3026.94	0.341
3035.36	0.5319
3043.77	0.631
3052.19	0.653
3060.61	0.668
3069.03	0.743
3077.44	0.812
3085.86	0.842
3094.28	0.851
3102.7	0.854
3111.11	0.854
3119.53	0.853
3127.95	0.849
3136.37	0.846
3144.78	0.841
3153.2	0.839
3161.62	0.841
3170.04	0.851
3178.45	0.859
3186.87	0.868
3195.29	0.869
3203.71	0.871
3212.12	0.876
3220.54	0.88
3228.96	0.883
3237.38	0.883
3245.79	0.885
3254.21	0.888
3262.63	0.89
3271.05	0.89
3279.46	0.89
3287.88	0.891
3296.3	0.893
3304.72	0.893
3313.13	0.893
3321.55	0.893
3329.97	0.893
3338.39	0.893
3346.8	0.893
3355.22	0.893
3363.64	0.893
3372.06	0.893
3380.47	0.893
3388.89	0.893
3397.31	0.893
3405.73	0.893
3414.14	0.895
3422.56	0.893
3430.98	0.893
3439.4	0.893
3447.81	0.893
3456.23	0.893
3464.65	0.891
3473.07	0.891
3481.48	0.891
3489.9	0.891
3498.32	0.891
3506.74	0.89
3515.15	0.89
3523.57	0.891
3531.99	0.891
3540.41	0.893
3548.82	0.893
3557.24	0.891
3565.66	0.891
3574.08	0.89
3582.49	0.888
3590.91	0.891
3599.33	0.891
3607.75	0.891
3616.16	0.893
3624.58	0.893
3633	0.893
3641.42	0.891
3649.83	0.891
3658.25	0.89
3666.67	0.89
3675.09	0.89
3683.5	0.89
3691.92	0.888
3700.34	0.89
3708.76	0.89
3717.17	0.89
3725.59	0.89
3734.01	0.89
3742.43	0.89
3750.84	0.89
3759.26	0.888
3767.68	0.888
3776.1	0.888
3784.51	0.89
3792.93	0.89
3801.35	0.888
3809.77	0.888
3818.18	0.888
3826.6	0.888
3835.02	0.888
3843.44	0.886
3851.85	0.886
3860.27	0.883
3868.69	0.88
3877.11	0.876
3885.52	0.876
3893.94	0.875
3902.36	0.873
3910.78	0.868
3919.19	0.866
3927.61	0.866
3936.03	0.866
3944.45	0.866
