Infrared Spectrum: ACETIN, TRI-
Formula: C9 H14 O6
CAS: 102-76-1
State: SOLUTION (10% CCl4 FOR 2-7.6, 10% CS2 FOR 7.6-15.9 MICRON)
Class: COBLENTZ III
Instrument: BAIRD (PRISM)
Instrument parameters: NaCl PRISM
Sampling: TRANSMISSION
Path length: 0.011 CM, 0.011 CM
Resolution: 2
Origin: DOW CHEMICAL COMPANY
MICROMETERS	TRANSMITTANCE
1.999	0.898
2.03806	0.899
2.07711	0.897
2.11617	0.899
2.15522	0.894
2.19428	0.877
2.23334	0.872
2.27239	0.881
2.31145	0.877
2.35051	0.881
2.38956	0.895
2.42862	0.892
2.46767	0.895
2.50673	0.898
2.54579	0.9
2.58484	0.906
2.6239	0.902
2.66296	0.898
2.70201	0.884
2.74107	0.876
2.78012	0.858
2.81918	0.838
2.85824	0.81
2.89729	0.859
2.93635	0.864
2.97541	0.871
3.01446	0.88
3.05352	0.882
3.09257	0.884
3.13163	0.894
3.17069	0.894
3.20974	0.871
3.2488	0.859
3.28786	0.802
3.32691	0.72
3.36597	0.613
3.40502	0.796
3.44408	0.84
3.48314	0.873
3.52219	0.898
3.56125	0.9
3.60031	0.902
3.63936	0.899
3.67842	0.903
3.71747	0.909
3.75653	0.908
3.79559	0.903
3.83464	0.903
3.8737	0.908
3.91276	0.915
3.95181	0.915
3.99087	0.903
4.02992	0.893
4.06898	0.893
4.10804	0.9
4.14709	0.902
4.18615	0.897
4.22521	0.893
4.26426	0.893
4.30332	0.9
4.34237	0.898
4.38143	0.894
4.42049	0.905
4.45954	0.906
4.4986	0.904
4.53765	0.909
4.57671	0.908
4.61577	0.902
4.65482	0.898
4.69388	0.891
4.73294	0.889
4.77199	0.873
4.81105	0.884
4.8501	0.883
4.88916	0.881
4.92822	0.883
4.96727	0.897
5.00633	0.898
5.04539	0.898
5.08444	0.898
5.1235	0.895
5.16255	0.894
5.20161	0.877
5.24067	0.869
5.27972	0.866
5.31878	0.858
5.35784	0.839
5.39689	0.82
5.43595	0.793
5.475	0.755
5.51406	0.714
5.55312	0.643
5.59217	0.51
5.63123	0.274
5.67029	0.014
5.70934	0.02
5.7484	0.017
5.78745	0.151
5.82651	0.367
5.86557	0.531
5.90462	0.69
5.94368	0.741
5.98274	0.762
6.02179	0.761
6.06085	0.752
6.0999	0.762
6.13896	0.799
6.17802	0.783
6.21707	0.736
6.25613	0.67
6.29519	0.624
6.33424	0.603
6.3733	0.556
6.41235	0.484
6.45141	0.463
6.49047	0.512
6.52952	0.58
6.56858	0.61
6.60764	0.652
6.64669	0.697
6.68575	0.72
6.7248	0.717
6.76386	0.625
6.80292	0.534
6.84197	0.463
6.88103	0.412
6.92009	0.367
6.95914	0.38
6.9982	0.434
7.03725	0.526
7.07631	0.552
7.11537	0.51
7.15442	0.454
7.19348	0.313
7.23253	0.152
7.27159	0.048
7.31065	0.026
7.3497	0.352
7.38876	0.564
7.42782	0.697
7.46687	0.735
7.50593	0.731
7.54498	0.684
7.58404	0.642
7.6231	0.592
7.66215	0.578
7.70121	0.541
7.74027	0.452
7.77932	0.361
7.81838	0.275
7.85743	0.21
7.89649	0.137
7.93555	0.086
7.9746	0.044
8.01366	0.023
8.05272	0.014
8.09177	0.011
8.13083	0.009
8.16988	0.009
8.20894	0.009
8.248	0.009
8.28705	0.014
8.32611	0.073
8.36517	0.237
8.40422	0.362
8.44328	0.52
8.48233	0.592
8.52139	0.64
8.56045	0.669
8.5995	0.685
8.63856	0.685
8.67762	0.663
8.71667	0.658
8.75573	0.671
8.79478	0.698
8.83384	0.702
8.8729	0.7
8.91195	0.689
8.95101	0.641
8.99007	0.58
9.02912	0.456
9.06818	0.323
9.10723	0.25
9.14629	0.286
9.18535	0.365
9.2244	0.419
9.26346	0.38
9.30252	0.287
9.34157	0.197
9.38063	0.141
9.41968	0.096
9.45874	0.07
9.4978	0.033
9.53685	0.02
9.57591	0.024
9.61496	0.07
9.65402	0.143
9.69308	0.206
9.73213	0.263
9.77119	0.288
9.81025	0.269
9.8493	0.22
9.88836	0.214
9.92741	0.263
9.96647	0.388
10.0055	0.515
10.0446	0.578
10.0836	0.611
10.1227	0.63
10.1618	0.634
10.2008	0.629
10.2399	0.618
10.2789	0.577
10.318	0.532
10.357	0.473
10.3961	0.443
10.4351	0.41
10.4742	0.414
10.5133	0.46
10.5523	0.52
10.5914	0.596
10.6304	0.659
10.6695	0.707
10.7085	0.739
10.7476	0.758
10.7867	0.772
10.8257	0.783
10.8648	0.784
10.9038	0.782
10.9429	0.768
10.9819	0.75
11.021	0.724
11.06	0.702
11.0991	0.686
11.1382	0.669
11.1772	0.649
11.2163	0.632
11.2553	0.623
11.2944	0.62
11.3334	0.621
11.3725	0.623
11.4116	0.629
11.4506	0.624
11.4897	0.614
11.5287	0.593
11.5678	0.572
11.6068	0.561
11.6459	0.548
11.6849	0.542
11.724	0.543
11.7631	0.548
11.8021	0.559
11.8412	0.581
11.8802	0.599
11.9193	0.614
11.9583	0.636
11.9974	0.658
12.0365	0.678
12.0755	0.702
12.1146	0.712
12.1536	0.72
12.1927	0.72
12.2317	0.723
12.2708	0.73
12.3098	0.75
12.3489	0.772
12.388	0.8
12.427	0.821
12.4661	0.832
12.5051	0.845
12.5442	0.853
12.5832	0.859
12.6223	0.86
12.6614	0.862
12.7004	0.862
12.7395	0.862
12.7785	0.862
12.8176	0.862
12.8566	0.867
12.8957	0.871
12.9347	0.872
12.9738	0.872
13.0129	0.873
13.0519	0.872
13.091	0.871
13.13	0.867
13.1691	0.862
13.2081	0.862
13.2472	0.861
13.2863	0.861
13.3253	0.86
13.3644	0.858
13.4034	0.854
13.4425	0.848
13.4815	0.847
13.5206	0.837
13.5596	0.833
13.5987	0.833
13.6378	0.829
13.6768	0.822
13.7159	0.82
13.7549	0.816
13.794	0.812
13.833	0.804
13.8721	0.8
13.9112	0.799
13.9502	0.791
13.9893	0.784
14.0283	0.774
14.0674	0.769
14.1064	0.758
14.1455	0.752
14.1845	0.739
14.2236	0.73
14.2627	0.718
14.3017	0.705
14.3408	0.692
14.3798	0.684
14.4189	0.679
14.4579	0.671
14.497	0.669
14.536	0.659
14.5751	0.652
14.6142	0.647
14.6532	0.64
14.6923	0.63
14.7313	0.619
14.7704	0.618
14.8094	0.611
14.8485	0.61
14.8876	0.607
14.9266	0.603
14.9657	0.604
15.0047	0.599
15.0438	0.589
15.0828	0.581
15.1219	0.565
15.1609	0.553
15.2	0.543
15.2391	0.533
15.2781	0.523
15.3172	0.516
15.3562	0.507
15.3953	0.504
15.4343	0.496
15.4734	0.493
15.5125	0.489
15.5515	0.482
15.5906	0.481
15.6296	0.477
15.6687	0.479
15.7077	0.476
15.7468	0.473
15.7858	0.474
15.8249	0.473
15.864	0.473
15.903	0.473
