Infrared Spectrum: TRIALLYLAMINE
Formula: C9 H15 N
CAS: 102-70-5
State: LIQUID (NEAT)
Class: COBLENTZ III
Instrument: BECKMAN IR-4 (HYBRID PRISM-GRATING)
Sampling: TRANSMISSION
Path length: CAPILLARY
Resolution: 4
Origin: UNIVERSITY OF FLORIDA
MICROMETERS	TRANSMITTANCE
0.969	0.851
1.00564	0.851
1.04227	0.852
1.07891	0.854
1.11554	0.852
1.15218	0.853
1.18881	0.858
1.22545	0.86
1.26208	0.861
1.29872	0.862
1.33535	0.863
1.37199	0.863
1.40862	0.863
1.44526	0.864
1.48189	0.864
1.51853	0.864
1.55516	0.866
1.5918	0.867
1.62843	0.868
1.66507	0.868
1.7017	0.868
1.73834	0.87
1.77497	0.871
1.81161	0.871
1.84824	0.871
1.88488	0.872
1.92151	0.872
1.95815	0.873
1.99478	0.873
2.03142	0.873
2.06805	0.875
2.10469	0.877
2.14132	0.873
2.17796	0.87
2.21459	0.871
2.25123	0.867
2.28786	0.87
2.3245	0.869
2.36113	0.873
2.39777	0.878
2.4344	0.878
2.47104	0.881
2.50767	0.883
2.54431	0.883
2.58094	0.886
2.61758	0.887
2.65421	0.884
2.69085	0.881
2.72748	0.878
2.76412	0.878
2.80075	0.874
2.83739	0.869
2.87402	0.866
2.91066	0.866
2.94729	0.865
2.98393	0.865
3.02056	0.866
3.0572	0.866
3.09383	0.867
3.13047	0.867
3.1671	0.866
3.20374	0.85
3.24037	0.717
3.27701	0.784
3.31364	0.734
3.35028	0.687
3.38691	0.768
3.42355	0.669
3.46018	0.729
3.49682	0.729
3.53346	0.558
3.57009	0.558
3.60673	0.7
3.64336	0.823
3.68	0.831
3.71663	0.846
3.75327	0.868
3.7899	0.871
3.82654	0.875
3.86317	0.881
3.89981	0.888
3.93644	0.89
3.97308	0.891
4.00971	0.891
4.04635	0.891
4.08298	0.891
4.11962	0.89
4.15625	0.89
4.19289	0.898
4.22952	0.9
4.26616	0.897
4.30279	0.895
4.33943	0.895
4.37606	0.893
4.4127	0.893
4.44933	0.893
4.48597	0.893
4.5226	0.892
4.55924	0.892
4.59587	0.892
4.63251	0.893
4.66914	0.892
4.70578	0.892
4.74241	0.893
4.77905	0.893
4.81568	0.891
4.85232	0.891
4.88895	0.891
4.92559	0.89
4.96222	0.887
4.99886	0.876
5.03549	0.882
5.07213	0.89
5.10876	0.89
5.1454	0.889
5.18203	0.889
5.21867	0.886
5.2553	0.883
5.29194	0.879
5.32857	0.87
5.36521	0.852
5.40184	0.835
5.43848	0.838
5.47511	0.867
5.51175	0.886
5.54838	0.889
5.58502	0.888
5.62165	0.881
5.65829	0.881
5.69492	0.878
5.73156	0.871
5.76819	0.869
5.80483	0.867
5.84146	0.868
5.8781	0.866
5.91473	0.85
5.95137	0.839
5.988	0.795
6.02464	0.753
6.06128	0.674
6.09791	0.685
6.13455	0.839
6.17118	0.861
6.20782	0.866
6.24445	0.868
6.28109	0.871
6.31772	0.873
6.35436	0.871
6.39099	0.873
6.42763	0.878
6.46426	0.881
6.5009	0.883
6.53753	0.882
6.57417	0.878
6.6108	0.871
6.64744	0.869
6.68407	0.867
6.72071	0.86
6.75734	0.842
6.79398	0.82
6.83061	0.764
6.86725	0.695
6.90388	0.646
6.94052	0.686
6.97715	0.709
7.01379	0.644
7.05042	0.608
7.08706	0.734
7.12369	0.765
7.16033	0.828
7.19696	0.837
7.2336	0.82
7.27023	0.782
7.30687	0.759
7.3435	0.716
7.38014	0.689
7.41677	0.75
7.45341	0.751
7.49004	0.756
7.52668	0.793
7.56331	0.808
7.59995	0.811
7.63658	0.821
7.67322	0.819
7.70985	0.793
7.74649	0.791
7.78312	0.783
7.81976	0.768
7.85639	0.741
7.89303	0.718
7.92966	0.65
7.9663	0.68
8.00293	0.764
8.03957	0.797
8.0762	0.822
8.11284	0.848
8.14947	0.853
8.18611	0.859
8.22274	0.859
8.25938	0.858
8.29601	0.855
8.33265	0.848
8.36928	0.846
8.40592	0.836
8.44255	0.822
8.47919	0.807
8.51582	0.779
8.55246	0.727
8.5891	0.7
8.62573	0.679
8.66237	0.656
8.699	0.633
8.73564	0.641
8.77227	0.677
8.80891	0.703
8.84554	0.712
8.88218	0.704
8.91881	0.685
8.95545	0.671
8.99208	0.662
9.02872	0.626
9.06535	0.649
9.10199	0.698
9.13862	0.733
9.17526	0.744
9.21189	0.744
9.24853	0.729
9.28516	0.705
9.3218	0.689
9.35843	0.712
9.39507	0.744
9.4317	0.76
9.46834	0.77
9.50497	0.776
9.54161	0.782
9.57824	0.791
9.61488	0.8
9.65151	0.814
9.68815	0.815
9.72478	0.817
9.76142	0.815
9.79805	0.806
9.83469	0.8
9.87132	0.781
9.90796	0.746
9.94459	0.697
9.98123	0.611
10.0179	0.429
10.0545	0.399
10.0911	0.478
10.1278	0.588
10.1644	0.611
10.201	0.613
10.2377	0.592
10.2743	0.588
10.3109	0.633
10.3476	0.685
10.3842	0.704
10.4208	0.724
10.4575	0.727
10.4941	0.732
10.5308	0.74
10.5674	0.74
10.604	0.729
10.6407	0.71
10.6773	0.674
10.7139	0.612
10.7506	0.531
10.7872	0.44
10.8238	0.3
10.8605	0.2
10.8971	0.165
10.9337	0.208
10.9704	0.322
11.007	0.448
11.0436	0.568
11.0803	0.649
11.1169	0.724
11.1536	0.765
11.1902	0.793
11.2268	0.816
11.2635	0.828
11.3001	0.837
11.3367	0.846
11.3734	0.846
11.41	0.844
11.4466	0.836
11.4833	0.831
11.5199	0.816
11.5565	0.801
11.5932	0.802
11.6298	0.807
11.6664	0.806
11.7031	0.801
11.7397	0.798
11.7763	0.798
11.813	0.799
11.8496	0.803
11.8863	0.813
11.9229	0.823
11.9595	0.831
11.9962	0.841
12.0328	0.848
12.0694	0.853
12.1061	0.858
12.1427	0.862
12.1793	0.865
12.216	0.866
12.2526	0.867
12.2892	0.867
12.3259	0.867
12.3625	0.867
12.3991	0.867
12.4358	0.867
12.4724	0.867
12.509	0.867
12.5457	0.867
12.5823	0.867
12.619	0.867
12.6556	0.867
12.6922	0.867
12.7289	0.866
12.7655	0.866
12.8021	0.866
12.8388	0.866
12.8754	0.865
12.912	0.865
12.9487	0.864
12.9853	0.864
13.0219	0.864
13.0586	0.863
13.0952	0.862
13.1318	0.858
13.1685	0.856
13.2051	0.856
13.2417	0.855
13.2784	0.854
13.315	0.851
13.3517	0.849
13.3883	0.847
13.4249	0.843
13.4616	0.841
13.4982	0.84
13.5348	0.84
13.5715	0.839
13.6081	0.838
13.6447	0.836
13.6814	0.83
13.718	0.827
13.7546	0.827
13.7913	0.821
13.8279	0.819
13.8645	0.817
13.9012	0.818
13.9378	0.813
13.9745	0.808
14.0111	0.806
14.0477	0.801
14.0844	0.801
14.121	0.799
14.1576	0.795
14.1943	0.792
14.2309	0.789
14.2675	0.781
14.3042	0.779
14.3408	0.777
14.3774	0.772
14.4141	0.769
14.4507	0.76
14.4873	0.756
14.524	0.751
14.5606	0.748
14.5972	0.745
14.6339	0.739
14.6705	0.731
14.7072	0.728
14.7438	0.725
14.7804	0.722
14.8171	0.716
14.8537	0.712
14.8903	0.709
14.927	0.71
14.9636	0.71
15.0002	0.708
