Infrared Spectrum: Triethanolamine
Formula: C 6 H 15 N O 3
CAS: 102-71-6
State: liquid
Instrument: Bruker Tensor 27 FTIR
Resolution: 0.4821395
Origin: Pacific Northwest National Laboratory Under IARPA Contract
1/cm	dispersion index
7797.62	1.46643
7779.06	1.46644
7760.5	1.46641
7741.94	1.46639
7723.38	1.46636
7704.81	1.46633
7686.25	1.4663
7667.69	1.46627
7649.13	1.46623
7630.57	1.4662
7612.01	1.46617
7593.44	1.46613
7574.88	1.4661
7556.32	1.46606
7537.76	1.46603
7519.2	1.46599
7500.64	1.46595
7482.07	1.4659
7463.51	1.46586
7444.95	1.46581
7426.39	1.46576
7407.83	1.46571
7389.26	1.46567
7370.7	1.46562
7352.14	1.46557
7333.58	1.46553
7315.02	1.46548
7296.46	1.46544
7277.89	1.46539
7259.33	1.46535
7240.77	1.4653
7222.21	1.46525
7203.65	1.4652
7185.09	1.46514
7166.52	1.46509
7147.96	1.46503
7129.4	1.46497
7110.84	1.46491
7092.28	1.46485
7073.71	1.46479
7055.15	1.46473
7036.59	1.46466
7018.03	1.4646
6999.47	1.46453
6980.91	1.46446
6962.34	1.46439
6943.78	1.46431
6925.22	1.46423
6906.66	1.46414
6888.1	1.46405
6869.54	1.46395
6850.97	1.46385
6832.41	1.46375
6813.85	1.46368
6795.29	1.4636
6776.73	1.46353
6758.16	1.46344
6739.6	1.46333
6721.04	1.46324
6702.48	1.46313
6683.92	1.46302
6665.36	1.4629
6646.79	1.46278
6628.23	1.46265
6609.67	1.46252
6591.11	1.46238
6572.55	1.46224
6553.99	1.46209
6535.42	1.46193
6516.86	1.46177
6498.3	1.46161
6479.74	1.46143
6461.18	1.46125
6442.61	1.46106
6424.05	1.46086
6405.49	1.46064
6386.93	1.46041
6368.37	1.46017
6349.81	1.45992
6331.24	1.4597
6312.68	1.45952
6294.12	1.45935
6275.56	1.45915
6257	1.45893
6238.44	1.45867
6219.87	1.45839
6201.31	1.45808
6182.75	1.45773
6164.19	1.45735
6145.63	1.45692
6127.06	1.45642
6108.5	1.4559
6089.94	1.45563
6071.38	1.45543
6052.82	1.45498
6034.26	1.45447
6015.69	1.45391
5997.13	1.4533
5978.57	1.45264
5960.01	1.45186
5941.45	1.45109
5922.89	1.45019
5904.32	1.44942
5885.76	1.44863
5867.2	1.44761
5848.64	1.44633
5830.08	1.44479
5811.51	1.44302
5792.95	1.44091
5774.39	1.4384
5755.83	1.43535
5737.27	1.43149
5718.71	1.4262
5700.14	1.41904
5681.58	1.40902
5663.02	1.39718
5644.46	1.38788
5625.9	1.38934
5607.34	1.40531
5588.77	1.42918
5570.21	1.45416
5551.65	1.47581
5533.09	1.49124
5514.53	1.50092
5495.96	1.50407
5477.4	1.50227
5458.84	1.49688
5440.28	1.48897
5421.72	1.47855
5403.16	1.4625
5384.59	1.43238
5366.03	1.47557
5347.47	1.47354
5328.91	1.49971
5310.35	1.50355
5291.79	1.52491
5273.22	1.51038
5254.66	1.50584
5236.1	1.50216
5217.54	1.49819
5198.98	1.49475
5180.41	1.4919
5161.85	1.48947
5143.29	1.48757
5124.73	1.48581
5106.17	1.48429
5087.61	1.48248
5069.04	1.48069
5050.48	1.47901
5031.92	1.47762
5013.36	1.47613
4994.8	1.47452
4976.24	1.47298
4957.67	1.4717
4939.11	1.47063
4920.55	1.46956
4901.99	1.46784
4883.43	1.46597
4864.86	1.46489
4846.3	1.46357
4827.74	1.46168
4809.18	1.45934
4790.62	1.457
4772.06	1.45481
4753.49	1.45186
4734.93	1.44821
4716.37	1.4444
4697.81	1.43898
4679.25	1.43153
4660.69	1.41916
4642.12	1.39252
4623.56	1.42876
4605	1.44008
4586.44	1.44883
4567.88	1.4586
4549.31	1.45004
4530.75	1.46011
4512.19	1.45906
4493.63	1.44934
4475.07	1.42604
4456.51	1.38358
4437.94	1.33279
4419.38	1.4626
4400.82	1.63499
4382.26	1.54875
4363.7	1.49504
4345.14	1.48066
4326.57	1.54475
4308.01	1.50274
4289.45	1.48368
4270.89	1.47393
4252.33	1.49062
4233.76	1.49248
4215.2	1.50373
4196.64	1.5163
4178.08	1.53825
4159.52	1.57595
4140.96	1.57999
4122.39	1.58363
4103.83	1.61264
4085.27	0.000144253
4066.71	0.000140709
4048.15	0.000138685
4029.58	0.000137167
4011.02	0.000135648
3992.46	0.000133117
3973.9	0.000129575
3955.34	0.000126031
3936.78	0.000122995
3918.21	0.00012097
3899.65	0.000119957
3881.09	0.000119957
3862.53	0.000118439
3843.97	0.000110341
3825.41	9.36381e-05
3806.84	6.88356e-05
3788.28	4.22638e-05
3769.72	2.89014e-05
3751.16	2.42439e-05
3732.6	4.55529e-05
3714.03	6.07377e-05
3695.47	8.80694e-05
3676.91	0.000119957
3658.35	0.000151845
3639.79	0.000192843
3621.23	0.000218657
3602.66	0.000252568
3584.1	0.000268766
3565.54	0.000279395
3546.98	0.000283951
3528.42	0.000283443
3509.86	0.000278382
3491.29	0.000271297
3472.73	0.000264717
3454.17	0.000260668
3435.61	0.000262692
3417.05	0.000269778
3398.48	0.000290023
3379.92	0.000309257
3361.36	0.00031938
3342.8	0.000318368
3324.24	0.000306726
3305.68	0.000285974
3287.11	0.000260161
3268.55	0.000231311
3249.99	0.000203472
3231.43	0.000179684
3212.87	0.000161968
3194.31	0.00015387
3175.74	0.000157919
3157.18	0.00021309
3138.62	0.000310775
3120.06	0.000454017
3101.5	0.000505644
3082.93	0.000531457
3064.37	0.000468189
3045.81	0.000420611
3027.25	0.000420611
3008.69	0.000381638
2990.13	0.000337601
2971.56	0.000292554
2953	0.000261679
2934.44	0.000234853
2915.88	0.000212583
2897.32	0.000194867
2878.76	0.000182215
2860.19	0.000174622
2841.63	0.000171079
2823.07	0.000171584
2804.51	0.00017614
2785.95	0.000183226
2767.38	0.000193856
2748.82	0.000208028
2730.26	0.000228273
2711.7	0.000263704
2693.14	0.00032596
2674.58	0.000468694
2656.01	0.000738978
2637.45	0.0012097
2618.89	0.0016045
2600.33	0.00181708
2581.77	0.00183732
2563.21	0.00176646
2544.64	0.00168548
2526.08	0.00154376
2507.52	0.00142228
2488.96	0.00128056
2470.4	0.00119451
2451.83	0.00116415
2433.27	0.00127044
2414.71	0.00200435
2396.15	0.00358354
2377.59	0.00376575
2359.03	0.00329503
2340.46	0.00294073
2321.9	0.00295592
2303.34	0.00286987
2284.78	0.00287999
2266.22	0.00291036
2247.66	0.0033254
2229.09	0.00373538
2210.53	0.00478818
2191.97	0.00511211
2173.41	0.00445918
2154.85	0.00374551
2136.28	0.00316344
2117.72	0.00279395
2099.16	0.00261679
2080.6	0.00268259
2062.04	0.00302171
2043.48	0.0037202
2024.91	0.00511211
2006.35	0.0113378
1987.79	0.0254593
1969.23	0.0668118
1950.67	0.150326
1932.11	0.27737
1913.54	0.405932
1894.98	0.488435
1876.42	0.516273
1857.86	0.490459
1839.3	0.433264
1820.73	0.359872
1802.17	0.281419
1783.61	0.210558
1765.05	0.152857
1746.49	0.109835
1727.93	0.080984
1709.36	0.0657995
1690.8	0.117427
1672.24	0.354305
1653.68	0.274839
1635.12	0.331022
1616.56	0.286481
1597.99	0.224731
1579.43	0.104267
1560.87	0.0895885
1542.31	0.0637749
1523.75	0.0484385
1505.18	0.0384168
1486.62	0.0319887
1468.06	0.0278382
1449.5	0.0247507
1430.94	0.0216126
1412.38	0.0183732
1393.81	0.0146277
1375.25	0.0121982
1356.69	0.0111353
1338.13	0.0103761
1319.57	0.00926254
1301.01	0.00825024
1282.44	0.00895885
1263.88	0.0100218
1245.32	0.0110847
1226.76	0.0104773
1208.2	0.00855393
1189.63	0.009465
1171.07	0.0129574
1152.51	0.0119957
1133.95	0.00997115
1115.39	0.0102748
1096.83	0.0117427
1078.26	0.0146277
1059.7	0.014729
1041.14	0.0168042
1022.58	0.0213089
1004.02	0.0242952
985.455	0.0307233
966.894	0.0436807
948.332	0.0956623
929.77	0.367971
911.208	0.320899
892.647	0.288505
874.085	0.281419
855.523	0.231817
836.961	0.279901
818.399	0.229286
799.838	0.173103
781.276	0.238903
762.714	0.139191
744.152	0.718733
725.591	1.0123
707.029	0.663056
688.467	0.160956
669.905	0.129068
651.344	0.376575
632.782	0.272815
614.22	0.124007
595.658	0.194362
577.096	0.262692
558.535	0.345194
539.973	0.397834
521.411	0.461102
502.849	0.504125
484.288	0.551703
465.726	0.561826
447.164	0.406944
428.602	0.360379
410.041	0.35228
