Infrared Spectrum: Glycerol diacetate
Formula: C7 H12 O5
CAS: 102-62-5
State: LIQUID (NEAT)
Class: COBLENTZ III
Instrument: DOW KBr FOREPRISM-GRATING
Instrument parameters: BLAZED AT 3.5, 12.0, 20.0 MICRON AND CHANGED AT 5.0, 7.5, 14.9 MICRON
Sampling: TRANSMISSION
Path length: CAPILLARY
Resolution: 2
Origin: DOW CHEMICAL COMPANY
1/CM	TRANSMITTANCE
3792	0.8294
3783	0.8296
3774	0.8298
3765	0.8292
3756	0.8289
3747	0.8287
3738	0.8287
3729	0.8287
3720	0.8287
3711	0.8289
3702	0.8293
3693	0.8293
3684	0.8292
3675	0.8281
3666	0.8245
3657	0.8207
3648	0.8141
3639	0.8069
3630	0.7976
3621	0.7874
3612	0.7755
3603	0.7618
3594	0.7475
3585	0.7335
3576	0.7151
3567	0.6831
3558	0.6346
3549	0.5902
3540	0.5582
3531	0.5322
3522	0.5101
3513	0.4926
3504	0.4757
3495	0.4589
3486	0.4428
3477	0.428
3468	0.4191
3459	0.4123
3450	0.4076
3441	0.4049
3432	0.4032
3423	0.4034
3414	0.4048
3405	0.4074
3396	0.4112
3387	0.4167
3378	0.4236
3369	0.4316
3360	0.4417
3351	0.4529
3342	0.4668
3333	0.4799
3324	0.492
3315	0.5042
3306	0.5165
3297	0.5289
3288	0.5412
3279	0.5536
3270	0.5659
3261	0.5785
3252	0.5912
3243	0.6033
3234	0.6153
3225	0.6273
3216	0.641
3207	0.6548
3198	0.6672
3189	0.6797
3180	0.6917
3171	0.7022
3162	0.713
3153	0.7225
3144	0.7315
3135	0.7404
3126	0.7465
3117	0.7521
3108	0.7571
3099	0.7614
3090	0.7644
3081	0.7668
3072	0.7686
3063	0.7695
3054	0.7701
3045	0.7706
3036	0.7714
3027	0.7711
3018	0.7653
3009	0.7583
3000	0.7501
2991	0.7401
2982	0.7242
2973	0.7061
2964	0.6724
2955	0.6297
2946	0.607
2937	0.6159
2928	0.6312
2919	0.6461
2910	0.6603
2901	0.6733
2892	0.6812
2883	0.6864
2874	0.695
2865	0.7087
2856	0.7255
2847	0.7408
2838	0.7561
2829	0.7711
2820	0.7836
2811	0.7946
2802	0.8041
2793	0.8118
2784	0.8161
2775	0.8194
2766	0.8211
2757	0.8228
2748	0.8242
2739	0.8257
2730	0.8278
2721	0.8302
2712	0.8323
2703	0.8343
2694	0.8362
2685	0.8381
2676	0.8403
2667	0.8425
2658	0.8437
2649	0.8448
2640	0.8459
2631	0.8467
2622	0.8475
2613	0.8481
2604	0.8485
2595	0.8488
2586	0.8492
2577	0.8495
2568	0.8499
2559	0.8532
2550	0.8561
2541	0.8581
2532	0.8599
2523	0.8615
2514	0.8623
2505	0.8628
2496	0.8634
2487	0.8636
2478	0.8636
2469	0.8643
2460	0.8656
2451	0.8668
2442	0.8683
2433	0.8696
2424	0.871
2415	0.8721
2406	0.8735
2397	0.8746
2388	0.8758
2379	0.8768
2370	0.8777
2361	0.8787
2352	0.8798
2343	0.8811
2334	0.8827
2325	0.883
2316	0.8805
2307	0.8768
2298	0.8765
2289	0.8766
2280	0.8771
2271	0.8778
2262	0.8785
2253	0.8792
2244	0.8801
2235	0.881
2226	0.8821
2217	0.8837
2208	0.8851
2199	0.8854
2190	0.8846
2181	0.884
2172	0.8898
2163	0.8867
2154	0.8821
2145	0.8821
2136	0.882
2127	0.8815
2118	0.8812
2109	0.8807
2100	0.8804
2091	0.8802
2082	0.88
2073	0.8801
2064	0.8809
2055	0.8817
2046	0.8821
2037	0.8814
2028	0.8777
2019	0.8814
2010	0.886
2001	0.8853
1992	0.8842
1983	0.883
1974	0.8831
1965	0.8833
1956	0.8799
1947	0.8615
1938	0.8731
1929	0.8754
1920	0.8748
1911	0.8735
1902	0.8712
1893	0.8691
1884	0.8675
1875	0.8655
1866	0.8631
1857	0.8596
1848	0.8564
1839	0.8525
1830	0.8467
1821	0.8394
1812	0.8305
1803	0.8158
1794	0.7958
1785	0.7686
1776	0.7385
1767	0.655
1758	0.3924
1749	0.1494
1740	0.0568
1731	0.0485
1722	0.068
1713	0.1114
1704	0.2144
1695	0.4759
1686	0.6128
1677	0.7095
1668	0.7487
1659	0.7558
1650	0.7514
1641	0.7582
1632	0.773
1623	0.7921
1614	0.8121
1605	0.824
1596	0.834
1587	0.8391
1578	0.838
1569	0.8396
1560	0.8385
1551	0.8311
1542	0.8271
1533	0.8251
1524	0.8215
1515	0.8145
1506	0.7943
1497	0.7906
1488	0.7828
1479	0.7472
1470	0.6915
1461	0.5671
1452	0.555
1443	0.531
1434	0.5194
1425	0.5503
1416	0.5696
1407	0.5565
1398	0.4766
1389	0.3904
1380	0.2979
1371	0.2369
1362	0.4226
1353	0.6042
1344	0.6511
1335	0.6531
1326	0.6306
1317	0.6099
1308	0.577
1299	0.5131
1290	0.4012
1281	0.2471
1272	0.1807
1263	0.1329
1254	0.1098
1245	0.0892
1236	0.0736
1227	0.0676
1218	0.0904
1209	0.274
1200	0.4933
1191	0.633
1182	0.6992
1173	0.7399
1164	0.7615
1155	0.7635
1146	0.7484
1137	0.694
1128	0.6262
1119	0.5601
1110	0.541
1101	0.5367
1092	0.544
1083	0.5657
1074	0.5138
1065	0.3938
1056	0.2739
1047	0.1798
1038	0.2235
1029	0.3505
1020	0.465
1011	0.5538
1002	0.6262
993	0.6861
984	0.6851
975	0.6634
966	0.6612
957	0.666
948	0.6675
939	0.6749
930	0.6993
921	0.736
912	0.7608
903	0.7649
894	0.7695
885	0.7815
876	0.7915
867	0.7801
858	0.7747
849	0.7749
840	0.7771
831	0.7912
822	0.8256
813	0.8543
804	0.8721
795	0.8815
786	0.8844
777	0.8843
768	0.8824
759	0.8787
750	0.8749
741	0.871
732	0.867
723	0.8616
714	0.8521
705	0.8396
696	0.8221
687	0.8041
678	0.79
669	0.784
660	0.795
651	0.7874
642	0.7699
633	0.7526
624	0.7401
615	0.711
606	0.6301
597	0.6607
588	0.706
579	0.7347
570	0.7434
561	0.7434
552	0.7365
543	0.7349
534	0.7354
525	0.7342
516	0.7332
507	0.7269
498	0.7228
489	0.7234
480	0.7286
471	0.7286
462	0.7153
453	0.7107
444	0.7101
435	0.7094
426	0.709
417	0.7086
408	0.7099
399	0.711
