Infrared Spectrum: Butyl phosphite
Formula: C12 H27 O3 P
CAS: 102-85-2
State: LIQUID (NEAT)
Class: COBLENTZ III
Instrument: BAIRD (PRISM)
Instrument parameters: NaCl PRISM
Sampling: TRANSMISSION
Path length: 0.003 CM
Resolution: 2
Origin: WYANDOTTE CHEMICALS CORP.
1/CM	TRANSMITTANCE
627	0.702
636	0.7293
645	0.7591
654	0.7833
663	0.7875
672	0.8
681	0.7722
690	0.6991
699	0.52
708	0.3067
717	0.1798
726	0.188
735	0.243
744	0.3059
753	0.2634
762	0.1785
771	0.0953
780	0.103
789	0.1771
798	0.2587
807	0.2602
816	0.3558
825	0.5538
834	0.5916
843	0.6881
852	0.6229
861	0.3935
870	0.1649
879	0.0922
888	0.2038
897	0.4739
906	0.4492
915	0.6248
924	0.6559
933	0.5632
942	0.1956
951	0.0313
960	0.0246
969	0.0216
978	0.0486
987	0.0718
996	0.0384
1005	0.0327
1014	0.0301
1023	0.023
1032	0.025
1041	0.0593
1050	0.0924
1059	0.0993
1068	0.0475
1077	0.0832
1086	0.1848
1095	0.343
1104	0.5028
1113	0.5833
1122	0.4959
1131	0.5942
1140	0.6902
1149	0.6295
1158	0.6435
1167	0.7366
1176	0.787
1185	0.8555
1194	0.8532
1203	0.832
1212	0.8209
1221	0.7504
1230	0.7175
1239	0.6162
1248	0.7196
1257	0.6841
1266	0.6355
1275	0.6438
1284	0.7289
1293	0.7291
1302	0.7433
1311	0.7379
1320	0.8099
1329	0.852
1338	0.8459
1347	0.8189
1356	0.8238
1365	0.7746
1374	0.7114
1383	0.4812
1392	0.3217
1401	0.5774
1410	0.7614
1419	0.8199
1428	0.8058
1437	0.7285
1446	0.6327
1455	0.6561
1464	0.4486
1473	0.2809
1482	0.2965
1491	0.5026
1500	0.6997
1509	0.8143
1518	0.8441
1527	0.8646
1536	0.8742
1545	0.8766
1554	0.88
1563	0.8928
1572	0.8978
1581	0.9045
1590	0.9107
1599	0.9095
1608	0.9077
1617	0.9069
1626	0.9081
1635	0.9121
1644	0.9165
1653	0.9161
1662	0.9108
1671	0.9102
1680	0.9101
1689	0.9098
1698	0.9155
1707	0.9192
1716	0.8998
1725	0.8185
1734	0.7808
1743	0.8767
1752	0.8968
1761	0.909
1770	0.9198
1779	0.9277
1788	0.9266
1797	0.9258
1806	0.9312
1815	0.9404
1824	0.9494
1833	0.9528
1842	0.9577
1851	0.958
1860	0.9581
1869	0.9601
1878	0.9618
1887	0.9635
1896	0.9627
1905	0.9614
1914	0.9632
1923	0.9656
1932	0.9648
1941	0.9632
1950	0.9617
1959	0.9606
1968	0.9599
1977	0.9593
1986	0.9587
1995	0.9578
2004	0.9569
2013	0.9559
2022	0.9586
2031	0.963
2040	0.9655
2049	0.9648
2058	0.9646
2067	0.9662
2076	0.9703
2085	0.9735
2094	0.9734
2103	0.9731
2112	0.9732
2121	0.9733
2130	0.9734
2139	0.9738
2148	0.9735
2157	0.9731
2166	0.9718
2175	0.9711
2184	0.9712
2193	0.972
2202	0.9716
2211	0.9709
2220	0.9691
2229	0.9675
2238	0.9664
2247	0.9658
2256	0.9673
2265	0.9705
2274	0.9713
2283	0.9699
2292	0.97
2301	0.9718
2310	0.9688
2319	0.9642
2328	0.9595
2337	0.9548
2346	0.9504
2355	0.9485
2364	0.9478
2373	0.9473
2382	0.947
2391	0.9468
2400	0.9467
2409	0.9466
2418	0.9467
2427	0.9468
2436	0.9469
2445	0.9471
2454	0.9474
2463	0.9477
2472	0.949
2481	0.9516
2490	0.9541
2499	0.9566
2508	0.9572
2517	0.9557
2526	0.9527
2535	0.9495
2544	0.9462
2553	0.9428
2562	0.9385
2571	0.9343
2580	0.9312
2589	0.9283
2598	0.9261
2607	0.9262
2616	0.9281
2625	0.928
2634	0.9272
2643	0.9259
2652	0.9238
2661	0.9188
2670	0.9126
2679	0.9056
2688	0.897
2697	0.8837
2706	0.8699
2715	0.8562
2724	0.839
2733	0.8242
2742	0.8072
2751	0.8063
2760	0.8158
2769	0.8331
2778	0.8397
2787	0.8386
2796	0.835
2805	0.8227
2814	0.8058
2823	0.7911
2832	0.7521
2841	0.6408
2850	0.5158
2859	0.3821
2868	0.2491
2877	0.1196
2886	0.1045
2895	0.1145
2904	0.1268
2913	0.1233
2922	0.1157
2931	0.0979
2940	0.071
2949	0.0494
2958	0.0427
2967	0.0434
2976	0.0478
2985	0.1091
2994	0.2243
3003	0.3389
3012	0.4528
3021	0.5661
3030	0.6522
3039	0.6909
3048	0.7221
3057	0.7482
3066	0.7739
3075	0.8004
3084	0.8186
3093	0.8279
3102	0.8363
3111	0.8487
3120	0.8609
3129	0.8722
3138	0.8793
3147	0.8854
3156	0.8907
3165	0.8952
3174	0.8995
3183	0.9028
3192	0.9058
3201	0.9088
3210	0.9123
3219	0.9176
3228	0.9235
3237	0.9302
3246	0.937
3255	0.9419
3264	0.9453
3273	0.9483
3282	0.951
3291	0.9542
3300	0.9579
3309	0.9621
3318	0.9614
3327	0.9603
3336	0.959
3345	0.9564
3354	0.9536
3363	0.9509
3372	0.9485
3381	0.9473
3390	0.9469
3399	0.9478
3408	0.9487
3417	0.9495
3426	0.9501
3435	0.9498
3444	0.9495
3453	0.9493
3462	0.9489
3471	0.9489
3480	0.9504
3489	0.9523
3498	0.9543
3507	0.9562
3516	0.958
3525	0.9598
3534	0.9618
3543	0.9643
3552	0.9668
3561	0.9691
3570	0.9713
3579	0.9734
3588	0.9756
3597	0.9777
3606	0.9799
3615	0.9819
3624	0.9838
3633	0.9857
3642	0.9876
3651	0.9894
3660	0.9904
3669	0.9899
3678	0.9893
3687	0.9886
3696	0.9879
3705	0.9871
3714	0.987
3723	0.9875
3732	0.9889
3741	0.9903
3750	0.9917
3759	0.9927
3768	0.9931
3777	0.9925
3786	0.9914
3795	0.9901
3804	0.9887
3813	0.9874
3822	0.9861
3831	0.9848
3840	0.9834
3849	0.9821
3858	0.9811
3867	0.9801
3876	0.9792
3885	0.9784
3894	0.9775
3903	0.9769
3912	0.9768
3921	0.9766
3930	0.9764
3939	0.9763
3948	0.9762
3957	0.976
3966	0.9751
3975	0.974
3984	0.9729
3993	0.9715
