Infrared Spectrum: 2-Dodecanol
Formula: C12 H26 O
CAS: 10203-28-8
State: SOLUTION (10% CCl4 FOR 3800-1335, 10% CS2 FOR 1335-450 CM^-^1)
Class: COBLENTZ III
Instrument: DOW KBr FOREPRISM-GRATING
Instrument parameters: BLAZED AT 3.5, 12.0, 20.0 MICRON AND CHANGED AT 5.0, 7.5, 14.9 MICRON
Sampling: TRANSMISSION
Path length: 0.011 CM, 0.011 CM
Resolution: 2
Origin: DOW CHEMICAL COMPANY
1/CM	TRANSMITTANCE
3800	0.9215
3791	0.9223
3782	0.9207
3773	0.9224
3764	0.9235
3755	0.9242
3746	0.9248
3737	0.9259
3728	0.9254
3719	0.923
3710	0.9236
3701	0.922
3692	0.9167
3683	0.9088
3674	0.897
3665	0.8962
3656	0.8981
3647	0.8906
3638	0.8715
3629	0.7712
3620	0.6817
3611	0.689
3602	0.7658
3593	0.8292
3584	0.8588
3575	0.8632
3566	0.86
3557	0.8451
3548	0.8212
3539	0.7974
3530	0.7634
3521	0.7247
3512	0.7045
3503	0.6858
3494	0.6682
3485	0.6411
3476	0.626
3467	0.612
3458	0.6
3449	0.5873
3440	0.5738
3431	0.5609
3422	0.548
3413	0.5344
3404	0.5203
3395	0.5058
3386	0.4925
3377	0.4812
3368	0.4724
3359	0.4653
3350	0.463
3341	0.4633
3332	0.4681
3323	0.4771
3314	0.4891
3305	0.5089
3296	0.5294
3287	0.5543
3278	0.5827
3269	0.6055
3260	0.6257
3251	0.6468
3242	0.6695
3233	0.6938
3224	0.7094
3215	0.7247
3206	0.7404
3197	0.7586
3188	0.7735
3179	0.7866
3170	0.7987
3161	0.8109
3152	0.8208
3143	0.8276
3134	0.8365
3125	0.843
3116	0.8465
3107	0.8486
3098	0.8508
3089	0.8513
3080	0.8474
3071	0.8475
3062	0.8412
3053	0.8341
3044	0.8276
3035	0.8157
3026	0.7909
3017	0.7729
3008	0.7399
2999	0.6963
2990	0.5435
2981	0.3656
2972	0.1725
2963	0.0489
2954	0.0477
2945	0.0573
2936	0.0252
2927	0.0171
2918	0.0173
2909	0.0243
2900	0.0713
2891	0.1267
2882	0.1823
2873	0.1816
2864	0.0982
2855	0.0308
2846	0.1165
2837	0.3604
2828	0.5761
2819	0.6384
2810	0.6937
2801	0.7389
2792	0.7711
2783	0.789
2774	0.805
2765	0.8164
2756	0.8253
2747	0.8277
2738	0.8243
2729	0.8205
2720	0.8218
2711	0.8296
2702	0.8374
2693	0.8396
2684	0.8321
2675	0.8274
2666	0.8264
2657	0.8314
2648	0.8356
2639	0.8403
2630	0.8461
2621	0.853
2612	0.8583
2603	0.8632
2594	0.8682
2585	0.8748
2576	0.8807
2567	0.8853
2558	0.8881
2549	0.8906
2540	0.8931
2531	0.8959
2522	0.8986
2513	0.9004
2504	0.9024
2495	0.9046
2486	0.907
2477	0.91
2468	0.9109
2459	0.9114
2450	0.9107
2441	0.9119
2432	0.9115
2423	0.9107
2414	0.9098
2405	0.9117
2396	0.9121
2387	0.9134
2378	0.9194
2369	0.9244
2360	0.9298
2351	0.938
2342	0.9412
2333	0.942
2324	0.9305
2315	0.9215
2306	0.9167
2297	0.9146
2288	0.9125
2279	0.9154
2270	0.9174
2261	0.9186
2252	0.9195
2243	0.9196
2234	0.9204
2225	0.9204
2216	0.9191
2207	0.9191
2198	0.9194
2189	0.9187
2180	0.9191
2171	0.9206
2162	0.9192
2153	0.9195
2144	0.9199
2135	0.9203
2126	0.9217
2117	0.923
2108	0.9232
2099	0.9231
2090	0.9217
2081	0.9202
2072	0.9187
2063	0.917
2054	0.9166
2045	0.9138
2036	0.9127
2027	0.9126
2018	0.9123
2009	0.9116
2000	0.9113
1991	0.9099
1982	0.9096
1973	0.909
1964	0.9099
1955	0.912
1946	0.9101
1937	0.911
1928	0.9114
1919	0.9113
1910	0.9111
1901	0.9121
1892	0.9113
1883	0.9104
1874	0.9093
1865	0.9079
1856	0.9077
1847	0.9074
1838	0.9079
1829	0.907
1820	0.9075
1811	0.9093
1802	0.907
1793	0.9073
1784	0.9086
1775	0.91
1766	0.9103
1757	0.9118
1748	0.9097
1739	0.907
1730	0.9044
1721	0.9044
1712	0.9045
1703	0.9042
1694	0.9028
1685	0.901
1676	0.8994
1667	0.8967
1658	0.8963
1649	0.8956
1640	0.8941
1631	0.8924
1622	0.8876
1613	0.8849
1604	0.8854
1595	0.8526
1586	0.8305
1577	0.8245
1568	0.8068
1559	0.7847
1550	0.7919
1541	0.8236
1532	0.8176
1523	0.8321
1514	0.8321
1505	0.8266
1496	0.818
1487	0.806
1478	0.7308
1469	0.2389
1460	0.2893
1451	0.4081
1442	0.5546
1433	0.6473
1424	0.7079
1415	0.7044
1406	0.6844
1397	0.6655
1388	0.633
1379	0.3819
1370	0.497
1361	0.6538
1352	0.6698
1343	0.6853
1334	0.7091
1325	0.7194
1316	0.7097
1307	0.684
1298	0.6766
1289	0.6954
1280	0.7206
1271	0.7429
1262	0.7598
1253	0.7568
1244	0.751
1235	0.8006
1226	0.8326
1217	0.8533
1208	0.8731
1199	0.8841
1190	0.8878
1181	0.8753
1172	0.865
1163	0.8471
1154	0.8415
1145	0.7254
1136	0.621
1127	0.6398
1118	0.6395
1109	0.589
1100	0.6542
1091	0.637
1082	0.6433
1073	0.6695
1064	0.6781
1055	0.7032
1046	0.7319
1037	0.7368
1028	0.7256
1019	0.7475
1010	0.7475
1001	0.7981
992	0.8389
983	0.8598
974	0.8417
965	0.7985
956	0.8252
947	0.812
938	0.7235
929	0.7463
920	0.8014
911	0.8551
902	0.8869
893	0.9097
884	0.8907
875	0.9142
866	0.9117
857	0.8785
848	0.8395
839	0.8536
830	0.8548
821	0.9123
812	0.9237
803	0.929
794	0.9377
785	0.9433
776	0.9299
767	0.9149
758	0.9128
749	0.9058
740	0.8789
731	0.8313
722	0.7428
713	0.8026
704	0.8692
695	0.8939
686	0.905
677	0.9134
668	0.9197
659	0.8863
650	0.8762
641	0.8729
632	0.8778
623	0.8855
614	0.8911
605	0.8932
596	0.8958
587	0.8981
578	0.8987
569	0.8948
560	0.886
551	0.8743
542	0.8679
533	0.8663
524	0.8641
515	0.861
506	0.8541
497	0.8482
488	0.8427
479	0.8376
470	0.8315
461	0.826
