Infrared Spectrum: DIETHYL-ISO-BUTYL MALONATE
Formula: C11 H20 O4
CAS: 10203-58-4
State: LIQUID
Boiling point: 113-116 C AT 16 mmHg
Class: COBLENTZ
Instrument: Not specified, most likely a prism, grating, or hybrid spectrometer.
Sampling: TRANSMISSION
Path length: 0.003 CM
Resolution: 4
Origin: WYANDOTTE CHEMICALS CORP., WYANDOTTE, MICHIGAN, USA
MICROMETERS	TRANSMITTANCE
1.995	0.975
2.03495	0.975
2.07489	0.975
2.11484	0.973
2.15478	0.968
2.19473	0.946
2.23467	0.936
2.27462	0.941
2.31457	0.945
2.35451	0.946
2.39446	0.955
2.4344	0.968
2.47435	0.973
2.51429	0.975
2.55424	0.975
2.59419	0.971
2.63413	0.978
2.67408	0.973
2.71402	0.973
2.75397	0.975
2.79391	0.97
2.83386	0.966
2.87381	0.938
2.91375	0.935
2.9537	0.956
2.99364	0.961
3.03359	0.961
3.07353	0.963
3.11348	0.946
3.15343	0.93
3.19337	0.931
3.23332	0.93
3.27326	0.9
3.31321	0.649
3.35315	0.106
3.3931	0.172
3.43305	0.348
3.47299	0.433
3.51294	0.709
3.55288	0.862
3.59283	0.918
3.63277	0.931
3.67272	0.931
3.71267	0.955
3.75261	0.965
3.79256	0.965
3.8325	0.966
3.87245	0.97
3.91239	0.971
3.95234	0.975
3.99229	0.976
4.03223	0.97
4.07218	0.965
4.11212	0.965
4.15207	0.968
4.19201	0.965
4.23196	0.963
4.27191	0.968
4.31185	0.966
4.3518	0.968
4.39174	0.97
4.43169	0.971
4.47163	0.971
4.51158	0.971
4.55153	0.97
4.59147	0.973
4.63142	0.976
4.67136	0.98
4.71131	0.976
4.75125	0.975
4.7912	0.976
4.83115	0.97
4.87109	0.97
4.91104	0.968
4.95098	0.968
4.99093	0.968
5.03087	0.968
5.07082	0.96
5.11077	0.961
5.15071	0.965
5.19066	0.968
5.2306	0.966
5.27055	0.958
5.31049	0.945
5.35044	0.936
5.39039	0.938
5.43033	0.936
5.47028	0.928
5.51022	0.905
5.55017	0.855
5.59011	0.807
5.63006	0.691
5.67001	0.423
5.70995	0.029
5.7499	0.033
5.78984	0.038
5.82979	0.307
5.86973	0.508
5.90968	0.659
5.94963	0.777
5.98957	0.823
6.02952	0.852
6.06946	0.88
6.10941	0.887
6.14935	0.898
6.1893	0.908
6.22925	0.916
6.26919	0.923
6.30914	0.923
6.34908	0.916
6.38903	0.908
6.42897	0.908
6.46892	0.905
6.50887	0.9
6.54881	0.89
6.58876	0.878
6.6287	0.858
6.66865	0.808
6.70859	0.612
6.74854	0.4
6.78849	0.237
6.82843	0.327
6.86838	0.337
6.90832	0.397
6.94827	0.563
6.98821	0.714
7.02816	0.732
7.06811	0.707
7.10805	0.641
7.148	0.519
7.18794	0.327
7.22789	0.411
7.26783	0.209
7.30778	0.142
7.34773	0.514
7.38767	0.536
7.42762	0.375
7.46756	0.318
7.50751	0.167
7.54745	0.121
7.5874	0.156
7.62735	0.225
7.66729	0.215
7.70724	0.177
7.74718	0.149
7.78713	0.099
7.82707	0.069
7.86702	0.064
7.90697	0.081
7.94691	0.099
7.98686	0.079
8.0268	0.043
8.06675	0.039
8.10669	0.073
8.14664	0.114
8.18659	0.126
8.22653	0.116
8.26648	0.116
8.30642	0.089
8.34637	0.061
8.38631	0.051
8.42626	0.058
8.46621	0.051
8.50615	0.044
8.5461	0.058
8.58604	0.066
8.62599	0.053
8.66593	0.049
8.70588	0.054
8.74583	0.109
8.78577	0.174
8.82572	0.2
8.86566	0.132
8.90561	0.112
8.94555	0.149
8.9855	0.219
9.02545	0.345
9.06539	0.34
9.10534	0.292
9.14528	0.408
9.18523	0.546
9.22517	0.629
9.26512	0.627
9.30507	0.559
9.34501	0.425
9.38496	0.323
9.4249	0.303
9.46485	0.347
9.50479	0.413
9.54474	0.43
9.58469	0.35
9.62463	0.219
9.66458	0.129
9.70452	0.109
9.74447	0.151
9.78441	0.217
9.82436	0.259
9.86431	0.343
9.90425	0.496
9.9442	0.641
9.98414	0.739
10.0241	0.799
10.064	0.835
10.104	0.852
10.1439	0.858
10.1839	0.858
10.2238	0.84
10.2638	0.817
10.3037	0.794
10.3437	0.787
10.3836	0.787
10.4235	0.785
10.4635	0.785
10.5034	0.802
10.5434	0.813
10.5833	0.828
10.6233	0.815
10.6632	0.775
10.7032	0.744
10.7431	0.76
10.7831	0.802
10.823	0.85
10.8629	0.863
10.9029	0.89
10.9428	0.916
10.9828	0.93
11.0227	0.931
11.0627	0.935
11.1026	0.938
11.1426	0.936
11.1825	0.933
11.2225	0.93
11.2624	0.925
11.3024	0.915
11.3423	0.89
11.3822	0.857
11.4222	0.803
11.4621	0.739
11.5021	0.666
11.542	0.624
11.582	0.619
11.6219	0.624
11.6619	0.616
11.7018	0.588
11.7418	0.569
11.7817	0.639
11.8216	0.755
11.8616	0.815
11.9015	0.845
11.9415	0.847
11.9814	0.84
12.0214	0.837
12.0613	0.848
12.1013	0.862
12.1412	0.875
12.1812	0.885
12.2211	0.885
12.261	0.878
12.301	0.87
12.3409	0.858
12.3809	0.853
12.4208	0.848
12.4608	0.85
12.5007	0.853
12.5407	0.852
12.5806	0.845
12.6206	0.832
12.6605	0.82
12.7005	0.813
12.7404	0.813
12.7803	0.827
12.8203	0.845
12.8602	0.867
12.9002	0.88
12.9401	0.888
12.9801	0.898
13.02	0.901
13.06	0.901
13.0999	0.911
13.1399	0.918
13.1798	0.92
13.2197	0.92
13.2597	0.92
13.2996	0.92
13.3396	0.92
13.3795	0.916
13.4195	0.911
13.4594	0.905
13.4994	0.905
13.5393	0.903
13.5793	0.9
13.6192	0.898
13.6591	0.898
13.6991	0.898
13.739	0.898
13.779	0.897
13.8189	0.897
13.8589	0.893
13.8988	0.89
13.9388	0.887
13.9787	0.888
14.0187	0.885
14.0586	0.887
14.0986	0.885
14.1385	0.88
14.1784	0.875
14.2184	0.87
14.2583	0.86
14.2983	0.847
14.3382	0.833
14.3782	0.822
14.4181	0.808
14.4581	0.802
14.498	0.8
14.538	0.8
14.5779	0.802
14.6178	0.807
14.6578	0.812
14.6977	0.817
14.7377	0.818
14.7776	0.823
14.8176	0.828
14.8575	0.83
14.8975	0.832
14.9374	0.835
14.9774	0.833
15.0173	0.817
15.0572	0.795
15.0972	0.795
15.1371	0.823
15.1771	0.835
15.217	0.835
15.257	0.828
15.2969	0.828
15.3369	0.822
15.3768	0.817
15.4168	0.812
15.4567	0.805
15.4967	0.799
15.5366	0.794
15.5765	0.79
15.6165	0.79
15.6564	0.787
15.6964	0.782
15.7363	0.777
15.7763	0.772
15.8162	0.769
15.8562	0.764
15.8961	0.76
15.9361	0.749
15.976	0.74
