Infrared Spectrum: BENZENE, (2-BROMOETHYL)-
Formula: C8 H9 Br
CAS: 103-63-9
State: SOLUTION (10% CCl4 FOR 3800-1330, 10% CS2 FOR 1330-420 CM^-^1)
Class: COBLENTZ III
Instrument: Not specified, most likely a prism, grating, or hybrid spectrometer.
Sampling: TRANSMISSION
Path length: 0.011 CM, 0.011 CM
Resolution: 4
Origin: DOW CHEMICAL COMPANY
1/CM	TRANSMITTANCE
420.878	0.915
429.419	0.917
437.96	0.917
446.501	0.917
455.042	0.915
463.583	0.914
472.124	0.892
480.664	0.777
489.205	0.672
497.746	0.998
506.287	1.029
514.828	1.032
523.369	1.029
531.91	0.992
540.451	0.7402
548.992	0.644
557.533	0.952
566.074	0.985
574.615	0.997
583.156	1.053
591.697	1.058
600.237	1.06
608.778	1.058
617.319	1.051
625.86	1.029
634.401	0.982
642.942	0.7771
651.483	0.6259
660.024	0.879
668.565	0.932
677.106	0.948
685.647	0.8651
694.188	0.3965
702.729	0.1659
711.269	0.808
719.81	0.846
728.351	0.783
736.892	0.694
745.433	0.392
753.974	0.389
762.515	0.831
771.056	0.9599
779.597	0.998
788.138	1.005
796.679	1.004
805.22	0.997
813.761	0.988
822.302	0.98
830.842	0.991
839.383	0.941
847.924	0.879
856.465	0.827
865.006	0.83
873.547	0.836
882.088	0.933
890.629	0.974
899.17	0.955
907.711	0.912
916.252	0.912
924.793	0.942
933.334	0.967
941.875	1.002
950.415	0.995
958.956	0.957
967.497	0.994
976.038	1.002
984.579	1.008
993.12	1.004
1001.66	0.966
1010.2	0.988
1018.74	0.979
1027.28	0.8921
1035.82	0.9138
1044.37	1.004
1052.91	1.005
1061.45	0.986
1069.99	0.865
1078.53	0.988
1087.07	1.008
1095.61	1.005
1104.15	1.005
1112.69	0.998
1121.23	0.929
1129.77	0.977
1138.32	0.995
1146.86	0.988
1155.4	0.976
1163.94	0.976
1172.48	0.948
1181.02	0.871
1189.56	0.887
1198.1	0.7749
1206.64	0.8531
1215.18	0.407
1223.73	0.945
1232.27	0.985
1240.81	0.961
1249.35	0.936
1257.89	0.746
1266.43	0.762
1274.97	0.918
1283.51	0.964
1292.05	0.945
1300.59	0.905
1309.13	0.836
1317.68	0.874
1326.22	0.936
1334.76	0.945
1343.3	0.982
1351.84	0.986
1360.38	0.988
1368.92	0.988
1377.46	0.983
1386	0.988
1394.54	0.986
1403.08	0.979
1411.63	0.96
1420.17	0.921
1428.71	0.823
1437.25	0.815
1445.79	0.814
1454.33	0.3184
1462.87	0.882
1471.41	0.904
1479.95	0.902
1488.49	0.8061
1497.03	0.215
1505.58	0.769
1514.12	0.743
1522.66	0.703
1531.2	0.617
1539.74	0.51
1548.28	0.473
1556.82	0.541
1565.36	0.628
1573.9	0.669
1582.44	0.648
1590.98	0.731
1599.53	0.7
1608.07	0.882
1616.61	0.946
1625.15	0.96
1633.69	0.957
1642.23	0.958
1650.77	0.969
1659.31	0.963
1667.85	0.98
1676.39	0.991
1684.94	0.998
1693.48	0.994
1702.02	0.997
1710.56	0.994
1719.1	0.994
1727.64	0.992
1736.18	0.994
1744.72	0.979
1753.26	0.979
1761.8	0.992
1770.34	0.998
1778.89	0.991
1787.43	0.991
1795.97	0.963
1804.51	0.939
1813.05	0.976
1821.59	0.976
1830.13	0.988
1838.67	0.989
1847.21	0.985
1855.75	0.98
1864.29	0.966
1872.84	0.949
1881.38	0.971
1889.92	0.974
1898.46	0.991
1907	0.997
1915.54	0.998
1924.08	0.995
1932.62	0.977
1941.16	0.92
1949.7	0.971
1958.24	0.977
1966.79	0.988
1975.33	0.997
1983.87	0.992
1992.41	0.994
2000.95	0.995
2009.49	0.992
2018.03	0.996
2026.57	1
2035.11	1.003
2043.65	1.004
2052.19	1.004
2060.74	1.007
2069.28	1.008
2077.82	1.008
2086.36	1.0059
2094.9	1.005
2103.44	1.0059
2111.98	1.005
2120.52	1.0059
2129.06	1.0041
2137.6	1.005
2146.15	1.004
2154.69	1.002
2163.23	1.002
2171.77	0.9988
2180.31	0.998
2188.85	1.001
2197.39	1.002
2205.93	1.0014
2214.47	1
2223.01	1
2231.55	1
2240.1	1.0004
2248.64	0.9937
2257.18	0.989
2265.72	0.988
2274.26	0.9837
2282.8	0.9798
2291.34	0.9746
2299.88	0.9732
2308.42	0.9784
2316.96	0.9834
2325.5	0.991
2334.05	0.9906
2342.59	0.986
2351.13	0.9955
2359.67	1.01
2368.21	1.0095
2376.75	1.005
2385.29	1.001
2393.83	1.0005
2402.37	0.997
2410.91	1.0017
2419.45	1.002
2428	1.001
2436.54	1.005
2445.08	1.005
2453.62	1.005
2462.16	1.0048
2470.7	1.007
2479.24	1.007
2487.78	1.007
2496.32	1.007
2504.86	1.005
2513.4	1.0054
2521.95	1.007
2530.49	1.007
2539.03	1.005
2547.57	1.0067
2556.11	1.007
2564.65	1.007
2573.19	1.007
2581.73	1.0049
2590.27	1.0013
2598.81	0.9971
2607.36	0.998
2615.9	1.001
2624.44	0.9976
2632.98	0.997
2641.52	0.9962
2650.06	0.9998
2658.6	1.002
2667.14	1.0038
2675.68	1.005
2684.22	1.0001
2692.76	1.004
2701.31	1.0069
2709.85	1.005
2718.39	1.0041
2726.93	1.001
2735.47	1.001
2744.01	1.001
2752.55	0.998
2761.09	0.997
2769.63	0.998
2778.17	1
2786.71	0.998
2795.26	0.997
2803.8	0.994
2812.34	0.989
2820.88	0.9849
2829.42	0.9614
2837.96	0.93
2846.5	0.945
2855.04	0.9295
2863.58	0.8726
2872.12	0.9349
2880.66	0.9248
2889.21	0.9039
2897.75	0.89
2906.29	0.91
2914.83	0.9014
2923.37	0.8724
2931.91	0.8218
2940.45	0.8057
2948.99	0.797
2957.53	0.7645
2966.07	0.703
2974.62	0.8176
2983.16	0.9222
2991.7	0.9136
3000.24	0.8686
3008.78	0.8172
3017.32	0.7852
3025.86	0.6361
3034.4	0.4814
3042.94	0.8494
3051.48	0.8575
3060.02	0.781
3068.57	0.696
3077.11	0.84
3085.65	0.7946
3094.19	0.8543
3102.73	0.9152
3111.27	0.9267
3119.81	0.9818
3128.35	0.9912
3136.89	0.9964
3145.43	0.9978
3153.97	0.9926
3162.52	0.991
3171.06	0.9942
3179.6	0.9985
3188.14	0.9985
3196.68	0.998
3205.22	0.9955
3213.76	0.994
3222.3	0.9912
3230.84	0.988
3239.38	0.988
3247.92	0.988
3256.47	0.9888
3265.01	0.989
3273.55	0.989
3282.09	0.988
3290.63	0.9852
3299.17	0.985
3307.71	0.983
3316.25	0.98
3324.79	0.9792
3333.33	0.977
3341.87	0.977
3350.42	0.969
3358.96	0.9632
3367.5	0.96
3376.04	0.957
3384.58	0.9546
3393.12	0.954
3401.66	0.952
3410.2	0.955
3418.74	0.957
3427.28	0.958
3435.83	0.9664
3444.37	0.9699
3452.91	0.976
3461.45	0.98
3469.99	0.983
3478.53	0.9888
3487.07	0.991
3495.61	0.9939
3504.15	0.9929
3512.69	0.9969
3521.23	1
3529.78	1.001
3538.32	1
3546.86	1
3555.4	1.001
3563.94	1.005
3572.48	1.004
3581.02	1.004
3589.56	1.009
3598.1	1.004
3606.64	1.003
3615.18	1
3623.73	1.0005
3632.27	1.004
3640.81	1.005
3649.35	1.002
3657.89	1.002
3666.43	1.008
3674.97	1.0059
3683.51	1.004
3692.05	1.004
3700.59	1.007
3709.13	1.005
3717.68	1.002
3726.22	1.007
3734.76	1.008
3743.3	1.007
3751.84	1.007
3760.38	1.0092
3768.92	1.0098
3777.46	1.007
3786	1.0098
