Infrared Spectrum: AZOBENZENE
Formula: C12 H10 N2
CAS: 103-33-3
State: SOLID (KBr PELLET)
Melting point: 67-68 C
Class: COBLENTZ
Instrument: Not specified, most likely a prism, grating, or hybrid spectrometer.
Sampling: TRANSMISSION
Resolution: 4
Origin: TENNESSEE EASTMAN COMPANY, RESEARCH LABORATORIES
MICROMETERS	TRANSMITTANCE
2.239	0.666
2.27993	0.675
2.32087	0.682
2.3618	0.69
2.40274	0.694
2.44367	0.694
2.48461	0.711
2.52554	0.725
2.56647	0.725
2.60741	0.733
2.64834	0.74
2.68928	0.747
2.73021	0.747
2.77115	0.718
2.81208	0.692
2.85301	0.673
2.89395	0.659
2.93488	0.676
2.97582	0.719
3.01675	0.749
3.05769	0.764
3.09862	0.781
3.13956	0.786
3.18049	0.793
3.22142	0.771
3.26236	0.601
3.30329	0.742
3.34423	0.809
3.38516	0.804
3.4261	0.821
3.46703	0.833
3.50796	0.85
3.5489	0.852
3.58983	0.853
3.63077	0.855
3.6717	0.859
3.71264	0.872
3.75357	0.874
3.7945	0.881
3.83544	0.883
3.87637	0.884
3.91731	0.893
3.95824	0.898
3.99918	0.9
4.04011	0.905
4.08104	0.905
4.12198	0.908
4.16291	0.919
4.20385	0.922
4.24478	0.919
4.28572	0.917
4.32665	0.915
4.36758	0.924
4.40852	0.932
4.44945	0.932
4.49039	0.934
4.53132	0.939
4.57226	0.943
4.61319	0.945
4.65413	0.946
4.69506	0.95
4.73599	0.951
4.77693	0.951
4.81786	0.951
4.8588	0.951
4.89973	0.953
4.94067	0.953
4.9816	0.953
5.02253	0.941
5.06347	0.908
5.1044	0.871
5.14534	0.943
5.18627	0.945
5.22721	0.922
5.26814	0.915
5.30907	0.95
5.35001	0.958
5.39094	0.958
5.43188	0.95
5.47281	0.945
5.51375	0.936
5.55468	0.948
5.59561	0.96
5.63655	0.924
5.67748	0.938
5.71842	0.951
5.75935	0.96
5.80029	0.96
5.84122	0.934
5.88215	0.931
5.92309	0.914
5.96402	0.929
6.00496	0.931
6.04589	0.924
6.08683	0.922
6.12776	0.907
6.1687	0.898
6.20963	0.908
6.25056	0.91
6.2915	0.783
6.33243	0.891
6.37337	0.948
6.4143	0.957
6.45524	0.955
6.49617	0.932
6.5371	0.943
6.57804	0.96
6.61897	0.96
6.65991	0.934
6.70084	0.527
6.74178	0.621
6.78271	0.802
6.82364	0.829
6.86458	0.402
6.90551	0.841
6.94645	0.841
6.98738	0.917
7.02832	0.932
7.06925	0.922
7.11018	0.907
7.15112	0.883
7.19205	0.91
7.23299	0.912
7.27392	0.912
7.31486	0.91
7.35579	0.891
7.39672	0.876
7.43766	0.883
7.47859	0.905
7.51953	0.9
7.56046	0.908
7.6014	0.92
7.64233	0.848
7.68327	0.637
7.7242	0.798
7.76513	0.898
7.80607	0.931
7.847	0.948
7.88794	0.97
7.92887	0.981
7.96981	0.987
8.01074	0.991
8.05167	0.984
8.09261	0.97
8.13354	0.924
8.17448	0.75
8.21541	0.829
8.25635	0.939
8.29728	0.982
8.33821	0.996
8.37915	1.001
8.42008	1.001
8.46102	1.001
8.50195	0.998
8.54289	0.986
8.58382	0.895
8.62475	0.819
8.66569	0.757
8.70662	0.929
8.74756	0.981
8.78849	0.991
8.82943	0.996
8.87036	0.996
8.91129	0.993
8.95223	0.989
8.99316	0.981
9.0341	0.974
9.07503	0.975
9.11597	0.982
9.1569	0.987
9.19784	0.987
9.23877	0.936
9.2797	0.716
9.32064	0.541
9.36157	0.838
9.40251	0.938
9.44344	0.972
9.48438	0.982
9.52531	0.986
9.56624	0.982
9.60718	0.974
9.64811	0.969
9.68905	0.953
9.72998	0.871
9.77092	0.68
9.81185	0.786
9.85278	0.898
9.89372	0.939
9.93465	0.941
9.97559	0.828
10.0165	0.9
10.0575	0.945
10.0984	0.932
10.1393	0.871
10.1803	0.945
10.2212	0.963
10.2621	0.96
10.3031	0.962
10.344	0.97
10.3849	0.977
10.4259	0.977
10.4668	0.981
10.5077	0.982
10.5487	0.982
10.5896	0.979
10.6305	0.965
10.6715	0.95
10.7124	0.891
10.7533	0.687
10.7943	0.369
10.8352	0.484
10.8761	0.742
10.9171	0.89
10.958	0.92
10.9989	0.927
11.0399	0.931
11.0808	0.941
11.1217	0.95
11.1627	0.951
11.2036	0.951
11.2446	0.951
11.2855	0.953
11.3264	0.955
11.3674	0.958
11.4083	0.96
11.4492	0.967
11.4902	0.972
11.5311	0.974
11.572	0.972
11.613	0.972
11.6539	0.974
11.6948	0.965
11.7358	0.92
11.7767	0.924
11.8176	0.955
11.8586	0.969
11.8995	0.97
11.9404	0.97
11.9814	0.97
12.0223	0.972
12.0632	0.974
12.1042	0.974
12.1451	0.975
12.186	0.979
12.227	0.979
12.2679	0.969
12.3088	0.958
12.3498	0.965
12.3907	0.97
12.4316	0.972
12.4726	0.974
12.5135	0.972
12.5544	0.967
12.5954	0.958
12.6363	0.926
12.6773	0.871
12.7182	0.738
12.7591	0.477
12.8001	0.14
12.841	0.042
12.8819	0.096
12.9229	0.341
12.9638	0.553
13.0047	0.606
13.0457	0.673
13.0866	0.749
13.1275	0.829
13.1685	0.871
13.2094	0.898
13.2503	0.92
13.2913	0.936
13.3322	0.946
13.3731	0.953
13.4141	0.962
13.455	0.963
13.4959	0.963
13.5369	0.962
13.5778	0.962
13.6187	0.962
13.6597	0.962
13.7006	0.965
13.7415	0.967
13.7825	0.963
13.8234	0.96
13.8643	0.955
13.9053	0.95
13.9462	0.943
13.9872	0.938
14.0281	0.927
14.069	0.927
14.11	0.926
14.1509	0.915
14.1918	0.907
14.2328	0.883
14.2737	0.836
14.3146	0.766
14.3556	0.654
14.3965	0.479
14.4374	0.262
14.4784	0.144
14.5193	0.099
14.5602	0.109
14.6012	0.183
14.6421	0.324
14.683	0.458
14.724	0.62
14.7649	0.704
14.8058	0.766
14.8468	0.797
14.8877	0.805
14.9286	0.814
14.9696	0.805
15.0105	0.795
15.0514	0.78
15.0924	0.78
15.1333	0.774
15.1742	0.768
15.2152	0.762
15.2561	0.761
15.297	0.756
15.338	0.752
15.3789	0.747
15.4199	0.745
15.4608	0.742
15.5017	0.733
15.5427	0.73
15.5836	0.723
15.6245	0.718
15.6655	0.714
15.7064	0.702
15.7473	0.699
15.7883	0.69
15.8292	0.685
15.8701	0.682
15.9111	0.671
15.952	0.668
15.9929	0.668
