Infrared Spectrum: N,N'-BIS(1-METHYLHEPTYL)-p-PHENYLENEDIAMINE
Formula: C22 H40 N2
CAS: 103-96-8
State: LIQUID (NEAT)
Class: COBLENTZ III
Instrument: DOW KBr FOREPRISM-GRATING
Instrument parameters: BLAZED AT 3.5, 12.0, 20.0 MICRON AND CHANGED AT 5.0, 7.5, 14.9 MICRON
Sampling: TRANSMISSION
Path length: CAPILLARY
Resolution: 2
Origin: DOW CHEMICAL COMPANY
1/CM	TRANSMITTANCE
458.772	0.785
467.544	0.778
476.316	0.767
485.088	0.755
493.86	0.741
502.632	0.719
511.404	0.7
520.176	0.699
528.948	0.728
537.719	0.75
546.491	0.763
555.263	0.774
564.035	0.782
572.807	0.787
581.579	0.788
590.351	0.792
599.123	0.793
607.895	0.795
616.667	0.795
625.439	0.798
634.211	0.803
642.983	0.802
651.755	0.811
660.527	0.814
669.299	0.829
678.07	0.857
686.842	0.865
695.614	0.87
704.386	0.869
713.158	0.851
721.93	0.769
730.702	0.829
739.474	0.875
748.246	0.881
757.018	0.887
765.79	0.902
774.562	0.894
783.334	0.861
792.106	0.792
800.878	0.715
809.65	0.4819
818.422	0.458
827.193	0.744
835.965	0.857
844.737	0.89
853.509	0.895
862.281	0.896
871.053	0.885
879.825	0.892
888.597	0.91
897.369	0.918
906.141	0.925
914.913	0.932
923.685	0.936
932.457	0.94
941.229	0.939
950.001	0.934
958.773	0.934
967.544	0.928
976.316	0.927
985.088	0.935
993.86	0.938
1002.63	0.935
1011.4	0.943
1020.18	0.939
1028.95	0.918
1037.72	0.894
1046.49	0.884
1055.26	0.879
1064.04	0.859
1072.81	0.826
1081.58	0.824
1090.35	0.847
1099.12	0.848
1107.9	0.693
1116.67	0.619
1125.44	0.663
1134.21	0.674
1142.98	0.598
1151.76	0.526
1160.53	0.537
1169.3	0.7171
1178.07	0.795
1186.84	0.781
1195.61	0.777
1204.39	0.806
1213.16	0.77
1221.93	0.684
1230.7	0.55
1239.47	0.493
1248.25	0.446
1257.02	0.358
1265.79	0.5011
1274.56	0.587
1283.33	0.589
1292.11	0.486
1300.88	0.495
1309.65	0.502
1318.42	0.53
1327.19	0.684
1335.97	0.668
1344.74	0.675
1353.51	0.707
1362.28	0.67
1371.05	0.563
1379.83	0.4941
1388.6	0.774
1397.37	0.744
1406.14	0.765
1414.91	0.824
1423.69	0.798
1432.46	0.6729
1441.23	0.549
1450	0.479
1458.77	0.381
1467.55	0.384
1476.32	0.715
1485.09	0.722
1493.86	0.5809
1502.63	0.3369
1511.4	0.043
1520.18	0.0411
1528.95	0.3062
1537.72	0.618
1546.49	0.732
1555.26	0.743
1564.04	0.743
1572.81	0.708
1581.58	0.707
1590.35	0.76
1599.12	0.732
1607.9	0.679
1616.67	0.769
1625.44	0.833
1634.21	0.892
1642.98	0.906
1651.76	0.914
1660.53	0.913
1669.3	0.912
1678.07	0.914
1686.84	0.923
1695.62	0.928
1704.39	0.925
1713.16	0.925
1721.93	0.943
1730.7	0.957
1739.48	0.965
1748.25	0.969
1757.02	0.971
1765.79	0.972
1774.56	0.972
1783.33	0.971
1792.11	0.969
1800.88	0.965
1809.65	0.962
1818.42	0.954
1827.19	0.947
1835.97	0.953
1844.74	0.957
1853.51	0.96
1862.28	0.962
1871.05	0.964
1879.83	0.967
1888.6	0.968
1897.37	0.968
1906.14	0.964
1914.91	0.962
1923.69	0.964
1932.46	0.962
1941.23	0.961
1950	0.961
1958.77	0.956
1967.55	0.957
1976.32	0.958
1985.09	0.961
1993.86	0.964
2002.63	0.965
2011.41	0.967
2020.18	0.968
2028.95	0.968
2037.72	0.969
2046.49	0.9699
2055.26	0.971
2064.04	0.972
2072.81	0.972
2081.58	0.973
2090.35	0.975
2099.12	0.975
2107.9	0.976
2116.67	0.9768
2125.44	0.978
2134.21	0.979
2142.98	0.979
2151.76	0.979
2160.53	0.979
2169.3	0.979
2178.07	0.979
2186.84	0.979
2195.62	0.979
2204.39	0.98
2213.16	0.98
2221.93	0.98
2230.7	0.98
2239.48	0.98
2248.25	0.98
2257.02	0.98
2265.79	0.98
2274.56	0.98
2283.34	0.98
2292.11	0.98
2300.88	0.98
2309.65	0.98
2318.42	0.982
2327.2	0.983
2335.97	0.986
2344.74	0.987
2353.51	0.987
2362.28	0.9835
2371.05	0.98
2379.83	0.9788
2388.6	0.978
2397.37	0.976
2406.14	0.9758
2414.91	0.975
2423.69	0.973
2432.46	0.972
2441.23	0.973
2450	0.973
2458.77	0.973
2467.55	0.973
2476.32	0.9728
2485.09	0.971
2493.86	0.969
2502.63	0.9679
2511.41	0.965
2520.18	0.964
2528.95	0.9619
2537.72	0.96
2546.49	0.957
2555.27	0.9539
2564.04	0.95
2572.81	0.943
2581.58	0.94
2590.35	0.939
2599.13	0.94
2607.9	0.94
2616.67	0.939
2625.44	0.9388
2634.21	0.935
2642.98	0.932
2651.76	0.929
2660.53	0.927
2669.3	0.925
2678.07	0.927
2686.84	0.927
2695.62	0.927
2704.39	0.921
2713.16	0.914
2721.93	0.913
2730.7	0.912
2739.48	0.9159
2748.25	0.917
2757.02	0.917
2765.79	0.9121
2774.56	0.8992
2783.34	0.8833
2792.11	0.8663
2800.88	0.8404
2809.65	0.8154
2818.42	0.7747
2827.2	0.7262
2835.97	0.6402
2844.74	0.3683
2853.51	0.1719
2862.28	0.1356
2871.06	0.2219
2879.83	0.2836
2888.6	0.3116
2897.37	0.2292
2906.14	0.1439
2914.91	0.0901
2923.69	0.036
2932.46	0.0412
2941.23	0.0729
2950	0.1335
2958.77	0.0686
2967.55	0.1243
2976.32	0.2582
2985.09	0.4874
2993.86	0.6898
3002.63	0.7316
3011.41	0.7282
3020.18	0.7072
3028.95	0.7514
3037.72	0.8055
3046.49	0.8005
3055.27	0.812
3064.04	0.8422
3072.81	0.8924
3081.58	0.9177
3090.35	0.9233
3099.13	0.92
3107.9	0.9347
3116.67	0.9497
3125.44	0.953
3134.21	0.954
3142.99	0.9594
3151.76	0.9617
3160.53	0.964
3169.3	0.964
3178.07	0.962
3186.85	0.962
3195.62	0.962
3204.39	0.962
3213.16	0.962
3221.93	0.964
3230.7	0.964
3239.48	0.9628
3248.25	0.9614
3257.02	0.958
3265.79	0.954
3274.56	0.9478
3283.34	0.9384
3292.11	0.9293
3300.88	0.9124
3309.65	0.8973
3318.42	0.8834
3327.2	0.8694
3335.97	0.8545
3344.74	0.8429
3353.51	0.8299
3362.28	0.828
3371.06	0.825
3379.83	0.822
3388.6	0.822
3397.37	0.8285
3406.14	0.8435
3414.92	0.8884
3423.69	0.9294
3432.46	0.9594
3441.23	0.9764
3450	0.9835
3458.78	0.989
3467.55	0.9935
3476.32	0.998
3485.09	0.9989
3493.86	1.0004
3502.63	1.001
3511.41	1.001
3520.18	1.001
3528.95	1.002
3537.72	1.002
3546.49	1.004
3555.27	1.005
3564.04	1.005
3572.81	1.004
3581.58	1.002
3590.35	1.002
3599.13	1.001
3607.9	1
3616.67	0.9987
3625.44	1.0003
3634.21	1.001
3642.99	1.002
3651.76	1.002
3660.53	1.002
3669.3	1.002
3678.07	1.002
3686.85	1.0017
3695.62	1.001
3704.39	1.001
3713.16	1.002
3721.93	1.002
3730.71	1.002
3739.48	1.002
3748.25	1.002
3757.02	1.005
3765.79	1.005
3774.57	1.004
3783.34	1.0035
3792.11	1.002
3800.88	1.002
3809.65	1.002
