Infrared Spectrum: BENZENE, PROPYL-
Formula: C9 H12
CAS: 103-65-1
State: LIQUID (NEAT)
Class: COBLENTZ III
Instrument: PERKIN-ELMER 521 (GRATING)
Sampling: TRANSMISSION
Path length: 0.0025 CM
Resolution: 4
Origin: STANDARD OIL OF OHIO
1/CM	TRANSMITTANCE
591.944	0.621
601.138	0.618
610.333	0.625
619.527	0.635
628.722	0.65
637.916	0.669
647.11	0.69
656.305	0.697
665.499	0.687
674.694	0.66
683.888	0.473
693.082	0.0161
702.277	0.1726
711.471	0.404
720.666	0.3781
729.86	0.2341
739.054	0.027
748.249	0.0349
757.443	0.5682
766.638	0.715
775.832	0.791
785.026	0.823
794.221	0.819
803.415	0.785
812.61	0.761
821.804	0.7577
830.998	0.835
840.193	0.825
849.387	0.843
858.582	0.823
867.776	0.825
876.97	0.815
886.165	0.719
895.359	0.798
904.554	0.7191
913.748	0.7719
922.942	0.87
932.137	0.879
941.331	0.878
950.526	0.868
959.72	0.861
968.914	0.859
978.109	0.856
987.303	0.864
996.498	0.849
1005.69	0.851
1014.89	0.825
1024.08	0.6993
1033.28	0.6817
1042.47	0.766
1051.66	0.74
1060.86	0.805
1070.05	0.778
1079.25	0.768
1088.44	0.6421
1097.64	0.6119
1106.83	0.716
1116.02	0.8379
1125.22	0.861
1134.41	0.856
1143.61	0.842
1152.8	0.827
1162	0.831
1171.19	0.802
1180.39	0.831
1189.58	0.827
1198.77	0.821
1207.97	0.849
1217.16	0.86
1226.36	0.852
1235.55	0.84
1244.75	0.832
1253.94	0.812
1263.14	0.831
1272.33	0.821
1281.52	0.828
1290.72	0.834
1299.91	0.83
1309.11	0.821
1318.3	0.798
1327.5	0.758
1336.69	0.671
1345.88	0.8
1355.08	0.804
1364.27	0.7101
1373.47	0.516
1382.66	0.771
1391.86	0.795
1401.05	0.784
1410.25	0.753
1419.44	0.716
1428.63	0.6911
1437.83	0.5911
1447.02	0.36
1456.22	0.103
1465.41	0.274
1474.61	0.582
1483.8	0.642
1493	0.3421
1502.19	0.138
1511.38	0.814
1520.58	0.851
1529.77	0.847
1538.97	0.851
1548.16	0.865
1557.36	0.866
1566.55	0.862
1575.74	0.842
1584.94	0.7311
1594.13	0.731
1603.33	0.505
1612.52	0.6796
1621.72	0.873
1630.91	0.885
1640.11	0.882
1649.3	0.87
1658.49	0.877
1667.69	0.9
1676.88	0.904
1686.08	0.907
1695.27	0.907
1704.47	0.904
1713.66	0.903
1722.86	0.899
1732.05	0.894
1741.24	0.874
1750.44	0.845
1759.63	0.8949
1768.83	0.906
1778.02	0.9
1787.22	0.896
1796.41	0.859
1805.6	0.788
1814.8	0.87
1823.99	0.892
1833.19	0.907
1842.38	0.903
1851.58	0.892
1860.77	0.882
1869.97	0.823
1879.16	0.852
1888.35	0.848
1897.55	0.904
1906.74	0.917
1915.94	0.915
1925.13	0.903
1934.33	0.853
1943.52	0.748
1952.72	0.84
1961.91	0.852
1971.1	0.911
1980.3	0.916
1989.49	0.917
1998.69	0.92
2007.88	0.921
2017.08	0.922
2026.27	0.924
2035.46	0.926
2044.66	0.928
2053.85	0.929
2063.05	0.928
2072.24	0.925
2081.44	0.926
2090.63	0.9261
2099.83	0.929
2109.02	0.929
2118.21	0.929
2127.41	0.9298
2136.6	0.93
2145.8	0.926
2154.99	0.924
2164.19	0.922
2173.38	0.922
2182.57	0.922
2191.77	0.922
2200.96	0.922
2210.16	0.924
2219.35	0.925
2228.55	0.924
2237.74	0.921
2246.94	0.921
2256.13	0.921
2265.32	0.92
2274.52	0.92
2283.71	0.917
2292.91	0.916
2302.1	0.916
2311.3	0.9062
2320.49	0.9078
2329.69	0.9062
2338.88	0.9068
2348.07	0.912
2357.27	0.912
2366.46	0.9145
2375.66	0.919
2384.85	0.92
2394.05	0.921
2403.24	0.9193
2412.43	0.917
2421.63	0.921
2430.82	0.922
2440.02	0.922
2449.21	0.924
2458.41	0.926
2467.6	0.9253
2476.8	0.922
2485.99	0.922
2495.18	0.932
2504.38	0.9193
2513.57	0.919
2522.77	0.917
2531.96	0.915
2541.16	0.912
2550.35	0.912
2559.55	0.911
2568.74	0.911
2577.93	0.9074
2587.13	0.903
2596.32	0.903
2605.52	0.895
2614.71	0.891
2623.91	0.891
2633.1	0.89
2642.29	0.892
2651.49	0.894
2660.68	0.891
2669.88	0.8854
2679.07	0.8841
2688.27	0.8976
2697.46	0.902
2706.66	0.8974
2715.85	0.8815
2725.04	0.8754
2734.24	0.8645
2743.43	0.8775
2752.63	0.887
2761.82	0.886
2771.02	0.878
2780.21	0.8576
2789.41	0.8345
2798.6	0.827
2807.79	0.8125
2816.99	0.7782
2826.18	0.724
2835.38	0.6577
2844.57	0.5218
2853.77	0.3338
2862.96	0.1713
2872.15	0.09
2881.35	0.1127
2890.54	0.2884
2899.74	0.2518
2908.93	0.1844
2918.13	0.1072
2927.32	0.0225
2936.52	0.0134
2945.71	0.0607
2954.9	0.0401
2964.1	0.0077
2973.29	0.0298
2982.49	0.2163
2991.68	0.4518
3000.88	0.5097
3010.07	0.4886
3019.27	0.4752
3028.46	0.1678
3037.65	0.1531
3046.85	0.4453
3056.04	0.5079
3065.24	0.3435
3074.43	0.3793
3083.63	0.4999
3092.82	0.362
3102.01	0.7103
3111.21	0.7045
3120.4	0.8056
3129.6	0.8537
3138.79	0.8772
3147.99	0.8822
3157.18	0.8805
3166.38	0.879
3175.57	0.8862
3184.76	0.891
3193.96	0.894
3203.15	0.895
3212.35	0.8982
3221.54	0.9032
3230.74	0.904
3239.93	0.904
3249.13	0.906
3258.32	0.906
3267.51	0.907
3276.71	0.908
3285.9	0.908
3295.1	0.908
3304.29	0.909
3313.49	0.907
3322.68	0.904
3331.87	0.904
3341.07	0.904
3350.26	0.904
3359.46	0.904
3368.65	0.904
3377.85	0.904
3387.04	0.904
3396.24	0.904
3405.43	0.904
3414.62	0.904
3423.82	0.904
3433.01	0.904
3442.21	0.903
3451.4	0.903
3460.6	0.902
3469.79	0.902
3478.99	0.902
3488.18	0.902
3497.37	0.9
3506.57	0.9
3515.76	0.9
3524.96	0.9
3534.15	0.903
3543.35	0.904
3552.54	0.904
3561.73	0.903
3570.93	0.902
3580.12	0.9001
3589.32	0.9
3598.51	0.899
3607.71	0.896
3616.9	0.895
3626.1	0.894
3635.29	0.892
3644.48	0.891
3653.68	0.891
3662.87	0.891
3672.07	0.892
3681.26	0.894
3690.46	0.896
3699.65	0.898
3708.85	0.896
3718.04	0.8941
3727.23	0.892
3736.43	0.891
3745.62	0.89
3754.82	0.891
3764.01	0.891
3773.21	0.891
3782.4	0.891
3791.59	0.891
3800.79	0.891
3809.98	0.891
3819.18	0.892
3828.37	0.892
3837.57	0.892
3846.76	0.8935
3855.96	0.895
3865.15	0.896
3874.34	0.895
3883.54	0.894
3892.73	0.891
3901.93	0.889
3911.12	0.8853
3920.32	0.883
3929.51	0.881
3938.71	0.879
3947.9	0.878
