Infrared Spectrum: BENZYL METHYL ETHER
Formula: C8 H10 O
CAS: 103-73-1
State: LIQUID
Boiling point: 84-85 C AT 6 mmHg
Class: COBLENTZ
Instrument: Not specified, most likely a prism, grating, or hybrid spectrometer.
Sampling: TRANSMISSION
Path length: 0.003 CM
Resolution: 4
Origin: WYANDOTTE CHEMICALS CORP., WYANDOTTE, MICHIGAN, USA
MICROMETERS	TRANSMITTANCE
2.041	0.966
2.08095	0.958
2.1209	0.963
2.16084	0.963
2.20079	0.938
2.24074	0.943
2.28069	0.945
2.32063	0.946
2.36058	0.92
2.40053	0.916
2.44048	0.945
2.48042	0.95
2.52037	0.965
2.56032	0.961
2.60027	0.97
2.64021	0.973
2.68016	0.963
2.72011	0.965
2.76006	0.956
2.8	0.955
2.83995	0.931
2.8799	0.94
2.91985	0.946
2.95979	0.943
2.99974	0.945
3.03969	0.936
3.07964	0.93
3.11958	0.918
3.15953	0.901
3.19948	0.87
3.23943	0.653
3.27937	0.471
3.31932	0.501
3.35927	0.446
3.39922	0.155
3.43916	0.2
3.47911	0.18
3.51906	0.238
3.55901	0.26
3.59895	0.781
3.6389	0.808
3.67885	0.841
3.7188	0.903
3.75874	0.93
3.79869	0.936
3.83864	0.935
3.87859	0.941
3.91853	0.963
3.95848	0.963
3.99843	0.973
4.03838	0.975
4.07832	0.975
4.11827	0.973
4.15822	0.973
4.19817	0.978
4.23811	0.965
4.27806	0.988
4.31801	0.963
4.35796	0.961
4.3979	0.97
4.43785	0.976
4.4778	0.976
4.51775	0.976
4.55769	0.976
4.59764	0.97
4.63759	0.97
4.67754	0.963
4.71748	0.97
4.75743	0.971
4.79738	0.973
4.83733	0.958
4.87727	0.93
4.91722	0.93
4.95717	0.938
4.99712	0.946
5.03706	0.943
5.07701	0.916
5.11696	0.915
5.15691	0.88
5.19685	0.905
5.2368	0.951
5.27675	0.963
5.3167	0.931
5.35664	0.896
5.39659	0.91
5.43654	0.95
5.47649	0.951
5.51643	0.915
5.55638	0.881
5.59633	0.935
5.63628	0.96
5.67622	0.953
5.71617	0.943
5.75612	0.928
5.79607	0.933
5.83601	0.926
5.87596	0.913
5.91591	0.936
5.95586	0.92
5.9958	0.905
6.03575	0.905
6.0757	0.896
6.11565	0.896
6.15559	0.868
6.19554	0.788
6.23549	0.806
6.27544	0.811
6.31538	0.871
6.35533	0.9
6.39528	0.89
6.43523	0.885
6.47517	0.873
6.51512	0.891
6.55507	0.881
6.59502	0.848
6.63496	0.581
6.67491	0.458
6.71486	0.686
6.75481	0.588
6.79475	0.446
6.8347	0.313
6.87465	0.181
6.9146	0.458
6.95454	0.651
6.99449	0.781
7.03444	0.821
7.07439	0.833
7.11433	0.82
7.15428	0.72
7.19423	0.44
7.23418	0.151
7.27412	0.508
7.31407	0.395
7.35402	0.7
7.39397	0.816
7.43392	0.84
7.47386	0.828
7.51381	0.8
7.55376	0.753
7.59371	0.701
7.63365	0.72
7.6736	0.785
7.71355	0.798
7.7535	0.78
7.79344	0.765
7.83339	0.753
7.87334	0.741
7.91329	0.791
7.95323	0.81
7.99318	0.796
8.03313	0.755
8.07308	0.735
8.11302	0.723
8.15297	0.688
8.19292	0.578
8.23287	0.37
8.27281	0.253
8.31276	0.166
8.35271	0.186
8.39266	0.18
8.4326	0.236
8.47255	0.381
8.5125	0.556
8.55245	0.623
8.59239	0.635
8.63234	0.578
8.67229	0.596
8.71224	0.65
8.75218	0.65
8.79213	0.596
8.83208	0.505
8.87203	0.338
8.91197	0.156
8.95192	0.045
8.99187	0.04
9.03182	0.035
9.07176	0.036
9.11171	0.038
9.15166	0.05
9.19161	0.098
9.23155	0.16
9.2715	0.175
9.31145	0.29
9.3514	0.481
9.39134	0.591
9.43129	0.65
9.47124	0.688
9.51119	0.72
9.55113	0.735
9.59108	0.73
9.63103	0.708
9.67098	0.633
9.71092	0.34
9.75087	0.531
9.79082	0.68
9.83077	0.72
9.87071	0.715
9.91066	0.695
9.95061	0.666
9.99056	0.655
10.0305	0.646
10.0705	0.64
10.1104	0.625
10.1503	0.605
10.1903	0.595
10.2302	0.546
10.2702	0.488
10.3101	0.4
10.3501	0.341
10.39	0.341
10.43	0.376
10.4699	0.436
10.5099	0.511
10.5498	0.575
10.5898	0.628
10.6297	0.66
10.6697	0.671
10.7096	0.64
10.7496	0.558
10.7895	0.425
10.8295	0.343
10.8694	0.415
10.9093	0.538
10.9493	0.598
10.9892	0.6
11.0292	0.525
11.0691	0.43
11.1091	0.371
11.149	0.455
11.189	0.553
11.2289	0.706
11.2689	0.756
11.3088	0.796
11.3488	0.821
11.3887	0.845
11.4287	0.863
11.4686	0.875
11.5086	0.878
11.5485	0.883
11.5885	0.886
11.6284	0.885
11.6684	0.881
11.7083	0.875
11.7482	0.868
11.7882	0.855
11.8281	0.85
11.8681	0.843
11.908	0.848
11.948	0.853
11.9879	0.85
12.0279	0.846
12.0678	0.835
12.1078	0.818
12.1477	0.813
12.1877	0.793
12.2276	0.763
12.2676	0.751
12.3075	0.758
12.3475	0.77
12.3874	0.775
12.4274	0.768
12.4673	0.781
12.5072	0.801
12.5472	0.818
12.5871	0.84
12.6271	0.853
12.667	0.863
12.707	0.866
12.7469	0.875
12.7869	0.865
12.8268	0.858
12.8668	0.848
12.9067	0.835
12.9467	0.821
12.9866	0.796
13.0266	0.765
13.0665	0.735
13.1065	0.683
13.1464	0.638
13.1864	0.565
13.2263	0.456
13.2663	0.341
13.3062	0.24
13.3461	0.146
13.3861	0.105
13.426	0.07
13.466	0.06
13.5059	0.051
13.5459	0.05
13.5858	0.05
13.6258	0.055
13.6657	0.063
13.7057	0.1
13.7456	0.165
13.7856	0.263
13.8255	0.373
13.8655	0.448
13.9054	0.511
13.9454	0.551
13.9853	0.571
14.0253	0.583
14.0652	0.576
14.1052	0.555
14.1451	0.503
14.185	0.428
14.225	0.335
14.2649	0.246
14.3049	0.168
14.3448	0.116
14.3848	0.101
14.4247	0.098
14.4647	0.14
14.5046	0.22
14.5446	0.331
14.5845	0.475
14.6245	0.58
14.6644	0.636
14.7044	0.688
14.7443	0.711
14.7843	0.731
14.8242	0.736
14.8642	0.738
14.9041	0.748
14.944	0.743
14.984	0.741
15.0239	0.733
15.0639	0.74
15.1038	0.77
15.1438	0.796
15.1837	0.806
15.2237	0.806
15.2636	0.801
15.3036	0.798
15.3435	0.798
15.3835	0.796
15.4234	0.79
15.4634	0.783
15.5033	0.78
15.5433	0.776
15.5832	0.783
15.6232	0.773
15.6631	0.771
15.7031	0.763
15.743	0.756
15.7829	0.753
15.8229	0.745
15.8628	0.741
15.9028	0.736
15.9427	0.736
15.9827	0.731
