Infrared Spectrum: ACETANILIDE
Formula: C8 H9 N O
CAS: 103-84-4
State: SOLID (KBr PELLET)
Melting point: 110-111 C
Class: COBLENTZ
Instrument: Not specified, most likely a prism, grating, or hybrid spectrometer.
Sampling: TRANSMISSION
Resolution: 4
Origin: TENNESSEE EASTMAN COMPANY, RESEARCH LABORATORIES
MICROMETERS	TRANSMITTANCE
2.014	0.844
2.05491	0.844
2.09583	0.844
2.13674	0.847
2.17766	0.859
2.21857	0.868
2.25949	0.869
2.3004	0.869
2.34132	0.875
2.38223	0.88
2.42315	0.883
2.46406	0.881
2.50498	0.888
2.54589	0.892
2.58681	0.9
2.62772	0.902
2.66863	0.902
2.70955	0.909
2.75046	0.892
2.79138	0.866
2.83229	0.84
2.87321	0.825
2.91412	0.809
2.95504	0.77
2.99595	0.47
3.03687	0.083
3.07778	0.16
3.1187	0.398
3.15961	0.429
3.20053	0.419
3.24144	0.561
3.28235	0.553
3.32327	0.7
3.36418	0.772
3.4051	0.796
3.44601	0.854
3.48693	0.821
3.52784	0.856
3.56876	0.83
3.60967	0.898
3.65059	0.924
3.6915	0.919
3.73242	0.917
3.77333	0.929
3.81425	0.938
3.85516	0.912
3.89607	0.94
3.93699	0.931
3.9779	0.926
4.01882	0.933
4.05973	0.941
4.10065	0.941
4.14156	0.943
4.18248	0.946
4.22339	0.943
4.26431	0.945
4.30522	0.941
4.34614	0.948
4.38705	0.95
4.42797	0.948
4.46888	0.962
4.50979	0.953
4.55071	0.962
4.59162	0.962
4.63254	0.955
4.67345	0.967
4.71437	0.967
4.75528	0.965
4.7962	0.962
4.83711	0.964
4.87803	0.964
4.91894	0.957
4.95986	0.958
5.00077	0.969
5.04169	0.952
5.0826	0.921
5.12351	0.864
5.16443	0.94
5.20534	0.95
5.24626	0.952
5.28717	0.926
5.32809	0.909
5.369	0.926
5.40992	0.926
5.45083	0.941
5.49175	0.94
5.53266	0.898
5.57358	0.893
5.61449	0.91
5.6554	0.914
5.69632	0.9
5.73723	0.856
5.77815	0.883
5.81906	0.871
5.85998	0.84
5.90089	0.785
5.94181	0.671
5.98272	0.183
6.02364	0.018
6.06455	0.066
6.10547	0.272
6.14638	0.335
6.1873	0.136
6.22821	0.047
6.26912	0.071
6.31004	0.434
6.35095	0.438
6.39187	0.157
6.43278	0.102
6.4737	0.181
6.51461	0.198
6.55553	0.277
6.59644	0.311
6.63736	0.073
6.67827	0.142
6.71919	0.232
6.7601	0.476
6.80102	0.604
6.84193	0.561
6.88284	0.169
6.92376	0.066
6.96467	0.051
7.00559	0.272
7.0465	0.443
7.08742	0.559
7.12833	0.599
7.16925	0.527
7.21016	0.553
7.25108	0.469
7.29199	0.164
7.33291	0.232
7.37382	0.517
7.41474	0.645
7.45565	0.702
7.49656	0.671
7.53748	0.162
7.57839	0.037
7.61931	0.337
7.66022	0.501
7.70114	0.607
7.74205	0.767
7.78297	0.842
7.82388	0.842
7.8648	0.744
7.90571	0.188
7.94663	0.316
7.98754	0.66
8.02846	0.823
8.06937	0.886
8.11028	0.892
8.1512	0.851
8.19211	0.904
8.23303	0.893
8.27394	0.902
8.31486	0.9
8.35577	0.917
8.39669	0.929
8.4376	0.907
8.47852	0.748
8.51943	0.904
8.56035	0.933
8.60126	0.876
8.64218	0.926
8.68309	0.95
8.724	0.955
8.76492	0.958
8.80583	0.958
8.84675	0.96
8.88766	0.96
8.92858	0.96
8.96949	0.95
9.01041	0.948
9.05132	0.95
9.09224	0.957
9.13315	0.952
9.17407	0.95
9.21498	0.868
9.2559	0.818
9.29681	0.893
9.33772	0.916
9.37864	0.919
9.41955	0.9
9.46047	0.885
9.50138	0.827
9.5423	0.727
9.58321	0.529
9.62413	0.558
9.66504	0.642
9.70596	0.727
9.74687	0.746
9.78779	0.654
9.8287	0.525
9.86962	0.537
9.91053	0.684
9.95144	0.796
9.99236	0.739
10.0333	0.756
10.0742	0.859
10.1151	0.875
10.156	0.863
10.1969	0.876
10.2378	0.892
10.2788	0.869
10.3197	0.845
10.3606	0.743
10.4015	0.592
10.4424	0.739
10.4833	0.823
10.5242	0.857
10.5652	0.921
10.6061	0.94
10.647	0.941
10.6879	0.946
10.7288	0.952
10.7697	0.946
10.8107	0.941
10.8516	0.941
10.8925	0.917
10.9334	0.892
10.9743	0.835
11.0152	0.556
11.0561	0.621
11.0971	0.796
11.138	0.854
11.1789	0.88
11.2198	0.904
11.2607	0.912
11.3016	0.919
11.3425	0.929
11.3835	0.926
11.4244	0.921
11.4653	0.931
11.5062	0.929
11.5471	0.921
11.588	0.919
11.6289	0.914
11.6699	0.898
11.7108	0.866
11.7517	0.78
11.7926	0.758
11.8335	0.821
11.8744	0.804
11.9153	0.773
11.9563	0.816
11.9972	0.851
12.0381	0.885
12.079	0.893
12.1199	0.89
12.1608	0.885
12.2018	0.883
12.2427	0.886
12.2836	0.89
12.3245	0.881
12.3654	0.88
12.4063	0.875
12.4472	0.861
12.4882	0.844
12.5291	0.833
12.57	0.823
12.6109	0.806
12.6518	0.792
12.6927	0.78
12.7336	0.761
12.7746	0.736
12.8155	0.712
12.8564	0.671
12.8973	0.606
12.9382	0.5
12.9791	0.359
13.02	0.224
13.061	0.126
13.1019	0.051
13.1428	0.035
13.1837	0.032
13.2246	0.032
13.2655	0.044
13.3064	0.113
13.3474	0.214
13.3883	0.297
13.4292	0.369
13.4701	0.429
13.511	0.481
13.5519	0.522
13.5928	0.561
13.6338	0.594
13.6747	0.616
13.7156	0.64
13.7565	0.659
13.7974	0.672
13.8383	0.684
13.8793	0.703
13.9202	0.717
13.9611	0.727
14.002	0.736
14.0429	0.739
14.0838	0.744
14.1247	0.744
14.1657	0.731
14.2066	0.698
14.2475	0.601
14.2884	0.472
14.3293	0.339
14.3702	0.251
14.4111	0.226
14.4521	0.277
14.493	0.419
14.5339	0.609
14.5748	0.726
14.6157	0.797
14.6566	0.828
14.6975	0.842
14.7385	0.851
14.7794	0.852
14.8203	0.852
14.8612	0.845
14.9021	0.832
14.943	0.825
14.9839	0.811
15.0249	0.784
15.0658	0.763
15.1067	0.756
15.1476	0.773
15.1885	0.787
15.2294	0.797
15.2704	0.809
15.3113	0.799
15.3522	0.803
15.3931	0.801
15.434	0.799
15.4749	0.792
15.5158	0.784
15.5568	0.782
15.5977	0.779
15.6386	0.777
15.6795	0.773
15.7204	0.77
15.7613	0.761
15.8022	0.758
15.8432	0.753
15.8841	0.75
15.925	0.75
15.9659	0.748
