Infrared Spectrum: P-TOLYL DISULFIDE
Formula: C14 H14 S2
CAS: 103-19-5
State: SOLID (MINERAL OIL MULL)
Melting point: 44-46 C
Class: COBLENTZ
Instrument: Not specified, most likely a prism, grating, or hybrid spectrometer.
Sampling: TRANSMISSION
Resolution: 4
Origin: WYANDOTTE CHEMICALS CORP., WYANDOTTE, MICHIGAN, USA
MICROMETERS	TRANSMITTANCE
2.027	0.353
2.06788	0.355
2.10875	0.363
2.14963	0.369
2.19051	0.362
2.23138	0.348
2.27226	0.341
2.31313	0.36
2.35401	0.35
2.39489	0.346
2.43576	0.358
2.47664	0.37
2.51752	0.374
2.55839	0.382
2.59927	0.387
2.64015	0.392
2.68102	0.394
2.7219	0.392
2.76278	0.389
2.80365	0.372
2.84453	0.363
2.8854	0.353
2.92628	0.343
2.96716	0.338
3.00803	0.336
3.04891	0.336
3.08979	0.338
3.13066	0.34
3.17154	0.336
3.21242	0.328
3.25329	0.273
3.29417	0.19
3.33505	0.117
3.37592	0.049
3.4168	0.032
3.45767	0.054
3.49855	0.059
3.53943	0.197
3.5803	0.414
3.62118	0.455
3.66206	0.448
3.70293	0.43
3.74381	0.455
3.78469	0.459
3.82556	0.467
3.86644	0.476
3.90732	0.474
3.94819	0.484
3.98907	0.493
4.02994	0.498
4.07082	0.5
4.1117	0.5
4.15257	0.503
4.19345	0.494
4.23433	0.511
4.2752	0.479
4.31608	0.511
4.35696	0.532
4.39783	0.534
4.43871	0.53
4.47959	0.53
4.52046	0.542
4.56134	0.545
4.60221	0.554
4.64309	0.559
4.68397	0.564
4.72484	0.568
4.76572	0.569
4.8066	0.578
4.84747	0.579
4.88835	0.578
4.92923	0.586
4.9701	0.588
5.01098	0.583
5.05186	0.585
5.09273	0.596
5.13361	0.603
5.17448	0.598
5.21536	0.61
5.25624	0.61
5.29711	0.561
5.33799	0.496
5.37887	0.596
5.41974	0.608
5.46062	0.603
5.5015	0.617
5.54237	0.627
5.58325	0.622
5.62413	0.579
5.665	0.612
5.70588	0.622
5.74675	0.61
5.78763	0.63
5.82851	0.63
5.86938	0.61
5.91026	0.612
5.95114	0.622
5.99201	0.624
6.03289	0.59
6.07377	0.554
6.11464	0.491
6.15552	0.6
6.1964	0.586
6.23727	0.489
6.27815	0.585
6.31902	0.539
6.3599	0.534
6.40078	0.629
6.44165	0.588
6.48253	0.6
6.52341	0.573
6.56428	0.578
6.60516	0.465
6.64604	0.26
6.68691	0.085
6.72779	0.136
6.76867	0.158
6.80954	0.103
6.85042	0.127
6.89129	0.17
6.93217	0.238
6.97305	0.321
7.01392	0.36
7.0548	0.372
7.09568	0.345
7.13655	0.185
7.17743	0.306
7.21831	0.36
7.25918	0.219
7.30006	0.443
7.34094	0.537
7.38181	0.561
7.42269	0.556
7.46356	0.562
7.50444	0.612
7.54532	0.622
7.58619	0.629
7.62707	0.588
7.66795	0.382
7.70882	0.607
7.7497	0.653
7.79058	0.664
7.83145	0.632
7.87233	0.639
7.91321	0.658
7.95408	0.659
7.99496	0.683
8.03583	0.678
8.07671	0.663
8.11759	0.661
8.15846	0.687
8.19934	0.688
8.24022	0.554
8.28109	0.583
8.32197	0.693
8.36285	0.717
8.40372	0.724
8.4446	0.462
8.48548	0.651
8.52635	0.714
8.56723	0.724
8.6081	0.736
8.64898	0.729
8.68986	0.743
8.73073	0.758
8.77161	0.765
8.81249	0.761
8.85336	0.736
8.89424	0.602
8.93512	0.198
8.97599	0.491
9.01687	0.566
9.05775	0.539
9.09862	0.53
9.1395	0.588
9.18037	0.607
9.22125	0.544
9.26213	0.287
9.303	0.501
9.34388	0.61
9.38476	0.634
9.42563	0.639
9.46651	0.603
9.50739	0.557
9.54826	0.479
9.58914	0.445
9.63002	0.486
9.67089	0.549
9.71177	0.615
9.75264	0.649
9.79352	0.6
9.8344	0.275
9.87527	0.423
9.91615	0.596
9.95703	0.664
9.9979	0.7
10.0388	0.722
10.0797	0.722
10.1205	0.726
10.1614	0.736
10.2023	0.75
10.2432	0.755
10.284	0.755
10.3249	0.744
10.3658	0.717
10.4067	0.612
10.4475	0.593
10.4884	0.693
10.5293	0.715
10.5702	0.734
10.611	0.77
10.6519	0.787
10.6928	0.75
10.7337	0.763
10.7746	0.818
10.8154	0.824
10.8563	0.833
10.8972	0.846
10.9381	0.86
10.9789	0.872
11.0198	0.879
11.0607	0.887
11.1016	0.896
11.1424	0.903
11.1833	0.906
11.2242	0.906
11.2651	0.906
11.3059	0.914
11.3468	0.92
11.3877	0.925
11.4286	0.926
11.4695	0.926
11.5103	0.926
11.5512	0.923
11.5921	0.925
11.633	0.923
11.6738	0.92
11.7147	0.911
11.7556	0.887
11.7965	0.862
11.8373	0.87
11.8782	0.862
11.9191	0.795
11.96	0.833
12.0008	0.765
12.0417	0.801
12.0826	0.882
12.1235	0.909
12.1644	0.916
12.2052	0.911
12.2461	0.884
12.287	0.804
12.3279	0.666
12.3687	0.42
12.4096	0.176
12.4505	0.059
12.4914	0.027
12.5322	0.027
12.5731	0.034
12.614	0.1
12.6549	0.215
12.6957	0.333
12.7366	0.44
12.7775	0.501
12.8184	0.539
12.8593	0.573
12.9001	0.603
12.941	0.639
12.9819	0.664
13.0228	0.687
13.0636	0.71
13.1045	0.726
13.1454	0.743
13.1863	0.753
13.2271	0.761
13.268	0.77
13.3089	0.773
13.3498	0.778
13.3906	0.782
13.4315	0.785
13.4724	0.787
13.5133	0.79
13.5542	0.79
13.595	0.79
13.6359	0.79
13.6768	0.79
13.7177	0.79
13.7585	0.789
13.7994	0.785
13.8403	0.777
13.8812	0.772
13.922	0.778
13.9629	0.797
14.0038	0.816
14.0447	0.824
14.0855	0.838
14.1264	0.838
14.1673	0.838
14.2082	0.833
14.2491	0.824
14.2899	0.812
14.3308	0.801
14.3717	0.773
14.4126	0.738
14.4534	0.731
14.4943	0.751
14.5352	0.763
14.5761	0.792
14.6169	0.801
14.6578	0.802
14.6987	0.804
14.7396	0.801
14.7804	0.789
14.8213	0.778
14.8622	0.77
14.9031	0.768
14.944	0.761
14.9848	0.743
15.0257	0.678
15.0666	0.6
15.1075	0.573
15.1483	0.602
15.1892	0.653
15.2301	0.688
15.271	0.7
15.3118	0.693
15.3527	0.69
15.3936	0.697
15.4345	0.693
15.4753	0.681
15.5162	0.663
15.5571	0.656
15.598	0.651
15.6389	0.641
15.6797	0.62
15.7206	0.602
15.7615	0.585
15.8024	0.569
15.8432	0.556
15.8841	0.552
15.925	0.549
15.9659	0.535
