Infrared Spectrum: 5-Ethyl-2-nonanol
Formula: C11 H24 O
CAS: 103-08-2
State: SOLUTION (10% CCl4 FOR 3800-1330, 10% CS2 FOR 1330-400 CM^-^1)
Class: COBLENTZ III
Instrument: DOW KBr FOREPRISM-GRATING
Instrument parameters: BLAZED AT 3.5, 12.0, 20.0 MICRON AND CHANGED AT 5.0, 7.5, 14.9 MICRON
Sampling: TRANSMISSION
Path length: 0.011 CM, 0.011 CM
Resolution: 2
Origin: DOW CHEMICAL COMPANY
1/CM	TRANSMITTANCE
3800	0.9145
3791	0.9162
3782	0.9151
3773	0.9162
3764	0.9155
3755	0.9149
3746	0.9144
3737	0.9153
3728	0.915
3719	0.9134
3710	0.9135
3701	0.9077
3692	0.8955
3683	0.8815
3674	0.8735
3665	0.8778
3656	0.8805
3647	0.8642
3638	0.8077
3629	0.6475
3620	0.6416
3611	0.7102
3602	0.7748
3593	0.8292
3584	0.8424
3575	0.8423
3566	0.8301
3557	0.8062
3548	0.7822
3539	0.7566
3530	0.7273
3521	0.6851
3512	0.6517
3503	0.632
3494	0.6106
3485	0.5939
3476	0.5768
3467	0.562
3458	0.547
3449	0.5332
3440	0.5189
3431	0.5036
3422	0.4888
3413	0.4753
3404	0.4612
3395	0.4472
3386	0.4346
3377	0.4249
3368	0.4189
3359	0.4163
3350	0.4157
3341	0.4196
3332	0.4266
3323	0.4378
3314	0.4529
3305	0.474
3296	0.4949
3287	0.5214
3278	0.5454
3269	0.5726
3260	0.601
3251	0.6251
3242	0.6478
3233	0.6691
3224	0.6888
3215	0.7075
3206	0.7231
3197	0.7404
3188	0.7556
3179	0.769
3170	0.7815
3161	0.793
3152	0.8038
3143	0.8107
3134	0.8174
3125	0.8213
3116	0.8242
3107	0.8271
3098	0.8296
3089	0.8309
3080	0.829
3071	0.8316
3062	0.8272
3053	0.8219
3044	0.8183
3035	0.8063
3026	0.7795
3017	0.7535
3008	0.699
2999	0.6075
2990	0.3623
2981	0.1779
2972	0.024
2963	0.012
2954	0.0231
2945	0.0366
2936	0.0146
2927	0.0124
2918	0.0166
2909	0.0373
2900	0.0789
2891	0.1268
2882	0.1632
2873	0.0456
2864	0.047
2855	0.079
2846	0.2724
2837	0.4297
2828	0.5777
2819	0.6412
2810	0.6876
2801	0.733
2792	0.7646
2783	0.7879
2774	0.8043
2765	0.8148
2756	0.8189
2747	0.8193
2738	0.8088
2729	0.8027
2720	0.8098
2711	0.8186
2702	0.8249
2693	0.8294
2684	0.8304
2675	0.8279
2666	0.8231
2657	0.827
2648	0.8341
2639	0.8385
2630	0.8424
2621	0.8472
2612	0.8511
2603	0.8549
2594	0.8581
2585	0.8614
2576	0.865
2567	0.8686
2558	0.8728
2549	0.8771
2540	0.8813
2531	0.8852
2522	0.8883
2513	0.8911
2504	0.894
2495	0.8971
2486	0.9
2477	0.9041
2468	0.9062
2459	0.9078
2450	0.9079
2441	0.9086
2432	0.9077
2423	0.9065
2414	0.9048
2405	0.9042
2396	0.9025
2387	0.9043
2378	0.9122
2369	0.9159
2360	0.916
2351	0.9183
2342	0.9185
2333	0.9186
2324	0.9228
2315	0.9206
2306	0.9166
2297	0.9144
2288	0.9131
2279	0.9133
2270	0.913
2261	0.9126
2252	0.9125
2243	0.9129
2234	0.9133
2225	0.9147
2216	0.9146
2207	0.9152
2198	0.9158
2189	0.9149
2180	0.915
2171	0.9164
2162	0.9144
2153	0.9148
2144	0.916
2135	0.9172
2126	0.918
2117	0.9184
2108	0.9183
2099	0.9184
2090	0.9184
2081	0.9176
2072	0.9169
2063	0.9162
2054	0.917
2045	0.9147
2036	0.9137
2027	0.9135
2018	0.9129
2009	0.9126
2000	0.9131
1991	0.8748
1982	0.9162
1973	0.9182
1964	0.9183
1955	0.9219
1946	0.921
1937	0.9221
1928	0.9229
1919	0.923
1910	0.9227
1901	0.9242
1892	0.9262
1883	0.9239
1874	0.9251
1865	0.9252
1856	0.9263
1847	0.9273
1838	0.928
1829	0.9266
1820	0.9264
1811	0.9274
1802	0.9242
1793	0.9238
1784	0.9236
1775	0.9223
1766	0.9224
1757	0.9238
1748	0.9228
1739	0.922
1730	0.9224
1721	0.9026
1712	0.8599
1703	0.8815
1694	0.8992
1685	0.907
1676	0.9087
1667	0.9113
1658	0.9106
1649	0.9107
1640	0.9049
1631	0.9036
1622	0.9015
1613	0.9026
1604	0.9084
1595	0.9107
1586	0.8782
1577	0.8395
1568	0.833
1559	0.8228
1550	0.8044
1541	0.7876
1532	0.8075
1523	0.8139
1514	0.8269
1505	0.8228
1496	0.8285
1487	0.8179
1478	0.7197
1469	0.3106
1460	0.1755
1451	0.349
1442	0.557
1433	0.6593
1424	0.6949
1415	0.6745
1406	0.6426
1397	0.6128
1388	0.5524
1379	0.2382
1370	0.4241
1361	0.5529
1352	0.6017
1343	0.6354
1334	0.6608
1325	0.6708
1316	0.6574
1307	0.643
1298	0.6324
1289	0.6483
1280	0.667
1271	0.6868
1262	0.6949
1253	0.691
1244	0.6812
1235	0.7146
1226	0.7757
1217	0.7943
1208	0.8045
1199	0.8067
1190	0.8033
1181	0.8418
1172	0.8694
1163	0.8228
1154	0.7017
1145	0.6029
1136	0.5937
1127	0.5889
1118	0.5407
1109	0.5064
1100	0.5705
1091	0.6041
1082	0.595
1073	0.5488
1064	0.5548
1055	0.6094
1046	0.6332
1037	0.6388
1028	0.6595
1019	0.7269
1010	0.8033
1001	0.833
992	0.8263
983	0.827
974	0.7726
965	0.7522
956	0.6777
947	0.6331
938	0.6356
929	0.6416
920	0.8049
911	0.8764
902	0.8979
893	0.8904
884	0.9224
875	0.9238
866	0.8989
857	0.8269
848	0.7707
839	0.8939
830	0.907
821	0.9169
812	0.9272
803	0.9511
794	0.9142
785	0.8727
776	0.8686
767	0.8585
758	0.8779
749	0.8747
740	0.8777
731	0.8423
722	0.834
713	0.8752
704	0.8805
695	0.8822
686	0.8792
677	0.8771
668	0.8883
659	0.8731
650	0.8538
641	0.852
632	0.8531
623	0.8546
614	0.8585
605	0.8599
596	0.8613
587	0.8577
578	0.8568
569	0.857
560	0.8513
551	0.846
542	0.847
533	0.849
524	0.8487
515	0.8466
506	0.8433
497	0.8353
488	0.8313
479	0.8317
470	0.8225
461	0.8042
452	0.7857
443	0.7636
434	0.7297
425	0.6871
416	0.6114
407	0.4462
398	0.1704
389	0.1214
