Infrared Spectrum: NONANEDIOIC ACID, DI-2-ETHYLHEXYL ESTER
Formula: C25 H48 O4
CAS: 103-24-2
State: LIQUID
Class: COBLENTZ
Instrument: PERKIN-ELMER
Sampling: TRANSMISSION
Path length: 0.0015 CM
Resolution: 4
Origin: STANDARD OIL OF OHIO
MICROMETERS	TRANSMITTANCE
2.041	0.994
2.07482	0.996
2.10864	0.996
2.14245	0.998
2.17627	1
2.21009	1
2.24391	0.994
2.27773	0.962
2.31154	0.895
2.34536	0.878
2.37918	0.892
2.413	0.901
2.44682	0.909
2.48064	0.916
2.51445	0.933
2.54827	0.948
2.58209	0.957
2.61591	0.964
2.64973	0.967
2.68354	0.972
2.71736	0.974
2.75118	0.97
2.785	0.953
2.81882	0.897
2.85263	0.868
2.88645	0.897
2.92027	0.895
2.95409	0.94
2.98791	0.957
3.02172	0.967
3.05554	0.969
3.08936	0.964
3.12318	0.947
3.157	0.93
3.19082	0.918
3.22463	0.901
3.25845	0.863
3.29227	0.805
3.32609	0.598
3.35991	0.209
3.39372	0.034
3.42754	0.013
3.46136	0.011
3.49518	0.105
3.529	0.406
3.56281	0.58
3.59663	0.706
3.63045	0.784
3.66427	0.793
3.69809	0.8
3.7319	0.829
3.76572	0.848
3.79954	0.863
3.83336	0.877
3.86718	0.887
3.90099	0.902
3.93481	0.923
3.96863	0.933
4.00245	0.938
4.03627	0.948
4.07009	0.952
4.1039	0.952
4.13772	0.952
4.17154	0.95
4.20536	0.948
4.23918	0.948
4.27299	0.945
4.30681	0.941
4.34063	0.94
4.37445	0.941
4.40827	0.948
4.44208	0.95
4.4759	0.95
4.50972	0.953
4.54354	0.955
4.57736	0.955
4.61117	0.955
4.64499	0.955
4.67881	0.953
4.71263	0.952
4.74645	0.95
4.78027	0.95
4.81408	0.948
4.8479	0.945
4.88172	0.943
4.91554	0.945
4.94936	0.948
4.98317	0.952
5.01699	0.952
5.05081	0.952
5.08463	0.953
5.11845	0.953
5.15226	0.953
5.18608	0.953
5.2199	0.953
5.25372	0.953
5.28754	0.952
5.32135	0.952
5.35517	0.95
5.38899	0.94
5.42281	0.933
5.45663	0.918
5.49045	0.897
5.52426	0.873
5.55808	0.843
5.5919	0.8
5.62572	0.72
5.65954	0.575
5.69335	0.327
5.72717	0.087
5.76099	0.018
5.79481	0.011
5.82863	0.184
5.86244	0.308
5.89626	0.534
5.93008	0.674
5.9639	0.762
5.99772	0.807
6.03153	0.836
6.06535	0.849
6.09917	0.853
6.13299	0.87
6.16681	0.883
6.20062	0.89
6.23444	0.899
6.26826	0.902
6.30208	0.902
6.3359	0.902
6.36972	0.901
6.40353	0.901
6.43735	0.895
6.47117	0.889
6.50499	0.882
6.53881	0.87
6.57262	0.86
6.60644	0.846
6.64026	0.82
6.67408	0.771
6.7079	0.687
6.74171	0.554
6.77553	0.303
6.80935	0.076
6.84317	0.023
6.87699	0.054
6.9108	0.131
6.94462	0.238
6.97844	0.356
7.01226	0.445
7.04608	0.438
7.0799	0.484
7.11371	0.564
7.14753	0.525
7.18135	0.288
7.21517	0.186
7.24899	0.134
7.2828	0.163
7.31662	0.237
7.35044	0.242
7.38426	0.244
7.41808	0.254
7.45189	0.274
7.48571	0.315
7.51953	0.354
7.55335	0.349
7.58717	0.322
7.62098	0.305
7.6548	0.286
7.68862	0.274
7.72244	0.267
7.75626	0.259
7.79008	0.24
7.82389	0.199
7.85771	0.17
7.89153	0.143
7.92535	0.127
7.95917	0.116
7.99298	0.1
8.0268	0.085
8.06062	0.078
8.09444	0.075
8.12826	0.075
8.16207	0.075
8.19589	0.075
8.22971	0.073
8.26353	0.071
8.29735	0.064
8.33116	0.056
8.36498	0.047
8.3988	0.034
8.43262	0.023
8.46644	0.017
8.50025	0.008
8.53407	0.005
8.56789	0.003
8.60171	0.006
8.63553	0.01
8.66935	0.017
8.70316	0.023
8.73698	0.034
8.7708	0.046
8.80462	0.054
8.83844	0.08
8.87225	0.105
8.90607	0.136
8.93989	0.182
8.97371	0.238
9.00753	0.3
9.04134	0.332
9.07516	0.332
9.10898	0.315
9.1428	0.293
9.17662	0.278
9.21043	0.279
9.24425	0.296
9.27807	0.343
9.31189	0.392
9.34571	0.435
9.37953	0.455
9.41334	0.467
9.44716	0.477
9.48098	0.484
9.5148	0.491
9.54862	0.491
9.58243	0.477
9.61625	0.457
9.65007	0.431
9.68389	0.402
9.71771	0.383
9.75152	0.373
9.78534	0.375
9.81916	0.368
9.85298	0.354
9.8868	0.344
9.92061	0.341
9.95443	0.344
9.98825	0.375
10.0221	0.397
10.0559	0.414
10.0897	0.419
10.1235	0.424
10.1573	0.431
10.1912	0.441
10.225	0.452
10.2588	0.459
10.2926	0.465
10.3264	0.467
10.3602	0.469
10.3941	0.472
10.4279	0.486
10.4617	0.51
10.4955	0.537
10.5293	0.561
10.5632	0.583
10.597	0.602
10.6308	0.614
10.6646	0.617
10.6984	0.621
10.7322	0.619
10.7661	0.619
10.7999	0.61
10.8337	0.592
10.8675	0.588
10.9013	0.585
10.9352	0.585
10.969	0.585
11.0028	0.588
11.0366	0.604
11.0704	0.617
11.1042	0.636
11.1381	0.646
11.1719	0.653
11.2057	0.662
11.2395	0.67
11.2733	0.684
11.3072	0.703
11.341	0.715
11.3748	0.726
11.4086	0.742
11.4424	0.75
11.4762	0.755
11.5101	0.761
11.5439	0.764
11.5777	0.769
11.6115	0.771
11.6453	0.781
11.6792	0.788
11.713	0.795
11.7468	0.802
11.7806	0.807
11.8144	0.812
11.8482	0.812
11.8821	0.813
11.9159	0.813
11.9497	0.813
11.9835	0.817
12.0173	0.819
12.0512	0.817
12.085	0.815
12.1188	0.813
12.1526	0.812
12.1864	0.81
12.2202	0.808
12.2541	0.81
12.2879	0.81
12.3217	0.81
12.3555	0.81
12.3893	0.808
12.4232	0.812
12.457	0.812
12.4908	0.81
12.5246	0.81
12.5584	0.808
12.5922	0.805
12.6261	0.796
12.6599	0.781
12.6937	0.757
12.7275	0.726
12.7613	0.701
12.7952	0.677
12.829	0.662
12.8628	0.645
12.8966	0.631
12.9304	0.621
12.9642	0.612
12.9981	0.607
13.0319	0.609
13.0657	0.616
13.0995	0.648
13.1333	0.665
13.1672	0.68
13.201	0.692
13.2348	0.704
13.2686	0.711
13.3024	0.709
13.3362	0.706
13.3701	0.703
13.4039	0.699
13.4377	0.694
13.4715	0.686
13.5053	0.675
13.5392	0.663
13.573	0.651
13.6068	0.634
13.6406	0.607
13.6744	0.573
13.7082	0.549
13.7421	0.527
13.7759	0.517
13.8097	0.52
13.8435	0.547
13.8773	0.588
13.9111	0.624
13.945	0.655
13.9788	0.684
14.0126	0.708
14.0464	0.726
14.0802	0.747
14.1141	0.762
14.1479	0.771
14.1817	0.783
14.2155	0.788
14.2493	0.795
14.2831	0.8
14.317	0.803
14.3508	0.807
14.3846	0.812
14.4184	0.815
14.4522	0.815
14.4861	0.819
14.5199	0.82
14.5537	0.822
14.5875	0.822
14.6213	0.822
14.6551	0.822
14.689	0.822
14.7228	0.822
14.7566	0.82
14.7904	0.82
14.8242	0.819
14.8581	0.817
14.8919	0.813
14.9257	0.812
14.9595	0.807
14.9933	0.802
15.0271	0.796
15.061	0.793
15.0948	0.79
15.1286	0.783
15.1624	0.778
15.1962	0.773
15.2301	0.771
15.2639	0.767
