Infrared Spectrum: Isothiocyanic acid, phenyl ester
Formula: C7 H5 N S
CAS: 103-72-0
State: LIQUID (NEAT)
Class: COBLENTZ III
Instrument: PERKIN-ELMER 221 (GRATING)
Instrument parameters: FILTER AT 980 CM^-^1. GRATING 4000-1428 CM^-^1, NaCl PRISM 1428-650 CM^-^1
Path length: 0.0018 CM
Resolution: 2
Origin: SOUTHERN RESEARCH INSTITUTE
1/CM	TRANSMITTANCE
675	0.0746
684	0.1556
693	0.5179
702	0.8743
711	0.8868
720	0.8681
729	0.7563
738	0.2467
747	0.0497
756	0.2997
765	0.7016
774	0.8536
783	0.9053
792	0.9269
801	0.9229
810	0.9032
819	0.8716
828	0.8722
837	0.9487
846	0.9635
855	0.9614
864	0.9358
873	0.8976
882	0.8564
891	0.734
900	0.2984
909	0.4494
918	0.1336
927	0.131
936	0.3971
945	0.6632
954	0.8409
963	0.8714
972	0.8155
981	0.7629
990	0.8317
999	0.6618
1008	0.9385
1017	0.895
1026	0.9696
1035	0.9744
1044	0.9611
1053	0.911
1062	0.5127
1071	0.7401
1080	0.9265
1089	0.8898
1098	0.9257
1107	0.997
1116	0.9953
1125	0.9864
1134	0.9681
1143	0.9187
1152	0.8416
1161	0.7981
1170	0.9009
1179	0.9641
1188	0.9748
1197	0.9745
1206	0.9689
1215	0.9475
1224	0.9128
1233	0.8564
1242	0.7553
1251	0.8353
1260	0.8509
1269	0.7957
1278	0.7858
1287	0.8897
1296	0.8996
1305	0.9256
1314	0.9634
1323	0.9734
1332	0.9797
1341	0.9824
1350	0.9815
1359	0.9792
1368	0.9751
1377	0.9576
1386	0.9504
1395	0.9735
1404	1.0096
1413	0.993
1422	0.9817
1431	0.9418
1440	0.7965
1449	0.5189
1458	0.772
1467	0.3694
1476	0.31
1485	0.1374
1494	0.716
1503	0.8673
1512	0.9166
1521	0.9421
1530	0.9381
1539	0.923
1548	0.9077
1557	0.8816
1566	0.821
1575	0.4136
1584	0.0618
1593	0.3133
1602	0.7159
1611	0.8284
1620	0.8723
1629	0.8786
1638	0.8556
1647	0.8563
1656	0.8703
1665	0.9246
1674	0.9465
1683	0.9506
1692	0.9465
1701	0.9386
1710	0.9261
1719	0.8982
1728	0.8409
1737	0.8853
1746	0.9282
1755	0.9303
1764	0.922
1773	0.9034
1782	0.8841
1791	0.8928
1800	0.8813
1809	0.8853
1818	0.9138
1827	0.9051
1836	0.8649
1845	0.8065
1854	0.7441
1863	0.7251
1872	0.8029
1881	0.7977
1890	0.8175
1899	0.8119
1908	0.7841
1917	0.7062
1926	0.6044
1935	0.4997
1944	0.3724
1953	0.3008
1962	0.2182
1971	0.137
1980	0.0851
1989	0.0474
1998	0.0436
2007	0.0433
2016	0.0424
2025	0.0417
2034	0.041
2043	0.0412
2052	0.0415
2061	0.0419
2070	0.0425
2079	0.0433
2088	0.0446
2097	0.0463
2106	0.0475
2115	0.0485
2124	0.0481
2133	0.0477
2142	0.0473
2151	0.0472
2160	0.0476
2169	0.0483
2178	0.0524
2187	0.0871
2196	0.1244
2205	0.2398
2214	0.359
2223	0.4646
2232	0.5789
2241	0.6805
2250	0.7371
2259	0.7986
2268	0.8226
2277	0.8412
2286	0.909
2295	0.9431
2304	0.9508
2313	0.9395
2322	0.9344
2331	0.9507
2340	0.9599
2349	0.9567
2358	0.9555
2367	0.9549
2376	0.9475
2385	0.936
2394	0.9237
2403	0.9117
2412	0.9022
2421	0.9048
2430	0.9079
2439	0.8905
2448	0.8659
2457	0.8338
2466	0.7972
2475	0.7881
2484	0.7975
2493	0.8365
2502	0.857
2511	0.8584
2520	0.8498
2529	0.8331
2538	0.804
2547	0.7632
2556	0.7456
2565	0.7497
2574	0.7838
2583	0.8272
2592	0.8667
2601	0.9142
2610	0.9457
2619	0.9595
2628	0.9696
2637	0.9727
2646	0.9711
2655	0.9699
2664	0.9695
2673	0.9691
2682	0.9673
2691	0.9554
2700	0.9406
2709	0.9257
2718	0.9067
2727	0.8862
2736	0.8489
2745	0.8379
2754	0.8361
2763	0.8414
2772	0.8527
2781	0.8773
2790	0.901
2799	0.922
2808	0.9399
2817	0.95
2826	0.9532
2835	0.9502
2844	0.9483
2853	0.9484
2862	0.9507
2871	0.9561
2880	0.9645
2889	0.9678
2898	0.9664
2907	0.9594
2916	0.9512
2925	0.9424
2934	0.933
2943	0.9227
2952	0.9104
2961	0.8983
2970	0.8845
2979	0.8778
2988	0.873
2997	0.8535
3006	0.824
3015	0.8083
3024	0.7494
3033	0.7263
3042	0.7223
3051	0.7074
3060	0.582
3069	0.6053
3078	0.7462
3087	0.7464
3096	0.7535
3105	0.857
3114	0.9091
3123	0.925
3132	0.9354
3141	0.9409
3150	0.9449
3159	0.948
3168	0.9512
3177	0.9565
3186	0.9666
3195	0.9754
3204	0.979
3213	0.9799
3222	0.9799
3231	0.98
3240	0.9808
3249	0.9812
3258	0.9814
3267	0.981
3276	0.9794
3285	0.9782
3294	0.9771
3303	0.976
3312	0.975
3321	0.9743
3330	0.9738
3339	0.973
3348	0.9723
3357	0.9717
3366	0.971
3375	0.9702
3384	0.9695
3393	0.9689
3402	0.9685
3411	0.9682
3420	0.9678
3429	0.9659
3438	0.9639
3447	0.962
3456	0.9611
3465	0.9609
3474	0.9608
3483	0.9608
3492	0.9607
3501	0.9606
3510	0.9611
3519	0.9619
3528	0.9622
3537	0.9625
3546	0.9626
3555	0.9625
3564	0.9626
3573	0.9629
3582	0.9632
3591	0.9622
3600	0.9571
3609	0.9522
3618	0.9511
3627	0.9507
3636	0.9501
3645	0.949
3654	0.9483
3663	0.948
3672	0.9475
3681	0.9462
3690	0.9428
3699	0.9389
3708	0.9358
3717	0.9457
3726	0.9499
3735	0.9494
3744	0.9493
3753	0.9493
3762	0.9496
3771	0.9499
3780	0.9497
3789	0.9494
3798	0.9491
3807	0.9485
3816	0.9478
3825	0.9471
3834	0.9463
3843	0.9455
3852	0.9448
3861	0.9442
3870	0.9439
3879	0.9436
3888	0.944
3897	0.9443
3906	0.9444
3915	0.9434
3924	0.9424
3933	0.9404
3942	0.9381
3951	0.9359
3960	0.9319
3969	0.9283
3978	0.9263
3987	0.9243
3996	0.9222
