Infrared Spectrum: Acetamide, 2-phenyl-
Formula: C8 H9 N O
CAS: 103-81-1
State: SOLID (SPLIT MULL)
Class: COBLENTZ III
Instrument: DOW KBr FOREPRISM-GRATING
Instrument parameters: BLAZED AT 3.5, 12.0, 20.0 MICRON AND CHANGED AT 5.0, 7.5, 14.9 MICRON
Sampling: TRANSMISSION
Resolution: 2
Origin: DOW CHEMICAL COMPANY
1/CM	TRANSMITTANCE
3820	0.8149
3811	0.815
3802	0.8151
3793	0.8162
3784	0.8181
3775	0.8199
3766	0.8212
3757	0.8225
3748	0.826
3739	0.8299
3730	0.8297
3721	0.8275
3712	0.8283
3703	0.833
3694	0.8362
3685	0.8338
3676	0.8307
3667	0.833
3658	0.8364
3649	0.8395
3640	0.8418
3631	0.844
3622	0.8459
3613	0.8468
3604	0.8478
3595	0.8495
3586	0.8512
3577	0.8528
3568	0.8545
3559	0.8558
3550	0.8573
3541	0.8585
3532	0.8597
3523	0.8606
3514	0.861
3505	0.8613
3496	0.8614
3487	0.8575
3478	0.8533
3469	0.8471
3460	0.8349
3451	0.8136
3442	0.7874
3433	0.7422
3424	0.6721
3415	0.5648
3406	0.4314
3397	0.2897
3388	0.2211
3379	0.206
3370	0.2117
3361	0.2315
3352	0.2563
3343	0.3011
3334	0.3586
3325	0.3989
3316	0.4282
3307	0.4542
3298	0.469
3289	0.4838
3280	0.4988
3271	0.516
3262	0.5247
3253	0.5192
3244	0.4952
3235	0.462
3226	0.424
3217	0.3966
3208	0.3656
3199	0.3409
3190	0.3298
3181	0.33
3172	0.3399
3163	0.367
3154	0.4109
3145	0.4629
3136	0.515
3127	0.567
3118	0.619
3109	0.634
3100	0.6347
3091	0.6415
3082	0.6724
3073	0.6405
3064	0.6639
3055	0.7017
3046	0.7024
3037	0.6438
3028	0.6858
3019	0.7351
3010	0.7528
3001	0.7605
2992	0.7653
2983	0.7691
2974	0.7711
2965	0.7725
2956	0.7731
2947	0.7735
2938	0.7748
2929	0.7767
2920	0.7825
2911	0.7925
2902	0.7975
2893	0.7992
2884	0.7994
2875	0.7985
2866	0.7995
2857	0.8021
2848	0.8017
2839	0.7978
2830	0.7901
2821	0.7794
2812	0.7708
2803	0.765
2794	0.7764
2785	0.7933
2776	0.8003
2767	0.8061
2758	0.8111
2749	0.816
2740	0.8184
2731	0.8206
2722	0.8232
2713	0.826
2704	0.8287
2695	0.8314
2686	0.8342
2677	0.8368
2668	0.8393
2659	0.8408
2650	0.8423
2641	0.8423
2632	0.8423
2623	0.8425
2614	0.8431
2605	0.8434
2596	0.8441
2587	0.845
2578	0.8459
2569	0.8468
2560	0.8478
2551	0.8486
2542	0.8495
2533	0.8503
2524	0.8512
2515	0.851
2506	0.8507
2497	0.8505
2488	0.8507
2479	0.8508
2470	0.8509
2461	0.851
2452	0.8511
2443	0.8512
2434	0.8504
2425	0.8492
2416	0.8481
2407	0.8468
2398	0.8475
2389	0.8477
2380	0.8473
2371	0.8466
2362	0.845
2353	0.8431
2344	0.8407
2335	0.8411
2326	0.8418
2317	0.8438
2308	0.8461
2299	0.8486
2290	0.849
2281	0.8474
2272	0.8459
2263	0.8464
2254	0.8491
2245	0.8525
2236	0.8568
2227	0.8603
2218	0.8633
2209	0.8649
2200	0.8662
2191	0.8674
2182	0.8686
2173	0.8694
2164	0.8702
2155	0.8711
2146	0.8715
2137	0.8718
2128	0.8725
2119	0.8736
2110	0.8748
2101	0.8745
2092	0.8739
2083	0.8742
2074	0.8755
2065	0.8767
2056	0.8778
2047	0.8791
2038	0.8797
2029	0.8804
2020	0.8821
2011	0.8832
2002	0.8827
1993	0.8766
1984	0.8792
1975	0.8818
1966	0.8825
1957	0.8775
1948	0.8765
1939	0.8832
1930	0.8838
1921	0.884
1912	0.8834
1903	0.8811
1894	0.8784
1885	0.8768
1876	0.8783
1867	0.8791
1858	0.8811
1849	0.8835
1840	0.8861
1831	0.8838
1822	0.8797
1813	0.8741
1804	0.8736
1795	0.879
1786	0.8775
1777	0.8714
1768	0.8645
1759	0.865
1750	0.8703
1741	0.872
1732	0.8673
1723	0.8539
1714	0.8334
1705	0.7949
1696	0.7938
1687	0.7187
1678	0.5679
1669	0.373
1660	0.1644
1651	0.1215
1642	0.0723
1633	0.0946
1624	0.2895
1615	0.5207
1606	0.6136
1597	0.6576
1588	0.7145
1579	0.731
1570	0.7625
1561	0.7739
1552	0.7807
1543	0.7868
1534	0.7928
1525	0.7956
1516	0.7953
1507	0.7904
1498	0.5362
1489	0.7641
1480	0.7904
1471	0.7841
1462	0.7717
1453	0.5635
1444	0.7315
1435	0.6828
1426	0.5039
1417	0.2667
1408	0.3291
1399	0.5307
1390	0.6428
1381	0.6849
1372	0.7044
1363	0.6984
1354	0.6975
1345	0.7035
1336	0.7043
1327	0.7207
1318	0.7296
1309	0.7236
1300	0.6628
1291	0.5364
1282	0.5562
1273	0.6581
1264	0.714
1255	0.7465
1246	0.7621
1237	0.7745
1228	0.7801
1219	0.784
1210	0.7736
1201	0.7375
1192	0.769
1183	0.6354
1174	0.7525
1165	0.7764
1156	0.7515
1147	0.7767
1138	0.7448
1129	0.7537
1120	0.7989
1111	0.8164
1102	0.8216
1093	0.8227
1084	0.819
1075	0.771
1066	0.7705
1057	0.83
1048	0.8417
1039	0.8462
1030	0.7801
1021	0.8304
1012	0.8571
1003	0.8595
994	0.8609
985	0.8668
976	0.8694
967	0.8671
958	0.8774
949	0.8838
940	0.8848
931	0.8757
922	0.8778
913	0.8596
904	0.8833
895	0.8825
886	0.827
877	0.8545
868	0.8782
859	0.8724
850	0.8575
841	0.8345
832	0.8043
823	0.7889
814	0.8018
805	0.8137
796	0.8238
787	0.8271
778	0.8191
769	0.8021
760	0.7701
751	0.572
742	0.4003
733	0.6542
724	0.5959
715	0.557
706	0.4784
697	0.2434
688	0.5339
679	0.5912
670	0.5975
661	0.6265
652	0.6547
643	0.6543
634	0.6611
625	0.6775
616	0.6946
607	0.7255
598	0.7426
589	0.6719
580	0.6203
571	0.7228
562	0.7761
553	0.7828
544	0.7678
535	0.6908
526	0.7561
517	0.7769
508	0.7789
499	0.7774
490	0.7718
481	0.756
472	0.679
463	0.7536
454	0.7571
445	0.7583
436	0.7578
427	0.745
418	0.7357
409	0.7341
400	0.7342
391	0.7348
382	0.7336
