Infrared Spectrum: Di-2-ethylhexyl adipate
Formula: C22 H42 O4
CAS: 103-23-1
State: SOLUTION (10% CCl4 FOR 2.7-7.5, 10% CS2 FOR 7.5-25 MICRON) VS SOLVENT
Class: COBLENTZ III
Instrument: DOW KBr FOREPRISM-GRATING
Instrument parameters: BLAZED AT 3.5, 12.0, 20.0 MICRON AND CHANGED AT 5.0, 7.5, 14.9 MICRON
Sampling: TRANSMISSION
Path length: 0.011 CM, 0.011 CM
Resolution: 2
Origin: DOW CHEMICAL COMPANY
1/CM	TRANSMITTANCE
3800	0.8611
3791	0.8613
3782	0.8621
3773	0.8631
3764	0.8621
3755	0.8634
3746	0.8643
3737	0.8637
3728	0.8631
3719	0.8637
3710	0.8644
3701	0.865
3692	0.8654
3683	0.8605
3674	0.8611
3665	0.8631
3656	0.8635
3647	0.8628
3638	0.86
3629	0.8563
3620	0.8602
3611	0.861
3602	0.8646
3593	0.8673
3584	0.8697
3575	0.8705
3566	0.8698
3557	0.8691
3548	0.8688
3539	0.8687
3530	0.8681
3521	0.8696
3512	0.8727
3503	0.8754
3494	0.8775
3485	0.8793
3476	0.8795
3467	0.8771
3458	0.8665
3449	0.8601
3440	0.8594
3431	0.8635
3422	0.8712
3413	0.8775
3404	0.8821
3395	0.885
3386	0.8864
3377	0.8873
3368	0.8878
3359	0.8878
3350	0.8878
3341	0.8874
3332	0.8867
3323	0.8857
3314	0.8846
3305	0.882
3296	0.8813
3287	0.8818
3278	0.8825
3269	0.8831
3260	0.8835
3251	0.8827
3242	0.882
3233	0.8817
3224	0.8795
3215	0.8765
3206	0.8749
3197	0.8734
3188	0.8723
3179	0.871
3170	0.8703
3161	0.8699
3152	0.8695
3143	0.8683
3134	0.8666
3125	0.8651
3116	0.8641
3107	0.862
3098	0.8595
3089	0.8557
3080	0.8516
3071	0.8474
3062	0.8414
3053	0.8336
3044	0.8228
3035	0.8101
3026	0.7985
3017	0.7742
3008	0.7221
2999	0.5919
2990	0.3888
2981	0.2882
2972	0.0483
2963	0.0292
2954	0.0565
2945	0.0762
2936	0.0427
2927	0.0387
2918	0.1001
2909	0.1679
2900	0.236
2891	0.3039
2882	0.1984
2873	0.1784
2864	0.1451
2855	0.3089
2846	0.584
2837	0.64
2828	0.6976
2819	0.7415
2810	0.769
2801	0.7858
2792	0.8012
2783	0.8125
2774	0.823
2765	0.8283
2756	0.8303
2747	0.8287
2738	0.8238
2729	0.8218
2720	0.8263
2711	0.8321
2702	0.8368
2693	0.841
2684	0.8435
2675	0.8414
2666	0.8404
2657	0.8435
2648	0.8473
2639	0.851
2630	0.8535
2621	0.8553
2612	0.856
2603	0.8568
2594	0.8582
2585	0.8601
2576	0.8624
2567	0.8649
2558	0.8671
2549	0.8697
2540	0.8723
2531	0.874
2522	0.8757
2513	0.8774
2504	0.8791
2495	0.8805
2486	0.8814
2477	0.8823
2468	0.8832
2459	0.8837
2450	0.8843
2441	0.8842
2432	0.884
2423	0.8833
2414	0.8823
2405	0.8809
2396	0.8799
2387	0.8802
2378	0.8814
2369	0.8816
2360	0.8815
2351	0.8814
2342	0.8817
2333	0.8809
2324	0.8798
2315	0.8798
2306	0.8801
2297	0.8808
2288	0.882
2279	0.8833
2270	0.8852
2261	0.8868
2252	0.8884
2243	0.8895
2234	0.8903
2225	0.8911
2216	0.892
2207	0.893
2198	0.8938
2189	0.9002
2180	0.9048
2171	0.8986
2162	0.8946
2153	0.8944
2144	0.8942
2135	0.894
2126	0.8939
2117	0.8937
2108	0.8942
2099	0.8938
2090	0.8934
2081	0.8925
2072	0.8916
2063	0.8912
2054	0.8911
2045	0.8911
2036	0.891
2027	0.8914
2018	0.8918
2009	0.8931
2000	0.8925
1991	0.8836
1982	0.884
1973	0.8853
1964	0.8855
1955	0.8858
1946	0.8855
1937	0.885
1928	0.8851
1919	0.8852
1910	0.8855
1901	0.8853
1892	0.8848
1883	0.8843
1874	0.8844
1865	0.8838
1856	0.8825
1847	0.8807
1838	0.8775
1829	0.8731
1820	0.8648
1811	0.8563
1802	0.8453
1793	0.8304
1784	0.8132
1775	0.7806
1766	0.7065
1757	0.5318
1748	0.2308
1739	0.0133
1730	0.0068
1721	0.1582
1712	0.4091
1703	0.5516
1694	0.6504
1685	0.7251
1676	0.7835
1667	0.8153
1658	0.833
1649	0.8447
1640	0.8516
1631	0.8583
1622	0.8646
1613	0.8694
1604	0.8721
1595	0.873
1586	0.8731
1577	0.8725
1568	0.8721
1559	0.8731
1550	0.8747
1541	0.8725
1532	0.8624
1523	0.8557
1514	0.8513
1505	0.8411
1496	0.8184
1487	0.7546
1478	0.4868
1469	0.2316
1460	0.2582
1451	0.4854
1442	0.5916
1433	0.6362
1424	0.5207
1415	0.6493
1406	0.6891
1397	0.4252
1388	0.3894
1379	0.512
1370	0.5089
1361	0.4459
1352	0.4868
1343	0.5345
1334	0.5609
1325	0.5793
1316	0.5038
1307	0.4875
1298	0.4843
1289	0.3832
1280	0.3677
1271	0.3371
1262	0.2723
1253	0.2459
1244	0.233
1235	0.2317
1226	0.2458
1217	0.2431
1208	0.2367
1199	0.2034
1190	0.1604
1181	0.1175
1172	0.1026
1163	0.1441
1154	0.1917
1145	0.1784
1136	0.1965
1127	0.395
1118	0.546
1109	0.6469
1100	0.7206
1091	0.6118
1082	0.5226
1073	0.5351
1064	0.5559
1055	0.5768
1046	0.6066
1037	0.6046
1028	0.5602
1019	0.5766
1010	0.576
1001	0.5866
992	0.6216
983	0.6395
974	0.6597
965	0.6544
956	0.6707
947	0.7084
938	0.7178
929	0.7215
920	0.7262
911	0.7276
902	0.7621
893	0.7769
884	0.8275
875	0.8346
866	0.847
857	0.8635
848	0.8757
839	0.869
830	0.8512
821	0.8515
812	0.8559
803	0.8556
794	0.822
785	0.7754
776	0.7435
767	0.7649
758	0.8003
749	0.8087
740	0.8068
731	0.7472
722	0.8405
713	0.8612
704	0.872
695	0.8808
686	0.8903
677	0.8888
668	0.8896
659	0.8907
650	0.8806
641	0.8763
632	0.8701
623	0.8639
614	0.8548
605	0.8475
596	0.8449
587	0.8445
578	0.8458
569	0.85
560	0.8548
551	0.8578
542	0.8601
533	0.8547
524	0.8523
515	0.8516
506	0.8475
497	0.8403
488	0.8343
479	0.8321
470	0.8323
461	0.8353
452	0.839
443	0.8398
434	0.8402
425	0.8406
416	0.8418
407	0.8437
398	0.8447
