Infrared Spectrum: BENZYLAMINE, N-METHYL-
Formula: C8 H11 N
CAS: 103-67-3
State: LIQUID (NEAT)
Class: COBLENTZ III
Instrument: PERKIN-ELMER 21 (GRATING)
Instrument parameters: FILTER AT ABOUT 10 MICRONS
Sampling: TRANSMISSION
Path length: CAPILLARY
Resolution: 2
1/CM	TRANSMITTANCE
4000	0.8548
3991	0.8509
3982	0.8471
3973	0.8443
3964	0.8437
3955	0.844
3946	0.8451
3937	0.8478
3928	0.8509
3919	0.8543
3910	0.8575
3901	0.8597
3892	0.8614
3883	0.8625
3874	0.8632
3865	0.8641
3856	0.8648
3847	0.8654
3838	0.8661
3829	0.8668
3820	0.8675
3811	0.8683
3802	0.8695
3793	0.8707
3784	0.8724
3775	0.8741
3766	0.8752
3757	0.8751
3748	0.8749
3739	0.8732
3730	0.8715
3721	0.8704
3712	0.8696
3703	0.8694
3694	0.8694
3685	0.8698
3676	0.8703
3667	0.8708
3658	0.8713
3649	0.8713
3640	0.8712
3631	0.8703
3622	0.8694
3613	0.8675
3604	0.8652
3595	0.8624
3586	0.8604
3577	0.8589
3568	0.8575
3559	0.8571
3550	0.8571
3541	0.8573
3532	0.8573
3523	0.8574
3514	0.8575
3505	0.8575
3496	0.8571
3487	0.8555
3478	0.8517
3469	0.8467
3460	0.8425
3451	0.8386
3442	0.8349
3433	0.8285
3424	0.8172
3415	0.8153
3406	0.8133
3397	0.811
3388	0.8075
3379	0.804
3370	0.7998
3361	0.7934
3352	0.7825
3343	0.7412
3334	0.7219
3325	0.7033
3316	0.6845
3307	0.6655
3298	0.6515
3289	0.6451
3280	0.6421
3271	0.6425
3262	0.6441
3253	0.6505
3244	0.6633
3235	0.6821
3226	0.7067
3217	0.728
3208	0.7403
3199	0.749
3190	0.7551
3181	0.7574
3172	0.759
3163	0.7611
3154	0.7651
3145	0.7728
3136	0.7783
3127	0.7808
3118	0.7825
3109	0.783
3100	0.7801
3091	0.7714
3082	0.7354
3073	0.6975
3064	0.6596
3055	0.6214
3046	0.5829
3037	0.5741
3028	0.5631
3019	0.51
3010	0.5035
3001	0.5382
2992	0.5738
2983	0.6091
2974	0.616
2965	0.6019
2956	0.4922
2947	0.4594
2938	0.4412
2929	0.4227
2920	0.388
2911	0.3684
2902	0.375
2893	0.3855
2884	0.3959
2875	0.4014
2866	0.4007
2857	0.3874
2848	0.3777
2839	0.3743
2830	0.3534
2821	0.3364
2812	0.3542
2803	0.3766
2794	0.3979
2785	0.3705
2776	0.2939
2767	0.3107
2758	0.4092
2749	0.5082
2740	0.608
2731	0.6875
2722	0.7398
2713	0.7764
2704	0.7826
2695	0.7855
2686	0.7858
2677	0.7792
2668	0.7725
2659	0.7751
2650	0.7876
2641	0.8075
2632	0.8254
2623	0.8375
2614	0.8452
2605	0.85
2596	0.8507
2587	0.8495
2578	0.849
2569	0.8495
2560	0.8517
2551	0.8498
2542	0.8499
2533	0.852
2524	0.8546
2515	0.8588
2506	0.8635
2497	0.8684
2488	0.8723
2479	0.8733
2470	0.8735
2461	0.8735
2452	0.8735
2443	0.8736
2434	0.8765
2425	0.8765
2416	0.8724
2407	0.8718
2398	0.8717
2389	0.8724
2380	0.8747
2371	0.8771
2362	0.8793
2353	0.8809
2344	0.8818
2335	0.8815
2326	0.8802
2317	0.8789
2308	0.8773
2299	0.8755
2290	0.8737
2281	0.873
2272	0.8747
2263	0.8773
2254	0.8781
2245	0.8763
2236	0.8743
2227	0.8725
2218	0.8739
2209	0.8768
2200	0.8781
2191	0.8774
2182	0.8766
2173	0.8755
2164	0.8739
2155	0.8734
2146	0.8752
2137	0.8763
2128	0.8748
2119	0.8734
2110	0.8734
2101	0.875
2092	0.8755
2083	0.8743
2074	0.8725
2065	0.8704
2056	0.8691
2047	0.8695
2038	0.87
2029	0.8706
2020	0.8711
2011	0.8718
2002	0.8721
1993	0.8646
1984	0.8568
1975	0.8527
1966	0.8497
1957	0.8345
1948	0.8149
1939	0.8062
1930	0.8285
1921	0.8473
1912	0.8525
1903	0.8518
1894	0.8467
1885	0.8367
1876	0.826
1867	0.8225
1858	0.8289
1849	0.8375
1840	0.8464
1831	0.8483
1822	0.8409
1813	0.8259
1804	0.814
1795	0.8344
1786	0.8493
1777	0.8505
1768	0.8503
1759	0.8498
1750	0.8399
1741	0.8373
1732	0.8414
1723	0.8471
1714	0.8483
1705	0.8466
1696	0.8445
1687	0.8385
1678	0.8336
1669	0.8315
1660	0.8288
1651	0.8239
1642	0.8211
1633	0.8199
1624	0.8216
1615	0.8193
1606	0.7187
1597	0.7167
1588	0.7658
1579	0.7728
1570	0.8196
1561	0.8238
1552	0.8242
1543	0.8167
1534	0.821
1525	0.8209
1516	0.8117
1507	0.7875
1498	0.354
1489	0.5014
1480	0.5485
1471	0.4546
1462	0.464
1453	0.245
1444	0.2976
1435	0.4452
1426	0.6564
1417	0.6932
1408	0.7605
1399	0.7797
1390	0.7875
1381	0.7808
1372	0.7825
1363	0.7054
1354	0.5116
1345	0.6801
1336	0.7376
1327	0.7511
1318	0.7551
1309	0.7421
1300	0.7515
1291	0.7897
1282	0.7965
1273	0.801
1264	0.7892
1255	0.7581
1246	0.7315
1237	0.7437
1228	0.7585
1219	0.7874
1210	0.7736
1201	0.7118
1192	0.7232
1183	0.7474
1174	0.7375
1165	0.6847
1156	0.6325
1147	0.6193
1138	0.5769
1129	0.4383
1120	0.4646
1111	0.5201
1102	0.3839
1093	0.5456
1084	0.7097
1075	0.6612
1066	0.6497
1057	0.7908
1048	0.8106
1039	0.8124
1030	0.6608
1021	0.7301
1012	0.7961
1003	0.7804
994	0.7735
985	0.7208
976	0.6851
967	0.6735
958	0.6717
949	0.7315
940	0.7634
931	0.7367
922	0.7378
913	0.7357
904	0.6741
895	0.7351
886	0.7558
877	0.7461
868	0.7218
859	0.6875
850	0.6346
841	0.5951
832	0.5405
823	0.4525
814	0.5067
805	0.5244
796	0.5693
787	0.5492
778	0.4929
769	0.4645
760	0.4154
751	0.2665
742	0.1185
733	0.0767
724	0.1931
715	0.3106
706	0.2779
697	0.0665
688	0.3559
679	0.4673
