Infrared Spectrum: TRANS-STILBENE
Formula: C14 H12
CAS: 103-30-0
State: SOLUTION (10.5% IN CCl4 FOR 3800-1300, 2% IN CS2 FOR 1300-650, AND 10.5% CCl4 FPR 650-240 CM^-^1) VERSUS SOLVENT
Class: COBLENTZ
Instrument: Not specified, most likely a grating or hybrid spectrometer.
Sampling: TRANSMISSION
Path length: 0.012, 0.012, AND 0.010 CM (CsBr CELL)
Resolution: 4
Origin: DOW CORNING CORP.
1/CM	TRANSMITTANCE
240.996	0.886
249.964	0.893
258.932	0.9
267.9	0.907
276.868	0.904
285.836	0.909
294.804	0.92
303.772	0.93
312.74	0.937
321.708	0.953
330.676	0.956
339.644	0.956
348.612	0.958
357.58	0.956
366.548	0.953
375.516	0.951
384.484	0.94
393.452	0.933
402.42	0.918
411.388	0.925
420.356	0.916
429.324	0.907
438.292	0.895
447.26	0.881
456.228	0.876
465.196	0.867
474.164	0.866
483.132	0.853
492.1	0.853
501.068	0.857
510.036	0.852
519.004	0.8
527.972	0.2713
536.94	0.634
545.908	0.7486
554.876	0.873
563.844	0.885
572.812	0.89
581.78	0.893
590.747	0.893
599.715	0.886
608.683	0.881
617.651	0.871
626.619	0.846
635.587	0.84
644.555	0.841
653.523	0.829
662.491	0.813
671.459	0.815
680.427	0.796
689.395	0.506
698.363	0.6028
707.331	0.833
716.299	0.85
725.267	0.84
734.235	0.815
743.203	0.852
752.171	0.7942
761.139	0.2367
770.107	0.833
779.075	0.876
788.043	0.881
797.011	0.89
805.979	0.89
814.947	0.881
823.915	0.874
832.883	0.869
841.851	0.864
850.819	0.864
859.787	0.871
868.755	0.876
877.723	0.881
886.691	0.885
895.659	0.885
904.627	0.86
913.595	0.876
922.563	0.885
931.531	0.883
940.499	0.874
949.467	0.834
958.435	0.4449
967.403	0.8269
976.371	0.84
985.339	0.873
994.307	0.883
1003.27	0.885
1012.24	0.89
1021.21	0.886
1030.18	0.808
1039.15	0.892
1048.11	0.895
1057.08	0.881
1066.05	0.85
1075.02	0.864
1083.99	0.878
1092.95	0.88
1101.92	0.885
1110.89	0.892
1119.86	0.892
1128.83	0.892
1137.79	0.893
1146.76	0.899
1155.73	0.89
1164.7	0.89
1173.67	0.88
1182.63	0.883
1191.6	0.885
1200.57	0.888
1209.54	0.866
1218.51	0.883
1227.47	0.892
1236.44	0.888
1245.41	0.892
1254.38	0.881
1263.35	0.874
1272.31	0.883
1281.28	0.885
1290.25	0.89
1299.22	0.92
1308.19	0.96
1317.15	0.951
1326.12	0.9
1335.09	0.923
1344.06	0.993
1353.03	0.991
1361.99	0.975
1370.96	0.968
1379.93	0.953
1388.9	0.97
1397.87	0.966
1406.83	0.953
1415.8	0.96
1424.77	0.958
1433.74	0.935
1442.71	0.871
1451.67	0.5841
1460.64	0.904
1469.61	0.935
1478.58	0.914
1487.55	0.786
1496.51	0.3934
1505.48	0.6778
1514.45	0.9
1523.42	0.904
1532.39	0.9
1541.35	0.906
1550.32	0.921
1559.29	0.92
1568.26	0.892
1577.23	0.859
1586.19	0.876
1595.16	0.7611
1604.13	0.354
1613.1	0.888
1622.07	0.942
1631.03	0.947
1640	0.942
1648.97	0.944
1657.94	0.953
1666.91	0.944
1675.87	0.926
1684.84	0.953
1693.81	0.935
1702.78	0.951
1711.75	0.956
1720.71	0.954
1729.68	0.944
1738.65	0.8971
1747.62	0.895
1756.59	0.916
1765.55	0.953
1774.52	0.946
1783.49	0.946
1792.46	0.892
1801.43	0.855
1810.39	0.86
1819.36	0.902
1828.33	0.932
1837.3	0.96
1846.27	0.968
1855.23	0.961
1864.2	0.937
1873.17	0.857
1882.14	0.913
1891.11	0.914
1900.07	0.953
1909.04	0.965
1918.01	0.965
1926.98	0.939
1935.95	0.933
1944.91	0.787
1953.88	0.921
1962.85	0.867
1971.82	0.958
1980.79	0.966
1989.75	0.968
1998.72	0.968
2007.69	0.968
2016.66	0.969
2025.63	0.97
2034.59	0.967
2043.56	0.966
2052.53	0.9699
2061.5	0.97
2070.47	0.968
2079.43	0.966
2088.4	0.9711
2097.37	0.965
2106.34	0.966
2115.31	0.966
2124.27	0.9621
2133.24	0.96
2142.21	0.9591
2151.18	0.958
2160.15	0.956
2169.11	0.9491
2178.08	0.949
2187.05	0.947
2196.02	0.9523
2204.99	0.9541
2213.95	0.954
2222.92	0.9531
2231.89	0.953
2240.86	0.9491
2249.83	0.947
2258.79	0.9509
2267.76	0.9452
2276.73	0.946
2285.7	0.949
2294.67	0.946
2303.63	0.9412
2312.6	0.9288
2321.57	0.9394
2330.54	0.9402
2339.5	0.9394
2348.47	0.942
2357.44	0.942
2366.41	0.9402
2375.38	0.94
2384.34	0.9372
2393.31	0.937
2402.28	0.937
2411.25	0.935
2420.22	0.9365
2429.18	0.937
2438.15	0.935
2447.12	0.937
2456.09	0.935
2465.06	0.933
2474.02	0.933
2482.99	0.9273
2491.96	0.925
2500.93	0.9254
2509.9	0.9213
2518.86	0.9206
2527.83	0.923
2536.8	0.921
2545.77	0.923
2554.74	0.9207
2563.7	0.918
2572.67	0.914
2581.64	0.9173
2590.61	0.9137
2599.58	0.9101
2608.54	0.914
2617.51	0.9157
2626.48	0.9146
2635.45	0.916
2644.42	0.918
2653.38	0.916
2662.35	0.914
2671.32	0.914
2680.29	0.916
2689.26	0.9144
2698.22	0.911
2707.19	0.9114
2716.16	0.911
2725.13	0.911
2734.1	0.9084
2743.06	0.9062
2752.03	0.9034
2761	0.902
2769.97	0.897
2778.94	0.897
2787.9	0.893
2796.87	0.893
2805.84	0.895
2814.81	0.892
2823.78	0.892
2832.74	0.8905
2841.71	0.89
2850.68	0.886
2859.65	0.885
2868.62	0.885
2877.58	0.8802
2886.55	0.8673
2895.52	0.867
2904.49	0.8685
2913.46	0.871
2922.42	0.8668
2931.39	0.8538
2940.36	0.8323
2949.33	0.8269
2958.3	0.8145
2967.26	0.8244
2976.23	0.8263
2985.2	0.8186
2994.17	0.795
3003.14	0.7253
3012.1	0.6954
3021.07	0.5504
3030.04	0.1999
3039.01	0.2564
3047.98	0.5666
3056.94	0.5028
3065.91	0.382
3074.88	0.511
3083.85	0.4432
3092.82	0.5646
3101.78	0.689
3110.75	0.7442
3119.72	0.8272
3128.69	0.8534
3137.66	0.855
3146.62	0.8517
3155.59	0.8507
3164.56	0.8669
3173.53	0.874
3182.5	0.8783
3191.46	0.8823
3200.43	0.8852
3209.4	0.888
3218.37	0.892
3227.34	0.893
3236.3	0.895
3245.27	0.897
3254.24	0.899
3263.21	0.899
3272.18	0.899
3281.14	0.8977
3290.11	0.897
3299.08	0.897
3308.05	0.8967
3317.02	0.893
3325.98	0.8932
3334.95	0.893
3343.92	0.893
3352.89	0.893
3361.86	0.892
3370.82	0.893
3379.79	0.8918
3388.76	0.8911
3397.73	0.8932
3406.7	0.8938
3415.66	0.8929
3424.63	0.892
3433.6	0.892
3442.57	0.893
3451.54	0.893
3460.5	0.893
3469.47	0.8929
3478.44	0.892
3487.41	0.892
3496.38	0.892
3505.34	0.895
3514.31	0.895
3523.28	0.8949
3532.25	0.893
3541.22	0.8901
3550.18	0.8941
3559.15	0.8949
3568.12	0.8941
3577.09	0.9042
3586.06	0.9
3595.02	0.893
3603.99	0.893
3612.96	0.893
3621.93	0.893
3630.9	0.893
3639.86	0.8839
3648.83	0.8861
3657.8	0.89
3666.77	0.892
3675.74	0.892
3684.7	0.892
3693.67	0.888
3702.64	0.893
3711.61	0.892
3720.57	0.892
3729.54	0.8935
3738.51	0.899
3747.48	0.892
3756.45	0.895
3765.41	0.896
3774.38	0.895
3783.35	0.893
3792.32	0.893
