Infrared Spectrum: Aniline, N-ethyl-
Formula: C8 H11 N
CAS: 103-69-5
State: SOLUTION (10% CCl4 FOR 3800-1330, 10% CS2 FOR 1330-420 CM^-^1)
Class: COBLENTZ III
Instrument: DOW KBr FOREPRISM-GRATING
Instrument parameters: BLAZED AT 3.5, 12.0, 20.0 MICRON AND CHANGED AT 5.0, 7.5, 14.9 MICRON
Sampling: TRANSMISSION
Path length: 0.012 CM, 0.011 CM
Resolution: 2
Origin: DOW CHEMICAL COMPANY
1/CM	TRANSMITTANCE
3816	0.9151
3807	0.9146
3798	0.9131
3789	0.9149
3780	0.9148
3771	0.9146
3762	0.9147
3753	0.9177
3744	0.9178
3735	0.9171
3726	0.9167
3717	0.9165
3708	0.9181
3699	0.9159
3690	0.9127
3681	0.9093
3672	0.9074
3663	0.9048
3654	0.9032
3645	0.9058
3636	0.9089
3627	0.9134
3618	0.914
3609	0.9138
3600	0.9128
3591	0.9133
3582	0.913
3573	0.9122
3564	0.9095
3555	0.9096
3546	0.9057
3537	0.8965
3528	0.8877
3519	0.8857
3510	0.8797
3501	0.8679
3492	0.8534
3483	0.8334
3474	0.8021
3465	0.739
3456	0.6617
3447	0.5347
3438	0.4794
3429	0.5102
3420	0.5775
3411	0.6457
3402	0.7132
3393	0.7724
3384	0.8151
3375	0.8395
3366	0.8563
3357	0.8671
3348	0.8785
3339	0.8863
3330	0.8916
3321	0.8948
3312	0.8997
3303	0.9007
3294	0.9033
3285	0.9056
3276	0.9086
3267	0.911
3258	0.9117
3249	0.9113
3240	0.9109
3231	0.9095
3222	0.9032
3213	0.8979
3204	0.8974
3195	0.902
3186	0.9032
3177	0.9036
3168	0.9041
3159	0.9048
3150	0.902
3141	0.895
3132	0.8828
3123	0.8572
3114	0.8212
3105	0.7423
3096	0.6653
3087	0.6279
3078	0.6649
3069	0.5817
3060	0.3315
3051	0.4421
3042	0.567
3033	0.4885
3024	0.3864
3015	0.5441
3006	0.6367
2997	0.6354
2988	0.3303
2979	0.0962
2970	0.1014
2961	0.3427
2952	0.4878
2943	0.4655
2934	0.4272
2925	0.4093
2916	0.5454
2907	0.5511
2898	0.4556
2889	0.4379
2880	0.3156
2871	0.3113
2862	0.3599
2853	0.4274
2844	0.4831
2835	0.514
2826	0.5674
2817	0.6609
2808	0.7336
2799	0.7753
2790	0.8097
2781	0.8272
2772	0.8431
2763	0.8565
2754	0.8582
2745	0.8561
2736	0.8731
2727	0.8766
2718	0.8832
2709	0.8859
2700	0.8704
2691	0.8581
2682	0.8654
2673	0.8786
2664	0.8883
2655	0.8927
2646	0.8943
2637	0.8941
2628	0.9008
2619	0.9022
2610	0.8895
2601	0.8766
2592	0.8718
2583	0.8704
2574	0.8525
2565	0.8498
2556	0.8776
2547	0.8939
2538	0.8987
2529	0.9012
2520	0.9036
2511	0.9079
2502	0.9126
2493	0.9144
2484	0.9155
2475	0.9181
2466	0.9186
2457	0.9181
2448	0.9192
2439	0.9101
2430	0.9062
2421	0.9072
2412	0.9031
2403	0.9096
2394	0.9148
2385	0.9199
2376	0.9284
2367	0.9264
2358	0.9263
2349	0.9238
2340	0.9196
2331	0.9145
2322	0.917
2313	0.9163
2304	0.918
2295	0.9218
2286	0.9217
2277	0.9202
2268	0.9181
2259	0.9196
2250	0.9209
2241	0.923
2232	0.9239
2223	0.9248
2214	0.9224
2205	0.92
2196	0.9202
2187	0.919
2178	0.9219
2169	0.9227
2160	0.9206
2151	0.9181
2142	0.9171
2133	0.9165
2124	0.9164
2115	0.9163
2106	0.9162
2097	0.9138
2088	0.9151
2079	0.9144
2070	0.9136
2061	0.9129
2052	0.9162
2043	0.9171
2034	0.9152
2025	0.9116
2016	0.9096
2007	0.9088
1998	0.8718
1989	0.8923
1980	0.8915
1971	0.893
1962	0.898
1953	0.8879
1944	0.8828
1935	0.8538
1926	0.8436
1917	0.7952
1908	0.815
1899	0.8644
1890	0.8831
1881	0.8882
1872	0.8847
1863	0.8825
1854	0.8794
1845	0.8718
1836	0.8513
1827	0.8435
1818	0.8203
1809	0.8605
1800	0.8795
1791	0.8877
1782	0.8817
1773	0.8719
1764	0.8538
1755	0.8469
1746	0.8683
1737	0.8758
1728	0.8716
1719	0.8721
1710	0.867
1701	0.8545
1692	0.8271
1683	0.8179
1674	0.7939
1665	0.8082
1656	0.8012
1647	0.7967
1638	0.7769
1629	0.671
1620	0.4639
1611	0.04
1602	-0.0036
1593	0.0751
1584	0.2571
1575	0.6244
1566	0.726
1557	0.7249
1548	0.7559
1539	0.6959
1530	0.6097
1521	0.4348
1512	-0.0036
1503	-0.0036
1494	0.1687
1485	0.1631
1476	0.2964
1467	0.4802
1458	0.5458
1449	0.4456
1440	0.6328
1431	0.2437
1422	0.4824
1413	0.6553
1404	0.7454
1395	0.7561
1386	0.6936
1377	0.4592
1368	0.6828
1359	0.7243
1350	0.7025
1341	0.6462
1332	0.4861
1323	0.0234
1314	0.0416
1305	0.3451
1296	0.656
1287	0.6292
1278	0.2917
1269	0.3829
1260	0.1078
1251	0.2594
1242	0.5593
1233	0.6394
1224	0.8097
1215	0.8939
1206	0.9126
1197	0.8532
1188	0.8431
1179	0.2069
1170	0.6993
1161	0.6754
1152	0.1794
1143	0.2706
1134	0.7568
1125	0.8348
1116	0.8862
1107	0.84
1098	0.6839
1089	0.7651
1080	0.8069
1071	0.6402
1062	0.7561
1053	0.7703
1044	0.9123
1035	0.9292
1026	0.7276
1017	0.9503
1008	0.9699
999	0.9529
990	0.5127
981	0.9333
972	0.9627
963	0.9391
954	0.9346
945	0.9373
936	0.9446
927	0.8709
918	0.9617
909	0.9728
900	0.9707
891	0.9718
882	0.9616
873	0.8715
864	0.4815
855	0.8798
846	0.9094
837	0.916
828	0.8636
819	0.8454
810	0.8587
801	0.876
792	0.8875
783	0.8889
774	0.8556
765	0.6146
756	0.3253
747	-0.0036
738	0.3428
729	0.7237
720	0.8188
711	0.8201
702	0.7127
693	-0.0036
684	0.3036
675	0.7141
666	0.78
657	0.7953
648	0.7748
639	0.7824
630	0.7748
621	0.7512
612	0.7399
603	0.7999
594	0.8556
585	0.8475
576	0.8212
567	0.7978
558	0.7742
549	0.7557
540	0.742
531	0.729
522	0.6942
513	0.4808
504	0.3477
495	0.519
486	0.5779
477	0.6067
468	0.6229
459	0.6306
450	0.6364
441	0.6407
432	0.6446
423	0.6461
