Infrared Spectrum: BENZENEMETHANAMINE, N,N-DIMETHYL-
Formula: C9 H13 N
CAS: 103-83-3
State: LIQUID (NEAT)
Class: COBLENTZ III
Instrument: PERKIN-ELMER 521 (GRATING)
Instrument parameters: FILTERS AT 3150, 2500, 2000, 1150, 700, 410 AND GRATING CHANGES AT 2000, 630 CM^-^1
Sampling: TRANSMISSION
Path length: 0.0015 CM KBr CELL
Resolution: 4
Origin: STANDARD OIL OF OHIO
1/CM	TRANSMITTANCE
385.423	0.67
394.971	0.755
404.519	0.801
414.067	0.85
423.615	0.876
433.163	0.877
442.711	0.845
452.259	0.884
461.808	0.919
471.356	0.907
480.904	0.835
490.452	0.79
500	0.901
509.548	0.954
519.096	0.963
528.644	0.969
538.192	0.971
547.74	0.973
557.288	0.973
566.836	0.972
576.384	0.972
585.932	0.973
595.48	0.955
605.028	0.747
614.577	0.934
624.125	0.964
633.673	0.976
643.221	0.98
652.769	0.973
662.317	0.927
671.865	0.927
681.413	0.852
690.961	0.195
700.509	0.521
710.057	0.816
719.605	0.732
729.153	0.165
738.701	0.294
748.249	0.779
757.798	0.905
767.346	0.938
776.894	0.947
786.442	0.95
795.99	0.932
805.538	0.879
815.086	0.825
824.634	0.808
834.182	0.785
843.73	0.436
853.278	0.645
862.826	0.9
872.374	0.928
881.922	0.933
891.47	0.91
901.019	0.757
910.567	0.823
920.115	0.917
929.663	0.938
939.211	0.934
948.759	0.928
958.307	0.891
967.855	0.778
977.403	0.797
986.951	0.864
996.499	0.855
1006.05	0.796
1015.6	0.527
1025.14	0.314
1034.69	0.419
1044.24	0.565
1053.79	0.836
1063.34	0.841
1072.88	0.661
1082.43	0.871
1091.98	0.684
1101.53	0.86
1111.08	0.904
1120.62	0.905
1130.17	0.863
1139.72	0.646
1149.27	0.733
1158.82	0.797
1168.36	0.576
1177.91	0.683
1187.46	0.863
1197.01	0.888
1206.56	0.883
1216.1	0.909
1225.65	0.905
1235.2	0.879
1244.75	0.76
1254.3	0.416
1263.84	0.54
1273.39	0.788
1282.94	0.813
1292.49	0.848
1302.04	0.852
1311.59	0.786
1321.13	0.785
1330.68	0.854
1340.23	0.87
1349.78	0.801
1359.33	0.357
1368.87	0.64
1378.42	0.834
1387.97	0.87
1397.52	0.875
1407.07	0.882
1416.61	0.848
1426.16	0.691
1435.71	0.54
1445.26	0.335
1454.81	0.357
1464.35	0.407
1473.9	0.702
1483.45	0.752
1493	0.413
1502.55	0.895
1512.09	0.923
1521.64	0.93
1531.19	0.93
1540.74	0.927
1550.29	0.941
1559.83	0.942
1569.38	0.93
1578.93	0.882
1588.48	0.885
1598.03	0.776
1607.58	0.91
1617.12	0.939
1626.67	0.932
1636.22	0.929
1645.77	0.925
1655.32	0.928
1664.86	0.933
1674.41	0.921
1683.96	0.909
1693.51	0.926
1703.06	0.923
1712.6	0.944
1722.15	0.945
1731.7	0.947
1741.25	0.938
1750.8	0.926
1760.34	0.936
1769.89	0.951
1779.44	0.954
1788.99	0.948
1798.54	0.926
1808.08	0.907
1817.63	0.919
1827.18	0.944
1836.73	0.951
1846.28	0.952
1855.83	0.941
1865.37	0.914
1874.92	0.9
1884.47	0.908
1894.02	0.929
1903.57	0.951
1913.11	0.954
1922.66	0.951
1932.21	0.939
1941.76	0.9
1951.31	0.902
1960.85	0.923
1970.4	0.94
1979.95	0.948
1989.5	0.942
1999.05	0.948
2008.59	0.949
2018.14	0.9455
2027.69	0.9495
2037.24	0.956
2046.79	0.958
2056.33	0.958
2065.88	0.954
2075.43	0.953
2084.98	0.951
2094.53	0.9505
2104.07	0.9451
2113.62	0.9445
2123.17	0.953
2132.72	0.957
2142.27	0.959
2151.82	0.9576
2161.36	0.9544
2170.91	0.954
2180.46	0.9526
2190.01	0.952
2199.56	0.954
2209.1	0.953
2218.65	0.952
2228.2	0.954
2237.75	0.953
2247.3	0.952
2256.84	0.9534
2266.39	0.953
2275.94	0.952
2285.49	0.95
2295.04	0.954
2304.58	0.953
2314.13	0.954
2323.68	0.955
2333.23	0.958
2342.78	0.96
2352.32	0.961
2361.87	0.9654
2371.42	0.9656
2380.97	0.9606
2390.52	0.9563
2400.06	0.952
2409.61	0.948
2419.16	0.9524
2428.71	0.9526
2438.26	0.95
2447.81	0.954
2457.35	0.9563
2466.9	0.954
2476.45	0.9517
2486	0.9427
2495.55	0.9356
2505.09	0.946
2514.64	0.9513
2524.19	0.954
2533.74	0.954
2543.29	0.957
2552.83	0.957
2562.38	0.9587
2571.93	0.954
2581.48	0.953
2591.03	0.9513
2600.57	0.9448
2610.12	0.9348
2619.67	0.925
2629.22	0.9253
2638.77	0.935
2648.31	0.939
2657.86	0.9337
2667.41	0.9265
2676.96	0.9076
2686.51	0.8643
2696.05	0.7525
2705.6	0.65
2715.15	0.6617
2724.7	0.6463
2734.25	0.6713
2743.8	0.6421
2753.34	0.4544
2762.89	0.1326
2772.44	0.1065
2781.99	0.1182
2791.54	0.3263
2801.08	0.4395
2810.63	0.2797
2820.18	0.1751
2829.73	0.42
2839.28	0.5746
2848.82	0.5243
2858.37	0.3389
2867.92	0.5246
2877.47	0.539
2887.02	0.53
2896.56	0.5546
2906.11	0.521
2915.66	0.5065
2925.21	0.4673
2934.76	0.3538
2944.3	0.2348
2953.85	0.3655
2963.4	0.4848
2972.95	0.3396
2982.5	0.3784
2992.04	0.6272
3001.59	0.7573
3011.14	0.776
3020.69	0.7231
3030.24	0.4703
3039.79	0.6027
3049.33	0.7429
3058.88	0.7114
3068.43	0.5993
3077.98	0.7713
3087.53	0.7183
3097.07	0.8255
3106.62	0.8804
3116.17	0.8991
3125.72	0.9322
3135.27	0.939
3144.81	0.938
3154.36	0.9329
3163.91	0.9288
3173.46	0.9291
3183.01	0.933
3192.55	0.938
3202.1	0.94
3211.65	0.9391
3221.2	0.9418
3230.75	0.9413
3240.29	0.9461
3249.84	0.948
3259.39	0.948
3268.94	0.95
3278.49	0.95
3288.03	0.9479
3297.58	0.947
3307.13	0.947
3316.68	0.947
3326.23	0.947
3335.78	0.947
3345.32	0.948
3354.87	0.948
3364.42	0.947
3373.97	0.945
3383.52	0.946
3393.06	0.946
3402.61	0.947
3412.16	0.947
3421.71	0.946
3431.26	0.947
3440.8	0.948
3450.35	0.948
3459.9	0.95
3469.45	0.952
3479	0.953
3488.54	0.954
3498.09	0.958
3507.64	0.959
3517.19	0.96
3526.74	0.963
3536.28	0.964
3545.83	0.964
3555.38	0.963
3564.93	0.966
3574.48	0.966
3584.02	0.966
3593.57	0.969
3603.12	0.969
3612.67	0.967
3622.22	0.963
3631.77	0.961
3641.31	0.9631
3650.86	0.9581
3660.41	0.955
3669.96	0.958
3679.51	0.964
3689.05	0.9669
3698.6	0.97
3708.15	0.969
3717.7	0.973
3727.25	0.971
3736.79	0.9729
3746.34	0.973
3755.89	0.973
3765.44	0.973
3774.99	0.972
3784.53	0.971
3794.08	0.9672
3803.63	0.966
3813.18	0.967
3822.73	0.9688
3832.27	0.9711
3841.82	0.9699
3851.37	0.9693
3860.92	0.966
3870.47	0.9669
3880.01	0.966
3889.56	0.965
3899.11	0.967
3908.66	0.967
3918.21	0.965
3927.76	0.963
3937.3	0.9601
3946.85	0.9627
3956.4	0.963
3965.95	0.961
3975.5	0.964
3985.04	0.963
3994.59	0.965
