Infrared Spectrum: PHENETHYL ACETATE
Formula: C10 H12 O2
CAS: 103-45-7
State: LIQUID
Class: COBLENTZ
Instrument: PERKIN-ELMER
Sampling: TRANSMISSION
Path length: CAPILLARY
Resolution: 4
Origin: ABBOTT LABORATORIES - WASHBURN
MICROMETERS	TRANSMITTANCE
2.053	0.911
2.093	0.913
2.133	0.914
2.17301	0.918
2.21301	0.918
2.25301	0.921
2.29301	0.918
2.33301	0.9181
2.37302	0.921
2.41302	0.9237
2.45302	0.924
2.49302	0.921
2.53302	0.9259
2.57303	0.933
2.61303	0.9312
2.65303	0.931
2.69303	0.934
2.73303	0.9231
2.77304	0.9131
2.81304	0.913
2.85304	0.906
2.89304	0.901
2.93304	0.9059
2.97305	0.911
3.01305	0.916
3.05305	0.918
3.09305	0.921
3.13305	0.9259
3.17306	0.928
3.21306	0.9194
3.25306	0.8659
3.29306	0.8021
3.33306	0.8368
3.37307	0.7976
3.41307	0.788
3.45307	0.8441
3.49307	0.884
3.53307	0.9178
3.57308	0.9409
3.61308	0.9508
3.65308	0.953
3.69308	0.948
3.73308	0.951
3.77309	0.9511
3.81309	0.943
3.85309	0.934
3.89309	0.934
3.93309	0.936
3.9731	0.933
4.0131	0.926
4.0531	0.919
4.0931	0.916
4.1331	0.914
4.17311	0.914
4.21311	0.911
4.25311	0.911
4.29311	0.914
4.33311	0.908
4.37312	0.901
4.41312	0.892
4.45312	0.891
4.49312	0.892
4.53312	0.887
4.57313	0.884
4.61313	0.882
4.65313	0.879
4.69313	0.877
4.73313	0.876
4.77314	0.871
4.81314	0.8672
4.85314	0.866
4.89314	0.869
4.93314	0.8671
4.97315	0.869
5.01315	0.856
5.05315	0.8612
5.09315	0.8532
5.13315	0.846
5.17316	0.859
5.21316	0.861
5.25316	0.8582
5.29316	0.8485
5.33316	0.8412
5.37317	0.8461
5.41317	0.846
5.45317	0.839
5.49317	0.8263
5.53317	0.816
5.57318	0.8114
5.61318	0.7833
5.65318	0.728
5.69318	0.5118
5.73318	0.0932
5.77319	0.1624
5.81319	0.6022
5.85319	0.7252
5.89319	0.7511
5.93319	0.7888
5.9732	0.8031
6.0132	0.806
6.0532	0.815
6.0932	0.8246
6.1332	0.831
6.17321	0.834
6.21321	0.7719
6.25321	0.8132
6.29321	0.8206
6.33321	0.8367
6.37322	0.841
6.41322	0.839
6.45322	0.834
6.49322	0.8374
6.53322	0.834
6.57322	0.8359
6.61323	0.8212
6.65323	0.7646
6.69323	0.622
6.73323	0.7646
6.77323	0.7615
6.81324	0.72
6.85324	0.6873
6.89324	0.5586
6.93324	0.6872
6.97324	0.69
7.01325	0.7116
7.05325	0.7383
7.09325	0.7592
7.13325	0.7578
7.17325	0.7173
7.21326	0.5731
7.25326	0.557
7.29326	0.6105
7.33326	0.4415
7.37326	0.6478
7.41327	0.7584
7.45327	0.791
7.49327	0.7943
7.53327	0.794
7.57327	0.7931
7.61328	0.7783
7.65328	0.7537
7.69328	0.7294
7.73328	0.7087
7.77328	0.6728
7.81329	0.6114
7.85329	0.5424
7.89329	0.4686
7.93329	0.3638
7.97329	0.2479
8.0133	0.1256
8.0533	0.0876
8.0933	0.078
8.1333	0.1045
8.1733	0.2221
8.21331	0.3874
8.25331	0.4892
8.29331	0.5838
8.33331	0.6051
8.37331	0.6492
8.41332	0.7267
8.45332	0.758
8.49332	0.7692
8.53332	0.7941
8.57332	0.809
8.61333	0.812
8.65333	0.807
8.69333	0.8132
8.73333	0.8252
8.77333	0.831
8.81334	0.8332
8.85334	0.8334
8.89334	0.832
8.93334	0.829
8.97334	0.8161
9.01335	0.801
9.05335	0.806
9.09335	0.7991
9.13335	0.7753
9.17335	0.7224
9.21336	0.6861
9.25336	0.7156
9.29336	0.7184
9.33336	0.6828
9.37336	0.6434
9.41337	0.5646
9.45337	0.4904
9.49337	0.4439
9.53337	0.4486
9.57337	0.457
9.61338	0.4287
9.65338	0.3623
9.69338	0.3408
9.73338	0.3972
9.77338	0.5098
9.81339	0.6458
9.85339	0.7021
9.89339	0.731
9.93339	0.7596
9.97339	0.765
10.0134	0.7693
10.0534	0.7724
10.0934	0.779
10.1334	0.78
10.1734	0.772
10.2134	0.7472
10.2534	0.7474
10.2934	0.759
10.3334	0.79
10.3734	0.8128
10.4134	0.8296
10.4534	0.8412
10.4934	0.8471
10.5334	0.8509
10.5734	0.849
10.6134	0.8364
10.6534	0.8173
10.6934	0.811
10.7334	0.818
10.7734	0.8278
10.8134	0.832
10.8534	0.8287
10.8934	0.8167
10.9334	0.8008
10.9734	0.792
11.0134	0.797
11.0534	0.8067
11.0934	0.812
11.1335	0.825
11.1735	0.829
11.2135	0.832
11.2535	0.8396
11.2935	0.8462
11.3335	0.849
11.3735	0.852
11.4135	0.854
11.4535	0.8526
11.4935	0.8514
11.5335	0.852
11.5735	0.8428
11.6135	0.827
11.6535	0.8275
11.6935	0.832
11.7335	0.8421
11.7735	0.8438
11.8135	0.8506
11.8535	0.8534
11.8935	0.8531
11.9335	0.854
11.9735	0.8501
12.0135	0.8483
12.0535	0.832
12.0935	0.8158
12.1335	0.812
12.1735	0.817
12.2135	0.829
12.2535	0.826
12.2935	0.824
12.3335	0.8326
12.3735	0.8449
12.4135	0.859
12.4535	0.862
12.4935	0.8638
12.5335	0.862
12.5735	0.862
12.6135	0.866
12.6535	0.8564
12.6935	0.8551
12.7335	0.8434
12.7735	0.8278
12.8135	0.8267
12.8535	0.819
12.8935	0.8089
12.9335	0.7951
12.9735	0.784
13.0135	0.764
13.0535	0.7498
13.0935	0.7394
13.1336	0.721
13.1736	0.6785
13.2136	0.5957
13.2536	0.5423
13.2936	0.4928
13.3336	0.478
13.3736	0.5009
13.4136	0.5355
13.4536	0.5932
13.4936	0.6254
13.5336	0.6499
13.5736	0.6707
13.6136	0.675
13.6536	0.68
13.6936	0.683
13.7336	0.6929
13.7736	0.7136
13.8136	0.7266
13.8536	0.7397
13.8936	0.7481
13.9336	0.7545
13.9736	0.7563
14.0136	0.7443
14.0536	0.7199
14.0936	0.687
14.1336	0.6268
14.1736	0.5347
14.2136	0.4012
14.2536	0.3117
14.2936	0.2931
14.3336	0.3651
14.3736	0.4797
14.4136	0.601
14.4536	0.6715
14.4936	0.6973
14.5336	0.712
14.5736	0.725
14.6136	0.7215
14.6536	0.725
14.6936	0.7295
14.7336	0.735
14.7736	0.7362
14.8136	0.74
14.8536	0.739
14.8936	0.7387
14.9336	0.73
14.9736	0.735
15.0136	0.7348
15.0536	0.7194
15.0936	0.711
15.1337	0.7045
15.1737	0.6976
15.2137	0.6927
15.2537	0.6867
15.2937	0.6849
15.3337	0.6771
15.3737	0.6704
15.4137	0.663
