Infrared Spectrum: 4'-HYDROXYACETANILIDE
Formula: C8 H9 N O2
CAS: 103-90-2
State: SOLID (NUJOL MULL)
Melting point: 169-170.5 C
Class: COBLENTZ III
Instrument: PERKIN-ELMER 21 (GRATING)
Resolution: 2
Origin: THE SQUIBB INSTITUTE FOR MEDICAL RESEARCH
1/CM	TRANSMITTANCE
664	0.6083
673	0.503
682	0.3502
691	0.4145
700	0.5372
709	0.4124
718	0.4391
727	0.4538
736	0.4939
745	0.6179
754	0.7024
763	0.7565
772	0.7807
781	0.7772
790	0.5817
799	0.5364
808	0.2812
817	0.7234
826	0.6957
835	0.2167
844	0.7861
853	0.6875
862	0.8619
871	0.9015
880	0.9064
889	0.9104
898	0.906
907	0.9013
916	0.897
925	0.9044
934	0.9042
943	0.8894
952	0.8535
961	0.7763
970	0.7454
979	0.8538
988	0.8193
997	0.7577
1006	0.6714
1015	0.6502
1024	0.7488
1033	0.7894
1042	0.8508
1051	0.8694
1060	0.8699
1069	0.8693
1078	0.8664
1087	0.8576
1096	0.8059
1105	0.6727
1114	0.7957
1123	0.8297
1132	0.8303
1141	0.8119
1150	0.7879
1159	0.749
1168	0.47
1177	0.736
1186	0.7017
1195	0.6234
1204	0.4463
1213	0.2572
1222	0.1112
1231	0.1568
1240	0.1395
1249	0.0972
1258	0.2496
1267	0.6287
1276	0.6429
1285	0.6287
1294	0.5758
1303	0.555
1312	0.4236
1321	0.2334
1330	0.4792
1339	0.5814
1348	0.4505
1357	0.3041
1366	0.2355
1375	0.3427
1384	0.4944
1393	0.4881
1402	0.4422
1411	0.3297
1420	0.1801
1429	0.0576
1438	0.0575
1447	0.1726
1456	0.3754
1465	0.4413
1474	0.4496
1483	0.3337
1492	0.2142
1501	0.0804
1510	0.1025
1519	0.3938
1528	0.3911
1537	0.2935
1546	0.2129
1555	0.0483
1564	0.0968
1573	0.2733
1582	0.4999
1591	0.3745
1600	0.1612
1609	0.1024
1618	0.2178
1627	0.185
1636	0.0964
1645	0.0432
1654	0.0668
1663	0.1945
1672	0.5242
1681	0.7189
1690	0.7868
1699	0.849
1708	0.8684
1717	0.878
1726	0.8832
1735	0.8854
1744	0.8862
1753	0.8902
1762	0.9057
1771	0.9104
1780	0.9118
1789	0.9181
1798	0.917
1807	0.9141
1816	0.9105
1825	0.9069
1834	0.904
1843	0.9048
1852	0.896
1861	0.8871
1870	0.8969
1879	0.9069
1888	0.9063
1897	0.9169
1906	0.9244
1915	0.9238
1924	0.9225
1933	0.9207
1942	0.9189
1951	0.9172
1960	0.9158
1969	0.9145
1978	0.9139
1987	0.9116
1996	0.9079
2005	0.9054
2014	0.9039
2023	0.9036
2032	0.9043
2041	0.9054
2050	0.907
2059	0.9081
2068	0.9085
2077	0.9088
2086	0.9091
2095	0.9095
2104	0.9095
2113	0.9087
2122	0.9053
2131	0.9022
2140	0.8994
2149	0.8966
2158	0.8943
2167	0.8923
2176	0.8907
2185	0.8897
2194	0.89
2203	0.8889
2212	0.8872
2221	0.8834
2230	0.8796
2239	0.8754
2248	0.8704
2257	0.8646
2266	0.8584
2275	0.8515
2284	0.8447
2293	0.8392
2302	0.8346
2311	0.8325
2320	0.8328
2329	0.8329
2338	0.8329
2347	0.833
2356	0.8322
2365	0.8272
2374	0.8194
2383	0.8113
2392	0.8033
2401	0.795
2410	0.788
2419	0.7818
2428	0.7758
2437	0.7703
2446	0.7668
2455	0.7655
2464	0.7653
2473	0.765
2482	0.7639
2491	0.762
2500	0.7582
2509	0.7529
2518	0.7409
2527	0.7221
2536	0.7091
2545	0.6982
2554	0.6925
2563	0.692
2572	0.6941
2581	0.6959
2590	0.6974
2599	0.6928
2608	0.6864
2617	0.6757
2626	0.6624
2635	0.6574
2644	0.6551
2653	0.6536
2662	0.6525
2671	0.6513
2680	0.6502
2689	0.649
2698	0.6479
2707	0.6466
2716	0.6429
2725	0.6259
2734	0.5858
2743	0.5491
2752	0.5394
2761	0.5343
2770	0.5284
2779	0.514
2788	0.4484
2797	0.3807
2806	0.3139
2815	0.2857
2824	0.2792
2833	0.2741
2842	0.2703
2851	0.2671
2860	0.2658
2869	0.2666
2878	0.2689
2887	0.2716
2896	0.275
2905	0.2782
2914	0.2793
2923	0.2788
2932	0.2776
2941	0.2757
2950	0.2707
2959	0.2631
2968	0.248
2977	0.2314
2986	0.218
2995	0.2101
3004	0.203
3013	0.1916
3022	0.1781
3031	0.1672
3040	0.1497
3049	0.1343
3058	0.1207
3067	0.1107
3076	0.1058
3085	0.1058
3094	0.1066
3103	0.1081
3112	0.1118
3121	0.1159
3130	0.1231
3139	0.1327
3148	0.1445
3157	0.1559
3166	0.1661
3175	0.1753
3184	0.1803
3193	0.1832
3202	0.1854
3211	0.1869
3220	0.1878
3229	0.1871
3238	0.1839
3247	0.1797
3256	0.1759
3265	0.1731
3274	0.1893
3283	0.2798
3292	0.3713
3301	0.4622
3310	0.5527
3319	0.6427
3328	0.6854
3337	0.7006
3346	0.7151
3355	0.7359
3364	0.7512
3373	0.7662
3382	0.7844
3391	0.7917
3400	0.7957
3409	0.7969
3418	0.7978
3427	0.7984
3436	0.7981
3445	0.7979
3454	0.796
3463	0.7968
3472	0.7961
3481	0.7952
3490	0.7943
3499	0.7934
3508	0.7926
3517	0.7916
3526	0.7902
3535	0.7888
3544	0.7875
3553	0.7861
3562	0.7847
3571	0.783
3580	0.7803
3589	0.7777
3598	0.7751
3607	0.7725
3616	0.7701
3625	0.7679
3634	0.7658
3643	0.764
3652	0.7635
3661	0.763
3670	0.7626
3679	0.7623
3688	0.7621
3697	0.762
3706	0.7609
3715	0.7594
3724	0.7579
3733	0.7564
3742	0.7538
3751	0.7508
3760	0.7482
3769	0.7457
3778	0.744
3787	0.743
3796	0.7421
3805	0.7412
3814	0.7402
3823	0.7392
3832	0.7386
3841	0.7379
3850	0.7373
3859	0.7367
3868	0.736
3877	0.7352
3886	0.7344
3895	0.7334
3904	0.7324
3913	0.7315
3922	0.7306
3931	0.7296
3940	0.7287
3949	0.7278
3958	0.7267
3967	0.7253
3976	0.7239
3985	0.7224
3994	0.721
