Infrared Spectrum: BENZENE, ISOCYANATO-
Formula: C7 H5 N O
CAS: 103-71-9
State: LIQUID (NEAT)
Class: COBLENTZ III
Instrument: PERKIN-ELMER 521 (GRATING)
Sampling: TRANSMISSION
Path length: CAPILLARY
Resolution: 4
Origin: STANDARD OIL OF OHIO
1/CM	TRANSMITTANCE
589.614	0.715
598.068	0.717
606.522	0.719
614.976	0.715
623.43	0.714
631.884	0.724
640.339	0.739
648.793	0.775
657.247	0.802
665.701	0.811
674.155	0.824
682.609	0.801
691.063	0.459
699.517	0.833
707.971	0.892
716.425	0.899
724.88	0.897
733.334	0.891
741.788	0.84
750.242	0.603
758.696	0.306
767.15	0.651
775.604	0.829
784.058	0.887
792.512	0.911
800.966	0.92
809.421	0.923
817.875	0.92
826.329	0.916
834.783	0.916
843.237	0.92
851.691	0.928
860.145	0.931
868.599	0.93
877.053	0.928
885.507	0.933
893.962	0.93
902.416	0.886
910.87	0.823
919.324	0.914
927.778	0.928
936.232	0.931
944.686	0.93
953.14	0.931
961.594	0.928
970.048	0.93
978.502	0.926
986.957	0.918
995.411	0.921
1003.86	0.918
1012.32	0.923
1020.77	0.914
1029.23	0.843
1037.68	0.923
1046.14	0.93
1054.59	0.93
1063.04	0.916
1071.5	0.865
1079.95	0.826
1088.41	0.904
1096.86	0.882
1105.31	0.828
1113.77	0.724
1122.22	0.811
1130.68	0.843
1139.13	0.829
1147.58	0.819
1156.04	0.831
1164.49	0.869
1172.95	0.892
1181.4	0.903
1189.85	0.914
1198.31	0.921
1206.76	0.923
1215.22	0.921
1223.67	0.92
1232.13	0.916
1240.58	0.913
1249.03	0.913
1257.49	0.914
1265.94	0.914
1274.4	0.908
1282.85	0.889
1291.3	0.896
1299.76	0.914
1308.21	0.92
1316.67	0.921
1325.12	0.923
1333.57	0.921
1342.03	0.925
1350.48	0.926
1358.94	0.926
1367.39	0.925
1375.85	0.925
1384.3	0.923
1392.75	0.92
1401.21	0.92
1409.66	0.923
1418.12	0.925
1426.57	0.901
1435.02	0.884
1443.48	0.86
1451.93	0.819
1460.39	0.824
1468.84	0.86
1477.29	0.855
1485.75	0.85
1494.2	0.831
1502.66	0.777
1511.11	0.585
1519.56	0.544
1528.02	0.712
1536.47	0.801
1544.93	0.869
1553.38	0.877
1561.84	0.88
1570.29	0.877
1578.74	0.862
1587.2	0.802
1595.65	0.664
1604.11	0.392
1612.56	0.637
1621.01	0.865
1629.47	0.882
1637.92	0.892
1646.38	0.896
1654.83	0.894
1663.28	0.891
1671.74	0.884
1680.19	0.892
1688.65	0.897
1697.1	0.897
1705.55	0.897
1714.01	0.899
1722.46	0.894
1730.92	0.892
1739.37	0.892
1747.83	0.896
1756.28	0.901
1764.73	0.903
1773.19	0.903
1781.64	0.899
1790.1	0.897
1798.55	0.896
1807	0.897
1815.46	0.899
1823.91	0.901
1832.37	0.903
1840.82	0.904
1849.27	0.903
1857.73	0.897
1866.18	0.892
1874.64	0.891
1883.09	0.894
1891.55	0.897
1900	0.899
1908.45	0.901
1916.91	0.903
1925.36	0.901
1933.82	0.901
1942.27	0.894
1950.72	0.886
1959.18	0.896
1967.63	0.896
1976.09	0.896
1984.54	0.903
1992.99	0.906
2001.45	0.908
2009.9	0.909
2018.36	0.909
2026.81	0.909
2035.26	0.909
2043.72	0.906
2052.17	0.903
2060.63	0.901
2069.08	0.896
2077.54	0.889
2085.99	0.884
2094.44	0.88
2102.9	0.882
2111.35	0.886
2119.81	0.886
2128.26	0.88
2136.71	0.874
2145.17	0.855
2153.62	0.833
2162.08	0.809
2170.53	0.794
2178.98	0.775
2187.44	0.743
2195.89	0.678
2204.35	0.593
2212.8	0.53
2221.25	0.576
2229.71	0.574
2238.16	0.503
2246.62	0.36
2255.07	0.209
2263.53	0.095
2271.98	0.086
2280.43	0.095
2288.89	0.096
2297.34	0.098
2305.8	0.129
2314.25	0.209
2322.7	0.362
2331.16	0.471
2339.61	0.554
2348.07	0.6
2356.52	0.617
2364.97	0.636
2373.43	0.661
2381.88	0.7
2390.34	0.732
2398.79	0.775
2407.25	0.828
2415.7	0.852
2424.15	0.872
2432.61	0.884
2441.06	0.892
2449.52	0.899
2457.97	0.903
2466.42	0.908
2474.88	0.909
2483.33	0.913
2491.79	0.914
2500.24	0.914
2508.69	0.913
2517.15	0.913
2525.6	0.913
2534.06	0.914
2542.51	0.916
2550.96	0.914
2559.42	0.914
2567.87	0.914
2576.33	0.914
2584.78	0.916
2593.24	0.916
2601.69	0.918
2610.14	0.918
2618.6	0.918
2627.05	0.918
2635.51	0.918
2643.96	0.92
2652.41	0.918
2660.87	0.918
2669.32	0.918
2677.78	0.92
2686.23	0.92
2694.68	0.92
2703.14	0.92
2711.59	0.916
2720.05	0.916
2728.5	0.914
2736.95	0.914
2745.41	0.916
2753.86	0.918
2762.32	0.92
2770.77	0.921
2779.23	0.923
2787.68	0.923
2796.13	0.925
2804.59	0.923
2813.04	0.923
2821.5	0.925
2829.95	0.925
2838.4	0.923
2846.86	0.923
2855.31	0.923
2863.77	0.92
2872.22	0.92
2880.67	0.92
2889.13	0.92
2897.58	0.914
2906.04	0.914
2914.49	0.914
2922.94	0.92
2931.4	0.92
2939.85	0.921
2948.31	0.921
2956.76	0.921
2965.22	0.921
2973.67	0.923
2982.12	0.921
2990.58	0.92
2999.03	0.916
3007.49	0.908
3015.94	0.899
3024.39	0.892
3032.85	0.879
3041.3	0.877
3049.76	0.886
3058.21	0.879
3066.66	0.855
3075.12	0.843
3083.57	0.86
3092.03	0.901
3100.48	0.911
3108.94	0.914
3117.39	0.918
3125.84	0.923
3134.3	0.925
3142.75	0.926
3151.21	0.926
3159.66	0.928
3168.11	0.928
3176.57	0.928
3185.02	0.928
3193.48	0.926
3201.93	0.93
3210.38	0.93
3218.84	0.93
3227.29	0.93
3235.75	0.928
3244.2	0.928
3252.65	0.928
3261.11	0.928
3269.56	0.928
3278.02	0.928
3286.47	0.928
3294.93	0.926
3303.38	0.926
3311.83	0.925
3320.29	0.925
3328.74	0.923
3337.2	0.923
3345.65	0.918
3354.1	0.916
3362.56	0.913
3371.01	0.909
3379.47	0.904
3387.92	0.899
3396.37	0.894
3404.83	0.894
3413.28	0.901
3421.74	0.904
3430.19	0.913
3438.64	0.921
3447.1	0.925
3455.55	0.93
3464.01	0.931
3472.46	0.937
3480.92	0.938
3489.37	0.945
3497.82	0.952
3506.28	0.954
3514.73	0.954
3523.19	0.95
3531.64	0.95
3540.09	0.945
3548.55	0.942
3557	0.942
3565.46	0.942
3573.91	0.94
3582.36	0.938
3590.82	0.937
3599.27	0.938
3607.73	0.938
3616.18	0.935
3624.64	0.935
3633.09	0.935
3641.54	0.937
3650	0.935
3658.45	0.938
3666.91	0.937
3675.36	0.93
3683.81	0.93
3692.27	0.926
3700.72	0.926
3709.18	0.93
3717.63	0.935
3726.08	0.937
3734.54	0.94
3742.99	0.945
3751.45	0.945
3759.9	0.948
3768.35	0.947
3776.81	0.943
3785.26	0.943
3793.72	0.943
3802.17	0.947
3810.63	0.948
3819.08	0.948
3827.53	0.95
3835.99	0.95
3844.44	0.954
3852.9	0.948
3861.35	0.952
3869.8	0.952
3878.26	0.955
3886.71	0.952
3895.17	0.952
3903.62	0.954
3912.07	0.955
3920.53	0.954
3928.98	0.954
3937.44	0.954
