Infrared Spectrum: N-BENZYL ANILINE
Formula: C13 H13 N
CAS: 103-32-2
State: SOLUTION (10% IN CCl4 FOR 2-7.5, 10% IN CS2 FOR 7.5-15.9 MICRONS)
Class: COBLENTZ III
Instrument: BAIRD (PRISM)
Instrument parameters: NaCl PRISM
Sampling: TRANSMISSION
Path length: 0.012 CM, 0.012 CM
Resolution: 2
Origin: DOW CHEMICAL COMPANY
MICROMETERS	TRANSMITTANCE
1.991	0.867
2.02862	0.867
2.06623	0.862
2.10385	0.85
2.14146	0.855
2.17908	0.866
2.2167	0.867
2.25431	0.863
2.29193	0.861
2.32954	0.865
2.36716	0.867
2.40478	0.8529
2.44239	0.8421
2.48001	0.866
2.51762	0.872
2.55524	0.874
2.59286	0.874
2.63047	0.874
2.66809	0.874
2.7057	0.8709
2.74332	0.8527
2.78094	0.8258
2.81855	0.7856
2.85617	0.709
2.89378	0.5705
2.9314	0.5729
2.96902	0.6458
3.00663	0.667
3.04425	0.669
3.08186	0.6712
3.11948	0.6801
3.15709	0.6809
3.19471	0.6245
3.23233	0.4955
3.26994	0.3931
3.30756	0.3694
3.34517	0.6012
3.38279	0.5859
3.42041	0.5519
3.45802	0.54
3.49564	0.5424
3.53325	0.6687
3.57087	0.7433
3.60849	0.7763
3.6461	0.7873
3.68372	0.804
3.72133	0.8153
3.75895	0.824
3.79657	0.823
3.83418	0.823
3.8718	0.8232
3.90941	0.8343
3.94703	0.848
3.98465	0.85
4.02226	0.857
4.05988	0.868
4.09749	0.874
4.13511	0.874
4.17273	0.88
4.21034	0.881
4.24796	0.881
4.28557	0.873
4.32319	0.865
4.36081	0.871
4.39842	0.878
4.43604	0.883
4.47365	0.891
4.51127	0.892
4.54889	0.892
4.5865	0.892
4.62412	0.891
4.66173	0.891
4.69935	0.891
4.73697	0.89
4.77458	0.89
4.8122	0.89
4.84981	0.884
4.88743	0.874
4.92505	0.873
4.96266	0.873
5.00028	0.8719
5.03789	0.869
5.07551	0.841
5.11312	0.821
5.15074	0.8294
5.18836	0.8367
5.22597	0.8329
5.26359	0.8481
5.3012	0.843
5.33882	0.838
5.37644	0.8437
5.41405	0.849
5.45167	0.833
5.48928	0.817
5.5269	0.8196
5.56452	0.8432
5.60213	0.849
5.63975	0.8363
5.67736	0.828
5.71498	0.825
5.7526	0.8248
5.79021	0.824
5.82783	0.8034
5.86544	0.7753
5.90306	0.7321
5.94068	0.7146
5.97829	0.729
6.01591	0.7282
6.05352	0.6918
6.09114	0.6093
6.12876	0.5009
6.16637	0.3402
6.20399	0.1036
6.2416	0.0576
6.27922	0.2087
6.31684	0.3195
6.35445	0.3921
6.39207	0.406
6.42968	0.37
6.4673	0.3607
6.50492	0.3806
6.54253	0.3581
6.58015	0.2413
6.61776	0.1358
6.65538	0.0591
6.693	0.1234
6.73061	0.3852
6.76823	0.4497
6.80584	0.4879
6.84346	0.4586
6.88108	0.3463
6.91869	0.5379
6.95631	0.4517
6.99392	0.4548
7.03154	0.616
7.06915	0.6825
7.10677	0.6756
7.14439	0.6468
7.182	0.647
7.21962	0.6548
7.25723	0.663
7.29485	0.6314
7.33247	0.502
7.37008	0.4986
7.4077	0.6153
7.44531	0.5931
7.48293	0.2992
7.52055	0.1524
7.55816	0.0988
7.59578	0.0935
7.63339	0.1349
7.67101	0.2181
7.70863	0.2412
7.74624	0.2842
7.78386	0.322
7.82147	0.2277
7.85909	0.1598
7.89671	0.1446
7.93432	0.1494
7.97194	0.158
8.00955	0.1728
8.04717	0.297
8.08479	0.33
8.1224	0.321
8.16002	0.3538
8.19763	0.4288
8.23525	0.4906
8.27287	0.4891
8.31048	0.4242
8.3481	0.4082
8.38571	0.3857
8.42333	0.3805
8.46095	0.282
8.49856	0.2599
8.53618	0.3693
8.57379	0.411
8.61141	0.413
8.64903	0.3737
8.68664	0.3529
8.72426	0.4792
8.76187	0.5432
8.79949	0.5701
8.83711	0.577
8.87472	0.5763
8.91234	0.5572
8.94995	0.5096
8.98757	0.4422
9.02518	0.4235
9.0628	0.4749
9.10042	0.4831
9.13803	0.4632
9.17565	0.503
9.21326	0.5794
9.25088	0.5687
9.2885	0.4738
9.32611	0.4184
9.36373	0.439
9.40134	0.4361
9.43896	0.4832
9.47658	0.6082
9.51419	0.6713
9.55181	0.7058
9.58942	0.7173
9.62704	0.7198
9.66466	0.6291
9.70227	0.416
9.73989	0.2736
9.7775	0.5318
9.81512	0.6524
9.85274	0.6905
9.89035	0.7147
9.92797	0.723
9.96558	0.7
10.0032	0.6482
10.0408	0.5778
10.0784	0.4765
10.116	0.4176
10.1537	0.4583
10.1913	0.5465
10.2289	0.5898
10.2665	0.6045
10.3041	0.6112
10.3417	0.612
10.3794	0.6005
10.417	0.5757
10.4546	0.5523
10.4922	0.5458
10.5298	0.5979
10.5674	0.6439
10.6051	0.6759
10.6427	0.7013
10.6803	0.7112
10.7179	0.719
10.7555	0.725
10.7931	0.729
10.8308	0.7216
10.8684	0.6999
10.906	0.6651
10.9436	0.6354
10.9812	0.621
11.0188	0.6238
11.0564	0.6367
11.0941	0.6526
11.1317	0.656
11.1693	0.6619
11.2069	0.6743
11.2445	0.677
11.2821	0.675
11.3198	0.6599
11.3574	0.6321
11.395	0.5862
11.4326	0.5299
11.4702	0.4595
11.5078	0.3792
11.5455	0.3209
11.5831	0.3367
11.6207	0.3928
11.6583	0.4802
11.6959	0.5169
11.7335	0.5419
11.7712	0.567
11.8088	0.5761
11.8464	0.5808
11.884	0.5866
11.9216	0.5952
11.9592	0.6054
11.9968	0.608
12.0345	0.6093
12.0721	0.612
12.1097	0.609
12.1473	0.5973
12.1849	0.5857
12.2225	0.57
12.2602	0.5513
12.2978	0.5356
12.3354	0.527
12.373	0.527
12.4106	0.5349
12.4482	0.538
12.4859	0.5284
12.5235	0.52
12.5611	0.5148
12.5987	0.5079
12.6363	0.5001
12.6739	0.4903
12.7115	0.4832
12.7492	0.48
12.7868	0.484
12.8244	0.488
12.862	0.4837
12.8996	0.4551
12.9372	0.4237
12.9749	0.3987
13.0125	0.3484
13.0501	0.2518
13.0877	0.2246
13.1253	0.2262
13.1629	0.2269
13.2006	0.183
13.2382	0.1236
13.2758	0.063
13.3134	0.0278
13.351	0.008
13.3886	0.001
13.4263	0.0001
13.4639	0.003
13.5015	0.0164
13.5391	0.0435
13.5767	0.0644
13.6143	0.074
13.6519	0.0657
13.6896	0.0478
13.7272	0.033
13.7648	0.027
13.8024	0.0541
13.84	0.0977
13.8776	0.1702
13.9153	0.2361
13.9529	0.2677
13.9905	0.287
14.0281	0.287
14.0657	0.2758
14.1033	0.2527
14.141	0.2105
14.1786	0.1614
14.2162	0.1114
14.2538	0.0673
14.2914	0.0341
14.329	0.0166
14.3667	0.007
14.4043	0.003
14.4419	0.003
14.4795	0.007
14.5171	0.021
14.5547	0.0444
14.5923	0.0893
14.63	0.1507
14.6676	0.2152
14.7052	0.2544
14.7428	0.2855
14.7804	0.2981
14.818	0.3099
14.8557	0.3179
14.8933	0.324
14.9309	0.3286
14.9685	0.3355
15.0061	0.34
15.0437	0.341
15.0814	0.341
15.119	0.341
15.1566	0.337
15.1942	0.335
15.2318	0.3269
15.2694	0.3216
15.3071	0.318
15.3447	0.317
15.3823	0.316
15.4199	0.313
15.4575	0.313
15.4951	0.313
15.5327	0.313
15.5704	0.313
15.608	0.312
15.6456	0.312
15.6832	0.312
15.7208	0.311
15.7584	0.311
15.7961	0.311
15.8337	0.313
15.8713	0.3162
