Infrared Spectrum: DIBENZYLAMINE
Formula: C14 H15 N
CAS: 103-49-1
State: LIQUID
Boiling point: 175 C AT 12 mmHg
Class: COBLENTZ
Instrument: Not specified, most likely a prism, grating, or hybrid spectrometer.
Sampling: TRANSMISSION
Path length: 0.005 CM
Resolution: 4
Origin: WYANDOTTE CHEMICALS CORP., WYANDOTTE, MICHIGAN, USA
MICROMETERS	TRANSMITTANCE
2.007	0.943
2.04778	0.899
2.08855	0.914
2.12933	0.948
2.17011	0.945
2.21088	0.904
2.25166	0.877
2.29244	0.891
2.33321	0.843
2.37399	0.719
2.41477	0.84
2.45554	0.884
2.49632	0.884
2.5371	0.891
2.57787	0.901
2.61865	0.913
2.65943	0.894
2.7002	0.831
2.74098	0.865
2.78176	0.875
2.82253	0.85
2.86331	0.821
2.90409	0.787
2.94486	0.736
2.98564	0.61
3.02642	0.447
3.06719	0.615
3.10797	0.695
3.14875	0.666
3.18952	0.598
3.2303	0.154
3.27108	0.062
3.31185	0.301
3.35263	0.382
3.39341	0.115
3.43418	0.093
3.47496	0.068
3.51574	0.054
3.55651	0.04
3.59729	0.239
3.63807	0.413
3.67884	0.549
3.71962	0.646
3.7604	0.705
3.80117	0.731
3.84195	0.751
3.88273	0.792
3.9235	0.809
3.96428	0.821
4.00506	0.821
4.04583	0.828
4.08661	0.828
4.12739	0.821
4.16816	0.823
4.20894	0.823
4.24972	0.833
4.29049	0.84
4.33127	0.831
4.37205	0.818
4.41282	0.829
4.4536	0.835
4.49438	0.821
4.53515	0.84
4.57593	0.843
4.61671	0.831
4.65748	0.831
4.69826	0.85
4.73904	0.86
4.77981	0.85
4.82059	0.848
4.86137	0.848
4.90214	0.829
4.94292	0.835
4.9837	0.831
5.02447	0.812
5.06525	0.756
5.10603	0.622
5.1468	0.477
5.18758	0.586
5.22836	0.738
5.26913	0.7
5.30991	0.595
5.35069	0.527
5.39146	0.636
5.43224	0.714
5.47302	0.656
5.51379	0.528
5.55457	0.551
5.59535	0.704
5.63612	0.71
5.6769	0.683
5.71768	0.675
5.75845	0.741
5.79923	0.748
5.84001	0.734
5.88078	0.727
5.92156	0.698
5.96234	0.651
6.00311	0.576
6.04389	0.46
6.08467	0.603
6.12544	0.569
6.16622	0.188
6.207	0.333
6.24777	0.318
6.28855	0.576
6.32933	0.646
6.3701	0.636
6.41088	0.6
6.45166	0.625
6.49243	0.654
6.53321	0.605
6.57399	0.501
6.61476	0.117
6.65554	0.068
6.69632	0.239
6.73709	0.159
6.77787	0.051
6.81865	0.032
6.85942	0.034
6.9002	0.057
6.94098	0.197
6.98175	0.374
7.02253	0.515
7.06331	0.557
7.10408	0.556
7.14486	0.476
7.18564	0.37
7.22641	0.362
7.26719	0.244
7.30796	0.069
7.34874	0.141
7.38952	0.198
7.43029	0.153
7.47107	0.219
7.51185	0.248
7.55262	0.275
7.5934	0.261
7.63418	0.241
7.67495	0.256
7.71573	0.341
7.75651	0.401
7.79728	0.425
7.83806	0.452
7.87884	0.443
7.91961	0.392
7.96039	0.36
8.00117	0.353
8.04194	0.343
8.08272	0.336
8.1235	0.35
8.16427	0.355
8.20505	0.309
8.24583	0.227
8.2866	0.168
8.32738	0.141
8.36816	0.202
8.40893	0.295
8.44971	0.297
8.49049	0.329
8.53126	0.397
8.57204	0.428
8.61282	0.294
8.65359	0.396
8.69437	0.44
8.73515	0.362
8.77592	0.265
8.8167	0.141
8.85748	0.068
8.89825	0.044
8.93903	0.039
8.97981	0.042
9.02058	0.047
9.06136	0.073
9.10214	0.108
9.14291	0.124
9.18369	0.119
9.22447	0.098
9.26524	0.088
9.30602	0.137
9.3468	0.278
9.38757	0.357
9.42835	0.418
9.46913	0.423
9.5099	0.426
9.55068	0.435
9.59146	0.414
9.63223	0.287
9.67301	0.062
9.71379	0.054
9.75456	0.232
9.79534	0.38
9.83612	0.454
9.87689	0.455
9.91767	0.386
9.95845	0.338
9.99922	0.333
10.04	0.268
10.0808	0.227
10.1216	0.192
10.1623	0.192
10.2031	0.227
10.2439	0.25
10.2847	0.261
10.3254	0.267
10.3662	0.284
10.407	0.284
10.4478	0.263
10.4885	0.26
10.5293	0.272
10.5701	0.299
10.6109	0.331
10.6517	0.36
10.6924	0.389
10.7332	0.399
10.774	0.401
10.8148	0.401
10.8555	0.396
10.8963	0.341
10.9371	0.253
10.9779	0.18
11.0186	0.158
11.0594	0.197
11.1002	0.265
11.141	0.341
11.1817	0.411
11.2225	0.457
11.2633	0.482
11.3041	0.505
11.3449	0.506
11.3856	0.511
11.4264	0.498
11.4672	0.488
11.508	0.472
11.5487	0.45
11.5895	0.421
11.6303	0.379
11.6711	0.331
11.7118	0.282
11.7526	0.244
11.7934	0.198
11.8342	0.17
11.875	0.156
11.9157	0.144
11.9565	0.137
11.9973	0.122
12.0381	0.112
12.0788	0.102
12.1196	0.103
12.1604	0.115
12.2012	0.13
12.2419	0.142
12.2827	0.147
12.3235	0.144
12.3643	0.142
12.405	0.132
12.4458	0.13
12.4866	0.129
12.5274	0.132
12.5682	0.144
12.6089	0.17
12.6497	0.188
12.6905	0.19
12.7313	0.183
12.772	0.173
12.8128	0.17
12.8536	0.153
12.8944	0.142
12.9351	0.129
12.9759	0.112
13.0167	0.088
13.0575	0.074
13.0982	0.059
13.139	0.04
13.1798	0.037
13.2206	0.039
13.2614	0.039
13.3021	0.035
13.3429	0.037
13.3837	0.042
13.4245	0.039
13.4652	0.042
13.506	0.039
13.5468	0.042
13.5876	0.042
13.6283	0.044
13.6691	0.044
13.7099	0.044
13.7507	0.044
13.7915	0.044
13.8322	0.049
13.873	0.049
13.9138	0.054
13.9546	0.056
13.9953	0.056
14.0361	0.059
14.0769	0.059
14.1177	0.064
14.1584	0.066
14.1992	0.066
14.24	0.069
14.2808	0.069
14.3215	0.074
14.3623	0.079
14.4031	0.086
14.4439	0.091
14.4847	0.095
14.5254	0.108
14.5662	0.115
14.607	0.127
14.6478	0.142
14.6885	0.163
14.7293	0.181
14.7701	0.209
14.8109	0.217
14.8516	0.234
14.8924	0.255
14.9332	0.272
14.974	0.301
15.0148	0.341
15.0555	0.369
15.0963	0.372
15.1371	0.372
15.1779	0.397
15.2186	0.42
15.2594	0.437
15.3002	0.452
15.341	0.464
15.3817	0.481
15.4225	0.484
15.4633	0.493
15.5041	0.503
15.5448	0.506
15.5856	0.511
15.6264	0.515
15.6672	0.522
15.708	0.525
15.7487	0.52
15.7895	0.525
15.8303	0.518
15.8711	0.513
15.9118	0.513
15.9526	0.51
