Infrared Spectrum: PHENYLACETIC ACID
Formula: C8 H8 O2
CAS: 103-82-2
State: SOLID (MULL)
Melting point: 74-76 C
Class: COBLENTZ
Instrument: Not specified, most likely a prism, grating, or hybrid spectrometer.
Sampling: TRANSMISSION
Resolution: 4
Origin: WYANDOTTE CHEMICALS CORP., WYANDOTTE, MICHIGAN, USA
MICROMETERS	TRANSMITTANCE
2.015	0.782
2.05492	0.783
2.09484	0.788
2.13476	0.797
2.17469	0.8
2.21461	0.788
2.25453	0.782
2.29445	0.793
2.33437	0.795
2.37429	0.795
2.41422	0.798
2.45414	0.823
2.49406	0.833
2.53398	0.841
2.5739	0.851
2.61382	0.86
2.65375	0.885
2.69367	0.893
2.73359	0.891
2.77351	0.906
2.81343	0.915
2.85335	0.918
2.89327	0.921
2.9332	0.913
2.97312	0.883
3.01304	0.75
3.05296	0.622
3.09288	0.485
3.1328	0.364
3.17273	0.277
3.21265	0.207
3.25257	0.163
3.29249	0.114
3.33241	0.079
3.37233	0.023
3.41226	0.024
3.45218	0.024
3.4921	0.028
3.53202	0.083
3.57194	0.262
3.61186	0.337
3.65178	0.327
3.69171	0.329
3.73163	0.369
3.77155	0.337
3.81147	0.362
3.85139	0.405
3.89131	0.435
3.93124	0.43
3.97116	0.467
4.01108	0.532
4.051	0.599
4.09092	0.618
4.13084	0.647
4.17077	0.668
4.21069	0.702
4.25061	0.723
4.29053	0.732
4.33045	0.76
4.37037	0.792
4.41029	0.843
4.45022	0.851
4.49014	0.838
4.53006	0.845
4.56998	0.863
4.6099	0.891
4.64982	0.91
4.68975	0.925
4.72967	0.943
4.76959	0.95
4.80951	0.956
4.84943	0.956
4.88935	0.951
4.92928	0.946
4.9692	0.953
5.00912	0.971
5.04904	0.973
5.08896	0.973
5.12888	0.948
5.1688	0.868
5.20873	0.956
5.24865	0.973
5.28857	0.94
5.32849	0.923
5.36841	0.923
5.40833	0.923
5.44826	0.916
5.48818	0.875
5.5281	0.768
5.56802	0.733
5.60794	0.685
5.64786	0.642
5.68779	0.595
5.72771	0.46
5.76763	0.224
5.80755	0.066
5.84747	0.031
5.88739	0.033
5.92732	0.046
5.96724	0.108
6.00716	0.261
6.04708	0.407
6.087	0.51
6.12692	0.579
6.16684	0.562
6.20677	0.613
6.24669	0.702
6.28661	0.758
6.32653	0.8
6.36645	0.798
6.40637	0.82
6.4463	0.818
6.48622	0.875
6.52614	0.868
6.56606	0.846
6.60598	0.622
6.6459	0.585
6.68583	0.672
6.72575	0.552
6.76567	0.259
6.80559	0.166
6.84551	0.149
6.88543	0.326
6.92535	0.392
6.96528	0.347
7.0052	0.221
7.04512	0.084
7.08504	0.063
7.12496	0.201
7.16488	0.376
7.20481	0.306
7.24473	0.307
7.28465	0.474
7.32457	0.579
7.36449	0.52
7.40441	0.361
7.44434	0.316
7.48426	0.452
7.52418	0.579
7.5641	0.618
7.60402	0.58
7.64394	0.487
7.68386	0.332
7.72379	0.277
7.76371	0.311
7.80363	0.384
7.84355	0.399
7.88347	0.331
7.92339	0.232
7.96332	0.204
8.00324	0.148
8.04316	0.118
8.08308	0.101
8.123	0.114
8.16292	0.221
8.20285	0.352
8.24277	0.407
8.28269	0.319
8.32261	0.229
8.36253	0.262
8.40245	0.239
8.44237	0.391
8.4823	0.495
8.52222	0.57
8.56214	0.638
8.60206	0.663
8.64198	0.663
8.6819	0.733
8.72183	0.763
8.76175	0.806
8.80167	0.826
8.84159	0.838
8.88151	0.845
8.92143	0.845
8.96136	0.848
9.00128	0.856
9.0412	0.86
9.08112	0.86
9.12104	0.845
9.16096	0.803
9.20088	0.737
9.24081	0.633
9.28073	0.625
9.32065	0.763
9.36057	0.82
9.40049	0.851
9.44041	0.851
9.48034	0.858
9.52026	0.853
9.56018	0.845
9.6001	0.828
9.64002	0.755
9.67994	0.658
9.71987	0.75
9.75979	0.79
9.79971	0.798
9.83963	0.803
9.87955	0.801
9.91947	0.782
9.95939	0.778
9.99932	0.772
10.0392	0.753
10.0792	0.727
10.1191	0.662
10.159	0.675
10.1989	0.667
10.2388	0.627
10.2788	0.597
10.3187	0.549
10.3586	0.512
10.3985	0.529
10.4385	0.51
10.4784	0.479
10.5183	0.45
10.5582	0.41
10.5981	0.374
10.6381	0.337
10.678	0.291
10.7179	0.242
10.7578	0.198
10.7977	0.146
10.8377	0.171
10.8776	0.209
10.9175	0.211
10.9574	0.206
10.9974	0.199
11.0373	0.189
11.0772	0.188
11.1171	0.201
11.157	0.202
11.197	0.209
11.2369	0.217
11.2768	0.244
11.3167	0.276
11.3567	0.296
11.3966	0.336
11.4365	0.374
11.4764	0.409
11.5163	0.444
11.5563	0.484
11.5962	0.515
11.6361	0.547
11.676	0.579
11.7159	0.602
11.7559	0.623
11.7958	0.622
11.8357	0.577
11.8756	0.454
11.9156	0.342
11.9555	0.439
11.9954	0.565
12.0353	0.632
12.0752	0.672
12.1152	0.71
12.1551	0.738
12.195	0.755
12.2349	0.773
12.2748	0.787
12.3148	0.792
12.3547	0.797
12.3946	0.811
12.4345	0.823
12.4745	0.835
12.5144	0.84
12.5543	0.845
12.5942	0.853
12.6341	0.855
12.6741	0.856
12.714	0.855
12.7539	0.858
12.7938	0.856
12.8337	0.861
12.8737	0.846
12.9136	0.848
12.9535	0.848
12.9934	0.843
13.0334	0.823
13.0733	0.793
13.1132	0.75
13.1531	0.64
13.193	0.465
13.233	0.239
13.2729	0.123
13.3128	0.196
13.3527	0.379
13.3927	0.557
13.4326	0.69
13.4725	0.753
13.5124	0.798
13.5523	0.818
13.5923	0.835
13.6322	0.846
13.6721	0.863
13.712	0.86
13.7519	0.85
13.7919	0.831
13.8318	0.801
13.8717	0.76
13.9116	0.735
13.9516	0.692
13.9915	0.62
14.0314	0.535
14.0713	0.422
14.1112	0.302
14.1512	0.201
14.1911	0.133
14.231	0.083
14.2709	0.064
14.3108	0.058
14.3508	0.063
14.3907	0.094
14.4306	0.158
14.4705	0.269
14.5105	0.399
14.5504	0.49
14.5903	0.53
14.6302	0.515
14.6701	0.457
14.7101	0.356
14.75	0.279
14.7899	0.236
14.8298	0.222
14.8697	0.249
14.9097	0.301
14.9496	0.352
14.9895	0.405
15.0294	0.457
15.0694	0.505
15.1093	0.545
15.1492	0.569
15.1891	0.595
15.229	0.625
15.269	0.652
15.3089	0.658
15.3488	0.67
15.3887	0.69
15.4287	0.702
15.4686	0.715
15.5085	0.733
15.5484	0.738
15.5883	0.747
15.6283	0.748
15.6682	0.752
15.7081	0.747
15.748	0.745
15.7879	0.735
15.8279	0.73
15.8678	0.722
15.9077	0.71
15.9476	0.703
