Infrared Spectrum: ACETIC ACID, 2-ETHYLHEXYL ESTER
Formula: C10 H20 O2
CAS: 103-09-3
State: VAPOR (10 MICROLITER AT 150 C)
Boiling point: 199 C
Class: COBLENTZ
Instrument: PERKIN-ELMER 180
Sampling: TRANSMISSION
Path length: 5 CM KBr CELL, CELL VOLUME: 80 CM^3
Resolution: 2-3 CM^-^1
Origin: PERKIN-ELMER CORP. (M. ZELLER)
1/CM	TRANSMITTANCE
405.195	0.426
414.286	0.481
423.377	0.542
432.468	0.598
441.559	0.6439
450.65	0.684
459.741	0.718
468.832	0.752
477.923	0.766
487.014	0.786
496.104	0.804
505.195	0.791
514.286	0.808
523.377	0.813
532.468	0.817
541.559	0.826
550.65	0.829
559.741	0.838
568.832	0.834
577.923	0.839
587.014	0.834
596.105	0.827
605.196	0.809
614.287	0.82
623.378	0.817
632.469	0.809
641.56	0.818
650.651	0.835
659.742	0.846
668.833	0.844
677.923	0.851
687.014	0.851
696.105	0.846
705.196	0.846
714.287	0.842
723.378	0.833
732.469	0.833
741.56	0.839
750.651	0.847
759.742	0.842
768.833	0.831
777.924	0.827
787.015	0.837
796.106	0.843
805.197	0.84
814.288	0.84
823.379	0.835
832.47	0.834
841.561	0.831
850.652	0.829
859.742	0.829
868.833	0.829
877.924	0.826
887.015	0.821
896.106	0.812
905.197	0.816
914.288	0.821
923.379	0.82
932.47	0.814
941.561	0.808
950.652	0.799
959.743	0.79
968.834	0.79
977.925	0.792
987.016	0.783
996.107	0.765
1005.2	0.691
1014.29	0.6211
1023.38	0.511
1032.47	0.443
1041.56	0.494
1050.65	0.599
1059.74	0.67
1068.83	0.688
1077.93	0.702
1087.02	0.736
1096.11	0.76
1105.2	0.773
1114.29	0.782
1123.38	0.79
1132.47	0.795
1141.56	0.799
1150.65	0.803
1159.74	0.803
1168.83	0.799
1177.93	0.79
1187.02	0.757
1196.11	0.6851
1205.2	0.544
1214.29	0.322
1223.38	0.0479
1232.47	0.001
1241.56	0.093
1250.65	0.2812
1259.74	0.4619
1268.84	0.559
1277.93	0.629
1287.02	0.71
1296.11	0.749
1305.2	0.769
1314.29	0.791
1323.38	0.803
1332.47	0.805
1341.56	0.799
1350.65	0.77
1359.74	0.662
1368.84	0.509
1377.93	0.546
1387.02	0.548
1396.11	0.616
1405.2	0.7351
1414.29	0.796
1423.38	0.8
1432.47	0.791
1441.56	0.775
1450.65	0.73
1459.75	0.663
1468.84	0.637
1477.93	0.71
1487.02	0.784
1496.11	0.817
1505.2	0.82
1514.29	0.83
1523.38	0.827
1532.47	0.835
1541.56	0.834
1550.65	0.839
1559.75	0.838
1568.84	0.842
1577.93	0.846
1587.02	0.848
1596.11	0.848
1605.2	0.851
1614.29	0.848
1623.38	0.844
1632.47	0.846
1641.56	0.844
1650.66	0.842
1659.75	0.843
1668.84	0.838
1677.93	0.835
1687.02	0.831
1696.11	0.822
1705.2	0.804
1714.29	0.778
1723.38	0.73
1732.47	0.663
1741.56	0.5311
1750.66	0.311
1759.75	0.095
1768.84	0.2492
1777.93	0.53
1787.02	0.679
1796.11	0.749
1805.2	0.796
1814.29	0.82
1823.38	0.831
1832.47	0.839
1841.56	0.837
1850.66	0.851
1859.75	0.844
1868.84	0.847
1877.93	0.844
1887.02	0.848
1896.11	0.851
1905.2	0.847
1914.29	0.85
1923.38	0.85
1932.47	0.851
1941.57	0.848
1950.66	0.855
1959.75	0.847
1968.84	0.851
1977.93	0.851
1987.02	0.852
1996.11	0.848
2005.2	0.851
2014.29	0.851
2023.38	0.8501
2032.47	0.847
2041.57	0.8479
2050.66	0.8492
2059.75	0.8437
2068.84	0.848
2077.93	0.8485
2087.02	0.8463
2096.11	0.8508
2105.2	0.8495
2114.29	0.8475
2123.38	0.8496
2132.48	0.8439
2141.57	0.844
2150.66	0.8506
2159.75	0.851
2168.84	0.848
2177.93	0.852
2187.02	0.852
2196.11	0.8531
2205.2	0.8555
2214.29	0.852
2223.38	0.852
2232.48	0.8529
2241.57	0.855
2250.66	0.853
2259.75	0.8506
2268.84	0.846
2277.93	0.852
2287.02	0.853
2296.11	0.852
2305.2	0.85
2314.29	0.847
2323.39	0.847
2332.48	0.847
2341.57	0.8494
2350.66	0.8508
2359.75	0.8463
2368.84	0.8434
2377.93	0.8506
2387.02	0.85
2396.11	0.852
2405.2	0.852
2414.29	0.85
2423.39	0.848
2432.48	0.848
2441.57	0.848
2450.66	0.848
2459.75	0.85
2468.84	0.85
2477.93	0.8471
2487.02	0.8487
2496.11	0.852
2505.2	0.8507
2514.3	0.848
2523.39	0.848
2532.48	0.847
2541.57	0.847
2550.66	0.8477
2559.75	0.848
2568.84	0.85
2577.93	0.85
2587.02	0.8474
2596.11	0.844
2605.2	0.8452
2614.3	0.847
2623.39	0.8465
2632.48	0.8459
2641.57	0.844
2650.66	0.844
2659.75	0.84
2668.84	0.8419
2677.93	0.842
2687.02	0.84
2696.11	0.842
2705.21	0.8391
2714.3	0.8377
2723.39	0.8342
2732.48	0.8307
2741.57	0.829
2750.66	0.83
2759.75	0.833
2768.84	0.8326
2777.93	0.824
2787.02	0.822
2796.11	0.8214
2805.21	0.8157
2814.3	0.8084
2823.39	0.7946
2832.48	0.7726
2841.57	0.7379
2850.66	0.6607
2859.75	0.5167
2868.84	0.4575
2877.93	0.4579
2887.02	0.4944
2896.12	0.521
2905.21	0.4627
2914.3	0.3585
2923.39	0.2745
2932.48	0.2072
2941.57	0.2488
2950.66	0.312
2959.75	0.2179
2968.84	0.2034
2977.93	0.438
2987.02	0.603
2996.12	0.7057
3005.21	0.7493
3014.3	0.7705
3023.39	0.7815
3032.48	0.7901
3041.57	0.8001
3050.66	0.8051
3059.75	0.809
3068.84	0.812
3077.93	0.814
3087.03	0.818
3096.12	0.8224
3105.21	0.8269
3114.3	0.827
3123.39	0.8299
3132.48	0.834
3141.57	0.8313
3150.66	0.8316
3159.75	0.834
3168.84	0.8333
3177.93	0.834
3187.03	0.8355
3196.12	0.8377
3205.21	0.839
3214.3	0.8413
3223.39	0.838
3232.48	0.839
3241.57	0.839
3250.66	0.838
3259.75	0.8381
3268.84	0.842
3277.93	0.843
3287.03	0.8465
3296.12	0.8391
3305.21	0.8385
3314.3	0.8429
3323.39	0.8412
3332.48	0.839
3341.57	0.8424
3350.66	0.8432
3359.75	0.84
3368.84	0.844
3377.94	0.8397
3387.03	0.8409
3396.12	0.839
3405.21	0.8394
3414.3	0.84
3423.39	0.8427
3432.48	0.8382
3441.57	0.8396
3450.66	0.8418
3459.75	0.8394
3468.84	0.837
3477.94	0.835
3487.03	0.829
3496.12	0.8265
3505.21	0.834
3514.3	0.838
3523.39	0.84
3532.48	0.8413
3541.57	0.8457
3550.66	0.8405
3559.75	0.8431
3568.85	0.8387
3577.94	0.8388
3587.03	0.843
3596.12	0.846
3605.21	0.8427
3614.3	0.8415
3623.39	0.843
3632.48	0.84
3641.57	0.8392
3650.66	0.842
3659.75	0.8397
3668.85	0.838
3677.94	0.835
3687.03	0.842
3696.12	0.838
3705.21	0.8425
3714.3	0.842
3723.39	0.8395
3732.48	0.84
3741.57	0.842
3750.66	0.842
3759.76	0.839
3768.85	0.84
3777.94	0.842
3787.03	0.842
3796.12	0.838
3805.21	0.843
3814.3	0.84
3823.39	0.839
3832.48	0.84
3841.57	0.8383
3850.66	0.8354
3859.76	0.8413
3868.85	0.8424
3877.94	0.8386
3887.03	0.842
3896.12	0.84
3905.21	0.84
3914.3	0.8425
3923.39	0.838
3932.48	0.839
3941.57	0.842
3950.67	0.8396
3959.76	0.839
3968.85	0.839
3977.94	0.838
3987.03	0.835
3996.12	0.835
