Infrared Spectrum: Succinate, dibenzyl
Formula: C18 H18 O4
CAS: 103-43-5
State: SOLUTION (10% CCl4 FOR 2.7-7.5, 10% CS2 FOR 7.5-26 MICRON) VS SOLVENT
Class: COBLENTZ III
Instrument: DOW FOREPRISM-GRATING
Instrument parameters: BLAZED AT 3.5, 12.0, 20.0 MICRON AND CHANGED AT 5.0, 7.5, 14.9 MICRON
Sampling: TRANSMISSION
Path length: 0.011 CM, 0.011 CM
Resolution: 2
Origin: DOW CHEMICAL COMPANY
1/CM	TRANSMITTANCE
390	0.7989
399	0.8
408	0.7984
417	0.7956
426	0.7912
435	0.7798
444	0.7576
453	0.7328
462	0.7545
471	0.7769
480	0.753
489	0.7377
498	0.7528
507	0.8046
516	0.8152
525	0.817
534	0.8279
543	0.819
552	0.8065
561	0.7747
570	0.7253
579	0.7274
588	0.7365
597	0.7308
606	0.7598
615	0.807
624	0.8426
633	0.8419
642	0.8361
651	0.8328
660	0.8025
669	0.7301
678	0.6998
687	0.2
696	0.3517
705	0.687
714	0.6337
723	0.3406
732	0.28
741	0.2017
750	0.3769
759	0.7104
768	0.8336
777	0.847
786	0.8178
795	0.7632
804	0.7839
813	0.7331
822	0.7239
831	0.6609
840	0.773
849	0.8154
858	0.8198
867	0.8044
876	0.7639
885	0.696
894	0.632
903	0.6255
912	0.6746
921	0.7398
930	0.7155
939	0.6484
948	0.5559
957	0.4274
966	0.37
975	0.3716
984	0.3378
993	0.3119
1002	0.3997
1011	0.5288
1020	0.53
1029	0.6439
1038	0.7422
1047	0.7179
1056	0.6682
1065	0.6915
1074	0.6504
1083	0.7501
1092	0.7419
1101	0.7047
1110	0.6444
1119	0.4632
1128	0.3301
1137	0.0212
1146	0
1155	0.021
1164	0.0906
1173	0.1476
1182	0.1763
1191	0.1894
1200	0.1162
1209	0.1169
1218	0.2242
1227	0.2215
1236	0.2418
1245	0.2233
1254	0.1939
1263	0.2706
1272	0.3767
1281	0.4796
1290	0.4879
1299	0.4117
1308	0.3888
1317	0.4873
1326	0.5035
1335	0.4666
1344	0.3282
1353	0.2868
1362	0.4822
1371	0.5012
1380	0.3093
1389	0.3708
1398	0.6098
1407	0.519
1416	0.4622
1425	0.4702
1434	0.6114
1443	0.59
1452	0.4314
1461	0.4656
1470	0.7557
1479	0.7779
1488	0.7576
1497	0.4644
1506	0.8085
1515	0.8271
1524	0.8276
1533	0.8238
1542	0.833
1551	0.8308
1560	0.8206
1569	0.8048
1578	0.7771
1587	0.7982
1596	0.7871
1605	0.7886
1614	0.8107
1623	0.8059
1632	0.7988
1641	0.792
1650	0.7828
1659	0.7727
1668	0.7616
1677	0.7467
1686	0.6864
1695	0.6159
1704	0.563
1713	0.356
1722	0.0532
1731	0.0028
1740	0.0063
1749	0.1291
1758	0.432
1767	0.6399
1776	0.7146
1785	0.7387
1794	0.7271
1803	0.7605
1812	0.7921
1821	0.8085
1830	0.823
1839	0.8271
1848	0.8181
1857	0.8122
1866	0.8122
1875	0.8181
1884	0.8306
1893	0.8379
1902	0.8424
1911	0.8456
1920	0.8424
1929	0.8212
1938	0.7916
1947	0.8059
1956	0.8169
1965	0.8402
1974	0.8451
1983	0.846
1992	0.8485
2001	0.8522
2010	0.8519
2019	0.8525
2028	0.8543
2037	0.8564
2046	0.8582
2055	0.8589
2064	0.8596
2073	0.8605
2082	0.8615
2091	0.8622
2100	0.8625
2109	0.8627
2118	0.8631
2127	0.8634
2136	0.8639
2145	0.8643
2154	0.8653
2163	0.8665
2172	0.87
2181	0.8671
2190	0.8613
2199	0.8603
2208	0.8602
2217	0.8602
2226	0.8603
2235	0.8604
2244	0.8607
2253	0.8606
2262	0.8601
2271	0.8593
2280	0.8582
2289	0.8569
2298	0.8554
2307	0.8534
2316	0.8529
2325	0.8555
2334	0.86
2343	0.8614
2352	0.8621
2361	0.8625
2370	0.8625
2379	0.8622
2388	0.8619
2397	0.8614
2406	0.8613
2415	0.8612
2424	0.8613
2433	0.8619
2442	0.8624
2451	0.8624
2460	0.8624
2469	0.8624
2478	0.8626
2487	0.863
2496	0.8632
2505	0.8631
2514	0.8631
2523	0.863
2532	0.8629
2541	0.8627
2550	0.8625
2559	0.8623
2568	0.8621
2577	0.8618
2586	0.8614
2595	0.861
2604	0.8606
2613	0.8601
2622	0.8596
2631	0.859
2640	0.8586
2649	0.8584
2658	0.8582
2667	0.8579
2676	0.8575
2685	0.8571
2694	0.8568
2703	0.8564
2712	0.8562
2721	0.8559
2730	0.8558
2739	0.8561
2748	0.8566
2757	0.8566
2766	0.8565
2775	0.8566
2784	0.8569
2793	0.8523
2802	0.8464
2811	0.8438
2820	0.8453
2829	0.8486
2838	0.85
2847	0.8454
2856	0.8285
2865	0.8003
2874	0.7706
2883	0.7499
2892	0.7702
2901	0.7842
2910	0.7408
2919	0.6815
2928	0.6372
2937	0.6056
2946	0.582
2955	0.5716
2964	0.6526
2973	0.7223
2982	0.7529
2991	0.7704
3000	0.7717
3009	0.7664
3018	0.7261
3027	0.5684
3036	0.4498
3045	0.7293
3054	0.6636
3063	0.5566
3072	0.7447
3081	0.7093
3090	0.6657
3099	0.814
3108	0.8181
3117	0.8558
3126	0.8701
3135	0.8711
3144	0.8722
3153	0.8728
3162	0.8732
3171	0.8783
3180	0.8812
3189	0.8818
3198	0.8824
3207	0.8825
3216	0.8826
3225	0.8827
3234	0.8817
3243	0.8826
3252	0.8826
3261	0.8823
3270	0.8818
3279	0.8813
3288	0.8808
3297	0.8803
3306	0.8798
3315	0.8795
3324	0.8793
3333	0.8789
3342	0.8787
3351	0.8781
3360	0.8776
3369	0.8769
3378	0.8764
3387	0.875
3396	0.8731
3405	0.8706
3414	0.8646
3423	0.8553
3432	0.8467
3441	0.8372
3450	0.8367
3459	0.8444
3468	0.8544
3477	0.8626
3486	0.8669
3495	0.8679
3504	0.8679
3513	0.8677
3522	0.8669
3531	0.8661
3540	0.8655
3549	0.8652
3558	0.8649
3567	0.8632
3576	0.8598
3585	0.857
3594	0.8549
3603	0.8532
3612	0.8522
3621	0.8515
3630	0.851
3639	0.8523
3648	0.8536
3657	0.855
3666	0.8564
3675	0.8572
3684	0.8572
3693	0.8567
3702	0.856
3711	0.8552
3720	0.8548
3729	0.8543
3738	0.8538
3747	0.8531
3756	0.8523
3765	0.8515
3774	0.8512
3783	0.8509
3792	0.8507
