Infrared Spectrum: Beta-BROMOSTYRENE
Formula: C8 H7 Br
CAS: 103-64-0
State: LIQUID
Class: COBLENTZ
Instrument: Not specified, most likely a prism, grating, or hybrid spectrometer.
Sampling: TRANSMISSION
Path length: 0.003 CM
Resolution: 4
Origin: WYANDOTTE CHEMICALS CORP., WYANDOTTE, MICHIGAN, USA
MICROMETERS	TRANSMITTANCE
2	0.957
2.04088	0.959
2.08175	0.955
2.12263	0.954
2.1635	0.952
2.20438	0.95
2.24526	0.95
2.28613	0.952
2.32701	0.95
2.36788	0.945
2.40876	0.931
2.44964	0.938
2.49051	0.938
2.53139	0.94
2.57227	0.938
2.61314	0.938
2.65402	0.937
2.69489	0.938
2.73577	0.94
2.77665	0.94
2.81752	0.931
2.8584	0.92
2.89927	0.913
2.94015	0.904
2.98103	0.899
3.0219	0.891
3.06278	0.877
3.10365	0.858
3.14453	0.833
3.18541	0.809
3.22628	0.658
3.26716	0.38
3.30804	0.494
3.34891	0.673
3.38979	0.7
3.43066	0.717
3.47154	0.75
3.51242	0.765
3.55329	0.799
3.59417	0.807
3.63504	0.823
3.67592	0.829
3.7168	0.846
3.75767	0.86
3.79855	0.865
3.83942	0.865
3.8803	0.867
3.92118	0.869
3.96205	0.87
4.00293	0.872
4.0438	0.872
4.08468	0.87
4.12556	0.867
4.16643	0.863
4.20731	0.863
4.24819	0.867
4.28906	0.872
4.32994	0.88
4.37081	0.892
4.41169	0.899
4.45257	0.896
4.49344	0.891
4.53432	0.896
4.57519	0.899
4.61607	0.903
4.65695	0.904
4.69782	0.911
4.7387	0.914
4.77957	0.913
4.82045	0.913
4.86133	0.913
4.9022	0.911
4.94308	0.908
4.98396	0.901
5.02483	0.901
5.06571	0.899
5.10658	0.882
5.14746	0.826
5.18834	0.789
5.22921	0.819
5.27009	0.858
5.31096	0.84
5.35184	0.802
5.39272	0.807
5.43359	0.85
5.47447	0.862
5.51534	0.852
5.55622	0.809
5.5971	0.801
5.63797	0.819
5.67885	0.823
5.71972	0.787
5.7606	0.709
5.80148	0.702
5.84235	0.69
5.88323	0.649
5.92411	0.608
5.96498	0.615
6.00586	0.702
6.04673	0.732
6.08761	0.721
6.12849	0.658
6.16936	0.316
6.21024	0.297
6.25111	0.6
6.29199	0.544
6.33287	0.488
6.37374	0.675
6.41462	0.753
6.45549	0.758
6.49637	0.731
6.53725	0.746
6.57812	0.77
6.619	0.678
6.65988	0.312
6.70075	0.537
6.74163	0.642
6.7825	0.67
6.82338	0.698
6.86426	0.517
6.90513	0.256
6.94601	0.629
6.98688	0.724
7.02776	0.756
7.06864	0.772
7.10951	0.778
7.15039	0.765
7.19126	0.743
7.23214	0.736
7.27302	0.768
7.31389	0.773
7.35477	0.768
7.39564	0.763
7.43652	0.731
7.4774	0.634
7.51827	0.525
7.55915	0.535
7.60003	0.585
7.6409	0.668
7.68178	0.683
7.72265	0.673
7.76353	0.676
7.80441	0.537
7.84528	0.602
7.88616	0.676
7.92703	0.69
7.96791	0.714
8.00879	0.707
8.04966	0.659
8.09054	0.573
8.13141	0.358
8.17229	0.122
8.21317	0.27
8.25404	0.508
8.29492	0.561
8.3358	0.544
8.37667	0.486
8.41755	0.428
8.45842	0.421
8.4993	0.421
8.54018	0.54
8.58105	0.603
8.62193	0.603
8.6628	0.602
8.70368	0.666
8.74456	0.697
8.78543	0.709
8.82631	0.717
8.86718	0.719
8.90806	0.719
8.94894	0.707
8.98981	0.7
9.03069	0.68
9.07156	0.666
9.11244	0.671
9.15332	0.68
9.19419	0.681
9.23507	0.666
9.27595	0.564
9.31682	0.442
9.3577	0.545
9.39857	0.639
9.43945	0.695
9.48033	0.714
9.5212	0.722
9.56208	0.717
9.60295	0.71
9.64383	0.697
9.68471	0.62
9.72558	0.518
9.76646	0.603
9.80733	0.642
9.84821	0.673
9.88909	0.676
9.92996	0.675
9.97084	0.624
10.0117	0.62
10.0526	0.678
10.0935	0.678
10.1343	0.641
10.1752	0.61
10.2161	0.622
10.257	0.651
10.2978	0.649
10.3387	0.622
10.3796	0.585
10.4205	0.566
10.4614	0.535
10.5022	0.474
10.5431	0.319
10.584	0.151
10.6249	0.059
10.6657	0.039
10.7066	0.03
10.7475	0.054
10.7884	0.2
10.8292	0.379
10.8701	0.45
10.911	0.545
10.9519	0.571
10.9927	0.574
11.0336	0.568
11.0745	0.602
11.1154	0.659
11.1562	0.688
11.1971	0.707
11.238	0.731
11.2789	0.739
11.3198	0.751
11.3606	0.751
11.4015	0.76
11.4424	0.763
11.4833	0.763
11.5241	0.758
11.565	0.755
11.6059	0.761
11.6468	0.763
11.6876	0.761
11.7285	0.761
11.7694	0.758
11.8103	0.743
11.8511	0.724
11.892	0.697
11.9329	0.646
11.9738	0.568
12.0146	0.545
12.0555	0.578
12.0964	0.579
12.1373	0.581
12.1781	0.612
12.219	0.659
12.2599	0.697
12.3008	0.712
12.3417	0.717
12.3825	0.719
12.4234	0.707
12.4643	0.692
12.5052	0.678
12.546	0.646
12.5869	0.625
12.6278	0.617
12.6687	0.619
12.7095	0.61
12.7504	0.602
12.7913	0.59
12.8322	0.554
12.873	0.494
12.9139	0.428
12.9548	0.382
12.9957	0.38
13.0365	0.401
13.0774	0.423
13.1183	0.448
13.1592	0.44
13.2001	0.416
13.2409	0.362
13.2818	0.294
13.3227	0.178
13.3636	0.105
13.4044	0.078
13.4453	0.052
13.4862	0.059
13.5271	0.051
13.5679	0.049
13.6088	0.045
13.6497	0.049
13.6906	0.047
13.7314	0.051
13.7723	0.049
13.8132	0.061
13.8541	0.076
13.8949	0.136
13.9358	0.202
13.9767	0.287
14.0176	0.37
14.0584	0.409
14.0993	0.43
14.1402	0.442
14.1811	0.44
14.222	0.414
14.2628	0.377
14.3037	0.335
14.3446	0.28
14.3855	0.241
14.4263	0.205
14.4672	0.168
14.5081	0.137
14.549	0.119
14.5898	0.117
14.6307	0.124
14.6716	0.164
14.7125	0.215
14.7533	0.287
14.7942	0.367
14.8351	0.403
14.876	0.471
14.9168	0.508
14.9577	0.556
14.9986	0.578
15.0395	0.598
15.0804	0.619
15.1212	0.639
15.1621	0.651
15.203	0.67
15.2439	0.683
15.2847	0.698
15.3256	0.709
15.3665	0.717
15.4074	0.719
15.4482	0.721
15.4891	0.721
15.53	0.715
15.5709	0.726
15.6117	0.727
15.6526	0.729
15.6935	0.729
15.7344	0.726
15.7752	0.727
15.8161	0.726
15.857	0.722
15.8979	0.722
15.9387	0.722
