Infrared Spectrum: 2H-3,1-Benzoxazine-2,4(1H)-dione, N-methyl-,
Formula: C9 H7 N O3
CAS: 10328-92-4
State: SOLID (NUJOL MULL)
Class: COBLENTZ III
Instrument: PERKIN-ELMER 21 (GRATING)
Instrument parameters: FILTER AT ABOUT 10 MICRONS
Resolution: 2
Origin: ABBOTT LABORATORIES
1/CM	TRANSMITTANCE
663	0.5483
672	0.6415
681	0.5829
690	0.6633
699	0.7341
708	0.7255
717	0.6963
726	0.7015
735	0.6473
744	0.5838
753	0.6839
762	0.4768
771	0.7315
780	0.7241
789	0.6942
798	0.7531
807	0.7524
816	0.7494
825	0.7464
834	0.7414
843	0.7393
852	0.7392
861	0.7309
870	0.6984
879	0.723
888	0.7154
897	0.7147
906	0.7025
915	0.6907
924	0.6806
933	0.6676
942	0.6529
951	0.6355
960	0.6078
969	0.5971
978	0.5694
987	0.5234
996	0.476
1005	0.3673
1014	0.1536
1023	0.2613
1032	0.5213
1041	0.7023
1050	0.7196
1059	0.6248
1068	0.6803
1077	0.712
1086	0.7
1095	0.6838
1104	0.6519
1113	0.5354
1122	0.6424
1131	0.5328
1140	0.4891
1149	0.6025
1158	0.6268
1167	0.6526
1176	0.6482
1185	0.6613
1194	0.6414
1203	0.6127
1212	0.5851
1221	0.5416
1230	0.3504
1239	0.4979
1248	0.3313
1257	0.6326
1266	0.6075
1275	0.5415
1284	0.4532
1293	0.4221
1302	0.2612
1311	0.3118
1320	0.4325
1329	0.4161
1338	0.459
1347	0.2423
1356	0.3081
1365	0.3927
1374	0.5446
1383	0.6118
1392	0.6103
1401	0.5923
1410	0.4827
1419	0.4624
1428	0.441
1437	0.3184
1446	0.2145
1455	0.1395
1464	0.1208
1473	0.2258
1482	0.368
1491	0.5683
1500	0.6903
1509	0.6829
1518	0.662
1527	0.6409
1536	0.618
1545	0.5945
1554	0.5684
1563	0.5122
1572	0.4419
1581	0.3918
1590	0.2957
1599	0.1761
1608	0.3507
1617	0.5676
1626	0.5745
1635	0.5578
1644	0.4919
1653	0.4268
1662	0.3623
1671	0.2986
1680	0.2355
1689	0.1731
1698	0.0951
1707	0.0783
1716	0.1041
1725	0.1935
1734	0.234
1743	0.2193
1752	0.141
1761	0.086
1770	0.1524
1779	0.3596
1788	0.4946
1797	0.6059
1806	0.6929
1815	0.7633
1824	0.8022
1833	0.8346
1842	0.8364
1851	0.828
1860	0.8273
1869	0.8374
1878	0.8413
1887	0.8378
1896	0.8327
1905	0.8306
1914	0.8295
1923	0.8276
1932	0.8206
1941	0.8129
1950	0.8065
1959	0.8006
1968	0.7981
1977	0.7982
1986	0.7992
1995	0.7983
2004	0.7959
2013	0.7897
2022	0.7826
2031	0.7821
2040	0.7805
2049	0.7779
2058	0.7752
2067	0.7727
2076	0.7704
2085	0.7703
2094	0.7693
2103	0.7668
2112	0.7583
2121	0.752
2130	0.7503
2139	0.7453
2148	0.7414
2157	0.7396
2166	0.738
2175	0.7367
2184	0.736
2193	0.7348
2202	0.7322
2211	0.7268
2220	0.7223
2229	0.7179
2238	0.7141
2247	0.7127
2256	0.7114
2265	0.7111
2274	0.711
2283	0.7109
2292	0.7107
2301	0.7097
2310	0.7085
2319	0.7074
2328	0.7053
2337	0.7031
2346	0.7009
2355	0.6987
2364	0.6965
2373	0.6944
2382	0.6923
2391	0.6902
2400	0.6882
2409	0.686
2418	0.6835
2427	0.681
2436	0.6785
2445	0.676
2454	0.6737
2463	0.6714
2472	0.6691
2481	0.6668
2490	0.6643
2499	0.6616
2508	0.6588
2517	0.6561
2526	0.6534
2535	0.6505
2544	0.6474
2553	0.6443
2562	0.6412
2571	0.6383
2580	0.6356
2589	0.633
2598	0.6305
2607	0.6283
2616	0.6263
2625	0.6244
2634	0.6214
2643	0.6177
2652	0.616
2661	0.6154
2670	0.6152
2679	0.615
2688	0.6148
2697	0.6148
2706	0.6148
2715	0.6149
2724	0.6147
2733	0.614
2742	0.6119
2751	0.6063
2760	0.5972
2769	0.5852
2778	0.5724
2787	0.5582
2796	0.5361
2805	0.4957
2814	0.4284
2823	0.3225
2832	0.2171
2841	0.1345
2850	0.1322
2859	0.1302
2868	0.1132
2877	0.0862
2886	0.0593
2895	0.0367
2904	0.0371
2913	0.0509
2922	0.0792
2931	0.0941
2940	0.1137
2949	0.1889
2958	0.2697
2967	0.3505
2976	0.393
2985	0.4161
2994	0.4876
3003	0.4959
3012	0.4991
3021	0.5014
3030	0.5027
3039	0.5038
3048	0.5049
3057	0.5055
3066	0.5058
3075	0.5069
3084	0.5099
3093	0.5146
3102	0.5217
3111	0.523
3120	0.5235
3129	0.5239
3138	0.5241
3147	0.5242
3156	0.5242
3165	0.5239
3174	0.5238
3183	0.5235
3192	0.5232
3201	0.523
3210	0.5226
3219	0.5222
3228	0.5212
3237	0.5202
3246	0.5191
3255	0.5182
3264	0.5172
3273	0.5156
3282	0.514
3291	0.5124
3300	0.5108
3309	0.5093
3318	0.508
3327	0.5067
3336	0.5054
3345	0.5042
3354	0.5028
3363	0.5015
3372	0.5002
3381	0.4989
3390	0.4982
3399	0.4977
3408	0.4971
3417	0.4965
3426	0.4961
3435	0.496
3444	0.4958
3453	0.4957
3462	0.4957
3471	0.4959
3480	0.4961
3489	0.4963
3498	0.4965
3507	0.4968
3516	0.4967
3525	0.4966
3534	0.4964
3543	0.4962
3552	0.496
3561	0.496
3570	0.4956
3579	0.4952
3588	0.4948
3597	0.4944
3606	0.494
3615	0.4933
3624	0.4925
3633	0.4916
3642	0.4908
3651	0.4899
3660	0.4891
3669	0.4882
3678	0.4874
3687	0.4865
3696	0.4856
3705	0.4847
3714	0.4837
3723	0.4824
3732	0.4811
3741	0.4798
3750	0.4785
3759	0.4772
3768	0.4759
3777	0.4747
3786	0.4734
3795	0.4721
3804	0.4707
3813	0.4695
3822	0.4681
3831	0.4673
3840	0.4665
3849	0.4657
3858	0.4649
3867	0.464
3876	0.4632
3885	0.4625
3894	0.4617
3903	0.4609
3912	0.4601
3921	0.4592
3930	0.4585
3939	0.4577
3948	0.457
3957	0.4561
3966	0.4554
3975	0.4546
3984	0.4539
3993	0.4531
