Infrared Spectrum: 5H-DIBENZO[a,d]-1-CYCLOHEPTEN-5-OL
Formula: C15 H12 O
CAS: 10354-00-4
State: SOLID (SPLIT MULL), FLUOROLUBE FOR 3800-1330 CM^-^1, NUJOL FOR 1330-400 CM^-^1, VS SCREEN
Melting point: 121 C
Class: COBLENTZ III
Instrument: DOW KBr FOREPRISM-GRATING
Instrument parameters: BLAZED AT 3.5, 12.0, 20.0 MICRON AND CHANGED AT 5.0, 7.5, 14.9 MICRON
Sampling: TRANSMISSION
Resolution: 2
Origin: DOW CHEMICAL COMPANY
1/CM	TRANSMITTANCE
384	0.6619
393	0.6718
402	0.6847
411	0.7018
420	0.7253
429	0.7414
438	0.741
447	0.6768
456	0.7893
465	0.7528
474	0.7603
483	0.5723
492	0.7964
501	0.7695
510	0.8548
519	0.8565
528	0.8467
537	0.8381
546	0.8275
555	0.8145
564	0.7915
573	0.856
582	0.8545
591	0.8568
600	0.8723
609	0.8445
618	0.8524
627	0.8743
636	0.8589
645	0.7081
654	0.7264
663	0.7782
672	0.83
681	0.8656
690	0.8789
699	0.8652
708	0.6857
717	0.7876
726	0.7425
735	0.2929
744	0.704
753	0.8271
762	0.8108
771	0.3532
780	0.8243
789	0.7481
798	0.1349
807	0.8035
816	0.8567
825	0.7591
834	0.7483
843	0.865
852	0.8642
861	0.86
870	0.8274
879	0.8496
888	0.7294
897	0.8348
906	0.8407
915	0.8385
924	0.8361
933	0.8308
942	0.776
951	0.8039
960	0.7695
969	0.8043
978	0.8051
987	0.8045
996	0.8036
1005	0.7875
1014	0.7448
1023	0.593
1032	0.2069
1041	0.591
1050	0.7567
1059	0.7705
1068	0.7765
1077	0.7925
1086	0.7888
1095	0.7765
1104	0.7376
1113	0.7528
1122	0.7743
1131	0.773
1140	0.7585
1149	0.714
1158	0.6776
1167	0.7007
1176	0.6674
1185	0.5895
1194	0.4078
1203	0.5792
1212	0.6172
1221	0.7033
1230	0.6801
1239	0.5868
1248	0.6661
1257	0.734
1266	0.7104
1275	0.7265
1284	0.7315
1293	0.7232
1302	0.6254
1311	0.6192
1320	0.6291
1329	0.7
1338	0.7705
1347	0.7834
1356	0.8248
1365	0.8287
1374	0.8267
1383	0.8235
1392	0.8158
1401	0.8006
1410	0.796
1419	0.8068
1428	0.8078
1437	0.7658
1446	0.8209
1455	0.8305
1464	0.8378
1473	0.8247
1482	0.7448
1491	0.8681
1500	0.8675
1509	0.8651
1518	0.8627
1527	0.8595
1536	0.8563
1545	0.8544
1554	0.8467
1563	0.8441
1572	0.8502
1581	0.8459
1590	0.839
1599	0.8334
1608	0.8312
1617	0.8303
1626	0.8298
1635	0.83
1644	0.8306
1653	0.8296
1662	0.8251
1671	0.8204
1680	0.8167
1689	0.8137
1698	0.8111
1707	0.8089
1716	0.8069
1725	0.8054
1734	0.8053
1743	0.805
1752	0.8041
1761	0.8033
1770	0.8028
1779	0.803
1788	0.8033
1797	0.8014
1806	0.8018
1815	0.8044
1824	0.8004
1833	0.798
1842	0.796
1851	0.7941
1860	0.7924
1869	0.7917
1878	0.7908
1887	0.7893
1896	0.7871
1905	0.7855
1914	0.7851
1923	0.785
1932	0.7849
1941	0.7842
1950	0.7835
1959	0.7834
1968	0.783
1977	0.7821
1986	0.7808
1995	0.7795
2004	0.778
2013	0.7771
2022	0.7761
2031	0.7741
2040	0.7721
2049	0.7703
2058	0.7686
2067	0.7667
2076	0.7649
2085	0.7626
2094	0.7604
2103	0.758
2112	0.7557
2121	0.7534
2130	0.7512
2139	0.7491
2148	0.7471
2157	0.7449
2166	0.7426
2175	0.7404
2184	0.7381
2193	0.7356
2202	0.733
2211	0.7303
2220	0.7276
2229	0.7246
2238	0.7214
2247	0.7178
2256	0.7141
2265	0.7101
2274	0.7069
2283	0.7041
2292	0.7011
2301	0.6994
2310	0.6984
2319	0.6975
2328	0.6965
2337	0.696
2346	0.6958
2355	0.6955
2364	0.6956
2373	0.6958
2382	0.6964
2391	0.6962
2400	0.6953
2409	0.6941
2418	0.6921
2427	0.6903
2436	0.6889
2445	0.6874
2454	0.686
2463	0.6846
2472	0.6833
2481	0.6819
2490	0.6807
2499	0.6792
2508	0.6778
2517	0.6764
2526	0.6751
2535	0.6737
2544	0.6721
2553	0.6706
2562	0.6691
2571	0.6675
2580	0.6658
2589	0.6639
2598	0.6619
2607	0.6601
2616	0.6582
2625	0.6561
2634	0.6542
2643	0.6522
2652	0.6503
2661	0.6483
2670	0.6464
2679	0.6443
2688	0.6418
2697	0.6394
2706	0.6369
2715	0.6345
2724	0.632
2733	0.6299
2742	0.6281
2751	0.6265
2760	0.6249
2769	0.6233
2778	0.6219
2787	0.6204
2796	0.6178
2805	0.6145
2814	0.6108
2823	0.607
2832	0.6015
2841	0.5925
2850	0.5893
2859	0.5904
2868	0.5935
2877	0.5942
2886	0.5923
2895	0.5895
2904	0.586
2913	0.5828
2922	0.5808
2931	0.5803
2940	0.5795
2949	0.5788
2958	0.5785
2967	0.5786
2976	0.5786
2985	0.5752
2994	0.5703
3003	0.5615
3012	0.5512
3021	0.5544
3030	0.5642
3039	0.5658
3048	0.5635
3057	0.5616
3066	0.5631
3075	0.5729
3084	0.571
3093	0.5679
3102	0.5645
3111	0.5623
3120	0.5596
3129	0.5575
3138	0.5564
3147	0.5553
3156	0.5526
3165	0.5492
3174	0.5457
3183	0.542
3192	0.5383
3201	0.5347
3210	0.531
3219	0.5272
3228	0.5234
3237	0.5195
3246	0.515
3255	0.5104
3264	0.5049
3273	0.4989
3282	0.493
3291	0.4876
3300	0.4822
3309	0.4767
3318	0.4709
3327	0.465
3336	0.4591
3345	0.453
3354	0.4468
3363	0.4427
3372	0.4392
3381	0.4382
3390	0.4384
3399	0.4396
3408	0.4429
3417	0.4482
3426	0.4579
3435	0.4735
3444	0.4946
3453	0.5145
3462	0.5315
3471	0.5421
3480	0.5462
3489	0.5482
3498	0.5493
3507	0.5491
3516	0.5488
3525	0.5483
3534	0.5476
3543	0.5466
3552	0.5455
3561	0.5438
3570	0.5421
3579	0.5402
3588	0.5382
3597	0.5366
3606	0.5352
3615	0.5338
3624	0.5323
3633	0.5308
3642	0.5293
3651	0.528
3660	0.527
3669	0.5259
3678	0.5249
3687	0.5238
3696	0.5227
3705	0.5216
3714	0.5205
3723	0.5194
3732	0.5183
3741	0.5169
3750	0.5156
3759	0.5143
3768	0.5131
3777	0.512
3786	0.5106
3795	0.509
