Infrared Spectrum: BENZENE, 1-CHLORO-2,5-BIS(TRICHLOROMETHYL)-
Formula: C8 H3 Cl7
CAS: 10388-10-0
State: SOLUTION (10% IN CCl4 FOR 3800-1340 AND 10% IN CS2 FOR 1340-450 CM^-^1)
Class: COBLENTZ III
Instrument: DOW KBr FOREPRISM-GRATING
Instrument parameters: BLAZED AT 3.5, 12.0, 20.0 MICRON, CHANGED AT 5.0, 7.5, 14.9 MICRON
Sampling: TRANSMISSION
Path length: 0.011, 0.011 CM
Resolution: 4
Origin: DOW CHEMICAL COMPANY
1/CM	TRANSMITTANCE
450.435	0.849
459.131	0.847
467.826	0.798
476.522	0.644
485.218	0.917
493.913	0.945
502.609	0.961
511.305	0.963
520	0.964
528.696	0.972
537.392	0.979
546.087	0.985
554.783	0.987
563.479	0.994
572.174	0.994
580.87	0.983
589.566	0.813
598.261	0.986
606.957	0.994
615.653	0.995
624.348	0.99
633.044	0.98
641.74	0.955
650.435	0.942
659.131	0.938
667.827	0.961
676.522	0.936
685.218	0.889
693.914	0.72
702.609	0.686
711.305	0.654
720.001	0.796
728.696	0.785
737.392	0.478
746.088	0.02
754.783	0.01
763.479	0.504
772.175	0.525
780.87	0.464
789.566	0.055
798.262	0.385
806.957	0.707
815.653	0.664
824.349	0.701
833.044	0.683
841.74	0.467
850.436	0.228
859.131	0.633
867.827	0.741
876.523	0.838
885.218	0.851
893.914	0.917
902.61	0.956
911.305	0.97
920.001	0.968
928.697	0.952
937.393	0.904
946.088	0.961
954.784	0.963
963.48	0.975
972.175	0.972
980.871	0.979
989.567	0.979
998.262	0.974
1006.96	0.97
1015.65	0.972
1024.35	0.967
1033.04	0.966
1041.74	0.963
1050.44	0.934
1059.13	0.425
1067.83	0.948
1076.52	0.967
1085.22	0.975
1093.91	0.979
1102.61	0.98
1111.31	0.983
1120	0.985
1128.7	0.979
1137.39	0.968
1146.09	0.921
1154.78	0.925
1163.48	0.869
1172.18	0.835
1180.87	0.854
1189.57	0.764
1198.26	0.1541
1206.96	0.892
1215.65	0.956
1224.35	0.959
1233.05	0.976
1241.74	0.964
1250.44	0.948
1259.13	0.951
1267.83	0.934
1276.52	0.807
1285.22	0.866
1293.91	0.927
1302.61	0.963
1311.31	0.963
1320	0.963
1328.7	0.953
1337.39	0.929
1346.09	0.914
1354.78	0.936
1363.48	0.813
1372.18	0.834
1380.87	0.677
1389.57	0.2363
1398.26	0.847
1406.96	0.895
1415.65	0.918
1424.35	0.945
1433.05	0.949
1441.74	0.945
1450.44	0.933
1459.13	0.894
1467.83	0.69
1476.52	0.783
1485.22	0.8
1493.92	0.815
1502.61	0.815
1511.31	0.759
1520	0.711
1528.7	0.661
1537.39	0.576
1546.09	0.445
1554.79	0.436
1563.48	0.46
1572.18	0.618
1580.87	0.635
1589.57	0.652
1598.26	0.663
1606.96	0.804
1615.65	0.887
1624.35	0.934
1633.05	0.944
1641.74	0.952
1650.44	0.957
1659.13	0.957
1667.83	0.953
1676.52	0.949
1685.22	0.953
1693.92	0.959
1702.61	0.957
1711.31	0.964
1720	0.967
1728.7	0.96
1737.39	0.963
1746.09	0.961
1754.79	0.96
1763.48	0.956
1772.18	0.945
1780.87	0.923
1789.57	0.932
1798.26	0.938
1806.96	0.956
1815.66	0.957
1824.35	0.957
1833.05	0.956
1841.74	0.952
1850.44	0.949
1859.13	0.956
1867.83	0.956
1876.52	0.952
1885.22	0.956
1893.92	0.955
1902.61	0.947
1911.31	0.911
1920	0.956
1928.7	0.959
1937.39	0.959
1946.09	0.959
1954.79	0.959
1963.48	0.957
1972.18	0.957
1980.87	0.96
1989.57	0.956
1998.26	0.949
2006.96	0.957
2015.66	0.968
2024.35	0.967
2033.05	0.9699
2041.74	0.9631
2050.44	0.9639
2059.13	0.971
2067.83	0.972
2076.53	0.972
2085.22	0.9789
2093.92	0.9741
2102.61	0.9759
2111.31	0.979
2120	0.9781
2128.7	0.975
2137.39	0.9671
2146.09	0.97
2154.79	0.975
2163.48	0.976
2172.18	0.979
2180.87	0.979
2189.57	0.975
2198.26	0.975
2206.96	0.975
2215.66	0.976
2224.35	0.976
2233.05	0.976
2241.74	0.975
2250.44	0.968
2259.13	0.966
2267.83	0.964
2276.53	0.96
2285.22	0.956
2293.92	0.956
2302.61	0.955
2311.31	0.956
2320	0.96
2328.7	0.966
2337.4	0.9668
2346.09	0.9718
2354.79	0.966
2363.48	0.972
2372.18	0.9684
2380.87	0.966
2389.57	0.961
2398.27	0.9718
2406.96	0.9782
2415.66	0.9785
2424.35	0.9792
2433.05	0.983
2441.74	0.973
2450.44	0.9775
2459.13	0.98
2467.83	0.9815
2476.53	0.9827
2485.22	0.982
2493.92	0.983
2502.61	0.98
2511.31	0.982
2520	0.982
2528.7	0.979
2537.4	0.978
2546.09	0.976
2554.79	0.978
2563.48	0.98
2572.18	0.98
2580.87	0.98
2589.57	0.98
2598.27	0.982
2606.96	0.9823
2615.66	0.979
2624.35	0.979
2633.05	0.98
2641.74	0.98
2650.44	0.9767
2659.14	0.971
2667.83	0.972
2676.53	0.9772
2685.22	0.979
2693.92	0.98
2702.61	0.9824
2711.31	0.983
2720	0.9794
2728.7	0.979
2737.4	0.979
2746.09	0.98
2754.79	0.98
2763.48	0.979
2772.18	0.979
2780.87	0.976
2789.57	0.9689
2798.27	0.9711
2806.96	0.975
2815.66	0.9771
2824.35	0.98
2833.05	0.979
2841.74	0.9755
2850.44	0.9745
2859.14	0.978
2867.83	0.978
2876.53	0.978
2885.22	0.974
2893.92	0.9785
2902.61	0.98
2911.31	0.979
2920.01	0.9705
2928.7	0.9715
2937.4	0.9731
2946.09	0.9724
2954.79	0.979
2963.48	0.9766
2972.18	0.9635
2980.87	0.975
2989.57	0.98
2998.27	0.98
3006.96	0.983
3015.66	0.9842
3024.35	0.9732
3033.05	0.9706
3041.74	0.9593
3050.44	0.9514
3059.14	0.9674
3067.83	0.972
3076.53	0.9652
3085.22	0.9482
3093.92	0.9525
3102.61	0.963
3111.31	0.9402
3120.01	0.9343
3128.7	0.9615
3137.4	0.9767
3146.09	0.975
3154.79	0.9771
3163.48	0.979
3172.18	0.98
3180.88	0.983
3189.57	0.982
3198.27	0.985
3206.96	0.979
3215.66	0.986
3224.35	0.989
3233.05	0.987
3241.74	0.987
3250.44	0.9884
3259.14	0.9857
3267.83	0.986
3276.53	0.9827
3285.22	0.9853
3293.92	0.9893
3302.61	0.9897
3311.31	0.987
3320.01	0.987
3328.7	0.989
3337.4	0.9995
3346.09	0.9908
3354.79	0.989
3363.48	0.9853
3372.18	0.9827
3380.88	0.989
3389.57	0.986
3398.27	0.9914
3406.96	0.985
3415.66	0.982
3424.35	0.9844
3433.05	0.974
3441.75	0.987
3450.44	0.986
3459.14	0.979
3467.83	0.985
3476.53	0.9817
3485.22	0.9763
3493.92	0.9825
3502.62	0.986
3511.31	0.986
3520.01	0.983
3528.7	0.9851
3537.4	0.99
3546.09	0.99
3554.79	0.987
3563.48	0.989
3572.18	0.9869
3580.88	0.9901
3589.57	0.9869
3598.27	0.9872
3606.96	0.99
3615.66	0.9848
3624.35	0.985
3633.05	0.9872
3641.75	0.9901
3650.44	0.9898
3659.14	0.9822
3667.83	0.991
3676.53	0.989
3685.22	0.983
3693.92	0.9891
3702.62	0.9911
3711.31	0.994
3720.01	0.9969
3728.7	0.994
3737.4	0.997
3746.09	0.998
3754.79	0.997
3763.49	0.994
3772.18	0.991
3780.88	0.995
3789.57	0.994
