Infrared Spectrum: p-TOLUNITRILE
Formula: C8 H7 N
CAS: 104-85-8
State: SOLUTION (10% IN CCl4 FOR 3800-1330 CM^-^1, 10% IN CS2 FOR 1330-450 CM^-^1)
Melting point: 26 C
Class: COBLENTZ III
Instrument: DOW KBr FOREPRISM-GRATING
Instrument parameters: GRATING BLAZED AT 3.5, 12.0, 20.0 MICRONS AND CHANGED AT 5.0, 7.5, 14.9 MICRONS
Sampling: TRANSMISSION
Path length: 0.011 CM, 0.011 CM
Resolution: 4
Origin: DOW CHEMICAL COMPANY
1/CM	TRANSMITTANCE
456.233	0.832
465.019	0.845
473.806	0.863
482.592	0.869
491.379	0.869
500.165	0.863
508.951	0.849
517.738	0.886
526.524	0.881
535.311	0.845
544.097	0.276
552.883	0.452
561.67	0.829
570.456	0.897
579.243	0.926
588.029	0.939
596.816	0.946
605.602	0.95
614.388	0.954
623.175	0.954
631.961	0.947
640.748	0.932
649.534	0.887
658.32	0.849
667.107	0.911
675.893	0.889
684.68	0.926
693.466	0.922
702.252	0.9
711.039	0.781
719.825	0.926
728.612	0.94
737.398	0.948
746.184	0.954
754.971	0.948
763.757	0.934
772.544	0.948
781.33	0.934
790.117	0.892
798.903	0.834
807.689	0.666
816.476	0
825.262	0.4461
834.049	0.756
842.835	0.771
851.621	0.769
860.408	0.76
869.194	0.795
877.981	0.838
886.767	0.889
895.553	0.925
904.34	0.946
913.126	0.948
921.913	0.952
930.699	0.943
939.485	0.932
948.272	0.811
957.058	0.911
965.845	0.912
974.631	0.922
983.417	0.919
992.204	0.926
1000.99	0.93
1009.78	0.932
1018.56	0.893
1027.35	0.832
1036.14	0.767
1044.92	0.739
1053.71	0.856
1062.5	0.896
1071.28	0.917
1080.07	0.926
1088.85	0.932
1097.64	0.903
1106.43	0.871
1115.21	0.879
1124	0.836
1132.79	0.939
1141.57	0.936
1150.36	0.925
1159.15	0.872
1167.93	0.864
1176.72	0.5427
1185.5	0.871
1194.29	0.896
1203.08	0.887
1211.86	0.93
1220.65	0.946
1229.44	0.954
1238.22	0.946
1247.01	0.947
1255.8	0.915
1264.58	0.872
1273.37	0.863
1282.16	0.876
1290.94	0.782
1299.73	0.904
1308.51	0.907
1317.3	0.904
1326.09	0.908
1334.87	0.911
1343.66	0.905
1352.45	0.896
1361.23	0.893
1370.02	0.876
1378.81	0.816
1387.59	0.774
1396.38	0.842
1405.17	0.795
1413.95	0.699
1422.74	0.745
1431.52	0.726
1440.31	0.673
1449.1	0.619
1457.88	0.64
1466.67	0.705
1475.46	0.745
1484.24	0.756
1493.03	0.698
1501.82	0.626
1510.6	0.1638
1519.39	0.511
1528.17	0.591
1536.96	0.558
1545.75	0.482
1554.53	0.475
1563.32	0.535
1572.11	0.58
1580.89	0.607
1589.68	0.616
1598.47	0.6049
1607.25	0.3369
1616.04	0.3801
1624.83	0.694
1633.61	0.756
1642.4	0.827
1651.18	0.802
1659.97	0.842
1668.76	0.89
1677.54	0.904
1686.33	0.912
1695.12	0.912
1703.9	0.918
1712.69	0.917
1721.48	0.914
1730.26	0.912
1739.05	0.911
1747.84	0.911
1756.62	0.907
1765.41	0.885
1774.19	0.91
1782.98	0.907
1791.77	0.894
1800.55	0.849
1809.34	0.893
1818.13	0.911
1826.91	0.918
1835.7	0.917
1844.49	0.918
1853.27	0.91
1862.06	0.908
1870.84	0.911
1879.63	0.912
1888.42	0.91
1897.2	0.896
1905.99	0.843
1914.78	0.784
1923.56	0.889
1932.35	0.912
1941.14	0.918
1949.92	0.926
1958.71	0.926
1967.5	0.922
1976.28	0.93
1985.07	0.929
1993.85	0.918
2002.64	0.934
2011.43	0.941
2020.21	0.9465
2029	0.9465
2037.79	0.946
2046.57	0.946
2055.36	0.947
2064.15	0.9504
2072.93	0.948
2081.72	0.948
2090.5	0.9508
2099.29	0.9528
2108.08	0.954
2116.86	0.954
2125.65	0.954
2134.44	0.955
2143.22	0.954
2152.01	0.9546
2160.8	0.9533
2169.58	0.952
2178.37	0.9343
2187.16	0.9333
2195.94	0.9424
2204.73	0.9131
2213.51	0.9071
2222.3	0.8083
2231.09	0.2253
2239.87	0.2687
2248.66	0.7548
2257.45	0.9135
2266.23	0.9227
2275.02	0.919
2283.81	0.919
2292.59	0.9213
2301.38	0.89
2310.17	0.9218
2318.95	0.9304
2327.74	0.9374
2336.52	0.9402
2345.31	0.9387
2354.1	0.9338
2362.88	0.943
2371.67	0.943
2380.46	0.943
2389.24	0.9369
2398.03	0.9434
2406.82	0.95
2415.6	0.948
2424.39	0.9369
2433.17	0.9434
2441.96	0.955
2450.75	0.9541
2459.53	0.9589
2468.32	0.958
2477.11	0.958
2485.89	0.9591
2494.68	0.959
2503.47	0.959
2512.25	0.958
2521.04	0.957
2529.83	0.951
2538.61	0.957
2547.4	0.957
2556.18	0.952
2564.97	0.948
2573.76	0.9411
2582.54	0.936
2591.33	0.9409
2600.12	0.9519
2608.9	0.9609
2617.69	0.9592
2626.48	0.954
2635.26	0.9443
2644.05	0.9439
2652.84	0.9588
2661.62	0.959
2670.41	0.961
2679.19	0.961
2687.98	0.961
2696.77	0.955
2705.55	0.954
2714.34	0.954
2723.13	0.952
2731.91	0.9353
2740.7	0.93
2749.49	0.9502
2758.27	0.954
2767.06	0.952
2775.84	0.937
2784.63	0.9463
2793.42	0.948
2802.2	0.9463
2810.99	0.938
2819.78	0.9327
2828.56	0.936
2837.35	0.93
2846.14	0.9086
2854.92	0.8555
2863.71	0.7987
2872.5	0.7987
2881.28	0.8281
2890.07	0.839
2898.85	0.8327
2907.64	0.813
2916.43	0.7585
2925.21	0.6181
2934	0.6762
2942.79	0.746
2951.57	0.7344
2960.36	0.7428
2969.15	0.7624
2977.93	0.7624
2986.72	0.757
2995.5	0.757
3004.29	0.7704
3013.08	0.7946
3021.86	0.807
3030.65	0.7802
3039.44	0.6614
3048.22	0.7332
3057.01	0.7881
3065.8	0.812
3074.58	0.8394
3083.37	0.864
3092.16	0.851
3100.94	0.8949
3109.73	0.9271
3118.51	0.9197
3127.3	0.9193
3136.09	0.9353
3144.87	0.9449
3153.66	0.9514
3162.45	0.955
3171.23	0.9574
3180.02	0.958
3188.81	0.959
3197.59	0.959
3206.38	0.958
3215.17	0.9563
3223.95	0.9574
3232.74	0.962
3241.52	0.9643
3250.31	0.9683
3259.1	0.972
3267.88	0.973
3276.67	0.975
3285.46	0.975
3294.24	0.9753
3303.03	0.976
3311.82	0.976
3320.6	0.976
3329.39	0.975
3338.17	0.9745
3346.96	0.972
3355.75	0.9688
3364.53	0.9658
3373.32	0.9606
3382.11	0.957
3390.89	0.9578
3399.68	0.9419
3408.47	0.9315
3417.25	0.9517
3426.04	0.9483
3434.83	0.9663
3443.61	0.964
3452.4	0.964
3461.18	0.962
3469.97	0.962
3478.76	0.9662
3487.54	0.975
3496.33	0.975
3505.12	0.9729
3513.9	0.9732
3522.69	0.975
3531.48	0.9699
3540.26	0.966
3549.05	0.968
3557.84	0.972
3566.62	0.9749
3575.41	0.9579
3584.19	0.977
3592.98	0.977
3601.77	0.976
3610.55	0.979
3619.34	0.982
3628.13	0.9789
3636.91	0.984
3645.7	0.98
3654.49	0.979
3663.27	0.9791
3672.06	0.9623
3680.84	0.9589
3689.63	0.9687
3698.42	0.9769
3707.2	0.977
3715.99	0.984
3724.78	0.9761
3733.56	0.9857
3742.35	0.988
3751.14	0.9897
3759.92	0.9909
3768.71	0.991
3777.5	0.993
3786.28	0.993
3795.07	0.993
