Infrared Spectrum: 2-PROPENALDEHYDE, 3-PHENYL-
Formula: C9 H8 O
CAS: 104-55-2
State: LIQUID (NEAT)
Class: COBLENTZ III
Instrument: PERKIN-ELMER 521 (GRATING)
Instrument parameters: FILTERS AT 3150, 2500, 2000, 1150, 700, 410 AND GRATING CHANGES AT 2000, 630 CM^-^1
Sampling: TRANSMISSION
Path length: SMEAR
Resolution: 4
Origin: STANDARD OIL OF OHIO
1/CM	TRANSMITTANCE
646.547	0.717
654.902	0.728
663.256	0.729
671.611	0.718
679.966	0.7041
688.32	0.4142
696.675	0.445
705.03	0.7288
713.384	0.804
721.739	0.815
730.094	0.821
738.449	0.7581
746.803	0.4233
755.158	0.242
763.513	0.5647
771.867	0.8169
780.222	0.88
788.577	0.898
796.931	0.909
805.286	0.912
813.641	0.912
821.995	0.912
830.35	0.898
838.705	0.885
847.059	0.868
855.414	0.883
863.769	0.915
872.124	0.922
880.478	0.924
888.833	0.927
897.188	0.923
905.542	0.915
913.897	0.909
922.252	0.895
930.606	0.899
938.961	0.896
947.316	0.891
955.67	0.865
964.025	0.7861
972.38	0.4182
980.734	0.376
989.089	0.6448
997.444	0.776
1005.8	0.694
1014.15	0.7039
1022.51	0.8249
1030.86	0.841
1039.22	0.891
1047.57	0.896
1055.93	0.891
1064.28	0.866
1072.64	0.7532
1080.99	0.851
1089.35	0.842
1097.7	0.79
1106.05	0.702
1114.41	0.4911
1122.76	0.0812
1131.12	0.1579
1139.47	0.5329
1147.83	0.736
1156.18	0.752
1164.54	0.7779
1172.89	0.827
1181.25	0.8219
1189.6	0.86
1197.96	0.855
1206.31	0.8499
1214.67	0.899
1223.02	0.899
1231.38	0.87
1239.73	0.819
1248.08	0.761
1256.44	0.824
1264.79	0.904
1273.15	0.904
1281.5	0.886
1289.86	0.7332
1298.21	0.7719
1306.57	0.786
1314.92	0.851
1323.28	0.824
1331.63	0.854
1339.99	0.912
1348.34	0.919
1356.7	0.918
1365.05	0.915
1373.4	0.9
1381.76	0.871
1390.11	0.871
1398.47	0.905
1406.82	0.915
1415.18	0.915
1423.53	0.908
1431.89	0.937
1440.24	0.909
1448.6	0.791
1456.95	0.6732
1465.31	0.918
1473.66	0.922
1482.02	0.907
1490.37	0.837
1498.73	0.825
1507.08	0.924
1515.43	0.938
1523.79	0.937
1532.14	0.935
1540.5	0.928
1548.85	0.927
1557.21	0.914
1565.56	0.89
1573.92	0.8171
1582.27	0.717
1590.63	0.841
1598.98	0.7111
1607.34	0.629
1615.69	0.672
1624.05	0.4491
1632.4	0.169
1640.75	0.68
1649.11	0.703
1657.46	0.6152
1665.82	0.433
1674.17	0.051
1682.53	0.026
1690.88	0.095
1699.24	0.314
1707.59	0.58
1715.95	0.697
1724.3	0.781
1732.66	0.776
1741.01	0.86
1749.37	0.915
1757.72	0.923
1766.08	0.93
1774.43	0.94
1782.78	0.944
1791.14	0.945
1799.49	0.943
1807.85	0.938
1816.2	0.935
1824.56	0.947
1832.91	0.954
1841.27	0.963
1849.62	0.966
1857.98	0.968
1866.33	0.967
1874.69	0.966
1883.04	0.961
1891.4	0.954
1899.75	0.958
1908.1	0.962
1916.46	0.964
1924.81	0.967
1933.17	0.967
1941.52	0.959
1949.88	0.951
1958.23	0.942
1966.59	0.935
1974.94	0.935
1983.3	0.94
1991.65	0.951
2000.01	0.966
2008.36	0.971
2016.72	0.977
2025.07	0.979
2033.42	0.982
2041.78	0.983
2050.13	0.984
2058.49	0.984
2066.84	0.984
2075.2	0.983
2083.55	0.983
2091.91	0.983
2100.26	0.983
2108.62	0.984
2116.97	0.986
2125.33	0.986
2133.68	0.986
2142.04	0.986
2150.39	0.984
2158.75	0.984
2167.1	0.983
2175.45	0.982
2183.81	0.9811
2192.16	0.981
2200.52	0.9792
2208.87	0.979
2217.23	0.9742
2225.58	0.9711
2233.94	0.9584
2242.29	0.9453
2250.65	0.9439
2259	0.9606
2267.36	0.9689
2275.71	0.979
2284.07	0.979
2292.42	0.979
2300.77	0.981
2309.13	0.979
2317.48	0.979
2325.84	0.979
2334.19	0.979
2342.55	0.981
2350.9	0.981
2359.26	0.981
2367.61	0.981
2375.97	0.981
2384.32	0.981
2392.68	0.981
2401.03	0.981
2409.39	0.979
2417.74	0.978
2426.1	0.978
2434.45	0.979
2442.8	0.979
2451.16	0.979
2459.51	0.979
2467.87	0.979
2476.22	0.9783
2484.58	0.978
2492.93	0.978
2501.29	0.9773
2509.64	0.973
2518	0.973
2526.35	0.973
2534.71	0.973
2543.06	0.973
2551.42	0.973
2559.77	0.9713
2568.12	0.9696
2576.48	0.969
2584.83	0.968
2593.19	0.968
2601.54	0.968
2609.9	0.9663
2618.25	0.964
2626.61	0.959
2634.96	0.957
2643.32	0.954
2651.67	0.953
2660.03	0.952
2668.38	0.949
2676.74	0.9457
2685.09	0.9374
2693.45	0.9127
2701.8	0.8858
2710.15	0.8675
2718.51	0.8414
2726.86	0.8364
2735.22	0.8308
2743.57	0.7869
2751.93	0.7656
2760.28	0.8062
2768.64	0.8782
2776.99	0.9146
2785.35	0.914
2793.7	0.8968
2802.06	0.8539
2810.41	0.7867
2818.77	0.7274
2827.12	0.7307
2835.47	0.772
2843.83	0.8238
2852.18	0.8522
2860.54	0.8832
2868.89	0.9131
2877.25	0.9285
2885.6	0.933
2893.96	0.934
2902.31	0.9335
2910.67	0.9295
2919.02	0.928
2927.38	0.929
2935.73	0.9325
2944.09	0.935
2952.44	0.9345
2960.8	0.934
2969.15	0.9285
2977.5	0.9245
2985.86	0.9105
2994.21	0.8845
3002.57	0.8795
3010.92	0.8849
3019.28	0.8855
3027.63	0.8587
3035.99	0.8032
3044.34	0.8299
3052.7	0.8245
3061.05	0.8161
3069.41	0.7916
3077.76	0.8338
3086.12	0.8619
3094.47	0.8726
3102.82	0.9153
3111.18	0.922
3119.53	0.9324
3127.89	0.94
3136.24	0.943
3144.6	0.945
3152.95	0.947
3161.31	0.947
3169.66	0.948
3178.02	0.948
3186.37	0.948
3194.73	0.948
3203.08	0.9486
3211.44	0.948
3219.79	0.948
3228.15	0.948
3236.5	0.948
3244.85	0.948
3253.21	0.9487
3261.56	0.947
3269.92	0.947
3278.27	0.947
3286.63	0.944
3294.98	0.94
3303.34	0.9377
3311.69	0.9364
3320.05	0.934
3328.4	0.9227
3336.76	0.915
3345.11	0.9173
3353.47	0.9299
3361.82	0.9393
3370.17	0.945
3378.53	0.947
3386.88	0.947
3395.24	0.947
3403.59	0.945
3411.95	0.944
3420.3	0.942
3428.66	0.942
3437.01	0.94
3445.37	0.94
3453.72	0.9365
3462.08	0.934
3470.43	0.933
3478.79	0.93
3487.14	0.93
3495.5	0.929
3503.85	0.9282
3512.2	0.929
3520.56	0.93
3528.91	0.93
3537.27	0.93
3545.62	0.932
3553.98	0.933
3562.33	0.933
3570.69	0.933
3579.04	0.932
3587.4	0.932
3595.75	0.9372
3604.11	0.938
3612.46	0.9378
3620.82	0.938
3629.17	0.938
3637.52	0.939
3645.88	0.94
3654.23	0.939
3662.59	0.94
3670.94	0.9421
3679.3	0.943
3687.65	0.943
3696.01	0.942
3704.36	0.943
3712.72	0.944
3721.07	0.944
3729.43	0.944
3737.78	0.943
3746.14	0.942
3754.49	0.943
3762.85	0.943
3771.2	0.943
3779.55	0.943
3787.91	0.943
3796.26	0.943
3804.62	0.942
3812.97	0.94
3821.33	0.94
3829.68	0.94
3838.04	0.942
3846.39	0.942
3854.75	0.943
3863.1	0.944
3871.46	0.944
3879.81	0.944
3888.17	0.944
3896.52	0.944
3904.87	0.944
3913.23	0.945
3921.58	0.947
3929.94	0.947
3938.29	0.948
3946.65	0.948
3955	0.952
