Infrared Spectrum: 4-HYDROXY NONANOIC ACID, LACTONE
Formula: C9 H16 O2
CAS: 104-61-0
State: LIQUID
Class: COBLENTZ
Instrument: Not specified, most likely a prism, grating, or hybrid spectrometer.
Sampling: TRANSMISSION
Path length: 0.0025 CM
Resolution: 4
Origin: INFRACORD
MICROMETERS	TRANSMITTANCE
2.518	0.836
2.55343	0.841
2.58885	0.844
2.62428	0.842
2.6597	0.842
2.69513	0.823
2.73055	0.792
2.76598	0.77
2.8014	0.722
2.83683	0.699
2.87226	0.736
2.90768	0.768
2.94311	0.792
2.97853	0.802
3.01396	0.813
3.04938	0.817
3.08481	0.819
3.12023	0.819
3.15566	0.819
3.19109	0.818
3.22651	0.81
3.26194	0.789
3.29736	0.735
3.33279	0.531
3.36821	0.159
3.40364	0.061
3.43907	0.127
3.47449	0.188
3.50992	0.276
3.54534	0.696
3.58077	0.771
3.61619	0.81
3.65162	0.821
3.68704	0.825
3.72247	0.844
3.7579	0.844
3.79332	0.856
3.82875	0.86
3.86417	0.874
3.8996	0.881
3.93502	0.886
3.97045	0.887
4.00587	0.886
4.0413	0.889
4.07673	0.894
4.11215	0.895
4.14758	0.894
4.183	0.894
4.21843	0.889
4.25385	0.887
4.28928	0.888
4.3247	0.893
4.36013	0.899
4.39556	0.901
4.43098	0.904
4.46641	0.908
4.50183	0.909
4.53726	0.913
4.57268	0.918
4.60811	0.922
4.64353	0.924
4.67896	0.924
4.71439	0.924
4.74981	0.92
4.78524	0.911
4.82066	0.909
4.85609	0.909
4.89151	0.911
4.92694	0.912
4.96237	0.914
4.99779	0.919
5.03322	0.92
5.06864	0.917
5.10407	0.914
5.13949	0.911
5.17492	0.911
5.21034	0.907
5.24577	0.901
5.2812	0.896
5.31662	0.885
5.35205	0.862
5.38747	0.823
5.4229	0.781
5.45832	0.713
5.49375	0.637
5.52917	0.405
5.5646	0.206
5.60003	0.067
5.63545	0.04
5.67088	0.039
5.7063	0.046
5.74173	0.178
5.77715	0.284
5.81258	0.424
5.848	0.574
5.88343	0.643
5.91886	0.766
5.95428	0.793
5.98971	0.825
6.02513	0.835
6.06056	0.834
6.09598	0.834
6.13141	0.834
6.16683	0.838
6.20226	0.85
6.23769	0.854
6.27311	0.88
6.30854	0.888
6.34396	0.896
6.37939	0.907
6.41481	0.908
6.45024	0.908
6.48566	0.908
6.52109	0.911
6.55652	0.904
6.59194	0.895
6.62737	0.872
6.66279	0.867
6.69822	0.841
6.73364	0.813
6.76907	0.732
6.8045	0.418
6.83992	0.265
6.87535	0.258
6.91077	0.441
6.9462	0.579
6.98162	0.597
7.01705	0.542
7.05247	0.478
7.0879	0.665
7.12333	0.718
7.15875	0.694
7.19418	0.593
7.2296	0.539
7.26503	0.484
7.30045	0.533
7.33588	0.49
7.3713	0.379
7.40673	0.336
7.44216	0.402
7.47758	0.484
7.51301	0.625
7.54843	0.655
7.58386	0.671
7.61928	0.65
7.65471	0.6
7.69013	0.56
7.72556	0.578
7.76099	0.547
7.79641	0.489
7.83184	0.522
7.86726	0.599
7.90269	0.617
7.93811	0.645
7.97354	0.645
8.00896	0.601
8.04439	0.546
8.07982	0.496
8.11524	0.468
8.15067	0.415
8.18609	0.305
8.22152	0.264
8.25694	0.306
8.29237	0.285
8.3278	0.225
8.36322	0.117
8.39865	0.066
8.43407	0.04
8.4695	0.04
8.50492	0.042
8.54035	0.046
8.57577	0.056
8.6112	0.085
8.64663	0.138
8.68205	0.193
8.71748	0.299
8.7529	0.419
8.78833	0.447
8.82375	0.356
8.85918	0.272
8.8946	0.276
8.93003	0.353
8.96546	0.436
9.00088	0.478
9.03631	0.582
9.07173	0.651
9.10716	0.677
9.14258	0.667
9.17801	0.63
9.21343	0.603
9.24886	0.579
9.28429	0.567
9.31971	0.558
9.35514	0.536
9.39056	0.529
9.42599	0.508
9.46141	0.472
9.49684	0.469
9.53226	0.498
9.56769	0.515
9.60312	0.504
9.63854	0.454
9.67397	0.362
9.70939	0.265
9.74482	0.216
9.78024	0.204
9.81567	0.22
9.8511	0.24
9.88652	0.272
9.92195	0.334
9.95737	0.389
9.9928	0.408
10.0282	0.418
10.0636	0.413
10.0991	0.411
10.1345	0.433
10.1699	0.479
10.2054	0.537
10.2408	0.575
10.2762	0.572
10.3116	0.548
10.3471	0.52
10.3825	0.477
10.4179	0.425
10.4533	0.396
10.4888	0.394
10.5242	0.469
10.5596	0.547
10.595	0.61
10.6305	0.581
10.6659	0.559
10.7013	0.545
10.7367	0.569
10.7722	0.568
10.8076	0.504
10.843	0.364
10.8784	0.284
10.9139	0.298
10.9493	0.342
10.9847	0.354
11.0201	0.383
11.0556	0.421
11.091	0.498
11.1264	0.543
11.1618	0.58
11.1973	0.618
11.2327	0.677
11.2681	0.712
11.3035	0.733
11.339	0.738
11.3744	0.746
11.4098	0.747
11.4452	0.727
11.4807	0.709
11.5161	0.738
11.5515	0.77
11.5869	0.79
11.6224	0.803
11.6578	0.813
11.6932	0.817
11.7287	0.828
11.7641	0.832
11.7995	0.836
11.8349	0.838
11.8704	0.835
11.9058	0.828
11.9412	0.813
11.9766	0.802
12.0121	0.792
12.0475	0.789
12.0829	0.795
12.1183	0.799
12.1538	0.804
12.1892	0.802
12.2246	0.796
12.26	0.783
12.2955	0.739
12.3309	0.703
12.3663	0.665
12.4017	0.652
12.4372	0.689
12.4726	0.735
12.508	0.779
12.5434	0.804
12.5789	0.827
12.6143	0.838
12.6497	0.845
12.6851	0.85
12.7206	0.853
12.756	0.853
12.7914	0.847
12.8268	0.841
12.8623	0.831
12.8977	0.825
12.9331	0.816
12.9685	0.816
13.004	0.821
13.0394	0.822
13.0748	0.823
13.1102	0.83
13.1457	0.83
13.1811	0.835
13.2165	0.838
13.252	0.842
13.2874	0.842
13.3228	0.837
13.3582	0.825
13.3937	0.811
13.4291	0.795
13.4645	0.772
13.4999	0.738
13.5354	0.713
13.5708	0.7
13.6062	0.682
13.6416	0.667
13.6771	0.662
13.7125	0.669
13.7479	0.709
13.7833	0.726
13.8188	0.767
13.8542	0.792
13.8896	0.803
13.925	0.809
13.9605	0.809
13.9959	0.811
14.0313	0.81
14.0667	0.809
14.1022	0.804
14.1376	0.803
14.173	0.795
14.2084	0.791
14.2439	0.787
14.2793	0.781
14.3147	0.777
14.3501	0.772
14.3856	0.767
14.421	0.76
14.4564	0.753
14.4918	0.744
14.5273	0.731
14.5627	0.718
14.5981	0.706
14.6335	0.69
14.669	0.674
14.7044	0.671
14.7398	0.671
14.7753	0.671
14.8107	0.67
14.8461	0.668
14.8815	0.668
14.917	0.664
14.9524	0.659
