Infrared Spectrum: p-Anisidine
Formula: C7 H9 N O
CAS: 104-94-9
State: SOLID (SPLIT MULL)
Class: COBLENTZ II
Instrument: BECKMAN IR-9 (GRATING)
Instrument parameters: ORDER CHANGES: 670, 1200, 2000 CM^-^1
Sampling: TRANSMISSION
Resolution: 2
Origin: DOW CHEMICAL COMPANY
1/CM	TRANSMITTANCE
3824	0.5102
3815	0.5118
3806	0.514
3797	0.516
3788	0.5183
3779	0.5205
3770	0.5227
3761	0.5249
3752	0.527
3743	0.5289
3734	0.5309
3725	0.5332
3716	0.5362
3707	0.539
3698	0.5418
3689	0.5443
3680	0.5469
3671	0.5492
3662	0.5514
3653	0.5536
3644	0.5557
3635	0.5572
3626	0.5574
3617	0.5571
3608	0.5578
3599	0.5594
3590	0.5612
3581	0.5642
3572	0.5676
3563	0.5714
3554	0.5743
3545	0.5749
3536	0.5744
3527	0.5744
3518	0.5744
3509	0.5762
3500	0.5841
3491	0.5871
3482	0.5886
3473	0.5952
3464	0.6014
3455	0.6012
3446	0.4447
3437	0.1836
3428	0.4167
3419	0.5158
3410	0.5415
3401	0.5573
3392	0.5686
3383	0.5738
3374	0.5692
3365	0.2401
3356	0.343
3347	0.4638
3338	0.5001
3329	0.5197
3320	0.5347
3311	0.5444
3302	0.5526
3293	0.5582
3284	0.5618
3275	0.5648
3266	0.5659
3257	0.5659
3248	0.5581
3239	0.5438
3230	0.5395
3221	0.5538
3212	0.5695
3203	0.5836
3194	0.5914
3185	0.5965
3176	0.6001
3167	0.6037
3158	0.606
3149	0.6081
3140	0.6102
3131	0.6122
3122	0.6142
3113	0.6166
3104	0.6248
3095	0.6302
3086	0.6172
3077	0.6127
3068	0.6209
3059	0.6165
3050	0.6083
3041	0.6239
3032	0.6295
3023	0.6294
3014	0.5159
3005	0.6008
2996	0.6276
2987	0.6292
2978	0.5958
2969	0.5321
2960	0.5695
2951	0.5857
2942	0.5675
2933	0.6042
2924	0.5905
2915	0.5971
2906	0.6125
2897	0.6278
2888	0.637
2879	0.6447
2870	0.6514
2861	0.6553
2852	0.6522
2843	0.5668
2834	0.61
2825	0.6515
2816	0.6618
2807	0.6694
2798	0.6743
2789	0.6782
2780	0.6821
2771	0.6837
2762	0.6858
2753	0.6882
2744	0.6906
2735	0.6928
2726	0.6953
2717	0.6975
2708	0.6999
2699	0.7018
2690	0.7039
2681	0.7058
2672	0.7078
2663	0.7096
2654	0.7112
2645	0.7128
2636	0.7146
2627	0.7161
2618	0.7175
2609	0.7188
2600	0.7201
2591	0.7214
2582	0.7228
2573	0.7242
2564	0.7256
2555	0.7269
2546	0.7285
2537	0.7301
2528	0.7317
2519	0.7333
2510	0.7347
2501	0.7357
2492	0.7357
2483	0.7332
2474	0.7285
2465	0.728
2456	0.7319
2447	0.7365
2438	0.7395
2429	0.7418
2420	0.7421
2411	0.7421
2402	0.7425
2393	0.7406
2384	0.7387
2375	0.7368
2366	0.736
2357	0.7351
2348	0.7341
2339	0.7336
2330	0.7348
2321	0.7368
2312	0.7399
2303	0.7433
2294	0.7461
2285	0.7482
2276	0.7498
2267	0.7517
2258	0.758
2249	0.7643
2240	0.7695
2231	0.7746
2222	0.7797
2213	0.7826
2204	0.7858
2195	0.7888
2186	0.7918
2177	0.7946
2168	0.7975
2159	0.8004
2150	0.8028
2141	0.8051
2132	0.8075
2123	0.8099
2114	0.8118
2105	0.8136
2096	0.8156
2087	0.8162
2078	0.8142
2069	0.8108
2060	0.8065
2051	0.8067
2042	0.8153
2033	0.8201
2024	0.8218
2015	0.8232
2006	0.8232
1997	0.8227
1988	0.8209
1979	0.818
1970	0.8175
1961	0.8225
1952	0.8287
1943	0.8327
1934	0.8341
1925	0.8318
1916	0.8294
1907	0.8302
1898	0.8321
1889	0.8311
1880	0.8306
1871	0.8267
1862	0.794
1853	0.8153
1844	0.8295
1835	0.8283
1826	0.8395
1817	0.8489
1808	0.8508
1799	0.8515
1790	0.852
1781	0.8523
1772	0.8531
1763	0.8533
1754	0.8525
1745	0.8477
1736	0.8563
1727	0.8608
1718	0.8648
1709	0.8684
1700	0.8686
1691	0.8682
1682	0.8668
1673	0.8636
1664	0.8515
1655	0.849
1646	0.8345
1637	0.7297
1628	0.6277
1619	0.7621
1610	0.8058
1601	0.8413
1592	0.8233
1583	0.8673
1574	0.8796
1565	0.8781
1556	0.8877
1547	0.8846
1538	0.8262
1529	0.8186
1520	0.4084
1511	0.0812
1502	0.1835
1493	0.6508
1484	0.7295
1475	0.7396
1466	0.4269
1457	0.5323
1448	0.7138
1439	0.6033
1430	0.7296
1421	0.7683
1412	0.7811
1403	0.7914
1394	0.7994
1385	0.801
1376	0.8007
1367	0.795
1358	0.7795
1349	0.7205
1340	0.6625
1331	0.6501
1322	0.6886
1313	0.7185
1304	0.6918
1295	0.4775
1286	0.6887
1277	0.5521
1268	0.5536
1259	0.604
1250	0.561
1241	0.0483
1232	0.0932
1223	0.3499
1214	0.5975
1205	0.6458
1196	0.6751
1187	0.6775
1178	0.353
1169	0.616
1160	0.6721
1151	0.6875
1142	0.6967
1133	0.6591
1124	0.6537
1115	0.6868
1106	0.6715
1097	0.6711
1088	0.6785
1079	0.7001
1070	0.7248
1061	0.731
1052	0.7198
1043	0.6745
1034	0.1527
1025	0.5856
1016	0.6757
1007	0.7055
998	0.719
989	0.7315
980	0.729
971	0.7301
962	0.7364
953	0.7421
944	0.7208
935	0.7469
926	0.7518
917	0.7358
908	0.7524
899	0.7491
890	0.7487
881	0.7505
872	0.7508
863	0.7412
854	0.7124
845	0.6785
836	0.5036
827	0.2156
818	0.3814
809	0.6839
800	0.7433
791	0.7625
782	0.7608
773	0.7583
764	0.7551
755	0.7515
746	0.7401
737	0.5815
728	0.5353
719	0.5704
710	0.5853
701	0.6876
692	0.6725
683	0.6515
674	0.6262
665	0.5986
656	0.5741
647	0.5467
638	0.5683
629	0.542
620	0.536
611	0.542
602	0.5588
593	0.5849
584	0.6157
575	0.6458
566	0.6678
557	0.6819
548	0.6901
539	0.6837
530	0.5847
521	0.4416
512	0.5516
503	0.6812
494	0.6985
485	0.7049
476	0.6965
467	0.6831
458	0.6608
449	0.6321
440	0.5842
431	0.5246
422	0.4395
413	0.369
404	0.3034
395	0.1791
386	0.1744
