Infrared Spectrum: p-DODECYLANILINE
Formula: C18 H31 N
CAS: 104-42-7
State: SOLUTION (10% CCl4 FOR 3800-1330, 10% CS2 FOR 1330-450 CM^-^1)
Class: COBLENTZ III
Instrument: DOW KBr FOREPRISM-GRATING
Instrument parameters: BLAZED AT 3.5, 12.0, 20.0 MICRON AND CHANGED AT 5.0, 7.5, 14.9 MICRON
Sampling: TRANSMISSION
Path length: 0.010 CM, 0.010 CM
Resolution: 2
Origin: DOW CHEMICAL COMPANY
1/CM	TRANSMITTANCE
502.824	0.675
511.513	0.671
520.203	0.677
528.892	0.688
537.581	0.686
546.271	0.648
554.96	0.67
563.65	0.656
572.339	0.73
581.028	0.783
589.718	0.788
598.407	0.801
607.096	0.805
615.786	0.811
624.475	0.814
633.164	0.814
641.854	0.794
650.543	0.79
659.232	0.791
667.922	0.833
676.611	0.836
685.301	0.836
693.99	0.836
702.679	0.822
711.369	0.869
720.058	0.87
728.747	0.82
737.437	0.809
746.126	0.688
754.815	0.833
763.505	0.855
772.194	0.858
780.884	0.832
789.573	0.861
798.262	0.856
806.952	0.791
815.641	0.523
824.33	0.343
833.02	0.598
841.709	0.753
850.398	0.752
859.088	0.753
867.777	0.809
876.467	0.862
885.156	0.901
893.845	0.937
902.535	0.944
911.224	0.933
919.913	0.938
928.603	0.935
937.292	0.957
945.981	0.964
954.671	0.971
963.36	0.979
972.049	0.985
980.739	0.989
989.428	0.982
998.118	0.967
1006.81	0.957
1015.5	0.937
1024.19	0.982
1032.88	0.978
1041.56	0.972
1050.25	0.968
1058.94	0.949
1067.63	0.942
1076.32	0.948
1085.01	0.946
1093.7	0.945
1102.39	0.938
1111.08	0.937
1119.77	0.915
1128.46	0.852
1137.15	0.882
1145.84	0.922
1154.53	0.92
1163.22	0.91
1171.9	0.896
1180.59	0.814
1189.28	0.471
1197.97	0.888
1206.66	0.923
1215.35	0.935
1224.04	0.935
1232.73	0.916
1241.42	0.881
1250.11	0.816
1258.8	0.765
1267.49	0.675
1276.18	0.431
1284.87	0.517
1293.56	0.66
1302.25	0.762
1310.93	0.794
1319.62	0.82
1328.31	0.841
1337	0.835
1345.69	0.839
1354.38	0.84
1363.07	0.6769
1371.76	0.651
1380.45	0.49
1389.14	0.536
1397.83	0.854
1406.52	0.889
1415.21	0.882
1423.9	0.854
1432.59	0.786
1441.27	0.72
1449.96	0.568
1458.65	0.378
1467.34	0.297
1476.03	0.418
1484.72	0.681
1493.41	0.663
1502.1	0.58
1510.79	0.3839
1519.48	0.034
1528.17	0.479
1536.86	0.517
1545.55	0.459
1554.24	0.448
1562.93	0.539
1571.62	0.585
1580.3	0.579
1588.99	0.585
1597.68	0.615
1606.37	0.55
1615.06	0.309
1623.75	0.073
1632.44	0.474
1641.13	0.677
1649.82	0.825
1658.51	0.874
1667.2	0.9
1675.89	0.918
1684.58	0.926
1693.27	0.929
1701.96	0.93
1710.65	0.934
1719.33	0.942
1728.02	0.95
1736.71	0.948
1745.4	0.944
1754.09	0.937
1762.78	0.941
1771.47	0.95
1780.16	0.955
1788.85	0.955
1797.54	0.955
1806.23	0.955
1814.92	0.95
1823.61	0.948
1832.3	0.948
1840.99	0.949
1849.67	0.942
1858.36	0.931
1867.05	0.914
1875.74	0.891
1884.43	0.925
1893.12	0.941
1901.81	0.952
1910.5	0.953
1919.19	0.956
1927.88	0.957
1936.57	0.959
1945.26	0.959
1953.95	0.963
1962.64	0.963
1971.33	0.961
1980.02	0.963
1988.7	0.963
1997.39	0.96
2006.08	0.959
2014.77	0.961
2023.46	0.964
2032.15	0.965
2040.84	0.9675
2049.53	0.968
2058.22	0.968
2066.91	0.968
2075.6	0.968
2084.29	0.968
2092.98	0.968
2101.67	0.968
2110.36	0.965
2119.05	0.965
2127.73	0.967
2136.42	0.968
2145.11	0.97
2153.8	0.972
2162.49	0.972
2171.18	0.972
2179.87	0.972
2188.56	0.972
2197.25	0.972
2205.94	0.974
2214.63	0.974
2223.32	0.972
2232.01	0.972
2240.7	0.972
2249.39	0.97
2258.07	0.9659
2266.76	0.963
2275.45	0.9594
2284.14	0.956
2292.83	0.956
2301.52	0.9524
2310.21	0.9448
2318.9	0.944
2327.59	0.942
2336.28	0.9456
2344.97	0.9566
2353.66	0.959
2362.35	0.96
2371.04	0.9606
2379.73	0.9692
2388.42	0.972
2397.1	0.975
2405.79	0.9772
2414.48	0.978
2423.17	0.978
2431.86	0.9786
2440.55	0.979
2449.24	0.979
2457.93	0.979
2466.62	0.98
2475.31	0.98
2484	0.98
2492.69	0.98
2501.38	0.98
2510.07	0.98
2518.76	0.978
2527.45	0.978
2536.13	0.9767
2544.82	0.9727
2553.51	0.9687
2562.2	0.965
2570.89	0.963
2579.58	0.96
2588.27	0.959
2596.96	0.957
2605.65	0.957
2614.34	0.959
2623.03	0.959
2631.72	0.9576
2640.41	0.956
2649.1	0.955
2657.79	0.952
2666.47	0.9506
2675.16	0.949
2683.85	0.949
2692.54	0.948
2701.23	0.9453
2709.92	0.9356
2718.61	0.927
2727.3	0.927
2735.99	0.9331
2744.68	0.94
2753.37	0.94
2762.06	0.938
2770.75	0.937
2779.44	0.9333
2788.13	0.9208
2796.82	0.9021
2805.5	0.8791
2814.19	0.8559
2822.88	0.8193
2831.57	0.7602
2840.26	0.6648
2848.95	0.4449
2857.64	0.2807
2866.33	0.173
2875.02	0.141
2883.71	0.2156
2892.4	0.2285
2901.09	0.1696
2909.78	0.1029
2918.47	0.087
2927.16	0.0347
2935.84	0.0335
2944.53	0.055
2953.22	0.01
2961.91	0.0088
2970.6	0.03
2979.29	0.1707
2987.98	0.423
2996.67	0.6166
3005.36	0.651
3014.05	0.6734
3022.74	0.679
3031.43	0.6456
3040.12	0.7128
3048.81	0.7828
3057.5	0.7908
3066.19	0.8043
3074.87	0.8646
3083.56	0.9031
3092.25	0.9061
3100.94	0.8894
3109.63	0.9026
3118.32	0.9285
3127.01	0.9458
3135.7	0.9528
3144.39	0.959
3153.08	0.959
3161.77	0.959
3170.46	0.957
3179.15	0.9552
3187.84	0.949
3196.53	0.944
3205.22	0.9411
3213.9	0.9449
3222.59	0.9499
3231.28	0.9569
3239.97	0.9676
3248.66	0.9759
3257.35	0.982
3266.04	0.985
3274.73	0.987
3283.42	0.987
3292.11	0.987
3300.8	0.9832
3309.49	0.9791
3318.18	0.976
3326.87	0.9711
3335.56	0.9652
3344.24	0.9591
3352.93	0.9448
3361.62	0.8919
3370.31	0.8274
3379	0.7811
3387.69	0.7266
3396.38	0.7483
3405.07	0.8767
3413.76	0.9257
3422.45	0.9518
3431.14	0.9405
3439.83	0.9144
3448.52	0.8515
3457.21	0.8182
3465.9	0.7793
3474.59	0.7797
3483.27	0.8292
3491.96	0.8979
3500.65	0.9417
3509.34	0.9558
3518.03	0.979
3526.72	0.9869
3535.41	0.99
3544.1	0.99
3552.79	0.993
3561.48	0.994
3570.17	0.993
3578.86	0.979
3587.55	0.991
3596.24	0.994
3604.93	0.9869
3613.62	0.99
3622.3	0.99
3630.99	0.989
3639.68	0.989
3648.37	0.989
3657.06	0.986
3665.75	0.989
3674.44	0.986
3683.13	0.979
3691.82	0.986
3700.51	0.989
3709.2	0.987
3717.89	0.989
3726.58	0.99
3735.27	0.991
3743.96	0.994
3752.64	0.994
3761.33	0.994
3770.02	0.994
3778.71	0.994
3787.4	0.994
3796.09	0.994
3804.78	0.994
