Infrared Spectrum: BENZALDEHYDE, 4-METHYL-
Formula: C8 H8 O
CAS: 104-87-0
State: VAPOR (5 MICROLITER AT 150 C)
Boiling point: 204 C
Class: COBLENTZ
Instrument: PERKIN-ELMER 180
Sampling: TRANSMISSION
Path length: 5 CM KBr CELL, CELL VOLUME: 80 CM^3
Resolution: 2-3 CM^-^1
Origin: PERKIN-ELMER CORP. (M. ZELLER)
1/CM	TRANSMITTANCE
401.938	0.397
411.434	0.4489
420.93	0.518
430.427	0.581
439.923	0.631
449.419	0.67
458.915	0.699
468.411	0.711
477.907	0.716
487.404	0.747
496.9	0.779
506.396	0.781
515.892	0.8
525.388	0.813
534.884	0.823
544.381	0.825
553.877	0.833
563.373	0.831
572.869	0.831
582.365	0.821
591.861	0.817
601.358	0.814
610.854	0.825
620.35	0.836
629.846	0.842
639.342	0.845
648.838	0.842
658.335	0.844
667.831	0.84
677.327	0.837
686.823	0.834
696.319	0.829
705.815	0.827
715.312	0.827
724.808	0.822
734.304	0.802
743.8	0.726
753.296	0.677
762.792	0.7229
772.289	0.784
781.785	0.757
791.281	0.703
800.777	0.613
810.273	0.665
819.769	0.7239
829.266	0.741
838.762	0.677
848.258	0.6949
857.754	0.806
867.25	0.829
876.746	0.831
886.243	0.826
895.739	0.83
905.235	0.836
914.731	0.837
924.227	0.834
933.723	0.834
943.22	0.831
952.716	0.826
962.212	0.818
971.708	0.814
981.204	0.815
990.7	0.813
1000.2	0.802
1009.69	0.775
1019.19	0.775
1028.69	0.785
1038.18	0.789
1047.68	0.781
1057.17	0.784
1066.67	0.777
1076.17	0.765
1085.66	0.761
1095.16	0.76
1104.65	0.754
1114.15	0.753
1123.65	0.765
1133.14	0.78
1142.64	0.771
1152.14	0.716
1161.63	0.566
1171.13	0.588
1180.62	0.712
1190.12	0.658
1199.62	0.596
1209.11	0.638
1218.61	0.734
1228.1	0.773
1237.6	0.78
1247.1	0.779
1256.59	0.775
1266.09	0.769
1275.59	0.75
1285.08	0.735
1294.58	0.712
1304.07	0.708
1313.57	0.747
1323.07	0.766
1332.56	0.765
1342.06	0.757
1351.55	0.752
1361.05	0.741
1370.55	0.701
1380.04	0.701
1389.54	0.722
1399.04	0.738
1408.53	0.742
1418.03	0.743
1427.52	0.745
1437.02	0.749
1446.52	0.75
1456.01	0.754
1465.51	0.764
1475.01	0.766
1484.5	0.766
1494	0.764
1503.49	0.765
1512.99	0.764
1522.49	0.765
1531.98	0.762
1541.48	0.761
1550.97	0.75
1560.47	0.733
1569.97	0.699
1579.46	0.673
1588.96	0.613
1598.46	0.537
1607.95	0.527
1617.45	0.589
1626.94	0.663
1636.44	0.712
1645.94	0.734
1655.43	0.739
1664.93	0.73
1674.42	0.689
1683.92	0.647
1693.42	0.607
1702.91	0.4342
1712.41	0.096
1721.91	0.102
1731.4	0.4575
1740.9	0.703
1750.39	0.726
1759.89	0.741
1769.39	0.762
1778.88	0.791
1788.38	0.792
1797.87	0.785
1807.37	0.791
1816.87	0.8
1826.36	0.811
1835.86	0.806
1845.36	0.804
1854.85	0.811
1864.35	0.806
1873.84	0.803
1883.34	0.802
1892.84	0.8
1902.33	0.792
1911.83	0.791
1921.33	0.795
1930.82	0.803
1940.32	0.8
1949.81	0.796
1959.31	0.798
1968.81	0.794
1978.3	0.799
1987.8	0.794
1997.29	0.802
2006.79	0.79
2016.29	0.7891
2025.78	0.794
2035.28	0.794
2044.78	0.789
2054.27	0.7942
2063.77	0.791
2073.26	0.7912
2082.76	0.794
2092.26	0.791
2101.75	0.7929
2111.25	0.7908
2120.74	0.783
2130.24	0.7861
2139.74	0.791
2149.23	0.789
2158.73	0.788
2168.23	0.788
2177.72	0.787
2187.22	0.787
2196.71	0.7851
2206.21	0.785
2215.71	0.783
2225.2	0.791
2234.7	0.7889
2244.19	0.7833
2253.69	0.7826
2263.19	0.78
2272.68	0.78
2282.18	0.7792
2291.68	0.78
2301.17	0.779
2310.67	0.777
2320.16	0.777
2329.66	0.7742
2339.16	0.7758
2348.65	0.771
2358.15	0.769
2367.65	0.7715
2377.14	0.772
2386.64	0.772
2396.13	0.772
2405.63	0.772
2415.13	0.771
2424.62	0.7697
2434.12	0.766
2443.61	0.7693
2453.11	0.7688
2462.61	0.7676
2472.1	0.766
2481.6	0.765
2491.1	0.765
2500.59	0.766
2510.09	0.7628
2519.58	0.762
2529.08	0.761
2538.58	0.761
2548.07	0.757
2557.57	0.7611
2567.06	0.7589
2576.56	0.757
2586.06	0.757
2595.55	0.754
2605.05	0.7546
2614.55	0.756
2624.04	0.7523
2633.54	0.753
2643.03	0.7522
2652.53	0.7481
2662.03	0.745
2671.52	0.7329
2681.02	0.7262
2690.51	0.7072
2700.01	0.6894
2709.51	0.6217
2719	0.5712
2728.5	0.5798
2738	0.6326
2747.49	0.6716
2756.99	0.7032
2766.48	0.7009
2775.98	0.6806
2785.48	0.6629
2794.97	0.6325
2804.47	0.6083
2813.97	0.5925
2823.46	0.6096
2832.96	0.6625
2842.45	0.6838
2851.95	0.7024
2861.45	0.7001
2870.94	0.6873
2880.44	0.6761
2889.93	0.677
2899.43	0.678
2908.93	0.676
2918.42	0.6588
2927.92	0.6288
2937.42	0.6268
2946.91	0.6525
2956.41	0.6703
2965.9	0.673
2975.4	0.68
2984.9	0.6803
2994.39	0.6753
3003.89	0.6629
3013.38	0.6458
3022.88	0.6227
3032.38	0.6242
3041.87	0.6376
3051.37	0.642
3060.87	0.6458
3070.36	0.6664
3079.86	0.6779
3089.35	0.6865
3098.85	0.6921
3108.35	0.7017
3117.84	0.703
3127.34	0.7064
3136.83	0.7114
3146.33	0.716
3155.83	0.712
3165.32	0.708
3174.82	0.714
3184.32	0.714
3193.81	0.714
3203.31	0.7084
3212.8	0.715
3222.3	0.7109
3231.8	0.715
3241.29	0.719
3250.79	0.714
3260.28	0.714
3269.78	0.709
3279.28	0.715
3288.77	0.711
3298.27	0.7119
3307.77	0.714
3317.26	0.714
3326.76	0.709
3336.25	0.7086
3345.75	0.71
3355.25	0.708
3364.74	0.708
3374.24	0.708
3383.74	0.7054
3393.23	0.7023
3402.73	0.6974
3412.22	0.6942
3421.72	0.6911
3431.22	0.6939
3440.71	0.703
3450.21	0.705
3459.7	0.707
3469.2	0.708
3478.7	0.7068
3488.19	0.703
3497.69	0.7031
3507.19	0.7017
3516.68	0.7026
3526.18	0.7007
3535.67	0.703
3545.17	0.701
3554.67	0.6996
3564.16	0.7005
3573.66	0.691
3583.15	0.6977
3592.65	0.7
3602.15	0.7
3611.64	0.699
3621.14	0.7
3630.64	0.699
3640.13	0.693
3649.63	0.699
3659.12	0.697
3668.62	0.697
3678.12	0.6947
3687.61	0.697
3697.11	0.696
3706.6	0.696
3716.1	0.696
3725.6	0.696
3735.09	0.6957
3744.59	0.6934
3754.09	0.692
3763.58	0.692
3773.08	0.691
3782.57	0.691
3792.07	0.6899
3801.57	0.691
3811.06	0.688
3820.56	0.685
3830.06	0.686
3839.55	0.685
3849.05	0.688
3858.54	0.686
3868.04	0.686
3877.54	0.686
3887.03	0.684
3896.53	0.6848
3906.02	0.682
3915.52	0.6826
3925.02	0.6848
3934.51	0.685
3944.01	0.6823
3953.51	0.682
3963	0.682
3972.5	0.682
3981.99	0.682
3991.49	0.681
