Infrared Spectrum: n-DECYL BENZENE
Formula: C16 H26
CAS: 104-72-3
State: LIQUID (NEAT)
Class: COBLENTZ III
Instrument: PERKIN-ELMER 521 (GRATING)
Sampling: TRANSMISSION
Path length: 0.0024 CM
Resolution: 4
Origin: STANDARD OIL OF OHIO
1/CM	TRANSMITTANCE
585.227	0.601
594.405	0.588
603.584	0.591
612.762	0.597
621.941	0.612
631.119	0.625
640.297	0.651
649.476	0.674
658.654	0.679
667.832	0.674
677.011	0.636
686.189	0.3233
695.368	0.0869
704.546	0.439
713.724	0.3521
722.903	0.342
732.081	0.29
741.259	0.1721
750.438	0.5366
759.616	0.702
768.795	0.783
777.973	0.809
787.151	0.813
796.33	0.83
805.508	0.846
814.686	0.846
823.865	0.85
833.043	0.839
842.222	0.859
851.4	0.869
860.578	0.868
869.757	0.863
878.935	0.851
888.114	0.826
897.292	0.7751
906.47	0.812
915.649	0.85
924.827	0.868
934.005	0.87
943.184	0.867
952.362	0.855
961.541	0.852
970.719	0.846
979.897	0.859
989.076	0.868
998.254	0.872
1007.43	0.86
1016.61	0.82
1025.79	0.6231
1034.97	0.825
1044.15	0.82
1053.32	0.803
1062.5	0.771
1071.68	0.737
1080.86	0.827
1090.04	0.851
1099.22	0.834
1108.39	0.797
1117.57	0.842
1126.75	0.872
1135.93	0.861
1145.11	0.833
1154.29	0.846
1163.46	0.843
1172.64	0.826
1181.82	0.843
1191	0.842
1200.18	0.853
1209.36	0.856
1218.54	0.855
1227.71	0.847
1236.89	0.839
1246.07	0.837
1255.25	0.829
1264.43	0.821
1273.61	0.809
1282.78	0.792
1291.96	0.771
1301.14	0.775
1310.32	0.801
1319.5	0.787
1328.68	0.766
1337.85	0.741
1347.03	0.731
1356.21	0.71
1365.39	0.649
1374.57	0.72
1383.75	0.812
1392.92	0.821
1402.1	0.809
1411.28	0.7789
1420.46	0.697
1429.64	0.633
1438.82	0.5009
1447.99	0.2982
1457.17	0.25
1466.35	0.2007
1475.53	0.744
1484.71	0.672
1493.89	0.2514
1503.06	0.861
1512.24	0.889
1521.42	0.89
1530.6	0.874
1539.78	0.902
1548.96	0.906
1558.14	0.904
1567.31	0.891
1576.49	0.86
1585.67	0.823
1594.85	0.7576
1604.03	0.68
1613.21	0.899
1622.38	0.907
1631.56	0.91
1640.74	0.906
1649.92	0.903
1659.1	0.915
1668.28	0.919
1677.45	0.921
1686.63	0.92
1695.81	0.915
1704.99	0.917
1714.17	0.912
1723.35	0.906
1732.52	0.891
1741.7	0.902
1750.88	0.915
1760.06	0.92
1769.24	0.913
1778.42	0.913
1787.59	0.877
1796.77	0.869
1805.95	0.898
1815.13	0.91
1824.31	0.92
1833.49	0.919
1842.67	0.91
1851.84	0.883
1861.02	0.87
1870.2	0.883
1879.38	0.894
1888.56	0.913
1897.74	0.919
1906.91	0.917
1916.09	0.911
1925.27	0.8829
1934.45	0.813
1943.63	0.878
1952.81	0.88
1961.98	0.912
1971.16	0.915
1980.34	0.916
1989.52	0.912
1998.7	0.917
2007.88	0.916
2017.05	0.912
2026.23	0.913
2035.41	0.915
2044.59	0.916
2053.77	0.916
2062.95	0.916
2072.12	0.916
2081.3	0.916
2090.48	0.917
2099.66	0.917
2108.84	0.917
2118.02	0.917
2127.19	0.916
2136.37	0.913
2145.55	0.912
2154.73	0.912
2163.91	0.9114
2173.09	0.911
2182.27	0.911
2191.44	0.911
2200.62	0.911
2209.8	0.913
2218.98	0.913
2228.16	0.913
2237.34	0.911
2246.51	0.911
2255.69	0.9113
2264.87	0.911
2274.05	0.911
2283.23	0.9067
2292.41	0.907
2301.58	0.9056
2310.76	0.904
2319.94	0.906
2329.12	0.9057
2338.3	0.9082
2347.48	0.91
2356.65	0.91
2365.83	0.91
2375.01	0.908
2384.19	0.91
2393.37	0.908
2402.55	0.9099
2411.72	0.9082
2420.9	0.912
2430.08	0.91
2439.26	0.9118
2448.44	0.912
2457.62	0.912
2466.79	0.911
2475.97	0.908
2485.15	0.906
2494.33	0.904
2503.51	0.903
2512.69	0.902
2521.87	0.8994
2531.04	0.899
2540.22	0.898
2549.4	0.895
2558.58	0.891
2567.76	0.886
2576.94	0.8805
2586.11	0.877
2595.29	0.8726
2604.47	0.8646
2613.65	0.8636
2622.83	0.8583
2632.01	0.853
2641.18	0.8517
2650.36	0.843
2659.54	0.8385
2668.72	0.83
2677.9	0.83
2687.08	0.834
2696.25	0.8443
2705.43	0.851
2714.61	0.843
2723.79	0.8378
2732.97	0.8291
2742.15	0.835
2751.32	0.837
2760.5	0.831
2769.68	0.8231
2778.86	0.8042
2788.04	0.7744
2797.22	0.7485
2806.39	0.7114
2815.57	0.6667
2824.75	0.5805
2833.93	0.4533
2843.11	0.2681
2852.29	0.0208
2861.47	0.0124
2870.64	0.0583
2879.82	0.1039
2889	0.1501
2898.18	0.0628
2907.36	0.0242
2916.54	0.0134
2925.71	0.009
2934.89	0.009
2944.07	0.015
2953.25	0.0315
2962.43	0.0299
2971.61	0.1639
2980.78	0.4467
2989.96	0.5757
2999.14	0.6019
3008.32	0.612
3017.5	0.5585
3026.68	0.2807
3035.85	0.371
3045.03	0.6342
3054.21	0.6304
3063.39	0.4504
3072.57	0.61
3081.75	0.6182
3090.92	0.599
3100.1	0.792
3109.28	0.7883
3118.46	0.8513
3127.64	0.874
3136.82	0.881
3145.99	0.883
3155.17	0.8821
3164.35	0.881
3173.53	0.887
3182.71	0.89
3191.89	0.891
3201.07	0.894
3210.24	0.897
3219.42	0.899
3228.6	0.8997
3237.78	0.902
3246.96	0.902
3256.14	0.902
3265.31	0.9013
3274.49	0.9036
3283.67	0.904
3292.85	0.904
3302.03	0.904
3311.21	0.904
3320.38	0.9035
3329.56	0.9025
3338.74	0.902
3347.92	0.9012
3357.1	0.9
3366.28	0.9
3375.45	0.899
3384.63	0.899
3393.81	0.899
3402.99	0.899
3412.17	0.899
3421.35	0.899
3430.52	0.899
3439.7	0.898
3448.88	0.898
3458.06	0.898
3467.24	0.897
3476.42	0.895
3485.6	0.894
3494.77	0.89
3503.95	0.889
3513.13	0.889
3522.31	0.891
3531.49	0.893
3540.67	0.8949
3549.84	0.895
3559.02	0.897
3568.2	0.897
3577.38	0.893
3586.56	0.883
3595.74	0.89
3604.91	0.8863
3614.09	0.8827
3623.27	0.8827
3632.45	0.885
3641.63	0.8824
3650.81	0.88
3659.98	0.88
3669.16	0.8856
3678.34	0.8825
3687.52	0.885
3696.7	0.883
3705.88	0.886
3715.05	0.883
3724.23	0.886
3733.41	0.887
3742.59	0.885
3751.77	0.885
3760.95	0.882
3770.12	0.882
3779.3	0.881
3788.48	0.881
3797.66	0.883
3806.84	0.881
3816.02	0.881
3825.2	0.88
3834.37	0.881
3843.55	0.878
3852.73	0.8809
3861.91	0.88
3871.09	0.88
3880.27	0.88
3889.44	0.878
3898.62	0.877
3907.8	0.878
3916.98	0.878
3926.16	0.878
3935.34	0.877
3944.51	0.8768
