Infrared Spectrum: ACETIC ACID, p-METHOXY BENZYL ESTER
Formula: C10 H12 O3
CAS: 104-21-2
State: LIQUID
Class: COBLENTZ
Instrument: Not specified, most likely a prism, grating, or hybrid spectrometer.
Sampling: TRANSMISSION
Path length: FILM
Resolution: 4
Origin: INFRACORD
MICROMETERS	TRANSMITTANCE
2.518	0.947
2.55339	0.949
2.58879	0.949
2.62418	0.947
2.65958	0.938
2.69497	0.914
2.73037	0.895
2.76576	0.887
2.80115	0.873
2.83655	0.877
2.87194	0.88
2.90734	0.899
2.94273	0.913
2.97813	0.918
3.01352	0.919
3.04891	0.919
3.08431	0.916
3.1197	0.91
3.1551	0.906
3.19049	0.903
3.22589	0.895
3.26128	0.875
3.29667	0.838
3.33207	0.781
3.36746	0.734
3.40286	0.648
3.43825	0.665
3.47365	0.748
3.50904	0.836
3.54444	0.771
3.57983	0.859
3.61522	0.91
3.65062	0.918
3.68601	0.919
3.72141	0.92
3.7568	0.923
3.7922	0.925
3.82759	0.923
3.86298	0.918
3.89838	0.917
3.93377	0.916
3.96917	0.912
4.00456	0.919
4.03996	0.917
4.07535	0.914
4.11074	0.916
4.14614	0.918
4.18153	0.924
4.21693	0.932
4.25232	0.937
4.28772	0.938
4.32311	0.936
4.3585	0.93
4.3939	0.924
4.42929	0.92
4.46469	0.925
4.50008	0.927
4.53548	0.927
4.57087	0.926
4.60626	0.929
4.64166	0.926
4.67705	0.925
4.71245	0.924
4.74784	0.927
4.78324	0.925
4.81863	0.916
4.85403	0.905
4.88942	0.888
4.92481	0.898
4.96021	0.908
4.9956	0.91
5.031	0.901
5.06639	0.905
5.10179	0.916
5.13718	0.917
5.17257	0.916
5.20797	0.906
5.24336	0.904
5.27876	0.9
5.31415	0.891
5.34955	0.888
5.38494	0.893
5.42033	0.894
5.45573	0.897
5.49112	0.894
5.52652	0.886
5.56191	0.877
5.59731	0.856
5.6327	0.819
5.66809	0.756
5.70349	0.503
5.73888	0.073
5.77428	0.053
5.80967	0.213
5.84507	0.443
5.88046	0.568
5.91585	0.68
5.95125	0.739
5.98664	0.79
6.02204	0.812
6.05743	0.816
6.09283	0.819
6.12822	0.812
6.16361	0.732
6.19901	0.343
6.2344	0.445
6.2698	0.672
6.30519	0.646
6.34059	0.71
6.37598	0.812
6.41137	0.867
6.44677	0.867
6.48216	0.859
6.51756	0.843
6.55295	0.761
6.58835	0.6
6.62374	0.093
6.65914	0.443
6.69453	0.692
6.72992	0.774
6.76532	0.782
6.80071	0.731
6.83611	0.472
6.8715	0.445
6.9069	0.518
6.94229	0.517
6.97768	0.569
7.01308	0.673
7.04847	0.684
7.08387	0.726
7.11926	0.773
7.15466	0.773
7.19005	0.732
7.22544	0.556
7.26084	0.353
7.29623	0.51
7.33163	0.492
7.36702	0.425
7.40242	0.621
7.43781	0.778
7.4732	0.81
7.5086	0.807
7.54399	0.763
7.57939	0.711
7.61478	0.673
7.65018	0.615
7.68557	0.353
7.72096	0.498
7.75636	0.572
7.79175	0.535
7.82715	0.432
7.86254	0.231
7.89794	0.102
7.93333	0.063
7.96873	0.03
8.00412	0.026
8.03951	0.028
8.07491	0.029
8.1103	0.029
8.1457	0.028
8.18109	0.048
8.21649	0.166
8.25188	0.299
8.28727	0.475
8.32267	0.583
8.35806	0.647
8.39346	0.658
8.42885	0.511
8.46425	0.229
8.49964	0.139
8.53503	0.369
8.57043	0.63
8.60582	0.734
8.64122	0.774
8.67661	0.809
8.71201	0.829
8.7474	0.849
8.78279	0.861
8.81819	0.859
8.85358	0.856
8.88898	0.848
8.92437	0.821
8.95977	0.729
8.99516	0.695
9.03055	0.773
9.06595	0.84
9.10134	0.851
9.13674	0.853
9.17213	0.849
9.20753	0.842
9.24292	0.833
9.27831	0.822
9.31371	0.81
9.3491	0.791
9.3845	0.764
9.41989	0.719
9.45529	0.638
9.49068	0.559
9.52607	0.426
9.56147	0.297
9.59686	0.176
9.63226	0.106
9.66765	0.098
9.70305	0.114
9.73844	0.167
9.77384	0.255
9.80923	0.392
9.84462	0.46
9.88002	0.53
9.91541	0.585
9.95081	0.612
9.9862	0.64
10.0216	0.691
10.057	0.723
10.0924	0.747
10.1278	0.747
10.1632	0.739
10.1986	0.721
10.234	0.673
10.2694	0.63
10.3048	0.581
10.3401	0.548
10.3755	0.54
10.4109	0.576
10.4463	0.618
10.4817	0.678
10.5171	0.726
10.5525	0.751
10.5879	0.752
10.6233	0.755
10.6587	0.761
10.6941	0.786
10.7295	0.819
10.7649	0.827
10.8003	0.828
10.8357	0.819
10.8711	0.813
10.9065	0.814
10.9418	0.825
10.9772	0.838
11.0126	0.852
11.048	0.856
11.0834	0.868
11.1188	0.873
11.1542	0.875
11.1896	0.875
11.225	0.877
11.2604	0.875
11.2958	0.875
11.3312	0.873
11.3666	0.871
11.402	0.862
11.4374	0.858
11.4728	0.851
11.5082	0.838
11.5436	0.812
11.5789	0.783
11.6143	0.718
11.6497	0.672
11.6851	0.615
11.7205	0.596
11.7559	0.56
11.7913	0.535
11.8267	0.527
11.8621	0.52
11.8975	0.494
11.9329	0.432
11.9683	0.387
12.0037	0.353
12.0391	0.345
12.0745	0.345
12.1099	0.347
12.1453	0.354
12.1806	0.373
12.216	0.398
12.2514	0.423
12.2868	0.462
12.3222	0.539
12.3576	0.628
12.393	0.703
12.4284	0.773
12.4638	0.809
12.4992	0.838
12.5346	0.851
12.57	0.862
12.6054	0.872
12.6408	0.875
12.6762	0.878
12.7116	0.881
12.747	0.884
12.7824	0.884
12.8177	0.881
12.8531	0.879
12.8885	0.879
12.9239	0.877
12.9593	0.871
12.9947	0.853
13.0301	0.836
13.0655	0.806
13.1009	0.775
13.1363	0.757
13.1717	0.751
13.2071	0.758
13.2425	0.784
13.2779	0.797
13.3133	0.826
13.3487	0.84
13.3841	0.852
13.4195	0.858
13.4548	0.864
13.4902	0.872
13.5256	0.875
13.561	0.875
13.5964	0.874
13.6318	0.873
13.6672	0.871
13.7026	0.868
13.738	0.866
13.7734	0.864
13.8088	0.855
13.8442	0.847
13.8796	0.835
13.915	0.827
13.9504	0.817
13.9858	0.817
14.0212	0.823
14.0565	0.828
14.0919	0.83
14.1273	0.834
14.1627	0.84
14.1981	0.841
14.2335	0.843
14.2689	0.843
14.3043	0.843
14.3397	0.845
14.3751	0.848
14.4105	0.847
14.4459	0.842
14.4813	0.841
14.5167	0.842
14.5521	0.842
14.5875	0.842
14.6229	0.838
14.6583	0.835
14.6936	0.833
14.729	0.828
14.7644	0.826
14.7998	0.821
14.8352	0.813
14.8706	0.808
14.906	0.809
14.9414	0.81
14.9768	0.807
