Infrared Spectrum: p-Xylene, Alpha-chloro-
Formula: C8 H9 Cl
CAS: 104-82-5
State: SOLUTION (10% CCl4 FOR 2.6-7.5, 10% CS2 FOR 7.5-22)
Class: COBLENTZ III
Instrument: DOW KBr FOREPRISM-GRATING
Instrument parameters: BLAZED AT 3.5, 12.0, 20.0 AND CHANGED AT 5.0, 7.5, 14.9 MICRON
Sampling: TRANSMISSION
Path length: 0.011 CM, 0.011 CM
Resolution: 2
Origin: DOW CHEMICAL COMPANY
1/CM	TRANSMITTANCE
3820	0.937
3811	0.9357
3802	0.934
3793	0.9352
3784	0.9336
3775	0.933
3766	0.9347
3757	0.9347
3748	0.935
3739	0.9359
3730	0.9368
3721	0.9363
3712	0.9365
3703	0.9316
3694	0.9268
3685	0.928
3676	0.9274
3667	0.9277
3658	0.93
3649	0.9339
3640	0.9362
3631	0.9395
3622	0.9412
3613	0.9413
3604	0.9399
3595	0.9441
3586	0.9389
3577	0.9367
3568	0.9392
3559	0.9414
3550	0.9437
3541	0.9452
3532	0.9462
3523	0.9456
3514	0.9466
3505	0.9471
3496	0.9475
3487	0.9478
3478	0.9481
3469	0.9482
3460	0.9482
3451	0.9483
3442	0.9484
3433	0.9484
3424	0.9482
3415	0.948
3406	0.9487
3397	0.9485
3388	0.9528
3379	0.9545
3370	0.9526
3361	0.9514
3352	0.9723
3343	0.9544
3334	0.9505
3325	0.9531
3316	0.9542
3307	0.9525
3298	0.9512
3289	0.9503
3280	0.9498
3271	0.9509
3262	0.951
3253	0.951
3244	0.9501
3235	0.9509
3226	0.9492
3217	0.951
3208	0.9496
3199	0.9506
3190	0.949
3181	0.947
3172	0.9448
3163	0.9445
3154	0.941
3145	0.9301
3136	0.8906
3127	0.9124
3118	0.9209
3109	0.904
3100	0.8418
3091	0.8542
3082	0.8647
3073	0.8531
3064	0.719
3055	0.6024
3046	0.6644
3037	0.5681
3028	0.6061
3019	0.6158
3010	0.5703
3001	0.6661
2992	0.6671
2983	0.6452
2974	0.6387
2965	0.5136
2956	0.5382
2947	0.6298
2938	0.6412
2929	0.5229
2920	0.6998
2911	0.7683
2902	0.7819
2893	0.7852
2884	0.7673
2875	0.7246
2866	0.6973
2857	0.7906
2848	0.8602
2839	0.8919
2830	0.9073
2821	0.9213
2812	0.9287
2803	0.9374
2794	0.9418
2785	0.9431
2776	0.9457
2767	0.9487
2758	0.9498
2749	0.9489
2740	0.9324
2731	0.9148
2722	0.9324
2713	0.9408
2704	0.9442
2695	0.9494
2686	0.9529
2677	0.9547
2668	0.9553
2659	0.9551
2650	0.9546
2641	0.9546
2632	0.957
2623	0.958
2614	0.9571
2605	0.9541
2596	0.948
2587	0.9464
2578	0.9492
2569	0.9553
2560	0.9593
2551	0.9595
2542	0.9588
2533	0.9569
2524	0.9555
2515	0.9553
2506	0.9555
2497	0.9561
2488	0.956
2479	0.9559
2470	0.9541
2461	0.9533
2452	0.9521
2443	0.9514
2434	0.9516
2425	0.9518
2416	0.9516
2407	0.9515
2398	0.9522
2389	0.9536
2380	0.9571
2371	0.9626
2362	0.9604
2353	0.9652
2344	0.9428
2335	0.922
2326	0.9424
2317	0.9506
2308	0.9474
2299	0.9339
2290	0.9378
2281	0.943
2272	0.9462
2263	0.9464
2254	0.9446
2245	0.9457
2236	0.9493
2227	0.9487
2218	0.9475
2209	0.9479
2200	0.9488
2191	0.9482
2182	0.9491
2173	0.9512
2164	0.9498
2155	0.9494
2146	0.9476
2137	0.9443
2128	0.9432
2119	0.9433
2110	0.9434
2101	0.9437
2092	0.944
2083	0.9437
2074	0.9419
2065	0.9374
2056	0.9398
2047	0.9391
2038	0.94
2029	0.939
2020	0.9387
2011	0.9362
2002	0.9339
1993	0.9329
1984	0.933
1975	0.9327
1966	0.9296
1957	0.9272
1948	0.9286
1939	0.9292
1930	0.9283
1921	0.9259
1912	0.9113
1903	0.8342
1894	0.844
1885	0.8951
1876	0.9099
1867	0.9167
1858	0.9222
1849	0.918
1840	0.9265
1831	0.9255
1822	0.927
1813	0.9299
1804	0.9269
1795	0.8912
1786	0.8749
1777	0.9104
1768	0.9138
1759	0.9121
1750	0.9085
1741	0.9048
1732	0.9089
1723	0.9175
1714	0.9283
1705	0.9208
1696	0.9201
1687	0.9254
1678	0.929
1669	0.9227
1660	0.9121
1651	0.8986
1642	0.874
1633	0.9005
1624	0.8862
1615	0.62
1606	0.8652
1597	0.9061
1588	0.8763
1579	0.8545
1570	0.8498
1561	0.7979
1552	0.8257
1543	0.8295
1534	0.8566
1525	0.7895
1516	0.2504
1507	0.7656
1498	0.7858
1489	0.794
1480	0.8146
1471	0.7728
1462	0.7066
1453	0.6068
1444	0.5309
1435	0.683
1426	0.7485
1417	0.7394
1408	0.8211
1399	0.8759
1390	0.8908
1381	0.8328
1372	0.8855
1363	0.9213
1354	0.9088
1345	0.9101
1336	0.8918
1327	0.8951
1318	0.8433
1309	0.8855
1300	0.8804
1291	0.8609
1282	0.8155
1273	0.7292
1264	0.2011
1255	0.7473
1246	0.8663
1237	0.848
1228	0.9232
1219	0.91
1210	0.8267
1201	0.829
1192	0.9156
1183	0.8856
1174	0.8793
1165	0.9094
1156	0.9173
1147	0.9146
1138	0.9345
1129	0.9345
1120	0.8991
1111	0.6922
1102	0.881
1093	0.9406
1084	0.9528
1075	0.9485
1066	0.9586
1057	0.9539
1048	0.9127
1039	0.8434
1030	0.8654
1021	0.8968
1012	0.9498
1003	0.958
994	0.9622
985	0.9662
976	0.9633
967	0.955
958	0.9458
949	0.9387
940	0.9153
931	0.9455
922	0.9512
913	0.9382
904	0.9151
895	0.9361
886	0.9591
877	0.9546
868	0.9417
859	0.94
850	0.8851
841	0.8138
832	0.5373
823	0.7484
814	0.331
805	0.4924
796	0.7073
787	0.809
778	0.8467
769	0.8461
760	0.7883
751	0.6887
742	0.4346
733	0.6298
724	0.0832
715	0.6033
706	0.7839
697	0.8515
688	0.7535
679	0.4139
670	0.3106
661	0.6493
652	0.8202
643	0.8689
634	0.9243
625	0.9561
616	0.976
607	0.9812
598	0.9854
589	0.9888
580	0.9834
571	0.9818
562	0.9758
553	0.9672
544	0.957
535	0.9286
526	0.8709
517	0.6304
508	0.8775
499	0.9058
490	0.9062
481	0.8911
472	0.8437
463	0.6017
454	0.7631
