Infrared Spectrum: P-METHYL ANISOLE
Formula: C8 H10 O
CAS: 104-93-8
State: LIQUID
Boiling point: 50-52 C AT 6 mmHg
Class: COBLENTZ
Instrument: Not specified, most likely a prism, grating, or hybrid spectrometer.
Sampling: TRANSMISSION
Path length: 0.003 CM
Resolution: 4
Origin: WYANDOTTE CHEMICALS CORP., WYANDOTTE, MICHIGAN, USA
MICROMETERS	TRANSMITTANCE
2.055	0.938
2.09385	0.927
2.13271	0.935
2.17156	0.933
2.21042	0.904
2.24927	0.903
2.28813	0.916
2.32698	0.925
2.36584	0.935
2.40469	0.908
2.44355	0.925
2.4824	0.929
2.52126	0.94
2.56011	0.943
2.59897	0.946
2.63782	0.951
2.67668	0.951
2.71553	0.95
2.75439	0.946
2.79324	0.948
2.8321	0.942
2.87095	0.945
2.90981	0.938
2.94866	0.937
2.98752	0.938
3.02637	0.937
3.06523	0.932
3.10408	0.917
3.14294	0.9
3.18179	0.885
3.22065	0.845
3.2595	0.735
3.29836	0.476
3.33721	0.272
3.37607	0.22
3.41492	0.157
3.45378	0.267
3.49263	0.442
3.53149	0.483
3.57034	0.618
3.60919	0.867
3.64805	0.89
3.6869	0.869
3.72576	0.914
3.76461	0.929
3.80347	0.93
3.84232	0.93
3.88118	0.909
3.92003	0.919
3.95889	0.903
3.99774	0.872
4.0366	0.922
4.07545	0.898
4.11431	0.914
4.15316	0.937
4.19202	0.921
4.23087	0.937
4.26973	0.962
4.30858	0.983
4.34744	0.956
4.38629	0.932
4.42515	0.937
4.464	0.93
4.50286	0.948
4.54171	0.961
4.58057	0.948
4.61942	0.951
4.65828	0.966
4.69713	0.966
4.73599	0.969
4.77484	0.969
4.8137	0.948
4.85255	0.924
4.89141	0.848
4.93026	0.838
4.96912	0.916
5.00797	0.93
5.04683	0.911
5.08568	0.919
5.12454	0.925
5.16339	0.866
5.20224	0.898
5.2411	0.93
5.27995	0.933
5.31881	0.896
5.35766	0.847
5.39652	0.808
5.43537	0.89
5.47423	0.903
5.51308	0.914
5.55194	0.93
5.59079	0.948
5.62965	0.938
5.6685	0.921
5.70736	0.893
5.74621	0.896
5.78507	0.908
5.82392	0.927
5.86278	0.927
5.90163	0.913
5.94049	0.909
5.97934	0.882
6.0182	0.824
6.05705	0.79
6.09591	0.695
6.13476	0.595
6.17362	0.196
6.21247	0.352
6.25133	0.515
6.29018	0.357
6.32904	0.727
6.36789	0.768
6.40675	0.739
6.4456	0.729
6.48446	0.637
6.52331	0.426
6.56217	0.185
6.60102	0.041
6.63988	0.151
6.67873	0.444
6.71758	0.539
6.75644	0.492
6.79529	0.181
6.83415	0.101
6.873	0.167
6.91186	0.215
6.95071	0.283
6.98957	0.502
7.02842	0.634
7.06728	0.666
7.10613	0.694
7.14499	0.752
7.18384	0.76
7.2227	0.731
7.26155	0.676
7.30041	0.789
7.33926	0.814
7.37812	0.808
7.41697	0.797
7.45583	0.76
7.49468	0.735
7.53354	0.719
7.57239	0.694
7.61125	0.636
7.6501	0.512
7.68896	0.23
7.72781	0.045
7.76667	0.096
7.80552	0.357
7.84438	0.457
7.88323	0.418
7.92209	0.252
7.96094	0.078
7.9998	0.033
8.03865	0.033
8.07751	0.035
8.11636	0.04
8.15522	0.107
8.19407	0.384
8.23293	0.549
8.27178	0.631
8.31063	0.682
8.34949	0.703
8.38834	0.679
8.4272	0.516
8.46605	0.198
8.50491	0.051
8.54376	0.26
8.58262	0.611
8.62147	0.711
8.66033	0.727
8.69918	0.737
8.73804	0.792
8.77689	0.798
8.81575	0.806
8.8546	0.797
8.89346	0.681
8.93231	0.56
8.97117	0.46
9.01002	0.304
9.04888	0.495
9.08773	0.745
9.12659	0.784
9.16544	0.8
9.2043	0.8
9.24315	0.793
9.28201	0.763
9.32086	0.75
9.35972	0.719
9.39857	0.658
9.43743	0.603
9.47628	0.507
9.51514	0.333
9.55399	0.17
9.59285	0.045
9.6317	0.04
9.67056	0.04
9.70941	0.075
9.74827	0.194
9.78712	0.368
9.82597	0.494
9.86483	0.568
9.90368	0.637
9.94254	0.71
9.98139	0.75
10.0202	0.766
10.0591	0.764
10.098	0.76
10.1368	0.761
10.1757	0.776
10.2145	0.798
10.2534	0.809
10.2922	0.827
10.3311	0.832
10.3699	0.834
10.4088	0.832
10.4477	0.826
10.4865	0.819
10.5254	0.811
10.5642	0.821
10.6031	0.83
10.6419	0.842
10.6808	0.848
10.7196	0.853
10.7585	0.853
10.7973	0.84
10.8362	0.818
10.8751	0.808
10.9139	0.83
10.9528	0.851
10.9916	0.866
11.0305	0.871
11.0693	0.879
11.1082	0.877
11.147	0.877
11.1859	0.871
11.2248	0.871
11.2636	0.867
11.3025	0.863
11.3413	0.851
11.3802	0.847
11.419	0.847
11.4579	0.853
11.4967	0.845
11.5356	0.843
11.5744	0.84
11.6133	0.84
11.6522	0.829
11.691	0.824
11.7299	0.818
11.7687	0.805
11.8076	0.797
11.8464	0.774
11.8853	0.742
11.9241	0.695
11.963	0.636
12.0018	0.57
12.0407	0.492
12.0796	0.392
12.1184	0.265
12.1573	0.172
12.1961	0.082
12.235	0.046
12.2738	0.04
12.3127	0.04
12.3515	0.045
12.3904	0.046
12.4293	0.049
12.4681	0.057
12.507	0.107
12.5458	0.249
12.5847	0.446
12.6235	0.584
12.6624	0.673
12.7012	0.737
12.7401	0.771
12.7789	0.78
12.8178	0.8
12.8567	0.821
12.8955	0.83
12.9344	0.84
12.9732	0.84
13.0121	0.843
13.0509	0.842
13.0898	0.837
13.1286	0.819
13.1675	0.782
13.2063	0.735
13.2452	0.7
13.2841	0.685
13.3229	0.711
13.3618	0.753
13.4006	0.789
13.4395	0.803
13.4783	0.822
13.5172	0.835
13.556	0.838
13.5949	0.842
13.6338	0.843
13.6726	0.835
13.7115	0.814
13.7503	0.797
13.7892	0.737
13.828	0.65
13.8669	0.471
13.9057	0.247
13.9446	0.152
13.9834	0.23
14.0223	0.438
14.0612	0.576
14.1	0.681
14.1389	0.732
14.1777	0.752
14.2166	0.748
14.2554	0.713
14.2943	0.713
14.3331	0.752
14.372	0.792
14.4109	0.806
14.4497	0.813
14.4886	0.801
14.5274	0.797
14.5663	0.801
14.6051	0.814
14.644	0.829
14.6828	0.832
14.7217	0.843
14.7605	0.842
14.7994	0.837
14.8383	0.838
14.8771	0.842
14.916	0.84
14.9548	0.835
14.9937	0.838
15.0325	0.809
15.0714	0.789
15.1102	0.792
15.1491	0.811
15.1879	0.822
15.2268	0.814
15.2657	0.808
15.3045	0.8
15.3434	0.797
15.3822	0.792
15.4211	0.785
15.4599	0.779
15.4988	0.777
15.5376	0.771
15.5765	0.766
15.6154	0.764
15.6542	0.753
15.6931	0.747
15.7319	0.732
15.7708	0.732
15.8096	0.729
15.8485	0.726
15.8873	0.726
15.9262	0.723
15.965	0.718
16.0039	0.713
