Infrared Spectrum: BENZENE, BUTYL-
Formula: C10 H14
CAS: 104-51-8
State: LIQUID (NEAT)
Class: COBLENTZ III
Instrument: PERKIN-ELMER 521 (GRATING)
Sampling: TRANSMISSION
Path length: 0.0024 CM
Resolution: 4
Origin: STANDARD OIL OF OHIO
1/CM	TRANSMITTANCE
600.088	0.598
609.29	0.593
618.493	0.607
627.695	0.616
636.898	0.6329
646.1	0.6519
655.303	0.6707
664.505	0.6819
673.708	0.6753
682.91	0.5797
692.112	0.1732
701.315	0.1352
710.517	0.4166
719.72	0.4024
728.922	0.2322
738.125	0.1581
747.327	0.0862
756.53	0.4409
765.732	0.707
774.934	0.7434
784.137	0.718
793.339	0.8097
802.542	0.8255
811.744	0.8386
820.947	0.8372
830.149	0.869
839.352	0.8493
848.554	0.8683
857.756	0.8867
866.959	0.884
876.161	0.8734
885.364	0.8589
894.566	0.839
903.769	0.7956
912.971	0.7573
922.173	0.8213
931.376	0.7788
940.578	0.8234
949.781	0.858
958.983	0.8404
968.186	0.827
977.388	0.842
986.591	0.843
995.793	0.8575
1005	0.8509
1014.2	0.8473
1023.4	0.7807
1032.6	0.6404
1041.81	0.8366
1051.01	0.7245
1060.21	0.6968
1069.41	0.8039
1078.62	0.8356
1087.82	0.8013
1097.02	0.737
1106.22	0.6986
1115.42	0.8234
1124.63	0.873
1133.83	0.8747
1143.03	0.8662
1152.23	0.8263
1161.44	0.8528
1170.64	0.8379
1179.84	0.808
1189.04	0.8124
1198.25	0.8152
1207.45	0.8531
1216.65	0.8673
1225.85	0.8634
1235.06	0.8427
1244.26	0.839
1253.46	0.8481
1262.66	0.8619
1271.87	0.849
1281.07	0.8328
1290.27	0.8088
1299.47	0.8091
1308.68	0.8069
1317.88	0.8
1327.08	0.7749
1336.28	0.76
1345.49	0.769
1354.69	0.783
1363.89	0.7511
1373.09	0.6212
1382.3	0.6544
1391.5	0.7885
1400.7	0.8112
1409.9	0.8001
1419.11	0.7669
1428.31	0.7322
1437.51	0.6724
1446.71	0.5294
1455.92	0.1557
1465.12	0.2883
1474.32	0.5996
1483.52	0.6626
1492.72	0.5231
1501.93	0.2822
1511.13	0.8618
1520.33	0.8838
1529.53	0.8832
1538.74	0.871
1547.94	0.894
1557.14	0.8968
1566.34	0.8906
1575.55	0.8709
1584.75	0.7914
1593.95	0.7794
1603.15	0.5948
1612.36	0.6887
1621.56	0.8803
1630.76	0.9046
1639.96	0.907
1649.17	0.9044
1658.37	0.901
1667.57	0.9126
1676.77	0.9216
1685.98	0.921
1695.18	0.922
1704.38	0.924
1713.58	0.924
1722.79	0.917
1731.99	0.905
1741.19	0.8991
1750.39	0.9005
1759.6	0.9086
1768.8	0.918
1778	0.9097
1787.2	0.9102
1796.41	0.8798
1805.61	0.8215
1814.81	0.8888
1824.01	0.9004
1833.22	0.9193
1842.42	0.9143
1851.62	0.8913
1860.82	0.8827
1870.03	0.8534
1879.23	0.8655
1888.43	0.8823
1897.63	0.9018
1906.83	0.9213
1916.04	0.9208
1925.24	0.9088
1934.44	0.8784
1943.64	0.7831
1952.85	0.8473
1962.05	0.8654
1971.25	0.9089
1980.45	0.9208
1989.66	0.921
1998.86	0.926
2008.06	0.925
2017.26	0.924
2026.47	0.924
2035.67	0.925
2044.87	0.926
2054.07	0.9277
2063.28	0.925
2072.48	0.925
2081.68	0.928
2090.88	0.928
2100.09	0.928
2109.29	0.926
2118.49	0.9251
2127.69	0.925
2136.9	0.9249
2146.1	0.924
2155.3	0.924
2164.5	0.922
2173.71	0.9219
2182.91	0.922
2192.11	0.9223
2201.31	0.9236
2210.52	0.921
2219.72	0.922
2228.92	0.9201
2238.12	0.92
2247.33	0.9197
2256.53	0.921
2265.73	0.92
2274.93	0.92
2284.13	0.918
2293.34	0.917
2302.54	0.918
2311.74	0.9113
2320.94	0.921
2330.15	0.917
2339.35	0.9161
2348.55	0.92
2357.75	0.92
2366.96	0.92
2376.16	0.917
2385.36	0.918
2394.56	0.9183
2403.77	0.918
2412.97	0.9197
2422.17	0.918
2431.37	0.92
2440.58	0.922
2449.78	0.922
2458.98	0.9237
2468.18	0.924
2477.39	0.922
2486.59	0.922
2495.79	0.9124
2504.99	0.9179
2514.2	0.9169
2523.4	0.916
2532.6	0.9119
2541.8	0.911
2551.01	0.909
2560.21	0.908
2569.41	0.903
2578.61	0.899
2587.82	0.899
2597.02	0.8977
2606.22	0.8941
2615.42	0.898
2624.63	0.8917
2633.83	0.884
2643.03	0.881
2652.23	0.879
2661.44	0.881
2670.64	0.879
2679.84	0.882
2689.04	0.8843
2698.24	0.8903
2707.45	0.8897
2716.65	0.884
2725.85	0.8766
2735.05	0.86
2744.26	0.8674
2753.46	0.878
2762.66	0.8727
2771.86	0.8606
2781.07	0.8483
2790.27	0.8279
2799.47	0.8145
2808.67	0.7965
2817.88	0.7635
2827.08	0.7171
2836.28	0.6234
2845.48	0.5002
2854.69	0.2238
2863.89	0.07
2873.09	0.108
2882.29	0.1401
2891.5	0.2879
2900.7	0.2178
2909.9	0.1628
2919.1	0.0706
2928.31	0.0297
2937.51	0.0283
2946.71	0.0501
2955.91	0.0468
2965.12	0.032
2974.32	0.0908
2983.52	0.3624
2992.72	0.5462
3001.93	0.5659
3011.13	0.5583
3020.33	0.4945
3029.53	0.2181
3038.74	0.221
3047.94	0.5299
3057.14	0.5606
3066.34	0.3829
3075.55	0.4806
3084.75	0.5559
3093.95	0.5173
3103.15	0.7536
3112.35	0.747
3121.56	0.8491
3130.76	0.8771
3139.96	0.883
3149.16	0.884
3158.37	0.8829
3167.57	0.8811
3176.77	0.891
3185.97	0.894
3195.18	0.898
3204.38	0.9
3213.58	0.905
3222.78	0.908
3231.99	0.911
3241.19	0.911
3250.39	0.9133
3259.59	0.915
3268.8	0.916
3278	0.9161
3287.2	0.917
3296.4	0.918
3305.61	0.918
3314.81	0.9179
3324.01	0.916
3333.21	0.916
3342.42	0.913
3351.62	0.913
3360.82	0.911
3370.02	0.9111
3379.23	0.912
3388.43	0.911
3397.63	0.911
3406.83	0.911
3416.04	0.909
3425.24	0.911
3434.44	0.909
3443.64	0.908
3452.85	0.908
3462.05	0.905
3471.25	0.9009
3480.45	0.8949
3489.65	0.892
3498.86	0.8941
3508.06	0.896
3517.26	0.8991
3526.46	0.905
3535.67	0.9067
3544.87	0.909
3554.07	0.909
3563.27	0.909
3572.48	0.908
3581.68	0.905
3590.88	0.908
3600.08	0.908
3609.29	0.904
3618.49	0.901
3627.69	0.901
3636.89	0.901
3646.1	0.9009
3655.3	0.9013
3664.5	0.903
3673.7	0.903
3682.91	0.903
3692.11	0.903
3701.31	0.903
3710.51	0.903
3719.72	0.903
3728.92	0.903
3738.12	0.903
3747.32	0.901
3756.53	0.9
3765.73	0.9
3774.93	0.9
3784.13	0.9
3793.34	0.9
3802.54	0.9
3811.74	0.9
3820.94	0.9
3830.15	0.9
3839.35	0.9
3848.55	0.9
3857.75	0.9
3866.96	0.9
3876.16	0.9
3885.36	0.9
3894.56	0.899
3903.76	0.899
3912.97	0.899
3922.17	0.899
3931.37	0.898
3940.57	0.898
3949.78	0.9
3958.98	0.899
3968.18	0.899
3977.38	0.899
3986.59	0.899
