Infrared Spectrum: HEXANOL, 2-ETHYL-
Formula: C8 H18 O
CAS: 104-76-7
State: SOLUTION (10% IN CCl4 FOR 3800-1300, 10% IN CS2 FOR 1300-650, 10% IN CCl4 FOR 650-240 CM^-^1) VERSUS SOLVENT
Class: COBLENTZ III
Instrument: PERKIN-ELMER 521 (GRATING)
Instrument parameters: FILTERS AT 3150, 2500, 2000, 1150, 700, 410; GRATING CHANGES AT 2000, 630 CM^-^1
Sampling: TRANSMISSION
Path length: 0.012, 0.012, AND 0.010 CM (CsBr CELL)
Resolution: 4
Origin: DOW CORNING CORP.
1/CM	TRANSMITTANCE
233.498	0.659
243.35	0.665
253.202	0.681
263.055	0.69
272.907	0.693
282.759	0.701
292.611	0.731
302.463	0.747
312.316	0.76
322.168	0.776
332.02	0.784
341.872	0.801
351.725	0.806
361.577	0.801
371.429	0.805
381.281	0.802
391.133	0.794
400.986	0.79
410.838	0.784
420.69	0.78
430.542	0.776
440.394	0.768
450.247	0.756
460.099	0.747
469.951	0.741
479.803	0.732
489.655	0.729
499.508	0.731
509.36	0.727
519.212	0.717
529.064	0.706
538.916	0.706
548.769	0.708
558.621	0.708
568.473	0.708
578.325	0.706
588.178	0.705
598.03	0.705
607.882	0.704
617.734	0.704
627.586	0.701
637.439	0.701
647.291	0.704
657.143	0.705
666.995	0.712
676.847	0.723
686.7	0.731
696.552	0.737
706.404	0.743
716.256	0.715
726.108	0.606
735.961	0.713
745.813	0.751
755.665	0.721
765.517	0.645
775.369	0.701
785.222	0.751
795.074	0.814
804.926	0.819
814.778	0.803
824.631	0.766
834.483	0.818
844.335	0.845
854.187	0.823
864.039	0.829
873.892	0.826
883.744	0.795
893.596	0.727
903.448	0.741
913.3	0.768
923.153	0.731
933.005	0.74
942.857	0.678
952.709	0.53
962.561	0.596
972.414	0.658
982.266	0.612
992.118	0.592
1001.97	0.467
1011.82	0.326
1021.67	0.275
1031.53	0.081
1041.38	0.146
1051.23	0.29
1061.08	0.455
1070.94	0.569
1080.79	0.607
1090.64	0.686
1100.49	0.668
1110.34	0.576
1120.2	0.606
1130.05	0.698
1139.9	0.709
1149.75	0.724
1159.61	0.795
1169.46	0.791
1179.31	0.766
1189.16	0.711
1199.01	0.676
1208.87	0.68
1218.72	0.67
1228.57	0.685
1238.42	0.711
1248.28	0.706
1258.13	0.697
1267.98	0.693
1277.83	0.688
1287.68	0.681
1297.54	0.677
1307.39	0.672
1317.24	0.67
1327.09	0.663
1336.95	0.641
1346.8	0.641
1356.65	0.633
1366.5	0.59
1376.35	0.301
1386.21	0.544
1396.06	0.604
1405.91	0.633
1415.76	0.662
1425.62	0.646
1435.47	0.602
1445.32	0.446
1455.17	0.189
1465.02	0.188
1474.88	0.532
1484.73	0.719
1494.58	0.798
1504.43	0.817
1514.29	0.834
1524.14	0.842
1533.99	0.845
1543.84	0.844
1553.69	0.85
1563.55	0.857
1573.4	0.861
1583.25	0.865
1593.1	0.875
1602.95	0.877
1612.81	0.879
1622.66	0.881
1632.51	0.883
1642.36	0.885
1652.22	0.887
1662.07	0.891
1671.92	0.892
1681.77	0.892
1691.62	0.893
1701.48	0.9
1711.33	0.897
1721.18	0.893
1731.03	0.904
1740.89	0.901
1750.74	0.904
1760.59	0.907
1770.44	0.908
1780.29	0.909
1790.15	0.911
1800	0.912
1809.85	0.912
1819.7	0.911
1829.56	0.912
1839.41	0.912
1849.26	0.911
1859.11	0.913
1868.96	0.911
1878.82	0.909
1888.67	0.912
1898.52	0.909
1908.37	0.908
1918.23	0.911
1928.08	0.909
1937.93	0.908
1947.78	0.909
1957.63	0.913
1967.49	0.912
1977.34	0.907
1987.19	0.911
1997.04	0.901
2006.9	0.908
2016.75	0.903
2026.6	0.8995
2036.45	0.9
2046.3	0.8981
2056.16	0.9
2066.01	0.895
2075.86	0.8979
2085.71	0.9
2095.57	0.9022
2105.42	0.904
2115.27	0.901
2125.12	0.899
2134.97	0.899
2144.83	0.8958
2154.68	0.893
2164.53	0.8949
2174.38	0.893
2184.24	0.893
2194.09	0.8963
2203.94	0.8927
2213.79	0.897
2223.64	0.897
2233.5	0.8953
2243.35	0.895
2253.2	0.892
2263.05	0.893
2272.91	0.893
2282.76	0.889
2292.61	0.8895
2302.46	0.8918
2312.31	0.889
2322.17	0.888
2332.02	0.887
2341.87	0.8826
2351.72	0.881
2361.58	0.8838
2371.43	0.8785
2381.28	0.875
2391.13	0.873
2400.98	0.8728
2410.84	0.8729
2420.69	0.8721
2430.54	0.8721
2440.39	0.873
2450.24	0.873
2460.1	0.8729
2469.95	0.87
2479.8	0.8687
2489.65	0.864
2499.51	0.8619
2509.36	0.858
2519.21	0.854
2529.06	0.8531
2538.91	0.852
2548.77	0.849
2558.62	0.8409
2568.47	0.833
2578.32	0.829
2588.18	0.825
2598.03	0.822
2607.88	0.819
2617.73	0.819
2627.58	0.815
2637.44	0.813
2647.29	0.8072
2657.14	0.794
2666.99	0.7841
2676.85	0.784
2686.7	0.7802
2696.55	0.7762
2706.4	0.7662
2716.25	0.7544
2726.11	0.721
2735.96	0.7165
2745.81	0.7267
2755.66	0.7281
2765.52	0.7136
2775.37	0.7014
2785.22	0.6728
2795.07	0.6507
2804.92	0.6143
2814.78	0.5828
2824.63	0.5043
2834.48	0.4272
2844.33	0.3332
2854.19	0.0387
2864.04	0.03
2873.89	0.0153
2883.74	0.07
2893.59	0.0652
2903.45	0.0228
2913.3	0.0053
2923.15	0
2933	0.0007
2942.86	0.0246
2952.71	0.001
2962.56	0.0054
2972.41	0.0859
2982.26	0.3091
2992.12	0.5128
3001.97	0.6065
3011.82	0.6712
3021.67	0.6991
3031.53	0.7246
3041.38	0.7435
3051.23	0.7539
3061.08	0.7612
3070.93	0.762
3080.79	0.76
3090.64	0.759
3100.49	0.758
3110.34	0.7493
3120.2	0.741
3130.05	0.7373
3139.9	0.7208
3149.75	0.7049
3159.6	0.6859
3169.46	0.6673
3179.31	0.6479
3189.16	0.6285
3199.01	0.6005
3208.86	0.5731
3218.72	0.5426
3228.57	0.5111
3238.42	0.4818
3248.27	0.4471
3258.13	0.4176
3267.98	0.3849
3277.83	0.3586
3287.68	0.3339
3297.53	0.3124
3307.39	0.2872
3317.24	0.2752
3327.09	0.2612
3336.94	0.258
3346.8	0.255
3356.65	0.2567
3366.5	0.2647
3376.35	0.2743
3386.2	0.2887
3396.06	0.304
3405.91	0.3263
3415.76	0.3373
3425.61	0.3586
3435.47	0.3796
3445.32	0.3993
3455.17	0.4198
3465.02	0.4446
3474.87	0.4598
3484.73	0.488
3494.58	0.5055
3504.43	0.5402
3514.28	0.5658
3524.14	0.6096
3533.99	0.6557
3543.84	0.7001
3553.69	0.743
3563.54	0.7812
3573.4	0.8132
3583.25	0.8166
3593.1	0.8093
3602.95	0.7625
3612.81	0.6734
3622.66	0.579
3632.51	0.5491
3642.36	0.7037
3652.21	0.8344
3662.07	0.8611
3671.92	0.8654
3681.77	0.8812
3691.62	0.8841
3701.48	0.889
3711.33	0.891
3721.18	0.8911
3731.03	0.8931
3740.88	0.895
3750.74	0.892
3760.59	0.892
3770.44	0.892
3780.29	0.893
