Infrared Spectrum: BENZALDEHYDE, 4-CHLORO-
Formula: C7 H5 Cl O
CAS: 104-88-1
State: SOLUTION (2% IN CCl4 FOR 3800-1330, 2% IN CS2 FOR 1330-400 CM^-^1)
Class: COBLENTZ III
Instrument: DOW KBr FOREPRISM-GRATING
Instrument parameters: BLAZED AT 3.5, 12.0, 20.0 MICRON, CHANGED AT 5.0, 7.5, 14.9 MICRON
Sampling: TRANSMISSION
Path length: 0.011, 0.010 CM
Resolution: 4
Origin: DOW CHEMICAL COMPANY
1/CM	TRANSMITTANCE
381.855	0.128
390.606	0.158
399.358	0.236
408.109	0.515
416.861	0.726
425.612	0.787
434.364	0.815
443.115	0.839
451.867	0.846
460.618	0.841
469.37	0.837
478.121	0.774
486.873	0.781
495.624	0.846
504.376	0.86
513.127	0.87
521.879	0.872
530.63	0.87
539.382	0.763
548.133	0.871
556.884	0.891
565.636	0.894
574.387	0.897
583.139	0.898
591.89	0.9
600.642	0.901
609.393	0.898
618.145	0.887
626.896	0.882
635.648	0.896
644.399	0.886
653.151	0.878
661.902	0.912
670.654	0.927
679.405	0.939
688.157	0.948
696.908	0.926
705.66	0.946
714.411	0.96
723.162	0.968
731.914	0.978
740.665	0.978
749.417	0.98
758.168	0.983
766.92	0.986
775.671	0.983
784.423	0.958
793.174	0.96
801.926	0.958
810.677	0.897
819.429	0.261
828.18	0.748
836.932	0.4399
845.683	0.849
854.435	0.831
863.186	0.856
871.938	0.901
880.689	0.939
889.441	0.98
898.192	1.005
906.943	1.017
915.695	1.02
924.446	1.021
933.198	1.016
941.949	1.012
950.701	1.009
959.452	0.998
968.204	0.994
976.955	0.995
985.707	0.995
994.458	0.98
1003.21	0.952
1011.96	0.8088
1020.71	0.948
1029.46	0.946
1038.22	0.945
1046.97	0.935
1055.72	0.928
1064.47	0.923
1073.22	0.885
1081.97	0.771
1090.72	0.6779
1099.48	0.6961
1108.23	0.896
1116.98	0.904
1125.73	0.906
1134.48	0.92
1143.23	0.926
1151.98	0.913
1160.74	0.8589
1169.49	0.867
1178.24	0.924
1186.99	0.906
1195.74	0.86
1204.49	0.5078
1213.25	0.871
1222	0.923
1230.75	0.931
1239.5	0.932
1248.25	0.935
1257	0.935
1265.75	0.934
1274.51	0.922
1283.26	0.876
1292.01	0.902
1300.76	0.868
1309.51	0.916
1318.26	0.909
1327.01	0.927
1335.77	0.932
1344.52	0.926
1353.27	0.893
1362.02	0.894
1370.77	0.902
1379.52	0.846
1388.27	0.833
1397.03	0.887
1405.78	0.902
1414.53	0.88
1423.28	0.904
1432.03	0.924
1440.78	0.923
1449.53	0.923
1458.29	0.911
1467.04	0.902
1475.79	0.893
1484.54	0.7999
1493.29	0.7631
1502.04	0.819
1510.8	0.764
1519.55	0.719
1528.3	0.673
1537.05	0.588
1545.8	0.5
1554.55	0.478
1563.3	0.533
1572.06	0.549
1580.81	0.3035
1589.56	0.443
1598.31	0.347
1607.06	0.7081
1615.81	0.853
1624.56	0.89
1633.32	0.905
1642.07	0.905
1650.82	0.898
1659.57	0.87
1668.32	0.861
1677.07	0.844
1685.82	0.876
1694.58	0.856
1703.33	0.4998
1712.08	0.046
1720.83	0.7811
1729.58	0.898
1738.33	0.919
1747.08	0.915
1755.84	0.941
1764.59	0.943
1773.34	0.95
1782.09	0.953
1790.84	0.946
1799.59	0.943
1808.35	0.953
1817.1	0.952
1825.85	0.953
1834.6	0.953
1843.35	0.952
1852.1	0.957
1860.85	0.956
1869.61	0.953
1878.36	0.954
1887.11	0.954
1895.86	0.952
1904.61	0.953
1913.36	0.935
1922.11	0.957
1930.87	0.961
1939.62	0.958
1948.37	0.965
1957.12	0.964
1965.87	0.961
1974.62	0.957
1983.37	0.957
1992.13	0.954
2000.88	0.953
2009.63	0.9535
2018.38	0.957
2027.13	0.9535
2035.88	0.953
2044.64	0.954
2053.39	0.961
2062.14	0.961
2070.89	0.9485
2079.64	0.964
2088.39	0.964
2097.14	0.965
2105.9	0.9661
2114.65	0.967
2123.4	0.963
2132.15	0.9659
2140.9	0.9657
2149.65	0.963
2158.4	0.96
2167.16	0.965
2175.91	0.967
2184.66	0.967
2193.41	0.9658
2202.16	0.965
2210.91	0.9658
2219.66	0.967
2228.42	0.9646
2237.17	0.961
2245.92	0.96
2254.67	0.9593
2263.42	0.953
2272.17	0.949
2280.92	0.945
2289.68	0.9424
2298.43	0.942
2307.18	0.9423
2315.93	0.943
2324.68	0.9467
2333.43	0.946
2342.19	0.9473
2350.94	0.957
2359.69	0.95
2368.44	0.9523
2377.19	0.9573
2385.94	0.961
2394.69	0.963
2403.45	0.9577
2412.2	0.96
2420.95	0.967
2429.7	0.9656
2438.45	0.965
2447.2	0.963
2455.95	0.968
2464.71	0.967
2473.46	0.967
2482.21	0.969
2490.96	0.9702
2499.71	0.964
2508.46	0.9655
2517.21	0.967
2525.97	0.967
2534.72	0.965
2543.47	0.965
2552.22	0.9626
2560.97	0.9596
2569.72	0.958
2578.48	0.958
2587.23	0.957
2595.98	0.9584
2604.73	0.9642
2613.48	0.965
2622.23	0.967
2630.98	0.9648
2639.74	0.965
2648.49	0.964
2657.24	0.961
2665.99	0.9597
2674.74	0.9557
2683.49	0.9515
2692.24	0.9404
2701	0.9304
2709.75	0.9199
2718.5	0.8838
2727.25	0.8523
2736	0.8855
2744.75	0.9204
2753.5	0.927
2762.26	0.9235
2771.01	0.912
2779.76	0.9161
2788.51	0.9199
2797.26	0.9128
2806.01	0.8749
2814.76	0.863
2823.52	0.8494
2832.27	0.8349
2841.02	0.9011
2849.77	0.9423
2858.52	0.954
2867.27	0.9353
2876.03	0.961
2884.78	0.964
2893.53	0.961
2902.28	0.961
2911.03	0.964
2919.78	0.963
2928.53	0.958
2937.29	0.9599
2946.04	0.957
2954.79	0.958
2963.54	0.9601
2972.29	0.963
2981.04	0.965
2989.79	0.965
2998.55	0.965
3007.3	0.968
3016.05	0.968
3024.8	0.965
3033.55	0.965
3042.3	0.968
3051.05	0.964
3059.81	0.9691
3068.56	0.9669
3077.31	0.972
3086.06	0.967
3094.81	0.969
3103.56	0.976
3112.31	0.9748
3121.07	0.978
3129.82	0.979
3138.57	0.982
3147.32	0.98
3156.07	0.98
3164.82	0.98
3173.58	0.98
3182.33	0.979
3191.08	0.979
3199.83	0.982
3208.58	0.982
3217.33	0.9802
3226.08	0.98
3234.84	0.98
3243.59	0.979
3252.34	0.9789
3261.09	0.978
3269.84	0.978
3278.59	0.978
3287.34	0.978
3296.1	0.976
3304.85	0.976
3313.6	0.9777
3322.35	0.976
3331.1	0.976
3339.85	0.975
3348.6	0.974
3357.36	0.972
3366.11	0.9694
3374.86	0.967
3383.61	0.963
3392.36	0.964
3401.11	0.9564
3409.87	0.9568
3418.62	0.9678
3427.37	0.971
3436.12	0.968
3444.87	0.9706
3453.62	0.972
3462.37	0.972
3471.13	0.972
3479.88	0.972
3488.63	0.974
3497.38	0.974
3506.13	0.974
3514.88	0.976
3523.63	0.9753
3532.39	0.9743
3541.14	0.974
3549.89	0.9787
3558.64	0.9753
3567.39	0.976
3576.14	0.978
3584.89	0.976
3593.65	0.9787
3602.4	0.976
3611.15	0.9753
3619.9	0.975
3628.65	0.976
3637.4	0.976
3646.15	0.975
3654.91	0.9767
3663.66	0.976
3672.41	0.9767
3681.16	0.978
3689.91	0.98
3698.66	0.979
3707.42	0.978
3716.17	0.9756
3724.92	0.976
3733.67	0.9767
3742.42	0.979
3751.17	0.9754
3759.92	0.9756
3768.68	0.976
3777.43	0.9768
3786.18	0.9754
3794.93	0.974
