Infrared Spectrum: N,N-DIETHYL-1,3-PROPANEDIAMINE
Formula: C7 H18 N2
CAS: 104-78-9
State: LIQUID (NEAT)
Class: COBLENTZ III
Instrument: BECKMAN IR-4 (HYBRID PRISM-GRATING)
Sampling: TRANSMISSION
Path length: CAPILLARY
Resolution: 4
Origin: UNIVERSITY OF FLORIDA
MICROMETERS	TRANSMITTANCE
0.975	0.85
1.01162	0.853
1.04824	0.858
1.08486	0.858
1.12148	0.854
1.1581	0.86
1.19472	0.861
1.23134	0.861
1.26796	0.856
1.30457	0.844
1.34119	0.859
1.37781	0.864
1.41443	0.864
1.45105	0.864
1.48767	0.86
1.52429	0.855
1.56091	0.852
1.59753	0.856
1.63415	0.864
1.67077	0.867
1.70739	0.868
1.74401	0.868
1.78063	0.868
1.81725	0.868
1.85387	0.866
1.89049	0.859
1.9271	0.848
1.96372	0.861
2.00034	0.866
2.03696	0.866
2.07358	0.866
2.1102	0.867
2.14682	0.863
2.18344	0.853
2.22006	0.812
2.25668	0.783
2.2933	0.796
2.32992	0.803
2.36654	0.804
2.40316	0.819
2.43978	0.822
2.4764	0.834
2.51301	0.844
2.54963	0.852
2.58625	0.852
2.62287	0.849
2.65949	0.84
2.69611	0.828
2.73273	0.819
2.76935	0.8
2.80597	0.773
2.84259	0.74
2.87921	0.701
2.91583	0.651
2.95245	0.54
2.98907	0.43
3.02569	0.442
3.06231	0.423
3.09893	0.509
3.13554	0.553
3.17216	0.601
3.20878	0.669
3.2454	0.671
3.28202	0.652
3.31864	0.554
3.35526	0.131
3.39188	0.009
3.4285	0.028
3.46512	0.046
3.50174	0.049
3.53836	0.03
3.57498	0.045
3.6116	0.158
3.64822	0.255
3.68484	0.353
3.72146	0.492
3.75807	0.537
3.79469	0.613
3.83131	0.695
3.86793	0.718
3.90455	0.739
3.94117	0.783
3.97779	0.804
4.01441	0.827
4.05103	0.834
4.08765	0.834
4.12427	0.836
4.16089	0.839
4.19751	0.839
4.23413	0.84
4.27075	0.84
4.30737	0.84
4.34399	0.84
4.3806	0.84
4.41722	0.84
4.45384	0.842
4.49046	0.842
4.52708	0.842
4.5637	0.843
4.60032	0.845
4.63694	0.846
4.67356	0.847
4.71018	0.849
4.7468	0.85
4.78342	0.85
4.82004	0.85
4.85666	0.853
4.89328	0.852
4.9299	0.85
4.96651	0.845
5.00313	0.842
5.03975	0.842
5.07637	0.844
5.11299	0.842
5.14961	0.84
5.18623	0.838
5.22285	0.838
5.25947	0.834
5.29609	0.829
5.33271	0.83
5.36933	0.83
5.40595	0.83
5.44257	0.835
5.47919	0.836
5.51581	0.837
5.55243	0.838
5.58904	0.841
5.62566	0.839
5.66228	0.839
5.6989	0.832
5.73552	0.825
5.77214	0.821
5.80876	0.813
5.84538	0.794
5.882	0.768
5.91862	0.749
5.95524	0.721
5.99186	0.701
6.02848	0.662
6.0651	0.608
6.10172	0.57
6.13834	0.518
6.17496	0.468
6.21157	0.46
6.24819	0.462
6.28481	0.475
6.32143	0.503
6.35805	0.543
6.39467	0.583
6.43129	0.633
6.46791	0.65
6.50453	0.661
6.54115	0.658
6.57777	0.653
6.61439	0.645
6.65101	0.636
6.68763	0.599
6.72425	0.474
6.76087	0.299
6.79749	0.13
6.8341	0.157
6.87072	0.189
6.90734	0.224
6.94396	0.308
6.98058	0.449
7.0172	0.56
7.05382	0.59
7.09044	0.587
7.12706	0.508
7.16368	0.328
7.2003	0.188
7.23692	0.081
7.27354	0.103
7.31016	0.15
7.34678	0.277
7.3834	0.307
7.42001	0.3
7.45663	0.334
7.49325	0.384
7.52987	0.438
7.56649	0.436
7.60311	0.409
7.63973	0.367
7.67635	0.32
7.71297	0.254
7.74959	0.243
7.78621	0.298
7.82283	0.393
7.85945	0.475
7.89607	0.514
7.93269	0.54
7.96931	0.53
8.00593	0.51
8.04254	0.505
8.07916	0.51
8.11578	0.527
8.1524	0.529
8.18902	0.492
8.22564	0.379
8.26226	0.257
8.29888	0.154
8.3355	0.12
8.37212	0.199
8.40874	0.307
8.44536	0.361
8.48198	0.379
8.5186	0.387
8.55522	0.385
8.59184	0.379
8.62846	0.378
8.66507	0.377
8.70169	0.374
8.73831	0.364
8.77493	0.347
8.81155	0.319
8.84817	0.3
8.88479	0.293
8.92141	0.281
8.95803	0.278
8.99465	0.277
9.03127	0.274
9.06789	0.259
9.10451	0.221
9.14113	0.172
9.17775	0.138
9.21437	0.124
9.25099	0.128
9.2876	0.129
9.32422	0.11
9.36084	0.107
9.39746	0.128
9.43408	0.168
9.4707	0.219
9.50732	0.299
9.54394	0.358
9.58056	0.399
9.61718	0.439
9.6538	0.473
9.69042	0.478
9.72704	0.478
9.76366	0.475
9.80028	0.478
9.8369	0.484
9.87351	0.488
9.91013	0.487
9.94675	0.481
9.98337	0.472
10.02	0.472
10.0566	0.48
10.0932	0.486
10.1299	0.491
10.1665	0.5
10.2031	0.508
10.2397	0.513
10.2763	0.509
10.3129	0.504
10.3496	0.501
10.3862	0.503
10.4228	0.508
10.4594	0.519
10.496	0.531
10.5327	0.532
10.5693	0.521
10.6059	0.509
10.6425	0.496
10.6791	0.477
10.7158	0.455
10.7524	0.439
10.789	0.425
10.8256	0.41
10.8622	0.397
10.8989	0.381
10.9355	0.369
10.9721	0.355
11.0087	0.342
11.0453	0.33
11.082	0.326
11.1186	0.318
11.1552	0.308
11.1918	0.293
11.2284	0.277
11.2651	0.258
11.3017	0.247
11.3383	0.24
11.3749	0.235
11.4115	0.232
11.4481	0.231
11.4848	0.232
11.5214	0.235
11.558	0.237
11.5946	0.239
11.6312	0.24
11.6679	0.239
11.7045	0.235
11.7411	0.231
11.7777	0.223
11.8143	0.218
11.851	0.209
11.8876	0.201
11.9242	0.192
11.9608	0.181
11.9974	0.172
12.0341	0.167
12.0707	0.159
12.1073	0.15
12.1439	0.145
12.1805	0.14
12.2172	0.137
12.2538	0.131
12.2904	0.127
12.327	0.126
12.3636	0.126
12.4003	0.126
12.4369	0.127
12.4735	0.128
12.5101	0.13
12.5467	0.138
12.5834	0.144
12.62	0.152
12.6566	0.157
12.6932	0.16
12.7298	0.168
12.7664	0.17
12.8031	0.175
12.8397	0.178
12.8763	0.188
12.9129	0.203
12.9495	0.211
12.9862	0.227
13.0228	0.247
13.0594	0.257
13.096	0.269
13.1326	0.278
13.1693	0.287
13.2059	0.297
13.2425	0.302
13.2791	0.31
13.3157	0.321
13.3524	0.33
13.389	0.341
13.4256	0.355
13.4622	0.363
13.4988	0.368
13.5355	0.368
13.5721	0.361
13.6087	0.351
13.6453	0.348
13.6819	0.337
13.7186	0.324
13.7552	0.318
13.7918	0.315
13.8284	0.319
13.865	0.33
13.9016	0.35
13.9383	0.378
13.9749	0.407
14.0115	0.438
14.0481	0.458
14.0847	0.477
14.1214	0.487
14.158	0.495
14.1946	0.501
14.2312	0.509
14.2678	0.514
14.3045	0.516
14.3411	0.519
14.3777	0.522
14.4143	0.525
14.4509	0.526
14.4876	0.526
14.5242	0.528
14.5608	0.528
14.5974	0.53
14.634	0.53
14.6707	0.531
14.7073	0.528
14.7439	0.529
14.7805	0.529
14.8171	0.529
14.8538	0.529
14.8904	0.526
14.927	0.527
14.9636	0.526
