Infrared Spectrum: HEXANENITRILE, 5-OXO-
Formula: C6 H9 N O
CAS: 10412-98-3
State: SOLUTION (10% CCl4 FOR 3800-400 CM^-^1)
Boiling point: 108 C AT 14 mmHg
Class: COBLENTZ III
Instrument: BECKMAN IR-9 (GRATING)
Instrument parameters: ORDER CHANGES: 670, 1200, 2000 CM^-^1
Sampling: TRANSMISSION
Path length: 0.011 CM
Resolution: 2
Origin: DOW CHEMICAL COMPANY
1/CM	TRANSMITTANCE
397	0.4892
406	0.4596
415	0.4623
424	0.4886
433	0.5246
442	0.5752
451	0.583
460	0.61
469	0.6276
478	0.6284
487	0.6683
496	0.7057
505	0.7225
514	0.7195
523	0.6794
532	0.6194
541	0.6742
550	0.6924
559	0.7301
568	0.765
577	0.7746
586	0.7632
595	0.6669
604	0.6152
613	0.734
622	0.7625
631	0.7456
640	0.8205
649	0.8258
658	0.8223
667	0.8105
676	0.7942
685	0.7632
694	0.7192
703	0.6453
712	0.5207
721	0.2682
730	0.1037
739	0.004
748	0
757	0
766	0
775	0
784	0
793	0.0001
802	0.0001
811	0.0001
820	0.0485
829	0.2331
838	0.4547
847	0.57
856	0.6585
865	0.683
874	0.6968
883	0.7554
892	0.7858
901	0.7931
910	0.7993
919	0.7943
928	0.7625
937	0.7018
946	0.5893
955	0.5703
964	0.5806
973	0.5796
982	0.5947
991	0.6362
1000	0.6253
1009	0.5415
1018	0.626
1027	0.7501
1036	0.785
1045	0.7843
1054	0.7155
1063	0.7236
1072	0.7215
1081	0.7393
1090	0.7843
1099	0.7875
1108	0.7807
1117	0.7741
1126	0.7731
1135	0.7551
1144	0.6951
1153	0.4812
1162	0.0573
1171	0.2222
1180	0.5024
1189	0.4322
1198	0.4025
1207	0.5045
1216	0.5327
1225	0.4468
1234	0.5026
1243	0.5797
1252	0.5457
1261	0.5293
1270	0.6157
1279	0.6561
1288	0.7005
1297	0.6883
1306	0.678
1315	0.526
1324	0.6379
1333	0.6225
1342	0.5649
1351	0.294
1360	0.1235
1369	0.0939
1378	0.129
1387	0.3944
1396	0.5133
1405	0.3874
1414	0.2166
1423	0.2142
1432	0.1817
1441	0.2895
1450	0.3487
1459	0.4092
1468	0.6055
1477	0.6906
1486	0.7093
1495	0.6992
1504	0.6658
1513	0.6259
1522	0.5665
1531	0.5559
1540	0.5017
1549	0.4386
1558	0.4279
1567	0.4886
1576	0.5471
1585	0.5695
1594	0.5885
1603	0.6764
1612	0.7269
1621	0.749
1630	0.7621
1639	0.7683
1648	0.7669
1657	0.7588
1666	0.74
1675	0.6696
1684	0.6121
1693	0.5677
1702	0.3721
1711	0.0638
1720	0.0023
1729	0.0005
1738	0.316
1747	0.5404
1756	0.621
1765	0.6894
1774	0.735
1783	0.7648
1792	0.7858
1801	0.8007
1810	0.8125
1819	0.823
1828	0.8321
1837	0.8373
1846	0.8409
1855	0.8451
1864	0.8467
1873	0.848
1882	0.8491
1891	0.8494
1900	0.8481
1909	0.8507
1918	0.8536
1927	0.8546
1936	0.8558
1945	0.8575
1954	0.8546
1963	0.8486
1972	0.8508
1981	0.8509
1990	0.851
1999	0.8509
2008	0.8508
2017	0.8507
2026	0.8507
2035	0.8518
2044	0.8531
2053	0.8546
2062	0.8561
2071	0.8568
2080	0.8565
2089	0.8552
2098	0.8532
2107	0.8512
2116	0.8503
2125	0.8505
2134	0.8518
2143	0.8523
2152	0.8524
2161	0.8525
2170	0.8524
2179	0.8521
2188	0.8516
2197	0.8509
2206	0.8502
2215	0.8478
2224	0.8424
2233	0.8214
2242	0.6269
2251	0.4851
2260	0.7025
2269	0.776
2278	0.8008
2287	0.8118
2296	0.8164
2305	0.8162
2314	0.8201
2323	0.824
2332	0.8243
2341	0.8241
2350	0.8261
2359	0.8311
2368	0.832
2377	0.8335
2386	0.8404
2395	0.8518
2404	0.8544
2413	0.8559
2422	0.857
2431	0.8574
2440	0.8571
2449	0.8571
2458	0.8575
2467	0.8571
2476	0.8567
2485	0.856
2494	0.8551
2503	0.8534
2512	0.8516
2521	0.851
2530	0.8538
2539	0.8574
2548	0.8581
2557	0.8574
2566	0.8564
2575	0.8556
2584	0.8548
2593	0.854
2602	0.8533
2611	0.8521
2620	0.8501
2629	0.8499
2638	0.8516
2647	0.8523
2656	0.8531
2665	0.8536
2674	0.8535
2683	0.8532
2692	0.8518
2701	0.8505
2710	0.8493
2719	0.8481
2728	0.847
2737	0.8458
2746	0.845
2755	0.8442
2764	0.8418
2773	0.8384
2782	0.834
2791	0.8286
2800	0.8178
2809	0.8085
2818	0.8071
2827	0.8068
2836	0.7906
2845	0.7701
2854	0.7594
2863	0.7291
2872	0.7119
2881	0.6901
2890	0.6474
2899	0.5737
2908	0.5582
2917	0.5706
2926	0.5441
2935	0.4622
2944	0.3993
2953	0.4176
2962	0.4423
2971	0.4589
2980	0.6214
2989	0.6892
2998	0.6812
3007	0.6592
3016	0.7268
3025	0.7556
3034	0.7706
3043	0.7821
3052	0.7905
3061	0.7961
3070	0.8005
3079	0.8048
3088	0.8091
3097	0.8132
3106	0.8169
3115	0.8209
3124	0.8251
3133	0.8291
3142	0.8325
3151	0.8353
3160	0.836
3169	0.8355
3178	0.8345
3187	0.8338
3196	0.8334
3205	0.8345
3214	0.8358
3223	0.8394
3232	0.8427
3241	0.8452
3250	0.8456
3259	0.8457
3268	0.8457
3277	0.8454
3286	0.8453
3295	0.8452
3304	0.845
3313	0.8446
3322	0.8441
3331	0.8435
3340	0.8428
3349	0.8423
3358	0.8415
3367	0.8408
3376	0.84
3385	0.8371
3394	0.8286
3403	0.8132
3412	0.7932
3421	0.7704
3430	0.7771
3439	0.8144
3448	0.829
3457	0.8357
3466	0.8392
3475	0.8412
3484	0.842
3493	0.8411
3502	0.8371
3511	0.8343
3520	0.8323
3529	0.8307
3538	0.8299
3547	0.8293
3556	0.8294
3565	0.8301
3574	0.8335
3583	0.8377
3592	0.8421
3601	0.8439
3610	0.8444
3619	0.8448
3628	0.8451
3637	0.8447
3646	0.8439
3655	0.8425
3664	0.8408
3673	0.8363
3682	0.8297
3691	0.8293
3700	0.8405
3709	0.8502
3718	0.8541
3727	0.8557
3736	0.8566
3745	0.857
3754	0.8571
3763	0.8575
3772	0.8575
3781	0.8577
3790	0.8578
3799	0.858
