Infrared Spectrum: ACETIC ACID, CYANO-, ETHYL ESTER
Formula: C5 H7 N O2
CAS: 105-56-6
State: LIQUID (NEAT)
Class: COBLENTZ III
Instrument: DOW KBr FOREPRISM-GRATING
Instrument parameters: BLAZED AT 3.5, 12.0, 20.0 MICRON AND CHANGED AT 5.0, 7.5, 14.9 MICRON
Sampling: TRANSMISSION
Path length: CAPILLARY
Resolution: 2
Origin: DOW CHEMICAL COMPANY
1/CM	TRANSMITTANCE
3780	0.9105
3771	0.9056
3762	0.9028
3753	0.9006
3744	0.8991
3735	0.8984
3726	0.8978
3717	0.8971
3708	0.8965
3699	0.8958
3690	0.8951
3681	0.8944
3672	0.894
3663	0.8935
3654	0.8932
3645	0.8925
3636	0.8921
3627	0.8916
3618	0.8911
3609	0.8908
3600	0.8906
3591	0.8904
3582	0.8902
3573	0.8901
3564	0.8907
3555	0.8912
3546	0.8918
3537	0.8915
3528	0.8913
3519	0.89
3510	0.8882
3501	0.8816
3492	0.8751
3483	0.8677
3474	0.8638
3465	0.8694
3456	0.8778
3447	0.883
3438	0.8856
3429	0.8867
3420	0.8874
3411	0.8878
3402	0.8885
3393	0.889
3384	0.8896
3375	0.89
3366	0.8905
3357	0.8909
3348	0.8914
3339	0.8918
3330	0.8923
3321	0.8925
3312	0.8927
3303	0.8928
3294	0.8928
3285	0.8925
3276	0.8924
3267	0.8909
3258	0.8859
3249	0.8878
3240	0.8875
3231	0.8825
3222	0.8813
3213	0.8818
3204	0.8823
3195	0.8824
3186	0.8821
3177	0.8817
3168	0.8812
3159	0.8812
3150	0.8814
3141	0.881
3132	0.8795
3123	0.8778
3114	0.8763
3105	0.8746
3096	0.8718
3087	0.8691
3078	0.8657
3069	0.8621
3060	0.8585
3051	0.8545
3042	0.8465
3033	0.8239
3024	0.7475
3015	0.6865
3006	0.6086
2997	0.4796
2988	0.4505
2979	0.4672
2970	0.5456
2961	0.624
2952	0.6565
2943	0.5529
2934	0.5407
2925	0.6543
2916	0.6886
2907	0.7345
2898	0.7948
2889	0.8086
2880	0.8082
2871	0.8394
2862	0.8575
2853	0.8596
2844	0.8674
2835	0.8714
2826	0.8748
2817	0.8764
2808	0.8768
2799	0.8774
2790	0.8783
2781	0.8797
2772	0.8813
2763	0.8832
2754	0.8853
2745	0.8873
2736	0.8886
2727	0.8888
2718	0.8892
2709	0.8896
2700	0.8903
2691	0.891
2682	0.8889
2673	0.887
2664	0.8862
2655	0.8878
2646	0.8912
2637	0.8907
2628	0.8902
2619	0.8889
2610	0.8877
2601	0.8863
2592	0.8851
2583	0.884
2574	0.8841
2565	0.8842
2556	0.8842
2547	0.8843
2538	0.8842
2529	0.8842
2520	0.8842
2511	0.8847
2502	0.8852
2493	0.8857
2484	0.8864
2475	0.887
2466	0.8877
2457	0.8883
2448	0.8881
2439	0.8878
2430	0.8875
2421	0.885
2412	0.8823
2403	0.88
2394	0.8828
2385	0.8821
2376	0.8792
2367	0.8775
2358	0.8852
2349	0.8864
2340	0.8811
2331	0.8786
2322	0.8788
2313	0.8818
2304	0.8845
2295	0.8833
2286	0.8802
2277	0.8594
2268	0.7315
2259	0.766
2250	0.8449
2241	0.8773
2232	0.8825
2223	0.8862
2214	0.8889
2205	0.8889
2196	0.8892
2187	0.8894
2178	0.8896
2169	0.8897
2160	0.8899
2151	0.8903
2142	0.8908
2133	0.8913
2124	0.8918
2115	0.8924
2106	0.8931
2097	0.8938
2088	0.8945
2079	0.895
2070	0.8951
2061	0.8952
2052	0.8954
2043	0.8958
2034	0.8963
2025	0.8965
2016	0.8965
2007	0.8967
1998	0.8959
1989	0.873
1980	0.8741
1971	0.8728
1962	0.8509
1953	0.8683
1944	0.8685
1935	0.8685
1926	0.8678
1917	0.8675
1908	0.8631
1899	0.857
1890	0.8517
1881	0.8521
1872	0.8499
1863	0.8495
1854	0.849
1845	0.8467
1836	0.8389
1827	0.8293
1818	0.8187
1809	0.8031
1800	0.7814
1791	0.7517
1782	0.7138
1773	0.5132
1764	0.1662
1755	0.0174
1746	0.0111
1737	0.1159
1728	0.3722
1719	0.615
1710	0.6797
1701	0.7178
1692	0.7707
1683	0.8007
1674	0.8236
1665	0.8363
1656	0.8363
1647	0.85
1638	0.8518
1629	0.8533
1620	0.8523
1611	0.8564
1602	0.8623
1593	0.8651
1584	0.8668
1575	0.8667
1566	0.8656
1557	0.8635
1548	0.8611
1539	0.859
1530	0.8568
1521	0.8545
1512	0.852
1503	0.8494
1494	0.8378
1485	0.7851
1476	0.6607
1467	0.6321
1458	0.6951
1449	0.6449
1440	0.723
1431	0.7761
1422	0.7703
1413	0.6801
1404	0.5473
1395	0.3934
1386	0.5264
1377	0.4119
1368	0.315
1359	0.6772
1350	0.6701
1341	0.1877
1332	0.2482
1323	0.4633
1314	0.581
1305	0.4286
1296	0.4045
1287	0.3944
1278	0.3203
1269	0.2158
1260	0.1934
1251	0.3174
1242	0.46
1233	0.4534
1224	0.2919
1215	0.1476
1206	0.1048
1197	0.0755
1188	0.1708
1179	0.3302
1170	0.4032
1161	0.5145
1152	0.6514
1143	0.7521
1134	0.8107
1125	0.8208
1116	0.7653
1107	0.7508
1098	0.6748
1089	0.7671
1080	0.8198
1071	0.8275
1062	0.8228
1053	0.7949
1044	0.6539
1035	0.37
1026	0.1891
1017	0.5777
1008	0.7665
999	0.8228
990	0.8535
981	0.8552
972	0.816
963	0.8312
954	0.8449
945	0.8274
936	0.6683
927	0.7657
918	0.8039
909	0.849
900	0.8668
891	0.8708
882	0.8707
873	0.8665
864	0.8396
855	0.6654
846	0.7055
837	0.8343
828	0.8647
819	0.8618
810	0.8506
801	0.8556
792	0.8467
783	0.843
774	0.8618
765	0.8625
756	0.867
747	0.8609
738	0.8434
729	0.8165
720	0.8221
711	0.8218
702	0.8468
693	0.8563
684	0.8608
675	0.8611
666	0.8798
657	0.8975
648	0.9007
639	0.9033
630	0.899
621	0.8987
612	0.8882
603	0.8741
594	0.8534
585	0.8267
576	0.8611
567	0.8981
558	0.9027
549	0.9063
540	0.91
531	0.9121
522	0.9096
513	0.906
504	0.8995
495	0.8862
486	0.8846
477	0.8837
468	0.8741
459	0.8597
450	0.8465
