Infrared Spectrum: FORMIC ACID, CITRONELLYL ESTER
Formula: C11 H20 O2
CAS: 105-85-1
Class: COBLENTZ
Instrument: Not specified, most likely a prism, grating, or hybrid spectrometer.
Sampling: TRANSMISSION
Resolution: 4
Origin: INFRACORD
MICROMETERS	TRANSMITTANCE
2.535	0.91
2.57036	0.913
2.60573	0.909
2.64109	0.912
2.67645	0.923
2.71182	0.919
2.74718	0.926
2.78254	0.92
2.8179	0.922
2.85327	0.902
2.88863	0.902
2.92399	0.909
2.95936	0.894
2.99472	0.903
3.03008	0.912
3.06545	0.916
3.10081	0.918
3.13617	0.922
3.17153	0.918
3.2069	0.916
3.24226	0.916
3.27762	0.903
3.31299	0.873
3.34835	0.842
3.38371	0.747
3.41908	0.466
3.45444	0.174
3.4898	0.157
3.52517	0.242
3.56053	0.349
3.59589	0.473
3.63125	0.839
3.66662	0.909
3.70198	0.924
3.73734	0.9
3.77271	0.922
3.80807	0.943
3.84343	0.949
3.8788	0.955
3.91416	0.956
3.94952	0.957
3.98489	0.963
4.02025	0.962
4.05561	0.965
4.09097	0.972
4.12634	0.974
4.1617	0.974
4.19706	0.969
4.23243	0.964
4.26779	0.958
4.30315	0.953
4.33852	0.953
4.37388	0.958
4.40924	0.968
4.4446	0.975
4.47997	0.979
4.51533	0.981
4.55069	0.982
4.58606	0.982
4.62142	0.978
4.65678	0.978
4.69215	0.978
4.72751	0.977
4.76287	0.972
4.79824	0.971
4.8336	0.969
4.86896	0.969
4.90432	0.969
4.93969	0.97
4.97505	0.97
5.01041	0.97
5.04578	0.971
5.08114	0.964
5.1165	0.961
5.15187	0.961
5.18723	0.964
5.22259	0.966
5.25795	0.968
5.29332	0.969
5.32868	0.969
5.36404	0.969
5.39941	0.968
5.43477	0.965
5.47013	0.962
5.5055	0.955
5.54086	0.95
5.57622	0.935
5.61159	0.918
5.64695	0.905
5.68231	0.867
5.71767	0.805
5.75304	0.667
5.7884	0.553
5.82376	0.284
5.85913	0.03
5.89449	0.035
5.92985	0.397
5.96522	0.652
6.00058	0.76
6.03594	0.812
6.07131	0.839
6.10667	0.88
6.14203	0.893
6.17739	0.904
6.21276	0.913
6.24812	0.917
6.28348	0.92
6.31885	0.923
6.35421	0.924
6.38957	0.923
6.42494	0.926
6.4603	0.923
6.49566	0.924
6.53102	0.922
6.56639	0.922
6.60175	0.918
6.63711	0.92
6.67248	0.917
6.70784	0.912
6.7432	0.896
6.77857	0.877
6.81393	0.815
6.84929	0.694
6.88466	0.553
6.92002	0.478
6.95538	0.46
6.99074	0.514
7.02611	0.589
7.06147	0.676
7.09683	0.786
7.1322	0.833
7.16756	0.852
7.20292	0.857
7.23829	0.821
7.27365	0.682
7.30901	0.506
7.34437	0.497
7.37974	0.716
7.4151	0.794
7.45046	0.812
7.48583	0.821
7.52119	0.829
7.55655	0.848
7.59192	0.859
7.62728	0.865
7.66264	0.857
7.69801	0.826
7.73337	0.809
7.76873	0.815
7.80409	0.819
7.83946	0.819
7.87482	0.792
7.91018	0.742
7.94555	0.727
7.98091	0.735
8.01627	0.728
8.05164	0.703
8.087	0.7
8.12236	0.693
8.15773	0.691
8.19309	0.683
8.22845	0.658
8.26381	0.61
8.29918	0.547
8.33454	0.446
8.3699	0.35
8.40527	0.242
8.44063	0.145
8.47599	0.095
8.51136	0.074
8.54672	0.066
8.58208	0.06
8.61744	0.063
8.65281	0.077
8.68817	0.12
8.72353	0.198
8.7589	0.278
8.79426	0.344
8.82962	0.448
8.86499	0.57
8.90035	0.629
8.93571	0.644
8.97108	0.652
9.00644	0.681
9.0418	0.713
9.07716	0.731
9.11253	0.765
9.14789	0.785
9.18325	0.796
9.21862	0.793
9.25398	0.794
9.28934	0.819
9.32471	0.839
9.36007	0.853
9.39543	0.861
9.43079	0.861
9.46616	0.859
9.50152	0.852
9.53688	0.842
9.57225	0.834
9.60761	0.831
9.64297	0.831
9.67834	0.835
9.7137	0.838
9.74906	0.841
9.78443	0.846
9.81979	0.857
9.85515	0.86
9.89051	0.866
9.92588	0.867
9.96124	0.871
9.9966	0.872
10.032	0.868
10.0673	0.866
10.1027	0.864
10.1381	0.845
10.1734	0.826
10.2088	0.831
10.2441	0.846
10.2795	0.865
10.3149	0.87
10.3502	0.874
10.3856	0.871
10.421	0.874
10.4563	0.873
10.4917	0.867
10.527	0.859
10.5624	0.851
10.5978	0.831
10.6331	0.808
10.6685	0.789
10.7039	0.763
10.7392	0.737
10.7746	0.724
10.81	0.719
10.8453	0.722
10.8807	0.726
10.916	0.73
10.9514	0.737
10.9868	0.755
11.0221	0.77
11.0575	0.783
11.0929	0.795
11.1282	0.817
11.1636	0.832
11.1989	0.842
11.2343	0.851
11.2697	0.859
11.305	0.868
11.3404	0.879
11.3758	0.887
11.4111	0.897
11.4465	0.909
11.4819	0.911
11.5172	0.906
11.5526	0.902
11.5879	0.897
11.6233	0.889
11.6587	0.892
11.694	0.897
11.7294	0.897
11.7648	0.887
11.8001	0.878
11.8355	0.866
11.8708	0.84
11.9062	0.826
11.9416	0.8
11.9769	0.782
12.0123	0.765
12.0477	0.756
12.083	0.753
12.1184	0.757
12.1537	0.772
12.1891	0.793
12.2245	0.818
12.2598	0.834
12.2952	0.842
12.3306	0.853
12.3659	0.86
12.4013	0.857
12.4367	0.853
12.472	0.858
12.5074	0.863
12.5427	0.86
12.5781	0.866
12.6135	0.871
12.6488	0.877
12.6842	0.88
12.7196	0.883
12.7549	0.883
12.7903	0.885
12.8256	0.889
12.861	0.89
12.8964	0.894
12.9317	0.896
12.9671	0.897
13.0025	0.897
13.0378	0.894
13.0732	0.894
13.1086	0.891
13.1439	0.89
13.1793	0.884
13.2146	0.871
13.25	0.868
13.2854	0.867
13.3207	0.861
13.3561	0.854
13.3915	0.851
13.4268	0.842
13.4622	0.829
13.4975	0.831
13.5329	0.833
13.5683	0.837
13.6036	0.854
13.639	0.863
13.6744	0.868
13.7097	0.873
13.7451	0.881
13.7805	0.886
13.8158	0.891
13.8512	0.893
13.8865	0.893
13.9219	0.891
13.9573	0.889
13.9926	0.887
14.028	0.887
14.0634	0.889
14.0987	0.889
14.1341	0.884
14.1694	0.879
14.2048	0.872
14.2402	0.868
14.2755	0.867
14.3109	0.866
14.3463	0.866
14.3816	0.858
14.417	0.857
14.4523	0.855
14.4877	0.854
14.5231	0.855
14.5584	0.848
14.5938	0.847
14.6292	0.84
14.6645	0.831
14.6999	0.832
14.7353	0.827
14.7706	0.826
14.806	0.82
14.8413	0.815
14.8767	0.811
14.9121	0.808
14.9474	0.804
