Infrared Spectrum: 2H-AZEPIN-2-ONE, HEXAHYDRO-
Formula: C6 H11 N O
CAS: 105-60-2
State: SOLUTION (10% IN CCl4 FOR 4000-1350 CM^-^1, 10% IN CS2 FOR 1350-600 CM^-^1)
Class: COBLENTZ III
Instrument: BECKMAN IR-7 (GRATING)
Instrument parameters: GRATING CHANGES AT 3000, 2200, 1150 CM^-^1
Sampling: TRANSMISSION
Path length: 0.01 CM, 0.01 CM
Resolution: 4
Origin: WESTERN REGIONAL RES. USDA
1/CM	TRANSMITTANCE
599.006	0.724
607.894	0.731
616.781	0.721
625.669	0.701
634.556	0.672
643.444	0.625
652.331	0.593
661.219	0.635
670.106	0.616
678.994	0.628
687.881	0.633
696.769	0.601
705.656	0.588
714.544	0.561
723.431	0.534
732.319	0.498
741.206	0.489
750.094	0.483
758.981	0.462
767.869	0.446
776.756	0.418
785.644	0.371
794.531	0.338
803.419	0.345
812.306	0.318
821.194	0.35
830.081	0.513
838.969	0.451
847.856	0.543
856.744	0.548
865.631	0.375
874.519	0.637
883.406	0.621
892.294	0.578
901.181	0.751
910.069	0.779
918.956	0.791
927.844	0.797
936.731	0.789
945.619	0.756
954.506	0.518
963.394	0.729
972.281	0.628
981.169	0.6479
990.056	0.79
998.944	0.814
1007.83	0.804
1016.72	0.75
1025.61	0.806
1034.49	0.813
1043.38	0.811
1052.27	0.792
1061.16	0.756
1070.04	0.672
1078.93	0.503
1087.82	0.6538
1096.71	0.78
1105.59	0.773
1114.48	0.5901
1123.37	0.24
1132.26	0.715
1141.14	0.763
1150.03	0.728
1158.92	0.597
1167.81	0.741
1176.69	0.673
1185.58	0.528
1194.47	0.1921
1203.36	0.659
1212.24	0.747
1221.13	0.638
1230.02	0.382
1238.91	0.734
1247.79	0.632
1256.68	0.265
1265.57	0.697
1274.46	0.648
1283.34	0.32
1292.23	0.636
1301.12	0.507
1310.01	0.372
1318.89	0.573
1327.78	0.408
1336.67	0.4109
1345.56	0.393
1354.44	0.153
1363.33	0.1052
1372.22	0.539
1381.11	0.556
1389.99	0.451
1398.88	0.38
1407.77	0.247
1416.66	0.148
1425.54	0.324
1434.43	0.079
1443.32	0.091
1452.21	0.267
1461.09	0.247
1469.98	0.172
1478.87	0.141
1487.76	0.111
1496.64	0.343
1505.53	0.437
1514.42	0.458
1523.31	0.45
1532.19	0.41
1541.08	0.354
1549.97	0.326
1558.86	0.346
1567.74	0.402
1576.63	0.42
1585.52	0.431
1594.41	0.455
1603.29	0.455
1612.18	0.419
1621.07	0.308
1629.96	0.208
1638.84	0.135
1647.73	0.066
1656.62	0.003
1665.51	0
1674.39	0
1683.28	0.018
1692.17	0.265
1701.06	0.337
1709.94	0.428
1718.83	0.524
1727.72	0.569
1736.61	0.599
1745.49	0.62
1754.38	0.616
1763.27	0.635
1772.16	0.647
1781.04	0.653
1789.93	0.658
1798.82	0.664
1807.71	0.672
1816.6	0.674
1825.48	0.675
1834.37	0.68
1843.26	0.685
1852.15	0.688
1861.03	0.69
1869.92	0.692
1878.81	0.694
1887.7	0.696
1896.58	0.696
1905.47	0.692
1914.36	0.695
1923.25	0.693
1932.13	0.69
1941.02	0.691
1949.91	0.694
1958.8	0.695
1967.68	0.696
1976.57	0.696
1985.46	0.695
1994.35	0.693
2003.23	0.693
2012.12	0.694
2021.01	0.6945
2029.9	0.695
2038.78	0.696
2047.67	0.696
2056.56	0.6964
2065.45	0.6981
2074.33	0.6999
2083.22	0.7
2092.11	0.7003
2101	0.7011
2109.88	0.702
2118.77	0.703
2127.66	0.702
2136.55	0.701
2145.43	0.7
2154.32	0.7
2163.21	0.699
2172.1	0.6981
2180.98	0.698
2189.87	0.6966
2198.76	0.696
2207.65	0.696
2216.53	0.695
2225.42	0.694
2234.31	0.693
2243.2	0.692
2252.08	0.6905
2260.97	0.6888
2269.86	0.687
2278.75	0.686
2287.63	0.684
2296.52	0.6842
2305.41	0.6859
2314.3	0.687
2323.18	0.6894
2332.07	0.691
2340.96	0.6918
2349.85	0.6936
2358.73	0.6953
2367.62	0.696
2376.51	0.6978
2385.4	0.699
2394.28	0.699
2403.17	0.699
2412.06	0.6997
2420.95	0.7
2429.83	0.7
2438.72	0.7
2447.61	0.7
2456.5	0.7
2465.38	0.7
2474.27	0.7
2483.16	0.7
2492.05	0.7
2500.93	0.7
2509.82	0.699
2518.71	0.6985
2527.6	0.698
2536.48	0.697
2545.37	0.696
2554.26	0.6956
2563.15	0.6938
2572.03	0.6921
2580.92	0.691
2589.81	0.6896
2598.7	0.6879
2607.58	0.687
2616.47	0.6839
2625.36	0.6817
2634.25	0.678
2643.13	0.6725
2652.02	0.666
2660.91	0.6606
2669.8	0.6551
2678.68	0.654
2687.57	0.6554
2696.46	0.6592
2705.35	0.662
2714.23	0.663
2723.12	0.663
2732.01	0.662
2740.9	0.6612
2749.78	0.6543
2758.67	0.6454
2767.56	0.637
2776.45	0.629
2785.33	0.6125
2794.22	0.6064
2803.11	0.5904
2812	0.5779
2820.88	0.5536
2829.77	0.5006
2838.66	0.3244
2847.55	0.134
2856.43	0.1752
2865.32	0.2437
2874.21	0.2235
2883.1	0.1747
2891.98	0.1283
2900.87	0.1049
2909.76	0.0488
2918.65	0.006
2927.53	0.0147
2936.42	0.0558
2945.31	0.113
2954.2	0.1742
2963.08	0.1781
2971.97	0.2443
2980.86	0.329
2989.75	0.3881
2998.63	0.4384
3007.52	0.4531
3016.41	0.4533
3025.3	0.4202
3034.18	0.381
3043.07	0.3453
3051.96	0.3099
3060.85	0.2872
3069.73	0.2449
3078.62	0.2216
3087.51	0.202
3096.4	0.2181
3105.28	0.2487
3114.17	0.2906
3123.06	0.32
3131.95	0.336
3140.83	0.3267
3149.72	0.3073
3158.61	0.2917
3167.5	0.28
3176.38	0.2554
3185.27	0.2126
3194.16	0.1503
3203.05	0.1064
3211.93	0.0993
3220.82	0.1004
3229.71	0.1062
3238.6	0.1408
3247.48	0.1859
3256.37	0.2261
3265.26	0.2604
3274.15	0.2772
3283.03	0.2835
3291.92	0.271
3300.81	0.259
3309.7	0.278
3318.58	0.3357
3327.47	0.3766
3336.36	0.416
3345.25	0.4502
3354.13	0.4885
3363.02	0.5253
3371.91	0.5517
3380.8	0.5763
3389.68	0.5975
3398.57	0.6125
3407.46	0.6416
3416.35	0.6379
3425.23	0.6143
3434.12	0.5422
3443.01	0.5801
3451.9	0.6729
3460.78	0.6924
3469.67	0.6959
3478.56	0.6986
3487.45	0.7
3496.33	0.702
3505.22	0.7039
3514.11	0.704
3523	0.705
3531.88	0.7061
3540.77	0.7078
3549.66	0.708
3558.55	0.709
3567.43	0.71
3576.32	0.711
3585.21	0.712
3594.1	0.713
3602.98	0.713
3611.87	0.713
3620.76	0.713
3629.65	0.7129
3638.53	0.712
3647.42	0.71
3656.31	0.709
3665.2	0.708
3674.08	0.708
3682.97	0.708
3691.86	0.708
3700.75	0.708
3709.63	0.708
3718.52	0.707
3727.41	0.707
3736.3	0.707
3745.18	0.706
3754.07	0.706
3762.96	0.7059
3771.85	0.705
3780.73	0.705
3789.62	0.705
3798.51	0.705
3807.4	0.705
3816.28	0.704
3825.17	0.704
3834.06	0.704
3842.95	0.704
3851.84	0.703
3860.72	0.702
3869.61	0.701
3878.5	0.7
3887.39	0.7
3896.27	0.7
3905.16	0.7
3914.05	0.699
3922.94	0.698
3931.82	0.697
3940.71	0.697
3949.6	0.696
3958.49	0.696
3967.37	0.696
3976.26	0.696
3985.15	0.696
3994.04	0.696
4002.92	0.6951
4011.81	0.696
