Infrared Spectrum: 1-HEXYN-3-OL
Formula: C6 H10 O
CAS: 105-31-7
Class: COBLENTZ
Instrument: Not specified, most likely a prism, grating, or hybrid spectrometer.
Sampling: TRANSMISSION
Path length: SMEAR
Resolution: 4
Origin: TENNESSEE EASTMAN COMPANY, RESEARCH LABORATORIES
MICROMETERS	TRANSMITTANCE
2.048	0.96
2.08887	0.962
2.12975	0.962
2.17062	0.962
2.21149	0.964
2.25237	0.96
2.29324	0.955
2.33411	0.954
2.37499	0.955
2.41586	0.955
2.45674	0.954
2.49761	0.954
2.53848	0.936
2.57936	0.936
2.62023	0.942
2.6611	0.948
2.70198	0.948
2.74285	0.862
2.78372	0.664
2.8246	0.519
2.86547	0.398
2.90634	0.231
2.94722	0.156
2.98809	0.137
3.02897	0.08
3.06984	0.102
3.11071	0.233
3.15159	0.403
3.19246	0.577
3.23333	0.683
3.27421	0.741
3.31508	0.742
3.35595	0.425
3.39683	0.124
3.4377	0.308
3.47857	0.342
3.51945	0.64
3.56032	0.742
3.6012	0.795
3.64207	0.798
3.68294	0.8
3.72382	0.807
3.76469	0.814
3.80556	0.834
3.84644	0.851
3.88731	0.87
3.92818	0.88
3.96906	0.887
4.00993	0.89
4.0508	0.899
4.09168	0.911
4.13255	0.914
4.17343	0.914
4.2143	0.921
4.25517	0.925
4.29605	0.925
4.33692	0.923
4.37779	0.931
4.41867	0.959
4.45954	0.95
4.50041	0.95
4.54129	0.945
4.58216	0.942
4.62303	0.943
4.66391	0.923
4.70478	0.831
4.74566	0.894
4.78653	0.93
4.8274	0.936
4.86828	0.936
4.90915	0.935
4.95002	0.936
4.9909	0.94
5.03177	0.943
5.07264	0.947
5.11352	0.947
5.15439	0.948
5.19526	0.95
5.23614	0.95
5.27701	0.95
5.31789	0.95
5.35876	0.95
5.39963	0.95
5.44051	0.95
5.48138	0.95
5.52225	0.95
5.56313	0.95
5.604	0.948
5.64487	0.938
5.68575	0.923
5.72662	0.899
5.76749	0.88
5.80837	0.875
5.84924	0.87
5.89012	0.865
5.93099	0.826
5.97186	0.79
6.01274	0.81
6.05361	0.838
6.09448	0.839
6.13536	0.843
6.17623	0.858
6.2171	0.865
6.25798	0.875
6.29885	0.882
6.33972	0.884
6.3806	0.879
6.42147	0.863
6.46235	0.86
6.50322	0.848
6.54409	0.841
6.58497	0.829
6.62584	0.802
6.66671	0.781
6.70759	0.73
6.74846	0.642
6.78933	0.301
6.83021	0.311
6.87108	0.395
6.91195	0.451
6.95283	0.458
6.9937	0.448
7.03458	0.441
7.07545	0.437
7.11632	0.439
7.1572	0.444
7.19807	0.436
7.23894	0.379
7.27982	0.459
7.32069	0.488
7.36156	0.48
7.40244	0.512
7.44331	0.511
7.48418	0.446
7.52506	0.42
7.56593	0.432
7.60681	0.429
7.64768	0.408
7.68855	0.41
7.72943	0.412
7.7703	0.422
7.81117	0.449
7.85205	0.478
7.89292	0.49
7.93379	0.478
7.97467	0.459
8.01554	0.483
8.05641	0.516
8.09729	0.557
8.13816	0.597
8.17904	0.599
8.21991	0.599
8.26078	0.643
8.30166	0.695
8.34253	0.708
8.3834	0.727
8.42428	0.737
8.46515	0.739
8.50602	0.741
8.5469	0.739
8.58777	0.737
8.62864	0.73
8.66952	0.725
8.71039	0.698
8.75127	0.621
8.79214	0.478
8.83301	0.41
8.87389	0.332
8.91476	0.267
8.95563	0.289
8.99651	0.308
9.03738	0.32
9.07825	0.385
9.11913	0.483
9.16	0.555
9.20087	0.562
9.24175	0.492
9.28262	0.35
9.3235	0.245
9.36437	0.197
9.40524	0.257
9.44612	0.369
9.48699	0.403
9.52786	0.321
9.56874	0.216
9.60961	0.156
9.65048	0.143
9.69136	0.143
9.73223	0.168
9.7731	0.202
9.81398	0.212
9.85485	0.189
9.89573	0.172
9.9366	0.211
9.97747	0.277
10.0183	0.327
10.0592	0.313
10.1001	0.284
10.141	0.291
10.1818	0.33
10.2227	0.381
10.2636	0.461
10.3045	0.567
10.3453	0.65
10.3862	0.695
10.4271	0.739
10.468	0.758
10.5088	0.775
10.5497	0.787
10.5906	0.795
10.6314	0.797
10.6723	0.79
10.7132	0.778
10.7541	0.739
10.7949	0.691
10.8358	0.655
10.8767	0.579
10.9176	0.521
10.9584	0.545
10.9993	0.592
11.0402	0.613
11.0811	0.614
11.1219	0.635
11.1628	0.684
11.2037	0.754
11.2446	0.788
11.2854	0.798
11.3263	0.802
11.3672	0.798
11.408	0.781
11.4489	0.778
11.4898	0.788
11.5307	0.79
11.5715	0.771
11.6124	0.758
11.6533	0.754
11.6942	0.754
11.735	0.72
11.7759	0.664
11.8168	0.609
11.8577	0.608
11.8985	0.669
11.9394	0.724
11.9803	0.756
12.0212	0.761
12.062	0.759
12.1029	0.749
12.1438	0.737
12.1846	0.725
12.2255	0.708
12.2664	0.706
12.3073	0.708
12.3481	0.717
12.389	0.722
12.4299	0.72
12.4708	0.715
12.5116	0.713
12.5525	0.727
12.5934	0.734
12.6343	0.742
12.6751	0.751
12.716	0.752
12.7569	0.752
12.7977	0.752
12.8386	0.749
12.8795	0.739
12.9204	0.734
12.9612	0.729
13.0021	0.722
13.043	0.717
13.0839	0.708
13.1247	0.7
13.1656	0.688
13.2065	0.672
13.2474	0.65
13.2882	0.621
13.3291	0.599
13.37	0.577
13.4109	0.567
13.4517	0.567
13.4926	0.568
13.5335	0.572
13.5743	0.574
13.6152	0.575
13.6561	0.58
13.697	0.579
13.7378	0.572
13.7787	0.567
13.8196	0.557
13.8605	0.548
13.9013	0.536
13.9422	0.526
13.9831	0.514
14.024	0.499
14.0648	0.483
14.1057	0.475
14.1466	0.466
14.1875	0.449
14.2283	0.439
14.2692	0.427
14.3101	0.413
14.3509	0.402
14.3918	0.39
14.4327	0.381
14.4736	0.367
14.5144	0.356
14.5553	0.345
14.5962	0.333
14.6371	0.32
14.6779	0.311
14.7188	0.303
14.7597	0.296
14.8006	0.282
14.8414	0.275
14.8823	0.27
14.9232	0.269
14.964	0.27
15.0049	0.272
15.0458	0.269
15.0867	0.26
15.1275	0.252
15.1684	0.253
15.2093	0.255
15.2502	0.258
15.291	0.267
15.3319	0.272
15.3728	0.281
15.4137	0.293
15.4545	0.301
15.4954	0.311
15.5363	0.321
15.5772	0.325
15.618	0.337
15.6589	0.34
15.6998	0.349
15.7406	0.361
15.7815	0.367
15.8224	0.373
15.8633	0.379
15.9041	0.395
15.945	0.4
15.9859	0.408
