Infrared Spectrum: PROPANOIC ACID, ETHYL ESTER
Formula: C5 H10 O2
CAS: 105-37-3
State: VAPOR (10 MICROLITER AT 150 C)
Boiling point: 99 C
Class: COBLENTZ
Instrument: PERKIN-ELMER 180
Sampling: TRANSMISSION
Path length: 5 CM KBr CELL, CELL VOLUME: 80 CM^3
Resolution: 2-3 CM^-^1
Origin: PERKIN-ELMER CORP. (M. ZELLER)
1/CM	TRANSMITTANCE
400	0.47
409.475	0.5399
418.951	0.601
428.426	0.651
437.902	0.695
447.377	0.732
456.853	0.762
466.328	0.794
475.804	0.82
485.279	0.839
494.755	0.843
504.23	0.85
513.706	0.856
523.181	0.864
532.657	0.871
542.132	0.874
551.608	0.875
561.083	0.875
570.559	0.872
580.034	0.87
589.509	0.87
598.985	0.868
608.46	0.87
617.936	0.879
627.411	0.885
636.887	0.886
646.362	0.887
655.838	0.886
665.313	0.889
674.789	0.887
684.264	0.89
693.74	0.89
703.215	0.889
712.691	0.889
722.166	0.887
731.642	0.889
741.117	0.89
750.593	0.886
760.068	0.879
769.543	0.87
779.019	0.862
788.494	0.854
797.97	0.85
807.445	0.854
816.921	0.859
826.396	0.858
835.872	0.85
845.347	0.831
854.823	0.831
864.298	0.84
873.774	0.856
883.249	0.863
892.725	0.872
902.2	0.883
911.676	0.891
921.151	0.893
930.627	0.89
940.102	0.89
949.577	0.886
959.053	0.877
968.528	0.863
978.004	0.85
987.479	0.845
996.955	0.836
1006.43	0.805
1015.91	0.7241
1025.38	0.625
1034.86	0.579
1044.33	0.589
1053.81	0.581
1063.28	0.535
1072.76	0.508
1082.23	0.512
1091.71	0.512
1101.19	0.545
1110.66	0.609
1120.14	0.666
1129.61	0.695
1139.09	0.683
1148.56	0.608
1158.04	0.409
1167.51	0.1892
1176.99	0.074
1186.46	0.074
1195.94	0.1788
1205.42	0.268
1214.89	0.367
1224.37	0.4629
1233.84	0.525
1243.32	0.564
1252.79	0.594
1262.27	0.597
1271.74	0.605
1281.22	0.65
1290.69	0.709
1300.17	0.733
1309.65	0.721
1319.12	0.678
1328.6	0.606
1338.07	0.575
1347.55	0.614
1357.02	0.639
1366.5	0.618
1375.97	0.625
1385.45	0.747
1394.92	0.8
1404.4	0.809
1413.88	0.8
1423.35	0.775
1432.83	0.755
1442.3	0.74
1451.78	0.709
1461.25	0.69
1470.73	0.71
1480.2	0.7869
1489.68	0.839
1499.15	0.864
1508.63	0.879
1518.11	0.885
1527.58	0.889
1537.06	0.891
1546.53	0.891
1556.01	0.893
1565.48	0.897
1574.96	0.898
1584.43	0.898
1593.91	0.898
1603.39	0.898
1612.86	0.898
1622.34	0.897
1631.81	0.894
1641.29	0.891
1650.76	0.889
1660.24	0.887
1669.71	0.883
1679.19	0.878
1688.66	0.868
1698.14	0.848
1707.62	0.814
1717.09	0.745
1726.57	0.5779
1736.04	0.3471
1745.52	0.139
1754.99	0.114
1764.47	0.1698
1773.94	0.4439
1783.42	0.694
1792.89	0.8199
1802.37	0.858
1811.85	0.878
1821.32	0.886
1830.8	0.891
1840.27	0.894
1849.75	0.898
1859.22	0.898
1868.7	0.898
1878.17	0.895
1887.65	0.894
1897.12	0.895
1906.6	0.893
1916.08	0.893
1925.55	0.893
1935.03	0.894
1944.5	0.895
1953.98	0.898
1963.45	0.9
1972.93	0.9
1982.4	0.9
1991.88	0.894
2001.36	0.884
2010.83	0.883
2020.31	0.881
2029.78	0.8819
2039.26	0.885
2048.73	0.885
2058.21	0.8893
2067.68	0.891
2077.16	0.893
2086.63	0.894
2096.11	0.894
2105.59	0.895
2115.06	0.8966
2124.54	0.894
2134.01	0.8941
2143.49	0.895
2152.96	0.8939
2162.44	0.893
2171.91	0.894
2181.39	0.894
2190.86	0.893
2200.34	0.893
2209.82	0.893
2219.29	0.893
2228.77	0.894
2238.24	0.894
2247.72	0.894
2257.19	0.894
2266.67	0.894
2276.14	0.894
2285.62	0.893
2295.09	0.893
2304.57	0.891
2314.05	0.89
2323.52	0.887
2333	0.887
2342.47	0.887
2351.95	0.8871
2361.42	0.8905
2370.9	0.893
2380.37	0.894
2389.85	0.894
2399.32	0.894
2408.8	0.894
2418.28	0.894
2427.75	0.8948
2437.23	0.895
2446.7	0.895
2456.18	0.897
2465.65	0.898
2475.13	0.9
2484.6	0.9
2494.08	0.9
2503.56	0.8987
2513.03	0.898
2522.51	0.898
2531.98	0.897
2541.46	0.897
2550.93	0.895
2560.41	0.895
2569.88	0.895
2579.36	0.895
2588.83	0.894
2598.31	0.894
2607.79	0.8949
2617.26	0.895
2626.74	0.8966
2636.21	0.897
2645.69	0.897
2655.16	0.897
2664.64	0.8956
2674.11	0.895
2683.59	0.895
2693.06	0.893
2702.54	0.893
2712.02	0.89
2721.49	0.889
2730.97	0.886
2740.44	0.885
2749.92	0.885
2759.39	0.885
2768.87	0.885
2778.34	0.883
2787.82	0.8821
2797.29	0.8787
2806.77	0.8742
2816.25	0.8674
2825.72	0.8605
2835.2	0.8555
2844.67	0.8422
2854.15	0.8221
2863.62	0.7712
2873.1	0.734
2882.57	0.7146
2892.05	0.713
2901.53	0.7075
2911	0.6806
2920.48	0.6195
2929.95	0.5434
2939.43	0.539
2948.9	0.5351
2958.38	0.4946
2967.85	0.399
2977.33	0.382
2986.8	0.5104
2996.28	0.6428
3005.76	0.7424
3015.23	0.8072
3024.71	0.8447
3034.18	0.8606
3043.66	0.8733
3053.13	0.8771
3062.61	0.879
3072.08	0.879
3081.56	0.879
3091.03	0.882
3100.51	0.882
3109.99	0.882
3119.46	0.885
3128.94	0.886
3138.41	0.8864
3147.89	0.887
3157.36	0.889
3166.84	0.889
3176.31	0.89
3185.79	0.89
3195.26	0.894
3204.74	0.895
3214.22	0.897
3223.69	0.897
3233.17	0.898
3242.64	0.9
3252.12	0.898
3261.59	0.9
3271.07	0.9
3280.54	0.9
3290.02	0.9
3299.49	0.9
3308.97	0.9
3318.45	0.898
3327.92	0.898
3337.4	0.897
3346.87	0.897
3356.35	0.897
3365.82	0.897
3375.3	0.895
3384.77	0.8943
3394.25	0.894
3403.73	0.894
3413.2	0.894
3422.68	0.894
3432.15	0.893
3441.63	0.8904
3451.1	0.8869
3460.58	0.8825
3470.05	0.879
3479.53	0.8785
3489	0.882
3498.48	0.8894
3507.96	0.891
3517.43	0.893
3526.91	0.893
3536.38	0.893
3545.86	0.893
3555.33	0.893
3564.81	0.8938
3574.28	0.8955
3583.76	0.897
3593.23	0.897
3602.71	0.895
3612.19	0.895
3621.66	0.895
3631.14	0.895
3640.61	0.895
3650.09	0.895
3659.56	0.894
3669.04	0.893
3678.51	0.893
3687.99	0.8912
3697.46	0.891
3706.94	0.891
3716.42	0.891
3725.89	0.891
3735.37	0.891
3744.84	0.891
3754.32	0.891
3763.79	0.891
3773.27	0.891
3782.74	0.891
3792.22	0.893
3801.7	0.893
3811.17	0.893
3820.65	0.893
3830.12	0.893
3839.6	0.893
3849.07	0.893
3858.55	0.893
3868.02	0.8939
3877.5	0.895
3886.97	0.895
3896.45	0.895
3905.93	0.8942
3915.4	0.893
3924.88	0.893
3934.35	0.893
3943.83	0.894
3953.3	0.893
3962.78	0.8916
3972.25	0.8902
3981.73	0.891
3991.2	0.8931
4000.68	0.894
