Infrared Spectrum: ACETIC ACID, CYANO-, METHYL ESTER
Formula: C4 H5 N O2
CAS: 105-34-0
State: LIQUID (NEAT)
Boiling point: 206 C
Class: COBLENTZ
Instrument: PERKIN-ELMER 521 (GRATING)
Instrument parameters: FILTERS AT 3150, 2500, 2000, 1150, 700, 410. GRATING CHANGES: 2000, 630 CM^-^1
Sampling: TRANSMISSION
Path length: CAPILLARY (CsBr PLATES VS. CsBr)
Resolution: 2
Origin: STANDARD OIL OF OHIO
1/CM	TRANSMITTANCE
249.97	0.849
259.649	0.838
269.329	0.791
279.008	0.736
288.688	0.71
298.367	0.771
308.046	0.82
317.726	0.868
327.405	0.877
337.084	0.873
346.764	0.851
356.443	0.838
366.123	0.854
375.802	0.844
385.481	0.746
395.161	0.669
404.84	0.818
414.52	0.857
424.199	0.868
433.878	0.869
443.558	0.866
453.237	0.856
462.916	0.842
472.596	0.853
482.275	0.846
491.955	0.828
501.634	0.85
511.313	0.863
520.993	0.867
530.672	0.867
540.352	0.868
550.031	0.868
559.71	0.867
569.39	0.851
579.069	0.773
588.748	0.774
598.428	0.822
608.107	0.844
617.787	0.862
627.466	0.878
637.145	0.89
646.825	0.89
656.504	0.89
666.184	0.887
675.863	0.879
685.542	0.866
695.222	0.849
704.901	0.807
714.58	0.684
724.26	0.803
733.939	0.859
743.619	0.875
753.298	0.881
762.977	0.886
772.657	0.889
782.336	0.891
792.016	0.895
801.695	0.897
811.374	0.893
821.054	0.885
830.733	0.854
840.413	0.6439
850.092	0.796
859.771	0.874
869.451	0.873
879.13	0.851
888.809	0.739
898.489	0.84
908.168	0.867
917.848	0.824
927.527	0.628
937.206	0.7
946.886	0.846
956.565	0.86
966.245	0.859
975.924	0.851
985.603	0.81
995.283	0.6779
1004.96	0.401
1014.64	0.4561
1024.32	0.739
1034	0.834
1043.68	0.86
1053.36	0.872
1063.04	0.874
1072.72	0.875
1082.4	0.874
1092.08	0.868
1101.76	0.863
1111.44	0.85
1121.11	0.832
1130.79	0.803
1140.47	0.751
1150.15	0.667
1159.83	0.533
1169.51	0.383
1179.19	0.354
1188.87	0.395
1198.55	0.348
1208.23	0.324
1217.91	0.325
1227.59	0.38
1237.27	0.456
1246.95	0.453
1256.63	0.365
1266.31	0.33
1275.98	0.368
1285.66	0.45
1295.34	0.498
1305.02	0.513
1314.7	0.559
1324.38	0.475
1334.06	0.334
1343.74	0.367
1353.42	0.453
1363.1	0.6081
1372.78	0.702
1382.46	0.6299
1392.14	0.471
1401.82	0.5671
1411.5	0.706
1421.18	0.7
1430.86	0.3999
1440.53	0.4142
1450.21	0.5691
1459.89	0.6311
1469.57	0.739
1479.25	0.787
1488.93	0.818
1498.61	0.83
1508.29	0.836
1517.97	0.84
1527.65	0.846
1537.33	0.849
1547.01	0.849
1556.69	0.848
1566.37	0.848
1576.05	0.848
1585.73	0.846
1595.4	0.839
1605.08	0.819
1614.76	0.813
1624.44	0.814
1634.12	0.824
1643.8	0.825
1653.48	0.821
1663.16	0.812
1672.84	0.802
1682.52	0.785
1692.2	0.754
1701.88	0.691
1711.56	0.636
1721.24	0.5539
1730.92	0.3459
1740.6	0.25
1750.27	0.238
1759.95	0.271
1769.63	0.4301
1779.31	0.578
1788.99	0.681
1798.67	0.75
1808.35	0.785
1818.03	0.809
1827.71	0.826
1837.39	0.831
1847.07	0.828
1856.75	0.837
1866.43	0.856
1876.11	0.863
1885.79	0.865
1895.47	0.861
1905.14	0.86
1914.82	0.862
1924.5	0.857
1934.18	0.854
1943.86	0.865
1953.54	0.869
1963.22	0.872
1972.9	0.872
1982.58	0.872
1992.26	0.871
2001.94	0.869
2011.62	0.869
2021.3	0.8691
2030.98	0.871
2040.66	0.872
2050.34	0.871
2060.02	0.871
2069.69	0.869
2079.37	0.8689
2089.05	0.8628
2098.73	0.8527
2108.41	0.8502
2118.09	0.8603
2127.77	0.8712
2137.45	0.8742
2147.13	0.8772
2156.81	0.881
2166.49	0.883
2176.17	0.881
2185.85	0.8815
2195.53	0.8824
2205.21	0.879
2214.89	0.8777
2224.56	0.872
2234.24	0.869
2243.92	0.8445
2253.6	0.7586
2263.28	0.7385
2272.96	0.7723
2282.64	0.8318
2292.32	0.8673
2302	0.8726
2311.68	0.8685
2321.36	0.866
2331.04	0.8745
2340.72	0.877
2350.4	0.878
2360.08	0.878
2369.76	0.878
2379.43	0.878
2389.11	0.878
2398.79	0.8774
2408.47	0.874
2418.15	0.874
2427.83	0.875
2437.51	0.878
2447.19	0.879
2456.87	0.88
2466.55	0.881
2476.23	0.8824
2485.91	0.881
2495.59	0.88
2505.27	0.879
2514.95	0.8773
2524.63	0.8765
2534.3	0.8755
2543.98	0.874
2553.66	0.875
2563.34	0.877
2573.02	0.875
2582.7	0.875
2592.38	0.873
2602.06	0.8739
2611.74	0.875
2621.42	0.875
2631.1	0.878
2640.78	0.877
2650.46	0.8799
2660.14	0.881
2669.82	0.8829
2679.5	0.884
2689.18	0.885
2698.85	0.886
2708.53	0.886
2718.21	0.886
2727.89	0.886
2737.57	0.8859
2747.25	0.885
2756.93	0.885
2766.61	0.884
2776.29	0.883
2785.97	0.881
2795.65	0.88
2805.33	0.88
2815.01	0.8765
2824.69	0.8706
2834.37	0.8646
2844.05	0.8339
2853.72	0.8122
2863.4	0.8399
2873.08	0.8447
2882.76	0.8289
2892.44	0.8077
2902.12	0.7895
2911.8	0.7622
2921.48	0.6953
2931.16	0.6009
2940.84	0.5856
2950.52	0.6074
2960.2	0.5086
2969.88	0.5605
2979.56	0.6036
2989.24	0.6581
2998.92	0.705
3008.59	0.7195
3018.27	0.7338
3027.95	0.7689
3037.63	0.7875
3047.31	0.8105
3056.99	0.8301
3066.67	0.8481
3076.35	0.8565
3086.03	0.8637
3095.71	0.8666
3105.39	0.872
3115.07	0.8746
3124.75	0.878
3134.43	0.875
3144.11	0.8786
3153.79	0.881
3163.46	0.881
3173.14	0.878
3182.82	0.875
3192.5	0.875
3202.18	0.8787
3211.86	0.8807
3221.54	0.8848
3231.22	0.8858
3240.9	0.889
3250.58	0.89
3260.26	0.8902
3269.94	0.89
3279.62	0.8908
3289.3	0.891
3298.98	0.892
3308.66	0.892
3318.34	0.892
3328.01	0.892
3337.69	0.892
3347.37	0.892
3357.05	0.892
3366.73	0.891
3376.41	0.89
3386.09	0.89
3395.77	0.889
3405.45	0.887
3415.13	0.886
3424.81	0.885
3434.49	0.8829
3444.17	0.879
3453.85	0.8739
3463.53	0.8646
3473.21	0.8528
3482.88	0.8429
3492.56	0.8441
3502.24	0.851
3511.92	0.854
3521.6	0.854
3531.28	0.8508
3540.96	0.8476
3550.64	0.845
3560.32	0.8452
3570	0.848
3579.68	0.8503
3589.36	0.851
3599.04	0.8497
3608.72	0.843
3618.4	0.8387
3628.08	0.8307
3637.75	0.8267
3647.43	0.826
3657.11	0.8288
3666.79	0.8364
3676.47	0.8632
3686.15	0.8739
3695.83	0.8899
3705.51	0.8939
3715.19	0.897
3724.87	0.9
3734.55	0.9
3744.23	0.9
3753.91	0.9
3763.59	0.9
3773.27	0.901
3782.95	0.901
3792.63	0.901
3802.3	0.901
3811.98	0.901
3821.66	0.901
3831.34	0.9
3841.02	0.8987
3850.7	0.9
3860.38	0.9
3870.06	0.9
3879.74	0.901
3889.42	0.901
3899.1	0.901
