Infrared Spectrum: CARBONIC ACID, DIETHYL ESTER
Formula: C5 H10 O3
CAS: 105-58-8
State: SOLUTION (10% IN CCl4 FOR 3800-1300, 10% IN CS2 FOR 1300-650, AND 10% CCl4 FOR 650-250 CM^-^1) VERSUS SOLVENT
Class: COBLENTZ III
Instrument: PERKIN-ELMER 521 (GRATING)
Instrument parameters: FILTERS AT 3150, 2500, 2000, 1150, 700, 410; GRATING CHANGES AT 2000, 630 CM^-^1
Sampling: TRANSMISSION
Path length: 0.011, 0.010, AND 0.010 CM (CsBr CELL)
Resolution: 4
Origin: DOW CORNING CORP.
1/CM	TRANSMITTANCE
233.479	0.73
243.326	0.729
253.173	0.733
263.02	0.736
272.866	0.744
282.713	0.754
292.56	0.769
302.407	0.772
312.254	0.758
322.101	0.746
331.948	0.726
341.794	0.725
351.641	0.697
361.488	0.642
371.335	0.577
381.182	0.696
391.029	0.706
400.875	0.681
410.722	0.725
420.569	0.773
430.416	0.801
440.263	0.821
450.11	0.836
459.957	0.838
469.803	0.85
479.65	0.854
489.497	0.858
499.344	0.861
509.191	0.845
519.038	0.845
528.885	0.856
538.731	0.868
548.578	0.865
558.425	0.866
568.272	0.87
578.119	0.874
587.966	0.878
597.812	0.888
607.659	0.9
617.506	0.91
627.353	0.922
637.2	0.934
647.047	0.948
656.894	0.96
666.74	0.968
676.587	0.978
686.434	0.976
696.281	0.978
706.128	0.984
715.975	0.986
725.822	0.989
735.668	0.992
745.515	0.988
755.362	0.985
765.209	0.977
775.056	0.957
784.903	0.8
794.749	0.7101
804.596	0.916
814.443	0.949
824.29	0.954
834.137	0.948
843.984	0.916
853.831	0.721
863.677	0.885
873.524	0.936
883.371	0.944
893.218	0.924
903.065	0.918
912.912	0.96
922.759	0.965
932.605	0.962
942.452	0.96
952.299	0.952
962.146	0.922
971.993	0.9
981.84	0.865
991.686	0.881
1001.53	0.848
1011.38	0.648
1021.23	0.262
1031.07	0.594
1040.92	0.802
1050.77	0.88
1060.61	0.894
1070.46	0.888
1080.31	0.852
1090.15	0.734
1100	0.85
1109.85	0.856
1119.7	0.868
1129.54	0.917
1139.39	0.93
1149.24	0.92
1159.08	0.901
1168.93	0.877
1178.78	0.876
1188.62	0.902
1198.47	0.885
1208.32	0.865
1218.16	0.79
1228.01	0.67
1237.86	0.51
1247.7	0.169
1257.55	0
1267.4	0.081
1277.25	0.416
1287.09	0.637
1296.94	0.612
1306.79	0.073
1316.63	0.3691
1326.48	0.564
1336.33	0.641
1346.17	0.666
1356.02	0.617
1365.87	0.329
1375.71	0.01
1385.56	0.288
1395.41	0.273
1405.25	0.325
1415.1	0.242
1424.95	0.546
1434.79	0.572
1444.64	0.362
1454.49	0.361
1464.34	0.277
1474.18	0.1771
1484.03	0.2251
1493.88	0.637
1503.72	0.74
1513.57	0.776
1523.42	0.808
1533.26	0.805
1543.11	0.813
1552.96	0.809
1562.8	0.801
1572.65	0.772
1582.5	0.724
1592.34	0.724
1602.19	0.73
1612.04	0.726
1621.88	0.726
1631.73	0.736
1641.58	0.741
1651.43	0.744
1661.27	0.745
1671.12	0.728
1680.97	0.701
1690.81	0.632
1700.66	0.522
1710.51	0.465
1720.35	0.373
1730.2	0.1729
1740.05	0.002
1749.89	0.001
1759.74	0.01
1769.59	0.1261
1779.43	0.4121
1789.28	0.572
1799.13	0.658
1808.98	0.708
1818.82	0.748
1828.67	0.762
1838.52	0.784
1848.36	0.8
1858.21	0.816
1868.06	0.826
1877.9	0.828
1887.75	0.833
1897.6	0.84
1907.44	0.836
1917.29	0.825
1927.14	0.813
1936.98	0.824
1946.83	0.826
1956.68	0.826
1966.52	0.804
1976.37	0.79
1986.22	0.821
1996.07	0.836
2005.91	0.856
2015.76	0.87
2025.61	0.873
2035.45	0.873
2045.3	0.873
2055.15	0.87
2064.99	0.869
2074.84	0.868
2084.69	0.866
2094.53	0.866
2104.38	0.865
2114.23	0.864
2124.07	0.864
2133.92	0.861
2143.77	0.8529
2153.61	0.8437
2163.46	0.832
2173.31	0.8321
2183.16	0.8503
2193	0.8582
2202.85	0.8609
2212.7	0.854
2222.54	0.8476
2232.39	0.8358
2242.24	0.8299
2252.08	0.829
2261.93	0.8321
2271.78	0.8401
2281.62	0.8506
2291.47	0.862
2301.32	0.8663
2311.16	0.87
2321.01	0.872
2330.86	0.869
2340.7	0.8601
2350.55	0.85
2360.4	0.84
2370.25	0.8356
2380.09	0.833
2389.94	0.8322
2399.79	0.8409
2409.63	0.85
2419.48	0.853
2429.33	0.854
2439.17	0.8538
2449.02	0.852
2458.87	0.854
2468.71	0.8643
2478.56	0.862
2488.41	0.857
2498.25	0.8555
2508.1	0.8487
2517.95	0.845
2527.8	0.8466
2537.64	0.853
2547.49	0.858
2557.34	0.862
2567.18	0.864
2577.03	0.866
2586.88	0.868
2596.72	0.868
2606.57	0.865
2616.42	0.864
2626.26	0.8607
2636.11	0.852
2645.96	0.848
2655.8	0.8534
2665.65	0.864
2675.5	0.866
2685.34	0.868
2695.19	0.8686
2705.04	0.8656
2714.89	0.8566
2724.73	0.8486
2734.58	0.845
2744.43	0.846
2754.27	0.844
2764.12	0.8414
2773.97	0.845
2783.81	0.8411
2793.66	0.8389
2803.51	0.838
2813.35	0.8308
2823.2	0.813
2833.05	0.8095
2842.89	0.8027
2852.74	0.7902
2862.59	0.7519
2872.43	0.6693
2882.28	0.577
2892.13	0.675
2901.98	0.5357
2911.82	0.4269
2921.67	0.4506
2931.52	0.4733
2941.36	0.3475
2951.21	0.4212
2961.06	0.4129
2970.9	0.2954
2980.75	0.1692
2990.6	0.0606
3000.44	0.127
3010.29	0.2509
3020.14	0.5607
3029.98	0.6964
3039.83	0.7748
3049.68	0.8118
3059.52	0.8292
3069.37	0.8464
3079.22	0.8536
3089.07	0.8592
3098.91	0.8632
3108.76	0.861
3118.61	0.8696
3128.45	0.8708
3138.3	0.869
3148.15	0.869
3157.99	0.872
3167.84	0.873
3177.69	0.874
3187.53	0.876
3197.38	0.876
3207.23	0.8767
3217.07	0.878
3226.92	0.88
3236.77	0.8817
3246.62	0.886
3256.46	0.884
3266.31	0.882
3276.16	0.884
3286	0.886
3295.85	0.884
3305.7	0.881
3315.54	0.88
3325.39	0.8773
3335.24	0.8763
3345.08	0.873
3354.93	0.873
3364.78	0.873
3374.62	0.873
3384.47	0.872
3394.32	0.873
3404.16	0.8732
3414.01	0.873
3423.86	0.8732
3433.71	0.872
3443.55	0.8666
3453.4	0.857
3463.25	0.8444
3473.09	0.841
3482.94	0.8496
3492.79	0.8635
3502.63	0.8728
3512.48	0.876
3522.33	0.876
3532.17	0.876
3542.02	0.8731
3551.87	0.872
3561.71	0.8729
3571.56	0.877
3581.41	0.8806
3591.25	0.884
3601.1	0.8859
3610.95	0.888
3620.8	0.892
3630.64	0.89
3640.49	0.8862
3650.34	0.8889
3660.18	0.8851
3670.03	0.882
3679.88	0.8782
3689.72	0.8779
3699.57	0.8848
3709.42	0.8929
3719.26	0.892
3729.11	0.889
3738.96	0.888
3748.8	0.89
3758.65	0.892
3768.5	0.892
3778.35	0.892
3788.19	0.89
