Infrared Spectrum: MALONIC ACID, DIETHYL ESTER
Formula: C7 H12 O4
CAS: 105-53-3
State: SOLUTION (10% IN CCl4 FOR 3800-1300, 10% IN CS2 FOR 1300-650, AND 10% CCl4 FOR 650-230 CM^-^1) VERSUS SOLVENT
Class: COBLENTZ III
Instrument: PERKIN-ELMER 521 (GRATING)
Instrument parameters: FILTERS AT 3150, 2500, 2000, 1150, 700, 410; GRATING CHANGES AT 2000, 630 CM^-^1
Sampling: TRANSMISSION
Path length: 0.012, 0.011, AND 0.010 CM (CsBr CELL)
Resolution: 4
Origin: DOW CORNING CORP.
1/CM	TRANSMITTANCE
261.967	0.766
270.819	0.764
279.672	0.765
288.524	0.765
297.377	0.761
306.229	0.77
315.082	0.798
323.934	0.825
332.787	0.802
341.639	0.781
350.492	0.784
359.344	0.786
368.197	0.766
377.049	0.714
385.902	0.812
394.754	0.877
403.607	0.884
412.459	0.881
421.312	0.877
430.164	0.861
439.017	0.83
447.869	0.801
456.722	0.818
465.574	0.874
474.427	0.89
483.279	0.898
492.132	0.901
500.984	0.898
509.837	0.893
518.689	0.892
527.542	0.889
536.394	0.873
545.246	0.844
554.099	0.794
562.951	0.725
571.804	0.649
580.656	0.648
589.509	0.644
598.361	0.63
607.214	0.705
616.066	0.766
624.919	0.804
633.771	0.822
642.624	0.828
651.476	0.822
660.329	0.805
669.181	0.75
678.034	0.688
686.886	0.744
695.739	0.849
704.591	0.866
713.444	0.866
722.296	0.866
731.149	0.865
740.001	0.857
748.854	0.837
757.706	0.81
766.559	0.761
775.411	0.754
784.264	0.709
793.116	0.72
801.969	0.758
810.821	0.761
819.673	0.792
828.526	0.79
837.378	0.738
846.231	0.66
855.083	0.698
863.936	0.654
872.788	0.702
881.641	0.837
890.493	0.861
899.346	0.85
908.198	0.824
917.051	0.784
925.903	0.722
934.756	0.678
943.608	0.673
952.461	0.664
961.313	0.706
970.166	0.814
979.018	0.83
987.871	0.808
996.723	0.786
1005.58	0.688
1014.43	0.536
1023.28	0.261
1032.13	0.013
1040.99	0.046
1049.84	0.378
1058.69	0.58
1067.54	0.66
1076.4	0.65
1085.25	0.5571
1094.1	0.2541
1102.95	0.368
1111.81	0.298
1120.66	0.305
1129.51	0.17
1138.36	0.024
1147.22	0.013
1156.07	0.041
1164.92	0.062
1173.77	0.048
1182.63	0.046
1191.48	0.061
1200.33	0.093
1209.18	0.1
1218.04	0.11
1226.89	0.137
1235.74	0.133
1244.59	0.121
1253.45	0.057
1262.3	0.037
1271.15	0.053
1280	0.097
1288.86	0.121
1297.71	0.061
1306.56	0.053
1315.41	0.05
1324.27	0.012
1333.12	0.048
1341.97	0.2979
1350.82	0.524
1359.67	0.501
1368.53	0.033
1377.38	0.292
1386.23	0.357
1395.08	0.32
1403.94	0.366
1412.79	0.258
1421.64	0.4939
1430.49	0.605
1439.35	0.516
1448.2	0.368
1457.05	0.457
1465.9	0.345
1474.76	0.398
1483.61	0.6491
1492.46	0.769
1501.31	0.792
1510.17	0.796
1519.02	0.796
1527.87	0.796
1536.72	0.796
1545.58	0.802
1554.43	0.801
1563.28	0.806
1572.13	0.814
1580.99	0.814
1589.84	0.813
1598.69	0.81
1607.54	0.81
1616.4	0.821
1625.25	0.822
1634.1	0.818
1642.95	0.808
1651.81	0.792
1660.66	0.777
1669.51	0.749
1678.36	0.709
1687.22	0.642
1696.07	0.51
1704.92	0.345
1713.77	0.23
1722.63	0.046
1731.48	0
1740.33	0
1749.18	0
1758.04	0
1766.89	0.029
1775.74	0.178
1784.59	0.4
1793.45	0.557
1802.3	0.633
1811.15	0.692
1820	0.741
1828.86	0.776
1837.71	0.802
1846.56	0.828
1855.41	0.833
1864.27	0.836
1873.12	0.832
1881.97	0.832
1890.82	0.836
1899.68	0.852
1908.53	0.862
1917.38	0.87
1926.23	0.874
1935.09	0.874
1943.94	0.873
1952.79	0.872
1961.64	0.869
1970.5	0.87
1979.35	0.874
1988.2	0.88
1997.05	0.882
2005.91	0.885
2014.76	0.886
2023.61	0.888
2032.46	0.888
2041.32	0.889
2050.17	0.889
2059.02	0.89
2067.87	0.891
2076.73	0.892
2085.58	0.892
2094.43	0.893
2103.28	0.893
2112.14	0.894
2120.99	0.896
2129.84	0.898
2138.69	0.9
2147.55	0.904
2156.4	0.907
2165.25	0.91
2174.1	0.91
2182.96	0.91
2191.81	0.909
2200.66	0.908
2209.51	0.9055
2218.37	0.905
2227.22	0.904
2236.07	0.902
2244.92	0.903
2253.78	0.9
2262.63	0.901
2271.48	0.905
2280.33	0.908
2289.19	0.909
2298.04	0.908
2306.89	0.906
2315.74	0.906
2324.6	0.904
2333.45	0.904
2342.3	0.906
2351.15	0.905
2360.01	0.905
2368.86	0.906
2377.71	0.906
2386.56	0.9035
2395.42	0.904
2404.27	0.901
2413.12	0.902
2421.97	0.904
2430.83	0.904
2439.68	0.905
2448.53	0.902
2457.38	0.903
2466.24	0.896
2475.09	0.902
2483.94	0.9
2492.79	0.902
2501.65	0.902
2510.5	0.902
2519.35	0.902
2528.2	0.9
2537.06	0.9
2545.91	0.901
2554.76	0.9
2563.61	0.8975
2572.47	0.904
2581.32	0.9055
2590.17	0.904
2599.02	0.901
2607.88	0.901
2616.73	0.9045
2625.58	0.905
2634.43	0.9055
2643.29	0.904
2652.14	0.9015
2660.99	0.901
2669.84	0.9
2678.7	0.898
2687.55	0.897
2696.4	0.9
2705.25	0.901
2714.11	0.898
2722.96	0.8945
2731.81	0.892
2740.66	0.893
2749.51	0.896
2758.37	0.89
2767.22	0.881
2776.07	0.8805
2784.92	0.882
2793.78	0.885
2802.63	0.878
2811.48	0.861
2820.33	0.853
2829.19	0.8495
2838.04	0.846
2846.89	0.8405
2855.74	0.818
2864.6	0.7656
2873.45	0.646
2882.3	0.7129
2891.15	0.653
2900.01	0.5531
2908.86	0.482
2917.71	0.6165
2926.56	0.564
2935.42	0.429
2944.27	0.4302
2953.12	0.4995
2961.97	0.3706
2970.83	0.313
2979.68	0.1532
2988.53	0.112
2997.38	0.1859
3006.24	0.393
3015.09	0.6078
3023.94	0.7266
3032.79	0.794
3041.65	0.8275
3050.5	0.837
3059.35	0.851
3068.2	0.865
3077.06	0.869
3085.91	0.869
3094.76	0.87
3103.61	0.868
3112.47	0.8685
3121.32	0.87
3130.17	0.8735
3139.02	0.874
3147.88	0.877
3156.73	0.877
3165.58	0.879
3174.43	0.873
3183.29	0.877
3192.14	0.877
3200.99	0.881
3209.84	0.878
3218.7	0.8765
3227.55	0.882
3236.4	0.884
3245.25	0.881
3254.11	0.886
3262.96	0.884
3271.81	0.885
3280.66	0.885
3289.52	0.885
3298.37	0.885
3307.22	0.8855
3316.07	0.888
3324.93	0.889
3333.78	0.89
3342.63	0.8925
3351.48	0.894
3360.34	0.896
3369.19	0.897
3378.04	0.898
3386.89	0.9
3395.75	0.9
3404.6	0.9
3413.45	0.898
3422.3	0.896
3431.16	0.89
3440.01	0.881
3448.86	0.889
3457.71	0.893
3466.57	0.894
3475.42	0.896
3484.27	0.896
3493.12	0.897
3501.98	0.898
3510.83	0.898
3519.68	0.898
3528.53	0.897
3537.39	0.895
3546.24	0.893
3555.09	0.893
3563.94	0.894
3572.8	0.899
3581.65	0.904
3590.5	0.9095
3599.35	0.912
3608.21	0.912
3617.06	0.91
3625.91	0.909
3634.76	0.912
3643.62	0.9165
3652.47	0.918
3661.32	0.919
3670.17	0.917
3679.03	0.9165
3687.88	0.92
3696.73	0.923
3705.58	0.925
3714.44	0.921
3723.29	0.921
3732.14	0.92
3740.99	0.918
3749.85	0.919
3758.7	0.921
3767.55	0.921
3776.4	0.92
3785.26	0.92
