Infrared Spectrum: ETHYL-n-BUTYRATE
Formula: C6 H12 O2
CAS: 105-54-4
State: LIQUID
Class: COBLENTZ
Instrument: Not specified, most likely a prism, grating, or hybrid spectrometer.
Sampling: TRANSMISSION
Path length: 0.003 CM
Resolution: 4
Origin: WYANDOTTE CHEMICALS CORP., WYANDOTTE, MICHIGAN, USA
MICROMETERS	TRANSMITTANCE
2.014	0.979
2.05488	0.976
2.09575	0.972
2.13663	0.967
2.1775	0.954
2.21838	0.922
2.25926	0.916
2.30013	0.925
2.34101	0.922
2.38188	0.918
2.42276	0.918
2.46364	0.923
2.50451	0.937
2.54539	0.945
2.58626	0.947
2.62714	0.945
2.66802	0.945
2.70889	0.93
2.74977	0.915
2.79064	0.911
2.83152	0.905
2.8724	0.9
2.91327	0.849
2.95415	0.874
2.99502	0.893
3.0359	0.891
3.07678	0.888
3.11765	0.867
3.15853	0.849
3.1994	0.842
3.24028	0.818
3.28116	0.769
3.32203	0.428
3.36291	0.049
3.40378	0.12
3.44466	0.247
3.48554	0.303
3.52641	0.632
3.56729	0.742
3.60816	0.806
3.64904	0.823
3.68992	0.83
3.73079	0.857
3.77167	0.861
3.81255	0.871
3.85342	0.874
3.8943	0.874
3.93517	0.876
3.97605	0.879
4.01693	0.879
4.0578	0.876
4.09868	0.869
4.13955	0.869
4.18043	0.871
4.22131	0.864
4.26218	0.867
4.30306	0.879
4.34393	0.881
4.38481	0.886
4.42569	0.866
4.46656	0.867
4.50744	0.867
4.54831	0.869
4.58919	0.872
4.63007	0.877
4.67094	0.877
4.71182	0.877
4.75269	0.869
4.79357	0.864
4.83445	0.861
4.87532	0.861
4.9162	0.854
4.95707	0.838
4.99795	0.838
5.03883	0.849
5.0797	0.85
5.12058	0.844
5.16145	0.837
5.20233	0.828
5.24321	0.828
5.28408	0.837
5.32496	0.828
5.36583	0.818
5.40671	0.818
5.44759	0.816
5.48846	0.81
5.52934	0.791
5.57021	0.757
5.61109	0.698
5.65197	0.589
5.69284	0.367
5.73372	0.086
5.77459	0.042
5.81547	0.096
5.85635	0.33
5.89722	0.433
5.9381	0.561
5.97897	0.683
6.01985	0.723
6.06073	0.742
6.1016	0.752
6.14248	0.761
6.18335	0.774
6.22423	0.783
6.26511	0.783
6.30598	0.783
6.34686	0.779
6.38773	0.781
6.42861	0.779
6.46949	0.777
6.51036	0.762
6.55124	0.754
6.59211	0.733
6.63299	0.701
6.67387	0.647
6.71474	0.467
6.75562	0.345
6.79649	0.181
6.83737	0.166
6.87825	0.218
6.91912	0.305
6.96	0.364
7.00087	0.337
7.04175	0.345
7.08263	0.459
7.1235	0.432
7.16438	0.3
7.20525	0.22
7.24613	0.113
7.28701	0.083
7.32788	0.235
7.36876	0.286
7.40964	0.22
7.45051	0.267
7.49139	0.396
7.53226	0.428
7.57314	0.393
7.61402	0.215
7.65489	0.093
7.69577	0.11
7.73664	0.161
7.77752	0.179
7.8184	0.189
7.85927	0.133
7.90015	0.086
7.94102	0.057
7.9819	0.052
8.02278	0.089
8.06365	0.122
8.10453	0.142
8.1454	0.159
8.18628	0.169
8.22716	0.125
8.26803	0.069
8.30891	0.04
8.34978	0.033
8.39066	0.032
8.43154	0.032
8.47241	0.03
8.51329	0.032
8.55416	0.037
8.59504	0.066
8.63592	0.133
8.67679	0.235
8.71767	0.33
8.75854	0.396
8.79942	0.428
8.8403	0.438
8.88117	0.394
8.92205	0.252
8.96292	0.164
9.0038	0.133
9.04468	0.106
9.08555	0.084
9.12643	0.076
9.1673	0.11
9.20818	0.164
9.24906	0.22
9.28993	0.296
9.33081	0.374
9.37168	0.408
9.41256	0.401
9.45344	0.325
9.49431	0.227
9.53519	0.215
9.57606	0.24
9.61694	0.244
9.65782	0.176
9.69869	0.093
9.73957	0.079
9.78044	0.152
9.82132	0.305
9.8622	0.447
9.90307	0.562
9.94395	0.635
9.98482	0.689
10.0257	0.727
10.0666	0.738
10.1075	0.757
10.1483	0.767
10.1892	0.769
10.2301	0.772
10.271	0.772
10.3118	0.772
10.3527	0.771
10.3936	0.762
10.4345	0.755
10.4753	0.73
10.5162	0.694
10.5571	0.642
10.598	0.603
10.6388	0.596
10.6797	0.581
10.7206	0.535
10.7615	0.523
10.8023	0.557
10.8432	0.598
10.8841	0.628
10.925	0.667
10.9658	0.703
11.0067	0.723
11.0476	0.72
11.0885	0.703
11.1294	0.696
11.1702	0.698
11.2111	0.703
11.252	0.72
11.2929	0.727
11.3337	0.723
11.3746	0.711
11.4155	0.694
11.4564	0.674
11.4972	0.649
11.5381	0.637
11.579	0.623
11.6199	0.598
11.6607	0.569
11.7016	0.547
11.7425	0.533
11.7834	0.537
11.8242	0.545
11.8651	0.579
11.906	0.616
11.9469	0.652
11.9877	0.679
12.0286	0.7
12.0695	0.708
12.1104	0.716
12.1513	0.716
12.1921	0.715
12.233	0.701
12.2739	0.679
12.3148	0.657
12.3556	0.637
12.3965	0.62
12.4374	0.605
12.4783	0.594
12.5191	0.584
12.56	0.579
12.6009	0.579
12.6418	0.581
12.6826	0.598
12.7235	0.608
12.7644	0.611
12.8053	0.606
12.8461	0.598
12.887	0.588
12.9279	0.586
12.9688	0.601
13.0097	0.625
13.0505	0.645
13.0914	0.65
13.1323	0.649
13.1732	0.638
13.214	0.615
13.2549	0.591
13.2958	0.576
13.3367	0.579
13.3775	0.61
13.4184	0.638
13.4593	0.671
13.5002	0.696
13.541	0.71
13.5819	0.722
13.6228	0.728
13.6637	0.733
13.7045	0.733
13.7454	0.737
13.7863	0.733
13.8272	0.735
13.868	0.735
13.9089	0.733
13.9498	0.733
13.9907	0.733
14.0316	0.735
14.0724	0.735
14.1133	0.737
14.1542	0.737
14.1951	0.738
14.2359	0.738
14.2768	0.738
14.3177	0.738
14.3586	0.738
14.3994	0.742
14.4403	0.74
14.4812	0.742
14.5221	0.742
14.5629	0.742
14.6038	0.74
14.6447	0.74
14.6856	0.742
14.7264	0.738
14.7673	0.737
14.8082	0.737
14.8491	0.737
14.8899	0.737
14.9308	0.737
14.9717	0.735
15.0126	0.716
15.0535	0.701
15.0943	0.713
15.1352	0.723
15.1761	0.727
15.217	0.72
15.2578	0.715
15.2987	0.71
15.3396	0.708
15.3805	0.706
15.4213	0.701
15.4622	0.7
15.5031	0.696
15.544	0.691
15.5848	0.688
15.6257	0.684
15.6666	0.681
15.7075	0.677
15.7483	0.672
15.7892	0.671
15.8301	0.667
15.871	0.664
15.9118	0.661
15.9527	0.659
15.9936	0.659
