Infrared Spectrum: 1,4-DIETHYLBENZENE
Formula: C10 H14
CAS: 105-05-5
State: LIQUID
Class: COBLENTZ
Instrument: PERKIN-ELMER
Sampling: TRANSMISSION
Path length: 0.0025 CM
Resolution: 4
Origin: STANDARD OIL OF OHIO
1/CM	TRANSMITTANCE
584.175	0.612
592.593	0.618
601.01	0.62
609.428	0.622
617.845	0.627
626.263	0.635
634.68	0.647
643.098	0.667
651.515	0.694
659.933	0.709
668.35	0.726
676.768	0.745
685.185	0.748
693.603	0.7151
702.02	0.703
710.438	0.748
718.855	0.774
727.273	0.789
735.69	0.799
744.108	0.797
752.525	0.789
760.943	0.77
769.36	0.748
777.778	0.72
786.195	0.661
794.613	0.652
803.03	0.625
811.448	0.6081
819.865	0.451
828.283	0.1193
836.7	0.02
845.118	0.3636
853.535	0.679
861.953	0.7869
870.371	0.827
878.788	0.849
887.206	0.865
895.623	0.868
904.041	0.87
912.458	0.87
920.876	0.871
929.293	0.868
937.711	0.854
946.128	0.838
954.546	0.819
962.963	0.7631
971.381	0.6
979.798	0.6739
988.216	0.787
996.633	0.833
1005.05	0.833
1013.47	0.817
1021.89	0.666
1030.3	0.7148
1038.72	0.642
1047.14	0.713
1055.56	0.647
1063.97	0.4382
1072.39	0.654
1080.81	0.7889
1089.23	0.816
1097.64	0.814
1106.06	0.797
1114.48	0.7162
1122.9	0.568
1131.31	0.7678
1139.73	0.848
1148.15	0.861
1156.57	0.863
1164.98	0.858
1173.4	0.846
1181.82	0.817
1190.24	0.827
1198.65	0.824
1207.07	0.811
1215.49	0.826
1223.91	0.841
1232.32	0.822
1240.74	0.807
1249.16	0.822
1257.58	0.831
1265.99	0.824
1274.41	0.816
1282.83	0.79
1291.25	0.753
1299.66	0.723
1308.08	0.699
1316.5	0.632
1324.92	0.63
1333.33	0.6809
1341.75	0.73
1350.17	0.753
1358.59	0.731
1367	0.5712
1375.42	0.578
1383.84	0.6819
1392.26	0.696
1400.67	0.679
1409.09	0.571
1417.51	0.4331
1425.93	0.521
1434.34	0.5
1442.76	0.409
1451.18	0.2591
1459.6	0.177
1468.01	0.2458
1476.43	0.568
1484.85	0.6499
1493.27	0.674
1501.68	0.6301
1510.1	0.4509
1518.52	0.153
1526.94	0.593
1535.35	0.7569
1543.77	0.849
1552.19	0.87
1560.61	0.871
1569.02	0.871
1577.44	0.871
1585.86	0.875
1594.28	0.873
1602.69	0.87
1611.11	0.865
1619.53	0.861
1627.95	0.868
1636.36	0.866
1644.78	0.863
1653.2	0.834
1661.62	0.787
1670.03	0.765
1678.45	0.831
1686.87	0.873
1695.29	0.885
1703.7	0.897
1712.12	0.895
1720.54	0.895
1728.96	0.9
1737.37	0.898
1745.79	0.9
1754.21	0.89
1762.63	0.88
1771.04	0.866
1779.46	0.878
1787.88	0.854
1796.3	0.809
1804.71	0.8599
1813.13	0.9
1821.55	0.907
1829.97	0.908
1838.38	0.907
1846.8	0.905
1855.22	0.902
1863.64	0.9
1872.05	0.89
1880.47	0.871
1888.89	0.839
1897.31	0.748
1905.72	0.669
1914.14	0.851
1922.56	0.885
1930.98	0.9
1939.39	0.908
1947.81	0.912
1956.23	0.91
1964.65	0.905
1973.06	0.91
1981.48	0.912
1989.9	0.912
1998.32	0.908
2006.74	0.91
2015.15	0.907
2023.57	0.9
2031.99	0.898
2040.41	0.903
2048.82	0.9099
2057.24	0.913
2065.66	0.913
2074.08	0.913
2082.49	0.913
2090.91	0.913
2099.33	0.913
2107.75	0.912
2116.16	0.913
2124.58	0.9121
2133	0.912
2141.42	0.91
2149.83	0.91
2158.25	0.908
2166.67	0.905
2175.09	0.9098
2183.5	0.912
2191.92	0.912
2200.34	0.9102
2208.76	0.908
2217.17	0.9032
2225.59	0.902
2234.01	0.902
2242.43	0.902
2250.84	0.903
2259.26	0.902
2267.68	0.902
2276.1	0.902
2284.51	0.902
2292.93	0.902
2301.35	0.8975
2309.77	0.8766
2318.18	0.8888
2326.6	0.897
2335.02	0.898
2343.44	0.898
2351.85	0.9028
2360.27	0.908
2368.69	0.908
2377.11	0.908
2385.52	0.91
2393.94	0.91
2402.36	0.907
2410.78	0.9
2419.19	0.9
2427.61	0.897
2436.03	0.892
2444.45	0.8978
2452.86	0.9065
2461.28	0.908
2469.7	0.908
2478.12	0.9055
2486.53	0.902
2494.95	0.9
2503.37	0.9005
2511.79	0.9
2520.2	0.8973
2528.62	0.8923
2537.04	0.8945
2545.46	0.898
2553.87	0.8994
2562.29	0.9
2570.71	0.9
2579.13	0.9
2587.54	0.8956
2595.96	0.8879
2604.38	0.8836
2612.8	0.8844
2621.21	0.8816
2629.63	0.8626
2638.05	0.8524
2646.47	0.8734
2654.88	0.8863
2663.3	0.8893
2671.72	0.89
2680.14	0.8873
2688.55	0.8837
2696.97	0.88
2705.39	0.876
2713.81	0.873
2722.22	0.8661
2730.64	0.8402
2739.06	0.8379
2747.48	0.8484
2755.89	0.8398
2764.31	0.8318
2772.73	0.8198
2781.15	0.812
2789.56	0.8064
2797.98	0.806
2806.4	0.8014
2814.82	0.781
2823.23	0.7438
2831.65	0.6926
2840.07	0.5915
2848.49	0.4892
2856.9	0.3491
2865.32	0.2075
2873.74	0.119
2882.16	0.065
2890.57	0.1448
2898.99	0.1786
2907.41	0.1532
2915.83	0.1775
2924.24	0.1266
2932.66	0.0506
2941.08	0.026
2949.5	0.0432
2957.91	0.095
2966.33	0.0313
2974.75	0.016
2983.17	0.017
2991.58	0.1015
3000	0.245
3008.42	0.298
3016.84	0.206
3025.25	0.2036
3033.67	0.2206
3042.09	0.4095
3050.51	0.4298
3058.92	0.3709
3067.34	0.4316
3075.76	0.6636
3084.18	0.704
3092.59	0.687
3101.01	0.612
3109.43	0.7376
3117.85	0.8203
3126.26	0.8243
3134.68	0.8131
3143.1	0.8078
3151.52	0.8355
3159.93	0.849
3168.35	0.851
3176.77	0.851
3185.19	0.8548
3193.6	0.863
3202.02	0.87
3210.44	0.8738
3218.86	0.878
3227.27	0.8818
3235.69	0.885
3244.11	0.8874
3252.53	0.89
3260.94	0.8924
3269.36	0.893
3277.78	0.895
3286.2	0.895
3294.61	0.893
3303.03	0.895
3311.45	0.895
3319.87	0.895
3328.28	0.8943
3336.7	0.895
3345.12	0.8944
3353.54	0.8936
3361.95	0.895
3370.37	0.895
3378.79	0.893
3387.21	0.893
3395.63	0.893
3404.04	0.893
3412.46	0.893
3420.88	0.8921
3429.3	0.89
3437.71	0.89
3446.13	0.89
3454.55	0.888
3462.97	0.8865
3471.38	0.883
3479.8	0.881
3488.22	0.881
3496.64	0.881
3505.05	0.881
3513.47	0.883
3521.89	0.885
3530.31	0.8885
3538.72	0.892
3547.14	0.8934
3555.56	0.895
3563.98	0.895
3572.39	0.895
3580.81	0.8946
3589.23	0.893
3597.65	0.8954
3606.06	0.8966
3614.48	0.895
3622.9	0.893
3631.32	0.89
3639.73	0.888
3648.15	0.887
3656.57	0.881
3664.99	0.8808
3673.4	0.883
3681.82	0.885
3690.24	0.885
3698.66	0.885
3707.07	0.885
3715.49	0.887
3723.91	0.887
3732.33	0.888
3740.74	0.888
3749.16	0.888
3757.58	0.89
3766	0.89
3774.41	0.89
3782.83	0.8902
3791.25	0.892
3799.67	0.8918
3808.08	0.8879
3816.5	0.885
3824.92	0.8852
3833.34	0.885
3841.75	0.885
3850.17	0.885
3858.59	0.885
3867.01	0.885
3875.42	0.8849
3883.84	0.8829
3892.26	0.881
3900.68	0.881
3909.09	0.875
3917.51	0.873
3925.93	0.87
3934.35	0.87
