Infrared Spectrum: 2-Butenedioic acid (E), dibutyl ester
Formula: C12 H20 O4
CAS: 105-75-9
State: SOLUTION (10% CCl4 FOR 2.7-7.5, 10% CS2 FOR 7.5-26 MICRON) VS SOLVENT
Class: COBLENTZ III
Instrument: DOW KBr FOREPRISM-GRATING
Instrument parameters: BLAZED AT 3.5, 12.0, 20.0 MICRON AND CHANGED AT 5.0, 7.5, 14.9 MICRON
Sampling: TRANSMISSION
Path length: 0.011 CM, 0.011 CM
Resolution: 2
Origin: DOW CHEMICAL COMPANY
1/CM	TRANSMITTANCE
3800	0.8497
3791	0.8499
3782	0.8496
3773	0.8489
3764	0.8489
3755	0.8503
3746	0.8541
3737	0.8582
3728	0.86
3719	0.8603
3710	0.8606
3701	0.8606
3692	0.8593
3683	0.8542
3674	0.8538
3665	0.8577
3656	0.8583
3647	0.858
3638	0.8583
3629	0.8594
3620	0.8611
3611	0.8627
3602	0.8642
3593	0.8655
3584	0.8668
3575	0.8678
3566	0.8678
3557	0.8643
3548	0.8658
3539	0.8675
3530	0.8694
3521	0.871
3512	0.8721
3503	0.8727
3494	0.8737
3485	0.8748
3476	0.8741
3467	0.8705
3458	0.8558
3449	0.8316
3440	0.8078
3431	0.814
3422	0.8401
3413	0.8583
3404	0.8687
3395	0.8699
3386	0.8696
3377	0.8687
3368	0.8677
3359	0.8668
3350	0.8665
3341	0.866
3332	0.8656
3323	0.8653
3314	0.8654
3305	0.8656
3296	0.8657
3287	0.8659
3278	0.8663
3269	0.8666
3260	0.867
3251	0.8673
3242	0.8674
3233	0.8675
3224	0.8678
3215	0.8673
3206	0.8646
3197	0.8627
3188	0.8621
3179	0.8627
3170	0.8647
3161	0.8663
3152	0.8668
3143	0.8661
3134	0.865
3125	0.8634
3116	0.8605
3107	0.8558
3098	0.8475
3089	0.8351
3080	0.8168
3071	0.8182
3062	0.8211
3053	0.8205
3044	0.8161
3035	0.805
3026	0.7845
3017	0.743
3008	0.6309
2999	0.4666
2990	0.3169
2981	0.0942
2972	0.0234
2963	0.0263
2954	0.1235
2945	0.1456
2936	0.1088
2927	0.2646
2918	0.323
2909	0.3498
2900	0.3771
2891	0.4095
2882	0.1636
2873	0.3512
2864	0.5639
2855	0.5756
2846	0.6912
2837	0.7333
2828	0.7593
2819	0.7828
2810	0.804
2801	0.8175
2792	0.8292
2783	0.836
2774	0.8404
2765	0.8425
2756	0.8443
2747	0.8418
2738	0.8387
2729	0.8392
2720	0.8436
2711	0.8474
2702	0.851
2693	0.8523
2684	0.8537
2675	0.855
2666	0.8552
2657	0.8551
2648	0.8585
2639	0.8618
2630	0.8628
2621	0.8633
2612	0.864
2603	0.8643
2594	0.8646
2585	0.8649
2576	0.8651
2567	0.8658
2558	0.8666
2549	0.8675
2540	0.8682
2531	0.8681
2522	0.868
2513	0.8675
2504	0.8673
2495	0.8682
2486	0.8692
2477	0.8701
2468	0.871
2459	0.8718
2450	0.8735
2441	0.8753
2432	0.8768
2423	0.8782
2414	0.8784
2405	0.8778
2396	0.8768
2387	0.8766
2378	0.8775
2369	0.8789
2360	0.8783
2351	0.8767
2342	0.8764
2333	0.8771
2324	0.8789
2315	0.8648
2306	0.8675
2297	0.8677
2288	0.8678
2279	0.8691
2270	0.8707
2261	0.8724
2252	0.874
2243	0.8752
2234	0.8763
2225	0.8771
2216	0.8778
2207	0.8782
2198	0.8787
2189	0.8799
2180	0.8867
2171	0.8847
2162	0.879
2153	0.8768
2144	0.8759
2135	0.8756
2126	0.8758
2117	0.8762
2108	0.8768
2099	0.878
2090	0.8801
2081	0.8813
2072	0.8818
2063	0.8812
2054	0.8785
2045	0.8774
2036	0.8775
2027	0.8785
2018	0.8795
2009	0.8801
2000	0.8792
1991	0.8783
1982	0.8778
1973	0.8768
1964	0.8751
1955	0.8732
1946	0.8705
1937	0.8694
1928	0.8686
1919	0.868
1910	0.8674
1901	0.8646
1892	0.8628
1883	0.8621
1874	0.8614
1865	0.8501
1856	0.8464
1847	0.8531
1838	0.8565
1829	0.8567
1820	0.852
1811	0.8412
1802	0.8259
1793	0.8065
1784	0.786
1775	0.7644
1766	0.7221
1757	0.6701
1748	0.4953
1739	0.2062
1730	0.0032
1721	0
1712	0.013
1703	0.2692
1694	0.4342
1685	0.5336
1676	0.626
1667	0.6625
1658	0.6469
1649	0.4437
1640	0.4572
1631	0.7114
1622	0.7811
1613	0.8121
1604	0.8306
1595	0.8362
1586	0.8471
1577	0.8459
1568	0.8475
1559	0.8498
1550	0.8504
1541	0.8486
1532	0.835
1523	0.8286
1514	0.8237
1505	0.8158
1496	0.7997
1487	0.7578
1478	0.432
1469	0.2494
1460	0.3131
1451	0.4502
1442	0.6494
1433	0.6046
1424	0.705
1415	0.6794
1406	0.6135
1397	0.4545
1388	0.3202
1379	0.4722
1370	0.5429
1361	0.5995
1352	0.5449
1343	0.5481
1334	0.5189
1325	0.3618
1316	0.2779
1307	0.0486
1298	0.0038
1289	0.0001
1280	0.0482
1271	0.0596
1262	0.0243
1253	0.0037
1244	0.0514
1235	0.2814
1226	0.3192
1217	0.172
1208	0.3825
1199	0.4094
1190	0.4672
1181	0.3167
1172	0.0414
1163	0.0712
1154	0.0294
1145	0.0027
1136	0.383
1127	0.5068
1118	0.4928
1109	0.6074
1100	0.6907
1091	0.7018
1082	0.6717
1073	0.5342
1064	0.2724
1055	0.2584
1046	0.5991
1037	0.4443
1028	0.2907
1019	0.2163
1010	0.3482
1001	0.4139
992	0.4255
983	0.2196
974	0.039
965	0.4281
956	0.497
947	0.5736
938	0.6295
929	0.6731
920	0.7044
911	0.7322
902	0.7584
893	0.7646
884	0.7601
875	0.7661
866	0.7812
857	0.7976
848	0.8028
839	0.6871
830	0.7334
821	0.7693
812	0.7681
803	0.7591
794	0.7625
785	0.7328
776	0.4442
767	0.6153
758	0.7091
749	0.7454
740	0.7351
731	0.7072
722	0.8171
713	0.8525
704	0.8636
695	0.8692
686	0.8689
677	0.8314
668	0.5997
659	0.6728
650	0.7336
641	0.7703
632	0.8208
623	0.8354
614	0.8418
605	0.8474
596	0.8533
587	0.8584
578	0.8613
569	0.8611
560	0.8501
551	0.8203
542	0.7933
533	0.7891
524	0.7975
515	0.8024
506	0.7906
497	0.7864
488	0.7908
479	0.7969
470	0.8045
461	0.8099
452	0.8125
443	0.8112
434	0.8042
425	0.8028
416	0.8035
407	0.8046
398	0.8068
