Infrared Spectrum: ACETAL
Formula: C6 H14 O2
CAS: 105-57-7
State: SOLUTION (10% IN CCl4 FOR 4000-1350 CM^-^1, 10% IN CS2 FOR 1350-600 CM^-^1)
Boiling point: 103 C
Class: COBLENTZ III
Instrument: BECKMAN IR-7 (GRATING)
Instrument parameters: GRATING CHANGES AT 3000, 2200, 1150 CM^-^1
Sampling: TRANSMISSION
Path length: 0.011 CM, 0.010 CM
Resolution: 4
Origin: WESTERN REGIONAL RES. USDA
1/CM	TRANSMITTANCE
600	0.854
608.442	0.853
616.883	0.854
625.325	0.845
633.766	0.83
642.208	0.806
650.649	0.773
659.091	0.728
667.533	0.751
675.974	0.762
684.416	0.75
692.857	0.785
701.299	0.787
709.74	0.784
718.182	0.789
726.624	0.793
735.065	0.794
743.507	0.787
751.948	0.793
760.39	0.797
768.831	0.795
777.273	0.774
785.715	0.723
794.156	0.698
802.598	0.697
811.039	0.638
819.481	0.664
827.922	0.712
836.364	0.637
844.806	0.4641
853.247	0.248
861.689	0.444
870.13	0.624
878.572	0.687
887.013	0.724
895.455	0.745
903.897	0.724
912.338	0.626
920.78	0.513
929.221	0.594
937.663	0.389
946.104	0.145
954.546	0.157
962.988	0.4089
971.429	0.644
979.871	0.724
988.312	0.749
996.754	0.747
1005.2	0.718
1013.64	0.651
1022.08	0.384
1030.52	0.247
1038.96	0.294
1047.4	0.07
1055.84	0.017
1064.29	0.069
1072.73	0.04
1081.17	0.017
1089.61	0.026
1098.05	0.011
1106.49	0.032
1114.94	0.077
1123.38	0.027
1131.82	0.002
1140.26	0.025
1148.7	0.048
1157.14	0.079
1165.59	0.115
1174.03	0.122
1182.47	0.179
1190.91	0.283
1199.35	0.44
1207.79	0.574
1216.23	0.644
1224.68	0.684
1233.12	0.707
1241.56	0.718
1250	0.718
1258.44	0.699
1266.88	0.662
1275.33	0.611
1283.77	0.629
1292.21	0.617
1300.65	0.599
1309.09	0.654
1317.53	0.68
1325.98	0.661
1334.42	0.366
1342.86	0.263
1351.3	0.495
1359.74	0.599
1368.18	0.455
1376.62	0.145
1385.07	0.161
1393.51	0.222
1401.95	0.366
1410.39	0.483
1418.83	0.581
1427.27	0.608
1435.72	0.544
1444.16	0.265
1452.6	0.439
1461.04	0.433
1469.48	0.565
1477.92	0.569
1486.36	0.497
1494.81	0.62
1503.25	0.618
1511.69	0.597
1520.13	0.567
1528.57	0.537
1537.01	0.481
1545.46	0.418
1553.9	0.402
1562.34	0.449
1570.78	0.498
1579.22	0.525
1587.66	0.537
1596.11	0.583
1604.55	0.634
1612.99	0.666
1621.43	0.684
1629.87	0.698
1638.31	0.713
1646.75	0.72
1655.2	0.728
1663.64	0.731
1672.08	0.735
1680.52	0.737
1688.96	0.738
1697.4	0.738
1705.85	0.736
1714.29	0.734
1722.73	0.727
1731.17	0.723
1739.61	0.726
1748.05	0.732
1756.5	0.731
1764.94	0.73
1773.38	0.736
1781.82	0.74
1790.26	0.744
1798.7	0.74
1807.14	0.732
1815.59	0.736
1824.03	0.74
1832.47	0.741
1840.91	0.74
1849.35	0.74
1857.79	0.741
1866.24	0.738
1874.68	0.735
1883.12	0.736
1891.56	0.734
1900	0.728
1908.44	0.722
1916.88	0.718
1925.33	0.722
1933.77	0.725
1942.21	0.724
1950.65	0.721
1959.09	0.721
1967.53	0.719
1975.98	0.719
1984.42	0.716
1992.86	0.721
2001.3	0.723
2009.74	0.7238
2018.18	0.7271
2026.63	0.729
2035.07	0.7307
2043.51	0.731
2051.95	0.732
2060.39	0.7333
2068.83	0.734
2077.27	0.735
2085.72	0.736
2094.16	0.7389
2102.6	0.74
2111.04	0.741
2119.48	0.741
2127.92	0.742
2136.37	0.742
2144.81	0.742
2153.25	0.742
2161.69	0.743
2170.13	0.743
2178.57	0.743
2187.02	0.743
2195.46	0.743
2203.9	0.743
2212.34	0.745
2220.78	0.747
2229.22	0.7488
2237.66	0.749
2246.11	0.749
2254.55	0.749
2262.99	0.748
2271.43	0.748
2279.87	0.7463
2288.31	0.744
2296.76	0.7407
2305.2	0.736
2313.64	0.735
2322.08	0.736
2330.52	0.7405
2338.96	0.7438
2347.41	0.7451
2355.85	0.7479
2364.29	0.7528
2372.73	0.7581
2381.17	0.761
2389.61	0.762
2398.05	0.761
2406.5	0.7597
2414.94	0.756
2423.38	0.7551
2431.82	0.753
2440.26	0.752
2448.7	0.7502
2457.15	0.7511
2465.59	0.754
2474.03	0.756
2482.47	0.757
2490.91	0.7576
2499.35	0.757
2507.79	0.757
2516.24	0.757
2524.68	0.757
2533.12	0.757
2541.56	0.757
2550	0.7575
2558.44	0.758
2566.89	0.757
2575.33	0.7566
2583.77	0.756
2592.21	0.753
2600.65	0.7513
2609.09	0.7463
2617.54	0.732
2625.98	0.7274
2634.42	0.723
2642.86	0.7201
2651.3	0.6919
2659.74	0.6875
2668.18	0.6898
2676.63	0.6969
2685.07	0.7097
2693.51	0.722
2701.95	0.7199
2710.39	0.7146
2718.83	0.6995
2727.28	0.685
2735.72	0.6738
2744.16	0.6658
2752.6	0.6602
2761.04	0.6514
2769.48	0.6328
2777.93	0.6272
2786.37	0.6269
2794.81	0.6231
2803.25	0.6119
2811.69	0.6018
2820.13	0.5922
2828.57	0.5802
2837.02	0.552
2845.46	0.4445
2853.9	0.3376
2862.34	0.2695
2870.78	0.1426
2879.22	0.119
2887.67	0.1145
2896.11	0.1045
2904.55	0.1052
2912.99	0.1687
2921.43	0.2001
2929.87	0.1546
2938.31	0.1743
2946.76	0.2251
2955.2	0.3266
2963.64	0.3314
2972.08	0.0699
2980.52	0.032
2988.96	0.0932
2997.41	0.1557
3005.85	0.2834
3014.29	0.419
3022.73	0.5445
3031.17	0.6142
3039.61	0.6422
3048.06	0.6718
3056.5	0.694
3064.94	0.7029
3073.38	0.7116
3081.82	0.7199
3090.26	0.7255
3098.7	0.7281
3107.15	0.729
3115.59	0.731
3124.03	0.7335
3132.47	0.736
3140.91	0.736
3149.35	0.737
3157.8	0.738
3166.24	0.739
3174.68	0.74
3183.12	0.738
3191.56	0.734
3200	0.731
3208.45	0.731
3216.89	0.731
3225.33	0.731
3233.77	0.734
3242.21	0.736
3250.65	0.7391
3259.09	0.741
3267.54	0.743
3275.98	0.743
3284.42	0.744
3292.86	0.745
3301.3	0.746
3309.74	0.747
3318.19	0.746
3326.63	0.745
3335.07	0.743
3343.51	0.7425
3351.95	0.741
3360.39	0.74
3368.84	0.74
3377.28	0.74
3385.72	0.74
3394.16	0.74
3402.6	0.738
3411.04	0.7371
3419.48	0.736
3427.93	0.735
3436.37	0.734
3444.81	0.731
3453.25	0.7295
3461.69	0.7282
3470.13	0.7269
3478.58	0.7246
3487.02	0.722
3495.46	0.72
3503.9	0.7177
3512.34	0.716
3520.78	0.714
3529.22	0.7153
3537.67	0.7176
3546.11	0.72
3554.55	0.722
3562.99	0.724
3571.43	0.726
3579.87	0.7271
3588.32	0.7304
3596.76	0.732
3605.2	0.734
3613.64	0.736
3622.08	0.7376
3630.52	0.739
3638.97	0.741
3647.41	0.743
3655.85	0.745
3664.29	0.75
3672.73	0.7585
3681.17	0.7492
3689.61	0.7435
3698.06	0.7316
3706.5	0.7332
3714.94	0.741
3723.38	0.743
3731.82	0.7446
3740.26	0.746
3748.71	0.748
3757.15	0.7496
3765.59	0.75
3774.03	0.75
3782.47	0.7495
3790.91	0.749
3799.36	0.7449
3807.8	0.7448
3816.24	0.7473
3824.68	0.747
3833.12	0.745
3841.56	0.7447
3850	0.7489
3858.45	0.7477
3866.89	0.7438
3875.33	0.743
3883.77	0.747
3892.21	0.748
3900.65	0.747
3909.1	0.745
3917.54	0.7436
3925.98	0.743
3934.42	0.742
3942.86	0.7386
3951.3	0.738
3959.74	0.736
3968.19	0.7317
