Infrared Spectrum: Dibutyl maleate
Formula: C12 H20 O4
CAS: 105-76-0
State: SOLUTION (10% CCl4 FOR 2.7-7.5, 10% CS2 FOR 7.5-26 MICRON) VS SOLVENT
Class: COBLENTZ III
Instrument: DOW KBr FOREPRISM-GRATING
Instrument parameters: BLAZED AT 3.5, 12.0, 20.0 MICRON AND CHANGED AT 5.0, 7.5, 14.9 MICRON
Sampling: TRANSMISSION
Path length: 0.011 CM, 0.011 CM
Resolution: 2
Origin: DOW CHEMICAL COMPANY
1/CM	TRANSMITTANCE
3778	0.8438
3769	0.8441
3760	0.8445
3751	0.8449
3742	0.8453
3733	0.8454
3724	0.8453
3715	0.8452
3706	0.8451
3697	0.8453
3688	0.8456
3679	0.8459
3670	0.8462
3661	0.8465
3652	0.8471
3643	0.8477
3634	0.8483
3625	0.8489
3616	0.8495
3607	0.8503
3598	0.8511
3589	0.8518
3580	0.8528
3571	0.8532
3562	0.8536
3553	0.854
3544	0.8544
3535	0.8553
3526	0.8565
3517	0.8575
3508	0.859
3499	0.8604
3490	0.8618
3481	0.8628
3472	0.8627
3463	0.8598
3454	0.8523
3445	0.8405
3436	0.8247
3427	0.8186
3418	0.827
3409	0.8434
3400	0.8568
3391	0.8643
3382	0.8691
3373	0.8705
3364	0.8705
3355	0.871
3346	0.8718
3337	0.8728
3328	0.8737
3319	0.8746
3310	0.8754
3301	0.8762
3292	0.8768
3283	0.8773
3274	0.8778
3265	0.8785
3256	0.8792
3247	0.8796
3238	0.8799
3229	0.8795
3220	0.8783
3211	0.877
3202	0.8754
3193	0.8733
3184	0.8724
3175	0.8721
3166	0.8718
3157	0.8714
3148	0.8711
3139	0.8698
3130	0.8686
3121	0.8671
3112	0.8652
3103	0.8627
3094	0.8596
3085	0.854
3076	0.847
3067	0.8377
3058	0.8246
3049	0.8148
3040	0.8118
3031	0.8065
3022	0.7984
3013	0.7839
3004	0.7557
2995	0.6811
2986	0.477
2977	0.2787
2968	0.0857
2959	0.0352
2950	0.0925
2941	0.1668
2932	0.1263
2923	0.2177
2914	0.3122
2905	0.3366
2896	0.3602
2887	0.4094
2878	0.4122
2869	0.2416
2860	0.4385
2851	0.5619
2842	0.587
2833	0.6658
2824	0.7368
2815	0.765
2806	0.7868
2797	0.8021
2788	0.8136
2779	0.8228
2770	0.828
2761	0.8318
2752	0.8332
2743	0.8328
2734	0.829
2725	0.8268
2716	0.8271
2707	0.8295
2698	0.8321
2689	0.8348
2680	0.8375
2671	0.8398
2662	0.8414
2653	0.843
2644	0.846
2635	0.8486
2626	0.8497
2617	0.8497
2608	0.8497
2599	0.8496
2590	0.8496
2581	0.8496
2572	0.85
2563	0.8518
2554	0.8535
2545	0.8553
2536	0.857
2527	0.8588
2518	0.8605
2509	0.8612
2500	0.8618
2491	0.8624
2482	0.8628
2473	0.8625
2464	0.8624
2455	0.8616
2446	0.8608
2437	0.86
2428	0.8593
2419	0.8563
2410	0.8515
2401	0.8491
2392	0.8488
2383	0.8485
2374	0.8494
2365	0.8506
2356	0.852
2347	0.8525
2338	0.8525
2329	0.8525
2320	0.8528
2311	0.8532
2302	0.8538
2293	0.854
2284	0.8542
2275	0.8543
2266	0.8545
2257	0.8551
2248	0.8561
2239	0.857
2230	0.858
2221	0.8586
2212	0.8592
2203	0.8591
2194	0.8588
2185	0.8583
2176	0.8614
2167	0.8633
2158	0.8607
2149	0.8602
2140	0.8601
2131	0.8599
2122	0.8597
2113	0.8595
2104	0.8597
2095	0.8598
2086	0.8601
2077	0.8601
2068	0.8601
2059	0.8599
2050	0.8565
2041	0.8544
2032	0.8541
2023	0.8542
2014	0.8545
2005	0.8548
1996	0.8554
1987	0.8561
1978	0.8577
1969	0.8593
1960	0.8602
1951	0.8605
1942	0.8607
1933	0.8597
1924	0.8586
1915	0.8571
1906	0.856
1897	0.8557
1888	0.8555
1879	0.8548
1870	0.854
1861	0.8533
1852	0.8525
1843	0.8478
1834	0.8423
1825	0.8343
1816	0.8246
1807	0.8135
1798	0.7968
1789	0.7771
1780	0.7551
1771	0.7212
1762	0.6393
1753	0.481
1744	0.083
1735	0.0089
1726	0.0015
1717	0.0028
1708	0.2644
1699	0.4603
1690	0.5486
1681	0.6045
1672	0.669
1663	0.6867
1654	0.5996
1645	0.3982
1636	0.3596
1627	0.5612
1618	0.6847
1609	0.7353
1600	0.7658
1591	0.7925
1582	0.8111
1573	0.8213
1564	0.829
1555	0.8355
1546	0.8411
1537	0.8415
1528	0.835
1519	0.8262
1510	0.8175
1501	0.8051
1492	0.7861
1483	0.7554
1474	0.4318
1465	0.2663
1456	0.3194
1447	0.538
1438	0.6296
1429	0.6234
1420	0.6484
1411	0.2852
1402	0.0989
1393	0.4151
1384	0.3627
1375	0.2662
1366	0.4007
1357	0.6089
1348	0.6562
1339	0.6814
1330	0.6817
1321	0.6606
1312	0.5774
1303	0.3673
1294	0.2607
1285	0.1534
1276	0.1859
1267	0.1613
1258	0.1413
1249	0.1036
1240	0.0798
1231	0.0884
1222	0.0931
1213	0.0676
1204	0.023
1195	0.0193
1186	0.1161
1177	0.1601
1168	0.073
1159	0.012
1150	0.0198
1141	0.2387
1132	0.4952
1123	0.5535
1114	0.5499
1105	0.7034
1096	0.7525
1087	0.755
1078	0.7425
1069	0.5896
1060	0.3909
1051	0.5478
1042	0.7242
1033	0.6889
1024	0.4859
1015	0.385
1006	0.456
997	0.4644
988	0.5288
979	0.4707
970	0.4483
961	0.4778
952	0.5278
943	0.4944
934	0.626
925	0.7318
916	0.7539
907	0.7575
898	0.7634
889	0.7684
880	0.7622
871	0.7404
862	0.7296
853	0.7064
844	0.5724
835	0.4871
826	0.5544
817	0.5454
808	0.4269
799	0.5301
790	0.6689
781	0.7533
772	0.7906
763	0.8019
754	0.7898
745	0.7678
736	0.7107
727	0.7928
718	0.8118
709	0.8158
700	0.8341
691	0.8528
682	0.8504
673	0.8435
664	0.8352
655	0.8255
646	0.8211
637	0.8228
628	0.8195
619	0.8083
610	0.7946
601	0.7758
592	0.7649
583	0.7784
574	0.7978
565	0.8071
556	0.8108
547	0.8024
538	0.7847
529	0.7695
520	0.7668
511	0.7512
502	0.7434
493	0.7528
484	0.7595
475	0.7615
466	0.7651
457	0.7691
448	0.7721
439	0.7665
430	0.7625
421	0.7621
412	0.7619
403	0.7625
394	0.7625
