Infrared Spectrum: 3-METHYLVALERIC ACID
Formula: C6 H12 O2
CAS: 105-43-1
State: SOLUTION (10% IN CCl4 FOR 3800-1330, 10% IN CS2 FOR 1330-460 CM^-^1) VS. SOLVENT
Boiling point: 90 C AT 7 mmHg
Class: COBLENTZ III
Instrument: DOW KBr FOREPRISM-GRATING
Instrument parameters: BLAZED AT 3.5, 12.0, 20.0 MICRONS AND CHANGED AT 5.0, 7.5, 14.9 MICRONS
Sampling: TRANSMISSION
Path length: 0.011 CM, 0.012 CM
Resolution: 2
Origin: DOW CHEMICAL COMPANY
1/CM	TRANSMITTANCE
461.449	0.895
470.211	0.875
478.972	0.852
487.734	0.834
496.496	0.846
505.258	0.883
514.019	0.928
522.781	0.95
531.543	0.953
540.304	0.982
549.066	1.005
557.828	1.03
566.589	1.034
575.351	1.037
584.113	1.033
592.875	1.008
601.636	0.954
610.398	0.926
619.16	0.87
627.921	0.841
636.683	0.911
645.445	0.972
654.206	0.958
662.968	0.936
671.73	0.852
680.492	0.813
689.253	0.845
698.015	0.882
706.777	0.91
715.538	0.955
724.3	1
733.062	1.024
741.823	1.041
750.585	1.04
759.347	1.012
768.109	0.964
776.87	0.773
785.632	0.918
794.394	0.951
803.155	0.944
811.917	0.907
820.679	0.9
829.44	0.888
838.202	0.861
846.964	0.853
855.726	0.823
864.487	0.756
873.249	0.68
882.011	0.591
890.772	0.511
899.534	0.47
908.296	0.39
917.057	0.298
925.819	0.227
934.581	0.18
943.343	0.2
952.104	0.269
960.866	0.401
969.628	0.454
978.389	0.628
987.151	0.763
995.913	0.788
1004.67	0.835
1013.44	0.827
1022.2	0.879
1030.96	0.91
1039.72	0.939
1048.48	0.958
1057.24	0.955
1066.01	0.937
1074.77	0.889
1083.53	0.828
1092.29	0.689
1101.05	0.571
1109.81	0.689
1118.58	0.74
1127.34	0.669
1136.1	0.744
1144.86	0.79
1153.62	0.558
1162.39	0.6751
1171.15	0.762
1179.91	0.707
1188.67	0.6
1197.43	0.3609
1206.19	0.16
1214.96	0.31
1223.72	0.368
1232.48	0.252
1241.24	0.292
1250	0.379
1258.76	0.353
1267.53	0.186
1276.29	0.201
1285.05	0.132
1293.81	0.049
1302.57	0.1
1311.33	0.229
1320.1	0.248
1328.86	0.349
1337.62	0.49
1346.38	0.549
1355.14	0.573
1363.9	0.645
1372.67	0.549
1381.43	0.2719
1390.19	0.497
1398.95	0.3889
1407.71	0.1269
1416.47	0.111
1425.24	0.207
1434	0.223
1442.76	0.299
1451.52	0.263
1460.28	0.154
1469.04	0.2911
1477.81	0.627
1486.57	0.758
1495.33	0.81
1504.09	0.842
1512.85	0.867
1521.61	0.889
1530.38	0.899
1539.14	0.911
1547.9	0.91
1556.66	0.897
1565.42	0.878
1574.19	0.867
1582.95	0.854
1591.71	0.842
1600.47	0.821
1609.23	0.791
1617.99	0.762
1626.76	0.729
1635.52	0.69
1644.28	0.643
1653.04	0.591
1661.8	0.52
1670.56	0.447
1679.33	0.335
1688.09	0.169
1696.85	0.011
1705.61	0
1714.37	0
1723.13	0.004
1731.9	0.149
1740.66	0.2881
1749.42	0.385
1758.18	0.441
1766.94	0.5131
1775.7	0.592
1784.47	0.631
1793.23	0.662
1801.99	0.69
1810.75	0.704
1819.51	0.705
1828.27	0.718
1837.04	0.737
1845.8	0.758
1854.56	0.769
1863.32	0.776
1872.08	0.79
1880.84	0.801
1889.61	0.81
1898.37	0.819
1907.13	0.828
1915.89	0.835
1924.65	0.842
1933.41	0.849
1942.18	0.856
1950.94	0.861
1959.7	0.868
1968.46	0.878
1977.22	0.889
1985.98	0.899
1994.75	0.906
2003.51	0.911
2012.27	0.914
2021.03	0.918
2029.79	0.921
2038.56	0.9221
2047.32	0.925
2056.08	0.9281
2064.84	0.93
2073.6	0.932
2082.36	0.932
2091.13	0.9318
2099.89	0.9299
2108.65	0.9259
2117.41	0.9219
2126.17	0.9179
2134.93	0.9137
2143.7	0.912
2152.46	0.9153
2161.22	0.917
2169.98	0.917
2178.74	0.912
2187.5	0.912
2196.27	0.911
2205.03	0.9096
2213.79	0.9026
2222.55	0.8986
2231.31	0.8958
2240.07	0.892
2248.84	0.8898
2257.6	0.8883
2266.36	0.889
2275.12	0.889
2283.88	0.885
2292.64	0.8804
2301.41	0.8734
2310.17	0.8661
2318.93	0.8554
2327.69	0.841
2336.45	0.8317
2345.21	0.827
2353.98	0.8206
2362.74	0.8136
2371.5	0.81
2380.26	0.8043
2389.02	0.7934
2397.78	0.7782
2406.55	0.7648
2415.31	0.7586
2424.07	0.7433
2432.83	0.7334
2441.59	0.7182
2450.36	0.7062
2459.12	0.6916
2467.88	0.6745
2476.64	0.648
2485.4	0.6285
2494.16	0.5971
2502.93	0.5715
2511.69	0.5454
2520.45	0.5164
2529.21	0.491
2537.97	0.4618
2546.73	0.4309
2555.5	0.4018
2564.26	0.3939
2573.02	0.3854
2581.78	0.381
2590.54	0.3752
2599.3	0.3622
2608.07	0.3414
2616.83	0.337
2625.59	0.3344
2634.35	0.3251
2643.11	0.3158
2651.87	0.3017
2660.64	0.2903
2669.4	0.2843
2678.16	0.284
2686.92	0.2894
2695.68	0.2971
2704.44	0.313
2713.21	0.316
2721.97	0.317
2730.73	0.32
2739.49	0.32
2748.25	0.32
2757.01	0.3175
2765.78	0.3145
2774.54	0.3082
2783.3	0.2944
2792.06	0.283
2800.82	0.2662
2809.58	0.2335
2818.35	0.2127
2827.11	0.1985
2835.87	0.1862
2844.63	0.1566
2853.39	0.0889
2862.16	0.0783
2870.92	0.0541
2879.68	0.0394
2888.44	0.058
2897.2	0.0442
2905.96	0.0273
2914.73	0.0161
2923.49	0.0132
2932.25	0.0159
2941.01	0.0229
2949.77	0.0202
2958.53	0.002
2967.3	0.002
2976.06	0.0039
2984.82	0.0309
2993.58	0.0709
3002.34	0.087
3011.1	0.091
3019.87	0.091
3028.63	0.089
3037.39	0.088
3046.15	0.093
3054.91	0.0991
3063.67	0.1021
3072.44	0.106
3081.2	0.106
3089.96	0.107
3098.72	0.1091
3107.48	0.1162
3116.24	0.1276
3125.01	0.1424
3133.77	0.1653
3142.53	0.1794
3151.29	0.1966
3160.05	0.2095
3168.81	0.2253
3177.58	0.2407
3186.34	0.2531
3195.1	0.275
3203.86	0.2932
3212.62	0.3183
3221.38	0.3379
3230.15	0.3601
3238.91	0.3913
3247.67	0.418
3256.43	0.4378
3265.19	0.4606
3273.95	0.4949
3282.72	0.5234
3291.48	0.5474
3300.24	0.5764
3309	0.6023
3317.76	0.6239
3326.53	0.6463
3335.29	0.6643
3344.05	0.68
3352.81	0.6985
3361.57	0.7244
3370.33	0.7521
3379.1	0.7745
3387.86	0.7962
3396.62	0.8148
3405.38	0.8308
3414.14	0.8488
3422.9	0.8583
3431.67	0.8704
3440.43	0.8808
3449.19	0.8913
3457.95	0.8974
3466.71	0.9069
3475.47	0.913
3484.24	0.9234
3493	0.929
3501.76	0.9285
3510.52	0.9205
3519.28	0.9029
3528.04	0.8995
3536.81	0.9136
3545.57	0.9471
3554.33	0.957
3563.09	0.964
3571.85	0.9747
3580.61	0.97
3589.38	0.972
3598.14	0.9726
3606.9	0.979
3615.66	0.979
3624.42	0.979
3633.18	0.979
3641.95	0.983
3650.71	0.979
3659.47	0.9734
3668.23	0.9687
3676.99	0.9784
3685.75	0.976
3694.52	0.986
3703.28	0.99
3712.04	0.9937
3720.8	0.997
3729.56	0.997
3738.33	0.997
3747.09	0.997
3755.85	0.9955
3764.61	0.995
3773.37	0.9965
3782.13	0.995
3790.9	0.997
