Infrared Spectrum: ETHER, ISOOCTYL VINYL
Formula: C10 H20 O
CAS: 10573-35-0
State: SOLUTION (10% CCl4 FOR 3800-1330, 10% CS2 FOR 1330-400 CM^-^1)
Class: COBLENTZ III
Instrument: BECKMAN IR-9 (GRATING)
Instrument parameters: ORDER CHANGES: 670, 1200, 2000 CM^-^1
Sampling: TRANSMISSION
Path length: 0.011 CM, 0.011 CM
Resolution: 2
Origin: DOW CHEMICAL COMPANY
1/CM	TRANSMITTANCE
402	0.4524
411	0.3864
420	0.378
429	0.4352
438	0.5898
447	0.6569
456	0.6974
465	0.7251
474	0.7536
483	0.7778
492	0.7968
501	0.8104
510	0.8212
519	0.8303
528	0.8363
537	0.8421
546	0.8484
555	0.8514
564	0.8534
573	0.8559
582	0.8594
591	0.8599
600	0.8497
609	0.8334
618	0.8425
627	0.8567
636	0.8501
645	0.8297
654	0.813
663	0.8145
672	0.8368
681	0.8364
690	0.8171
699	0.7668
708	0.7784
717	0.8121
726	0.8089
735	0.7901
744	0.7947
753	0.8024
762	0.7998
771	0.79
780	0.7683
789	0.7399
798	0.6428
807	0.2649
816	0.1098
825	0.3884
834	0.496
843	0.5905
852	0.6054
861	0.591
870	0.6119
879	0.6316
888	0.6797
897	0.7001
906	0.6928
915	0.6619
924	0.6245
933	0.6341
942	0.4407
951	0.4944
960	0.2173
969	0.416
978	0.4304
987	0.4288
996	0.3932
1005	0.4429
1014	0.5287
1023	0.5735
1032	0.5727
1041	0.5612
1050	0.5523
1059	0.5342
1068	0.4496
1077	0.3204
1086	0.4227
1095	0.5912
1104	0.6822
1113	0.6834
1122	0.5946
1131	0.4921
1140	0.4335
1149	0.4953
1158	0.5005
1167	0.4524
1176	0.3559
1185	0.24
1194	0.0725
1203	0.0054
1212	0.1986
1221	0.4108
1230	0.5301
1239	0.5826
1248	0.6158
1257	0.6476
1266	0.668
1275	0.6718
1284	0.6771
1293	0.6753
1302	0.6488
1311	0.5103
1320	0.0479
1329	0.5529
1338	0.6651
1347	0.7251
1356	0.7289
1365	0.6892
1374	0.4608
1383	0.3195
1392	0.5156
1401	0.7068
1410	0.7115
1419	0.7325
1428	0.7578
1437	0.6776
1446	0.6306
1455	0.4842
1464	0.2502
1473	0.2415
1482	0.4296
1491	0.6775
1500	0.7012
1509	0.6707
1518	0.6073
1527	0.5838
1536	0.5456
1545	0.4816
1554	0.4273
1563	0.4471
1572	0.5135
1581	0.5172
1590	0.4555
1599	0.3664
1608	0.0679
1617	0.0598
1626	0.2626
1635	0.2427
1644	0.2678
1653	0.2668
1662	0.4574
1671	0.6073
1680	0.7054
1689	0.7775
1698	0.8094
1707	0.8212
1716	0.8262
1725	0.7884
1734	0.7355
1743	0.7906
1752	0.8206
1761	0.8412
1770	0.8498
1779	0.8518
1788	0.8542
1797	0.8552
1806	0.8555
1815	0.8563
1824	0.8577
1833	0.8583
1842	0.8585
1851	0.8587
1860	0.8589
1869	0.8587
1878	0.8575
1887	0.8564
1896	0.8556
1905	0.8551
1914	0.8518
1923	0.8462
1932	0.8488
1941	0.8574
1950	0.8594
1959	0.8601
1968	0.8608
1977	0.8625
1986	0.8621
1995	0.8613
2004	0.8607
2013	0.8608
2022	0.862
2031	0.8631
2040	0.8643
2049	0.8653
2058	0.866
2067	0.8666
2076	0.8673
2085	0.8671
2094	0.867
2103	0.8666
2112	0.8651
2121	0.8634
2130	0.8617
2139	0.8599
2148	0.8589
2157	0.8588
2166	0.8592
2175	0.8611
2184	0.8635
2193	0.8662
2202	0.869
2211	0.8705
2220	0.8718
2229	0.8716
2238	0.8701
2247	0.8674
2256	0.8638
2265	0.8575
2274	0.8532
2283	0.85
2292	0.8478
2301	0.8481
2310	0.8486
2319	0.849
2328	0.8498
2337	0.8508
2346	0.8518
2355	0.8528
2364	0.854
2373	0.8556
2382	0.8575
2391	0.8594
2400	0.861
2409	0.8623
2418	0.8637
2427	0.865
2436	0.8664
2445	0.8678
2454	0.8678
2463	0.8675
2472	0.8667
2481	0.8653
2490	0.8639
2499	0.8616
2508	0.8594
2517	0.8575
2526	0.8571
2535	0.859
2544	0.8604
2553	0.8587
2562	0.8557
2571	0.8514
2580	0.8451
2589	0.8386
2598	0.8328
2607	0.8311
2616	0.8313
2625	0.8324
2634	0.8333
2643	0.8341
2652	0.8343
2661	0.8341
2670	0.8328
2679	0.8305
2688	0.8264
2697	0.8209
2706	0.8134
2715	0.8021
2724	0.7856
2733	0.7821
2742	0.7872
2751	0.7949
2760	0.7969
2769	0.7958
2778	0.7912
2787	0.7784
2796	0.7643
2805	0.7471
2814	0.7194
2823	0.6844
2832	0.6465
2841	0.4783
2850	0.3307
2859	0.2563
2868	0.1591
2877	0.0612
2886	0.1567
2895	0.1659
2904	0.1274
2913	0.0643
2922	0.0416
2931	0.0297
2940	0.0311
2949	0.0271
2958	0.0123
2967	0.013
2976	0.1549
2985	0.403
2994	0.5777
3003	0.6407
3012	0.6815
3021	0.7103
3030	0.7425
3039	0.7478
3048	0.7225
3057	0.7188
3066	0.7574
3075	0.7615
3084	0.7454
3093	0.7821
3102	0.7958
3111	0.7784
3120	0.6377
3129	0.7408
3138	0.7978
3147	0.8111
3156	0.8148
3165	0.8151
3174	0.8146
3183	0.8138
3192	0.813
3201	0.8134
3210	0.8144
3219	0.8158
3228	0.8172
3237	0.8184
3246	0.8196
3255	0.8204
3264	0.8208
3273	0.8207
3282	0.8206
3291	0.8199
3300	0.8192
3309	0.8185
3318	0.8176
3327	0.8165
3336	0.8154
3345	0.8136
3354	0.8111
3363	0.8104
3372	0.8101
3381	0.81
3390	0.8103
3399	0.8108
3408	0.8112
3417	0.8118
3426	0.8122
3435	0.8132
3444	0.8141
3453	0.815
3462	0.816
3471	0.8169
3480	0.8182
3489	0.8192
3498	0.8204
3507	0.8214
3516	0.8223
3525	0.8233
3534	0.8244
3543	0.8257
3552	0.827
3561	0.8288
3570	0.8309
3579	0.8306
3588	0.828
3597	0.8352
3606	0.8325
3615	0.8321
3624	0.8355
3633	0.8392
3642	0.8428
3651	0.8467
3660	0.8493
3669	0.8508
3678	0.8512
3687	0.8506
3696	0.8503
3705	0.8501
3714	0.8499
3723	0.8499
3732	0.8501
3741	0.8502
3750	0.8504
3759	0.8506
3768	0.8508
3777	0.851
3786	0.8514
3795	0.8516
