Infrared Spectrum: PHENOL, 4-BROMO-
Formula: C6 H5 Br O
CAS: 106-41-2
State: SOLUTION (10% CCl4 FOR 3800-1330, 10% CS2 FOR 1330-450 CM^-^1)
Class: COBLENTZ III
Instrument: Not specified, most likely a prism, grating, or hybrid spectrometer.
Sampling: TRANSMISSION
Path length: 0.011 CM, 0.012 CM
Resolution: 4
Origin: DOW CHEMICAL COMPANY
1/CM	TRANSMITTANCE
452.836	0.873
462.084	0.872
471.332	0.869
480.58	0.843
489.827	0.803
499.075	0.377
508.323	0.585
517.571	0.821
526.819	0.857
536.067	0.869
545.315	0.873
554.562	0.876
563.81	0.869
573.058	0.835
582.306	0.784
591.554	0.786
600.802	0.2949
610.049	0.3221
619.297	0.862
628.545	0.867
637.793	0.876
647.041	0.866
656.289	0.896
665.537	0.936
674.784	0.95
684.032	0.944
693.28	0.892
702.528	0.964
711.776	0.98
721.024	0.988
730.272	0.995
739.519	1.004
748.767	1.004
758.015	1.012
767.263	1.009
776.511	0.997
785.759	0.954
795.007	0.754
804.254	0.636
813.502	0.44
822.75	0.034
831.998	0.74
841.246	0.852
850.494	0.796
859.741	0.836
868.989	0.894
878.237	0.94
887.485	0.997
896.733	1.022
905.981	1.034
915.229	1.025
924.476	1.011
933.724	1.022
942.972	1.014
952.22	1.036
961.468	1.049
970.716	1.051
979.964	1.046
989.211	1.035
998.459	0.938
1007.71	0.535
1016.95	0.974
1026.2	1.028
1035.45	1.025
1044.7	1.014
1053.95	0.988
1063.19	0.89
1072.44	0.3381
1081.69	0.867
1090.94	0.4869
1100.19	0.829
1109.43	0.798
1118.68	0.9
1127.93	0.86
1137.18	0.762
1146.42	0.671
1155.67	0.488
1164.92	0.039
1174.17	0.035
1183.42	0.174
1192.66	0.329
1201.91	0.315
1211.16	0.329
1220.41	0.382
1229.66	0.404
1238.9	0.328
1248.15	0.276
1257.4	0.025
1266.65	0.25
1275.89	0.825
1285.14	0.852
1294.39	0.934
1303.64	0.852
1312.89	0.829
1322.13	0.598
1331.38	0.707
1340.63	0.724
1349.88	0.768
1359.13	0.829
1368.37	0.893
1377.62	0.931
1386.87	0.933
1396.12	0.921
1405.36	0.892
1414.61	0.73
1423.86	0.2171
1433.11	0.5291
1442.36	0.723
1451.6	0.778
1460.85	0.819
1470.1	0.791
1479.35	0.4629
1488.6	0.009
1497.84	0.4781
1507.09	0.673
1516.34	0.657
1525.59	0.656
1534.83	0.561
1544.08	0.474
1553.33	0.491
1562.58	0.568
1571.83	0.583
1581.07	0.44
1590.32	0.1322
1599.57	0.5001
1608.82	0.839
1618.07	0.893
1627.31	0.917
1636.56	0.971
1645.81	0.987
1655.06	0.994
1664.3	0.994
1673.55	0.987
1682.8	0.982
1692.05	0.99
1701.3	0.957
1710.54	0.961
1719.79	0.94
1729.04	0.944
1738.29	0.936
1747.54	0.957
1756.78	0.974
1766.03	0.982
1775.28	0.978
1784.53	0.988
1793.77	0.984
1803.02	0.981
1812.27	0.977
1821.52	0.977
1830.77	0.98
1840.01	0.96
1849.26	0.95
1858.51	0.93
1867.76	0.848
1877.01	0.933
1886.25	0.968
1895.5	0.98
1904.75	0.987
1914	0.994
1923.24	1.002
1932.49	0.992
1941.74	0.997
1950.99	1.005
1960.24	1.0758
1969.48	0.994
1978.73	0.985
1987.98	0.982
1997.23	0.975
2006.48	0.985
2015.72	0.988
2024.97	0.9945
2034.22	0.9934
2043.47	0.9875
2052.71	0.9823
2061.96	0.9747
2071.21	0.9733
2080.46	0.9838
2089.71	0.9828
2098.95	0.995
2108.2	1.002
2117.45	1.0014
2126.7	1.001
2135.94	1.0033
2145.19	1.002
2154.44	1.0034
2163.69	0.9992
2172.94	0.9956
2182.18	0.9977
2191.43	0.998
2200.68	0.9995
2209.93	1
2219.18	0.998
2228.42	0.9977
2237.67	0.9908
2246.92	0.9902
2256.17	0.9742
2265.41	0.9642
2274.66	0.9602
2283.91	0.9638
2293.16	0.9653
2302.41	0.9622
2311.65	0.9647
2320.9	0.977
2330.15	0.977
2339.4	0.973
2348.65	0.9743
2357.89	0.991
2367.14	0.9738
2376.39	0.982
2385.64	0.9711
2394.88	0.96
2404.13	0.953
2413.38	0.947
2422.63	0.938
2431.88	0.9371
2441.12	0.9641
2450.37	0.968
2459.62	0.965
2468.87	0.964
2478.12	0.9639
2487.36	0.961
2496.61	0.958
2505.86	0.9549
2515.11	0.961
2524.35	0.965
2533.6	0.9653
2542.85	0.9735
2552.1	0.968
2561.35	0.9685
2570.59	0.9696
2579.84	0.963
2589.09	0.963
2598.34	0.9632
2607.59	0.971
2616.83	0.974
2626.08	0.9647
2635.33	0.9595
2644.58	0.955
2653.82	0.9537
2663.07	0.955
2672.32	0.96
2681.57	0.9577
2690.82	0.9637
2700.06	0.967
2709.31	0.9744
2718.56	0.9774
2727.81	0.977
2737.06	0.974
2746.3	0.9722
2755.55	0.9628
2764.8	0.9618
2774.05	0.9644
2783.29	0.9636
2792.54	0.96
2801.79	0.9564
2811.04	0.969
2820.29	0.965
2829.53	0.966
2838.78	0.959
2848.03	0.951
2857.28	0.953
2866.53	0.953
2875.77	0.9546
2885.02	0.9576
2894.27	0.958
2903.52	0.9509
2912.76	0.9318
2922.01	0.9348
2931.26	0.9449
2940.51	0.9523
2949.76	0.9534
2959	0.953
2968.25	0.955
2977.5	0.955
2986.75	0.9533
2996	0.9425
3005.24	0.923
3014.49	0.9095
3023.74	0.8944
3032.99	0.8515
3042.23	0.8576
3051.48	0.9098
3060.73	0.8922
3069.98	0.869
3079.23	0.8994
3088.47	0.9036
3097.72	0.9
3106.97	0.9095
3116.22	0.9092
3125.47	0.9034
3134.71	0.896
3143.96	0.8921
3153.21	0.8842
3162.46	0.8691
3171.7	0.8502
3180.95	0.8331
3190.2	0.8111
3199.45	0.794
3208.7	0.781
3217.94	0.7691
3227.19	0.7421
3236.44	0.724
3245.69	0.705
3254.94	0.6779
3264.18	0.6608
3273.43	0.6398
3282.68	0.6125
3291.93	0.5946
3301.17	0.5729
3310.42	0.559
3319.67	0.5449
3328.92	0.5346
3338.17	0.5238
3347.41	0.5149
3356.66	0.509
3365.91	0.507
3375.16	0.5072
3384.4	0.5082
3393.65	0.5124
3402.9	0.514
3412.15	0.5174
3421.4	0.5218
3430.64	0.5212
3439.89	0.524
3449.14	0.526
3458.39	0.5253
3467.64	0.5325
3476.88	0.5383
3486.13	0.5466
3495.38	0.5669
3504.63	0.5979
3513.87	0.63
3523.12	0.6564
3532.37	0.6747
3541.62	0.68
3550.87	0.6725
3560.11	0.6592
3569.36	0.6262
3578.61	0.569
3587.86	0.5114
3597.11	0.355
3606.35	0.1694
3615.6	0.2212
3624.85	0.6443
3634.1	0.8928
3643.34	0.9515
3652.59	0.96
3661.84	0.958
3671.09	0.9695
3680.34	0.9775
3689.58	0.973
3698.83	0.9797
3708.08	0.9891
3717.33	0.988
3726.58	0.9876
3735.82	0.9952
3745.07	1.0046
3754.32	0.997
3763.57	1
3772.81	1.0004
3782.06	0.9927
3791.31	0.9947
