Infrared Spectrum: 1-OCTANOL, 3,7-DIMETHYL-
Formula: C10 H22 O
CAS: 106-21-8
State: SOLUTION (10% CCl4/CsBr FOR 4000-1335, 10% CS2/CsI FOR 1335-623, 10% CCl4/CsBr FOR 623-300 CM^-^1)
Class: COBLENTZ II
Instrument: PERKIN-ELMER 621 (GRATING)
Instrument parameters: GRATING CHANGE AT 623; ORDER CHANGE AT 2000. FILTERS AT 3146, 2494, 2000, 1146, 698, 497 CM^-^1
Sampling: TRANSMISSION
Path length: 0.01 CM, 0.01 CM, 0.01 CM
Resolution: 2
Origin: PERKIN-ELMER CORP. (R. HANNAH)
1/CM	TRANSMITTANCE
4000	0.8108
3990	0.8119
3980	0.8133
3970	0.8134
3960	0.8128
3950	0.8126
3940	0.8126
3930	0.8126
3920	0.8125
3910	0.8124
3900	0.8121
3890	0.8119
3880	0.8118
3870	0.8121
3860	0.8121
3850	0.8124
3840	0.8125
3830	0.8128
3820	0.8131
3810	0.8133
3800	0.8136
3790	0.8136
3780	0.8136
3770	0.8136
3760	0.8136
3750	0.8137
3740	0.8138
3730	0.8137
3720	0.8128
3710	0.8119
3700	0.8099
3690	0.8068
3680	0.803
3670	0.7974
3660	0.778
3650	0.7015
3640	0.5886
3630	0.5743
3620	0.6365
3610	0.7093
3600	0.7543
3590	0.7614
3580	0.7597
3570	0.7541
3560	0.7408
3550	0.6971
3540	0.6665
3530	0.6444
3520	0.6181
3510	0.5965
3500	0.5784
3490	0.5645
3480	0.5496
3470	0.5318
3460	0.5166
3450	0.5065
3440	0.4955
3430	0.483
3420	0.4712
3410	0.4602
3400	0.4482
3390	0.4341
3380	0.424
3370	0.4136
3360	0.4066
3350	0.4018
3340	0.3982
3330	0.3997
3320	0.4055
3310	0.4143
3300	0.4259
3290	0.4415
3280	0.4601
3270	0.4795
3260	0.4986
3250	0.5283
3240	0.5606
3230	0.5862
3220	0.6081
3210	0.6276
3200	0.6456
3190	0.6618
3180	0.676
3170	0.6897
3160	0.7021
3150	0.7141
3140	0.7239
3130	0.7334
3120	0.7414
3110	0.7481
3100	0.7515
3090	0.7535
3080	0.7544
3070	0.7548
3060	0.754
3050	0.7522
3040	0.7474
3030	0.7361
3020	0.7186
3010	0.6808
3000	0.6327
2990	0.562
2980	0.3377
2970	0.1419
2960	0.0207
2950	0.008
2940	0.0149
2930	0.0133
2920	0.0112
2910	0.0175
2900	0.0281
2890	0.0494
2880	0.0768
2870	0.0583
2860	0.0972
2850	0.1463
2840	0.1628
2830	0.4512
2820	0.5578
2810	0.6066
2800	0.6375
2790	0.6628
2780	0.6944
2770	0.7072
2760	0.7154
2750	0.7217
2740	0.7234
2730	0.7231
2720	0.7237
2710	0.7292
2700	0.7475
2690	0.7538
2680	0.7587
2670	0.7633
2660	0.7664
2650	0.7701
2640	0.7754
2630	0.7751
2620	0.776
2610	0.7786
2600	0.7815
2590	0.786
2580	0.7924
2570	0.8011
2560	0.8047
2550	0.8061
2540	0.8076
2530	0.8114
2520	0.8105
2510	0.8099
2500	0.8124
2490	0.8192
2480	0.8225
2470	0.8225
2460	0.8227
2450	0.823
2440	0.8235
2430	0.824
2420	0.8245
2410	0.8255
2400	0.8266
2390	0.8277
2380	0.8287
2370	0.8298
2360	0.8309
2350	0.8318
2340	0.8328
2330	0.8337
2320	0.8347
2310	0.8355
2300	0.8361
2290	0.8367
2280	0.8371
2270	0.8375
2260	0.8381
2250	0.8387
2240	0.8395
2230	0.8404
2220	0.8413
2210	0.8421
2200	0.8425
2190	0.8428
2180	0.843
2170	0.8432
2160	0.8434
2150	0.8436
2140	0.8438
2130	0.844
2120	0.8442
2110	0.8443
2100	0.8445
2090	0.8444
2080	0.8439
2070	0.8434
2060	0.8428
2050	0.8425
2040	0.8423
2030	0.8421
2020	0.8424
2010	0.8431
2000	0.844
1990	0.8451
1980	0.8456
1970	0.8462
1960	0.8464
1950	0.8465
1940	0.8462
1930	0.8458
1920	0.8458
1910	0.8458
1900	0.846
1890	0.8437
1880	0.8482
1870	0.8481
1860	0.8473
1850	0.8475
1840	0.848
1830	0.8483
1820	0.8483
1810	0.8478
1800	0.8473
1790	0.8462
1780	0.8452
1770	0.8437
1760	0.8421
1750	0.8425
1740	0.843
1730	0.839
1720	0.8355
1710	0.8353
1700	0.8356
1690	0.8371
1680	0.8359
1670	0.8345
1660	0.8335
1650	0.8333
1640	0.8334
1630	0.8332
1620	0.8318
1610	0.8318
1600	0.8325
1590	0.8409
1580	0.8468
1570	0.8501
1560	0.8547
1550	0.8583
1540	0.8599
1530	0.8471
1520	0.8368
1510	0.8175
1500	0.7936
1490	0.7442
1480	0.5682
1470	0.3072
1460	0.2239
1450	0.4719
1440	0.5662
1430	0.6112
1420	0.6468
1410	0.6447
1400	0.6147
1390	0.5353
1380	0.3584
1370	0.4505
1360	0.5667
1350	0.624
1340	0.6248
1330	0.6377
1320	0.6593
1310	0.6717
1300	0.6812
1290	0.6875
1280	0.6922
1270	0.7019
1260	0.7118
1250	0.7161
1240	0.7174
1230	0.7162
1220	0.7138
1210	0.7032
1200	0.7138
1190	0.7149
1180	0.7138
1170	0.6815
1160	0.7087
1150	0.7141
1140	0.7186
1130	0.7119
1120	0.7146
1110	0.7262
1100	0.7328
1090	0.7221
1080	0.6625
1070	0.5154
1060	0.4277
1050	0.3882
1040	0.4357
1030	0.5456
1020	0.5953
1010	0.568
1000	0.5567
990	0.6196
980	0.649
970	0.6456
960	0.6358
950	0.6669
940	0.7055
930	0.7215
920	0.7293
910	0.7334
900	0.7451
890	0.7558
880	0.7578
870	0.7504
860	0.7364
850	0.7275
840	0.7376
830	0.7358
820	0.7407
810	0.7455
800	0.7472
790	0.7497
780	0.7478
770	0.7456
760	0.7474
750	0.7475
740	0.7308
730	0.7026
720	0.7221
710	0.7336
700	0.7342
690	0.7332
680	0.7308
670	0.7285
660	0.729
650	0.7301
640	0.7265
630	0.7255
620	0.726
610	0.7254
600	0.7258
590	0.7261
580	0.7262
570	0.726
560	0.7253
550	0.7255
540	0.7256
530	0.7297
520	0.735
510	0.7412
500	0.7485
490	0.7515
480	0.754
470	0.7557
460	0.7558
450	0.7576
440	0.7628
430	0.7621
420	0.7634
410	0.7655
400	0.769
390	0.7711
380	0.7694
370	0.7698
360	0.7676
350	0.7622
340	0.7594
330	0.7626
320	0.7643
310	0.7611
