Infrared Spectrum: BENZENE, 1,4-DICHLORO-
Formula: C6 H4 Cl2
CAS: 106-46-7
State: SOLUTION (10% IN CCl4 FOR 3800-1300, 10% IN CS2 FOR 1300-650, AND 5% IN CCl4 FOR 650-360 CM^-^1) VERSUS SOLVENT
Melting point: 54 C
Class: COBLENTZ II
Instrument: PERKIN-ELMER 521 (GRATING)
Instrument parameters: GRATING CHANGES AT 2000, 630 CM^-^1
Sampling: TRANSMISSION
Path length: 0.011, 0.011, AND 0.020 CM (CsBr CELL)
Resolution: 4
Origin: DOW CORNING CORP.
1/CM	TRANSMITTANCE
357.197	0.94
366.369	0.937
375.541	0.933
384.713	0.917
393.885	0.919
403.057	0.919
412.229	0.922
421.401	0.922
430.573	0.908
439.745	0.9
448.917	0.895
458.089	0.885
467.261	0.845
476.433	0.6942
485.605	0.1383
494.777	0.747
503.949	0.881
513.121	0.879
522.293	0.806
531.465	0.827
540.637	0.446
549.809	0.2496
558.981	0.6499
568.153	0.867
577.325	0.881
586.497	0.906
595.669	0.917
604.841	0.918
614.013	0.918
623.185	0.91
632.356	0.901
641.528	0.896
650.7	0.892
659.872	0.893
669.044	0.895
678.216	0.895
687.388	0.89
696.56	0.89
705.732	0.892
714.904	0.875
724.076	0.863
733.248	0.863
742.42	0.864
751.592	0.868
760.764	0.863
769.936	0.85
779.108	0.803
788.28	0.809
797.452	0.799
806.624	0.685
815.796	0.263
824.968	0.1738
834.14	0.7729
843.312	0.849
852.484	0.866
861.656	0.874
870.828	0.878
880	0.883
889.172	0.896
898.344	0.895
907.516	0.892
916.688	0.885
925.86	0.874
935.032	0.859
944.204	0.86
953.376	0.87
962.548	0.879
971.72	0.881
980.892	0.878
990.064	0.868
999.236	0.846
1008.41	0.62
1017.58	0.091
1026.75	0.813
1035.92	0.83
1045.1	0.834
1054.27	0.817
1063.44	0.754
1072.61	0.715
1081.78	0.61
1090.96	0.098
1100.13	0.5231
1109.3	0.559
1118.47	0.5081
1127.64	0.832
1136.82	0.852
1145.99	0.863
1155.16	0.863
1164.33	0.843
1173.5	0.841
1182.68	0.885
1191.85	0.892
1201.02	0.888
1210.19	0.87
1219.36	0.824
1228.54	0.893
1237.71	0.895
1246.88	0.883
1256.05	0.856
1265.22	0.825
1274.4	0.868
1283.57	0.87
1292.74	0.864
1301.91	0.93
1311.08	0.937
1320.26	0.936
1329.43	0.932
1338.6	0.921
1347.77	0.906
1356.94	0.928
1366.12	0.925
1375.29	0.912
1384.46	0.8461
1393.63	0.4792
1402.8	0.896
1411.98	0.848
1421.15	0.665
1430.32	0.889
1439.49	0.864
1448.66	0.85
1457.83	0.723
1467.01	0.693
1476.18	0.2471
1485.35	0.428
1494.52	0.853
1503.69	0.853
1512.87	0.852
1522.04	0.892
1531.21	0.89
1540.38	0.886
1549.55	0.885
1558.73	0.89
1567.9	0.886
1577.07	0.882
1586.24	0.888
1595.41	0.889
1604.59	0.875
1613.76	0.866
1622.93	0.853
1632.1	0.781
1641.27	0.823
1650.45	0.885
1659.62	0.883
1668.79	0.893
1677.96	0.907
1687.13	0.906
1696.31	0.907
1705.48	0.91
1714.65	0.91
1723.82	0.911
1732.99	0.908
1742.17	0.903
1751.34	0.885
1760.51	0.878
1769.68	0.882
1778.85	0.911
1788.03	0.917
1797.2	0.915
1806.37	0.915
1815.54	0.914
1824.71	0.906
1833.89	0.892
1843.06	0.904
1852.23	0.904
1861.4	0.9
1870.57	0.892
1879.75	0.854
1888.92	0.693
1898.09	0.889
1907.26	0.906
1916.43	0.91
1925.61	0.911
1934.78	0.91
1943.95	0.907
1953.12	0.911
1962.29	0.915
1971.47	0.915
1980.64	0.911
1989.81	0.915
1998.98	0.917
2008.15	0.915
2017.33	0.913
2026.5	0.912
2035.67	0.912
2044.84	0.912
2054.01	0.9115
2063.19	0.911
2072.36	0.911
2081.53	0.9099
2090.7	0.9074
2099.87	0.906
2109.05	0.906
2118.22	0.904
2127.39	0.904
2136.56	0.903
2145.73	0.903
2154.91	0.903
2164.08	0.9018
2173.25	0.901
2182.42	0.901
2191.59	0.901
2200.77	0.8994
2209.94	0.897
2219.11	0.896
2228.28	0.895
2237.45	0.8937
2246.63	0.892
2255.8	0.8893
2264.97	0.8847
2274.14	0.8773
2283.31	0.8895
2292.49	0.893
2301.66	0.893
2310.83	0.893
2320	0.893
2329.17	0.893
2338.35	0.893
2347.52	0.893
2356.69	0.892
2365.86	0.8905
2375.03	0.89
2384.21	0.89
2393.38	0.89
2402.55	0.8915
2411.72	0.892
2420.89	0.89
2430.07	0.89
2439.24	0.889
2448.41	0.889
2457.58	0.889
2466.75	0.889
2475.93	0.889
2485.1	0.888
2494.27	0.8852
2503.44	0.883
2512.61	0.883
2521.79	0.8817
2530.96	0.881
2540.13	0.879
2549.3	0.8753
2558.47	0.871
2567.64	0.8788
2576.82	0.8816
2585.99	0.881
2595.16	0.881
2604.33	0.8793
2613.5	0.878
2622.68	0.877
2631.85	0.875
2641.02	0.874
2650.19	0.8716
2659.36	0.8671
2668.54	0.8728
2677.71	0.878
2686.88	0.878
2696.05	0.878
2705.22	0.878
2714.4	0.878
2723.57	0.8776
2732.74	0.877
2741.91	0.877
2751.08	0.874
2760.26	0.871
2769.43	0.8739
2778.6	0.878
2787.77	0.877
2796.94	0.875
2806.12	0.872
2815.29	0.8665
2824.46	0.856
2833.63	0.8595
2842.8	0.874
2851.98	0.875
2861.15	0.875
2870.32	0.875
2879.49	0.875
2888.66	0.875
2897.84	0.875
2907.01	0.875
2916.18	0.875
2925.35	0.875
2934.52	0.874
2943.7	0.874
2952.87	0.874
2962.04	0.874
2971.21	0.872
2980.38	0.872
2989.56	0.872
2998.73	0.871
3007.9	0.87
3017.07	0.8674
3026.24	0.864
3035.42	0.863
3044.59	0.8608
3053.76	0.8547
3062.93	0.8498
3072.1	0.8437
3081.28	0.839
3090.45	0.838
3099.62	0.8412
3108.79	0.8514
3117.96	0.8592
3127.14	0.8654
3136.31	0.87
3145.48	0.868
3154.65	0.868
3163.82	0.8695
3173	0.87
3182.17	0.871
3191.34	0.875
3200.51	0.8765
3209.68	0.877
3218.86	0.877
3228.03	0.877
3237.2	0.877
3246.37	0.877
3255.54	0.875
3264.72	0.875
3273.89	0.875
3283.06	0.878
3292.23	0.877
3301.4	0.8743
3310.58	0.8754
3319.75	0.8747
3328.92	0.8742
3338.09	0.872
3347.26	0.874
3356.44	0.875
3365.61	0.874
3374.78	0.8727
3383.95	0.8723
3393.12	0.872
3402.3	0.871
3411.47	0.872
3420.64	0.872
3429.81	0.872
3438.98	0.872
3448.16	0.8728
3457.33	0.872
3466.5	0.874
3475.67	0.874
3484.84	0.874
3494.02	0.874
3503.19	0.8737
3512.36	0.872
3521.53	0.8729
3530.7	0.874
3539.88	0.872
3549.05	0.874
3558.22	0.874
3567.39	0.874
3576.56	0.8745
3585.74	0.879
3594.91	0.8775
3604.08	0.875
3613.25	0.877
3622.42	0.875
3631.59	0.878
3640.77	0.875
3649.94	0.877
3659.11	0.874
3668.28	0.8775
3677.45	0.8789
3686.63	0.877
3695.8	0.8749
3704.97	0.872
3714.14	0.8721
3723.31	0.8776
3732.49	0.8811
3741.66	0.882
3750.83	0.881
3760	0.8776
3769.17	0.877
3778.35	0.875
3787.52	0.877
3796.69	0.8795
3805.86	0.8775
