Infrared Spectrum: BENZENE, 1-CHLORO-4-METHYL-
Formula: C7 H7 Cl
CAS: 106-43-4
State: SOLUTION (10% IN CCl4 FOR 3800-1300, 2% IN CS2 FOR 1300-650, AND 10% IN CCl4 FOR 650-240 CM^-^1) VERSUS SOLVENT
Melting point: 7.5 C
Class: COBLENTZ II
Instrument: PERKIN-ELMER 521 (GRATING)
Instrument parameters: GRATING CHANGES AT 2000, 630 CM^-^1
Sampling: TRANSMISSION
Path length: 0.010, 0.010, AND 0.020 CM (CsBr CELL)
Resolution: 4
Origin: DOW CORNING CORP.
1/CM	TRANSMITTANCE
236.317	0.892
245.524	0.901
254.731	0.903
263.939	0.906
273.146	0.908
282.353	0.906
291.56	0.896
300.767	0.867
309.974	0.924
319.182	0.93
328.389	0.934
337.596	0.934
346.803	0.926
356.01	0.919
365.217	0.874
374.425	0.5492
383.632	0.897
392.839	0.919
402.046	0.911
411.253	0.915
420.46	0.911
429.668	0.906
438.875	0.903
448.082	0.893
457.289	0.855
466.496	0.7781
475.703	0.4581
484.911	0.036
494.118	0.725
503.325	0.834
512.532	0.868
521.739	0.886
530.946	0.895
540.154	0.892
549.361	0.89
558.568	0.871
567.775	0.896
576.982	0.905
586.189	0.903
595.397	0.903
604.604	0.887
613.811	0.863
623.018	0.7381
632.225	0.2613
641.432	0.862
650.64	0.908
659.847	0.908
669.054	0.905
678.261	0.916
687.468	0.905
696.676	0.893
705.883	0.905
715.09	0.903
724.297	0.895
733.504	0.9
742.711	0.9
751.919	0.898
761.126	0.888
770.333	0.882
779.54	0.849
788.747	0.797
797.954	0.6612
807.162	0.4627
816.369	0.831
825.576	0.876
834.783	0.883
843.99	0.89
853.197	0.887
862.405	0.887
871.612	0.887
880.819	0.884
890.026	0.886
899.233	0.886
908.44	0.888
917.648	0.886
926.855	0.884
936.062	0.887
945.269	0.888
954.476	0.886
963.683	0.878
972.891	0.878
982.098	0.865
991.305	0.858
1000.51	0.829
1009.72	0.782
1018.93	0.797
1028.13	0.805
1037.34	0.798
1046.55	0.814
1055.76	0.819
1064.96	0.812
1074.17	0.814
1083.38	0.761
1092.58	0.6569
1101.79	0.798
1111	0.817
1120.21	0.878
1129.41	0.881
1138.62	0.895
1147.83	0.89
1157.03	0.886
1166.24	0.878
1175.45	0.881
1184.66	0.892
1193.86	0.891
1203.07	0.877
1212.28	0.893
1221.48	0.891
1230.69	0.888
1239.9	0.895
1249.11	0.881
1258.31	0.868
1267.52	0.888
1276.73	0.896
1285.93	0.898
1295.14	0.89
1304.35	0.907
1313.56	0.905
1322.76	0.905
1331.97	0.9
1341.18	0.887
1350.38	0.893
1359.59	0.884
1368.8	0.871
1378.01	0.7781
1387.21	0.847
1396.42	0.786
1405.63	0.739
1414.83	0.73
1424.04	0.776
1433.25	0.744
1442.46	0.681
1451.66	0.658
1460.87	0.687
1470.08	0.667
1479.28	0.605
1488.49	0.199
1497.7	0.199
1506.91	0.691
1516.11	0.84
1525.32	0.867
1534.53	0.895
1543.74	0.915
1552.94	0.919
1562.15	0.912
1571.36	0.886
1580.56	0.855
1589.77	0.876
1598.98	0.815
1608.19	0.877
1617.39	0.864
1626.6	0.815
1635.81	0.81
1645.01	0.876
1654.22	0.886
1663.43	0.9
1672.64	0.905
1681.84	0.903
1691.05	0.905
1700.26	0.903
1709.46	0.896
1718.67	0.882
1727.88	0.865
1737.09	0.877
1746.29	0.883
1755.5	0.893
1764.71	0.895
1773.91	0.867
1783.12	0.864
1792.33	0.9
1801.54	0.906
1810.74	0.906
1819.95	0.906
1829.16	0.906
1838.36	0.902
1847.57	0.902
1856.78	0.897
1865.99	0.89
1875.19	0.878
1884.4	0.798
1893.61	0.8
1902.81	0.89
1912.02	0.902
1921.23	0.905
1930.44	0.906
1939.64	0.906
1948.85	0.905
1958.06	0.903
1967.27	0.907
1976.47	0.906
1985.68	0.902
1994.89	0.907
2004.09	0.907
2013.3	0.907
2022.51	0.907
2031.72	0.907
2040.92	0.907
2050.13	0.908
2059.34	0.9081
2068.54	0.91
2077.75	0.907
2086.96	0.906
2096.17	0.9048
2105.37	0.903
2114.58	0.903
2123.79	0.903
2132.99	0.903
2142.2	0.902
2151.41	0.9018
2160.62	0.9003
2169.82	0.9
2179.03	0.9
2188.24	0.898
2197.44	0.898
2206.65	0.898
2215.86	0.898
2225.07	0.898
2234.27	0.898
2243.48	0.898
2252.69	0.8972
2261.89	0.8944
2271.1	0.89
2280.31	0.8907
2289.52	0.8779
2298.72	0.8948
2307.93	0.8971
2317.14	0.896
2326.34	0.9
2335.55	0.896
2344.76	0.895
2353.97	0.893
2363.17	0.893
2372.38	0.891
2381.59	0.89
2390.79	0.8875
2400	0.886
2409.21	0.887
2418.42	0.89
2427.62	0.892
2436.83	0.893
2446.04	0.893
2455.25	0.891
2464.45	0.8889
2473.66	0.887
2482.87	0.8892
2492.07	0.89
2501.28	0.8874
2510.49	0.887
2519.7	0.888
2528.9	0.887
2538.11	0.887
2547.32	0.887
2556.52	0.887
2565.73	0.8814
2574.94	0.874
2584.15	0.8772
2593.35	0.8837
2602.56	0.887
2611.77	0.8832
2620.97	0.8873
2630.18	0.888
2639.39	0.887
2648.6	0.886
2657.8	0.8837
2667.01	0.882
2676.22	0.8803
2685.42	0.879
2694.63	0.8797
2703.84	0.881
2713.05	0.879
2722.25	0.8771
2731.46	0.8647
2740.67	0.8622
2749.87	0.8799
2759.08	0.883
2768.29	0.882
2777.5	0.878
2786.7	0.874
2795.91	0.874
2805.12	0.8725
2814.32	0.867
2823.53	0.8629
2832.74	0.8469
2841.95	0.8261
2851.15	0.795
2860.36	0.7538
2869.57	0.689
2878.77	0.7164
2887.98	0.7403
2897.19	0.7476
2906.4	0.7366
2915.6	0.676
2924.81	0.5374
2934.02	0.6218
2943.23	0.6665
2952.43	0.6573
2961.64	0.676
2970.85	0.681
2980.05	0.6618
2989.26	0.6787
2998.47	0.7177
3007.68	0.7438
3016.88	0.7407
3026.09	0.667
3035.3	0.5932
3044.5	0.6472
3053.71	0.7309
3062.92	0.7868
3072.13	0.798
3081.33	0.7887
3090.54	0.7916
3099.75	0.8225
3108.95	0.8448
3118.16	0.8676
3127.37	0.879
3136.58	0.884
3145.78	0.8836
3154.99	0.883
3164.2	0.886
3173.4	0.887
3182.61	0.89
3191.82	0.891
3201.03	0.893
3210.23	0.895
3219.44	0.896
3228.65	0.897
3237.85	0.8975
3247.06	0.898
3256.27	0.898
3265.48	0.9
3274.68	0.9
3283.89	0.901
3293.1	0.901
3302.3	0.901
3311.51	0.901
3320.72	0.901
3329.93	0.901
3339.13	0.901
3348.34	0.901
3357.55	0.901
3366.75	0.901
3375.96	0.902
3385.17	0.902
3394.38	0.902
3403.58	0.902
3412.79	0.902
3422	0.9028
3431.21	0.903
3440.41	0.903
3449.62	0.903
3458.83	0.903
3468.03	0.905
3477.24	0.905
3486.45	0.9054
3495.66	0.906
3504.86	0.906
3514.07	0.908
3523.28	0.908
3532.48	0.91
3541.69	0.91
3550.9	0.9109
3560.11	0.914
3569.31	0.916
3578.52	0.919
3587.73	0.924
3596.93	0.922
3606.14	0.921
3615.35	0.919
3624.56	0.917
3633.76	0.917
3642.97	0.916
3652.18	0.915
3661.38	0.915
3670.59	0.915
3679.8	0.915
3689.01	0.915
3698.21	0.915
3707.42	0.9156
3716.63	0.916
3725.83	0.9183
3735.04	0.9223
3744.25	0.929
3753.46	0.9298
3762.66	0.9206
3771.87	0.9156
3781.08	0.9117
3790.28	0.9162
3799.49	0.9248
