Infrared Spectrum: p-PHENYLENEDIAMINE
Formula: C6 H8 N2
CAS: 106-50-3
State: SOLID (MINERAL OIL MULL)
Class: COBLENTZ
Instrument: Not specified, most likely a prism, grating, or hybrid spectrometer.
Sampling: TRANSMISSION
Resolution: 4
Origin: DOW CHEMICAL COMPANY
MICROMETERS	TRANSMITTANCE
2.021	0.285
2.06222	0.294
2.10343	0.309
2.14465	0.321
2.18586	0.333
2.22708	0.349
2.26829	0.352
2.30951	0.363
2.35072	0.38
2.39194	0.39
2.43315	0.404
2.47437	0.421
2.51558	0.436
2.5568	0.453
2.59801	0.464
2.63923	0.472
2.68044	0.488
2.72166	0.5
2.76287	0.513
2.80409	0.527
2.8453	0.532
2.88652	0.539
2.92773	0.33
2.96895	0.167
3.01016	0.188
3.05138	0.174
3.09259	0.214
3.13381	0.169
3.17502	0.34
3.21624	0.417
3.25745	0.448
3.29867	0.421
3.33988	0.315
3.3811	0.111
3.42231	0.022
3.46353	0.087
3.50474	0.133
3.54596	0.482
3.58717	0.64
3.62839	0.659
3.6696	0.659
3.71082	0.667
3.75203	0.676
3.79325	0.695
3.83446	0.707
3.87568	0.722
3.91689	0.734
3.95811	0.732
3.99932	0.746
4.04054	0.761
4.08175	0.768
4.12297	0.772
4.16418	0.77
4.2054	0.77
4.24661	0.77
4.28783	0.77
4.32904	0.779
4.37026	0.789
4.41148	0.801
4.45269	0.808
4.49391	0.811
4.53512	0.818
4.57634	0.818
4.61755	0.823
4.65877	0.828
4.69998	0.83
4.7412	0.83
4.78241	0.83
4.82363	0.832
4.86484	0.832
4.90606	0.83
4.94727	0.828
4.98849	0.828
5.0297	0.821
5.07092	0.821
5.11213	0.821
5.15335	0.828
5.19456	0.844
5.23578	0.856
5.27699	0.866
5.31821	0.868
5.35942	0.82
5.40064	0.813
5.44185	0.869
5.48307	0.885
5.52428	0.89
5.5655	0.895
5.60671	0.897
5.64793	0.898
5.68914	0.898
5.73036	0.893
5.77157	0.895
5.81279	0.9
5.854	0.9
5.89522	0.897
5.93643	0.886
5.97765	0.856
6.01886	0.797
6.06008	0.712
6.10129	0.479
6.14251	0.311
6.18372	0.404
6.22494	0.52
6.26615	0.666
6.30737	0.772
6.34858	0.806
6.3898	0.825
6.43101	0.816
6.47223	0.78
6.51344	0.551
6.55466	0.369
6.59587	0.14
6.63709	0.082
6.6783	0.323
6.71952	0.523
6.76073	0.561
6.80195	0.436
6.84317	0.301
6.88438	0.311
6.9256	0.409
6.96681	0.616
7.00803	0.719
7.04924	0.767
7.09046	0.796
7.13167	0.804
7.17289	0.801
7.2141	0.71
7.25532	0.565
7.29653	0.601
7.33775	0.684
7.37896	0.729
7.42018	0.669
7.46139	0.65
7.50261	0.698
7.54382	0.66
7.58504	0.532
7.62625	0.457
7.66747	0.505
7.70868	0.693
7.7499	0.782
7.79111	0.794
7.83233	0.602
7.87354	0.291
7.91476	0.07
7.95597	0.109
7.99719	0.289
8.0384	0.455
8.07962	0.549
8.12083	0.625
8.16205	0.69
8.20326	0.741
8.24448	0.77
8.28569	0.796
8.32691	0.811
8.36812	0.823
8.40934	0.828
8.45055	0.827
8.49177	0.821
8.53298	0.825
8.5742	0.828
8.61541	0.83
8.65663	0.83
8.69784	0.83
8.73906	0.801
8.78027	0.707
8.82149	0.546
8.8627	0.457
8.90392	0.472
8.94513	0.59
8.98635	0.686
9.02756	0.753
9.06878	0.775
9.10999	0.794
9.15121	0.808
9.19243	0.813
9.23364	0.816
9.27486	0.816
9.31607	0.803
9.35729	0.753
9.3985	0.696
9.43972	0.727
9.48093	0.803
9.52215	0.827
9.56336	0.823
9.60458	0.809
9.64579	0.815
9.68701	0.83
9.72822	0.842
9.76944	0.849
9.81065	0.854
9.85187	0.854
9.89308	0.847
9.9343	0.847
9.97551	0.852
10.0167	0.864
10.0579	0.868
10.0992	0.868
10.1404	0.864
10.1816	0.857
10.2228	0.851
10.264	0.844
10.3052	0.837
10.3464	0.837
10.3877	0.832
10.4289	0.83
10.4701	0.827
10.5113	0.818
10.5525	0.797
10.5937	0.77
10.635	0.775
10.6762	0.777
10.7174	0.75
10.7586	0.731
10.7998	0.756
10.841	0.775
10.8822	0.773
10.9235	0.765
10.9647	0.756
11.0059	0.748
11.0471	0.731
11.0883	0.717
11.1295	0.705
11.1707	0.688
11.212	0.678
11.2532	0.664
11.2944	0.686
11.3356	0.635
11.3768	0.611
11.418	0.585
11.4593	0.568
11.5005	0.546
11.5417	0.508
11.5829	0.477
11.6241	0.44
11.6653	0.39
11.7065	0.333
11.7478	0.282
11.789	0.243
11.8302	0.172
11.8714	0.116
11.9126	0.078
11.9538	0.049
11.9951	0.041
12.0363	0.039
12.0775	0.041
12.1187	0.046
12.1599	0.051
12.2011	0.083
12.2423	0.181
12.2836	0.287
12.3248	0.318
12.366	0.321
12.4072	0.309
12.4484	0.289
12.4896	0.27
12.5308	0.263
12.5721	0.265
12.6133	0.282
12.6545	0.318
12.6957	0.363
12.7369	0.404
12.7781	0.433
12.8194	0.46
12.8606	0.484
12.9018	0.51
12.943	0.558
12.9842	0.626
13.0254	0.684
13.0666	0.712
13.1079	0.717
13.1491	0.691
13.1903	0.645
13.2315	0.577
13.2727	0.5
13.3139	0.445
13.3551	0.369
13.3964	0.297
13.4376	0.238
13.4788	0.191
13.52	0.14
13.5612	0.111
13.6024	0.092
13.6437	0.073
13.6849	0.061
13.7261	0.054
13.7673	0.051
13.8085	0.047
13.8497	0.044
13.8909	0.042
13.9322	0.042
13.9734	0.046
14.0146	0.049
14.0558	0.056
14.097	0.065
14.1382	0.071
14.1795	0.078
14.2207	0.087
14.2619	0.095
14.3031	0.104
14.3443	0.116
14.3855	0.126
14.4267	0.138
14.468	0.145
14.5092	0.155
14.5504	0.166
14.5916	0.174
14.6328	0.183
14.674	0.188
14.7152	0.198
14.7565	0.205
14.7977	0.207
14.8389	0.214
14.8801	0.217
14.9213	0.226
14.9625	0.236
15.0038	0.243
15.045	0.246
15.0862	0.248
15.1274	0.25
15.1686	0.256
15.2098	0.263
15.251	0.268
15.2923	0.277
15.3335	0.282
15.3747	0.289
15.4159	0.296
15.4571	0.301
15.4983	0.306
15.5395	0.309
15.5808	0.311
15.622	0.313
15.6632	0.316
15.7044	0.318
15.7456	0.323
15.7868	0.327
15.8281	0.33
