Infrared Spectrum: BENZENAMINE, 4-METHYL-
Formula: C7 H9 N
CAS: 106-49-0
State: SOLUTION (11% IN CCl4 FOR 3800-1300, 11% IN TMP FOR 1300-650, AND 11% IN CCl4 FOR 650-250 CM^-^1) VERSUS SOLVENT
Class: COBLENTZ III
Instrument: PERKIN-ELMER 521 (GRATING)
Instrument parameters: FILTERS AT 3150, 2500, 2000, 1150, 700, 410; GRATING CHANGES AT 2000, 630 CM^-^1
Sampling: TRANSMISSION
Path length: 0.011, 0.011, AND 0.010 CM (CsBr CELL)
Resolution: 4
Origin: DOW CORNING CORP.
1/CM	TRANSMITTANCE
250.599	0.664
259.538	0.634
268.476	0.622
277.415	0.617
286.353	0.617
295.292	0.622
304.23	0.639
313.169	0.653
322.107	0.662
331.046	0.664
339.984	0.694
348.923	0.708
357.862	0.715
366.8	0.725
375.739	0.729
384.677	0.727
393.616	0.72
402.554	0.704
411.493	0.688
420.431	0.678
429.37	0.657
438.308	0.622
447.247	0.576
456.186	0.513
465.124	0.5049
474.063	0.458
483.001	0.365
491.94	0.1922
500.878	0.0261
509.817	0.298
518.755	0.585
527.694	0.559
536.632	0.529
545.571	0.505
554.51	0.482
563.448	0.459
572.387	0.445
581.325	0.428
590.264	0.41
599.202	0.398
608.141	0.393
617.079	0.389
626.018	0.391
634.956	0.395
643.895	0.4
652.834	0.407
661.772	0.414
670.711	0.44
679.649	0.466
688.588	0.48
697.526	0.501
706.465	0.55
715.403	0.547
724.342	0.552
733.28	0.576
742.219	0.6809
751.158	0.667
760.096	0.671
769.035	0.673
777.973	0.664
786.912	0.608
795.85	0.4382
804.789	0.069
813.727	0.057
822.666	0.2858
831.604	0.5129
840.543	0.59
849.482	0.6639
858.42	0.722
867.359	0.76
876.297	0.777
885.236	0.788
894.174	0.809
903.113	0.825
912.051	0.832
920.99	0.839
929.928	0.84
938.867	0.839
947.806	0.835
956.744	0.83
965.683	0.821
974.621	0.809
983.56	0.788
992.498	0.763
1001.44	0.737
1010.38	0.711
1019.31	0.685
1028.25	0.66
1037.19	0.604
1046.13	0.641
1055.07	0.662
1064.01	0.636
1072.95	0.631
1081.88	0.641
1090.82	0.643
1099.76	0.638
1108.7	0.61
1117.64	0.4332
1126.58	0.5267
1135.52	0.734
1144.45	0.746
1153.39	0.751
1162.33	0.73
1171.27	0.622
1180.21	0.5324
1189.15	0.755
1198.08	0.756
1207.02	0.751
1215.96	0.739
1224.9	0.711
1233.84	0.671
1242.78	0.5871
1251.72	0.4281
1260.65	0.136
1269.59	0.047
1278.53	0.2498
1287.47	0.41
1296.41	0.6199
1305.35	0.69
1314.29	0.694
1323.22	0.68
1332.16	0.694
1341.1	0.77
1350.04	0.788
1358.98	0.779
1367.92	0.769
1376.86	0.73
1385.79	0.776
1394.73	0.76
1403.67	0.743
1412.61	0.72
1421.55	0.662
1430.49	0.631
1439.43	0.585
1448.36	0.545
1457.3	0.561
1466.24	0.611
1475.18	0.653
1484.12	0.65
1493.06	0.576
1502	0.29
1510.93	0
1519.87	0.0399
1528.81	0.477
1537.75	0.6779
1546.69	0.732
1555.63	0.718
1564.57	0.688
1573.5	0.632
1582.44	0.452
1591.38	0.428
1600.32	0.2973
1609.26	0.159
1618.2	0.013
1627.14	0.048
1636.07	0.2949
1645.01	0.5429
1653.95	0.694
1662.89	0.753
1671.83	0.774
1680.77	0.79
1689.7	0.798
1698.64	0.805
1707.58	0.811
1716.52	0.807
1725.46	0.802
1734.4	0.804
1743.34	0.8
1752.27	0.791
1761.21	0.802
1770.15	0.825
1779.09	0.833
1788.03	0.837
1796.97	0.842
1805.91	0.84
1814.84	0.835
1823.78	0.83
1832.72	0.818
1841.66	0.798
1850.6	0.753
1859.54	0.664
1868.48	0.6969
1877.41	0.795
1886.35	0.807
1895.29	0.823
1904.23	0.826
1913.17	0.826
1922.11	0.83
1931.05	0.833
1939.98	0.837
1948.92	0.837
1957.86	0.84
1966.8	0.84
1975.74	0.84
1984.68	0.839
1993.62	0.846
2002.55	0.846
2011.49	0.8465
2020.43	0.8509
2029.37	0.8525
2038.31	0.856
2047.25	0.856
2056.19	0.856
2065.12	0.853
2074.06	0.851
2083	0.844
2091.94	0.844
2100.88	0.8411
2109.82	0.84
2118.76	0.8409
2127.69	0.844
2136.63	0.84
2145.57	0.842
2154.51	0.8519
2163.45	0.853
2172.39	0.8519
2181.32	0.856
2190.26	0.854
2199.2	0.853
2208.14	0.853
2217.08	0.853
2226.02	0.851
2234.96	0.8528
2243.89	0.853
2252.83	0.851
2261.77	0.854
2270.71	0.8531
2279.65	0.847
2288.59	0.8424
2297.53	0.8396
2306.46	0.8352
2315.4	0.835
2324.34	0.835
2333.28	0.8358
2342.22	0.837
2351.16	0.837
2360.1	0.8399
2369.03	0.844
2377.97	0.846
2386.91	0.844
2395.85	0.844
2404.79	0.84
2413.73	0.8374
2422.67	0.837
2431.6	0.835
2440.54	0.832
2449.48	0.832
2458.42	0.83
2467.36	0.83
2476.3	0.835
2485.24	0.835
2494.17	0.8327
2503.11	0.83
2512.05	0.8273
2520.99	0.8182
2529.93	0.812
2538.87	0.812
2547.81	0.812
2556.74	0.812
2565.68	0.8084
2574.62	0.802
2583.56	0.798
2592.5	0.795
2601.44	0.8029
2610.38	0.8106
2619.31	0.814
2628.25	0.8226
2637.19	0.823
2646.13	0.823
2655.07	0.8204
2664.01	0.814
2672.94	0.812
2681.88	0.812
2690.82	0.812
2699.76	0.8094
2708.7	0.809
2717.64	0.8055
2726.58	0.7672
2735.51	0.7557
2744.45	0.8095
2753.39	0.812
2762.33	0.811
2771.27	0.8075
2780.21	0.8035
2789.15	0.7985
2798.08	0.7965
2807.02	0.7873
2815.96	0.7739
2824.9	0.7548
2833.84	0.7354
2842.78	0.6853
2851.72	0.5964
2860.65	0.3986
2869.59	0.4597
2878.53	0.5739
2887.47	0.5536
2896.41	0.5147
2905.35	0.4284
2914.29	0.3301
2923.22	0.3054
2932.16	0.4045
2941.1	0.4487
2950.04	0.4918
2958.98	0.536
2967.92	0.5249
2976.86	0.5187
2985.79	0.4814
2994.73	0.4271
3003.67	0.3543
3012.61	0.2873
3021.55	0.268
3030.49	0.3022
3039.43	0.465
3048.36	0.5243
3057.3	0.5503
3066.24	0.644
3075.18	0.7293
3084.12	0.7455
3093.06	0.7242
3102	0.7133
3110.93	0.778
3119.87	0.7786
3128.81	0.7836
3137.75	0.7971
3146.69	0.804
3155.63	0.805
3164.56	0.8015
3173.5	0.7926
3182.44	0.7786
3191.38	0.7553
3200.32	0.7277
3209.26	0.7252
3218.2	0.7366
3227.13	0.7515
3236.07	0.7667
3245.01	0.7842
3253.95	0.79
3262.89	0.79
3271.83	0.7868
3280.77	0.7754
3289.7	0.7658
3298.64	0.7495
3307.58	0.7325
3316.52	0.6999
3325.46	0.663
3334.4	0.6288
3343.34	0.5697
3352.27	0.5127
3361.21	0.4493
3370.15	0.3807
3379.09	0.361
3388.03	0.4076
3396.97	0.4669
3405.91	0.651
3414.84	0.6627
3423.78	0.6406
3432.72	0.5926
3441.66	0.5216
3450.6	0.4711
3459.54	0.4382
3468.48	0.4676
3477.41	0.5388
3486.35	0.6705
3495.29	0.7484
3504.23	0.7897
3513.17	0.8181
3522.11	0.8301
3531.05	0.84
3539.98	0.852
3548.92	0.854
3557.86	0.862
3566.8	0.867
3575.74	0.872
3584.68	0.87
3593.62	0.868
3602.55	0.868
3611.49	0.868
3620.43	0.867
3629.37	0.862
3638.31	0.87
3647.25	0.8626
3656.18	0.8561
3665.12	0.854
3674.06	0.856
3683	0.86
3691.94	0.8649
3700.88	0.868
3709.82	0.868
3718.75	0.8709
3727.69	0.874
3736.63	0.8731
3745.57	0.868
3754.51	0.8676
3763.45	0.865
3772.39	0.863
3781.32	0.8699
3790.26	0.872
