Infrared Spectrum: Acetin, 1-mono-
Formula: C5 H10 O4
CAS: 106-61-6
State: LIQUID (NEAT)
Boiling point: 121 C AT 3 mmHg
Class: COBLENTZ III
Instrument: DOW KBr FOREPRISM-GRATING
Instrument parameters: BLAZED AT 3.5, 12.0, 20.0 MICRON AND CHANGED AT 5.0, 7.5, 14.9 MICRON
Sampling: TRANSMISSION
Path length: CAPILLARY
Resolution: 2
Origin: DOW CHEMICAL COMPANY
1/CM	TRANSMITTANCE
452	0.6104
461	0.6095
470	0.6065
479	0.6018
488	0.5926
497	0.5768
506	0.5718
515	0.5775
524	0.5883
533	0.5865
542	0.5776
551	0.5732
560	0.5778
569	0.595
578	0.6116
587	0.6098
596	0.5896
605	0.5069
614	0.5148
623	0.5856
632	0.6026
641	0.6093
650	0.6246
659	0.6383
668	0.6445
677	0.6289
686	0.647
695	0.6675
704	0.6944
713	0.7188
722	0.7339
731	0.7451
740	0.7549
749	0.7619
758	0.769
767	0.7744
776	0.779
785	0.782
794	0.783
803	0.7767
812	0.7586
821	0.7283
830	0.6938
839	0.6561
848	0.6448
857	0.6466
866	0.6596
875	0.6878
884	0.6923
893	0.6687
902	0.6398
911	0.6231
920	0.5865
929	0.5557
938	0.5593
947	0.571
956	0.5606
965	0.5553
974	0.5085
983	0.5275
992	0.5564
1001	0.541
1010	0.4468
1019	0.3382
1028	0.2385
1037	0.1298
1046	0.0882
1055	0.1378
1064	0.2435
1073	0.3924
1082	0.4407
1091	0.4274
1100	0.405
1109	0.4063
1118	0.4329
1127	0.505
1136	0.6223
1145	0.6815
1154	0.7077
1163	0.7068
1172	0.6745
1181	0.6319
1190	0.551
1199	0.4392
1208	0.2124
1217	0.0976
1226	0.0464
1235	0.0421
1244	0.0469
1253	0.0568
1262	0.0724
1271	0.1128
1280	0.1932
1289	0.3173
1298	0.4691
1307	0.5215
1316	0.5371
1325	0.5444
1334	0.5694
1343	0.5731
1352	0.5592
1361	0.445
1370	0.1986
1379	0.2047
1388	0.2817
1397	0.3828
1406	0.47
1415	0.4942
1424	0.4787
1433	0.4488
1442	0.4569
1451	0.4776
1460	0.5076
1469	0.6028
1478	0.6741
1487	0.7252
1496	0.7451
1505	0.7573
1514	0.7645
1523	0.7697
1532	0.774
1541	0.7769
1550	0.7802
1559	0.784
1568	0.7876
1577	0.7903
1586	0.7913
1595	0.7919
1604	0.7905
1613	0.7858
1622	0.7798
1631	0.7686
1640	0.7529
1649	0.7362
1658	0.7202
1667	0.7078
1676	0.687
1685	0.6341
1694	0.4753
1703	0.2886
1712	0.1286
1721	0.0675
1730	0.0438
1739	0.0338
1748	0.0381
1757	0.2191
1766	0.5149
1775	0.6701
1784	0.7192
1793	0.7489
1802	0.7684
1811	0.7829
1820	0.7932
1829	0.8027
1838	0.8075
1847	0.8093
1856	0.8116
1865	0.8143
1874	0.8161
1883	0.817
1892	0.8179
1901	0.8188
1910	0.8195
1919	0.8201
1928	0.8206
1937	0.8214
1946	0.8225
1955	0.8251
1964	0.8278
1973	0.8304
1982	0.833
1991	0.8351
2000	0.8368
2009	0.8576
2018	0.8583
2027	0.8575
2036	0.8568
2045	0.8562
2054	0.8566
2063	0.8567
2072	0.8565
2081	0.8559
2090	0.8558
2099	0.8557
2108	0.8559
2117	0.8559
2126	0.8557
2135	0.8553
2144	0.8549
2153	0.8544
2162	0.8544
2171	0.8544
2180	0.8544
2189	0.8544
2198	0.8546
2207	0.8547
2216	0.8552
2225	0.8556
2234	0.8561
2243	0.8564
2252	0.8568
2261	0.8571
2270	0.8569
2279	0.8563
2288	0.8558
2297	0.8558
2306	0.8558
2315	0.8566
2324	0.8595
2333	0.8617
2342	0.862
2351	0.862
2360	0.8607
2369	0.8592
2378	0.858
2387	0.8572
2396	0.8563
2405	0.8553
2414	0.8544
2423	0.853
2432	0.8517
2441	0.8503
2450	0.8497
2459	0.8492
2468	0.848
2477	0.8458
2486	0.8436
2495	0.8419
2504	0.8416
2513	0.8411
2522	0.8414
2531	0.8419
2540	0.8421
2549	0.8419
2558	0.8413
2567	0.8407
2576	0.8402
2585	0.8391
2594	0.8377
2603	0.8362
2612	0.8347
2621	0.8332
2630	0.8317
2639	0.8299
2648	0.828
2657	0.8263
2666	0.8252
2675	0.824
2684	0.8224
2693	0.8207
2702	0.8192
2711	0.8176
2720	0.816
2729	0.8144
2738	0.8126
2747	0.8108
2756	0.809
2765	0.8066
2774	0.8039
2783	0.8012
2792	0.7985
2801	0.7957
2810	0.7908
2819	0.7841
2828	0.7762
2837	0.7629
2846	0.7462
2855	0.7267
2864	0.7037
2873	0.6766
2882	0.6448
2891	0.6225
2900	0.6239
2909	0.6336
2918	0.632
2927	0.6141
2936	0.5902
2945	0.5699
2954	0.5623
2963	0.56
2972	0.591
2981	0.6451
2990	0.6798
2999	0.713
3008	0.7439
3017	0.7578
3026	0.7666
3035	0.7737
3044	0.782
3053	0.7858
3062	0.7876
3071	0.7867
3080	0.7839
3089	0.7804
3098	0.7759
3107	0.7706
3116	0.7637
3125	0.7549
3134	0.7451
3143	0.7344
3152	0.7235
3161	0.7099
3170	0.6963
3179	0.6814
3188	0.6657
3197	0.6488
3206	0.6335
3215	0.613
3224	0.5893
3233	0.566
3242	0.5431
3251	0.5244
3260	0.5046
3269	0.4836
3278	0.4612
3287	0.4419
3296	0.4238
3305	0.4064
3314	0.3897
3323	0.373
3332	0.3587
3341	0.345
3350	0.3337
3359	0.3223
3368	0.313
3377	0.304
3386	0.2968
3395	0.2906
3404	0.286
3413	0.2834
3422	0.282
3431	0.283
3440	0.286
3449	0.2906
3458	0.2966
3467	0.3048
3476	0.3146
3485	0.3307
3494	0.3474
3503	0.3658
3512	0.3854
3521	0.4093
3530	0.4333
3539	0.4529
3548	0.4782
3557	0.5121
3566	0.5806
3575	0.6435
3584	0.7114
3593	0.7603
3602	0.7846
3611	0.8021
3620	0.8173
3629	0.8281
3638	0.838
3647	0.8464
3656	0.853
3665	0.8578
3674	0.8597
3683	0.8613
3692	0.8631
3701	0.8649
3710	0.8663
3719	0.8673
3728	0.8683
3737	0.8687
3746	0.8691
3755	0.8694
3764	0.8699
3773	0.8702
3782	0.8706
3791	0.8707
3800	0.871
3809	0.8713
