Infrared Spectrum: BENZENE, 1-BROMO-4-CHLORO-
Formula: C6 H4 Br Cl
CAS: 106-39-8
State: SOLUTION (10% IN CCl4 FOR 3800-1300, 10% IN CS2 FOR 1300-620, AND 10% CCl4 FOR 620-260 CM^-^1) VERSUS SOLVENT
Class: COBLENTZ III
Instrument: PERKIN-ELMER 521 (GRATING)
Instrument parameters: FILTERS AT 3150, 2500, 2000, 1150, 700, 410; GRATING CHANGES AT 2000, 630 CM^-^1
Sampling: TRANSMISSION
Path length: 0.011, 0.011, AND 0.012 CM (CsBr CELL)
Resolution: 4
Origin: DOW CORNING CORP.
1/CM	TRANSMITTANCE
254.972	0.758
263.921	0.767
272.87	0.779
281.819	0.782
290.768	0.789
299.716	0.796
308.665	0.812
317.614	0.819
326.563	0.835
335.512	0.84
344.461	0.854
353.41	0.859
362.359	0.861
371.307	0.859
380.256	0.859
389.205	0.864
398.154	0.864
407.103	0.855
416.052	0.855
425.001	0.857
433.95	0.848
442.899	0.831
451.847	0.824
460.796	0.817
469.745	0.796
478.694	0.5392
487.643	0.6019
496.592	0.4562
505.541	0.4059
514.49	0.819
523.438	0.821
532.387	0.831
541.336	0.835
550.285	0.836
559.234	0.836
568.183	0.835
577.132	0.833
586.081	0.833
595.029	0.835
603.978	0.842
612.927	0.854
621.876	0.866
630.825	0.878
639.774	0.888
648.723	0.888
657.672	0.89
666.621	0.895
675.569	0.894
684.518	0.895
693.467	0.895
702.416	0.899
711.365	0.907
720.314	0.897
729.263	0.885
738.212	0.895
747.16	0.899
756.109	0.894
765.058	0.847
774.007	0.881
782.956	0.875
791.905	0.862
800.854	0.7881
809.803	0.3293
818.752	0.1611
827.7	0.7768
836.649	0.873
845.598	0.894
854.547	0.894
863.496	0.894
872.445	0.913
881.394	0.914
890.343	0.921
899.291	0.923
908.24	0.921
917.189	0.918
926.138	0.907
935.087	0.899
944.036	0.895
952.985	0.901
961.934	0.907
970.882	0.913
979.831	0.907
988.78	0.868
997.729	0.812
1006.68	0.3004
1015.63	0.7646
1024.58	0.888
1033.52	0.894
1042.47	0.897
1051.42	0.854
1060.37	0.6938
1069.32	0.1766
1078.27	0.692
1087.22	0.041
1096.17	0.2841
1105.12	0.7337
1114.06	0.88
1123.01	0.888
1131.96	0.914
1140.91	0.92
1149.86	0.918
1158.81	0.894
1167.76	0.869
1176.71	0.894
1185.66	0.909
1194.6	0.909
1203.55	0.902
1212.5	0.869
1221.45	0.866
1230.4	0.899
1239.35	0.904
1248.3	0.89
1257.25	0.85
1266.2	0.897
1275.14	0.904
1284.09	0.895
1293.04	0.883
1301.99	0.873
1310.94	0.866
1319.89	0.861
1328.84	0.855
1337.79	0.831
1346.74	0.838
1355.68	0.831
1364.63	0.814
1373.58	0.802
1382.53	0.73
1391.48	0.4646
1400.43	0.798
1409.38	0.741
1418.33	0.815
1427.28	0.833
1436.22	0.84
1445.17	0.819
1454.12	0.776
1463.07	0.5621
1472.02	0.043
1480.97	0.6768
1489.92	0.784
1498.87	0.822
1507.82	0.859
1516.76	0.878
1525.71	0.881
1534.66	0.876
1543.61	0.875
1552.56	0.868
1561.51	0.861
1570.46	0.85
1579.41	0.833
1588.36	0.824
1597.3	0.855
1606.25	0.847
1615.2	0.831
1624.15	0.779
1633.1	0.779
1642.05	0.845
1651	0.854
1659.95	0.855
1668.9	0.855
1677.84	0.862
1686.79	0.861
1695.74	0.864
1704.69	0.864
1713.64	0.861
1722.59	0.857
1731.54	0.859
1740.49	0.857
1749.44	0.848
1758.38	0.84
1767.33	0.843
1776.28	0.864
1785.23	0.868
1794.18	0.864
1803.13	0.866
1812.08	0.866
1821.03	0.864
1829.98	0.868
1838.92	0.868
1847.87	0.871
1856.82	0.866
1865.77	0.866
1874.72	0.836
1883.67	0.741
1892.62	0.8051
1901.57	0.866
1910.51	0.871
1919.46	0.869
1928.41	0.869
1937.36	0.869
1946.31	0.871
1955.26	0.873
1964.21	0.875
1973.16	0.878
1982.11	0.88
1991.05	0.883
2000	0.887
2008.95	0.8875
2017.9	0.888
2026.85	0.888
2035.8	0.89
2044.75	0.89
2053.7	0.892
2062.65	0.892
2071.59	0.892
2080.54	0.892
2089.49	0.892
2098.44	0.892
2107.39	0.892
2116.34	0.892
2125.29	0.89
2134.24	0.89
2143.19	0.89
2152.13	0.888
2161.08	0.887
2170.03	0.887
2178.98	0.887
2187.93	0.885
2196.88	0.883
2205.83	0.8842
2214.78	0.8871
2223.73	0.8845
2232.67	0.8833
2241.62	0.8817
2250.57	0.883
2259.52	0.88
2268.47	0.8759
2277.42	0.8641
2286.37	0.8883
2295.32	0.89
2304.27	0.89
2313.21	0.89
2322.16	0.8897
2331.11	0.8886
2340.06	0.8878
2349.01	0.887
2357.96	0.885
2366.91	0.883
2375.86	0.8808
2384.81	0.88
2393.75	0.878
2402.7	0.881
2411.65	0.885
2420.6	0.887
2429.55	0.8845
2438.5	0.881
2447.45	0.8825
2456.4	0.88
2465.35	0.8815
2474.29	0.8835
2483.24	0.88
2492.19	0.88
2501.14	0.8795
2510.09	0.876
2519.04	0.876
2527.99	0.875
2536.94	0.875
2545.89	0.8734
2554.83	0.8704
2563.78	0.8664
2572.73	0.8736
2581.68	0.875
2590.63	0.878
2599.58	0.878
2608.53	0.878
2617.48	0.8755
2626.43	0.8743
2635.37	0.873
2644.32	0.8703
2653.27	0.8727
2662.22	0.873
2671.17	0.878
2680.12	0.878
2689.07	0.878
2698.02	0.878
2706.97	0.8762
2715.91	0.878
2724.86	0.8762
2733.81	0.878
2742.76	0.878
2751.71	0.8713
2760.66	0.866
2769.61	0.878
2778.56	0.8781
2787.51	0.8756
2796.45	0.8731
2805.4	0.8701
2814.35	0.8661
2823.3	0.8536
2832.25	0.8728
2841.2	0.8737
2850.15	0.873
2859.1	0.873
2868.05	0.873
2876.99	0.875
2885.94	0.873
2894.89	0.871
2903.84	0.869
2912.79	0.868
2921.74	0.864
2930.69	0.8666
2939.64	0.871
2948.59	0.871
2957.53	0.871
2966.48	0.8741
2975.43	0.878
2984.38	0.8791
2993.33	0.878
3002.28	0.876
3011.23	0.875
3020.18	0.875
3029.13	0.873
3038.07	0.873
3047.02	0.8689
3055.97	0.8648
3064.92	0.861
3073.87	0.857
3082.82	0.8592
3091.77	0.862
3100.72	0.8666
3109.67	0.875
3118.61	0.881
3127.56	0.8823
3136.51	0.883
3145.46	0.883
3154.41	0.885
3163.36	0.8882
3172.31	0.89
3181.26	0.892
3190.2	0.894
3199.15	0.894
3208.1	0.894
3217.05	0.8947
3226	0.895
3234.95	0.895
3243.9	0.895
3252.85	0.895
3261.8	0.895
3270.74	0.895
3279.69	0.8942
3288.64	0.894
3297.59	0.892
3306.54	0.892
3315.49	0.8895
3324.44	0.8892
3333.39	0.89
3342.34	0.8873
3351.28	0.887
3360.23	0.8893
3369.18	0.887
3378.13	0.885
3387.08	0.885
3396.03	0.885
3404.98	0.885
3413.93	0.885
3422.88	0.8844
3431.82	0.883
3440.77	0.8836
3449.72	0.883
3458.67	0.885
3467.62	0.885
3476.57	0.885
3485.52	0.887
3494.47	0.8873
3503.42	0.8872
3512.36	0.887
3521.31	0.8867
3530.26	0.888
3539.21	0.888
3548.16	0.8876
3557.11	0.887
3566.06	0.89
3575.01	0.8853
3583.96	0.8881
3592.9	0.8918
3601.85	0.8895
3610.8	0.892
3619.75	0.892
3628.7	0.892
3637.65	0.89
3646.6	0.894
3655.55	0.892
3664.5	0.8939
3673.44	0.895
3682.39	0.895
3691.34	0.8931
3700.29	0.8901
3709.24	0.89
3718.19	0.8939
3727.14	0.894
3736.09	0.894
3745.04	0.904
3753.98	0.895
3762.93	0.895
3771.88	0.894
3780.83	0.893
3789.78	0.892
