Infrared Spectrum: p-Bromoaniline
Formula: C6 H6 Br N
CAS: 106-40-1
State: SOLUTION (10% CCl4 FOR 3800-1330, 10% CS2 FOR 1330-450 CM^-^1)
Class: COBLENTZ III
Instrument: DOW KBr FOREPRISM-GRATING
Instrument parameters: BLAZED AT 3.5, 12.0, 20.0 MICRON AND CHANGED AT 5.0, 7.5, 14.9 MICRON
Sampling: TRANSMISSION
Path length: 0.011 CM, 0.012 CM
Resolution: 2
Origin: DOW CHEMICAL COMPANY
1/CM	TRANSMITTANCE
3812.09	0.9299
3803.13	0.9296
3794.17	0.9281
3785.22	0.9279
3776.26	0.9295
3767.3	0.9295
3758.34	0.93
3749.39	0.9303
3740.43	0.9307
3731.47	0.9312
3722.51	0.9326
3713.56	0.9325
3704.6	0.9321
3695.64	0.9344
3686.68	0.9351
3677.72	0.9344
3668.77	0.9332
3659.81	0.9334
3650.85	0.9336
3641.89	0.9333
3632.94	0.9331
3623.98	0.9329
3615.02	0.9342
3606.06	0.9338
3597.11	0.9324
3588.15	0.9312
3579.19	0.9308
3570.23	0.9287
3561.28	0.9258
3552.32	0.9213
3543.36	0.9171
3534.4	0.911
3525.44	0.9003
3516.49	0.8813
3507.53	0.8388
3498.57	0.7316
3489.61	0.5686
3480.66	0.5701
3471.7	0.6103
3462.74	0.6806
3453.78	0.749
3444.83	0.8175
3435.87	0.8544
3426.91	0.8559
3417.95	0.7328
3408.99	0.505
3400.04	0.4207
3391.08	0.5233
3382.12	0.6347
3373.16	0.7455
3364.21	0.8217
3355.25	0.8639
3346.29	0.8928
3337.33	0.9118
3328.38	0.9244
3319.42	0.9309
3310.46	0.9344
3301.5	0.9384
3292.54	0.9376
3283.59	0.9374
3274.63	0.9381
3265.67	0.9369
3256.71	0.9348
3247.76	0.929
3238.8	0.9206
3229.84	0.9103
3220.88	0.8981
3211.93	0.8821
3202.97	0.8689
3194.01	0.8892
3185.05	0.9097
3176.1	0.9178
3167.14	0.9204
3158.18	0.9231
3149.22	0.9245
3140.26	0.9249
3131.31	0.9264
3122.35	0.9255
3113.39	0.9222
3104.43	0.9131
3095.48	0.8983
3086.52	0.8723
3077.56	0.8694
3068.6	0.8806
3059.65	0.8519
3050.69	0.8492
3041.73	0.8266
3032.77	0.6752
3023.81	0.8046
3014.86	0.8744
3005.9	0.89
2996.94	0.8546
2987.98	0.8597
2979.03	0.8934
2970.07	0.9034
2961.11	0.8978
2952.15	0.8983
2943.2	0.9078
2934.24	0.9032
2925.28	0.8942
2916.32	0.8846
2907.36	0.8816
2898.41	0.8877
2889.45	0.8877
2880.49	0.8939
2871.53	0.895
2862.58	0.8924
2853.62	0.8933
2844.66	0.8892
2835.7	0.9042
2826.75	0.9131
2817.79	0.9204
2808.83	0.9211
2799.87	0.9217
2790.92	0.9217
2781.96	0.923
2773	0.9241
2764.04	0.9227
2755.08	0.9219
2746.13	0.9222
2737.17	0.9234
2728.21	0.926
2719.25	0.9284
2710.3	0.9286
2701.34	0.9282
2692.38	0.9266
2683.42	0.9216
2674.47	0.9178
2665.51	0.918
2656.55	0.9193
2647.59	0.9209
2638.63	0.9225
2629.68	0.9245
2620.72	0.9256
2611.76	0.9261
2602.8	0.9178
2593.85	0.9064
2584.89	0.9072
2575.93	0.9136
2566.97	0.9166
2558.02	0.9169
2549.06	0.9128
2540.1	0.9201
2531.14	0.9253
2522.18	0.929
2513.23	0.9327
2504.27	0.9358
2495.31	0.9363
2486.35	0.9366
2477.4	0.9385
2468.44	0.9389
2459.48	0.9392
2450.52	0.938
2441.57	0.9363
2432.61	0.9346
2423.65	0.9337
2414.69	0.9331
2405.74	0.9337
2396.78	0.9347
2387.82	0.9363
2378.86	0.9403
2369.9	0.9456
2360.95	0.9452
2351.99	0.9478
2343.03	0.9449
2334.07	0.9418
2325.12	0.9461
2316.16	0.942
2307.2	0.9371
2298.24	0.9324
2289.29	0.9313
2280.33	0.9344
2271.37	0.937
2262.41	0.9379
2253.45	0.9388
2244.5	0.9397
2235.54	0.9411
2226.58	0.9415
2217.62	0.9416
2208.67	0.9426
2199.71	0.9426
2190.75	0.9393
2181.79	0.9367
2172.84	0.9383
2163.88	0.9404
2154.92	0.9437
2145.96	0.945
2137	0.941
2128.05	0.9406
2119.09	0.9405
2110.13	0.9405
2101.17	0.9378
2092.22	0.9278
2083.26	0.9281
2074.3	0.927
2065.34	0.9247
2056.39	0.9185
2047.43	0.9136
2038.47	0.9312
2029.51	0.9363
2020.56	0.9346
2011.6	0.921
2002.64	0.922
1993.68	0.936
1984.72	0.9287
1975.77	0.9244
1966.81	0.927
1957.85	0.9374
1948.89	0.9263
1939.94	0.9248
1930.98	0.9209
1922.02	0.9197
1913.06	0.9194
1904.11	0.9194
1895.15	0.9164
1886.19	0.9091
1877.23	0.9004
1868.27	0.8369
1859.32	0.7903
1850.36	0.8797
1841.4	0.8953
1832.44	0.9007
1823.49	0.9043
1814.53	0.9093
1805.57	0.9124
1796.61	0.9157
1787.66	0.9197
1778.7	0.9228
1769.74	0.9229
1760.78	0.9203
1751.82	0.9082
1742.87	0.8924
1733.91	0.8933
1724.95	0.8995
1715.99	0.9049
1707.04	0.9084
1698.08	0.9088
1689.12	0.9074
1680.16	0.9059
1671.21	0.9052
1662.25	0.8998
1653.29	0.8877
1644.33	0.8557
1635.38	0.7936
1626.42	0.3204
1617.46	0.0322
1608.5	0.1225
1599.54	0.5037
1590.59	0.1952
1581.63	0.685
1572.67	0.7496
1563.71	0.7922
1554.76	0.7662
1545.8	0.7474
1536.84	0.7089
1527.88	0.72
1518.93	0.7419
1509.97	0.6676
1501.01	0.4874
1492.05	0.0416
1483.09	0.1056
1474.14	0.69
1465.18	0.8224
1456.22	0.8648
1447.26	0.8892
1438.31	0.8939
1429.35	0.8886
1420.39	0.6511
1411.43	0.8162
1402.48	0.8874
1393.52	0.907
1384.56	0.9319
1375.6	0.9243
1366.64	0.9159
1357.69	0.9105
1348.73	0.9069
1339.77	0.8971
1330.81	0.8779
1321.86	0.8677
1312.9	0.8136
1303.94	0.7646
1294.98	0.6624
1286.03	0.3631
1277.07	0.0456
1268.11	0.1726
1259.15	0.5415
1250.2	0.7392
1241.24	0.8109
1232.28	0.8615
1223.32	0.8819
1214.36	0.886
1205.41	0.8866
1196.45	0.8822
1187.49	0.8786
1178.53	0.8633
1169.58	0.1161
1160.62	0.8049
1151.66	0.8575
1142.7	0.8684
1133.75	0.8672
1124.79	0.7949
1115.83	0.6332
1106.87	0.7961
1097.91	0.8488
1088.96	0.8608
1080	0.8577
1071.04	0.2524
1062.08	0.7079
1053.13	0.7888
1044.17	0.8674
1035.21	0.8802
1026.25	0.8827
1017.3	0.8731
1008.34	0.6554
999.38	0.582
990.423	0.8163
981.465	0.8775
972.507	0.8898
963.55	0.8899
954.592	0.8834
945.634	0.869
936.677	0.8561
927.719	0.8531
918.761	0.8475
909.803	0.8551
900.846	0.855
891.888	0.8579
882.93	0.8487
873.973	0.8253
865.015	0.791
856.057	0.7553
847.1	0.6865
838.142	0.6518
829.184	0.5413
820.227	0.1919
811.269	0.0253
802.311	0.111
793.354	0.6802
784.396	0.7618
775.438	0.7892
766.481	0.8044
757.523	0.7988
748.565	0.7933
739.608	0.7853
730.65	0.7751
721.692	0.7636
712.735	0.7477
703.777	0.7368
694.819	0.7319
685.862	0.6709
676.904	0.7049
667.946	0.721
658.989	0.6985
650.031	0.6656
641.073	0.6712
632.116	0.6944
623.158	0.7214
614.2	0.7471
605.243	0.4819
596.285	0.4204
587.327	0.5229
578.37	0.5392
569.412	0.5523
560.454	0.5819
551.496	0.6002
542.539	0.6154
533.581	0.6276
524.623	0.6379
515.666	0.6476
506.708	0.6405
497.75	0.071
488.793	0.1764
479.835	0.382
470.877	0.4709
461.92	0.5171
452.962	0.5546
