Infrared Spectrum: BENZENE, 1,4-DIMETHYL-
Formula: C8 H10
CAS: 106-42-3
State: VAPOR (5 mmHg, N2 ADDED, TOTAL PRESSURE 600 mmHg)
Boiling point: 139 C
Class: COBLENTZ
Instrument: PERKIN-ELMER 180
Sampling: TRANSMISSION
Path length: 18 CM
Resolution: 1 CM^-^1
Origin: DOW CHEMICAL COMPANY
1/CM	TRANSMITTANCE
202.901	0.013
213.054	0.007
223.207	0.004
233.36	0.002
243.514	0.001
253.667	0.001
263.82	0.001
273.973	0.001
284.126	0.001
294.279	0.001
304.433	0.001
314.586	0.004
324.739	0.034
334.892	0.091
345.045	0.1549
355.198	0.22
365.351	0.302
375.505	0.3819
385.658	0.454
395.811	0.537
405.964	0.613
416.117	0.667
426.27	0.715
436.424	0.752
446.577	0.757
456.73	0.699
466.883	0.5461
477.036	0.709
487.189	0.734
497.342	0.88
507.496	0.94
517.649	0.941
527.802	0.943
537.955	0.952
548.108	0.949
558.261	0.946
568.415	0.953
578.568	0.949
588.721	0.959
598.874	0.946
609.027	0.95
619.18	0.95
629.333	0.941
639.487	0.944
649.64	0.94
659.793	0.934
669.946	0.933
680.099	0.934
690.252	0.927
700.406	0.924
710.559	0.928
720.712	0.908
730.865	0.875
741.018	0.729
751.171	0.861
761.324	0.892
771.478	0.87
781.631	0.7341
791.784	0.611
801.937	0.606
812.09	0.7351
822.243	0.866
832.397	0.885
842.55	0.888
852.703	0.888
862.856	0.883
873.009	0.89
883.162	0.88
893.315	0.885
903.469	0.88
913.622	0.885
923.775	0.872
933.928	0.882
944.081	0.888
954.234	0.879
964.388	0.879
974.541	0.88
984.694	0.866
994.847	0.864
1005	0.917
1015.15	0.912
1025.31	0.899
1035.46	0.899
1045.61	0.882
1055.77	0.882
1065.92	0.906
1076.07	0.912
1086.23	0.909
1096.38	0.908
1106.53	0.882
1116.68	0.851
1126.84	0.853
1136.99	0.908
1147.14	0.908
1157.3	0.922
1167.45	0.925
1177.6	0.92
1187.76	0.915
1197.91	0.928
1208.06	0.92
1218.22	0.901
1228.37	0.892
1238.52	0.901
1248.68	0.901
1258.83	0.922
1268.98	0.915
1279.14	0.915
1289.29	0.922
1299.44	0.918
1309.59	0.914
1319.75	0.908
1329.9	0.901
1340.05	0.915
1350.21	0.888
1360.36	0.899
1370.51	0.893
1380.67	0.869
1390.82	0.838
1400.97	0.879
1411.13	0.875
1421.28	0.85
1431.43	0.834
1441.59	0.818
1451.74	0.818
1461.89	0.8
1472.05	0.777
1482.2	0.813
1492.35	0.809
1502.5	0.792
1512.66	0.6539
1522.81	0.533
1532.96	0.687
1543.12	0.845
1553.27	0.88
1563.42	0.889
1573.58	0.888
1583.73	0.893
1593.88	0.892
1604.04	0.892
1614.19	0.88
1624.34	0.8631
1634.5	0.872
1644.65	0.89
1654.8	0.892
1664.96	0.908
1675.11	0.901
1685.26	0.898
1695.41	0.899
1705.57	0.901
1715.72	0.896
1725.87	0.899
1736.03	0.888
1746.18	0.893
1756.33	0.888
1766.49	0.89
1776.64	0.88
1786.79	0.873
1796.95	0.882
1807.1	0.899
1817.25	0.899
1827.41	0.886
1837.56	0.885
1847.71	0.888
1857.87	0.89
1868.02	0.882
1878.17	0.864
1888.32	0.861
1898.48	0.875
1908.63	0.889
1918.78	0.893
1928.94	0.893
1939.09	0.889
1949.24	0.889
1959.4	0.885
1969.55	0.893
1979.7	0.889
1989.86	0.89
2000.01	0.934
2010.16	0.9442
2020.32	0.9281
2030.47	0.9397
2040.62	0.937
2050.77	0.943
2060.93	0.941
2071.08	0.933
2081.23	0.9369
2091.39	0.9376
2101.54	0.9334
2111.69	0.9447
2121.85	0.9367
2132	0.925
2142.15	0.9283
2152.31	0.9289
2162.46	0.9376
2172.61	0.9214
2182.77	0.93
2192.92	0.9254
2203.07	0.9165
2213.23	0.922
2223.38	0.9302
2233.53	0.9409
2243.68	0.9134
2253.84	0.9308
2263.99	0.9236
2274.14	0.914
2284.3	0.9216
2294.45	0.922
2304.6	0.914
2314.76	0.921
2324.91	0.915
2335.06	0.9222
2345.22	0.921
2355.37	0.9221
2365.52	0.917
2375.68	0.9179
2385.83	0.921
2395.98	0.918
2406.14	0.914
2416.29	0.912
2426.44	0.9166
2436.59	0.914
2446.75	0.918
2456.9	0.9182
2467.05	0.914
2477.21	0.9092
2487.36	0.9144
2497.51	0.915
2507.67	0.911
2517.82	0.9153
2527.97	0.9041
2538.13	0.9137
2548.28	0.9184
2558.43	0.902
2568.59	0.9104
2578.74	0.9016
2588.89	0.899
2599.05	0.901
2609.2	0.8938
2619.35	0.9005
2629.5	0.9052
2639.66	0.9031
2649.81	0.9004
2659.96	0.8957
2670.12	0.9031
2680.27	0.9053
2690.42	0.8977
2700.58	0.895
2710.73	0.8912
2720.88	0.8998
2731.04	0.8804
2741.19	0.8726
2751.34	0.8884
2761.5	0.899
2771.65	0.8959
2781.8	0.8925
2791.96	0.8879
2802.11	0.885
2812.26	0.882
2822.41	0.875
2832.57	0.8541
2842.72	0.7783
2852.87	0.7097
2863.03	0.5951
2873.18	0.5679
2883.33	0.6285
2893.49	0.6427
2903.64	0.5872
2913.79	0.493
2923.95	0.2487
2934.1	0.2967
2944.25	0.472
2954.41	0.6748
2964.56	0.727
2974.71	0.6928
2984.87	0.6405
2995.02	0.5692
3005.17	0.5537
3015.32	0.514
3025.48	0.5297
3035.63	0.63
3045.78	0.6239
3055.94	0.6704
3066.09	0.7709
3076.24	0.8272
3086.4	0.8384
3096.55	0.8446
3106.7	0.8602
3116.86	0.8815
3127.01	0.8826
3137.16	0.8812
3147.32	0.8882
3157.47	0.8956
3167.62	0.8992
3177.78	0.905
3187.93	0.908
3198.08	0.908
3208.23	0.902
3218.39	0.901
3228.54	0.899
3238.69	0.894
3248.85	0.9008
3259	0.899
3269.15	0.8989
3279.31	0.8971
3289.46	0.8951
3299.61	0.8926
3309.77	0.892
3319.92	0.89
3330.07	0.8917
3340.23	0.898
3350.38	0.8952
3360.53	0.893
3370.68	0.892
3380.84	0.893
3390.99	0.893
3401.14	0.895
3411.3	0.893
3421.45	0.8895
3431.6	0.8888
3441.76	0.8968
3451.91	0.888
3462.06	0.8926
3472.22	0.9004
3482.37	0.8979
3492.52	0.884
3502.68	0.8925
3512.83	0.8957
3522.98	0.8929
3533.14	0.8894
3543.29	0.892
3553.44	0.892
3563.59	0.892
3573.75	0.895
3583.9	0.896
3594.05	0.895
3604.21	0.892
3614.36	0.8909
3624.51	0.892
3634.67	0.893
3644.82	0.896
3654.97	0.895
3665.13	0.8931
3675.28	0.8955
3685.43	0.9009
3695.59	0.9007
3705.74	0.9017
3715.89	0.9084
3726.05	0.9022
3736.2	0.908
3746.35	0.911
3756.5	0.909
3766.66	0.9063
3776.81	0.9047
3786.96	0.9048
3797.12	0.9066
3807.27	0.909
3817.42	0.9074
3827.58	0.9042
3837.73	0.9025
3847.88	0.908
3858.04	0.906
3868.19	0.905
3878.34	0.9024
3888.5	0.902
3898.65	0.902
3908.8	0.899
3918.96	0.8993
3929.11	0.9024
3939.26	0.8959
3949.41	0.8972
3959.57	0.902
3969.72	0.8984
3979.87	0.8964
3990.03	0.902
