Infrared Spectrum: Aniline, p-chloro-
Formula: C6 H6 Cl N
CAS: 106-47-8
State: SOLUTION (11% CCl4 FOR 3800-1200, 11% CS2 FOR 1200-650, AND 11% CCl4 FOR 650-250)
Class: COBLENTZ II
Instrument: PERKIN-ELMER 521 (GRATING)
Instrument parameters: FILTERS AT 3150, 2500, 2000, 1150, 700, 410. GRATING CHANGES: 2000, 630
Path length: 0.012 CM, 0.011 CM, AND 0.010 CM
Resolution: 2
Origin: DOW CORNING CORP.
1/CM	TRANSMITTANCE
246	0.7508
255	0.7425
264	0.7284
273	0.7153
282	0.6883
291	0.6779
300	0.6722
309	0.6763
318	0.6915
327	0.708
336	0.7292
345	0.7505
354	0.7673
363	0.7668
372	0.7207
381	0.7338
390	0.7866
399	0.7778
408	0.7871
417	0.78
426	0.7582
435	0.7304
444	0.6981
453	0.6679
462	0.6413
471	0.5955
480	0.4946
489	0.3853
498	0.0885
507	0.5118
516	0.7323
525	0.7226
534	0.6999
543	0.6752
552	0.6548
561	0.6391
570	0.628
579	0.6169
588	0.606
597	0.5957
606	0.5703
615	0.4942
624	0.5444
633	0.4566
642	0.3113
651	0.4852
660	0.6205
669	0.5998
678	0.5955
687	0.5896
696	0.5822
705	0.6089
714	0.6216
723	0.6196
732	0.628
741	0.6471
750	0.6585
759	0.6578
768	0.6535
777	0.6351
786	0.5999
795	0.5516
804	0.4065
813	0.0405
822	0.0171
831	0.2324
840	0.4496
849	0.5718
858	0.6442
867	0.6918
876	0.716
885	0.7234
894	0.7265
903	0.7251
912	0.7227
921	0.7207
930	0.7318
939	0.7305
948	0.7447
957	0.7416
966	0.765
975	0.7683
984	0.758
993	0.706
1002	0.5452
1011	0.5764
1020	0.6434
1029	0.6675
1038	0.6641
1047	0.6515
1056	0.6183
1065	0.6054
1074	0.6129
1083	0.5605
1092	0.0164
1101	0.5717
1110	0.559
1119	0.3997
1128	0.5823
1137	0.7033
1146	0.7123
1155	0.6997
1164	0.5834
1173	0.3678
1182	0.7442
1191	0.7548
1200	0.7633
1209	0.7758
1218	0.7709
1227	0.7521
1236	0.7159
1245	0.66
1254	0.5784
1263	0.3291
1272	0.073
1281	0.0943
1290	0.3167
1299	0.5761
1308	0.7242
1317	0.7353
1326	0.7992
1335	0.8057
1344	0.8337
1353	0.8359
1362	0.8358
1371	0.8355
1380	0.8341
1389	0.8312
1398	0.8229
1407	0.7956
1416	0.7195
1425	0.5598
1434	0.7836
1443	0.7954
1452	0.784
1461	0.7576
1470	0.5451
1479	0.5056
1488	0.1171
1497	0.0287
1506	0.5068
1515	0.5862
1524	0.7098
1533	0.7355
1542	0.7597
1551	0.7694
1560	0.7443
1569	0.6362
1578	0.6569
1587	0.6364
1596	0.3699
1605	0.2898
1614	0.089
1623	0.0183
1632	0.2841
1641	0.5806
1650	0.721
1659	0.7803
1668	0.8083
1677	0.812
1686	0.8223
1695	0.8315
1704	0.8358
1713	0.8377
1722	0.8335
1731	0.8131
1740	0.8082
1749	0.8325
1758	0.845
1767	0.8539
1776	0.8588
1785	0.8582
1794	0.8556
1803	0.8515
1812	0.8476
1821	0.8466
1830	0.8465
1839	0.8342
1848	0.8019
1857	0.7564
1866	0.6943
1875	0.8228
1884	0.8418
1893	0.8478
1902	0.8512
1911	0.8556
1920	0.8594
1929	0.8624
1938	0.8666
1947	0.8704
1956	0.8705
1965	0.8694
1974	0.8681
1983	0.8665
1992	0.864
2001	0.8732
2010	0.8755
2019	0.875
2028	0.8748
2037	0.8745
2046	0.8744
2055	0.8742
2064	0.8728
2073	0.8698
2082	0.8672
2091	0.8679
2100	0.8706
2109	0.8742
2118	0.8774
2127	0.8792
2136	0.8799
2145	0.8798
2154	0.8793
2163	0.8786
2172	0.8779
2181	0.8797
2190	0.8821
2199	0.8824
2208	0.8818
2217	0.8808
2226	0.88
2235	0.8797
2244	0.8807
2253	0.8812
2262	0.8807
2271	0.8801
2280	0.8788
2289	0.8761
2298	0.8761
2307	0.8805
2316	0.8848
2325	0.8849
2334	0.8844
2343	0.8847
2352	0.8876
2361	0.8877
2370	0.8867
2379	0.884
2388	0.8808
2397	0.8773
2406	0.875
2415	0.8734
2424	0.87
2433	0.8703
2442	0.8776
2451	0.8849
2460	0.8895
2469	0.8878
2478	0.8802
2487	0.8764
2496	0.8784
2505	0.883
2514	0.8804
2523	0.8755
2532	0.8699
2541	0.8655
2550	0.8633
2559	0.8651
2568	0.8676
2577	0.8634
2586	0.853
2595	0.8493
2604	0.869
2613	0.871
2622	0.8704
2631	0.8669
2640	0.8615
2649	0.8557
2658	0.851
2667	0.8484
2676	0.8468
2685	0.8455
2694	0.8452
2703	0.8452
2712	0.8454
2721	0.8458
2730	0.8453
2739	0.8449
2748	0.8485
2757	0.8542
2766	0.8603
2775	0.8632
2784	0.8625
2793	0.8594
2802	0.861
2811	0.8646
2820	0.8603
2829	0.8534
2838	0.8463
2847	0.8388
2856	0.833
2865	0.838
2874	0.8304
2883	0.823
2892	0.8283
2901	0.8364
2910	0.8424
2919	0.8439
2928	0.8455
2937	0.8453
2946	0.8464
2955	0.8469
2964	0.847
2973	0.8442
2982	0.8307
2991	0.7843
3000	0.7402
3009	0.7954
3018	0.7733
3027	0.6582
3036	0.5636
3045	0.6759
3054	0.7603
3063	0.7858
3072	0.8058
3081	0.7983
3090	0.8021
3099	0.7961
3108	0.8641
3117	0.8694
3126	0.8731
3135	0.8731
3144	0.8725
3153	0.8713
3162	0.869
3171	0.8663
3180	0.8576
3189	0.8425
3198	0.8191
3207	0.7752
3216	0.7865
3225	0.837
3234	0.8458
3243	0.8626
3252	0.8709
3261	0.8723
3270	0.8721
3279	0.8693
3288	0.8625
3297	0.8554
3306	0.8468
3315	0.8366
3324	0.8236
3333	0.8091
3342	0.7911
3351	0.7649
3360	0.704
3369	0.6065
3378	0.5068
3387	0.4071
3396	0.3073
3405	0.3217
3414	0.5449
3423	0.7343
3432	0.7342
3441	0.7183
3450	0.6533
3459	0.5847
3468	0.5162
3477	0.4549
3486	0.4462
3495	0.4699
3504	0.6134
3513	0.8049
3522	0.8356
3531	0.8496
3540	0.8593
3549	0.8668
3558	0.8734
3567	0.8788
3576	0.8818
3585	0.8843
3594	0.8895
3603	0.8925
3612	0.8932
3621	0.8933
3630	0.892
3639	0.8907
3648	0.8898
3657	0.8868
3666	0.884
3675	0.884
3684	0.8852
3693	0.886
3702	0.8869
3711	0.8874
3720	0.8841
3729	0.8803
3738	0.8772
3747	0.8757
3756	0.8789
3765	0.8823
3774	0.8859
3783	0.8878
3792	0.889
3801	0.8895
