Infrared Spectrum: BIS-(2-METHOXYETHYL)ADIPATE
Formula: C12 H22 O6
CAS: 106-00-3
State: LIQUID
Boiling point: 197-200 C AT 2 mmHg
Class: COBLENTZ
Instrument: Not specified, most likely a prism, grating, or hybrid spectrometer.
Sampling: TRANSMISSION
Path length: CAPILLARY
Resolution: 4
Origin: WYANDOTTE CHEMICALS CORP., WYANDOTTE, MICHIGAN, USA
MICROMETERS	TRANSMITTANCE
2	0.979
2.0409	0.969
2.08179	0.972
2.12269	0.963
2.16359	0.948
2.20448	0.938
2.24538	0.931
2.28628	0.936
2.32718	0.938
2.36807	0.939
2.40897	0.943
2.44987	0.95
2.49076	0.953
2.53166	0.955
2.57256	0.955
2.61345	0.963
2.65435	0.96
2.69525	0.95
2.73615	0.924
2.77704	0.909
2.81794	0.881
2.85884	0.867
2.89973	0.861
2.94063	0.873
2.98153	0.867
3.02242	0.852
3.06332	0.835
3.10422	0.818
3.14512	0.821
3.18601	0.819
3.22691	0.816
3.26781	0.782
3.3087	0.559
3.3496	0.324
3.3905	0.305
3.43139	0.332
3.47229	0.404
3.51319	0.502
3.55408	0.641
3.59498	0.802
3.63588	0.823
3.67678	0.857
3.71767	0.873
3.75857	0.885
3.79947	0.897
3.84036	0.902
3.88126	0.903
3.92216	0.909
3.96305	0.921
4.00395	0.912
4.04485	0.915
4.08575	0.917
4.12664	0.915
4.16754	0.914
4.20844	0.912
4.24933	0.926
4.29023	0.938
4.33113	0.945
4.37202	0.939
4.41292	0.931
4.45382	0.931
4.49472	0.934
4.53561	0.936
4.57651	0.934
4.61741	0.934
4.6583	0.938
4.6992	0.933
4.7401	0.934
4.78099	0.934
4.82189	0.931
4.86279	0.927
4.90369	0.926
4.94458	0.922
4.98548	0.929
5.02638	0.931
5.06727	0.926
5.10817	0.919
5.14907	0.926
5.18996	0.934
5.23086	0.933
5.27176	0.936
5.31265	0.934
5.35355	0.936
5.39445	0.936
5.43535	0.929
5.47624	0.922
5.51714	0.9
5.55804	0.864
5.59893	0.807
5.63983	0.735
5.68073	0.523
5.72162	0.166
5.76252	0.077
5.80342	0.255
5.84432	0.545
5.88521	0.667
5.92611	0.766
5.96701	0.802
6.0079	0.826
6.0488	0.84
6.0897	0.849
6.13059	0.864
6.17149	0.876
6.21239	0.879
6.25329	0.897
6.29418	0.903
6.33508	0.902
6.37598	0.895
6.41687	0.874
6.45777	0.864
6.49867	0.859
6.53956	0.862
6.58046	0.859
6.62136	0.833
6.66225	0.804
6.70315	0.723
6.74405	0.607
6.78495	0.445
6.82584	0.361
6.86674	0.385
6.90764	0.461
6.94853	0.547
6.98943	0.538
7.03033	0.524
7.07122	0.502
7.11212	0.518
7.15302	0.542
7.19392	0.48
7.23481	0.408
7.27571	0.463
7.31661	0.55
7.3575	0.5
7.3984	0.487
7.4393	0.536
7.48019	0.583
7.52109	0.591
7.56199	0.519
7.60289	0.464
7.64378	0.442
7.68468	0.391
7.72558	0.332
7.76647	0.308
7.80737	0.313
7.84827	0.31
7.88916	0.281
7.93006	0.243
7.97096	0.212
8.01185	0.197
8.05275	0.197
8.09365	0.233
8.13455	0.245
8.17544	0.245
8.21634	0.228
8.25724	0.204
8.29813	0.157
8.33903	0.14
8.37993	0.14
8.42082	0.14
8.46172	0.132
8.50262	0.132
8.54352	0.132
8.58441	0.157
8.62531	0.188
8.66621	0.198
8.7071	0.181
8.748	0.154
8.7889	0.132
8.82979	0.099
8.87069	0.102
8.91159	0.154
8.95249	0.265
8.99338	0.308
9.03428	0.298
9.07518	0.277
9.11607	0.296
9.15697	0.301
9.19787	0.305
9.23876	0.313
9.27966	0.353
9.32056	0.382
9.36146	0.397
9.40235	0.404
9.44325	0.425
9.48415	0.423
9.52504	0.401
9.56594	0.339
9.60684	0.291
9.64773	0.274
9.68863	0.305
9.72953	0.384
9.77042	0.507
9.81132	0.6
9.85222	0.646
9.89312	0.68
9.93401	0.698
9.97491	0.71
10.0158	0.711
10.0567	0.699
10.0976	0.682
10.1385	0.675
10.1794	0.689
10.2203	0.725
10.2612	0.753
10.3021	0.754
10.343	0.746
10.3839	0.735
10.4248	0.723
10.4657	0.727
10.5066	0.734
10.5475	0.732
10.5884	0.732
10.6293	0.72
10.6702	0.703
10.7111	0.706
10.752	0.694
10.7928	0.677
10.8337	0.672
10.8746	0.684
10.9155	0.696
10.9564	0.715
10.9973	0.739
11.0382	0.765
11.0791	0.773
11.12	0.789
11.1609	0.787
11.2018	0.78
11.2427	0.77
11.2836	0.765
11.3245	0.747
11.3654	0.751
11.4063	0.744
11.4472	0.727
11.4881	0.698
11.529	0.653
11.5699	0.617
11.6108	0.602
11.6517	0.614
11.6926	0.632
11.7335	0.653
11.7744	0.662
11.8153	0.663
11.8562	0.663
11.8971	0.67
11.938	0.692
11.9789	0.71
12.0198	0.73
12.0607	0.754
12.1016	0.78
12.1424	0.794
12.1833	0.823
12.2242	0.83
12.2651	0.84
12.306	0.847
12.3469	0.861
12.3878	0.871
12.4287	0.871
12.4696	0.873
12.5105	0.876
12.5514	0.879
12.5923	0.883
12.6332	0.873
12.6741	0.873
12.715	0.873
12.7559	0.874
12.7968	0.873
12.8377	0.876
12.8786	0.869
12.9195	0.871
12.9604	0.869
13.0013	0.859
13.0422	0.852
13.0831	0.84
13.124	0.831
13.1649	0.826
13.2058	0.819
13.2467	0.821
13.2876	0.823
13.3285	0.826
13.3694	0.842
13.4103	0.849
13.4512	0.854
13.492	0.855
13.5329	0.859
13.5738	0.861
13.6147	0.866
13.6556	0.869
13.6965	0.874
13.7374	0.885
13.7783	0.883
13.8192	0.89
13.8601	0.888
13.901	0.885
13.9419	0.888
13.9828	0.886
14.0237	0.89
14.0646	0.888
14.1055	0.885
14.1464	0.886
14.1873	0.883
14.2282	0.888
14.2691	0.891
14.31	0.885
14.3509	0.89
14.3918	0.883
14.4327	0.883
14.4736	0.883
14.5145	0.883
14.5554	0.881
14.5963	0.883
14.6372	0.878
14.6781	0.881
14.719	0.871
14.7599	0.861
14.8008	0.859
14.8416	0.855
14.8825	0.842
14.9234	0.843
14.9643	0.838
15.0052	0.813
15.0461	0.756
15.087	0.71
15.1279	0.703
15.1688	0.73
15.2097	0.775
15.2506	0.792
15.2915	0.795
15.3324	0.799
15.3733	0.795
15.4142	0.794
15.4551	0.799
15.496	0.799
15.5369	0.792
15.5778	0.794
15.6187	0.792
15.6596	0.782
15.7005	0.782
15.7414	0.787
15.7823	0.782
15.8232	0.773
15.8641	0.78
15.905	0.77
15.9459	0.77
