Infrared Spectrum: PHENOL, 4-METHYL-
Formula: C7 H8 O
CAS: 106-44-5
State: VAPOR (1.0 MICROLITER AT 245 C)
Boiling point: 202 C
Class: COBLENTZ
Instrument: NICOLET FTIR
Instrument parameters: Hg-Cd-Te DETECTOR - TYPE A, DEAD BELOW 680 CM^-^1, LOW S/N 710 - 680
Sampling: TRANSMISSION
Path length: 0.2 CM x 30 CM GOLD-PLATED LIGHT PIPE. HELIUM CARRIER. INTERFEROGRAMS CO-ADDED FOR FULL TRANSIT TIME.
Resolution: 4 CM^-^1
Origin: MONSANTO (JOHN J. FREEMAN)
1/CM	TRANSMITTANCE
683.47	1.004
691.735	0.9931
700	1.004
708.266	0.966
716.531	0.985
724.796	0.8961
733.061	0.865
741.327	0.841
749.592	0.9629
757.857	0.979
766.122	0.979
774.388	0.953
782.653	0.889
790.918	0.802
799.183	0.6441
807.449	0.625
815.714	0.575
823.979	0.677
832.244	0.7269
840.509	0.788
848.775	0.895
857.04	0.97
865.305	0.997
873.57	1.001
881.836	1.003
890.101	1.005
898.366	1.002
906.631	1.001
914.897	0.995
923.162	1
931.427	1.002
939.692	1.002
947.957	1.001
956.223	0.998
964.488	0.995
972.753	0.993
981.018	0.991
989.284	0.988
997.549	0.989
1005.81	0.983
1014.08	0.982
1022.34	0.983
1030.61	0.984
1038.88	0.979
1047.14	0.973
1055.41	0.964
1063.67	0.958
1071.94	0.948
1080.2	0.923
1088.47	0.872
1096.73	0.844
1105	0.826
1113.26	0.866
1121.53	0.895
1129.79	0.932
1138.06	0.923
1146.32	0.882
1154.59	0.6713
1162.85	0.2661
1171.12	0.202
1179.38	0.187
1187.65	0.3909
1195.91	0.592
1204.18	0.751
1212.44	0.802
1220.71	0.821
1228.98	0.825
1237.24	0.7331
1245.51	0.4682
1253.77	0.369
1262.04	0.365
1270.3	0.5687
1278.57	0.916
1286.83	0.933
1295.1	0.935
1303.36	0.939
1311.63	0.916
1319.89	0.858
1328.16	0.767
1336.42	0.752
1344.69	0.804
1352.95	0.9259
1361.22	0.966
1369.48	0.97
1377.75	0.967
1386.01	0.961
1394.28	0.958
1402.55	0.958
1410.81	0.931
1419.08	0.876
1427.34	0.84
1435.61	0.842
1443.87	0.887
1452.14	0.935
1460.4	0.947
1468.67	0.947
1476.93	0.938
1485.2	0.918
1493.46	0.8391
1501.73	0.588
1509.99	0.314
1518.26	0.27
1526.52	0.384
1534.79	0.7221
1543.05	0.925
1551.32	0.97
1559.58	0.972
1567.85	0.966
1576.12	0.926
1584.38	0.863
1592.65	0.806
1600.91	0.768
1609.18	0.724
1617.44	0.747
1625.71	0.789
1633.97	0.879
1642.24	0.933
1650.5	0.969
1658.77	0.983
1667.03	1
1675.3	1.003
1683.56	1.003
1691.83	1.001
1700.09	0.992
1708.36	0.984
1716.62	0.978
1724.89	0.975
1733.15	0.973
1741.42	0.966
1749.69	0.966
1757.95	0.969
1766.22	0.984
1774.48	0.995
1782.75	1.002
1791.01	1.006
1799.28	1.002
1807.54	1.006
1815.81	1.005
1824.07	1.002
1832.34	0.997
1840.6	0.991
1848.87	0.979
1857.13	0.969
1865.4	0.969
1873.66	0.972
1881.93	0.983
1890.19	0.988
1898.46	0.993
1906.72	0.993
1914.99	0.997
1923.26	1.002
1931.52	1.005
1939.79	1.005
1948.05	1.006
1956.32	1.006
1964.58	1.003
1972.85	1.001
1981.11	0.996
1989.38	0.992
1997.64	0.992
2005.91	0.9955
2014.17	0.9999
2022.44	1.001
2030.7	1.002
2038.97	1.005
2047.23	1.0052
2055.5	1.0035
2063.76	1.0013
2072.03	1.0008
2080.29	0.9973
2088.56	0.9949
2096.82	0.994
2105.09	0.9961
2113.36	1.0005
2121.62	1.002
2129.89	1.002
2138.15	1.0029
2146.42	1.004
2154.68	1.005
2162.95	1.004
2171.21	1.0022
2179.48	1.003
2187.74	1.002
2196.01	1.0022
2204.27	1.003
2212.54	1.004
2220.8	1.0024
2229.07	1.0031
2237.33	1.005
2245.6	1.002
2253.86	1.0035
2262.13	1.002
2270.39	1.002
2278.66	1.001
2286.93	1.002
2295.19	1.002
2303.46	1.0017
2311.72	1
2319.99	0.9966
2328.25	0.9923
2336.52	0.9889
2344.78	0.9864
2353.05	0.986
2361.31	0.9911
2369.58	0.995
2377.84	0.9975
2386.11	1.003
2394.37	1.0036
2402.64	1.0011
2410.9	0.9943
2419.17	0.9844
2427.43	0.9797
2435.7	0.9807
2443.96	1
2452.23	1.0017
2460.5	1.0033
2468.76	1.005
2477.03	1.003
2485.29	1.002
2493.56	1.001
2501.82	0.996
2510.09	0.9998
2518.35	1.0058
2526.62	1.0099
2534.88	1.01
2543.15	1.009
2551.41	1.0103
2559.68	1.011
2567.94	1.01
2576.21	1.0083
2584.47	1.008
2592.74	1.007
2601	1.006
2609.27	1.006
2617.53	1.008
2625.8	1.01
2634.07	1.012
2642.33	1.0134
2650.6	1.013
2658.86	1.0114
2667.13	1.0122
2675.39	1.01
2683.66	1.0108
2691.92	1.011
2700.19	1.01
2708.45	1.011
2716.72	1.011
2724.98	1.0089
2733.25	1.0024
2741.51	0.996
2749.78	0.994
2758.04	1
2766.31	1.0054
2774.57	1.0069
2782.84	1.0074
2791.1	1.008
2799.37	1.0067
2807.64	1.0053
2815.9	1.002
2824.17	1.001
2832.43	0.9949
2840.7	0.9901
2848.96	0.9808
2857.23	0.9536
2865.49	0.9168
2873.76	0.8586
2882.02	0.8402
2890.29	0.8433
2898.55	0.871
2906.82	0.8809
2915.08	0.8574
2923.35	0.806
2931.61	0.7369
2939.88	0.729
2948.14	0.7639
2956.41	0.8493
2964.67	0.905
2972.94	0.9203
2981.2	0.924
2989.47	0.9138
2997.74	0.8827
3006	0.8077
3014.27	0.7468
3022.53	0.7137
3030.8	0.6833
3039.06	0.6838
3047.33	0.715
3055.59	0.7621
3063.86	0.8202
3072.12	0.8616
3080.39	0.897
3088.65	0.9274
3096.92	0.9544
3105.18	0.9691
3113.45	0.972
3121.71	0.9785
3129.98	0.9849
3138.24	0.9934
3146.51	1.0018
3154.77	1.0084
3163.04	1.0128
3171.31	1.0156
3179.57	1.018
3187.84	1.0188
3196.1	1.017
3204.37	1.0182
3212.63	1.0184
3220.9	1.018
3229.16	1.018
3237.43	1.018
3245.69	1.0195
3253.96	1.02
3262.22	1.02
3270.49	1.0219
3278.75	1.0186
3287.02	1.019
3295.28	1.0183
3303.55	1.02
3311.81	1.02
3320.08	1.02
3328.34	1.02
3336.61	1.0187
3344.88	1.0169
3353.14	1.0144
3361.41	1.01
3369.67	1.013
3377.94	1.013
3386.2	1.0111
3394.47	1.0128
3402.73	1.0136
3411	1.0138
3419.26	1.0153
3427.53	1.015
3435.79	1.016
3444.06	1.017
3452.32	1.0202
3460.59	1.0184
3468.85	1.02
3477.12	1.018
3485.38	1.018
3493.65	1.0185
3501.91	1.019
3510.18	1.018
3518.45	1.018
3526.71	1.018
3534.98	1.0218
3543.24	1.0211
3551.51	1.0198
3559.77	1.0232
3568.04	1.0183
3576.3	1.0202
3584.57	1.0195
3592.83	1.0181
3601.1	1.0221
3609.36	1.0257
3617.63	1.0055
3625.89	0.9674
3634.16	0.8777
3642.42	0.576
3650.69	0.5403
3658.95	0.5448
3667.22	0.6989
3675.48	0.8511
3683.75	0.9742
3692.02	0.9981
3700.28	1.0024
3708.55	1.0105
3716.81	1.0215
3725.08	1.024
3733.34	1.0106
3741.61	1.039
3749.87	1.0251
3758.14	1.0191
3766.4	1.014
3774.67	1.0136
3782.93	1.01
3791.2	1.01
3799.46	1.0139
3807.73	1.0188
3815.99	1.0175
3824.26	1.0155
3832.52	1.0192
3840.79	1.0178
3849.05	1.008
3857.32	1.0242
3865.58	1.0042
3873.85	1.0081
3882.12	1.0056
3890.38	1.0092
3898.65	1.0023
3906.91	1.001
3915.18	1.001
3923.44	1.001
3931.71	1.001
3939.97	1.001
3948.24	1.001
3956.5	1.001
3964.77	1.0012
