Infrared Spectrum: p-Toluenethiol
Formula: C7 H8 S
CAS: 106-45-6
State: SOLUTION (10% CCl4 FOR 3800-1330, 10% CS2 FOR 1330-450)
Class: COBLENTZ III
Instrument: DOW KBr FOREPRISM-GRATING
Instrument parameters: BLAZED AT 3.5, 12.0, 20.0 MICRON AND CHANGED AT 5.0, 7.5, 14.9 MICRON
Sampling: TRANSMISSION
Path length: 0.011 CM, 0.011 CM
Resolution: 2
Origin: DOW CHEMICAL COMPANY
1/CM	TRANSMITTANCE
3816	0.9127
3807	0.9125
3798	0.9114
3789	0.9127
3780	0.9124
3771	0.9119
3762	0.9119
3753	0.9121
3744	0.9123
3735	0.9138
3726	0.914
3717	0.9138
3708	0.9147
3699	0.914
3690	0.9118
3681	0.9097
3672	0.9068
3663	0.9027
3654	0.9079
3645	0.9132
3636	0.9161
3627	0.9184
3618	0.9186
3609	0.9184
3600	0.9179
3591	0.9156
3582	0.9083
3573	0.9177
3564	0.916
3555	0.9161
3546	0.9158
3537	0.9155
3528	0.9145
3519	0.9138
3510	0.9126
3501	0.9097
3492	0.9065
3483	0.904
3474	0.9052
3465	0.9063
3456	0.9076
3447	0.9091
3438	0.9106
3429	0.9116
3420	0.9122
3411	0.9128
3402	0.9133
3393	0.9138
3384	0.9142
3375	0.9143
3366	0.9143
3357	0.9143
3348	0.9142
3339	0.9143
3330	0.9146
3321	0.9149
3312	0.9165
3303	0.915
3294	0.9148
3285	0.9145
3276	0.9148
3267	0.9152
3258	0.9146
3249	0.9142
3240	0.9142
3231	0.9142
3222	0.9142
3213	0.9144
3204	0.9131
3195	0.9146
3186	0.9133
3177	0.9124
3168	0.9121
3159	0.9132
3150	0.9129
3141	0.9096
3132	0.9073
3123	0.9013
3114	0.8885
3105	0.8447
3096	0.8573
3087	0.8147
3078	0.6587
3069	0.7223
3060	0.7788
3051	0.729
3042	0.6417
3033	0.553
3024	0.5011
3015	0.683
3006	0.7375
2997	0.7255
2988	0.6408
2979	0.6314
2970	0.6661
2961	0.6766
2952	0.6553
2943	0.6487
2934	0.5908
2925	0.4586
2916	0.6407
2907	0.7188
2898	0.7615
2889	0.7598
2880	0.7182
2871	0.6641
2862	0.6834
2853	0.7934
2844	0.8418
2835	0.8668
2826	0.8827
2817	0.8914
2808	0.9
2799	0.9086
2790	0.9149
2781	0.9188
2772	0.922
2763	0.923
2754	0.923
2745	0.9188
2736	0.867
2727	0.886
2718	0.9142
2709	0.9216
2700	0.9198
2691	0.9206
2682	0.9252
2673	0.9271
2664	0.9274
2655	0.9288
2646	0.929
2637	0.9274
2628	0.9277
2619	0.9209
2610	0.9216
2601	0.9211
2592	0.9047
2583	0.8809
2574	0.8836
2565	0.89
2556	0.9002
2547	0.9091
2538	0.9212
2529	0.93
2520	0.9341
2511	0.9345
2502	0.9371
2493	0.9396
2484	0.941
2475	0.9431
2466	0.9438
2457	0.944
2448	0.9457
2439	0.9461
2430	0.9457
2421	0.9431
2412	0.9382
2403	0.9381
2394	0.94
2385	0.9458
2376	0.9548
2367	0.9581
2358	0.963
2349	0.9653
2340	0.9658
2331	0.9645
2322	0.9653
2313	0.9585
2304	0.9222
2295	0.9232
2286	0.9425
2277	0.947
2268	0.9479
2259	0.9489
2250	0.9472
2241	0.9487
2232	0.9496
2223	0.9512
2214	0.9512
2205	0.9466
2196	0.9459
2187	0.9456
2178	0.9465
2169	0.9475
2160	0.9497
2151	0.9495
2142	0.9493
2133	0.9491
2124	0.9488
2115	0.9486
2106	0.9482
2097	0.9463
2088	0.9467
2079	0.9454
2070	0.9442
2061	0.9439
2052	0.945
2043	0.9449
2034	0.9443
2025	0.9436
2016	0.9404
2007	0.9355
1998	0.9249
1989	0.9043
1980	0.9148
1971	0.9146
1962	0.9174
1953	0.9223
1944	0.9137
1935	0.917
1926	0.915
1917	0.912
1908	0.9069
1899	0.8895
1890	0.8188
1881	0.8068
1872	0.8751
1863	0.8963
1854	0.9052
1845	0.9092
1836	0.9099
1827	0.9106
1818	0.9133
1809	0.9146
1800	0.9128
1791	0.9048
1782	0.8719
1773	0.8747
1764	0.9015
1755	0.9035
1746	0.8951
1737	0.8908
1728	0.874
1719	0.8824
1710	0.9
1701	0.9025
1692	0.9
1683	0.9051
1674	0.9082
1665	0.9098
1656	0.8973
1647	0.8908
1638	0.8852
1629	0.8447
1620	0.8314
1611	0.8751
1602	0.8973
1593	0.8632
1584	0.845
1575	0.8193
1566	0.7936
1557	0.8101
1548	0.7673
1539	0.7413
1530	0.7762
1521	0.7829
1512	0.7634
1503	0.6259
1494	0.0421
1485	0.5484
1476	0.6526
1467	0.712
1458	0.6772
1449	0.6327
1440	0.6565
1431	0.7308
1422	0.7688
1413	0.7501
1404	0.6675
1395	0.7107
1386	0.8637
1377	0.7723
1368	0.864
1359	0.8649
1350	0.87
1341	0.8812
1332	0.888
1323	0.8877
1314	0.8796
1305	0.7701
1296	0.8162
1287	0.8535
1278	0.8647
1269	0.832
1260	0.8192
1251	0.854
1242	0.8674
1233	0.8553
1224	0.8474
1215	0.8748
1206	0.727
1197	0.8817
1188	0.88
1179	0.8157
1170	0.8397
1161	0.8837
1152	0.8954
1143	0.8851
1134	0.8728
1125	0.8643
1116	0.6898
1107	0.6538
1098	0.1589
1089	0.6868
1080	0.8439
1071	0.835
1062	0.8582
1053	0.8338
1044	0.7953
1035	0.7214
1026	0.7919
1017	0.3304
1008	0.8083
999	0.8391
990	0.8658
981	0.8675
972	0.8761
963	0.8724
954	0.8559
945	0.8549
936	0.8488
927	0.8153
918	0.8065
909	0.7709
900	0.8052
891	0.8607
882	0.8872
873	0.883
864	0.8767
855	0.8547
846	0.8277
837	0.8416
828	0.8009
819	0.7462
810	0.5097
801	0.1568
792	0.1124
783	0.6205
774	0.748
765	0.8304
756	0.8786
747	0.9094
738	0.8597
729	0.9197
720	0.9393
711	0.938
702	0.9302
693	0.9293
684	0.9381
675	0.9498
666	0.902
657	0.875
648	0.8617
639	0.8629
630	0.7788
621	0.8468
612	0.8742
603	0.8798
594	0.88
585	0.8769
576	0.8681
567	0.8604
558	0.8605
549	0.8574
540	0.8451
531	0.8409
522	0.8306
513	0.8104
504	0.7785
495	0.6977
486	0.1437
477	0.4694
468	0.6564
459	0.7001
