Infrared Spectrum: P-CHLOROPHENOL
Formula: C6 H5 Cl O
CAS: 106-48-9
State: SOLUTION (ETHYL ETHER)
Class: COBLENTZ
Instrument: Not specified, most likely a prism, grating, or hybrid spectrometer.
Sampling: TRANSMISSION
Path length: 0.0200 CM
Resolution: 4
Origin: BATTELLE MEMORIAL INSTITUTE (R. JAKOBSEN)
1/CM	TRANSMITTANCE
300	0.329
300.932	0.346
301.863	0.361
302.795	0.342
303.726	0.326
304.658	0.416
305.589	0.473
306.521	0.513
307.452	0.542
308.384	0.593
309.316	0.607
310.247	0.625
311.179	0.637
312.11	0.629
313.042	0.623
313.973	0.609
314.905	0.607
315.837	0.596
316.768	0.601
317.7	0.593
318.631	0.591
319.563	0.587
320.494	0.585
321.426	0.585
322.357	0.587
323.289	0.551
324.221	0.526
325.152	0.522
326.084	0.5
327.015	0.44
327.947	0.443
328.878	0.455
329.81	0.546
330.741	0.653
331.673	0.665
332.605	0.674
333.536	0.718
334.468	0.74
335.399	0.752
336.331	0.763
337.262	0.779
338.194	0.784
339.126	0.788
340.057	0.791
340.989	0.796
341.92	0.8
342.852	0.82
343.783	0.821
344.715	0.824
345.646	0.824
346.578	0.828
347.51	0.838
348.441	0.821
349.373	0.825
350.304	0.825
351.236	0.825
352.167	0.816
353.099	0.813
354.03	0.818
354.962	0.821
355.894	0.817
356.825	0.814
357.757	0.824
358.688	0.829
359.62	0.824
360.551	0.929
361.483	0.932
362.415	0.928
363.346	0.933
364.278	0.919
365.209	0.908
366.141	0.896
367.072	0.882
368.004	0.867
368.935	0.855
369.867	0.85
370.799	0.846
371.73	0.839
372.662	0.824
373.593	0.767
374.525	0.71
375.456	0.678
376.388	0.653
377.319	0.628
378.251	0.603
379.183	0.567
380.114	0.544
381.046	0.526
381.977	0.513
382.909	0.51
383.84	0.589
384.772	0.65
385.704	0.702
386.635	0.748
387.567	0.784
388.498	0.8
389.43	0.81
390.361	0.824
391.293	0.835
392.224	0.854
393.156	0.855
394.088	0.865
395.019	0.858
395.951	0.871
396.882	0.876
397.814	0.89
398.745	0.884
399.677	0.888
400.608	0.894
401.54	0.895
402.472	0.903
403.403	0.911
404.335	0.912
405.266	0.915
406.198	0.912
407.129	0.911
408.061	0.911
408.992	0.907
409.924	0.907
410.856	0.911
411.787	0.908
412.719	0.907
413.65	0.894
414.582	0.894
415.513	0.896
416.445	0.892
417.377	0.89
418.308	0.879
419.24	0.874
420.171	0.874
421.103	0.874
422.034	0.875
422.966	0.871
423.897	0.862
424.829	0.858
425.761	0.849
426.692	0.841
427.624	0.829
428.555	0.82
429.487	0.808
430.418	0.801
431.35	0.789
432.281	0.776
433.213	0.743
434.145	0.722
435.076	0.698
436.008	0.683
436.939	0.662
437.871	0.642
438.802	0.63
439.734	0.63
440.666	0.632
441.597	0.63
442.529	0.64
443.46	0.662
444.392	0.67
445.323	0.683
446.255	0.702
447.186	0.722
448.118	0.735
449.05	0.751
449.981	0.759
450.913	0.768
451.844	0.779
452.776	0.791
453.707	0.804
454.639	0.813
455.57	0.818
456.502	0.82
457.434	0.825
458.365	0.834
459.297	0.843
460.228	0.849
461.16	0.85
462.091	0.849
463.023	0.85
463.955	0.855
464.886	0.855
465.818	0.855
466.749	0.863
467.681	0.865
468.612	0.865
469.544	0.863
470.475	0.859
471.407	0.853
472.339	0.85
473.27	0.853
474.202	0.858
475.133	0.861
476.065	0.862
476.996	0.861
477.928	0.855
478.859	0.85
479.791	0.849
480.723	0.843
481.654	0.838
482.586	0.829
483.517	0.83
484.449	0.829
485.38	0.813
486.312	0.801
487.244	0.788
488.175	0.776
489.107	0.767
490.038	0.761
490.97	0.757
491.901	0.736
492.833	0.72
493.764	0.685
494.696	0.658
495.628	0.629
496.559	0.588
497.491	0.539
498.422	0.473
499.354	0.432
500.285	0.394
501.217	0.354
502.148	0.293
503.08	0.191
504.012	0.134
504.943	0.104
505.875	0.087
506.806	0.083
507.738	0.097
508.669	0.126
509.601	0.156
510.533	0.178
511.464	0.224
512.396	0.283
513.327	0.365
514.259	0.427
515.19	0.473
516.122	0.505
517.053	0.552
517.985	0.578
518.917	0.603
519.848	0.616
520.78	0.623
521.711	0.64
522.643	0.657
523.574	0.673
524.506	0.682
525.437	0.693
526.369	0.708
527.301	0.708
528.232	0.714
529.164	0.718
530.095	0.718
531.027	0.718
531.958	0.72
532.89	0.722
533.822	0.727
534.753	0.734
535.685	0.734
536.616	0.735
537.548	0.734
538.479	0.738
539.411	0.736
540.342	0.736
541.274	0.74
542.206	0.738
543.137	0.735
544.069	0.736
545	0.739
545.932	0.738
546.863	0.735
547.795	0.732
548.726	0.73
549.658	0.73
550.59	0.726
551.521	0.72
552.453	0.716
553.384	0.722
554.316	0.718
555.247	0.718
556.179	0.715
557.111	0.716
558.042	0.716
558.974	0.72
559.905	0.723
560.837	0.724
561.768	0.722
562.7	0.72
563.631	0.718
564.563	0.712
565.495	0.712
566.426	0.712
567.358	0.708
568.289	0.703
569.221	0.703
570.152	0.703
571.084	0.703
572.015	0.702
572.947	0.695
573.879	0.691
574.81	0.69
575.742	0.691
576.673	0.701
577.605	0.699
578.536	0.693
579.468	0.693
580.399	0.698
581.331	0.691
582.263	0.689
583.194	0.677
584.126	0.675
585.057	0.674
585.989	0.669
586.92	0.665
587.852	0.661
588.784	0.658
589.715	0.657
590.647	0.656
591.578	0.657
592.51	0.658
593.441	0.654
594.373	0.65
595.304	0.646
596.236	0.645
597.168	0.645
598.099	0.642
599.031	0.642
599.962	0.642
600.894	0.641
601.825	0.64
602.757	0.637
603.688	0.633
604.62	0.628
605.552	0.626
606.483	0.625
607.415	0.619
608.346	0.611
609.278	0.605
610.209	0.6
611.141	0.591
612.073	0.589
613.004	0.591
613.936	0.588
614.867	0.579
615.799	0.568
616.73	0.552
617.662	0.544
618.593	0.537
619.525	0.527
620.457	0.522
621.388	0.513
622.32	0.497
623.251	0.472
624.183	0.456
625.114	0.443
626.046	0.424
626.977	0.4
627.909	0.378
628.841	0.355
629.772	0.33
630.704	0.306
631.635	0.281
632.567	0.234
633.498	0.185
634.43	0.15
635.362	0.124
636.293	0.087
637.225	0.062
638.156	0.043
639.088	0.039
640.019	0.039
640.951	0.039
641.882	0.038
642.814	0.05
643.746	0.07
644.677	0.088
645.609	0.13
646.54	0.169
647.472	0.23
648.403	0.271
649.335	0.297
650.266	0.326
651.198	0.351
652.13	0.374
653.061	0.398
653.993	0.415
654.924	0.432
655.856	0.449
656.787	0.461
657.719	0.478
658.651	0.488
