Infrared Spectrum: BENZENE, 1,4-DIBROMO-
Formula: C6 H4 Br2
CAS: 106-37-6
State: SOLUTION (5% IN CCl4 FOR 3800-1300, 5% IN CS2 FOR 1300-630, AND 5% IN CCl4 FOR 630-240 CM^-^1) VERSUS SOLVENT
Class: COBLENTZ III
Instrument: PERKIN-ELMER 521 (GRATING)
Instrument parameters: FILTERS AT 3150, 2500, 2000, 1150, 700, 410; GRATING CHANGES AT 2000, 630 CM^-^1
Sampling: TRANSMISSION
Path length: 0.010, 0.010, AND 0.020 CM (CsBr CELL)
Resolution: 4
Origin: DOW CORNING CORP.
1/CM	TRANSMITTANCE
240	0.88
249.231	0.876
258.462	0.875
267.692	0.875
276.923	0.873
286.154	0.875
295.385	0.876
304.616	0.876
313.846	0.873
323.077	0.868
332.308	0.862
341.539	0.855
350.77	0.852
360	0.844
369.231	0.841
378.462	0.836
387.693	0.84
396.924	0.821
406.154	0.812
415.385	0.803
424.616	0.7
433.847	0.772
443.078	0.801
452.308	0.797
461.539	0.77
470.77	0.4083
480.001	0.781
489.232	0.801
498.462	0.803
507.693	0.806
516.924	0.817
526.155	0.823
535.386	0.831
544.616	0.83
553.847	0.832
563.078	0.836
572.309	0.835
581.54	0.832
590.77	0.835
600.001	0.838
609.232	0.839
618.463	0.841
627.694	0.848
636.924	0.855
646.155	0.862
655.386	0.867
664.617	0.873
673.848	0.878
683.078	0.882
692.309	0.885
701.54	0.887
710.771	0.886
720.002	0.882
729.232	0.88
738.463	0.882
747.694	0.899
756.925	0.918
766.156	0.922
775.386	0.926
784.617	0.923
793.848	0.816
803.079	0.5681
812.31	0.4586
821.54	0.8519
830.771	0.866
840.002	0.868
849.233	0.864
858.463	0.864
867.694	0.866
876.925	0.868
886.156	0.871
895.387	0.871
904.617	0.868
913.848	0.868
923.079	0.862
932.31	0.857
941.541	0.857
950.771	0.855
960.002	0.855
969.233	0.858
978.464	0.855
987.695	0.823
996.925	0.7521
1006.16	0.1051
1015.39	0.825
1024.62	0.838
1033.85	0.836
1043.08	0.825
1052.31	0.812
1061.54	0.63
1070.77	0.468
1080	0.5591
1089.23	0.784
1098.46	0.766
1107.7	0.801
1116.93	0.801
1126.16	0.797
1135.39	0.798
1144.62	0.832
1153.85	0.836
1163.08	0.838
1172.31	0.85
1181.54	0.86
1190.77	0.863
1200	0.859
1209.23	0.855
1218.46	0.859
1227.7	0.866
1236.93	0.859
1246.16	0.849
1255.39	0.84
1264.62	0.864
1273.85	0.868
1283.08	0.864
1292.31	0.863
1301.54	0.863
1310.77	0.862
1320	0.862
1329.23	0.86
1338.47	0.86
1347.7	0.859
1356.93	0.859
1366.16	0.859
1375.39	0.848
1384.62	0.7809
1393.85	0.875
1403.08	0.854
1412.31	0.897
1421.54	0.905
1430.77	0.901
1440	0.895
1449.23	0.871
1458.47	0.7671
1467.7	0.4866
1476.93	0.86
1486.16	0.869
1495.39	0.795
1504.62	0.895
1513.85	0.904
1523.08	0.906
1532.31	0.908
1541.54	0.908
1550.77	0.906
1560	0.906
1569.23	0.905
1578.47	0.904
1587.7	0.899
1596.93	0.895
1606.16	0.891
1615.39	0.877
1624.62	0.864
1633.85	0.891
1643.08	0.895
1652.31	0.895
1661.54	0.895
1670.77	0.895
1680	0.895
1689.24	0.895
1698.47	0.895
1707.7	0.895
1716.93	0.895
1726.16	0.895
1735.39	0.894
1744.62	0.894
1753.85	0.891
1763.08	0.89
1772.31	0.892
1781.54	0.894
1790.77	0.896
1800	0.895
1809.24	0.895
1818.47	0.895
1827.7	0.895
1836.93	0.895
1846.16	0.894
1855.39	0.894
1864.62	0.89
1873.85	0.878
1883.08	0.852
1892.31	0.883
1901.54	0.894
1910.77	0.895
1920.01	0.895
1929.24	0.895
1938.47	0.895
1947.7	0.895
1956.93	0.895
1966.16	0.894
1975.39	0.894
1984.62	0.895
1993.85	0.894
2003.08	0.8955
2012.31	0.897
2021.54	0.899
2030.77	0.899
2040.01	0.899
2049.24	0.897
2058.47	0.897
2067.7	0.8958
2076.93	0.895
2086.16	0.895
2095.39	0.894
2104.62	0.894
2113.85	0.894
2123.08	0.8947
2132.31	0.8948
2141.54	0.894
2150.78	0.894
2160.01	0.894
2169.24	0.894
2178.47	0.892
2187.7	0.892
2196.93	0.892
2206.16	0.891
2215.39	0.89
2224.62	0.89
2233.85	0.889
2243.08	0.889
2252.31	0.887
2261.54	0.887
2270.78	0.887
2280.01	0.8902
2289.24	0.8934
2298.47	0.895
2307.7	0.895
2316.93	0.8947
2326.16	0.894
2335.39	0.8933
2344.62	0.8923
2353.85	0.891
2363.08	0.89
2372.31	0.889
2381.55	0.889
2390.78	0.887
2400.01	0.887
2409.24	0.886
2418.47	0.886
2427.7	0.886
2436.93	0.886
2446.16	0.886
2455.39	0.886
2464.62	0.885
2473.85	0.886
2483.08	0.885
2492.31	0.8845
2501.55	0.885
2510.78	0.8857
2520.01	0.885
2529.24	0.883
2538.47	0.883
2547.7	0.883
2556.93	0.883
2566.16	0.883
2575.39	0.883
2584.62	0.8839
2593.85	0.883
2603.08	0.883
2612.32	0.882
2621.55	0.882
2630.78	0.882
2640.01	0.883
2649.24	0.885
2658.47	0.885
2667.7	0.885
2676.93	0.885
2686.16	0.885
2695.39	0.885
2704.62	0.885
2713.85	0.885
2723.08	0.885
2732.32	0.885
2741.55	0.885
2750.78	0.885
2760.01	0.886
2769.24	0.885
2778.47	0.8841
2787.7	0.883
2796.93	0.882
2806.16	0.88
2815.39	0.881
2824.62	0.8831
2833.85	0.885
2843.09	0.885
2852.32	0.883
2861.55	0.885
2870.78	0.8837
2880.01	0.885
2889.24	0.885
2898.47	0.885
2907.7	0.885
2916.93	0.883
2926.16	0.885
2935.39	0.885
2944.62	0.887
2953.85	0.887
2963.09	0.886
2972.32	0.886
2981.55	0.887
2990.78	0.887
3000.01	0.885
3009.24	0.885
3018.47	0.885
3027.7	0.885
3036.93	0.885
3046.16	0.885
3055.39	0.883
3064.62	0.882
3073.86	0.882
3083.09	0.882
3092.32	0.883
3101.55	0.8845
3110.78	0.8863
3120.01	0.8898
3129.24	0.891
3138.47	0.892
3147.7	0.892
3156.93	0.892
3166.16	0.892
3175.39	0.892
3184.62	0.892
3193.86	0.892
3203.09	0.892
3212.32	0.892
3221.55	0.892
3230.78	0.892
3240.01	0.892
3249.24	0.894
3258.47	0.8944
3267.7	0.894
3276.93	0.894
3286.16	0.894
3295.39	0.894
3304.63	0.894
3313.86	0.894
3323.09	0.894
3332.32	0.894
3341.55	0.894
3350.78	0.894
3360.01	0.894
3369.24	0.894
3378.47	0.894
3387.7	0.894
3396.93	0.894
3406.16	0.894
3415.39	0.894
3424.63	0.894
3433.86	0.894
3443.09	0.894
3452.32	0.894
3461.55	0.894
3470.78	0.895
3480.01	0.895
3489.24	0.895
3498.47	0.8952
3507.7	0.896
3516.93	0.897
3526.16	0.8998
3535.4	0.901
3544.63	0.9
3553.86	0.901
3563.09	0.901
3572.32	0.9021
3581.55	0.904
3590.78	0.903
3600.01	0.901
3609.24	0.904
3618.47	0.905
3627.7	0.906
3636.93	0.9039
3646.16	0.9046
3655.4	0.904
3664.63	0.9057
3673.86	0.9082
3683.09	0.909
3692.32	0.9075
3701.55	0.9052
3710.78	0.9053
3720.01	0.906
3729.24	0.911
3738.47	0.9127
3747.7	0.917
3756.93	0.9085
3766.17	0.903
3775.4	0.9001
3784.63	0.9
3793.86	0.9
