Infrared Spectrum: BENZENE, 1-BROMO-4-METHYL-
Formula: C7 H7 Br
CAS: 106-38-7
State: SOLUTION (10% CCl4 FOR 3800-1330, 10% CS2 FOR 1330-450 CM^-^1)
Class: COBLENTZ III
Instrument: Not specified, most likely a prism, grating, or hybrid spectrometer.
Sampling: TRANSMISSION
Path length: 0.011 CM, 0.010 CM
Resolution: 4
Origin: DOW CHEMICAL COMPANY
1/CM	TRANSMITTANCE
453.875	0.864
463.1	0.848
472.325	0.618
481.55	0.577
490.775	0.98
500.001	1.008
509.226	1.02
518.451	1.025
527.676	1.03
536.901	1.028
546.126	1.027
555.351	1.027
564.576	1.02
573.802	0.992
583.027	0.991
592.252	0.96
601.477	0.831
610.702	1.035
619.927	1.037
629.152	1.017
638.377	1.007
647.602	0.985
656.828	0.984
666.053	1.012
675.278	1.012
684.503	1.011
693.728	1.01
702.953	1.004
712.178	1.002
721.403	1.002
730.629	1.004
739.854	1.004
749.079	0.997
758.304	0.988
767.529	0.945
776.754	0.921
785.979	0.871
795.204	0.518
804.429	0.031
813.655	0.794
822.88	0.898
832.105	0.934
841.33	0.905
850.555	0.838
859.78	0.834
869.005	0.872
878.23	0.917
887.456	0.95
896.681	0.972
905.906	0.978
915.131	0.972
924.356	0.957
933.581	0.934
942.806	0.95
952.031	0.92
961.256	0.955
970.482	0.958
979.707	0.962
988.932	0.95
998.157	0.937
1007.38	0.7538
1016.61	0.7182
1025.83	0.885
1035.06	0.838
1044.28	0.855
1053.51	0.872
1062.73	0.801
1071.96	0.094
1081.18	0.834
1090.41	0.817
1099.63	0.892
1108.86	0.7719
1118.08	0.937
1127.31	0.968
1136.53	0.962
1145.76	0.965
1154.98	0.968
1164.21	0.957
1173.43	0.932
1182.66	0.93
1191.88	0.947
1201.11	0.944
1210.33	0.8209
1219.56	0.955
1228.78	0.911
1238.01	0.952
1247.24	0.962
1256.46	0.96
1265.69	0.945
1274.91	0.942
1284.14	0.96
1293.36	0.951
1302.59	0.92
1311.81	0.962
1321.04	0.957
1330.26	0.952
1339.49	0.95
1348.71	0.955
1357.94	0.957
1367.16	0.947
1376.39	0.875
1385.61	0.868
1394.84	0.797
1404.06	0.835
1413.29	0.8
1422.51	0.855
1431.74	0.824
1440.96	0.777
1450.19	0.741
1459.41	0.761
1468.64	0.728
1477.86	0.494
1487.09	0.0749
1496.31	0.37
1505.54	0.717
1514.76	0.692
1523.99	0.654
1533.21	0.582
1542.44	0.49
1551.66	0.49
1560.89	0.564
1570.11	0.64
1579.34	0.658
1588.56	0.678
1597.79	0.811
1607.01	0.891
1616.24	0.894
1625.46	0.882
1634.69	0.978
1643.92	0.99
1653.14	0.978
1662.37	0.967
1671.59	0.97
1680.82	0.981
1690.04	0.972
1699.27	0.967
1708.49	0.957
1717.72	0.974
1726.94	0.967
1736.17	0.962
1745.39	0.977
1754.62	0.977
1763.84	0.97
1773.07	0.93
1782.29	0.96
1791.52	0.977
1800.74	0.972
1809.97	0.972
1819.19	0.974
1828.42	0.974
1837.64	0.967
1846.87	0.967
1856.09	0.964
1865.32	0.962
1874.54	0.945
1883.77	0.84
1892.99	0.931
1902.22	0.968
1911.44	0.978
1920.67	0.978
1929.89	0.977
1939.12	0.978
1948.34	0.98
1957.57	1
1966.79	0.977
1976.02	0.975
1985.24	0.972
1994.47	0.96
2003.69	0.97
2012.92	0.967
2022.14	0.97
2031.37	0.978
2040.6	0.9845
2049.82	0.9783
2059.05	0.978
2068.27	0.985
2077.5	0.98
2086.72	0.98
2095.95	0.977
2105.17	0.984
2114.4	0.982
2123.62	0.982
2132.85	0.9793
2142.07	0.9799
2151.3	0.981
2160.52	0.98
2169.75	0.978
2178.97	0.978
2188.2	0.978
2197.42	0.9824
2206.65	0.982
2215.87	0.981
2225.1	0.978
2234.32	0.977
2243.55	0.974
2252.77	0.9737
2262	0.9661
2271.22	0.9601
2280.45	0.9542
2289.67	0.9324
2298.9	0.9472
2308.12	0.957
2317.35	0.9502
2326.57	0.9641
2335.8	0.9606
2345.02	0.964
2354.25	0.9696
2363.47	0.9614
2372.7	0.954
2381.92	0.977
2391.15	0.9751
2400.37	0.9739
2409.6	0.971
2418.82	0.977
2428.05	0.9809
2437.28	0.981
2446.5	0.981
2455.73	0.978
2464.95	0.978
2474.18	0.981
2483.4	0.981
2492.63	0.981
2501.85	0.981
2511.08	0.979
2520.3	0.978
2529.53	0.977
2538.75	0.977
2547.98	0.9744
2557.2	0.9715
2566.43	0.97
2575.65	0.975
2584.88	0.968
2594.1	0.97
2603.33	0.9732
2612.55	0.9804
2621.78	0.9806
2631	0.98
2640.23	0.9773
2649.45	0.977
2658.68	0.974
2667.9	0.977
2677.13	0.978
2686.35	0.978
2695.58	0.975
2704.8	0.977
2714.03	0.9749
2723.25	0.9668
2732.48	0.9501
2741.7	0.9723
2750.93	0.977
2760.15	0.972
2769.38	0.971
2778.6	0.971
2787.83	0.972
2797.05	0.97
2806.28	0.9652
2815.51	0.9601
2824.73	0.9542
2833.96	0.9379
2843.18	0.9224
2852.41	0.8847
2861.63	0.8166
2870.86	0.8139
2880.08	0.8558
2889.31	0.8707
2898.53	0.8687
2907.76	0.8471
2916.98	0.7611
2926.21	0.6489
2935.43	0.7853
2944.66	0.788
2953.88	0.7935
2963.11	0.8015
2972.33	0.8029
2981.56	0.8099
2990.78	0.8326
3000.01	0.8544
3009.23	0.853
3018.46	0.8222
3027.68	0.708
3036.91	0.7673
3046.13	0.8141
3055.36	0.891
3064.58	0.8976
3073.81	0.8961
3083.03	0.8715
3092.26	0.9319
3101.48	0.9594
3110.71	0.9752
3119.93	0.9801
3129.16	0.985
3138.38	0.984
3147.61	0.987
3156.83	0.9851
3166.06	0.9869
3175.28	0.99
3184.51	0.994
3193.73	0.997
3202.96	0.998
3212.19	1
3221.41	1.001
3230.64	1.0005
3239.86	1
3249.09	1
3258.31	1
3267.54	1.0017
3276.76	1.008
3285.99	1.008
3295.21	1.011
3304.44	1.014
3313.66	1.012
3322.89	1.015
3332.11	1.013
3341.34	1.0126
3350.56	1.018
3359.79	1.0153
3369.01	1.0174
3378.24	1.017
3387.46	1.022
3396.69	1.022
3405.91	1.0207
3415.14	1.0147
3424.36	1.012
3433.59	1.011
3442.81	1.007
3452.04	1.004
3461.26	1.004
3470.49	1.002
3479.71	1.001
3488.94	1
3498.16	0.9979
3507.39	0.9971
3516.61	0.998
3525.84	0.997
3535.06	0.994
3544.29	0.997
3553.51	0.9922
3562.74	0.995
3571.96	0.9903
3581.19	0.9853
3590.41	0.9918
3599.64	0.9916
3608.87	0.9865
3618.09	0.99
3627.32	0.99
3636.54	0.982
3645.77	0.988
3654.99	0.9843
3664.22	0.985
3673.44	0.992
3682.67	0.9853
3691.89	0.987
3701.12	0.985
3710.34	0.985
3719.57	0.989
3728.79	0.9929
3738.02	0.997
3747.24	0.9962
3756.47	0.9904
3765.69	0.995
3774.92	0.992
3784.14	0.9917
3793.37	0.988
