Infrared Spectrum: Caproic acid, methyl ester
Formula: C7 H14 O2
CAS: 106-70-7
State: SOLUTION (10% CCl4 FOR 3800-1330, 10% CS2 FOR 1330-400 CM^-^1)
Boiling point: 150 C
Class: COBLENTZ III
Instrument: DOW KBr FOREPRISM-GRATING
Instrument parameters: BLAZED AT 3.5, 12.0, 20.0 MICRON AND CHANGED AT 5.0, 7.5, 14.9 MICRON
Sampling: TRANSMISSION
Path length: 0.011 CM, 0.011 CM
Resolution: 2
Origin: DOW CHEMICAL COMPANY
1/CM	TRANSMITTANCE
391	0.145
400	0.1969
409	0.3651
418	0.5934
427	0.6681
436	0.7177
445	0.7654
454	0.794
463	0.8091
472	0.8166
481	0.8215
490	0.8339
499	0.8498
508	0.866
517	0.8769
526	0.8847
535	0.8902
544	0.8927
553	0.8905
562	0.88
571	0.8516
580	0.8399
589	0.8522
598	0.8485
607	0.8524
616	0.8632
625	0.8525
634	0.8299
643	0.806
652	0.8072
661	0.8492
670	0.8622
679	0.8569
688	0.8388
697	0.8262
706	0.8402
715	0.8628
724	0.7782
733	0.7012
742	0.815
751	0.8548
760	0.8818
769	0.8694
778	0.866
787	0.8659
796	0.8674
805	0.8924
814	0.8915
823	0.8533
832	0.7944
841	0.725
850	0.5821
859	0.5083
868	0.5899
877	0.7475
886	0.7556
895	0.7948
904	0.86
913	0.8692
922	0.8868
931	0.8861
940	0.8947
949	0.892
958	0.8505
967	0.7815
976	0.7237
985	0.709
994	0.6796
1003	0.5695
1012	0.489
1021	0.6067
1030	0.701
1039	0.7285
1048	0.7791
1057	0.7527
1066	0.7189
1075	0.7187
1084	0.6711
1093	0.4685
1102	0.2867
1111	0.3045
1120	0.5616
1129	0.6015
1138	0.559
1147	0.4
1156	0.1607
1165	0.0206
1174	0.0406
1183	0.1154
1192	0.1
1201	0.1652
1210	0.1629
1219	0.1687
1228	0.1761
1237	0.127
1246	0.0944
1255	0.2454
1264	0.346
1273	0.3624
1282	0.3876
1291	0.3837
1300	0.4401
1309	0.4149
1318	0.3616
1327	0.5326
1336	0.4835
1345	0.4213
1354	0.3577
1363	0.3142
1372	0.4469
1381	0.3863
1390	0.6956
1399	0.7217
1408	0.6663
1417	0.5096
1426	0.4981
1435	0.1022
1444	0.2606
1453	0.2884
1462	0.2529
1471	0.5026
1480	0.7069
1489	0.7325
1498	0.7273
1507	0.6928
1516	0.6512
1525	0.6143
1534	0.5335
1543	0.4676
1552	0.4619
1561	0.5417
1570	0.603
1579	0.6175
1588	0.6602
1597	0.737
1606	0.8015
1615	0.8326
1624	0.8455
1633	0.8502
1642	0.8461
1651	0.8362
1660	0.8212
1669	0.7921
1678	0.7556
1687	0.691
1696	0.5802
1705	0.4138
1714	0.3258
1723	0.1045
1732	0.0097
1741	0.0067
1750	0.0506
1759	0.3532
1768	0.5292
1777	0.6779
1786	0.7443
1795	0.7858
1804	0.8226
1813	0.8444
1822	0.8599
1831	0.8679
1840	0.872
1849	0.8743
1858	0.8767
1867	0.8788
1876	0.8799
1885	0.8804
1894	0.8805
1903	0.8802
1912	0.8797
1921	0.879
1930	0.879
1939	0.8787
1948	0.8762
1957	0.8722
1966	0.8679
1975	0.8665
1984	0.8679
1993	0.8633
2002	0.8755
2011	0.8637
2020	0.8602
2029	0.8571
2038	0.8568
2047	0.8637
2056	0.8626
2065	0.8629
2074	0.8658
2083	0.8688
2092	0.872
2101	0.8754
2110	0.8793
2119	0.8837
2128	0.8867
2137	0.8888
2146	0.8897
2155	0.8894
2164	0.8892
2173	0.8888
2182	0.8882
2191	0.887
2200	0.8867
2209	0.8873
2218	0.888
2227	0.8884
2236	0.8876
2245	0.8868
2254	0.8849
2263	0.8794
2272	0.8726
2281	0.8688
2290	0.8682
2299	0.8679
2308	0.8678
2317	0.8678
2326	0.868
2335	0.8758
2344	0.8802
2353	0.8824
2362	0.8875
2371	0.8846
2380	0.881
2389	0.8802
2398	0.8812
2407	0.8811
2416	0.8799
2425	0.8806
2434	0.883
2443	0.8858
2452	0.8857
2461	0.8855
2470	0.8853
2479	0.885
2488	0.8843
2497	0.8834
2506	0.8825
2515	0.8805
2524	0.8785
2533	0.8764
2542	0.8744
2551	0.8719
2560	0.8694
2569	0.8668
2578	0.8642
2587	0.8616
2596	0.8598
2605	0.858
2614	0.8567
2623	0.8563
2632	0.8553
2641	0.8533
2650	0.8516
2659	0.8502
2668	0.8489
2677	0.8499
2686	0.8505
2695	0.8505
2704	0.8497
2713	0.847
2722	0.8423
2731	0.8361
2740	0.8368
2749	0.845
2758	0.8442
2767	0.84
2776	0.8348
2785	0.8286
2794	0.8197
2803	0.8055
2812	0.7833
2821	0.7486
2830	0.6927
2839	0.5945
2848	0.4586
2857	0.2429
2866	0.1713
2875	0.1935
2884	0.2643
2893	0.376
2902	0.3075
2911	0.211
2920	0.118
2929	0.057
2938	0.0449
2947	0.0567
2956	0.0368
2965	0.0255
2974	0.065
2983	0.2316
2992	0.4001
3001	0.4242
3010	0.5674
3019	0.582
3028	0.5849
3037	0.5953
3046	0.7379
3055	0.7658
3064	0.7826
3073	0.7953
3082	0.8043
3091	0.811
3100	0.816
3109	0.8207
3118	0.8235
3127	0.8264
3136	0.8301
3145	0.8326
3154	0.8337
3163	0.8348
3172	0.8356
3181	0.836
3190	0.8368
3199	0.8386
3208	0.8416
3217	0.8444
3226	0.8468
3235	0.8489
3244	0.8505
3253	0.8518
3262	0.8524
3271	0.8528
3280	0.853
3289	0.8531
3298	0.8534
3307	0.8541
3316	0.8549
3325	0.8557
3334	0.8572
3343	0.8587
3352	0.8613
3361	0.8638
3370	0.866
3379	0.868
3388	0.8675
3397	0.8706
3406	0.8702
3415	0.8692
3424	0.8651
3433	0.8585
3442	0.8499
3451	0.8408
3460	0.8332
3469	0.8268
3478	0.8306
3487	0.8444
3496	0.8608
3505	0.8672
3514	0.8686
3523	0.869
3532	0.869
3541	0.8686
3550	0.8688
3559	0.8691
3568	0.8692
3577	0.8661
3586	0.8392
3595	0.8656
3604	0.8765
3613	0.8363
3622	0.8721
3631	0.8739
3640	0.8759
3649	0.8767
3658	0.8761
3667	0.8749
3676	0.8722
3685	0.8685
3694	0.866
3703	0.8697
3712	0.8764
3721	0.8807
3730	0.8826
3739	0.8839
3748	0.885
3757	0.885
3766	0.8849
3775	0.8849
3784	0.8849
3793	0.8847
3802	0.8845
