Infrared Spectrum: ACETIC ACID, PHOSPHONO-, P,P-DIETHYL C-METHYL ESTER
Formula: C7 H15 O5 P
CAS: 1067-74-9
State: LIQUID (NEAT)
Class: COBLENTZ III
Instrument: PERKIN-ELMER 21 (GRATING)
Instrument parameters: FILTER CHANGE AT ABOUT 1080 CM^-^1
Sampling: TRANSMISSION
Path length: CAPILLARY
Resolution: 2
Origin: SOUTHERN RESEARCH INSTITUTE
1/CM	TRANSMITTANCE
606.145	0.833
614.443	0.831
622.741	0.8459
631.039	0.8709
639.337	0.9059
647.635	0.9386
655.933	0.9688
664.231	0.9815
672.529	0.9996
680.827	1.001
689.125	0.9901
697.423	0.9765
705.722	0.9396
714.02	0.929
722.318	0.926
730.616	0.9207
738.914	0.9015
747.212	0.8848
755.51	0.8578
763.808	0.8357
772.106	0.8093
780.404	0.7459
788.702	0.74
797	0.7689
805.298	0.7761
813.596	0.7601
821.894	0.7408
830.192	0.7266
838.49	0.7129
846.788	0.706
855.086	0.7482
863.384	0.7919
871.682	0.8065
879.98	0.7963
888.278	0.7711
896.577	0.6872
904.875	0.7396
913.173	0.7853
921.471	0.7859
929.769	0.7614
938.067	0.6862
946.365	0.5551
954.663	0.4656
962.961	0.3989
971.259	0.343
979.557	0.3599
987.855	0.4938
996.153	0.6311
1004.45	0.6008
1012.75	0.4412
1021.05	0.2146
1029.35	0.1422
1037.64	0.1899
1045.94	0.2196
1054.24	0.211
1062.54	0.2262
1070.84	0.3336
1079.13	0.5065
1087.43	0.6091
1095.73	0.6203
1104.03	0.5801
1112.33	0.5705
1120.62	0.4772
1128.92	0.4577
1137.22	0.5285
1145.52	0.6122
1153.82	0.6485
1162.11	0.6283
1170.41	0.589
1178.71	0.6422
1187.01	0.702
1195.31	0.7086
1203.6	0.6828
1211.9	0.6253
1220.2	0.5897
1228.5	0.594
1236.8	0.5736
1245.09	0.4907
1253.39	0.3655
1261.69	0.2436
1269.99	0.2216
1278.29	0.209
1286.58	0.2211
1294.88	0.2921
1303.18	0.3852
1311.48	0.4758
1319.78	0.5364
1328.07	0.6152
1336.37	0.685
1344.67	0.7309
1352.97	0.7539
1361.27	0.7599
1369.57	0.7374
1377.86	0.702
1386.16	0.7259
1394.46	0.6946
1402.76	0.628
1411.06	0.6455
1419.35	0.7149
1427.65	0.7185
1435.95	0.7043
1444.25	0.5467
1452.55	0.5915
1460.84	0.6559
1469.14	0.6849
1477.44	0.7074
1485.74	0.6996
1494.04	0.7308
1502.33	0.7595
1510.63	0.757
1518.93	0.765
1527.23	0.7705
1535.53	0.775
1543.82	0.7761
1552.12	0.777
1560.42	0.7724
1568.72	0.777
1577.02	0.783
1585.31	0.779
1593.61	0.7758
1601.91	0.7707
1610.21	0.766
1618.51	0.7618
1626.8	0.7548
1635.1	0.748
1643.4	0.747
1651.7	0.746
1660	0.7451
1668.29	0.746
1676.59	0.7389
1684.89	0.728
1693.19	0.722
1701.49	0.7
1709.78	0.686
1718.08	0.6375
1726.38	0.53
1734.68	0.3277
1742.98	0.1962
1751.28	0.2895
1759.57	0.4665
1767.87	0.6328
1776.17	0.6974
1784.47	0.7135
1792.77	0.7242
1801.06	0.7337
1809.36	0.737
1817.66	0.737
1825.96	0.7377
1834.26	0.7406
1842.55	0.745
1850.85	0.746
1859.15	0.7466
1867.45	0.752
1875.75	0.751
1884.04	0.753
1892.34	0.748
1900.64	0.7489
1908.94	0.75
1917.24	0.7454
1925.53	0.748
1933.83	0.754
1942.13	0.7573
1950.43	0.7577
1958.73	0.751
1967.02	0.75
1975.32	0.7548
1983.62	0.744
1991.92	0.75
2000.22	0.745
2008.51	0.742
2016.81	0.7448
2025.11	0.742
2033.41	0.74
2041.71	0.745
2050	0.7452
2058.3	0.742
2066.6	0.741
2074.9	0.7442
2083.2	0.745
2091.49	0.745
2099.79	0.74
2108.09	0.7354
2116.39	0.7398
2124.69	0.734
2132.99	0.7394
2141.28	0.741
2149.58	0.737
2157.88	0.74
2166.18	0.74
2174.48	0.74
2182.77	0.7354
2191.07	0.7392
2199.37	0.7398
2207.67	0.7338
2215.97	0.7332
2224.26	0.733
2232.56	0.733
2240.86	0.7338
2249.16	0.739
2257.46	0.737
2265.75	0.7386
2274.05	0.735
2282.35	0.737
2290.65	0.735
2298.95	0.7366
2307.24	0.739
2315.54	0.7338
2323.84	0.7306
2332.14	0.7272
2340.44	0.732
2348.73	0.731
2357.03	0.728
2365.33	0.728
2373.63	0.731
2381.93	0.731
2390.22	0.735
2398.52	0.74
2406.82	0.735
2415.12	0.738
2423.42	0.7318
2431.71	0.7288
2440.01	0.729
2448.31	0.728
2456.61	0.728
2464.91	0.7312
2473.2	0.733
2481.5	0.733
2489.8	0.732
2498.1	0.7288
2506.4	0.727
2514.7	0.728
2522.99	0.729
2531.29	0.7322
2539.59	0.7306
2547.89	0.725
2556.19	0.7258
2564.48	0.7272
2572.78	0.728
2581.08	0.728
2589.38	0.729
2597.68	0.726
2605.97	0.727
2614.27	0.727
2622.57	0.727
2630.87	0.729
2639.17	0.732
2647.46	0.731
2655.76	0.7286
2664.06	0.724
2672.36	0.7236
2680.66	0.7188
2688.95	0.7138
2697.25	0.713
2705.55	0.7132
2713.85	0.714
2722.15	0.714
2730.44	0.7106
2738.74	0.709
2747.04	0.708
2755.34	0.7082
2763.64	0.712
2771.93	0.712
2780.23	0.7118
2788.53	0.707
2796.83	0.7048
2805.13	0.6976
2813.42	0.6928
2821.72	0.689
2830.02	0.689
2838.32	0.688
2846.62	0.6846
2854.91	0.6818
2863.21	0.68
2871.51	0.6715
2879.81	0.663
2888.11	0.6556
2896.41	0.6406
2904.7	0.6257
2913	0.5983
2921.3	0.5878
2929.6	0.584
2937.9	0.584
2946.19	0.5726
2954.49	0.5638
2962.79	0.5568
2971.09	0.5426
2979.39	0.5266
2987.68	0.5196
2995.98	0.52
3004.28	0.5292
3012.58	0.5494
3020.88	0.5858
3029.17	0.6275
3037.47	0.6454
3045.77	0.661
3054.07	0.67
3062.37	0.6765
3070.66	0.6852
3078.96	0.689
3087.26	0.692
3095.56	0.689
3103.86	0.689
3112.15	0.6918
3120.45	0.691
3128.75	0.691
3137.05	0.688
3145.35	0.688
3153.64	0.688
3161.94	0.6912
3170.24	0.6882
3178.54	0.688
3186.84	0.686
3195.13	0.686
3203.43	0.6924
3211.73	0.6958
3220.03	0.687
3228.33	0.6818
3236.62	0.678
3244.92	0.678
3253.22	0.678
3261.52	0.675
3269.82	0.675
3278.12	0.674
3286.41	0.674
3294.71	0.68
3303.01	0.681
3311.31	0.6788
3319.61	0.674
3327.9	0.672
3336.2	0.672
3344.5	0.6716
3352.8	0.669
3361.1	0.668
3369.39	0.668
3377.69	0.6704
3385.99	0.672
3394.29	0.6688
3402.59	0.666
3410.88	0.6618
3419.18	0.656
3427.48	0.652
3435.78	0.6458
3444.08	0.6398
3452.37	0.636
3460.67	0.634
3468.97	0.633
3477.27	0.633
3485.57	0.633
3493.86	0.632
3502.16	0.6322
3510.46	0.635
3518.76	0.636
3527.06	0.637
3535.35	0.633
3543.65	0.6316
3551.95	0.6322
3560.25	0.636
3568.55	0.64
3576.84	0.639
3585.14	0.6434
3593.44	0.6458
3601.74	0.647
3610.04	0.6468
3618.33	0.646
3626.63	0.643
3634.93	0.645
3643.23	0.6472
3651.53	0.652
3659.83	0.656
3668.12	0.659
3676.42	0.662
3684.72	0.666
3693.02	0.6692
3701.32	0.6728
3709.61	0.6688
3717.91	0.6724
3726.21	0.6792
3734.51	0.682
3742.81	0.681
3751.1	0.679
3759.4	0.679
3767.7	0.679
3776	0.68
3784.3	0.681
3792.59	0.681
3800.89	0.68
3809.19	0.676
