Infrared Spectrum: 2,4-PENTANEDIOL, 2-METHYL-
Formula: C6 H14 O2
CAS: 107-41-5
State: SOLUTION (10% IN CCl4 FOR 3800-1300, 10% IN CS2 FOR 1300-600, 10% IN CCl4 FOR 600-250 CM^-^1) VERSUS SOLVENT
Class: COBLENTZ III
Instrument: PERKIN-ELMER 521 (GRATING)
Instrument parameters: FILTERS AT 3150, 2500, 2000, 1150, 700, 410; GRATING CHANGES AT 2000, 630 CM^-^1
Sampling: TRANSMISSION
Path length: 0.011, 0.011, AND 0.011 CM (CsBr CELL)
Resolution: 4
Origin: DOW CORNING CORP.
1/CM	TRANSMITTANCE
243.326	0.673
253.173	0.66
263.02	0.662
272.867	0.666
282.713	0.662
292.56	0.661
302.407	0.665
312.254	0.649
322.101	0.678
331.948	0.729
341.794	0.742
351.641	0.736
361.488	0.709
371.335	0.716
381.182	0.737
391.029	0.737
400.876	0.722
410.722	0.67
420.569	0.693
430.416	0.69
440.263	0.634
450.11	0.592
459.957	0.577
469.803	0.585
479.65	0.594
489.497	0.565
499.344	0.506
509.191	0.549
519.038	0.549
528.885	0.538
538.731	0.518
548.578	0.496
558.425	0.485
568.272	0.51
578.119	0.521
587.966	0.524
597.812	0.528
607.659	0.533
617.506	0.536
627.353	0.54
637.2	0.544
647.047	0.549
656.894	0.557
666.74	0.565
676.587	0.573
686.434	0.581
696.281	0.59
706.128	0.604
715.975	0.62
725.821	0.637
735.668	0.66
745.515	0.67
755.362	0.654
765.209	0.453
775.056	0.656
784.903	0.725
794.749	0.744
804.596	0.769
814.443	0.772
824.29	0.726
834.137	0.373
843.984	0.5941
853.83	0.769
863.677	0.753
873.524	0.622
883.371	0.452
893.218	0.518
903.065	0.1
912.912	0.528
922.758	0.69
932.605	0.718
942.452	0.626
952.299	0.705
962.146	0.66
971.993	0.556
981.839	0.708
991.686	0.717
1001.53	0.738
1011.38	0.757
1021.23	0.724
1031.07	0.544
1040.92	0.318
1050.77	0.53
1060.61	0.624
1070.46	0.478
1080.31	0.5381
1090.15	0.64
1100	0.594
1109.85	0.462
1119.7	0.344
1129.54	0.389
1139.39	0.281
1149.24	0.06
1159.08	0.042
1168.93	0.121
1178.78	0.27
1188.62	0.35
1198.47	0.32
1208.32	0.345
1218.16	0.313
1228.01	0.348
1237.86	0.457
1247.7	0.381
1257.55	0.318
1267.4	0.444
1277.24	0.541
1287.09	0.486
1296.94	0.429
1306.79	0.468
1316.63	0.36
1326.48	0.288
1336.33	0.332
1346.17	0.429
1356.02	0.364
1365.87	0.132
1375.71	0.062
1385.56	0.17
1395.41	0.245
1405.25	0.221
1415.1	0.169
1424.95	0.188
1434.79	0.244
1444.64	0.306
1454.49	0.174
1464.33	0.222
1474.18	0.2881
1484.03	0.489
1493.88	0.634
1503.72	0.709
1513.57	0.754
1523.42	0.778
1533.26	0.812
1543.11	0.84
1552.96	0.845
1562.8	0.845
1572.65	0.844
1582.5	0.848
1592.34	0.846
1602.19	0.845
1612.04	0.848
1621.88	0.845
1631.73	0.842
1641.58	0.841
1651.43	0.842
1661.27	0.842
1671.12	0.842
1680.97	0.844
1690.81	0.846
1700.66	0.84
1710.51	0.833
1720.35	0.849
1730.2	0.856
1740.05	0.858
1749.89	0.866
1759.74	0.872
1769.59	0.87
1779.43	0.869
1789.28	0.873
1799.13	0.88
1808.97	0.881
1818.82	0.877
1828.67	0.881
1838.52	0.885
1848.36	0.886
1858.21	0.886
1868.06	0.882
1877.9	0.878
1887.75	0.882
1897.6	0.885
1907.44	0.886
1917.29	0.888
1927.14	0.89
1936.98	0.886
1946.83	0.888
1956.68	0.892
1966.52	0.892
1976.37	0.892
1986.22	0.893
1996.06	0.894
2005.91	0.904
2015.76	0.908
2025.61	0.905
2035.45	0.905
2045.3	0.902
2055.15	0.9
2064.99	0.8971
2074.84	0.901
2084.69	0.902
2094.53	0.901
2104.38	0.9
2114.23	0.897
2124.07	0.892
2133.92	0.8929
2143.77	0.893
2153.61	0.894
2163.46	0.892
2173.31	0.894
2183.15	0.896
2193	0.8929
2202.85	0.8902
2212.7	0.889
2222.54	0.8916
2232.39	0.8891
2242.24	0.889
2252.08	0.889
2261.93	0.888
2271.78	0.885
2281.62	0.8837
2291.47	0.8812
2301.32	0.884
2311.16	0.884
2321.01	0.8852
2330.86	0.884
2340.7	0.8867
2350.55	0.8852
2360.4	0.8888
2370.24	0.8796
2380.09	0.876
2389.94	0.8698
2399.79	0.8688
2409.63	0.868
2419.48	0.865
2429.33	0.861
2439.17	0.862
2449.02	0.86
2458.87	0.8625
2468.71	0.862
2478.56	0.8564
2488.41	0.844
2498.25	0.841
2508.1	0.834
2517.95	0.83
2527.79	0.829
2537.64	0.8257
2547.49	0.8234
2557.33	0.8194
2567.18	0.813
2577.03	0.8074
2586.88	0.8066
2596.72	0.812
2606.57	0.8113
2616.42	0.799
2626.26	0.7873
2636.11	0.78
2645.96	0.7753
2655.8	0.772
2665.65	0.772
2675.5	0.773
2685.34	0.774
2695.19	0.774
2705.04	0.7692
2714.88	0.7518
2724.73	0.7446
2734.58	0.7432
2744.42	0.742
2754.27	0.741
2764.12	0.7343
2773.97	0.7231
2783.81	0.7091
2793.66	0.6931
2803.51	0.6754
2813.35	0.6411
2823.2	0.605
2833.05	0.5554
2842.89	0.5418
2852.74	0.5014
2862.59	0.4115
2872.43	0.3284
2882.28	0.2581
2892.13	0.239
2901.97	0.1897
2911.82	0.1255
2921.67	0.1495
2931.52	0.0595
2941.36	0.1012
2951.21	0.1924
2961.06	0.1394
2970.9	0.0009
2980.75	0.0203
2990.6	0.1097
3000.44	0.3946
3010.29	0.5816
3020.14	0.657
3029.98	0.6851
3039.83	0.692
3049.68	0.6894
3059.52	0.6808
3069.37	0.6734
3079.22	0.6604
3089.06	0.6428
3098.91	0.622
3108.76	0.5982
3118.61	0.5711
3128.45	0.5436
3138.3	0.5128
3148.15	0.4836
3157.99	0.4519
3167.84	0.4098
3177.69	0.3752
3187.53	0.3337
3197.38	0.3004
3207.23	0.2637
3217.07	0.23
3226.92	0.1999
3236.77	0.1733
3246.61	0.1472
3256.46	0.1212
3266.31	0.0914
3276.15	0.0766
3286	0.0603
3295.85	0.05
3305.7	0.0413
3315.54	0.034
3325.39	0.0305
3335.24	0.028
3345.08	0.026
3354.93	0.028
3364.78	0.029
3374.62	0.0328
3384.47	0.0355
3394.32	0.0378
3404.16	0.0476
3414.01	0.0553
3423.86	0.0696
3433.7	0.0842
3443.55	0.1034
3453.4	0.1228
3463.24	0.1467
3473.09	0.1772
3482.94	0.2038
3492.79	0.2373
3502.63	0.286
3512.48	0.3267
3522.33	0.3872
3532.17	0.423
3542.02	0.48
3551.87	0.5504
3561.71	0.6274
3571.56	0.6929
3581.41	0.7293
3591.25	0.7604
3601.1	0.7622
3610.95	0.7458
3620.79	0.716
3630.64	0.7852
3640.49	0.8466
3650.33	0.8656
3660.18	0.876
3670.03	0.8795
3679.88	0.8744
3689.72	0.8836
3699.57	0.8899
3709.42	0.8958
3719.26	0.8941
3729.11	0.898
3738.96	0.9
3748.8	0.908
3758.65	0.9041
3768.5	0.894
3778.34	0.894
3788.19	0.894
