Infrared Spectrum: 1,2-ETHANEDIOL
Formula: C2 H6 O2
CAS: 107-21-1
State: LIQUID (NEAT)
Class: COBLENTZ III
Instrument: DOW KBr FOREPRISM-GRATING
Instrument parameters: BLAZED AT 3.5, 12.0, 20.0 MICRON, CHANGED AT 5.0, 7.5, 14.9 MICRON
Sampling: TRANSMISSION
Path length: CAPILLARY
Resolution: 4
Origin: DOW CHEMICAL COMPANY
1/CM	TRANSMITTANCE
449.619	0.586
458.324	0.593
467.029	0.597
475.734	0.597
484.44	0.597
493.145	0.593
501.85	0.579
510.555	0.556
519.26	0.534
527.965	0.542
536.67	0.562
545.375	0.564
554.081	0.566
562.786	0.566
571.491	0.563
580.196	0.559
588.901	0.557
597.606	0.556
606.311	0.556
615.016	0.556
623.722	0.556
632.427	0.556
641.132	0.553
649.837	0.555
658.542	0.556
667.247	0.557
675.952	0.559
684.658	0.562
693.363	0.567
702.068	0.571
710.773	0.578
719.478	0.59
728.183	0.601
736.888	0.615
745.593	0.633
754.299	0.649
763.004	0.66
771.709	0.676
780.414	0.691
789.119	0.706
797.824	0.714
806.529	0.728
815.234	0.744
823.94	0.758
832.645	0.761
841.35	0.75
850.055	0.703
858.76	0.532
867.465	0.488
876.17	0.457
884.876	0.39
893.581	0.556
902.286	0.733
910.991	0.798
919.696	0.815
928.401	0.832
937.106	0.843
945.811	0.851
954.517	0.854
963.222	0.855
971.927	0.849
980.632	0.841
989.337	0.822
998.042	0.799
1006.75	0.751
1015.45	0.624
1024.16	0.428
1032.86	0.246
1041.57	0.204
1050.27	0.245
1058.98	0.342
1067.68	0.388
1076.39	0.3
1085.09	0.193
1093.8	0.268
1102.5	0.532
1111.21	0.731
1119.91	0.796
1128.62	0.824
1137.32	0.824
1146.03	0.833
1154.73	0.841
1163.44	0.834
1172.14	0.815
1180.85	0.783
1189.56	0.757
1198.26	0.716
1206.97	0.706
1215.67	0.724
1224.38	0.75
1233.08	0.763
1241.79	0.753
1250.49	0.736
1259.2	0.733
1267.9	0.742
1276.61	0.759
1285.31	0.761
1294.02	0.747
1302.72	0.729
1311.43	0.699
1320.13	0.671
1328.84	0.653
1337.54	0.643
1346.25	0.65
1354.95	0.652
1363.66	0.616
1372.36	0.596
1381.07	0.6
1389.77	0.585
1398.48	0.574
1407.18	0.578
1415.89	0.587
1424.59	0.603
1433.3	0.622
1442	0.642
1450.71	0.622
1459.41	0.587
1468.12	0.631
1476.82	0.718
1485.53	0.766
1494.23	0.813
1502.94	0.843
1511.64	0.855
1520.35	0.863
1529.06	0.878
1537.76	0.884
1546.47	0.892
1555.17	0.893
1563.88	0.893
1572.58	0.894
1581.29	0.894
1589.99	0.889
1598.7	0.874
1607.4	0.854
1616.11	0.822
1624.81	0.795
1633.52	0.765
1642.22	0.747
1650.93	0.736
1659.63	0.739
1668.34	0.759
1677.04	0.784
1685.75	0.819
1694.45	0.844
1703.16	0.862
1711.86	0.892
1720.57	0.908
1729.27	0.923
1737.98	0.924
1746.68	0.933
1755.39	0.941
1764.09	0.952
1772.8	0.954
1781.5	0.961
1790.21	0.963
1798.91	0.963
1807.62	0.965
1816.32	0.965
1825.03	0.968
1833.73	0.969
1842.44	0.971
1851.14	0.972
1859.85	0.969
1868.56	0.969
1877.26	0.969
1885.97	0.967
1894.67	0.967
1903.38	0.963
1912.08	0.957
1920.79	0.959
1929.49	0.957
1938.2	0.956
1946.9	0.954
1955.61	0.957
1964.31	0.965
1973.02	0.96
1981.72	0.964
1990.43	0.968
1999.13	0.972
2007.84	0.974
2016.54	0.975
2025.25	0.976
2033.95	0.978
2042.66	0.976
2051.36	0.9755
2060.07	0.9715
2068.77	0.969
2077.48	0.968
2086.18	0.964
2094.89	0.963
2103.59	0.963
2112.3	0.963
2121	0.963
2129.71	0.963
2138.41	0.966
2147.12	0.968
2155.82	0.968
2164.53	0.968
2173.23	0.969
2181.94	0.972
2190.65	0.977
2199.35	0.978
2208.06	0.978
2216.76	0.978
2225.47	0.978
2234.17	0.978
2242.88	0.978
2251.58	0.979
2260.29	0.979
2268.99	0.979
2277.7	0.979
2286.4	0.98
2295.11	0.979
2303.81	0.98
2312.52	0.982
2321.22	0.982
2329.93	0.979
2338.63	0.984
2347.34	0.982
2356.04	0.983
2364.75	0.981
2373.45	0.983
2382.16	0.98
2390.86	0.977
2399.57	0.9755
2408.27	0.9715
2416.98	0.9699
2425.68	0.968
2434.39	0.964
2443.09	0.9599
2451.8	0.96
2460.5	0.9549
2469.21	0.95
2477.91	0.949
2486.62	0.9471
2495.32	0.946
2504.03	0.944
2512.73	0.944
2521.44	0.942
2530.15	0.941
2538.85	0.9399
2547.56	0.935
2556.26	0.9345
2564.97	0.933
2573.67	0.9319
2582.38	0.93
2591.08	0.9249
2599.79	0.9225
2608.49	0.9145
2617.2	0.911
2625.9	0.9045
2634.61	0.8995
2643.31	0.897
2652.02	0.8949
2660.72	0.8925
2669.43	0.889
2678.13	0.8869
2686.84	0.882
2695.54	0.8759
2704.25	0.8695
2712.95	0.8564
2721.66	0.849
2730.36	0.8414
2739.07	0.839
2747.77	0.833
2756.48	0.828
2765.18	0.818
2773.89	0.8083
2782.59	0.7939
2791.3	0.7802
2800	0.7703
2808.71	0.7518
2817.41	0.7302
2826.12	0.6948
2834.82	0.6684
2843.53	0.6297
2852.23	0.5807
2860.94	0.5367
2869.65	0.4836
2878.35	0.4364
2887.06	0.4482
2895.76	0.492
2904.47	0.511
2913.17	0.497
2921.88	0.4418
2930.58	0.4
2939.29	0.3818
2947.99	0.376
2956.7	0.3894
2965.4	0.4468
2974.11	0.5275
2982.81	0.6476
2991.52	0.7025
3000.22	0.7257
3008.93	0.7299
3017.63	0.724
3026.34	0.7164
3035.04	0.7037
3043.75	0.6893
3052.45	0.671
3061.16	0.6554
3069.86	0.6259
3078.57	0.599
3087.27	0.5744
3095.98	0.5519
3104.68	0.5237
3113.39	0.4957
3122.09	0.4647
3130.8	0.4347
3139.5	0.4085
3148.21	0.3754
3156.91	0.3458
3165.62	0.3167
3174.32	0.2877
3183.03	0.2555
3191.73	0.2351
3200.44	0.2121
3209.15	0.1901
3217.85	0.1717
3226.56	0.1504
3235.26	0.1333
3243.97	0.1193
3252.67	0.1012
3261.38	0.0932
3270.08	0.0822
3278.79	0.0758
3287.49	0.069
3296.2	0.0628
3304.9	0.0588
3313.61	0.054
3322.31	0.051
3331.02	0.047
3339.72	0.046
3348.43	0.043
3357.13	0.043
3365.84	0.042
3374.54	0.042
3383.25	0.043
3391.95	0.045
3400.66	0.046
3409.36	0.0482
3418.07	0.0496
3426.77	0.0522
3435.48	0.055
3444.18	0.0632
3452.89	0.0708
3461.59	0.0788
3470.3	0.0962
3479	0.111
3487.71	0.1252
3496.41	0.1428
3505.12	0.1648
3513.82	0.184
3522.53	0.2082
3531.24	0.2412
3539.94	0.2718
3548.65	0.3092
3557.35	0.3444
3566.06	0.3809
3574.76	0.435
3583.47	0.4843
3592.17	0.5253
3600.88	0.5743
3609.58	0.6367
3618.29	0.6821
3626.99	0.7213
3635.7	0.7607
3644.4	0.8093
3653.11	0.8312
3661.81	0.8813
3670.52	0.9053
3679.22	0.9252
3687.93	0.9525
3696.63	0.9622
3705.34	0.9662
3714.04	0.968
3722.75	0.975
3731.45	0.9786
3740.16	0.98
3748.86	0.9812
3757.57	0.982
3766.27	0.983
3774.98	0.9848
3783.68	0.986
3792.39	0.986
