Infrared Spectrum: Ethane, 1,2-dichloro-
Formula: C2 H4 Cl2
CAS: 107-06-2
State: GAS (50 mmHg, N2 ADDED, TOTAL PRESSURE 600 mmHg)
Class: COBLENTZ
Instrument: DOW KBr FOREPRISM-GRATING
Instrument parameters: GRATING CHANGED AT 5.0, 7.5, 15.0 MICRON
Sampling: TRANSMISSION
Path length: 5 CM
Resolution: 2
Origin: DOW CHEMICAL COMPANY
1/CM	TRANSMITTANCE
382	0.8117
391	0.8116
400	0.8113
409	0.812
418	0.8147
427	0.8202
436	0.8258
445	0.831
454	0.835
463	0.8382
472	0.8405
481	0.8405
490	0.8389
499	0.8357
508	0.8313
517	0.8272
526	0.8243
535	0.8224
544	0.8221
553	0.8229
562	0.8243
571	0.8257
580	0.8297
589	0.8357
598	0.8422
607	0.8477
616	0.8529
625	0.8555
634	0.8576
643	0.8481
652	0.8262
661	0.8151
670	0.8174
679	0.776
688	0.7177
697	0.7544
706	0.7007
715	0.361
724	0.0544
733	0.0505
742	0.4621
751	0.8707
760	0.871
769	0.8719
778	0.8782
787	0.8822
796	0.8864
805	0.8925
814	0.8927
823	0.89
832	0.8888
841	0.8934
850	0.9034
859	0.9047
868	0.8995
877	0.8691
886	0.792
895	0.8093
904	0.8417
913	0.8834
922	0.8835
931	0.8722
940	0.8548
949	0.8552
958	0.8569
967	0.88
976	0.8817
985	0.8769
994	0.8723
1003	0.875
1012	0.8693
1021	0.8647
1030	0.8648
1039	0.8708
1048	0.8781
1057	0.8853
1066	0.8894
1075	0.8907
1084	0.8907
1093	0.89
1102	0.8886
1111	0.8848
1120	0.8773
1129	0.8707
1138	0.8701
1147	0.8733
1156	0.8792
1165	0.8859
1174	0.8908
1183	0.8889
1192	0.8816
1201	0.8681
1210	0.8474
1219	0.748
1228	0.3406
1237	0.3683
1246	0.5965
1255	0.8407
1264	0.8523
1273	0.8433
1282	0.7177
1291	0.7258
1300	0.6691
1309	0.8064
1318	0.8207
1327	0.8302
1336	0.8369
1345	0.8422
1354	0.8439
1363	0.8414
1372	0.8399
1381	0.823
1390	0.8479
1399	0.8473
1408	0.8417
1417	0.8281
1426	0.796
1435	0.7675
1444	0.7356
1453	0.7
1462	0.761
1471	0.761
1480	0.8102
1489	0.8303
1498	0.8432
1507	0.827
1516	0.8465
1525	0.8419
1534	0.8452
1543	0.839
1552	0.853
1561	0.8357
1570	0.8574
1579	0.8508
1588	0.8651
1597	0.8667
1606	0.8639
1615	0.8558
1624	0.858
1633	0.8555
1642	0.8547
1651	0.8263
1660	0.8503
1669	0.8414
1678	0.8494
1687	0.8489
1696	0.8159
1705	0.822
1714	0.8023
1723	0.8203
1732	0.7965
1741	0.8377
1750	0.8363
1759	0.8417
1768	0.8399
1777	0.8479
1786	0.8438
1795	0.848
1804	0.8487
1813	0.8482
1822	0.8474
1831	0.8463
1840	0.8452
1849	0.8483
1858	0.847
1867	0.8457
1876	0.8438
1885	0.8453
1894	0.8468
1903	0.8473
1912	0.8469
1921	0.8469
1930	0.8468
1939	0.8463
1948	0.8426
1957	0.8378
1966	0.8435
1975	0.8424
1984	0.8426
1993	0.8425
2002	0.8455
2011	0.8435
2020	0.8392
2029	0.8346
2038	0.8357
2047	0.8404
2056	0.8453
2065	0.8475
2074	0.8487
2083	0.8493
2092	0.8495
2101	0.8495
2110	0.8489
2119	0.8483
2128	0.848
2137	0.8479
2146	0.8479
2155	0.848
2164	0.8481
2173	0.8481
2182	0.8477
2191	0.8471
2200	0.8466
2209	0.8459
2218	0.8436
2227	0.8419
2236	0.8444
2245	0.8469
2254	0.8498
2263	0.853
2272	0.8561
2281	0.8589
2290	0.8595
2299	0.8598
2308	0.8594
2317	0.8585
2326	0.8581
2335	0.8588
2344	0.8607
2353	0.8613
2362	0.8607
2371	0.8601
2380	0.8606
2389	0.8618
2398	0.8646
2407	0.8658
2416	0.8663
2425	0.8653
2434	0.8641
2443	0.8623
2452	0.8612
2461	0.8607
2470	0.8616
2479	0.8627
2488	0.8638
2497	0.8646
2506	0.8653
2515	0.8659
2524	0.8666
2533	0.8671
2542	0.8678
2551	0.868
2560	0.8683
2569	0.8685
2578	0.8683
2587	0.868
2596	0.8678
2605	0.8673
2614	0.8666
2623	0.8658
2632	0.8646
2641	0.8632
2650	0.8613
2659	0.8586
2668	0.855
2677	0.8536
2686	0.8579
2695	0.8608
2704	0.8606
2713	0.8599
2722	0.859
2731	0.8578
2740	0.8548
2749	0.8517
2758	0.8523
2767	0.8557
2776	0.86
2785	0.8611
2794	0.8594
2803	0.8578
2812	0.8562
2821	0.8541
2830	0.852
2839	0.8495
2848	0.8459
2857	0.837
2866	0.8317
2875	0.8283
2884	0.7874
2893	0.7936
2902	0.8283
2911	0.8568
2920	0.8564
2929	0.8416
2938	0.8162
2947	0.7872
2956	0.6812
2965	0.7234
2974	0.5846
2983	0.619
2992	0.5865
3001	0.7134
3010	0.7215
3019	0.7688
3028	0.7897
3037	0.8058
3046	0.8208
3055	0.8328
3064	0.843
3073	0.8493
3082	0.8519
3091	0.8525
3100	0.8522
3109	0.8524
3118	0.8526
3127	0.8528
3136	0.8539
3145	0.8555
3154	0.8575
3163	0.8602
3172	0.8622
3181	0.8634
3190	0.8639
3199	0.8636
3208	0.8632
3217	0.8627
3226	0.8618
3235	0.8609
3244	0.8601
3253	0.8595
3262	0.859
3271	0.8586
3280	0.8585
3289	0.8583
3298	0.8586
3307	0.8589
3316	0.8584
3325	0.8575
3334	0.8566
3343	0.8557
3352	0.8548
3361	0.8537
3370	0.8527
3379	0.8517
3388	0.8514
3397	0.8511
3406	0.8511
3415	0.8515
3424	0.852
3433	0.8544
3442	0.857
3451	0.8578
3460	0.8578
3469	0.8579
3478	0.858
3487	0.8582
3496	0.8585
3505	0.8588
3514	0.859
3523	0.8591
3532	0.859
3541	0.8587
3550	0.8576
3559	0.8556
3568	0.8594
3577	0.8574
3586	0.8533
3595	0.8513
3604	0.8502
3613	0.8499
3622	0.8496
3631	0.8507
3640	0.8474
3649	0.8477
3658	0.8492
3667	0.8405
3676	0.8436
3685	0.848
3694	0.8475
3703	0.8462
3712	0.8463
3721	0.8455
3730	0.8423
3739	0.8415
3748	0.8341
3757	0.8416
3766	0.8382
