Infrared Spectrum: 1,3-BUTANEDIOL
Formula: C4 H10 O2
CAS: 107-88-0
State: LIQUID
Class: COBLENTZ
Instrument: Not specified, most likely a prism, grating, or hybrid spectrometer.
Sampling: TRANSMISSION
Path length: 0.0015 CM
Resolution: 4
Origin: WYANDOTTE CHEMICALS CORP., WYANDOTTE, MICHIGAN, USA
MICROMETERS	TRANSMITTANCE
2.014	0.97
2.05585	0.966
2.09771	0.979
2.13956	0.98
2.18141	0.977
2.22326	0.935
2.26512	0.937
2.30697	0.938
2.34882	0.944
2.39068	0.93
2.43253	0.924
2.47438	0.931
2.51624	0.947
2.55809	0.949
2.59994	0.949
2.64179	0.945
2.68365	0.923
2.7255	0.849
2.76735	0.591
2.80921	0.289
2.85106	0.061
2.89291	0.026
2.93477	0.02
2.97662	0.019
3.01847	0.019
3.06032	0.019
3.10218	0.019
3.14403	0.022
3.18588	0.061
3.22774	0.153
3.26959	0.28
3.31144	0.34
3.3533	0.029
3.39515	0.029
3.437	0.034
3.47885	0.041
3.52071	0.125
3.56256	0.254
3.60441	0.382
3.64627	0.427
3.68812	0.462
3.72997	0.532
3.77183	0.556
3.81368	0.614
3.85553	0.64
3.89738	0.677
3.93924	0.682
3.98109	0.694
4.02294	0.72
4.0648	0.755
4.10665	0.781
4.1485	0.79
4.19036	0.795
4.23221	0.813
4.27406	0.828
4.31591	0.828
4.35777	0.83
4.39962	0.858
4.44147	0.87
4.48333	0.869
4.52518	0.879
4.56703	0.877
4.60889	0.876
4.65074	0.884
4.69259	0.884
4.73444	0.888
4.7763	0.888
4.81815	0.884
4.86	0.884
4.90186	0.869
4.94371	0.865
4.98556	0.87
5.02742	0.87
5.06927	0.87
5.11112	0.872
5.15297	0.869
5.19483	0.87
5.23668	0.865
5.27853	0.862
5.32039	0.844
5.36224	0.851
5.40409	0.86
5.44595	0.862
5.4878	0.86
5.52965	0.844
5.5715	0.844
5.61336	0.842
5.65521	0.842
5.69706	0.841
5.73892	0.839
5.78077	0.82
5.82262	0.813
5.86448	0.804
5.90633	0.783
5.94818	0.767
5.99003	0.762
6.03189	0.753
6.07374	0.753
6.11559	0.753
6.15745	0.75
6.1993	0.734
6.24115	0.727
6.28301	0.715
6.32486	0.699
6.36671	0.691
6.40856	0.685
6.45042	0.673
6.49227	0.647
6.53412	0.621
6.57598	0.57
6.61783	0.502
6.65968	0.427
6.70154	0.256
6.74339	0.183
6.78524	0.134
6.82709	0.099
6.86895	0.104
6.9108	0.104
6.95265	0.102
6.99451	0.092
7.03636	0.083
7.07821	0.08
7.12007	0.113
7.16192	0.148
7.20377	0.122
7.24562	0.055
7.28748	0.066
7.32933	0.139
7.37118	0.165
7.41304	0.148
7.45489	0.136
7.49674	0.116
7.5386	0.108
7.58045	0.127
7.6223	0.143
7.66415	0.155
7.70601	0.174
7.74786	0.214
7.78971	0.254
7.83157	0.3
7.87342	0.31
7.91527	0.305
7.95713	0.31
7.99898	0.317
8.04083	0.329
8.08268	0.356
8.12454	0.385
8.16639	0.397
8.20824	0.371
8.2501	0.338
8.29195	0.321
8.3338	0.317
8.37566	0.336
8.41751	0.366
8.45936	0.408
8.50121	0.445
8.54307	0.448
8.58492	0.439
8.62677	0.394
8.66863	0.317
8.71048	0.186
8.75233	0.075
8.79419	0.041
8.83604	0.041
8.87789	0.05
8.91974	0.062
8.9616	0.055
9.00345	0.043
9.0453	0.041
9.08716	0.036
9.12901	0.034
9.17086	0.031
9.21271	0.029
9.25457	0.033
9.29642	0.031
9.33827	0.034
9.38013	0.027
9.42198	0.024
9.46383	0.02
9.50569	0.02
9.54754	0.027
9.58939	0.052
9.63124	0.085
9.6731	0.137
9.71495	0.197
9.7568	0.242
9.79866	0.261
9.84051	0.207
9.88236	0.127
9.92422	0.083
9.96607	0.095
10.0079	0.134
10.0498	0.139
10.0916	0.099
10.1335	0.08
10.1753	0.099
10.2172	0.155
10.259	0.197
10.3009	0.186
10.3427	0.143
10.3846	0.118
10.4265	0.16
10.4683	0.263
10.5102	0.338
10.552	0.376
10.5939	0.371
10.6357	0.335
10.6776	0.307
10.7194	0.298
10.7613	0.331
10.8031	0.408
10.845	0.45
10.8868	0.448
10.9287	0.382
10.9705	0.263
11.0124	0.141
11.0542	0.102
11.0961	0.144
11.138	0.233
11.1798	0.317
11.2217	0.364
11.2635	0.401
11.3054	0.445
11.3472	0.507
11.3891	0.527
11.4309	0.525
11.4728	0.5
11.5146	0.464
11.5565	0.417
11.5983	0.378
11.6402	0.335
11.682	0.268
11.7239	0.212
11.7657	0.183
11.8076	0.164
11.8495	0.212
11.8913	0.308
11.9332	0.392
11.975	0.445
12.0169	0.467
12.0587	0.471
12.1006	0.471
12.1424	0.46
12.1843	0.455
12.2261	0.446
12.268	0.438
12.3098	0.439
12.3517	0.434
12.3935	0.424
12.4354	0.403
12.4772	0.385
12.5191	0.363
12.561	0.35
12.6028	0.329
12.6447	0.319
12.6865	0.305
12.7284	0.28
12.7702	0.268
12.8121	0.272
12.8539	0.275
12.8958	0.293
12.9376	0.31
12.9795	0.324
13.0213	0.333
13.0632	0.333
13.105	0.331
13.1469	0.324
13.1887	0.322
13.2306	0.317
13.2725	0.31
13.3143	0.305
13.3562	0.303
13.398	0.3
13.4399	0.294
13.4817	0.287
13.5236	0.279
13.5654	0.277
13.6073	0.273
13.6491	0.268
13.691	0.265
13.7328	0.26
13.7747	0.26
13.8165	0.254
13.8584	0.253
13.9003	0.251
13.9421	0.249
13.984	0.246
14.0258	0.244
14.0677	0.24
14.1095	0.24
14.1514	0.235
14.1932	0.233
14.2351	0.232
14.2769	0.232
14.3188	0.232
14.3606	0.232
14.4025	0.233
14.4443	0.235
14.4862	0.237
14.528	0.239
14.5699	0.237
14.6118	0.24
14.6536	0.244
14.6955	0.244
14.7373	0.256
14.7792	0.26
14.821	0.258
14.8629	0.261
14.9047	0.263
14.9466	0.268
14.9884	0.277
15.0303	0.294
15.0721	0.319
15.114	0.308
15.1558	0.291
15.1977	0.3
15.2395	0.301
15.2814	0.31
15.3233	0.319
15.3651	0.324
15.407	0.331
15.4488	0.34
15.4907	0.354
15.5325	0.361
15.5744	0.368
15.6162	0.375
15.6581	0.383
15.6999	0.39
15.7418	0.403
15.7836	0.41
15.8255	0.417
15.8673	0.429
15.9092	0.439
15.951	0.445
15.9929	0.443
