Infrared Spectrum: BENZENE, 1-BROMO-2-FLUORO-
Formula: C6 H4 Br F
CAS: 1072-85-1
State: SOLUTION (10% IN CCl4 FOR 3800-1333 AND 10% IN CS2 FOR 1333-440 CM^-^1) VS. SOLVENT
Class: COBLENTZ III
Instrument: DOW KBr FOREPRISM-GRATING
Instrument parameters: BLAZED AT 3.5, 12.0, 20.0 MICRON, CHANGED AT 5.0, 7.5, 14.9 MICRON
Sampling: TRANSMISSION
Path length: 0.011, 0.011 CM
Resolution: 4
Origin: DOW CHEMICAL COMPANY
1/CM	TRANSMITTANCE
431.321	0.868
440.021	0.868
448.722	0.867
457.422	0.856
466.123	0.806
474.823	0.9
483.523	0.957
492.224	0.956
500.924	0.954
509.625	0.946
518.325	0.933
527.025	0.934
535.726	0.918
544.426	0.688
553.126	0.961
561.827	0.986
570.527	0.989
579.228	0.99
587.928	0.994
596.628	0.993
605.329	0.994
614.029	0.998
622.73	0.991
631.43	0.979
640.13	0.96
648.831	0.741
657.531	0.859
666.232	0.976
674.932	0.967
683.632	0.976
692.333	0.904
701.033	0.983
709.734	0.976
718.434	0.964
727.134	0.911
735.835	0.807
744.535	0.187
753.235	0.0341
761.936	0.796
770.636	0.926
779.337	0.945
788.037	0.92
796.737	0.948
805.438	0.912
814.138	0.744
822.839	0.3449
831.539	0.934
840.239	0.883
848.94	0.918
857.64	0.972
866.341	0.975
875.041	0.959
883.741	0.991
892.442	0.991
901.142	0.989
909.843	0.987
918.543	0.979
927.243	0.918
935.944	0.915
944.644	0.969
953.344	0.972
962.045	0.961
970.745	0.965
979.446	0.976
988.146	0.976
996.846	0.964
1005.55	0.943
1014.25	0.893
1022.95	0.5709
1031.65	0.897
1040.35	0.859
1049.05	0.1269
1057.75	0.892
1066.45	0.928
1075.15	0.961
1083.85	0.969
1092.55	0.964
1101.25	0.938
1109.95	0.831
1118.65	0.844
1127.35	0.931
1136.05	0.934
1144.75	0.953
1153.45	0.875
1162.15	0.967
1170.85	0.979
1179.55	0.975
1188.26	0.982
1196.96	0.979
1205.66	0.974
1214.36	0.934
1223.06	0.812
1231.76	0.3509
1240.46	0.1661
1249.16	0.827
1257.86	0.601
1266.56	0.5541
1275.26	0.894
1283.96	0.851
1292.66	0.934
1301.36	0.967
1310.06	0.976
1318.76	0.983
1327.46	0.987
1336.16	0.991
1344.86	0.986
1353.56	0.984
1362.26	0.979
1370.96	0.975
1379.66	0.903
1388.36	0.961
1397.06	0.971
1405.76	0.938
1414.47	0.953
1423.17	0.956
1431.87	0.92
1440.57	0.771
1449.27	0.419
1457.97	0.852
1466.67	0.714
1475.37	0.053
1484.07	0.005
1492.77	0.751
1501.47	0.673
1510.17	0.836
1518.87	0.935
1527.57	0.96
1536.27	0.961
1544.97	0.957
1553.67	0.943
1562.37	0.89
1571.07	0.711
1579.77	0.674
1588.47	0.709
1597.17	0.5122
1605.87	0.915
1614.57	0.965
1623.27	0.975
1631.97	0.971
1640.68	0.961
1649.38	0.967
1658.08	0.98
1666.78	0.976
1675.48	0.978
1684.18	0.954
1692.88	0.974
1701.58	0.975
1710.28	0.991
1718.98	0.989
1727.68	0.991
1736.38	0.991
1745.08	0.991
1753.78	0.993
1762.48	0.993
1771.18	0.964
1779.88	0.893
1788.58	0.963
1797.28	0.99
1805.98	0.989
1814.68	0.982
1823.38	0.975
1832.08	0.998
1840.78	0.998
1849.48	0.998
1858.19	0.997
1866.89	0.975
1875.59	0.993
1884.29	0.997
1892.99	0.983
1901.69	0.919
1910.39	0.957
1919.09	0.994
1927.79	0.99
1936.49	0.956
1945.19	0.957
1953.89	0.998
1962.59	1
1971.29	1
1979.99	1.002
1988.69	1.002
1997.39	0.995
2006.09	0.992
2014.79	0.988
2023.49	0.988
2032.19	0.998
2040.89	0.99
2049.59	0.978
2058.29	0.9755
2066.99	0.9865
2075.69	0.9825
2084.4	0.961
2093.1	0.9865
2101.8	0.9835
2110.5	0.9921
2119.2	0.993
2127.9	0.989
2136.6	0.986
2145.3	0.993
2154	0.994
2162.7	0.989
2171.4	0.9905
2180.1	0.993
2188.8	0.993
2197.5	0.993
2206.2	0.9936
2214.9	0.994
2223.6	0.99
2232.3	0.9906
2241	0.987
2249.7	0.9882
2258.4	0.9883
2267.1	0.9784
2275.8	0.9847
2284.5	0.979
2293.2	0.9768
2301.91	0.976
2310.61	0.9673
2319.31	0.9814
2328.01	0.9872
2336.71	0.978
2345.41	0.986
2354.11	0.9794
2362.81	0.983
2371.51	0.984
2380.21	0.987
2388.91	0.9799
2397.61	0.9815
2406.31	0.982
2415.01	0.9832
2423.71	0.99
2432.41	0.99
2441.11	0.99
2449.81	0.989
2458.51	0.9811
2467.21	0.975
2475.91	0.9836
2484.61	0.9834
2493.31	0.978
2502.01	0.9877
2510.71	0.98
2519.41	0.9766
2528.12	0.9853
2536.82	0.989
2545.52	0.9877
2554.22	0.976
2562.92	0.978
2571.62	0.978
2580.32	0.9814
2589.02	0.987
2597.72	0.9897
2606.42	0.991
2615.12	0.9937
2623.82	0.99
2632.52	0.987
2641.22	0.993
2649.92	0.997
2658.62	0.995
2667.32	0.993
2676.02	0.993
2684.72	0.994
2693.42	0.9943
2702.12	0.993
2710.82	0.994
2719.52	0.9916
2728.22	0.9806
2736.92	0.9829
2745.62	0.991
2754.33	0.991
2763.03	0.9937
2771.73	0.997
2780.43	0.997
2789.13	0.9955
2797.83	0.995
2806.53	0.995
2815.23	0.994
2823.93	0.9932
2832.63	0.993
2841.33	0.9902
2850.03	0.987
2858.73	0.9868
2867.43	0.991
2876.13	0.991
2884.83	0.991
2893.53	0.993
2902.23	0.9907
2910.93	0.986
2919.63	0.986
2928.33	0.991
2937.03	0.991
2945.73	0.99
2954.43	0.989
2963.13	0.9898
2971.84	0.987
2980.54	0.987
2989.24	0.9836
2997.94	0.978
3006.64	0.9608
3015.34	0.959
3024.04	0.9496
3032.74	0.9563
3041.44	0.9535
3050.14	0.9241
3058.84	0.898
3067.54	0.878
3076.24	0.8357
3084.94	0.9102
3093.64	0.9627
3102.34	0.9737
3111.04	0.976
3119.74	0.978
3128.44	0.98
3137.14	0.982
3145.84	0.983
3154.54	0.9829
3163.24	0.982
3171.94	0.982
3180.64	0.982
3189.34	0.984
3198.05	0.984
3206.75	0.986
3215.45	0.9869
3224.15	0.987
3232.85	0.9869
3241.55	0.987
3250.25	0.986
3258.95	0.986
3267.65	0.984
3276.35	0.984
3285.05	0.9802
3293.75	0.979
3302.45	0.979
3311.15	0.978
3319.85	0.979
3328.55	0.979
3337.25	0.982
3345.95	0.979
3354.65	0.978
3363.35	0.978
3372.05	0.9762
3380.75	0.976
3389.45	0.9761
3398.15	0.978
3406.85	0.979
3415.56	0.979
3424.26	0.979
3432.96	0.9829
3441.66	0.986
3450.36	0.987
3459.06	0.989
3467.76	0.991
3476.46	0.991
3485.16	0.991
3493.86	0.993
3502.56	0.993
3511.26	0.994
3519.96	0.994
3528.66	0.995
3537.36	0.995
3546.06	0.997
3554.76	0.998
3563.46	0.998
3572.16	1
3580.86	1
3589.56	1
3598.26	1
3606.96	0.997
3615.66	0.997
3624.36	1
3633.06	1
3641.77	1
3650.47	1
3659.17	1
3667.87	0.998
3676.57	0.997
3685.27	0.991
3693.97	1
3702.67	1
3711.37	0.998
3720.07	0.998
3728.77	0.9971
3737.47	1
3746.17	1
