Infrared Spectrum: 2,7-DIMETHYL OCTANE
Formula: C10 H22
CAS: 1072-16-8
State: SOLUTION (10% CCl4 FOR 5000-1330, 10% CS2 FOR 1330-625 CM^-^1)
Class: COBLENTZ
Instrument: Not specified, most likely a prism, grating, or hybrid spectrometer.
Sampling: TRANSMISSION
Path length: 0.01 CM, 0.01 CM
Resolution: 4
Origin: DOW CHEMICAL COMPANY
MICROMETERS	TRANSMITTANCE
2.027	0.852
2.0671	0.852
2.10719	0.857
2.14729	0.862
2.18738	0.863
2.22748	0.843
2.26757	0.822
2.30767	0.822
2.34777	0.84
2.38786	0.845
2.42796	0.85
2.46805	0.862
2.50815	0.88
2.54824	0.88
2.58834	0.88
2.62843	0.882
2.66853	0.885
2.70863	0.893
2.74872	0.897
2.78882	0.898
2.82891	0.898
2.86901	0.898
2.9091	0.893
2.9492	0.892
2.9893	0.892
3.02939	0.898
3.06949	0.892
3.10958	0.867
3.14968	0.868
3.18977	0.88
3.22987	0.872
3.26997	0.84
3.31006	0.744
3.35016	0.365
3.39025	0.029
3.43035	0.041
3.47044	0.094
3.51054	0.315
3.55064	0.759
3.59073	0.835
3.63083	0.847
3.67092	0.848
3.71102	0.88
3.75111	0.88
3.79121	0.87
3.8313	0.89
3.8714	0.906
3.9115	0.925
3.95159	0.926
3.99169	0.941
4.03178	0.943
4.07188	0.945
4.11197	0.945
4.15207	0.945
4.19217	0.945
4.23226	0.943
4.27236	0.938
4.31245	0.931
4.35255	0.93
4.39264	0.948
4.43274	0.955
4.47284	0.96
4.51293	0.96
4.55303	0.958
4.59312	0.958
4.63322	0.958
4.67331	0.961
4.71341	0.963
4.75351	0.965
4.7936	0.965
4.8337	0.965
4.87379	0.963
4.91389	0.961
4.95398	0.961
4.99408	0.961
5.03417	0.963
5.07427	0.963
5.11437	0.966
5.15446	0.97
5.19456	0.97
5.23465	0.968
5.27475	0.961
5.31484	0.961
5.35494	0.96
5.39504	0.958
5.43513	0.958
5.47523	0.958
5.51532	0.96
5.55542	0.963
5.59551	0.961
5.63561	0.96
5.67571	0.958
5.7158	0.958
5.7559	0.946
5.79599	0.933
5.83609	0.893
5.87618	0.901
5.91628	0.91
5.95638	0.931
5.99647	0.938
6.03657	0.941
6.07666	0.921
6.11676	0.916
6.15685	0.9
6.19695	0.86
6.23704	0.785
6.27714	0.719
6.31724	0.682
6.35733	0.644
6.39743	0.573
6.43752	0.521
6.47762	0.546
6.51771	0.657
6.55781	0.697
6.59791	0.734
6.638	0.787
6.6781	0.8
6.71819	0.75
6.75829	0.549
6.79838	0.142
6.83848	0.222
6.87858	0.544
6.91867	0.699
6.95877	0.787
6.99886	0.82
7.03896	0.833
7.07905	0.84
7.11915	0.838
7.15925	0.765
7.19934	0.513
7.23944	0.495
7.27953	0.523
7.31963	0.416
7.35972	0.808
7.39982	0.823
7.43991	0.797
7.48001	0.792
7.52011	0.858
7.5602	0.842
7.6003	0.84
7.64039	0.843
7.68049	0.865
7.72058	0.89
7.76068	0.901
7.80078	0.901
7.84087	0.903
7.88097	0.905
7.92106	0.91
7.96116	0.92
8.00125	0.938
8.04135	0.943
8.08145	0.94
8.12154	0.926
8.16164	0.928
8.20173	0.936
8.24183	0.935
8.28192	0.908
8.32202	0.897
8.36212	0.913
8.40221	0.925
8.44231	0.91
8.4824	0.853
8.5225	0.765
8.56259	0.755
8.60269	0.837
8.64278	0.877
8.68288	0.887
8.72298	0.901
8.76307	0.906
8.80317	0.938
8.84326	0.958
8.88336	0.965
8.92345	0.966
8.96355	0.966
9.00365	0.963
9.04374	0.948
9.08384	0.946
9.12393	0.948
9.16403	0.953
9.20412	0.963
9.24422	0.965
9.28432	0.965
9.32441	0.963
9.36451	0.953
9.4046	0.951
9.4447	0.956
9.48479	0.963
9.52489	0.966
9.56498	0.97
9.60508	0.973
9.64518	0.973
9.68527	0.973
9.72537	0.976
9.76546	0.983
9.80556	0.988
9.84565	0.993
9.88575	0.996
9.92585	0.998
9.96594	1
10.006	1
10.0461	0.998
10.0862	1
10.1263	0.998
10.1664	0.995
10.2065	0.988
10.2466	0.978
10.2867	0.968
10.3268	0.956
10.3669	0.953
10.407	0.953
10.4471	0.95
10.4872	0.95
10.5273	0.948
10.5674	0.948
10.6075	0.948
10.6476	0.953
10.6877	0.955
10.7278	0.955
10.7679	0.951
10.808	0.943
10.848	0.915
10.8881	0.883
10.9282	0.883
10.9683	0.923
11.0084	0.95
11.0485	0.956
11.0886	0.958
11.1287	0.958
11.1688	0.956
11.2089	0.95
11.249	0.94
11.2891	0.92
11.3292	0.898
11.3693	0.888
11.4094	0.872
11.4495	0.85
11.4896	0.845
11.5297	0.837
11.5698	0.828
11.6099	0.818
11.65	0.808
11.6901	0.805
11.7302	0.81
11.7702	0.827
11.8103	0.857
11.8504	0.882
11.8905	0.898
11.9306	0.908
11.9707	0.913
12.0108	0.916
12.0509	0.92
12.091	0.926
12.1311	0.931
12.1712	0.931
12.2113	0.928
12.2514	0.926
12.2915	0.926
12.3316	0.93
12.3717	0.936
12.4118	0.945
12.4519	0.948
12.492	0.948
12.5321	0.946
12.5722	0.941
12.6123	0.936
12.6524	0.935
12.6924	0.933
12.7325	0.933
12.7726	0.93
12.8127	0.926
12.8528	0.921
12.8929	0.911
12.933	0.906
12.9731	0.897
13.0132	0.892
13.0533	0.89
13.0934	0.89
13.1335	0.892
13.1736	0.895
13.2137	0.897
13.2538	0.897
13.2939	0.897
13.334	0.89
13.3741	0.885
13.4142	0.878
13.4543	0.872
13.4944	0.857
13.5345	0.848
13.5746	0.83
13.6146	0.815
13.6547	0.797
13.6948	0.78
13.7349	0.755
13.775	0.74
13.8151	0.74
13.8552	0.752
13.8953	0.769
13.9354	0.779
13.9755	0.782
14.0156	0.785
14.0557	0.784
14.0958	0.782
14.1359	0.779
14.176	0.772
14.2161	0.767
14.2562	0.762
14.2963	0.755
14.3364	0.75
14.3765	0.745
14.4166	0.735
14.4567	0.73
14.4968	0.722
14.5368	0.715
14.5769	0.705
14.617	0.699
14.6571	0.692
14.6972	0.681
14.7373	0.674
14.7774	0.659
14.8175	0.654
14.8576	0.647
14.8977	0.642
14.9378	0.637
14.9779	0.627
15.018	0.609
15.0581	0.598
15.0982	0.588
15.1383	0.576
15.1784	0.568
15.2185	0.561
15.2586	0.553
15.2987	0.546
15.3388	0.541
15.3789	0.536
15.419	0.529
15.459	0.524
15.4991	0.518
15.5392	0.513
15.5793	0.508
15.6194	0.503
15.6595	0.5
15.6996	0.495
15.7397	0.491
15.7798	0.49
15.8199	0.485
15.86	0.483
15.9001	0.485
