Infrared Spectrum: BENZENE, 4-CHLORO-1-ETHENYL-
Formula: C8 H7 Cl
CAS: 1073-67-2
State: SOLUTION (2.5% IN CCl4 FOR 3800-1333 AND 2.5% IN CS2 FOR 1333-460 CM^-^1)
Class: COBLENTZ III
Instrument: DOW KBr FOREPRISM-GRATING
Instrument parameters: BLAZED AT 3.5, 12.0, 20.0 MICRON, CHANGED AT 5.0, 7.5, 14.9 MICRON
Sampling: TRANSMISSION
Path length: 0.011, 0.011 CM
Resolution: 4
Origin: DOW CHEMICAL COMPANY
1/CM	TRANSMITTANCE
459.034	0.781
467.716	0.78
476.397	0.839
485.079	0.88
493.76	0.894
502.442	0.894
511.123	0.905
519.805	0.933
528.486	0.947
537.168	0.956
545.849	0.956
554.531	0.956
563.212	0.959
571.894	0.959
580.575	0.957
589.257	0.959
597.938	0.959
606.62	0.957
615.301	0.955
623.983	0.933
632.664	0.915
641.346	0.915
650.028	0.909
658.709	0.914
667.391	0.94
676.072	0.956
684.754	0.963
693.435	0.963
702.117	0.964
710.798	0.964
719.48	0.945
728.161	0.956
736.843	0.971
745.524	0.975
754.206	0.972
762.887	0.972
771.569	0.963
780.25	0.892
788.932	0.918
797.613	0.949
806.295	0.933
814.976	0.884
823.658	0.5819
832.339	0.691
841.021	0.823
849.703	0.788
858.384	0.815
867.066	0.85
875.747	0.877
884.429	0.909
893.11	0.88
901.792	0.515
910.473	0.843
919.155	0.937
927.836	0.956
936.518	0.957
945.199	0.966
953.881	0.966
962.562	0.966
971.244	0.934
979.925	0.618
988.607	0.899
997.288	0.953
1005.97	0.913
1014.65	0.93
1023.33	0.947
1032.01	0.972
1040.7	0.976
1049.38	0.978
1058.06	0.976
1066.74	0.963
1075.42	0.933
1084.1	0.66
1092.79	0.655
1101.47	0.891
1110.15	0.921
1118.83	0.962
1127.51	0.97
1136.19	0.981
1144.87	0.986
1153.56	0.987
1162.24	0.987
1170.92	0.972
1179.6	0.981
1188.28	0.99
1196.96	0.983
1205.64	0.993
1214.33	0.997
1223.01	0.993
1231.69	0.995
1240.37	0.993
1249.05	0.99
1257.73	0.983
1266.42	0.967
1275.1	0.981
1283.78	0.978
1292.46	0.971
1301.14	0.981
1309.82	0.967
1318.5	0.979
1327.19	0.986
1335.87	0.985
1344.55	0.985
1353.23	0.981
1361.91	0.987
1370.59	0.989
1379.28	0.99
1387.96	0.979
1396.64	0.819
1405.32	0.934
1414	0.966
1422.68	0.951
1431.36	0.975
1440.05	0.971
1448.73	0.964
1457.41	0.955
1466.09	0.943
1474.77	0.924
1483.45	0.797
1492.14	0.1965
1500.82	0.814
1509.5	0.776
1518.18	0.736
1526.86	0.682
1535.54	0.602
1544.22	0.512
1552.91	0.525
1561.59	0.607
1570.27	0.677
1578.95	0.693
1587.63	0.724
1596.31	0.795
1605	0.894
1613.68	0.934
1622.36	0.899
1631.04	0.933
1639.72	0.96
1648.4	0.949
1657.08	0.972
1665.77	0.979
1674.45	0.981
1683.13	0.979
1691.81	0.978
1700.49	0.972
1709.17	0.964
1717.85	0.967
1726.54	0.968
1735.22	0.97
1743.9	0.975
1752.58	0.978
1761.26	0.966
1769.94	0.974
1778.63	0.981
1787.31	0.981
1795.99	0.976
1804.67	0.963
1813.35	0.94
1822.03	0.96
1830.71	0.976
1839.4	0.981
1848.08	0.981
1856.76	0.985
1865.44	0.985
1874.12	0.978
1882.8	0.936
1891.49	0.981
1900.17	0.989
1908.85	0.99
1917.53	0.991
1926.21	0.99
1934.89	0.99
1943.57	0.989
1952.26	0.985
1960.94	0.987
1969.62	0.987
1978.3	0.987
1986.98	0.987
1995.66	0.99
2004.35	0.99
2013.03	0.989
2021.71	0.99
2030.39	0.9896
2039.07	0.99
2047.75	0.99
2056.43	0.99
2065.12	0.989
2073.8	0.99
2082.48	0.9904
2091.16	0.991
2099.84	0.99
2108.52	0.99
2117.2	0.99
2125.89	0.99
2134.57	0.99
2143.25	0.9897
2151.93	0.989
2160.61	0.989
2169.29	0.9885
2177.98	0.9848
2186.66	0.987
2195.34	0.987
2204.02	0.987
2212.7	0.986
2221.38	0.985
2230.06	0.9828
2238.75	0.982
2247.43	0.981
2256.11	0.979
2264.79	0.9747
2273.47	0.9698
2282.15	0.9658
2290.84	0.9518
2299.52	0.9511
2308.2	0.9571
2316.88	0.962
2325.56	0.967
2334.24	0.971
2342.92	0.976
2351.61	0.978
2360.29	0.9779
2368.97	0.981
2377.65	0.979
2386.33	0.976
2395.01	0.974
2403.7	0.974
2412.38	0.972
2421.06	0.9737
2429.74	0.972
2438.42	0.974
2447.1	0.974
2455.78	0.974
2464.47	0.974
2473.15	0.971
2481.83	0.971
2490.51	0.9705
2499.19	0.97
2507.87	0.9703
2516.56	0.97
2525.24	0.968
2533.92	0.968
2542.6	0.968
2551.28	0.968
2559.96	0.967
2568.64	0.9664
2577.33	0.9636
2586.01	0.964
2594.69	0.964
2603.37	0.964
2612.05	0.964
2620.73	0.964
2629.41	0.964
2638.1	0.9649
2646.78	0.963
2655.46	0.963
2664.14	0.962
2672.82	0.962
2681.5	0.9625
2690.19	0.96
2698.87	0.96
2707.55	0.96
2716.23	0.9596
2724.91	0.959
2733.59	0.959
2742.27	0.957
2750.96	0.959
2759.64	0.9583
2768.32	0.956
2777	0.955
2785.68	0.956
2794.36	0.956
2803.05	0.956
2811.73	0.956
2820.41	0.956
2829.09	0.953
2837.77	0.952
2846.45	0.952
2855.13	0.949
2863.82	0.947
2872.5	0.947
2881.18	0.948
2889.86	0.947
2898.54	0.9467
2907.22	0.9439
2915.91	0.943
2924.59	0.936
2933.27	0.9331
2941.95	0.933
2950.63	0.9329
2959.31	0.9249
2967.99	0.9168
2976.68	0.9031
2985.36	0.91
2994.04	0.9001
3002.72	0.899
3011.4	0.8909
3020.08	0.91
3028.76	0.8921
3037.45	0.894
3046.13	0.8998
3054.81	0.909
3063.49	0.894
3072.17	0.8954
3080.85	0.8768
3089.54	0.8619
3098.22	0.9076
3106.9	0.933
3115.58	0.934
3124.26	0.936
3132.94	0.9362
3141.62	0.938
3150.31	0.9378
3158.99	0.9372
3167.67	0.9395
3176.35	0.94
3185.03	0.941
3193.71	0.9403
3202.4	0.94
3211.08	0.94
3219.76	0.941
3228.44	0.94
3237.12	0.943
3245.8	0.941
3254.48	0.9423
3263.17	0.943
3271.85	0.943
3280.53	0.944
3289.21	0.9446
3297.89	0.9446
3306.57	0.9446
3315.26	0.945
3323.94	0.947
3332.62	0.948
3341.3	0.947
3349.98	0.947
3358.66	0.947
3367.34	0.948
3376.03	0.948
3384.71	0.9474
3393.39	0.948
3402.07	0.948
3410.75	0.948
3419.43	0.949
3428.11	0.949
3436.8	0.949
3445.48	0.951
3454.16	0.951
3462.84	0.952
3471.52	0.952
3480.2	0.952
3488.89	0.9513
3497.57	0.952
3506.25	0.952
3514.93	0.953
3523.61	0.953
3532.29	0.953
3540.97	0.953
3549.66	0.953
3558.34	0.955
3567.02	0.9552
3575.7	0.955
3584.38	0.955
3593.06	0.956
3601.75	0.9569
3610.43	0.956
3619.11	0.955
3627.79	0.955
3636.47	0.955
3645.15	0.956
3653.83	0.955
3662.52	0.952
3671.2	0.951
3679.88	0.956
3688.56	0.953
3697.24	0.956
3705.92	0.956
3714.61	0.957
3723.29	0.956
3731.97	0.955
3740.65	0.956
3749.33	0.9569
3758.01	0.955
3766.69	0.956
3775.38	0.9551
3784.06	0.9533
