Infrared Spectrum: Phosphonous dibromide, phenyl-
Formula: C6 H5 Br2 P
CAS: 1073-47-8
State: SOLUTION (10% CCl4 FOR 3800-1340, 10% CS2 FOR 1340-460 CM^-^1)
Class: COBLENTZ III
Instrument: DOW KBr FOREPRISM-GRATING
Instrument parameters: BLAZED AT 3.5, 12.0, 20.0 MICRON AND CHANGED AT 5.0, 7.5, 14.9 MICRON
Sampling: TRANSMISSION
Path length: 0.011 CM, 0.011 CM
Resolution: 2
Origin: DOW CHEMICAL COMPANY
1/CM	TRANSMITTANCE
3796	0.9319
3787	0.9323
3778	0.9323
3769	0.9321
3760	0.9321
3751	0.9306
3742	0.9302
3733	0.9302
3724	0.9321
3715	0.9316
3706	0.9327
3697	0.9322
3688	0.9306
3679	0.9292
3670	0.9308
3661	0.9296
3652	0.93
3643	0.9302
3634	0.9306
3625	0.9327
3616	0.9333
3607	0.934
3598	0.9341
3589	0.9343
3580	0.9293
3571	0.928
3562	0.9297
3553	0.9298
3544	0.9302
3535	0.9306
3526	0.9285
3517	0.9279
3508	0.9275
3499	0.927
3490	0.9266
3481	0.9262
3472	0.9258
3463	0.9255
3454	0.9252
3445	0.9248
3436	0.9246
3427	0.9242
3418	0.924
3409	0.9235
3400	0.9233
3391	0.9229
3382	0.9225
3373	0.9221
3364	0.9218
3355	0.9215
3346	0.9211
3337	0.9223
3328	0.9204
3319	0.9198
3310	0.9208
3301	0.9185
3292	0.9179
3283	0.9182
3274	0.9159
3265	0.9135
3256	0.9099
3247	0.9088
3238	0.9064
3229	0.9039
3220	0.9015
3211	0.899
3202	0.8948
3193	0.8938
3184	0.889
3175	0.8857
3166	0.8816
3157	0.8783
3148	0.8738
3139	0.8756
3130	0.8779
3121	0.88
3112	0.8814
3103	0.8819
3094	0.8825
3085	0.7975
3076	0.767
3067	0.779
3058	0.7339
3049	0.8101
3040	0.8502
3031	0.8559
3022	0.8623
3013	0.8624
3004	0.8518
2995	0.8598
2986	0.8717
2977	0.8748
2968	0.8791
2959	0.88
2950	0.8791
2941	0.8773
2932	0.8763
2923	0.877
2914	0.8775
2905	0.8809
2896	0.8826
2887	0.8839
2878	0.8838
2869	0.8838
2860	0.8832
2851	0.8807
2842	0.8817
2833	0.8801
2824	0.8809
2815	0.8818
2806	0.8841
2797	0.8848
2788	0.8838
2779	0.886
2770	0.8866
2761	0.8872
2752	0.8876
2743	0.8879
2734	0.8883
2725	0.8886
2716	0.889
2707	0.8893
2698	0.8893
2689	0.8887
2680	0.8869
2671	0.8846
2662	0.8821
2653	0.884
2644	0.8822
2635	0.8818
2626	0.8832
2617	0.8832
2608	0.8833
2599	0.8836
2590	0.8836
2581	0.8836
2572	0.8841
2563	0.8846
2554	0.8851
2545	0.8853
2536	0.8852
2527	0.8851
2518	0.8849
2509	0.8843
2500	0.8839
2491	0.8837
2482	0.8834
2473	0.8847
2464	0.8842
2455	0.8819
2446	0.8829
2437	0.8813
2428	0.8795
2419	0.8768
2410	0.8741
2401	0.8735
2392	0.874
2383	0.8798
2374	0.8882
2365	0.8898
2356	0.8956
2347	0.8981
2338	0.8959
2329	0.8959
2320	0.8943
2311	0.8853
2302	0.8756
2293	0.8696
2284	0.8635
2275	0.8604
2266	0.8609
2257	0.8595
2248	0.8581
2239	0.8578
2230	0.8574
2221	0.8563
2212	0.857
2203	0.8571
2194	0.8572
2185	0.8557
2176	0.8573
2167	0.8564
2158	0.8571
2149	0.8578
2140	0.8585
2131	0.8588
2122	0.8579
2113	0.8595
2104	0.8599
2095	0.8598
2086	0.8596
2077	0.8594
2068	0.8595
2059	0.8597
2050	0.8613
2041	0.8598
2032	0.8597
2023	0.8602
2014	0.8595
2005	0.8585
1996	0.8516
1987	0.8527
1978	0.837
1969	0.8444
1960	0.8514
1951	0.8283
1942	0.8495
1933	0.8529
1924	0.8544
1915	0.8506
1906	0.8316
1897	0.8422
1888	0.8203
1879	0.8301
1870	0.8457
1861	0.8449
1852	0.8448
1843	0.8442
1834	0.8362
1825	0.8305
1816	0.8319
1807	0.7977
1798	0.8092
1789	0.8283
1780	0.8317
1771	0.8242
1762	0.8193
1753	0.816
1744	0.8219
1735	0.8216
1726	0.823
1717	0.8244
1708	0.8249
1699	0.8256
1690	0.8263
1681	0.8267
1672	0.8275
1663	0.8077
1654	0.8118
1645	0.8229
1636	0.8245
1627	0.8258
1618	0.8257
1609	0.8391
1600	0.8275
1591	0.8053
1582	0.7625
1573	0.7903
1564	0.778
1555	0.7852
1546	0.8092
1537	0.8247
1528	0.8103
1519	0.821
1510	0.8285
1501	0.8267
1492	0.8142
1483	0.7306
1474	0.7933
1465	0.7928
1456	0.8086
1447	0.8044
1438	0.2194
1429	0.7434
1420	0.8016
1411	0.8053
1402	0.8134
1393	0.8192
1384	0.8645
1375	0.8172
1366	0.8239
1357	0.8255
1348	0.8203
1339	0.7949
1330	0.7079
1321	0.7675
1312	0.7551
1303	0.7276
1294	0.7426
1285	0.7733
1276	0.7623
1267	0.7619
1258	0.7568
1249	0.7745
1240	0.7719
1231	0.7709
1222	0.7695
1213	0.7683
1204	0.7645
1195	0.756
1186	0.7395
1177	0.711
1168	0.7441
1159	0.7394
1150	0.7359
1141	0.7456
1132	0.7538
1123	0.7472
1114	0.726
1105	0.6364
1096	0.6071
1087	0.6264
1078	0.4441
1069	0.6871
1060	0.6712
1051	0.7416
1042	0.7496
1033	0.7471
1024	0.7136
1015	0.749
1006	0.7547
997	0.5161
988	0.7531
979	0.753
970	0.7498
961	0.7475
952	0.7438
943	0.7604
934	0.7657
925	0.7646
916	0.749
907	0.7587
898	0.7765
889	0.7779
880	0.7816
871	0.7782
862	0.7809
853	0.7681
844	0.7367
835	0.7461
826	0.7732
817	0.7927
808	0.797
799	0.789
790	0.7894
781	0.791
772	0.7903
763	0.7664
754	0.7608
745	0.6066
736	0.4191
727	0.6785
718	0.7574
709	0.7324
700	0.5833
691	0.3985
682	0.4599
673	0.6425
664	0.7437
655	0.7834
646	0.7876
637	0.7876
628	0.7872
619	0.7832
610	0.7812
601	0.7848
592	0.7882
583	0.7902
574	0.7889
565	0.784
556	0.7764
547	0.7659
538	0.7579
529	0.7549
520	0.754
511	0.7338
502	0.7159
493	0.6939
484	0.5989
475	0.3176
466	0.432
