Infrared Spectrum: 1-BROMO-3-FLUOROBENZENE
Formula: C6 H4 Br F
CAS: 1073-06-9
State: SOLUTION (10% IN CCl4 FOR 5000-1350 CM^-^1, 10% IN CS2 FOR 1350-625 CM^-^1)
Class: COBLENTZ
Instrument: Not specified, most likely a prism, grating, or hybrid spectrometer.
Sampling: TRANSMISSION
Path length: 0.01 CM, 0.01 CM
Resolution: 4
Origin: DOW CHEMICAL COMPANY
MICROMETERS	TRANSMITTANCE
2.071	0.861
2.11024	0.856
2.14947	0.863
2.18871	0.868
2.22795	0.868
2.26718	0.868
2.30642	0.868
2.34566	0.873
2.38489	0.873
2.42413	0.873
2.46337	0.878
2.5026	0.879
2.54184	0.879
2.58107	0.882
2.62031	0.884
2.65955	0.884
2.69878	0.884
2.73802	0.887
2.77726	0.878
2.81649	0.876
2.85573	0.879
2.89497	0.874
2.9342	0.873
2.97344	0.878
3.01268	0.879
3.05191	0.879
3.09115	0.886
3.13039	0.879
3.16962	0.881
3.20886	0.858
3.2481	0.83
3.28733	0.886
3.32657	0.894
3.3658	0.899
3.40504	0.897
3.44428	0.902
3.48351	0.9
3.52275	0.908
3.56199	0.908
3.60122	0.913
3.64046	0.91
3.6797	0.905
3.71893	0.907
3.75817	0.92
3.79741	0.921
3.83664	0.921
3.87588	0.921
3.91512	0.925
3.95435	0.923
3.99359	0.92
4.03283	0.917
4.07206	0.912
4.1113	0.925
4.15053	0.933
4.18977	0.933
4.22901	0.913
4.26824	0.904
4.30748	0.907
4.34672	0.913
4.38595	0.923
4.42519	0.934
4.46443	0.943
4.50366	0.944
4.5429	0.946
4.58214	0.946
4.62137	0.944
4.66061	0.943
4.69985	0.938
4.73908	0.944
4.77832	0.941
4.81756	0.915
4.85679	0.933
4.89603	0.944
4.93527	0.939
4.9745	0.936
5.01374	0.943
5.05297	0.943
5.09221	0.944
5.13145	0.931
5.17068	0.891
5.20992	0.928
5.24916	0.941
5.28839	0.939
5.32763	0.933
5.36687	0.905
5.4061	0.905
5.44534	0.926
5.48458	0.934
5.52381	0.941
5.56305	0.939
5.60229	0.928
5.64152	0.91
5.68076	0.92
5.72	0.902
5.75923	0.899
5.79847	0.879
5.8377	0.889
5.87694	0.91
5.91618	0.913
5.95541	0.891
5.99465	0.881
6.03389	0.874
6.07312	0.874
6.11236	0.861
6.1516	0.8
6.19083	0.598
6.23007	0.234
6.26931	0.092
6.30854	0.308
6.34778	0.4
6.38702	0.456
6.42625	0.458
6.46549	0.521
6.50473	0.588
6.54396	0.588
6.5832	0.619
6.62244	0.726
6.66167	0.734
6.70091	0.634
6.74014	0.364
6.77938	0.304
6.81862	0.785
6.85785	0.858
6.89709	0.762
6.93633	0.533
6.97556	0.411
7.0148	0.671
7.05404	0.736
7.09327	0.798
7.13251	0.869
7.17175	0.884
7.21098	0.9
7.25022	0.907
7.28946	0.91
7.32869	0.918
7.36793	0.921
7.40717	0.908
7.4464	0.86
7.48564	0.881
7.52487	0.904
7.56411	0.905
7.60335	0.895
7.64258	0.855
7.68182	0.801
7.72106	0.79
7.76029	0.832
7.79953	0.84
7.83877	0.684
7.878	0.36
7.91724	0.705
7.95648	0.848
7.99571	0.868
8.03495	0.84
8.07419	0.72
8.11342	0.51
8.15266	0.313
8.1919	0.157
8.23113	0.435
8.27037	0.695
8.3096	0.832
8.34884	0.866
8.38808	0.869
8.42731	0.879
8.46655	0.882
8.50579	0.871
8.54502	0.858
8.58426	0.785
8.6235	0.665
8.66273	0.744
8.70197	0.855
8.74121	0.868
8.78044	0.869
8.81968	0.873
8.85892	0.869
8.89815	0.865
8.93739	0.861
8.97663	0.856
9.01586	0.858
9.0551	0.868
9.09434	0.868
9.13357	0.858
9.17281	0.835
9.21204	0.734
9.25128	0.66
9.29052	0.821
9.32975	0.843
9.36899	0.814
9.40823	0.671
9.44746	0.458
9.4867	0.704
9.52594	0.861
9.56517	0.879
9.60441	0.887
9.64365	0.897
9.68288	0.902
9.72212	0.904
9.76136	0.907
9.80059	0.904
9.83983	0.9
9.87907	0.895
9.9183	0.809
9.95754	0.695
9.99677	0.845
10.036	0.886
10.0752	0.899
10.1145	0.918
10.1537	0.934
10.193	0.939
10.2322	0.931
10.2714	0.931
10.3107	0.921
10.3499	0.904
10.3891	0.917
10.4284	0.939
10.4676	0.943
10.5068	0.947
10.5461	0.951
10.5853	0.949
10.6246	0.947
10.6638	0.943
10.703	0.938
10.7423	0.933
10.7815	0.928
10.8207	0.918
10.86	0.91
10.8992	0.902
10.9385	0.894
10.9777	0.889
11.0169	0.878
11.0562	0.871
11.0954	0.856
11.1346	0.84
11.1739	0.803
11.2131	0.744
11.2523	0.645
11.2916	0.534
11.3308	0.523
11.3701	0.554
11.4093	0.533
11.4485	0.445
11.4878	0.338
11.527	0.269
11.5662	0.156
11.6055	0.022
11.6447	0
11.6839	0.052
11.7232	0.216
11.7624	0.424
11.8017	0.6
11.8409	0.676
11.8801	0.723
11.9194	0.757
11.9586	0.767
11.9978	0.78
12.0371	0.785
12.0763	0.786
12.1155	0.78
12.1548	0.78
12.194	0.783
12.2333	0.786
12.2725	0.79
12.3117	0.79
12.351	0.786
12.3902	0.785
12.4294	0.777
12.4687	0.767
12.5079	0.756
12.5471	0.749
12.5864	0.746
12.6256	0.734
12.6649	0.717
12.7041	0.687
12.7433	0.63
12.7826	0.536
12.8218	0.406
12.861	0.235
12.9003	0.079
12.9395	0.017
12.9787	0.099
13.018	0.385
13.0572	0.58
13.0965	0.665
13.1357	0.708
13.1749	0.741
13.2142	0.762
13.2534	0.773
13.2926	0.778
13.3319	0.783
13.3711	0.786
13.4104	0.788
13.4496	0.79
13.4888	0.79
13.5281	0.79
13.5673	0.79
13.6065	0.79
13.6458	0.79
13.685	0.785
13.7242	0.782
13.7635	0.78
13.8027	0.777
13.842	0.772
13.8812	0.767
13.9204	0.762
13.9597	0.76
13.9989	0.756
14.0381	0.751
14.0774	0.749
14.1166	0.743
14.1558	0.741
14.1951	0.736
14.2343	0.73
14.2736	0.723
14.3128	0.717
14.352	0.708
14.3913	0.7
14.4305	0.689
14.4697	0.681
14.509	0.668
14.5482	0.652
14.5874	0.632
14.6267	0.601
14.6659	0.559
14.7052	0.502
14.7444	0.419
14.7836	0.315
14.8229	0.206
14.8621	0.141
14.9013	0.13
14.9406	0.211
14.9798	0.328
15.019	0.375
15.0583	0.404
15.0975	0.45
15.1368	0.478
15.176	0.492
15.2152	0.497
15.2545	0.499
15.2937	0.499
15.3329	0.495
15.3722	0.492
15.4114	0.491
15.4506	0.487
15.4899	0.484
15.5291	0.479
15.5684	0.473
15.6076	0.465
15.6468	0.46
15.6861	0.452
15.7253	0.448
15.7645	0.442
15.8038	0.439
15.843	0.435
15.8823	0.439
15.9215	0.452
15.9607	0.471
16	0.461
