Infrared Spectrum: 1-METHYL-4-N-PROPYL BENZENE
Formula: C10 H14
CAS: 1074-55-1
State: LIQUID
Class: COBLENTZ
Instrument: PERKIN-ELMER
Sampling: TRANSMISSION
Path length: 0.0024 CM
Resolution: 4
Origin: STANDARD OIL OF OHIO
1/CM	TRANSMITTANCE
594.488	0.649
602.924	0.608
611.361	0.608
619.797	0.615
628.234	0.63
636.67	0.644
645.107	0.676
653.543	0.705
661.98	0.728
670.416	0.757
678.853	0.774
687.289	0.798
695.726	0.789
704.162	0.798
712.599	0.769
721.035	0.8229
729.472	0.818
737.908	0.7551
746.344	0.676
754.781	0.6955
763.217	0.789
771.654	0.7451
780.09	0.374
788.527	0.4652
796.963	0.3
805.4	0.0792
813.836	0.383
822.273	0.5806
830.709	0.661
839.146	0.413
847.582	0.744
856.019	0.822
864.455	0.779
872.892	0.825
881.328	0.859
889.765	0.84
898.201	0.859
906.637	0.884
915.074	0.898
923.51	0.898
931.947	0.886
940.383	0.869
948.82	0.889
957.256	0.879
965.693	0.888
974.129	0.893
982.566	0.889
991.002	0.893
999.439	0.884
1007.88	0.874
1016.31	0.808
1024.75	0.7157
1033.18	0.722
1041.62	0.696
1050.06	0.766
1058.49	0.793
1066.93	0.798
1075.37	0.805
1083.8	0.786
1092.24	0.749
1100.68	0.761
1109.11	0.6772
1117.55	0.52
1125.99	0.7667
1134.42	0.866
1142.86	0.889
1151.3	0.894
1159.73	0.893
1168.17	0.886
1176.6	0.857
1185.04	0.864
1193.48	0.861
1201.91	0.844
1210.35	0.762
1218.79	0.85
1227.22	0.866
1235.66	0.847
1244.1	0.847
1252.53	0.835
1260.97	0.847
1269.41	0.857
1277.84	0.847
1286.28	0.85
1294.72	0.862
1303.15	0.85
1311.59	0.835
1320.02	0.823
1328.46	0.7861
1336.9	0.708
1345.33	0.7979
1353.77	0.798
1362.21	0.7471
1370.64	0.464
1379.08	0.6518
1387.52	0.757
1395.95	0.747
1404.39	0.664
1412.83	0.611
1421.26	0.596
1429.7	0.579
1438.14	0.4569
1446.57	0.349
1455.01	0.289
1463.44	0.301
1471.88	0.5591
1480.32	0.6489
1488.75	0.7
1497.19	0.6671
1505.63	0.3539
1514.06	0.1273
1522.5	0.5281
1530.94	0.7789
1539.37	0.872
1547.81	0.879
1556.25	0.898
1564.68	0.9
1573.12	0.883
1581.56	0.877
1589.99	0.905
1598.43	0.908
1606.86	0.898
1615.3	0.872
1623.74	0.881
1632.17	0.859
1640.61	0.861
1649.05	0.913
1657.48	0.92
1665.92	0.915
1674.36	0.922
1682.79	0.932
1691.23	0.937
1699.67	0.937
1708.1	0.94
1716.54	0.938
1724.98	0.938
1733.41	0.935
1741.85	0.937
1750.28	0.938
1758.72	0.937
1767.16	0.935
1775.59	0.928
1784.03	0.905
1792.47	0.862
1800.9	0.9099
1809.34	0.944
1817.78	0.947
1826.21	0.947
1834.65	0.945
1843.09	0.942
1851.52	0.94
1859.96	0.937
1868.4	0.925
1876.83	0.91
1885.27	0.8691
1893.7	0.737
1902.14	0.7929
1910.58	0.922
1919.01	0.935
1927.45	0.94
1935.89	0.947
1944.32	0.947
1952.76	0.942
1961.2	0.94
1969.63	0.949
1978.07	0.947
1986.51	0.947
1994.94	0.942
2003.38	0.949
2011.82	0.95
2020.25	0.95
2028.69	0.949
2037.12	0.947
2045.56	0.949
2054	0.949
2062.43	0.949
2070.87	0.947
2079.31	0.947
2087.74	0.947
2096.18	0.947
2104.62	0.949
2113.05	0.947
2121.49	0.947
2129.93	0.947
2138.36	0.947
2146.8	0.947
2155.24	0.947
2163.67	0.945
2172.11	0.945
2180.54	0.945
2188.98	0.947
2197.42	0.947
2205.85	0.947
2214.29	0.947
2222.73	0.947
2231.16	0.947
2239.6	0.947
2248.04	0.945
2256.47	0.945
2264.91	0.944
2273.35	0.942
2281.78	0.942
2290.22	0.9381
2298.66	0.9252
2307.09	0.9229
2315.53	0.935
2323.96	0.935
2332.4	0.9369
2340.84	0.937
2349.27	0.937
2357.71	0.937
2366.15	0.9379
2374.58	0.94
2383.02	0.94
2391.46	0.94
2399.89	0.937
2408.33	0.933
2416.77	0.9369
2425.2	0.937
2433.64	0.937
2442.08	0.938
2450.51	0.94
2458.95	0.94
2467.38	0.94
2475.82	0.94
2484.26	0.94
2492.69	0.944
2501.13	0.9383
2509.57	0.937
2518	0.9352
2526.44	0.932
2534.88	0.933
2543.31	0.935
2551.75	0.933
2560.19	0.932
2568.62	0.93
2577.06	0.9252
2585.5	0.9182
2593.93	0.9109
2602.37	0.9227
2610.8	0.922
2619.24	0.92
2627.68	0.92
2636.11	0.918
2644.55	0.918
2652.99	0.918
2661.42	0.91
2669.86	0.8983
2678.3	0.9077
2686.73	0.918
2695.17	0.9162
2703.61	0.908
2712.04	0.8918
2720.48	0.8814
2728.92	0.839
2737.35	0.8109
2745.79	0.8867
2754.22	0.898
2762.66	0.898
2771.1	0.8864
2779.53	0.8725
2787.97	0.8593
2796.41	0.8491
2804.84	0.8271
2813.28	0.7922
2821.72	0.7477
2830.15	0.6772
2838.59	0.5828
2847.03	0.3999
2855.46	0.2331
2863.9	0.1531
2872.34	0.1045
2880.77	0.1676
2889.21	0.277
2897.64	0.2459
2906.08	0.1898
2914.52	0.1162
2922.95	0.0553
2931.39	0.0448
2939.83	0.0515
2948.26	0.093
2956.7	0.0564
2965.14	0.045
2973.57	0.0595
2982.01	0.2227
2990.45	0.3294
2998.88	0.3269
3007.32	0.2615
3015.76	0.277
3024.19	0.2461
3032.63	0.3828
3041.06	0.4284
3049.5	0.3519
3057.94	0.4609
3066.37	0.6506
3074.81	0.7407
3083.25	0.7454
3091.68	0.7095
3100.12	0.7277
3108.56	0.8494
3116.99	0.872
3125.43	0.869
3133.87	0.855
3142.3	0.8743
3150.74	0.9024
3159.18	0.91
3167.61	0.9176
3176.05	0.92
3184.48	0.92
3192.92	0.92
3201.36	0.92
3209.79	0.9246
3218.23	0.9278
3226.67	0.93
3235.1	0.932
3243.54	0.932
3251.98	0.932
3260.41	0.932
3268.85	0.932
3277.29	0.932
3285.72	0.933
3294.16	0.933
3302.6	0.933
3311.03	0.933
3319.47	0.935
3327.9	0.933
3336.34	0.933
3344.78	0.9322
3353.21	0.932
3361.65	0.932
3370.09	0.932
3378.52	0.932
3386.96	0.932
3395.4	0.932
3403.83	0.932
3412.27	0.932
3420.71	0.93
3429.14	0.928
3437.58	0.928
3446.02	0.928
3454.45	0.927
3462.89	0.927
3471.32	0.927
3479.76	0.925
3488.2	0.925
3496.63	0.925
3505.07	0.925
3513.51	0.927
3521.94	0.927
3530.38	0.9277
3538.82	0.93
3547.25	0.932
3555.69	0.932
3564.13	0.93
3572.56	0.93
3581	0.927
3589.44	0.928
3597.87	0.928
3606.31	0.9273
3614.74	0.927
3623.18	0.927
3631.62	0.927
3640.05	0.923
3648.49	0.916
3656.93	0.915
3665.36	0.9194
3673.8	0.92
3682.24	0.92
3690.67	0.92
3699.11	0.92
3707.55	0.92
3715.98	0.92
3724.42	0.92
3732.86	0.9186
3741.29	0.918
3749.73	0.92
3758.16	0.918
3766.6	0.918
3775.04	0.918
3783.47	0.918
3791.91	0.918
3800.35	0.915
3808.78	0.915
3817.22	0.915
3825.66	0.915
3834.09	0.915
3842.53	0.913
3850.97	0.913
3859.4	0.913
3867.84	0.913
3876.28	0.913
3884.71	0.913
3893.15	0.911
3901.58	0.911
3910.02	0.9103
3918.46	0.91
3926.89	0.91
3935.33	0.91
