Infrared Spectrum: 1-METHYL-3-N-PROPYL BENZENE
Formula: C10 H14
CAS: 1074-43-7
State: LIQUID
Class: COBLENTZ
Instrument: PERKIN-ELMER
Sampling: TRANSMISSION
Path length: 0.0024 CM
Resolution: 4
Origin: STANDARD OIL OF OHIO
1/CM	TRANSMITTANCE
601.351	0.579
609.79	0.579
618.229	0.586
626.667	0.6
635.106	0.6159
643.545	0.6377
651.984	0.6619
660.423	0.6789
668.862	0.6977
677.3	0.7012
685.739	0.6499
694.178	0.2765
702.617	0.1568
711.056	0.648
719.495	0.7169
727.933	0.7227
736.372	0.5058
744.811	0.496
753.25	0.6788
761.689	0.5243
770.127	0.1515
778.566	0.155
787.005	0.1219
795.444	0.574
803.883	0.5478
812.322	0.8038
820.76	0.8544
829.199	0.8688
837.638	0.869
846.077	0.8546
854.516	0.835
862.954	0.8005
871.393	0.6656
879.832	0.638
888.271	0.6823
896.71	0.789
905.149	0.72
913.587	0.8122
922.026	0.82
930.465	0.8531
938.904	0.876
947.343	0.877
955.782	0.8744
964.22	0.8612
972.659	0.855
981.098	0.859
989.537	0.8542
997.976	0.8354
1006.41	0.8464
1014.85	0.8424
1023.29	0.8173
1031.73	0.7473
1040.17	0.6629
1048.61	0.7141
1057.05	0.789
1065.49	0.7494
1073.93	0.7546
1082.36	0.7685
1090.8	0.7134
1099.24	0.6351
1107.68	0.7182
1116.12	0.8438
1124.56	0.8649
1133	0.8663
1141.44	0.8645
1149.87	0.8471
1158.31	0.8174
1166.75	0.7279
1175.19	0.8286
1183.63	0.8704
1192.07	0.871
1200.51	0.8599
1208.95	0.84
1217.38	0.8524
1225.82	0.8576
1234.26	0.8436
1242.7	0.8236
1251.14	0.8173
1259.58	0.8183
1268.02	0.84
1276.46	0.8237
1284.9	0.8093
1293.33	0.8256
1301.77	0.8307
1310.21	0.8343
1318.65	0.8281
1327.09	0.7991
1335.53	0.683
1343.97	0.7681
1352.41	0.7868
1360.84	0.7536
1369.28	0.5628
1377.72	0.5303
1386.16	0.7214
1394.6	0.7176
1403.04	0.6892
1411.48	0.6699
1419.92	0.611
1428.36	0.5778
1436.79	0.4866
1445.23	0.3321
1453.67	0.2369
1462.11	0.2324
1470.55	0.2945
1478.99	0.4339
1487.43	0.3115
1495.87	0.3223
1504.3	0.6078
1512.74	0.6957
1521.18	0.7375
1529.62	0.7607
1538.06	0.7947
1546.5	0.811
1554.94	0.809
1563.38	0.8029
1571.82	0.796
1580.25	0.7445
1588.69	0.5824
1597.13	0.5708
1605.57	0.4539
1614.01	0.208
1622.45	0.6814
1630.89	0.8431
1639.33	0.8934
1647.76	0.8921
1656.2	0.891
1664.64	0.8835
1673.08	0.888
1681.52	0.8885
1689.96	0.896
1698.4	0.8989
1706.84	0.9104
1715.28	0.915
1723.71	0.915
1732.15	0.9029
1740.59	0.894
1749.03	0.8922
1757.47	0.891
1765.91	0.889
1774.35	0.8711
1782.79	0.8458
1791.22	0.849
1799.66	0.8942
1808.1	0.911
1816.54	0.913
1824.98	0.911
1833.42	0.9072
1841.86	0.8923
1850.3	0.8595
1858.74	0.8732
1867.17	0.8659
1875.61	0.8731
1884.05	0.9111
1892.49	0.915
1900.93	0.915
1909.37	0.913
1917.81	0.907
1926.25	0.8677
1934.68	0.8307
1943.12	0.8666
1951.56	0.9076
1960	0.92
1968.44	0.922
1976.88	0.923
1985.32	0.925
1993.76	0.9221
2002.2	0.9236
2010.63	0.925
2019.07	0.923
2027.51	0.923
2035.95	0.923
2044.39	0.923
2052.83	0.923
2061.27	0.925
2069.71	0.9244
2078.14	0.923
2086.58	0.922
2095.02	0.922
2103.46	0.9227
2111.9	0.922
2120.34	0.923
2128.78	0.922
2137.22	0.922
2145.66	0.922
2154.09	0.92
2162.53	0.92
2170.97	0.918
2179.41	0.92
2187.85	0.922
2196.29	0.922
2204.73	0.922
2213.17	0.92
2221.6	0.9194
2230.04	0.9194
2238.48	0.918
2246.92	0.916
2255.36	0.918
2263.8	0.918
2272.24	0.916
2280.68	0.916
2289.12	0.9157
2297.55	0.915
2305.99	0.913
2314.43	0.911
2322.87	0.908
2331.31	0.908
2339.75	0.908
2348.19	0.91
2356.63	0.91
2365.06	0.9103
2373.5	0.913
2381.94	0.913
2390.38	0.915
2398.82	0.9124
2407.26	0.9074
2415.7	0.9086
2424.14	0.913
2432.58	0.913
2441.01	0.913
2449.45	0.913
2457.89	0.9124
2466.33	0.911
2474.77	0.9094
2483.21	0.91
2491.65	0.913
2500.09	0.915
2508.52	0.913
2516.96	0.913
2525.4	0.913
2533.84	0.911
2542.28	0.911
2550.72	0.91
2559.16	0.911
2567.6	0.9107
2576.04	0.91
2584.47	0.9038
2592.91	0.901
2601.35	0.901
2609.79	0.9
2618.23	0.9
2626.67	0.9
2635.11	0.9003
2643.55	0.9007
2651.98	0.8994
2660.42	0.8924
2668.86	0.8804
2677.3	0.8819
2685.74	0.8946
2694.18	0.894
2702.62	0.888
2711.06	0.8812
2719.5	0.8684
2727.93	0.8454
2736.37	0.801
2744.81	0.8508
2753.25	0.874
2761.69	0.872
2770.13	0.867
2778.57	0.8564
2787.01	0.8408
2795.44	0.8314
2803.88	0.8138
2812.32	0.7886
2820.76	0.747
2829.2	0.6944
2837.64	0.6042
2846.08	0.4804
2854.52	0.2846
2862.96	0.185
2871.39	0.0951
2879.83	0.0821
2888.27	0.2532
2896.71	0.2568
2905.15	0.19
2913.59	0.1225
2922.03	0.0505
2930.47	0.0264
2938.9	0.0256
2947.34	0.0564
2955.78	0.0563
2964.22	0.022
2972.66	0.0279
2981.1	0.1431
2989.54	0.3239
2997.98	0.4118
3006.42	0.381
3014.85	0.2823
3023.29	0.233
3031.73	0.25
3040.17	0.3045
3048.61	0.3806
3057.05	0.4
3065.49	0.4441
3073.93	0.6289
3082.36	0.7024
3090.8	0.7585
3099.24	0.7639
3107.68	0.7455
3116.12	0.803
3124.56	0.8561
3133	0.8796
3141.44	0.886
3149.88	0.888
3158.31	0.888
3166.75	0.888
3175.19	0.888
3183.63	0.8896
3192.07	0.891
3200.51	0.896
3208.95	0.9
3217.39	0.9016
3225.82	0.906
3234.26	0.908
3242.7	0.91
3251.14	0.91
3259.58	0.91
3268.02	0.91
3276.46	0.911
3284.9	0.911
3293.34	0.911
3301.77	0.911
3310.21	0.911
3318.65	0.911
3327.09	0.911
3335.53	0.91
3343.97	0.91
3352.41	0.91
3360.85	0.91
3369.28	0.908
3377.72	0.906
3386.16	0.9057
3394.6	0.906
3403.04	0.903
3411.48	0.903
3419.92	0.901
3428.36	0.901
3436.8	0.901
3445.23	0.9
3453.67	0.9
3462.11	0.9
3470.55	0.9
3478.99	0.9
3487.43	0.9
3495.87	0.9
3504.31	0.9
3512.74	0.9
3521.18	0.9
3529.62	0.9
3538.06	0.9003
3546.5	0.9
3554.94	0.9
3563.38	0.9
3571.82	0.9
3580.26	0.9
3588.69	0.9
3597.13	0.9
3605.57	0.9
3614.01	0.9
3622.45	0.9
3630.89	0.9
3639.33	0.898
3647.77	0.896
3656.2	0.894
3664.64	0.893
3673.08	0.891
3681.52	0.8904
3689.96	0.889
3698.4	0.889
3706.84	0.8887
3715.28	0.889
3723.72	0.888
3732.15	0.888
3740.59	0.888
3749.03	0.888
3757.47	0.888
3765.91	0.888
3774.35	0.888
3782.79	0.888
3791.23	0.888
3799.66	0.888
3808.1	0.888
3816.54	0.888
3824.98	0.888
3833.42	0.886
3841.86	0.886
3850.3	0.886
3858.74	0.886
3867.18	0.884
3875.61	0.884
3884.05	0.883
3892.49	0.881
3900.93	0.881
3909.37	0.881
3917.81	0.879
3926.25	0.877
3934.69	0.877
3943.12	0.877
