Infrared Spectrum: Aniline, N-Beta-cyanoethyl-
Formula: C9 H10 N2
CAS: 1075-76-9
State: SOLID (NUJOL MULL)
Class: COBLENTZ III
Instrument: BECKMAN IR-4 (HYBRID PRISM-GRATING)
Instrument parameters: NaCl PRISM
Sampling: TRANSMISSION
Resolution: 2
Origin: MONSANTO (J. FREEMAN)
1/CM	TRANSMITTANCE
626	0.9368
635	0.9517
644	0.9655
653	0.9431
662	0.8768
671	0.8402
680	0.7374
689	0.4188
698	0.4277
707	0.7299
716	0.6753
725	0.6012
734	0.5478
743	0.3267
752	0.1863
761	0.3644
770	0.6409
779	0.674
788	0.6993
797	0.6949
806	0.6658
815	0.6601
824	0.5103
833	0.6719
842	0.6813
851	0.6864
860	0.6779
869	0.6319
878	0.3537
887	0.5784
896	0.6409
905	0.6634
914	0.6455
923	0.6323
932	0.6287
941	0.6412
950	0.6406
959	0.623
968	0.631
977	0.6154
986	0.5407
995	0.6912
1004	0.6567
1013	0.6754
1022	0.6483
1031	0.685
1040	0.6822
1049	0.6512
1058	0.5497
1067	0.6545
1076	0.7188
1085	0.7222
1094	0.7041
1103	0.6131
1112	0.5143
1121	0.5775
1130	0.7775
1139	0.7668
1148	0.686
1157	0.7171
1166	0.7059
1175	0.5881
1184	0.7483
1193	0.7239
1202	0.6606
1211	0.5035
1220	0.6003
1229	0.5868
1238	0.4828
1247	0.6041
1256	0.5495
1265	0.3804
1274	0.4454
1283	0.6461
1292	0.6233
1301	0.5446
1310	0.4229
1319	0.2779
1328	0.23
1337	0.4819
1346	0.6772
1355	0.6632
1364	0.5328
1373	0.4466
1382	0.2519
1391	0.5428
1400	0.5818
1409	0.3934
1418	0.5835
1427	0.5887
1436	0.3949
1445	0.2492
1454	0.1514
1463	0.0671
1472	0.0683
1481	0.191
1490	0.4075
1499	0.3594
1508	0.3111
1517	0.4752
1526	0.3773
1535	0.3284
1544	0.5875
1553	0.8115
1562	0.7783
1571	0.6715
1580	0.566
1589	0.4005
1598	0.2368
1607	0.2274
1616	0.564
1625	0.8867
1634	0.9409
1643	0.9629
1652	0.9719
1661	0.9718
1670	0.9666
1679	0.9503
1688	0.9257
1697	0.9126
1706	0.9138
1715	0.9149
1724	0.9108
1733	0.9028
1742	0.8881
1751	0.875
1760	0.8656
1769	0.8583
1778	0.8347
1787	0.8318
1796	0.8299
1805	0.8266
1814	0.8202
1823	0.8084
1832	0.7861
1841	0.7814
1850	0.7826
1859	0.791
1868	0.7938
1877	0.7892
1886	0.7833
1895	0.7771
1904	0.7708
1913	0.7634
1922	0.7557
1931	0.7479
1940	0.7404
1949	0.7353
1958	0.7392
1967	0.7454
1976	0.7447
1985	0.7426
1994	0.7401
2003	0.7319
2012	0.7259
2021	0.7237
2030	0.7213
2039	0.7184
2048	0.7154
2057	0.7122
2066	0.7087
2075	0.7052
2084	0.7016
2093	0.6977
2102	0.6941
2111	0.6909
2120	0.6873
2129	0.6831
2138	0.6788
2147	0.6744
2156	0.67
2165	0.6658
2174	0.6617
2183	0.6571
2192	0.6525
2201	0.6478
2210	0.6424
2219	0.636
2228	0.6285
2237	0.6191
2246	0.5804
2255	0.5007
2264	0.53
2273	0.6202
2282	0.6478
2291	0.6476
2300	0.6464
2309	0.6449
2318	0.6436
2327	0.6424
2336	0.641
2345	0.6402
2354	0.6396
2363	0.6389
2372	0.637
2381	0.6277
2390	0.6031
2399	0.6024
2408	0.6024
2417	0.6023
2426	0.6019
2435	0.6011
2444	0.5997
2453	0.5978
2462	0.5957
2471	0.5927
2480	0.5896
2489	0.5862
2498	0.5829
2507	0.5789
2516	0.5742
2525	0.5691
2534	0.5636
2543	0.5582
2552	0.5527
2561	0.5469
2570	0.5401
2579	0.5326
2588	0.525
2597	0.5234
2606	0.5226
2615	0.5224
2624	0.522
2633	0.5202
2642	0.5169
2651	0.5115
2660	0.5068
2669	0.5032
2678	0.5008
2687	0.4988
2696	0.4978
2705	0.4943
2714	0.4857
2723	0.4834
2732	0.4833
2741	0.4842
2750	0.4864
2759	0.4905
2768	0.4946
2777	0.4952
2786	0.4937
2795	0.4854
2804	0.4425
2813	0.4075
2822	0.3475
2831	0.2844
2840	0.2218
2849	0.1595
2858	0.0976
2867	0.0523
2876	0.0213
2885	0.0001
2894	0.0001
2903	0.0001
2912	0.0001
2921	0
2930	0
2939	0
2948	0
2957	0
2966	0
2975	0
2984	0.0022
2993	0.0353
3002	0.0717
3011	0.1163
3020	0.1507
3029	0.1795
3038	0.2285
3047	0.2501
3056	0.2652
3065	0.2845
3074	0.3149
3083	0.325
3092	0.3294
3101	0.3335
3110	0.3383
3119	0.3495
3128	0.3522
3137	0.3524
3146	0.3525
3155	0.3521
3164	0.3516
3173	0.3511
3182	0.3507
3191	0.3503
3200	0.3507
3209	0.3513
3218	0.3502
3227	0.348
3236	0.3446
3245	0.3386
3254	0.3322
3263	0.3247
3272	0.3149
3281	0.3025
3290	0.2913
3299	0.2825
3308	0.2581
3317	0.2306
3326	0.2032
3335	0.1759
3344	0.1574
3353	0.1713
3362	0.2912
3371	0.4278
3380	0.4643
3389	0.4628
3398	0.46
3407	0.4535
3416	0.4472
3425	0.4425
3434	0.4382
3443	0.4344
3452	0.4307
3461	0.4279
3470	0.4252
3479	0.422
3488	0.4185
3497	0.4151
3506	0.4118
3515	0.4086
3524	0.4058
3533	0.403
3542	0.4003
3551	0.3985
3560	0.3967
3569	0.395
3578	0.3933
3587	0.3916
3596	0.3898
3605	0.3879
3614	0.3862
3623	0.3844
3632	0.3827
3641	0.3811
3650	0.3795
3659	0.378
3668	0.3764
3677	0.3749
3686	0.3733
3695	0.3718
3704	0.3703
3713	0.3689
3722	0.3675
3731	0.366
3740	0.3646
3749	0.3631
3758	0.3619
3767	0.3608
3776	0.3597
3785	0.3586
3794	0.3575
3803	0.3564
3812	0.3553
3821	0.3542
3830	0.3531
3839	0.3519
3848	0.3507
3857	0.3496
3866	0.3484
3875	0.3473
3884	0.3462
3893	0.3451
3902	0.344
3911	0.3429
3920	0.3419
3929	0.3408
3938	0.3397
3947	0.3386
3956	0.3374
3965	0.3363
3974	0.3352
3983	0.3341
3992	0.333
