Infrared Spectrum: BENZENE, 1-METHYL-3-(1,1-DIMETHYLETHYL)-
Formula: C11 H16
CAS: 1075-38-3
State: LIQUID (NEAT)
Class: COBLENTZ III
Instrument: PERKIN-ELMER 521 (GRATING)
Sampling: TRANSMISSION
Path length: 0.0024 CM
Resolution: 4
Origin: STANDARD OIL OF OHIO
1/CM	TRANSMITTANCE
593.421	0.58
602.632	0.573
611.842	0.578
621.053	0.591
630.263	0.61
639.474	0.629
648.685	0.659
657.895	0.689
667.106	0.71
676.316	0.715
685.527	0.661
694.737	0.4132
703.948	0.1158
713.159	0.741
722.369	0.803
731.58	0.831
740.79	0.837
750.001	0.829
759.212	0.8011
768.422	0.7141
777.633	0.3319
786.843	0.023
796.054	0.786
805.265	0.834
814.475	0.865
823.686	0.874
832.896	0.877
842.107	0.88
851.317	0.88
860.528	0.864
869.739	0.769
878.949	0.4922
888.16	0.5681
897.37	0.593
906.581	0.827
915.792	0.816
925.002	0.792
934.213	0.822
943.423	0.859
952.634	0.863
961.845	0.851
971.055	0.85
980.266	0.847
989.476	0.83
998.687	0.821
1007.9	0.831
1017.11	0.792
1026.32	0.743
1035.53	0.705
1044.74	0.749
1053.95	0.826
1063.16	0.843
1072.37	0.839
1081.58	0.777
1090.79	0.4812
1100	0.8099
1109.21	0.848
1118.42	0.842
1127.64	0.868
1136.85	0.869
1146.06	0.861
1155.27	0.853
1164.48	0.813
1173.69	0.7521
1182.9	0.782
1192.11	0.664
1201.32	0.325
1210.53	0.7068
1219.74	0.762
1228.95	0.788
1238.16	0.838
1247.37	0.834
1256.58	0.779
1265.79	0.5739
1275	0.3121
1284.22	0.702
1293.43	0.823
1302.64	0.837
1311.85	0.831
1321.06	0.831
1330.27	0.816
1339.48	0.779
1348.69	0.6509
1357.9	0.3138
1367.11	0.3908
1376.32	0.621
1385.53	0.5609
1394.74	0.6109
1403.95	0.574
1413.16	0.581
1422.37	0.537
1431.58	0.517
1440.8	0.473
1450.01	0.3829
1459.22	0.255
1468.43	0.26
1477.64	0.2719
1486.85	0.256
1496.06	0.186
1505.27	0.611
1514.48	0.711
1523.69	0.734
1532.9	0.784
1542.11	0.805
1551.32	0.801
1560.53	0.794
1569.74	0.771
1578.95	0.684
1588.16	0.537
1597.38	0.573
1606.59	0.3277
1615.8	0.4939
1625.01	0.831
1634.22	0.89
1643.43	0.895
1652.64	0.891
1661.85	0.882
1671.06	0.869
1680.27	0.843
1689.48	0.881
1698.69	0.899
1707.9	0.904
1717.11	0.903
1726.32	0.906
1735.53	0.898
1744.74	0.877
1753.96	0.852
1763.17	0.872
1772.38	0.831
1781.59	0.857
1790.8	0.882
1800.01	0.895
1809.22	0.902
1818.43	0.903
1827.64	0.903
1836.85	0.891
1846.06	0.863
1855.27	0.869
1864.48	0.839
1873.69	0.891
1882.9	0.908
1892.11	0.903
1901.32	0.908
1910.54	0.904
1919.75	0.887
1928.96	0.831
1938.17	0.846
1947.38	0.897
1956.59	0.911
1965.8	0.908
1975.01	0.913
1984.22	0.915
1993.43	0.91
2002.64	0.913
2011.85	0.913
2021.06	0.916
2030.27	0.917
2039.48	0.917
2048.69	0.916
2057.9	0.916
2067.12	0.913
2076.33	0.915
2085.54	0.913
2094.75	0.916
2103.96	0.9161
2113.17	0.919
2122.38	0.913
2131.59	0.9162
2140.8	0.915
2150.01	0.913
2159.22	0.912
2168.43	0.8992
2177.64	0.9095
2186.85	0.9095
2196.06	0.9127
2205.27	0.913
2214.48	0.915
2223.7	0.916
2232.91	0.915
2242.12	0.9144
2251.33	0.912
2260.54	0.91
2269.75	0.9034
2278.96	0.904
2288.17	0.9008
2297.38	0.9
2306.59	0.9092
2315.8	0.9126
2325.01	0.912
2334.22	0.91
2343.43	0.904
2352.64	0.8995
2361.85	0.899
2371.06	0.898
2380.28	0.891
2389.49	0.8935
2398.7	0.892
2407.91	0.891
2417.12	0.9
2426.33	0.903
2435.54	0.904
2444.75	0.907
2453.96	0.906
2463.17	0.902
2472.38	0.9011
2481.59	0.9
2490.8	0.9034
2500.01	0.907
2509.22	0.911
2518.43	0.908
2527.64	0.912
2536.86	0.9117
2546.07	0.9054
2555.28	0.8997
2564.49	0.893
2573.7	0.895
2582.91	0.893
2592.12	0.895
2601.33	0.899
2610.54	0.904
2619.75	0.903
2628.96	0.9
2638.17	0.8978
2647.38	0.89
2656.59	0.889
2665.8	0.889
2675.01	0.8912
2684.22	0.895
2693.44	0.8928
2702.65	0.8858
2711.86	0.8686
2721.07	0.846
2730.28	0.8429
2739.49	0.8331
2748.7	0.847
2757.91	0.873
2767.12	0.878
2776.33	0.8691
2785.54	0.855
2794.75	0.852
2803.96	0.8135
2813.17	0.7991
2822.38	0.7824
2831.59	0.7414
2840.8	0.7048
2850.02	0.63
2859.23	0.4453
2868.44	0.2129
2877.65	0.1255
2886.86	0.1931
2896.07	0.2354
2905.28	0.1324
2914.49	0.0878
2923.7	0.0894
2932.91	0.082
2942.12	0.0677
2951.33	0.0235
2960.54	0.0103
2969.75	0.0107
2978.96	0.0269
2988.17	0.2244
2997.38	0.4086
3006.6	0.4977
3015.81	0.4571
3025.02	0.3363
3034.23	0.3146
3043.44	0.3226
3052.65	0.3592
3061.86	0.4486
3071.07	0.5112
3080.28	0.62
3089.49	0.6787
3098.7	0.74
3107.91	0.7225
3117.12	0.8063
3126.33	0.858
3135.54	0.8695
3144.75	0.87
3153.96	0.868
3163.18	0.8635
3172.39	0.86
3181.6	0.859
3190.81	0.86
3200.02	0.864
3209.23	0.8658
3218.44	0.868
3227.65	0.869
3236.86	0.8694
3246.07	0.8713
3255.28	0.872
3264.49	0.872
3273.7	0.873
3282.91	0.876
3292.12	0.881
3301.33	0.889
3310.54	0.8893
3319.76	0.891
3328.97	0.89
3338.18	0.889
3347.39	0.8858
3356.6	0.886
3365.81	0.8892
3375.02	0.893
3384.23	0.895
3393.44	0.894
3402.65	0.894
3411.86	0.8939
3421.07	0.89
3430.28	0.8891
3439.49	0.8912
3448.7	0.8928
3457.91	0.8931
3467.12	0.89
3476.34	0.887
3485.55	0.886
3494.76	0.886
3503.97	0.885
3513.18	0.886
3522.39	0.89
3531.6	0.891
3540.81	0.893
3550.02	0.8949
3559.23	0.895
3568.44	0.895
3577.65	0.8931
3586.86	0.889
3596.07	0.894
3605.28	0.898
3614.49	0.9
3623.7	0.899
3632.92	0.898
3642.13	0.897
3651.34	0.897
3660.55	0.897
3669.76	0.895
3678.97	0.894
3688.18	0.894
3697.39	0.891
3706.6	0.8893
3715.81	0.887
3725.02	0.889
3734.23	0.8884
3743.44	0.887
3752.65	0.889
3761.86	0.887
3771.07	0.8857
3780.28	0.8837
3789.5	0.883
3798.71	0.883
3807.92	0.883
3817.13	0.883
3826.34	0.882
3835.55	0.8816
3844.76	0.881
3853.97	0.88
3863.18	0.877
3872.39	0.875
3881.6	0.872
3890.81	0.868
3900.02	0.8695
3909.23	0.874
3918.44	0.874
3927.65	0.8774
3936.86	0.8751
3946.08	0.8734
