Infrared Spectrum: 4-Hydroxycoumarin
Formula: C9 H6 O3
CAS: 1076-38-6
State: SOLID (SPLIT MULL)
Class: COBLENTZ III
Instrument: BECKMAN IR-9 (GRATING)
Instrument parameters: ORDER CHANGES: 670, 1200, 2000 CM^-^1
Sampling: TRANSMISSION
Resolution: 2
Origin: DOW CHEMICAL COMPANY
1/CM	TRANSMITTANCE
395	0.6958
404	0.6771
413	0.6728
422	0.6724
431	0.6899
440	0.7261
449	0.7371
458	0.5796
467	0.8084
476	0.8783
485	0.8892
494	0.8091
503	0.836
512	0.874
521	0.8898
530	0.9164
539	0.5964
548	0.9261
557	0.9374
566	0.9375
575	0.936
584	0.9321
593	0.9286
602	0.924
611	0.9124
620	0.7654
629	0.8674
638	0.8962
647	0.8363
656	0.9084
665	0.9023
674	0.8982
683	0.9055
692	0.8964
701	0.8654
710	0.8137
719	0.6437
728	0.6437
737	0.6795
746	0.288
755	0.7342
764	0.4228
773	0.5309
782	0.7581
791	0.7858
800	0.7685
809	0.6464
818	0.3482
827	0.516
836	0.3078
845	0.5442
854	0.5962
863	0.6203
872	0.5662
881	0.6798
890	0.7233
899	0.7535
908	0.7744
917	0.7741
926	0.753
935	0.7025
944	0.3624
953	0.7168
962	0.7539
971	0.7821
980	0.7999
989	0.8097
998	0.8154
1007	0.8131
1016	0.7976
1025	0.7448
1034	0.7825
1043	0.7936
1052	0.7901
1061	0.7796
1070	0.756
1079	0.734
1088	0.7285
1097	0.5308
1106	0.74
1115	0.7526
1124	0.7326
1133	0.7038
1142	0.5844
1151	0.6454
1160	0.6475
1169	0.6418
1178	0.5955
1187	0.5149
1196	0.3092
1205	0.546
1214	0.5744
1223	0.5453
1232	0.4476
1241	0.2206
1250	0.4214
1259	0.3979
1268	0.2964
1277	0.124
1286	0.2622
1295	0.1892
1304	0.1629
1313	0.1619
1322	0.2382
1331	0.4072
1340	0.5016
1349	0.6203
1358	0.6868
1367	0.7126
1376	0.7131
1385	0.7033
1394	0.6932
1403	0.6838
1412	0.6734
1421	0.6655
1430	0.656
1439	0.6397
1448	0.5937
1457	0.5392
1466	0.4791
1475	0.6236
1484	0.5775
1493	0.5058
1502	0.4206
1511	0.3275
1520	0.4393
1529	0.4145
1538	0.3634
1547	0.2879
1556	0.2432
1565	0.2418
1574	0.4699
1583	0.4044
1592	0.2332
1601	0.1619
1610	0.0942
1619	0.2924
1628	0.3673
1637	0.411
1646	0.4328
1655	0.3151
1664	0.2316
1673	0.2024
1682	0.1629
1691	0.1022
1700	0.0857
1709	0.0906
1718	0.1949
1727	0.4514
1736	0.5989
1745	0.6732
1754	0.8008
1763	0.8664
1772	0.8878
1781	0.8885
1790	0.8885
1799	0.8883
1808	0.8718
1817	0.8178
1826	0.8195
1835	0.8511
1844	0.8616
1853	0.8578
1862	0.852
1871	0.8513
1880	0.8461
1889	0.8301
1898	0.8218
1907	0.8239
1916	0.8205
1925	0.8218
1934	0.8142
1943	0.8057
1952	0.8058
1961	0.8088
1970	0.8065
1979	0.801
1988	0.8019
1997	0.7985
2006	0.7936
2015	0.7897
2024	0.785
2033	0.7798
2042	0.7745
2051	0.769
2060	0.7637
2069	0.7585
2078	0.7533
2087	0.7491
2096	0.7461
2105	0.7428
2114	0.7389
2123	0.7345
2132	0.7301
2141	0.7256
2150	0.7203
2159	0.7149
2168	0.7089
2177	0.7028
2186	0.6967
2195	0.6905
2204	0.6842
2213	0.6778
2222	0.6715
2231	0.6651
2240	0.6587
2249	0.6521
2258	0.6458
2267	0.6391
2276	0.6325
2285	0.6257
2294	0.6191
2303	0.6125
2312	0.6065
2321	0.6004
2330	0.5943
2339	0.5901
2348	0.5873
2357	0.5845
2366	0.5817
2375	0.5727
2384	0.5573
2393	0.5538
2402	0.5494
2411	0.5424
2420	0.534
2429	0.5258
2438	0.5181
2447	0.5104
2456	0.5021
2465	0.4931
2474	0.484
2483	0.475
2492	0.4589
2501	0.445
2510	0.4316
2519	0.4189
2528	0.4059
2537	0.3926
2546	0.383
2555	0.377
2564	0.373
2573	0.3755
2582	0.3823
2591	0.3962
2600	0.4099
2609	0.4151
2618	0.4162
2627	0.4176
2636	0.4177
2645	0.4141
2654	0.409
2663	0.4018
2672	0.392
2681	0.3805
2690	0.3673
2699	0.3564
2708	0.3518
2717	0.3506
2726	0.3545
2735	0.3612
2744	0.3704
2753	0.3808
2762	0.3905
2771	0.4016
2780	0.413
2789	0.4116
2798	0.402
2807	0.3872
2816	0.3809
2825	0.379
2834	0.3774
2843	0.3693
2852	0.3598
2861	0.349
2870	0.3396
2879	0.3337
2888	0.3303
2897	0.3277
2906	0.3262
2915	0.3245
2924	0.3228
2933	0.3212
2942	0.3205
2951	0.3232
2960	0.33
2969	0.3375
2978	0.3443
2987	0.3446
2996	0.3462
3005	0.3496
3014	0.3554
3023	0.36
3032	0.3629
3041	0.3634
3050	0.3656
3059	0.3726
3068	0.378
3077	0.3799
3086	0.38
3095	0.3796
3104	0.383
3113	0.3912
3122	0.4066
3131	0.4265
3140	0.4428
3149	0.4594
3158	0.4734
3167	0.4848
3176	0.4955
3185	0.5049
3194	0.5141
3203	0.5228
3212	0.5307
3221	0.5377
3230	0.5423
3239	0.5468
3248	0.5498
3257	0.5527
3266	0.5549
3275	0.5568
3284	0.558
3293	0.5584
3302	0.5588
3311	0.5586
3320	0.5581
3329	0.5574
3338	0.557
3347	0.5565
3356	0.556
3365	0.5545
3374	0.5526
3383	0.5508
3392	0.549
3401	0.5472
3410	0.5449
3419	0.5424
3428	0.5398
3437	0.5372
3446	0.5347
3455	0.5321
3464	0.5295
3473	0.5269
3482	0.5243
3491	0.5221
3500	0.52
3509	0.5179
3518	0.5158
3527	0.5136
3536	0.5116
3545	0.5096
3554	0.5076
3563	0.5056
3572	0.5036
3581	0.5018
3590	0.4999
3599	0.4981
3608	0.4962
3617	0.4945
3626	0.493
3635	0.4915
3644	0.49
3653	0.4885
3662	0.4871
3671	0.4855
3680	0.4837
3689	0.4819
3698	0.48
3707	0.4782
3716	0.4762
3725	0.4743
3734	0.4723
3743	0.4703
3752	0.4683
3761	0.4659
3770	0.4637
3779	0.4616
3788	0.4599
3797	0.4583
