Infrared Spectrum: 1-Phenylhexane
Formula: C12 H18
CAS: 1077-16-3
State: SOLUTION (10% CCl4 FOR 3800-1330, 10% CS2 FOR 1330-450 CM^-^1)
Class: COBLENTZ III
Instrument: DOW KBr FOREPRISM-GRATING
Instrument parameters: BLAZED AT 3.5, 12.0, 20.0 MICRON AND CHANGED AT 5.0, 7.5, 14.9 MICRON
Sampling: TRANSMISSION
Path length: 0.011 CM, 0.011 CM
Resolution: 2
Origin: DOW CHEMICAL COMPANY
1/CM	TRANSMITTANCE
3800	0.9329
3791	0.9333
3782	0.9305
3773	0.931
3764	0.9305
3755	0.9306
3746	0.9307
3737	0.9326
3728	0.9329
3719	0.9308
3710	0.9323
3701	0.9317
3692	0.9286
3683	0.9254
3674	0.9257
3665	0.9257
3656	0.9242
3647	0.9212
3638	0.9196
3629	0.9185
3620	0.9199
3611	0.9202
3602	0.9211
3593	0.9247
3584	0.9266
3575	0.9263
3566	0.9259
3557	0.9255
3548	0.9268
3539	0.9258
3530	0.9265
3521	0.9254
3512	0.9274
3503	0.9265
3494	0.9255
3485	0.9244
3476	0.9239
3467	0.9237
3458	0.9235
3449	0.9231
3440	0.9227
3431	0.9222
3422	0.922
3413	0.9218
3404	0.9221
3395	0.9226
3386	0.9232
3377	0.9232
3368	0.9233
3359	0.9237
3350	0.9241
3341	0.9243
3332	0.9242
3323	0.9242
3314	0.924
3305	0.9254
3296	0.9234
3287	0.9232
3278	0.924
3269	0.9233
3260	0.9222
3251	0.9215
3242	0.9211
3233	0.9204
3224	0.9197
3215	0.9189
3206	0.9161
3197	0.9159
3188	0.9141
3179	0.9096
3170	0.9062
3161	0.9038
3152	0.904
3143	0.902
3134	0.9023
3125	0.8991
3116	0.8821
3107	0.8329
3098	0.8193
3089	0.7628
3080	0.6251
3071	0.7064
3062	0.5433
3053	0.7034
3044	0.7281
3035	0.5603
3026	0.3064
3017	0.5711
3008	0.6969
2999	0.688
2990	0.6968
2981	0.5593
2972	0.3467
2963	0.0986
2954	0.0774
2945	0.1178
2936	0.035
2927	0.0205
2918	0.0321
2909	0.1445
2900	0.2333
2891	0.3475
2882	0.4007
2873	0.2413
2864	0.2375
2855	0.0789
2846	0.2353
2837	0.6267
2828	0.7114
2819	0.7742
2810	0.8014
2801	0.8244
2792	0.8413
2783	0.8563
2774	0.8691
2765	0.8801
2756	0.8882
2747	0.8893
2738	0.8876
2729	0.8806
2720	0.8826
2711	0.8878
2702	0.8954
2693	0.8962
2684	0.8942
2675	0.8923
2666	0.8897
2657	0.8904
2648	0.8908
2639	0.8927
2630	0.896
2621	0.9
2612	0.902
2603	0.904
2594	0.9058
2585	0.9069
2576	0.9081
2567	0.9094
2558	0.9113
2549	0.9132
2540	0.915
2531	0.9166
2522	0.9183
2513	0.9195
2504	0.9207
2495	0.9221
2486	0.921
2477	0.9205
2468	0.9226
2459	0.9257
2450	0.9244
2441	0.9205
2432	0.9192
2423	0.9215
2414	0.9229
2405	0.9237
2396	0.9216
2387	0.9236
2378	0.9305
2369	0.9354
2360	0.9384
2351	0.943
2342	0.9418
2333	0.9366
2324	0.934
2315	0.9278
2306	0.9231
2297	0.9223
2288	0.9221
2279	0.9223
2270	0.9209
2261	0.9202
2252	0.9208
2243	0.9207
2234	0.9205
2225	0.9219
2216	0.9214
2207	0.9219
2198	0.9215
2189	0.9193
2180	0.9196
2171	0.9221
2162	0.9209
2153	0.9213
2144	0.9211
2135	0.9212
2126	0.9188
2117	0.9213
2108	0.9236
2099	0.9213
2090	0.9195
2081	0.9177
2072	0.9187
2063	0.9199
2054	0.9217
2045	0.9184
2036	0.9177
2027	0.9181
2018	0.9179
2009	0.9161
2000	0.9089
1991	0.9098
1982	0.9101
1973	0.9112
1964	0.9098
1955	0.8847
1946	0.8797
1937	0.8229
1928	0.8831
1919	0.9057
1910	0.9115
1901	0.9113
1892	0.9036
1883	0.8773
1874	0.8886
1865	0.8577
1856	0.8868
1847	0.9029
1838	0.9038
1829	0.9082
1820	0.8985
1811	0.8945
1802	0.8722
1793	0.8577
1784	0.9064
1775	0.9071
1766	0.9079
1757	0.9104
1748	0.8934
1739	0.8895
1730	0.9055
1721	0.9136
1712	0.9179
1703	0.9136
1694	0.9147
1685	0.9161
1676	0.9166
1667	0.9093
1658	0.9048
1649	0.9069
1640	0.9091
1631	0.9078
1622	0.9015
1613	0.8708
1604	0.6168
1595	0.798
1586	0.7942
1577	0.8467
1568	0.8477
1559	0.8429
1550	0.8748
1541	0.9096
1532	0.8981
1523	0.8815
1514	0.8573
1505	0.8105
1496	0.4512
1487	0.7507
1478	0.7819
1469	0.3719
1460	0.4084
1451	0.5885
1442	0.7006
1433	0.7811
1424	0.8435
1415	0.8634
1406	0.8776
1397	0.8826
1388	0.8688
1379	0.6721
1370	0.8113
1361	0.8303
1352	0.8163
1343	0.8395
1334	0.8513
1325	0.8495
1316	0.8606
1307	0.8485
1298	0.8513
1289	0.8722
1280	0.8905
1271	0.8983
1262	0.9102
1253	0.9201
1244	0.9247
1235	0.947
1226	0.9563
1217	0.9489
1208	0.9397
1199	0.9331
1190	0.93
1181	0.8867
1172	0.9034
1163	0.9278
1154	0.9267
1145	0.9406
1136	0.9597
1127	0.9596
1118	0.9407
1109	0.8726
1100	0.919
1091	0.935
1082	0.9509
1073	0.9141
1064	0.8023
1055	0.8915
1046	0.9336
1037	0.9422
1028	0.6497
1019	0.8512
1010	0.8748
1001	0.8675
992	0.864
983	0.8669
974	0.8651
965	0.86
956	0.8603
947	0.8791
938	0.885
929	0.8765
920	0.8688
911	0.8595
902	0.7544
893	0.8433
884	0.8536
875	0.8717
866	0.8739
857	0.8716
848	0.8608
839	0.8268
830	0.84
821	0.8576
812	0.857
803	0.8588
794	0.8438
785	0.8189
776	0.8175
767	0.8193
758	0.7397
749	0.3206
740	0.2603
731	0.4459
722	0.4436
713	0.5882
704	0.3863
695	0.1216
686	0.7675
677	0.8572
668	0.8943
659	0.8726
650	0.8726
641	0.8779
632	0.8868
623	0.8899
614	0.8971
605	0.8991
596	0.8728
587	0.8217
578	0.8414
569	0.7553
560	0.8526
551	0.8659
542	0.8654
533	0.8471
524	0.8155
515	0.7915
506	0.7579
497	0.7463
488	0.7495
479	0.7596
470	0.7593
461	0.7606
