Infrared Spectrum: 1-Phenylheptane
Formula: C13 H20
CAS: 1078-71-3
State: SOLUTION (5% CCl4 FOR 3800-1335, 5% CS2 FOR 1335-450 CM^-^1)
Class: COBLENTZ III
Instrument: DOW KBr FOREPRISM-GRATING
Instrument parameters: BLAZED AT 3.5, 12.0, 20.0 MICRON AND CHANGED AT 5.0, 7.5, 14.9 MICRON
Sampling: TRANSMISSION
Path length: 0.011 CM, 0.011 CM
Resolution: 2
Origin: DOW CHEMICAL COMPANY
1/CM	TRANSMITTANCE
3768	0.9226
3759	0.9238
3750	0.9237
3741	0.9242
3732	0.926
3723	0.9276
3714	0.9284
3705	0.9295
3696	0.9252
3687	0.9209
3678	0.9207
3669	0.9228
3660	0.9238
3651	0.9215
3642	0.9201
3633	0.9196
3624	0.922
3615	0.9228
3606	0.918
3597	0.9158
3588	0.9213
3579	0.9262
3570	0.9128
3561	0.922
3552	0.9254
3543	0.9257
3534	0.9257
3525	0.924
3516	0.9237
3507	0.9229
3498	0.9223
3489	0.9215
3480	0.9208
3471	0.9201
3462	0.9193
3453	0.9184
3444	0.9177
3435	0.9166
3426	0.9159
3417	0.915
3408	0.9142
3399	0.9136
3390	0.9131
3381	0.9126
3372	0.912
3363	0.912
3354	0.9125
3345	0.9142
3336	0.9147
3327	0.9137
3318	0.9141
3309	0.9161
3300	0.9148
3291	0.9152
3282	0.9174
3273	0.9183
3264	0.9187
3255	0.9186
3246	0.918
3237	0.9166
3228	0.9154
3219	0.9137
3210	0.9122
3201	0.9097
3192	0.9109
3183	0.9091
3174	0.9091
3165	0.9091
3156	0.9099
3147	0.9098
3138	0.9116
3129	0.9111
3120	0.9068
3111	0.8807
3102	0.8698
3093	0.8755
3084	0.7464
3075	0.8013
3066	0.7637
3057	0.748
3048	0.8243
3039	0.7679
3030	0.6229
3021	0.5941
3012	0.7812
3003	0.8097
2994	0.8036
2985	0.803
2976	0.7205
2967	0.56
2958	0.245
2949	0.2869
2940	0.2627
2931	0.1015
2922	0.0606
2913	0.1344
2904	0.2614
2895	0.3885
2886	0.5155
2877	0.595
2868	0.4332
2859	0.4598
2850	0.2946
2841	0.5212
2832	0.7146
2823	0.8193
2814	0.8432
2805	0.8633
2796	0.8781
2787	0.888
2778	0.8996
2769	0.908
2760	0.9118
2751	0.9127
2742	0.9128
2733	0.9112
2724	0.9084
2715	0.9142
2706	0.917
2697	0.9167
2688	0.9155
2679	0.9146
2670	0.9145
2661	0.9143
2652	0.9169
2643	0.9161
2634	0.9182
2625	0.9185
2616	0.9194
2607	0.9206
2598	0.9217
2589	0.9259
2580	0.9273
2571	0.9285
2562	0.9296
2553	0.9313
2544	0.9332
2535	0.935
2526	0.9365
2517	0.9374
2508	0.9384
2499	0.9394
2490	0.9401
2481	0.9419
2472	0.9432
2463	0.9438
2454	0.9428
2445	0.9451
2436	0.9457
2427	0.946
2418	0.9457
2409	0.9457
2400	0.9466
2391	0.9464
2382	0.95
2373	0.9563
2364	0.9546
2355	0.9605
2346	0.955
2337	0.9472
2328	0.9472
2319	0.9491
2310	0.9475
2301	0.9457
2292	0.9464
2283	0.9434
2274	0.9426
2265	0.9414
2256	0.9405
2247	0.9401
2238	0.9411
2229	0.9415
2220	0.9414
2211	0.9431
2202	0.9438
2193	0.9441
2184	0.9444
2175	0.9456
2166	0.9443
2157	0.9446
2148	0.945
2139	0.9457
2130	0.9466
2121	0.9471
2112	0.9478
2103	0.9482
2094	0.9467
2085	0.9475
2076	0.9469
2067	0.9462
2058	0.9454
2049	0.9452
2040	0.9437
2031	0.9434
2022	0.945
2013	0.9463
2004	0.9497
1995	0.9012
1986	0.909
1977	0.909
1968	0.9105
1959	0.9024
1950	0.8991
1941	0.8823
1932	0.886
1923	0.9056
1914	0.9075
1905	0.9095
1896	0.9084
1887	0.902
1878	0.8978
1869	0.8929
1860	0.8931
1851	0.9012
1842	0.9059
1833	0.9063
1824	0.9058
1815	0.9032
1806	0.9026
1797	0.8872
1788	0.9097
1779	0.9142
1770	0.9131
1761	0.9145
1752	0.9131
1743	0.9109
1734	0.9154
1725	0.9182
1716	0.9196
1707	0.9214
1698	0.918
1689	0.9173
1680	0.9184
1671	0.9185
1662	0.9141
1653	0.9119
1644	0.9108
1635	0.9128
1626	0.9125
1617	0.9124
1608	0.8977
1599	0.815
1590	0.8329
1581	0.8216
1572	0.846
1563	0.8497
1554	0.8033
1545	0.7994
1536	0.8106
1527	0.8535
1518	0.8721
1509	0.8645
1500	0.6805
1491	0.6685
1482	0.871
1473	0.8412
1464	0.5906
1455	0.5032
1446	0.731
1437	0.8198
1428	0.8764
1419	0.8975
1410	0.9046
1401	0.9115
1392	0.9072
1383	0.8947
1374	0.8725
1365	0.9
1356	0.9127
1347	0.8992
1338	0.8888
1329	0.8922
1320	0.8995
1311	0.8963
1302	0.8978
1293	0.9016
1284	0.9089
1275	0.9195
1266	0.9271
1257	0.934
1248	0.9367
1239	0.9447
1230	0.9619
1221	0.9616
1212	0.9579
1203	0.9517
1194	0.9416
1185	0.9356
1176	0.9051
1167	0.9397
1158	0.9466
1149	0.9452
1140	0.9532
1131	0.9661
1122	0.9622
1113	0.9387
1104	0.9243
1095	0.9437
1086	0.9518
1077	0.9377
1068	0.9153
1059	0.9255
1050	0.9462
1041	0.9569
1032	0.9357
1023	0.8925
1014	0.9354
1005	0.9431
996	0.9444
987	0.9495
978	0.9523
969	0.9538
960	0.9556
951	0.9589
942	0.9602
933	0.9568
924	0.9503
915	0.9464
906	0.9357
897	0.926
888	0.9577
879	0.9648
870	0.9606
861	0.9611
852	0.9263
843	0.8741
834	0.8917
825	0.926
816	0.9377
807	0.9478
798	0.9439
789	0.9477
780	0.9438
771	0.9268
762	0.8984
753	0.8702
744	0.5703
735	0.6039
726	0.7349
717	0.698
708	0.8045
699	0.7485
690	0.3323
681	0.8937
672	0.9451
663	0.9693
654	0.9718
645	0.9723
636	0.971
627	0.9701
618	0.9768
609	0.9749
600	0.9739
591	0.9596
582	0.9524
573	0.9408
564	0.9416
555	0.9708
546	0.9676
537	0.9668
528	0.9549
519	0.9302
510	0.9239
501	0.9275
492	0.9006
483	0.8969
474	0.8994
465	0.8989
