Infrared Spectrum: PHENYL HYDROQUINONE
Formula: C12 H10 O2
CAS: 1079-21-6
State: SOLID (MULL)
Melting point: 101.5-103 C
Class: COBLENTZ
Instrument: Not specified, most likely a prism, grating, or hybrid spectrometer.
Sampling: TRANSMISSION
Resolution: 4
Origin: WYANDOTTE CHEMICALS CORP., WYANDOTTE, MICHIGAN, USA
MICROMETERS	TRANSMITTANCE
2.006	0.513
2.04485	0.53
2.08369	0.534
2.12254	0.544
2.16139	0.565
2.20024	0.57
2.23908	0.565
2.27793	0.567
2.31678	0.586
2.35562	0.6
2.39447	0.596
2.43332	0.616
2.47217	0.632
2.51101	0.645
2.54986	0.663
2.58871	0.676
2.62755	0.691
2.6664	0.705
2.70525	0.721
2.74409	0.736
2.78294	0.718
2.82179	0.517
2.86064	0.51
2.89948	0.559
2.93833	0.531
2.97718	0.401
3.01602	0.221
3.05487	0.11
3.09372	0.074
3.13257	0.076
3.17141	0.121
3.21026	0.201
3.24911	0.271
3.28795	0.287
3.3268	0.26
3.36565	0.073
3.4045	0.043
3.44334	0.034
3.48219	0.048
3.52104	0.055
3.55988	0.347
3.59873	0.556
3.63758	0.616
3.67642	0.614
3.71527	0.624
3.75412	0.634
3.79297	0.647
3.83181	0.671
3.87066	0.699
3.90951	0.702
3.94835	0.708
3.9872	0.739
4.02605	0.746
4.0649	0.769
4.10374	0.793
4.14259	0.785
4.18144	0.775
4.22028	0.801
4.25913	0.793
4.29798	0.803
4.33683	0.821
4.37567	0.84
4.41452	0.861
4.45337	0.873
4.49221	0.874
4.53106	0.874
4.56991	0.886
4.60875	0.895
4.6476	0.902
4.68645	0.908
4.7253	0.917
4.76414	0.925
4.80299	0.915
4.84184	0.913
4.88068	0.917
4.91953	0.926
4.95838	0.92
4.99723	0.918
5.03607	0.921
5.07492	0.921
5.11377	0.925
5.15261	0.915
5.19146	0.92
5.23031	0.93
5.26916	0.933
5.308	0.921
5.34685	0.912
5.3857	0.928
5.42454	0.938
5.46339	0.926
5.50224	0.9
5.54108	0.936
5.57993	0.936
5.61878	0.943
5.65763	0.941
5.69647	0.931
5.73532	0.917
5.77417	0.925
5.81301	0.934
5.85186	0.934
5.89071	0.949
5.92956	0.936
5.9684	0.936
6.00725	0.947
6.0461	0.943
6.08494	0.878
6.12379	0.801
6.16264	0.764
6.20149	0.582
6.24033	0.674
6.27918	0.83
6.31803	0.665
6.35687	0.832
6.39572	0.899
6.43457	0.907
6.47341	0.9
6.51226	0.765
6.55111	0.437
6.58996	0.266
6.6288	0.617
6.66765	0.297
6.7065	0.281
6.74534	0.312
6.78419	0.133
6.82304	0.086
6.86189	0.065
6.90073	0.172
6.93958	0.156
6.97843	0.081
7.01727	0.323
7.05612	0.424
7.09497	0.427
7.13382	0.382
7.17266	0.284
7.21151	0.136
7.25036	0.056
7.2892	0.05
7.32805	0.068
7.3669	0.146
7.40574	0.208
7.44459	0.206
7.48344	0.16
7.52229	0.25
7.56113	0.411
7.59998	0.4
7.63883	0.224
7.67767	0.31
7.71652	0.486
7.75537	0.591
7.79422	0.614
7.83306	0.5
7.87191	0.502
7.91076	0.538
7.9496	0.401
7.98845	0.414
8.0273	0.504
8.06615	0.518
8.10499	0.364
8.14384	0.336
8.18269	0.326
8.22153	0.284
8.26038	0.154
8.29923	0.079
8.33808	0.048
8.37692	0.053
8.41577	0.086
8.45462	0.144
8.49346	0.165
8.53231	0.182
8.57116	0.295
8.61	0.439
8.64885	0.481
8.6877	0.559
8.72655	0.656
8.76539	0.694
8.80424	0.673
8.84309	0.559
8.88193	0.424
8.92078	0.414
8.95963	0.616
8.99848	0.694
9.03732	0.747
9.07617	0.772
9.11502	0.803
9.15386	0.817
9.19271	0.826
9.23156	0.814
9.27041	0.725
9.30925	0.546
9.3481	0.692
9.38695	0.809
9.42579	0.834
9.46464	0.853
9.50349	0.858
9.54233	0.853
9.58118	0.739
9.62003	0.695
9.65888	0.811
9.69772	0.837
9.73657	0.829
9.77542	0.765
9.81426	0.726
9.85311	0.827
9.89196	0.853
9.93081	0.876
9.96965	0.856
10.0085	0.819
10.0473	0.855
10.0862	0.856
10.125	0.835
10.1639	0.847
10.2027	0.858
10.2416	0.843
10.2804	0.821
10.3193	0.824
10.3581	0.819
10.397	0.826
10.4358	0.848
10.4747	0.856
10.5135	0.865
10.5524	0.873
10.5912	0.879
10.6301	0.881
10.6689	0.882
10.7077	0.881
10.7466	0.881
10.7854	0.882
10.8243	0.879
10.8631	0.856
10.902	0.824
10.9408	0.793
10.9797	0.837
11.0185	0.887
11.0574	0.9
11.0962	0.869
11.1351	0.707
11.1739	0.564
11.2128	0.695
11.2516	0.826
11.2905	0.876
11.3293	0.895
11.3681	0.86
11.407	0.637
11.4458	0.495
11.4847	0.528
11.5235	0.321
11.5624	0.526
11.6012	0.765
11.6401	0.835
11.6789	0.839
11.7178	0.723
11.7566	0.726
11.7955	0.822
11.8343	0.855
11.8732	0.861
11.912	0.878
11.9509	0.879
11.9897	0.873
12.0285	0.868
12.0674	0.853
12.1062	0.832
12.1451	0.801
12.1839	0.704
12.2228	0.616
12.2616	0.627
12.3005	0.588
12.3393	0.421
12.3782	0.318
12.417	0.263
12.4559	0.286
12.4947	0.252
12.5336	0.108
12.5724	0.19
12.6113	0.32
12.6501	0.323
12.6889	0.461
12.7278	0.621
12.7666	0.713
12.8055	0.743
12.8443	0.744
12.8832	0.734
12.922	0.708
12.9609	0.665
12.9997	0.598
13.0386	0.465
13.0774	0.266
13.1163	0.113
13.1551	0.074
13.194	0.089
13.2328	0.115
13.2717	0.191
13.3105	0.325
13.3493	0.473
13.3882	0.573
13.427	0.624
13.4659	0.658
13.5047	0.676
13.5436	0.674
13.5824	0.678
13.6213	0.674
13.6601	0.666
13.699	0.652
13.7378	0.6
13.7767	0.471
13.8155	0.291
13.8544	0.279
13.8932	0.413
13.9321	0.502
13.9709	0.544
14.0097	0.51
14.0486	0.439
14.0874	0.487
14.1263	0.601
14.1651	0.622
14.204	0.591
14.2428	0.469
14.2817	0.313
14.3205	0.208
14.3594	0.18
14.3982	0.177
14.4371	0.173
14.4759	0.204
14.5148	0.312
14.5536	0.465
14.5925	0.549
14.6313	0.595
14.6702	0.614
14.709	0.624
14.7478	0.63
14.7867	0.624
14.8255	0.629
14.8644	0.634
14.9032	0.637
14.9421	0.632
14.9809	0.63
15.0198	0.614
15.0586	0.591
15.0975	0.569
15.1363	0.569
15.1752	0.588
15.214	0.613
15.2529	0.642
15.2917	0.65
15.3306	0.653
15.3694	0.653
15.4082	0.652
15.4471	0.658
15.4859	0.658
15.5248	0.66
15.5636	0.661
15.6025	0.66
15.6413	0.66
15.6802	0.65
15.719	0.629
15.7579	0.601
15.7967	0.582
15.8356	0.582
15.8744	0.58
15.9133	0.586
15.9521	0.585
15.991	0.585
