Infrared Spectrum: BENZENE, 1,3-DIBROMO-
Formula: C6 H4 Br2
CAS: 108-36-1
State: SOLUTION (5% IN CCl4 FOR 3800-1300, 5% IN CS2 FOR 1350-600, AND 5% IN CCl4 FOR 600-250 CM^-^1) VERSUS SOLVENT
Class: COBLENTZ III
Instrument: PERKIN-ELMER 521 (GRATING)
Instrument parameters: FILTERS AT 3150, 2500, 2000, 1150, 700, 410; GRATING CHANGES AT 2000, 630 CM^-^1
Sampling: TRANSMISSION
Path length: 0.010, 0.010, AND 0.020 CM (CsBr CELL)
Resolution: 4
Origin: DOW CORNING CORP.
1/CM	TRANSMITTANCE
237.734	0.877
246.912	0.88
256.091	0.882
265.269	0.88
274.448	0.875
283.626	0.883
292.805	0.896
301.983	0.892
311.162	0.912
320.34	0.915
329.519	0.905
338.697	0.896
347.876	0.881
357.054	0.883
366.233	0.887
375.411	0.885
384.59	0.883
393.768	0.877
402.947	0.871
412.125	0.852
421.304	0.611
430.482	0.849
439.661	0.871
448.839	0.867
458.018	0.872
467.196	0.876
476.375	0.87
485.553	0.863
494.732	0.86
503.91	0.861
513.089	0.86
522.267	0.836
531.446	0.866
540.624	0.877
549.803	0.878
558.981	0.878
568.16	0.881
577.338	0.881
586.517	0.88
595.695	0.882
604.874	0.89
614.052	0.892
623.231	0.891
632.409	0.891
641.588	0.89
650.766	0.89
659.945	0.853
669.123	0.834
678.302	0.894
687.48	0.899
696.659	0.896
705.837	0.896
715.016	0.854
724.194	0.5201
733.373	0.8319
742.551	0.863
751.73	0.858
760.908	0.78
770.087	0.3641
779.265	0.825
788.444	0.882
797.622	0.902
806.801	0.901
815.979	0.902
825.158	0.897
834.336	0.892
843.515	0.886
852.693	0.86
861.872	0.757
871.05	0.7201
880.229	0.887
889.407	0.894
898.586	0.895
907.764	0.897
916.943	0.896
926.121	0.894
935.3	0.892
944.478	0.892
953.657	0.889
962.835	0.883
972.014	0.883
981.192	0.873
990.371	0.8101
999.549	0.858
1008.73	0.852
1017.91	0.805
1027.08	0.841
1036.26	0.839
1045.44	0.823
1054.62	0.715
1063.8	0.759
1072.98	0.6391
1082.16	0.803
1091.33	0.765
1100.51	0.81
1109.69	0.813
1118.87	0.843
1128.05	0.844
1137.23	0.844
1146.41	0.844
1155.58	0.842
1164.76	0.871
1173.94	0.886
1183.12	0.89
1192.3	0.894
1201.48	0.897
1210.65	0.899
1219.83	0.896
1229.01	0.895
1238.19	0.891
1247.37	0.883
1256.55	0.887
1265.73	0.885
1274.9	0.875
1284.08	0.868
1293.26	0.895
1302.44	0.899
1311.62	0.895
1320.8	0.894
1329.98	0.901
1339.15	0.906
1348.33	0.909
1357.51	0.907
1366.69	0.905
1375.87	0.895
1385.05	0.846
1394.22	0.848
1403.4	0.813
1412.58	0.876
1421.76	0.916
1430.94	0.906
1440.12	0.901
1449.3	0.7501
1458.47	0.6169
1467.65	0.862
1476.83	0.854
1486.01	0.916
1495.19	0.929
1504.37	0.929
1513.54	0.925
1522.72	0.919
1531.9	0.906
1541.08	0.883
1550.26	0.819
1559.44	0.578
1568.62	0.232
1577.79	0.7451
1586.97	0.89
1596.15	0.914
1605.33	0.923
1614.51	0.923
1623.69	0.924
1632.87	0.923
1642.04	0.923
1651.22	0.918
1660.4	0.909
1669.58	0.92
1678.76	0.924
1687.94	0.924
1697.11	0.923
1706.29	0.92
1715.47	0.918
1724.65	0.911
1733.83	0.907
1743.01	0.918
1752.19	0.921
1761.36	0.921
1770.54	0.921
1779.72	0.915
1788.9	0.915
1798.08	0.924
1807.26	0.925
1816.44	0.925
1825.61	0.921
1834.79	0.918
1843.97	0.916
1853.15	0.91
1862.33	0.914
1871.51	0.924
1880.68	0.923
1889.86	0.925
1899.04	0.924
1908.22	0.92
1917.4	0.916
1926.58	0.91
1935.76	0.911
1944.93	0.925
1954.11	0.925
1963.29	0.925
1972.47	0.925
1981.65	0.926
1990.83	0.926
2000.01	0.928
2009.18	0.927
2018.36	0.926
2027.54	0.926
2036.72	0.926
2045.9	0.925
2055.08	0.925
2064.25	0.924
2073.43	0.924
2082.61	0.924
2091.79	0.923
2100.97	0.921
2110.15	0.9192
2119.33	0.9188
2128.5	0.918
2137.68	0.916
2146.86	0.9157
2156.04	0.915
2165.22	0.916
2174.4	0.9154
2183.58	0.918
2192.75	0.915
2201.93	0.9156
2211.11	0.915
2220.29	0.915
2229.47	0.915
2238.65	0.918
2247.82	0.916
2257	0.915
2266.18	0.915
2275.36	0.9168
2284.54	0.915
2293.72	0.9161
2302.9	0.916
2312.07	0.915
2321.25	0.914
2330.43	0.915
2339.61	0.914
2348.79	0.914
2357.97	0.914
2367.15	0.914
2376.32	0.914
2385.5	0.914
2394.68	0.914
2403.86	0.915
2413.04	0.915
2422.22	0.912
2431.39	0.912
2440.57	0.912
2449.75	0.912
2458.93	0.912
2468.11	0.912
2477.29	0.911
2486.47	0.911
2495.64	0.9101
2504.82	0.911
2514	0.9138
2523.18	0.914
2532.36	0.914
2541.54	0.914
2550.72	0.912
2559.89	0.914
2569.07	0.912
2578.25	0.914
2587.43	0.912
2596.61	0.911
2605.79	0.9117
2614.96	0.9124
2624.14	0.914
2633.32	0.912
2642.5	0.911
2651.68	0.911
2660.86	0.911
2670.04	0.9112
2679.21	0.914
2688.39	0.912
2697.57	0.911
2706.75	0.911
2715.93	0.911
2725.11	0.911
2734.28	0.911
2743.46	0.911
2752.64	0.911
2761.82	0.911
2771	0.911
2780.18	0.911
2789.36	0.9113
2798.53	0.9112
2807.71	0.9107
2816.89	0.91
2826.07	0.91
2835.25	0.91
2844.43	0.9108
2853.61	0.91
2862.78	0.91
2871.96	0.91
2881.14	0.9109
2890.32	0.909
2899.5	0.909
2908.68	0.907
2917.85	0.907
2927.03	0.906
2936.21	0.906
2945.39	0.905
2954.57	0.905
2963.75	0.904
2972.93	0.904
2982.1	0.902
2991.28	0.902
3000.46	0.902
3009.64	0.902
3018.82	0.901
3028	0.901
3037.18	0.8985
3046.35	0.8882
3055.53	0.8642
3064.71	0.8764
3073.89	0.8924
3083.07	0.894
3092.25	0.895
3101.42	0.9006
3110.6	0.902
3119.78	0.9032
3128.96	0.905
3138.14	0.906
3147.32	0.91
3156.5	0.912
3165.67	0.914
3174.85	0.915
3184.03	0.9151
3193.21	0.9169
3202.39	0.918
3211.57	0.9194
3220.75	0.92
3229.92	0.921
3239.1	0.921
3248.28	0.9253
3257.46	0.926
3266.64	0.926
3275.82	0.928
3284.99	0.9265
3294.17	0.928
3303.35	0.929
3312.53	0.929
3321.71	0.9298
3330.89	0.929
3340.07	0.93
3349.24	0.929
3358.42	0.929
3367.6	0.9294
3376.78	0.929
3385.96	0.93
3395.14	0.93
3404.32	0.929
3413.49	0.93
3422.67	0.929
3431.85	0.93
3441.03	0.9322
3450.21	0.93
3459.39	0.933
3468.56	0.933
3477.74	0.9324
3486.92	0.933
3496.1	0.933
3505.28	0.9315
3514.46	0.933
3523.64	0.934
3532.81	0.934
3541.99	0.9347
3551.17	0.934
3560.35	0.934
3569.53	0.9341
3578.71	0.936
3587.89	0.9358
3597.06	0.933
3606.24	0.934
3615.42	0.933
3624.6	0.935
3633.78	0.9345
3642.96	0.935
3652.13	0.934
3661.31	0.935
3670.49	0.935
3679.67	0.935
3688.85	0.935
3698.03	0.933
3707.21	0.935
3716.38	0.935
3725.56	0.935
3734.74	0.936
3743.92	0.939
3753.1	0.936
3762.28	0.934
3771.46	0.934
3780.63	0.9342
3789.81	0.936
3798.99	0.936
