Infrared Spectrum: Cyclohexylamine
Formula: C6 H13 N
CAS: 108-91-8
State: LIQUID (NEAT)
Class: COBLENTZ II
Instrument: DOW KBr FOREPRISM-GRATING
Instrument parameters: BLAZED AT 3.5, 12.0, 20.0 MICRON AND CHANGED AT 5.0, 7.5, 14.9 MICRON
Sampling: TRANSMISSION
Path length: CAPILLARY
Resolution: 2
Origin: DOW CHEMICAL COMPANY
1/CM	TRANSMITTANCE
427	0.8686
436	0.8686
445	0.8665
454	0.8637
463	0.8675
472	0.8746
481	0.8837
490	0.8909
499	0.8933
508	0.893
517	0.8918
526	0.8917
535	0.8908
544	0.8785
553	0.8568
562	0.8889
571	0.8892
580	0.889
589	0.8871
598	0.8849
607	0.8828
616	0.8804
625	0.8689
634	0.8645
643	0.8688
652	0.8674
661	0.8651
670	0.8415
679	0.8375
688	0.8378
697	0.8389
706	0.838
715	0.8349
724	0.829
733	0.8216
742	0.8101
751	0.7875
760	0.7554
769	0.7049
778	0.7098
787	0.7444
796	0.698
805	0.6451
814	0.598
823	0.5566
832	0.5465
841	0.5216
850	0.6168
859	0.6397
868	0.6821
877	0.6608
886	0.5823
895	0.5804
904	0.6326
913	0.6783
922	0.6589
931	0.6906
940	0.7264
949	0.7511
958	0.7775
967	0.7817
976	0.8007
985	0.8182
994	0.8242
1003	0.8289
1012	0.8264
1021	0.8089
1030	0.7782
1039	0.791
1048	0.8221
1057	0.8193
1066	0.8157
1075	0.7918
1084	0.7368
1093	0.7436
1102	0.7336
1111	0.7815
1120	0.8507
1129	0.853
1138	0.8407
1147	0.8287
1156	0.8499
1165	0.8539
1174	0.8471
1183	0.856
1192	0.8506
1201	0.8343
1210	0.8518
1219	0.8556
1228	0.8495
1237	0.8397
1246	0.8304
1255	0.7965
1264	0.814
1273	0.83
1282	0.838
1291	0.8365
1300	0.8306
1309	0.8208
1318	0.8273
1327	0.8146
1336	0.7951
1345	0.7651
1354	0.8076
1363	0.7592
1372	0.7447
1381	0.7949
1390	0.8213
1399	0.8374
1408	0.8396
1417	0.832
1426	0.815
1435	0.7511
1444	0.5386
1453	0.5606
1462	0.7158
1471	0.8147
1480	0.8174
1489	0.8206
1498	0.8201
1507	0.8191
1516	0.8175
1525	0.8151
1534	0.8111
1543	0.8021
1552	0.7901
1561	0.7737
1570	0.7537
1579	0.7332
1588	0.7191
1597	0.7128
1606	0.7162
1615	0.7368
1624	0.7597
1633	0.795
1642	0.8183
1651	0.8178
1660	0.8139
1669	0.8164
1678	0.8228
1687	0.8308
1696	0.8354
1705	0.8393
1714	0.8425
1723	0.8437
1732	0.8432
1741	0.8427
1750	0.8456
1759	0.8496
1768	0.8503
1777	0.8506
1786	0.8502
1795	0.849
1804	0.8474
1813	0.8461
1822	0.8452
1831	0.8457
1840	0.8464
1849	0.8463
1858	0.8461
1867	0.845
1876	0.8434
1885	0.8428
1894	0.8425
1903	0.8414
1912	0.8435
1921	0.8421
1930	0.8387
1939	0.839
1948	0.8424
1957	0.8596
1966	0.843
1975	0.8444
1984	0.8463
1993	0.8878
2002	0.887
2011	0.8865
2020	0.8857
2029	0.8846
2038	0.8836
2047	0.8827
2056	0.8818
2065	0.8808
2074	0.8795
2083	0.8781
2092	0.877
2101	0.8762
2110	0.8754
2119	0.8744
2128	0.8733
2137	0.8723
2146	0.8712
2155	0.8702
2164	0.8693
2173	0.8685
2182	0.8681
2191	0.8681
2200	0.8687
2209	0.8692
2218	0.8697
2227	0.8688
2236	0.8675
2245	0.8668
2254	0.8663
2263	0.8657
2272	0.8654
2281	0.865
2290	0.8647
2299	0.8643
2308	0.863
2317	0.8615
2326	0.8636
2335	0.864
2344	0.8591
2353	0.8573
2362	0.8582
2371	0.8583
2380	0.8583
2389	0.8585
2398	0.8586
2407	0.8584
2416	0.8583
2425	0.8582
2434	0.8581
2443	0.8581
2452	0.858
2461	0.8578
2470	0.8577
2479	0.8578
2488	0.8582
2497	0.8578
2506	0.8575
2515	0.857
2524	0.8563
2533	0.8556
2542	0.8541
2551	0.8523
2560	0.8493
2569	0.8451
2578	0.8398
2587	0.8339
2596	0.8315
2605	0.8353
2614	0.8358
2623	0.8332
2632	0.8281
2641	0.82
2650	0.8083
2659	0.7964
2668	0.8054
2677	0.8259
2686	0.8325
2695	0.8318
2704	0.8302
2713	0.8284
2722	0.8299
2731	0.8271
2740	0.8209
2749	0.822
2758	0.8224
2767	0.8122
2776	0.7958
2785	0.7775
2794	0.7598
2803	0.7337
2812	0.6994
2821	0.6636
2830	0.5103
2839	0.2713
2848	0.1464
2857	0.314
2866	0.5196
2875	0.5222
2884	0.4273
2893	0.3157
2902	0.2041
2911	0.129
2920	0.043
2929	0.048
2938	0.2159
2947	0.4776
2956	0.6625
2965	0.723
2974	0.7584
2983	0.7772
2992	0.7926
3001	0.8007
3010	0.8057
3019	0.8087
3028	0.8108
3037	0.8115
3046	0.8121
3055	0.8124
3064	0.8115
3073	0.8099
3082	0.8076
3091	0.8053
3100	0.8028
3109	0.8003
3118	0.7972
3127	0.7918
3136	0.7841
3145	0.7771
3154	0.7705
3163	0.7639
3172	0.7581
3181	0.7558
3190	0.7569
3199	0.758
3208	0.7571
3217	0.7528
3226	0.7465
3235	0.7384
3244	0.7297
3253	0.7215
3262	0.7146
3271	0.7089
3280	0.7104
3289	0.7168
3298	0.7288
3307	0.7389
3316	0.7384
3325	0.73
3334	0.7186
3343	0.7037
3352	0.7011
3361	0.7158
3370	0.7347
3379	0.7492
3388	0.764
3397	0.7706
3406	0.7745
3415	0.7775
3424	0.7801
3433	0.7826
3442	0.7853
3451	0.788
3460	0.7908
3469	0.7936
3478	0.7961
3487	0.7987
3496	0.8011
3505	0.8035
3514	0.8058
3523	0.8081
3532	0.8115
3541	0.8151
3550	0.8186
3559	0.8221
3568	0.8253
3577	0.8281
3586	0.8309
3595	0.833
3604	0.8347
3613	0.8362
3622	0.8354
3631	0.8393
3640	0.8417
3649	0.8388
3658	0.8374
3667	0.8378
3676	0.8443
3685	0.8493
3694	0.8437
3703	0.8443
3712	0.8464
3721	0.8495
3730	0.8521
3739	0.8456
3748	0.8445
3757	0.8448
3766	0.846
3775	0.8471
3784	0.8474
3793	0.8475
