Infrared Spectrum: PHENOL
Formula: C6 H6 O
CAS: 108-95-2
State: SOLUTION (10% IN CCl4 FOR 3800-1300, 10% IN CS2 FOR 1300-650, 10% IN CCl4 FOR 650-250 CM^-^1) VERSUS SOLVENT
Class: COBLENTZ III
Instrument: PERKIN-ELMER 521 (GRATING)
Instrument parameters: FILTERS AT 3150, 2500, 2000, 1150, 700, 410; GRATING CHANGES AT 2000, 630 CM^-^1
Sampling: TRANSMISSION
Path length: 0.012, 0.011, AND 0.010 CM (CsBr CELL)
Resolution: 4
Origin: DOW CORNING CORP.
1/CM	TRANSMITTANCE
238.466	0.569
248.329	0.574
258.192	0.584
268.055	0.586
277.918	0.584
287.781	0.568
297.644	0.554
307.507	0.525
317.37	0.518
327.233	0.521
337.096	0.544
346.959	0.586
356.823	0.617
366.686	0.649
376.549	0.674
386.412	0.682
396.275	0.668
406.138	0.584
416.001	0.641
425.864	0.673
435.727	0.69
445.59	0.692
455.453	0.692
465.316	0.697
475.179	0.69
485.042	0.682
494.905	0.645
504.768	0.362
514.631	0.408
524.494	0.584
534.357	0.482
544.22	0.624
554.083	0.629
563.946	0.622
573.809	0.614
583.672	0.608
593.536	0.602
603.399	0.594
613.262	0.58
623.125	0.572
632.988	0.568
642.851	0.572
652.714	0.552
662.577	0.553
672.44	0.566
682.303	0.456
692.166	0.052
702.029	0.4781
711.892	0.585
721.755	0.593
731.618	0.566
741.481	0.332
751.344	0
761.207	0.162
771.07	0.581
780.933	0.689
790.796	0.717
800.659	0.649
810.522	0.157
820.385	0.404
830.249	0.44
840.112	0.733
849.975	0.798
859.838	0.816
869.701	0.788
879.564	0.5759
889.427	0.5131
899.29	0.785
909.153	0.837
919.016	0.845
928.879	0.842
938.742	0.838
948.605	0.825
958.468	0.82
968.331	0.809
978.194	0.813
988.057	0.797
997.92	0.6119
1007.78	0.776
1017.65	0.77
1027.51	0.3962
1037.37	0.818
1047.24	0.805
1057.1	0.76
1066.96	0.3839
1076.82	0.6011
1086.69	0.774
1096.55	0.762
1106.41	0.732
1116.28	0.732
1126.14	0.677
1136	0.609
1145.87	0.388
1155.73	0.2441
1165.59	0.094
1175.45	0.065
1185.32	0.065
1195.18	0.098
1205.04	0.061
1214.91	0.032
1224.77	0.033
1234.63	0.041
1244.5	0.089
1254.36	0.073
1264.22	0.1931
1274.09	0.528
1283.95	0.7
1293.81	0.722
1303.67	0.726
1313.54	0.626
1323.4	0.636
1333.26	0.469
1343.13	0.162
1352.99	0.34
1362.85	0.322
1372.72	0.397
1382.58	0.474
1392.44	0.52
1402.3	0.676
1412.17	0.744
1422.03	0.785
1431.89	0.762
1441.76	0.753
1451.62	0.724
1461.48	0.5659
1471.35	0.014
1481.21	0.1742
1491.07	0.3409
1500.94	0.001
1510.8	0.4731
1520.66	0.69
1530.52	0.638
1540.39	0.741
1550.25	0.705
1560.11	0.666
1569.98	0.65
1579.84	0.609
1589.7	0.3659
1599.57	0.01
1609.43	0.025
1619.29	0.6531
1629.15	0.793
1639.02	0.826
1648.88	0.83
1658.74	0.852
1668.61	0.854
1678.47	0.846
1688.33	0.822
1698.2	0.774
1708.06	0.745
1717.92	0.733
1727.79	0.804
1737.65	0.849
1747.51	0.848
1757.37	0.841
1767.24	0.814
1777.1	0.817
1786.96	0.836
1796.83	0.862
1806.69	0.872
1816.55	0.87
1826.42	0.861
1836.28	0.806
1846.14	0.812
1856	0.834
1865.87	0.861
1875.73	0.877
1885.59	0.885
1895.46	0.88
1905.32	0.877
1915.18	0.868
1925.05	0.845
1934.91	0.73
1944.77	0.821
1954.64	0.832
1964.5	0.869
1974.36	0.88
1984.22	0.872
1994.09	0.869
2003.95	0.877
2013.81	0.878
2023.68	0.876
2033.54	0.874
2043.4	0.872
2053.27	0.864
2063.13	0.86
2072.99	0.862
2082.85	0.872
2092.72	0.88
2102.58	0.888
2112.44	0.892
2122.31	0.894
2132.17	0.896
2142.03	0.894
2151.9	0.892
2161.76	0.889
2171.62	0.886
2181.49	0.884
2191.35	0.881
2201.21	0.882
2211.07	0.8821
2220.94	0.885
2230.8	0.885
2240.66	0.8799
2250.53	0.882
2260.39	0.8809
2270.25	0.8809
2280.12	0.877
2289.98	0.874
2299.84	0.873
2309.7	0.8598
2319.57	0.8558
2329.43	0.8561
2339.29	0.866
2349.16	0.8649
2359.02	0.862
2368.88	0.857
2378.75	0.854
2388.61	0.8487
2398.47	0.842
2408.34	0.8191
2418.2	0.8011
2428.06	0.8062
2437.92	0.808
2447.79	0.8142
2457.65	0.816
2467.51	0.8129
2477.38	0.8121
2487.24	0.813
2497.1	0.8143
2506.97	0.821
2516.83	0.82
2526.69	0.8241
2536.55	0.8291
2546.42	0.8299
2556.28	0.8218
2566.14	0.8128
2576.01	0.8058
2585.87	0.8042
2595.73	0.8018
2605.6	0.801
2615.46	0.8082
2625.32	0.8103
2635.19	0.814
2645.05	0.8172
2654.91	0.82
2664.77	0.817
2674.64	0.814
2684.5	0.8122
2694.36	0.8116
2704.23	0.7976
2714.09	0.7888
2723.95	0.788
2733.82	0.793
2743.68	0.8012
2753.54	0.8092
2763.4	0.8132
2773.27	0.8202
2783.13	0.821
2792.99	0.8242
2802.86	0.8276
2812.72	0.822
2822.58	0.8193
2832.45	0.8051
2842.31	0.8025
2852.17	0.8092
2862.04	0.8122
2871.9	0.814
2881.76	0.818
2891.62	0.82
2901.49	0.822
2911.35	0.8253
2921.21	0.829
2931.08	0.8244
2940.94	0.806
2950.8	0.7792
2960.67	0.7607
2970.53	0.75
2980.39	0.757
2990.25	0.7522
3000.12	0.7417
3009.98	0.719
3019.84	0.6463
3029.71	0.533
3039.57	0.4968
3049.43	0.3401
3059.3	0.4104
3069.16	0.5638
3079.02	0.5098
3088.89	0.524
3098.75	0.5215
3108.61	0.5478
3118.47	0.5908
3128.34	0.629
3138.2	0.6234
3148.06	0.599
3157.93	0.5778
3167.79	0.5517
3177.65	0.5244
3187.52	0.4873
3197.38	0.4601
3207.24	0.412
3217.1	0.3827
3226.97	0.3533
3236.83	0.3346
3246.69	0.2916
3256.56	0.2683
3266.42	0.2356
3276.28	0.2146
3286.15	0.1869
3296.01	0.1706
3305.87	0.149
3315.74	0.1399
3325.6	0.1286
3335.46	0.1233
3345.32	0.12
3355.19	0.117
3365.05	0.1188
3374.91	0.121
3384.78	0.1228
3394.64	0.1284
3404.5	0.1348
3414.37	0.1448
3424.23	0.1548
3434.09	0.163
3443.95	0.1776
3453.82	0.1908
3463.68	0.2102
3473.54	0.2248
3483.41	0.2428
3493.27	0.2516
3503.13	0.2701
3513	0.2968
3522.86	0.3337
3532.72	0.3703
3542.59	0.4027
3552.45	0.4227
3562.31	0.4409
3572.17	0.4663
3582.04	0.4677
3591.9	0.4133
3601.76	0.2795
3611.63	0.1881
3621.49	0.3409
3631.35	0.7004
3641.22	0.8208
3651.08	0.8549
3660.94	0.8589
3670.8	0.8725
3680.67	0.877
3690.53	0.881
3700.39	0.8855
3710.26	0.889
3720.12	0.886
3729.98	0.889
3739.85	0.892
3749.71	0.893
3759.57	0.89
3769.44	0.889
3779.3	0.8895
3789.16	0.8895
