Infrared Spectrum: Gamma-VALEROLACTONE
Formula: C5 H8 O2
CAS: 108-29-2
State: SALTED SOLUTION (CCl4 FOR 3800-1330, CS2 FOR 1330-450 CM^-^1)
Class: COBLENTZ III
Instrument: BECKMAN IR-9 (GRATING)
Instrument parameters: ORDER CHANGES AT 670, 1200, 2000 CM^-^1
Sampling: TRANSMISSION
Path length: 0.011, 0.011 CM
Resolution: 4
Origin: DOW CHEMICAL COMPANY
1/CM	TRANSMITTANCE
453.951	0.826
462.479	0.818
471.006	0.909
479.534	0.946
488.061	0.958
496.589	0.924
505.116	0.91
513.644	0.752
522.172	0.873
530.699	0.797
539.227	0.868
547.754	0.98
556.282	1.019
564.81	1.031
573.337	1.038
581.865	1.039
590.392	1.037
598.92	1.009
607.447	0.946
615.975	0.985
624.503	0.997
633.03	0.952
641.558	0.773
650.085	0.564
658.613	0.641
667.14	0.856
675.668	0.94
684.196	0.985
692.723	1.015
701.251	1.027
709.778	1.031
718.306	1.057
726.834	1.065
735.361	1.069
743.889	1.071
752.416	1.066
760.944	1.059
769.471	1.05
777.999	1.022
786.527	0.969
795.054	0.902
803.582	0.685
812.109	0.813
820.637	0.805
829.164	0.85
837.692	0.952
846.22	0.912
854.747	0.841
863.275	0.832
871.802	0.837
880.33	0.707
888.857	0.492
897.385	0.33
905.913	0.765
914.44	0.861
922.968	0.852
931.495	0.644
940.023	0.098
948.551	0.322
957.078	0.532
965.606	0.643
974.133	0.852
982.661	0.886
991.188	0.752
999.716	0.368
1008.24	0.796
1016.77	0.881
1025.3	0.877
1033.83	0.729
1042.35	0.535
1050.88	0.42
1059.41	0.182
1067.94	0.3281
1076.46	0.657
1084.99	0.609
1093.52	0.368
1102.05	0.49
1110.57	0.328
1119.1	0.097
1127.63	0.371
1136.16	0.571
1144.68	0.523
1153.21	0.256
1161.74	0.033
1170.27	0.006
1178.8	0.033
1187.32	0.115
1195.85	0.066
1204.38	0.254
1212.91	0.31
1221.43	0.237
1229.96	0.484
1238.49	0.652
1247.02	0.709
1255.54	0.747
1264.07	0.754
1272.6	0.628
1281.13	0.645
1289.65	0.721
1298.18	0.507
1306.71	0.727
1315.24	0.773
1323.76	0.777
1332.29	0.567
1340.82	0.153
1349.35	0.2901
1357.87	0.456
1366.4	0.56
1374.93	0.627
1383.46	0.23
1391.98	0.475
1400.51	0.677
1409.04	0.696
1417.57	0.533
1426.09	0.4441
1434.62	0.688
1443.15	0.601
1451.68	0.589
1460.21	0.308
1468.73	0.731
1477.26	0.828
1485.79	0.85
1494.32	0.841
1502.84	0.812
1511.37	0.77
1519.9	0.737
1528.43	0.705
1536.95	0.637
1545.48	0.549
1554.01	0.525
1562.54	0.593
1571.06	0.653
1579.59	0.669
1588.12	0.689
1596.65	0.724
1605.17	0.766
1613.7	0.805
1622.23	0.808
1630.76	0.825
1639.28	0.849
1647.81	0.861
1656.34	0.868
1664.87	0.848
1673.39	0.829
1681.92	0.793
1690.45	0.744
1698.98	0.64
1707.51	0.4898
1716.03	0.272
1724.56	0.231
1733.09	0.211
1741.62	0.127
1750.14	0.103
1758.67	0.061
1767.2	0.011
1775.73	0.005
1784.25	0.003
1792.78	0.005
1801.31	0.105
1809.84	0.3551
1818.36	0.525
1826.89	0.595
1835.42	0.691
1843.95	0.789
1852.47	0.833
1861	0.857
1869.53	0.872
1878.06	0.888
1886.58	0.901
1895.11	0.905
1903.64	0.932
1912.17	0.944
1920.69	0.945
1929.22	0.953
1937.75	0.961
1946.28	0.962
1954.8	0.96
1963.33	0.964
1971.86	0.965
1980.39	0.966
1988.92	0.965
1997.44	0.96
2005.97	0.9685
2014.5	0.9725
2023.03	0.9759
2031.55	0.9829
2040.08	0.9869
2048.61	0.9837
2057.14	0.9747
2065.66	0.97
2074.19	0.9748
2082.72	0.977
2091.25	0.9814
2099.77	0.985
2108.3	0.985
2116.83	0.984
2125.36	0.986
2133.88	0.988
2142.41	0.989
2150.94	0.9946
2159.47	0.996
2167.99	0.9937
2176.52	0.992
2185.05	0.9932
2193.58	0.992
2202.1	0.99
2210.63	0.9916
2219.16	0.9888
2227.69	0.9816
2236.21	0.9738
2244.74	0.965
2253.27	0.962
2261.8	0.961
2270.33	0.9569
2278.85	0.9476
2287.38	0.9379
2295.91	0.9331
2304.44	0.9422
2312.96	0.9462
2321.49	0.9479
2330.02	0.9438
2338.55	0.933
2347.07	0.936
2355.6	0.949
2364.13	0.952
2372.66	0.953
2381.18	0.957
2389.71	0.957
2398.24	0.957
2406.77	0.96
2415.29	0.96
2423.82	0.9521
2432.35	0.9518
2440.88	0.953
2449.4	0.9558
2457.93	0.957
2466.46	0.96
2474.99	0.96
2483.51	0.958
2492.04	0.957
2500.57	0.9522
2509.1	0.9464
2517.62	0.945
2526.15	0.944
2534.68	0.9476
2543.21	0.9482
2551.74	0.945
2560.26	0.944
2568.79	0.941
2577.32	0.941
2585.85	0.938
2594.37	0.938
2602.9	0.938
2611.43	0.9394
2619.96	0.94
2628.48	0.935
2637.01	0.93
2645.54	0.9227
2654.07	0.912
2662.59	0.9094
2671.12	0.9096
2679.65	0.91
2688.18	0.916
2696.7	0.921
2705.23	0.921
2713.76	0.9205
2722.29	0.9109
2730.81	0.9095
2739.34	0.911
2747.87	0.91
2756.4	0.905
2764.92	0.898
2773.45	0.9085
2781.98	0.912
2790.51	0.91
2799.04	0.909
2807.56	0.906
2816.09	0.8998
2824.62	0.8862
2833.15	0.8685
2841.67	0.865
2850.2	0.864
2858.73	0.8505
2867.26	0.8086
2875.78	0.638
2884.31	0.6603
2892.84	0.6329
2901.37	0.5785
2909.89	0.5509
2918.42	0.5232
2926.95	0.4997
2935.48	0.387
2944	0.3765
2952.53	0.4189
2961.06	0.4677
2969.59	0.4316
2978.11	0.2309
2986.64	0.1502
2995.17	0.2605
3003.7	0.505
3012.22	0.6852
3020.75	0.7412
3029.28	0.7665
3037.81	0.7851
3046.33	0.7902
3054.86	0.796
3063.39	0.8
3071.92	0.802
3080.45	0.8041
3088.97	0.805
3097.5	0.805
3106.03	0.804
3114.56	0.802
3123.08	0.801
3131.61	0.8
3140.14	0.798
3148.67	0.798
3157.19	0.797
3165.72	0.796
3174.25	0.794
3182.78	0.793
3191.3	0.793
3199.83	0.793
3208.36	0.792
3216.89	0.792
3225.41	0.792
3233.94	0.793
3242.47	0.797
3251	0.8018
3259.52	0.8058
3268.05	0.812
3276.58	0.8138
3285.11	0.8168
3293.63	0.8218
3302.16	0.8273
3310.69	0.83
3319.22	0.8355
3327.74	0.84
3336.27	0.844
3344.8	0.848
3353.33	0.852
3361.86	0.8554
3370.38	0.858
3378.91	0.862
3387.44	0.868
3395.97	0.87
3404.49	0.872
3413.02	0.8752
3421.55	0.877
3430.08	0.877
3438.6	0.877
3447.13	0.877
3455.66	0.877
3464.19	0.877
3472.71	0.876
3481.24	0.8725
3489.77	0.8685
3498.3	0.8605
3506.82	0.851
3515.35	0.837
3523.88	0.8255
3532.41	0.8151
3540.93	0.81
3549.46	0.8124
3557.99	0.8294
3566.52	0.8512
3575.04	0.8734
3583.57	0.888
3592.1	0.8954
3600.63	0.9154
3609.16	0.9284
3617.68	0.93
3626.21	0.9403
3634.74	0.9453
3643.27	0.949
3651.79	0.95
3660.32	0.952
3668.85	0.9497
3677.38	0.9447
3685.9	0.9328
3694.43	0.9285
3702.96	0.9531
3711.49	0.9669
3720.01	0.977
3728.54	0.982
3737.07	0.9852
3745.6	0.988
3754.12	0.989
3762.65	0.992
3771.18	0.992
3779.71	0.992
3788.23	0.992
3796.76	0.99
