Infrared Spectrum: Benzene, chloro-
Formula: C6 H5 Cl
CAS: 108-90-7
State: GAS (10 mmHg, N2 ADDED, TOTAL PRESSURE 600 mmHg)
Class: COBLENTZ
Instrument: DOW KBr FOREPRISM-GRATING
Instrument parameters: GRATING CHANGED AT 5.0, 7.5, 15.0 MICRON
Sampling: TRANSMISSION
Path length: 10 CM
Resolution: 2
Origin: DOW CHEMICAL COMPANY
1/CM	TRANSMITTANCE
456	0.8698
465	0.861
474	0.8741
483	0.8783
492	0.8862
501	0.8752
510	0.8728
519	0.8654
528	0.8527
537	0.844
546	0.839
555	0.8432
564	0.8393
573	0.8507
582	0.847
591	0.8506
600	0.8489
609	0.8457
618	0.8466
627	0.8487
636	0.8482
645	0.8281
654	0.821
663	0.7543
672	0.6983
681	0.6154
690	0.6573
699	0.5404
708	0.5097
717	0.6667
726	0.5301
735	0.4445
744	0.4573
753	0.5739
762	0.7534
771	0.803
780	0.8064
789	0.8058
798	0.8041
807	0.8044
816	0.8081
825	0.8085
834	0.8079
843	0.8069
852	0.8051
861	0.8033
870	0.8002
879	0.7948
888	0.7926
897	0.7699
906	0.7819
915	0.785
924	0.7848
933	0.7953
942	0.8057
951	0.8072
960	0.8054
969	0.8022
978	0.8021
987	0.7972
996	0.7897
1005	0.7746
1014	0.6342
1023	0.6125
1032	0.7069
1041	0.8137
1050	0.7964
1059	0.7582
1068	0.7536
1077	0.5762
1086	0.4161
1095	0.4235
1104	0.7916
1113	0.7344
1122	0.7041
1131	0.7539
1140	0.8003
1149	0.8017
1158	0.8014
1167	0.8001
1176	0.7987
1185	0.8031
1194	0.8016
1203	0.8009
1212	0.8009
1221	0.799
1230	0.7963
1239	0.7951
1248	0.7977
1257	0.7984
1266	0.7962
1275	0.7981
1284	0.7975
1293	0.796
1302	0.7948
1311	0.7948
1320	0.7949
1329	0.7939
1338	0.7904
1347	0.779
1356	0.7681
1365	0.7733
1374	0.8011
1383	0.8162
1392	0.7999
1401	0.8019
1410	0.8009
1419	0.7926
1428	0.7737
1437	0.711
1446	0.7213
1455	0.7364
1464	0.7564
1473	0.4002
1482	0.3504
1491	0.5297
1500	0.7632
1509	0.7808
1518	0.7985
1527	0.8014
1536	0.7991
1545	0.7912
1554	0.769
1563	0.7595
1572	0.7031
1581	0.5671
1590	0.5245
1599	0.67
1608	0.7687
1617	0.7627
1626	0.7666
1635	0.7807
1644	0.7847
1653	0.7923
1662	0.7946
1671	0.7946
1680	0.795
1689	0.7952
1698	0.7925
1707	0.786
1716	0.7793
1725	0.7779
1734	0.7847
1743	0.7921
1752	0.7922
1761	0.7914
1770	0.7869
1779	0.7715
1788	0.7675
1797	0.7798
1806	0.7933
1815	0.7957
1824	0.7955
1833	0.7946
1842	0.7929
1851	0.7837
1860	0.776
1869	0.7789
1878	0.784
1887	0.7934
1896	0.8027
1905	0.7999
1914	0.7947
1923	0.7865
1932	0.7808
1941	0.7731
1950	0.7765
1959	0.788
1968	0.795
1977	0.7987
1986	0.7992
1995	0.7983
2004	0.7985
2013	0.7999
2022	0.8049
2031	0.8048
2040	0.8025
2049	0.8006
2058	0.8014
2067	0.8023
2076	0.8029
2085	0.8036
2094	0.8043
2103	0.8051
2112	0.8058
2121	0.8064
2130	0.8067
2139	0.807
2148	0.8072
2157	0.8072
2166	0.8073
2175	0.8073
2184	0.8073
2193	0.8073
2202	0.8074
2211	0.8074
2220	0.8076
2229	0.8079
2238	0.8082
2247	0.8085
2256	0.8085
2265	0.8083
2274	0.8081
2283	0.8079
2292	0.8077
2301	0.8086
2310	0.8123
2319	0.8157
2328	0.8171
2337	0.8157
2346	0.8122
2355	0.8072
2364	0.8022
2373	0.7991
2382	0.8025
2391	0.8034
2400	0.8036
2409	0.8033
2418	0.8029
2427	0.8027
2436	0.803
2445	0.803
2454	0.8029
2463	0.8028
2472	0.8024
2481	0.8017
2490	0.8007
2499	0.7992
2508	0.7978
2517	0.796
2526	0.7923
2535	0.7882
2544	0.7911
2553	0.7927
2562	0.7929
2571	0.7926
2580	0.7923
2589	0.7906
2598	0.789
2607	0.7878
2616	0.7865
2625	0.7844
2634	0.7829
2643	0.7824
2652	0.7841
2661	0.783
2670	0.7794
2679	0.7731
2688	0.7737
2697	0.779
2706	0.7791
2715	0.7781
2724	0.7768
2733	0.7746
2742	0.7724
2751	0.7698
2760	0.7683
2769	0.7668
2778	0.7653
2787	0.7644
2796	0.765
2805	0.7662
2814	0.767
2823	0.7635
2832	0.7649
2841	0.7825
2850	0.7805
2859	0.7731
2868	0.7693
2877	0.7722
2886	0.7783
2895	0.7867
2904	0.7928
2913	0.7938
2922	0.7901
2931	0.7805
2940	0.7716
2949	0.7664
2958	0.7608
2967	0.7537
2976	0.7453
2985	0.7371
2994	0.7262
3003	0.7125
3012	0.7001
3021	0.69
3030	0.6831
3039	0.6802
3048	0.6737
3057	0.6441
3066	0.5853
3075	0.5339
3084	0.5782
3093	0.6081
3102	0.6638
3111	0.7105
3120	0.7237
3129	0.7263
3138	0.7267
3147	0.7261
3156	0.7242
3165	0.7218
3174	0.7215
3183	0.7224
3192	0.7235
3201	0.7239
3210	0.7243
3219	0.7245
3228	0.725
3237	0.7258
3246	0.7265
3255	0.7271
3264	0.7273
3273	0.7278
3282	0.7296
3291	0.7315
3300	0.7329
3309	0.7339
3318	0.735
3327	0.7356
3336	0.7361
3345	0.7366
3354	0.7371
3363	0.7374
3372	0.7375
3381	0.7376
3390	0.7377
3399	0.7378
3408	0.7379
3417	0.7388
3426	0.7396
3435	0.7405
3444	0.7411
3453	0.7413
3462	0.7414
3471	0.7414
3480	0.7408
3489	0.7402
3498	0.7397
3507	0.7394
3516	0.7392
3525	0.739
3534	0.7394
3543	0.7432
3552	0.7457
3561	0.7464
3570	0.7454
3579	0.7428
3588	0.7395
3597	0.7389
3606	0.7385
3615	0.7391
3624	0.7407
3633	0.7345
3642	0.7289
3651	0.7282
3660	0.7278
3669	0.7274
3678	0.7273
3687	0.7271
3696	0.7271
3705	0.7272
3714	0.7267
3723	0.7259
3732	0.725
3741	0.7245
3750	0.724
3759	0.7229
3768	0.7214
