Infrared Spectrum: ACETIC ACID, 1,3-DIMETHYLBUTYL ESTER
Formula: C8 H16 O2
CAS: 108-84-9
State: SOLUTION (10% IN CCl4 FOR 3800-1330, 10% IN CS2 FOR 1330-400 CM^-^1)
Class: COBLENTZ III
Instrument: BECKMAN IR-9 (GRATING)
Instrument parameters: ORDER CHANGES AT 670, 1200, 2000 CM^-^1
Sampling: TRANSMISSION
Path length: 0.011, 0.011 CM
Resolution: 4
Origin: DOW CHEMICAL COMPANY
1/CM	TRANSMITTANCE
402.786	0.253
411.314	0.254
419.841	0.432
428.369	0.58
436.896	0.654
445.424	0.696
453.951	0.73
462.479	0.784
471.007	0.824
479.534	0.793
488.062	0.797
496.589	0.834
505.117	0.805
513.644	0.905
522.172	0.936
530.7	0.942
539.227	0.953
547.755	0.958
556.282	0.965
564.81	0.964
573.337	0.958
581.865	0.956
590.393	0.928
598.92	0.852
607.448	0.59
615.975	0.852
624.503	0.802
633.03	0.806
641.558	0.842
650.085	0.877
658.613	0.913
667.141	0.945
675.668	0.961
684.196	0.969
692.723	0.974
701.251	0.977
709.778	0.98
718.306	0.984
726.834	0.984
735.361	0.985
743.889	0.985
752.416	0.98
760.944	0.973
769.471	0.965
777.999	0.956
786.527	0.942
795.054	0.926
803.582	0.825
812.109	0.852
820.637	0.777
829.164	0.869
837.692	0.881
846.22	0.834
854.747	0.758
863.275	0.692
871.802	0.753
880.33	0.728
888.857	0.816
897.385	0.813
905.913	0.829
914.44	0.85
922.968	0.734
931.495	0.768
940.023	0.617
948.55	0.413
957.078	0.706
965.606	0.729
974.133	0.734
982.661	0.818
991.188	0.794
999.716	0.66
1008.24	0.477
1016.77	0.222
1025.3	0.2131
1033.83	0.406
1042.35	0.226
1050.88	0.449
1059.41	0.396
1067.94	0.653
1076.46	0.729
1084.99	0.748
1093.52	0.758
1102.05	0.746
1110.57	0.5979
1119.1	0.222
1127.63	0.197
1136.16	0.466
1144.68	0.445
1153.21	0.538
1161.74	0.468
1170.27	0.472
1178.79	0.638
1187.32	0.634
1195.85	0.653
1204.38	0.602
1212.91	0.43
1221.43	0.278
1229.96	0.093
1238.49	0.004
1247.02	0
1255.54	0.005
1264.07	0.112
1272.6	0.238
1281.13	0.264
1289.65	0.3401
1298.18	0.605
1306.71	0.722
1315.24	0.768
1323.76	0.76
1332.29	0.718
1340.82	0.681
1349.35	0.641
1357.87	0.5479
1366.4	0.22
1374.93	0.03
1383.46	0.237
1391.98	0.3761
1400.51	0.636
1409.04	0.652
1417.57	0.616
1426.09	0.573
1434.62	0.498
1443.15	0.541
1451.68	0.441
1460.2	0.374
1468.73	0.3459
1477.26	0.542
1485.79	0.774
1494.31	0.81
1502.84	0.8
1511.37	0.764
1519.9	0.728
1528.43	0.693
1536.95	0.644
1545.48	0.561
1554.01	0.513
1562.54	0.548
1571.06	0.632
1579.59	0.666
1588.12	0.681
1596.65	0.748
1605.17	0.836
1613.7	0.882
1622.23	0.905
1630.76	0.912
1639.28	0.909
1647.81	0.884
1656.34	0.85
1664.87	0.833
1673.39	0.821
1681.92	0.777
1690.45	0.669
1698.98	0.484
1707.5	0.285
1716.03	0.065
1724.56	0.042
1733.09	0.005
1741.61	0.001
1750.14	0.0571
1758.67	0.288
1767.2	0.573
1775.72	0.718
1784.25	0.786
1792.78	0.852
1801.31	0.881
1809.83	0.904
1818.36	0.913
1826.89	0.913
1835.42	0.928
1843.95	0.938
1852.47	0.942
1861	0.957
1869.53	0.968
1878.06	0.972
1886.58	0.97
1895.11	0.972
1903.64	0.974
1912.17	0.981
1920.69	0.993
1929.22	0.996
1937.75	1.001
1946.28	1.001
1954.8	1.002
1963.33	1.004
1971.86	1.005
1980.39	1.008
1988.91	1.006
1997.44	1.001
2005.97	0.998
2014.5	1.004
2023.02	1.0085
2031.55	1.01
2040.08	1.012
2048.61	1.009
2057.13	1.0045
2065.66	1.003
2074.19	1.008
2082.72	1.0125
2091.24	1.0151
2099.77	1.017
2108.3	1.018
2116.83	1.018
2125.35	1.0175
2133.88	1.017
2142.41	1.014
2150.94	1.013
2159.47	1.013
2167.99	1.0135
2176.52	1.012
2185.05	1.009
2193.58	1.005
2202.1	1.008
2210.63	1.013
2219.16	1.013
2227.69	1.0152
2236.21	1.016
2244.74	1.012
2253.27	1.0068
2261.8	1.002
2270.32	1
2278.85	0.997
2287.38	0.994
2295.91	0.99
2304.43	0.99
2312.96	0.9912
2321.49	0.992
2330.02	0.993
2338.54	0.996
2347.07	0.998
2355.6	1.001
2364.13	1.002
2372.65	1.005
2381.18	1.005
2389.71	1.004
2398.24	1.004
2406.76	1.002
2415.29	1.001
2423.82	1.001
2432.35	1.001
2440.87	1.001
2449.4	1.0007
2457.93	1
2466.46	0.9987
2474.99	0.9923
2483.51	0.9853
2492.04	0.9787
2500.57	0.976
2509.1	0.976
2517.62	0.976
2526.15	0.976
2534.68	0.976
2543.21	0.9707
2551.73	0.9646
2560.26	0.957
2568.79	0.954
2577.32	0.961
2585.84	0.961
2594.37	0.9563
2602.9	0.9469
2611.43	0.9403
2619.95	0.9309
2628.48	0.9146
2637.01	0.91
2645.54	0.9177
2654.06	0.93
2662.59	0.933
2671.12	0.9301
2679.65	0.9146
2688.17	0.906
2696.7	0.912
2705.23	0.917
2713.76	0.921
2722.28	0.9133
2730.81	0.9003
2739.34	0.898
2747.87	0.909
2756.39	0.913
2764.92	0.912
2773.45	0.903
2781.98	0.904
2790.51	0.9025
2799.03	0.8947
2807.56	0.8825
2816.09	0.8579
2824.62	0.8297
2833.14	0.7875
2841.67	0.7191
2850.2	0.698
2858.73	0.6617
2867.25	0.4905
2875.78	0.2783
2884.31	0.4033
2892.84	0.4264
2901.36	0.3021
2909.89	0.241
2918.42	0.225
2926.95	0.1875
2935.47	0.1428
2944	0.1653
2952.53	0.1111
2961.06	0.0399
2969.58	0.0345
2978.11	0.0977
2986.64	0.1667
2995.17	0.4391
3003.69	0.584
3012.22	0.6845
3020.75	0.7217
3029.28	0.7418
3037.8	0.7654
3046.33	0.7778
3054.86	0.7938
3063.39	0.8034
3071.91	0.812
3080.44	0.8177
3088.97	0.825
3097.5	0.826
3106.03	0.8277
3114.55	0.83
3123.08	0.83
3131.61	0.8317
3140.14	0.833
3148.66	0.8339
3157.19	0.836
3165.72	0.8331
3174.25	0.834
3182.77	0.834
3191.3	0.833
3199.83	0.8321
3208.36	0.833
3216.88	0.837
3225.41	0.8459
3233.94	0.85
3242.47	0.8578
3250.99	0.8638
3259.52	0.8689
3268.05	0.8739
3276.58	0.8779
3285.1	0.8809
3293.63	0.882
3302.16	0.8889
3310.69	0.89
3319.21	0.89
3327.74	0.8939
3336.27	0.8999
3344.8	0.9019
3353.32	0.9039
3361.85	0.9078
3370.38	0.909
3378.91	0.91
3387.43	0.912
3395.96	0.916
3404.49	0.918
3413.02	0.92
3421.55	0.921
3430.07	0.922
3438.6	0.917
3447.13	0.91
3455.66	0.904
3464.18	0.906
3472.71	0.916
3481.24	0.926
3489.77	0.937
3498.29	0.941
3506.82	0.942
3515.35	0.942
3523.88	0.942
3532.4	0.941
3540.93	0.94
3549.46	0.942
3557.99	0.9461
3566.51	0.956
3575.04	0.968
3583.57	0.977
3592.1	0.9861
3600.62	0.993
3609.15	0.996
3617.68	0.994
3626.21	0.994
3634.73	0.994
3643.26	1.0091
3651.79	1.014
3660.32	1.014
3668.84	1.014
3677.37	1.012
3685.9	1.0089
3694.43	1.005
3702.96	1.0121
3711.48	1.016
3720.01	1.017
3728.54	1.022
3737.07	1.021
3745.59	1.022
3754.12	1.022
3762.65	1.022
3771.18	1.0238
3779.7	1.021
3788.23	1.022
