Infrared Spectrum: BENZENE, 1,3-DIMETHYL-
Formula: C8 H10
CAS: 108-38-3
State: VAPOR (0.5 MICROLITER AT 150 C)
Boiling point: 139 C
Class: COBLENTZ
Instrument: NICOLET FTIR
Instrument parameters: Hg-Cd-Te DETECTOR - TYPE A, DEAD BELOW 680 CM^-^1, LOW S/N 710 - 680
Sampling: TRANSMISSION
Path length: 0.2 CM x 30 CM GOLD-PLATED LIGHT PIPE. HELIUM CARRIER. INTERFEROGRAMS CO-ADDED FOR FULL TRANSIT TIME.
Resolution: 4 CM^-^1
Origin: MONSANTO (JOHN J. FREEMAN)
1/CM	TRANSMITTANCE
684.857	0.93
694.176	0.6144
703.495	0.8
712.814	0.8899
722.133	1.006
731.452	1.017
740.771	0.9881
750.09	0.8382
759.41	0.651
768.729	0.2661
778.048	0.523
787.367	0.6858
796.686	0.9109
806.005	0.984
815.324	0.992
824.643	0.994
833.962	0.996
843.281	0.996
852.6	0.983
861.919	0.96
871.238	0.938
880.557	0.9339
889.876	0.942
899.196	0.935
908.515	0.938
917.834	0.96
927.153	0.99
936.472	0.989
945.791	0.985
955.11	0.98
964.429	0.976
973.748	0.969
983.067	0.963
992.386	0.952
1001.71	0.94
1011.02	0.936
1020.34	0.943
1029.66	0.951
1038.98	0.923
1048.3	0.905
1057.62	0.894
1066.94	0.906
1076.26	0.923
1085.58	0.916
1094.9	0.908
1104.21	0.923
1113.53	0.954
1122.85	0.974
1132.17	0.98
1141.49	0.982
1150.81	0.984
1160.13	0.972
1169.45	0.964
1178.77	0.967
1188.09	0.979
1197.41	0.987
1206.72	0.989
1216.04	0.99
1225.36	0.99
1234.68	0.987
1244	0.981
1253.32	0.978
1262.64	0.977
1271.96	0.982
1281.28	0.983
1290.6	0.983
1299.92	0.981
1309.23	0.98
1318.55	0.98
1327.87	0.979
1337.19	0.974
1346.51	0.968
1355.83	0.954
1365.15	0.94
1374.47	0.904
1383.79	0.873
1393.11	0.878
1402.43	0.918
1411.74	0.925
1421.06	0.92
1430.38	0.89
1439.7	0.856
1449.02	0.836
1458.34	0.831
1467.66	0.82
1476.98	0.781
1486.3	0.705
1495.62	0.678
1504.93	0.689
1514.25	0.756
1523.57	0.796
1532.89	0.81
1542.21	0.836
1551.53	0.884
1560.85	0.908
1570.17	0.899
1579.49	0.882
1588.81	0.838
1598.13	0.765
1607.44	0.6309
1616.76	0.618
1626.08	0.718
1635.4	0.933
1644.72	0.966
1654.04	0.966
1663.36	0.979
1672.68	0.993
1682	1
1691.32	0.998
1700.64	1.002
1709.95	0.991
1719.27	0.986
1728.59	0.978
1737.91	0.97
1747.23	0.97
1756.55	0.967
1765.87	0.972
1775.19	0.979
1784.51	0.983
1793.83	0.996
1803.14	0.995
1812.46	0.992
1821.78	0.99
1831.1	0.98
1840.42	0.967
1849.74	0.956
1859.06	0.97
1868.38	0.989
1877.7	0.996
1887.02	0.997
1896.34	0.994
1905.65	0.988
1914.97	0.977
1924.29	0.963
1933.61	0.968
1942.93	0.98
1952.25	0.998
1961.57	1.001
1970.89	1.003
1980.21	1.004
1989.53	1.006
1998.85	1.006
2008.16	1.0055
2017.48	1.006
2026.8	1.006
2036.12	1.006
2045.44	1.006
2054.76	1.006
2064.08	1.006
2073.4	1.005
2082.72	1.007
2092.04	1.005
2101.35	1.0065
2110.67	1.005
2119.99	1.006
2129.31	1.008
2138.63	1.008
2147.95	1.008
2157.27	1.007
2166.59	1.0075
2175.91	1.009
2185.23	1.009
2194.55	1.008
2203.86	1.008
2213.18	1.008
2222.5	1.008
2231.82	1.008
2241.14	1.009
2250.46	1.008
2259.78	1.008
2269.1	1.007
2278.42	1.005
2287.74	1.003
2297.06	1.0026
2306.37	1.0056
2315.69	1.0086
2325.01	1.01
2334.33	1.0084
2343.65	1.01
2352.97	1.01
2362.29	1.0148
2371.61	1.0174
2380.93	1.0104
2390.25	1.007
2399.57	1.006
2408.88	1.005
2418.2	1.002
2427.52	1.0014
2436.84	1.0036
2446.16	1.004
2455.48	1.004
2464.8	1.005
2474.12	1.005
2483.44	1.005
2492.76	1.0054
2502.07	1.005
2511.39	1.0076
2520.71	1.008
2530.03	1.008
2539.35	1.007
2548.67	1.006
2557.99	1.0067
2567.31	1.01
2576.63	1.01
2585.95	1.01
2595.27	1.009
2604.58	1.009
2613.9	1.007
2623.22	1.0073
2632.54	1.007
2641.86	1.007
2651.18	1.008
2660.5	1.0097
2669.82	1.01
2679.14	1.01
2688.46	1.01
2697.78	1.0083
2707.09	1.007
2716.41	1.0016
2725.73	0.9963
2735.05	0.9751
2744.37	0.9606
2753.69	0.9597
2763.01	0.9862
2772.33	0.9974
2781.65	0.9973
2790.97	0.9936
2800.28	0.9876
2809.6	0.9786
2818.92	0.9686
2828.24	0.9538
2837.56	0.9408
2846.88	0.9016
2856.2	0.8469
2865.52	0.7509
2874.84	0.6554
2884.16	0.61
2893.48	0.6214
2902.79	0.64
2912.11	0.5945
2921.43	0.4864
2930.75	0.4049
2940.07	0.3758
2949.39	0.4165
2958.71	0.5639
2968.03	0.6812
2977.35	0.7338
2986.67	0.7089
2995.99	0.6894
3005.3	0.6298
3014.62	0.5032
3023.94	0.4346
3033.26	0.3748
3042.58	0.3956
3051.9	0.4553
3061.22	0.5255
3070.54	0.5898
3079.86	0.6595
3089.18	0.779
3098.5	0.858
3107.81	0.8958
3117.13	0.9176
3126.45	0.9526
3135.77	0.9814
3145.09	0.9993
3154.41	1.0078
3163.73	1.0108
3173.05	1.0128
3182.37	1.014
3191.69	1.016
3201	1.0168
3210.32	1.016
3219.64	1.0168
3228.96	1.0198
3238.28	1.02
3247.6	1.02
3256.92	1.02
3266.24	1.02
3275.56	1.02
3284.88	1.0219
3294.2	1.023
3303.51	1.022
3312.83	1.023
3322.15	1.0249
3331.47	1.025
3340.79	1.025
3350.11	1.025
3359.43	1.0259
3368.75	1.026
3378.07	1.0269
3387.39	1.026
3396.71	1.0251
3406.02	1.025
3415.34	1.025
3424.66	1.026
3433.98	1.025
3443.3	1.0259
3452.62	1.026
3461.94	1.026
3471.26	1.026
3480.58	1.028
3489.9	1.028
3499.21	1.03
3508.53	1.0309
3517.85	1.03
3527.17	1.03
3536.49	1.0291
3545.81	1.029
3555.13	1.029
3564.45	1.028
3573.77	1.0309
3583.09	1.0309
3592.41	1.0318
3601.72	1.032
3611.04	1.03
3620.36	1.0331
3629.68	1.033
3639	1.0321
3648.32	1.029
3657.64	1.0341
3666.96	1.03
3676.28	1.0368
3685.6	1.0301
3694.92	1.0328
3704.23	1.0274
3713.55	1.0233
3722.87	1.0271
3732.19	1.0329
3741.51	1.0377
3750.83	1.033
3760.15	1.037
3769.47	1.03
3778.79	1.034
3788.11	1.03
3797.42	1.03
3806.74	1.034
3816.06	1.03
3825.38	1.035
3834.7	1.034
3844.02	1.036
3853.34	1.027
3862.66	1.0379
3871.98	1.037
3881.3	1.03
3890.62	1.0299
3899.93	1.03
3909.25	1.03
3918.57	1.026
3927.89	1.03
3937.21	1.031
3946.53	1.029
3955.85	1.03
3965.17	1.029
3974.49	1.03
3983.81	1.03
3993.13	1.03
