Infrared Spectrum: CYCLOHEXANE, BROMO-
Formula: C6 H11 Br
CAS: 108-85-0
State: SOLUTION (10% CCl4 FOR 3800-1330, 10% CS2 FOR 1330-430 CM^-^1)
Class: COBLENTZ III
Instrument: Not specified, most likely a prism, grating, or hybrid spectrometer.
Sampling: TRANSMISSION
Path length: 0.011 CM, 0.011 CM
Resolution: 4
Origin: DOW CHEMICAL COMPANY
1/CM	TRANSMITTANCE
430.524	0.833
439.636	0.833
448.747	0.833
457.859	0.829
466.971	0.913
476.082	0.937
485.194	0.946
494.306	0.94
503.417	0.82
512.529	0.919
521.641	0.985
530.752	1.01
539.864	1.01
548.976	1.014
558.087	1.016
567.199	1.007
576.31	1.01
585.422	1.021
594.534	1.021
603.645	1.025
612.757	1.019
621.869	1.014
630.98	1.001
640.092	0.98
649.204	0.922
658.315	0.593
667.427	0.901
676.539	0.887
685.65	0.2832
694.762	0.7449
703.874	0.939
712.985	0.971
722.097	0.982
731.209	0.985
740.32	0.991
749.432	0.989
758.544	0.989
767.655	0.983
776.767	0.956
785.879	0.958
794.99	0.956
804.102	0.8172
813.213	0.7178
822.325	0.964
831.437	0.96
840.548	0.91
849.66	0.6825
858.772	0.738
867.883	0.727
876.995	0.827
886.107	0.428
895.218	0.937
904.33	0.962
913.442	0.933
922.553	0.924
931.665	0.953
940.777	0.967
949.888	0.978
959	0.978
968.112	0.971
977.223	0.933
986.335	0.5303
995.447	0.924
1004.56	0.903
1013.67	0.838
1022.78	0.89
1031.89	0.888
1041	0.942
1050.12	0.935
1059.23	0.937
1068.34	0.931
1077.45	0.912
1086.56	0.827
1095.67	0.944
1104.79	0.937
1113.9	0.7987
1123.01	0.9129
1132.12	0.946
1141.23	0.942
1150.34	0.958
1159.46	0.949
1168.57	0.931
1177.68	0.854
1186.79	0.365
1195.9	0.6252
1205.01	0.915
1214.13	0.939
1223.24	0.939
1232.35	0.93
1241.46	0.854
1250.57	0.222
1259.68	0.7248
1268.8	0.831
1277.91	0.903
1287.02	0.901
1296.13	0.863
1305.24	0.835
1314.35	0.811
1323.47	0.779
1332.58	0.618
1341.69	0.876
1350.8	0.853
1359.91	0.948
1369.02	0.973
1378.14	0.976
1387.25	0.978
1396.36	0.974
1405.47	0.965
1414.58	0.949
1423.69	0.874
1432.81	0.811
1441.92	0.6911
1451.03	0.164
1460.14	0.741
1469.25	0.879
1478.36	0.905
1487.48	0.897
1496.59	0.867
1505.7	0.81
1514.81	0.749
1523.92	0.702
1533.03	0.618
1542.15	0.496
1551.26	0.498
1560.37	0.571
1569.48	0.673
1578.59	0.7
1587.7	0.732
1596.82	0.806
1605.93	0.915
1615.04	0.96
1624.15	0.974
1633.26	0.989
1642.37	0.994
1651.49	0.994
1660.6	0.994
1669.71	0.992
1678.82	0.991
1687.93	0.991
1697.04	0.996
1706.16	0.996
1715.27	0.998
1724.38	0.994
1733.49	0.994
1742.6	0.998
1751.71	0.998
1760.83	0.994
1769.94	0.992
1779.05	0.996
1788.16	0.994
1797.27	0.992
1806.38	0.989
1815.5	0.989
1824.61	0.987
1833.72	0.987
1842.83	0.987
1851.94	0.987
1861.05	0.985
1870.17	0.985
1879.28	0.985
1888.39	0.991
1897.5	0.992
1906.61	0.992
1915.72	0.994
1924.84	0.994
1933.95	0.994
1943.06	0.991
1952.17	0.989
1961.28	0.987
1970.39	0.991
1979.51	0.998
1988.62	0.998
1997.73	0.989
2006.84	0.994
2015.95	0.998
2025.06	1
2034.18	1
2043.29	1
2052.4	0.9999
2061.51	1
2070.62	1
2079.73	1
2088.85	0.9982
2097.96	0.9998
2107.07	0.9978
2116.18	0.998
2125.29	0.994
2134.4	0.996
2143.51	0.991
2152.63	0.9974
2161.74	0.9928
2170.85	0.991
2179.96	0.991
2189.07	0.9937
2198.18	0.994
2207.3	0.996
2216.41	0.9924
2225.52	0.983
2234.63	0.9886
2243.74	0.996
2252.85	0.9834
2261.97	0.98
2271.08	0.9822
2280.19	0.9717
2289.3	0.9675
2298.41	0.971
2307.52	0.974
2316.64	0.9774
2325.75	0.98
2334.86	0.98
2343.97	0.98
2353.08	0.9827
2362.19	0.985
2371.31	0.9884
2380.42	0.991
2389.53	0.992
2398.64	0.994
2407.75	0.994
2416.86	0.994
2425.98	0.996
2435.09	0.996
2444.2	0.998
2453.31	0.996
2462.42	0.996
2471.53	0.996
2480.65	0.994
2489.76	0.994
2498.87	0.996
2507.98	0.992
2517.09	0.992
2526.2	0.992
2535.32	0.998
2544.43	0.998
2553.54	0.997
2562.65	0.996
2571.76	0.992
2580.87	0.983
2589.99	0.98
2599.1	0.984
2608.21	0.9841
2617.32	0.982
2626.43	0.985
2635.54	0.9688
2644.66	0.9477
2653.77	0.971
2662.88	0.9432
2671.99	0.9543
2681.1	0.974
2690.21	0.9646
2699.33	0.9815
2708.44	0.9948
2717.55	0.9933
2726.66	0.987
2735.77	0.985
2744.88	0.985
2754	0.9827
2763.11	0.9753
2772.22	0.9601
2781.33	0.9399
2790.44	0.9244
2799.55	0.939
2808.67	0.9321
2817.78	0.9125
2826.89	0.8157
2836	0.6875
2845.11	0.3856
2854.22	0.068
2863.34	0.5643
2872.45	0.663
2881.56	0.5836
2890.67	0.5444
2899.78	0.4134
2908.89	0.4128
2918.01	0.103
2927.12	0.0243
2936.23	0.0084
2945.34	0.0123
2954.45	0.0566
2963.56	0.3929
2972.68	0.6983
2981.79	0.8513
2990.9	0.9179
3000.01	0.9536
3009.12	0.9657
3018.23	0.9784
3027.35	0.9872
3036.46	0.9911
3045.57	0.992
3054.68	0.992
3063.79	0.9941
3072.9	0.9981
3082.02	1
3091.13	1.001
3100.24	1.003
3109.35	1.003
3118.46	1.003
3127.57	1.003
3136.69	1.003
3145.8	1.003
3154.91	1.003
3164.02	1.003
3173.13	1.003
3182.24	1.005
3191.36	1.007
3200.47	1.007
3209.58	1.007
3218.69	1.005
3227.8	1.003
3236.91	1.003
3246.03	1.005
3255.14	1.007
3264.25	1.007
3273.36	1.007
3282.47	1.008
3291.58	1.008
3300.7	1.008
3309.81	1.008
3318.92	1.008
3328.03	1.008
3337.14	1.008
3346.25	1.007
3355.36	1.0054
3364.48	1.005
3373.59	1.005
3382.7	1.005
3391.81	1.005
3400.92	1.005
3410.03	1.005
3419.15	1.005
3428.26	1.005
3437.37	1.003
3446.48	1.0065
3455.59	1.007
3464.7	1.007
3473.82	1.007
3482.93	1.007
3492.04	1.007
3501.15	1.007
3510.26	1.007
3519.37	1.007
3528.49	1.005
3537.6	1.0037
3546.71	1.003
3555.82	1.0017
3564.93	1.001
3574.04	1.001
3583.16	1.0022
3592.27	1.0042
3601.38	1.0062
3610.49	1.003
3619.6	0.9988
3628.71	0.998
3637.83	1.0006
3646.94	1.0021
3656.05	1.003
3665.16	1.003
3674.27	1.003
3683.38	1.003
3692.5	1.001
3701.61	1.0005
3710.72	1
3719.83	1
3728.94	1
3738.05	1
3747.17	1
3756.28	1
3765.39	1
3774.5	1
