Infrared Spectrum: Cyclohexane, methyl-
Formula: C7 H14
CAS: 108-87-2
State: GAS (30 mmHg, N2 ADDED, TOTAL PRESSURE 600 mmHg)
Class: COBLENTZ
Instrument: DOW KBr FOREPRISM-GRATING
Instrument parameters: GRATING CHANGED AT 5.0, 7.5, 15.0 MICRON
Sampling: TRANSMISSION
Path length: 5 CM
Resolution: 2
Origin: DOW CHEMICAL COMPANY
1/CM	TRANSMITTANCE
461	0.8769
470	0.8807
479	0.8832
488	0.884
497	0.884
506	0.8829
515	0.8814
524	0.8797
533	0.8771
542	0.8727
551	0.8747
560	0.8794
569	0.8851
578	0.8892
587	0.8918
596	0.8933
605	0.895
614	0.8974
623	0.9004
632	0.9022
641	0.9032
650	0.9022
659	0.9015
668	0.9018
677	0.9018
686	0.9009
695	0.9004
704	0.8989
713	0.8973
722	0.8962
731	0.8973
740	0.9008
749	0.9005
758	0.9001
767	0.8982
776	0.8963
785	0.8938
794	0.8919
803	0.8945
812	0.8977
821	0.8964
830	0.8793
839	0.8533
848	0.8487
857	0.8781
866	0.859
875	0.8573
884	0.869
893	0.8798
902	0.8645
911	0.8696
920	0.8741
929	0.8907
938	0.8915
947	0.8861
956	0.8547
965	0.789
974	0.8147
983	0.8692
992	0.8888
1001	0.8914
1010	0.8914
1019	0.8903
1028	0.888
1037	0.8886
1046	0.8903
1055	0.8873
1064	0.8824
1073	0.8754
1082	0.8645
1091	0.8515
1100	0.8615
1109	0.8736
1118	0.886
1127	0.8938
1136	0.8914
1145	0.8894
1154	0.8889
1163	0.8886
1172	0.8883
1181	0.8902
1190	0.8963
1199	0.8969
1208	0.8971
1217	0.8973
1226	0.8963
1235	0.8839
1244	0.8537
1253	0.825
1262	0.808
1271	0.8217
1280	0.8487
1289	0.8722
1298	0.8698
1307	0.8693
1316	0.8725
1325	0.8729
1334	0.867
1343	0.8465
1352	0.8179
1361	0.8019
1370	0.787
1379	0.7613
1388	0.7812
1397	0.8535
1406	0.8726
1415	0.8758
1424	0.8717
1433	0.8196
1442	0.5689
1451	0.4696
1460	0.395
1469	0.4905
1478	0.7132
1487	0.8371
1496	0.8738
1505	0.881
1514	0.8825
1523	0.8848
1532	0.8859
1541	0.8871
1550	0.888
1559	0.8884
1568	0.8876
1577	0.8869
1586	0.8862
1595	0.8855
1604	0.8844
1613	0.8825
1622	0.8791
1631	0.8776
1640	0.8766
1649	0.875
1658	0.8758
1667	0.8763
1676	0.8773
1685	0.8787
1694	0.88
1703	0.8808
1712	0.8817
1721	0.8821
1730	0.8809
1739	0.8793
1748	0.8796
1757	0.881
1766	0.8816
1775	0.883
1784	0.8843
1793	0.8856
1802	0.887
1811	0.8884
1820	0.8889
1829	0.8892
1838	0.8895
1847	0.8901
1856	0.8907
1865	0.8908
1874	0.8899
1883	0.8883
1892	0.8866
1901	0.8866
1910	0.8866
1919	0.8866
1928	0.8867
1937	0.8869
1946	0.8884
1955	0.8966
1964	0.8891
1973	0.8882
1982	0.8871
1991	0.8856
2000	0.8839
2009	0.8826
2018	0.8815
2027	0.8824
2036	0.8841
2045	0.8846
2054	0.8842
2063	0.8834
2072	0.8827
2081	0.8825
2090	0.8823
2099	0.8819
2108	0.8815
2117	0.8813
2126	0.881
2135	0.8806
2144	0.8801
2153	0.8794
2162	0.8788
2171	0.8782
2180	0.878
2189	0.8787
2198	0.8793
2207	0.8788
2216	0.8784
2225	0.878
2234	0.8782
2243	0.8806
2252	0.8826
2261	0.8828
2270	0.8818
2279	0.8806
2288	0.8806
2297	0.8797
2306	0.878
2315	0.8758
2324	0.8743
2333	0.8731
2342	0.8724
2351	0.8722
2360	0.8732
2369	0.8753
2378	0.88
2387	0.8789
2396	0.876
2405	0.8737
2414	0.8721
2423	0.8715
2432	0.8711
2441	0.8751
2450	0.8812
2459	0.8817
2468	0.8796
2477	0.8789
2486	0.8789
2495	0.8787
2504	0.8782
2513	0.8772
2522	0.8747
2531	0.8725
2540	0.8715
2549	0.8705
2558	0.8702
2567	0.8704
2576	0.8691
2585	0.864
2594	0.8551
2603	0.842
2612	0.8384
2621	0.8451
2630	0.8537
2639	0.8489
2648	0.8301
2657	0.8036
2666	0.7823
2675	0.7856
2684	0.8061
2693	0.8357
2702	0.8371
2711	0.8361
2720	0.8339
2729	0.8331
2738	0.8401
2747	0.847
2756	0.8497
2765	0.8451
2774	0.8367
2783	0.8165
2792	0.7905
2801	0.7733
2810	0.775
2819	0.781
2828	0.7705
2837	0.5788
2846	0.3491
2855	0.0931
2864	0.0478
2873	0.0653
2882	0.2138
2891	0.2045
2900	0.1481
2909	0.0465
2918	0.0039
2927	0.0003
2936	0.0008
2945	0.0078
2954	0.0251
2963	0.0814
2972	0.2317
2981	0.6295
2990	0.8149
2999	0.8422
3008	0.8518
3017	0.8559
3026	0.8586
3035	0.8598
3044	0.8611
3053	0.8621
3062	0.8614
3071	0.8582
3080	0.8537
3089	0.8522
3098	0.8543
3107	0.857
3116	0.8586
3125	0.8585
3134	0.8553
3143	0.8509
3152	0.8463
3161	0.8413
3170	0.8408
3179	0.8465
3188	0.854
3197	0.859
3206	0.8633
3215	0.8653
3224	0.8653
3233	0.8633
3242	0.861
3251	0.8584
3260	0.8564
3269	0.8569
3278	0.8596
3287	0.8639
3296	0.8648
3305	0.8642
3314	0.8632
3323	0.8621
3332	0.8611
3341	0.8601
3350	0.8597
3359	0.8603
3368	0.8612
3377	0.8618
3386	0.8618
3395	0.862
3404	0.8624
3413	0.8632
3422	0.8649
3431	0.8656
3440	0.8642
3449	0.8621
3458	0.8604
3467	0.8594
3476	0.8623
3485	0.8671
3494	0.8709
3503	0.8726
3512	0.8736
3521	0.8736
3530	0.8735
3539	0.8732
3548	0.8729
3557	0.8726
3566	0.8723
3575	0.8719
3584	0.8716
3593	0.8709
3602	0.8704
3611	0.8695
3620	0.8685
3629	0.8677
3638	0.8676
3647	0.8679
3656	0.8676
3665	0.8663
3674	0.8635
3683	0.8605
3692	0.858
3701	0.8587
3710	0.8613
3719	0.864
3728	0.8657
3737	0.8635
3746	0.8596
3755	0.8577
3764	0.8588
3773	0.8611
3782	0.8627
3791	0.8594
