Infrared Spectrum: BENZENE, 1,3,5-TRICHLORO-
Formula: C6 H3 Cl3
CAS: 108-70-3
State: SOLUTION (10% IN CCl4 FOR 3800-1333, 10% IN CS2 FOR 1333-450 CM^-^1) VS. SOLVENT
Melting point: 64 C
Boiling point: 208 C
Class: COBLENTZ III
Instrument: DOW KBr FOREPRISM-GRATING
Instrument parameters: BLAZED AT 3.5, 12.0, 20.0 MICRON, CHANGED AT 5.0, 7.5, 14.9 MICRON
Sampling: TRANSMISSION
Path length: 0.011, 0.011 CM
Resolution: 4
Origin: DOW CHEMICAL COMPANY
1/CM	TRANSMITTANCE
446.936	0.98
455.464	0.997
463.992	1.002
472.52	1.022
481.049	1.029
489.577	1.029
498.105	1.028
506.633	1.028
515.161	1.026
523.689	1.02
532.218	1.026
540.746	1.029
549.274	1.03
557.802	1.035
566.33	1.026
574.858	1.025
583.386	1.026
591.915	1.022
600.443	1.02
608.971	1.017
617.499	1.016
626.027	1.002
634.555	0.998
643.084	0.98
651.612	0.8931
660.14	0.026
668.668	0.935
677.196	0.966
685.724	0.977
694.252	0.983
702.781	0.985
711.309	0.979
719.837	0.961
728.365	0.973
736.893	0.98
745.421	0.979
753.949	0.974
762.478	0.964
771.006	0.951
779.534	0.871
788.062	0.474
796.59	0.0581
805.118	0.174
813.647	0.035
822.175	0.5695
830.703	0.833
839.231	0.799
847.759	0.082
856.287	0.364
864.815	0.743
873.344	0.831
881.872	0.882
890.4	0.917
898.928	0.955
907.456	0.961
915.984	0.97
924.513	0.971
933.041	0.974
941.569	0.974
950.097	0.973
958.625	0.973
967.153	0.974
975.681	0.974
984.21	0.97
992.738	0.963
1001.27	0.96
1009.79	0.969
1018.32	0.969
1026.85	0.964
1035.38	0.954
1043.91	0.96
1052.43	0.938
1060.96	0.799
1069.49	0.954
1078.02	0.948
1086.55	0.915
1095.08	0.222
1103.6	0.684
1112.13	0.939
1120.66	0.966
1129.19	0.974
1137.72	0.963
1146.24	0.948
1154.77	0.958
1163.3	0.971
1171.83	0.973
1180.36	0.967
1188.89	0.974
1197.41	0.976
1205.94	0.977
1214.47	0.982
1223	0.976
1231.53	0.976
1240.05	0.979
1248.58	0.974
1257.11	0.969
1265.64	0.974
1274.17	0.967
1282.69	0.961
1291.22	0.951
1299.75	0.96
1308.28	0.973
1316.81	0.971
1325.34	0.967
1333.86	0.969
1342.39	0.971
1350.92	0.97
1359.45	0.964
1367.98	0.918
1376.5	0.5909
1385.03	0.3747
1393.56	0.558
1402.09	0.38
1410.62	0.5791
1419.15	0.033
1427.67	0.382
1436.2	0.868
1444.73	0.9071
1453.26	0.969
1461.79	0.961
1470.31	0.936
1478.84	0.914
1487.37	0.958
1495.9	0.97
1504.43	0.97
1512.96	0.96
1521.48	0.936
1530.01	0.87
1538.54	0.87
1547.07	0.871
1555.6	0.541
1564.12	0.032
1572.65	0.011
1581.18	0.408
1589.71	0.743
1598.24	0.856
1606.76	0.803
1615.29	0.796
1623.82	0.912
1632.35	0.945
1640.88	0.97
1649.41	0.989
1657.93	0.979
1666.46	0.98
1674.99	0.98
1683.52	0.977
1692.05	0.973
1700.57	0.966
1709.1	0.943
1717.63	0.8679
1726.16	0.8531
1734.69	0.883
1743.22	0.896
1751.74	0.955
1760.27	0.964
1768.8	0.971
1777.33	0.976
1785.86	0.977
1794.38	0.977
1802.91	0.977
1811.44	0.977
1819.97	0.977
1828.5	0.977
1837.02	0.977
1845.55	0.974
1854.08	0.977
1862.61	0.977
1871.14	0.976
1879.67	0.976
1888.19	0.971
1896.72	0.969
1905.25	0.97
1913.78	0.967
1922.31	0.973
1930.83	0.973
1939.36	0.961
1947.89	0.946
1956.42	0.96
1964.95	0.971
1973.48	0.976
1982	0.979
1990.53	0.98
1999.06	0.983
2007.59	0.986
2016.12	0.988
2024.64	0.989
2033.17	0.992
2041.7	0.994
2050.23	0.995
2058.76	0.997
2067.29	0.998
2075.81	0.998
2084.34	0.998
2092.87	0.998
2101.4	0.998
2109.93	0.998
2118.45	0.998
2126.98	0.998
2135.51	0.998
2144.04	0.998
2152.57	0.9977
2161.09	0.997
2169.62	0.995
2178.15	0.995
2186.68	0.9917
2195.21	0.9729
2203.74	0.988
2212.26	0.991
2220.79	0.991
2229.32	0.991
2237.85	0.994
2246.38	0.9964
2254.9	0.997
2263.43	0.997
2271.96	0.995
2280.49	0.9944
2289.02	0.992
2297.55	0.9946
2306.07	0.9938
2314.6	0.9838
2323.13	0.9835
2331.66	0.9884
2340.19	0.9881
2348.71	0.9884
2357.24	0.98
2365.77	0.9779
2374.3	0.9568
2382.83	0.931
2391.35	0.988
2399.88	0.9885
2408.41	0.988
2416.94	0.9885
2425.47	0.991
2434	0.991
2442.52	0.991
2451.05	0.9886
2459.58	0.988
2468.11	0.9884
2476.64	0.991
2485.16	0.9916
2493.69	0.988
2502.22	0.988
2510.75	0.989
2519.28	0.992
2527.81	0.992
2536.33	0.992
2544.86	0.992
2553.39	0.991
2561.92	0.991
2570.45	0.991
2578.97	0.991
2587.5	0.989
2596.03	0.986
2604.56	0.9852
2613.09	0.986
2621.61	0.9845
2630.14	0.9823
2638.67	0.9594
2647.2	0.9781
2655.73	0.985
2664.26	0.9874
2672.78	0.9882
2681.31	0.9883
2689.84	0.9859
2698.37	0.98
2706.9	0.9727
2715.42	0.9801
2723.95	0.9911
2732.48	0.992
2741.01	0.992
2749.54	0.989
2758.07	0.991
2766.59	0.992
2775.12	0.991
2783.65	0.988
2792.18	0.985
2800.71	0.984
2809.23	0.983
2817.76	0.982
2826.29	0.977
2834.82	0.9522
2843.35	0.9447
2851.88	0.9816
2860.4	0.9939
2868.93	0.998
2877.46	0.9952
2885.99	0.9958
2894.52	0.998
2903.04	1
2911.57	1.001
2920.1	1.002
2928.63	1.001
2937.16	0.9947
2945.68	0.992
2954.21	0.991
2962.74	0.986
2971.27	0.9758
2979.8	0.9749
2988.33	0.9868
2996.85	0.9918
3005.38	0.992
3013.91	0.992
3022.44	0.992
3030.97	0.992
3039.49	0.9918
3048.02	0.989
3056.55	0.9858
3065.08	0.9779
3073.61	0.9513
3082.14	0.7772
3090.66	0.7393
3099.19	0.8854
3107.72	0.9359
3116.25	0.957
3124.78	0.9486
3133.3	0.9141
3141.83	0.9149
3150.36	0.9574
3158.89	0.9741
3167.42	0.9781
3175.94	0.985
3184.47	0.9896
3193	0.995
3201.53	0.999
3210.06	1
3218.59	1.001
3227.11	1.004
3235.64	1.004
3244.17	1.004
3252.7	1.005
3261.23	1.005
3269.75	1.005
3278.28	1.005
3286.81	1.005
3295.34	1.007
3303.87	1.008
3312.4	1.008
3320.92	1.008
3329.45	1.008
3337.98	1.01
3346.51	1.011
3355.04	1.014
3363.56	1.014
3372.09	1.013
3380.62	1.016
3389.15	1.0176
3397.68	1.017
3406.2	1.016
3414.73	1.014
3423.26	1.013
3431.79	1.011
3440.32	1.01
3448.85	1.0073
3457.37	1.007
3465.9	1.007
3474.43	1.0048
3482.96	1.004
3491.49	1.0009
3500.01	0.9987
3508.54	0.997
3517.07	0.9976
3525.6	1
3534.13	1
3542.66	0.998
3551.18	1
3559.71	1
3568.24	1
3576.77	1
3585.3	1
3593.82	0.998
3602.35	0.998
3610.88	0.998
3619.41	0.998
3627.94	0.998
3636.47	0.998
3644.99	0.998
3653.52	0.998
3662.05	0.9971
3670.58	1
3679.11	1.001
3687.63	1.001
3696.16	0.998
3704.69	0.997
3713.22	0.9952
3721.75	0.9946
3730.27	0.994
3738.8	0.994
3747.33	0.994
3755.86	0.994
3764.39	0.994
3772.92	0.995
3781.44	0.997
3789.97	0.9986
3798.5	1.0008
