Infrared Spectrum: PYRIDINE, 3-METHYL-
Formula: C6 H7 N
CAS: 108-99-6
State: VAPOR (0.5 MICROLITER AT 150 C)
Boiling point: 144 C
Class: COBLENTZ
Instrument: NICOLET FTIR
Instrument parameters: Hg-Cd-Te DETECTOR - TYPE A, DEAD BELOW 680 CM^-^1, LOW S/N 710 - 680
Sampling: TRANSMISSION
Path length: 0.2 CM x 30 CM GOLD-PLATED LIGHT PIPE. HELIUM CARRIER. INTERFEROGRAMS CO-ADDED FOR FULL TRANSIT TIME.
Resolution: 4 CM^-^1
Origin: MONSANTO (JOHN J. FREEMAN)
1/CM	TRANSMITTANCE
697.636	0.644
705.909	0.4966
714.181	0.5215
722.454	0.573
730.727	0.6609
739	0.8199
747.272	0.904
755.545	0.8931
763.818	0.7801
772.091	0.7
780.363	0.4051
788.636	0.597
796.909	0.66
805.182	0.772
813.454	0.9019
821.727	0.963
830	0.982
838.272	0.989
846.545	0.99
854.818	0.992
863.091	0.994
871.363	0.994
879.636	0.996
887.909	0.995
896.182	0.994
904.454	0.991
912.727	0.989
921	0.989
929.273	0.993
937.545	0.994
945.818	0.993
954.091	0.984
962.363	0.968
970.636	0.948
978.909	0.947
987.182	0.953
995.454	0.963
1003.73	0.934
1012	0.8451
1020.27	0.722
1028.55	0.784
1036.82	0.7149
1045.09	0.8529
1053.36	0.915
1061.64	0.941
1069.91	0.953
1078.18	0.948
1086.45	0.9161
1094.73	0.898
1103	0.888
1111.27	0.856
1119.55	0.854
1127.82	0.893
1136.09	0.899
1144.36	0.955
1152.64	0.979
1160.91	0.984
1169.18	0.965
1177.45	0.9001
1185.73	0.82
1194	0.803
1202.27	0.805
1210.55	0.9369
1218.82	0.952
1227.09	0.951
1235.36	0.942
1243.64	0.957
1251.91	0.967
1260.18	0.978
1268.45	0.991
1276.73	0.995
1285	0.999
1293.27	0.998
1301.55	0.995
1309.82	0.99
1318.09	0.982
1326.36	0.976
1334.64	0.966
1342.91	0.967
1351.18	0.964
1359.45	0.958
1367.73	0.941
1376	0.92
1384.27	0.893
1392.55	0.875
1400.82	0.822
1409.09	0.726
1417.36	0.6311
1425.64	0.591
1433.91	0.625
1442.18	0.702
1450.45	0.769
1458.73	0.792
1467	0.721
1475.27	0.596
1483.55	0.5881
1491.82	0.623
1500.09	0.8277
1508.36	0.916
1516.64	0.929
1524.91	0.938
1533.18	0.946
1541.45	0.946
1549.73	0.908
1558	0.85
1566.27	0.739
1574.55	0.677
1582.82	0.663
1591.09	0.659
1599.36	0.789
1607.64	0.873
1615.91	0.925
1624.18	0.964
1632.45	0.976
1640.73	0.978
1649	0.983
1657.27	0.979
1665.55	0.986
1673.82	0.993
1682.09	0.993
1690.36	0.979
1698.64	0.974
1706.91	0.966
1715.18	0.966
1723.45	0.974
1731.73	0.988
1740	0.992
1748.27	0.994
1756.55	0.994
1764.82	0.993
1773.09	0.998
1781.36	1
1789.64	1
1797.91	0.997
1806.18	0.996
1814.45	0.994
1822.73	0.987
1831	0.982
1839.27	0.978
1847.55	0.971
1855.82	0.973
1864.09	0.973
1872.36	0.971
1880.64	0.963
1888.91	0.945
1897.18	0.925
1905.45	0.92
1913.73	0.943
1922	0.964
1930.27	0.985
1938.55	0.984
1946.82	0.977
1955.09	0.978
1963.36	0.978
1971.64	0.991
1979.91	0.995
1988.18	0.998
1996.46	0.999
2004.73	0.998
2013	0.9976
2021.27	0.9979
2029.55	0.999
2037.82	1
2046.09	1
2054.36	1.001
2062.64	1.002
2070.91	1.001
2079.18	1.0011
2087.46	1.002
2095.73	1.003
2104	1.003
2112.27	1.002
2120.55	1.002
2128.82	1.001
2137.09	1.001
2145.36	1.001
2153.64	1
2161.91	1
2170.18	0.9989
2178.46	0.9974
2186.73	0.997
2195	0.995
2203.27	0.996
2211.55	0.995
2219.82	0.995
2228.09	0.995
2236.36	0.9942
2244.64	0.995
2252.91	0.993
2261.18	0.9962
2269.46	0.9976
2277.73	1
2286	1.0005
2294.27	1.001
2302.55	1.001
2310.82	1.001
2319.09	1.003
2327.36	1.0048
2335.64	1.002
2343.91	0.9985
2352.18	0.996
2360.46	1
2368.73	0.997
2377	0.996
2385.27	0.995
2393.55	0.997
2401.82	0.999
2410.09	0.999
2418.36	0.9971
2426.64	0.995
2434.91	0.9932
2443.18	0.9915
2451.46	0.989
2459.73	0.991
2468	0.9922
2476.27	0.995
2484.55	0.997
2492.82	0.997
2501.09	0.9981
2509.36	0.998
2517.64	0.999
2525.91	0.9998
2534.18	1
2542.46	1
2550.73	0.9992
2559	0.999
2567.27	0.999
2575.55	0.9974
2583.82	0.998
2592.09	0.995
2600.36	0.993
2608.64	0.99
2616.91	0.9891
2625.18	0.9913
2633.46	0.994
2641.73	0.996
2650	0.9967
2658.27	0.998
2666.55	0.999
2674.82	0.997
2683.09	0.997
2691.36	0.998
2699.64	0.997
2707.91	0.998
2716.18	0.998
2724.46	0.9952
2732.73	0.9902
2741	0.9773
2749.27	0.9718
2757.55	0.9716
2765.82	0.9853
2774.09	0.9931
2782.36	0.992
2790.64	0.987
2798.91	0.9811
2807.18	0.975
2815.46	0.974
2823.73	0.973
2832	0.9722
2840.27	0.9641
2848.55	0.9385
2856.82	0.9026
2865.09	0.8551
2873.36	0.7911
2881.64	0.756
2889.91	0.757
2898.18	0.7674
2906.46	0.7829
2914.73	0.7366
2923	0.6596
2931.27	0.6086
2939.55	0.597
2947.82	0.6329
2956.09	0.7172
2964.36	0.743
2972.64	0.7608
2980.91	0.7385
2989.18	0.6661
2997.46	0.6041
3005.73	0.5491
3014	0.4986
3022.27	0.453
3030.55	0.4194
3038.82	0.4242
3047.09	0.4324
3055.36	0.5114
3063.64	0.5714
3071.91	0.6215
3080.18	0.6791
3088.46	0.7197
3096.73	0.7348
3105	0.8596
3113.27	0.9528
3121.55	0.9754
3129.82	0.9773
3138.09	0.978
3146.36	0.9792
3154.64	0.981
3162.91	0.9852
3171.18	0.989
3179.46	0.989
3187.73	0.9925
3196	0.994
3204.27	0.997
3212.55	0.998
3220.82	0.999
3229.09	0.999
3237.36	0.999
3245.64	1
3253.91	0.9991
3262.18	1
3270.46	1
3278.73	1.0005
3287	1.001
3295.27	1.001
3303.55	1
3311.82	1.001
3320.09	1
3328.37	1.0008
3336.64	1.0007
3344.91	1
3353.18	1.001
3361.46	1.002
3369.73	1.0025
3378	1.003
3386.27	1.002
3394.55	1.003
3402.82	1.002
3411.09	1.002
3419.37	1.002
3427.64	1.002
3435.91	1.003
3444.18	1.003
3452.46	1.0038
3460.73	1.004
3469	1.003
3477.27	1.004
3485.55	1.004
3493.82	1.003
3502.09	1.0049
3510.37	1.004
3518.64	1.0048
3526.91	1.004
3535.18	1.003
3543.46	1.004
3551.73	1.0024
3560	1.0014
3568.27	1.002
3576.55	1.008
3584.82	1.0045
3593.09	1.0033
3601.37	1.004
3609.64	1.003
3617.91	1.0126
3626.18	1.0047
3634.46	1
3642.73	1.0094
3651	1.001
3659.27	1
3667.55	1.009
3675.82	1
3684.09	1.0005
3692.37	1.0068
3700.64	0.9996
3708.91	1.0034
3717.18	1.0068
3725.46	0.9992
3733.73	1.0076
3742	1.0032
3750.27	1.0063
3758.55	1.0014
3766.82	1.0054
3775.09	1.007
3783.37	1.0026
3791.64	1.002
3799.91	1.0018
3808.18	1.005
3816.46	1.005
3824.73	1.0018
3833	1.0044
3841.27	0.997
3849.55	1.0107
3857.82	1.0016
3866.09	0.9991
3874.37	1.004
3882.64	0.995
3890.91	0.996
3899.18	1.0006
3907.46	1.001
3915.73	1.001
3924	1
3932.27	1.0003
3940.55	1.0009
3948.82	1.001
3957.09	1.002
3965.37	1.002
3973.64	1.002
3981.91	1.0016
