Infrared Spectrum: PROPYLENE CARBONATE
Formula: C4 H6 O3
CAS: 108-32-7
State: LIQUID (NEAT)
Class: COBLENTZ III
Instrument: DOW KBr FOREPRISM-GRATING
Instrument parameters: BLAZED AT 3.5, 12.0, 20.0 MICRON AND CHANGED AT 5.0, 7.5, 14.9 MICRON
Sampling: TRANSMISSION
Path length: CAPILLARY
Resolution: 2
1/CM	TRANSMITTANCE
3800	0.8728
3791	0.8728
3782	0.8728
3773	0.8725
3764	0.8724
3755	0.8723
3746	0.8721
3737	0.8721
3728	0.8718
3719	0.8716
3710	0.8713
3701	0.8707
3692	0.87
3683	0.869
3674	0.8668
3665	0.865
3656	0.8636
3647	0.8623
3638	0.8613
3629	0.8603
3620	0.8592
3611	0.858
3602	0.8551
3593	0.8512
3584	0.8456
3575	0.8418
3566	0.8423
3557	0.8434
3548	0.8445
3539	0.8461
3530	0.8471
3521	0.8478
3512	0.8488
3503	0.8498
3494	0.8509
3485	0.8518
3476	0.8523
3467	0.8521
3458	0.8521
3449	0.8518
3440	0.8518
3431	0.8513
3422	0.8506
3413	0.8498
3404	0.849
3395	0.8482
3386	0.8474
3377	0.8464
3368	0.8454
3359	0.8444
3350	0.8434
3341	0.8425
3332	0.8418
3323	0.842
3314	0.8421
3305	0.8424
3296	0.8428
3287	0.8431
3278	0.8432
3269	0.843
3260	0.8428
3251	0.8427
3242	0.8425
3233	0.8424
3224	0.8423
3215	0.8421
3206	0.8424
3197	0.8428
3188	0.8432
3179	0.8435
3170	0.8436
3161	0.8432
3152	0.8428
3143	0.8424
3134	0.8418
3125	0.8405
3116	0.8393
3107	0.8382
3098	0.838
3089	0.8375
3080	0.8371
3071	0.8365
3062	0.8351
3053	0.8331
3044	0.8298
3035	0.822
3026	0.8046
3017	0.7795
3008	0.7484
2999	0.7118
2990	0.7018
2981	0.7458
2972	0.7658
2963	0.7745
2954	0.7717
2945	0.7541
2936	0.7399
2927	0.7345
2918	0.7606
2909	0.7871
2900	0.8055
2891	0.8084
2882	0.8125
2873	0.8195
2864	0.8225
2855	0.8228
2846	0.8338
2837	0.8374
2828	0.8406
2819	0.8428
2810	0.844
2801	0.8445
2792	0.8444
2783	0.8441
2774	0.8437
2765	0.8434
2756	0.8431
2747	0.8431
2738	0.8438
2729	0.8444
2720	0.8451
2711	0.8457
2702	0.8467
2693	0.8478
2684	0.8489
2675	0.8498
2666	0.8498
2657	0.8499
2648	0.8499
2639	0.8493
2630	0.8488
2621	0.8483
2612	0.8477
2603	0.8468
2594	0.8462
2585	0.8454
2576	0.8446
2567	0.8438
2558	0.843
2549	0.8418
2540	0.841
2531	0.8402
2522	0.8396
2513	0.8391
2504	0.8388
2495	0.8398
2486	0.8423
2477	0.8424
2468	0.8424
2459	0.8418
2450	0.8416
2441	0.8413
2432	0.8412
2423	0.841
2414	0.8405
2405	0.8392
2396	0.8371
2387	0.8362
2378	0.8378
2369	0.841
2360	0.8425
2351	0.8428
2342	0.8428
2333	0.8408
2324	0.8352
2315	0.8258
2306	0.8217
2297	0.8217
2288	0.8232
2279	0.8237
2270	0.8241
2261	0.8244
2252	0.8245
2243	0.8251
2234	0.8263
2225	0.8273
2216	0.8284
2207	0.8294
2198	0.8303
2189	0.8313
2180	0.8323
2171	0.8333
2162	0.8344
2153	0.8349
2144	0.8353
2135	0.8355
2126	0.8353
2117	0.8347
2108	0.8338
2099	0.833
2090	0.8323
2081	0.8316
2072	0.8312
2063	0.8307
2054	0.8303
2045	0.8298
2036	0.8291
2027	0.8277
2018	0.8248
2009	0.843
2000	0.862
1991	0.8631
1982	0.8593
1973	0.8547
1964	0.8604
1955	0.8571
1946	0.8568
1937	0.8552
1928	0.8511
1919	0.8435
1910	0.8217
1901	0.8147
1892	0.8149
1883	0.8025
1874	0.7789
1865	0.7468
1856	0.7078
1847	0.5986
1838	0.4554
1829	0.3195
1820	0.1582
1811	0.1096
1802	0.0886
1793	0.081
1784	0.1406
1775	0.3541
1766	0.5516
1757	0.6432
1748	0.6941
1739	0.7291
1730	0.7561
1721	0.7791
1712	0.7994
1703	0.815
1694	0.8278
1685	0.8383
1676	0.8441
1667	0.8475
1658	0.8528
1649	0.857
1640	0.8571
1631	0.8601
1622	0.8656
1613	0.869
1604	0.8695
1595	0.871
1586	0.8728
1577	0.8733
1568	0.8582
1559	0.8304
1550	0.8498
1541	0.8685
1532	0.8747
1523	0.8771
1514	0.8764
1505	0.8659
1496	0.8482
1487	0.7699
1478	0.8126
1469	0.8321
1460	0.808
1451	0.7861
1442	0.8228
1433	0.8492
1424	0.8516
1415	0.8418
1406	0.7744
1397	0.6326
1388	0.5023
1379	0.7369
1370	0.7965
1361	0.7332
1352	0.575
1343	0.7401
1334	0.7596
1325	0.8028
1316	0.8432
1307	0.8578
1298	0.8637
1289	0.8678
1280	0.8682
1271	0.8645
1262	0.8612
1253	0.858
1244	0.8513
1235	0.8247
1226	0.7801
1217	0.7704
1208	0.7458
1199	0.589
1190	0.3772
1181	0.3008
1172	0.345
1163	0.4516
1154	0.5724
1145	0.5854
1136	0.6625
1127	0.5909
1118	0.3971
1109	0.5212
1100	0.6655
1091	0.6492
1082	0.5285
1073	0.4677
1064	0.4915
1055	0.3394
1046	0.3003
1037	0.4827
1028	0.6731
1019	0.7968
1010	0.8523
1001	0.8725
992	0.8838
983	0.8894
974	0.8888
965	0.8828
956	0.8585
947	0.8615
938	0.8716
929	0.8901
920	0.8871
911	0.8888
902	0.9018
893	0.9091
884	0.9164
875	0.9199
866	0.9212
857	0.91
848	0.8783
839	0.8986
830	0.9254
821	0.9401
812	0.9421
803	0.9388
794	0.9325
785	0.8761
776	0.5828
767	0.8444
758	0.9206
749	0.9351
740	0.9378
731	0.9375
722	0.911
713	0.76
704	0.8823
695	0.9204
686	0.9341
677	0.9299
668	0.9285
659	0.928
650	0.9288
641	0.9236
632	0.9178
623	0.9178
614	0.9171
605	0.9211
596	0.9149
587	0.9128
578	0.9124
569	0.909
560	0.9067
551	0.9044
542	0.896
533	0.8941
524	0.895
515	0.8974
506	0.9004
497	0.9024
488	0.904
479	0.907
470	0.9124
