Infrared Spectrum: ACETIC ACID, 2-PROPYL ESTER
Formula: C5 H10 O2
CAS: 108-21-4
State: SOLUTION (2% IN CCl4 FOR 3800-1333, 2% IN CS2 FOR 1333-400 CM^-^1)
Class: COBLENTZ III
Instrument: DOW KBr FOREPRISM-GRATING
Instrument parameters: BLAZED AT 3.5, 12.0, 20.0 MICRON, CHANGED AT 5.0, 7.5, 14.9 MICRON
Sampling: TRANSMISSION
Path length: 0.011, 0.011 CM
Resolution: 4
Origin: DOW CHEMICAL COMPANY
1/CM	TRANSMITTANCE
388.162	0.289
396.699	0.354
405.237	0.558
413.774	0.837
422.311	0.945
430.849	0.94
439.386	0.985
447.923	1.042
456.46	1.057
464.998	1.07
473.535	1.07
482.072	1.07
490.61	1.069
499.147	1.066
507.684	1.064
516.222	1.056
524.759	1.048
533.296	1.046
541.834	1.049
550.371	1.053
558.908	1.057
567.445	1.061
575.983	1.061
584.52	1.058
593.057	1.056
601.595	1.012
610.132	0.954
618.669	1.016
627.207	0.956
635.744	1.013
644.281	1
652.818	0.982
661.356	1.001
669.893	1.025
678.43	1.032
686.968	1.025
695.505	1.022
704.042	1.02
712.58	1.018
721.117	1.016
729.654	1.014
738.192	1.013
746.729	1.006
755.266	1.006
763.803	1.006
772.341	1.002
780.878	0.992
789.415	0.99
797.953	0.99
806.49	0.985
815.027	0.95
823.565	0.925
832.102	0.968
840.639	0.925
849.177	0.844
857.714	0.821
866.251	0.853
874.788	0.877
883.326	0.849
891.863	0.936
900.4	0.978
908.938	0.984
917.475	0.98
926.012	0.97
934.55	0.953
943.087	0.937
951.624	0.794
960.162	0.8331
968.699	0.96
977.236	0.968
985.773	0.956
994.311	0.924
1002.85	0.833
1011.39	0.646
1019.92	0.7421
1028.46	0.89
1037	0.896
1045.53	0.884
1054.07	0.922
1062.61	0.932
1071.15	0.942
1079.68	0.949
1088.22	0.932
1096.76	0.822
1105.3	0.3099
1113.83	0.6262
1122.37	0.862
1130.91	0.87
1139.44	0.769
1147.98	0.85
1156.52	0.933
1165.06	0.937
1173.59	0.885
1182.13	0.877
1190.67	0.96
1199.21	0.94
1207.74	0.896
1216.28	0.802
1224.82	0.712
1233.36	0.2928
1241.89	0.03
1250.43	0.272
1258.97	0.5041
1267.5	0.813
1276.04	0.853
1284.58	0.901
1293.12	0.936
1301.65	0.954
1310.19	0.964
1318.73	0.961
1327.27	0.957
1335.8	0.961
1344.34	0.934
1352.88	0.908
1361.41	0.8338
1369.95	0.3279
1378.49	0.5164
1387.03	0.7731
1395.56	0.901
1404.1	0.934
1412.64	0.928
1421.18	0.897
1429.71	0.878
1438.25	0.858
1446.79	0.862
1455.33	0.814
1463.86	0.8689
1472.4	0.7921
1480.94	0.914
1489.47	0.892
1498.01	0.861
1506.55	0.794
1515.09	0.758
1523.62	0.714
1532.16	0.646
1540.7	0.537
1549.24	0.509
1557.77	0.538
1566.31	0.632
1574.85	0.668
1583.38	0.661
1591.92	0.71
1600.46	0.834
1609	0.9
1617.53	0.93
1626.07	0.948
1634.61	0.946
1643.15	0.932
1651.68	0.91
1660.22	0.902
1668.76	0.908
1677.3	0.91
1685.83	0.904
1694.37	0.893
1702.91	0.884
1711.44	0.8159
1719.98	0.4808
1728.52	0.1329
1737.06	0.054
1745.59	0.4841
1754.13	0.8061
1762.67	0.89
1771.21	0.898
1779.74	0.948
1788.28	0.972
1796.82	0.981
1805.35	0.986
1813.89	0.985
1822.43	0.981
1830.97	0.974
1839.5	0.972
1848.04	0.984
1856.58	0.989
1865.12	0.989
1873.65	0.994
1882.19	0.994
1890.73	0.993
1899.27	0.992
1907.8	0.988
1916.34	0.989
1924.88	0.994
1933.41	0.994
1941.95	0.992
1950.49	0.996
1959.03	1
1967.56	0.992
1976.1	0.99
1984.64	0.988
1993.18	0.981
2001.71	0.988
2010.25	0.989
2018.79	0.994
2027.32	0.994
2035.86	0.994
2044.4	0.992
2052.94	0.992
2061.47	0.9901
2070.01	0.99
2078.55	0.9919
2087.09	0.996
2095.62	0.997
2104.16	0.997
2112.7	0.996
2121.24	0.994
2129.77	0.993
2138.31	0.99
2146.85	0.99
2155.38	0.993
2163.92	0.994
2172.46	0.992
2181	0.992
2189.53	0.9881
2198.07	0.986
2206.61	0.985
2215.15	0.985
2223.68	0.986
2232.22	0.9823
2240.76	0.981
2249.29	0.9745
2257.83	0.9692
2266.37	0.9602
2274.91	0.9562
2283.44	0.9544
2291.98	0.953
2300.52	0.949
2309.06	0.948
2317.59	0.946
2326.13	0.945
2334.67	0.94
2343.21	0.9378
2351.74	0.942
2360.28	0.9412
2368.82	0.941
2377.35	0.942
2385.89	0.944
2394.43	0.942
2402.97	0.941
2411.5	0.941
2420.04	0.938
2428.58	0.9363
2437.12	0.934
2445.65	0.933
2454.19	0.933
2462.73	0.9266
2471.26	0.9213
2479.8	0.9146
2488.34	0.912
2496.88	0.909
2505.41	0.91
2513.95	0.9067
2522.49	0.904
2531.03	0.9014
2539.56	0.901
2548.1	0.898
2556.64	0.893
2565.18	0.89
2573.71	0.89
2582.25	0.8884
2590.79	0.885
2599.32	0.8814
2607.86	0.8764
2616.4	0.872
2624.94	0.869
2633.47	0.8696
2642.01	0.872
2650.55	0.876
2659.09	0.88
2667.62	0.882
2676.16	0.88
2684.7	0.8749
2693.23	0.8714
2701.77	0.87
2710.31	0.8685
2718.85	0.863
2727.38	0.857
2735.92	0.85
2744.46	0.849
2753	0.849
2761.53	0.85
2770.07	0.85
2778.61	0.849
2787.15	0.8415
2795.68	0.8365
2804.22	0.8311
2812.76	0.8215
2821.29	0.8151
2829.83	0.816
2838.37	0.818
2846.91	0.8214
2855.44	0.8246
2863.98	0.82
2872.52	0.8107
2881.06	0.8014
2889.59	0.826
2898.13	0.8252
2906.67	0.8128
2915.2	0.7969
2923.74	0.7566
2932.28	0.7074
2940.82	0.6786
2949.35	0.7417
2957.89	0.7475
2966.43	0.705
2974.97	0.5229
2983.5	0.4414
2992.04	0.5799
3000.58	0.7263
3009.11	0.7986
3017.65	0.813
3026.19	0.814
3034.73	0.814
3043.26	0.8163
3051.8	0.816
3060.34	0.814
3068.88	0.814
3077.41	0.8074
3085.95	0.8017
3094.49	0.7967
3103.03	0.7927
3111.56	0.788
3120.1	0.789
3128.64	0.792
3137.17	0.793
3145.71	0.7972
3154.25	0.8085
3162.79	0.8227
3171.32	0.8347
3179.86	0.8482
3188.4	0.858
3196.94	0.8652
3205.47	0.87
3214.01	0.8732
3222.55	0.8772
3231.08	0.8784
3239.62	0.882
3248.16	0.8852
3256.7	0.89
3265.23	0.893
3273.77	0.894
3282.31	0.8963
3290.85	0.8983
3299.38	0.902
3307.92	0.904
3316.46	0.906
3325	0.908
3333.53	0.909
3342.07	0.9091
3350.61	0.912
3359.14	0.912
3367.68	0.9139
3376.22	0.914
3384.76	0.916
3393.29	0.9171
3401.83	0.9181
3410.37	0.9211
3418.91	0.9211
3427.44	0.924
3435.98	0.9239
3444.52	0.92
3453.05	0.9221
3461.59	0.932
3470.13	0.9371
3478.67	0.946
3487.2	0.953
3495.74	0.956
3504.28	0.954
3512.82	0.961
3521.35	0.958
3529.89	0.961
3538.43	0.962
3546.97	0.961
3555.5	0.964
3564.04	0.9621
3572.58	0.9649
3581.11	0.965
3589.65	0.9648
3598.19	0.966
3606.73	0.9641
3615.26	0.964
3623.8	0.9623
3632.34	0.964
3640.88	0.968
3649.41	0.956
3657.95	0.9689
3666.49	0.9644
3675.02	0.962
3683.56	0.9681
3692.1	0.9655
3700.64	0.968
3709.17	0.9663
3717.71	0.9681
3726.25	0.9651
3734.79	0.964
3743.32	0.9583
3751.86	0.9608
3760.4	0.9677
3768.94	0.9688
3777.47	0.968
