Infrared Spectrum: PYRAZINE, 2,6-DIMETHYL-
Formula: C6 H8 N2
CAS: 108-50-9
State: SOLUTION (CCl4 FOR 2-11, CS2 FOR 11-16 MICRON)
Class: COBLENTZ III
Instrument: BAIRD (GRATING)
Instrument parameters: NaCl PRISM
Sampling: TRANSMISSION
Path length: 0.005 CM, AND 0.005 CM
Resolution: 2
Origin: WYANDOTTE CHEMICALS CORP.
1/CM	TRANSMITTANCE
4000	0.9514
3991	0.9521
3982	0.9532
3973	0.9542
3964	0.9551
3955	0.9561
3946	0.9571
3937	0.9581
3928	0.959
3919	0.9595
3910	0.9601
3901	0.9606
3892	0.9612
3883	0.9617
3874	0.9621
3865	0.9625
3856	0.9628
3847	0.963
3838	0.9632
3829	0.9634
3820	0.9635
3811	0.9633
3802	0.9628
3793	0.9625
3784	0.9623
3775	0.9618
3766	0.9609
3757	0.96
3748	0.9591
3739	0.9582
3730	0.9571
3721	0.9551
3712	0.9528
3703	0.9505
3694	0.9475
3685	0.9444
3676	0.9413
3667	0.9357
3658	0.9311
3649	0.9271
3640	0.9234
3631	0.9202
3622	0.9174
3613	0.9144
3604	0.9116
3595	0.9091
3586	0.9066
3577	0.9042
3568	0.9017
3559	0.8993
3550	0.8971
3541	0.8947
3532	0.8924
3523	0.8904
3514	0.8888
3505	0.8871
3496	0.8855
3487	0.8849
3478	0.8844
3469	0.8839
3460	0.8834
3451	0.8828
3442	0.8828
3433	0.883
3424	0.8833
3415	0.8836
3406	0.8846
3397	0.8858
3388	0.887
3379	0.8888
3370	0.8913
3361	0.8939
3352	0.8965
3343	0.8991
3334	0.901
3325	0.9028
3316	0.9044
3307	0.9058
3298	0.9073
3289	0.9082
3280	0.9089
3271	0.9087
3262	0.9078
3253	0.906
3244	0.9041
3235	0.9021
3226	0.9005
3217	0.8989
3208	0.8981
3199	0.8975
3190	0.8975
3181	0.8974
3172	0.8971
3163	0.8952
3154	0.891
3145	0.8844
3136	0.8768
3127	0.8689
3118	0.861
3109	0.8478
3100	0.8327
3091	0.8132
3082	0.7817
3073	0.5639
3064	0.4387
3055	0.3289
3046	0.3676
3037	0.5303
3028	0.5217
3019	0.4631
3010	0.4034
3001	0.3942
2992	0.4337
2983	0.4614
2974	0.4473
2965	0.4283
2956	0.4117
2947	0.43
2938	0.5009
2929	0.5722
2920	0.644
2911	0.7161
2902	0.7296
2893	0.7172
2884	0.7035
2875	0.6986
2866	0.7221
2857	0.7548
2848	0.7874
2839	0.8305
2830	0.8506
2821	0.863
2812	0.8758
2803	0.8844
2794	0.8893
2785	0.8911
2776	0.8904
2767	0.8871
2758	0.8774
2749	0.8671
2740	0.8718
2731	0.8885
2722	0.9025
2713	0.9127
2704	0.9204
2695	0.923
2686	0.9241
2677	0.9233
2668	0.9215
2659	0.9186
2650	0.9167
2641	0.9171
2632	0.923
2623	0.9296
2614	0.9341
2605	0.9367
2596	0.9388
2587	0.9399
2578	0.9395
2569	0.9378
2560	0.9356
2551	0.933
2542	0.9304
2533	0.9274
2524	0.925
2515	0.9228
2506	0.9209
2497	0.921
2488	0.9227
2479	0.9237
2470	0.9242
2461	0.9242
2452	0.9223
2443	0.9187
2434	0.9159
2425	0.9149
2416	0.9135
2407	0.9127
2398	0.912
2389	0.9154
2380	0.9223
2371	0.9299
2362	0.9367
2353	0.9401
2344	0.9364
2335	0.9304
2326	0.9246
2317	0.922
2308	0.9195
2299	0.9177
2290	0.9203
2281	0.9293
2272	0.9358
2263	0.9383
2254	0.9405
2245	0.9439
2236	0.9487
2227	0.9533
2218	0.9568
2209	0.9592
2200	0.9606
2191	0.9616
2182	0.9621
2173	0.9625
2164	0.962
2155	0.9616
2146	0.9615
2137	0.9605
2128	0.9589
2119	0.9561
2110	0.9471
2101	0.9459
2092	0.9423
2083	0.9383
2074	0.937
2065	0.939
2056	0.9442
2047	0.9551
2038	0.9606
2029	0.9618
2020	0.9621
2011	0.9617
2002	0.9608
1993	0.9592
1984	0.9491
1975	0.936
1966	0.9332
1957	0.9086
1948	0.9013
1939	0.9191
1930	0.9325
1921	0.9411
1912	0.9435
1903	0.9423
1894	0.9405
1885	0.9381
1876	0.9358
1867	0.9297
1858	0.9071
1849	0.9244
1840	0.9399
1831	0.9467
1822	0.9474
1813	0.9398
1804	0.9091
1795	0.8628
1786	0.8891
1777	0.9238
1768	0.9368
1759	0.9397
1750	0.9307
1741	0.8916
1732	0.8768
1723	0.9091
1714	0.921
1705	0.9153
1696	0.9062
1687	0.8981
1678	0.8923
1669	0.8868
1660	0.8808
1651	0.8735
1642	0.8651
1633	0.8541
1624	0.8311
1615	0.7658
1606	0.6607
1597	0.6676
1588	0.5765
1579	0.5806
1570	0.5436
1561	0.3509
1552	0.1535
1543	0.0824
1534	0.3479
1525	0.4669
1516	0.491
1507	0.4742
1498	0.4479
1489	0.4179
1480	0.2809
1471	0.1796
1462	0.1385
1453	0.1549
1444	0.1736
1435	0.1425
1426	0.068
1417	0.0752
1408	0.3707
1399	0.4435
1390	0.3362
1381	0.1976
1372	0.6151
1363	0.7571
1354	0.7918
1345	0.8107
1336	0.8318
1327	0.8321
1318	0.7593
1309	0.7936
1300	0.8296
1291	0.6712
1282	0.4575
1273	0.6783
1264	0.2219
1255	0.1694
1246	0.6235
1237	0.7503
1228	0.7769
1219	0.7747
1210	0.788
1201	0.6967
1192	0.7217
1183	0.6267
1174	0.172
1165	0.0581
1156	0.478
1147	0.6697
1138	0.7549
1129	0.7926
1120	0.8022
1111	0.8051
1102	0.8048
1093	0.7921
1084	0.7619
1075	0.7065
1066	0.6694
1057	0.6526
1048	0.561
1039	0.3013
1030	0.1507
1021	0.0843
1012	0.4895
1003	0.6583
994	0.7186
985	0.6965
976	0.6151
967	0.6989
958	0.7634
949	0.7533
940	0.55
931	0.417
922	0.7725
913	0.8271
904	0.8474
895	0.8462
886	0.8275
877	0.7683
868	0.5987
859	0.2647
850	0.7371
841	0.8262
832	0.8558
823	0.8735
814	0.8816
805	0.8847
796	0.8831
787	0.8755
778	0.8803
769	0.8759
760	0.8538
751	0.7476
742	0.4864
733	0.8183
724	0.8397
715	0.8233
706	0.6394
697	0.7975
688	0.7704
679	0.7374
670	0.7025
661	0.6739
652	0.6199
643	0.5932
634	0.5545
