Infrared Spectrum: PHENOL, 3-METHYL-
Formula: C7 H8 O
CAS: 108-39-4
State: SOLUTION (10% IN CCl4 FOR 3800-1300, 10% IN CS2 FOR 1300-650, 10% IN CCl4 FOR 650-260 CM^-^1) VERSUS SOLVENT
Class: COBLENTZ III
Instrument: PERKIN-ELMER 521 (GRATING)
Instrument parameters: FILTERS AT 3150, 2500, 2000, 1150, 700, 410; GRATING CHANGES AT 2000, 630 CM^-^1
Sampling: TRANSMISSION
Path length: 0.011, 0.010, AND 0.011 CM (CsBr CELL)
Resolution: 4
Origin: DOW CORNING CORP.
1/CM	TRANSMITTANCE
250.164	0.604
259.016	0.604
267.869	0.602
276.721	0.594
285.574	0.572
294.426	0.558
303.279	0.549
312.131	0.545
320.984	0.546
329.836	0.55
338.689	0.565
347.541	0.596
356.394	0.636
365.246	0.657
374.099	0.68
382.951	0.696
391.804	0.705
400.656	0.71
409.509	0.713
418.361	0.712
427.214	0.706
436.066	0.686
444.919	0.4382
453.771	0.5639
462.624	0.678
471.476	0.724
480.329	0.738
489.181	0.742
498.034	0.736
506.886	0.709
515.739	0.693
524.591	0.692
533.444	0.677
542.296	0.505
551.149	0.658
560.001	0.672
568.854	0.678
577.706	0.677
586.559	0.674
595.411	0.673
604.264	0.672
613.116	0.672
621.969	0.673
630.821	0.674
639.674	0.676
648.526	0.681
657.379	0.686
666.231	0.69
675.084	0.686
683.936	0.596
692.789	0.121
701.641	0.5619
710.494	0.692
719.346	0.716
728.199	0.706
737.051	0.482
745.904	0.702
754.756	0.706
763.609	0.602
772.461	0.1299
781.314	0.1051
790.166	0.5639
799.019	0.773
807.871	0.788
816.723	0.764
825.576	0.792
834.428	0.809
843.281	0.648
852.133	0.572
860.986	0.628
869.838	0.692
878.691	0.546
887.543	0.769
896.396	0.85
905.248	0.852
914.101	0.808
922.953	0.605
931.806	0.186
940.658	0.777
949.511	0.85
958.363	0.84
967.216	0.84
976.068	0.834
984.921	0.798
993.773	0.742
1002.63	0.625
1011.48	0.688
1020.33	0.836
1029.18	0.814
1038.04	0.761
1046.89	0.828
1055.74	0.866
1064.59	0.86
1073.45	0.834
1082.3	0.666
1091.15	0.801
1100	0.837
1108.86	0.828
1117.71	0.794
1126.56	0.741
1135.41	0.649
1144.27	0.4001
1153.12	0.046
1161.97	0.122
1170.82	0.441
1179.68	0.417
1188.53	0.338
1197.38	0.341
1206.23	0.338
1215.09	0.354
1223.94	0.294
1232.79	0.276
1241.64	0.288
1250.5	0.325
1259.35	0.337
1268.2	0.14
1277.05	0.096
1285.91	0.1841
1294.76	0.5731
1303.61	0.4569
1312.46	0.3841
1321.32	0.404
1330.17	0.402
1339.02	0.433
1347.87	0.47
1356.73	0.525
1365.58	0.58
1374.43	0.606
1383.28	0.662
1392.14	0.713
1400.99	0.676
1409.84	0.669
1418.69	0.645
1427.55	0.509
1436.4	0.337
1445.25	0.368
1454.1	0.272
1462.96	0.205
1471.81	0.257
1480.66	0.254
1489.51	0.0649
1498.37	0.277
1507.22	0.486
1516.07	0.417
1524.92	0.562
1533.78	0.606
1542.63	0.645
1551.48	0.673
1560.33	0.656
1569.19	0.632
1578.04	0.464
1586.89	0.058
1595.74	0.045
1604.6	0.19
1613.45	0.128
1622.3	0.214
1631.15	0.4571
1640.01	0.7081
1648.86	0.786
1657.71	0.818
1666.56	0.837
1675.42	0.841
1684.27	0.834
1693.12	0.833
1701.97	0.842
1710.83	0.853
1719.68	0.83
1728.53	0.824
1737.38	0.838
1746.24	0.88
1755.09	0.88
1763.94	0.877
1772.79	0.88
1781.65	0.881
1790.5	0.88
1799.35	0.874
1808.2	0.858
1817.06	0.856
1825.91	0.856
1834.76	0.848
1843.61	0.86
1852.47	0.88
1861.32	0.884
1870.17	0.881
1879.02	0.872
1887.88	0.866
1896.73	0.87
1905.58	0.865
1914.43	0.837
1923.29	0.825
1932.14	0.8541
1940.99	0.89
1949.84	0.898
1958.69	0.901
1967.55	0.902
1976.4	0.905
1985.25	0.902
1994.1	0.902
2002.96	0.9085
2011.81	0.912
2020.66	0.9135
2029.51	0.916
2038.37	0.917
2047.22	0.917
2056.07	0.916
2064.92	0.914
2073.78	0.9095
2082.63	0.908
2091.48	0.911
2100.33	0.914
2109.19	0.917
2118.04	0.92
2126.89	0.92
2135.74	0.92
2144.6	0.917
2153.45	0.917
2162.3	0.916
2171.15	0.916
2180.01	0.914
2188.86	0.913
2197.71	0.91
2206.56	0.908
2215.42	0.9085
2224.27	0.914
2233.12	0.916
2241.97	0.916
2250.83	0.917
2259.68	0.917
2268.53	0.917
2277.38	0.916
2286.24	0.916
2295.09	0.909
2303.94	0.905
2312.79	0.902
2321.65	0.901
2330.5	0.901
2339.35	0.9
2348.2	0.9
2357.06	0.8975
2365.91	0.893
2374.76	0.891
2383.61	0.886
2392.47	0.8815
2401.32	0.877
2410.17	0.872
2419.02	0.869
2427.88	0.862
2436.73	0.868
2445.58	0.868
2454.43	0.866
2463.29	0.869
2472.14	0.87
2480.99	0.87
2489.84	0.87
2498.7	0.87
2507.55	0.873
2516.4	0.8695
2525.25	0.866
2534.11	0.8615
2542.96	0.857
2551.81	0.853
2560.66	0.853
2569.52	0.855
2578.37	0.86
2587.22	0.863
2596.07	0.865
2604.93	0.87
2613.78	0.872
2622.63	0.87
2631.48	0.869
2640.34	0.868
2649.19	0.865
2658.04	0.86
2666.89	0.856
2675.75	0.854
2684.6	0.853
2693.45	0.853
2702.3	0.853
2711.16	0.853
2720.01	0.85
2728.86	0.834
2737.71	0.829
2746.57	0.855
2755.42	0.861
2764.27	0.86
2773.12	0.857
2781.98	0.8535
2790.83	0.852
2799.68	0.8445
2808.53	0.838
2817.39	0.832
2826.24	0.814
2835.09	0.801
2843.94	0.7611
2852.8	0.679
2861.65	0.648
2870.5	0.696
2879.35	0.73
2888.21	0.735
2897.06	0.716
2905.91	0.6549
2914.76	0.5251
2923.62	0.483
2932.47	0.562
2941.32	0.5925
2950.17	0.584
2959.03	0.596
2967.88	0.612
2976.73	0.6155
2985.58	0.628
2994.44	0.636
3003.29	0.638
3012.14	0.6015
3020.99	0.5481
3029.85	0.499
3038.7	0.4281
3047.55	0.503
3056.4	0.561
3065.26	0.622
3074.11	0.642
3082.96	0.6625
3091.81	0.666
3100.67	0.669
3109.52	0.68
3118.37	0.686
3127.22	0.685
3136.08	0.6785
3144.93	0.653
3153.78	0.636
3162.63	0.609
3171.49	0.5875
3180.34	0.562
3189.19	0.526
3198.04	0.502
3206.9	0.469
3215.75	0.448
3224.6	0.427
3233.45	0.405
3242.31	0.3795
3251.16	0.354
3260.01	0.3294
3268.86	0.306
3277.72	0.287
3286.57	0.266
3295.42	0.247
3304.27	0.232
3313.13	0.2185
3321.98	0.213
3330.83	0.2055
3339.68	0.202
3348.54	0.2015
3357.39	0.201
3366.24	0.2015
3375.09	0.205
3383.95	0.208
3392.8	0.21
3401.65	0.2175
3410.5	0.225
3419.36	0.231
3428.21	0.242
3437.06	0.253
3445.91	0.266
3454.77	0.2795
3463.62	0.293
3472.47	0.307
3481.32	0.318
3490.18	0.3355
3499.03	0.353
3507.88	0.3825
3516.73	0.416
3525.59	0.4455
3534.44	0.462
3543.29	0.4895
3552.14	0.5259
3561	0.5495
3569.85	0.56
3578.7	0.5315
3587.55	0.4611
3596.41	0.3784
3605.26	0.226
3614.11	0.3633
3622.96	0.765
3631.82	0.8225
3640.67	0.838
3649.52	0.838
3658.37	0.834
3667.23	0.838
3676.08	0.862
3684.93	0.889
3693.78	0.904
3702.64	0.9095
3711.49	0.913
3720.34	0.916
3729.19	0.916
3738.05	0.916
3746.9	0.914
3755.75	0.914
3764.6	0.914
3773.46	0.914
3782.31	0.914
