Infrared Spectrum: m-Chlorotoluene
Formula: C7 H7 Cl
CAS: 108-41-8
State: SOLUTION (10% CCl4 FOR 3800-1330, 10% CS2 FOR 1330-450)
Class: COBLENTZ III
Instrument: DOW KBr FOREPRISM-GRATING
Instrument parameters: BLAZED AT 3.5, 12.0, 20.0 MICRON AND CHANGED AT 5.0, 7.5, 14.9 MICRON
Sampling: TRANSMISSION
Path length: 0.011 CM, 0.011 CM
Resolution: 2
Origin: DOW CHEMICAL COMPANY
1/CM	TRANSMITTANCE
3816	0.9345
3807	0.9333
3798	0.9312
3789	0.9311
3780	0.9269
3771	0.9275
3762	0.9313
3753	0.9335
3744	0.933
3735	0.9321
3726	0.9291
3717	0.9267
3708	0.9321
3699	0.9356
3690	0.9355
3681	0.9338
3672	0.9339
3663	0.9342
3654	0.9345
3645	0.9349
3636	0.9356
3627	0.9377
3618	0.9382
3609	0.9391
3600	0.9395
3591	0.9412
3582	0.9424
3573	0.9437
3564	0.9435
3555	0.9464
3546	0.9481
3537	0.9491
3528	0.9495
3519	0.9512
3510	0.953
3501	0.9547
3492	0.9567
3483	0.9588
3474	0.9609
3465	0.9629
3456	0.9649
3447	0.9668
3438	0.9687
3429	0.9701
3420	0.9718
3411	0.9736
3402	0.9737
3393	0.9726
3384	0.9709
3375	0.969
3366	0.9673
3357	0.9664
3348	0.9654
3339	0.9647
3330	0.9646
3321	0.9645
3312	0.9659
3303	0.9642
3294	0.9636
3285	0.9629
3276	0.9626
3267	0.9625
3258	0.9613
3249	0.9594
3240	0.9572
3231	0.9545
3222	0.9513
3213	0.949
3204	0.9455
3195	0.9452
3186	0.9422
3177	0.9398
3168	0.938
3159	0.9375
3150	0.9358
3141	0.933
3132	0.9307
3123	0.9286
3114	0.9206
3105	0.8822
3096	0.8377
3087	0.8262
3078	0.7586
3069	0.673
3060	0.744
3051	0.7726
3042	0.74
3033	0.7308
3024	0.7157
3015	0.7754
3006	0.7854
2997	0.7643
2988	0.7477
2979	0.7387
2970	0.7425
2961	0.7174
2952	0.7012
2943	0.7149
2934	0.6488
2925	0.5808
2916	0.7101
2907	0.7597
2898	0.7909
2889	0.8065
2880	0.8109
2871	0.7945
2862	0.7644
2853	0.8125
2844	0.8708
2835	0.8918
2826	0.9038
2817	0.909
2808	0.9147
2799	0.9194
2790	0.9216
2781	0.9227
2772	0.9243
2763	0.9239
2754	0.923
2745	0.9179
2736	0.9006
2727	0.9026
2718	0.9208
2709	0.9228
2700	0.9237
2691	0.9249
2682	0.9259
2673	0.9266
2664	0.9273
2655	0.9293
2646	0.93
2637	0.9288
2628	0.9307
2619	0.9303
2610	0.9293
2601	0.9276
2592	0.925
2583	0.9225
2574	0.9215
2565	0.9213
2556	0.9225
2547	0.9236
2538	0.9247
2529	0.9258
2520	0.9266
2511	0.9266
2502	0.9266
2493	0.9266
2484	0.9266
2475	0.9281
2466	0.9281
2457	0.927
2448	0.9277
2439	0.9272
2430	0.9263
2421	0.925
2412	0.9231
2403	0.922
2394	0.9198
2385	0.9201
2376	0.9277
2367	0.9299
2358	0.9357
2349	0.9405
2340	0.9418
2331	0.9387
2322	0.9398
2313	0.9361
2304	0.9329
2295	0.932
2286	0.9286
2277	0.9288
2268	0.93
2259	0.9302
2250	0.9285
2241	0.9299
2232	0.9314
2223	0.9342
2214	0.9345
2205	0.9352
2196	0.9356
2187	0.9347
2178	0.9366
2169	0.9373
2160	0.9366
2151	0.9376
2142	0.9388
2133	0.9401
2124	0.9426
2115	0.9444
2106	0.9406
2097	0.9372
2088	0.9411
2079	0.9405
2070	0.9385
2061	0.9374
2052	0.9443
2043	0.9496
2034	0.9479
2025	0.9416
2016	0.9384
2007	0.9392
1998	0.9404
1989	0.9185
1980	0.9144
1971	0.9099
1962	0.926
1953	0.9103
1944	0.8926
1935	0.8347
1926	0.8895
1917	0.9031
1908	0.9026
1899	0.9035
1890	0.9045
1881	0.9062
1872	0.8982
1863	0.8305
1854	0.885
1845	0.8968
1836	0.8841
1827	0.9
1818	0.9056
1809	0.9078
1800	0.9092
1791	0.8932
1782	0.8839
1773	0.8967
1764	0.8498
1755	0.8692
1746	0.8955
1737	0.8732
1728	0.8937
1719	0.9084
1710	0.9121
1701	0.9231
1692	0.9141
1683	0.908
1674	0.9093
1665	0.8956
1656	0.9138
1647	0.9429
1638	0.9451
1629	0.923
1620	0.8581
1611	0.7737
1602	0.3133
1593	0.4457
1584	0.4485
1575	0.3462
1566	0.6092
1557	0.6987
1548	0.7311
1539	0.769
1530	0.7686
1521	0.7371
1512	0.7471
1503	0.7098
1494	0.4612
1485	0.4037
1476	0.242
1467	0.5074
1458	0.5503
1449	0.5768
1440	0.6276
1431	0.6564
1422	0.724
1413	0.725
1404	0.8067
1395	0.8039
1386	0.8611
1377	0.8649
1368	0.9009
1359	0.9249
1350	0.9162
1341	0.9045
1332	0.8997
1323	0.9022
1314	0.9097
1305	0.9047
1296	0.8936
1287	0.8948
1278	0.9088
1269	0.8957
1260	0.9166
1251	0.928
1242	0.9357
1233	0.9375
1224	0.9031
1215	0.4613
1206	0.8468
1197	0.8698
1188	0.9197
1179	0.9232
1170	0.9196
1161	0.7243
1152	0.9197
1143	0.9333
1134	0.953
1125	0.9568
1116	0.9237
1107	0.8699
1098	0.6106
1089	0.6969
1080	0.163
1071	0.6683
1062	0.8714
1053	0.8575
1044	0.7718
1035	0.7958
1026	0.8737
1017	0.9009
1008	0.9013
999	0.7108
990	0.7827
981	0.8379
972	0.8851
963	0.8959
954	0.9011
945	0.9183
936	0.9253
927	0.9296
918	0.9228
909	0.9067
900	0.8598
891	0.6795
882	0.8631
873	0.6208
864	0.438
855	0.2011
846	0.822
837	0.8476
828	0.8615
819	0.9007
810	0.8896
801	0.8943
792	0.8733
783	0.6418
774	0.0132
765	0.561
756	0.8378
747	0.8772
738	0.9202
729	0.936
720	0.9412
711	0.9316
702	0.921
693	0.8374
684	0.0302
675	0.743
666	0.889
657	0.9224
648	0.9355
639	0.9418
630	0.9504
621	0.9587
612	0.9652
603	0.97
594	0.973
585	0.9742
576	0.9736
567	0.976
558	0.9769
549	0.974
540	0.9702
531	0.9632
522	0.8927
513	0.9638
504	0.9625
495	0.9598
486	0.9445
477	0.9393
468	0.9396
459	0.935
450	0.9332
441	0.9339
432	0.9339
