Infrared Spectrum: PYRIDINE, 2,4-DIMETHYL-
Formula: C7 H9 N
CAS: 108-47-4
State: VAPOR (0.5 MICROLITER AT 150 C)
Class: COBLENTZ
Instrument: NICOLET FTIR
Instrument parameters: Hg-Cd-Te DETECTOR - TYPE A, DEAD BELOW 680 CM^-^1, LOW S/N 710 - 680
Sampling: TRANSMISSION
Path length: 0.2 CM x 30 CM GOLD-PLATED LIGHT PIPE. HELIUM CARRIER. INTERFEROGRAMS CO-ADDED FOR FULL TRANSIT TIME.
Resolution: 4 CM^-^1
Origin: MONSANTO (JOHN J. FREEMAN)
1/CM	TRANSMITTANCE
688.455	1.001
697.691	0.98
706.928	0.982
716.164	0.96
725.4	0.978
734.636	0.98
743.873	0.943
753.109	0.94
762.345	0.941
771.581	0.977
780.818	0.974
790.054	0.9141
799.29	0.7531
808.527	0.678
817.763	0.4019
826.999	0.627
836.235	0.8269
845.472	0.955
854.708	0.968
863.944	0.962
873.18	0.94
882.417	0.961
891.653	0.962
900.889	0.886
910.126	0.804
919.362	0.794
928.598	0.9168
937.834	0.97
947.071	0.972
956.307	0.966
965.543	0.954
974.779	0.944
984.016	0.935
993.252	0.915
1002.49	0.909
1011.72	0.937
1020.96	0.952
1030.2	0.938
1039.43	0.909
1048.67	0.883
1057.91	0.9
1067.14	0.929
1076.38	0.953
1085.61	0.965
1094.85	0.974
1104.09	0.979
1113.32	0.978
1122.56	0.975
1131.8	0.978
1141.03	0.979
1150.27	0.97
1159.5	0.931
1168.74	0.927
1177.98	0.944
1187.21	0.979
1196.45	0.985
1205.69	0.984
1214.92	0.977
1224.16	0.971
1233.4	0.972
1242.63	0.971
1251.87	0.972
1261.1	0.964
1270.34	0.957
1279.58	0.935
1288.81	0.863
1298.05	0.839
1307.29	0.875
1316.52	0.963
1325.76	0.967
1334.99	0.962
1344.23	0.953
1353.47	0.94
1362.7	0.916
1371.94	0.875
1381.18	0.805
1390.41	0.717
1399.65	0.639
1408.88	0.612
1418.12	0.628
1427.36	0.656
1436.59	0.674
1445.83	0.671
1455.07	0.664
1464.3	0.627
1473.54	0.585
1482.77	0.584
1492.01	0.582
1501.25	0.612
1510.48	0.643
1519.72	0.672
1528.96	0.691
1538.19	0.701
1547.43	0.673
1556.66	0.608
1565.9	0.56
1575.14	0.54
1584.37	0.579
1593.61	0.42
1602.85	0.187
1612.08	0.181
1621.32	0.4168
1630.55	0.833
1639.79	0.9
1649.03	0.954
1658.26	0.955
1667.5	0.958
1676.74	0.948
1685.97	0.952
1695.21	0.973
1704.45	0.978
1713.68	0.984
1722.92	0.975
1732.15	0.971
1741.39	0.965
1750.63	0.965
1759.86	0.977
1769.1	0.981
1778.34	0.981
1787.57	0.991
1796.81	0.992
1806.04	0.995
1815.28	0.993
1824.52	0.99
1833.75	0.989
1842.99	0.989
1852.23	0.992
1861.46	0.992
1870.7	0.991
1879.93	0.993
1889.17	0.988
1898.41	0.971
1907.64	0.95
1916.88	0.943
1926.12	0.951
1935.35	0.977
1944.59	0.989
1953.82	0.994
1963.06	0.994
1972.3	0.995
1981.53	0.995
1990.77	0.994
2000.01	0.994
2009.24	0.995
2018.48	0.998
2027.71	0.997
2036.95	0.9999
2046.19	1
2055.42	1
2064.66	0.998
2073.9	0.997
2083.13	0.9969
2092.37	0.996
2101.6	0.996
2110.84	0.995
2120.08	0.992
2129.31	0.99
2138.55	0.989
2147.79	0.991
2157.02	0.992
2166.26	0.9929
2175.49	0.9931
2184.73	0.993
2193.97	0.994
2203.2	0.9911
2212.44	0.991
2221.68	0.99
2230.91	0.9929
2240.15	0.9949
2249.39	0.997
2258.62	0.996
2267.86	0.993
2277.09	0.9902
2286.33	0.9892
2295.57	0.9898
2304.8	0.9908
2314.04	0.9892
2323.28	0.988
2332.51	0.9864
2341.75	0.984
2350.98	0.9802
2360.22	0.9788
2369.46	0.9828
2378.69	0.985
2387.93	0.986
2397.17	0.988
2406.4	0.986
2415.64	0.9878
2424.87	0.988
2434.11	0.9855
2443.35	0.9823
2452.58	0.982
2461.82	0.9845
2471.06	0.9887
2480.29	0.991
2489.53	0.991
2498.76	0.991
2508	0.9903
2517.24	0.9907
2526.47	0.991
2535.71	0.991
2544.95	0.9917
2554.18	0.9967
2563.42	0.998
2572.65	0.998
2581.89	0.997
2591.13	0.9963
2600.36	0.996
2609.6	0.9946
2618.84	0.994
2628.07	0.992
2637.31	0.991
2646.54	0.992
2655.78	0.9936
2665.02	0.994
2674.25	0.991
2683.49	0.99
2692.73	0.9884
2701.96	0.9864
2711.2	0.9818
2720.44	0.9724
2729.67	0.9648
2738.91	0.9651
2748.14	0.9761
2757.38	0.981
2766.62	0.981
2775.85	0.981
2785.09	0.98
2794.33	0.9765
2803.56	0.9735
2812.8	0.9679
2822.03	0.9539
2831.27	0.9338
2840.51	0.9054
2849.74	0.8543
2858.98	0.788
2868.22	0.7565
2877.45	0.761
2886.69	0.7675
2895.92	0.7341
2905.16	0.6927
2914.4	0.5852
2923.63	0.4759
2932.87	0.4325
2942.11	0.4687
2951.34	0.5839
2960.58	0.6743
2969.81	0.6856
2979.05	0.6788
2988.29	0.6595
2997.52	0.604
3006.76	0.5155
3016	0.4566
3025.23	0.458
3034.47	0.5224
3043.7	0.5522
3052.94	0.5306
3062.18	0.5402
3071.41	0.6115
3080.65	0.7048
3089.89	0.7634
3099.12	0.8237
3108.36	0.8963
3117.59	0.9412
3126.83	0.964
3136.07	0.9747
3145.3	0.9823
3154.54	0.9873
3163.78	0.9893
3173.01	0.991
3182.25	0.991
3191.48	0.993
3200.72	0.991
3209.96	0.991
3219.19	0.9937
3228.43	0.994
3237.67	0.9927
3246.9	0.9933
3256.14	0.993
3265.38	0.994
3274.61	0.995
3283.85	0.9963
3293.08	0.997
3302.32	0.996
3311.56	0.997
3320.79	0.998
3330.03	0.998
3339.27	1
3348.5	1
3357.74	1
3366.97	1.001
3376.21	1
3385.45	1.001
3394.68	1.0008
3403.92	1
3413.16	1.001
3422.39	0.998
3431.63	0.9978
3440.86	0.998
3450.1	0.998
3459.34	1
3468.57	1
3477.81	1
3487.05	1
3496.28	1.0009
3505.52	1.0001
3514.75	1
3523.99	1.002
3533.23	1.003
3542.46	1.0019
3551.7	1.002
3560.94	1.001
3570.17	1.001
3579.41	1.001
3588.64	1.001
3597.88	1.001
3607.12	1.001
3616.35	1.001
3625.59	1.0001
3634.83	1.004
3644.06	0.9981
3653.3	1.0011
3662.53	1.002
3671.77	0.997
3681.01	1.001
3690.24	1.002
3699.48	1.0029
3708.72	1.002
3717.95	1.004
3727.19	0.998
3736.43	0.997
3745.66	0.998
3754.9	0.997
3764.13	0.997
3773.37	0.997
3782.61	0.998
3791.84	1
3801.08	0.9999
3810.32	1.0001
3819.55	1
3828.79	0.998
3838.02	0.9961
3847.26	0.996
3856.5	0.997
3865.73	0.997
3874.97	0.998
3884.21	0.9969
3893.44	0.998
3902.68	0.996
3911.91	0.996
3921.15	0.9961
3930.39	0.996
3939.62	0.997
3948.86	0.997
3958.1	0.9961
3967.33	0.996
