Infrared Spectrum: PYRIDINE, 2,6-DIMETHYL-
Formula: C7 H9 N
CAS: 108-48-5
State: VAPOR (0.5 MICROLITER AT 150 C)
Boiling point: 143 C
Class: COBLENTZ
Instrument: NICOLET FTIR
Instrument parameters: Hg-Cd-Te DETECTOR - TYPE A, DEAD BELOW 680 CM^-^1, LOW S/N 710 - 680
Sampling: TRANSMISSION
Path length: 0.2 CM x 30 CM GOLD-PLATED LIGHT PIPE. HELIUM CARRIER. INTERFEROGRAMS CO-ADDED FOR FULL TRANSIT TIME.
Resolution: 4 CM^-^1
Origin: MONSANTO (JOHN J. FREEMAN)
1/CM	TRANSMITTANCE
697.687	0.998
706.94	0.963
716.192	0.977
725.445	0.959
734.698	0.931
743.951	0.97
753.203	0.7653
762.456	0.5661
771.709	0.207
780.962	0.446
790.214	0.587
799.467	0.8848
808.72	0.982
817.972	0.988
827.225	0.989
836.478	0.99
845.731	0.991
854.983	0.99
864.236	0.989
873.489	0.989
882.741	0.989
891.994	0.985
901.247	0.978
910.5	0.973
919.752	0.975
929.005	0.977
938.258	0.973
947.511	0.955
956.763	0.923
966.016	0.908
975.269	0.903
984.521	0.902
993.774	0.901
1003.03	0.901
1012.28	0.912
1021.53	0.905
1030.79	0.888
1040.04	0.883
1049.29	0.886
1058.54	0.893
1067.8	0.901
1077.05	0.876
1086.3	0.834
1095.55	0.859
1104.81	0.912
1114.06	0.972
1123.31	0.981
1132.56	0.953
1141.82	0.868
1151.07	0.842
1160.32	0.894
1169.58	0.973
1178.83	0.981
1188.08	0.983
1197.33	0.976
1206.59	0.922
1215.84	0.849
1225.09	0.791
1234.34	0.774
1243.6	0.792
1252.85	0.798
1262.1	0.837
1271.36	0.84
1280.61	0.885
1289.86	0.939
1299.11	0.954
1308.37	0.947
1317.62	0.949
1326.87	0.951
1336.12	0.944
1345.38	0.929
1354.63	0.898
1363.88	0.802
1373.14	0.707
1382.39	0.699
1391.64	0.833
1400.89	0.876
1410.15	0.868
1419.4	0.839
1428.65	0.775
1437.9	0.4869
1447.16	0.303
1456.41	0.259
1465.66	0.293
1474.92	0.358
1484.17	0.5051
1493.42	0.665
1502.67	0.675
1511.93	0.659
1521.18	0.638
1530.43	0.661
1539.68	0.72
1548.94	0.745
1558.19	0.639
1567.44	0.4409
1576.7	0.212
1585.95	0.154
1595.2	0.269
1604.45	0.491
1613.71	0.816
1622.96	0.913
1632.21	0.929
1641.46	0.94
1650.72	0.94
1659.97	0.97
1669.22	0.981
1678.48	0.995
1687.73	0.993
1696.98	0.985
1706.23	0.99
1715.49	0.984
1724.74	0.996
1733.99	0.986
1743.24	0.978
1752.5	0.959
1761.75	0.959
1771	0.963
1780.26	0.984
1789.51	0.989
1798.76	0.99
1808.01	0.991
1817.27	0.993
1826.52	0.993
1835.77	0.991
1845.02	0.972
1854.28	0.96
1863.53	0.966
1872.78	0.984
1882.04	0.995
1891.29	0.992
1900.54	0.989
1909.79	0.984
1919.05	0.979
1928.3	0.973
1937.55	0.962
1946.8	0.946
1956.06	0.954
1965.31	0.963
1974.56	0.988
1983.82	0.992
1993.07	0.991
2002.32	0.992
2011.57	0.995
2020.83	0.9969
2030.08	0.997
2039.33	0.998
2048.58	0.9981
2057.84	0.998
2067.09	0.997
2076.34	0.9944
2085.6	0.992
2094.85	0.9928
2104.1	0.9968
2113.35	0.9987
2122.61	0.9983
2131.86	0.997
2141.11	0.9943
2150.36	0.9913
2159.62	0.9894
2168.87	0.9874
2178.12	0.985
2187.38	0.985
2196.63	0.9865
2205.88	0.992
2215.13	0.995
2224.39	0.998
2233.64	0.999
2242.89	0.999
2252.14	0.9976
2261.4	0.9936
2270.65	0.9883
2279.9	0.9803
2289.16	0.9727
2298.41	0.9687
2307.66	0.9693
2316.91	0.9751
2326.17	0.986
2335.42	0.993
2344.67	0.993
2353.92	0.994
2363.18	0.992
2372.43	0.9909
2381.68	0.99
2390.94	0.989
2400.19	0.9889
2409.44	0.986
2418.69	0.985
2427.95	0.984
2437.2	0.982
2446.45	0.985
2455.7	0.9869
2464.96	0.9889
2474.21	0.9891
2483.46	0.989
2492.72	0.988
2501.97	0.99
2511.22	0.9926
2520.47	0.993
2529.73	0.992
2538.98	0.9938
2548.23	0.9967
2557.48	0.996
2566.74	0.996
2575.99	0.9943
2585.24	0.994
2594.5	0.9924
2603.75	0.9874
2613	0.985
2622.25	0.9804
2631.51	0.978
2640.76	0.98
2650.01	0.9825
2659.26	0.986
2668.52	0.9895
2677.77	0.9904
2687.02	0.9924
2696.28	0.992
2705.53	0.9916
2714.78	0.9873
2724.03	0.9713
2733.29	0.9604
2742.54	0.9573
2751.79	0.9798
2761.04	0.9872
2770.3	0.987
2779.55	0.986
2788.8	0.9836
2798.05	0.98
2807.31	0.9719
2816.56	0.9618
2825.81	0.9527
2835.07	0.9327
2844.32	0.8986
2853.57	0.8581
2862.82	0.7899
2872.08	0.775
2881.33	0.7986
2890.58	0.813
2899.83	0.7971
2909.09	0.7346
2918.34	0.6262
2927.59	0.4789
2936.85	0.421
2946.1	0.4606
2955.35	0.5778
2964.6	0.6715
2973.86	0.6505
2983.11	0.6384
2992.36	0.6602
3001.61	0.6779
3010.87	0.7223
3020.12	0.6659
3029.37	0.6145
3038.63	0.6194
3047.88	0.6402
3057.13	0.5843
3066.38	0.4538
3075.64	0.4436
3084.89	0.5346
3094.14	0.7335
3103.39	0.8903
3112.65	0.9314
3121.9	0.9601
3131.15	0.9736
3140.41	0.9766
3149.66	0.9707
3158.91	0.966
3168.16	0.966
3177.42	0.9771
3186.67	0.9883
3195.92	0.994
3205.17	0.995
3214.43	0.9962
3223.68	0.998
3232.93	0.998
3242.19	0.998
3251.44	0.997
3260.69	0.9961
3269.94	0.997
3279.2	0.9981
3288.45	1
3297.7	1
3306.95	0.998
3316.21	1
3325.46	1
3334.71	1
3343.97	1
3353.22	1.0009
3362.47	1.001
3371.72	1.002
3380.98	1.001
3390.23	1.0002
3399.48	1
3408.73	1
3417.99	1
3427.24	1
3436.49	1
3445.75	1
3455	1
3464.25	1
3473.5	1
3482.76	1
3492.01	1.001
3501.26	1
3510.51	1
3519.77	1
3529.02	1
3538.27	1
3547.53	1
3556.78	1
3566.03	1
3575.28	1
3584.54	0.9987
3593.79	0.997
3603.04	0.997
3612.29	0.9976
3621.55	1
3630.8	1
3640.05	1.002
3649.31	1
3658.56	1.0022
3667.81	1
3677.06	1.0021
3686.32	1.001
3695.57	1.001
3704.82	0.9999
3714.07	0.999
3723.33	0.999
3732.58	0.997
3741.83	0.999
3751.09	0.998
3760.34	0.999
3769.59	0.998
3778.84	0.997
3788.1	0.9979
3797.35	0.999
3806.6	1.0008
3815.85	1
3825.11	1.0002
3834.36	1
3843.61	1.0008
3852.87	1
3862.12	1
3871.37	1
3880.62	0.9997
3889.88	0.999
3899.13	0.998
3908.38	0.999
3917.63	0.999
3926.89	0.998
3936.14	0.9975
3945.39	0.996
3954.65	0.9935
3963.9	0.992
3973.15	0.992
3982.4	0.994
