Infrared Spectrum: Benzene, bromo-
Formula: C6 H5 Br
CAS: 108-86-1
State: SOLUTION (2% CCl4 FOR 3800-1330, 2% CS2 FOR 1330-450 CM^-^1)
Class: COBLENTZ III
Instrument: DOW KBr FOREPRISM-GRATING
Instrument parameters: BLAZED AT 3.5, 12.0, 20.0 MICRON AND CHANGED AT 5.0, 7.5, 14.9 MICRON
Path length: 0.011 CM, 0.011 CM
Resolution: 2
Origin: DOW CHEMICAL COMPANY
1/CM	TRANSMITTANCE
449	0.8804
458	0.8944
467	0.9109
476	0.9117
485	0.9125
494	0.9123
503	0.9123
512	0.919
521	0.9232
530	0.9253
539	0.9275
548	0.9299
557	0.9321
566	0.9328
575	0.9316
584	0.9285
593	0.9269
602	0.9247
611	0.9216
620	0.9163
629	0.9066
638	0.8938
647	0.8722
656	0.8541
665	0.8555
674	0.5911
683	0.5829
692	0.8683
701	0.8972
710	0.8958
719	0.8806
728	0.8208
737	0.1284
746	0.8413
755	0.8948
764	0.8995
773	0.9066
782	0.8962
791	0.8961
800	0.9041
809	0.8977
818	0.8933
827	0.8831
836	0.8725
845	0.8303
854	0.7539
863	0.7413
872	0.7869
881	0.8208
890	0.8509
899	0.8601
908	0.8785
917	0.8795
926	0.8896
935	0.8885
944	0.8873
953	0.8866
962	0.8857
971	0.8852
980	0.8812
989	0.868
998	0.8687
1007	0.8776
1016	0.8056
1025	0.8253
1034	0.8822
1043	0.8787
1052	0.8679
1061	0.8416
1070	0.5385
1079	0.8527
1088	0.8813
1097	0.8846
1106	0.8976
1115	0.9079
1124	0.9136
1133	0.9034
1142	0.8956
1151	0.897
1160	0.8946
1169	0.8976
1178	0.8921
1187	0.8973
1196	0.8969
1205	0.8967
1214	0.8979
1223	0.8937
1232	0.8782
1241	0.8797
1250	0.8777
1259	0.8723
1268	0.8688
1277	0.8768
1286	0.8833
1295	0.8851
1304	0.8887
1313	0.8931
1322	0.8899
1331	0.8963
1340	0.9019
1349	0.9082
1358	0.9131
1367	0.9245
1376	0.9205
1385	0.9206
1394	0.9167
1403	0.9116
1412	0.9065
1421	0.9023
1430	0.9025
1439	0.8665
1448	0.6559
1457	0.889
1466	0.8568
1475	0.6935
1484	0.828
1493	0.8164
1502	0.7766
1511	0.7259
1520	0.6655
1529	0.6256
1538	0.5547
1547	0.4731
1556	0.4456
1565	0.5228
1574	0.5455
1583	0.4607
1592	0.6269
1601	0.7634
1610	0.8396
1619	0.8687
1628	0.8834
1637	0.888
1646	0.9117
1655	0.9165
1664	0.9063
1673	0.9056
1682	0.9011
1691	0.8965
1700	0.9037
1709	0.9032
1718	0.8996
1727	0.8901
1736	0.8869
1745	0.8879
1754	0.8975
1763	0.8972
1772	0.8967
1781	0.8945
1790	0.887
1799	0.8863
1808	0.8849
1817	0.8834
1826	0.8824
1835	0.8829
1844	0.8843
1853	0.8816
1862	0.8742
1871	0.8759
1880	0.8809
1889	0.88
1898	0.8894
1907	0.8905
1916	0.8899
1925	0.8884
1934	0.8856
1943	0.8772
1952	0.8827
1961	0.8854
1970	0.8866
1979	0.8863
1988	0.8838
1997	0.8891
2006	0.894
2015	0.8945
2024	0.8948
2033	0.8996
2042	0.9012
2051	0.8971
2060	0.8916
2069	0.8941
2078	0.897
2087	0.8956
2096	0.8933
2105	0.8945
2114	0.9011
2123	0.8998
2132	0.8988
2141	0.898
2150	0.8977
2159	0.8974
2168	0.8969
2177	0.8961
2186	0.8956
2195	0.8949
2204	0.8944
2213	0.8936
2222	0.8927
2231	0.8917
2240	0.8904
2249	0.8888
2258	0.8873
2267	0.8821
2276	0.876
2285	0.8714
2294	0.8695
2303	0.8691
2312	0.8708
2321	0.874
2330	0.8843
2339	0.8883
2348	0.89
2357	0.896
2366	0.8971
2375	0.8934
2384	0.8892
2393	0.8889
2402	0.889
2411	0.8901
2420	0.891
2429	0.8918
2438	0.8927
2447	0.8937
2456	0.8942
2465	0.8939
2474	0.8935
2483	0.8931
2492	0.8925
2501	0.8917
2510	0.8908
2519	0.89
2528	0.8894
2537	0.8892
2546	0.889
2555	0.8888
2564	0.8885
2573	0.8879
2582	0.8873
2591	0.8867
2600	0.8862
2609	0.8858
2618	0.8856
2627	0.8854
2636	0.8852
2645	0.885
2654	0.8848
2663	0.8846
2672	0.8845
2681	0.8843
2690	0.8842
2699	0.8841
2708	0.8839
2717	0.8838
2726	0.8838
2735	0.8838
2744	0.8838
2753	0.8837
2762	0.8837
2771	0.8837
2780	0.8836
2789	0.8835
2798	0.8833
2807	0.8826
2816	0.8821
2825	0.8815
2834	0.8809
2843	0.8781
2852	0.8768
2861	0.8816
2870	0.8812
2879	0.8804
2888	0.8801
2897	0.8791
2906	0.8768
2915	0.8714
2924	0.8753
2933	0.882
2942	0.8827
2951	0.8797
2960	0.8802
2969	0.8829
2978	0.8848
2987	0.8849
2996	0.8799
3005	0.8762
3014	0.8766
3023	0.8711
3032	0.8809
3041	0.8714
3050	0.8581
3059	0.8447
3068	0.8274
3077	0.8449
3086	0.8484
3095	0.8771
3104	0.8896
3113	0.8904
3122	0.8906
3131	0.8907
3140	0.891
3149	0.8912
3158	0.8917
3167	0.8922
3176	0.8929
3185	0.8937
3194	0.8945
3203	0.895
3212	0.8956
3221	0.895
3230	0.8932
3239	0.8906
3248	0.8914
3257	0.893
3266	0.8973
3275	0.8988
3284	0.8988
3293	0.8976
3302	0.8958
3311	0.8934
3320	0.8908
3329	0.8875
3338	0.8843
3347	0.8796
3356	0.875
3365	0.8708
3374	0.8667
3383	0.8634
3392	0.8608
3401	0.8591
3410	0.862
3419	0.8649
3428	0.8676
3437	0.8707
3446	0.8747
3455	0.8785
3464	0.8817
3473	0.8848
3482	0.887
3491	0.8886
3500	0.8896
3509	0.89
3518	0.8907
3527	0.8914
3536	0.8921
3545	0.8926
3554	0.8928
3563	0.8929
3572	0.8931
3581	0.8928
3590	0.8924
3599	0.892
3608	0.8917
3617	0.8913
3626	0.891
3635	0.8905
3644	0.8902
3653	0.8899
3662	0.8897
3671	0.8895
3680	0.8892
3689	0.8891
3698	0.8891
3707	0.889
3716	0.889
3725	0.8891
3734	0.8893
3743	0.8894
3752	0.8896
3761	0.8897
3770	0.8899
3779	0.8906
3788	0.8914
