Infrared Spectrum: PHENOL, 3-CHLORO-
Formula: C6 H5 Cl O
CAS: 108-43-0
State: SOLUTION (10% IN CCl4 FOR 3800-1333, 10% IN CS2 FOR 1333-450 CM^-^1)
Class: COBLENTZ III
Instrument: DOW KBr FOREPRISM-GRATING
Instrument parameters: BLAZED AT 3.5, 12.0, 20.0 MICRON, CHANGED AT 5.0, 7.5, 14.9 MICRON
Sampling: TRANSMISSION
Path length: 0.011, 0.011 CM
Resolution: 4
Origin: DOW CHEMICAL COMPANY
1/CM	TRANSMITTANCE
453.043	0.795
461.739	0.83
470.434	0.854
479.13	0.864
487.826	0.875
496.521	0.879
505.217	0.881
513.913	0.876
522.608	0.853
531.304	0.709
540	0.846
548.695	0.865
557.391	0.861
566.087	0.86
574.782	0.864
583.478	0.864
592.174	0.864
600.869	0.864
609.565	0.864
618.261	0.86
626.957	0.852
635.652	0.841
644.348	0.812
653.044	0.803
661.739	0.816
670.435	0.66
679.131	0.0401
687.826	0.446
696.522	0.812
705.218	0.864
713.913	0.884
722.609	0.894
731.305	0.903
740	0.896
748.696	0.86
757.392	0.742
766.087	0.062
774.783	0.043
783.479	0.708
792.174	0.884
800.87	0.911
809.566	0.91
818.261	0.91
826.957	0.872
835.653	0.706
844.348	0.383
853.044	0.378
861.74	0.2591
870.435	0.537
879.131	0.1959
887.827	0.009
896.522	0.3581
905.218	0.85
913.914	0.932
922.61	0.953
931.305	0.966
940.001	0.972
948.697	0.967
957.392	0.948
966.088	0.953
974.784	0.972
983.479	0.959
992.175	0.937
1000.87	0.6771
1009.57	0.93
1018.26	0.948
1026.96	0.97
1035.65	0.963
1044.35	0.955
1053.04	0.921
1061.74	0.7779
1070.44	0.267
1079.13	0.757
1087.83	0.286
1096.52	0.573
1105.22	0.7191
1113.91	0.888
1122.61	0.879
1131.31	0.837
1140	0.744
1148.7	0.5599
1157.39	0.2861
1166.09	0.3369
1174.78	0.08
1183.48	0.149
1192.18	0.279
1200.87	0.308
1209.57	0.325
1218.26	0.388
1226.96	0.48
1235.65	0.4739
1244.35	0.187
1253.05	0.1501
1261.74	0.4652
1270.44	0.781
1279.13	0.791
1287.83	0.5669
1296.52	0.1651
1305.22	0.499
1313.91	0.478
1322.61	0.56
1331.31	0.644
1340	0.675
1348.7	0.71
1357.39	0.776
1366.09	0.845
1374.78	0.881
1383.48	0.917
1392.18	0.909
1400.87	0.854
1409.57	0.784
1418.26	0.773
1426.96	0.71
1435.65	0.4236
1444.35	0.1511
1453.05	0.36
1461.74	0.332
1470.44	0.1999
1479.13	0.096
1487.83	0.044
1496.52	0.5503
1505.22	0.698
1513.92	0.667
1522.61	0.599
1531.31	0.4769
1540	0.423
1548.7	0.394
1557.39	0.434
1566.09	0.416
1574.79	0.2979
1583.48	0.0799
1592.18	0.014
1600.87	0.018
1609.57	0.1562
1618.26	0.6751
1626.96	0.839
1635.65	0.938
1644.35	0.974
1653.05	0.957
1661.74	0.953
1670.44	0.944
1679.13	0.929
1687.83	0.93
1696.52	0.918
1705.22	0.911
1713.92	0.918
1722.61	0.913
1731.31	0.924
1740	0.93
1748.7	0.924
1757.39	0.93
1766.09	0.941
1774.79	0.94
1783.48	0.953
1792.18	0.959
1800.87	0.957
1809.57	0.952
1818.26	0.932
1826.96	0.93
1835.66	0.922
1844.35	0.94
1853.05	0.956
1861.74	0.959
1870.44	0.963
1879.13	0.953
1887.83	0.953
1896.53	0.962
1905.22	0.948
1913.92	0.918
1922.61	0.91
1931.31	0.947
1940	0.957
1948.7	0.967
1957.39	0.968
1966.09	0.97
1974.79	0.97
1983.48	0.968
1992.18	0.968
2000.87	0.9635
2009.57	0.96
2018.26	0.962
2026.96	0.9686
2035.66	0.9654
2044.35	0.964
2053.05	0.963
2061.74	0.96
2070.44	0.9552
2079.13	0.968
2087.83	0.9674
2096.53	0.966
2105.22	0.964
2113.92	0.9594
2122.61	0.9532
2131.31	0.9412
2140	0.9392
2148.7	0.9516
2157.4	0.963
2166.09	0.9666
2174.79	0.968
2183.48	0.97
2192.18	0.974
2200.87	0.9747
2209.57	0.975
2218.27	0.974
2226.96	0.974
2235.66	0.972
2244.35	0.9679
2253.05	0.964
2261.74	0.9606
2270.44	0.9536
2279.13	0.9513
2287.83	0.947
2296.53	0.947
2305.22	0.9518
2313.92	0.9472
2322.61	0.9379
2331.31	0.9338
2340	0.9383
2348.7	0.9449
2357.4	0.9474
2366.09	0.9362
2374.79	0.9355
2383.48	0.944
2392.18	0.9466
2400.87	0.945
2409.57	0.943
2418.27	0.938
2426.96	0.9361
2435.66	0.9395
2444.35	0.943
2453.05	0.9374
2461.74	0.9331
2470.44	0.9291
2479.14	0.926
2487.83	0.9318
2496.53	0.936
2505.22	0.9489
2513.92	0.952
2522.61	0.953
2531.31	0.9529
2540.01	0.9471
2548.7	0.9399
2557.4	0.945
2566.09	0.952
2574.79	0.952
2583.48	0.952
2592.18	0.952
2600.87	0.953
2609.57	0.953
2618.27	0.953
2626.96	0.953
2635.66	0.9509
2644.35	0.9469
2653.05	0.943
2661.74	0.943
2670.44	0.944
2679.14	0.945
2687.83	0.9481
2696.53	0.9532
2705.22	0.9621
2713.92	0.9618
2722.61	0.9559
2731.31	0.955
2740.01	0.955
2748.7	0.955
2757.4	0.955
2766.09	0.952
2774.79	0.952
2783.48	0.952
2792.18	0.9522
2800.88	0.9552
2809.57	0.959
2818.27	0.9592
2826.96	0.964
2835.66	0.966
2844.35	0.9672
2853.05	0.9704
2861.75	0.9744
2870.44	0.972
2879.14	0.97
2887.83	0.968
2896.53	0.97
2905.22	0.9685
2913.92	0.967
2922.61	0.9667
2931.31	0.9637
2940.01	0.9633
2948.7	0.966
2957.4	0.966
2966.09	0.966
2974.79	0.964
2983.48	0.964
2992.18	0.9583
3000.88	0.953
3009.57	0.9396
3018.27	0.9024
3026.96	0.8697
3035.66	0.871
3044.35	0.871
3053.05	0.8559
3061.75	0.8204
3070.44	0.8154
3079.14	0.8302
3087.83	0.8614
3096.53	0.8714
3105.22	0.8988
3113.92	0.902
3122.62	0.8977
3131.31	0.8891
3140.01	0.8796
3148.7	0.8722
3157.4	0.8575
3166.09	0.8415
3174.79	0.8246
3183.49	0.81
3192.18	0.7915
3200.88	0.7755
3209.57	0.7665
3218.27	0.758
3226.96	0.7395
3235.66	0.7144
3244.36	0.6933
3253.05	0.6734
3261.75	0.653
3270.44	0.6249
3279.14	0.6019
3287.83	0.5788
3296.53	0.5607
3305.22	0.5456
3313.92	0.5242
3322.62	0.5104
3331.31	0.4972
3340.01	0.4851
3348.7	0.4768
3357.4	0.466
3366.09	0.4577
3374.79	0.454
3383.49	0.454
3392.18	0.453
3400.88	0.451
3409.57	0.451
3418.27	0.451
3426.96	0.451
3435.66	0.4537
3444.36	0.455
3453.05	0.457
3461.75	0.4604
3470.44	0.4674
3479.14	0.4762
3487.83	0.492
3496.53	0.5143
3505.23	0.5445
3513.92	0.5685
3522.62	0.5996
3531.31	0.6106
3540.01	0.6102
3548.7	0.5962
3557.4	0.567
3566.1	0.5148
3574.79	0.4615
3583.49	0.3932
3592.18	0.2675
3600.88	0.1262
3609.57	0.2064
3618.27	0.4282
3626.96	0.76
3635.66	0.9117
3644.36	0.955
3653.05	0.963
3661.75	0.9631
3670.44	0.9667
3679.14	0.978
3687.83	0.985
3696.53	0.9927
3705.23	0.9981
3713.92	0.9949
3722.62	1.001
3731.31	1.004
3740.01	1.006
3748.7	1.002
3757.4	1.002
3766.1	1.002
3774.79	1
3783.49	1
3792.18	1.002
