Infrared Spectrum: 2,4,6-TRIMETHYL PYRIDINE
Formula: C8 H11 N
CAS: 108-75-8
State: SOLUTION (10% CCl4 FOR 5000-1330, 10% CS2 FOR 1330-625 CM^-^1)
Class: COBLENTZ
Instrument: Not specified, most likely a prism, grating, or hybrid spectrometer.
Sampling: TRANSMISSION
Path length: 0.0111 CM, 0.0115 CM
Resolution: 4
Origin: DOW CHEMICAL COMPANY
MICROMETERS	TRANSMITTANCE
2.041	0.9
2.08207	0.9
2.12315	0.895
2.16422	0.895
2.2053	0.892
2.24637	0.887
2.28745	0.864
2.32852	0.861
2.3696	0.876
2.41067	0.887
2.45175	0.892
2.49282	0.885
2.5339	0.888
2.57497	0.892
2.61605	0.895
2.65712	0.902
2.6982	0.9
2.73927	0.9
2.78035	0.897
2.82142	0.899
2.8625	0.897
2.90357	0.888
2.94465	0.878
2.98572	0.876
3.02679	0.873
3.06787	0.875
3.10894	0.88
3.15002	0.878
3.19109	0.878
3.23217	0.87
3.27324	0.839
3.31432	0.682
3.35539	0.555
3.39647	0.452
3.43754	0.422
3.47862	0.523
3.51969	0.699
3.56077	0.745
3.60184	0.861
3.64292	0.878
3.68399	0.871
3.72507	0.88
3.76614	0.899
3.80722	0.902
3.84829	0.907
3.88937	0.907
3.93044	0.911
3.97152	0.907
4.01259	0.907
4.05366	0.895
4.09474	0.894
4.13581	0.888
4.17689	0.88
4.21796	0.875
4.25904	0.887
4.30011	0.897
4.34119	0.888
4.38226	0.885
4.42334	0.897
4.46441	0.9
4.50549	0.904
4.54656	0.909
4.58764	0.902
4.62871	0.907
4.66979	0.9
4.71086	0.899
4.75194	0.907
4.79301	0.914
4.83409	0.909
4.87516	0.909
4.91624	0.912
4.95731	0.909
4.99838	0.905
5.03946	0.904
5.08053	0.909
5.12161	0.899
5.16268	0.905
5.20376	0.905
5.24483	0.895
5.28591	0.897
5.32698	0.899
5.36806	0.899
5.40913	0.909
5.45021	0.905
5.49128	0.907
5.53236	0.911
5.57343	0.911
5.61451	0.917
5.65558	0.917
5.69666	0.9
5.73773	0.882
5.77881	0.888
5.81988	0.899
5.86096	0.858
5.90203	0.863
5.94311	0.887
5.98418	0.871
6.02525	0.876
6.06633	0.871
6.1074	0.844
6.14848	0.748
6.18955	0.495
6.23063	0.1
6.2717	0.188
6.31278	0.401
6.35385	0.246
6.39493	0.08
6.436	0.189
6.47708	0.283
6.51815	0.309
6.55923	0.345
6.6003	0.396
6.64138	0.435
6.68245	0.48
6.72353	0.492
6.7646	0.444
6.80568	0.326
6.84675	0.217
6.88783	0.234
6.9289	0.259
6.96997	0.283
7.01105	0.343
7.05212	0.386
7.0932	0.411
7.13427	0.41
7.17535	0.553
7.21642	0.647
7.2575	0.605
7.29857	0.48
7.33965	0.683
7.38072	0.791
7.4218	0.822
7.46287	0.832
7.50395	0.852
7.54502	0.813
7.5861	0.758
7.62717	0.815
7.66825	0.837
7.70932	0.851
7.7504	0.863
7.79147	0.868
7.83255	0.87
7.87362	0.873
7.9147	0.873
7.95577	0.871
7.99684	0.868
8.03792	0.846
8.07899	0.837
8.12007	0.841
8.16114	0.753
8.20222	0.543
8.24329	0.716
8.28437	0.858
8.32544	0.873
8.36652	0.878
8.40759	0.88
8.44867	0.885
8.48974	0.887
8.53082	0.887
8.57189	0.883
8.61297	0.871
8.65404	0.839
8.69512	0.864
8.73619	0.882
8.77727	0.883
8.81834	0.883
8.85942	0.883
8.90049	0.883
8.94156	0.883
8.98264	0.883
9.02371	0.878
9.06479	0.88
9.10586	0.88
9.14694	0.873
9.18801	0.871
9.22909	0.87
9.27016	0.866
9.31124	0.858
9.35231	0.847
9.39339	0.842
9.43446	0.827
9.47554	0.81
9.51661	0.788
9.55769	0.75
9.59876	0.673
9.63984	0.601
9.68091	0.524
9.72199	0.49
9.76306	0.531
9.80414	0.627
9.84521	0.675
9.88629	0.702
9.92736	0.726
9.96843	0.755
10.0095	0.767
10.0506	0.723
10.0917	0.685
10.1327	0.786
10.1738	0.823
10.2149	0.837
10.256	0.852
10.297	0.858
10.3381	0.866
10.3792	0.866
10.4203	0.864
10.4613	0.868
10.5024	0.87
10.5435	0.87
10.5846	0.871
10.6256	0.866
10.6667	0.852
10.7078	0.839
10.7489	0.811
10.7899	0.77
10.831	0.644
10.8721	0.57
10.9132	0.68
10.9542	0.776
10.9953	0.815
11.0364	0.829
11.0775	0.839
11.1185	0.846
11.1596	0.846
11.2007	0.837
11.2418	0.827
11.2828	0.811
11.3239	0.789
11.365	0.769
11.4061	0.752
11.4471	0.738
11.4882	0.729
11.5293	0.719
11.5704	0.709
11.6114	0.699
11.6525	0.683
11.6936	0.668
11.7347	0.654
11.7757	0.63
11.8168	0.557
11.8579	0.417
11.8989	0.189
11.94	0.075
11.9811	0.167
12.0222	0.529
12.0632	0.68
12.1043	0.752
12.1454	0.789
12.1865	0.806
12.2275	0.82
12.2686	0.829
12.3097	0.832
12.3508	0.837
12.3918	0.842
12.4329	0.844
12.474	0.846
12.5151	0.847
12.5561	0.847
12.5972	0.847
12.6383	0.847
12.6794	0.847
12.7204	0.846
12.7615	0.841
12.8026	0.842
12.8437	0.844
12.8847	0.846
12.9258	0.847
12.9669	0.847
13.008	0.846
13.049	0.846
13.0901	0.842
13.1312	0.839
13.1723	0.834
13.2133	0.829
13.2544	0.818
13.2955	0.813
13.3366	0.811
13.3776	0.81
13.4187	0.81
13.4598	0.808
13.5009	0.806
13.5419	0.801
13.583	0.796
13.6241	0.791
13.6652	0.781
13.7062	0.769
13.7473	0.747
13.7884	0.711
13.8295	0.68
13.8705	0.699
13.9116	0.728
13.9527	0.74
13.9938	0.741
14.0348	0.735
14.0759	0.729
14.117	0.724
14.1581	0.719
14.1991	0.714
14.2402	0.707
14.2813	0.7
14.3224	0.69
14.3634	0.685
14.4045	0.678
14.4456	0.671
14.4867	0.664
14.5277	0.659
14.5688	0.654
14.6099	0.646
14.651	0.639
14.692	0.629
14.7331	0.622
14.7742	0.615
14.8153	0.606
14.8563	0.596
14.8974	0.588
14.9385	0.582
14.9796	0.576
15.0206	0.564
15.0617	0.552
15.1028	0.54
15.1439	0.528
15.1849	0.517
15.226	0.509
15.2671	0.499
15.3082	0.487
15.3492	0.476
15.3903	0.471
15.4314	0.47
15.4725	0.466
15.5135	0.463
15.5546	0.459
15.5957	0.454
15.6368	0.454
15.6778	0.451
15.7189	0.449
15.76	0.451
15.8011	0.446
15.8421	0.444
15.8832	0.444
15.9243	0.444
15.9654	0.447
