Infrared Spectrum: CYCLOHEXANONE
Formula: C6 H10 O
CAS: 108-94-1
State: SOLUTION (10% IN CCl4 FOR 3800-1300, 10% IN CS2 FOR 1300-650, AND 10% CCl4 FOR 650-240 CM^-^1) VERSUS SOLVENT
Boiling point: 156 C
Class: COBLENTZ III
Instrument: PERKIN-ELMER 521 (GRATING)
Instrument parameters: GRATING CHANGES AT 2000, 630 CM^-^1
Sampling: TRANSMISSION
Path length: 0.012, 0.012, AND 0.010 CM (CsBr CELL)
Resolution: 4
Origin: DOW CORNING CORP.
1/CM	TRANSMITTANCE
237.418	0.864
247.265	0.869
257.112	0.869
266.958	0.876
276.805	0.873
286.652	0.879
296.499	0.879
306.346	0.868
316.193	0.907
326.039	0.916
335.886	0.915
345.733	0.915
355.58	0.913
365.427	0.915
375.273	0.918
385.12	0.895
394.967	0.865
404.814	0.627
414.661	0.837
424.508	0.864
434.354	0.866
444.201	0.848
454.048	0.815
463.895	0.813
473.742	0.743
483.588	0.465
493.435	0.572
503.282	0.724
513.129	0.787
522.976	0.813
532.823	0.823
542.669	0.827
552.516	0.831
562.363	0.844
572.21	0.846
582.057	0.848
591.904	0.854
601.75	0.858
611.597	0.862
621.444	0.868
631.291	0.845
641.138	0.771
650.984	0.725
660.831	0.837
670.678	0.879
680.525	0.885
690.372	0.891
700.219	0.897
710.065	0.888
719.912	0.876
729.759	0.846
739.606	0.684
749.453	0.594
759.299	0.836
769.146	0.876
778.993	0.888
788.84	0.896
798.687	0.895
808.534	0.888
818.38	0.879
828.227	0.877
838.074	0.872
847.921	0.834
857.768	0.591
867.614	0.842
877.461	0.826
887.308	0.713
897.155	0.67
907.002	0.477
916.849	0.853
926.695	0.875
936.542	0.875
946.389	0.873
956.236	0.869
966.083	0.86
975.929	0.84
985.776	0.735
995.623	0.833
1005.47	0.797
1015.32	0.622
1025.16	0.829
1035.01	0.795
1044.86	0.556
1054.7	0.728
1064.55	0.75
1074.4	0.815
1084.24	0.83
1094.09	0.79
1103.94	0.638
1113.78	0.173
1123.63	0.663
1133.48	0.806
1143.33	0.834
1153.17	0.83
1163.02	0.813
1172.87	0.743
1182.71	0.711
1192.56	0.741
1202.41	0.637
1212.25	0.255
1222.1	0.37
1231.95	0.606
1241.79	0.696
1251.64	0.716
1261.49	0.637
1271.33	0.774
1281.18	0.782
1291.03	0.764
1300.87	0.513
1310.72	0.201
1320.57	0.651
1330.42	0.543
1340.26	0.494
1350.11	0.682
1359.96	0.819
1369.8	0.83
1379.65	0.823
1389.5	0.793
1399.34	0.747
1409.19	0.633
1419.04	0.314
1428.88	0.299
1438.73	0.532
1448.58	0.102
1458.42	0.524
1468.27	0.736
1478.12	0.817
1487.96	0.827
1497.81	0.837
1507.66	0.86
1517.5	0.872
1527.35	0.877
1537.2	0.889
1547.05	0.892
1556.89	0.887
1566.74	0.87
1576.59	0.869
1586.43	0.854
1596.28	0.849
1606.13	0.845
1615.97	0.83
1625.82	0.78
1635.67	0.77
1645.51	0.779
1655.36	0.776
1665.21	0.684
1675.05	0.521
1684.9	0.545
1694.75	0.288
1704.59	0
1714.44	0
1724.29	0.016
1734.13	0.275
1743.98	0.475
1753.83	0.58
1763.68	0.595
1773.52	0.751
1783.37	0.817
1793.22	0.803
1803.06	0.729
1812.91	0.819
1822.76	0.845
1832.6	0.862
1842.45	0.877
1852.3	0.879
1862.14	0.869
1871.99	0.866
1881.84	0.879
1891.68	0.888
1901.53	0.888
1911.38	0.891
1921.22	0.891
1931.07	0.883
1940.92	0.875
1950.76	0.877
1960.61	0.879
1970.46	0.872
1980.31	0.883
1990.15	0.892
2000	0.9
2009.85	0.889
2019.69	0.895
2029.54	0.8971
2039.39	0.896
2049.23	0.8869
2059.08	0.8716
2068.93	0.8811
2078.77	0.8889
2088.62	0.8828
2098.47	0.8831
2108.31	0.8881
2118.16	0.8866
2128.01	0.88
2137.85	0.8813
2147.7	0.888
2157.55	0.881
2167.39	0.8768
2177.24	0.872
2187.09	0.881
2196.94	0.883
2206.78	0.8798
2216.63	0.879
2226.48	0.879
2236.32	0.877
2246.17	0.881
2256.02	0.883
2265.86	0.883
2275.71	0.884
2285.56	0.8818
2295.4	0.883
2305.25	0.885
2315.1	0.8823
2324.94	0.8806
2334.79	0.879
2344.64	0.8804
2354.48	0.881
2364.33	0.88
2374.18	0.8822
2384.02	0.8796
2393.87	0.88
2403.72	0.8796
2413.57	0.8741
2423.41	0.872
2433.26	0.8755
2443.11	0.8755
2452.95	0.875
2462.8	0.872
2472.65	0.8755
2482.49	0.877
2492.34	0.876
2502.19	0.875
2512.03	0.872
2521.88	0.8654
2531.73	0.865
2541.57	0.8696
2551.42	0.87
2561.27	0.8661
2571.11	0.8614
2580.96	0.8654
2590.81	0.861
2600.65	0.858
2610.5	0.8527
2620.35	0.854
2630.2	0.862
2640.04	0.85
2649.89	0.8324
2659.74	0.833
2669.58	0.7793
2679.43	0.8065
2689.28	0.8475
2699.12	0.852
2708.97	0.85
2718.82	0.853
2728.66	0.852
2738.51	0.85
2748.36	0.8482
2758.2	0.8338
2768.05	0.8233
2777.9	0.814
2787.74	0.8073
2797.59	0.774
2807.44	0.768
2817.28	0.7442
2827.13	0.6277
2836.98	0.6181
2846.83	0.4851
2856.67	0.2003
2866.52	0.0916
2876.37	0.1835
2886.21	0.338
2896.06	0.293
2905.91	0.247
2915.75	0.1887
2925.6	0.0315
2935.45	0
2945.29	0.0092
2955.14	0.0457
2964.99	0.0996
2974.83	0.2347
2984.68	0.469
2994.53	0.6587
3004.37	0.7316
3014.22	0.7787
3024.07	0.7975
3033.91	0.8177
3043.76	0.8335
3053.61	0.8383
3063.46	0.8442
3073.3	0.8529
3083.15	0.861
3093	0.8682
3102.84	0.868
3112.69	0.8648
3122.54	0.8682
3132.38	0.8712
3142.23	0.87
3152.08	0.8723
3161.92	0.875
3171.77	0.875
3181.62	0.879
3191.46	0.879
3201.31	0.88
3211.16	0.88
3221	0.88
3230.85	0.88
3240.7	0.879
3250.54	0.8794
3260.39	0.884
3270.24	0.885
3280.09	0.884
3289.93	0.885
3299.78	0.884
3309.63	0.8821
3319.47	0.879
3329.32	0.875
3339.17	0.873
3349.01	0.872
3358.86	0.871
3368.71	0.868
3378.55	0.8615
3388.4	0.8474
3398.25	0.8239
3408.09	0.7848
3417.94	0.7817
3427.79	0.8271
3437.63	0.8558
3447.48	0.8652
3457.33	0.869
3467.17	0.868
3477.02	0.866
3486.87	0.866
3496.72	0.864
3506.56	0.861
3516.41	0.86
3526.26	0.8634
3536.1	0.8657
3545.95	0.869
3555.8	0.8727
3565.64	0.879
3575.49	0.8872
3585.34	0.892
3595.18	0.8895
3605.03	0.889
3614.88	0.889
3624.72	0.8906
3634.57	0.891
3644.42	0.891
3654.26	0.891
3664.11	0.8872
3673.96	0.8793
3683.8	0.8769
3693.65	0.883
3703.5	0.892
3713.35	0.891
3723.19	0.892
3733.04	0.892
3742.89	0.892
3752.73	0.887
3762.58	0.8909
3772.43	0.891
3782.27	0.892
3792.12	0.895
