Infrared Spectrum: 4-HEPTANONE, 2,6-DIMETHYL-
Formula: C9 H18 O
CAS: 108-83-8
State: VAPOR (15 MICROLITER AT 150 C)
Boiling point: 168 C
Class: COBLENTZ
Instrument: PERKIN-ELMER 180 (GRATING)
Sampling: TRANSMISSION
Path length: 5 CM KBr CELL, CELL VOLUME: 80 CM^3
Resolution: 2-3 CM^-^1
Origin: PERKIN-ELMER CORP. (M. ZELLER)
1/CM	TRANSMITTANCE
393.271	0.49
402.43	0.508
411.589	0.563
420.748	0.626
429.907	0.679
439.066	0.729
448.225	0.773
457.384	0.803
466.542	0.84
475.701	0.866
484.86	0.883
494.019	0.892
503.178	0.879
512.337	0.883
521.496	0.882
530.655	0.886
539.814	0.895
548.973	0.917
558.132	0.921
567.291	0.925
576.45	0.924
585.609	0.922
594.768	0.92
603.927	0.915
613.085	0.913
622.244	0.901
631.403	0.901
640.562	0.908
649.721	0.903
658.88	0.905
668.039	0.864
677.198	0.899
686.357	0.907
695.516	0.92
704.675	0.928
713.834	0.93
722.993	0.93
732.152	0.928
741.311	0.928
750.469	0.926
759.628	0.922
768.787	0.912
777.946	0.912
787.105	0.911
796.264	0.913
805.423	0.907
814.582	0.905
823.741	0.909
832.9	0.912
842.059	0.913
851.218	0.92
860.377	0.922
869.536	0.922
878.695	0.92
887.854	0.912
897.012	0.907
906.171	0.911
915.33	0.901
924.489	0.878
933.648	0.862
942.807	0.86
951.966	0.866
961.125	0.891
970.284	0.901
979.443	0.911
988.602	0.916
997.761	0.912
1006.92	0.895
1016.08	0.875
1025.24	0.826
1034.4	0.716
1043.56	0.649
1052.71	0.711
1061.87	0.797
1071.03	0.83
1080.19	0.85
1089.35	0.861
1098.51	0.856
1107.67	0.845
1116.83	0.83
1125.99	0.798
1135.14	0.752
1144.3	0.688
1153.46	0.627
1162.62	0.579
1171.78	0.584
1180.94	0.669
1190.1	0.771
1199.26	0.814
1208.42	0.816
1217.58	0.793
1226.73	0.79
1235.89	0.805
1245.05	0.827
1254.21	0.843
1263.37	0.835
1272.53	0.811
1281.69	0.75
1290.85	0.681
1300.01	0.696
1309.16	0.754
1318.32	0.764
1327.48	0.73
1336.64	0.658
1345.8	0.58
1354.96	0.461
1364.12	0.396
1373.28	0.4739
1382.44	0.579
1391.59	0.647
1400.75	0.687
1409.91	0.715
1419.07	0.717
1428.23	0.738
1437.39	0.742
1446.55	0.729
1455.71	0.645
1464.87	0.598
1474.03	0.624
1483.18	0.72
1492.34	0.8071
1501.5	0.845
1510.66	0.853
1519.82	0.86
1528.98	0.867
1538.14	0.861
1547.3	0.865
1556.46	0.857
1565.61	0.87
1574.77	0.86
1583.93	0.865
1593.09	0.864
1602.25	0.857
1611.41	0.85
1620.57	0.843
1629.73	0.848
1638.89	0.843
1648.05	0.844
1657.2	0.845
1666.36	0.844
1675.52	0.827
1684.68	0.79
1693.84	0.749
1703	0.6068
1712.16	0.432
1721.32	0.239
1730.48	0.2301
1739.63	0.4059
1748.79	0.644
1757.95	0.741
1767.11	0.772
1776.27	0.793
1785.43	0.827
1794.59	0.849
1803.75	0.864
1812.91	0.877
1822.06	0.884
1831.22	0.891
1840.38	0.888
1849.54	0.891
1858.7	0.894
1867.86	0.894
1877.02	0.899
1886.18	0.896
1895.34	0.9
1904.5	0.891
1913.65	0.894
1922.81	0.895
1931.97	0.899
1941.13	0.892
1950.29	0.8999
1959.45	0.891
1968.61	0.892
1977.77	0.892
1986.93	0.888
1996.08	0.89
2005.24	0.892
2014.4	0.89
2023.56	0.8916
2032.72	0.888
2041.88	0.8912
2051.04	0.8867
2060.2	0.8856
2069.36	0.887
2078.52	0.888
2087.67	0.8844
2096.83	0.887
2105.99	0.8821
2115.15	0.8852
2124.31	0.8831
2133.47	0.888
2142.63	0.881
2151.79	0.8815
2160.95	0.8781
2170.1	0.8784
2179.26	0.881
2188.42	0.879
2197.58	0.878
2206.74	0.8805
2215.9	0.879
2225.06	0.8756
2234.22	0.878
2243.38	0.8778
2252.53	0.8758
2261.69	0.874
2270.85	0.871
2280.01	0.867
2289.17	0.861
2298.33	0.8482
2307.49	0.8333
2316.65	0.8243
2325.81	0.8224
2334.97	0.8278
2344.12	0.836
2353.28	0.8101
2362.44	0.8056
2371.6	0.8401
2380.76	0.8607
2389.92	0.865
2399.08	0.866
2408.24	0.8628
2417.4	0.8641
2426.55	0.865
2435.71	0.862
2444.87	0.8681
2454.03	0.866
2463.19	0.8656
2472.35	0.865
2481.51	0.864
2490.67	0.862
2499.83	0.861
2508.99	0.861
2518.14	0.8596
2527.3	0.858
2536.46	0.856
2545.62	0.8534
2554.78	0.853
2563.94	0.854
2573.1	0.853
2582.26	0.85
2591.42	0.849
2600.57	0.8476
2609.73	0.8441
2618.89	0.8423
2628.05	0.839
2637.21	0.84
2646.37	0.8368
2655.53	0.84
2664.69	0.839
2673.85	0.836
2683	0.8338
2692.16	0.832
2701.32	0.8304
2710.48	0.824
2719.64	0.8175
2728.8	0.8051
2737.96	0.8014
2747.12	0.8135
2756.28	0.8106
2765.44	0.8073
2774.59	0.8013
2783.75	0.8058
2792.91	0.7995
2802.07	0.7906
2811.23	0.7685
2820.39	0.761
2829.55	0.7443
2838.71	0.7244
2847.87	0.6893
2857.02	0.6387
2866.18	0.5475
2875.34	0.3394
2884.5	0.2601
2893.66	0.3038
2902.82	0.3031
2911.98	0.3
2921.14	0.291
2930.3	0.2314
2939.46	0.1889
2948.61	0.1376
2957.77	0.0655
2966.93	0.0185
2976.09	0.1182
2985.25	0.3335
2994.41	0.5409
3003.57	0.6612
3012.73	0.7172
3021.89	0.7469
3031.04	0.7634
3040.2	0.7705
3049.36	0.7777
3058.52	0.78
3067.68	0.7816
3076.84	0.783
3086	0.784
3095.16	0.784
3104.32	0.7838
3113.47	0.785
3122.63	0.784
3131.79	0.7856
3140.95	0.786
3150.11	0.781
3159.27	0.779
3168.43	0.7747
3177.59	0.7747
3186.75	0.777
3195.91	0.779
3205.06	0.783
3214.22	0.7856
3223.38	0.7905
3232.54	0.7937
3241.7	0.796
3250.86	0.7977
3260.02	0.8
3269.18	0.797
3278.34	0.7971
3287.49	0.798
3296.65	0.797
3305.81	0.7951
3314.97	0.792
3324.13	0.792
3333.29	0.793
3342.45	0.792
3351.61	0.792
3360.77	0.789
3369.93	0.788
3379.08	0.789
3388.24	0.789
3397.4	0.7877
3406.56	0.7818
3415.72	0.7785
3424.88	0.7715
3434.04	0.776
3443.2	0.7805
3452.36	0.786
3461.51	0.79
3470.67	0.7891
3479.83	0.788
3488.99	0.7898
3498.15	0.79
3507.31	0.7832
3516.47	0.7881
3525.63	0.785
3534.79	0.7885
3543.94	0.7834
3553.1	0.779
3562.26	0.7794
3571.42	0.775
3580.58	0.772
3589.74	0.771
3598.9	0.7794
3608.06	0.7755
3617.22	0.7747
3626.38	0.7713
3635.53	0.7749
3644.69	0.7726
3653.85	0.7752
3663.01	0.779
3672.17	0.767
3681.33	0.7743
3690.49	0.775
3699.65	0.775
3708.81	0.772
3717.96	0.7715
3727.12	0.762
3736.28	0.76
3745.44	0.7638
3754.6	0.761
3763.76	0.768
3772.92	0.762
3782.08	0.7664
3791.24	0.769
3800.39	0.7653
3809.55	0.7588
3818.71	0.761
3827.87	0.7624
3837.03	0.759
3846.19	0.7599
3855.35	0.7551
3864.51	0.7491
3873.67	0.756
3882.83	0.755
3891.98	0.7568
3901.14	0.7551
3910.3	0.7496
3919.46	0.756
3928.62	0.754
3937.78	0.7548
3946.94	0.755
3956.1	0.755
3965.26	0.755
3974.41	0.7518
3983.57	0.7538
3992.73	0.7506
4001.89	0.749
