Infrared Spectrum: MALEIC ANHYDRIDE
Formula: C4 H2 O3
CAS: 108-31-6
State: SOLID (PELLET)
Melting point: 53-64 C
Class: COBLENTZ
Instrument: Not specified, most likely a prism, grating, or hybrid spectrometer.
Sampling: TRANSMISSION
Resolution: 4
Origin: TENNESSEE EASTMAN COMPANY, RESEARCH LABORATORIES
MICROMETERS	TRANSMITTANCE
2.04	0.86
2.07971	0.859
2.11943	0.859
2.15914	0.86
2.19886	0.86
2.23857	0.862
2.27829	0.864
2.318	0.868
2.35771	0.87
2.39743	0.87
2.43714	0.872
2.47686	0.877
2.51657	0.88
2.55628	0.882
2.596	0.883
2.63571	0.883
2.67543	0.883
2.71514	0.875
2.75486	0.796
2.79457	0.762
2.83428	0.731
2.874	0.698
2.91371	0.676
2.95343	0.706
2.99314	0.756
3.03285	0.802
3.07257	0.822
3.11228	0.837
3.152	0.837
3.19171	0.819
3.23143	0.847
3.27114	0.88
3.31085	0.898
3.35057	0.903
3.39028	0.908
3.43	0.908
3.46971	0.915
3.50943	0.923
3.54914	0.93
3.58885	0.938
3.62857	0.94
3.66828	0.945
3.708	0.945
3.74771	0.945
3.78742	0.946
3.82714	0.945
3.86685	0.946
3.90657	0.948
3.94628	0.95
3.986	0.951
4.02571	0.951
4.06542	0.953
4.10514	0.958
4.14485	0.958
4.18457	0.96
4.22428	0.961
4.26399	0.963
4.30371	0.961
4.34342	0.961
4.38314	0.963
4.42285	0.968
4.46257	0.97
4.50228	0.97
4.54199	0.968
4.58171	0.95
4.62142	0.96
4.66114	0.956
4.70085	0.958
4.74056	0.961
4.78028	0.961
4.81999	0.963
4.85971	0.961
4.89942	0.958
4.93914	0.956
4.97885	0.956
5.01856	0.908
5.05828	0.92
5.09799	0.92
5.13771	0.882
5.17742	0.86
5.21714	0.89
5.25685	0.883
5.29656	0.814
5.33628	0.736
5.37599	0.437
5.41571	0.638
5.45542	0.665
5.49513	0.535
5.53485	0.253
5.57456	0.111
5.61428	0.043
5.65399	0.145
5.69371	0.223
5.73342	0.469
5.77313	0.64
5.81285	0.721
5.85256	0.756
5.89228	0.771
5.93199	0.822
5.9717	0.859
6.01142	0.867
6.05113	0.867
6.09085	0.842
6.13056	0.814
6.17028	0.839
6.20999	0.849
6.2497	0.857
6.28942	0.86
6.32913	0.925
6.36885	0.928
6.40856	0.935
6.44828	0.951
6.48799	0.951
6.5277	0.951
6.56742	0.951
6.60713	0.953
6.64685	0.955
6.68656	0.958
6.72627	0.958
6.76599	0.95
6.8057	0.95
6.84542	0.948
6.88513	0.953
6.92485	0.963
6.96456	0.963
7.00427	0.963
7.04399	0.96
7.0837	0.941
7.12342	0.912
7.16313	0.923
7.20284	0.95
7.24256	0.96
7.28227	0.958
7.32199	0.961
7.3617	0.961
7.40142	0.96
7.44113	0.961
7.48084	0.961
7.52056	0.953
7.56027	0.951
7.59999	0.927
7.6397	0.827
7.67942	0.754
7.71913	0.577
7.75884	0.389
7.79856	0.708
7.83827	0.719
7.87799	0.485
7.9177	0.728
7.95741	0.779
7.99713	0.626
8.03684	0.298
8.07656	0.469
8.11627	0.721
8.15599	0.812
8.1957	0.855
8.23541	0.867
8.27513	0.878
8.31484	0.878
8.35456	0.878
8.39427	0.875
8.43398	0.878
8.4737	0.878
8.51341	0.88
8.55313	0.88
8.59284	0.882
8.63256	0.887
8.67227	0.888
8.71198	0.893
8.7517	0.895
8.79141	0.895
8.83113	0.895
8.87084	0.888
8.91056	0.864
8.95027	0.85
8.98998	0.849
9.0297	0.85
9.06941	0.86
9.10913	0.868
9.14884	0.87
9.18855	0.87
9.22827	0.849
9.26798	0.794
9.3077	0.62
9.34741	0.419
9.38713	0.245
9.42684	0.235
9.46655	0.615
9.50627	0.767
9.54598	0.834
9.5857	0.85
9.62541	0.862
9.66512	0.865
9.70484	0.868
9.74455	0.877
9.78427	0.882
9.82398	0.885
9.8637	0.887
9.90341	0.888
9.94312	0.893
9.98284	0.892
10.0226	0.895
10.0623	0.898
10.102	0.898
10.1417	0.9
10.1814	0.9
10.2211	0.9
10.2608	0.9
10.3006	0.9
10.3403	0.898
10.38	0.895
10.4197	0.852
10.4594	0.864
10.4991	0.875
10.5388	0.877
10.5786	0.877
10.6183	0.88
10.658	0.88
10.6977	0.878
10.7374	0.878
10.7771	0.867
10.8168	0.844
10.8566	0.817
10.8963	0.742
10.936	0.628
10.9757	0.562
11.0154	0.515
11.0551	0.369
11.0948	0.235
11.1345	0.179
11.1743	0.19
11.214	0.315
11.2537	0.479
11.2934	0.588
11.3331	0.688
11.3728	0.739
11.4125	0.728
11.4523	0.588
11.492	0.718
11.5317	0.786
11.5714	0.807
11.6111	0.812
11.6508	0.809
11.6905	0.757
11.7303	0.601
11.77	0.32
11.8097	0.257
11.8494	0.187
11.8891	0.127
11.9288	0.197
11.9685	0.341
12.0083	0.485
12.048	0.592
12.0877	0.666
12.1274	0.719
12.1671	0.769
12.2068	0.809
12.2465	0.83
12.2863	0.847
12.326	0.862
12.3657	0.872
12.4054	0.882
12.4451	0.893
12.4848	0.898
12.5245	0.9
12.5643	0.903
12.604	0.907
12.6437	0.912
12.6834	0.912
12.7231	0.912
12.7628	0.918
12.8025	0.923
12.8423	0.927
12.882	0.928
12.9217	0.93
12.9614	0.93
13.0011	0.93
13.0408	0.932
13.0805	0.935
13.1203	0.941
13.16	0.941
13.1997	0.941
13.2394	0.943
13.2791	0.945
13.3188	0.946
13.3585	0.95
13.3983	0.95
13.438	0.951
13.4777	0.953
13.5174	0.956
13.5571	0.955
13.5968	0.955
13.6365	0.955
13.6763	0.956
13.716	0.958
13.7557	0.958
13.7954	0.958
13.8351	0.958
13.8748	0.96
13.9145	0.961
13.9543	0.961
13.994	0.961
14.0337	0.96
14.0734	0.943
14.1131	0.905
14.1528	0.852
14.1925	0.769
14.2323	0.62
14.272	0.449
14.3117	0.336
14.3514	0.29
14.3911	0.301
14.4308	0.426
14.4705	0.56
14.5103	0.673
14.55	0.756
14.5897	0.81
14.6294	0.849
14.6691	0.864
14.7088	0.882
14.7485	0.895
14.7883	0.912
14.828	0.928
14.8677	0.95
14.9074	0.96
14.9471	0.958
14.9868	0.956
15.0265	0.95
15.0663	0.951
15.106	0.96
15.1457	0.96
15.1854	0.96
15.2251	0.958
15.2648	0.953
15.3045	0.95
15.3443	0.94
15.384	0.93
15.4237	0.917
15.4634	0.898
15.5031	0.885
15.5428	0.872
15.5825	0.85
15.6223	0.835
15.662	0.824
15.7017	0.822
15.7414	0.812
15.7811	0.809
15.8208	0.807
15.8605	0.8
15.9003	0.787
15.94	0.774
15.9797	0.771
