Infrared Spectrum: CYCLOHEXANOL
Formula: C6 H12 O
CAS: 108-93-0
State: SOLUTION (5% IN CCl4 FOR 3800-1300, 5% IN CS2 FOR 1300-650, AND 5% IN CCl4 FOR 650-250 CM^-^1) VERSUS SOLVENT
Class: COBLENTZ III
Instrument: PERKIN-ELMER 521 (GRATING)
Instrument parameters: FILTERS AT 3150, 2500, 2000, 1150, 700, 410; GRATING CHANGES AT 2000, 630 CM^-^1
Sampling: TRANSMISSION
Path length: 0.010, 0.010, AND 0.020 CM (CsBr CELL)
Resolution: 4
Origin: DOW CORNING CORP.
1/CM	TRANSMITTANCE
240.643	0.648
249.639	0.653
258.635	0.656
267.631	0.661
276.627	0.664
285.623	0.67
294.619	0.696
303.615	0.717
312.611	0.731
321.607	0.73
330.603	0.707
339.599	0.634
348.595	0.661
357.591	0.709
366.587	0.73
375.583	0.735
384.579	0.731
393.575	0.731
402.571	0.698
411.567	0.727
420.563	0.756
429.559	0.743
438.555	0.725
447.551	0.701
456.547	0.696
465.543	0.69
474.539	0.626
483.535	0.643
492.531	0.683
501.527	0.69
510.524	0.691
519.52	0.69
528.516	0.683
537.512	0.675
546.508	0.648
555.504	0.495
564.5	0.646
573.496	0.656
582.492	0.662
591.488	0.669
600.484	0.677
609.48	0.685
618.476	0.698
627.472	0.711
636.468	0.723
645.464	0.736
654.46	0.749
663.456	0.764
672.452	0.776
681.448	0.789
690.444	0.799
699.44	0.805
708.436	0.813
717.432	0.82
726.428	0.828
735.424	0.833
744.42	0.837
753.416	0.841
762.412	0.841
771.408	0.836
780.404	0.783
789.4	0.813
798.396	0.85
807.392	0.853
816.388	0.85
825.384	0.825
834.38	0.802
843.376	0.808
852.372	0.831
861.368	0.833
870.364	0.817
879.36	0.7301
888.356	0.654
897.352	0.834
906.348	0.853
915.344	0.845
924.34	0.828
933.336	0.823
942.332	0.786
951.328	0.63
960.324	0.365
969.32	0.332
978.316	0.794
987.312	0.823
996.308	0.808
1005.3	0.776
1014.3	0.661
1023.3	0.5417
1032.29	0.651
1041.29	0.526
1050.28	0.3899
1059.28	0.1781
1068.28	0.213
1077.27	0.4751
1086.27	0.686
1095.26	0.781
1104.26	0.765
1113.26	0.739
1122.25	0.699
1131.25	0.669
1140.24	0.736
1149.24	0.772
1158.24	0.752
1167.23	0.751
1176.23	0.799
1185.22	0.799
1194.22	0.786
1203.22	0.768
1212.21	0.728
1221.21	0.669
1230.2	0.661
1239.2	0.685
1248.2	0.626
1257.19	0.645
1266.19	0.683
1275.18	0.672
1284.18	0.651
1293.18	0.672
1302.17	0.699
1311.17	0.715
1320.17	0.722
1329.16	0.728
1338.16	0.722
1347.15	0.69
1356.15	0.634
1365.15	0.605
1374.14	0.731
1383.14	0.746
1392.13	0.749
1401.13	0.751
1410.13	0.751
1419.12	0.751
1428.12	0.727
1437.11	0.685
1446.11	0.38
1455.11	0.5841
1464.1	0.6701
1473.1	0.821
1482.09	0.852
1491.09	0.865
1500.09	0.878
1509.08	0.882
1518.08	0.886
1527.07	0.892
1536.07	0.898
1545.07	0.903
1554.06	0.902
1563.06	0.897
1572.05	0.892
1581.05	0.895
1590.05	0.892
1599.04	0.894
1608.04	0.89
1617.03	0.882
1626.03	0.882
1635.03	0.884
1644.02	0.886
1653.02	0.886
1662.01	0.886
1671.01	0.887
1680.01	0.889
1689	0.889
1698	0.889
1706.99	0.881
1715.99	0.876
1724.99	0.887
1733.98	0.892
1742.98	0.89
1751.97	0.892
1760.97	0.895
1769.97	0.892
1778.96	0.89
1787.96	0.892
1796.95	0.894
1805.95	0.895
1814.95	0.892
1823.94	0.894
1832.94	0.894
1841.93	0.895
1850.93	0.894
1859.93	0.892
1868.92	0.895
1877.92	0.894
1886.91	0.89
1895.91	0.894
1904.91	0.892
1913.9	0.894
1922.9	0.892
1931.89	0.89
1940.89	0.889
1949.89	0.894
1958.88	0.894
1967.88	0.894
1976.87	0.897
1985.87	0.895
1994.87	0.898
2003.86	0.896
2012.86	0.895
2021.85	0.894
2030.85	0.894
2039.85	0.8945
2048.84	0.897
2057.84	0.898
2066.83	0.894
2075.83	0.894
2084.83	0.892
2093.82	0.892
2102.82	0.892
2111.81	0.8908
2120.81	0.887
2129.81	0.887
2138.8	0.886
2147.8	0.886
2156.79	0.886
2165.79	0.886
2174.79	0.886
2183.78	0.886
2192.78	0.886
2201.77	0.886
2210.77	0.8836
2219.77	0.8813
2228.76	0.8812
2237.76	0.8854
2246.75	0.886
2255.75	0.886
2264.75	0.886
2273.74	0.886
2282.74	0.884
2291.73	0.884
2300.73	0.886
2309.73	0.886
2318.72	0.8854
2327.72	0.884
2336.71	0.881
2345.71	0.881
2354.71	0.879
2363.7	0.879
2372.7	0.878
2381.7	0.8782
2390.69	0.876
2399.69	0.876
2408.68	0.876
2417.68	0.876
2426.68	0.876
2435.67	0.876
2444.67	0.876
2453.66	0.876
2462.66	0.8686
2471.66	0.866
2480.65	0.8669
2489.65	0.868
2498.64	0.866
2507.64	0.866
2516.64	0.861
2525.63	0.863
2534.63	0.8605
2543.62	0.855
2552.62	0.855
2561.62	0.85
2570.61	0.844
2579.61	0.842
2588.6	0.842
2597.6	0.839
2606.6	0.839
2615.59	0.8358
2624.59	0.833
2633.58	0.8278
2642.58	0.81
2651.58	0.7938
2660.57	0.7941
2669.57	0.8087
2678.56	0.818
2687.56	0.8264
2696.56	0.829
2705.55	0.8332
2714.55	0.834
2723.54	0.8344
2732.54	0.8346
2741.54	0.8274
2750.53	0.8173
2759.53	0.812
2768.52	0.8014
2777.52	0.7869
2786.52	0.7707
2795.51	0.76
2804.51	0.7545
2813.5	0.7272
2822.5	0.6926
2831.5	0.629
2840.49	0.483
2849.49	0.2379
2858.48	0.1415
2867.48	0.3029
2876.48	0.4518
2885.47	0.4341
2894.47	0.3692
2903.46	0.2326
2912.46	0.1616
2921.46	0.0702
2930.45	0.0143
2939.45	0.0213
2948.44	0.1677
2957.44	0.4307
2966.44	0.642
2975.43	0.7178
2984.43	0.7784
2993.42	0.8041
3002.42	0.8255
3011.42	0.8349
3020.41	0.8389
3029.41	0.8459
3038.4	0.85
3047.4	0.852
3056.4	0.849
3065.39	0.846
3074.39	0.845
3083.38	0.843
3092.38	0.841
3101.38	0.8399
3110.37	0.8357
3119.37	0.8194
3128.36	0.8169
3137.36	0.8102
3146.36	0.8019
3155.35	0.7928
3164.35	0.7809
3173.34	0.7732
3182.34	0.7617
3191.34	0.7522
3200.33	0.7345
3209.33	0.7212
3218.32	0.7016
3227.32	0.6774
3236.32	0.6618
3245.31	0.6407
3254.31	0.6203
3263.3	0.6026
3272.3	0.5747
3281.3	0.556
3290.29	0.5357
3299.29	0.5161
3308.28	0.4986
3317.28	0.4853
3326.28	0.4758
3335.27	0.4715
3344.27	0.471
3353.26	0.4725
3362.26	0.4753
3371.26	0.4806
3380.25	0.4882
3389.25	0.4986
3398.24	0.5059
3407.24	0.5174
3416.24	0.529
3425.23	0.5437
3434.23	0.5553
3443.23	0.5684
3452.22	0.5831
3461.22	0.5964
3470.21	0.6073
3479.21	0.6205
3488.21	0.639
3497.2	0.6603
3506.2	0.6863
3515.19	0.7063
3524.19	0.7407
3533.19	0.7665
3542.18	0.7929
3551.18	0.8118
3560.17	0.8283
3569.17	0.8419
3578.17	0.847
3587.16	0.845
3596.16	0.825
3605.15	0.7669
3614.15	0.6717
3623.15	0.6257
3632.14	0.7704
3641.14	0.8425
3650.13	0.8751
3659.13	0.879
3668.13	0.881
3677.12	0.8811
3686.12	0.8852
3695.11	0.889
3704.11	0.892
3713.11	0.894
3722.1	0.8959
3731.1	0.898
3740.09	0.8993
3749.09	0.9014
3758.09	0.8944
3767.08	0.8972
3776.08	0.8957
3785.07	0.892
3794.07	0.895
