Infrared Spectrum: m-TOLUENETHIOL
Formula: C7 H8 S
CAS: 108-40-7
State: LIQUID (NEAT)
Boiling point: 68.5-70 C
Class: COBLENTZ III
Instrument: BAIRD (GRATING)
Instrument parameters: NaCl PRISM
Sampling: TRANSMISSION
Path length: 0.005 CM
Resolution: 2
Origin: WYANDOTTE CHEMICALS CORP.
1/CM	TRANSMITTANCE
4000	0.9748
3991	0.9778
3982	0.9808
3973	0.9838
3964	0.9868
3955	0.9895
3946	0.9907
3937	0.9921
3928	0.9925
3919	0.9928
3910	0.993
3901	0.9927
3892	0.9917
3883	0.9908
3874	0.9898
3865	0.9889
3856	0.9881
3847	0.9875
3838	0.9874
3829	0.9885
3820	0.9896
3811	0.9907
3802	0.9918
3793	0.9928
3784	0.9932
3775	0.9935
3766	0.9938
3757	0.9942
3748	0.9945
3739	0.9946
3730	0.9948
3721	0.9949
3712	0.9951
3703	0.9953
3694	0.9954
3685	0.9955
3676	0.9957
3667	0.9958
3658	0.9956
3649	0.9951
3640	0.9947
3631	0.9936
3622	0.9925
3613	0.9907
3604	0.9866
3595	0.9806
3586	0.9721
3577	0.9643
3568	0.9575
3559	0.9532
3550	0.9501
3541	0.9491
3532	0.9487
3523	0.9492
3514	0.95
3505	0.953
3496	0.9568
3487	0.9613
3478	0.9662
3469	0.9703
3460	0.9731
3451	0.9743
3442	0.9752
3433	0.9749
3424	0.974
3415	0.9728
3406	0.9728
3397	0.9746
3388	0.9787
3379	0.9814
3370	0.9841
3361	0.986
3352	0.9873
3343	0.9882
3334	0.9891
3325	0.9899
3316	0.9903
3307	0.9904
3298	0.9903
3289	0.9897
3280	0.989
3271	0.9883
3262	0.987
3253	0.9857
3244	0.9842
3235	0.9821
3226	0.98
3217	0.977
3208	0.9736
3199	0.9686
3190	0.9618
3181	0.9473
3172	0.9324
3163	0.9209
3154	0.9087
3145	0.8844
3136	0.799
3127	0.7531
3118	0.6836
3109	0.5946
3100	0.5049
3091	0.4148
3082	0.3449
3073	0.3272
3064	0.3198
3055	0.3178
3046	0.3214
3037	0.3373
3028	0.3536
3019	0.3688
3010	0.37
3001	0.3626
2992	0.3464
2983	0.3308
2974	0.3218
2965	0.2879
2956	0.2582
2947	0.2569
2938	0.3051
2929	0.3782
2920	0.4394
2911	0.4658
2902	0.4823
2893	0.4926
2884	0.518
2875	0.5979
2866	0.6795
2857	0.7611
2848	0.8024
2839	0.8293
2830	0.86
2821	0.8842
2812	0.9009
2803	0.9139
2794	0.9209
2785	0.9242
2776	0.9249
2767	0.9215
2758	0.9104
2749	0.9043
2740	0.9075
2731	0.9189
2722	0.932
2713	0.9427
2704	0.9474
2695	0.9493
2686	0.9503
2677	0.9507
2668	0.9505
2659	0.9482
2650	0.9433
2641	0.9344
2632	0.9201
2623	0.8963
2614	0.8593
2605	0.7754
2596	0.6488
2587	0.5212
2578	0.3927
2569	0.3682
2560	0.4207
2551	0.4986
2542	0.577
2533	0.6561
2524	0.724
2515	0.7888
2506	0.8491
2497	0.8841
2488	0.9078
2479	0.9216
2470	0.9344
2461	0.9451
2452	0.9538
2443	0.9606
2434	0.9645
2425	0.9633
2416	0.959
2407	0.9541
2398	0.95
2389	0.9509
2380	0.9543
2371	0.9591
2362	0.9637
2353	0.9683
2344	0.9737
2335	0.9804
2326	0.9888
2317	0.9997
2308	1.0105
2299	1.011
2290	1.0105
2281	1.0099
2272	1.0093
2263	1.0087
2254	1.008
2245	1.0075
2236	1.0078
2227	1.0082
2218	1.0086
2209	1.009
2200	1.0095
2191	1.0102
2182	1.0108
2173	1.0115
2164	1.012
2155	1.0121
2146	1.0121
2137	1.0123
2128	1.0124
2119	1.0125
2110	1.0128
2101	1.0134
2092	1.014
2083	1.0145
2074	1.0151
2065	1.0155
2056	1.0155
2047	1.0156
2038	1.0156
2029	1.0152
2020	1.0141
2011	1.0131
2002	1.0128
1993	1.0125
1984	1.0124
1975	1.0123
1966	1.0113
1957	1.0098
1948	1.0031
1939	0.9458
1930	0.9191
1921	0.9105
1912	0.9343
1903	0.9878
1894	1.003
1885	1.0073
1876	1.0045
1867	0.992
1858	0.9216
1849	0.8794
1840	0.8816
1831	0.9107
1822	0.9415
1813	0.9725
1804	0.9821
1795	0.979
1786	0.9412
1777	0.9218
1768	0.8998
1759	0.8901
1750	0.8896
1741	0.8939
1732	0.9245
1723	0.9538
1714	0.9816
1705	0.9916
1696	0.992
1687	0.9848
1678	0.9296
1669	0.9064
1660	0.9145
1651	0.9244
1642	0.8852
1633	0.8316
1624	0.5074
1615	0.1779
1606	0.0662
1597	0.1399
1588	0.1248
1579	0.3456
1570	0.514
1561	0.5656
1552	0.5816
1543	0.5827
1534	0.5774
1525	0.5542
1516	0.5385
1507	0.2909
1498	0.1625
1489	0.0726
1480	0.0745
1471	0.1284
1462	0.1365
1453	0.1553
1444	0.2176
1435	0.2777
1426	0.3122
1417	0.4027
1408	0.4656
1399	0.5242
1390	0.5612
1381	0.5677
1372	0.663
1363	0.8041
1354	0.9025
1345	0.9118
1336	0.9201
1327	0.932
1318	0.9435
1309	0.903
1300	0.8684
1291	0.9237
1282	0.9485
1273	0.8891
1264	0.9228
1255	0.9337
1246	0.9508
1237	0.9425
1228	0.7145
1219	0.435
1210	0.7941
1201	0.8621
1192	0.8965
1183	0.8953
1174	0.5454
1165	0.5142
1156	0.8375
1147	0.9251
1138	0.9515
1129	0.9448
1120	0.8527
1111	0.3134
1102	0.622
1093	0.6335
1084	0.2239
1075	0.6571
1066	0.7862
1057	0.7851
1048	0.6144
1039	0.4759
1030	0.6269
1021	0.7506
1012	0.7978
1003	0.7439
994	0.5806
985	0.7495
976	0.8231
967	0.8238
958	0.8605
949	0.8721
940	0.8535
931	0.73
922	0.5255
913	0.3798
904	0.5116
895	0.6181
886	0.5595
877	0.5653
868	0.2828
859	0.2999
850	0.1318
841	0.5594
832	0.8172
823	0.8493
814	0.848
805	0.822
796	0.7155
787	0.4408
778	0.1002
769	0.0668
760	0.1219
751	0.4327
742	0.7032
733	0.8381
724	0.9061
715	0.9227
706	0.912
697	0.8566
688	0.4287
679	0.2098
670	0.6604
661	0.8659
652	0.9218
643	0.9208
634	0.9368
625	0.9236
