Infrared Spectrum: BENZENE, 1,3,5-TRIMETHYL-
Formula: C9 H12
CAS: 108-67-8
State: VAPOR (25 MICROLITER AT 150 C)
Boiling point: 165 C
Class: COBLENTZ
Instrument: PERKIN-ELMER 180
Sampling: TRANSMISSION
Path length: 5 CM KBr CELL, CELL VOLUME: 80 CM^3
Resolution: 2-3 CM^-^1
Origin: PERKIN-ELMER CORP. (M. ZELLER)
1/CM	TRANSMITTANCE
400	0.51
409.524	0.5759
419.048	0.635
428.572	0.686
438.095	0.732
447.619	0.775
457.143	0.802
466.667	0.83
476.191	0.849
485.715	0.856
495.239	0.833
504.762	0.838
514.286	0.851
523.81	0.874
533.334	0.878
542.858	0.887
552.382	0.891
561.906	0.893
571.429	0.894
580.953	0.895
590.477	0.895
600.001	0.897
609.525	0.898
619.049	0.898
628.573	0.898
638.096	0.895
647.62	0.894
657.144	0.8661
666.668	0.7591
676.192	0.6101
685.716	0.729
695.24	0.7899
704.764	0.863
714.287	0.872
723.811	0.863
733.335	0.856
742.859	0.864
752.383	0.868
761.907	0.868
771.431	0.866
780.954	0.859
790.478	0.859
800.002	0.852
809.526	0.798
819.05	0.6171
828.574	0.3923
838.098	0.603
847.621	0.7587
857.145	0.857
866.669	0.871
876.193	0.87
885.717	0.861
895.241	0.855
904.765	0.852
914.288	0.841
923.812	0.841
933.336	0.852
942.86	0.871
952.384	0.87
961.908	0.861
971.432	0.851
980.955	0.838
990.479	0.82
1000	0.81
1009.53	0.81
1019.05	0.809
1028.57	0.79
1038.1	0.775
1047.62	0.784
1057.15	0.799
1066.67	0.815
1076.19	0.824
1085.72	0.825
1095.24	0.828
1104.77	0.828
1114.29	0.822
1123.81	0.818
1133.34	0.818
1142.86	0.817
1152.38	0.817
1161.91	0.818
1171.43	0.815
1180.96	0.813
1190.48	0.806
1200	0.801
1209.53	0.805
1219.05	0.807
1228.58	0.809
1238.1	0.814
1247.62	0.814
1257.15	0.813
1266.67	0.813
1276.2	0.813
1285.72	0.81
1295.24	0.807
1304.77	0.806
1314.29	0.803
1323.81	0.801
1333.34	0.787
1342.86	0.76
1352.39	0.741
1361.91	0.719
1371.43	0.672
1380.96	0.635
1390.48	0.679
1400.01	0.718
1409.53	0.742
1419.05	0.748
1428.58	0.721
1438.1	0.656
1447.62	0.581
1457.15	0.561
1466.67	0.584
1476.2	0.589
1485.72	0.584
1495.24	0.594
1504.77	0.596
1514.29	0.61
1523.82	0.622
1533.34	0.634
1542.86	0.648
1552.39	0.656
1561.91	0.663
1571.43	0.664
1580.96	0.635
1590.48	0.499
1600.01	0.265
1609.53	0.2959
1619.05	0.595
1628.58	0.738
1638.1	0.797
1647.63	0.805
1657.15	0.809
1666.67	0.806
1676.2	0.797
1685.72	0.787
1695.24	0.749
1704.77	0.725
1714.29	0.732
1723.82	0.752
1733.34	0.742
1742.86	0.73
1752.39	0.746
1761.91	0.807
1771.44	0.836
1780.96	0.849
1790.48	0.856
1800.01	0.86
1809.53	0.863
1819.06	0.864
1828.58	0.864
1838.1	0.864
1847.63	0.863
1857.15	0.86
1866.67	0.856
1876.2	0.857
1885.72	0.853
1895.25	0.856
1904.77	0.853
1914.29	0.851
1923.82	0.852
1933.34	0.855
1942.87	0.856
1952.39	0.86
1961.91	0.863
1971.44	0.864
1980.96	0.863
1990.48	0.863
2000.01	0.857
2009.53	0.852
2019.06	0.852
2028.58	0.852
2038.1	0.856
2047.63	0.857
2057.15	0.8549
2066.68	0.8525
2076.2	0.851
2085.72	0.851
2095.25	0.855
2104.77	0.853
2114.29	0.851
2123.82	0.849
2133.34	0.852
2142.87	0.851
2152.39	0.8449
2161.91	0.843
2171.44	0.8452
2180.96	0.8476
2190.49	0.848
2200.01	0.8474
2209.53	0.847
2219.06	0.845
2228.58	0.8449
2238.1	0.845
2247.63	0.844
2257.15	0.843
2266.68	0.8427
2276.2	0.8387
2285.72	0.8329
2295.25	0.829
2304.77	0.833
2314.3	0.834
2323.82	0.837
2333.34	0.836
2342.87	0.833
2352.39	0.83
2361.92	0.8298
2371.44	0.829
2380.96	0.829
2390.49	0.8283
2400.01	0.826
2409.53	0.8243
2419.06	0.822
2428.58	0.822
2438.11	0.824
2447.63	0.8257
2457.15	0.8292
2466.68	0.829
2476.2	0.8275
2485.73	0.8287
2495.25	0.8292
2504.77	0.829
2514.3	0.828
2523.82	0.826
2533.34	0.825
2542.87	0.824
2552.39	0.822
2561.92	0.822
2571.44	0.822
2580.96	0.821
2590.49	0.82
2600.01	0.82
2609.54	0.82
2619.06	0.82
2628.58	0.818
2638.11	0.8172
2647.63	0.8147
2657.15	0.813
2666.68	0.811
2676.2	0.81
2685.73	0.8067
2695.25	0.8012
2704.77	0.7773
2714.3	0.7579
2723.82	0.7439
2733.35	0.7602
2742.87	0.7875
2752.39	0.792
2761.92	0.7906
2771.44	0.7843
2780.96	0.7698
2790.49	0.7632
2800.01	0.749
2809.54	0.7217
2819.06	0.6595
2828.58	0.5737
2838.11	0.4568
2847.63	0.3327
2857.16	0.2894
2866.68	0.3258
2876.2	0.3506
2885.73	0.2813
2895.25	0.2065
2904.78	0.0858
2914.3	0.079
2923.82	0.1432
2933.35	0.235
2942.87	0.3154
2952.39	0.3678
2961.92	0.4195
2971.44	0.4206
2980.97	0.3841
2990.49	0.2982
3000.01	0.2191
3009.54	0.1546
3019.06	0.3113
3028.59	0.4452
3038.11	0.5484
3047.63	0.6117
3057.16	0.6442
3066.68	0.6702
3076.2	0.6952
3085.73	0.7203
3095.25	0.7415
3104.78	0.7626
3114.3	0.7691
3123.82	0.7746
3133.35	0.778
3142.87	0.779
3152.4	0.778
3161.92	0.7796
3171.44	0.78
3180.97	0.7794
3190.49	0.7791
3200.01	0.779
3209.54	0.779
3219.06	0.779
3228.59	0.78
3238.11	0.778
3247.63	0.778
3257.16	0.779
3266.68	0.782
3276.21	0.783
3285.73	0.783
3295.25	0.783
3304.78	0.783
3314.3	0.783
3323.82	0.782
3333.35	0.78
3342.87	0.78
3352.4	0.78
3361.92	0.7798
3371.44	0.7797
3380.97	0.7804
3390.49	0.779
3400.02	0.779
3409.54	0.779
3419.06	0.7788
3428.59	0.776
3438.11	0.776
3447.64	0.776
3457.16	0.779
3466.68	0.779
3476.21	0.779
3485.73	0.7783
3495.25	0.778
3504.78	0.7782
3514.3	0.7757
3523.83	0.775
3533.35	0.775
3542.87	0.7775
3552.4	0.778
3561.92	0.778
3571.45	0.778
3580.97	0.7782
3590.49	0.776
3600.02	0.775
3609.54	0.775
3619.06	0.7758
3628.59	0.775
3638.11	0.7742
3647.64	0.775
3657.16	0.776
3666.68	0.775
3676.21	0.7742
3685.73	0.772
3695.26	0.772
3704.78	0.772
3714.3	0.771
3723.83	0.768
3733.35	0.768
3742.87	0.768
3752.4	0.7706
3761.92	0.769
3771.45	0.7681
3780.97	0.767
3790.49	0.765
3800.02	0.764
3809.54	0.764
3819.07	0.763
3828.59	0.761
3838.11	0.7606
3847.64	0.76
3857.16	0.759
3866.68	0.757
3876.21	0.756
3885.73	0.7551
3895.26	0.752
3904.78	0.752
3914.3	0.751
3923.83	0.751
3933.35	0.7501
3942.88	0.749
3952.4	0.751
3961.92	0.752
3971.45	0.7515
3980.97	0.751
3990.5	0.7485
4000.02	0.746
