Infrared Spectrum: Acetic anhydride
Formula: C4 H6 O3
CAS: 108-24-7
State: LIQUID (NEAT)
Class: COBLENTZ III
Instrument: BAIRD (GRATING)
Instrument parameters: NaCl PRISM
Path length: 0.0015 CM
Resolution: 2
Origin: WYANDOTTE CHEMICALS CORP.
1/CM	TRANSMITTANCE
626	0.7095
635	0.7347
644	0.7272
653	0.7521
662	0.7759
671	0.8104
680	0.8327
689	0.8449
698	0.8551
707	0.8579
716	0.8603
725	0.8661
734	0.864
743	0.8561
752	0.8415
761	0.8085
770	0.7225
779	0.5531
788	0.4753
797	0.5303
806	0.4905
815	0.6139
824	0.7604
833	0.7994
842	0.7948
851	0.7775
860	0.7453
869	0.6671
878	0.4854
887	0.1951
896	0.0337
905	0.0844
914	0.1714
923	0.1973
932	0.3023
941	0.5385
950	0.627
959	0.6204
968	0.5502
977	0.3679
986	0.0795
995	0.0216
1004	0.0189
1013	0.0207
1022	0.0977
1031	0.2231
1040	0.2681
1049	0.1923
1058	0.2291
1067	0.3029
1076	0.3173
1085	0.2818
1094	0.2184
1103	0.1368
1112	0.0456
1121	0.02
1130	0.0176
1139	0.0207
1148	0.0203
1157	0.023
1166	0.0331
1175	0.1021
1184	0.2305
1193	0.3211
1202	0.3184
1211	0.2573
1220	0.161
1229	0.0884
1238	0.0906
1247	0.2098
1256	0.3355
1265	0.4994
1274	0.6385
1283	0.7163
1292	0.7315
1301	0.7569
1310	0.7689
1319	0.77
1328	0.7629
1337	0.7344
1346	0.6825
1355	0.6091
1364	0.3322
1373	0.0524
1382	0.0254
1391	0.2204
1400	0.4803
1409	0.5162
1418	0.4868
1427	0.3666
1436	0.2485
1445	0.233
1454	0.3493
1463	0.4731
1472	0.6186
1481	0.6919
1490	0.7344
1499	0.7605
1508	0.7772
1517	0.789
1526	0.7976
1535	0.8046
1544	0.802
1553	0.7942
1562	0.7951
1571	0.8
1580	0.8095
1589	0.8177
1598	0.8242
1607	0.8256
1616	0.8172
1625	0.8024
1634	0.7946
1643	0.7894
1652	0.772
1661	0.7258
1670	0.696
1679	0.7092
1688	0.704
1697	0.6712
1706	0.6397
1715	0.6071
1724	0.5625
1733	0.4326
1742	0.2436
1751	0.0259
1760	0.02
1769	0.0299
1778	0.0318
1787	0.0294
1796	0.0248
1805	0.02
1814	0.0185
1823	0.0196
1832	0.027
1841	0.167
1850	0.3254
1859	0.4822
1868	0.6356
1877	0.737
1886	0.7793
1895	0.8139
1904	0.8328
1913	0.8338
1922	0.8386
1931	0.8583
1940	0.8948
1949	0.9064
1958	0.9121
1967	0.9168
1976	0.9175
1985	0.915
1994	0.9117
2003	0.9108
2012	0.9127
2021	0.9205
2030	0.9286
2039	0.9372
2048	0.9434
2057	0.9405
2066	0.9365
2075	0.9303
2084	0.9211
2093	0.9102
2102	0.9038
2111	0.9047
2120	0.9098
2129	0.9239
2138	0.9369
2147	0.9428
2156	0.9381
2165	0.9353
2174	0.9345
2183	0.9326
2192	0.9303
2201	0.9276
2210	0.9245
2219	0.9307
2228	0.9321
2237	0.9274
2246	0.9301
2255	0.9322
2264	0.9353
2273	0.9398
2282	0.9513
2291	0.9609
2300	0.9636
2309	0.9605
2318	0.9555
2327	0.947
2336	0.9398
2345	0.9318
2354	0.9229
2363	0.9156
2372	0.9097
2381	0.9035
2390	0.8959
2399	0.8926
2408	0.8972
2417	0.902
2426	0.9042
2435	0.905
2444	0.9052
2453	0.9054
2462	0.9061
2471	0.9078
2480	0.9118
2489	0.9167
2498	0.921
2507	0.9246
2516	0.9254
2525	0.9251
2534	0.9243
2543	0.9222
2552	0.9199
2561	0.9182
2570	0.9206
2579	0.9259
2588	0.9289
2597	0.9285
2606	0.927
2615	0.9247
2624	0.9215
2633	0.9182
2642	0.9151
2651	0.9131
2660	0.914
2669	0.9148
2678	0.9155
2687	0.9153
2696	0.9118
2705	0.9072
2714	0.9026
2723	0.8976
2732	0.8922
2741	0.8877
2750	0.8836
2759	0.8801
2768	0.8797
2777	0.8804
2786	0.8811
2795	0.8807
2804	0.8798
2813	0.8775
2822	0.874
2831	0.8701
2840	0.8652
2849	0.8597
2858	0.8542
2867	0.8493
2876	0.8471
2885	0.8461
2894	0.8457
2903	0.8454
2912	0.8412
2921	0.8332
2930	0.8235
2939	0.811
2948	0.7926
2957	0.762
2966	0.7314
2975	0.7158
2984	0.7288
2993	0.7633
3002	0.7789
3011	0.7688
3020	0.7602
3029	0.7503
3038	0.7413
3047	0.7375
3056	0.7373
3065	0.7429
3074	0.7944
3083	0.8256
3092	0.8399
3101	0.8504
3110	0.8568
3119	0.8604
3128	0.864
3137	0.8676
3146	0.8713
3155	0.8728
3164	0.8756
3173	0.8791
3182	0.8861
3191	0.8903
3200	0.8929
3209	0.895
3218	0.8965
3227	0.8974
3236	0.8984
3245	0.8994
3254	0.9
3263	0.9006
3272	0.9011
3281	0.9017
3290	0.9021
3299	0.9025
3308	0.9032
3317	0.9048
3326	0.9072
3335	0.9092
3344	0.9101
3353	0.9098
3362	0.9089
3371	0.908
3380	0.9082
3389	0.911
3398	0.9152
3407	0.9192
3416	0.9213
3425	0.9214
3434	0.9214
3443	0.921
3452	0.9206
3461	0.92
3470	0.9188
3479	0.9178
3488	0.9158
3497	0.9124
3506	0.9082
3515	0.9043
3524	0.9033
3533	0.9036
3542	0.9048
3551	0.9067
3560	0.9079
3569	0.9088
3578	0.909
3587	0.909
3596	0.9087
3605	0.9082
3614	0.9078
3623	0.9088
3632	0.913
3641	0.9167
3650	0.9201
3659	0.9253
3668	0.9305
3677	0.9348
3686	0.9373
3695	0.9383
3704	0.939
3713	0.9433
3722	0.9498
3731	0.9549
3740	0.9571
3749	0.9582
3758	0.9588
3767	0.9593
3776	0.9608
3785	0.9646
3794	0.9691
3803	0.9728
3812	0.9733
3821	0.9728
3830	0.9722
3839	0.9707
3848	0.9696
3857	0.9686
3866	0.9679
3875	0.9676
3884	0.9675
3893	0.9675
3902	0.9676
3911	0.9676
3920	0.9676
3929	0.9676
3938	0.9676
3947	0.9676
3956	0.9675
3965	0.9674
3974	0.9672
3983	0.9669
3992	0.9665
