Infrared Spectrum: ANILINE, 3-CHLORO-
Formula: C6 H6 Cl N
CAS: 108-42-9
State: SOLUTION (10% CCl4 FOR 3800-1800, 10% CS2 FOR 1800-450 CM^-^1)
Class: COBLENTZ III
Instrument: DOW KBr FOREPRISM-GRATING
Instrument parameters: BLAZED AT 3.5, 12.0, 20.0 MICRON AND CHANGED AT 5.0, 7.5, 14.9 MICRON
Sampling: TRANSMISSION
Path length: 0.012 CM, 0.012 CM
Resolution: 2
Origin: DOW CHEMICAL COMPANY
1/CM	TRANSMITTANCE
3804	0.8871
3795	0.887
3786	0.8868
3777	0.8868
3768	0.8871
3759	0.8875
3750	0.8883
3741	0.8891
3732	0.8899
3723	0.8906
3714	0.8914
3705	0.8921
3696	0.8928
3687	0.8934
3678	0.894
3669	0.8945
3660	0.8943
3651	0.8939
3642	0.8936
3633	0.8928
3624	0.8918
3615	0.8912
3606	0.8906
3597	0.8897
3588	0.8674
3579	0.8795
3570	0.8808
3561	0.8758
3552	0.8703
3543	0.8631
3534	0.8523
3525	0.8325
3516	0.7815
3507	0.5991
3498	0.4326
3489	0.4446
3480	0.5109
3471	0.5772
3462	0.6435
3453	0.7098
3444	0.7628
3435	0.7718
3426	0.7597
3417	0.4745
3408	0.2828
3399	0.3695
3390	0.4717
3381	0.5738
3372	0.6628
3363	0.7271
3354	0.7788
3345	0.814
3336	0.842
3327	0.8642
3318	0.8787
3309	0.8868
3300	0.8907
3291	0.8921
3282	0.892
3273	0.8915
3264	0.8903
3255	0.886
3246	0.8747
3237	0.86
3228	0.8434
3219	0.824
3210	0.7971
3201	0.814
3192	0.8551
3183	0.8698
3174	0.8713
3165	0.8732
3156	0.8755
3147	0.8783
3138	0.8812
3129	0.8797
3120	0.8781
3111	0.8747
3102	0.8614
3093	0.8101
3084	0.8057
3075	0.756
3066	0.7256
3057	0.7142
3048	0.7422
3039	0.7755
3030	0.7311
3021	0.7508
3012	0.7935
3003	0.8306
2994	0.861
2985	0.8762
2976	0.8821
2967	0.8835
2958	0.8774
2949	0.8775
2940	0.8805
2931	0.8731
2922	0.8624
2913	0.8612
2904	0.8671
2895	0.8653
2886	0.8611
2877	0.8614
2868	0.8668
2859	0.8684
2850	0.8697
2841	0.8761
2832	0.8824
2823	0.8867
2814	0.8888
2805	0.89
2796	0.8903
2787	0.8894
2778	0.8859
2769	0.8823
2760	0.884
2751	0.8675
2742	0.8601
2733	0.8649
2724	0.8739
2715	0.8814
2706	0.886
2697	0.8857
2688	0.8827
2679	0.8786
2670	0.8741
2661	0.8714
2652	0.8746
2643	0.8778
2634	0.8806
2625	0.88
2616	0.8701
2607	0.8678
2598	0.8689
2589	0.8709
2580	0.8773
2571	0.8763
2562	0.8745
2553	0.8837
2544	0.89
2535	0.8902
2526	0.8887
2517	0.8877
2508	0.8871
2499	0.8875
2490	0.8878
2481	0.8886
2472	0.8895
2463	0.8905
2454	0.8918
2445	0.8928
2436	0.8938
2427	0.8945
2418	0.8947
2409	0.8937
2400	0.89
2391	0.8818
2382	0.8816
2373	0.873
2364	0.8754
2355	0.8778
2346	0.8794
2337	0.8783
2328	0.8732
2319	0.8783
2310	0.8789
2301	0.8781
2292	0.8768
2283	0.8765
2274	0.8818
2265	0.8866
2256	0.889
2247	0.8913
2238	0.8934
2229	0.8953
2220	0.8958
2211	0.8948
2202	0.8925
2193	0.8903
2184	0.8878
2175	0.8857
2166	0.8836
2157	0.8813
2148	0.8794
2139	0.8847
2130	0.8899
2121	0.8943
2112	0.8967
2103	0.8899
2094	0.8828
2085	0.8897
2076	0.8914
2067	0.8748
2058	0.8514
2049	0.869
2040	0.8798
2031	0.8818
2022	0.8795
2013	0.878
2004	0.8827
1995	0.8917
1986	0.8785
1977	0.881
1968	0.8796
1959	0.8891
1950	0.8698
1941	0.8714
1932	0.8695
1923	0.8308
1914	0.8007
1905	0.8463
1896	0.8668
1887	0.8539
1878	0.8596
1869	0.8615
1860	0.8625
1851	0.8645
1842	0.866
1833	0.8553
1824	0.8378
1815	0.8481
1806	0.8612
1797	0.8638
1788	0.866
1779	0.8689
1770	0.8661
1761	0.8639
1752	0.8612
1743	0.8459
1734	0.8208
1725	0.8084
1716	0.8155
1707	0.8051
1698	0.7937
1689	0.7975
1680	0.8037
1671	0.8025
1662	0.7857
1653	0.7396
1644	0.591
1635	0.2583
1626	0.0122
1617	0.0125
1608	0.0575
1599	0.0045
1590	0.0471
1581	0.1864
1572	0.2184
1563	0.3105
1554	0.3612
1545	0.3498
1536	0.4037
1527	0.4068
1518	0.5601
1509	0.6042
1500	0.5673
1491	0.0259
1482	0.0367
1473	0.3403
1464	0.6708
1455	0.5247
1446	0.4491
1437	0.6751
1428	0.7092
1419	0.6801
1410	0.7446
1401	0.7987
1392	0.8294
1383	0.855
1374	0.851
1365	0.8528
1356	0.8388
1347	0.8293
1338	0.7911
1329	0.7633
1320	0.3414
1311	0.6461
1302	0.3001
1293	0.5058
1284	0.7664
1275	0.4812
1266	0.0862
1257	0.5693
1248	0.7815
1239	0.8592
1230	0.8828
1221	0.8867
1212	0.8843
1203	0.8693
1194	0.8788
1185	0.8848
1176	0.865
1167	0.8075
1158	0.621
1149	0.8241
1140	0.8602
1131	0.8766
1122	0.8721
1113	0.7491
1104	0.7617
1095	0.7087
1086	0.5702
1077	0.1085
1068	0.5979
1059	0.7719
1050	0.8259
1041	0.8713
1032	0.8802
1023	0.8785
1014	0.8775
1005	0.8628
996	0.3726
987	0.7268
978	0.8373
969	0.8595
960	0.8487
951	0.841
942	0.8601
933	0.8621
924	0.8495
915	0.8343
906	0.7865
897	0.3876
888	0.0588
879	0.275
870	0.4264
861	0.4025
852	0.1258
843	0.1364
834	0.5652
825	0.6821
816	0.6978
807	0.6945
798	0.6811
789	0.6308
780	0.5383
771	0.1291
762	0.0302
753	0.5654
744	0.6092
735	0.6318
726	0.6323
717	0.6256
708	0.6062
699	0.5608
690	0.143
681	0.0938
672	0.384
663	0.4762
654	0.4709
645	0.4725
636	0.4907
627	0.5068
618	0.5167
609	0.5253
600	0.5378
591	0.553
582	0.5773
573	0.6221
564	0.56
555	0.5262
546	0.5252
537	0.5417
