Infrared Spectrum: PYRIDINE, 4-METHYL-
Formula: C6 H7 N
CAS: 108-89-4
State: VAPOR (0.5 MICROLITER AT 150 C)
Boiling point: 145 C
Class: COBLENTZ
Instrument: NICOLET FTIR
Instrument parameters: Hg-Cd-Te DETECTOR - TYPE A, DEAD BELOW 680 CM^-^1, LOW S/N 710 - 680
Sampling: TRANSMISSION
Path length: 0.2 CM x 30 CM GOLD-PLATED LIGHT PIPE. HELIUM CARRIER. INTERFEROGRAMS CO-ADDED FOR FULL TRANSIT TIME.
Resolution: 4 CM^-^1
Origin: MONSANTO (JOHN J. FREEMAN)
1/CM	TRANSMITTANCE
698.837	0.985
708.139	0.952
717.442	0.9549
726.744	0.892
736.047	0.944
745.349	0.954
754.651	0.981
763.954	0.937
773.256	0.7851
782.559	0.659
791.861	0.334
801.163	0.5038
810.466	0.521
819.768	0.7779
829.071	0.976
838.373	1
847.675	1
856.978	1
866.28	1
875.583	1
884.885	1
894.187	1
903.49	0.999
912.792	0.993
922.095	0.985
931.397	0.984
940.699	0.987
950.002	0.982
959.304	0.97
968.607	0.964
977.909	0.945
987.211	0.891
996.514	0.883
1005.82	0.898
1015.12	0.975
1024.42	0.984
1033.72	0.969
1043.03	0.945
1052.33	0.942
1061.63	0.945
1070.93	0.955
1080.24	0.969
1089.54	0.984
1098.84	0.986
1108.14	0.992
1117.44	0.99
1126.75	0.997
1136.05	1
1145.35	0.998
1154.65	0.996
1163.96	0.998
1173.26	1
1182.56	1.001
1191.86	0.993
1201.17	0.965
1210.47	0.9069
1219.77	0.871
1229.07	0.897
1238.38	0.938
1247.68	1
1256.98	1
1266.28	0.996
1275.59	0.996
1284.89	0.995
1294.19	1
1303.49	1
1312.8	0.994
1322.1	0.99
1331.4	0.982
1340.7	0.967
1350	0.966
1359.31	0.958
1368.61	0.96
1377.91	0.937
1387.21	0.908
1396.52	0.854
1405.82	0.771
1415.12	0.719
1424.42	0.69
1433.73	0.7151
1443.03	0.816
1452.33	0.846
1461.63	0.867
1470.94	0.846
1480.24	0.877
1489.54	0.848
1498.84	0.813
1508.15	0.813
1517.45	0.846
1526.75	0.87
1536.05	0.88
1545.36	0.868
1554.66	0.832
1563.96	0.785
1573.26	0.747
1582.56	0.712
1591.87	0.5171
1601.17	0.31
1610.47	0.337
1619.77	0.4763
1629.08	0.9082
1638.38	0.96
1647.68	0.947
1656.98	0.956
1666.29	0.968
1675.59	0.996
1684.89	1.01
1694.19	1.015
1703.5	1.008
1712.8	1.007
1722.1	0.998
1731.4	0.997
1740.71	0.993
1750.01	0.997
1759.31	1.003
1768.61	1.008
1777.92	1.007
1787.22	1.009
1796.52	1.01
1805.82	1.011
1815.12	1.01
1824.43	1.001
1833.73	0.991
1843.03	0.993
1852.33	0.998
1861.64	1.014
1870.94	1.014
1880.24	1.011
1889.54	1.008
1898.85	0.998
1908.15	0.978
1917.45	0.951
1926.75	0.957
1936.06	0.953
1945.36	0.985
1954.66	1.003
1963.96	1.008
1973.27	1.015
1982.57	1.016
1991.87	1.016
2001.17	1.011
2010.48	1.008
2019.78	1.0095
2029.08	1.013
2038.38	1.0155
2047.68	1.017
2056.99	1.018
2066.29	1.018
2075.59	1.016
2084.89	1.018
2094.2	1.018
2103.5	1.0205
2112.8	1.022
2122.1	1.0216
2131.41	1.019
2140.71	1.017
2150.01	1.016
2159.31	1.0166
2168.62	1.0136
2177.92	1.0102
2187.22	1.007
2196.52	1.008
2205.83	1.0108
2215.13	1.014
2224.43	1.0188
2233.73	1.0224
2243.03	1.023
2252.34	1.023
2261.64	1.023
2270.94	1.0196
2280.24	1.015
2289.55	1.015
2298.85	1.014
2308.15	1.0164
2317.45	1.0217
2326.76	1.029
2336.06	1.03
2345.36	1.0277
2354.66	1.0347
2363.97	1.0317
2373.27	1.025
2382.57	1.0187
2391.87	1.0147
2401.18	1.011
2410.48	1.01
2419.78	1.008
2429.08	1.0067
2438.39	1
2447.69	0.9993
2456.99	1.0075
2466.29	1.0153
2475.59	1.0203
2484.9	1.0208
2494.2	1.022
2503.5	1.023
2512.8	1.024
2522.11	1.024
2531.41	1.023
2540.71	1.022
2550.01	1.0222
2559.32	1.023
2568.62	1.0228
2577.92	1.0218
2587.22	1.017
2596.53	1.014
2605.83	1.016
2615.13	1.018
2624.43	1.017
2633.74	1.0182
2643.04	1.0222
2652.34	1.0218
2661.64	1.021
2670.95	1.021
2680.25	1.022
2689.55	1.022
2698.85	1.0218
2708.15	1.0189
2717.46	1.0139
2726.76	1.0089
2736.06	1.006
2745.36	1.007
2754.67	1.017
2763.97	1.021
2773.27	1.021
2782.57	1.0199
2791.88	1.0149
2801.18	1.0079
2810.48	1.0049
2819.78	1
2829.09	0.999
2838.39	0.9906
2847.69	0.9711
2856.99	0.9293
2866.3	0.8895
2875.6	0.8619
2884.9	0.8633
2894.2	0.8741
2903.51	0.8699
2912.81	0.8313
2922.11	0.7365
2931.41	0.7029
2940.71	0.7203
2950.02	0.7753
2959.32	0.8119
2968.62	0.8008
2977.92	0.7425
2987.23	0.6861
2996.53	0.688
3005.83	0.651
3015.13	0.623
3024.44	0.5601
3033.74	0.568
3043.04	0.5636
3052.34	0.5573
3061.65	0.503
3070.95	0.5358
3080.25	0.577
3089.55	0.7075
3098.86	0.8881
3108.16	0.9465
3117.46	0.9746
3126.76	1.0069
3136.07	1.0168
3145.37	1.02
3154.67	1.021
3163.97	1.022
3173.27	1.023
3182.58	1.0249
3191.88	1.025
3201.18	1.025
3210.48	1.025
3219.79	1.0259
3229.09	1.0261
3238.39	1.026
3247.69	1.027
3257	1.028
3266.3	1.0289
3275.6	1.03
3284.9	1.0301
3294.21	1.0328
3303.51	1.0338
3312.81	1.034
3322.11	1.036
3331.42	1.035
3340.72	1.035
3350.02	1.036
3359.32	1.037
3368.62	1.037
3377.93	1.038
3387.23	1.038
3396.53	1.038
3405.83	1.038
3415.14	1.0386
3424.44	1.041
3433.74	1.042
3443.04	1.044
3452.35	1.044
3461.65	1.044
3470.95	1.047
3480.25	1.047
3489.56	1.047
3498.86	1.048
3508.16	1.0478
3517.46	1.048
3526.77	1.0488
3536.07	1.048
3545.37	1.0493
3554.67	1.0507
3563.98	1.052
3573.28	1.051
3582.58	1.0543
3591.88	1.0527
3601.18	1.0523
3610.49	1.054
3619.79	1.0557
3629.09	1.052
3638.39	1.0544
3647.7	1.0547
3657	1.051
3666.3	1.0587
3675.6	1.051
3684.91	1.051
3694.21	1.0487
3703.51	1.0509
3712.81	1.051
3722.12	1.054
3731.42	1.0586
3740.72	1.06
3750.02	1.0567
3759.33	1.0557
3768.63	1.0564
3777.93	1.0574
3787.23	1.0576
3796.54	1.061
3805.84	1.0574
3815.14	1.0636
3824.44	1.056
3833.74	1.0616
3843.05	1.0585
3852.35	1.0584
3861.65	1.0626
3870.95	1.0594
3880.26	1.059
3889.56	1.06
3898.86	1.0605
3908.16	1.058
3917.47	1.059
3926.77	1.0585
3936.07	1.059
3945.37	1.061
3954.68	1.059
3963.98	1.059
3973.28	1.059
3982.58	1.059
