Infrared Spectrum: 2-PENTANONE, 4-METHYL-
Formula: C6 H12 O
CAS: 108-10-1
State: GAS (7 mmHg, N2 ADDED, TOTAL PRESSURE 600 mmHg)
Class: COBLENTZ
Instrument: PERKIN-ELMER 180
Sampling: TRANSMISSION
Path length: 18 CM
Resolution: 2
Origin: DOW CHEMICAL COMPANY
1/CM	TRANSMITTANCE
250.566	0.561
261.132	0.001
271.698	0.001
282.264	0
292.83	0
303.397	0
313.963	0.001
324.529	0.01
335.095	0.049
345.661	0.1
356.227	0.177
366.793	0.2529
377.359	0.334
387.926	0.417
398.492	0.4709
409.058	0.524
419.624	0.615
430.19	0.68
440.756	0.7309
451.322	0.777
461.888	0.807
472.454	0.828
483.021	0.846
493.587	0.85
504.153	0.832
514.719	0.715
525.285	0.692
535.851	0.8069
546.417	0.884
556.983	0.875
567.549	0.822
578.116	0.5012
588.682	0.436
599.248	0.679
609.814	0.912
620.38	0.899
630.946	0.908
641.512	0.933
652.078	0.935
662.645	0.942
673.211	0.942
683.777	0.948
694.343	0.945
704.909	0.939
715.475	0.929
726.041	0.921
736.607	0.923
747.173	0.917
757.74	0.917
768.306	0.903
778.872	0.887
789.438	0.882
800.004	0.891
810.57	0.879
821.136	0.859
831.702	0.822
842.269	0.813
852.835	0.855
863.401	0.875
873.967	0.871
884.533	0.882
895.099	0.884
905.665	0.871
916.231	0.825
926.797	0.742
937.364	0.597
947.93	0.462
958.496	0.5389
969.062	0.641
979.628	0.667
990.194	0.742
1000.76	0.78
1011.33	0.832
1021.89	0.85
1032.46	0.865
1043.02	0.885
1053.59	0.882
1064.16	0.882
1074.72	0.862
1085.29	0.829
1095.86	0.7399
1106.42	0.584
1116.99	0.423
1127.55	0.4021
1138.12	0.481
1148.69	0.364
1159.25	0.055
1169.82	0.019
1180.38	0.102
1190.95	0.2861
1201.52	0.4541
1212.08	0.623
1222.65	0.611
1233.21	0.456
1243.78	0.5399
1254.35	0.733
1264.91	0.6139
1275.48	0.406
1286.05	0.313
1296.61	0.3931
1307.18	0.6111
1317.74	0.611
1328.31	0.4769
1338.88	0.2708
1349.44	0.061
1360.01	0
1370.57	0.001
1381.14	0.1279
1391.71	0.32
1402.27	0.359
1412.84	0.305
1423.4	0.28
1433.97	0.304
1444.54	0.344
1455.1	0.269
1465.67	0.206
1476.24	0.2311
1486.8	0.4718
1497.37	0.713
1507.93	0.775
1518.5	0.786
1529.07	0.795
1539.63	0.777
1550.2	0.81
1560.76	0.799
1571.33	0.835
1581.9	0.859
1592.46	0.864
1603.03	0.87
1613.59	0.862
1624.16	0.861
1634.73	0.843
1645.29	0.837
1655.86	0.832
1666.43	0.807
1676.99	0.734
1687.56	0.6209
1698.12	0.492
1708.69	0.212
1719.26	0.003
1729.82	0.001
1740.39	0.001
1750.95	0.0432
1761.52	0.4122
1772.09	0.561
1782.65	0.65
1793.22	0.7221
1803.79	0.786
1814.35	0.849
1824.92	0.875
1835.48	0.89
1846.05	0.893
1856.62	0.903
1867.18	0.903
1877.75	0.905
1888.31	0.897
1898.88	0.9
1909.45	0.9
1920.01	0.902
1930.58	0.906
1941.14	0.902
1951.71	0.903
1962.28	0.911
1972.84	0.908
1983.41	0.915
1993.98	0.914
2004.54	0.915
2015.11	0.921
2025.67	0.9235
2036.24	0.924
2046.81	0.9219
2057.37	0.9179
2067.94	0.9131
2078.5	0.915
2089.07	0.914
2099.64	0.9119
2110.2	0.909
2120.77	0.906
2131.33	0.905
2141.9	0.9029
2152.47	0.9012
2163.03	0.901
2173.6	0.893
2184.17	0.8931
2194.73	0.8953
2205.3	0.899
2215.86	0.8997
2226.43	0.909
2237	0.915
2247.56	0.9112
2258.13	0.914
2268.69	0.9088
2279.26	0.9023
2289.83	0.8968
2300.39	0.888
2310.96	0.8945
2321.52	0.9
2332.09	0.8932
2342.66	0.9005
2353.22	0.909
2363.79	0.902
2374.36	0.902
2384.92	0.9051
2395.49	0.906
2406.05	0.8992
2416.62	0.9036
2427.19	0.905
2437.75	0.9036
2448.32	0.906
2458.88	0.905
2469.45	0.905
2480.02	0.903
2490.58	0.8991
2501.15	0.8923
2511.71	0.8853
2522.28	0.89
2532.85	0.893
2543.41	0.8936
2553.98	0.8901
2564.55	0.888
2575.11	0.885
2585.68	0.8841
2596.24	0.8823
2606.81	0.881
2617.38	0.8791
2627.94	0.8716
2638.51	0.862
2649.07	0.8599
2659.64	0.867
2670.21	0.869
2680.77	0.87
2691.34	0.863
2701.9	0.8589
2712.47	0.8504
2723.04	0.8283
2733.6	0.793
2744.17	0.7835
2754.74	0.8213
2765.3	0.8258
2775.87	0.8178
2786.43	0.8044
2797	0.7615
2807.57	0.7288
2818.13	0.6914
2828.7	0.6578
2839.26	0.6148
2849.83	0.5399
2860.4	0.4539
2870.96	0.1552
2881.53	0.0277
2892.1	0.0145
2902.66	0.0371
2913.23	0.052
2923.79	0.0425
2934.36	0.0163
2944.93	0
2955.49	0
2966.06	0
2976.62	0.0002
2987.19	0.0737
2997.76	0.3029
3008.32	0.4015
3018.89	0.4673
3029.45	0.6666
3040.02	0.7198
3050.59	0.7331
3061.15	0.7486
3071.72	0.7678
3082.29	0.7808
3092.85	0.8135
3103.42	0.833
3113.98	0.845
3124.55	0.8437
3135.12	0.838
3145.68	0.843
3156.25	0.8413
3166.81	0.8333
3177.38	0.8263
3187.95	0.8238
3198.51	0.8319
3209.08	0.8482
3219.64	0.8615
3230.21	0.8814
3240.78	0.8879
3251.34	0.8949
3261.91	0.8912
3272.48	0.8861
3283.04	0.8821
3293.61	0.8859
3304.17	0.887
3314.74	0.8875
3325.31	0.885
3335.87	0.883
3346.44	0.882
3357	0.877
3367.57	0.871
3378.14	0.871
3388.7	0.87
3399.27	0.871
3409.83	0.8667
3420.4	0.8423
3430.97	0.7973
3441.53	0.753
3452.1	0.7784
3462.67	0.8417
3473.23	0.8766
3483.8	0.8862
3494.36	0.89
3504.93	0.8923
3515.5	0.9
3526.06	0.8977
3536.63	0.8932
3547.19	0.896
3557.76	0.89
3568.33	0.887
3578.89	0.885
3589.46	0.885
3600.02	0.8902
3610.59	0.8924
3621.16	0.89
3631.72	0.8968
3642.29	0.8998
3652.86	0.8933
3663.42	0.8915
3673.99	0.896
3684.55	0.8975
3695.12	0.9015
3705.69	0.8973
3716.25	0.9057
3726.82	0.909
3737.38	0.9036
3747.95	0.897
3758.52	0.9025
3769.08	0.908
3779.65	0.9065
3790.21	0.9057
3800.78	0.9
3811.35	0.8983
3821.91	0.897
3832.48	0.899
3843.05	0.888
3853.61	0.8855
3864.18	0.8963
3874.74	0.89
3885.31	0.8928
3895.88	0.897
3906.44	0.8969
3917.01	0.8957
3927.57	0.894
3938.14	0.902
3948.71	0.903
3959.27	0.905
