Infrared Spectrum: RESORCINOL DIACETATE
Formula: C10 H10 O4
CAS: 108-58-7
State: SOLUTION (10% IN CCl4 FOR 4000-1330 CM^-^1, 10% IN CS2 FOR 1330-600 CM^-^1)
Class: COBLENTZ III
Instrument: BECKMAN IR-7 (GRATING)
Instrument parameters: GRATING CHANGES AT 3000, 2200, 1150 CM^-^1
Sampling: TRANSMISSION
Path length: 0.011 CM, 0.011 CM
Resolution: 4
Origin: WESTERN REGIONAL RES. USDA
1/CM	TRANSMITTANCE
600.655	0.754
609.168	0.82
617.68	0.855
626.193	0.854
634.706	0.843
643.218	0.803
651.731	0.713
660.244	0.613
668.756	0.691
677.269	0.4741
685.781	0.551
694.294	0.485
702.807	0.714
711.319	0.826
719.832	0.838
728.345	0.833
736.857	0.747
745.37	0.313
753.883	0.6059
762.395	0.693
770.908	0.481
779.421	0.487
787.933	0.542
796.446	0.738
804.959	0.814
813.471	0.835
821.984	0.803
830.497	0.695
839.009	0.698
847.522	0.661
856.034	0.609
864.547	0.628
873.06	0.561
881.572	0.434
890.085	0.286
898.598	0.441
907.11	0.3091
915.623	0.391
924.136	0.698
932.648	0.778
941.161	0.766
949.674	0.665
958.186	0.302
966.699	0.3089
975.212	0.57
983.724	0.622
992.237	0.546
1000.75	0.209
1009.26	0.058
1017.77	0.145
1026.29	0.372
1034.8	0.464
1043.31	0.33
1051.83	0.554
1060.34	0.632
1068.85	0.629
1077.36	0.472
1085.88	0.69
1094.39	0.685
1102.9	0.468
1111.41	0.2459
1119.93	0.007
1128.44	0.026
1136.95	0.3439
1145.46	0.481
1153.98	0.2211
1162.49	0.089
1171	0.087
1179.52	0.063
1188.03	0
1196.54	0
1205.05	0
1213.57	0
1222.08	0.033
1230.59	0.047
1239.1	0.085
1247.62	0.103
1256.13	0.195
1264.64	0.214
1273.15	0.359
1281.67	0.277
1290.18	0.555
1298.69	0.592
1307.2	0.495
1315.72	0.516
1324.23	0.627
1332.74	0.632
1341.26	0.617
1349.77	0.557
1358.28	0.367
1366.79	0.005
1375.31	0.118
1383.82	0.42
1392.33	0.506
1400.84	0.537
1409.36	0.519
1417.87	0.441
1426.38	0.353
1434.89	0.327
1443.41	0.301
1451.92	0.382
1460.43	0.496
1468.95	0.479
1477.46	0.3151
1485.97	0.027
1494.48	0.427
1503	0.48
1511.51	0.489
1520.02	0.482
1528.53	0.436
1537.05	0.377
1545.56	0.338
1554.07	0.341
1562.58	0.378
1571.1	0.401
1579.61	0.39
1588.12	0.281
1596.63	0.095
1605.15	0.099
1613.66	0.237
1622.17	0.442
1630.69	0.558
1639.2	0.561
1647.71	0.526
1656.22	0.572
1664.74	0.61
1673.25	0.63
1681.76	0.637
1690.27	0.632
1698.79	0.615
1707.3	0.581
1715.81	0.511
1724.32	0.408
1732.84	0.284
1741.35	0.211
1749.86	0.128
1758.38	0.034
1766.89	0
1775.4	0
1783.91	0.022
1792.43	0.154
1800.94	0.347
1809.45	0.457
1817.96	0.514
1826.48	0.56
1834.99	0.594
1843.5	0.613
1852.01	0.632
1860.53	0.647
1869.04	0.653
1877.55	0.655
1886.06	0.665
1894.58	0.667
1903.09	0.663
1911.6	0.674
1920.12	0.668
1928.63	0.653
1937.14	0.681
1945.65	0.694
1954.17	0.697
1962.68	0.69
1971.19	0.684
1979.7	0.69
1988.22	0.693
1996.73	0.697
2005.24	0.699
2013.75	0.701
2022.27	0.7015
2030.78	0.703
2039.29	0.704
2047.81	0.705
2056.32	0.7055
2064.83	0.707
2073.34	0.708
2081.86	0.709
2090.37	0.71
2098.88	0.711
2107.39	0.712
2115.91	0.713
2124.42	0.7144
2132.93	0.715
2141.44	0.7169
2149.96	0.7172
2158.47	0.718
2166.98	0.72
2175.49	0.721
2184.01	0.722
2192.52	0.7224
2201.03	0.723
2209.55	0.723
2218.06	0.724
2226.57	0.724
2235.08	0.7234
2243.6	0.7221
2252.11	0.7219
2260.62	0.72
2269.13	0.719
2277.65	0.718
2286.16	0.718
2294.67	0.717
2303.18	0.7164
2311.7	0.716
2320.21	0.7149
2328.72	0.713
2337.24	0.711
2345.75	0.709
2354.26	0.707
2362.77	0.705
2371.29	0.704
2379.8	0.703
2388.31	0.701
2396.82	0.7013
2405.34	0.7041
2413.85	0.7105
2422.36	0.715
2430.87	0.7183
2439.39	0.7215
2447.9	0.7268
2456.41	0.729
2464.93	0.73
2473.44	0.731
2481.95	0.732
2490.46	0.733
2498.98	0.734
2507.49	0.735
2516	0.736
2524.51	0.737
2533.03	0.7368
2541.54	0.736
2550.05	0.734
2558.56	0.7321
2567.08	0.73
2575.59	0.729
2584.1	0.729
2592.61	0.7299
2601.13	0.7302
2609.64	0.732
2618.15	0.733
2626.67	0.734
2635.18	0.7348
2643.69	0.734
2652.2	0.733
2660.72	0.732
2669.23	0.73
2677.74	0.7286
2686.25	0.7274
2694.77	0.726
2703.28	0.7249
2711.79	0.723
2720.3	0.722
2728.82	0.7211
2737.33	0.72
2745.84	0.719
2754.36	0.718
2762.87	0.7172
2771.38	0.717
2779.89	0.716
2788.41	0.7154
2796.92	0.715
2805.43	0.715
2813.94	0.715
2822.46	0.715
2830.97	0.7132
2839.48	0.7068
2847.99	0.6997
2856.51	0.6959
2865.02	0.691
2873.53	0.687
2882.04	0.6827
2890.56	0.681
2899.07	0.682
2907.58	0.684
2916.1	0.6827
2924.61	0.6745
2933.12	0.6608
2941.63	0.659
2950.15	0.6578
2958.66	0.6555
2967.17	0.653
2975.68	0.6441
2984.2	0.6328
2992.71	0.6349
3001.22	0.6414
3009.73	0.648
3018.25	0.646
3026.76	0.6392
3035.27	0.6333
3043.79	0.634
3052.3	0.6471
3060.81	0.6526
3069.32	0.643
3077.84	0.6253
3086.35	0.6253
3094.86	0.6454
3103.37	0.661
3111.89	0.6708
3120.4	0.673
3128.91	0.674
3137.42	0.6746
3145.94	0.676
3154.45	0.6783
3162.96	0.6814
3171.47	0.6826
3179.99	0.684
3188.5	0.685
3197.01	0.686
3205.53	0.686
3214.04	0.6868
3222.55	0.6871
3231.06	0.688
3239.58	0.688
3248.09	0.689
3256.6	0.689
3265.11	0.689
3273.63	0.689
3282.14	0.689
3290.65	0.689
3299.16	0.689
3307.68	0.689
3316.19	0.689
3324.7	0.689
3333.22	0.689
3341.73	0.6885
3350.24	0.688
3358.75	0.688
3367.27	0.6867
3375.78	0.686
3384.29	0.686
3392.8	0.685
3401.32	0.684
3409.83	0.6825
3418.34	0.682
3426.85	0.681
3435.37	0.68
3443.88	0.678
3452.39	0.6756
3460.9	0.672
3469.42	0.67
3477.93	0.6651
3486.44	0.6576
3494.96	0.6521
3503.47	0.6456
3511.98	0.6406
3520.49	0.6346
3529.01	0.6291
3537.52	0.6282
3546.03	0.6328
3554.54	0.6403
3563.06	0.644
3571.57	0.646
3580.08	0.6474
3588.59	0.6493
3597.11	0.6538
3605.62	0.6653
3614.13	0.669
3622.65	0.6684
3631.16	0.665
3639.67	0.6674
3648.18	0.6744
3656.7	0.6766
3665.21	0.6771
3673.72	0.6749
3682.23	0.6723
3690.75	0.669
3699.26	0.6698
3707.77	0.6742
3716.28	0.684
3724.8	0.6884
3733.31	0.69
3741.82	0.691
3750.33	0.691
3758.85	0.6904
3767.36	0.69
3775.87	0.69
3784.39	0.69
3792.9	0.69
3801.41	0.6918
3809.92	0.695
3818.44	0.696
3826.95	0.6965
3835.46	0.698
3843.97	0.699
3852.49	0.701
3861	0.703
3869.51	0.703
3878.02	0.704
3886.54	0.704
3895.05	0.705
3903.56	0.705
3912.08	0.706
3920.59	0.709
3929.1	0.711
3937.61	0.711
3946.13	0.711
3954.64	0.711
3963.15	0.709
3971.66	0.7083
3980.18	0.707
3988.69	0.706
3997.2	0.705
