Infrared Spectrum: FORMALDEHYDE, 2,4-DINITROPHENYLHYDRAZONE-
Formula: C7 H6 N4 O4
CAS: 1081-15-8
State: SOLID (OIL MULL)
Class: COBLENTZ III
Instrument: BAIRD (GRATING)
Instrument parameters: NaCl PRISM
Sampling: TRANSMISSION
Resolution: 2
Origin: WYANDOTTE CHEMICALS CORP.
1/CM	TRANSMITTANCE
4000	0.4677
3991	0.4687
3982	0.4704
3973	0.4722
3964	0.474
3955	0.476
3946	0.4785
3937	0.481
3928	0.4834
3919	0.4859
3910	0.4884
3901	0.4908
3892	0.4932
3883	0.4956
3874	0.498
3865	0.5005
3856	0.5029
3847	0.5053
3838	0.5078
3829	0.5102
3820	0.5126
3811	0.5149
3802	0.5174
3793	0.5198
3784	0.5222
3775	0.5246
3766	0.527
3757	0.5291
3748	0.5314
3739	0.5336
3730	0.5358
3721	0.5381
3712	0.5402
3703	0.5422
3694	0.5443
3685	0.5462
3676	0.5484
3667	0.5504
3658	0.5523
3649	0.5543
3640	0.5562
3631	0.5582
3622	0.5599
3613	0.5615
3604	0.5631
3595	0.5645
3586	0.5652
3577	0.5659
3568	0.5662
3559	0.5665
3550	0.5667
3541	0.5673
3532	0.5687
3523	0.5701
3514	0.5716
3505	0.5731
3496	0.5748
3487	0.5766
3478	0.5784
3469	0.5802
3460	0.5822
3451	0.5842
3442	0.5862
3433	0.5881
3424	0.5898
3415	0.591
3406	0.5922
3397	0.5933
3388	0.594
3379	0.5942
3370	0.5945
3361	0.5936
3352	0.5895
3343	0.5369
3334	0.4644
3325	0.3916
3316	0.3471
3307	0.3575
3298	0.4256
3289	0.4947
3280	0.533
3271	0.5457
3262	0.5568
3253	0.5651
3244	0.57
3235	0.5729
3226	0.575
3217	0.5762
3208	0.5774
3199	0.5781
3190	0.5784
3181	0.5783
3172	0.5781
3163	0.5776
3154	0.5767
3145	0.5735
3136	0.5297
3127	0.484
3118	0.4484
3109	0.4602
3100	0.4903
3091	0.5206
3082	0.5491
3073	0.5501
3064	0.5474
3055	0.5348
3046	0.513
3037	0.4918
3028	0.4465
3019	0.3782
3010	0.3111
3001	0.2434
2992	0.1754
2983	0.1069
2974	0.0549
2965	0.0469
2956	0.0417
2947	0.0407
2938	0.0436
2929	0.0691
2920	0.0953
2911	0.1216
2902	0.1479
2893	0.1544
2884	0.1513
2875	0.1368
2866	0.1281
2857	0.1456
2848	0.4098
2839	0.5912
2830	0.619
2821	0.6457
2812	0.6615
2803	0.6786
2794	0.6887
2785	0.6922
2776	0.6944
2767	0.6974
2758	0.7007
2749	0.7032
2740	0.7051
2731	0.7078
2722	0.711
2713	0.7147
2704	0.7217
2695	0.7218
2686	0.7215
2677	0.7234
2668	0.7261
2659	0.7293
2650	0.7324
2641	0.7365
2632	0.7435
2623	0.7507
2614	0.7568
2605	0.7591
2596	0.7615
2587	0.7637
2578	0.766
2569	0.7683
2560	0.7715
2551	0.7754
2542	0.7796
2533	0.7841
2524	0.7887
2515	0.7933
2506	0.796
2497	0.7982
2488	0.7995
2479	0.7976
2470	0.7949
2461	0.7919
2452	0.7885
2443	0.7855
2434	0.7835
2425	0.7839
2416	0.7865
2407	0.7915
2398	0.7981
2389	0.8051
2380	0.811
2371	0.8151
2362	0.8178
2353	0.8208
2344	0.8232
2335	0.8257
2326	0.8296
2317	0.8363
2308	0.8432
2299	0.8486
2290	0.8512
2281	0.8497
2272	0.8468
2263	0.8448
2254	0.8444
2245	0.8466
2236	0.8493
2227	0.8543
2218	0.8604
2209	0.8668
2200	0.8716
2191	0.8723
2182	0.8721
2173	0.8716
2164	0.8741
2155	0.8835
2146	0.8866
2137	0.8881
2128	0.8905
2119	0.8942
2110	0.9006
2101	0.9074
2092	0.9133
2083	0.9182
2074	0.9196
2065	0.9194
2056	0.9171
2047	0.9131
2038	0.9105
2029	0.9093
2020	0.9124
2011	0.9183
2002	0.9234
1993	0.9242
1984	0.9141
1975	0.8709
1966	0.8543
1957	0.8904
1948	0.8955
1939	0.9128
1930	0.9244
1921	0.9337
1912	0.9406
1903	0.9455
1894	0.9504
1885	0.9521
1876	0.9508
1867	0.9259
1858	0.9174
1849	0.9205
1840	0.9439
1831	0.9521
1822	0.9503
1813	0.941
1804	0.953
1795	0.9625
1786	0.9678
1777	0.9686
1768	0.9657
1759	0.9606
1750	0.9556
1741	0.9528
1732	0.956
1723	0.9643
1714	0.969
1705	0.9487
1696	0.9287
1687	0.9191
1678	0.9159
1669	0.8863
1660	0.7587
1651	0.4786
1642	0.1953
1633	0.0396
1624	0.1654
1615	0.2275
1606	0.1586
1597	0.5347
1588	0.7237
1579	0.7828
1570	0.7942
1561	0.7653
1552	0.5518
1543	0.3282
1534	0.1041
1525	0.1313
1516	0.1986
1507	0.424
1498	0.6323
1489	0.6338
1480	0.4071
1471	0.3418
1462	0.3374
1453	0.2824
1444	0.5109
1435	0.4048
1426	0.6365
1417	0.7614
1408	0.8205
1399	0.7781
1390	0.6159
1381	0.5154
1372	0.3546
1363	0.1232
1354	0.1059
1345	0.04
1336	0.1394
1327	0.1095
1318	0.0718
1309	0.4139
1300	0.4496
1291	0.312
1282	0.2651
1273	0.4731
1264	0.6268
1255	0.701
1246	0.736
1237	0.6487
1228	0.6774
1219	0.7442
1210	0.6132
1201	0.2939
1192	0.5853
1183	0.731
1174	0.8185
1165	0.83
1156	0.6557
1147	0.3248
1138	0.407
1129	0.3845
1120	0.6234
1111	0.7271
1102	0.7681
1093	0.7944
1084	0.7856
1075	0.4309
1066	0.7411
1057	0.8268
1048	0.8284
1039	0.7955
1030	0.7191
1021	0.5456
1012	0.7367
1003	0.773
994	0.4618
985	0.72
976	0.7968
967	0.8731
958	0.8813
949	0.8883
940	0.8817
931	0.8199
922	0.4941
913	0.8343
904	0.8784
895	0.8791
886	0.8928
877	0.9006
868	0.9068
859	0.8901
850	0.8374
841	0.8288
832	0.3697
823	0.7695
814	0.8678
805	0.8886
796	0.8891
787	0.8818
778	0.8816
769	0.838
760	0.8115
751	0.7365
742	0.519
733	0.8001
724	0.5507
715	0.8147
706	0.8584
697	0.8527
688	0.7736
679	0.7707
670	0.7748
661	0.6654
652	0.6589
643	0.6325
634	0.5815
