Infrared Spectrum: BIS(2-ETHOXYETHYL)ADIPATE
Formula: C14 H26 O6
CAS: 109-44-4
State: LIQUID
Boiling point: 164-166 C AT 4 mmHg
Class: COBLENTZ
Instrument: Not specified, most likely a prism, grating, or hybrid spectrometer.
Sampling: TRANSMISSION
Path length: CAPILLARY
Resolution: 4
Origin: WYANDOTTE CHEMICALS CORP., WYANDOTTE, MICHIGAN, USA
MICROMETERS	TRANSMITTANCE
2	0.991
2.04088	0.989
2.08175	0.991
2.12263	0.988
2.1635	0.981
2.20438	0.95
2.24526	0.95
2.28613	0.952
2.32701	0.953
2.36788	0.959
2.40876	0.952
2.44964	0.952
2.49051	0.967
2.53139	0.969
2.57227	0.97
2.61314	0.989
2.65402	0.989
2.69489	0.969
2.73577	0.952
2.77665	0.931
2.81752	0.923
2.8584	0.914
2.89927	0.887
2.94015	0.921
2.98103	0.919
3.0219	0.928
3.06278	0.919
3.10365	0.919
3.14453	0.916
3.18541	0.911
3.22628	0.897
3.26716	0.858
3.30804	0.701
3.34891	0.172
3.38979	0.218
3.43066	0.262
3.47154	0.18
3.51242	0.395
3.55329	0.564
3.59417	0.711
3.63504	0.784
3.67592	0.81
3.7168	0.853
3.75767	0.909
3.79855	0.916
3.83942	0.919
3.8803	0.933
3.92118	0.935
3.96205	0.941
4.00293	0.94
4.0438	0.935
4.08468	0.931
4.12556	0.941
4.16643	0.938
4.20731	0.936
4.24819	0.936
4.28906	0.95
4.32994	0.959
4.37081	0.969
4.41169	0.947
4.45257	0.948
4.49344	0.947
4.53432	0.952
4.57519	0.953
4.61607	0.96
4.65695	0.957
4.69782	0.96
4.7387	0.957
4.77957	0.959
4.82045	0.959
4.86133	0.96
4.9022	0.962
4.94308	0.953
4.98396	0.955
5.02483	0.95
5.06571	0.938
5.10658	0.931
5.14746	0.93
5.18834	0.933
5.22921	0.94
5.27009	0.948
5.31096	0.952
5.35184	0.955
5.39272	0.959
5.43359	0.95
5.47447	0.947
5.51534	0.924
5.55622	0.895
5.5971	0.831
5.63797	0.752
5.67885	0.593
5.71972	0.162
5.7606	0.066
5.80148	0.151
5.84235	0.529
5.88323	0.634
5.92411	0.716
5.96498	0.803
6.00586	0.834
6.04673	0.851
6.08761	0.851
6.12849	0.866
6.16936	0.883
6.21024	0.89
6.25111	0.911
6.29199	0.923
6.33287	0.921
6.37374	0.918
6.41462	0.902
6.45549	0.882
6.49637	0.875
6.53725	0.872
6.57812	0.875
6.619	0.843
6.65988	0.745
6.70075	0.633
6.74163	0.648
6.7825	0.506
6.82338	0.334
6.86426	0.315
6.90513	0.331
6.94601	0.44
6.98688	0.448
7.02776	0.43
7.06864	0.52
7.10951	0.508
7.15039	0.337
7.19126	0.192
7.23214	0.23
7.27302	0.288
7.31389	0.37
7.35477	0.36
7.39564	0.3
7.43652	0.378
7.4774	0.465
7.51827	0.51
7.55915	0.441
7.60003	0.375
7.6409	0.336
7.68178	0.293
7.72265	0.247
7.76353	0.203
7.80441	0.203
7.84528	0.204
7.88616	0.184
7.92703	0.15
7.96791	0.131
8.00879	0.129
8.04966	0.124
8.09054	0.141
8.13141	0.153
8.17229	0.16
8.21317	0.151
8.25404	0.153
8.29492	0.141
8.3358	0.121
8.37667	0.1
8.41755	0.087
8.45842	0.075
8.4993	0.069
8.54018	0.078
8.58105	0.087
8.62193	0.102
8.6628	0.109
8.70368	0.097
8.74456	0.071
8.78543	0.064
8.82631	0.063
8.86718	0.063
8.90806	0.061
8.94894	0.066
8.98981	0.104
9.03069	0.155
9.07156	0.197
9.11244	0.232
9.15332	0.233
9.19419	0.226
9.23507	0.215
9.27595	0.226
9.31682	0.252
9.3577	0.266
9.39857	0.252
9.43945	0.232
9.48033	0.204
9.5212	0.223
9.56208	0.254
9.60295	0.264
9.64383	0.283
9.68471	0.322
9.72558	0.38
9.76646	0.455
9.80733	0.503
9.84821	0.551
9.88909	0.593
9.92996	0.622
9.97084	0.653
10.0117	0.682
10.0526	0.696
10.0935	0.709
10.1343	0.72
10.1752	0.721
10.2161	0.713
10.257	0.703
10.2978	0.674
10.3387	0.651
10.3796	0.622
10.4205	0.6
10.4614	0.571
10.5022	0.559
10.5431	0.551
10.584	0.561
10.6249	0.578
10.6657	0.595
10.7066	0.614
10.7475	0.638
10.7884	0.656
10.8292	0.67
10.8701	0.67
10.911	0.667
10.9519	0.677
10.9927	0.689
11.0336	0.716
11.0745	0.742
11.1154	0.773
11.1562	0.783
11.1971	0.793
11.238	0.788
11.2789	0.769
11.3198	0.752
11.3606	0.735
11.4015	0.725
11.4424	0.713
11.4833	0.696
11.5241	0.67
11.565	0.651
11.6059	0.643
11.6468	0.641
11.6876	0.653
11.7285	0.668
11.7694	0.694
11.8103	0.715
11.8511	0.732
11.892	0.745
11.9329	0.747
11.9738	0.749
12.0146	0.75
12.0555	0.761
12.0964	0.767
12.1373	0.779
12.1781	0.783
12.219	0.783
12.2599	0.784
12.3008	0.791
12.3417	0.81
12.3825	0.825
12.4234	0.841
12.4643	0.846
12.5052	0.843
12.546	0.829
12.5869	0.817
12.6278	0.827
12.6687	0.839
12.7095	0.853
12.7504	0.873
12.7913	0.873
12.8322	0.878
12.873	0.878
12.9139	0.878
12.9548	0.88
12.9957	0.872
13.0365	0.865
13.0774	0.856
13.1183	0.843
13.1592	0.831
13.2001	0.825
13.2409	0.822
13.2818	0.824
13.3227	0.831
13.3636	0.843
13.4044	0.86
13.4453	0.866
13.4862	0.875
13.5271	0.88
13.5679	0.88
13.6088	0.877
13.6497	0.885
13.6906	0.894
13.7314	0.899
13.7723	0.901
13.8132	0.906
13.8541	0.909
13.8949	0.906
13.9358	0.902
13.9767	0.909
14.0176	0.909
14.0584	0.906
14.0993	0.906
14.1402	0.906
14.1811	0.907
14.222	0.907
14.2628	0.909
14.3037	0.907
14.3446	0.912
14.3855	0.904
14.4263	0.907
14.4672	0.907
14.5081	0.906
14.549	0.897
14.5898	0.899
14.6307	0.897
14.6716	0.901
14.7125	0.895
14.7533	0.885
14.7942	0.883
14.8351	0.88
14.876	0.877
14.9168	0.868
14.9577	0.856
14.9986	0.836
15.0395	0.793
15.0804	0.74
15.1212	0.706
15.1621	0.73
15.203	0.778
15.2439	0.807
15.2847	0.81
15.3256	0.815
15.3665	0.813
15.4074	0.815
15.4482	0.812
15.4891	0.805
15.53	0.802
15.5709	0.807
15.6117	0.795
15.6526	0.8
15.6935	0.798
15.7344	0.795
15.7752	0.79
15.8161	0.779
15.857	0.769
15.8979	0.773
15.9387	0.766
