Infrared Spectrum: 2-ISOPROPYL AMINO ETHANOL
Formula: C5 H13 N O
CAS: 109-56-8
State: LIQUID
Boiling point: 68-70 C AT 10 mmHg
Class: COBLENTZ
Instrument: Not specified, most likely a prism, grating, or hybrid spectrometer.
Sampling: TRANSMISSION
Path length: 0.003 CM
Resolution: 4
Origin: WYANDOTTE CHEMICALS CORP., WYANDOTTE, MICHIGAN, USA
MICROMETERS	TRANSMITTANCE
2.061	0.981
2.10156	0.981
2.14212	0.971
2.18267	0.964
2.22323	0.949
2.26379	0.938
2.30435	0.949
2.34491	0.949
2.38547	0.943
2.42602	0.943
2.46658	0.943
2.50714	0.949
2.5477	0.957
2.58826	0.959
2.62882	0.954
2.66937	0.952
2.70993	0.942
2.75049	0.889
2.79105	0.799
2.83161	0.528
2.87217	0.458
2.91272	0.339
2.95328	0.213
2.99384	0.132
3.0344	0.093
3.07496	0.079
3.11552	0.073
3.15607	0.076
3.19663	0.096
3.23719	0.139
3.27775	0.2
3.31831	0.2
3.35886	0.028
3.39942	0.022
3.43998	0.022
3.48054	0.025
3.5211	0.033
3.56166	0.059
3.60221	0.125
3.64277	0.2
3.68333	0.239
3.72389	0.273
3.76445	0.322
3.80501	0.354
3.84556	0.398
3.88612	0.448
3.92668	0.492
3.96724	0.519
4.0078	0.561
4.04836	0.589
4.08891	0.623
4.12947	0.648
4.17003	0.682
4.21059	0.714
4.25115	0.731
4.29171	0.75
4.33226	0.758
4.37282	0.769
4.41338	0.779
4.45394	0.789
4.4945	0.794
4.53505	0.801
4.57561	0.809
4.61617	0.813
4.65673	0.816
4.69729	0.818
4.73785	0.818
4.7784	0.818
4.81896	0.818
4.85952	0.818
4.90008	0.818
4.94064	0.818
4.9812	0.816
5.02175	0.813
5.06231	0.806
5.10287	0.799
5.14343	0.796
5.18399	0.796
5.22455	0.796
5.2651	0.794
5.30566	0.789
5.34622	0.787
5.38678	0.784
5.42734	0.784
5.4679	0.786
5.50845	0.786
5.54901	0.784
5.58957	0.777
5.63013	0.77
5.67069	0.765
5.71124	0.758
5.7518	0.748
5.79236	0.741
5.83292	0.735
5.87348	0.718
5.91404	0.692
5.95459	0.67
5.99515	0.663
6.03571	0.67
6.07627	0.667
6.11683	0.643
6.15739	0.59
6.19794	0.578
6.2385	0.602
6.27906	0.629
6.31962	0.651
6.36018	0.663
6.40074	0.665
6.44129	0.65
6.48185	0.641
6.52241	0.611
6.56297	0.573
6.60353	0.497
6.64409	0.446
6.68464	0.331
6.7252	0.2
6.76576	0.115
6.80632	0.19
6.84688	0.203
6.88743	0.212
6.92799	0.268
6.96855	0.327
7.00911	0.398
7.04967	0.432
7.09023	0.434
7.13078	0.402
7.17134	0.293
7.2119	0.13
7.25246	0.171
7.29302	0.161
7.33358	0.219
7.37413	0.273
7.41469	0.193
7.45525	0.205
7.49581	0.298
7.53637	0.283
7.57693	0.415
7.61748	0.495
7.65804	0.522
7.6986	0.548
7.73916	0.572
7.77972	0.584
7.82028	0.558
7.86083	0.528
7.90139	0.519
7.94195	0.534
7.98251	0.568
8.02307	0.572
8.06362	0.529
8.10418	0.482
8.14474	0.436
8.1853	0.449
8.22586	0.49
8.26642	0.539
8.30697	0.573
8.34753	0.568
8.38809	0.492
8.42865	0.225
8.46921	0.162
8.50977	0.208
8.55032	0.278
8.59088	0.376
8.63144	0.431
8.672	0.407
8.71256	0.332
8.75312	0.298
8.79367	0.332
8.83423	0.397
8.87479	0.448
8.91535	0.449
8.95591	0.371
8.99647	0.3
9.03702	0.202
9.07758	0.176
9.11814	0.176
9.1587	0.166
9.19926	0.142
9.23981	0.113
9.28037	0.079
9.32093	0.049
9.36149	0.03
9.40205	0.028
9.44261	0.037
9.48316	0.073
9.52372	0.118
9.56428	0.178
9.60484	0.234
9.6454	0.278
9.68596	0.317
9.72651	0.387
9.76707	0.439
9.80763	0.482
9.84819	0.497
9.88875	0.49
9.92931	0.466
9.96986	0.438
10.0104	0.397
10.051	0.361
10.0915	0.351
10.1321	0.361
10.1727	0.387
10.2132	0.398
10.2538	0.392
10.2943	0.39
10.3349	0.393
10.3754	0.402
10.416	0.404
10.4566	0.398
10.4971	0.387
10.5377	0.373
10.5782	0.358
10.6188	0.351
10.6594	0.349
10.6999	0.336
10.7405	0.322
10.781	0.303
10.8216	0.292
10.8621	0.288
10.9027	0.298
10.9433	0.31
10.9838	0.324
11.0244	0.339
11.0649	0.351
11.1055	0.363
11.1461	0.373
11.1866	0.376
11.2272	0.368
11.2677	0.342
11.3083	0.315
11.3488	0.28
11.3894	0.249
11.43	0.234
11.4705	0.249
11.5111	0.263
11.5516	0.278
11.5922	0.285
11.6328	0.286
11.6733	0.281
11.7139	0.278
11.7544	0.28
11.795	0.283
11.8355	0.293
11.8761	0.307
11.9167	0.322
11.9572	0.336
11.9978	0.353
12.0383	0.363
12.0789	0.375
12.1195	0.382
12.16	0.387
12.2006	0.387
12.2411	0.382
12.2817	0.37
12.3222	0.341
12.3628	0.31
12.4034	0.297
12.4439	0.292
12.4845	0.3
12.525	0.314
12.5656	0.319
12.6062	0.327
12.6467	0.332
12.6873	0.336
12.7278	0.334
12.7684	0.324
12.8089	0.32
12.8495	0.322
12.8901	0.329
12.9306	0.331
12.9712	0.332
13.0117	0.332
13.0523	0.331
13.0929	0.329
13.1334	0.329
13.174	0.331
13.2145	0.331
13.2551	0.336
13.2956	0.341
13.3362	0.346
13.3768	0.349
13.4173	0.353
13.4579	0.358
13.4984	0.366
13.539	0.368
13.5796	0.371
13.6201	0.376
13.6607	0.383
13.7012	0.39
13.7418	0.397
13.7823	0.402
13.8229	0.409
13.8635	0.414
13.904	0.421
13.9446	0.427
13.9851	0.434
14.0257	0.441
14.0662	0.448
14.1068	0.451
14.1474	0.458
14.1879	0.46
14.2285	0.466
14.269	0.468
14.3096	0.47
14.3502	0.471
14.3907	0.477
14.4313	0.482
14.4718	0.485
14.5124	0.488
14.5529	0.492
14.5935	0.492
14.6341	0.495
14.6746	0.495
14.7152	0.497
14.7557	0.499
14.7963	0.504
14.8369	0.507
14.8774	0.509
14.918	0.507
14.9585	0.505
14.9991	0.5
15.0396	0.502
15.0802	0.509
15.1208	0.512
15.1613	0.516
15.2019	0.517
15.2424	0.516
15.283	0.516
15.3236	0.516
15.3641	0.516
15.4047	0.516
15.4452	0.516
15.4858	0.516
15.5263	0.516
15.5669	0.516
15.6075	0.516
15.648	0.516
15.6886	0.624
