Infrared Spectrum: PYRIDINE, 2-METHYL-
Formula: C6 H7 N
CAS: 109-06-8
State: VAPOR (0.5 MICROLITER AT 150 C)
Boiling point: 129 C
Class: COBLENTZ
Instrument: NICOLET FTIR
Instrument parameters: Hg-Cd-Te DETECTOR - TYPE A, DEAD BELOW 680 CM^-^1, LOW S/N 710 - 680
Sampling: TRANSMISSION
Path length: 0.2 CM x 30 CM GOLD-PLATED LIGHT PIPE. HELIUM CARRIER. INTERFEROGRAMS CO-ADDED FOR FULL TRANSIT TIME.
Resolution: 4 CM^-^1
Origin: MONSANTO (JOHN J. FREEMAN)
1/CM	TRANSMITTANCE
704.745	1.018
713.048	0.9041
721.351	0.7801
729.654	0.568
737.957	0.5641
746.26	0.281
754.563	0.479
762.866	0.5628
771.169	0.7889
779.471	0.947
787.774	0.978
796.077	0.982
804.38	0.983
812.683	0.985
820.986	0.987
829.289	0.99
837.592	0.993
845.895	0.993
854.198	0.991
862.501	0.991
870.804	0.991
879.107	0.994
887.41	0.994
895.713	0.988
904.016	0.979
912.318	0.974
920.621	0.971
928.924	0.972
937.227	0.969
945.53	0.951
953.833	0.927
962.136	0.919
970.439	0.908
978.742	0.897
987.045	0.911
995.348	0.908
1003.65	0.931
1011.95	0.952
1020.26	0.933
1028.56	0.87
1036.86	0.798
1045.17	0.824
1053.47	0.815
1061.77	0.907
1070.07	0.94
1078.38	0.951
1086.68	0.947
1094.98	0.956
1103.29	0.958
1111.59	0.969
1119.89	0.963
1128.19	0.8971
1136.5	0.857
1144.8	0.871
1153.1	0.855
1161.41	0.952
1169.71	0.981
1178.01	0.984
1186.32	0.984
1194.62	0.987
1202.92	0.984
1211.22	0.963
1219.53	0.93
1227.83	0.892
1236.13	0.868
1244.44	0.888
1252.74	0.927
1261.04	0.97
1269.34	0.969
1277.65	0.923
1285.95	0.851
1294.25	0.8391
1302.56	0.8541
1310.86	0.942
1319.16	0.979
1327.47	0.978
1335.77	0.966
1344.07	0.957
1352.37	0.949
1360.68	0.938
1368.98	0.907
1377.28	0.885
1385.59	0.878
1393.89	0.899
1402.19	0.917
1410.49	0.876
1418.8	0.746
1427.1	0.6081
1435.4	0.568
1443.71	0.551
1452.01	0.5961
1460.31	0.6041
1468.62	0.468
1476.92	0.456
1485.22	0.4821
1493.52	0.6598
1501.83	0.846
1510.13	0.872
1518.43	0.879
1526.74	0.875
1535.04	0.869
1543.34	0.856
1551.64	0.806
1559.95	0.725
1568.25	0.615
1576.55	0.4931
1584.86	0.379
1593.16	0.363
1601.46	0.4
1609.77	0.506
1618.07	0.799
1626.37	0.924
1634.67	0.943
1642.98	0.97
1651.28	0.983
1659.58	0.987
1667.89	0.993
1676.19	0.991
1684.49	0.982
1692.79	0.986
1701.1	0.98
1709.4	0.982
1717.7	0.986
1726.01	0.988
1734.31	0.987
1742.61	0.978
1750.92	0.975
1759.22	0.972
1767.52	0.978
1775.82	0.981
1784.13	0.986
1792.43	0.987
1800.73	0.987
1809.04	0.987
1817.34	0.984
1825.64	0.983
1833.94	0.98
1842.25	0.975
1850.55	0.965
1858.85	0.967
1867.16	0.972
1875.46	0.983
1883.76	0.99
1892.07	0.979
1900.37	0.972
1908.67	0.969
1916.97	0.964
1925.28	0.959
1933.58	0.958
1941.88	0.956
1950.19	0.962
1958.49	0.964
1966.79	0.969
1975.09	0.973
1983.4	0.987
1991.7	0.995
2000	0.996
2008.31	0.996
2016.61	0.995
2024.91	0.993
2033.22	0.991
2041.52	0.9923
2049.82	0.9938
2058.12	0.9953
2066.43	0.996
2074.73	0.995
2083.03	0.995
2091.34	0.995
2099.64	0.995
2107.94	0.998
2116.24	0.999
2124.55	0.998
2132.85	0.998
2141.15	0.997
2149.46	0.996
2157.76	0.9941
2166.06	0.9916
2174.37	0.9871
2182.67	0.983
2190.97	0.98
2199.27	0.9833
2207.58	0.9878
2215.88	0.9892
2224.18	0.991
2232.49	0.991
2240.79	0.9926
2249.09	0.994
2257.39	0.994
2265.7	0.9929
2274	0.9879
2282.3	0.984
2290.61	0.9865
2298.91	0.987
2307.21	0.994
2315.52	0.9959
2323.82	0.996
2332.12	0.9952
2340.42	0.994
2348.73	0.9958
2357.03	0.9998
2365.33	0.9963
2373.64	0.9928
2381.94	0.9884
2390.24	0.988
2398.54	0.9886
2406.85	0.9891
2415.15	0.9895
2423.45	0.988
2431.76	0.987
2440.06	0.989
2448.36	0.9904
2456.67	0.992
2464.97	0.99
2473.27	0.989
2481.57	0.9913
2489.88	0.9938
2498.18	0.995
2506.48	0.995
2514.79	0.994
2523.09	0.993
2531.39	0.994
2539.69	0.9956
2548	0.997
2556.3	0.998
2564.6	0.996
2572.91	0.995
2581.21	0.994
2589.51	0.9916
2597.81	0.9872
2606.12	0.9819
2614.42	0.979
2622.72	0.9836
2631.03	0.9885
2639.33	0.995
2647.63	0.996
2655.94	0.996
2664.24	0.995
2672.54	0.9939
2680.84	0.993
2689.15	0.9919
2697.45	0.991
2705.75	0.99
2714.06	0.9885
2722.36	0.9851
2730.66	0.9826
2738.96	0.981
2747.27	0.983
2755.57	0.9858
2763.87	0.992
2772.18	0.992
2780.48	0.99
2788.78	0.988
2797.09	0.9848
2805.39	0.9804
2813.69	0.978
2821.99	0.9728
2830.3	0.9678
2838.6	0.9528
2846.9	0.934
2855.21	0.9132
2863.51	0.892
2871.81	0.8772
2880.11	0.876
2888.42	0.8797
2896.72	0.8787
2905.02	0.8571
2913.33	0.8068
2921.63	0.7241
2929.93	0.671
2938.24	0.6638
2946.54	0.7049
2954.84	0.7943
2963.14	0.8178
2971.45	0.815
2979.75	0.8135
2988.05	0.791
2996.36	0.7342
3004.66	0.6313
3012.96	0.5823
3021.26	0.5715
3029.57	0.5852
3037.87	0.6768
3046.17	0.6911
3054.48	0.6358
3062.78	0.5665
3071.08	0.5073
3079.39	0.5074
3087.69	0.5792
3095.99	0.693
3104.29	0.8804
3112.6	0.9385
3120.9	0.957
3129.2	0.96
3137.51	0.9615
3145.81	0.9649
3154.11	0.9727
3162.41	0.983
3170.72	0.985
3179.02	0.9867
3187.32	0.989
3195.63	0.9898
3203.93	0.993
3212.23	0.993
3220.54	0.994
3228.84	0.9946
3237.14	0.995
3245.44	0.995
3253.75	0.995
3262.05	0.9945
3270.35	0.994
3278.66	0.995
3286.96	0.995
3295.26	0.9944
3303.56	0.996
3311.87	0.997
3320.17	0.997
3328.47	0.997
3336.78	0.997
3345.08	0.997
3353.38	0.997
3361.69	0.996
3369.99	0.996
3378.29	0.997
3386.59	0.997
3394.9	0.9959
3403.2	0.9965
3411.5	0.998
3419.81	0.998
3428.11	0.9989
3436.41	0.9987
3444.71	0.997
3453.02	0.998
3461.32	0.999
3469.62	1
3477.93	1
3486.23	1
3494.53	0.999
3502.84	1
3511.14	0.9993
3519.44	1
3527.74	1
3536.05	1
3544.35	1
3552.65	1
3560.96	1
3569.26	0.9999
3577.56	1
3585.86	1
3594.17	0.9996
3602.47	0.999
3610.77	0.9977
3619.08	0.997
3627.38	0.998
3635.68	0.998
3643.99	0.998
3652.29	0.999
3660.59	0.999
3668.89	0.9984
3677.2	0.9959
3685.5	0.9965
3693.8	0.997
3702.11	0.9975
3710.41	0.9999
3718.71	1
3727.01	1.0009
3735.32	1.001
3743.62	1.001
3751.92	1
3760.23	1
3768.53	1
3776.83	1
3785.14	0.999
3793.44	0.9983
3801.74	0.998
3810.04	0.998
3818.35	0.997
3826.65	0.996
3834.95	0.996
3843.26	0.996
3851.56	0.996
3859.86	0.995
3868.16	0.9931
3876.47	0.9934
3884.77	0.9932
3893.07	0.9953
3901.38	0.9968
3909.68	0.997
3917.98	0.997
3926.29	0.998
3934.59	0.998
3942.89	0.997
3951.19	0.996
3959.5	0.996
3967.8	0.995
3976.1	0.995
3984.41	0.995
3992.71	0.997
4001.01	0.9958
