Infrared Spectrum: PYRIDINE, 2-CHLORO-
Formula: C5 H4 Cl N
CAS: 109-09-1
State: LIQUID (NEAT)
Class: COBLENTZ III
Instrument: PERKIN-ELMER 21 (GRATING)
Instrument parameters: FILTER CHANGE AT ABOUT 1020 CM^-^1
Sampling: TRANSMISSION
Path length: 0.0015 CM
Resolution: 2
Origin: SOUTHERN RESEARCH INSTITUTE
1/CM	TRANSMITTANCE
601.235	0.551
609.859	0.552
618.483	0.553
627.108	0.554
635.732	0.557
644.356	0.559
652.98	0.562
661.605	0.5639
670.229	0.568
678.853	0.567
687.477	0.563
696.101	0.5728
704.726	0.5615
713.35	0.3987
721.974	0.1064
730.598	0.3118
739.223	0.528
747.847	0.4129
756.471	0.0979
765.095	0.0468
773.72	0.1645
782.344	0.4908
790.968	0.6483
799.592	0.7177
808.216	0.7483
816.841	0.7665
825.465	0.7803
834.089	0.7996
842.713	0.805
851.338	0.8038
859.962	0.7964
868.586	0.7777
877.21	0.77
885.834	0.792
894.459	0.801
903.083	0.805
911.707	0.805
920.331	0.803
928.956	0.796
937.58	0.7783
946.204	0.7433
954.828	0.6857
963.453	0.708
972.077	0.7187
980.701	0.5995
989.325	0.2988
997.949	0.6317
1006.57	0.763
1015.2	0.765
1023.82	0.7587
1032.45	0.6975
1041.07	0.4087
1049.69	0.5605
1058.32	0.7168
1066.94	0.6562
1075.57	0.4105
1084.19	0.1335
1092.82	0.5378
1101.44	0.4736
1110.06	0.1213
1118.69	0.041
1127.31	0.404
1135.94	0.4398
1144.56	0.2474
1153.19	0.1689
1161.81	0.3586
1170.43	0.7487
1179.06	0.7942
1187.68	0.815
1196.31	0.827
1204.93	0.826
1213.56	0.829
1222.18	0.826
1230.8	0.805
1239.43	0.7959
1248.05	0.7958
1256.68	0.8059
1265.3	0.8023
1273.92	0.7579
1282.55	0.5523
1291.17	0.6518
1299.8	0.783
1308.42	0.8279
1317.05	0.839
1325.67	0.8404
1334.29	0.836
1342.92	0.8275
1351.54	0.7933
1360.17	0.76
1368.79	0.7732
1377.42	0.7786
1386.04	0.7468
1394.66	0.6522
1403.29	0.4621
1411.91	0.1904
1420.54	0.0379
1429.16	0.182
1437.78	0.4954
1446.41	0.3752
1455.03	0.0423
1463.66	0.3908
1472.28	0.5323
1480.91	0.6436
1489.53	0.7682
1498.15	0.793
1506.78	0.8135
1515.4	0.8125
1524.03	0.7943
1532.65	0.714
1541.28	0.5455
1549.9	0.4571
1558.52	0.228
1567.15	0.0352
1575.77	0.0367
1584.4	0.2565
1593.02	0.653
1601.65	0.6807
1610.27	0.7331
1618.89	0.8157
1627.52	0.8041
1636.14	0.7915
1644.77	0.7943
1653.39	0.7905
1662.01	0.817
1670.64	0.8422
1679.26	0.844
1687.89	0.844
1696.51	0.843
1705.14	0.839
1713.76	0.8319
1722.38	0.8311
1731.01	0.839
1739.63	0.8399
1748.26	0.8358
1756.88	0.8311
1765.51	0.8471
1774.13	0.8519
1782.75	0.847
1791.38	0.845
1800	0.844
1808.63	0.85
1817.25	0.8341
1825.88	0.7963
1834.5	0.7959
1843.12	0.8129
1851.75	0.816
1860.37	0.816
1869	0.819
1877.62	0.8307
1886.24	0.838
1894.87	0.84
1903.49	0.8362
1912.12	0.829
1920.74	0.834
1929.37	0.8382
1937.99	0.8265
1946.61	0.8122
1955.24	0.8045
1963.86	0.8167
1972.49	0.8233
1981.11	0.813
1989.74	0.818
1998.36	0.8273
2006.98	0.8377
2015.61	0.8463
2024.23	0.8513
2032.86	0.8507
2041.48	0.853
2050.11	0.8573
2058.73	0.86
2067.35	0.86
2075.98	0.86
2084.6	0.86
2093.23	0.859
2101.85	0.856
2110.47	0.855
2119.1	0.854
2127.72	0.855
2136.35	0.856
2144.97	0.859
2153.6	0.86
2162.22	0.86
2170.84	0.856
2179.47	0.856
2188.09	0.855
2196.72	0.8533
2205.34	0.853
2213.97	0.852
2222.59	0.85
2231.21	0.854
2239.84	0.855
2248.46	0.855
2257.09	0.8543
2265.71	0.853
2274.33	0.8483
2282.96	0.844
2291.58	0.843
2300.21	0.844
2308.83	0.845
2317.46	0.849
2326.08	0.853
2334.7	0.855
2343.33	0.855
2351.95	0.858
2360.58	0.8607
2369.2	0.861
2377.83	0.86
2386.45	0.856
2395.07	0.855
2403.7	0.854
2412.32	0.8533
2420.95	0.852
2429.57	0.85
2438.2	0.853
2446.82	0.853
2455.44	0.854
2464.07	0.855
2472.69	0.855
2481.32	0.855
2489.94	0.854
2498.56	0.852
2507.19	0.849
2515.81	0.852
2524.44	0.853
2533.06	0.854
2541.69	0.854
2550.31	0.855
2558.93	0.854
2567.56	0.8543
2576.18	0.854
2584.81	0.854
2593.43	0.855
2602.06	0.855
2610.68	0.855
2619.3	0.855
2627.93	0.855
2636.55	0.855
2645.18	0.855
2653.8	0.854
2662.43	0.855
2671.05	0.854
2679.67	0.854
2688.3	0.854
2696.92	0.854
2705.55	0.855
2714.17	0.855
2722.79	0.856
2731.42	0.858
2740.04	0.858
2748.67	0.856
2757.29	0.855
2765.92	0.854
2774.54	0.8523
2783.16	0.849
2791.79	0.85
2800.41	0.8527
2809.04	0.853
2817.66	0.852
2826.29	0.852
2834.91	0.85
2843.53	0.85
2852.16	0.849
2860.78	0.845
2869.41	0.843
2878.03	0.842
2886.66	0.843
2895.28	0.847
2903.9	0.8497
2912.53	0.85
2921.15	0.8483
2929.78	0.8433
2938.4	0.839
2947.02	0.8323
2955.65	0.8163
2964.27	0.797
2972.9	0.7717
2981.52	0.7577
2990.15	0.748
2998.77	0.743
3007.39	0.7373
3016.02	0.7207
3024.64	0.6973
3033.27	0.6454
3041.89	0.5783
3050.52	0.548
3059.14	0.5683
3067.76	0.6067
3076.39	0.6487
3085.01	0.708
3093.64	0.7547
3102.26	0.78
3110.88	0.7907
3119.51	0.7947
3128.13	0.7997
3136.76	0.805
3145.38	0.8107
3154.01	0.8173
3162.63	0.833
3171.25	0.8413
3179.88	0.8437
3188.5	0.844
3197.13	0.845
3205.75	0.85
3214.38	0.852
3223	0.852
3231.62	0.853
3240.25	0.853
3248.87	0.854
3257.5	0.854
3266.12	0.855
3274.75	0.856
3283.37	0.858
3291.99	0.858
3300.62	0.856
3309.24	0.856
3317.87	0.8557
3326.49	0.855
3335.11	0.855
3343.74	0.854
3352.36	0.853
3360.99	0.852
3369.61	0.852
3378.24	0.852
3386.86	0.85
3395.48	0.849
3404.11	0.848
3412.73	0.847
3421.36	0.847
3429.98	0.847
3438.61	0.847
3447.23	0.8457
3455.85	0.845
3464.48	0.848
3473.1	0.848
3481.73	0.848
3490.35	0.848
3498.98	0.848
3507.6	0.849
3516.22	0.85
3524.85	0.852
3533.47	0.852
3542.1	0.853
3550.72	0.853
3559.34	0.854
3567.97	0.854
3576.59	0.856
3585.22	0.858
3593.84	0.858
3602.47	0.858
3611.09	0.858
3619.71	0.8587
3628.34	0.859
3636.96	0.858
3645.59	0.8587
3654.21	0.858
3662.84	0.856
3671.46	0.856
3680.08	0.856
3688.71	0.859
3697.33	0.86
3705.96	0.861
3714.58	0.861
3723.2	0.861
3731.83	0.861
3740.45	0.861
3749.08	0.863
3757.7	0.8617
3766.33	0.864
3774.95	0.8673
3783.57	0.868
3792.2	0.866
3800.82	0.8653
3809.45	0.864
3818.07	0.8583
3826.7	0.856
3835.32	0.856
3843.94	0.856
3852.57	0.8587
3861.19	0.8637
3869.82	0.869
3878.44	0.87
3887.07	0.869
3895.69	0.869
3904.31	0.869
3912.94	0.869
