Infrared Spectrum: Dibutyl sebacate
Formula: C18 H34 O4
CAS: 109-43-3
State: SOLUTION (10% CCl4 FOR 2.7-7.5, 10% CS2 FOR 7.5-26 MICRON) VS SOLVENT
Class: COBLENTZ
Instrument: DOW KBr FOREPRISM-GRATING
Instrument parameters: BLAZED AT 3.5, 12.0, 20.0 MICRON AND CHANGED AT 5.0, 7.5, 14.9 MICRON
Sampling: TRANSMISSION
Path length: 0.011 CM, 0.011 CM
Resolution: 2
Origin: DOW CHEMICAL COMPANY
1/CM	TRANSMITTANCE
3796	0.8365
3787	0.8375
3778	0.8388
3769	0.8401
3760	0.8416
3751	0.843
3742	0.8443
3733	0.8447
3724	0.8452
3715	0.8455
3706	0.846
3697	0.8461
3688	0.8461
3679	0.8461
3670	0.8462
3661	0.8458
3652	0.8454
3643	0.8449
3634	0.8448
3625	0.8451
3616	0.8455
3607	0.8457
3598	0.8471
3589	0.849
3580	0.851
3571	0.8525
3562	0.8536
3553	0.8547
3544	0.8558
3535	0.8568
3526	0.8581
3517	0.8592
3508	0.8603
3499	0.8615
3490	0.8628
3481	0.8636
3472	0.8631
3463	0.8573
3454	0.848
3445	0.838
3436	0.8285
3427	0.8348
3418	0.8445
3409	0.8554
3400	0.8623
3391	0.865
3382	0.867
3373	0.8687
3364	0.8703
3355	0.8711
3346	0.8718
3337	0.8725
3328	0.8733
3319	0.8739
3310	0.8748
3301	0.8759
3292	0.8768
3283	0.8778
3274	0.8778
3265	0.8775
3256	0.8773
3247	0.877
3238	0.8768
3229	0.8758
3220	0.8743
3211	0.8728
3202	0.8717
3193	0.8709
3184	0.8706
3175	0.87
3166	0.8696
3157	0.869
3148	0.8686
3139	0.8675
3130	0.867
3121	0.8659
3112	0.8645
3103	0.8628
3094	0.8609
3085	0.8585
3076	0.8544
3067	0.8492
3058	0.8428
3049	0.8341
3040	0.823
3031	0.8086
3022	0.7935
3013	0.7686
3004	0.7131
2995	0.5372
2986	0.402
2977	0.255
2968	0.108
2959	0.032
2950	0.0335
2941	0.0437
2932	0.0355
2923	0.0289
2914	0.0471
2905	0.0999
2896	0.1969
2887	0.2945
2878	0.2768
2869	0.1615
2860	0.1624
2851	0.1589
2842	0.2035
2833	0.537
2824	0.6405
2815	0.708
2806	0.7435
2797	0.7676
2788	0.785
2779	0.7951
2770	0.8028
2761	0.8084
2752	0.8115
2743	0.8133
2734	0.8134
2725	0.813
2716	0.8133
2707	0.8169
2698	0.8201
2689	0.8193
2680	0.8188
2671	0.8185
2662	0.8191
2653	0.8202
2644	0.8225
2635	0.8274
2626	0.8307
2617	0.8333
2608	0.8349
2599	0.8365
2590	0.8378
2581	0.8389
2572	0.84
2563	0.8408
2554	0.8421
2545	0.8446
2536	0.8481
2527	0.8515
2518	0.853
2509	0.8543
2500	0.8557
2491	0.8561
2482	0.8565
2473	0.8568
2464	0.8573
2455	0.8578
2446	0.8582
2437	0.858
2428	0.8578
2419	0.858
2410	0.8582
2401	0.8568
2392	0.8543
2383	0.8525
2374	0.8531
2365	0.8542
2356	0.8551
2347	0.8556
2338	0.8552
2329	0.8534
2320	0.8497
2311	0.8473
2302	0.8463
2293	0.8463
2284	0.8468
2275	0.8475
2266	0.8486
2257	0.8498
2248	0.8508
2239	0.8515
2230	0.8523
2221	0.8533
2212	0.8541
2203	0.8546
2194	0.855
2185	0.8559
2176	0.8611
2167	0.8598
2158	0.8582
2149	0.8578
2140	0.8578
2131	0.8578
2122	0.8574
2113	0.8571
2104	0.8568
2095	0.8573
2086	0.8571
2077	0.8552
2068	0.853
2059	0.851
2050	0.8491
2041	0.8478
2032	0.8477
2023	0.8478
2014	0.8491
2005	0.8517
1996	0.8552
1987	0.8562
1978	0.857
1969	0.8577
1960	0.8583
1951	0.8583
1942	0.8584
1933	0.8585
1924	0.8585
1915	0.8586
1906	0.8583
1897	0.858
1888	0.8578
1879	0.8578
1870	0.8578
1861	0.8574
1852	0.857
1843	0.8551
1834	0.8514
1825	0.8457
1816	0.8356
1807	0.821
1798	0.8054
1789	0.789
1780	0.7694
1771	0.7451
1762	0.6436
1753	0.5003
1744	0.1904
1735	0.0078
1726	0.004
1717	0.0865
1708	0.3825
1699	0.5573
1690	0.6081
1681	0.6648
1672	0.7255
1663	0.7665
1654	0.7896
1645	0.8064
1636	0.8169
1627	0.8255
1618	0.8334
1609	0.8387
1600	0.8421
1591	0.8443
1582	0.8453
1573	0.8457
1564	0.8467
1555	0.8495
1546	0.8528
1537	0.8514
1528	0.8425
1519	0.8336
1510	0.8242
1501	0.8096
1492	0.7874
1483	0.7168
1474	0.4931
1465	0.2202
1456	0.2693
1447	0.423
1438	0.5221
1429	0.5488
1420	0.4729
1411	0.5982
1402	0.6561
1393	0.4383
1384	0.4192
1375	0.4681
1366	0.4275
1357	0.3478
1348	0.363
1339	0.4184
1330	0.4542
1321	0.4364
1312	0.3992
1303	0.3658
1294	0.3659
1285	0.3699
1276	0.346
1267	0.2678
1258	0.2495
1249	0.2052
1240	0.1713
1231	0.1839
1222	0.2153
1213	0.2217
1204	0.1994
1195	0.1572
1186	0.1166
1177	0.076
1168	0.0444
1159	0.0681
1150	0.1445
1141	0.22
1132	0.3209
1123	0.3089
1114	0.343
1105	0.434
1096	0.361
1087	0.3708
1078	0.4679
1069	0.4688
1060	0.4057
1051	0.551
1042	0.629
1033	0.5901
1024	0.524
1015	0.5094
1006	0.5739
997	0.6043
988	0.6342
979	0.6542
970	0.6337
961	0.5764
952	0.5985
943	0.5989
934	0.6383
925	0.7011
916	0.7297
907	0.7493
898	0.7586
889	0.7585
880	0.7511
871	0.7451
862	0.7446
853	0.7588
844	0.7684
835	0.7311
826	0.7461
817	0.7615
808	0.7688
799	0.7735
790	0.7776
781	0.7801
772	0.7715
763	0.7693
754	0.7565
745	0.7392
736	0.7014
727	0.691
718	0.693
709	0.7707
700	0.7857
691	0.7999
682	0.8111
673	0.8199
664	0.8337
655	0.8328
646	0.8189
637	0.8156
628	0.8126
619	0.8101
610	0.8044
601	0.7984
592	0.7934
583	0.7871
574	0.7869
565	0.7992
556	0.8087
547	0.8125
538	0.8058
529	0.7953
520	0.7915
511	0.7804
502	0.7757
493	0.7854
484	0.7892
475	0.7895
466	0.7921
457	0.7934
448	0.7914
439	0.7815
430	0.7668
421	0.7684
412	0.7726
403	0.7761
394	0.7771
