Infrared Spectrum: ACETIC ACID, PROPYL ESTER
Formula: C5 H10 O2
CAS: 109-60-4
State: SOLUTION (LESS THAN10% IN CCl4 FOR 4000-1330 CM^-^1, LESS THAN 10% IN CS2 FOR 1330-600 CM^-^1)
Class: COBLENTZ III
Instrument: BECKMAN IR-7 (GRATING)
Instrument parameters: GRATING CHANGES AT 3000, 2200, 1150 CM^-^1
Sampling: TRANSMISSION
Path length: 0.011 CM, 0.010 CM
Resolution: 4
Origin: WESTERN REGIONAL RES. USDA
1/CM	TRANSMITTANCE
601.298	0.571
610.385	0.6019
619.471	0.755
628.558	0.789
637.645	0.645
646.731	0.716
655.818	0.754
664.905	0.782
673.992	0.825
683.078	0.851
692.165	0.863
701.252	0.865
710.338	0.862
719.425	0.851
728.512	0.868
737.598	0.858
746.685	0.838
755.772	0.737
764.858	0.807
773.945	0.856
783.032	0.865
792.119	0.857
801.205	0.861
810.292	0.859
819.379	0.847
828.465	0.8
837.552	0.696
846.639	0.714
855.725	0.678
864.812	0.67
873.899	0.687
882.986	0.654
892.072	0.547
901.159	0.616
910.246	0.591
919.332	0.735
928.419	0.778
937.506	0.814
946.592	0.78
955.679	0.6311
964.766	0.348
973.852	0.618
982.939	0.604
992.026	0.667
1001.11	0.565
1010.2	0.294
1019.29	0.251
1028.37	0.275
1037.46	0.19
1046.55	0.156
1055.63	0.205
1064.72	0.174
1073.81	0.455
1082.89	0.588
1091.98	0.636
1101.07	0.664
1110.15	0.706
1119.24	0.731
1128.33	0.752
1137.41	0.782
1146.5	0.778
1155.59	0.732
1164.67	0.728
1173.76	0.709
1182.85	0.657
1191.93	0.597
1201.02	0.437
1210.11	0.223
1219.19	0.023
1228.28	0.001
1237.37	0
1246.45	0.01
1255.54	0.041
1264.63	0.137
1273.71	0.298
1282.8	0.388
1291.89	0.523
1300.97	0.519
1310.06	0.577
1319.15	0.695
1328.23	0.708
1337.32	0.697
1346.41	0.626
1355.49	0.239
1364.58	0.119
1373.67	0.173
1382.75	0.284
1391.84	0.363
1400.93	0.523
1410.01	0.578
1419.1	0.537
1428.19	0.491
1437.27	0.444
1446.36	0.44
1455.45	0.297
1464.53	0.3
1473.62	0.431
1482.71	0.594
1491.79	0.636
1500.88	0.627
1509.97	0.598
1519.05	0.57
1528.14	0.539
1537.23	0.485
1546.31	0.438
1555.4	0.458
1564.49	0.529
1573.57	0.573
1582.66	0.583
1591.75	0.624
1600.83	0.685
1609.92	0.722
1619.01	0.744
1628.09	0.746
1637.18	0.734
1646.27	0.721
1655.35	0.701
1664.44	0.712
1673.53	0.706
1682.61	0.677
1691.7	0.609
1700.79	0.501
1709.87	0.375
1718.96	0.079
1728.05	0.012
1737.13	0
1746.22	0
1755.31	0.102
1764.39	0.321
1773.48	0.467
1782.57	0.574
1791.65	0.642
1800.74	0.698
1809.83	0.741
1818.91	0.764
1828	0.78
1837.09	0.793
1846.18	0.801
1855.26	0.8
1864.35	0.801
1873.44	0.81
1882.52	0.813
1891.61	0.82
1900.7	0.823
1909.78	0.822
1918.87	0.823
1927.96	0.825
1937.04	0.827
1946.13	0.831
1955.22	0.83
1964.3	0.834
1973.39	0.829
1982.48	0.821
1991.56	0.824
2000.65	0.827
2009.74	0.8278
2018.82	0.829
2027.91	0.8299
2037	0.8304
2046.08	0.832
2055.17	0.8325
2064.26	0.834
2073.34	0.8346
2082.43	0.836
2091.52	0.8367
2100.6	0.838
2109.69	0.838
2118.78	0.839
2127.86	0.8399
2136.95	0.841
2146.04	0.842
2155.12	0.841
2164.21	0.84
2173.3	0.8384
2182.38	0.836
2191.47	0.8333
2200.56	0.8322
2209.64	0.8403
2218.73	0.8476
2227.82	0.85
2236.9	0.849
2245.99	0.848
2255.08	0.8455
2264.16	0.843
2273.25	0.8404
2282.34	0.838
2291.42	0.8363
2300.51	0.836
2309.6	0.837
2318.68	0.8383
2327.77	0.8398
2336.86	0.8414
2345.94	0.843
2355.03	0.845
2364.12	0.846
2373.2	0.8475
2382.29	0.849
2391.38	0.85
2400.46	0.852
2409.55	0.8537
2418.64	0.854
2427.72	0.854
2436.81	0.8526
2445.9	0.8511
2454.98	0.85
2464.07	0.845
2473.16	0.84
2482.24	0.8329
2491.33	0.8251
2500.42	0.821
2509.5	0.8227
2518.59	0.836
2527.68	0.8466
2536.76	0.8547
2545.85	0.859
2554.94	0.861
2564.02	0.859
2573.11	0.8575
2582.2	0.855
2591.28	0.8534
2600.37	0.8489
2609.46	0.8463
2618.54	0.8462
2627.63	0.8478
2636.72	0.8493
2645.8	0.85
2654.89	0.85
2663.98	0.848
2673.06	0.847
2682.15	0.844
2691.24	0.841
2700.32	0.8369
2709.41	0.8333
2718.5	0.8298
2727.58	0.8272
2736.67	0.825
2745.76	0.825
2754.84	0.8264
2763.93	0.829
2773.02	0.8335
2782.1	0.836
2791.19	0.8366
2800.28	0.8339
2809.36	0.8274
2818.45	0.8132
2827.54	0.7943
2836.62	0.7622
2845.71	0.7257
2854.8	0.6468
2863.88	0.6236
2872.97	0.6119
2882.06	0.298
2891.14	0.3941
2900.23	0.4379
2909.32	0.4746
2918.4	0.4456
2927.49	0.2343
2936.58	0.205
2945.66	0.1912
2954.75	0.0969
2963.84	0.0807
2972.93	0.1895
2982.01	0.3014
2991.1	0.4021
3000.19	0.5907
3009.27	0.6733
3018.36	0.7203
3027.45	0.7317
3036.53	0.7559
3045.62	0.7819
3054.71	0.794
3063.79	0.8017
3072.88	0.8074
3081.97	0.811
3091.05	0.819
3100.14	0.8211
3109.23	0.827
3118.31	0.8291
3127.4	0.8307
3136.49	0.8332
3145.57	0.835
3154.66	0.836
3163.75	0.838
3172.83	0.838
3181.92	0.839
3191.01	0.839
3200.09	0.841
3209.18	0.8426
3218.27	0.8431
3227.35	0.845
3236.44	0.848
3245.53	0.849
3254.61	0.849
3263.7	0.849
3272.79	0.8486
3281.87	0.848
3290.96	0.848
3300.05	0.848
3309.13	0.848
3318.22	0.847
3327.31	0.847
3336.39	0.845
3345.48	0.843
3354.57	0.8405
3363.65	0.8344
3372.74	0.8296
3381.83	0.8309
3390.91	0.833
3400	0.832
3409.09	0.83
3418.17	0.8269
3427.26	0.8234
3436.35	0.8145
3445.43	0.7913
3454.52	0.7767
3463.61	0.7748
3472.69	0.7884
3481.78	0.8007
3490.87	0.8084
3499.95	0.812
3509.04	0.8115
3518.13	0.8079
3527.21	0.8044
3536.3	0.802
3545.39	0.802
3554.47	0.8022
3563.56	0.8048
3572.65	0.8103
3581.73	0.8157
3590.82	0.8233
3599.91	0.8338
3608.99	0.838
3618.08	0.838
3627.17	0.8386
3636.25	0.8393
3645.34	0.8467
3654.43	0.8532
3663.51	0.8492
3672.6	0.8414
3681.69	0.8294
3690.77	0.8236
3699.86	0.8358
3708.95	0.844
3718.03	0.849
3727.12	0.8546
3736.21	0.8561
3745.29	0.857
3754.38	0.858
3763.47	0.8573
3772.55	0.8567
3781.64	0.8542
3790.73	0.856
3799.81	0.857
3808.9	0.859
3817.99	0.859
3827.07	0.858
3836.16	0.8569
3845.25	0.8554
3854.33	0.854
3863.42	0.855
3872.51	0.856
3881.59	0.857
3890.68	0.857
3899.77	0.857
3908.85	0.857
3917.94	0.856
3927.03	0.8549
3936.11	0.853
3945.2	0.852
3954.29	0.85
3963.37	0.85
3972.46	0.848
3981.55	0.847
3990.63	0.8457
3999.72	0.8432
