Infrared Spectrum: Pyridine, 2-bromo-,
Formula: C5 H4 Br N
CAS: 109-04-6
State: LIQUID (NEAT)
Class: COBLENTZ III
Instrument: PERKIN-ELMER 21 (GRATING)
Instrument parameters: FILTER CHANGE ABOUT 1020 CM^-^1
Path length: 0.0015 CM
Resolution: 2
Origin: SOUTHERN RESEARCH INSTITUTE
1/CM	TRANSMITTANCE
603.138	0.5583
612.171	0.5588
621.205	0.5586
630.238	0.5584
639.271	0.5582
648.305	0.5582
657.338	0.5599
666.371	0.5628
675.404	0.5508
684.438	0.5199
693.471	0.3528
702.504	0.2619
711.538	0.5864
720.571	0.6016
729.604	0.5975
738.638	0.5667
747.671	0.4778
756.704	0.0468
765.738	0.0748
774.771	0.3309
783.804	0.622
792.837	0.7372
801.871	0.7678
810.904	0.781
819.937	0.7885
828.971	0.7939
838.004	0.7982
847.037	0.7995
856.071	0.7957
865.104	0.785
874.137	0.7615
883.171	0.776
892.204	0.792
901.237	0.7972
910.27	0.7941
919.304	0.7785
928.337	0.7492
937.37	0.7571
946.404	0.7633
955.437	0.7349
964.47	0.7279
973.504	0.7087
982.537	0.5258
991.57	0.3095
1000.6	0.6901
1009.64	0.6344
1018.67	0.6428
1027.7	0.7008
1036.74	0.6197
1045.77	0.3078
1054.8	0.6718
1063.84	0.574
1072.87	0.0625
1081.9	0.2129
1090.94	0.5195
1099.97	0.1805
1109	0.0807
1118.04	0.591
1127.07	0.69
1136.1	0.6878
1145.14	0.4469
1154.17	0.5068
1163.2	0.7828
1172.24	0.8063
1181.27	0.8228
1190.3	0.8281
1199.34	0.8283
1208.37	0.825
1217.4	0.8028
1226.44	0.7644
1235.47	0.6997
1244.5	0.7172
1253.54	0.8139
1262.57	0.8107
1271.6	0.7852
1280.64	0.6309
1289.67	0.6167
1298.7	0.7916
1307.74	0.8164
1316.77	0.8274
1325.8	0.8272
1334.84	0.8105
1343.87	0.7709
1352.9	0.7633
1361.94	0.7833
1370.97	0.7939
1380	0.7554
1389.04	0.6541
1398.07	0.5518
1407.1	0.1401
1416.14	0.034
1425.17	0.1435
1434.2	0.461
1443.24	0.2639
1452.27	0.0408
1461.3	0.2696
1470.34	0.5455
1479.37	0.7343
1488.4	0.7827
1497.44	0.8086
1506.47	0.8139
1515.5	0.8068
1524.54	0.7946
1533.57	0.7486
1542.6	0.6381
1551.64	0.2921
1560.67	0.038
1569.7	0.0633
1578.74	0.6261
1587.77	0.7134
1596.8	0.68
1605.84	0.7741
1614.87	0.8088
1623.9	0.8084
1632.94	0.7997
1641.97	0.7906
1651	0.7994
1660.04	0.8102
1669.07	0.8323
1678.1	0.8288
1687.14	0.83
1696.17	0.8446
1705.2	0.8281
1714.23	0.8273
1723.27	0.8301
1732.3	0.8323
1741.33	0.833
1750.37	0.8322
1759.4	0.8346
1768.43	0.8412
1777.47	0.8492
1786.5	0.8513
1795.53	0.8421
1804.57	0.8434
1813.6	0.835
1822.63	0.8189
1831.67	0.8068
1840.7	0.8087
1849.73	0.8198
1858.77	0.8267
1867.8	0.8287
1876.83	0.8314
1885.87	0.8336
1894.9	0.8346
1903.93	0.8289
1912.97	0.8225
1922	0.8282
1931.03	0.8254
1940.07	0.8173
1949.1	0.8091
1958.13	0.8092
1967.17	0.8124
1976.2	0.8135
1985.23	0.815
1994.27	0.8223
2003.3	0.8347
2012.33	0.8434
2021.37	0.8426
2030.4	0.8419
2039.43	0.8477
2048.47	0.8563
2057.5	0.8585
2066.53	0.8595
2075.57	0.8593
2084.6	0.8575
2093.63	0.8509
2102.67	0.8564
2111.7	0.8559
2120.73	0.8567
2129.77	0.8589
2138.8	0.8603
2147.83	0.8583
2156.87	0.8567
2165.9	0.8555
2174.93	0.8463
2183.97	0.839
2193	0.8453
2202.03	0.8434
2211.07	0.8355
2220.1	0.8393
2229.13	0.85
2238.17	0.8614
2247.2	0.8592
2256.23	0.8551
2265.27	0.8508
2274.3	0.8469
2283.33	0.8425
2292.37	0.8351
2301.4	0.8314
2310.43	0.8405
2319.47	0.8588
2328.5	0.8806
2337.53	0.8887
2346.57	0.89
2355.6	0.8894
2364.63	0.8849
2373.67	0.8772
2382.7	0.8681
2391.73	0.8615
2400.77	0.8585
2409.8	0.858
2418.83	0.8534
2427.87	0.8464
2436.9	0.8505
2445.93	0.8543
2454.97	0.8548
2464	0.8553
2473.03	0.8561
2482.07	0.8546
2491.1	0.8479
2500.13	0.8357
2509.17	0.8324
2518.2	0.8395
2527.23	0.8483
2536.27	0.8488
2545.3	0.8501
2554.33	0.8525
2563.37	0.8577
2572.4	0.858
2581.43	0.8577
2590.47	0.8572
2599.5	0.8567
2608.53	0.8554
2617.57	0.8522
2626.6	0.8506
2635.63	0.8532
2644.67	0.8549
2653.7	0.8543
2662.73	0.8544
2671.77	0.8578
2680.8	0.8624
2689.83	0.8645
2698.87	0.8628
2707.9	0.8588
2716.93	0.8575
2725.97	0.8605
2735	0.864
2744.03	0.8655
2753.07	0.8615
2762.1	0.8554
2771.13	0.85
2780.17	0.8512
2789.2	0.8524
2798.23	0.8541
2807.27	0.8549
2816.3	0.8554
2825.33	0.8541
2834.37	0.8502
2843.4	0.847
2852.43	0.8444
2861.47	0.8422
2870.5	0.8405
2879.53	0.8402
2888.57	0.8406
2897.6	0.8406
2906.63	0.8404
2915.66	0.8401
2924.7	0.8403
2933.73	0.8367
2942.76	0.8288
2951.8	0.8199
2960.83	0.8107
2969.86	0.8014
2978.9	0.795
2987.93	0.7843
2996.96	0.7812
3006	0.7689
3015.03	0.7423
3024.06	0.7108
3033.1	0.6676
3042.13	0.6055
3051.16	0.5583
3060.2	0.5716
3069.23	0.6257
3078.26	0.6603
3087.3	0.7056
3096.33	0.7681
3105.36	0.7827
3114.4	0.7881
3123.43	0.7907
3132.46	0.7926
3141.5	0.8001
3150.53	0.8138
3159.56	0.8253
3168.6	0.8348
3177.63	0.8451
3186.66	0.8482
3195.7	0.8506
3204.73	0.8518
3213.76	0.853
3222.8	0.8542
3231.83	0.8554
3240.86	0.8564
3249.9	0.8572
3258.93	0.8574
3267.96	0.8575
3277	0.8576
3286.03	0.8576
3295.06	0.8577
3304.1	0.8574
3313.13	0.8572
3322.16	0.8569
3331.2	0.8562
3340.23	0.8555
3349.26	0.8549
3358.3	0.8543
3367.33	0.8537
3376.36	0.853
3385.4	0.852
3394.43	0.8512
3403.46	0.8507
3412.5	0.8504
3421.53	0.8507
3430.56	0.8515
3439.6	0.8527
3448.63	0.8538
3457.66	0.8551
3466.7	0.8566
3475.73	0.858
3484.76	0.8592
3493.8	0.8601
3502.83	0.8609
3511.86	0.8612
3520.9	0.8608
3529.93	0.8607
3538.96	0.8609
3548	0.861
3557.03	0.8611
3566.06	0.8612
3575.1	0.8612
3584.13	0.8614
3593.16	0.8617
3602.2	0.862
3611.23	0.8622
3620.26	0.8622
3629.3	0.8623
3638.33	0.8626
3647.36	0.8631
3656.4	0.8637
3665.43	0.8637
3674.46	0.8635
3683.5	0.8621
3692.53	0.8604
3701.56	0.8605
3710.6	0.8613
3719.63	0.8627
3728.66	0.8654
3737.7	0.8689
3746.73	0.8688
3755.76	0.8683
3764.8	0.8689
3773.83	0.8695
3782.86	0.8699
3791.9	0.8693
3800.93	0.8683
3809.96	0.8663
3819	0.8644
3828.03	0.865
3837.06	0.8667
3846.1	0.87
3855.13	0.8733
3864.16	0.8764
3873.2	0.8793
3882.23	0.8808
3891.26	0.8803
3900.3	0.8794
3909.33	0.8785
