Infrared Spectrum: Myristic acid, isopropyl ester
Formula: C17 H34 O2
CAS: 110-27-0
State: SOLUTION (10% CCl4 FOR 3800-1330, 10% CS2 FOR 1330-450 CM^-^1)
Class: COBLENTZ III
Instrument: DOW KBr FOREPRISM-GRATING
Instrument parameters: BLAZED AT 3.5, 12.0, 20.0 MICRON AND CHANGED AT 5.0, 7.5, 14.9 MICRON
Sampling: TRANSMISSION
Path length: 0.011 CM, 0.011 CM
Resolution: 2
Origin: DOW CHEMICAL COMPANY
1/CM	TRANSMITTANCE
455	0.7852
464	0.7947
473	0.8042
482	0.81
491	0.812
500	0.8105
509	0.8126
518	0.8194
527	0.8269
536	0.8336
545	0.8394
554	0.8449
563	0.8503
572	0.8442
581	0.8293
590	0.819
599	0.8285
608	0.8299
617	0.8386
626	0.8341
635	0.8217
644	0.8018
653	0.7911
662	0.8209
671	0.8656
680	0.868
689	0.8636
698	0.8498
707	0.8139
716	0.7137
725	0.6996
734	0.789
743	0.8122
752	0.8324
761	0.8377
770	0.8424
779	0.8428
788	0.8471
797	0.8508
806	0.8328
815	0.7862
824	0.7441
833	0.7986
842	0.7946
851	0.7259
860	0.7112
869	0.7275
878	0.7473
887	0.7674
896	0.7712
905	0.8142
914	0.81
923	0.7798
932	0.7407
941	0.742
950	0.7016
959	0.6509
968	0.6852
977	0.7598
986	0.792
995	0.8068
1004	0.8063
1013	0.8048
1022	0.8022
1031	0.8007
1040	0.7913
1049	0.7662
1058	0.7318
1067	0.7055
1076	0.6686
1085	0.6113
1094	0.5132
1103	0.0608
1112	0.068
1121	0.3366
1130	0.5403
1139	0.4305
1148	0.4034
1157	0.367
1166	0.2556
1175	0.1556
1184	0.2053
1193	0.2762
1202	0.3404
1211	0.3925
1220	0.4084
1229	0.4044
1238	0.3657
1247	0.3208
1256	0.3555
1265	0.4259
1274	0.4962
1283	0.5133
1292	0.5212
1301	0.5134
1310	0.5304
1319	0.5579
1328	0.5534
1337	0.5349
1346	0.5576
1355	0.5203
1364	0.4493
1373	0.1788
1382	0.423
1391	0.6585
1400	0.7258
1409	0.709
1418	0.5889
1427	0.6373
1436	0.5594
1445	0.4878
1454	0.2886
1463	0.214
1472	0.3921
1481	0.7037
1490	0.7129
1499	0.6949
1508	0.6642
1517	0.6289
1526	0.5928
1535	0.5429
1544	0.4757
1553	0.4523
1562	0.5205
1571	0.5843
1580	0.5969
1589	0.643
1598	0.7104
1607	0.7602
1616	0.7879
1625	0.7981
1634	0.803
1643	0.8038
1652	0.7968
1661	0.7873
1670	0.7735
1679	0.748
1688	0.7017
1697	0.6719
1706	0.6014
1715	0.2652
1724	0.0319
1733	0.0086
1742	0.1653
1751	0.5391
1760	0.6678
1769	0.7179
1778	0.768
1787	0.7883
1796	0.7988
1805	0.8083
1814	0.8149
1823	0.8198
1832	0.8222
1841	0.8239
1850	0.8262
1859	0.8272
1868	0.8312
1877	0.8344
1886	0.8343
1895	0.8344
1904	0.8353
1913	0.837
1922	0.8311
1931	0.8327
1940	0.8354
1949	0.8375
1958	0.8381
1967	0.8377
1976	0.8357
1985	0.8314
1994	0.827
2003	0.8234
2012	0.8206
2021	0.821
2030	0.8224
2039	0.824
2048	0.8255
2057	0.8267
2066	0.8279
2075	0.8292
2084	0.8307
2093	0.8327
2102	0.8349
2111	0.8373
2120	0.8401
2129	0.8404
2138	0.8378
2147	0.8362
2156	0.8375
2165	0.8385
2174	0.8383
2183	0.8383
2192	0.8383
2201	0.8384
2210	0.8386
2219	0.8382
2228	0.8372
2237	0.8348
2246	0.8311
2255	0.8261
2264	0.8211
2273	0.8171
2282	0.8148
2291	0.8132
2300	0.8124
2309	0.8136
2318	0.8162
2327	0.8191
2336	0.8223
2345	0.8258
2354	0.8293
2363	0.8319
2372	0.8342
2381	0.8365
2390	0.8385
2399	0.8403
2408	0.842
2417	0.8432
2426	0.8446
2435	0.8459
2444	0.8474
2453	0.8477
2462	0.8477
2471	0.8467
2480	0.8451
2489	0.8435
2498	0.8414
2507	0.8389
2516	0.8367
2525	0.8378
2534	0.8418
2543	0.8401
2552	0.8376
2561	0.8349
2570	0.832
2579	0.8289
2588	0.8258
2597	0.8226
2606	0.8192
2615	0.8158
2624	0.8126
2633	0.8094
2642	0.8059
2651	0.8017
2660	0.7981
2669	0.7957
2678	0.796
2687	0.7997
2696	0.8043
2705	0.8061
2714	0.8022
2723	0.7958
2732	0.7942
2741	0.7979
2750	0.8022
2759	0.7992
2768	0.7915
2777	0.7795
2786	0.7652
2795	0.7426
2804	0.7144
2813	0.683
2822	0.6397
2831	0.5446
2840	0.3422
2849	0.0469
2858	0.059
2867	0.1718
2876	0.2649
2885	0.2307
2894	0.147
2903	0.0633
2912	0.0176
2921	0.0082
2930	0.0125
2939	0.0376
2948	0.0721
2957	0.0942
2966	0.1609
2975	0.1506
2984	0.2646
2993	0.4499
3002	0.6494
3011	0.7236
3020	0.7524
3029	0.7724
3038	0.7876
3047	0.8006
3056	0.8117
3065	0.8199
3074	0.8267
3083	0.832
3092	0.8363
3101	0.8401
3110	0.8427
3119	0.8444
3128	0.8452
3137	0.8465
3146	0.848
3155	0.8485
3164	0.8487
3173	0.8496
3182	0.8504
3191	0.8512
3200	0.8532
3209	0.8556
3218	0.8584
3227	0.8609
3236	0.8635
3245	0.865
3254	0.8662
3263	0.8667
3272	0.8671
3281	0.8677
3290	0.8693
3299	0.8711
3308	0.8717
3317	0.8715
3326	0.8713
3335	0.871
3344	0.8708
3353	0.8707
3362	0.8709
3371	0.871
3380	0.8716
3389	0.872
3398	0.8703
3407	0.866
3416	0.8605
3425	0.8542
3434	0.8512
3443	0.8561
3452	0.8629
3461	0.8692
3470	0.8722
3479	0.8727
3488	0.8731
3497	0.8733
3506	0.8736
3515	0.8738
3524	0.8741
3533	0.8743
3542	0.8747
3551	0.8745
3560	0.8714
3569	0.871
3578	0.8729
3587	0.869
3596	0.8661
3605	0.8719
3614	0.8744
3623	0.8745
3632	0.8738
3641	0.8731
3650	0.8723
3659	0.8714
3668	0.8705
3677	0.8708
3686	0.8731
3695	0.8767
3704	0.8789
3713	0.8793
3722	0.8795
3731	0.8789
3740	0.8785
3749	0.8785
3758	0.8786
3767	0.8787
3776	0.8789
3785	0.8784
3794	0.878
