Infrared Spectrum: TRANS 1,4-DICHLORO-2-BUTENE
Formula: C4 H6 Cl2
CAS: 110-57-6
State: SOLUTION (10% CCl4 FOR 2.5-7.5, 10% CS2 FOR 7.5-16 MICRON)
Class: COBLENTZ
Instrument: Not specified, most likely a prism, grating, or hybrid spectrometer.
Sampling: TRANSMISSION
Path length: 0.01 CM, 0.01 CM
Resolution: 4
Origin: DOW CHEMICAL COMPANY
MICROMETERS	TRANSMITTANCE
2.078	0.9
2.11896	0.905
2.15991	0.905
2.20087	0.908
2.24183	0.908
2.28279	0.905
2.32374	0.894
2.3647	0.894
2.40566	0.898
2.44662	0.905
2.48757	0.908
2.52853	0.91
2.56949	0.908
2.61045	0.908
2.6514	0.906
2.69236	0.906
2.73332	0.908
2.77428	0.905
2.81523	0.9
2.85619	0.896
2.89715	0.894
2.93811	0.889
2.97906	0.881
3.02002	0.877
3.06098	0.879
3.10193	0.877
3.14289	0.881
3.18385	0.884
3.22481	0.888
3.26576	0.888
3.30672	0.862
3.34768	0.805
3.38864	0.805
3.42959	0.657
3.47055	0.791
3.51151	0.864
3.55247	0.847
3.59342	0.888
3.63438	0.903
3.67534	0.905
3.7163	0.901
3.75725	0.901
3.79821	0.903
3.83917	0.916
3.88013	0.915
3.92108	0.915
3.96204	0.915
4.003	0.911
4.04396	0.913
4.08491	0.913
4.12587	0.916
4.16683	0.911
4.20778	0.908
4.24874	0.918
4.2897	0.91
4.33066	0.9
4.37161	0.894
4.41257	0.893
4.45353	0.901
4.49449	0.905
4.53544	0.91
4.5764	0.913
4.61736	0.915
4.65832	0.916
4.69927	0.915
4.74023	0.915
4.78119	0.913
4.82215	0.913
4.8631	0.916
4.90406	0.915
4.94502	0.91
4.98598	0.905
5.02693	0.908
5.06789	0.911
5.10885	0.915
5.1498	0.916
5.19076	0.916
5.23172	0.913
5.27268	0.91
5.31363	0.9
5.35459	0.9
5.39555	0.906
5.43651	0.91
5.47746	0.911
5.51842	0.911
5.55938	0.913
5.60034	0.911
5.64129	0.908
5.68225	0.9
5.72321	0.898
5.76417	0.901
5.80512	0.901
5.84608	0.905
5.88704	0.898
5.928	0.896
5.96895	0.872
6.00991	0.866
6.05087	0.877
6.09182	0.864
6.13278	0.867
6.17374	0.867
6.2147	0.828
6.25565	0.745
6.29661	0.676
6.33757	0.649
6.37853	0.6
6.41948	0.538
6.46044	0.5
6.5014	0.549
6.54236	0.642
6.58331	0.693
6.62427	0.732
6.66523	0.793
6.70619	0.833
6.74714	0.861
6.7881	0.866
6.82906	0.855
6.87002	0.716
6.91097	0.601
6.95193	0.598
6.99289	0.744
7.03384	0.845
7.0748	0.886
7.11576	0.894
7.15672	0.9
7.19767	0.9
7.23863	0.898
7.27959	0.896
7.32055	0.891
7.3615	0.893
7.40246	0.888
7.44342	0.871
7.48438	0.806
7.52533	0.689
7.56629	0.586
7.60725	0.489
7.64821	0.594
7.68916	0.655
7.73012	0.686
7.77108	0.715
7.81204	0.667
7.85299	0.6
7.89395	0.61
7.93491	0.506
7.97587	0.401
8.01682	0.211
8.05778	0.277
8.09874	0.566
8.13969	0.781
8.18065	0.813
8.22161	0.842
8.26257	0.854
8.30352	0.862
8.34448	0.855
8.38544	0.85
8.4264	0.844
8.46735	0.823
8.50831	0.811
8.54927	0.823
8.59023	0.818
8.63118	0.801
8.67214	0.806
8.7131	0.815
8.75406	0.774
8.79501	0.733
8.83597	0.813
8.87693	0.838
8.91789	0.847
8.95884	0.861
8.9998	0.866
9.04076	0.864
9.08171	0.857
9.12267	0.845
9.16363	0.803
9.20459	0.762
9.24554	0.635
9.2865	0.638
9.32746	0.749
9.36842	0.827
9.40937	0.854
9.45033	0.864
9.49129	0.871
9.53225	0.871
9.5732	0.884
9.61416	0.891
9.65512	0.891
9.69608	0.888
9.73703	0.872
9.77799	0.842
9.81895	0.816
9.85991	0.806
9.90086	0.823
9.94182	0.845
9.98278	0.857
10.0237	0.861
10.0647	0.852
10.1056	0.844
10.1466	0.818
10.1876	0.798
10.2285	0.733
10.2695	0.647
10.3104	0.461
10.3514	0.198
10.3924	0.081
10.4333	0.081
10.4743	0.189
10.5152	0.376
10.5562	0.596
10.5971	0.728
10.6381	0.762
10.6791	0.794
10.72	0.81
10.761	0.82
10.8019	0.825
10.8429	0.818
10.8838	0.8
10.9248	0.794
10.9658	0.798
11.0067	0.794
11.0477	0.791
11.0886	0.827
11.1296	0.85
11.1705	0.855
11.2115	0.854
11.2525	0.844
11.2934	0.83
11.3344	0.82
11.3753	0.81
11.4163	0.8
11.4572	0.793
11.4982	0.783
11.5392	0.774
11.5801	0.766
11.6211	0.757
11.662	0.749
11.703	0.747
11.7439	0.759
11.7849	0.783
11.8259	0.82
11.8668	0.842
11.9078	0.859
11.9487	0.871
11.9897	0.888
12.0306	0.891
12.0716	0.889
12.1126	0.884
12.1535	0.883
12.1945	0.879
12.2354	0.872
12.2764	0.866
12.3173	0.864
12.3583	0.859
12.3993	0.857
12.4402	0.852
12.4812	0.844
12.5221	0.83
12.5631	0.808
12.6041	0.798
12.645	0.783
12.686	0.767
12.7269	0.762
12.7679	0.761
12.8088	0.762
12.8498	0.769
12.8908	0.766
12.9317	0.764
12.9727	0.755
13.0136	0.75
13.0546	0.745
13.0955	0.747
13.1365	0.752
13.1775	0.757
13.2184	0.757
13.2594	0.755
13.3003	0.75
13.3413	0.744
13.3822	0.733
13.4232	0.718
13.4642	0.7
13.5051	0.684
13.5461	0.657
13.587	0.625
13.628	0.588
13.6689	0.528
13.7099	0.472
13.7509	0.4
13.7918	0.327
13.8328	0.276
13.8737	0.23
13.9147	0.198
13.9556	0.171
13.9966	0.164
14.0376	0.166
14.0785	0.181
14.1195	0.206
14.1604	0.232
14.2014	0.259
14.2423	0.303
14.2833	0.327
14.3243	0.359
14.3652	0.384
14.4062	0.406
14.4471	0.422
14.4881	0.432
14.529	0.437
14.57	0.437
14.611	0.427
14.6519	0.418
14.6929	0.413
14.7338	0.405
14.7748	0.401
14.8158	0.396
14.8567	0.391
14.8977	0.386
14.9386	0.389
14.9796	0.406
15.0205	0.422
15.0615	0.435
15.1025	0.459
15.1434	0.477
15.1844	0.5
15.2253	0.51
15.2663	0.52
15.3072	0.523
15.3482	0.533
15.3892	0.544
15.4301	0.549
15.4711	0.559
15.512	0.564
15.553	0.567
15.5939	0.569
15.6349	0.574
15.6759	0.579
15.7168	0.579
15.7578	0.583
15.7987	0.581
15.8397	0.584
15.8806	0.584
15.9216	0.586
