Infrared Spectrum: SUCCINIC ACID
Formula: C4 H6 O4
CAS: 110-15-6
State: SOLID (NUJOL MULL)
Class: COBLENTZ
Instrument: Not specified, most likely a grating spectrometer.
Sampling: TRANSMISSION
Resolution: 4
Origin: ABBOTT LABORATORIES
MICROMETERS	TRANSMITTANCE
1.964	0.924
1.99985	0.924
2.03571	0.923
2.07156	0.926
2.10742	0.931
2.14327	0.942
2.17912	0.951
2.21498	0.954
2.25083	0.954
2.28668	0.952
2.32254	0.944
2.35839	0.94
2.39425	0.954
2.4301	0.966
2.46595	0.959
2.50181	0.961
2.53766	0.965
2.57352	0.977
2.60937	0.98
2.64522	0.982
2.68108	0.986
2.71693	0.989
2.75278	0.98
2.78864	0.982
2.82449	0.98
2.86035	0.97
2.8962	0.951
2.93205	0.916
2.96791	0.842
3.00376	0.746
3.03962	0.646
3.07547	0.568
3.11132	0.508
3.14718	0.433
3.18303	0.379
3.21888	0.318
3.25474	0.267
3.29059	0.234
3.32645	0.215
3.3623	0.141
3.39815	0.073
3.43401	0.029
3.46986	0.047
3.50572	0.071
3.54157	0.155
3.57742	0.213
3.61328	0.251
3.64913	0.253
3.68498	0.256
3.72084	0.277
3.75669	0.277
3.79255	0.244
3.8284	0.23
3.86425	0.237
3.90011	0.286
3.93596	0.274
3.97182	0.267
4.00767	0.291
4.04352	0.33
4.07938	0.356
4.11523	0.389
4.15108	0.402
4.18694	0.433
4.22279	0.466
4.25865	0.494
4.2945	0.496
4.33035	0.501
4.36621	0.543
4.40206	0.575
4.43792	0.576
4.47377	0.573
4.50962	0.601
4.54548	0.618
4.58133	0.641
4.61718	0.653
4.65304	0.666
4.68889	0.669
4.72475	0.671
4.7606	0.685
4.79645	0.685
4.83231	0.678
4.86816	0.685
4.90402	0.697
4.93987	0.697
4.97572	0.702
5.01158	0.702
5.04743	0.704
5.08328	0.711
5.11914	0.715
5.15499	0.709
5.19085	0.702
5.2267	0.692
5.26255	0.683
5.29841	0.664
5.33426	0.648
5.37012	0.638
5.40597	0.627
5.44182	0.617
5.47768	0.568
5.51353	0.555
5.54938	0.55
5.58524	0.529
5.62109	0.505
5.65695	0.477
5.6928	0.421
5.72865	0.356
5.76451	0.204
5.80036	0.089
5.83622	0.066
5.87207	0.017
5.90792	0.015
5.94378	0.027
5.97963	0.152
6.01548	0.239
6.05134	0.354
6.08719	0.431
6.12305	0.519
6.1589	0.578
6.19475	0.62
6.23061	0.657
6.26646	0.69
6.30232	0.718
6.33817	0.739
6.37402	0.734
6.40988	0.75
6.44573	0.776
6.48158	0.795
6.51744	0.797
6.55329	0.797
6.58915	0.8
6.625	0.784
6.66085	0.786
6.69671	0.772
6.73256	0.743
6.76842	0.699
6.80427	0.639
6.84012	0.529
6.87598	0.405
6.91183	0.379
6.94768	0.353
6.98354	0.267
7.01939	0.139
7.05525	0.09
7.0911	0.08
7.12695	0.129
7.16281	0.253
7.19866	0.344
7.23452	0.437
7.27037	0.456
7.30622	0.451
7.34208	0.503
7.37793	0.533
7.41378	0.536
7.44964	0.458
7.48549	0.304
7.52135	0.19
7.5572	0.145
7.59305	0.148
7.62891	0.138
7.66476	0.117
7.70062	0.138
7.73647	0.176
7.77232	0.234
7.80818	0.326
7.84403	0.417
7.87988	0.524
7.91574	0.599
7.95159	0.659
7.98745	0.687
8.0233	0.723
8.05915	0.75
8.09501	0.755
8.13086	0.748
8.16672	0.73
8.20257	0.613
8.23842	0.368
8.27428	0.187
8.31013	0.127
8.34598	0.068
8.38184	0.083
8.41769	0.164
8.45355	0.281
8.4894	0.388
8.52525	0.267
8.56111	0.346
8.59696	0.5
8.63282	0.552
8.66867	0.604
8.70452	0.632
8.74038	0.648
8.77623	0.667
8.81208	0.685
8.84794	0.692
8.88379	0.699
8.91965	0.709
8.9555	0.722
8.99135	0.729
9.02721	0.732
9.06306	0.736
9.09892	0.741
9.13477	0.743
9.17062	0.743
9.20648	0.743
9.24233	0.743
9.27818	0.744
9.31404	0.746
9.34989	0.756
9.38575	0.758
9.4216	0.76
9.45745	0.767
9.49331	0.765
9.52916	0.751
9.56502	0.76
9.60087	0.755
9.63672	0.746
9.67258	0.744
9.70843	0.744
9.74428	0.744
9.78014	0.744
9.81599	0.739
9.85185	0.734
9.8877	0.727
9.92355	0.722
9.95941	0.702
9.99526	0.694
10.0311	0.683
10.067	0.676
10.1028	0.669
10.1387	0.648
10.1745	0.624
10.2104	0.596
10.2462	0.576
10.2821	0.552
10.3179	0.526
10.3538	0.496
10.3897	0.473
10.4255	0.445
10.4614	0.417
10.4972	0.395
10.5331	0.374
10.5689	0.349
10.6048	0.344
10.6406	0.328
10.6765	0.323
10.7123	0.311
10.7482	0.297
10.784	0.288
10.8199	0.286
10.8558	0.284
10.8916	0.284
10.9275	0.302
10.9633	0.319
10.9992	0.33
11.035	0.346
11.0709	0.368
11.1067	0.395
11.1426	0.41
11.1784	0.403
11.2143	0.398
11.2501	0.423
11.286	0.486
11.3219	0.527
11.3577	0.564
11.3936	0.594
11.4294	0.625
11.4653	0.657
11.5011	0.674
11.537	0.692
11.5728	0.701
11.6087	0.716
11.6445	0.729
11.6804	0.743
11.7162	0.746
11.7521	0.762
11.788	0.776
11.8238	0.783
11.8597	0.786
11.8955	0.788
11.9314	0.793
11.9672	0.797
12.0031	0.8
12.0389	0.802
12.0748	0.804
12.1106	0.804
12.1465	0.802
12.1823	0.797
12.2182	0.781
12.2541	0.736
12.2899	0.671
12.3258	0.648
12.3616	0.66
12.3975	0.659
12.4333	0.587
12.4692	0.491
12.505	0.541
12.5409	0.657
12.5767	0.725
12.6126	0.776
12.6484	0.8
12.6843	0.821
12.7202	0.833
12.756	0.842
12.7919	0.844
12.8277	0.849
12.8636	0.849
12.8994	0.851
12.9353	0.853
12.9711	0.847
13.007	0.853
13.0428	0.856
13.0787	0.853
13.1145	0.856
13.1504	0.856
13.1863	0.86
13.2221	0.86
13.258	0.856
13.2938	0.865
13.3297	0.861
13.3655	0.863
13.4014	0.858
13.4372	0.865
13.4731	0.853
13.5089	0.856
13.5448	0.851
13.5806	0.851
13.6165	0.847
13.6524	0.851
13.6882	0.847
13.7241	0.842
13.7599	0.84
13.7958	0.837
13.8316	0.828
13.8675	0.826
13.9033	0.828
13.9392	0.83
13.975	0.835
14.0109	0.83
14.0467	0.833
14.0826	0.833
14.1185	0.828
14.1543	0.83
14.1902	0.83
14.226	0.833
14.2619	0.832
14.2977	0.833
14.3336	0.828
14.3694	0.83
14.4053	0.833
14.4411	0.826
14.477	0.832
14.5128	0.825
14.5487	0.823
14.5846	0.821
14.6204	0.819
14.6563	0.818
14.6921	0.819
14.728	0.814
14.7638	0.805
14.7997	0.807
14.8355	0.804
14.8714	0.804
14.9072	0.798
14.9431	0.795
14.9789	0.786
15.0148	0.765
15.0507	0.762
15.0865	0.756
15.1224	0.753
15.1582	0.736
15.1941	0.722
15.2299	0.708
15.2658	0.678
15.3016	0.646
15.3375	0.594
15.3733	0.554
15.4092	0.477
15.445	0.388
15.4809	0.323
