Infrared Spectrum: 2-HEPTANONE
Formula: C7 H14 O
CAS: 110-43-0
State: VAPOR (22 MICROLITER AT 150 C)
Boiling point: 151 C
Class: COBLENTZ
Instrument: PERKIN-ELMER 180
Sampling: TRANSMISSION
Path length: 5 CM KBr CELL, CELL VOLUME: 80 CM^3
Resolution: 2-3 CM^-^1
Origin: PERKIN-ELMER CORP. (M. ZELLER)
1/CM	TRANSMITTANCE
396.085	0.472
405.22	0.5059
414.356	0.565
423.491	0.624
432.627	0.684
441.762	0.727
450.898	0.763
460.033	0.795
469.169	0.818
478.304	0.844
487.44	0.865
496.575	0.873
505.711	0.844
514.846	0.835
523.981	0.831
533.117	0.839
542.252	0.874
551.388	0.899
560.523	0.905
569.659	0.896
578.794	0.871
587.93	0.853
597.065	0.861
606.201	0.9
615.336	0.924
624.472	0.937
633.607	0.939
642.742	0.945
651.878	0.945
661.013	0.946
670.149	0.938
679.284	0.939
688.42	0.933
697.555	0.92
706.691	0.887
715.826	0.866
724.962	0.878
734.097	0.897
743.233	0.912
752.368	0.914
761.503	0.912
770.639	0.914
779.774	0.914
788.91	0.916
798.045	0.918
807.181	0.922
816.316	0.925
825.452	0.929
834.587	0.926
843.723	0.933
852.858	0.931
861.993	0.933
871.129	0.933
880.264	0.928
889.4	0.92
898.535	0.909
907.671	0.887
916.806	0.865
925.942	0.833
935.077	0.829
944.213	0.841
953.348	0.856
962.484	0.852
971.619	0.848
980.754	0.862
989.89	0.875
999.025	0.88
1008.16	0.871
1017.3	0.87
1026.43	0.871
1035.57	0.879
1044.7	0.883
1053.84	0.882
1062.97	0.88
1072.11	0.876
1081.24	0.865
1090.38	0.852
1099.52	0.825
1108.65	0.803
1117.79	0.798
1126.92	0.786
1136.06	0.757
1145.19	0.662
1154.33	0.4689
1163.46	0.357
1172.6	0.41
1181.73	0.598
1190.87	0.671
1200.01	0.678
1209.14	0.654
1218.28	0.616
1227.41	0.621
1236.55	0.67
1245.68	0.714
1254.82	0.759
1263.95	0.768
1273.09	0.757
1282.22	0.75
1291.36	0.739
1300.5	0.743
1309.63	0.746
1318.77	0.735
1327.9	0.693
1337.04	0.6119
1346.17	0.482
1355.31	0.331
1364.44	0.311
1373.58	0.4339
1382.71	0.583
1391.85	0.651
1400.99	0.672
1410.12	0.654
1419.26	0.638
1428.39	0.638
1437.53	0.636
1446.66	0.609
1455.8	0.586
1464.93	0.613
1474.07	0.691
1483.2	0.756
1492.34	0.803
1501.48	0.818
1510.61	0.832
1519.75	0.832
1528.88	0.831
1538.02	0.831
1547.15	0.836
1556.29	0.833
1565.42	0.84
1574.56	0.839
1583.69	0.84
1592.83	0.844
1601.97	0.846
1611.1	0.844
1620.24	0.844
1629.37	0.849
1638.51	0.846
1647.64	0.84
1656.78	0.837
1665.91	0.819
1675.05	0.778
1684.18	0.727
1693.32	0.64
1702.46	0.5237
1711.59	0.336
1720.73	0.146
1729.86	0.073
1739	0.106
1748.13	0.287
1757.27	0.5151
1766.4	0.6541
1775.54	0.74
1784.68	0.803
1793.81	0.844
1802.95	0.869
1812.08	0.879
1821.22	0.888
1830.35	0.895
1839.49	0.897
1848.62	0.896
1857.76	0.9
1866.89	0.897
1876.03	0.9
1885.17	0.901
1894.3	0.903
1903.44	0.903
1912.57	0.901
1921.71	0.897
1930.84	0.9
1939.98	0.899
1949.11	0.899
1958.25	0.896
1967.38	0.9
1976.52	0.9
1985.66	0.9
1994.79	0.9
2003.93	0.899
2013.06	0.896
2022.2	0.895
2031.33	0.896
2040.47	0.893
2049.6	0.89
2058.74	0.8994
2067.87	0.887
2077.01	0.8896
2086.15	0.8911
2095.28	0.887
2104.42	0.8898
2113.55	0.8889
2122.69	0.8869
2131.82	0.8874
2140.96	0.8862
2150.09	0.8847
2159.23	0.886
2168.36	0.883
2177.5	0.883
2186.64	0.884
2195.77	0.8822
2204.91	0.8805
2214.04	0.8868
2223.18	0.8855
2232.31	0.884
2241.45	0.883
2250.58	0.8806
2259.72	0.8782
2268.85	0.8783
2277.99	0.8738
2287.13	0.8716
2296.26	0.8698
2305.4	0.8663
2314.53	0.863
2323.67	0.8643
2332.8	0.8699
2341.94	0.866
2351.07	0.8652
2360.21	0.8682
2369.34	0.874
2378.48	0.8734
2387.62	0.8741
2396.75	0.8719
2405.89	0.8711
2415.02	0.875
2424.16	0.871
2433.29	0.87
2442.43	0.871
2451.56	0.8735
2460.7	0.8711
2469.83	0.867
2478.97	0.867
2488.11	0.8683
2497.24	0.869
2506.38	0.8641
2515.51	0.861
2524.65	0.8614
2533.78	0.8629
2542.92	0.862
2552.05	0.8584
2561.19	0.8566
2570.32	0.853
2579.46	0.853
2588.6	0.853
2597.73	0.8514
2606.87	0.8492
2616	0.8447
2625.14	0.84
2634.27	0.8434
2643.41	0.842
2652.54	0.8405
2661.68	0.8322
2670.81	0.8352
2679.95	0.8328
2689.09	0.833
2698.22	0.835
2707.36	0.832
2716.49	0.8296
2725.63	0.8235
2734.76	0.8183
2743.9	0.8145
2753.03	0.8169
2762.17	0.8157
2771.3	0.8104
2780.44	0.7974
2789.58	0.784
2798.71	0.7648
2807.85	0.7508
2816.98	0.7292
2826.12	0.6812
2835.25	0.6271
2844.39	0.4758
2853.52	0.3691
2862.66	0.2892
2871.79	0.257
2880.93	0.263
2890.07	0.276
2899.2	0.2496
2908.34	0.1684
2917.47	0.1074
2926.61	0.0563
2935.74	0.0538
2944.88	0.0689
2954.01	0.0643
2963.15	0.0882
2972.28	0.2151
2981.42	0.3995
2990.56	0.5458
2999.69	0.594
3008.83	0.6294
3017.96	0.67
3027.1	0.702
3036.23	0.7205
3045.37	0.7346
3054.5	0.74
3063.64	0.7466
3072.77	0.7512
3081.91	0.7596
3091.05	0.7648
3100.18	0.7765
3109.32	0.781
3118.45	0.7827
3127.59	0.789
3136.72	0.791
3145.86	0.791
3154.99	0.7894
3164.13	0.789
3173.27	0.791
3182.4	0.7903
3191.54	0.793
3200.67	0.795
3209.81	0.7993
3218.94	0.801
3228.08	0.801
3237.21	0.8026
3246.35	0.802
3255.48	0.802
3264.62	0.803
3273.76	0.804
3282.89	0.804
3292.03	0.8049
3301.16	0.804
3310.3	0.803
3319.43	0.801
3328.57	0.801
3337.7	0.799
3346.84	0.797
3355.97	0.794
3365.11	0.793
3374.25	0.794
3383.38	0.791
3392.52	0.79
3401.65	0.7866
3410.79	0.7811
3419.92	0.7766
3429.06	0.7693
3438.19	0.7638
3447.33	0.7699
3456.46	0.7807
3465.6	0.7869
3474.74	0.791
3483.87	0.791
3493.01	0.793
3502.14	0.794
3511.28	0.793
3520.41	0.7902
3529.55	0.79
3538.68	0.787
3547.82	0.7855
3556.95	0.7733
3566.09	0.7765
3575.23	0.782
3584.36	0.785
3593.5	0.785
3602.63	0.7874
3611.77	0.7836
3620.9	0.786
3630.04	0.7827
3639.17	0.7816
3648.31	0.7844
3657.44	0.778
3666.58	0.7816
3675.72	0.7779
3684.85	0.78
3693.99	0.78
3703.12	0.778
3712.26	0.7761
3721.39	0.7734
3730.53	0.77
3739.66	0.77
3748.8	0.77
3757.93	0.7751
3767.07	0.774
3776.21	0.772
3785.34	0.77
3794.48	0.77
3803.61	0.77
3812.75	0.7685
3821.88	0.7652
3831.02	0.7644
3840.15	0.763
3849.29	0.7659
3858.42	0.761
3867.56	0.7662
3876.7	0.7613
3885.83	0.76
3894.97	0.7613
3904.1	0.76
3913.24	0.757
3922.37	0.758
3931.51	0.7562
3940.64	0.7597
3949.78	0.7534
3958.91	0.7557
