Infrared Spectrum: DECANEDIOIC ACID, DIETHYL ESTER
Formula: C14 H26 O4
CAS: 110-40-7
State: SOLUTION (10% IN CCl4 FOR 3800-1300, 10% IN CS2 FOR 1300-620, AND 10% CCl4 FOR 620-220 CM^-^1) VERSUS SOLVENT
Class: COBLENTZ III
Instrument: PERKIN-ELMER 521 (GRATING)
Instrument parameters: FILTERS AT 3150, 2500, 2000, 1150, 700, 410; GRATING CHANGES AT 2000, 630 CM^-^1
Sampling: TRANSMISSION
Path length: 0.011, 0.010, AND 0.010 CM (CsBr CELL)
Resolution: 4
Origin: DOW CORNING CORP.
1/CM	TRANSMITTANCE
216.712	0.783
226.543	0.776
236.373	0.772
246.204	0.767
256.035	0.766
265.865	0.763
275.696	0.762
285.527	0.762
295.358	0.76
305.188	0.76
315.019	0.755
324.85	0.752
334.68	0.751
344.511	0.748
354.342	0.739
364.172	0.732
374.003	0.732
383.834	0.75
393.665	0.764
403.495	0.774
413.326	0.783
423.157	0.776
432.987	0.764
442.818	0.762
452.649	0.76
462.479	0.754
472.31	0.755
482.141	0.77
491.972	0.79
501.802	0.802
511.633	0.819
521.464	0.831
531.294	0.833
541.125	0.831
550.956	0.83
560.786	0.825
570.617	0.801
580.448	0.787
590.279	0.791
600.109	0.799
609.94	0.814
619.771	0.825
629.601	0.833
639.432	0.834
649.263	0.838
659.093	0.861
668.924	0.876
678.755	0.879
688.586	0.856
698.416	0.85
708.247	0.841
718.078	0.799
727.908	0.747
737.739	0.819
747.57	0.827
757.4	0.818
767.231	0.811
777.062	0.791
786.892	0.79
796.723	0.795
806.554	0.805
816.385	0.84
826.215	0.85
836.046	0.836
845.877	0.791
855.707	0.705
865.538	0.715
875.369	0.805
885.199	0.829
895.03	0.818
904.861	0.809
914.692	0.783
924.522	0.75
934.353	0.745
944.184	0.77
954.014	0.815
963.845	0.83
973.676	0.827
983.506	0.809
993.337	0.778
1003.17	0.711
1013	0.59
1022.83	0.412
1032.66	0.219
1042.49	0.237
1052.32	0.403
1062.15	0.467
1071.98	0.465
1081.81	0.4
1091.64	0.252
1101.47	0.244
1111.31	0.314
1121.14	0.302
1130.97	0.284
1140.8	0.259
1150.63	0.137
1160.46	0.048
1170.29	0.044
1180.12	0.037
1189.95	0.064
1199.78	0.111
1209.61	0.166
1219.44	0.181
1229.27	0.166
1239.1	0.153
1248.94	0.174
1258.77	0.224
1268.6	0.306
1278.43	0.369
1288.26	0.364
1298.09	0.299
1307.92	0.313
1317.75	0.357
1327.58	0.426
1337.41	0.408
1347.24	0.341
1357.07	0.517
1366.9	0.2599
1376.73	0.192
1386.57	0.44
1396.4	0.516
1406.23	0.604
1416.06	0.467
1425.89	0.502
1435.72	0.481
1445.55	0.315
1455.38	0.34
1465.21	0.268
1475.04	0.493
1484.87	0.68
1494.7	0.75
1504.53	0.784
1514.36	0.797
1524.19	0.797
1534.03	0.807
1543.86	0.811
1553.69	0.807
1563.52	0.801
1573.35	0.798
1583.18	0.793
1593.01	0.783
1602.84	0.779
1612.67	0.775
1622.5	0.774
1632.33	0.766
1642.16	0.759
1651.99	0.744
1661.82	0.724
1671.66	0.7
1681.49	0.65
1691.32	0.549
1701.15	0.491
1710.98	0.37
1720.81	0.099
1730.64	0.006
1740.47	0.008
1750.3	0.0961
1760.13	0.4031
1769.96	0.577
1779.79	0.657
1789.62	0.708
1799.45	0.741
1809.29	0.763
1819.12	0.784
1828.95	0.795
1838.78	0.805
1848.61	0.81
1858.44	0.811
1868.27	0.811
1878.1	0.807
1887.93	0.814
1897.76	0.815
1907.59	0.821
1917.42	0.822
1927.25	0.822
1937.08	0.819
1946.91	0.819
1956.75	0.819
1966.58	0.821
1976.41	0.823
1986.24	0.826
1996.07	0.831
2005.9	0.845
2015.73	0.844
2025.56	0.844
2035.39	0.844
2045.22	0.845
2055.05	0.8481
2064.88	0.85
2074.71	0.85
2084.54	0.85
2094.38	0.852
2104.21	0.853
2114.04	0.854
2123.87	0.857
2133.7	0.8561
2143.53	0.856
2153.36	0.8569
2163.19	0.858
2173.02	0.8562
2182.85	0.8543
2192.68	0.854
2202.51	0.856
2212.34	0.856
2222.17	0.856
2232.01	0.857
2241.84	0.8562
2251.67	0.854
2261.5	0.856
2271.33	0.856
2281.16	0.858
2290.99	0.858
2300.82	0.857
2310.65	0.86
2320.48	0.861
2330.31	0.86
2340.14	0.8594
2349.97	0.86
2359.8	0.8586
2369.63	0.856
2379.47	0.853
2389.3	0.8537
2399.13	0.854
2408.96	0.854
2418.79	0.854
2428.62	0.856
2438.45	0.856
2448.28	0.8564
2458.11	0.856
2467.94	0.857
2477.77	0.8548
2487.6	0.854
2497.43	0.854
2507.26	0.8534
2517.1	0.853
2526.93	0.85
2536.76	0.8494
2546.59	0.848
2556.42	0.8471
2566.25	0.8455
2576.08	0.843
2585.91	0.84
2595.74	0.8405
2605.57	0.838
2615.4	0.838
2625.23	0.837
2635.06	0.836
2644.89	0.833
2654.73	0.8321
2664.56	0.8296
2674.39	0.829
2684.22	0.829
2694.05	0.83
2703.88	0.83
2713.71	0.8266
2723.54	0.823
2733.37	0.8226
2743.2	0.8216
2753.03	0.8146
2762.86	0.8096
2772.69	0.8026
2782.52	0.7977
2792.35	0.793
2802.19	0.7784
2812.02	0.7447
2821.85	0.7095
2831.68	0.6752
2841.51	0.5743
2851.34	0.2848
2861.17	0.1869
2871	0.3058
2880.83	0.4491
2890.66	0.4327
2900.49	0.2435
2910.32	0.1509
2920.15	0.0633
2929.98	0.032
2939.82	0.0463
2949.65	0.1045
2959.48	0.1775
2969.31	0.2354
2979.14	0.1737
2988.97	0.1839
2998.8	0.372
3008.63	0.6119
3018.46	0.7247
3028.29	0.7729
3038.12	0.7915
3047.95	0.8066
3057.78	0.8152
3067.61	0.8221
3077.45	0.829
3087.28	0.831
3097.11	0.834
3106.94	0.834
3116.77	0.834
3126.6	0.834
3136.43	0.833
3146.26	0.833
3156.09	0.831
3165.92	0.831
3175.75	0.831
3185.58	0.831
3195.41	0.831
3205.24	0.833
3215.07	0.831
3224.91	0.831
3234.74	0.831
3244.57	0.831
3254.4	0.831
3264.23	0.83
3274.06	0.829
3283.89	0.825
3293.72	0.823
3303.55	0.822
3313.38	0.8211
3323.21	0.8181
3333.04	0.818
3342.87	0.818
3352.7	0.817
3362.54	0.815
3372.37	0.817
3382.2	0.8172
3392.03	0.815
3401.86	0.8132
3411.69	0.8075
3421.52	0.8012
3431.35	0.7902
3441.18	0.7844
3451.01	0.7868
3460.84	0.8037
3470.67	0.8253
3480.5	0.8355
3490.33	0.837
3500.17	0.84
3510	0.841
3519.83	0.8435
3529.66	0.846
3539.49	0.8487
3549.32	0.85
3559.15	0.8537
3568.98	0.857
3578.81	0.8607
3588.64	0.864
3598.47	0.865
3608.3	0.865
3618.13	0.8687
3627.96	0.869
3637.79	0.8696
3647.63	0.8696
3657.46	0.872
3667.29	0.87
3677.12	0.8696
3686.95	0.875
3696.78	0.8806
3706.61	0.8876
3716.44	0.8901
3726.27	0.891
3736.1	0.891
3745.93	0.8885
3755.76	0.888
3765.59	0.888
3775.42	0.889
3785.26	0.889
