Infrared Spectrum: MYRISTIC ACID, BUTYL ESTER
Formula: C18 H36 O2
CAS: 110-36-1
State: LIQUID
Class: COBLENTZ
Instrument: PERKIN-ELMER
Sampling: TRANSMISSION
Path length: 0.001 CM
Resolution: 4
MICROMETERS	TRANSMITTANCE
2.025	0.923
2.06177	0.92
2.09855	0.923
2.13532	0.932
2.1721	0.927
2.20887	0.927
2.24565	0.927
2.28242	0.92
2.3192	0.923
2.35597	0.915
2.39275	0.903
2.42952	0.892
2.4663	0.892
2.50307	0.906
2.53985	0.895
2.57662	0.912
2.61339	0.92
2.65017	0.926
2.68694	0.924
2.72372	0.923
2.76049	0.932
2.79727	0.933
2.83404	0.933
2.87082	0.938
2.90759	0.933
2.94437	0.936
2.98114	0.92
3.01792	0.93
3.05469	0.933
3.09147	0.936
3.12824	0.935
3.16501	0.935
3.20179	0.932
3.23856	0.93
3.27534	0.923
3.31211	0.913
3.34889	0.903
3.38566	0.846
3.42244	0.526
3.45921	0.12
3.49599	0.063
3.53276	0.189
3.56954	0.167
3.60631	0.512
3.64309	0.8
3.67986	0.87
3.71663	0.896
3.75341	0.896
3.79018	0.904
3.82696	0.903
3.86373	0.916
3.90051	0.926
3.93728	0.932
3.97406	0.938
4.01083	0.947
4.04761	0.949
4.08438	0.953
4.12116	0.961
4.15793	0.955
4.1947	0.953
4.23148	0.955
4.26825	0.967
4.30503	0.969
4.3418	0.97
4.37858	0.976
4.41535	0.953
4.45213	0.952
4.4889	0.96
4.52568	0.963
4.56245	0.964
4.59923	0.961
4.636	0.966
4.67278	0.958
4.70955	0.96
4.74632	0.964
4.7831	0.963
4.81987	0.963
4.85665	0.963
4.89342	0.961
4.9302	0.955
4.96697	0.956
5.00375	0.96
5.04052	0.961
5.0773	0.961
5.11407	0.966
5.15085	0.964
5.18762	0.966
5.2244	0.969
5.26117	0.969
5.29794	0.97
5.33472	0.966
5.37149	0.966
5.40827	0.964
5.44504	0.963
5.48182	0.96
5.51859	0.95
5.55537	0.941
5.59214	0.923
5.62892	0.898
5.66569	0.858
5.70247	0.727
5.73924	0.396
5.77602	0.05
5.81279	0.34
5.84956	0.638
5.88634	0.78
5.92311	0.812
5.95989	0.884
5.99666	0.91
6.03344	0.932
6.07021	0.956
6.10699	0.946
6.14376	0.958
6.18054	0.96
6.21731	0.96
6.25409	0.96
6.29086	0.963
6.32764	0.964
6.36441	0.967
6.40118	0.966
6.43796	0.964
6.47473	0.96
6.51151	0.96
6.54828	0.953
6.58506	0.953
6.62183	0.947
6.65861	0.946
6.69538	0.924
6.73216	0.912
6.76893	0.827
6.80571	0.633
6.84248	0.318
6.87926	0.347
6.91603	0.48
6.9528	0.603
6.98958	0.652
7.02635	0.71
7.06313	0.724
7.0999	0.761
7.13668	0.827
7.17345	0.8
7.21023	0.68
7.247	0.649
7.28378	0.612
7.32055	0.633
7.35733	0.636
7.3941	0.612
7.43087	0.598
7.46765	0.632
7.50442	0.673
7.5412	0.698
7.57797	0.675
7.61475	0.65
7.65152	0.624
7.6883	0.612
7.72507	0.607
7.76185	0.624
7.79862	0.623
7.8354	0.603
7.87217	0.567
7.90895	0.524
7.94572	0.507
7.98249	0.481
8.01927	0.436
8.05604	0.401
8.09282	0.401
8.12959	0.432
8.16637	0.446
8.20314	0.456
8.23992	0.456
8.27669	0.453
8.31347	0.446
8.35024	0.407
8.38702	0.372
8.42379	0.324
8.46057	0.266
8.49734	0.218
8.53411	0.19
8.57089	0.184
8.60766	0.223
8.64444	0.266
8.68121	0.338
8.71799	0.381
8.75476	0.452
8.79154	0.575
8.82831	0.678
8.86509	0.687
8.90186	0.646
8.93864	0.566
8.97541	0.513
9.01219	0.52
9.04896	0.564
9.08573	0.633
9.12251	0.689
9.15928	0.72
9.19606	0.712
9.23283	0.7
9.26961	0.707
9.30638	0.703
9.34316	0.647
9.37993	0.633
9.41671	0.63
9.45348	0.649
9.49026	0.713
9.52703	0.778
9.56381	0.82
9.60058	0.832
9.63735	0.826
9.67413	0.796
9.7109	0.78
9.74768	0.758
9.78445	0.743
9.82123	0.741
9.858	0.761
9.89478	0.781
9.93155	0.807
9.96833	0.818
10.0051	0.826
10.0419	0.841
10.0787	0.85
10.1154	0.853
10.1522	0.858
10.189	0.861
10.2257	0.856
10.2625	0.85
10.2993	0.835
10.3361	0.813
10.3728	0.803
10.4096	0.8
10.4464	0.81
10.4832	0.82
10.5199	0.836
10.5567	0.835
10.5935	0.833
10.6303	0.846
10.667	0.866
10.7038	0.883
10.7406	0.896
10.7774	0.9
10.8141	0.915
10.8509	0.916
10.8877	0.924
10.9245	0.926
10.9612	0.929
10.998	0.929
11.0348	0.936
11.0716	0.933
11.1083	0.926
11.1451	0.933
11.1819	0.935
11.2187	0.932
11.2554	0.933
11.2922	0.927
11.329	0.929
11.3658	0.926
11.4025	0.929
11.4393	0.927
11.4761	0.929
11.5129	0.927
11.5496	0.932
11.5864	0.926
11.6232	0.933
11.66	0.943
11.6967	0.94
11.7335	0.936
11.7703	0.936
11.8071	0.936
11.8438	0.926
11.8806	0.92
11.9174	0.912
11.9542	0.9
11.9909	0.913
12.0277	0.921
12.0645	0.927
12.1013	0.94
12.138	0.935
12.1748	0.932
12.2116	0.94
12.2484	0.936
12.2851	0.936
12.3219	0.936
12.3587	0.943
12.3955	0.944
12.4322	0.935
12.469	0.94
12.5058	0.94
12.5426	0.944
12.5793	0.943
12.6161	0.94
12.6529	0.932
12.6897	0.94
12.7264	0.943
12.7632	0.944
12.8	0.936
12.8367	0.938
12.8735	0.926
12.9103	0.929
12.9471	0.926
12.9838	0.924
13.0206	0.918
13.0574	0.92
13.0942	0.913
13.1309	0.909
13.1677	0.9
13.2045	0.903
13.2413	0.892
13.278	0.889
13.3148	0.884
13.3516	0.88
13.3884	0.875
13.4251	0.864
13.4619	0.853
13.4987	0.844
13.5355	0.818
13.5722	0.803
13.609	0.787
13.6458	0.795
13.6826	0.792
13.7193	0.787
13.7561	0.781
13.7929	0.767
13.8297	0.741
13.8664	0.72
13.9032	0.712
13.94	0.723
13.9768	0.758
14.0135	0.784
14.0503	0.803
14.0871	0.81
14.1239	0.824
14.1606	0.832
14.1974	0.847
14.2342	0.853
14.271	0.855
14.3077	0.861
14.3445	0.863
14.3813	0.87
14.4181	0.872
14.4548	0.873
14.4916	0.87
14.5284	0.869
14.5652	0.867
14.6019	0.864
14.6387	0.864
14.6755	0.86
14.7123	0.861
14.749	0.853
14.7858	0.844
14.8226	0.846
14.8594	0.841
14.8961	0.841
14.9329	0.84
14.9697	0.824
15.0065	0.827
15.0432	0.832
15.08	0.823
15.1168	0.82
15.1536	0.815
15.1903	0.807
15.2271	0.795
15.2639	0.79
15.3007	0.787
15.3374	0.78
15.3742	0.778
15.411	0.763
15.4478	0.758
15.4845	0.755
15.5213	0.749
