Infrared Spectrum: PEROXIDE, Tert-BUTYL-
Formula: C8 H18 O2
CAS: 110-05-4
State: SOLUTION (10% CCl4 FOR 2.6-7.6, 10% CS2 FOR 7.6-25 MICRON)
Class: COBLENTZ III
Instrument: DOW KBr FOREPRISM-GRATING
Instrument parameters: BLAZED AT 3.5, 12.0, 20.0 MICRON AND CHANGED AT 5.0, 7.5, 14.9 MICRON
Sampling: TRANSMISSION
Path length: 0.011 CM, 0.011 CM
Resolution: 2
Origin: DOW CHEMICAL COMPANY
1/CM	TRANSMITTANCE
3786	0.8718
3777	0.873
3768	0.8742
3759	0.8733
3750	0.8725
3741	0.8728
3732	0.8733
3723	0.8748
3714	0.8767
3705	0.8785
3696	0.879
3687	0.8793
3678	0.8797
3669	0.88
3660	0.8802
3651	0.8799
3642	0.8791
3633	0.8743
3624	0.8668
3615	0.8698
3606	0.8745
3597	0.8778
3588	0.8807
3579	0.8815
3570	0.8823
3561	0.8831
3552	0.8831
3543	0.8828
3534	0.8825
3525	0.8828
3516	0.8836
3507	0.8842
3498	0.8846
3489	0.8847
3480	0.8854
3471	0.8861
3462	0.886
3453	0.8853
3444	0.8874
3435	0.8896
3426	0.8903
3417	0.8902
3408	0.8899
3399	0.8897
3390	0.8899
3381	0.8901
3372	0.8904
3363	0.8894
3354	0.8853
3345	0.8806
3336	0.8785
3327	0.8793
3318	0.8835
3309	0.887
3300	0.8868
3291	0.8855
3282	0.8839
3273	0.8816
3264	0.8786
3255	0.8748
3246	0.8675
3237	0.8615
3228	0.8575
3219	0.8575
3210	0.8577
3201	0.8563
3192	0.8545
3183	0.8532
3174	0.8528
3165	0.854
3156	0.856
3147	0.8589
3138	0.8606
3129	0.8625
3120	0.865
3111	0.8657
3102	0.8656
3093	0.8637
3084	0.8607
3075	0.8565
3066	0.8496
3057	0.8415
3048	0.8298
3039	0.8139
3030	0.7775
3021	0.699
3012	0.5153
3003	0.3377
2994	0.0329
2985	0.0194
2976	0.018
2967	0.0925
2958	0.2326
2949	0.2466
2940	0.2127
2931	0.1614
2922	0.1921
2913	0.3071
2904	0.3255
2895	0.4095
2886	0.4471
2877	0.4644
2868	0.4902
2859	0.5881
2850	0.7338
2841	0.7849
2832	0.8124
2823	0.8176
2814	0.8156
2805	0.818
2796	0.8445
2787	0.8562
2778	0.8644
2769	0.8681
2760	0.8725
2751	0.8778
2742	0.8749
2733	0.8741
2724	0.8784
2715	0.8656
2706	0.86
2697	0.8714
2688	0.8784
2679	0.8833
2670	0.8868
2661	0.888
2652	0.8873
2643	0.8858
2634	0.884
2625	0.8818
2616	0.8843
2607	0.8844
2598	0.8864
2589	0.8887
2580	0.892
2571	0.8953
2562	0.8981
2553	0.8998
2544	0.9015
2535	0.9032
2526	0.9038
2517	0.9041
2508	0.9044
2499	0.9036
2490	0.9027
2481	0.9021
2472	0.9025
2463	0.9028
2454	0.9028
2445	0.903
2436	0.903
2427	0.9028
2418	0.9012
2409	0.8975
2400	0.8942
2391	0.891
2382	0.8914
2373	0.8925
2364	0.8935
2355	0.8935
2346	0.8934
2337	0.8931
2328	0.8924
2319	0.8913
2310	0.8888
2301	0.885
2292	0.8811
2283	0.8768
2274	0.8725
2265	0.8909
2256	0.9045
2247	0.9083
2238	0.9112
2229	0.9125
2220	0.9132
2211	0.9135
2202	0.914
2193	0.9148
2184	0.9152
2175	0.9149
2166	0.9113
2157	0.9042
2148	0.8978
2139	0.8956
2130	0.9025
2121	0.9046
2112	0.9011
2103	0.91
2094	0.9121
2085	0.9134
2076	0.9144
2067	0.9153
2058	0.9163
2049	0.9166
2040	0.9168
2031	0.9168
2022	0.9163
2013	0.9154
2004	0.9147
1995	0.9039
1986	0.8903
1977	0.8892
1968	0.8891
1959	0.9018
1950	0.8935
1941	0.8909
1932	0.8894
1923	0.8871
1914	0.8855
1905	0.8851
1896	0.8863
1887	0.8868
1878	0.8871
1869	0.8875
1860	0.8881
1851	0.8885
1842	0.8889
1833	0.8892
1824	0.8896
1815	0.8901
1806	0.8921
1797	0.8939
1788	0.8855
1779	0.8784
1770	0.8746
1761	0.8758
1752	0.8782
1743	0.8755
1734	0.8699
1725	0.8625
1716	0.857
1707	0.8641
1698	0.8727
1689	0.878
1680	0.8777
1671	0.8804
1662	0.8845
1653	0.8883
1644	0.8898
1635	0.8865
1626	0.8783
1617	0.8618
1608	0.8292
1599	0.7728
1590	0.6772
1581	0.6451
1572	0.6306
1563	0.5576
1554	0.4786
1545	0.4778
1536	0.5615
1527	0.6344
1518	0.6754
1509	0.71
1500	0.7361
1491	0.6968
1482	0.5997
1473	0.32
1464	0.54
1455	0.481
1446	0.5112
1437	0.7097
1428	0.7594
1419	0.7953
1410	0.8035
1401	0.7611
1392	0.6065
1383	0.1959
1374	0.5624
1365	0.0121
1356	0.359
1347	0.7118
1338	0.81
1329	0.8392
1320	0.8286
1311	0.8432
1302	0.8468
1293	0.8478
1284	0.8307
1275	0.7964
1266	0.7478
1257	0.6641
1248	0.3329
1239	0.2044
1230	0.3083
1221	0.4629
1212	0.4662
1203	0.3182
1194	0.025
1185	0.0162
1176	0.3132
1167	0.4654
1158	0.6065
1149	0.6946
1140	0.7698
1131	0.8078
1122	0.8344
1113	0.8532
1104	0.8756
1095	0.8902
1086	0.8912
1077	0.8896
1068	0.8883
1059	0.8843
1050	0.8783
1041	0.8693
1032	0.8595
1023	0.7515
1014	0.7785
1005	0.8409
996	0.8745
987	0.884
978	0.8899
969	0.8916
960	0.8909
951	0.8885
942	0.8864
933	0.8861
924	0.867
915	0.7883
906	0.8205
897	0.7964
888	0.6615
879	0.2885
870	0.0762
861	0.6181
852	0.6978
843	0.8217
834	0.8788
825	0.8991
816	0.9091
807	0.9106
798	0.9107
789	0.9107
780	0.9109
771	0.9098
762	0.8984
753	0.4646
744	0.8628
735	0.9058
726	0.9151
717	0.9193
708	0.9213
699	0.9235
690	0.9234
681	0.9225
672	0.9175
663	0.9102
654	0.8894
645	0.8888
636	0.9042
627	0.9183
618	0.929
609	0.9335
600	0.936
591	0.9367
582	0.9368
573	0.939
564	0.937
555	0.9318
546	0.918
537	0.8283
528	0.8182
519	0.9018
510	0.8996
501	0.9025
492	0.9024
483	0.8808
474	0.8175
465	0.6428
456	0.7921
447	0.866
438	0.8848
429	0.8764
420	0.8523
411	0.8032
