Infrared Spectrum: Thiophene
Formula: C 4 H 4 S
CAS: 110-02-1
State: liquid
Instrument: Bruker Tensor 27 FTIR
Resolution: 0.4821395
Origin: Pacific Northwest National Laboratory Under IARPA Contract
1/cm	dispersion index
7797.62	1.50326
7779.06	1.50371
7760.5	1.5038
7741.94	1.50385
7723.38	1.50388
7704.81	1.50391
7686.25	1.50393
7667.69	1.50394
7649.13	1.50396
7630.57	1.50397
7612.01	1.50399
7593.44	1.50399
7574.88	1.504
7556.32	1.50401
7537.76	1.50402
7519.2	1.50402
7500.64	1.50403
7482.07	1.50403
7463.51	1.50404
7444.95	1.50404
7426.39	1.50405
7407.83	1.50405
7389.26	1.50405
7370.7	1.50406
7352.14	1.50406
7333.58	1.50406
7315.02	1.50406
7296.46	1.50406
7277.89	1.50406
7259.33	1.50406
7240.77	1.50406
7222.21	1.50406
7203.65	1.50406
7185.09	1.50406
7166.52	1.50406
7147.96	1.50406
7129.4	1.50405
7110.84	1.50405
7092.28	1.50405
7073.71	1.50404
7055.15	1.50403
7036.59	1.50402
7018.03	1.50401
6999.47	1.50399
6980.91	1.50395
6962.34	1.50385
6943.78	1.50408
6925.22	1.50409
6906.66	1.50418
6888.1	1.50408
6869.54	1.50415
6850.97	1.50411
6832.41	1.50409
6813.85	1.50407
6795.29	1.50408
6776.73	1.50406
6758.16	1.50405
6739.6	1.50405
6721.04	1.50404
6702.48	1.50403
6683.92	1.50402
6665.36	1.50402
6646.79	1.50402
6628.23	1.50401
6609.67	1.504
6591.11	1.50399
6572.55	1.50398
6553.99	1.50397
6535.42	1.50396
6516.86	1.50396
6498.3	1.50395
6479.74	1.50395
6461.18	1.50393
6442.61	1.50392
6424.05	1.5039
6405.49	1.5039
6386.93	1.50388
6368.37	1.50387
6349.81	1.50385
6331.24	1.50384
6312.68	1.50383
6294.12	1.50381
6275.56	1.50379
6257	1.50376
6238.44	1.50373
6219.87	1.5037
6201.31	1.50366
6182.75	1.50371
6164.19	1.50355
6145.63	1.50372
6127.06	1.50385
6108.5	1.50374
6089.94	1.50363
6071.38	1.50373
6052.82	1.50373
6034.26	1.50359
6015.69	1.5035
5997.13	1.50332
5978.57	1.50364
5960.01	1.50356
5941.45	1.5036
5922.89	1.50343
5904.32	1.50325
5885.76	1.50313
5867.2	1.50422
5848.64	1.50376
5830.08	1.50338
5811.51	1.50346
5792.95	1.5037
5774.39	1.50352
5755.83	1.50331
5737.27	1.50367
5718.71	1.50352
5700.14	1.50338
5681.58	1.50332
5663.02	1.50323
5644.46	1.50313
5625.9	1.50302
5607.34	1.5029
5588.77	1.50276
5570.21	1.50258
5551.65	1.50235
5533.09	1.50206
5514.53	1.50169
5495.96	1.50124
5477.4	1.50048
5458.84	1.49724
5440.28	1.5041
5421.72	1.50676
5403.16	1.50513
5384.59	1.50466
5366.03	1.50416
5347.47	1.50376
5328.91	1.50376
5310.35	1.50345
5291.79	1.50345
5273.22	1.50334
5254.66	1.50319
5236.1	1.50308
5217.54	1.50289
5198.98	1.50268
5180.41	1.50273
5161.85	1.50255
5143.29	1.50225
5124.73	1.50218
5106.17	1.50212
5087.61	1.50177
5069.04	1.50169
5050.48	1.50165
5031.92	1.50191
5013.36	1.50139
4994.8	1.50111
4976.24	1.50173
4957.67	1.50082
4939.11	1.50122
4920.55	1.50077
4901.99	1.50033
4883.43	1.49977
4864.86	1.49954
4846.3	1.49952
4827.74	1.49835
4809.18	1.49675
4790.62	1.49788
4772.06	1.49943
4753.49	1.49821
4734.93	1.49671
4716.37	1.49434
4697.81	1.49039
4679.25	1.49758
4660.69	1.49747
4642.12	1.49395
4623.56	1.4883
4605	1.46491
4586.44	1.50554
4567.88	1.49759
4549.31	1.49049
4530.75	1.47543
4512.19	1.50687
4493.63	1.49662
4475.07	1.49105
4456.51	1.48317
4437.94	1.51282
4419.38	1.48006
4400.82	1.4931
4382.26	1.48326
4363.7	1.4736
4345.14	1.46101
4326.57	1.42828
4308.01	1.51025
4289.45	1.43332
4270.89	1.30649
4252.33	2.06524
4233.76	1.6766
4215.2	1.60166
4196.64	1.57468
4178.08	1.56001
4159.52	1.55089
4140.96	1.54418
4122.39	1.55402
4103.83	1.54061
4085.27	1.34946e-05
4066.71	1.43775e-05
4048.15	1.51334e-05
4029.58	1.46294e-05
4011.02	1.86801e-05
3992.46	2.02323e-05
3973.9	2.35059e-05
3955.34	2.41368e-05
3936.78	2.66546e-05
3918.21	1.91206e-05
3899.65	2.01496e-05
3881.09	2.04631e-05
3862.53	2.43465e-05
3843.97	2.68642e-05
3825.41	2.56063e-05
3806.84	2.60256e-05
3788.28	2.72854e-05
3769.72	3.1692e-05
3751.16	3.1063e-05
3732.6	2.74951e-05
3714.03	2.64449e-05
3695.47	2.51851e-05
3676.91	2.74951e-05
3658.35	2.74951e-05
3639.79	2.56063e-05
3621.23	2.49754e-05
3602.66	2.53967e-05
3584.1	2.68642e-05
3565.54	2.37175e-05
3546.98	2.24577e-05
3528.42	2.18268e-05
3509.86	2.08824e-05
3491.29	1.99169e-05
3472.73	1.93514e-05
3454.17	1.79877e-05
3435.61	1.67067e-05
3417.05	1.61605e-05
3398.48	1.56565e-05
3379.92	1.59931e-05
3361.36	1.63489e-05
3342.8	1.78184e-05
3324.24	2.06112e-05
3305.68	3.04321e-05
3287.11	4.40748e-05
3268.55	0.000104312
3249.99	0.000684217
3231.43	0.000327416
3212.87	0.000193091
3194.31	7.97559e-05
3175.74	0.000153424
3157.18	3.84085e-05
3138.62	3.29518e-05
3120.06	3.88278e-05
3101.5	2.98032e-05
3082.93	1.90571e-05
3064.37	4.40748e-05
3045.81	3.04321e-05
3027.25	3.06437e-05
3008.69	2.45561e-05
2990.13	2.79144e-05
2971.56	4.17668e-05
2953	3.42116e-05
2934.44	2.49754e-05
2915.88	2.83337e-05
2897.32	3.48406e-05
2878.76	2.49754e-05
2860.19	2.0842e-05
2841.63	2.30866e-05
2823.07	3.9878e-05
2804.51	3.1063e-05
2785.95	2.95935e-05
2767.38	1.91206e-05
2748.82	1.82185e-05
2730.26	2.14075e-05
2711.7	2.51851e-05
2693.14	2.11979e-05
2674.58	1.66855e-05
2656.01	1.83435e-05
2637.45	2.32963e-05
2618.89	3.23209e-05
2600.33	3.27421e-05
2581.77	1.94552e-05
2563.21	2.43465e-05
2544.64	4.15571e-05
2526.08	6.40148e-05
2507.52	0.000153215
2488.96	0.000194351
2470.4	0.000116905
2451.83	0.000457544
2433.27	0.000535199
2414.71	0.000128449
2396.15	8.91999e-05
2377.59	0.000579274
2359.03	0.000432357
2340.46	6.29646e-05
2321.9	0.000114806
2303.34	0.00021198
2284.78	0.000719896
2266.22	0.00040927
2247.66	0.000289638
2229.09	0.000128449
2210.53	0.000194141
2191.97	0.000682117
2173.41	0.00256056
2154.85	0.000524705
2136.28	0.00026865
2117.72	0.00120472
2099.16	0.00057088
2080.6	0.000285439
2062.04	0.000465939
2043.48	0.000581374
2024.91	0.00016203
2006.35	7.49282e-05
1987.79	0.000113546
1969.23	5.51998e-05
1950.67	2.8124e-05
1932.11	2.16172e-05
1913.54	2.02111e-05
1894.98	3.29518e-05
1876.42	7.59765e-05
1857.86	0.000147337
1839.3	0.000312725
1820.73	0.000661128
1802.17	0.00134325
1783.61	0.00239266
1765.05	0.00518409
1746.49	0.00940273
1727.93	0.00436555
1709.36	0.00120472
1690.8	0.000627548
1672.24	0.000272847
1653.68	0.000274945
1635.12	0.000308528
1616.56	9.46566e-05
1597.99	0.00049952
1579.43	0.000497422
1560.87	0.000258156
1542.31	5.20512e-05
1523.75	3.04321e-05
1505.18	6.82117e-05
1486.62	0.000270748
1468.06	0.000352603
1449.5	0.000134744
1430.94	0.000228772
1412.38	0.000216179
1393.81	0.000192671
1375.25	0.00015951
1356.69	0.000188265
1338.13	0.00155523
1319.57	0.000493223
1301.01	0.000277045
1282.44	0.0026655
1263.88	0.000549892
1245.32	0.000610758
1226.76	0.000260254
1208.2	0.000150695
1189.63	0.00019708
1171.07	0.000209882
1152.51	0.00135794
1133.95	0.000329516
1115.39	0.00122571
1096.83	0.00436555
1078.26	0.00375689
1059.7	0.000740884
1041.14	0.000715699
1022.58	0.000596065
1004.02	0.00558287
985.455	0.0119003
966.894	0.00289637
948.332	0.00135164
929.77	0.00279143
911.208	0.0155733
892.647	0.0151955
874.085	0.00253957
855.523	0.00185956
836.961	0.00906691
818.399	0.00782861
799.838	0.000682117
781.276	0.000931877
762.714	0.00268649
744.152	0.0360997
725.591	0.00797553
707.029	0.00619153
688.467	0.00137893
669.905	0.00226673
651.344	0.010704
632.782	0.0189104
614.22	0.204635
595.658	0.0164967
577.096	0.0451247
558.535	1.7861
539.973	0.0753477
521.411	0.00768169
502.849	0.00782861
484.288	0.00152794
465.726	0.00083743
447.164	0.000164547
428.602	0.00757675
410.041	0.000971755
