Infrared Spectrum: BIUREA
Formula: C2 H6 N4 O2
CAS: 110-21-4
State: SOLID (1 mg / 650 mg KBr DISC)
Class: COBLENTZ III
Instrument: PERKIN-ELMER 221 (GRATING)
Instrument parameters: FILTER AT 980 CM ^-^1, GRATING FOR 1428-4000 CM^-^1, NaCl PRISM FOR 1428-650 CM^-^1
Sampling: TRANSMISSION
Resolution: 4
Origin: SOUTHERN RES. INSTITUTE
1/CM	TRANSMITTANCE
608.805	0.722
617.925	0.72
627.044	0.719
636.164	0.717
645.283	0.712
654.403	0.708
663.522	0.704
672.642	0.702
681.761	0.704
690.881	0.73
700	0.755
709.12	0.778
718.239	0.791
727.359	0.804
736.478	0.806
745.598	0.804
754.717	0.788
763.837	0.763
772.956	0.762
782.076	0.774
791.195	0.811
800.315	0.836
809.434	0.844
818.554	0.848
827.673	0.852
836.793	0.859
845.912	0.861
855.032	0.863
864.151	0.865
873.271	0.865
882.39	0.863
891.51	0.863
900.629	0.862
909.749	0.86
918.868	0.862
927.988	0.861
937.107	0.859
946.227	0.857
955.346	0.854
964.466	0.85
973.585	0.846
982.705	0.839
991.824	0.826
1000.94	0.81
1010.06	0.804
1019.18	0.815
1028.3	0.812
1037.42	0.808
1046.54	0.805
1055.66	0.799
1064.78	0.796
1073.9	0.786
1083.02	0.769
1092.14	0.758
1101.26	0.741
1110.38	0.704
1119.5	0.686
1128.62	0.711
1137.74	0.735
1146.86	0.74
1155.98	0.742
1165.09	0.742
1174.21	0.743
1183.33	0.756
1192.45	0.76
1201.57	0.763
1210.69	0.776
1219.81	0.782
1228.93	0.788
1238.05	0.79
1247.17	0.792
1256.29	0.795
1265.41	0.797
1274.53	0.8
1283.65	0.802
1292.77	0.801
1301.89	0.8
1311.01	0.798
1320.13	0.796
1329.25	0.795
1338.37	0.794
1347.48	0.791
1356.6	0.782
1365.72	0.77
1374.84	0.758
1383.96	0.733
1393.08	0.707
1402.2	0.669
1411.32	0.614
1420.44	0.54
1429.56	0.55
1438.68	0.583
1447.8	0.663
1456.92	0.685
1466.04	0.647
1475.16	0.652
1484.28	0.711
1493.4	0.673
1502.52	0.589
1511.64	0.586
1520.76	0.592
1529.87	0.661
1538.99	0.737
1548.11	0.77
1557.23	0.773
1566.35	0.769
1575.47	0.757
1584.59	0.723
1593.71	0.668
1602.83	0.519
1611.95	0.435
1621.07	0.522
1630.19	0.557
1639.31	0.611
1648.43	0.625
1657.55	0.546
1666.67	0.373
1675.79	0.37
1684.91	0.296
1694.03	0.234
1703.15	0.263
1712.26	0.387
1721.38	0.5
1730.5	0.602
1739.62	0.692
1748.74	0.752
1757.86	0.79
1766.98	0.807
1776.1	0.819
1785.22	0.828
1794.34	0.843
1803.46	0.847
1812.58	0.85
1821.7	0.854
1830.82	0.855
1839.94	0.856
1849.06	0.86
1858.18	0.862
1867.3	0.866
1876.42	0.867
1885.54	0.869
1894.65	0.869
1903.77	0.869
1912.89	0.869
1922.01	0.869
1931.13	0.869
1940.25	0.868
1949.37	0.867
1958.49	0.866
1967.61	0.865
1976.73	0.863
1985.85	0.862
1994.97	0.861
2004.09	0.863
2013.21	0.863
2022.33	0.864
2031.45	0.866
2040.57	0.868
2049.69	0.868
2058.81	0.868
2067.93	0.867
2077.05	0.867
2086.16	0.867
2095.28	0.868
2104.4	0.869
2113.52	0.869
2122.64	0.869
2131.76	0.869
2140.88	0.869
2150	0.869
2159.12	0.87
2168.24	0.87
2177.36	0.87
2186.48	0.869
2195.6	0.869
2204.72	0.871
2213.84	0.872
2222.96	0.872
2232.08	0.872
2241.2	0.872
2250.32	0.873
2259.44	0.873
2268.55	0.873
2277.67	0.874
2286.79	0.875
2295.91	0.874
2305.03	0.873
2314.15	0.872
2323.27	0.87
2332.39	0.869
2341.51	0.869
2350.63	0.869
2359.75	0.869
2368.87	0.87
2377.99	0.87
2387.11	0.871
2396.23	0.872
2405.35	0.872
2414.47	0.871
2423.59	0.871
2432.71	0.87
2441.83	0.87
2450.94	0.869
2460.06	0.867
2469.18	0.866
2478.3	0.864
2487.42	0.863
2496.54	0.863
2505.66	0.865
2514.78	0.865
2523.9	0.865
2533.02	0.864
2542.14	0.863
2551.26	0.862
2560.38	0.86
2569.5	0.86
2578.62	0.86
2587.74	0.859
2596.86	0.858
2605.98	0.857
2615.1	0.857
2624.22	0.856
2633.33	0.855
2642.45	0.854
2651.57	0.853
2660.69	0.852
2669.81	0.85
2678.93	0.85
2688.05	0.849
2697.17	0.848
2706.29	0.848
2715.41	0.846
2724.53	0.843
2733.65	0.84
2742.77	0.832
2751.89	0.832
2761.01	0.831
2770.13	0.831
2779.25	0.831
2788.37	0.831
2797.49	0.829
2806.61	0.829
2815.72	0.827
2824.84	0.824
2833.96	0.819
2843.08	0.812
2852.2	0.801
2861.32	0.799
2870.44	0.796
2879.56	0.779
2888.68	0.763
2897.8	0.757
2906.92	0.745
2916.04	0.734
2925.16	0.714
2934.28	0.711
2943.4	0.721
2952.52	0.726
2961.64	0.727
2970.76	0.725
2979.88	0.722
2989	0.718
2998.11	0.715
3007.23	0.71
3016.35	0.695
3025.47	0.688
3034.59	0.671
3043.71	0.659
3052.83	0.639
3061.95	0.634
3071.07	0.637
3080.19	0.642
3089.31	0.642
3098.43	0.64
3107.55	0.628
3116.67	0.619
3125.79	0.616
3134.91	0.614
3144.03	0.596
3153.15	0.588
3162.27	0.561
3171.39	0.524
3180.5	0.487
3189.62	0.429
3198.74	0.381
3207.86	0.365
3216.98	0.365
3226.1	0.391
3235.22	0.425
3244.34	0.483
3253.46	0.504
3262.58	0.526
3271.7	0.519
3280.82	0.493
3289.94	0.47
3299.06	0.46
3308.18	0.46
3317.3	0.466
3326.42	0.492
3335.54	0.497
3344.66	0.489
3353.78	0.472
3362.9	0.444
3372.01	0.406
3381.13	0.363
3390.25	0.319
3399.37	0.282
3408.49	0.284
3417.61	0.324
3426.73	0.397
3435.85	0.437
3444.97	0.488
3454.09	0.521
3463.21	0.54
3472.33	0.549
3481.45	0.568
3490.57	0.586
3499.69	0.601
3508.81	0.619
3517.93	0.629
3527.05	0.643
3536.17	0.656
3545.29	0.673
3554.4	0.685
3563.52	0.704
3572.64	0.714
3581.76	0.729
3590.88	0.748
3600	0.76
3609.12	0.785
3618.24	0.792
3627.36	0.801
3636.48	0.815
3645.6	0.822
3654.72	0.823
3663.84	0.825
3672.96	0.828
3682.08	0.835
3691.2	0.841
3700.32	0.843
3709.44	0.847
3718.56	0.848
3727.68	0.85
3736.79	0.848
3745.91	0.849
3755.03	0.85
3764.15	0.85
3773.27	0.85
3782.39	0.85
3791.51	0.85
3800.63	0.849
3809.75	0.847
3818.87	0.846
3827.99	0.846
3837.11	0.848
3846.23	0.848
3855.35	0.848
3864.47	0.848
3873.59	0.848
3882.71	0.85
3891.83	0.85
3900.95	0.85
3910.07	0.85
3919.18	0.849
3928.3	0.85
3937.42	0.85
3946.54	0.85
3955.66	0.85
3964.78	0.85
3973.9	0.851
3983.02	0.852
3992.14	0.852
4001.26	0.852
