Infrared Spectrum: 2-Propanol, 1,1'-oxydi-,
Formula: C6 H14 O3
CAS: 110-98-5
State: SOLID (OIL MULL)
Class: COBLENTZ III
Instrument: BAIRD (GRATING)
Instrument parameters: NaCl PRISM
Resolution: 2
Origin: WYANDOTTE CHEMICALS CORP.
1/CM	TRANSMITTANCE
626	0.6131
635	0.5933
644	0.5827
653	0.5838
662	0.5926
671	0.5892
680	0.5811
689	0.5788
698	0.5836
707	0.5741
716	0.5443
725	0.5214
734	0.532
743	0.5558
752	0.5834
761	0.6124
770	0.6268
779	0.6312
788	0.6272
797	0.6199
806	0.62
815	0.6418
824	0.7013
833	0.7128
842	0.6187
851	0.5344
860	0.1954
869	0.433
878	0.6543
887	0.7514
896	0.7858
905	0.8071
914	0.7988
923	0.667
932	0.5196
941	0.6362
950	0.7982
959	0.8116
968	0.8014
977	0.7694
986	0.7157
995	0.5972
1004	0.2635
1013	0.1522
1022	0.3293
1031	0.5128
1040	0.6096
1049	0.67
1058	0.6779
1067	0.6384
1076	0.5437
1085	0.4556
1094	0.4399
1103	0.3533
1112	0.2523
1121	0.21
1130	0.1474
1139	0.1784
1148	0.3449
1157	0.3547
1166	0.3317
1175	0.2283
1184	0.3353
1193	0.6088
1202	0.7118
1211	0.7526
1220	0.7677
1229	0.7684
1238	0.7487
1247	0.6839
1256	0.7
1265	0.7275
1274	0.6593
1283	0.5295
1292	0.4423
1301	0.5457
1310	0.6665
1319	0.6448
1328	0.482
1337	0.3506
1346	0.3683
1355	0.5821
1364	0.6735
1373	0.4931
1382	0.3006
1391	0.5026
1400	0.7354
1409	0.7169
1418	0.6182
1427	0.5225
1436	0.4825
1445	0.4456
1454	0.3564
1463	0.2715
1472	0.2217
1481	0.3542
1490	0.5532
1499	0.5661
1508	0.5821
1517	0.6951
1526	0.7938
1535	0.8384
1544	0.8589
1553	0.8685
1562	0.8882
1571	0.8852
1580	0.8952
1589	0.8987
1598	0.8997
1607	0.8995
1616	0.8993
1625	0.8993
1634	0.8983
1643	0.895
1652	0.8843
1661	0.8656
1670	0.8707
1679	0.8974
1688	0.9085
1697	0.9178
1706	0.9193
1715	0.9187
1724	0.9185
1733	0.9231
1742	0.9285
1751	0.9332
1760	0.9354
1769	0.9334
1778	0.9354
1787	0.9406
1796	0.9441
1805	0.9476
1814	0.9486
1823	0.9464
1832	0.9425
1841	0.9386
1850	0.9347
1859	0.9324
1868	0.9335
1877	0.9343
1886	0.9332
1895	0.932
1904	0.9309
1913	0.9297
1922	0.9285
1931	0.9274
1940	0.9263
1949	0.9252
1958	0.924
1967	0.9224
1976	0.9214
1985	0.9204
1994	0.9196
2003	0.919
2012	0.9183
2021	0.9179
2030	0.9175
2039	0.9172
2048	0.9172
2057	0.9171
2066	0.9171
2075	0.9168
2084	0.9166
2093	0.9163
2102	0.916
2111	0.9154
2120	0.9147
2129	0.9135
2138	0.9144
2147	0.9189
2156	0.9208
2165	0.9174
2174	0.9135
2183	0.9109
2192	0.9102
2201	0.9105
2210	0.9107
2219	0.9106
2228	0.9105
2237	0.9104
2246	0.9104
2255	0.9104
2264	0.9103
2273	0.9096
2282	0.909
2291	0.9061
2300	0.9008
2309	0.893
2318	0.8863
2327	0.8804
2336	0.875
2345	0.8706
2354	0.8683
2363	0.8674
2372	0.8681
2381	0.8672
2390	0.8635
2399	0.8583
2408	0.857
2417	0.8576
2426	0.8586
2435	0.8607
2444	0.8627
2453	0.8591
2462	0.8487
2471	0.836
2480	0.8318
2489	0.8303
2498	0.8289
2507	0.8277
2516	0.823
2525	0.8182
2534	0.8139
2543	0.8096
2552	0.8047
2561	0.7996
2570	0.795
2579	0.7909
2588	0.7869
2597	0.7829
2606	0.7784
2615	0.7739
2624	0.7693
2633	0.7586
2642	0.7337
2651	0.709
2660	0.686
2669	0.6702
2678	0.6738
2687	0.6785
2696	0.6785
2705	0.6751
2714	0.6616
2723	0.6473
2732	0.6411
2741	0.6379
2750	0.636
2759	0.6179
2768	0.5906
2777	0.543
2786	0.4884
2795	0.4217
2804	0.3551
2813	0.2888
2822	0.2231
2831	0.1649
2840	0.1256
2849	0.0824
2858	0.0692
2867	0.0657
2876	0.0634
2885	0.0613
2894	0.0592
2903	0.0577
2912	0.0572
2921	0.0587
2930	0.0617
2939	0.0656
2948	0.0711
2957	0.0859
2966	0.1077
2975	0.177
2984	0.2555
2993	0.3334
3002	0.4109
3011	0.4727
3020	0.4887
3029	0.4916
3038	0.491
3047	0.4891
3056	0.471
3065	0.4481
3074	0.4253
3083	0.4027
3092	0.3801
3101	0.3578
3110	0.3355
3119	0.3133
3128	0.2914
3137	0.2695
3146	0.247
3155	0.2291
3164	0.2179
3173	0.2086
3182	0.2018
3191	0.1943
3200	0.187
3209	0.1842
3218	0.1821
3227	0.1893
3236	0.1941
3245	0.1999
3254	0.2055
3263	0.2108
3272	0.2173
3281	0.2249
3290	0.2328
3299	0.245
3308	0.2543
3317	0.2646
3326	0.2736
3335	0.2805
3344	0.2847
3353	0.2878
3362	0.2896
3371	0.291
3380	0.2924
3389	0.2953
3398	0.3261
3407	0.3432
3416	0.3573
3425	0.369
3434	0.3938
3443	0.4185
3452	0.4431
3461	0.4675
3470	0.4919
3479	0.516
3488	0.5401
3497	0.5691
3506	0.6245
3515	0.665
3524	0.6905
3533	0.7092
3542	0.7258
3551	0.7432
3560	0.7596
3569	0.7698
3578	0.7798
3587	0.7912
3596	0.8009
3605	0.8071
3614	0.8131
3623	0.819
3632	0.8233
3641	0.8262
3650	0.829
3659	0.8317
3668	0.8343
3677	0.837
3686	0.8394
3695	0.8411
3704	0.8428
3713	0.844
3722	0.845
3731	0.8458
3740	0.8463
3749	0.8507
3758	0.8471
3767	0.847
3776	0.847
3785	0.847
3794	0.8469
3803	0.8466
3812	0.8463
3821	0.8459
3830	0.8456
3839	0.8453
3848	0.845
3857	0.8449
3866	0.8447
3875	0.8446
3884	0.8443
3893	0.8439
3902	0.8435
3911	0.843
3920	0.8425
3929	0.8414
3938	0.8403
3947	0.8393
3956	0.8385
3965	0.8378
3974	0.8371
3983	0.8366
3992	0.8366
