Infrared Spectrum: Glutaric acid
Formula: C 5 H 8 O 4
CAS: 110-94-1
State: solid
Instrument: Bruker Tensor 37 FTIR
Resolution: 0.96450084
Origin: Pacific Northwest National Laboratory Under IARPA Contract
1/cm	Reflectance
7498.03	0.634386
7480.67	0.634105
7463.31	0.631515
7445.95	0.618887
7428.59	0.605885
7411.23	0.586884
7393.87	0.549991
7376.51	0.562433
7359.15	0.559763
7341.79	0.551832
7324.43	0.543067
7307.07	0.545763
7289.71	0.556094
7272.35	0.54368
7254.99	0.545779
7237.63	0.55863
7220.27	0.562128
7202.91	0.560602
7185.55	0.571961
7168.19	0.568905
7150.83	0.566199
7133.47	0.570238
7116.11	0.567992
7098.75	0.565089
7081.39	0.558911
7064.03	0.557581
7046.67	0.54766
7029.31	0.542374
7011.96	0.53153
6994.6	0.52531
6977.24	0.515617
6959.88	0.504328
6942.52	0.490539
6925.16	0.472833
6907.8	0.455039
6890.44	0.435844
6873.08	0.41621
6855.72	0.396104
6838.36	0.374472
6821	0.353714
6803.64	0.33532
6786.28	0.31457
6768.92	0.290495
6751.56	0.268705
6734.2	0.249388
6716.84	0.225785
6699.48	0.18371
6682.12	0.188866
6664.76	0.203617
6647.4	0.201432
6630.04	0.16028
6612.68	0.180113
6595.32	0.188102
6577.96	0.188855
6560.6	0.191363
6543.24	0.190014
6525.88	0.186155
6508.52	0.180761
6491.16	0.177655
6473.8	0.170433
6456.44	0.169322
6439.08	0.16595
6421.72	0.164047
6404.36	0.161902
6387	0.161462
6369.64	0.160497
6352.28	0.158959
6334.92	0.159009
6317.56	0.15779
6300.2	0.15403
6282.84	0.152867
6265.48	0.15136
6248.12	0.150115
6230.76	0.148649
6213.4	0.151069
6196.04	0.152305
6178.68	0.151383
6161.32	0.149448
6143.97	0.145488
6126.61	0.143193
6109.25	0.138342
6091.89	0.124016
6074.53	0.125351
6057.17	0.109002
6039.81	0.118412
6022.45	0.114749
6005.09	0.118057
5987.73	0.113192
5970.37	0.105576
5953.01	0.0740915
5935.65	0.0727575
5918.29	0.0785285
5900.93	0.0705868
5883.57	0.0718624
5866.21	0.0658957
5848.85	0.0672575
5831.49	0.0762718
5814.13	0.0775114
5796.77	0.0765612
5779.41	0.0649719
5762.05	0.0652594
5744.69	0.066701
5727.33	0.0612077
5709.97	0.0687796
5692.61	0.0701789
5675.25	0.0703468
5657.89	0.0729818
5640.53	0.0747065
5623.17	0.0746347
5605.81	0.0743071
5588.45	0.0711768
5571.09	0.0712542
5553.73	0.069019
5536.37	0.0646264
5519.01	0.0594684
5501.65	0.0523524
5484.29	0.0466022
5466.93	0.0408316
5449.57	0.0365747
5432.21	0.033176
5414.85	0.0319348
5397.49	0.0313246
5380.13	0.0306539
5362.77	0.0303411
5345.41	0.0303177
5328.05	0.0305614
5310.69	0.0308132
5293.33	0.0319478
5275.97	0.0329919
5258.62	0.0339593
5241.26	0.0337553
5223.9	0.0355755
5206.54	0.0350794
5189.18	0.036446
5171.82	0.0358916
5154.46	0.0357062
5137.1	0.0357589
5119.74	0.0357798
5102.38	0.0360109
5085.02	0.0360579
5067.66	0.0365029
5050.3	0.0366707
5032.94	0.03668
5015.58	0.0368213
4998.22	0.0368122
4980.86	0.0365606
4963.5	0.0366805
4946.14	0.0368937
4928.78	0.0371136
4911.42	0.0370323
4894.06	0.0372316
4876.7	0.0366756
4859.34	0.0376672
4841.98	0.0369374
4824.62	0.0367693
4807.26	0.0367763
4789.9	0.0379146
4772.54	0.0376494
4755.18	0.0363514
4737.82	0.0347151
4720.46	0.033359
4703.1	0.0321294
4685.74	0.0306103
4668.38	0.0285091
4651.02	0.0263153
4633.66	0.0232768
4616.3	0.0572082
4598.94	0.150096
4581.58	0.0545453
4564.22	0.0429962
4546.86	0.0394922
4529.5	0.0371394
4512.14	0.035492
4494.78	0.0327268
4477.42	0.0305053
4460.06	0.0302683
4442.7	0.0350673
4425.34	0.0302722
4407.98	0.0284745
4390.63	0.034887
4373.27	0.0330432
4355.91	0.0414045
4338.55	0.0342769
4321.19	0.0360791
4303.83	0.0346429
4286.47	0.029802
4269.11	0.0302761
4251.75	0.0280111
4234.39	0.0240947
4217.03	0.0376669
4199.67	0.0497809
4182.31	0.0404073
4164.95	0.0385379
4147.59	0.0370645
4130.23	0.0391848
4112.87	0.0407177
4095.51	0.0336869
4078.15	0.0382944
4060.79	0.0401027
4043.43	0.632956
4026.07	0.628147
4008.71	0.618759
3991.35	0.607184
3973.99	0.596125
3956.63	0.5681
3939.27	0.540571
3921.91	0.557157
3904.55	0.556329
3887.19	0.543815
3869.83	0.536495
3852.47	0.540926
3835.11	0.547486
3817.75	0.535152
3800.39	0.547778
3783.03	0.554515
3765.67	0.554992
3748.31	0.559807
3730.95	0.567079
3713.59	0.559896
3696.23	0.565898
3678.87	0.563275
3661.51	0.559667
3644.15	0.559627
3626.79	0.5532
3609.43	0.544725
3592.07	0.539745
3574.71	0.531363
3557.35	0.521326
3539.99	0.514556
3522.64	0.505657
3505.28	0.492236
3487.92	0.479897
3470.56	0.459087
3453.2	0.441175
3435.84	0.420498
3418.48	0.40035
3401.12	0.37898
3383.76	0.360097
3366.4	0.338511
3349.04	0.319301
3331.68	0.295095
3314.32	0.274315
3296.96	0.255303
3279.6	0.236371
3262.24	0.215809
3244.88	0.168701
3227.52	0.191767
3210.16	0.197425
3192.8	0.185192
3175.44	0.157149
3158.08	0.174648
3140.72	0.178457
3123.36	0.18268
3106	0.183275
3088.64	0.181921
3071.28	0.175747
3053.92	0.172961
3036.56	0.169013
3019.2	0.163408
3001.84	0.162154
2984.48	0.158358
2967.12	0.156995
2949.76	0.155496
2932.4	0.154919
2915.04	0.155196
2897.68	0.154054
2880.32	0.152875
2862.96	0.15097
2845.6	0.148072
2828.24	0.146675
2810.88	0.145517
2793.52	0.144273
2776.16	0.144639
2758.8	0.146494
2741.44	0.14695
2724.08	0.145385
2706.72	0.142375
2689.36	0.13941
2672	0.136748
2654.64	0.128857
2637.29	0.117418
2619.93	0.116473
2602.57	0.106825
2585.21	0.110406
2567.85	0.112888
2550.49	0.11308
2533.13	0.107991
2515.77	0.0957266
2498.41	0.0725944
2481.05	0.0754991
2463.69	0.0709098
2446.33	0.074516
2428.97	0.0639749
2411.61	0.0634303
2394.25	0.0680048
2376.89	0.0726911
2359.53	0.0740631
2342.17	0.0729779
2324.81	0.0558534
2307.45	0.0626302
2290.09	0.0600144
2272.73	0.0638901
2255.37	0.0666518
2238.01	0.0679949
2220.65	0.0661701
2203.29	0.0707817
2185.93	0.0714854
2168.57	0.0732832
2151.21	0.0728984
2133.85	0.0686468
2116.49	0.0685683
2099.13	0.0653513
2081.77	0.0613523
2064.41	0.0560483
2047.05	0.0490004
2029.69	0.0440191
2012.33	0.0385341
1994.97	0.0354993
1977.61	0.0326757
1960.25	0.0312859
1942.89	0.0309413
1925.53	0.0308038
1908.17	0.0302606
1890.81	0.0304929
1873.45	0.0305056
1856.09	0.0314932
1838.73	0.0317316
1821.37	0.0335548
1804.01	0.0332084
1786.65	0.0341456
1769.3	0.0348298
1751.94	0.035485
1734.58	0.0363961
1717.22	0.0356442
1699.86	0.0355596
1682.5	0.0357006
1665.14	0.0352743
1647.78	0.036057
1630.42	0.0359133
1613.06	0.0365938
1595.7	0.0363358
1578.34	0.0366372
1560.98	0.0368327
1543.62	0.0367389
1526.26	0.0365978
1508.9	0.0367384
1491.54	0.0372243
1474.18	0.0368964
1456.82	0.0367074
1439.46	0.0370978
1422.1	0.0371158
1404.74	0.0375026
1387.38	0.0369477
1370.02	0.0367154
1352.66	0.0371203
1335.3	0.0381133
1317.94	0.0374465
1300.58	0.035768
1283.22	0.0343442
1265.86	0.0332672
1248.5	0.0312739
1231.14	0.0301017
1213.78	0.0280959
1196.42	0.0255611
1179.06	0.0223019
1161.7	0.108872
1144.34	0.108168
1126.98	0.04853
1109.62	0.0418566
1092.26	0.0391715
1074.9	0.0370014
1057.54	0.0351161
1040.18	0.0306573
1022.82	0.0331255
1005.46	0.0426345
988.104	0.0336351
970.744	0.0305273
953.384	0.0401393
936.025	0.0365046
918.665	0.0343642
901.305	0.0425614
883.945	0.0333738
866.585	0.0369786
849.226	0.0347032
831.866	0.0342841
814.506	0.0303804
797.146	0.0277824
779.786	0.0237818
762.427	0.0571371
745.067	0.0468551
727.707	0.0412203
710.347	0.0391742
692.987	0.038732
675.628	0.0431237
658.268	0.0399521
640.908	0.0370303
623.548	0.0422943
606.188	0.0392685
