Infrared Spectrum: 2,5-HEXANEDIONE
Formula: C6 H10 O2
CAS: 110-13-4
State: VAPOR (10 MICROLITER AT 150 C)
Boiling point: 192 C
Class: COBLENTZ
Instrument: PERKIN-ELMER 180
Sampling: TRANSMISSION
Path length: 5 CM KBr CELL, CELL VOLUME: 80 CM^3
Resolution: 2-3 CM^-^1
Origin: PERKIN-ELMER CORP. (M. ZELLER)
1/CM	TRANSMITTANCE
402.712	0.47
412.204	0.543
421.695	0.591
431.187	0.633
440.678	0.679
450.17	0.729
459.662	0.765
469.153	0.803
478.645	0.838
488.136	0.861
497.628	0.866
507.12	0.841
516.611	0.836
526.103	0.845
535.594	0.863
545.086	0.882
554.577	0.884
564.069	0.886
573.561	0.889
583.052	0.899
592.544	0.91
602.035	0.916
611.527	0.91
621.019	0.907
630.51	0.917
640.002	0.936
649.493	0.937
658.985	0.935
668.477	0.935
677.968	0.936
687.46	0.933
696.951	0.932
706.443	0.928
715.935	0.914
725.426	0.903
734.918	0.883
744.409	0.882
753.901	0.902
763.393	0.913
772.884	0.918
782.376	0.918
791.867	0.918
801.359	0.918
810.851	0.918
820.342	0.92
829.834	0.924
839.325	0.926
848.817	0.93
858.308	0.93
867.8	0.933
877.292	0.935
886.783	0.93
896.275	0.925
905.766	0.928
915.258	0.924
924.75	0.912
934.241	0.902
943.733	0.879
953.224	0.847
962.716	0.811
972.208	0.809
981.699	0.841
991.191	0.864
1000.68	0.879
1010.17	0.868
1019.67	0.863
1029.16	0.838
1038.65	0.837
1048.14	0.845
1057.63	0.86
1067.12	0.861
1076.62	0.866
1086.11	0.864
1095.6	0.871
1105.09	0.867
1114.58	0.851
1124.07	0.807
1133.56	0.6911
1143.06	0.4391
1152.55	0.281
1162.04	0.3411
1171.53	0.5799
1181.02	0.64
1190.51	0.625
1200.01	0.631
1209.5	0.684
1218.99	0.711
1228.48	0.719
1237.97	0.738
1247.46	0.757
1256.96	0.752
1266.45	0.728
1275.94	0.717
1285.43	0.722
1294.92	0.738
1304.41	0.737
1313.9	0.729
1323.4	0.715
1332.89	0.665
1342.38	0.561
1351.87	0.4258
1361.36	0.277
1370.85	0.307
1380.35	0.5021
1389.84	0.598
1399.33	0.603
1408.82	0.56
1418.31	0.556
1427.8	0.602
1437.3	0.663
1446.79	0.723
1456.28	0.768
1465.77	0.801
1475.26	0.811
1484.75	0.828
1494.25	0.836
1503.74	0.833
1513.23	0.833
1522.72	0.829
1532.21	0.833
1541.7	0.829
1551.19	0.824
1560.69	0.826
1570.18	0.826
1579.67	0.83
1589.16	0.828
1598.65	0.828
1608.14	0.829
1617.64	0.829
1627.13	0.828
1636.62	0.834
1646.11	0.826
1655.6	0.818
1665.09	0.801
1674.59	0.769
1684.08	0.71
1693.57	0.6209
1703.06	0.46
1712.55	0.19
1722.04	0.05
1731.54	0.043
1741.03	0.177
1750.52	0.4352
1760.01	0.6531
1769.5	0.732
1778.99	0.78
1788.48	0.818
1797.98	0.836
1807.47	0.855
1816.96	0.868
1826.45	0.879
1835.94	0.882
1845.43	0.887
1854.93	0.89
1864.42	0.891
1873.91	0.891
1883.4	0.891
1892.89	0.893
1902.38	0.895
1911.88	0.894
1921.37	0.893
1930.86	0.893
1940.35	0.889
1949.84	0.89
1959.33	0.89
1968.82	0.893
1978.32	0.89
1987.81	0.887
1997.3	0.891
2006.79	0.893
2016.28	0.891
2025.77	0.891
2035.27	0.891
2044.76	0.89
2054.25	0.89
2063.74	0.889
2073.23	0.886
2082.72	0.883
2092.22	0.88
2101.71	0.882
2111.2	0.882
2120.69	0.882
2130.18	0.8816
2139.67	0.88
2149.17	0.88
2158.66	0.8815
2168.15	0.8787
2177.64	0.876
2187.13	0.882
2196.62	0.882
2206.11	0.8796
2215.61	0.879
2225.1	0.879
2234.59	0.879
2244.08	0.8771
2253.57	0.8779
2263.06	0.8755
2272.56	0.874
2282.05	0.872
2291.54	0.872
2301.03	0.8669
2310.52	0.864
2320.01	0.8651
2329.51	0.867
2339	0.868
2348.49	0.8667
2357.98	0.866
2367.47	0.867
2376.96	0.867
2386.46	0.872
2395.95	0.8673
2405.44	0.8649
2414.93	0.868
2424.42	0.8632
2433.91	0.8655
2443.4	0.867
2452.9	0.8616
2462.39	0.8603
2471.88	0.863
2481.37	0.8617
2490.86	0.86
2500.35	0.8583
2509.85	0.8569
2519.34	0.8594
2528.83	0.861
2538.32	0.859
2547.81	0.86
2557.3	0.8581
2566.8	0.855
2576.29	0.855
2585.78	0.855
2595.27	0.856
2604.76	0.857
2614.25	0.8554
2623.74	0.8529
2633.24	0.851
2642.73	0.849
2652.22	0.8457
2661.71	0.844
2671.2	0.8447
2680.69	0.845
2690.19	0.844
2699.68	0.843
2709.17	0.841
2718.66	0.841
2728.15	0.841
2737.64	0.84
2747.14	0.837
2756.63	0.8337
2766.12	0.833
2775.61	0.8296
2785.1	0.828
2794.59	0.8232
2804.09	0.82
2813.58	0.8161
2823.07	0.8131
2832.56	0.8061
2842.05	0.801
2851.54	0.7955
2861.03	0.787
2870.53	0.7779
2880.02	0.7486
2889.51	0.6834
2899	0.5734
2908.49	0.53
2917.98	0.5612
2927.48	0.6069
2936.97	0.6426
2946.46	0.6647
2955.95	0.672
2965.44	0.6751
2974.93	0.6905
2984.43	0.7099
2993.92	0.7084
3003.41	0.688
3012.9	0.7034
3022.39	0.7376
3031.88	0.7563
3041.37	0.7638
3050.87	0.765
3060.36	0.7679
3069.85	0.769
3079.34	0.774
3088.83	0.7808
3098.32	0.7829
3107.82	0.791
3117.31	0.791
3126.8	0.794
3136.29	0.795
3145.78	0.7945
3155.27	0.797
3164.77	0.797
3174.26	0.797
3183.75	0.797
3193.24	0.797
3202.73	0.7958
3212.22	0.795
3221.72	0.795
3231.21	0.7953
3240.7	0.797
3250.19	0.798
3259.68	0.799
3269.17	0.799
3278.66	0.799
3288.16	0.799
3297.65	0.798
3307.14	0.798
3316.63	0.797
3326.12	0.795
3335.61	0.7942
3345.11	0.792
3354.6	0.7923
3364.09	0.7906
3373.58	0.7909
3383.07	0.79
3392.56	0.7871
3402.06	0.786
3411.55	0.782
3421.04	0.7735
3430.53	0.765
3440.02	0.752
3449.51	0.7491
3459.01	0.7578
3468.5	0.7751
3477.99	0.778
3487.48	0.78
3496.97	0.782
3506.46	0.783
3515.95	0.783
3525.45	0.7803
3534.94	0.7806
3544.43	0.7836
3553.92	0.784
3563.41	0.7785
3572.9	0.7822
3582.4	0.7797
3591.89	0.778
3601.38	0.7797
3610.87	0.779
3620.36	0.778
3629.85	0.779
3639.35	0.778
3648.84	0.776
3658.33	0.774
3667.82	0.772
3677.31	0.7731
3686.8	0.775
3696.29	0.7715
3705.79	0.771
3715.28	0.769
3724.77	0.767
3734.26	0.7699
3743.75	0.7651
3753.24	0.768
3762.74	0.767
3772.23	0.767
3781.72	0.765
3791.21	0.764
3800.7	0.763
3810.19	0.7617
3819.69	0.761
3829.18	0.7616
3838.67	0.76
3848.16	0.759
3857.65	0.757
3867.14	0.7562
3876.64	0.7557
3886.13	0.755
3895.62	0.752
3905.11	0.752
3914.6	0.753
3924.09	0.755
3933.58	0.755
3943.08	0.753
3952.57	0.752
3962.06	0.752
3971.55	0.751
3981.04	0.749
3990.53	0.749
