Infrared Spectrum: DI-ISOBUTYLAMINE
Formula: C8 H19 N
CAS: 110-96-3
State: SOLUTION (10% CCl4)
Class: COBLENTZ
Instrument: Not specified, most likely a prism, grating, or hybrid spectrometer.
Sampling: TRANSMISSION
Path length: 0.0120 CM
Resolution: 4
Origin: DOW CHEMICAL COMPANY
MICROMETERS	TRANSMITTANCE
2.021	0.896
2.06211	0.893
2.10323	0.895
2.14434	0.896
2.18545	0.895
2.22657	0.876
2.26768	0.85
2.30879	0.841
2.34991	0.86
2.39102	0.864
2.43213	0.857
2.47325	0.879
2.51436	0.893
2.55547	0.893
2.59659	0.888
2.6377	0.888
2.67881	0.896
2.71993	0.891
2.76104	0.896
2.80215	0.898
2.84327	0.893
2.88438	0.89
2.92549	0.871
2.96661	0.859
3.00772	0.859
3.04883	0.869
3.08995	0.857
3.13106	0.831
3.17217	0.828
3.21329	0.847
3.2544	0.835
3.29551	0.792
3.33663	0.609
3.37774	0.03
3.41885	0.046
3.45997	0.063
3.50108	0.206
3.54219	0.206
3.58331	0.233
3.62442	0.462
3.66553	0.554
3.70665	0.685
3.74776	0.749
3.78887	0.762
3.82999	0.804
3.8711	0.819
3.91221	0.845
3.95333	0.871
3.99444	0.879
4.03555	0.883
4.07667	0.891
4.11778	0.883
4.15889	0.89
4.2	0.893
4.24112	0.893
4.28223	0.893
4.32334	0.893
4.36446	0.902
4.40557	0.898
4.44668	0.902
4.4878	0.903
4.52891	0.905
4.57002	0.903
4.61114	0.903
4.65225	0.9
4.69336	0.898
4.73448	0.902
4.77559	0.908
4.8167	0.907
4.85782	0.91
4.89893	0.903
4.94004	0.91
4.98116	0.91
5.02227	0.907
5.06338	0.914
5.1045	0.919
5.14561	0.91
5.18672	0.919
5.22784	0.912
5.26895	0.907
5.31006	0.907
5.35118	0.907
5.39229	0.908
5.4334	0.908
5.47452	0.905
5.51563	0.907
5.55674	0.912
5.59786	0.907
5.63897	0.907
5.68008	0.903
5.7212	0.867
5.76231	0.852
5.80342	0.888
5.84454	0.89
5.88565	0.883
5.92676	0.871
5.96788	0.841
6.00899	0.872
6.0501	0.883
6.09122	0.879
6.13233	0.893
6.17344	0.893
6.21456	0.907
6.25567	0.922
6.29678	0.934
6.3379	0.941
6.37901	0.95
6.42012	0.955
6.46124	0.962
6.50235	0.96
6.54346	0.92
6.58458	0.893
6.62569	0.855
6.6668	0.807
6.70792	0.713
6.74903	0.512
6.79014	0.183
6.83126	0.079
6.87237	0.268
6.91348	0.367
6.9546	0.556
6.99571	0.706
7.03682	0.738
7.07794	0.756
7.11905	0.731
7.16016	0.604
7.20128	0.39
7.24239	0.39
7.2835	0.508
7.32462	0.39
7.36573	0.618
7.40684	0.694
7.44796	0.719
7.48907	0.716
7.53018	0.78
7.5713	0.817
7.61241	0.823
7.65352	0.8
7.69464	0.776
7.73575	0.74
7.77686	0.713
7.81798	0.75
7.85909	0.778
7.9002	0.797
7.94132	0.841
7.98243	0.852
8.02354	0.812
8.06466	0.797
8.10577	0.771
8.14688	0.776
8.188	0.845
8.22911	0.864
8.27022	0.872
8.31133	0.853
8.35245	0.833
8.39356	0.8
8.43467	0.761
8.47579	0.743
8.5169	0.733
8.55801	0.733
8.59913	0.731
8.64024	0.704
8.68135	0.639
8.72247	0.56
8.76358	0.506
8.80469	0.396
8.84581	0.305
8.88692	0.238
8.92803	0.247
8.96915	0.316
9.01026	0.352
9.05137	0.36
9.09249	0.395
9.1336	0.486
9.17471	0.58
9.21583	0.671
9.25694	0.74
9.29805	0.761
9.33917	0.783
9.38028	0.807
9.42139	0.819
9.46251	0.819
9.50362	0.821
9.54473	0.831
9.58585	0.828
9.62696	0.802
9.66807	0.773
9.70919	0.78
9.7503	0.809
9.79141	0.821
9.83253	0.833
9.87364	0.836
9.91475	0.829
9.95587	0.829
9.99698	0.829
10.0381	0.845
10.0792	0.852
10.1203	0.857
10.1614	0.859
10.2025	0.857
10.2437	0.855
10.2848	0.847
10.3259	0.824
10.367	0.795
10.4081	0.773
10.4492	0.773
10.4903	0.788
10.5315	0.792
10.5726	0.774
10.6137	0.749
10.6548	0.738
10.6959	0.735
10.737	0.74
10.7781	0.764
10.8192	0.75
10.8604	0.711
10.9015	0.714
10.9426	0.756
10.9837	0.78
11.0248	0.788
11.0659	0.79
11.107	0.79
11.1482	0.792
11.1893	0.79
11.2304	0.79
11.2715	0.793
11.3126	0.824
11.3537	0.829
11.3948	0.835
11.4359	0.833
11.4771	0.828
11.5182	0.835
11.5593	0.843
11.6004	0.857
11.6415	0.86
11.6826	0.862
11.7237	0.862
11.7649	0.862
11.806	0.857
11.8471	0.86
11.8882	0.86
11.9293	0.847
11.9704	0.845
12.0115	0.841
12.0526	0.836
12.0938	0.836
12.1349	0.845
12.176	0.855
12.2171	0.862
12.2582	0.872
12.2993	0.879
12.3404	0.881
12.3816	0.876
12.4227	0.862
12.4638	0.85
12.5049	0.841
12.546	0.833
12.5871	0.821
12.6282	0.81
12.6693	0.798
12.7105	0.785
12.7516	0.769
12.7927	0.759
12.8338	0.745
12.8749	0.731
12.916	0.719
12.9571	0.713
12.9983	0.707
13.0394	0.704
13.0805	0.704
13.1216	0.702
13.1627	0.701
13.2038	0.69
13.2449	0.678
13.286	0.675
13.3272	0.671
13.3683	0.666
13.4094	0.659
13.4505	0.654
13.4916	0.647
13.5327	0.642
13.5738	0.639
13.615	0.632
13.6561	0.632
13.6972	0.63
13.7383	0.621
13.7794	0.603
13.8205	0.577
13.8616	0.549
13.9027	0.534
13.9439	0.522
13.985	0.508
14.0261	0.501
14.0672	0.496
14.1083	0.493
14.1494	0.493
14.1905	0.496
14.2317	0.501
14.2728	0.508
14.3139	0.517
14.355	0.524
14.3961	0.53
14.4372	0.539
14.4783	0.546
14.5194	0.554
14.5606	0.565
14.6017	0.572
14.6428	0.58
14.6839	0.589
14.725	0.596
14.7661	0.599
14.8072	0.606
14.8483	0.609
14.8895	0.616
14.9306	0.621
14.9717	0.628
15.0128	0.635
15.0539	0.644
15.095	0.646
15.1361	0.649
15.1773	0.652
15.2184	0.654
15.2595	0.659
15.3006	0.659
15.3417	0.659
15.3828	0.659
15.4239	0.658
15.465	0.661
15.5062	0.663
15.5473	0.663
15.5884	0.666
15.6295	0.663
15.6706	0.661
15.7117	0.661
15.7528	0.659
15.794	0.659
15.8351	0.658
15.8762	0.656
15.9173	0.656
