Infrared Spectrum: 1,5-CYCLOOCTADIENE
Formula: C8 H12
CAS: 111-78-4
State: SOLUTION (10% IN CCl4 FOR 3800-1300, 10% IN CS2 FOR 1300-650, AND 10% IN CCl4 FOR 650-250 CM^-^1) VERSUS SOLVENT
Class: COBLENTZ III
Instrument: PERKIN-ELMER 521 (GRATING)
Instrument parameters: FILTERS AT 3150, 2500, 2000, 1150, 700, 410; GRATING CHANGES AT 2000, 630 CM^-^1
Sampling: TRANSMISSION
Path length: 0.011, 0.011, AND 0.011 CM (CsBr CELL)
Resolution: 4
Origin: DOW CORNING CORP.
1/CM	TRANSMITTANCE
247.68	0.998
256.64	0.979
265.6	0.963
274.56	0.959
283.52	0.956
292.48	0.954
301.44	0.952
310.4	0.951
319.36	0.947
328.32	0.944
337.281	0.931
346.241	0.903
355.201	0.907
364.161	0.938
373.121	0.952
382.081	0.956
391.041	0.954
400.001	0.951
408.961	0.952
417.921	0.954
426.881	0.952
435.841	0.947
444.801	0.923
453.761	0.874
462.721	0.7461
471.681	0.8329
480.641	0.865
489.601	0.7501
498.561	0.812
507.521	0.898
516.482	0.912
525.442	0.916
534.402	0.919
543.362	0.921
552.322	0.923
561.282	0.923
570.242	0.921
579.202	0.924
588.162	0.926
597.122	0.917
606.082	0.895
615.042	0.8461
624.002	0.779
632.962	0.636
641.922	0.3752
650.882	0.218
659.842	0.398
668.802	0.5379
677.762	0.662
686.722	0.671
695.683	0.496
704.643	0.1901
713.603	0.305
722.563	0.323
731.523	0.5938
740.483	0.685
749.443	0.674
758.403	0.7179
767.363	0.763
776.323	0.739
785.283	0.6499
794.243	0.3491
803.203	0.473
812.163	0.576
821.123	0.508
830.083	0.727
839.043	0.688
848.003	0.819
856.963	0.835
865.923	0.837
874.884	0.835
883.844	0.814
892.804	0.762
901.764	0.739
910.724	0.788
919.684	0.805
928.644	0.816
937.604	0.816
946.564	0.809
955.524	0.779
964.484	0.709
973.444	0.756
982.404	0.715
991.364	0.604
1000.32	0.484
1009.28	0.643
1018.24	0.77
1027.2	0.798
1036.16	0.804
1045.12	0.798
1054.08	0.786
1063.04	0.762
1072	0.702
1080.96	0.54
1089.92	0.7089
1098.88	0.791
1107.84	0.811
1116.8	0.814
1125.76	0.809
1134.73	0.8
1143.69	0.797
1152.65	0.798
1161.61	0.797
1170.57	0.784
1179.53	0.76
1188.49	0.687
1197.45	0.6569
1206.41	0.44
1215.37	0.702
1224.33	0.638
1233.29	0.632
1242.25	0.708
1251.21	0.701
1260.17	0.603
1269.13	0.667
1278.09	0.741
1287.05	0.772
1296.01	0.825
1304.97	0.861
1313.93	0.844
1322.89	0.861
1331.85	0.858
1340.81	0.842
1349.77	0.769
1358.73	0.823
1367.69	0.863
1376.65	0.868
1385.61	0.86
1394.57	0.832
1403.53	0.805
1412.49	0.6809
1421.45	0.283
1430.41	0.4731
1439.37	0.6617
1448.33	0.645
1457.29	0.774
1466.25	0.774
1475.21	0.6781
1484.17	0.26
1493.13	0.795
1502.09	0.8611
1511.05	0.886
1520.01	0.9
1528.97	0.903
1537.93	0.912
1546.89	0.912
1555.85	0.909
1564.81	0.905
1573.77	0.905
1582.73	0.903
1591.69	0.889
1600.65	0.868
1609.61	0.832
1618.57	0.814
1627.53	0.812
1636.49	0.786
1645.45	0.6569
1654.41	0.571
1663.37	0.784
1672.33	0.811
1681.29	0.84
1690.25	0.861
1699.21	0.875
1708.17	0.874
1717.13	0.875
1726.09	0.875
1735.05	0.881
1744.01	0.881
1752.97	0.87
1761.93	0.844
1770.89	0.87
1779.85	0.881
1788.81	0.881
1797.77	0.879
1806.73	0.879
1815.69	0.888
1824.65	0.889
1833.61	0.891
1842.57	0.891
1851.53	0.891
1860.49	0.886
1869.45	0.877
1878.41	0.886
1887.37	0.886
1896.33	0.886
1905.29	0.893
1914.25	0.891
1923.21	0.889
1932.17	0.893
1941.13	0.893
1950.09	0.896
1959.05	0.886
1968.01	0.884
1976.97	0.886
1985.93	0.895
1994.89	0.896
2003.85	0.8965
2012.81	0.902
2021.77	0.903
2030.73	0.903
2039.69	0.901
2048.65	0.896
2057.61	0.895
2066.57	0.895
2075.53	0.891
2084.49	0.893
2093.45	0.893
2102.41	0.893
2111.37	0.891
2120.33	0.891
2129.29	0.891
2138.25	0.889
2147.21	0.884
2156.17	0.879
2165.13	0.8875
2174.09	0.884
2183.05	0.8885
2192.01	0.893
2200.97	0.891
2209.93	0.893
2218.89	0.891
2227.85	0.889
2236.81	0.889
2245.77	0.889
2254.73	0.891
2263.69	0.891
2272.65	0.892
2281.61	0.891
2290.57	0.893
2299.53	0.889
2308.49	0.886
2317.45	0.891
2326.41	0.892
2335.37	0.893
2344.33	0.893
2353.29	0.891
2362.25	0.89
2371.21	0.888
2380.17	0.888
2389.13	0.884
2398.09	0.8815
2407.05	0.884
2416.01	0.8815
2424.97	0.884
2433.93	0.8815
2442.89	0.884
2451.85	0.888
2460.81	0.888
2469.77	0.885
2478.73	0.886
2487.69	0.887
2496.65	0.882
2505.61	0.886
2514.57	0.881
2523.53	0.878
2532.49	0.877
2541.45	0.877
2550.41	0.879
2559.37	0.88
2568.33	0.881
2577.29	0.88
2586.25	0.875
2595.21	0.878
2604.17	0.874
2613.13	0.862
2622.09	0.849
2631.05	0.8495
2640.01	0.858
2648.97	0.8545
2657.93	0.839
2666.89	0.8255
2675.85	0.821
2684.81	0.7901
2693.77	0.7841
2702.73	0.837
2711.69	0.84
2720.65	0.844
2729.61	0.856
2738.57	0.85
2747.53	0.833
2756.49	0.828
2765.45	0.826
2774.41	0.821
2783.37	0.7901
2792.33	0.747
2801.29	0.739
2810.25	0.6921
2819.21	0.4675
2828.17	0.2765
2837.13	0.2479
2846.09	0.4297
2855.05	0.468
2864.01	0.3645
2872.97	0.1567
2881.93	0.016
2890.89	0.031
2899.85	0.0896
2908.82	0.1949
2917.78	0.1666
2926.74	0.199
2935.7	0.069
2944.66	0.1459
2953.62	0.144
2962.58	0.2368
2971.54	0.342
2980.5	0.298
2989.46	0.2172
2998.42	0.0849
3007.38	0.023
3016.34	0.0759
3025.3	0.2581
3034.26	0.575
3043.22	0.7213
3052.18	0.77
3061.14	0.762
3070.1	0.737
3079.06	0.8095
3088.02	0.837
3096.98	0.857
3105.94	0.868
3114.9	0.874
3123.86	0.881
3132.82	0.888
3141.78	0.891
3150.74	0.891
3159.7	0.893
3168.66	0.895
3177.62	0.895
3186.58	0.8955
3195.54	0.895
3204.5	0.895
3213.46	0.893
3222.42	0.891
3231.38	0.891
3240.34	0.892
3249.3	0.893
3258.26	0.895
3267.22	0.895
3276.18	0.895
3285.14	0.891
3294.1	0.887
3303.06	0.889
3312.02	0.893
3320.98	0.893
3329.94	0.891
3338.9	0.889
3347.86	0.891
3356.82	0.889
3365.78	0.893
3374.74	0.895
3383.7	0.895
3392.66	0.896
3401.62	0.898
3410.58	0.896
3419.54	0.8955
3428.5	0.895
3437.46	0.895
3446.42	0.898
3455.38	0.897
3464.34	0.896
3473.3	0.898
3482.26	0.896
3491.22	0.895
3500.18	0.893
3509.14	0.891
3518.1	0.891
3527.06	0.893
3536.02	0.895
3544.98	0.895
3553.94	0.895
3562.9	0.898
3571.86	0.9
3580.82	0.9015
3589.78	0.893
3598.74	0.8885
3607.7	0.891
3616.66	0.895
3625.62	0.893
3634.58	0.895
3643.54	0.891
3652.5	0.89
3661.46	0.889
3670.42	0.889
3679.38	0.889
3688.34	0.891
3697.3	0.893
3706.26	0.893
3715.22	0.893
3724.18	0.891
3733.14	0.893
3742.1	0.895
3751.06	0.895
3760.02	0.892
3768.98	0.889
3777.94	0.889
3786.9	0.893
