Infrared Spectrum: DIETHANOL, 2,2'-IMINO-
Formula: C4 H11 N O2
CAS: 111-42-2
State: LIQUID (NEAT)
Class: COBLENTZ III
Instrument: DOW KBr FOREPRISM-GRATING
Instrument parameters: BLAZED AT 3.5, 12.0, 20.0 AND CHANGED AT 5.0, 7.5, 14.9 MICRON
Sampling: TRANSMISSION
Path length: CAPILLARY
Resolution: 2
Origin: DOW CHEMICAL COMPANY
1/CM	TRANSMITTANCE
3800	0.8864
3791	0.8868
3782	0.8874
3773	0.888
3764	0.8877
3755	0.8874
3746	0.8871
3737	0.8868
3728	0.8865
3719	0.8859
3710	0.8842
3701	0.8813
3692	0.8793
3683	0.878
3674	0.8765
3665	0.8738
3656	0.8693
3647	0.8637
3638	0.8546
3629	0.8433
3620	0.8306
3611	0.8168
3602	0.8005
3593	0.7812
3584	0.7631
3575	0.7319
3566	0.6854
3557	0.6408
3548	0.6003
3539	0.5705
3530	0.5287
3521	0.5097
3512	0.491
3503	0.4126
3494	0.3541
3485	0.321
3476	0.2704
3467	0.237
3458	0.202
3449	0.1604
3440	0.1358
3431	0.1178
3422	0.1006
3413	0.0886
3404	0.0786
3395	0.0696
3386	0.0642
3377	0.0616
3368	0.0602
3359	0.0596
3350	0.0589
3341	0.0569
3332	0.0537
3323	0.0516
3314	0.0499
3305	0.0505
3296	0.0525
3287	0.0548
3278	0.0593
3269	0.0639
3260	0.0693
3251	0.0758
3242	0.0824
3233	0.0889
3224	0.0957
3215	0.1027
3206	0.1098
3197	0.1168
3188	0.1246
3179	0.1329
3170	0.1412
3161	0.1491
3152	0.1569
3143	0.1646
3134	0.1725
3125	0.1803
3116	0.1884
3107	0.1984
3098	0.2087
3089	0.2204
3080	0.2323
3071	0.2445
3062	0.2574
3053	0.2702
3044	0.29
3035	0.3121
3026	0.3289
3017	0.3416
3008	0.3526
2999	0.3555
2990	0.3512
2981	0.3103
2972	0.2522
2963	0.1368
2954	0.0926
2945	0.0616
2936	0.0562
2927	0.0545
2918	0.0545
2909	0.0592
2900	0.0616
2891	0.0625
2882	0.0627
2873	0.0621
2864	0.0603
2855	0.0587
2846	0.0582
2837	0.0615
2828	0.0778
2819	0.1155
2810	0.1477
2801	0.1726
2792	0.1967
2783	0.216
2774	0.2328
2765	0.2454
2756	0.2559
2747	0.2651
2738	0.2743
2729	0.2844
2720	0.296
2711	0.3075
2702	0.3168
2693	0.3258
2684	0.3355
2675	0.3457
2666	0.356
2657	0.369
2648	0.3852
2639	0.4012
2630	0.415
2621	0.4275
2612	0.44
2603	0.4525
2594	0.4631
2585	0.4734
2576	0.4838
2567	0.4936
2558	0.5029
2549	0.5121
2540	0.522
2531	0.5336
2522	0.545
2513	0.5562
2504	0.5676
2495	0.5815
2486	0.6004
2477	0.6153
2468	0.6317
2459	0.648
2450	0.6603
2441	0.6731
2432	0.6818
2423	0.6893
2414	0.6971
2405	0.7055
2396	0.714
2387	0.7226
2378	0.7318
2369	0.7401
2360	0.7489
2351	0.7538
2342	0.7585
2333	0.7626
2324	0.7668
2315	0.7708
2306	0.7745
2297	0.7782
2288	0.7818
2279	0.7855
2270	0.7889
2261	0.7922
2252	0.7957
2243	0.7978
2234	0.7995
2225	0.801
2216	0.8026
2207	0.8044
2198	0.8061
2189	0.8075
2180	0.8085
2171	0.8094
2162	0.8103
2153	0.811
2144	0.8117
2135	0.8121
2126	0.8128
2117	0.8135
2108	0.8144
2099	0.8154
2090	0.8162
2081	0.8172
2072	0.8178
2063	0.818
2054	0.8181
2045	0.818
2036	0.8176
2027	0.8172
2018	0.8171
2009	0.8168
2000	0.8165
1991	0.8168
1982	0.8165
1973	0.8155
1964	0.8125
1955	0.809
1946	0.8056
1937	0.8042
1928	0.8019
1919	0.8001
1910	0.7995
1901	0.8005
1892	0.8038
1883	0.8061
1874	0.8065
1865	0.8069
1856	0.8088
1847	0.8101
1838	0.8087
1829	0.8088
1820	0.809
1811	0.8094
1802	0.8099
1793	0.8096
1784	0.8085
1775	0.808
1766	0.8078
1757	0.8065
1748	0.8044
1739	0.8018
1730	0.8003
1721	0.7992
1712	0.7982
1703	0.7961
1694	0.7926
1685	0.7868
1676	0.7794
1667	0.7714
1658	0.7634
1649	0.7715
1640	0.7826
1631	0.7845
1622	0.7838
1613	0.7826
1604	0.7811
1595	0.7792
1586	0.7771
1577	0.7748
1568	0.7705
1559	0.7658
1550	0.758
1541	0.7471
1532	0.7314
1523	0.7072
1514	0.6855
1505	0.645
1496	0.5862
1487	0.5012
1478	0.4158
1469	0.348
1460	0.2923
1451	0.2845
1442	0.3437
1433	0.4022
1424	0.4619
1415	0.4945
1406	0.5233
1397	0.5417
1388	0.5386
1379	0.517
1370	0.4829
1361	0.4484
1352	0.4544
1343	0.4748
1334	0.5131
1325	0.5507
1316	0.5716
1307	0.5914
1298	0.6166
1289	0.6428
1280	0.6631
1271	0.6658
1262	0.6626
1253	0.6434
1244	0.6174
1235	0.6268
1226	0.6642
1217	0.6761
1208	0.6608
1199	0.6467
1190	0.6712
1181	0.736
1172	0.765
1163	0.7674
1154	0.7258
1145	0.5616
1136	0.4121
1127	0.3348
1118	0.389
1109	0.517
1100	0.5287
1091	0.3939
1082	0.1763
1073	0.0641
1064	0.0525
1055	0.0522
1046	0.1185
1037	0.2285
1028	0.3122
1019	0.4494
1010	0.5658
1001	0.6392
992	0.6558
983	0.66
974	0.6362
965	0.5595
956	0.4992
947	0.4389
938	0.4219
929	0.4216
920	0.4404
911	0.4873
902	0.5048
893	0.516
884	0.4824
875	0.4522
866	0.429
857	0.4455
848	0.5026
839	0.5158
830	0.4899
821	0.4893
812	0.4926
803	0.4969
794	0.5034
785	0.5112
776	0.5212
767	0.5387
758	0.5539
749	0.5689
740	0.5799
731	0.5883
722	0.596
713	0.6035
704	0.6106
695	0.6162
686	0.6196
677	0.6209
668	0.6223
659	0.6246
650	0.6269
641	0.6298
632	0.634
623	0.6405
614	0.6487
605	0.6555
596	0.6603
587	0.6618
578	0.6622
569	0.6646
560	0.6708
551	0.679
542	0.6892
533	0.6917
524	0.6907
515	0.6947
506	0.7028
497	0.7161
488	0.73
479	0.7321
470	0.7275
461	0.7205
452	0.715
443	0.7131
434	0.7117
425	0.7104
416	0.7105
407	0.7103
398	0.7104
389	0.7075
