Infrared Spectrum: OCTANOIC ACID, METHYL ESTER
Formula: C9 H18 O2
CAS: 111-11-5
State: VAPOR (30 MICROLITER AT 150 C)
Boiling point: 192 C
Class: COBLENTZ
Instrument: PERKIN-ELMER 180
Sampling: TRANSMISSION
Path length: 5 CM KBr CELL, CELL VOLUME: 80 CM^3
Resolution: 2-3 CM^-^1
Origin: PERKIN-ELMER CORP. (M. ZELLER)
1/CM	TRANSMITTANCE
408.163	0.446
417.687	0.496
427.211	0.557
436.734	0.614
446.258	0.663
455.782	0.714
465.306	0.746
474.83	0.782
484.353	0.81
493.877	0.833
503.401	0.849
512.925	0.841
522.449	0.849
531.973	0.855
541.496	0.867
551.02	0.874
560.544	0.88
570.068	0.879
579.592	0.88
589.115	0.878
598.639	0.872
608.163	0.874
617.687	0.875
627.211	0.876
636.734	0.879
646.258	0.878
655.782	0.88
665.306	0.879
674.83	0.883
684.353	0.882
693.877	0.879
703.401	0.872
712.925	0.863
722.449	0.855
731.973	0.845
741.496	0.855
751.02	0.863
760.544	0.868
770.068	0.871
779.592	0.867
789.115	0.87
798.639	0.868
808.163	0.859
817.687	0.857
827.211	0.851
836.734	0.837
846.258	0.829
855.782	0.822
865.306	0.825
874.83	0.832
884.354	0.838
893.877	0.853
903.401	0.857
912.925	0.871
922.449	0.872
931.973	0.878
941.496	0.879
951.02	0.878
960.544	0.884
970.068	0.884
979.592	0.868
989.115	0.851
998.639	0.824
1008.16	0.784
1017.69	0.7321
1027.21	0.71
1036.73	0.696
1046.26	0.696
1055.78	0.713
1065.31	0.734
1074.83	0.756
1084.35	0.764
1093.88	0.751
1103.4	0.709
1112.92	0.6191
1122.45	0.557
1131.97	0.58
1141.5	0.595
1151.02	0.5431
1160.54	0.3911
1170.07	0.224
1179.59	0.188
1189.12	0.253
1198.64	0.297
1208.16	0.285
1217.69	0.297
1227.21	0.328
1236.73	0.346
1246.26	0.354
1255.78	0.362
1265.31	0.388
1274.83	0.4539
1284.35	0.525
1293.88	0.584
1303.4	0.61
1312.92	0.612
1322.45	0.627
1331.97	0.64
1341.5	0.649
1351.02	0.629
1360.54	0.577
1370.07	0.565
1379.59	0.608
1389.12	0.66
1398.64	0.7339
1408.16	0.806
1417.69	0.81
1427.21	0.7761
1436.73	0.6921
1446.26	0.5151
1455.78	0.548
1465.31	0.585
1474.83	0.599
1484.35	0.673
1493.88	0.7679
1503.4	0.82
1512.92	0.845
1522.45	0.856
1531.97	0.86
1541.5	0.866
1551.02	0.87
1560.54	0.87
1570.07	0.86
1579.59	0.868
1589.12	0.87
1598.64	0.876
1608.16	0.88
1617.69	0.874
1627.21	0.882
1636.73	0.88
1646.26	0.88
1655.78	0.884
1665.31	0.876
1674.83	0.878
1684.35	0.875
1693.88	0.87
1703.4	0.861
1712.93	0.84
1722.45	0.805
1731.97	0.736
1741.5	0.614
1751.02	0.4262
1760.54	0.1851
1770.07	0.077
1779.59	0.1548
1789.12	0.3649
1798.64	0.585
1808.16	0.7408
1817.69	0.834
1827.21	0.87
1836.73	0.879
1846.26	0.884
1855.78	0.889
1865.31	0.89
1874.83	0.889
1884.35	0.89
1893.88	0.89
1903.4	0.893
1912.93	0.887
1922.45	0.891
1931.97	0.887
1941.5	0.891
1951.02	0.884
1960.54	0.884
1970.07	0.88
1979.59	0.88
1989.12	0.883
1998.64	0.878
2008.16	0.879
2017.69	0.8755
2027.21	0.874
2036.73	0.8705
2046.26	0.868
2055.78	0.87
2065.31	0.867
2074.83	0.871
2084.35	0.868
2093.88	0.8715
2103.4	0.875
2112.93	0.8795
2122.45	0.8859
2131.97	0.884
2141.5	0.8801
2151.02	0.8829
2160.54	0.887
2170.07	0.8806
2179.59	0.878
2189.12	0.8842
2198.64	0.8839
2208.16	0.8851
2217.69	0.884
2227.21	0.8809
2236.73	0.886
2246.26	0.887
2255.78	0.886
2265.31	0.88
2274.83	0.882
2284.35	0.8809
2293.88	0.882
2303.4	0.887
2312.93	0.886
2322.45	0.8791
2331.97	0.8778
2341.5	0.879
2351.02	0.882
2360.54	0.883
2370.07	0.883
2379.59	0.878
2389.12	0.8789
2398.64	0.884
2408.16	0.8792
2417.69	0.88
2427.21	0.8829
2436.73	0.8823
2446.26	0.8836
2455.78	0.884
2465.31	0.88
2474.83	0.8848
2484.35	0.884
2493.88	0.8836
2503.4	0.8793
2512.93	0.8824
2522.45	0.8802
2531.97	0.8772
2541.5	0.88
2551.02	0.879
2560.54	0.8781
2570.07	0.879
2579.59	0.8791
2589.12	0.8728
2598.64	0.8791
2608.16	0.875
2617.69	0.8701
2627.21	0.8744
2636.73	0.8723
2646.26	0.8676
2655.78	0.868
2665.31	0.87
2674.83	0.867
2684.35	0.8652
2693.88	0.863
2703.4	0.8659
2712.93	0.8639
2722.45	0.867
2731.97	0.864
2741.5	0.861
2751.02	0.8574
2760.54	0.851
2770.07	0.8567
2779.59	0.8596
2789.12	0.853
2798.64	0.849
2808.16	0.8433
2817.69	0.8309
2827.21	0.8207
2836.73	0.8025
2846.26	0.7708
2855.78	0.7132
2865.31	0.5604
2874.83	0.3883
2884.35	0.3385
2893.88	0.3891
2903.4	0.4573
2912.93	0.4678
2922.45	0.3573
2931.97	0.2103
2941.5	0.0903
2951.02	0.0863
2960.54	0.1269
2970.07	0.139
2979.59	0.1529
2989.12	0.3035
2998.64	0.4647
3008.16	0.5976
3017.69	0.6559
3027.21	0.6966
3036.73	0.7238
3046.26	0.7488
3055.78	0.7853
3065.31	0.8089
3074.83	0.8241
3084.35	0.8333
3093.88	0.8394
3103.4	0.8436
3112.93	0.848
3122.45	0.8516
3131.97	0.8566
3141.5	0.8593
3151.02	0.863
3160.54	0.8686
3170.07	0.8662
3179.59	0.8672
3189.12	0.8708
3198.64	0.8701
3208.16	0.87
3217.69	0.8729
3227.21	0.8782
3236.73	0.875
3246.26	0.8783
3255.78	0.88
3265.31	0.88
3274.83	0.878
3284.35	0.8798
3293.88	0.882
3303.4	0.876
3312.93	0.8766
3322.45	0.8795
3331.97	0.8805
3341.5	0.883
3351.02	0.878
3360.54	0.878
3370.07	0.88
3379.59	0.884
3389.12	0.8798
3398.64	0.8805
3408.16	0.879
3417.69	0.8788
3427.21	0.8765
3436.73	0.8838
3446.26	0.886
3455.78	0.8767
3465.31	0.8788
3474.83	0.8773
3484.35	0.878
3493.88	0.8705
3503.4	0.8625
3512.93	0.8593
3522.45	0.8659
3531.97	0.8775
3541.5	0.8805
3551.02	0.882
3560.54	0.8802
3570.07	0.8808
3579.59	0.878
3589.12	0.8787
3598.64	0.8804
3608.16	0.8801
3617.69	0.882
3627.21	0.878
3636.73	0.88
3646.26	0.88
3655.78	0.878
3665.31	0.8766
3674.83	0.882
3684.35	0.8766
3693.88	0.8766
3703.4	0.879
3712.93	0.88
3722.45	0.8806
3731.97	0.8788
3741.5	0.8778
3751.02	0.879
3760.54	0.8769
3770.07	0.878
3779.59	0.878
3789.12	0.875
3798.64	0.875
3808.16	0.88
3817.69	0.8783
3827.21	0.8776
3836.73	0.875
3846.26	0.876
3855.78	0.876
3865.31	0.876
3874.83	0.8743
3884.35	0.8752
3893.88	0.8787
3903.4	0.882
3912.93	0.8793
3922.45	0.879
3931.97	0.875
3941.5	0.8763
3951.02	0.878
3960.54	0.878
3970.07	0.8767
3979.59	0.8782
3989.12	0.876
3998.64	0.875
