Infrared Spectrum: Adipoyl chloride
Formula: C6 H8 Cl2 O2
CAS: 111-50-2
State: SOLUTION (10% CCl4 FOR 3800-1340, 10% CS2 FOR 1340-450 CM^-^1)
Class: COBLENTZ III
Instrument: DOW KBr FOREPRISM-GRATING
Instrument parameters: BLAZED AT 3.5, 12.0, 20.0 MICRON AND CHANGED AT 5.0, 7.5, 14.9 MICRON
Sampling: TRANSMISSION
Path length: 0.011 CM, 0.011 CM
Resolution: 2
Origin: DOW CHEMICAL COMPANY
1/CM	TRANSMITTANCE
3812	0.908
3803	0.9105
3794	0.9096
3785	0.9077
3776	0.9086
3767	0.908
3758	0.9114
3749	0.9126
3740	0.9132
3731	0.9112
3722	0.9094
3713	0.9085
3704	0.9088
3695	0.9072
3686	0.9057
3677	0.9052
3668	0.9045
3659	0.9038
3650	0.9026
3641	0.9008
3632	0.8998
3623	0.8969
3614	0.8913
3605	0.8767
3596	0.8539
3587	0.8316
3578	0.8254
3569	0.8242
3560	0.8359
3551	0.8593
3542	0.8775
3533	0.8906
3524	0.8913
3515	0.8958
3506	0.8998
3497	0.9035
3488	0.905
3479	0.906
3470	0.9075
3461	0.9094
3452	0.9115
3443	0.9119
3434	0.9082
3425	0.9077
3416	0.9091
3407	0.9099
3398	0.9096
3389	0.9096
3380	0.9099
3371	0.91
3362	0.9102
3353	0.9106
3344	0.9124
3335	0.9119
3326	0.9125
3317	0.9126
3308	0.9113
3299	0.9094
3290	0.9112
3281	0.9116
3272	0.9128
3263	0.9123
3254	0.9118
3245	0.9107
3236	0.9106
3227	0.91
3218	0.9098
3209	0.9092
3200	0.9076
3191	0.9079
3182	0.906
3173	0.9053
3164	0.9052
3155	0.9041
3146	0.9036
3137	0.9041
3128	0.9036
3119	0.9029
3110	0.9023
3101	0.9024
3092	0.905
3083	0.8984
3074	0.9003
3065	0.8972
3056	0.895
3047	0.8951
3038	0.9
3029	0.8922
3020	0.8874
3011	0.8844
3002	0.8779
2993	0.8576
2984	0.8065
2975	0.7346
2966	0.6302
2957	0.557
2948	0.54
2939	0.5507
2930	0.588
2921	0.6378
2912	0.6861
2903	0.7408
2894	0.7993
2885	0.8061
2876	0.7366
2867	0.7189
2858	0.7755
2849	0.8517
2840	0.8767
2831	0.8764
2822	0.88
2813	0.8824
2804	0.882
2795	0.8788
2786	0.8777
2777	0.8842
2768	0.8882
2759	0.8882
2750	0.8882
2741	0.888
2732	0.8878
2723	0.8882
2714	0.8889
2705	0.8898
2696	0.8913
2687	0.8927
2678	0.8943
2669	0.8957
2660	0.8969
2651	0.8989
2642	0.9002
2633	0.9016
2624	0.9023
2615	0.9028
2606	0.9035
2597	0.9039
2588	0.9044
2579	0.9048
2570	0.9053
2561	0.9057
2552	0.9062
2543	0.9066
2534	0.907
2525	0.9072
2516	0.9074
2507	0.9072
2498	0.9069
2489	0.9064
2480	0.9072
2471	0.9067
2462	0.9063
2453	0.9054
2444	0.9049
2435	0.904
2426	0.903
2417	0.902
2408	0.9022
2399	0.902
2390	0.9018
2381	0.906
2372	0.9106
2363	0.9106
2354	0.9163
2345	0.9148
2336	0.9097
2327	0.9098
2318	0.909
2309	0.9059
2300	0.9027
2291	0.9011
2282	0.897
2273	0.8936
2264	0.8915
2255	0.8915
2246	0.8897
2237	0.8865
2228	0.8845
2219	0.8869
2210	0.8926
2201	0.898
2192	0.9011
2183	0.9037
2174	0.9053
2165	0.9048
2156	0.9051
2147	0.9053
2138	0.906
2129	0.9063
2120	0.9054
2111	0.9047
2102	0.9043
2093	0.9035
2084	0.9031
2075	0.9026
2066	0.9019
2057	0.9014
2048	0.9001
2039	0.8986
2030	0.8958
2021	0.8923
2012	0.889
2003	0.8864
1994	0.8782
1985	0.8643
1976	0.8618
1967	0.8533
1958	0.8578
1949	0.8452
1940	0.8287
1931	0.8177
1922	0.8082
1913	0.796
1904	0.7806
1895	0.7556
1886	0.7242
1877	0.698
1868	0.6668
1859	0.6266
1850	0.5811
1841	0.5227
1832	0.4377
1823	0.2931
1814	0.0353
1805	0.0124
1796	0.0099
1787	0.0114
1778	0.0765
1769	0.3218
1760	0.4346
1751	0.537
1742	0.6349
1733	0.7148
1724	0.7603
1715	0.7959
1706	0.8208
1697	0.8375
1688	0.8495
1679	0.8583
1670	0.8658
1661	0.8703
1652	0.8734
1643	0.8812
1634	0.8814
1625	0.8799
1616	0.8852
1607	0.8851
1598	0.8851
1589	0.8519
1580	0.8116
1571	0.8021
1562	0.7684
1553	0.7505
1544	0.7175
1535	0.7223
1526	0.7782
1517	0.7994
1508	0.8052
1499	0.8176
1490	0.8302
1481	0.8434
1472	0.8332
1463	0.7003
1454	0.5532
1445	0.6189
1436	0.7143
1427	0.7414
1418	0.7001
1409	0.3658
1400	0.2345
1391	0.7142
1382	0.792
1373	0.7982
1364	0.7424
1355	0.7075
1346	0.5883
1337	0.6923
1328	0.7602
1319	0.7947
1310	0.8036
1301	0.7829
1292	0.7865
1283	0.7743
1274	0.7368
1265	0.7646
1256	0.7975
1247	0.7989
1238	0.6657
1229	0.5688
1220	0.7496
1211	0.7962
1202	0.778
1193	0.774
1184	0.7835
1175	0.7851
1166	0.7004
1157	0.6806
1148	0.772
1139	0.8539
1130	0.8734
1121	0.8717
1112	0.8574
1103	0.7723
1094	0.6118
1085	0.5162
1076	0.5639
1067	0.6263
1058	0.5566
1049	0.66
1040	0.6563
1031	0.526
1022	0.4432
1013	0.3366
1004	0.3042
995	0.325
986	0.2814
977	0.2531
968	0.2277
959	0.2067
950	0.2072
941	0.0905
932	0.0634
923	0.0725
914	0.3106
905	0.4647
896	0.6503
887	0.6862
878	0.6649
869	0.6044
860	0.5643
851	0.6692
842	0.61
833	0.6866
824	0.733
815	0.7485
806	0.7131
797	0.6052
788	0.4942
779	0.5252
770	0.5711
761	0.5222
752	0.3116
743	0.2838
734	0.3556
725	0.2167
716	0.3299
707	0.5629
698	0.6436
689	0.26
680	0.2919
671	0.4459
662	0.678
653	0.7451
644	0.7589
635	0.7833
626	0.8094
617	0.8048
608	0.7418
599	0.5831
590	0.5293
581	0.5242
572	0.4244
563	0.4201
554	0.6522
545	0.8069
536	0.85
527	0.8642
518	0.8664
509	0.8613
500	0.8355
491	0.7737
482	0.7327
473	0.7372
464	0.7376
455	0.7293
