Infrared Spectrum: PENTANE DIOL-1,5
Formula: C5 H12 O2
CAS: 111-29-5
State: LIQUID
Class: COBLENTZ
Instrument: Not specified, most likely a prism, grating, or hybrid spectrometer.
Sampling: TRANSMISSION
Path length: CAPILLARY FILM
Resolution: 4
Origin: WYANDOTTE CHEMICALS CORP., WYANDOTTE, MICHIGAN, USA
MICROMETERS	TRANSMITTANCE
2.046	0.959
2.08444	0.962
2.12287	0.964
2.16131	0.961
2.19974	0.957
2.23818	0.936
2.27662	0.94
2.31505	0.938
2.35349	0.94
2.39192	0.943
2.43036	0.935
2.4688	0.941
2.50723	0.943
2.54567	0.954
2.58411	0.954
2.62254	0.956
2.66098	0.943
2.69941	0.933
2.73785	0.883
2.77629	0.764
2.81472	0.554
2.85316	0.344
2.89159	0.232
2.93003	0.119
2.96847	0.075
3.0069	0.046
3.04534	0.037
3.08377	0.05
3.12221	0.069
3.16065	0.129
3.19908	0.231
3.23752	0.363
3.27595	0.484
3.31439	0.562
3.35283	0.453
3.39126	0.095
3.4297	0.064
3.46813	0.109
3.50657	0.088
3.54501	0.235
3.58344	0.473
3.62188	0.579
3.66032	0.623
3.69875	0.659
3.73719	0.714
3.77562	0.762
3.81406	0.799
3.8525	0.806
3.89093	0.825
3.92937	0.841
3.9678	0.851
4.00624	0.856
4.04468	0.886
4.08311	0.901
4.12155	0.903
4.15998	0.915
4.19842	0.922
4.23686	0.928
4.27529	0.941
4.31373	0.93
4.35216	0.936
4.3906	0.949
4.42904	0.959
4.46747	0.964
4.50591	0.969
4.54435	0.97
4.58278	0.969
4.62122	0.975
4.65965	0.974
4.69809	0.972
4.73653	0.978
4.77496	0.98
4.8134	0.974
4.85183	0.972
4.89027	0.961
4.92871	0.962
4.96714	0.959
5.00558	0.969
5.04401	0.969
5.08245	0.972
5.12089	0.975
5.15932	0.972
5.19776	0.977
5.23619	0.977
5.27463	0.975
5.31307	0.978
5.3515	0.977
5.38994	0.974
5.42837	0.978
5.46681	0.974
5.50525	0.975
5.54368	0.974
5.58212	0.969
5.62056	0.97
5.65899	0.962
5.69743	0.957
5.73586	0.953
5.7743	0.914
5.81274	0.907
5.85117	0.907
5.88961	0.904
5.92804	0.904
5.96648	0.893
6.00492	0.875
6.04335	0.877
6.08179	0.882
6.12022	0.883
6.15866	0.885
6.1971	0.885
6.23553	0.882
6.27397	0.878
6.3124	0.87
6.35084	0.861
6.38928	0.851
6.42771	0.846
6.46615	0.831
6.50459	0.822
6.54302	0.794
6.58146	0.777
6.61989	0.731
6.65833	0.668
6.69677	0.571
6.7352	0.442
6.77364	0.394
6.81207	0.35
6.85051	0.311
6.88895	0.348
6.92738	0.35
6.96582	0.332
7.00425	0.348
7.04269	0.36
7.08113	0.382
7.11956	0.411
7.158	0.442
7.19643	0.439
7.23487	0.399
7.27331	0.389
7.31174	0.405
7.35018	0.42
7.38861	0.42
7.42705	0.434
7.46549	0.449
7.50392	0.478
7.54236	0.492
7.5808	0.516
7.61923	0.541
7.65767	0.563
7.6961	0.56
7.73454	0.57
7.77298	0.607
7.81141	0.617
7.84985	0.618
7.88828	0.615
7.92672	0.615
7.96516	0.613
8.00359	0.612
8.04203	0.613
8.08046	0.638
8.1189	0.665
8.15734	0.672
8.19577	0.646
8.23421	0.634
8.27264	0.634
8.31108	0.636
8.34952	0.636
8.38795	0.657
8.42639	0.66
8.46482	0.655
8.50326	0.642
8.5417	0.628
8.58013	0.613
8.61857	0.609
8.65701	0.631
8.69544	0.657
8.73388	0.663
8.77231	0.659
8.81075	0.662
8.84919	0.651
8.88762	0.609
8.92606	0.562
8.96449	0.541
9.00293	0.512
9.04137	0.491
9.0798	0.429
9.11824	0.332
9.15667	0.24
9.19511	0.185
9.23355	0.14
9.27198	0.1
9.31042	0.095
9.34885	0.103
9.38729	0.1
9.42573	0.077
9.46416	0.059
9.5026	0.077
9.54104	0.106
9.57947	0.13
9.61791	0.111
9.65634	0.079
9.69478	0.075
9.73322	0.087
9.77165	0.134
9.81009	0.172
9.84852	0.214
9.88696	0.274
9.9254	0.297
9.96383	0.297
10.0023	0.303
10.0407	0.332
10.0791	0.347
10.1176	0.376
10.156	0.439
10.1944	0.491
10.2329	0.494
10.2713	0.471
10.3098	0.452
10.3482	0.466
10.3866	0.51
10.4251	0.558
10.4635	0.618
10.5019	0.654
10.5404	0.686
10.5788	0.684
10.6172	0.681
10.6557	0.672
10.6941	0.662
10.7326	0.651
10.771	0.639
10.8094	0.623
10.8479	0.586
10.8863	0.544
10.9247	0.502
10.9632	0.504
11.0016	0.544
11.04	0.605
11.0785	0.634
11.1169	0.649
11.1554	0.623
11.1938	0.588
11.2322	0.549
11.2707	0.513
11.3091	0.494
11.3475	0.5
11.386	0.512
11.4244	0.552
11.4628	0.599
11.5013	0.628
11.5397	0.651
11.5781	0.67
11.6166	0.676
11.655	0.689
11.6935	0.691
11.7319	0.686
11.7703	0.691
11.8088	0.696
11.8472	0.699
11.8856	0.702
11.9241	0.707
11.9625	0.71
12.0009	0.712
12.0394	0.714
12.0778	0.714
12.1163	0.712
12.1547	0.709
12.1931	0.704
12.2316	0.694
12.27	0.681
12.3084	0.667
12.3469	0.657
12.3853	0.644
12.4237	0.633
12.4622	0.63
12.5006	0.626
12.539	0.628
12.5775	0.626
12.6159	0.623
12.6544	0.617
12.6928	0.612
12.7312	0.604
12.7697	0.6
12.8081	0.592
12.8465	0.589
12.885	0.591
12.9234	0.586
12.9618	0.586
13.0003	0.581
13.0387	0.575
13.0772	0.571
13.1156	0.568
13.154	0.565
13.1925	0.558
13.2309	0.554
13.2693	0.546
13.3078	0.542
13.3462	0.533
13.3846	0.526
13.4231	0.516
13.4615	0.504
13.5	0.494
13.5384	0.489
13.5768	0.474
13.6153	0.46
13.6537	0.458
13.6921	0.46
13.7306	0.47
13.769	0.473
13.8074	0.481
13.8459	0.476
13.8843	0.479
13.9227	0.476
13.9612	0.478
13.9996	0.478
14.0381	0.473
14.0765	0.473
14.1149	0.473
14.1534	0.47
14.1918	0.471
14.2302	0.468
14.2687	0.465
14.3071	0.46
14.3455	0.462
14.384	0.462
14.4224	0.455
14.4609	0.458
14.4993	0.457
14.5377	0.455
14.5762	0.453
14.6146	0.45
14.653	0.46
14.6915	0.453
14.7299	0.452
14.7683	0.455
14.8068	0.455
14.8452	0.458
14.8836	0.455
14.9221	0.453
14.9605	0.453
14.999	0.462
15.0374	0.46
15.0758	0.47
15.1143	0.474
15.1527	0.47
15.1911	0.463
15.2296	0.466
15.268	0.468
15.3064	0.473
15.3449	0.481
15.3833	0.479
15.4218	0.483
15.4602	0.484
15.4986	0.492
15.5371	0.504
15.5755	0.497
15.6139	0.504
15.6524	0.512
15.6908	0.515
15.7292	0.518
15.7677	0.528
15.8061	0.526
15.8446	0.528
15.883	0.546
