Infrared Spectrum: Octane
Formula: C 8 H 18
CAS: 111-65-9
State: liquid
Instrument: Bruker Tensor 27 FTIR
Resolution: 0.48212986
Origin: Pacific Northwest National Laboratory Under IARPA Contract
1/cm	dispersion index
7797.49	1.38512
7778.93	1.38512
7760.37	1.38512
7741.81	1.38511
7723.24	1.3851
7704.68	1.3851
7686.12	1.38509
7667.56	1.38509
7649	1.38508
7630.44	1.38507
7611.88	1.38507
7593.31	1.38506
7574.75	1.38505
7556.19	1.38504
7537.63	1.38504
7519.07	1.38503
7500.51	1.38502
7481.95	1.38502
7463.38	1.38502
7444.82	1.38501
7426.26	1.38501
7407.7	1.385
7389.14	1.38499
7370.58	1.38499
7352.02	1.38498
7333.46	1.38497
7314.89	1.38496
7296.33	1.38495
7277.77	1.38494
7259.21	1.38493
7240.65	1.38492
7222.09	1.38491
7203.53	1.3849
7184.96	1.38489
7166.4	1.38488
7147.84	1.38487
7129.28	1.38486
7110.72	1.38485
7092.16	1.38483
7073.6	1.38482
7055.03	1.38481
7036.47	1.38479
7017.91	1.38478
6999.35	1.38476
6980.79	1.38475
6962.23	1.38473
6943.67	1.38471
6925.1	1.3847
6906.54	1.38467
6887.98	1.38465
6869.42	1.38461
6850.86	1.3846
6832.3	1.38459
6813.74	1.38458
6795.17	1.38463
6776.61	1.38466
6758.05	1.38461
6739.49	1.3846
6720.93	1.38462
6702.37	1.38459
6683.81	1.38456
6665.25	1.38454
6646.68	1.38452
6628.12	1.3845
6609.56	1.38448
6591	1.38445
6572.44	1.38442
6553.88	1.38439
6535.32	1.38436
6516.75	1.38434
6498.19	1.38431
6479.63	1.38428
6461.07	1.38425
6442.51	1.38422
6423.95	1.38418
6405.39	1.38415
6386.82	1.38411
6368.26	1.38408
6349.7	1.38404
6331.14	1.384
6312.58	1.38395
6294.02	1.3839
6275.46	1.38386
6256.89	1.3838
6238.33	1.38374
6219.77	1.38367
6201.21	1.3836
6182.65	1.38352
6164.09	1.38343
6145.53	1.38332
6126.96	1.38317
6108.4	1.38294
6089.84	1.38295
6071.28	1.38274
6052.72	1.38332
6034.16	1.3831
6015.6	1.38329
5997.03	1.38317
5978.47	1.38321
5959.91	1.38315
5941.35	1.38309
5922.79	1.38325
5904.23	1.38301
5885.67	1.38297
5867.11	1.38274
5848.54	1.38261
5829.98	1.38242
5811.42	1.3823
5792.86	1.38211
5774.3	1.38195
5755.74	1.38173
5737.18	1.38152
5718.61	1.3813
5700.05	1.38114
5681.49	1.38078
5662.93	1.3804
5644.37	1.37998
5625.81	1.37953
5607.25	1.37904
5588.68	1.37849
5570.12	1.37784
5551.56	1.37703
5533	1.37601
5514.44	1.37476
5495.88	1.37335
5477.32	1.37155
5458.75	1.36873
5440.19	1.3644
5421.63	1.35741
5403.07	1.34322
5384.51	1.28611
5365.95	1.3196
5347.39	1.43346
5328.82	1.40967
5310.26	1.43061
5291.7	1.41426
5273.14	1.40645
5254.58	1.40299
5236.02	1.3999
5217.46	1.39844
5198.89	1.39708
5180.33	1.396
5161.77	1.39486
5143.21	1.39396
5124.65	1.39307
5106.09	1.39247
5087.53	1.39199
5068.97	1.39157
5050.4	1.39129
5031.84	1.39087
5013.28	1.39054
4994.72	1.39021
4976.16	1.38996
4957.6	1.38968
4939.04	1.38935
4920.47	1.38904
4901.91	1.38899
4883.35	1.38862
4864.79	1.38831
4846.23	1.38801
4827.67	1.38776
4809.11	1.38739
4790.54	1.38703
4771.98	1.38659
4753.42	1.38613
4734.86	1.38567
4716.3	1.38491
4697.74	1.38385
4679.18	1.38217
4660.61	1.37894
4642.05	1.36772
4623.49	1.40916
4604.93	1.39464
4586.37	1.40746
4567.81	1.39676
4549.25	1.39341
4530.68	1.39342
4512.12	1.3917
4493.56	1.39171
4475	1.3901
4456.44	1.39043
4437.88	1.38998
4419.32	1.39047
4400.75	1.39002
4382.19	1.3894
4363.63	1.38853
4345.07	1.38885
4326.51	1.39103
4307.95	1.38884
4289.39	1.38662
4270.83	1.38576
4252.26	1.40123
4233.7	1.3945
4215.14	1.39284
4196.58	1.39196
4178.02	1.39136
4159.46	1.39086
4140.9	1.39091
4122.33	1.39064
4103.77	1.39148
4085.21	1.89732e-05
4066.65	1.83584e-05
4048.09	1.22968e-05
4029.53	1.21219e-05
4010.97	1.13309e-05
3992.4	1.46684e-05
3973.84	1.09798e-05
3955.28	1.40537e-05
3936.72	1.47572e-05
3918.16	1.49321e-05
3899.6	1.99391e-05
3881.04	4.21623e-05
3862.47	4.70819e-05
3843.91	6.98311e-05
3825.35	9.39875e-05
3806.79	0.000117704
3788.23	0.000159866
3769.67	0.000116826
3751.11	0.000130001
3732.54	0.000133514
3713.98	0.000110676
3695.42	0.000115069
3676.86	0.000102771
3658.3	8.68725e-05
3639.74	6.948e-05
3621.18	5.99934e-05
3602.61	5.25274e-05
3584.05	4.41829e-05
3565.49	4.11077e-05
3546.93	3.86486e-05
3528.37	3.70679e-05
3509.81	3.452e-05
3491.25	3.29394e-05
3472.69	3.14462e-05
3454.12	2.84598e-05
3435.56	2.19596e-05
3417	1.57231e-05
3398.44	1.18582e-05
3379.88	1.08924e-05
3361.32	1.01014e-05
3342.76	1.04525e-05
3324.19	1.06287e-05
3305.63	1.20345e-05
3287.07	1.61616e-05
3268.51	2.51223e-05
3249.95	2.9162e-05
3231.39	3.24995e-05
3212.83	3.9527e-05
3194.26	5.9115e-05
3175.7	0.000112433
3157.14	0.000560408
3138.58	0.000822167
3120.02	0.000887167
3101.46	0.00130001
3082.9	0.000992573
3064.33	0.000617503
3045.77	0.000845005
3027.21	0.000766828
3008.65	0.000456759
2990.09	0.000390881
2971.53	0.000390881
2952.97	0.000391759
2934.4	0.000379461
2915.84	0.000292501
2897.28	0.000229257
2878.72	0.000175677
2860.16	0.000174798
2841.6	0.000190609
2823.04	0.00018446
2804.47	0.000202029
2785.91	0.00019588
2767.35	0.000202907
2748.79	0.000198515
2730.23	0.000197636
2711.67	0.000208176
2693.11	0.000226622
2674.55	0.000206419
2655.98	0.000202907
2637.42	0.000199393
2618.86	0.000176555
2600.3	0.000168649
2581.74	0.000170406
2563.18	0.000158109
2544.62	0.000151082
2526.05	0.000164257
2507.49	0.000194123
2488.93	0.000241556
2470.37	0.000294258
2451.81	0.000372435
2433.25	0.000556016
2414.69	0.00134393
2396.12	0.00368921
2377.56	0.00497165
2359	0.00614868
2340.44	0.00522638
2321.88	0.00495408
2303.32	0.00484867
2284.76	0.00533178
2266.19	0.00480476
2247.63	0.00500678
2229.07	0.00505949
2210.51	0.00310948
2191.95	0.00281083
2173.39	0.00197636
2154.83	0.0020115
2136.26	0.00173042
2117.7	0.00204663
2099.14	0.00170406
2080.58	0.00182704
2062.02	0.00163379
2043.46	0.00173042
2024.9	0.00174798
2006.33	0.00190609
1987.77	0.000775612
1969.21	0.000511219
1950.65	0.000505948
1932.09	0.000721152
1913.53	0.000992573
1894.97	0.0012473
1876.41	0.00126487
1857.84	0.00122974
1839.28	0.00131757
1820.72	0.00204663
1802.16	0.00406691
1783.6	0.00441827
1765.04	0.00374191
1746.48	0.00519124
1727.91	0.0101892
1709.35	0.0240677
1690.79	0.108041
1672.23	0.503313
1653.67	0.541084
1635.11	0.439191
1616.55	0.0966221
1597.98	0.0282839
1579.42	0.0144933
1560.86	0.0147568
1542.3	0.0125609
1523.74	0.0107163
1505.18	0.00887167
1486.62	0.00572706
1468.05	0.00362772
1449.49	0.00241555
1430.93	0.0016865
1412.37	0.00283718
1393.81	0.00274934
1375.25	0.00339934
1356.69	0.00300407
1338.12	0.0023365
1319.56	0.00227501
1301	0.00204663
1282.44	0.00208177
1263.88	0.00132636
1245.32	0.000975006
1226.76	0.0015196
1208.19	0.00202907
1189.63	0.000680746
1171.07	0.000745747
1152.51	0.000719396
1133.95	0.000761559
1115.39	0.000651761
1096.83	0.00115068
1078.27	0.00151082
1059.7	0.00248582
1041.14	0.0035311
1022.58	0.00351353
1004.02	0.00465543
985.458	0.0064122
966.897	0.0115068
948.335	0.0278447
929.774	0.409326
911.213	0.0487503
892.651	0.0913518
874.09	0.0324123
855.528	0.0280204
836.967	0.0182704
818.406	0.0100136
799.844	0.0137028
781.283	0.00794058
762.721	0.0106284
744.16	0.0187096
725.599	0.0155474
707.037	0.00922302
688.476	0.0139663
669.915	0.00775612
651.353	0.024419
632.792	0.0212569
614.23	0.00753653
595.669	0.0177433
577.108	0.0422502
558.546	0.131757
539.985	0.00541084
521.423	0.00152839
502.862	0.000594665
484.301	0.000691288
465.739	0.00241555
447.178	0.0078791
428.616	0.0079845
410.055	0.015196
