Infrared Spectrum: N-OCTYL BROMIDE
Formula: C8 H17 Br
CAS: 111-83-1
State: LIQUID
Class: COBLENTZ
Instrument: Not specified, most likely a prism, grating, or hybrid spectrometer.
Sampling: TRANSMISSION
Path length: 0.0037 CM
Resolution: 4
Origin: CONTINENTAL OIL CO. (HAROLD F. SMITH)
MICROMETERS	TRANSMITTANCE
2.025	0.978
2.06217	0.975
2.09934	0.973
2.1365	0.972
2.17367	0.967
2.21084	0.933
2.24801	0.904
2.28518	0.859
2.32234	0.871
2.35951	0.879
2.39668	0.883
2.43385	0.897
2.47102	0.9
2.50819	0.914
2.54535	0.934
2.58252	0.944
2.61969	0.942
2.65686	0.948
2.69403	0.945
2.73119	0.942
2.76836	0.933
2.80553	0.93
2.8427	0.945
2.87987	0.95
2.91703	0.95
2.9542	0.947
2.99137	0.947
3.02854	0.95
3.06571	0.944
3.10287	0.933
3.14004	0.911
3.17721	0.904
3.21438	0.891
3.25155	0.873
3.28872	0.811
3.32588	0.665
3.36305	0.36
3.40022	0.012
3.43739	0.018
3.47456	0.043
3.51172	0.051
3.54889	0.315
3.58606	0.668
3.62323	0.781
3.6604	0.809
3.69756	0.828
3.73473	0.804
3.7719	0.842
3.80907	0.862
3.84624	0.88
3.8834	0.9
3.92057	0.911
3.95774	0.919
3.99491	0.931
4.03208	0.933
4.06925	0.933
4.10641	0.933
4.14358	0.93
4.18075	0.928
4.21792	0.948
4.25509	0.959
4.29225	0.956
4.32942	0.927
4.36659	0.931
4.40376	0.934
4.44093	0.933
4.47809	0.933
4.51526	0.936
4.55243	0.933
4.5896	0.933
4.62677	0.941
4.66394	0.944
4.7011	0.948
4.73827	0.947
4.77544	0.95
4.81261	0.95
4.84978	0.947
4.88694	0.941
4.92411	0.939
4.96128	0.944
4.99845	0.952
5.03562	0.952
5.07278	0.953
5.10995	0.955
5.14712	0.953
5.18429	0.959
5.22146	0.955
5.25862	0.953
5.29579	0.955
5.33296	0.959
5.37013	0.959
5.4073	0.961
5.44447	0.961
5.48163	0.959
5.5188	0.961
5.55597	0.962
5.59314	0.961
5.63031	0.964
5.66747	0.962
5.70464	0.969
5.74181	0.962
5.77898	0.962
5.81615	0.969
5.85331	0.962
5.89048	0.961
5.92765	0.959
5.96482	0.955
6.00199	0.947
6.03915	0.952
6.07632	0.948
6.11349	0.95
6.15066	0.944
6.18783	0.941
6.225	0.939
6.26216	0.941
6.29933	0.936
6.3365	0.938
6.37367	0.933
6.41084	0.933
6.448	0.922
6.48517	0.928
6.52234	0.91
6.55951	0.904
6.59668	0.882
6.63384	0.86
6.67101	0.82
6.70818	0.75
6.74535	0.625
6.78252	0.131
6.81968	0.078
6.85685	0.114
6.89402	0.202
6.93119	0.249
6.96836	0.27
7.00553	0.414
7.04269	0.671
7.07986	0.758
7.11703	0.792
7.1542	0.801
7.19137	0.769
7.22853	0.524
7.2657	0.433
7.30287	0.622
7.34004	0.671
7.37721	0.673
7.41437	0.682
7.45154	0.681
7.48871	0.695
7.52588	0.752
7.56305	0.743
7.60021	0.701
7.63738	0.614
7.67455	0.54
7.71172	0.498
7.74889	0.469
7.78606	0.411
7.82322	0.441
7.86039	0.439
7.89756	0.362
7.93473	0.278
7.9719	0.165
8.00906	0.286
8.04623	0.421
8.0834	0.294
8.12057	0.348
8.15774	0.399
8.1949	0.349
8.23207	0.518
8.26924	0.679
8.30641	0.63
8.34358	0.578
8.38074	0.721
8.41791	0.773
8.45508	0.808
8.49225	0.828
8.52942	0.848
8.56659	0.842
8.60375	0.849
8.64092	0.849
8.67809	0.848
8.71526	0.869
8.75243	0.893
8.78959	0.908
8.82676	0.914
8.86393	0.908
8.9011	0.9
8.93827	0.868
8.97543	0.854
9.0126	0.859
9.04977	0.869
9.08694	0.874
9.12411	0.859
9.16128	0.84
9.19844	0.845
9.23561	0.848
9.27278	0.839
9.30995	0.837
9.34712	0.834
9.38428	0.818
9.42145	0.8
9.45862	0.809
9.49579	0.821
9.53296	0.829
9.57012	0.829
9.60729	0.828
9.64446	0.821
9.68163	0.804
9.7188	0.804
9.75596	0.815
9.79313	0.829
9.8303	0.839
9.86747	0.839
9.90464	0.84
9.94181	0.835
9.97897	0.839
10.0161	0.842
10.0533	0.848
10.0905	0.854
10.1276	0.859
10.1648	0.865
10.202	0.866
10.2391	0.862
10.2763	0.86
10.3135	0.854
10.3507	0.851
10.3878	0.852
10.425	0.852
10.4622	0.851
10.4993	0.851
10.5365	0.851
10.5737	0.854
10.6108	0.856
10.648	0.849
10.6852	0.846
10.7223	0.837
10.7595	0.831
10.7967	0.826
10.8338	0.812
10.871	0.797
10.9082	0.764
10.9453	0.719
10.9825	0.707
11.0197	0.735
11.0568	0.763
11.094	0.786
11.1312	0.801
11.1684	0.808
11.2055	0.811
11.2427	0.828
11.2799	0.843
11.317	0.849
11.3542	0.845
11.3914	0.84
11.4285	0.842
11.4657	0.854
11.5029	0.865
11.54	0.859
11.5772	0.848
11.6144	0.843
11.6515	0.852
11.6887	0.851
11.7259	0.856
11.763	0.859
11.8002	0.854
11.8374	0.849
11.8745	0.849
11.9117	0.859
11.9489	0.869
11.9861	0.879
12.0232	0.888
12.0604	0.893
12.0976	0.897
12.1347	0.894
12.1719	0.891
12.2091	0.89
12.2462	0.877
12.2834	0.859
12.3206	0.839
12.3577	0.835
12.3949	0.834
12.4321	0.835
12.4692	0.843
12.5064	0.859
12.5436	0.876
12.5807	0.88
12.6179	0.882
12.6551	0.879
12.6922	0.874
12.7294	0.871
12.7666	0.86
12.8037	0.849
12.8409	0.832
12.8781	0.803
12.9153	0.763
12.9524	0.73
12.9896	0.707
13.0268	0.698
13.0639	0.699
13.1011	0.71
13.1383	0.724
13.1754	0.729
13.2126	0.732
13.2498	0.729
13.2869	0.719
13.3241	0.701
13.3613	0.684
13.3984	0.667
13.4356	0.637
13.4728	0.626
13.5099	0.616
13.5471	0.606
13.5843	0.599
13.6214	0.591
13.6586	0.568
13.6958	0.523
13.733	0.458
13.7701	0.377
13.8073	0.337
13.8445	0.348
13.8816	0.407
13.9188	0.481
13.956	0.557
13.9931	0.62
14.0303	0.673
14.0675	0.713
14.1046	0.747
14.1418	0.77
14.179	0.792
14.2161	0.811
14.2533	0.823
14.2905	0.835
14.3276	0.846
14.3648	0.854
14.402	0.857
14.4391	0.865
14.4763	0.865
14.5135	0.868
14.5506	0.869
14.5878	0.869
14.625	0.871
14.6622	0.868
14.6993	0.866
14.7365	0.862
14.7737	0.854
14.8108	0.851
14.848	0.843
14.8852	0.832
14.9223	0.818
14.9595	0.786
14.9967	0.753
15.0338	0.73
15.071	0.719
15.1082	0.707
15.1453	0.69
15.1825	0.67
15.2197	0.628
15.2568	0.577
15.294	0.515
15.3312	0.461
15.3683	0.408
15.4055	0.368
15.4427	0.342
15.4799	0.339
15.517	0.343
15.5542	0.362
15.5914	0.397
15.6285	0.427
15.6657	0.47
15.7029	0.51
15.74	0.551
15.7772	0.589
15.8144	0.62
15.8515	0.647
15.8887	0.662
15.9259	0.678
15.963	0.685
16.0002	0.693
