Infrared Spectrum: DODECANOIC ACID, METHYL ESTER
Formula: C13 H26 O2
CAS: 111-82-0
State: VAPOR (15 MICROLITER AT 150 C)
Boiling point: 262 C
Class: COBLENTZ
Instrument: PERKIN-ELMER 180
Sampling: TRANSMISSION
Path length: 5 CM KBr CELL, CELL VOLUME: 80 CM^3
Resolution: 2-3 CM^-^1
Origin: PERKIN-ELMER CORP. (M. ZELLER)
1/CM	TRANSMITTANCE
406.541	0.494
415.699	0.552
424.857	0.614
434.015	0.654
443.172	0.706
452.33	0.754
461.488	0.782
470.646	0.812
479.804	0.835
488.962	0.853
498.12	0.864
507.278	0.859
516.435	0.87
525.593	0.876
534.751	0.881
543.909	0.889
553.067	0.894
562.225	0.9
571.383	0.899
580.541	0.898
589.698	0.902
598.856	0.899
608.014	0.899
617.172	0.898
626.33	0.9
635.488	0.9
644.646	0.9
653.804	0.903
662.961	0.906
672.119	0.9
681.277	0.904
690.435	0.903
699.593	0.898
708.751	0.881
717.909	0.88
727.066	0.878
736.224	0.886
745.382	0.89
754.54	0.899
763.698	0.903
772.856	0.902
782.014	0.907
791.172	0.906
800.329	0.899
809.487	0.897
818.645	0.893
827.803	0.886
836.961	0.887
846.119	0.886
855.277	0.885
864.435	0.883
873.592	0.886
882.75	0.891
891.908	0.903
901.066	0.899
910.224	0.91
919.382	0.912
928.54	0.91
937.698	0.915
946.855	0.912
956.013	0.908
965.171	0.899
974.329	0.891
983.487	0.881
992.645	0.861
1001.8	0.825
1010.96	0.81
1020.12	0.812
1029.28	0.827
1038.43	0.838
1047.59	0.838
1056.75	0.83
1065.91	0.826
1075.07	0.829
1084.22	0.82
1093.38	0.801
1102.54	0.765
1111.7	0.753
1120.85	0.754
1130.01	0.735
1139.17	0.668
1148.33	0.585
1157.49	0.512
1166.64	0.496
1175.8	0.521
1184.96	0.547
1194.12	0.555
1203.28	0.581
1212.43	0.601
1221.59	0.607
1230.75	0.604
1239.91	0.606
1249.07	0.621
1258.22	0.67
1267.38	0.718
1276.54	0.749
1285.7	0.761
1294.85	0.77
1304.01	0.77
1313.17	0.78
1322.33	0.787
1331.49	0.782
1340.64	0.75
1349.8	0.731
1358.96	0.732
1368.12	0.761
1377.28	0.779
1386.43	0.837
1395.59	0.868
1404.75	0.873
1413.91	0.859
1423.06	0.821
1432.22	0.72
1441.38	0.707
1450.54	0.731
1459.7	0.723
1468.85	0.757
1478.01	0.839
1487.17	0.872
1496.33	0.889
1505.49	0.889
1514.64	0.899
1523.8	0.903
1532.96	0.902
1542.12	0.904
1551.27	0.902
1560.43	0.902
1569.59	0.904
1578.75	0.908
1587.91	0.906
1597.06	0.91
1606.22	0.912
1615.38	0.908
1624.54	0.908
1633.7	0.903
1642.85	0.907
1652.01	0.908
1661.17	0.908
1670.33	0.906
1679.49	0.903
1688.64	0.891
1697.8	0.88
1706.96	0.852
1716.12	0.81
1725.27	0.723
1734.43	0.601
1743.59	0.4079
1752.75	0.302
1761.91	0.458
1771.06	0.6161
1780.22	0.7691
1789.38	0.851
1798.54	0.886
1807.7	0.903
1816.85	0.904
1826.01	0.912
1835.17	0.91
1844.33	0.911
1853.48	0.911
1862.64	0.906
1871.8	0.907
1880.96	0.907
1890.12	0.912
1899.27	0.911
1908.43	0.911
1917.59	0.908
1926.75	0.911
1935.91	0.913
1945.06	0.91
1954.22	0.908
1963.38	0.904
1972.54	0.903
1981.69	0.904
1990.85	0.906
2000.01	0.9
2009.17	0.907
2018.33	0.9019
2027.48	0.8996
2036.64	0.903
2045.8	0.9007
2054.96	0.9
2064.12	0.902
2073.27	0.906
2082.43	0.9068
2091.59	0.908
2100.75	0.9082
2109.91	0.9036
2119.06	0.903
2128.22	0.904
2137.38	0.907
2146.54	0.9116
2155.69	0.9067
2164.85	0.907
2174.01	0.9102
2183.17	0.9117
2192.33	0.906
2201.48	0.9075
2210.64	0.9113
2219.8	0.913
2228.96	0.9106
2238.12	0.908
2247.27	0.911
2256.43	0.91
2265.59	0.91
2274.75	0.908
2283.9	0.9076
2293.06	0.91
2302.22	0.908
2311.38	0.9044
2320.54	0.908
2329.69	0.904
2338.85	0.906
2348.01	0.907
2357.17	0.9034
2366.33	0.9034
2375.48	0.907
2384.64	0.9046
2393.8	0.903
2402.96	0.908
2412.11	0.9069
2421.27	0.902
2430.43	0.9063
2439.59	0.909
2448.75	0.903
2457.9	0.9027
2467.06	0.9046
2476.22	0.907
2485.38	0.906
2494.54	0.9067
2503.69	0.91
2512.85	0.9081
2522.01	0.906
2531.17	0.904
2540.33	0.904
2549.48	0.904
2558.64	0.902
2567.8	0.9026
2576.96	0.9026
2586.11	0.8978
2595.27	0.893
2604.43	0.8987
2613.59	0.8932
2622.75	0.8974
2631.9	0.899
2641.06	0.8961
2650.22	0.891
2659.38	0.889
2668.54	0.889
2677.69	0.89
2686.85	0.8869
2696.01	0.8866
2705.17	0.8894
2714.32	0.8913
2723.48	0.8905
2732.64	0.8862
2741.8	0.887
2750.96	0.889
2760.11	0.886
2769.27	0.8831
2778.43	0.8781
2787.59	0.87
2796.75	0.8619
2805.9	0.8466
2815.06	0.828
2824.22	0.7952
2833.38	0.7078
2842.53	0.5339
2851.69	0.3542
2860.85	0.444
2870.01	0.5364
2879.17	0.5844
2888.32	0.5591
2897.48	0.4366
2906.64	0.2773
2915.8	0.0841
2924.96	0.1145
2934.11	0.199
2943.27	0.302
2952.43	0.3153
2961.59	0.4181
2970.74	0.5686
2979.9	0.6955
2989.06	0.734
2998.22	0.7731
3007.38	0.793
3016.53	0.7998
3025.69	0.8154
3034.85	0.8383
3044.01	0.85
3053.17	0.8585
3062.32	0.8681
3071.48	0.869
3080.64	0.8672
3089.8	0.8727
3098.96	0.878
3108.11	0.8807
3117.27	0.8815
3126.43	0.88
3135.59	0.878
3144.74	0.8856
3153.9	0.889
3163.06	0.886
3172.22	0.8825
3181.38	0.885
3190.53	0.889
3199.69	0.8887
3208.85	0.8882
3218.01	0.889
3227.17	0.891
3236.32	0.8924
3245.48	0.8963
3254.64	0.8924
3263.8	0.8966
3272.95	0.891
3282.11	0.8899
3291.27	0.8906
3300.43	0.889
3309.59	0.891
3318.74	0.897
3327.9	0.8934
3337.06	0.8872
3346.22	0.893
3355.38	0.8987
3364.53	0.8893
3373.69	0.89
3382.85	0.8925
3392.01	0.887
3401.16	0.8876
3410.32	0.8881
3419.48	0.8873
3428.64	0.886
3437.8	0.887
3446.95	0.888
3456.11	0.89
3465.27	0.8853
3474.43	0.886
3483.59	0.885
3492.74	0.8772
3501.9	0.8817
3511.06	0.8863
3520.22	0.889
3529.38	0.894
3538.53	0.89
3547.69	0.89
3556.85	0.8949
3566.01	0.8909
3575.16	0.886
3584.32	0.8881
3593.48	0.8912
3602.64	0.8904
3611.8	0.8859
3620.95	0.8857
3630.11	0.89
3639.27	0.8855
3648.43	0.8856
3657.59	0.889
3666.74	0.8889
3675.9	0.887
3685.06	0.8878
3694.22	0.882
3703.37	0.886
3712.53	0.8849
3721.69	0.8906
3730.85	0.889
3740.01	0.8906
3749.16	0.884
3758.32	0.89
3767.48	0.8855
3776.64	0.887
3785.8	0.8878
3794.95	0.883
3804.11	0.889
3813.27	0.885
3822.43	0.8879
3831.58	0.887
3840.74	0.881
3849.9	0.8831
3859.06	0.887
3868.22	0.889
3877.37	0.8844
3886.53	0.8852
3895.69	0.887
3904.85	0.889
3914.01	0.8834
3923.16	0.885
3932.32	0.887
3941.48	0.8792
3950.64	0.8809
3959.8	0.8855
3968.95	0.881
3978.11	0.883
3987.27	0.881
