Infrared Spectrum: Diethylenetriamine
Formula: C 4 H 13 N 3
CAS: 111-40-0
State: liquid
Instrument: Bruker Tensor 27 FTIR
Resolution: 0.4821395
Origin: Pacific Northwest National Laboratory Under IARPA Contract
1/cm	dispersion index
7797.62	1.46523
7779.06	1.46524
7760.5	1.46524
7741.94	1.46523
7723.38	1.46521
7704.81	1.4652
7686.25	1.46519
7667.69	1.46518
7649.13	1.46516
7630.57	1.46515
7612.01	1.46514
7593.44	1.46512
7574.88	1.46511
7556.32	1.46509
7537.76	1.46508
7519.2	1.46506
7500.64	1.46504
7482.07	1.46503
7463.51	1.46501
7444.95	1.46499
7426.39	1.46498
7407.83	1.46496
7389.26	1.46494
7370.7	1.46492
7352.14	1.4649
7333.58	1.46487
7315.02	1.46485
7296.46	1.46482
7277.89	1.46479
7259.33	1.46476
7240.77	1.46473
7222.21	1.46469
7203.65	1.46464
7185.09	1.46458
7166.52	1.4646
7147.96	1.46468
7129.4	1.4648
7110.84	1.46485
7092.28	1.46479
7073.71	1.46472
7055.15	1.46467
7036.59	1.46462
7018.03	1.46459
6999.47	1.46456
6980.91	1.46454
6962.34	1.46451
6943.78	1.46448
6925.22	1.46445
6906.66	1.46441
6888.1	1.46437
6869.54	1.46433
6850.97	1.46428
6832.41	1.46423
6813.85	1.4642
6795.29	1.46417
6776.73	1.46414
6758.16	1.46413
6739.6	1.46411
6721.04	1.46408
6702.48	1.46404
6683.92	1.464
6665.36	1.46395
6646.79	1.46391
6628.23	1.46386
6609.67	1.46381
6591.11	1.46375
6572.55	1.4637
6553.99	1.46364
6535.42	1.46358
6516.86	1.46351
6498.3	1.46344
6479.74	1.46337
6461.18	1.46328
6442.61	1.46318
6424.05	1.46307
6405.49	1.46295
6386.93	1.46279
6368.37	1.46285
6349.81	1.46338
6331.24	1.4631
6312.68	1.46289
6294.12	1.46269
6275.56	1.46262
6257	1.46264
6238.44	1.46263
6219.87	1.46253
6201.31	1.4624
6182.75	1.46225
6164.19	1.46213
6145.63	1.46197
6127.06	1.46179
6108.5	1.46158
6089.94	1.46141
6071.38	1.4614
6052.82	1.46136
6034.26	1.46129
6015.69	1.46128
5997.13	1.46126
5978.57	1.4611
5960.01	1.46095
5941.45	1.46074
5922.89	1.46053
5904.32	1.46029
5885.76	1.45997
5867.2	1.45968
5848.64	1.4594
5830.08	1.45901
5811.51	1.45856
5792.95	1.45812
5774.39	1.45763
5755.83	1.45711
5737.27	1.45654
5718.71	1.45586
5700.14	1.45502
5681.58	1.45396
5663.02	1.45257
5644.46	1.4508
5625.9	1.44838
5607.34	1.4441
5588.77	1.43555
5570.21	1.44943
5551.65	1.44783
5533.09	1.46162
5514.53	1.46658
5495.96	1.46448
5477.4	1.46582
5458.84	1.46104
5440.28	1.45577
5421.72	1.44993
5403.16	1.44161
5384.59	1.42396
5366.03	1.42425
5347.47	1.46101
5328.91	1.46468
5310.35	1.48285
5291.79	1.50875
5273.22	1.49601
5254.66	1.49144
5236.1	1.48728
5217.54	1.48437
5198.98	1.48094
5180.41	1.47819
5161.85	1.47601
5143.29	1.47426
5124.73	1.47289
5106.17	1.47162
5087.61	1.47045
5069.04	1.46945
5050.48	1.46855
5031.92	1.46769
5013.36	1.46693
4994.8	1.4661
4976.24	1.4652
4957.67	1.46439
4939.11	1.46361
4920.55	1.46276
4901.99	1.46186
4883.43	1.46102
4864.86	1.4603
4846.3	1.4598
4827.74	1.45877
4809.18	1.45714
4790.62	1.45504
4772.06	1.45245
4753.49	1.44883
4734.93	1.44309
4716.37	1.43473
4697.81	1.45308
4679.25	1.46893
4660.69	1.45604
4642.12	1.43926
4623.56	1.46893
4605	1.46265
4586.44	1.45219
4567.88	1.45876
4549.31	1.45506
4530.75	1.45084
4512.19	1.44522
4493.63	1.43456
4475.07	1.41519
4456.51	1.44916
4437.94	1.43112
4419.38	1.43998
4400.82	1.43072
4382.26	1.39189
4363.7	1.38751
4345.14	1.44569
4326.57	1.47245
4308.01	1.53553
4289.45	1.55422
4270.89	1.59539
4252.33	1.58519
4233.76	1.56188
4215.2	1.54315
4196.64	1.52899
4178.08	1.51878
4159.52	1.5184
4140.96	1.51992
4122.39	1.51481
4103.83	1.5131
4085.27	0.000220747
4066.71	0.000211878
4048.15	0.00020695
4029.58	0.000200052
4011.02	0.00019611
3992.46	0.000197096
3973.9	0.000195124
3955.34	0.000187241
3936.78	0.000189211
3918.21	0.000198081
3899.65	0.000209906
3881.09	0.000202023
3862.53	0.000189211
3843.97	0.000190197
3825.41	0.000203993
3806.84	0.000219761
3788.28	0.000223703
3769.72	0.00022666
3751.16	0.000229616
3732.6	0.000230601
3714.03	0.000227646
3695.47	0.000221733
3676.91	0.000217791
3658.35	0.000220747
3639.79	0.000227646
3621.23	0.0002375
3602.66	0.000245384
3584.1	0.000262137
3565.54	0.00032028
3546.98	0.000441493
3528.42	0.00051639
3509.86	0.000643517
3491.29	0.00111359
3472.73	0.00225674
3454.17	0.0028973
3435.61	0.0030944
3417.05	0.0020695
3398.48	0.000964782
3379.92	0.000533143
3361.36	0.000432625
3342.8	0.000457261
3324.24	0.000514418
3305.68	0.000593257
3287.11	0.000593257
3268.55	0.00055975
3249.99	0.000452334
3231.43	0.000377438
3212.87	0.000333092
3194.31	0.00028776
3175.74	0.000271992
3157.18	0.000299584
3138.62	0.000417842
3120.06	0.000598185
3101.5	0.000781483
3082.93	0.000918464
3064.37	0.0010249
3045.81	0.000972665
3027.25	0.000841597
3008.69	0.000735165
2990.13	0.000668153
2971.56	0.000598185
2953	0.000552853
2934.44	0.000508506
2915.88	0.000445435
2897.32	0.000393206
2878.76	0.000364626
2860.19	0.000351815
2841.63	0.000344916
2823.07	0.000338019
2804.51	0.000338019
2785.95	0.000327179
2767.38	0.000349844
2748.82	0.000444449
2730.26	0.000668153
2711.7	0.00114315
2693.14	0.00201037
2674.58	0.00574533
2656.01	0.00497666
2637.45	0.0012417
2618.89	0.00068195
2600.33	0.000880031
2581.77	0.00228631
2563.21	0.00305498
2544.64	0.00256224
2526.08	0.00188226
2507.52	0.00144865
2488.96	0.00129097
2470.4	0.00138952
2451.83	0.0012417
2433.27	0.00135996
2414.71	0.00180342
2396.15	0.00313381
2377.59	0.00519346
2359.03	0.00521317
2340.46	0.00607054
2321.9	0.00623807
2303.34	0.00571576
2284.78	0.00454305
2266.22	0.00405031
2247.66	0.0030944
2229.09	0.00266079
2210.53	0.00212863
2191.97	0.00144865
2173.41	0.00157676
2154.85	0.00129097
2136.28	0.000622821
2117.72	0.000525259
2099.16	0.000861306
2080.6	0.00118257
2062.04	0.001764
2043.48	0.00222718
2024.91	0.00235529
2006.35	0.002375
1987.79	0.00273962
1969.23	0.0036167
1950.67	0.00628734
1932.11	0.0109388
1913.54	0.0187241
1894.98	0.0650415
1876.42	0.223703
1857.86	0.194139
1839.3	0.277904
1820.73	0.187241
1802.17	0.130083
1783.61	0.0995331
1765.05	0.0427697
1746.49	0.0246369
1727.93	0.0204979
1709.36	0.0257209
1690.8	0.0528215
1672.24	0.43361
1653.68	0.565664
1635.12	0.491753
1616.56	0.533143
1597.99	0.443464
1579.43	0.160633
1560.87	0.106431
1542.31	0.076473
1523.75	0.0461203
1505.18	0.0212863
1486.62	0.0108402
1468.06	0.00584388
1449.5	0.00365612
1430.94	0.00249326
1412.38	0.000834699
1393.81	0.000375466
1375.25	0.000519347
1356.69	0.000763745
1338.13	0.00101504
1319.57	0.00128112
1301.01	0.000808091
1282.44	0.000871161
1263.88	0.00218776
1245.32	0.00322251
1226.76	0.00396161
1208.2	0.00562707
1189.63	0.00820902
1171.07	0.0112344
1152.51	0.0130083
1133.95	0.0089974
1115.39	0.00543983
1096.83	0.00458247
1078.26	0.00697717
1059.7	0.0128112
1041.14	0.030057
1022.58	0.0985477
1004.02	0.338018
985.455	0.215819
966.894	0.0598184
948.332	0.0845539
929.77	0.421784
911.208	0.0537085
892.647	0.105446
874.085	0.188226
855.523	0.107417
836.961	0.0810062
818.399	0.078641
799.838	0.0875103
781.276	0.13501
762.714	0.578475
744.152	0.367583
725.591	0.405031
707.029	0.276919
688.467	0.314367
669.905	0.896784
651.344	1.41909
632.782	1.42894
614.22	1.5472
595.658	1.2417
577.096	0.98252
558.535	0.429668
539.973	0.139938
521.411	0.0332106
502.849	0.00234543
484.288	0.030057
465.726	0.0564678
447.164	0.0418828
428.602	0.0355757
410.041	0.00615923
