Infrared Spectrum: HEPTANEDIOIC ACID
Formula: C7 H12 O4
CAS: 111-16-0
State: SOLID (NUJOL MULL)
Class: COBLENTZ III
Instrument: DOW KBr FOREPRISM-GRATING
Instrument parameters: BLAZED AT 3.5, 12.0, 20.0 MICRON, CHANGED AT 5.0, 7.5, 14.9 MICRON
Sampling: TRANSMISSION
Resolution: 4
Origin: DOW CHEMICAL COMPANY
1/CM	TRANSMITTANCE
452.273	0.926
460.796	0.929
469.318	0.928
477.841	0.917
486.364	0.902
494.887	0.912
503.409	0.948
511.932	0.962
520.455	0.936
528.978	0.882
537.5	0.948
546.023	0.986
554.546	0.993
563.069	0.99
571.591	0.985
580.114	0.982
588.637	0.986
597.16	0.989
605.682	0.988
614.205	0.989
622.728	0.992
631.251	0.989
639.773	0.981
648.296	0.972
656.819	0.956
665.341	0.926
673.864	0.869
682.387	0.85
690.91	0.797
699.432	0.834
707.955	0.905
716.478	0.898
725.001	0.877
733.523	0.797
742.046	0.92
750.569	0.945
759.092	0.946
767.614	0.945
776.137	0.941
784.66	0.941
793.183	0.94
801.705	0.933
810.228	0.93
818.751	0.926
827.273	0.914
835.796	0.9
844.319	0.894
852.842	0.886
861.364	0.873
869.887	0.856
878.41	0.832
886.933	0.785
895.455	0.721
903.978	0.637
912.501	0.488
921.024	0.438
929.546	0.495
938.069	0.585
946.592	0.728
955.115	0.8
963.637	0.833
972.16	0.861
980.683	0.877
989.206	0.892
997.728	0.902
1006.25	0.905
1014.77	0.904
1023.3	0.88
1031.82	0.889
1040.34	0.918
1048.86	0.922
1057.39	0.918
1065.91	0.916
1074.43	0.91
1082.96	0.844
1091.48	0.884
1100	0.932
1108.52	0.941
1117.05	0.944
1125.57	0.93
1134.09	0.892
1142.61	0.833
1151.14	0.908
1159.66	0.909
1168.18	0.897
1176.71	0.877
1185.23	0.836
1193.75	0.693
1202.27	0.288
1210.8	0.697
1219.32	0.723
1227.84	0.6039
1236.36	0.805
1244.89	0.6959
1253.41	0.721
1261.93	0.517
1270.46	0.113
1278.98	0.21
1287.5	0.577
1296.02	0.483
1304.55	0.564
1313.07	0.661
1321.59	0.801
1330.12	0.845
1338.64	0.752
1347.16	0.589
1355.68	0.667
1364.21	0.724
1372.73	0.692
1381.25	0.737
1389.77	0.79
1398.3	0.737
1406.82	0.4219
1415.34	0.495
1423.87	0.464
1432.39	0.287
1440.91	0.431
1449.43	0.496
1457.96	0.47
1466.48	0.408
1475	0.7051
1483.52	0.849
1492.05	0.882
1500.57	0.89
1509.09	0.898
1517.62	0.908
1526.14	0.91
1534.66	0.912
1543.18	0.912
1551.71	0.912
1560.23	0.912
1568.75	0.906
1577.27	0.904
1585.8	0.9
1594.32	0.896
1602.84	0.89
1611.37	0.885
1619.89	0.868
1628.41	0.85
1636.93	0.83
1645.46	0.797
1653.98	0.752
1662.5	0.684
1671.02	0.561
1679.55	0.3669
1688.07	0.07
1696.59	0.019
1705.12	0.027
1713.64	0.077
1722.16	0.328
1730.68	0.5971
1739.21	0.735
1747.73	0.776
1756.25	0.793
1764.77	0.798
1773.3	0.809
1781.82	0.816
1790.34	0.82
1798.87	0.829
1807.39	0.836
1815.91	0.852
1824.43	0.861
1832.96	0.873
1841.48	0.88
1850	0.884
1858.52	0.885
1867.05	0.888
1875.57	0.89
1884.09	0.89
1892.62	0.893
1901.14	0.894
1909.66	0.9
1918.18	0.904
1926.71	0.906
1935.23	0.908
1943.75	0.912
1952.27	0.912
1960.8	0.924
1969.32	0.912
1977.84	0.912
1986.37	0.913
1994.89	0.912
2003.41	0.937
2011.93	0.938
2020.46	0.941
2028.98	0.944
2037.5	0.938
2046.03	0.938
2054.55	0.938
2063.07	0.938
2071.59	0.937
2080.12	0.936
2088.64	0.934
2097.16	0.929
2105.68	0.928
2114.21	0.926
2122.73	0.922
2131.25	0.92
2139.78	0.92
2148.3	0.921
2156.82	0.921
2165.34	0.918
2173.87	0.918
2182.39	0.92
2190.91	0.92
2199.43	0.92
2207.96	0.916
2216.48	0.914
2225	0.91
2233.53	0.909
2242.05	0.901
2250.57	0.897
2259.09	0.894
2267.62	0.894
2276.14	0.89
2284.66	0.89
2293.18	0.89
2301.71	0.892
2310.23	0.892
2318.75	0.889
2327.28	0.885
2335.8	0.881
2344.32	0.877
2352.84	0.872
2361.37	0.868
2369.89	0.866
2378.41	0.865
2386.93	0.857
2395.46	0.85
2403.98	0.844
2412.5	0.84
2421.03	0.836
2429.55	0.825
2438.07	0.818
2446.59	0.81
2455.12	0.801
2463.64	0.794
2472.16	0.778
2480.68	0.769
2489.21	0.76
2497.73	0.75
2506.25	0.736
2514.78	0.717
2523.3	0.696
2531.82	0.668
2540.34	0.653
2548.87	0.643
2557.39	0.636
2565.91	0.644
2574.43	0.651
2582.96	0.64
2591.48	0.624
2600	0.595
2608.53	0.572
2617.05	0.555
2625.57	0.552
2634.09	0.551
2642.62	0.548
2651.14	0.548
2659.66	0.549
2668.18	0.551
2676.71	0.548
2685.23	0.537
2693.75	0.521
2702.28	0.524
2710.8	0.5479
2719.32	0.567
2727.84	0.567
2736.37	0.56
2744.89	0.549
2753.41	0.547
2761.94	0.537
2770.46	0.529
2778.98	0.529
2787.5	0.531
2796.03	0.527
2804.55	0.507
2813.07	0.492
2821.59	0.459
2830.12	0.4101
2838.64	0.32
2847.16	0.101
2855.69	0.067
2864.21	0.102
2872.73	0.109
2881.25	0.135
2889.78	0.109
2898.3	0.075
2906.82	0.047
2915.34	0.029
2923.87	0.015
2932.39	0.022
2940.91	0.034
2949.44	0.051
2957.96	0.059
2966.48	0.126
2975	0.209
2983.53	0.2979
2992.05	0.346
3000.57	0.364
3009.09	0.364
3017.62	0.362
3026.14	0.358
3034.66	0.358
3043.19	0.366
3051.71	0.376
3060.23	0.394
3068.75	0.416
3077.28	0.434
3085.8	0.439
3094.32	0.446
3102.84	0.459
3111.37	0.476
3119.89	0.49
3128.41	0.509
3136.94	0.533
3145.46	0.559
3153.98	0.575
3162.5	0.591
3171.03	0.603
3179.55	0.628
3188.07	0.645
3196.59	0.659
3205.12	0.679
3213.64	0.695
3222.16	0.717
3230.69	0.735
3239.21	0.75
3247.73	0.766
3256.25	0.786
3264.78	0.8
3273.3	0.813
3281.82	0.824
3290.34	0.833
3298.87	0.844
3307.39	0.856
3315.91	0.862
3324.44	0.868
3332.96	0.872
3341.48	0.877
3350	0.89
3358.53	0.9
3367.05	0.906
3375.57	0.914
3384.09	0.92
3392.62	0.926
3401.14	0.932
3409.66	0.933
3418.19	0.937
3426.71	0.94
3435.23	0.944
3443.75	0.945
3452.28	0.946
3460.8	0.946
3469.32	0.953
3477.85	0.954
3486.37	0.954
3494.89	0.958
3503.41	0.958
3511.94	0.961
3520.46	0.962
3528.98	0.964
3537.5	0.964
3546.03	0.964
3554.55	0.965
3563.07	0.966
3571.6	0.966
3580.12	0.965
3588.64	0.964
3597.16	0.964
3605.69	0.965
3614.21	0.965
3622.73	0.965
3631.25	0.964
3639.78	0.962
3648.3	0.965
3656.82	0.964
3665.35	0.964
3673.87	0.965
3682.39	0.965
3690.91	0.966
3699.44	0.965
3707.96	0.965
3716.48	0.965
3725	0.965
3733.53	0.966
3742.05	0.964
3750.57	0.964
3759.1	0.962
3767.62	0.964
3776.14	0.962
3784.66	0.962
3793.19	0.962
