Infrared Spectrum: Olein, 1-mono-
Formula: C21 H40 O4
CAS: 111-03-5
State: LIQUID (NEAT)
Class: COBLENTZ III
Instrument: BAIRD (PRISM)
Instrument parameters: NaCl PRISM
Sampling: TRANSMISSION
Path length: 0.003 CM
Resolution: 2
Origin: WYANDOTTE CHEMICALS CORP.
1/CM	TRANSMITTANCE
626	0.7157
635	0.7184
644	0.7134
653	0.7128
662	0.7002
671	0.687
680	0.6469
689	0.6231
698	0.5957
707	0.5475
716	0.4712
725	0.4511
734	0.5629
743	0.6456
752	0.7026
761	0.7334
770	0.7556
779	0.7841
788	0.8107
797	0.8171
806	0.8095
815	0.7969
824	0.7832
833	0.7645
842	0.7327
851	0.7172
860	0.7147
869	0.72
878	0.7254
887	0.7315
896	0.7276
905	0.7089
914	0.6834
923	0.6548
932	0.6237
941	0.6112
950	0.6059
959	0.5702
968	0.5083
977	0.5281
986	0.4996
995	0.5004
1004	0.501
1013	0.4699
1022	0.4388
1031	0.3989
1040	0.3489
1049	0.2997
1058	0.2849
1067	0.3121
1076	0.3502
1085	0.3205
1094	0.2655
1103	0.2513
1112	0.2393
1121	0.191
1130	0.2266
1139	0.2481
1148	0.18
1157	0.1244
1166	0.069
1175	0.0645
1184	0.0803
1193	0.1019
1202	0.1481
1211	0.1898
1220	0.2102
1229	0.2049
1238	0.1916
1247	0.188
1256	0.2102
1265	0.2304
1274	0.2539
1283	0.2673
1292	0.3114
1301	0.3404
1310	0.3551
1319	0.3671
1328	0.3738
1337	0.4054
1346	0.4022
1355	0.3719
1364	0.3596
1373	0.3369
1382	0.2793
1391	0.3325
1400	0.3935
1409	0.452
1418	0.4569
1427	0.4087
1436	0.4216
1445	0.341
1454	0.2858
1463	0.1844
1472	0.1326
1481	0.2289
1490	0.613
1499	0.7541
1508	0.8255
1517	0.8543
1526	0.8752
1535	0.8875
1544	0.8978
1553	0.9043
1562	0.9084
1571	0.9095
1580	0.9137
1589	0.9087
1598	0.9085
1607	0.9067
1616	0.9044
1625	0.9013
1634	0.8919
1643	0.8759
1652	0.8662
1661	0.8141
1670	0.8062
1679	0.8058
1688	0.7703
1697	0.6974
1706	0.5344
1715	0.3353
1724	0.1516
1733	0.0543
1742	0.0281
1751	0.0295
1760	0.2531
1769	0.5441
1778	0.7274
1787	0.8104
1796	0.8507
1805	0.8839
1814	0.9057
1823	0.9215
1832	0.9315
1841	0.936
1850	0.9495
1859	0.9545
1868	0.9569
1877	0.9579
1886	0.9585
1895	0.959
1904	0.9593
1913	0.9587
1922	0.958
1931	0.957
1940	0.956
1949	0.9554
1958	0.9548
1967	0.9536
1976	0.9519
1985	0.9503
1994	0.9491
2003	0.9478
2012	0.9468
2021	0.9475
2030	0.9483
2039	0.9509
2048	0.9527
2057	0.9542
2066	0.9554
2075	0.9559
2084	0.9604
2093	0.9567
2102	0.957
2111	0.9574
2120	0.9578
2129	0.9582
2138	0.9587
2147	0.9594
2156	0.96
2165	0.9608
2174	0.9615
2183	0.9619
2192	0.9615
2201	0.9612
2210	0.9607
2219	0.9599
2228	0.9592
2237	0.9568
2246	0.9542
2255	0.9517
2264	0.9496
2273	0.9483
2282	0.9469
2291	0.9454
2300	0.9449
2309	0.9445
2318	0.9447
2327	0.9451
2336	0.9457
2345	0.9495
2354	0.9487
2363	0.9455
2372	0.9432
2381	0.9418
2390	0.9405
2399	0.9398
2408	0.9391
2417	0.9388
2426	0.9384
2435	0.9381
2444	0.9378
2453	0.9375
2462	0.9372
2471	0.9366
2480	0.9355
2489	0.9344
2498	0.9331
2507	0.9313
2516	0.9294
2525	0.9276
2534	0.9256
2543	0.9236
2552	0.9215
2561	0.9184
2570	0.9146
2579	0.9106
2588	0.9052
2597	0.8999
2606	0.8944
2615	0.8883
2624	0.882
2633	0.8752
2642	0.8675
2651	0.8597
2660	0.8548
2669	0.8523
2678	0.8506
2687	0.8491
2696	0.8483
2705	0.8474
2714	0.8459
2723	0.843
2732	0.8327
2741	0.8307
2750	0.8287
2759	0.8254
2768	0.815
2777	0.798
2786	0.7792
2795	0.7587
2804	0.7356
2813	0.7043
2822	0.6495
2831	0.5174
2840	0.2595
2849	0.042
2858	0.0372
2867	0.0494
2876	0.0663
2885	0.0657
2894	0.0605
2903	0.0413
2912	0.0244
2921	0.0199
2930	0.0204
2939	0.0211
2948	0.0209
2957	0.0185
2966	0.0124
2975	0.0214
2984	0.1135
2993	0.2133
3002	0.3126
3011	0.3634
3020	0.3443
3029	0.3482
3038	0.4574
3047	0.5766
3056	0.6951
3065	0.7814
3074	0.8193
3083	0.8288
3092	0.8328
3101	0.8332
3110	0.8323
3119	0.8293
3128	0.8236
3137	0.816
3146	0.8072
3155	0.7978
3164	0.7854
3173	0.7699
3182	0.7531
3191	0.7364
3200	0.7198
3209	0.7033
3218	0.6868
3227	0.6705
3236	0.6542
3245	0.6381
3254	0.6144
3263	0.5962
3272	0.5726
3281	0.5337
3290	0.5069
3299	0.4879
3308	0.4709
3317	0.4526
3326	0.433
3335	0.4147
3344	0.3994
3353	0.3867
3362	0.3779
3371	0.3731
3380	0.3689
3389	0.3668
3398	0.3666
3407	0.3668
3416	0.3685
3425	0.3678
3434	0.3684
3443	0.3696
3452	0.3728
3461	0.3776
3470	0.3832
3479	0.3918
3488	0.4012
3497	0.411
3506	0.4223
3515	0.4321
3524	0.441
3533	0.4535
3542	0.4729
3551	0.5097
3560	0.5379
3569	0.5738
3578	0.6034
3587	0.6218
3596	0.6401
3605	0.6583
3614	0.716
3623	0.8514
3632	0.8724
3641	0.8896
3650	0.9059
3659	0.9277
3668	0.9427
3677	0.9528
3686	0.9568
3695	0.9607
3704	0.9637
3713	0.9659
3722	0.9681
3731	0.9697
3740	0.9708
3749	0.9718
3758	0.9726
3767	0.9731
3776	0.9733
3785	0.9732
3794	0.9728
3803	0.9726
3812	0.9723
3821	0.9718
3830	0.9714
3839	0.9709
3848	0.9708
3857	0.9708
3866	0.9709
3875	0.9709
3884	0.9708
3893	0.9706
3902	0.9704
3911	0.9703
3920	0.9701
3929	0.97
3938	0.9694
3947	0.9685
3956	0.9677
3965	0.9669
3974	0.966
3983	0.9652
3992	0.9643
