Infrared Spectrum: 1-HEXANOL
Formula: C6 H14 O
CAS: 111-27-3
State: SOLUTION (10% IN CCl4 FOR 3800-1300, 10% IN CS2 FOR 1300-650, 10% IN CCl4 FOR 650-250 CM^-^1) VERSUS SOLVENT
Boiling point: 157 C
Class: COBLENTZ II
Instrument: PERKIN-ELMER 521 (GRATING)
Instrument parameters: GRATING CHANGES AT 2000, 630 CM^-^1
Sampling: TRANSMISSION
Path length: 0.012, 0.012, AND 0.010 CM (CsBr CELL)
Resolution: 4
Origin: DOW CORNING CORP.
1/CM	TRANSMITTANCE
236.433	0.678
246.28	0.67
256.127	0.672
265.974	0.681
275.82	0.7
285.667	0.716
295.514	0.728
305.361	0.745
315.208	0.754
325.055	0.778
334.901	0.78
344.748	0.803
354.595	0.81
364.442	0.81
374.289	0.817
384.136	0.813
393.982	0.797
403.829	0.786
413.676	0.774
423.523	0.774
433.37	0.758
443.217	0.745
453.063	0.731
462.91	0.733
472.757	0.743
482.604	0.733
492.451	0.719
502.298	0.686
512.144	0.682
521.991	0.682
531.838	0.688
541.685	0.684
551.532	0.682
561.379	0.678
571.225	0.67
581.072	0.661
590.919	0.654
600.766	0.646
610.613	0.637
620.46	0.629
630.306	0.622
640.153	0.616
650	0.612
659.847	0.608
669.694	0.625
679.541	0.629
689.388	0.633
699.234	0.637
709.081	0.641
718.928	0.606
728.775	0.528
738.622	0.651
748.469	0.67
758.315	0.665
768.162	0.698
778.009	0.735
787.856	0.752
797.703	0.76
807.55	0.755
817.396	0.76
827.243	0.764
837.09	0.778
846.937	0.775
856.784	0.759
866.631	0.756
876.477	0.764
886.324	0.711
896.171	0.716
906.018	0.713
915.865	0.506
925.712	0.565
935.558	0.715
945.405	0.739
955.252	0.697
965.099	0.68
974.946	0.651
984.793	0.541
994.639	0.485
1004.49	0.387
1014.33	0.251
1024.18	0.221
1034.03	0.206
1043.87	0.184
1053.72	0.091
1063.57	0.173
1073.41	0.255
1083.26	0.375
1093.11	0.548
1102.95	0.553
1112.8	0.482
1122.65	0.538
1132.5	0.653
1142.34	0.708
1152.19	0.747
1162.04	0.733
1171.88	0.697
1181.73	0.663
1191.58	0.676
1201.42	0.696
1211.27	0.678
1221.12	0.665
1230.96	0.682
1240.81	0.663
1250.66	0.614
1260.5	0.622
1270.35	0.623
1280.2	0.619
1290.04	0.615
1299.89	0.61
1309.74	0.603
1319.59	0.599
1329.43	0.587
1339.28	0.559
1349.13	0.577
1358.97	0.568
1368.82	0.51
1378.67	0.331
1388.51	0.497
1398.36	0.525
1408.21	0.536
1418.05	0.544
1427.9	0.505
1437.75	0.481
1447.59	0.391
1457.44	0.243
1467.29	0.258
1477.13	0.548
1486.98	0.728
1496.83	0.778
1506.68	0.81
1516.52	0.825
1526.37	0.834
1536.22	0.834
1546.06	0.834
1555.91	0.844
1565.76	0.852
1575.6	0.856
1585.45	0.864
1595.3	0.868
1605.14	0.869
1614.99	0.87
1624.84	0.87
1634.68	0.872
1644.53	0.875
1654.38	0.876
1664.22	0.879
1674.07	0.875
1683.92	0.868
1693.76	0.873
1703.61	0.864
1713.46	0.857
1723.31	0.856
1733.15	0.858
1743	0.884
1752.85	0.896
1762.69	0.901
1772.54	0.903
1782.39	0.905
1792.23	0.905
1802.08	0.907
1811.93	0.907
1821.77	0.907
1831.62	0.908
1841.47	0.905
1851.31	0.909
1861.16	0.908
1871.01	0.908
1880.85	0.908
1890.7	0.904
1900.55	0.908
1910.4	0.905
1920.24	0.908
1930.09	0.905
1939.94	0.908
1949.78	0.907
1959.63	0.907
1969.48	0.904
1979.32	0.909
1989.17	0.903
1999.02	0.897
2008.86	0.895
2018.71	0.897
2028.56	0.8955
2038.4	0.892
2048.25	0.895
2058.1	0.8959
2067.94	0.897
2077.79	0.899
2087.64	0.9
2097.49	0.9004
2107.33	0.9
2117.18	0.9006
2127.03	0.901
2136.87	0.9
2146.72	0.897
2156.57	0.895
2166.41	0.892
2176.26	0.893
2186.11	0.8936
2195.95	0.896
2205.8	0.895
2215.65	0.895
2225.49	0.895
2235.34	0.895
2245.19	0.8966
2255.03	0.8922
2264.88	0.893
2274.73	0.891
2284.58	0.893
2294.42	0.892
2304.27	0.8918
2314.12	0.889
2323.96	0.8849
2333.81	0.8799
2343.66	0.88
2353.5	0.8812
2363.35	0.881
2373.2	0.8788
2383.04	0.875
2392.89	0.872
2402.74	0.872
2412.58	0.872
2422.43	0.87
2432.28	0.868
2442.12	0.866
2451.97	0.865
2461.82	0.862
2471.67	0.86
2481.51	0.858
2491.36	0.856
2501.21	0.853
2511.05	0.852
2520.9	0.846
2530.75	0.8411
2540.59	0.8382
2550.44	0.8331
2560.29	0.8274
2570.13	0.8211
2579.98	0.8171
2589.83	0.815
2599.67	0.8132
2609.52	0.8102
2619.37	0.8052
2629.21	0.799
2639.06	0.7934
2648.91	0.7832
2658.75	0.7685
2668.6	0.7633
2678.45	0.76
2688.3	0.755
2698.14	0.7488
2707.99	0.7336
2717.84	0.7102
2727.68	0.698
2737.53	0.7007
2747.38	0.702
2757.22	0.6973
2767.07	0.6834
2776.92	0.6572
2786.76	0.6279
2796.61	0.6003
2806.46	0.542
2816.3	0.5007
2826.15	0.3988
2836	0.2794
2845.84	0.0936
2855.69	0.0085
2865.54	0.017
2875.39	0.0327
2885.23	0.0765
2895.08	0.048
2904.93	0.0197
2914.77	0
2924.62	0
2934.47	0
2944.31	0
2954.16	0
2964.01	0.022
2973.85	0.2435
2983.7	0.4571
2993.55	0.5467
3003.39	0.6174
3013.24	0.6479
3023.09	0.6818
3032.93	0.696
3042.78	0.702
3052.63	0.7083
3062.48	0.7136
3072.32	0.7111
3082.17	0.7041
3092.02	0.6914
3101.86	0.6775
3111.71	0.6695
3121.56	0.6523
3131.4	0.6345
3141.25	0.6155
3151.1	0.5899
3160.94	0.568
3170.79	0.5328
3180.64	0.5036
3190.48	0.4729
3200.33	0.4371
3210.18	0.4026
3220.02	0.3649
3229.87	0.329
3239.72	0.2931
3249.57	0.2612
3259.41	0.2284
3269.26	0.2007
3279.11	0.1805
3288.95	0.1618
3298.8	0.1509
3308.65	0.138
3318.49	0.134
3328.34	0.131
3338.19	0.131
3348.03	0.135
3357.88	0.143
3367.73	0.155
3377.57	0.1688
3387.42	0.1809
3397.27	0.1979
3407.11	0.2199
3416.96	0.2358
3426.81	0.2589
3436.66	0.278
3446.5	0.3029
3456.35	0.3299
3466.2	0.3606
3476.04	0.3938
3485.89	0.4231
3495.74	0.4488
3505.58	0.4985
3515.43	0.5379
3525.28	0.5912
3535.12	0.6338
3544.97	0.6889
3554.82	0.7278
3564.66	0.7606
3574.51	0.7895
3584.36	0.791
3594.2	0.7722
3604.05	0.6914
3613.9	0.6289
3623.75	0.584
3633.59	0.6862
3643.44	0.8142
3653.29	0.8533
3663.13	0.8613
3672.98	0.8679
3682.83	0.8755
3692.67	0.883
3702.52	0.887
3712.37	0.889
3722.21	0.891
3732.06	0.8916
3741.91	0.892
3751.75	0.891
3761.6	0.891
3771.45	0.891
3781.29	0.893
3791.14	0.8925
