Infrared Spectrum: DIETHYLENE GLYCOL
Formula: C4 H10 O3
CAS: 111-46-6
State: LIQUID (NEAT)
Class: COBLENTZ III
Instrument: PERKIN-ELMER 521 (GRATING)
Instrument parameters: FILTERS AT 3150, 2500, 2000, 1150, 700, 410 AND GRATING CHANGES AT 2000, 630 CM^-^1
Sampling: TRANSMISSION
Path length: CAPILLARY, KBr PLATES
Resolution: 4
Origin: STANDARD OIL OF OHIO
1/CM	TRANSMITTANCE
272.921	0.275
282.927	0.264
292.934	0.291
302.94	0.305
312.946	0.361
322.952	0.396
332.959	0.455
342.965	0.519
352.971	0.553
362.977	0.602
372.984	0.627
382.99	0.643
392.996	0.675
403.002	0.668
413.009	0.685
423.015	0.687
433.021	0.695
443.027	0.685
453.034	0.663
463.04	0.638
473.046	0.613
483.052	0.593
493.059	0.569
503.065	0.544
513.071	0.528
523.078	0.516
533.084	0.518
543.09	0.521
553.096	0.521
563.103	0.526
573.109	0.529
583.115	0.533
593.121	0.539
603.128	0.544
613.134	0.551
623.14	0.562
633.146	0.576
643.153	0.586
653.159	0.598
663.165	0.613
673.171	0.629
683.178	0.645
693.184	0.655
703.19	0.673
713.196	0.689
723.203	0.704
733.209	0.718
743.215	0.734
753.222	0.753
763.228	0.766
773.234	0.77
783.24	0.758
793.247	0.726
803.253	0.678
813.259	0.693
823.265	0.755
833.272	0.775
843.278	0.751
853.284	0.663
863.29	0.567
873.297	0.467
883.303	0.4
893.309	0.366
903.315	0.397
913.322	0.405
923.328	0.521
933.334	0.716
943.34	0.768
953.347	0.77
963.353	0.753
973.359	0.714
983.366	0.672
993.372	0.648
1003.38	0.574
1013.38	0.422
1023.39	0.304
1033.4	0.251
1043.4	0.098
1053.41	0.063
1063.42	0.077
1073.42	0.086
1083.43	0.173
1093.43	0.315
1103.44	0.241
1113.45	0.1
1123.45	0.079
1133.46	0.1971
1143.47	0.518
1153.47	0.649
1163.48	0.7
1173.48	0.716
1183.49	0.705
1193.5	0.664
1203.5	0.577
1213.51	0.511
1223.52	0.502
1233.52	0.509
1243.53	0.553
1253.53	0.573
1263.54	0.588
1273.55	0.586
1283.55	0.579
1293.56	0.571
1303.57	0.549
1313.57	0.526
1323.58	0.538
1333.58	0.551
1343.59	0.43
1353.6	0.4571
1363.6	0.524
1373.61	0.533
1383.62	0.516
1393.62	0.502
1403.63	0.506
1413.63	0.522
1423.64	0.538
1433.65	0.531
1443.65	0.481
1453.66	0.468
1463.67	0.532
1473.67	0.605
1483.68	0.75
1493.68	0.805
1503.69	0.837
1513.7	0.855
1523.7	0.864
1533.71	0.872
1543.72	0.875
1553.72	0.88
1563.73	0.882
1573.73	0.882
1583.74	0.886
1593.75	0.887
1603.75	0.887
1613.76	0.889
1623.77	0.889
1633.77	0.89
1643.78	0.894
1653.79	0.896
1663.79	0.902
1673.8	0.906
1683.8	0.907
1693.81	0.91
1703.82	0.91
1713.82	0.912
1723.83	0.917
1733.84	0.92
1743.84	0.92
1753.85	0.922
1763.85	0.926
1773.86	0.923
1783.87	0.927
1793.87	0.926
1803.88	0.927
1813.89	0.928
1823.89	0.928
1833.9	0.926
1843.9	0.925
1853.91	0.925
1863.92	0.923
1873.92	0.925
1883.93	0.923
1893.94	0.92
1903.94	0.913
1913.95	0.905
1923.95	0.897
1933.96	0.892
1943.97	0.894
1953.97	0.901
1963.98	0.905
1973.99	0.916
1983.99	0.917
1994	0.921
2004	0.931
2014.01	0.93
2024.02	0.93
2034.02	0.932
2044.03	0.932
2054.04	0.93
2064.04	0.926
2074.05	0.9232
2084.05	0.9201
2094.06	0.92
2104.07	0.9161
2114.07	0.917
2124.08	0.916
2134.09	0.916
2144.09	0.915
2154.1	0.916
2164.1	0.9159
2174.11	0.916
2184.12	0.918
2194.12	0.925
2204.13	0.926
2214.14	0.925
2224.14	0.921
2234.15	0.9222
2244.15	0.9195
2254.16	0.92
2264.17	0.917
2274.17	0.9208
2284.18	0.9194
2294.19	0.9228
2304.19	0.9262
2314.2	0.9278
2324.2	0.927
2334.21	0.9262
2344.22	0.9258
2354.22	0.926
2364.23	0.923
2374.24	0.915
2384.24	0.912
2394.25	0.9103
2404.25	0.907
2414.26	0.903
2424.27	0.901
2434.27	0.89
2444.28	0.8829
2454.29	0.881
2464.29	0.877
2474.3	0.875
2484.3	0.871
2494.31	0.8783
2504.32	0.882
2514.32	0.882
2524.33	0.882
2534.34	0.882
2544.34	0.8804
2554.35	0.8806
2564.35	0.872
2574.36	0.8714
2584.37	0.867
2594.37	0.8664
2604.38	0.864
2614.39	0.8544
2624.39	0.852
2634.4	0.8454
2644.4	0.8404
2654.41	0.834
2664.42	0.8305
2674.42	0.8205
2684.43	0.8015
2694.44	0.7845
2704.44	0.7745
2714.45	0.7615
2724.45	0.7535
2734.46	0.7545
2744.47	0.7495
2754.47	0.7376
2764.48	0.7176
2774.49	0.6893
2784.49	0.6666
2794.5	0.6478
2804.51	0.6134
2814.51	0.5859
2824.52	0.5422
2834.52	0.4607
2844.53	0.3601
2854.54	0.2922
2864.54	0.2305
2874.55	0.2144
2884.56	0.2256
2894.56	0.2538
2904.57	0.269
2914.57	0.2506
2924.58	0.245
2934.59	0.2471
2944.59	0.2648
2954.6	0.3116
2964.61	0.4398
2974.61	0.5778
2984.62	0.7072
2994.62	0.7489
3004.63	0.7636
3014.64	0.7624
3024.64	0.764
3034.65	0.7546
3044.66	0.7487
3054.66	0.7347
3064.67	0.7217
3074.67	0.703
3084.68	0.6797
3094.69	0.6635
3104.69	0.6388
3114.7	0.6121
3124.71	0.5842
3134.71	0.5601
3144.72	0.5051
3154.72	0.4644
3164.73	0.4302
3174.74	0.3893
3184.74	0.3518
3194.75	0.3315
3204.76	0.2958
3214.76	0.264
3224.77	0.2338
3234.77	0.2106
3244.78	0.1884
3254.79	0.1697
3264.79	0.1517
3274.8	0.1364
3284.81	0.1225
3294.81	0.1118
3304.82	0.1029
3314.82	0.0939
3324.83	0.089
3334.84	0.0858
3344.84	0.081
3354.85	0.0789
3364.86	0.077
3374.86	0.077
3384.87	0.077
3394.87	0.081
3404.88	0.086
3414.89	0.091
3424.89	0.098
3434.9	0.109
3444.91	0.127
3454.91	0.142
3464.92	0.162
3474.92	0.1869
3484.93	0.2178
3494.94	0.2538
3504.94	0.2997
3514.95	0.3507
3524.96	0.4096
3534.96	0.4604
3544.97	0.5185
3554.97	0.5754
3564.98	0.633
3574.99	0.6957
3584.99	0.7305
3595	0.774
3605.01	0.816
3615.01	0.8414
3625.02	0.8618
3635.02	0.8836
3645.03	0.8946
3655.04	0.9056
3665.04	0.906
3675.05	0.9078
3685.06	0.9128
3695.06	0.917
3705.07	0.918
3715.07	0.9172
3725.08	0.9122
3735.09	0.9084
3745.09	0.9108
3755.1	0.9158
3765.11	0.92
3775.11	0.9184
3785.12	0.918
3795.12	0.917
3805.13	0.917
3815.14	0.917
3825.14	0.915
3835.15	0.915
3845.16	0.913
3855.16	0.912
3865.17	0.9103
3875.17	0.908
3885.18	0.906
3895.19	0.9063
3905.19	0.901
3915.2	0.901
3925.21	0.901
