Infrared Spectrum: n-NONANE
Formula: C9 H20
CAS: 111-84-2
State: SOLUTION (10% IN CCl4 FOR 3800-1500 CM^-^1, 10% IN CS2 FOR 1500-450 CM^-^1)
Class: COBLENTZ III
Instrument: DOW KBr FOREPRISM-GRATING
Instrument parameters: GRATING BLAZED AT 3.5, 12.0, 20.0 MICRONS AND CHANGED AT 5.0, 7.5, 14.9 MICRONS
Sampling: TRANSMISSION
Path length: 0.012 CM, 0.011 CM
Resolution: 4
Origin: DOW CHEMICAL COMPANY
1/CM	TRANSMITTANCE
443.077	0.941
451.868	0.947
460.659	0.948
469.451	0.955
478.242	0.962
487.033	0.969
495.824	0.977
504.615	0.986
513.407	0.995
522.198	1.005
530.989	1.012
539.78	1.022
548.572	1.026
557.363	1.03
566.154	1.03
574.945	1.029
583.736	1.024
592.528	1.026
601.319	1.029
610.11	1.029
618.901	1.026
627.692	1.026
636.484	1.011
645.275	1
654.066	0.998
662.857	1.012
671.648	1.03
680.44	1.037
689.231	1.035
698.022	1.019
706.813	0.986
715.605	0.864
724.396	0.792
733.187	0.908
741.978	0.965
750.769	0.982
759.561	0.998
768.352	1.001
777.143	1.004
785.934	1.019
794.725	1.031
803.517	1.034
812.308	1.031
821.099	1.023
829.89	1.004
838.681	0.984
847.473	0.914
856.264	0.86
865.055	0.879
873.846	0.906
882.637	0.925
891.429	0.939
900.22	0.995
909.011	1.013
917.802	1.009
926.594	1.016
935.385	1.02
944.176	1.012
952.967	1.006
961.758	1.001
970.55	1.002
979.341	1.012
988.132	1.022
996.923	1.027
1005.71	1.029
1014.51	1.026
1023.3	1.022
1032.09	1.015
1040.88	1.004
1049.67	1.001
1058.46	0.998
1067.25	0.993
1076.04	0.98
1084.84	0.984
1093.63	1.015
1102.42	1.026
1111.21	1.037
1120	1.033
1128.79	1.004
1137.58	1.001
1146.37	1.011
1155.16	1.023
1163.96	1.023
1172.75	1.023
1181.54	1.009
1190.33	1.011
1199.12	1.013
1207.91	1.008
1216.7	1.004
1225.49	1.011
1234.29	1.004
1243.08	0.986
1251.87	0.968
1260.66	0.964
1269.45	0.961
1278.24	0.933
1287.03	0.918
1295.82	0.895
1304.62	0.882
1313.41	0.904
1322.2	0.912
1330.99	0.904
1339.78	0.879
1348.57	0.89
1357.36	0.879
1366.15	0.849
1374.95	0.766
1383.74	0.621
1392.53	0.892
1401.32	0.919
1410.11	0.912
1418.9	0.889
1427.69	0.852
1436.48	0.765
1445.27	0.588
1454.07	0.393
1462.86	0.189
1471.65	0.146
1480.44	0.72
1489.23	0.812
1498.02	0.806
1506.81	0.781
1515.6	0.741
1524.4	0.708
1533.19	0.64
1541.98	0.546
1550.77	0.482
1559.56	0.517
1568.35	0.631
1577.14	0.689
1585.93	0.705
1594.73	0.779
1603.52	0.867
1612.31	0.924
1621.1	0.943
1629.89	0.955
1638.68	0.953
1647.47	0.958
1656.26	0.975
1665.06	0.979
1673.85	0.982
1682.64	0.984
1691.43	0.988
1700.22	0.99
1709.01	0.99
1717.8	0.993
1726.59	0.991
1735.38	0.998
1744.18	1.001
1752.97	0.995
1761.76	0.997
1770.55	1.001
1779.34	1
1788.13	0.998
1796.92	1
1805.71	1.002
1814.51	1
1823.3	0.997
1832.09	1.001
1840.88	0.994
1849.67	0.988
1858.46	0.988
1867.25	0.991
1876.04	0.991
1884.84	0.993
1893.63	0.995
1902.42	0.998
1911.21	0.998
1920	0.998
1928.79	0.998
1937.58	0.998
1946.37	1.004
1955.17	1.004
1963.96	1
1972.75	0.998
1981.54	0.994
1990.33	0.988
1999.12	0.98
2007.91	0.979
2016.7	0.98
2025.49	0.982
2034.29	0.983
2043.08	0.987
2051.87	0.9865
2060.66	0.987
2069.45	0.991
2078.24	0.991
2087.03	0.99
2095.82	0.987
2104.62	0.986
2113.41	0.986
2122.2	0.984
2130.99	0.983
2139.78	0.982
2148.57	0.982
2157.36	0.982
2166.15	0.982
2174.95	0.982
2183.74	0.982
2192.53	0.982
2201.32	0.98
2210.11	0.98
2218.9	0.979
2227.69	0.979
2236.48	0.978
2245.27	0.976
2254.07	0.9725
2262.86	0.9685
2271.65	0.9645
2280.44	0.96
2289.23	0.952
2298.02	0.9505
2306.81	0.955
2315.6	0.958
2324.4	0.9545
2333.19	0.961
2341.98	0.968
2350.77	0.9695
2359.56	0.972
2368.35	0.972
2377.14	0.971
2385.93	0.974
2394.73	0.975
2403.52	0.976
2412.31	0.977
2421.1	0.977
2429.89	0.978
2438.68	0.98
2447.47	0.98
2456.26	0.982
2465.06	0.98
2473.85	0.98
2482.64	0.9795
2491.43	0.977
2500.22	0.9755
2509.01	0.973
2517.8	0.969
2526.59	0.968
2535.38	0.968
2544.18	0.967
2552.97	0.9645
2561.76	0.9645
2570.55	0.9575
2579.34	0.9515
2588.13	0.937
2596.92	0.932
2605.71	0.9285
2614.51	0.928
2623.3	0.927
2632.09	0.9255
2640.88	0.923
2649.67	0.9135
2658.46	0.9045
2667.25	0.894
2676.04	0.8895
2684.84	0.8995
2693.63	0.9075
2702.42	0.91
2711.21	0.9075
2720	0.8945
2728.79	0.8735
2737.58	0.868
2746.37	0.8875
2755.17	0.8925
2763.96	0.892
2772.75	0.8885
2781.54	0.87
2790.33	0.84
2799.12	0.8145
2807.91	0.776
2816.7	0.7365
2825.49	0.6611
2834.29	0.5521
2843.08	0.2847
2851.87	0.0572
2860.66	0.014
2869.45	0.0235
2878.24	0.0266
2887.03	0.1035
2895.82	0.0776
2904.62	0.027
2913.41	0.011
2922.2	0.008
2930.99	0.007
2939.78	0.011
2948.57	0.012
2957.36	0.009
2966.15	0.008
2974.95	0.014
2983.74	0.2218
2992.53	0.3979
3001.32	0.6009
3010.11	0.7029
3018.9	0.767
3027.69	0.809
3036.48	0.8375
3045.28	0.8685
3054.07	0.887
3062.86	0.9005
3071.65	0.911
3080.44	0.9245
3089.23	0.9325
3098.02	0.942
3106.81	0.95
3115.6	0.9535
3124.4	0.953
3133.19	0.954
3141.98	0.954
3150.77	0.953
3159.56	0.953
3168.35	0.954
3177.14	0.953
3185.93	0.954
3194.73	0.955
3203.52	0.9615
3212.31	0.965
3221.1	0.9695
3229.89	0.9725
3238.68	0.974
3247.47	0.976
3256.26	0.9755
3265.06	0.976
3273.85	0.977
3282.64	0.978
3291.43	0.979
3300.22	0.979
3309.01	0.977
3317.8	0.977
3326.59	0.976
3335.39	0.9755
3344.18	0.973
3352.97	0.973
3361.76	0.972
3370.55	0.97
3379.34	0.969
3388.13	0.968
3396.92	0.966
3405.71	0.967
3414.51	0.971
3423.3	0.974
3432.09	0.976
3440.88	0.979
3449.67	0.98
3458.46	0.981
3467.25	0.982
3476.04	0.986
3484.84	0.987
3493.63	0.99
3502.42	0.993
3511.21	0.9945
3520	0.997
3528.79	0.9975
3537.58	0.998
3546.37	1
3555.17	1
3563.96	1
3572.75	1
3581.54	0.998
3590.33	0.997
3599.12	0.9945
3607.91	0.988
3616.7	0.988
3625.49	0.988
3634.29	0.9835
3643.08	0.984
3651.87	0.9875
3660.66	0.988
3669.45	0.988
3678.24	0.989
3687.03	0.9825
3695.82	0.979
3704.62	0.987
3713.41	0.993
3722.2	0.9975
3730.99	0.998
3739.78	0.9945
3748.57	0.993
3757.36	0.993
3766.15	0.993
3774.95	0.993
3783.74	0.993
3792.53	0.991
