Infrared Spectrum: Sebacic acid
Formula: C 10 H 18 O 4
CAS: 111-20-6
State: solid
Instrument: Bruker Tensor 37 FTIR
Resolution: 0.96450084
Origin: Pacific Northwest National Laboratory Under IARPA Contract
1/cm	Reflectance
7498.03	0.636988
7480.67	0.636634
7463.31	0.635093
7445.95	0.62325
7428.59	0.611746
7411.23	0.592705
7393.87	0.556889
7376.51	0.507185
7359.15	0.50026
7341.79	0.458308
7324.43	0.483239
7307.07	0.475174
7289.71	0.471966
7272.35	0.470935
7254.99	0.46933
7237.63	0.475171
7220.27	0.488732
7202.91	0.501775
7185.55	0.514431
7168.19	0.524309
7150.83	0.533499
7133.47	0.540585
7116.11	0.545002
7098.75	0.546702
7081.39	0.546265
7064.03	0.543637
7046.67	0.533076
7029.31	0.525446
7011.96	0.522991
6994.6	0.51733
6977.24	0.513271
6959.88	0.503653
6942.52	0.497532
6925.16	0.487277
6907.8	0.469772
6890.44	0.453543
6873.08	0.438553
6855.72	0.420699
6838.36	0.403823
6821	0.384642
6803.64	0.364519
6786.28	0.345759
6768.92	0.321418
6751.56	0.300082
6734.2	0.280404
6716.84	0.261616
6699.48	0.23722
6682.12	0.181139
6664.76	0.173187
6647.4	0.164603
6630.04	0.1808
6612.68	0.174392
6595.32	0.176333
6577.96	0.185619
6560.6	0.195968
6543.24	0.194641
6525.88	0.192267
6508.52	0.186456
6491.16	0.185145
6473.8	0.18105
6456.44	0.179558
6439.08	0.177654
6421.72	0.177844
6404.36	0.175128
6387	0.172953
6369.64	0.172925
6352.28	0.170537
6334.92	0.170663
6317.56	0.169146
6300.2	0.167542
6282.84	0.167134
6265.48	0.16603
6248.12	0.165045
6230.76	0.163262
6213.4	0.165101
6196.04	0.164435
6178.68	0.165446
6161.32	0.164991
6143.97	0.16294
6126.61	0.161349
6109.25	0.158537
6091.89	0.155641
6074.53	0.143741
6057.17	0.134853
6039.81	0.134824
6022.45	0.13639
6005.09	0.137687
5987.73	0.13207
5970.37	0.123464
5953.01	0.10578
5935.65	0.0815619
5918.29	0.0690609
5900.93	0.0812744
5883.57	0.0776489
5866.21	0.0714546
5848.85	0.0653658
5831.49	0.0705765
5814.13	0.0693133
5796.77	0.0786244
5779.41	0.0723697
5762.05	0.073308
5744.69	0.0786074
5727.33	0.0740777
5709.97	0.0761639
5692.61	0.0762866
5675.25	0.0771482
5657.89	0.0809722
5640.53	0.0829337
5623.17	0.0850562
5605.81	0.0847464
5588.45	0.0828241
5571.09	0.0791594
5553.73	0.0737622
5536.37	0.0794643
5519.01	0.0754111
5501.65	0.0696486
5484.29	0.0634007
5466.93	0.0567658
5449.57	0.0497414
5432.21	0.0419666
5414.85	0.0369361
5397.49	0.0358308
5380.13	0.0337916
5362.77	0.0323458
5345.41	0.0304356
5328.05	0.029756
5310.69	0.0291371
5293.33	0.0289369
5275.97	0.0289064
5258.62	0.0290552
5241.26	0.0282165
5223.9	0.0266982
5206.54	0.0308257
5189.18	0.0300473
5171.82	0.0323503
5154.46	0.0325705
5137.1	0.0326126
5119.74	0.0323991
5102.38	0.0325386
5085.02	0.0321144
5067.66	0.0326958
5050.3	0.0334409
5032.94	0.0332856
5015.58	0.0344652
4998.22	0.0343885
4980.86	0.0362543
4963.5	0.0365603
4946.14	0.0373098
4928.78	0.037499
4911.42	0.0381923
4894.06	0.038883
4876.7	0.0392148
4859.34	0.0407068
4841.98	0.0399898
4824.62	0.0401859
4807.26	0.0410008
4789.9	0.0408833
4772.54	0.0403295
4755.18	0.0400813
4737.82	0.0380334
4720.46	0.0366084
4703.1	0.035296
4685.74	0.0335566
4668.38	0.0319682
4651.02	0.0290463
4633.66	0.0270077
4616.3	0.0216276
4598.94	0.0544462
4581.58	0.038186
4564.22	0.0358603
4546.86	0.0371543
4529.5	0.0362629
4512.14	0.0354437
4494.78	0.0317554
4477.42	0.0271108
4460.06	0.0295221
4442.7	0.0318924
4425.34	0.027217
4407.98	0.0246812
4390.63	0.031017
4373.27	0.0270983
4355.91	0.032107
4338.55	0.0336246
4321.19	0.0345714
4303.83	0.0353016
4286.47	0.0323034
4269.11	0.0294761
4251.75	0.0271462
4234.39	0.0243741
4217.03	0.0280209
4199.67	0.0319928
4182.31	0.0310754
4164.95	0.0331744
4147.59	0.0341821
4130.23	0.0304992
4112.87	0.027878
4095.51	0.0277702
4078.15	0.0318055
4060.79	0.0376502
4043.43	0.634984
4026.07	0.628298
4008.71	0.627807
3991.35	0.62206
3973.99	0.609616
3956.63	0.584738
3939.27	0.552238
3921.91	0.497487
3904.55	0.497089
3887.19	0.4706
3869.83	0.486835
3852.47	0.475054
3835.11	0.473272
3817.75	0.470652
3800.39	0.47481
3783.03	0.485127
3765.67	0.500999
3748.31	0.513172
3730.95	0.522876
3713.59	0.532286
3696.23	0.540817
3678.87	0.548127
3661.51	0.549142
3644.15	0.551446
3626.79	0.549955
3609.43	0.544759
3592.07	0.537565
3574.71	0.532453
3557.35	0.522457
3539.99	0.521559
3522.64	0.515573
3505.28	0.506749
3487.92	0.498175
3470.56	0.486502
3453.2	0.469671
3435.84	0.456238
3418.48	0.439406
3401.12	0.420815
3383.76	0.403151
3366.4	0.387016
3349.04	0.366506
3331.68	0.344822
3314.32	0.322281
3296.96	0.30082
3279.6	0.281414
3262.24	0.260215
3244.88	0.226218
3227.52	0.188663
3210.16	0.180882
3192.8	0.163781
3175.44	0.185913
3158.08	0.178258
3140.72	0.17879
3123.36	0.196899
3106	0.203084
3088.64	0.20033
3071.28	0.19656
3053.92	0.192503
3036.56	0.189886
3019.2	0.186583
3001.84	0.184184
2984.48	0.183386
2967.12	0.182181
2949.76	0.180856
2932.4	0.177601
2915.04	0.177747
2897.68	0.176639
2880.32	0.176268
2862.96	0.173416
2845.6	0.172604
2828.24	0.172474
2810.88	0.171041
2793.52	0.168627
2776.16	0.168585
2758.8	0.170862
2741.44	0.170279
2724.08	0.171093
2706.72	0.168684
2689.36	0.167318
2672	0.165452
2654.64	0.16322
2637.29	0.154539
2619.93	0.146756
2602.57	0.136545
2585.21	0.139016
2567.85	0.141907
2550.49	0.140038
2533.13	0.13379
2515.77	0.122081
2498.41	0.0995241
2481.05	0.0754148
2463.69	0.068547
2446.33	0.0837489
2428.97	0.0692601
2411.61	0.0708741
2394.25	0.066431
2376.89	0.0703055
2359.53	0.0713651
2342.17	0.0810108
2324.81	0.0737468
2307.45	0.0789018
2290.09	0.0791625
2272.73	0.0796079
2255.37	0.0789491
2238.01	0.0797708
2220.65	0.0811536
2203.29	0.0849095
2185.93	0.0839671
2168.57	0.087747
2151.21	0.0854239
2133.85	0.0814863
2116.49	0.0809298
2099.13	0.079857
2081.77	0.0806258
2064.41	0.0752765
2047.05	0.0690372
2029.69	0.061964
2012.33	0.0552938
1994.97	0.047435
1977.61	0.0395217
1960.25	0.0366602
1942.89	0.035286
1925.53	0.0331425
1908.17	0.0316341
1890.81	0.0302346
1873.45	0.0296089
1856.09	0.0291084
1838.73	0.0286147
1821.37	0.0288305
1804.01	0.0289911
1786.65	0.027427
1769.3	0.0274491
1751.94	0.0307708
1734.58	0.0300359
1717.22	0.0322984
1699.86	0.0323958
1682.5	0.0324575
1665.14	0.0326028
1647.78	0.0325038
1630.42	0.0325458
1613.06	0.0327674
1595.7	0.033619
1578.34	0.0332295
1560.98	0.0345482
1543.62	0.035524
1526.26	0.0362786
1508.9	0.037545
1491.54	0.0375988
1474.18	0.0381076
1456.82	0.0387853
1439.46	0.0387432
1422.1	0.0402506
1404.74	0.0403421
1387.38	0.0395355
1370.02	0.0407836
1352.66	0.0406498
1335.3	0.0403618
1317.94	0.0401909
1300.58	0.0393415
1283.22	0.0371912
1265.86	0.0357841
1248.5	0.0344446
1231.14	0.032664
1213.78	0.0305357
1196.42	0.0280049
1179.06	0.0252416
1161.7	0.0194963
1144.34	0.0539806
1126.98	0.0361616
1109.62	0.0358631
1092.26	0.0360276
1074.9	0.0355487
1057.54	0.0337994
1040.18	0.0286533
1022.82	0.0257939
1005.46	0.0287577
988.104	0.0298784
970.744	0.0280044
953.384	0.0243885
936.025	0.0292683
918.665	0.0293518
901.305	0.0285751
883.945	0.0331721
866.585	0.0324152
849.226	0.0336269
831.866	0.0289051
814.506	0.0285914
797.146	0.0257665
779.786	0.0232609
762.427	0.0307546
745.067	0.0301912
727.707	0.0294439
710.347	0.0317782
692.987	0.0325645
675.628	0.0301423
658.268	0.0294336
640.908	0.0269803
623.548	0.0320812
606.188	0.0377996
