Infrared Spectrum: N-Ethyl-N'-methyl-ethylenediamine
Formula: C5 H14 N2
CAS: 111-37-5
State: LIQUID (NEAT)
Class: COBLENTZ III
Instrument: BECKMAN IR-9 (GRATING)
Instrument parameters: ORDER CHANGES: 670, 1200, 2000 CM^-^1
Sampling: TRANSMISSION
Path length: CAPILLARY
Resolution: 2
Origin: DOW CHEMICAL COMPANY
1/CM	TRANSMITTANCE
3800	0.9025
3791	0.902
3782	0.9012
3773	0.9005
3764	0.8995
3755	0.8965
3746	0.8849
3737	0.8875
3728	0.8902
3719	0.8915
3710	0.8897
3701	0.8807
3692	0.8637
3683	0.8539
3674	0.8542
3665	0.8546
3656	0.8518
3647	0.8466
3638	0.84
3629	0.8309
3620	0.8202
3611	0.8083
3602	0.7937
3593	0.7781
3584	0.7624
3575	0.7467
3566	0.7318
3557	0.7158
3548	0.6964
3539	0.6742
3530	0.6538
3521	0.6394
3512	0.6243
3503	0.6083
3494	0.5974
3485	0.5869
3476	0.5775
3467	0.5685
3458	0.5598
3449	0.5512
3440	0.5435
3431	0.5357
3422	0.5293
3413	0.5237
3404	0.5179
3395	0.5119
3386	0.5058
3377	0.4992
3368	0.4898
3359	0.4733
3350	0.456
3341	0.4365
3332	0.4146
3323	0.3889
3314	0.3757
3305	0.3707
3296	0.3716
3287	0.3776
3278	0.3862
3269	0.397
3260	0.4093
3251	0.4218
3242	0.4348
3233	0.4479
3224	0.4612
3215	0.4728
3206	0.4842
3197	0.4959
3188	0.5077
3179	0.5179
3170	0.5278
3161	0.5375
3152	0.5462
3143	0.5552
3134	0.5637
3125	0.5721
3116	0.5804
3107	0.5878
3098	0.5933
3089	0.5988
3080	0.6045
3071	0.6093
3062	0.6137
3053	0.6175
3044	0.6185
3035	0.6185
3026	0.6172
3017	0.6133
3008	0.6077
2999	0.5784
2990	0.491
2981	0.4292
2972	0.149
2963	0.2117
2954	0.2215
2945	0.195
2936	0.2035
2927	0.2388
2918	0.246
2909	0.2396
2900	0.2164
2891	0.2279
2882	0.2477
2873	0.2697
2864	0.2724
2855	0.2221
2846	0.1945
2837	0.1943
2828	0.194
2819	0.1934
2810	0.1928
2801	0.1977
2792	0.261
2783	0.3103
2774	0.365
2765	0.4994
2756	0.5554
2747	0.5976
2738	0.6336
2729	0.6547
2720	0.669
2711	0.6722
2702	0.6768
2693	0.6818
2684	0.6905
2675	0.7147
2666	0.7345
2657	0.7447
2648	0.7546
2639	0.7628
2630	0.771
2621	0.7791
2612	0.786
2603	0.7915
2594	0.7951
2585	0.7991
2576	0.803
2567	0.8068
2558	0.8107
2549	0.8144
2540	0.8172
2531	0.8201
2522	0.8228
2513	0.8251
2504	0.8275
2495	0.8297
2486	0.8318
2477	0.8338
2468	0.8358
2459	0.8375
2450	0.8386
2441	0.8397
2432	0.8406
2423	0.8414
2414	0.8417
2405	0.8413
2396	0.8404
2387	0.8374
2378	0.8353
2369	0.8348
2360	0.8345
2351	0.8342
2342	0.834
2333	0.8339
2324	0.8337
2315	0.8336
2306	0.8333
2297	0.833
2288	0.8327
2279	0.8324
2270	0.8321
2261	0.8321
2252	0.8321
2243	0.832
2234	0.8321
2225	0.8324
2216	0.8328
2207	0.833
2198	0.8335
2189	0.8341
2180	0.8347
2171	0.8355
2162	0.8365
2153	0.8384
2144	0.8404
2135	0.842
2126	0.8436
2117	0.8445
2108	0.8454
2099	0.8464
2090	0.8475
2081	0.8487
2072	0.8497
2063	0.8507
2054	0.8516
2045	0.8524
2036	0.8531
2027	0.8537
2018	0.8551
2009	0.8668
2000	0.8773
1991	0.8791
1982	0.8761
1973	0.8738
1964	0.8728
1955	0.8723
1946	0.8708
1937	0.8709
1928	0.8718
1919	0.8721
1910	0.8721
1901	0.8728
1892	0.874
1883	0.8752
1874	0.8763
1865	0.8768
1856	0.8775
1847	0.8781
1838	0.8786
1829	0.8785
1820	0.8777
1811	0.8768
1802	0.8763
1793	0.8755
1784	0.8741
1775	0.872
1766	0.8686
1757	0.8645
1748	0.8614
1739	0.8563
1730	0.8507
1721	0.8433
1712	0.8314
1703	0.8101
1694	0.7799
1685	0.7493
1676	0.7292
1667	0.729
1658	0.7351
1649	0.7425
1640	0.7548
1631	0.7725
1622	0.7849
1613	0.7932
1604	0.7972
1595	0.7978
1586	0.7964
1577	0.7946
1568	0.793
1559	0.7918
1550	0.7901
1541	0.7882
1532	0.7865
1523	0.7744
1514	0.753
1505	0.7071
1496	0.6399
1487	0.5418
1478	0.4278
1469	0.4046
1460	0.3657
1451	0.3695
1442	0.441
1433	0.59
1424	0.6875
1415	0.7449
1406	0.7406
1397	0.6872
1388	0.5782
1379	0.5725
1370	0.6091
1361	0.6445
1352	0.664
1343	0.6811
1334	0.6601
1325	0.7575
1316	0.7422
1307	0.7099
1298	0.6925
1289	0.7035
1280	0.6971
1271	0.695
1262	0.7028
1253	0.6941
1244	0.6857
1235	0.7175
1226	0.7482
1217	0.7484
1208	0.7411
1199	0.7315
1190	0.7111
1181	0.6785
1172	0.6415
1163	0.5894
1154	0.5245
1145	0.4597
1136	0.3853
1127	0.3829
1118	0.3966
1109	0.4215
1100	0.4715
1091	0.6425
1082	0.6968
1073	0.7215
1064	0.7272
1055	0.6999
1046	0.6758
1037	0.6671
1028	0.6818
1019	0.7436
1010	0.7368
1001	0.7446
992	0.7643
983	0.7718
974	0.7638
965	0.7568
956	0.7242
947	0.6961
938	0.6703
929	0.6662
920	0.6574
911	0.6491
902	0.6432
893	0.6451
884	0.6507
875	0.6548
866	0.6599
857	0.6561
848	0.632
839	0.597
830	0.5581
821	0.5215
812	0.4858
803	0.4615
794	0.4448
785	0.4356
776	0.4356
767	0.4421
758	0.4533
749	0.4739
740	0.5006
731	0.528
722	0.5634
713	0.5984
704	0.6328
695	0.6601
686	0.6811
677	0.6936
668	0.6988
659	0.7041
650	0.7083
641	0.7115
632	0.716
623	0.7201
614	0.7228
605	0.7242
596	0.7257
587	0.7265
578	0.7257
569	0.7208
560	0.7161
551	0.7128
542	0.7121
533	0.7134
524	0.7171
515	0.7238
506	0.7318
497	0.7381
488	0.7405
479	0.7408
470	0.7337
461	0.7154
452	0.6878
443	0.6558
434	0.6269
425	0.5858
416	0.5662
407	0.562
398	0.5772
