Infrared Spectrum: PENTANE, 1,5-DIBROMO-
Formula: C5 H10 Br2
CAS: 111-24-0
State: SOLUTION (10% IN CCl4 FOR 3800-1333, 10% IN CS2 FOR 1333-430 CM^-^1)
Class: COBLENTZ III
Instrument: DOW KBr FOREPRISM-GRATING
Instrument parameters: BLAZED AT 3.5, 12.0, 20.0 MICRON; GRATING CHANGES AT 5.0, 7.5, 14.9 MICRON
Sampling: TRANSMISSION
Path length: 0.011 AND 0.011 CM
Resolution: 4
Origin: DOW CHEMICAL COMPANY
1/CM	TRANSMITTANCE
419.368	0.913
428.854	0.92
438.34	0.926
447.827	0.933
457.313	0.944
466.799	0.963
476.285	0.976
485.771	0.99
495.257	1.011
504.744	1.016
514.23	1.025
523.716	1.029
533.202	1.025
542.688	1.012
552.175	0.954
561.661	0.694
571.147	0.7719
580.633	0.99
590.119	1.027
599.606	1.034
609.092	1.031
618.578	1.025
628.064	0.992
637.55	0.8511
647.036	0.724
656.523	0.854
666.009	0.9588
675.495	1
684.981	1.007
694.467	1.005
703.954	1.001
713.44	0.977
722.926	0.8821
732.412	0.764
741.898	0.862
751.384	0.965
760.871	0.979
770.357	0.987
779.843	1.007
789.329	1
798.815	0.988
808.302	0.972
817.788	0.961
827.274	0.972
836.76	0.959
846.246	0.873
855.733	0.816
865.219	0.851
874.705	0.876
884.191	0.886
893.677	0.93
903.163	0.988
912.65	1.001
922.136	1.003
931.622	1.003
941.108	1.001
950.594	0.996
960.081	0.987
969.567	0.987
979.053	0.979
988.539	0.954
998.025	0.979
1007.51	0.996
1017	0.977
1026.48	0.963
1035.97	0.976
1045.46	0.961
1054.94	0.981
1064.43	0.981
1073.91	0.974
1083.4	0.988
1092.89	1.001
1102.37	1.003
1111.86	1.011
1121.35	1.011
1130.83	1.009
1140.32	0.992
1149.8	1.001
1159.29	1.003
1168.78	0.99
1178.26	0.979
1187.75	0.968
1197.24	0.948
1206.72	0.856
1216.21	0.681
1225.69	0.409
1235.18	0.7259
1244.67	0.852
1254.15	0.6121
1263.64	0.61
1273.12	0.659
1282.61	0.7419
1292.1	0.735
1301.58	0.753
1311.07	0.834
1320.56	0.913
1330.04	0.931
1339.53	0.919
1349.01	0.943
1358.5	0.931
1367.99	0.944
1377.47	0.943
1386.96	0.974
1396.45	0.976
1405.93	0.968
1415.42	0.954
1424.9	0.8931
1434.39	0.599
1443.88	0.661
1453.36	0.702
1462.85	0.707
1472.33	0.8909
1481.82	0.913
1491.31	0.891
1500.79	0.856
1510.28	0.794
1519.77	0.731
1529.25	0.685
1538.74	0.595
1548.22	0.492
1557.71	0.511
1567.2	0.6209
1576.68	0.68
1586.17	0.705
1595.65	0.781
1605.14	0.876
1614.63	0.941
1624.11	0.965
1633.6	0.977
1643.09	0.983
1652.57	0.985
1662.06	0.987
1671.54	0.987
1681.03	0.987
1690.52	0.987
1700	0.988
1709.49	0.988
1718.98	0.99
1728.46	0.988
1737.95	0.99
1747.43	0.988
1756.92	0.988
1766.41	0.99
1775.89	0.99
1785.38	0.992
1794.86	0.987
1804.35	0.987
1813.84	0.983
1823.32	0.985
1832.81	0.981
1842.3	0.985
1851.78	0.983
1861.27	0.985
1870.75	0.987
1880.24	0.987
1889.73	0.988
1899.21	0.987
1908.7	0.99
1918.19	0.988
1927.67	0.99
1937.16	0.988
1946.64	0.99
1956.13	0.988
1965.62	0.987
1975.1	0.987
1984.59	0.987
1994.07	0.987
2003.56	0.9875
2013.05	0.993
2022.53	0.993
2032.02	0.994
2041.51	0.995
2050.99	0.993
2060.48	0.992
2069.96	0.996
2079.45	0.996
2088.94	0.993
2098.42	0.988
2107.91	0.99
2117.4	0.994
2126.88	0.995
2136.37	0.994
2145.85	0.9929
2155.34	0.992
2164.83	0.99
2174.31	0.99
2183.8	0.99
2193.28	0.99
2202.77	0.99
2212.26	0.99
2221.74	0.988
2231.23	0.988
2240.72	0.987
2250.2	0.983
2259.69	0.9779
2269.17	0.976
2278.66	0.9709
2288.15	0.966
2297.63	0.965
2307.12	0.966
2316.61	0.9691
2326.09	0.972
2335.58	0.976
2345.06	0.979
2354.55	0.981
2364.04	0.983
2373.52	0.9861
2383.01	0.988
2392.49	0.988
2401.98	0.988
2411.47	0.99
2420.95	0.99
2430.44	0.99
2439.93	0.99
2449.41	0.99
2458.9	0.9908
2468.38	0.99
2477.87	0.99
2487.36	0.99
2496.84	0.99
2506.33	0.9912
2515.81	0.992
2525.3	0.992
2534.79	0.992
2544.27	0.9928
2553.76	0.99
2563.25	0.99
2572.73	0.9912
2582.22	0.99
2591.7	0.99
2601.19	0.99
2610.68	0.99
2620.16	0.987
2629.65	0.9837
2639.14	0.983
2648.62	0.985
2658.11	0.9797
2667.59	0.9823
2677.08	0.9797
2686.57	0.977
2696.05	0.981
2705.54	0.985
2715.02	0.9843
2724.51	0.985
2734	0.985
2743.48	0.987
2752.97	0.9857
2762.46	0.9837
2771.94	0.9797
2781.43	0.977
2790.91	0.9763
2800.4	0.9734
2809.89	0.964
2819.37	0.9467
2828.86	0.9043
2838.35	0.727
2847.83	0.8393
2857.32	0.707
2866.8	0.669
2876.29	0.793
2885.78	0.7661
2895.26	0.726
2904.75	0.726
2914.23	0.698
2923.72	0.6018
2933.21	0.4432
2942.69	0.378
2952.18	0.4991
2961.67	0.4195
2971.15	0.5668
2980.64	0.8501
2990.12	0.897
2999.61	0.8505
3009.1	0.8128
3018.58	0.9197
3028.07	0.966
3037.56	0.9804
3047.04	0.985
3056.53	0.987
3066.01	0.987
3075.5	0.99
3084.99	0.99
3094.47	0.99
3103.96	0.992
3113.44	0.994
3122.93	0.994
3132.42	0.996
3141.9	0.998
3151.39	0.998
3160.88	0.996
3170.36	0.996
3179.85	0.994
3189.33	0.9955
3198.82	1
3208.31	0.998
3217.79	0.9955
3227.28	0.996
3236.77	0.998
3246.25	0.998
3255.74	0.998
3265.22	0.998
3274.71	0.998
3284.2	0.998
3293.68	0.998
3303.17	0.998
3312.65	0.9995
3322.14	0.9985
3331.63	0.998
3341.11	0.996
3350.6	0.996
3360.09	0.996
3369.57	1
3379.06	0.9984
3388.54	1
3398.03	0.998
3407.52	0.998
3417	0.994
3426.49	0.998
3435.97	0.9984
3445.46	0.998
3454.95	0.996
3464.43	0.996
3473.92	0.994
3483.41	0.994
3492.89	0.9956
3502.38	0.994
3511.86	0.996
3521.35	0.996
3530.84	0.994
3540.32	0.994
3549.81	0.996
3559.3	0.9924
3568.78	0.99
3578.27	0.988
3587.75	0.9917
3597.24	0.9937
3606.73	0.9887
3616.21	0.988
3625.7	0.988
3635.18	0.988
3644.67	0.99
3654.16	0.988
3663.64	0.988
3673.13	0.988
3682.62	0.987
3692.1	0.987
3701.59	0.985
3711.07	0.988
3720.56	0.988
3730.05	0.987
3739.53	0.9879
3749.02	0.988
3758.51	0.988
3767.99	0.988
3777.48	0.988
3786.96	0.988
3796.45	0.9917
