Infrared Spectrum: 2-OCTANONE
Formula: C8 H16 O
CAS: 111-13-7
State: VAPOR (18 MICROLITER AT 180 C)
Boiling point: 174 C
Class: COBLENTZ
Instrument: PERKIN-ELMER 180 (GRATING)
Sampling: TRANSMISSION
Path length: 5 CM KBr CELL, CELL VOLUME: 80 CM^3
Resolution: 2-3 CM^-^1
Origin: PERKIN-ELMER CORP. (M. ZELLER)
1/CM	TRANSMITTANCE
406.473	0.476
415.534	0.554
424.596	0.61
433.657	0.678
442.719	0.729
451.78	0.784
460.842	0.81
469.903	0.844
478.965	0.875
488.026	0.891
497.088	0.907
506.149	0.883
515.211	0.877
524.272	0.883
533.334	0.891
542.395	0.911
551.457	0.926
560.518	0.941
569.58	0.943
578.641	0.933
587.703	0.913
596.764	0.919
605.826	0.95
614.887	0.972
623.949	0.983
633.01	0.985
642.072	0.988
651.133	0.986
660.195	0.986
669.256	0.954
678.318	0.981
687.379	0.976
696.441	0.963
705.502	0.941
714.564	0.922
723.625	0.929
732.687	0.942
741.748	0.953
750.81	0.96
759.871	0.964
768.933	0.964
777.994	0.959
787.056	0.958
796.117	0.955
805.179	0.955
814.24	0.955
823.302	0.963
832.363	0.966
841.425	0.968
850.486	0.968
859.548	0.967
868.609	0.966
877.671	0.963
886.732	0.955
895.794	0.955
904.855	0.955
913.917	0.954
922.978	0.943
932.04	0.919
941.101	0.902
950.163	0.906
959.224	0.921
968.286	0.933
977.347	0.942
986.409	0.947
995.47	0.949
1004.53	0.933
1013.59	0.921
1022.65	0.919
1031.72	0.921
1040.78	0.925
1049.84	0.932
1058.9	0.934
1067.96	0.936
1077.02	0.93
1086.09	0.92
1095.15	0.903
1104.21	0.885
1113.27	0.878
1122.33	0.872
1131.39	0.844
1140.45	0.7701
1149.52	0.6471
1158.58	0.513
1167.64	0.5789
1176.7	0.7099
1185.76	0.759
1194.82	0.759
1203.88	0.749
1212.95	0.738
1222.01	0.745
1231.07	0.788
1240.13	0.827
1249.19	0.848
1258.25	0.844
1267.32	0.839
1276.38	0.838
1285.44	0.845
1294.5	0.849
1303.56	0.844
1312.62	0.832
1321.68	0.822
1330.75	0.779
1339.81	0.707
1348.87	0.5821
1357.93	0.45
1366.99	0.477
1376.05	0.6259
1385.11	0.723
1394.18	0.78
1403.24	0.781
1412.3	0.763
1421.36	0.757
1430.42	0.758
1439.48	0.749
1448.55	0.72
1457.61	0.685
1466.67	0.72
1475.73	0.8039
1484.79	0.861
1493.85	0.891
1502.91	0.902
1511.98	0.912
1521.04	0.906
1530.1	0.9131
1539.16	0.911
1548.22	0.928
1557.28	0.913
1566.34	0.934
1575.41	0.93
1584.47	0.941
1593.53	0.943
1602.59	0.945
1611.65	0.937
1620.71	0.938
1629.77	0.938
1638.84	0.939
1647.9	0.929
1656.96	0.925
1666.02	0.903
1675.08	0.873
1684.14	0.818
1693.21	0.742
1702.27	0.63
1711.33	0.4751
1720.39	0.2711
1729.45	0.19
1738.51	0.2508
1747.57	0.4359
1756.64	0.6719
1765.7	0.791
1774.76	0.853
1783.82	0.891
1792.88	0.911
1801.94	0.925
1811	0.937
1820.07	0.945
1829.13	0.95
1838.19	0.95
1847.25	0.95
1856.31	0.956
1865.37	0.95
1874.44	0.955
1883.5	0.955
1892.56	0.955
1901.62	0.959
1910.68	0.956
1919.74	0.951
1928.8	0.958
1937.87	0.954
1946.93	0.953
1955.99	0.95
1965.05	0.953
1974.11	0.955
1983.17	0.953
1992.23	0.953
2001.3	0.9495
2010.36	0.9451
2019.42	0.9416
2028.48	0.943
2037.54	0.943
2046.6	0.938
2055.67	0.942
2064.73	0.938
2073.79	0.939
2082.85	0.933
2091.91	0.936
2100.97	0.932
2110.03	0.937
2119.1	0.936
2128.16	0.937
2137.22	0.9347
2146.28	0.937
2155.34	0.933
2164.4	0.9376
2173.46	0.9372
2182.53	0.9385
2191.59	0.937
2200.65	0.9354
2209.71	0.936
2218.77	0.936
2227.83	0.936
2236.9	0.9353
2245.96	0.9332
2255.02	0.9327
2264.08	0.932
2273.14	0.9276
2282.2	0.9231
2291.26	0.9185
2300.33	0.9114
2309.39	0.904
2318.45	0.903
2327.51	0.904
2336.57	0.9086
2345.63	0.8981
2354.69	0.8903
2363.76	0.906
2372.82	0.9219
2381.88	0.9293
2390.94	0.929
2400	0.93
2409.06	0.9279
2418.13	0.926
2427.19	0.926
2436.25	0.9286
2445.31	0.9251
2454.37	0.924
2463.43	0.924
2472.49	0.9235
2481.56	0.922
2490.62	0.9218
2499.68	0.922
2508.74	0.921
2517.8	0.921
2526.86	0.919
2535.92	0.9166
2544.99	0.916
2554.05	0.915
2563.11	0.915
2572.17	0.915
2581.23	0.913
2590.29	0.912
2599.36	0.912
2608.42	0.911
2617.48	0.9099
2626.54	0.907
2635.6	0.906
2644.66	0.9001
2653.72	0.899
2662.79	0.8963
2671.85	0.8947
2680.91	0.892
2689.97	0.8924
2699.03	0.894
2708.09	0.8937
2717.15	0.8904
2726.22	0.886
2735.28	0.882
2744.34	0.883
2753.4	0.882
2762.46	0.8772
2771.52	0.873
2780.59	0.8644
2789.65	0.851
2798.71	0.8332
2807.77	0.8182
2816.83	0.8007
2825.89	0.7506
2834.95	0.712
2844.02	0.5656
2853.08	0.4356
2862.14	0.353
2871.2	0.3461
2880.26	0.3652
2889.32	0.3839
2898.38	0.34
2907.45	0.2382
2916.51	0.1606
2925.57	0.0918
2934.63	0.0969
2943.69	0.1392
2952.75	0.164
2961.81	0.1665
2970.88	0.3108
2979.94	0.5155
2989	0.6476
2998.06	0.6866
3007.12	0.7087
3016.18	0.7573
3025.25	0.7899
3034.31	0.805
3043.37	0.817
3052.43	0.82
3061.49	0.8278
3070.55	0.8328
3079.61	0.8397
3088.68	0.8433
3097.74	0.8488
3106.8	0.855
3115.86	0.857
3124.92	0.861
3133.98	0.862
3143.04	0.865
3152.11	0.864
3161.17	0.861
3170.23	0.862
3179.29	0.8619
3188.35	0.866
3197.41	0.8688
3206.48	0.87
3215.54	0.872
3224.6	0.8742
3233.66	0.8776
3242.72	0.8732
3251.78	0.879
3260.84	0.879
3269.91	0.875
3278.97	0.8749
3288.03	0.879
3297.09	0.8782
3306.15	0.879
3315.21	0.878
3324.27	0.877
3333.34	0.8743
3342.4	0.8731
3351.46	0.875
3360.52	0.873
3369.58	0.873
3378.64	0.8721
3387.71	0.8696
3396.77	0.8663
3405.83	0.8617
3414.89	0.8592
3423.95	0.8513
3433.01	0.848
3442.07	0.851
3451.14	0.8556
3460.2	0.8651
3469.26	0.8685
3478.32	0.8729
3487.38	0.8696
3496.44	0.869
3505.5	0.87
3514.57	0.8642
3523.63	0.87
3532.69	0.861
3541.75	0.869
3550.81	0.8618
3559.87	0.865
3568.94	0.86
3578	0.855
3587.06	0.8615
3596.12	0.8552
3605.18	0.861
3614.24	0.8527
3623.3	0.8574
3632.37	0.8575
3641.43	0.8514
3650.49	0.86
3659.55	0.8568
3668.61	0.8524
3677.67	0.8571
3686.73	0.859
3695.8	0.8553
3704.86	0.853
3713.92	0.8554
3722.98	0.8511
3732.04	0.8442
3741.1	0.8497
3750.17	0.8544
3759.23	0.855
3768.29	0.855
3777.35	0.855
3786.41	0.853
3795.47	0.852
3804.53	0.851
3813.6	0.851
3822.66	0.8503
3831.72	0.849
3840.78	0.847
3849.84	0.847
3858.9	0.8467
3867.96	0.845
3877.03	0.844
3886.09	0.843
3895.15	0.843
3904.21	0.8434
3913.27	0.8449
3922.33	0.847
3931.4	0.847
3940.46	0.845
3949.52	0.8433
3958.58	0.842
3967.64	0.842
3976.7	0.8402
3985.76	0.842
3994.83	0.842
