Infrared Spectrum: 1-BROMOHEXANE
Formula: C6 H13 Br
CAS: 111-25-1
State: LIQUID
Class: COBLENTZ
Instrument: Not specified, most likely a prism, grating, or hybrid spectrometer.
Sampling: TRANSMISSION
Path length: 0.005 CM
Resolution: 4
Origin: WYANDOTTE CHEMICALS CORP., WYANDOTTE, MICHIGAN, USA
MICROMETERS	TRANSMITTANCE
2.034	0.991
2.07488	0.991
2.11575	0.991
2.15663	0.991
2.1975	0.96
2.23838	0.896
2.27926	0.885
2.32013	0.892
2.36101	0.909
2.40188	0.914
2.44276	0.931
2.48364	0.948
2.52451	0.959
2.56539	0.969
2.60626	0.972
2.64714	0.972
2.68802	0.974
2.72889	0.974
2.76977	0.972
2.81064	0.971
2.85152	0.965
2.8924	0.95
2.93327	0.948
2.97415	0.935
3.01502	0.928
3.0559	0.925
3.09678	0.921
3.13765	0.899
3.17853	0.87
3.2194	0.868
3.26028	0.829
3.30116	0.718
3.34203	0.33
3.38291	0.011
3.42378	0.017
3.46466	0.022
3.50554	0.023
3.54641	0.093
3.58729	0.611
3.62816	0.729
3.66904	0.768
3.70992	0.775
3.75079	0.802
3.79167	0.814
3.83254	0.848
3.87342	0.865
3.9143	0.896
3.95517	0.909
3.99605	0.909
4.03692	0.918
4.0778	0.919
4.11868	0.918
4.15955	0.918
4.20043	0.918
4.2413	0.911
4.28218	0.926
4.32306	0.935
4.36393	0.931
4.40481	0.926
4.44568	0.93
4.48656	0.938
4.52744	0.938
4.56831	0.93
4.60919	0.936
4.65006	0.94
4.69094	0.938
4.73182	0.945
4.77269	0.962
4.81357	0.962
4.85444	0.964
4.89532	0.962
4.9362	0.959
4.97707	0.959
5.01795	0.959
5.05882	0.964
5.0997	0.969
5.14057	0.971
5.18145	0.969
5.22233	0.967
5.2632	0.965
5.30408	0.965
5.34495	0.971
5.38583	0.971
5.42671	0.971
5.46758	0.971
5.50846	0.971
5.54933	0.971
5.59021	0.969
5.63109	0.965
5.67196	0.964
5.71284	0.964
5.75371	0.954
5.79459	0.938
5.83547	0.921
5.87634	0.928
5.91722	0.911
5.95809	0.904
5.99897	0.892
6.03985	0.889
6.08072	0.872
6.1216	0.877
6.16247	0.89
6.20335	0.892
6.24423	0.897
6.2851	0.902
6.32598	0.897
6.36685	0.902
6.40773	0.896
6.44861	0.89
6.48948	0.87
6.53036	0.86
6.57123	0.846
6.61211	0.819
6.65299	0.781
6.69386	0.718
6.73474	0.563
6.77561	0.12
6.81649	0.047
6.85737	0.071
6.89824	0.151
6.93912	0.148
6.97999	0.214
7.02087	0.499
7.06175	0.681
7.10262	0.72
7.1435	0.732
7.18437	0.679
7.22525	0.359
7.26613	0.33
7.307	0.601
7.34788	0.65
7.38875	0.649
7.42963	0.64
7.47051	0.57
7.51138	0.695
7.55226	0.715
7.59313	0.574
7.63401	0.458
7.67489	0.403
7.71576	0.402
7.75664	0.356
7.79751	0.214
7.83839	0.185
7.87927	0.34
7.92014	0.296
7.96102	0.105
8.00189	0.124
8.04277	0.091
8.08365	0.12
8.12452	0.233
8.1654	0.434
8.20627	0.565
8.24715	0.507
8.28803	0.279
8.3289	0.248
8.36978	0.524
8.41065	0.609
8.45153	0.674
8.49241	0.712
8.53328	0.718
8.57416	0.739
8.61503	0.741
8.65591	0.751
8.69679	0.778
8.73766	0.788
8.77854	0.804
8.81941	0.807
8.86029	0.805
8.90117	0.795
8.94204	0.747
8.98292	0.72
9.02379	0.71
9.06467	0.72
9.10555	0.744
9.14642	0.741
9.1873	0.705
9.22817	0.7
9.26905	0.727
9.30993	0.73
9.3508	0.729
9.39168	0.722
9.43255	0.732
9.47343	0.706
9.51431	0.649
9.55518	0.632
9.59606	0.672
9.63693	0.688
9.67781	0.706
9.71869	0.734
9.75956	0.751
9.80044	0.754
9.84131	0.764
9.88219	0.763
9.92307	0.759
9.96394	0.756
10.0048	0.751
10.0457	0.742
10.0866	0.718
10.1274	0.693
10.1683	0.708
10.2092	0.729
10.2501	0.729
10.2909	0.722
10.3318	0.729
10.3727	0.712
10.4136	0.698
10.4545	0.681
10.4953	0.647
10.5362	0.64
10.5771	0.681
10.618	0.744
10.6588	0.787
10.6997	0.807
10.7406	0.807
10.7815	0.814
10.8223	0.812
10.8632	0.809
10.9041	0.783
10.945	0.775
10.9858	0.776
11.0267	0.8
11.0676	0.809
11.1085	0.807
11.1493	0.793
11.1902	0.759
11.2311	0.732
11.272	0.727
11.3128	0.737
11.3537	0.752
11.3946	0.751
11.4355	0.747
11.4764	0.729
11.5172	0.715
11.5581	0.71
11.599	0.718
11.6399	0.718
11.6807	0.701
11.7216	0.672
11.7625	0.666
11.8034	0.667
11.8442	0.7
11.8851	0.741
11.926	0.773
11.9669	0.798
12.0077	0.81
12.0486	0.826
12.0895	0.838
12.1304	0.838
12.1712	0.827
12.2121	0.802
12.253	0.744
12.2939	0.681
12.3347	0.669
12.3756	0.705
12.4165	0.725
12.4574	0.737
12.4983	0.747
12.5391	0.759
12.58	0.766
12.6209	0.781
12.6618	0.792
12.7026	0.787
12.7435	0.768
12.7844	0.758
12.8253	0.756
12.8661	0.756
12.907	0.746
12.9479	0.735
12.9888	0.732
13.0296	0.741
13.0705	0.737
13.1114	0.713
13.1523	0.689
13.1931	0.667
13.234	0.637
13.2749	0.63
13.3158	0.643
13.3566	0.66
13.3975	0.672
13.4384	0.672
13.4793	0.671
13.5202	0.659
13.561	0.62
13.6019	0.557
13.6428	0.492
13.6837	0.412
13.7245	0.339
13.7654	0.281
13.8063	0.272
13.8472	0.287
13.888	0.362
13.9289	0.454
13.9698	0.553
14.0107	0.632
14.0515	0.688
14.0924	0.727
14.1333	0.761
14.1742	0.787
14.215	0.805
14.2559	0.827
14.2968	0.838
14.3377	0.85
14.3785	0.856
14.4194	0.858
14.4603	0.865
14.5012	0.865
14.5421	0.865
14.5829	0.86
14.6238	0.865
14.6647	0.858
14.7056	0.858
14.7464	0.851
14.7873	0.848
14.8282	0.843
14.8691	0.839
14.9099	0.833
14.9508	0.826
14.9917	0.81
15.0326	0.79
15.0734	0.776
15.1143	0.768
15.1552	0.756
15.1961	0.741
15.2369	0.71
15.2778	0.679
15.3187	0.647
15.3596	0.603
15.4004	0.567
15.4413	0.529
15.4822	0.505
15.5231	0.488
15.564	0.485
15.6048	0.499
15.6457	0.524
15.6866	0.553
15.7275	0.587
15.7683	0.616
15.8092	0.652
15.8501	0.676
15.891	0.688
15.9318	0.717
15.9727	0.708
16.0136	0.729
