Infrared Spectrum: n-PROPYL ETHER
Formula: C6 H14 O
CAS: 111-43-3
State: GAS (25 mmHg, N2 ADDED, TOTAL PRESSURE 600 mmHg)
Class: COBLENTZ
Instrument: DOW KBr FOREPRISM-GRATING
Instrument parameters: GRATING CHANGED AT 5.0, 7.5, 15.0 MICRON
Sampling: TRANSMISSION
Path length: 5 CM
Resolution: 2
Origin: DOW CHEMICAL COMPANY
1/CM	TRANSMITTANCE
385.591	1.005
394.988	1.005
404.385	1.005
413.782	1.005
423.179	1.005
432.576	1.005
441.973	1.001
451.37	1
460.767	0.998
470.164	1
479.561	1
488.958	0.998
498.355	0.989
507.752	0.988
517.149	0.989
526.546	0.991
535.943	1.002
545.34	1.001
554.737	1.005
564.134	1.005
573.531	1.013
582.928	1.015
592.325	1.017
601.722	1.015
611.12	1.018
620.517	1.015
629.914	1.018
639.311	1.018
648.708	1.018
658.105	1.023
667.502	1.027
676.899	1.027
686.296	1.03
695.693	1.033
705.09	1.033
714.487	1.036
723.884	1.034
733.281	1.034
742.678	1.027
752.075	1.024
761.472	1.024
770.869	1.024
780.266	1.027
789.663	1.033
799.06	1.039
808.457	1.039
817.854	1.039
827.251	1.036
836.648	1.036
846.045	1.033
855.442	1.028
864.839	1.023
874.236	1.014
883.633	1.007
893.03	0.991
902.427	0.975
911.824	0.953
921.221	0.946
930.618	0.942
940.015	0.924
949.412	0.914
958.809	0.927
968.206	0.968
977.603	0.992
987	0.986
996.397	0.937
1005.79	0.817
1015.19	0.781
1024.59	0.872
1033.99	0.931
1043.38	0.936
1052.78	0.91
1062.18	0.894
1071.57	0.892
1080.97	0.804
1090.37	0.694
1099.76	0.649
1109.16	0.581
1118.56	0.413
1127.96	0.152
1137.35	0.143
1146.75	0.321
1156.15	0.633
1165.54	0.794
1174.94	0.885
1184.34	0.943
1193.73	0.975
1203.13	0.986
1212.53	0.989
1221.93	0.982
1231.32	0.962
1240.72	0.93
1250.12	0.911
1259.51	0.911
1268.91	0.924
1278.31	0.933
1287.71	0.936
1297.1	0.933
1306.5	0.942
1315.9	0.966
1325.29	0.986
1334.69	0.963
1344.09	0.881
1353.48	0.852
1362.88	0.763
1372.28	0.705
1381.68	0.727
1391.07	0.762
1400.47	0.928
1409.87	0.962
1419.26	0.963
1428.66	0.966
1438.06	0.949
1447.45	0.904
1456.85	0.817
1466.25	0.742
1475.65	0.747
1485.04	0.855
1494.44	0.947
1503.84	0.984
1513.23	1.001
1522.63	1.004
1532.03	1.011
1541.42	1.002
1550.82	1.015
1560.22	1.004
1569.62	1.018
1579.01	1.018
1588.41	1.02
1597.81	1.017
1607.2	1.015
1616.6	1.008
1626	1.017
1635.39	1.011
1644.79	1.015
1654.19	0.992
1663.59	1.018
1672.98	1.014
1682.38	1.008
1691.78	1.018
1701.17	1.01
1710.57	1.018
1719.97	1.015
1729.37	1.008
1738.76	1
1748.16	0.995
1757.56	0.991
1766.95	0.991
1776.35	1
1785.75	1.014
1795.14	1.018
1804.54	1.02
1813.94	1.02
1823.34	1.018
1832.73	1.017
1842.13	1.013
1851.53	1.014
1860.92	1.011
1870.32	1.011
1879.72	1.01
1889.11	1.01
1898.51	1.01
1907.91	1.01
1917.31	1.01
1926.7	1.01
1936.1	1.01
1945.5	1.008
1954.89	1.007
1964.29	1.008
1973.69	1.008
1983.08	1.005
1992.48	1.004
2001.88	1.005
2011.28	1.005
2020.67	1.004
2030.07	1.002
2039.47	1
2048.86	1
2058.26	0.998
2067.66	1
2077.05	1.001
2086.45	1.002
2095.85	1.005
2105.25	1.008
2114.64	1.01
2124.04	1.011
2133.44	1.014
2142.83	1.014
2152.23	1.014
2161.63	1.014
2171.03	1.014
2180.42	1.011
2189.82	1.011
2199.22	1.011
2208.61	1.011
2218.01	1.013
2227.41	1.014
2236.8	1.014
2246.2	1.014
2255.6	1.014
2265	1.013
2274.39	1.013
2283.79	1.014
2293.19	1.015
2302.58	1.017
2311.98	1.018
2321.38	1.018
2330.77	1.026
2340.17	1.0229
2349.57	1.018
2358.97	1.017
2368.36	1.017
2377.76	1.017
2387.16	1.017
2396.55	1.0151
2405.95	1.017
2415.35	1.017
2424.74	1.017
2434.14	1.017
2443.54	1.017
2452.94	1.017
2462.33	1.017
2471.73	1.018
2481.13	1.018
2490.52	1.018
2499.92	1.018
2509.32	1.018
2518.71	1.017
2528.11	1.017
2537.51	1.017
2546.91	1.015
2556.3	1.0129
2565.7	1.011
2575.1	1.0049
2584.49	1
2593.89	0.995
2603.29	0.994
2612.69	0.995
2622.08	0.997
2631.48	0.998
2640.88	0.998
2650.27	0.998
2659.67	0.9939
2669.07	0.9879
2678.46	0.9809
2687.86	0.973
2697.26	0.9599
2706.66	0.9519
2716.05	0.9419
2725.45	0.921
2734.85	0.917
2744.24	0.914
2753.64	0.9151
2763.04	0.9199
2772.43	0.9129
2781.83	0.8947
2791.23	0.8323
2800.63	0.7599
2810.02	0.7621
2819.42	0.7982
2828.82	0.8064
2838.21	0.7479
2847.61	0.5458
2857.01	0.3398
2866.4	0.2039
2875.8	0.2341
2885.2	0.3027
2894.6	0.3855
2903.99	0.5179
2913.39	0.5878
2922.79	0.5408
2932.18	0.3984
2941.58	0.2874
2950.98	0.2491
2960.37	0.2683
2969.77	0.268
2979.17	0.2001
2988.57	0.2266
2997.96	0.3921
3007.36	0.7795
3016.76	0.8987
3026.15	0.9472
3035.55	0.9571
3044.95	0.9692
3054.35	0.9781
3063.74	0.982
3073.14	0.9841
3082.54	0.985
3091.93	0.985
3101.33	0.985
3110.73	0.985
3120.12	0.985
3129.52	0.984
3138.92	0.985
3148.32	0.9861
3157.71	0.988
3167.11	0.986
3176.51	0.9861
3185.9	0.9881
3195.3	0.9891
3204.7	0.9921
3214.09	0.995
3223.49	0.997
3232.89	0.997
3242.29	0.997
3251.68	0.997
3261.08	0.997
3270.48	0.997
3279.87	0.997
3289.27	0.997
3298.67	0.997
3308.06	0.997
3317.46	0.995
3326.86	0.994
3336.26	0.995
3345.65	0.994
3355.05	0.992
3364.45	0.992
3373.84	0.9919
3383.24	0.991
3392.64	0.991
3402.03	0.994
3411.43	0.994
3420.83	0.994
3430.23	0.9919
3439.62	0.989
3449.02	0.988
3458.42	0.986
3467.81	0.986
3477.21	0.986
3486.61	0.988
3496.01	0.988
3505.4	0.988
3514.8	0.986
3524.2	0.986
3533.59	0.986
3542.99	0.985
3552.39	0.985
3561.78	0.9849
3571.18	0.9822
3580.58	0.986
3589.98	0.984
3599.37	0.982
3608.77	0.981
3618.17	0.9808
3627.56	0.979
3636.96	0.981
3646.36	0.9808
3655.75	0.9732
3665.15	0.979
3674.55	0.969
3683.95	0.9762
3693.34	0.9721
3702.74	0.976
3712.14	0.9757
3721.53	0.976
3730.93	0.976
3740.33	0.9692
3749.72	0.9597
3759.12	0.9724
3768.52	0.979
3777.92	0.975
3787.31	0.978
