Infrared Spectrum: HEXANEDINITRILE
Formula: C6 H8 N2
CAS: 111-69-3
State: LIQUID (NEAT)
Class: COBLENTZ III
Instrument: PERKIN-ELMER 180 (GRATING)
Instrument parameters: GRATING CHANGES AT 2000, 1000, 500, 250 CM^-^1
Sampling: TRANSMISSION
Path length: SMEAR, KBr CRYSTALS
Resolution: 4
Origin: STANDARD OIL OF OHIO
1/CM	TRANSMITTANCE
301.457	0.12
310.957	0.15
320.456	0.194
329.956	0.213
339.456	0.282
348.955	0.343
358.455	0.35
367.955	0.435
377.455	0.475
386.954	0.551
396.454	0.624
405.954	0.647
415.453	0.686
424.953	0.732
434.453	0.762
443.952	0.788
453.452	0.8
462.952	0.817
472.451	0.834
481.951	0.843
491.451	0.854
500.951	0.859
510.45	0.861
519.95	0.862
529.45	0.854
538.949	0.856
548.449	0.847
557.949	0.846
567.448	0.85
576.948	0.84
586.448	0.872
595.947	0.873
605.447	0.869
614.947	0.888
624.447	0.891
633.946	0.889
643.446	0.889
652.946	0.889
662.445	0.891
671.945	0.889
681.445	0.887
690.944	0.885
700.444	0.881
709.944	0.869
719.443	0.823
728.943	0.679
738.443	0.707
747.942	0.749
757.442	0.766
766.942	0.802
776.442	0.843
785.941	0.837
795.441	0.817
804.941	0.826
814.44	0.846
823.94	0.85
833.44	0.854
842.939	0.813
852.439	0.839
861.939	0.853
871.438	0.846
880.938	0.791
890.438	0.725
899.938	0.708
909.437	0.823
918.937	0.798
928.437	0.848
937.936	0.867
947.436	0.862
956.936	0.835
966.435	0.869
975.935	0.873
985.435	0.867
994.934	0.847
1004.43	0.801
1013.93	0.846
1023.43	0.833
1032.93	0.814
1042.43	0.82
1051.93	0.803
1061.43	0.795
1070.93	0.808
1080.43	0.811
1089.93	0.861
1099.43	0.871
1108.93	0.872
1118.43	0.872
1127.93	0.869
1137.43	0.862
1146.93	0.857
1156.43	0.834
1165.93	0.796
1175.43	0.818
1184.93	0.831
1194.43	0.802
1203.93	0.775
1213.43	0.782
1222.93	0.817
1232.43	0.816
1241.93	0.815
1251.43	0.801
1260.93	0.789
1270.43	0.778
1279.93	0.758
1289.42	0.794
1298.92	0.796
1308.42	0.778
1317.92	0.699
1327.42	0.659
1336.92	0.611
1346.42	0.732
1355.92	0.712
1365.42	0.751
1374.92	0.762
1384.42	0.756
1393.92	0.76
1403.42	0.724
1412.92	0.6019
1422.42	0.3209
1431.92	0.3701
1441.42	0.53
1450.92	0.446
1460.42	0.358
1469.92	0.6022
1479.42	0.771
1488.92	0.807
1498.42	0.824
1507.92	0.848
1517.42	0.852
1526.92	0.853
1536.42	0.852
1545.92	0.855
1555.42	0.86
1564.92	0.861
1574.42	0.861
1583.92	0.863
1593.42	0.863
1602.91	0.861
1612.41	0.856
1621.91	0.847
1631.41	0.848
1640.91	0.855
1650.41	0.868
1659.91	0.871
1669.41	0.872
1678.91	0.874
1688.41	0.874
1697.91	0.874
1707.41	0.875
1716.91	0.876
1726.41	0.876
1735.91	0.876
1745.41	0.876
1754.91	0.878
1764.41	0.876
1773.91	0.875
1783.41	0.874
1792.91	0.873
1802.41	0.871
1811.91	0.871
1821.41	0.872
1830.91	0.873
1840.41	0.873
1849.91	0.874
1859.41	0.875
1868.91	0.875
1878.41	0.875
1887.91	0.875
1897.41	0.874
1906.9	0.873
1916.4	0.873
1925.9	0.873
1935.4	0.873
1944.9	0.873
1954.4	0.873
1963.9	0.872
1973.4	0.871
1982.9	0.872
1992.4	0.872
2001.9	0.872
2011.4	0.869
2020.9	0.869
2030.4	0.869
2039.9	0.869
2049.4	0.871
2058.9	0.871
2068.4	0.871
2077.9	0.871
2087.4	0.871
2096.9	0.871
2106.4	0.8709
2115.9	0.868
2125.4	0.867
2134.9	0.8649
2144.4	0.861
2153.9	0.856
2163.4	0.8539
2172.9	0.85
2182.4	0.8407
2191.9	0.8221
2201.4	0.8289
2210.89	0.8156
2220.39	0.7702
2229.89	0.6869
2239.39	0.4235
2248.89	0.2135
2258.39	0.517
2267.89	0.7131
2277.39	0.7906
2286.89	0.8146
2296.39	0.8292
2305.89	0.8361
2315.39	0.839
2324.89	0.8434
2334.39	0.8531
2343.89	0.855
2353.39	0.8561
2362.89	0.859
2372.39	0.857
2381.89	0.859
2391.39	0.861
2400.89	0.8629
2410.39	0.86
2419.89	0.861
2429.39	0.859
2438.89	0.857
2448.39	0.859
2457.89	0.859
2467.39	0.8587
2476.89	0.8568
2486.39	0.8515
2495.89	0.8482
2505.39	0.855
2514.89	0.856
2524.38	0.855
2533.88	0.8552
2543.38	0.857
2552.88	0.859
2562.38	0.859
2571.88	0.855
2581.38	0.8498
2590.88	0.848
2600.38	0.84
2609.88	0.8268
2619.38	0.8322
2628.88	0.8422
2638.38	0.841
2647.88	0.841
2657.38	0.842
2666.88	0.844
2676.38	0.8472
2685.88	0.848
2695.38	0.847
2704.88	0.8445
2714.38	0.847
2723.88	0.847
2733.38	0.848
2742.88	0.846
2752.38	0.8398
2761.88	0.835
2771.38	0.8337
2780.88	0.8277
2790.38	0.824
2799.88	0.8215
2809.38	0.8092
2818.88	0.7975
2828.37	0.7779
2837.87	0.7514
2847.37	0.7457
2856.87	0.7177
2866.37	0.6489
2875.87	0.474
2885.37	0.5136
2894.87	0.6313
2904.37	0.6375
2913.87	0.6043
2923.37	0.5172
2932.87	0.3658
2942.37	0.3141
2951.87	0.318
2961.37	0.3571
2970.87	0.4202
2980.37	0.5609
2989.87	0.6957
2999.37	0.7346
3008.87	0.7567
3018.37	0.7703
3027.87	0.7804
3037.37	0.784
3046.87	0.7894
3056.37	0.796
3065.87	0.8
3075.37	0.801
3084.87	0.8024
3094.37	0.8117
3103.87	0.821
3113.37	0.8234
3122.87	0.8286
3132.37	0.8156
3141.86	0.815
3151.36	0.815
3160.86	0.814
3170.36	0.8182
3179.86	0.8256
3189.36	0.8398
3198.86	0.8464
3208.36	0.849
3217.86	0.853
3227.36	0.853
3236.86	0.8496
3246.36	0.8379
3255.86	0.8403
3265.36	0.8528
3274.86	0.8554
3284.36	0.859
3293.86	0.8596
3303.36	0.859
3312.86	0.86
3322.36	0.859
3331.86	0.859
3341.36	0.86
3350.86	0.861
3360.36	0.8615
3369.86	0.862
3379.36	0.863
3388.86	0.862
3398.36	0.863
3407.86	0.863
3417.36	0.862
3426.86	0.863
3436.36	0.864
3445.85	0.861
3455.35	0.861
3464.85	0.856
3474.35	0.856
3483.85	0.8545
3493.35	0.849
3502.85	0.8405
3512.35	0.832
3521.85	0.825
3531.35	0.8225
3540.85	0.824
3550.35	0.826
3559.85	0.826
3569.35	0.824
3578.85	0.8235
3588.35	0.824
3597.85	0.824
3607.35	0.8225
3616.85	0.822
3626.35	0.8251
3635.85	0.827
3645.35	0.8341
3654.85	0.8396
3664.35	0.8462
3673.85	0.853
3683.35	0.8596
3692.85	0.863
3702.35	0.8639
3711.85	0.863
3721.35	0.865
3730.85	0.8638
3740.35	0.862
3749.84	0.8642
3759.34	0.8638
3768.84	0.863
3778.34	0.865
3787.84	0.865
3797.34	0.865
3806.84	0.865
3816.34	0.8624
3825.84	0.862
3835.34	0.863
3844.84	0.865
3854.34	0.862
3863.84	0.863
3873.34	0.865
3882.84	0.865
3892.34	0.865
3901.84	0.863
