Infrared Spectrum: 1-OCTENE
Formula: C8 H16
CAS: 111-66-0
State: VAPOR (15 MICROLITER AT 150 C)
Boiling point: 121 C
Class: COBLENTZ
Instrument: PERKIN-ELMER 180
Sampling: TRANSMISSION
Path length: 5 CM KBr CELL, CELL VOLUME: 80 CM^3
Resolution: 2-3 CM^-^1
Origin: PERKIN-ELMER CORP. (M. ZELLER)
1/CM	TRANSMITTANCE
406.745	0.507
416.189	0.573
425.632	0.64
435.076	0.696
444.519	0.7479
453.963	0.8009
463.406	0.838
472.85	0.867
482.293	0.889
491.737	0.907
501.18	0.901
510.624	0.903
520.067	0.91
529.511	0.916
538.954	0.92
548.398	0.921
557.841	0.925
567.285	0.93
576.728	0.936
586.172	0.936
595.615	0.93
605.059	0.916
614.502	0.902
623.946	0.893
633.389	0.902
642.833	0.92
652.276	0.926
661.72	0.929
671.163	0.933
680.607	0.93
690.05	0.928
699.494	0.921
708.937	0.912
718.381	0.903
727.825	0.905
737.268	0.909
746.712	0.917
756.155	0.914
765.599	0.917
775.042	0.918
784.486	0.917
793.929	0.917
803.373	0.917
812.816	0.914
822.26	0.917
831.703	0.914
841.147	0.913
850.59	0.909
860.034	0.902
869.477	0.891
878.921	0.871
888.364	0.8211
897.808	0.7411
907.251	0.63
916.695	0.6899
926.138	0.814
935.582	0.87
945.025	0.883
954.469	0.88
963.912	0.866
973.356	0.838
982.799	0.799
992.243	0.788
1001.69	0.825
1011.13	0.852
1020.57	0.868
1030.02	0.876
1039.46	0.879
1048.9	0.88
1058.35	0.884
1067.79	0.887
1077.23	0.887
1086.68	0.886
1096.12	0.883
1105.57	0.883
1115.01	0.882
1124.45	0.879
1133.9	0.88
1143.34	0.882
1152.78	0.886
1162.23	0.886
1171.67	0.884
1181.11	0.884
1190.56	0.884
1200	0.887
1209.44	0.886
1218.89	0.883
1228.33	0.882
1237.77	0.88
1247.22	0.878
1256.66	0.874
1266.1	0.875
1275.55	0.872
1284.99	0.866
1294.44	0.863
1303.88	0.864
1313.32	0.863
1322.77	0.855
1332.21	0.843
1341.65	0.834
1351.1	0.833
1360.54	0.826
1369.98	0.805
1379.43	0.81
1388.87	0.828
1398.31	0.829
1407.76	0.822
1417.2	0.811
1426.64	0.788
1436.09	0.736
1445.53	0.71
1454.98	0.715
1464.42	0.751
1473.86	0.821
1483.31	0.855
1492.75	0.868
1502.19	0.874
1511.64	0.874
1521.08	0.874
1530.52	0.866
1539.97	0.864
1549.41	0.859
1558.85	0.86
1568.3	0.856
1577.74	0.855
1587.18	0.849
1596.63	0.844
1606.07	0.834
1615.51	0.825
1624.96	0.791
1634.4	0.732
1643.85	0.756
1653.29	0.847
1662.73	0.86
1672.18	0.86
1681.62	0.855
1691.06	0.845
1700.51	0.84
1709.95	0.833
1719.39	0.853
1728.84	0.86
1738.28	0.876
1747.72	0.884
1757.17	0.889
1766.61	0.894
1776.05	0.902
1785.5	0.91
1794.94	0.913
1804.39	0.907
1813.83	0.897
1823.27	0.889
1832.72	0.901
1842.16	0.916
1851.6	0.921
1861.05	0.922
1870.49	0.922
1879.93	0.922
1889.38	0.922
1898.82	0.92
1908.26	0.92
1917.71	0.921
1927.15	0.921
1936.59	0.92
1946.04	0.918
1955.48	0.918
1964.93	0.916
1974.37	0.916
1983.81	0.914
1993.26	0.913
2002.7	0.903
2012.14	0.9015
2021.59	0.899
2031.03	0.899
2040.47	0.898
2049.92	0.898
2059.36	0.898
2068.8	0.897
2078.25	0.897
2087.69	0.897
2097.13	0.895
2106.58	0.895
2116.02	0.897
2125.46	0.897
2134.91	0.897
2144.35	0.8977
2153.8	0.8954
2163.24	0.893
2172.68	0.891
2182.13	0.893
2191.57	0.894
2201.01	0.894
2210.46	0.8932
2219.9	0.893
2229.34	0.891
2238.79	0.8908
2248.23	0.8893
2257.67	0.889
2267.12	0.889
2276.56	0.889
2286	0.887
2295.45	0.8857
2304.89	0.882
2314.34	0.88
2323.78	0.8784
2333.22	0.8791
2342.67	0.8808
2352.11	0.876
2361.55	0.8774
2371	0.88
2380.44	0.882
2389.88	0.882
2399.33	0.882
2408.77	0.88
2418.21	0.879
2427.66	0.878
2437.1	0.878
2446.54	0.878
2455.99	0.878
2465.43	0.8761
2474.87	0.876
2484.32	0.8751
2493.76	0.8746
2503.21	0.874
2512.65	0.8732
2522.09	0.8711
2531.54	0.87
2540.98	0.87
2550.42	0.866
2559.87	0.8643
2569.31	0.8636
2578.75	0.863
2588.2	0.863
2597.64	0.863
2607.08	0.8624
2616.53	0.8602
2625.97	0.8597
2635.41	0.8562
2644.86	0.8527
2654.3	0.851
2663.75	0.8505
2673.19	0.849
2682.63	0.848
2692.08	0.847
2701.52	0.845
2710.96	0.844
2720.41	0.8426
2729.85	0.838
2739.29	0.836
2748.74	0.836
2758.18	0.834
2767.62	0.8311
2777.07	0.8258
2786.51	0.8192
2795.95	0.8087
2805.4	0.7949
2814.84	0.7774
2824.28	0.7394
2833.73	0.647
2843.17	0.5454
2852.62	0.4036
2862.06	0.3528
2871.5	0.3493
2880.95	0.3925
2890.39	0.441
2899.83	0.3808
2909.28	0.2406
2918.72	0.1529
2928.16	0.0711
2937.61	0.1017
2947.05	0.2
2956.49	0.2369
2965.94	0.2486
2975.38	0.3851
2984.82	0.5398
2994.27	0.6151
3003.71	0.6652
3013.16	0.7093
3022.6	0.7427
3032.04	0.7637
3041.49	0.7688
3050.93	0.7572
3060.37	0.7319
3069.82	0.6747
3079.26	0.6403
3088.7	0.7052
3098.15	0.7616
3107.59	0.8115
3117.03	0.8147
3126.48	0.818
3135.92	0.82
3145.36	0.8212
3154.81	0.822
3164.25	0.8224
3173.7	0.8226
3183.14	0.822
3192.58	0.8247
3202.03	0.828
3211.47	0.828
3220.91	0.829
3230.36	0.83
3239.8	0.83
3249.24	0.83
3258.69	0.83
3268.13	0.83
3277.57	0.83
3287.02	0.83
3296.46	0.832
3305.9	0.832
3315.35	0.832
3324.79	0.83
3334.23	0.828
3343.68	0.829
3353.12	0.829
3362.57	0.8289
3372.01	0.83
3381.45	0.832
3390.9	0.8291
3400.34	0.829
3409.78	0.83
3419.23	0.83
3428.67	0.829
3438.11	0.8296
3447.56	0.828
3457	0.828
3466.44	0.828
3475.89	0.828
3485.33	0.828
3494.77	0.8287
3504.22	0.826
3513.66	0.8257
3523.11	0.825
3532.55	0.825
3541.99	0.8242
3551.44	0.824
3560.88	0.824
3570.32	0.824
3579.77	0.822
3589.21	0.822
3598.65	0.822
3608.1	0.8208
3617.54	0.818
3626.98	0.818
3636.43	0.818
3645.87	0.818
3655.31	0.818
3664.76	0.818
3674.2	0.818
3683.64	0.8198
3693.09	0.818
3702.53	0.815
3711.98	0.8144
3721.42	0.813
3730.86	0.813
3740.31	0.814
3749.75	0.8145
3759.19	0.815
3768.64	0.814
3778.08	0.813
3787.52	0.813
3796.97	0.813
3806.41	0.813
3815.85	0.813
3825.3	0.8121
3834.74	0.81
3844.18	0.81
3853.63	0.809
3863.07	0.807
3872.52	0.8061
3881.96	0.806
3891.4	0.806
3900.85	0.806
3910.29	0.806
3919.73	0.806
3929.18	0.8052
3938.62	0.802
3948.06	0.802
3957.51	0.802
3966.95	0.802
3976.39	0.802
3985.84	0.801
3995.28	0.801
