Infrared Spectrum: ETHYLENE GLYCOL MONOSTEARATE
Formula: C20 H40 O3
CAS: 111-60-4
State: SOLID (COCONITRILE MULL)
Class: COBLENTZ
Instrument: PERKIN-ELMER
Sampling: TRANSMISSION
Resolution: 4
MICROMETERS	TRANSMITTANCE
2.031	0.892
2.06772	0.897
2.10445	0.895
2.14117	0.894
2.17789	0.897
2.21462	0.897
2.25134	0.9
2.28806	0.9
2.32479	0.894
2.36151	0.881
2.39823	0.872
2.43496	0.869
2.47168	0.866
2.50841	0.872
2.54513	0.883
2.58185	0.894
2.61858	0.897
2.6553	0.898
2.69202	0.898
2.72875	0.897
2.76547	0.886
2.80219	0.857
2.83892	0.798
2.87564	0.74
2.91236	0.692
2.94909	0.677
2.98581	0.634
3.02253	0.591
3.05926	0.552
3.09598	0.556
3.1327	0.577
3.16943	0.639
3.20615	0.695
3.24287	0.726
3.2796	0.758
3.31632	0.771
3.35304	0.751
3.38977	0.596
3.42649	0.425
3.46322	0.317
3.49994	0.294
3.53666	0.261
3.57339	0.528
3.61011	0.682
3.64683	0.749
3.68356	0.784
3.72028	0.812
3.757	0.82
3.79373	0.827
3.83045	0.834
3.86717	0.847
3.9039	0.858
3.94062	0.86
3.97734	0.872
4.01407	0.881
4.05079	0.884
4.08751	0.886
4.12424	0.892
4.16096	0.89
4.19768	0.89
4.23441	0.884
4.27113	0.89
4.30785	0.883
4.34458	0.884
4.3813	0.889
4.41803	0.887
4.45475	0.897
4.49147	0.904
4.5282	0.894
4.56492	0.895
4.60164	0.895
4.63837	0.89
4.67509	0.889
4.71181	0.889
4.74854	0.89
4.78526	0.889
4.82198	0.887
4.85871	0.89
4.89543	0.89
4.93215	0.889
4.96888	0.884
5.0056	0.889
5.04232	0.89
5.07905	0.887
5.11577	0.886
5.15249	0.89
5.18922	0.887
5.22594	0.889
5.26266	0.884
5.29939	0.884
5.33611	0.886
5.37284	0.884
5.40956	0.886
5.44628	0.88
5.48301	0.872
5.51973	0.858
5.55645	0.84
5.59318	0.814
5.6299	0.794
5.66662	0.675
5.70335	0.479
5.74007	0.078
5.77679	0.254
5.81352	0.456
5.85024	0.619
5.88696	0.674
5.92369	0.754
5.96041	0.801
5.99713	0.814
6.03386	0.832
6.07058	0.84
6.1073	0.857
6.14403	0.86
6.18075	0.86
6.21747	0.872
6.2542	0.872
6.29092	0.877
6.32765	0.877
6.36437	0.881
6.40109	0.872
6.43782	0.877
6.47454	0.874
6.51126	0.88
6.54799	0.875
6.58471	0.883
6.62143	0.872
6.65816	0.869
6.69488	0.852
6.7316	0.786
6.76833	0.569
6.80505	0.448
6.84177	0.344
6.8785	0.582
6.91522	0.683
6.95194	0.715
6.98867	0.721
7.02539	0.709
7.06211	0.583
7.09884	0.635
7.13556	0.648
7.17228	0.592
7.20901	0.526
7.24573	0.576
7.28246	0.649
7.31918	0.675
7.3559	0.706
7.39263	0.711
7.42935	0.709
7.46607	0.734
7.5028	0.732
7.53952	0.74
7.57624	0.752
7.61297	0.706
7.64969	0.669
7.68641	0.706
7.72314	0.694
7.75986	0.639
7.79658	0.66
7.83331	0.639
7.87003	0.602
7.90675	0.611
7.94348	0.643
7.9802	0.626
8.01692	0.649
8.05365	0.589
8.09037	0.612
8.12709	0.642
8.16382	0.649
8.20054	0.552
8.23727	0.534
8.27399	0.631
8.31071	0.603
8.34744	0.45
8.38416	0.367
8.42088	0.491
8.45761	0.35
8.49433	0.238
8.53105	0.37
8.56778	0.43
8.6045	0.46
8.64122	0.546
8.67795	0.646
8.71467	0.695
8.75139	0.732
8.78812	0.771
8.82484	0.788
8.86156	0.786
8.89829	0.777
8.93501	0.737
8.97173	0.726
9.00846	0.734
9.04518	0.728
9.08191	0.691
9.11863	0.669
9.15535	0.611
9.19208	0.549
9.2288	0.531
9.26552	0.589
9.30225	0.646
9.33897	0.655
9.37569	0.665
9.41242	0.666
9.44914	0.654
9.48586	0.623
9.52259	0.608
9.55931	0.649
9.59603	0.677
9.63276	0.706
9.66948	0.718
9.7062	0.745
9.74293	0.758
9.77965	0.777
9.81637	0.791
9.8531	0.798
9.88982	0.798
9.92654	0.814
9.96327	0.82
9.99999	0.843
10.0367	0.85
10.0734	0.838
10.1102	0.818
10.1469	0.835
10.1836	0.863
10.2203	0.872
10.2571	0.878
10.2938	0.872
10.3305	0.88
10.3672	0.889
10.4039	0.894
10.4407	0.889
10.4774	0.854
10.5141	0.797
10.5508	0.798
10.5876	0.831
10.6243	0.855
10.661	0.872
10.6977	0.884
10.7345	0.884
10.7712	0.874
10.8079	0.878
10.8446	0.869
10.8814	0.858
10.9181	0.874
10.9548	0.884
10.9915	0.892
11.0282	0.894
11.065	0.9
11.1017	0.877
11.1384	0.806
11.1751	0.777
11.2119	0.794
11.2486	0.784
11.2853	0.772
11.322	0.783
11.3588	0.806
11.3955	0.831
11.4322	0.855
11.4689	0.88
11.5057	0.897
11.5424	0.91
11.5791	0.924
11.6158	0.93
11.6525	0.933
11.6893	0.932
11.726	0.93
11.7627	0.901
11.7994	0.889
11.8362	0.901
11.8729	0.909
11.9096	0.898
11.9463	0.894
11.9831	0.904
12.0198	0.91
12.0565	0.935
12.0932	0.949
12.13	0.946
12.1667	0.961
12.2034	0.961
12.2401	0.958
12.2768	0.952
12.3136	0.929
12.3503	0.912
12.387	0.912
12.4237	0.933
12.4605	0.94
12.4972	0.952
12.5339	0.96
12.5706	0.96
12.6074	0.96
12.6441	0.958
12.6808	0.956
12.7175	0.947
12.7543	0.924
12.791	0.892
12.8277	0.869
12.8644	0.889
12.9011	0.921
12.9379	0.932
12.9746	0.935
13.0113	0.944
13.048	0.946
13.0848	0.943
13.1215	0.937
13.1582	0.912
13.1949	0.9
13.2317	0.903
13.2684	0.913
13.3051	0.929
13.3418	0.933
13.3786	0.929
13.4153	0.913
13.452	0.892
13.4887	0.864
13.5254	0.838
13.5622	0.826
13.5989	0.818
13.6356	0.791
13.6723	0.657
13.7091	0.549
13.7458	0.545
13.7825	0.668
13.8192	0.706
13.856	0.68
13.8927	0.583
13.9294	0.534
13.9661	0.701
14.0028	0.791
14.0396	0.832
14.0763	0.854
14.113	0.881
14.1497	0.89
14.1865	0.89
14.2232	0.892
14.2599	0.894
14.2966	0.9
14.3334	0.897
14.3701	0.894
14.4068	0.898
14.4435	0.901
14.4803	0.91
14.517	0.921
14.5537	0.937
14.5904	0.946
14.6271	0.952
14.6639	0.953
14.7006	0.956
14.7373	0.961
14.774	0.969
14.8108	0.969
14.8475	0.976
14.8842	0.978
14.9209	0.981
14.9577	0.978
14.9944	0.978
15.0311	0.978
15.0678	0.98
15.1046	0.983
15.1413	0.975
15.178	0.975
