Infrared Spectrum: BUTYLAMINE, DI-n-
Formula: C8 H19 N
CAS: 111-92-2
State: SOLUTION (10% CCl4 FOR 3800-400)
Class: COBLENTZ
Instrument: DOW KBr FOREPRISM-GRATING
Instrument parameters: BLAZED AT 3.5, 12.0, 20.0 MICRON AND CHANGED AT 5.0, 7.5, 14.9 MICRON
Sampling: TRANSMISSION
Path length: 0.012 CM
Resolution: 2
Origin: DOW CHEMICAL COMPANY
1/CM	TRANSMITTANCE
418	0.9881
427	0.9743
436	0.9298
445	0.883
454	0.886
463	0.8994
472	0.8768
481	0.9025
490	0.9448
499	0.9397
508	0.9388
517	0.919
526	0.8925
535	0.901
544	0.9321
553	0.9471
562	0.9517
571	0.9632
580	0.9731
589	0.9702
598	0.9513
607	0.9275
616	0.8964
625	0.8586
634	0.9047
643	0.8718
652	0.7935
661	0.7569
670	0.7197
679	0.6475
688	0.5442
697	0.4125
706	0.344
715	0.2078
724	0.1027
733	0.0074
742	0.0003
751	0.0003
760	0.0004
769	0.0004
778	0.0004
787	0.0004
796	0.0005
805	0.0005
814	0.1374
823	0.2843
832	0.5268
841	0.6336
850	0.7111
859	0.766
868	0.7845
877	0.8148
886	0.8231
895	0.7975
904	0.8608
913	0.8651
922	0.8521
931	0.8361
940	0.7985
949	0.774
958	0.7249
967	0.6588
976	0.65
985	0.6811
994	0.6647
1003	0.6525
1012	0.7362
1021	0.8295
1030	0.8528
1039	0.8403
1048	0.8038
1057	0.7557
1066	0.703
1075	0.758
1084	0.6854
1093	0.6367
1102	0.6446
1111	0.5956
1120	0.2675
1129	0.213
1138	0.3773
1147	0.5776
1156	0.7199
1165	0.7686
1174	0.8408
1183	0.8363
1192	0.7988
1201	0.7106
1210	0.6704
1219	0.6815
1228	0.6792
1237	0.6467
1246	0.6255
1255	0.6565
1264	0.7696
1273	0.8117
1282	0.808
1291	0.8021
1300	0.7675
1309	0.8018
1318	0.83
1327	0.7649
1336	0.7443
1345	0.765
1354	0.7058
1363	0.6265
1372	0.4957
1381	0.4268
1390	0.7889
1399	0.8201
1408	0.8174
1417	0.7996
1426	0.715
1435	0.5062
1444	0.38
1453	0.1866
1462	0.1256
1471	0.2808
1480	0.5745
1489	0.715
1498	0.7371
1507	0.7008
1516	0.666
1525	0.6354
1534	0.546
1543	0.4825
1552	0.4804
1561	0.5731
1570	0.6346
1579	0.6478
1588	0.7103
1597	0.7869
1606	0.8597
1615	0.8828
1624	0.9047
1633	0.9015
1642	0.9157
1651	0.9056
1660	0.923
1669	0.9153
1678	0.9128
1687	0.9265
1696	0.925
1705	0.9294
1714	0.9194
1723	0.9173
1732	0.8896
1741	0.9043
1750	0.928
1759	0.9381
1768	0.9362
1777	0.9397
1786	0.9371
1795	0.9374
1804	0.9398
1813	0.9383
1822	0.9343
1831	0.9357
1840	0.9294
1849	0.9314
1858	0.9323
1867	0.9331
1876	0.9367
1885	0.9374
1894	0.9383
1903	0.9392
1912	0.94
1921	0.9408
1930	0.941
1939	0.9403
1948	0.9412
1957	0.9518
1966	0.9384
1975	0.9373
1984	0.9371
1993	0.9353
2002	0.9259
2011	0.9253
2020	0.9249
2029	0.919
2038	0.9163
2047	0.9225
2056	0.9235
2065	0.924
2074	0.9247
2083	0.9251
2092	0.9254
2101	0.9245
2110	0.9225
2119	0.9205
2128	0.9186
2137	0.9168
2146	0.916
2155	0.9153
2164	0.9144
2173	0.9133
2182	0.9121
2191	0.9109
2200	0.9096
2209	0.9082
2218	0.9068
2227	0.9045
2236	0.9018
2245	0.8985
2254	0.8951
2263	0.8909
2272	0.8865
2281	0.8841
2290	0.8824
2299	0.8814
2308	0.8799
2317	0.8778
2326	0.8763
2335	0.8775
2344	0.8774
2353	0.8753
2362	0.8775
2371	0.8818
2380	0.8821
2389	0.8817
2398	0.881
2407	0.8804
2416	0.8799
2425	0.8788
2434	0.8768
2443	0.8749
2452	0.8753
2461	0.8767
2470	0.8785
2479	0.8802
2488	0.8811
2497	0.8797
2506	0.8756
2515	0.8706
2524	0.8647
2533	0.8586
2542	0.8515
2551	0.8443
2560	0.8378
2569	0.8317
2578	0.8252
2587	0.8171
2596	0.8093
2605	0.8015
2614	0.7942
2623	0.7871
2632	0.7735
2641	0.7557
2650	0.7311
2659	0.7094
2668	0.6943
2677	0.678
2686	0.661
2695	0.6443
2704	0.6293
2713	0.6094
2722	0.5739
2731	0.5334
2740	0.5018
2749	0.4715
2758	0.4514
2767	0.4472
2776	0.4021
2785	0.3174
2794	0.2328
2803	0.1482
2812	0.1067
2821	0.1382
2830	0.1998
2839	0.207
2848	0.1429
2857	0.0723
2866	0.0471
2875	0.0351
2884	0.0768
2893	0.1016
2902	0.0735
2911	0.0455
2920	0.0192
2929	0.0135
2938	0.0133
2947	0.0227
2956	0.0197
2965	0.0097
2974	0.0308
2983	0.2549
2992	0.5932
3001	0.6338
3010	0.6684
3019	0.6997
3028	0.7214
3037	0.7403
3046	0.7589
3055	0.7726
3064	0.7836
3073	0.7941
3082	0.7994
3091	0.7982
3100	0.7968
3109	0.7939
3118	0.7932
3127	0.7968
3136	0.8012
3145	0.8022
3154	0.8032
3163	0.8047
3172	0.8078
3181	0.8121
3190	0.8171
3199	0.8228
3208	0.8283
3217	0.8338
3226	0.8401
3235	0.8464
3244	0.8503
3253	0.8507
3262	0.851
3271	0.8498
3280	0.849
3289	0.8483
3298	0.8494
3307	0.851
3316	0.8533
3325	0.8559
3334	0.8585
3343	0.8604
3352	0.8625
3361	0.8656
3370	0.8693
3379	0.8705
3388	0.871
3397	0.8713
3406	0.8718
3415	0.8721
3424	0.8725
3433	0.8728
3442	0.8734
3451	0.8748
3460	0.8763
3469	0.8777
3478	0.8791
3487	0.88
3496	0.8809
3505	0.8816
3514	0.8818
3523	0.8818
3532	0.882
3541	0.8821
3550	0.8821
3559	0.8821
3568	0.8823
3577	0.8824
3586	0.8825
3595	0.8816
3604	0.8799
3613	0.8778
3622	0.8759
3631	0.8742
3640	0.8742
3649	0.8717
3658	0.87
3667	0.8688
3676	0.8597
3685	0.8578
3694	0.8641
3703	0.869
3712	0.8706
3721	0.8702
3730	0.8694
3739	0.8671
3748	0.8642
3757	0.8604
3766	0.862
3775	0.8694
3784	0.8717
3793	0.8725
3802	0.8721
3811	0.8707
