Infrared Spectrum: 1,2,4-BENZENETRIOL, TRIBUTYRATE
Formula: C18 H24 O6
CAS: 111443-88-0
Class: COBLENTZ
Instrument: Not specified, most likely a prism, grating, or hybrid spectrometer.
Sampling: TRANSMISSION
Path length: SMEAR
Resolution: 4
Origin: TENNESSEE EASTMAN COMPANY, RESEARCH LABORATORIES
MICROMETERS	TRANSMITTANCE
2.027	0.96
2.0681	0.957
2.1092	0.941
2.1503	0.948
2.19139	0.957
2.23249	0.9
2.27359	0.845
2.31469	0.862
2.35579	0.883
2.39689	0.891
2.43799	0.9
2.47909	0.891
2.52018	0.938
2.56128	0.953
2.60238	0.95
2.64348	0.948
2.68458	0.953
2.72568	0.948
2.76678	0.946
2.80787	0.907
2.84897	0.818
2.89007	0.931
2.93117	0.955
2.97227	0.955
3.01337	0.955
3.05447	0.953
3.09557	0.934
3.13666	0.907
3.17776	0.869
3.21886	0.811
3.25996	0.766
3.30106	0.734
3.34216	0.126
3.38326	0.099
3.42435	0.317
3.46545	0.478
3.50655	0.734
3.54765	0.847
3.58875	0.9
3.62985	0.89
3.67095	0.921
3.71205	0.929
3.75314	0.929
3.79424	0.948
3.83534	0.967
3.87644	0.967
3.91754	0.96
3.95864	0.957
3.99974	0.948
4.04084	0.96
4.08193	0.951
4.12303	0.945
4.16413	0.926
4.20523	0.929
4.24633	0.953
4.28743	0.941
4.32853	0.943
4.36962	0.924
4.41072	0.931
4.45182	0.929
4.49292	0.936
4.53402	0.939
4.57512	0.941
4.61622	0.953
4.65732	0.955
4.69841	0.941
4.73951	0.931
4.78061	0.915
4.82171	0.893
4.86281	0.885
4.90391	0.885
4.94501	0.886
4.9861	0.893
5.0272	0.897
5.0683	0.907
5.1094	0.902
5.1505	0.9
5.1916	0.895
5.2327	0.859
5.2738	0.838
5.31489	0.823
5.35599	0.814
5.39709	0.792
5.43819	0.74
5.47929	0.668
5.52039	0.559
5.56149	0.286
5.60258	0.046
5.64368	0.025
5.68478	0.089
5.72588	0.373
5.76698	0.514
5.80808	0.612
5.84918	0.684
5.89028	0.754
5.93137	0.78
5.97247	0.794
6.01357	0.806
6.05467	0.809
6.09577	0.807
6.13687	0.792
6.17797	0.593
6.21906	0.506
6.26016	0.715
6.30126	0.799
6.34236	0.821
6.38346	0.818
6.42456	0.804
6.46566	0.77
6.50676	0.718
6.54785	0.595
6.58895	0.349
6.63005	0.13
6.67115	0.344
6.71225	0.526
6.75335	0.454
6.79445	0.337
6.83555	0.454
6.87664	0.493
6.91774	0.519
6.95884	0.43
6.99994	0.373
7.04104	0.425
7.08214	0.547
7.12324	0.602
7.16433	0.523
7.20543	0.373
7.24653	0.365
7.28763	0.339
7.32873	0.322
7.36983	0.368
7.41093	0.403
7.45203	0.49
7.49312	0.564
7.53422	0.608
7.57532	0.578
7.61642	0.437
7.65752	0.36
7.69862	0.389
7.73972	0.397
7.78081	0.377
7.82191	0.325
7.86301	0.293
7.90411	0.336
7.94521	0.305
7.98631	0.281
8.02741	0.245
8.06851	0.281
8.1096	0.372
8.1507	0.44
8.1918	0.461
8.2329	0.406
8.274	0.336
8.3151	0.212
8.3562	0.149
8.39729	0.109
8.43839	0.094
8.47949	0.092
8.52059	0.097
8.56169	0.097
8.60279	0.08
8.64389	0.054
8.68499	0.041
8.72608	0.037
8.76718	0.036
8.80828	0.049
8.84938	0.077
8.89048	0.128
8.93158	0.15
8.97268	0.123
9.01377	0.101
9.05487	0.099
9.09597	0.109
9.13707	0.123
9.17817	0.138
9.21927	0.142
9.26037	0.149
9.30147	0.204
9.34256	0.284
9.38366	0.355
9.42476	0.415
9.46586	0.445
9.50696	0.457
9.54806	0.44
9.58916	0.401
9.63026	0.348
9.67135	0.368
9.71245	0.49
9.75355	0.593
9.79465	0.662
9.83575	0.708
9.87685	0.735
9.91795	0.754
9.95904	0.765
10.0001	0.766
10.0412	0.751
10.0823	0.715
10.1234	0.636
10.1645	0.511
10.2056	0.375
10.2467	0.325
10.2878	0.392
10.3289	0.507
10.37	0.643
10.4111	0.684
10.4522	0.696
10.4933	0.679
10.5344	0.651
10.5755	0.607
10.6166	0.554
10.6577	0.478
10.6988	0.413
10.7399	0.36
10.781	0.329
10.8221	0.322
10.8632	0.327
10.9043	0.344
10.9454	0.37
10.9865	0.409
11.0276	0.449
11.0687	0.468
11.1098	0.476
11.1509	0.478
11.192	0.478
11.2331	0.475
11.2742	0.473
11.3153	0.475
11.3564	0.492
11.3975	0.512
11.4386	0.524
11.4797	0.538
11.5208	0.572
11.5619	0.605
11.603	0.617
11.6441	0.61
11.6852	0.603
11.7263	0.596
11.7674	0.593
11.8085	0.583
11.8496	0.567
11.8907	0.547
11.9318	0.535
11.9729	0.519
12.014	0.528
12.0551	0.569
12.0962	0.608
12.1373	0.651
12.1784	0.682
12.2195	0.691
12.2606	0.684
12.3017	0.667
12.3428	0.646
12.3839	0.631
12.425	0.624
12.4661	0.622
12.5072	0.629
12.5483	0.641
12.5894	0.66
12.6305	0.682
12.6716	0.698
12.7127	0.713
12.7538	0.737
12.7949	0.753
12.836	0.765
12.8771	0.77
12.9181	0.77
12.9592	0.768
13.0003	0.759
13.0414	0.749
13.0825	0.725
13.1236	0.701
13.1647	0.674
13.2058	0.644
13.2469	0.631
13.288	0.627
13.3291	0.646
13.3702	0.68
13.4113	0.715
13.4524	0.737
13.4935	0.754
13.5346	0.761
13.5757	0.777
13.6168	0.775
13.6579	0.773
13.699	0.775
13.7401	0.775
13.7812	0.771
13.8223	0.771
13.8634	0.763
13.9045	0.765
13.9456	0.761
13.9867	0.758
14.0278	0.756
14.0689	0.753
14.11	0.747
14.1511	0.744
14.1922	0.742
14.2333	0.74
14.2744	0.737
14.3155	0.734
14.3566	0.734
14.3977	0.728
14.4388	0.723
14.4799	0.72
14.521	0.718
14.5621	0.71
14.6032	0.711
14.6443	0.706
14.6854	0.706
14.7265	0.701
14.7676	0.703
14.8087	0.699
14.8498	0.696
14.8909	0.692
14.932	0.694
14.9731	0.689
15.0142	0.67
15.0553	0.665
15.0964	0.665
15.1375	0.667
15.1786	0.656
15.2197	0.651
15.2608	0.651
15.3019	0.644
15.343	0.632
15.3841	0.631
15.4252	0.626
15.4663	0.624
15.5074	0.617
15.5485	0.612
15.5896	0.603
15.6307	0.603
15.6718	0.603
15.7129	0.603
15.754	0.598
15.7951	0.596
15.8362	0.591
15.8773	0.586
15.9184	0.586
15.9595	0.584
