Infrared Spectrum: 2-BUTENENITRILE, 3-AMINO-
Formula: C4 H6 N2
CAS: 1118-61-2
State: SOLID (SPLIT MULL, FLUOROLUBE FOR 3800-1340 AND NUJOL FOR 1340-450 CM ^-^1)
Class: COBLENTZ III
Instrument: DOW KBr FOREPRISM-GRATING
Instrument parameters: BLAZED AT 3.5, 12.0, 20.0 MICRON, CHANGED AT 5.0, 7.5, 14.9 MICRON
Sampling: TRANSMISSION
Resolution: 4
Origin: DOW CHEMICAL COMPANY
1/CM	TRANSMITTANCE
450.834	0.483
459.773	0.482
468.712	0.478
477.652	0.457
486.591	0.432
495.53	0.432
504.469	0.476
513.409	0.587
522.348	0.528
531.287	0.241
540.226	0.284
549.165	0.246
558.105	0.35
567.044	0.528
575.983	0.684
584.922	0.783
593.862	0.836
602.801	0.868
611.74	0.92
620.679	0.926
629.618	0.921
638.558	0.903
647.497	0.889
656.436	0.919
665.375	0.919
674.315	0.944
683.254	0.949
692.193	0.93
701.132	0.768
710.072	0.806
719.011	0.793
727.95	0.807
736.889	0.803
745.828	0.723
754.768	0.425
763.707	0.136
772.646	0.391
781.585	0.74
790.525	0.868
799.464	0.9
808.403	0.896
817.342	0.882
826.281	0.794
835.221	0.663
844.16	0.797
853.099	0.856
862.038	0.839
870.978	0.814
879.917	0.789
888.856	0.75
897.795	0.722
906.734	0.693
915.674	0.659
924.613	0.635
933.552	0.617
942.491	0.608
951.431	0.596
960.37	0.577
969.309	0.538
978.248	0.5
987.187	0.511
996.127	0.509
1005.07	0.443
1014.01	0.476
1022.94	0.489
1031.88	0.499
1040.82	0.573
1049.76	0.591
1058.7	0.581
1067.64	0.573
1076.58	0.573
1085.52	0.564
1094.46	0.542
1103.4	0.527
1112.34	0.517
1121.28	0.504
1130.22	0.517
1139.15	0.587
1148.09	0.649
1157.03	0.687
1165.97	0.708
1174.91	0.725
1183.85	0.737
1192.79	0.746
1201.73	0.757
1210.67	0.768
1219.61	0.771
1228.55	0.771
1237.49	0.76
1246.42	0.733
1255.36	0.712
1264.3	0.716
1273.24	0.697
1282.18	0.659
1291.12	0.606
1300.06	0.543
1309	0.449
1317.94	0.465
1326.88	0.659
1335.82	0.654
1344.76	0.635
1353.7	0.63
1362.63	0.56
1371.57	0.366
1380.51	0.63
1389.45	0.577
1398.39	0.497
1407.33	0.408
1416.27	0.288
1425.21	0.171
1434.15	0.239
1443.09	0.426
1452.03	0.595
1460.97	0.739
1469.91	0.758
1478.84	0.748
1487.78	0.737
1496.72	0.715
1505.66	0.679
1514.6	0.63
1523.54	0.573
1532.48	0.562
1541.42	0.538
1550.36	0.483
1559.3	0.397
1568.24	0.316
1577.18	0.213
1586.12	0.101
1595.05	0.046
1603.99	0.059
1612.93	0.361
1621.87	0.476
1630.81	0.253
1639.75	0.073
1648.69	0.057
1657.63	0.172
1666.57	0.63
1675.51	0.891
1684.45	0.994
1693.39	1.029
1702.33	1.05
1711.26	1.048
1720.2	1.046
1729.14	1.048
1738.08	1.052
1747.02	1.054
1755.96	1.047
1764.9	1.041
1773.84	1.036
1782.78	1.027
1791.72	1.022
1800.66	1.011
1809.6	1.001
1818.54	0.994
1827.47	0.986
1836.41	0.976
1845.35	0.97
1854.29	0.962
1863.23	0.953
1872.17	0.944
1881.11	0.937
1890.05	0.931
1898.99	0.921
1907.93	0.916
1916.87	0.913
1925.81	0.909
1934.75	0.902
1943.68	0.894
1952.62	0.887
1961.56	0.878
1970.5	0.868
1979.44	0.86
1988.38	0.852
1997.32	0.832
2006.26	0.839
2015.2	0.823
2024.14	0.8119
2033.08	0.7984
2042.02	0.7873
2050.96	0.7763
2059.89	0.7604
2068.83	0.7418
2077.77	0.722
2086.71	0.6921
2095.65	0.6731
2104.59	0.6431
2113.53	0.6163
2122.47	0.5899
2131.41	0.509
2140.35	0.4719
2149.29	0.4147
2158.23	0.301
2167.17	0.2043
2176.1	0.0955
2185.04	0.0206
2193.98	0.0386
2202.92	0.4229
2211.86	0.7655
2220.8	0.9652
2229.74	1.012
2238.68	1.0064
2247.62	0.9887
2256.56	0.9637
2265.5	0.9512
2274.44	0.9353
2283.38	0.9206
2292.31	0.9033
2301.25	0.8911
2310.19	0.8751
2319.13	0.866
2328.07	0.857
2337.01	0.852
2345.95	0.85
2354.89	0.85
2363.83	0.853
2372.77	0.8448
2381.71	0.831
2390.65	0.822
2399.58	0.8177
2408.52	0.8127
2417.46	0.8026
2426.4	0.7876
2435.34	0.776
2444.28	0.7835
2453.22	0.79
2462.16	0.789
2471.1	0.7874
2480.04	0.7814
2488.98	0.7758
2497.92	0.7705
2506.86	0.769
2515.79	0.7687
2524.73	0.7607
2533.67	0.757
2542.61	0.7524
2551.55	0.7477
2560.49	0.7407
2569.43	0.7357
2578.37	0.7286
2587.31	0.7186
2596.25	0.7132
2605.19	0.7062
2614.13	0.7
2623.07	0.6921
2632	0.6891
2640.94	0.687
2649.88	0.6835
2658.82	0.681
2667.76	0.677
2676.7	0.6765
2685.64	0.675
2694.58	0.6695
2703.52	0.6624
2712.46	0.6584
2721.4	0.655
2730.34	0.6492
2739.28	0.6444
2748.21	0.6361
2757.15	0.629
2766.09	0.622
2775.03	0.617
2783.97	0.6167
2792.91	0.6163
2801.85	0.616
2810.79	0.615
2819.73	0.6093
2828.67	0.602
2837.61	0.5965
2846.55	0.589
2855.49	0.584
2864.42	0.584
2873.36	0.5776
2882.3	0.5732
2891.24	0.5635
2900.18	0.5535
2909.12	0.5394
2918.06	0.525
2927	0.52
2935.94	0.52
2944.88	0.5171
2953.82	0.5111
2962.76	0.5071
2971.7	0.502
2980.63	0.4921
2989.57	0.4781
2998.51	0.467
3007.45	0.471
3016.39	0.471
3025.33	0.47
3034.27	0.468
3043.21	0.4579
3052.15	0.4281
3061.09	0.4199
3070.03	0.4579
3078.97	0.4537
3087.91	0.4469
3096.84	0.4399
3105.78	0.4277
3114.72	0.4167
3123.66	0.4043
3132.6	0.3948
3141.54	0.3777
3150.48	0.3609
3159.42	0.343
3168.36	0.3228
3177.3	0.3035
3186.24	0.2824
3195.18	0.2551
3204.12	0.2152
3213.05	0.1627
3221.99	0.157
3230.93	0.168
3239.87	0.1784
3248.81	0.1876
3257.75	0.2335
3266.69	0.303
3275.63	0.3074
3284.57	0.2704
3293.51	0.2467
3302.45	0.2243
3311.39	0.1838
3320.33	0.1363
3329.26	0.0961
3338.2	0.062
3347.14	0.0515
3356.08	0.1004
3365.02	0.268
3373.96	0.4087
3382.9	0.4004
3391.84	0.3545
3400.78	0.289
3409.72	0.2185
3418.66	0.1561
3427.6	0.0955
3436.53	0.0697
3445.47	0.0997
3454.41	0.2545
3463.35	0.4847
3472.29	0.6501
3481.23	0.7138
3490.17	0.722
3499.11	0.7198
3508.05	0.7095
3516.99	0.6942
3525.93	0.6809
3534.87	0.6692
3543.81	0.658
3552.74	0.6473
3561.68	0.6375
3570.62	0.6236
3579.56	0.6151
3588.5	0.6081
3597.44	0.5983
3606.38	0.5892
3615.32	0.5841
3624.26	0.58
3633.2	0.5731
3642.14	0.569
3651.08	0.563
3660.02	0.56
3668.95	0.552
3677.89	0.545
3686.83	0.539
3695.77	0.5379
3704.71	0.5289
3713.65	0.525
3722.59	0.5198
3731.53	0.5128
3740.47	0.5038
3749.41	0.497
3758.35	0.496
3767.29	0.4968
3776.23	0.4958
3785.16	0.493
