Infrared Spectrum: 3,5-HEPTANEDIONE,2,2,6,6-TETRAMETHYL-
Formula: C11 H20 O2
CAS: 1118-71-4
State: SOLUTION (7% CHCl3 FOR 2.5-15 MICRON) VS SOLVENT
Boiling point: 104 C AT 34 mmHg
Class: COBLENTZ III
Instrument: PERKIN-ELMER 421 (GRATING)
Instrument parameters: GRATINGS: 1999 CM^-^1
Sampling: TRANSMISSION
Path length: 0.010 CM
Resolution: 2
Origin: ABBOTT LABORATORIES
1/CM	TRANSMITTANCE
805.116	0.79
813.642	0.779
822.168	0.762
830.695	0.745
839.221	0.726
847.747	0.68
856.273	0.553
864.799	0.381
873.325	0.6187
881.852	0.669
890.378	0.666
898.904	0.663
907.43	0.647
915.956	0.636
924.483	0.628
933.009	0.628
941.535	0.633
950.061	0.635
958.587	0.635
967.113	0.631
975.64	0.63
984.166	0.632
992.692	0.635
1001.22	0.631
1009.74	0.628
1018.27	0.645
1026.8	0.676
1035.32	0.676
1043.85	0.672
1052.38	0.669
1060.9	0.665
1069.43	0.656
1077.95	0.653
1086.48	0.644
1095.01	0.61
1103.53	0.543
1112.06	0.457
1120.58	0.3241
1129.11	0.3209
1137.64	0.388
1146.16	0.543
1154.69	0.594
1163.22	0.594
1171.74	0.587
1180.27	0.571
1188.79	0.543
1197.32	0.514
1205.85	0.501
1214.37	0.507
1222.9	0.517
1231.43	0.513
1239.95	0.498
1248.48	0.508
1257	0.579
1265.53	0.566
1274.06	0.485
1282.58	0.431
1291.11	0.445
1299.63	0.484
1308.16	0.53
1316.69	0.566
1325.21	0.579
1333.74	0.579
1342.27	0.564
1350.79	0.4912
1359.32	0.3
1367.84	0.568
1376.37	0.571
1384.9	0.5231
1393.42	0.518
1401.95	0.514
1410.47	0.493
1419	0.468
1427.53	0.468
1436.05	0.465
1444.58	0.428
1453.11	0.318
1461.63	0.338
1470.16	0.298
1478.68	0.324
1487.21	0.408
1495.74	0.403
1504.26	0.388
1512.79	0.374
1521.32	0.352
1529.84	0.315
1538.37	0.255
1546.89	0.178
1555.42	0.141
1563.95	0.11
1572.47	0.094
1581	0.087
1589.52	0.094
1598.05	0.119
1606.58	0.1779
1615.1	0.254
1623.63	0.351
1632.16	0.4699
1640.68	0.531
1649.21	0.554
1657.73	0.591
1666.26	0.628
1674.79	0.65
1683.31	0.654
1691.84	0.689
1700.37	0.697
1708.89	0.711
1717.42	0.727
1725.94	0.756
1734.47	0.761
1743	0.768
1751.52	0.778
1760.05	0.782
1768.57	0.783
1777.1	0.785
1785.63	0.787
1794.15	0.787
1802.68	0.787
1811.21	0.787
1819.73	0.787
1828.26	0.789
1836.78	0.791
1845.31	0.796
1853.84	0.798
1862.36	0.8
1870.89	0.806
1879.41	0.807
1887.94	0.809
1896.47	0.811
1904.99	0.812
1913.52	0.812
1922.05	0.812
1930.57	0.81
1939.1	0.815
1947.62	0.815
1956.15	0.816
1964.68	0.816
1973.2	0.816
1981.73	0.816
1990.26	0.815
1998.78	0.819
2007.31	0.826
2015.83	0.827
2024.36	0.827
2032.89	0.827
2041.41	0.8261
2049.94	0.826
2058.46	0.826
2066.99	0.826
2075.52	0.826
2084.04	0.824
2092.57	0.823
2101.1	0.823
2109.62	0.8238
2118.15	0.822
2126.67	0.819
2135.2	0.818
2143.73	0.815
2152.25	0.815
2160.78	0.817
2169.31	0.817
2177.83	0.815
2186.36	0.813
2194.88	0.815
2203.41	0.813
2211.94	0.811
2220.46	0.81
2228.99	0.811
2237.51	0.807
2246.04	0.809
2254.57	0.806
2263.09	0.8044
2271.62	0.802
2280.15	0.8
2288.67	0.797
2297.2	0.795
2305.72	0.795
2314.25	0.794
2322.78	0.793
2331.3	0.7921
2339.83	0.791
2348.35	0.793
2356.88	0.793
2365.41	0.793
2373.93	0.793
2382.46	0.793
2390.99	0.7897
2399.51	0.7803
2408.04	0.773
2416.56	0.77
2425.09	0.7614
2433.62	0.7557
2442.14	0.7525
2450.67	0.7498
2459.2	0.7458
2467.72	0.744
2476.25	0.74
2484.77	0.738
2493.3	0.737
2501.83	0.7368
2510.35	0.7319
2518.88	0.729
2527.4	0.728
2535.93	0.726
2544.46	0.723
2552.98	0.723
2561.51	0.7221
2570.04	0.722
2578.56	0.722
2587.09	0.721
2595.61	0.718
2604.14	0.714
2612.67	0.712
2621.19	0.71
2629.72	0.7079
2638.25	0.704
2646.77	0.6991
2655.3	0.699
2663.82	0.699
2672.35	0.698
2680.88	0.698
2689.4	0.6989
2697.93	0.6972
2706.45	0.6932
2714.98	0.694
2723.51	0.698
2732.03	0.698
2740.56	0.698
2749.09	0.703
2757.61	0.706
2766.14	0.705
2774.66	0.706
2783.19	0.7134
2791.72	0.715
2800.24	0.715
2808.77	0.715
2817.29	0.7127
2825.82	0.708
2834.35	0.6916
2842.87	0.661
2851.4	0.6076
2859.93	0.4957
2868.45	0.4597
2876.98	0.5205
2885.5	0.5164
2894.03	0.4544
2902.56	0.422
2911.08	0.4525
2919.61	0.4346
2928.14	0.3855
2936.66	0.3786
2945.19	0.3142
2953.71	0.1581
2962.24	0.1374
2970.77	0.1713
2979.29	0.339
2987.82	0.536
2996.34	0.6611
3004.87	0.7479
3013.4	0.7856
3021.92	0.788
3030.45	0.7946
3038.98	0.809
3047.5	0.812
3056.03	0.8135
3064.55	0.812
3073.08	0.812
3081.61	0.812
3090.13	0.815
3098.66	0.815
3107.19	0.816
3115.71	0.817
3124.24	0.819
3132.76	0.819
3141.29	0.8211
3149.82	0.822
3158.34	0.823
3166.87	0.8241
3175.39	0.828
3183.92	0.832
3192.45	0.833
3200.97	0.838
3209.5	0.843
3218.03	0.846
3226.55	0.849
3235.08	0.8519
3243.6	0.855
3252.13	0.855
3260.66	0.856
3269.18	0.856
3277.71	0.856
3286.23	0.857
3294.76	0.8542
3303.29	0.8502
3311.81	0.847
3320.34	0.8442
3328.87	0.844
3337.39	0.84
3345.92	0.8392
3354.44	0.838
3362.97	0.835
3371.5	0.835
3380.02	0.833
3388.55	0.833
3397.08	0.832
3405.6	0.83
3414.13	0.829
3422.65	0.829
3431.18	0.83
3439.71	0.83
3448.23	0.829
3456.76	0.83
3465.28	0.829
3473.81	0.829
3482.34	0.8295
3490.86	0.8325
3499.39	0.831
3507.92	0.83
3516.44	0.83
3524.97	0.83
3533.49	0.832
3542.02	0.834
3550.55	0.835
3559.07	0.835
3567.6	0.836
3576.13	0.838
3584.65	0.839
3593.18	0.839
3601.7	0.838
3610.23	0.839
3618.76	0.841
3627.28	0.841
3635.81	0.8443
3644.33	0.847
3652.86	0.8458
3661.39	0.8492
3669.91	0.854
3678.44	0.855
3686.97	0.855
3695.49	0.855
3704.02	0.855
3712.54	0.855
3721.07	0.855
3729.6	0.854
3738.12	0.854
3746.65	0.854
3755.17	0.854
3763.7	0.8551
3772.23	0.856
3780.75	0.857
3789.28	0.857
3797.81	0.858
3806.33	0.858
3814.86	0.858
3823.38	0.857
3831.91	0.856
3840.44	0.855
3848.96	0.855
3857.49	0.856
3866.02	0.856
3874.54	0.855
3883.07	0.855
3891.59	0.854
3900.12	0.854
3908.65	0.856
3917.17	0.857
3925.7	0.857
3934.22	0.857
3942.75	0.8578
3951.28	0.858
3959.8	0.858
3968.33	0.858
3976.86	0.858
3985.38	0.858
3993.91	0.858
