Infrared Spectrum: Acetoacetic acid, allyl ester
Formula: C7 H10 O3
CAS: 1118-84-9
State: SOLUTION (2% CCl4 FOR 3800-1330, 2% CS2 FOR 1330-400 CM^-^1)
Class: COBLENTZ III
Instrument: DOW KBr FOREPRISM-GRATING
Instrument parameters: BLAZED AT 3.5, 12.0, 20.0 MICRON AND CHANGED AT 5.0, 7.5, 14.9 MICRON
Sampling: TRANSMISSION
Path length: 0.011 CM, 0.011 CM
Resolution: 2
Origin: DOW CHEMICAL COMPANY
1/CM	TRANSMITTANCE
3800	0.9081
3791	0.9109
3782	0.911
3773	0.9126
3764	0.9123
3755	0.9105
3746	0.9033
3737	0.9072
3728	0.9098
3719	0.9094
3710	0.9119
3701	0.9128
3692	0.9102
3683	0.908
3674	0.9084
3665	0.9093
3656	0.9089
3647	0.9007
3638	0.9015
3629	0.898
3620	0.8947
3611	0.8977
3602	0.9031
3593	0.9039
3584	0.897
3575	0.8972
3566	0.8991
3557	0.8999
3548	0.902
3539	0.9017
3530	0.9017
3521	0.8997
3512	0.8992
3503	0.8985
3494	0.8977
3485	0.897
3476	0.8961
3467	0.8953
3458	0.894
3449	0.8922
3440	0.891
3431	0.8904
3422	0.8917
3413	0.8941
3404	0.8969
3395	0.8985
3386	0.8999
3377	0.9002
3368	0.9006
3359	0.9009
3350	0.9014
3341	0.9015
3332	0.9013
3323	0.9012
3314	0.901
3305	0.9022
3296	0.9008
3287	0.9005
3278	0.9011
3269	0.9009
3260	0.9005
3251	0.9001
3242	0.8999
3233	0.8998
3224	0.8999
3215	0.8996
3206	0.8975
3197	0.897
3188	0.8948
3179	0.8901
3170	0.8856
3161	0.8788
3152	0.8784
3143	0.8763
3134	0.8765
3125	0.8751
3116	0.871
3107	0.8596
3098	0.8489
3089	0.8414
3080	0.845
3071	0.8593
3062	0.8649
3053	0.8683
3044	0.8731
3035	0.8701
3026	0.8495
3017	0.842
3008	0.8348
2999	0.8302
2990	0.8271
2981	0.8307
2972	0.8342
2963	0.812
2954	0.7984
2945	0.813
2936	0.8229
2927	0.8336
2918	0.8458
2909	0.8578
2900	0.8631
2891	0.8634
2882	0.8642
2873	0.865
2864	0.8668
2855	0.8685
2846	0.8702
2837	0.8725
2828	0.8749
2819	0.8797
2810	0.8825
2801	0.885
2792	0.8862
2783	0.887
2774	0.8888
2765	0.8899
2756	0.8911
2747	0.8922
2738	0.8932
2729	0.8942
2720	0.8957
2711	0.8974
2702	0.8989
2693	0.9
2684	0.9012
2675	0.9022
2666	0.9022
2657	0.9036
2648	0.9026
2639	0.9018
2630	0.9016
2621	0.9025
2612	0.9027
2603	0.9029
2594	0.9032
2585	0.9034
2576	0.9036
2567	0.9042
2558	0.9051
2549	0.906
2540	0.9069
2531	0.9077
2522	0.9087
2513	0.9093
2504	0.9101
2495	0.9108
2486	0.9116
2477	0.9135
2468	0.9139
2459	0.9143
2450	0.9136
2441	0.9153
2432	0.9161
2423	0.9169
2414	0.9177
2405	0.9194
2396	0.9195
2387	0.9203
2378	0.9214
2369	0.9196
2360	0.9199
2351	0.9243
2342	0.9225
2333	0.9205
2324	0.9243
2315	0.924
2306	0.9239
2297	0.9255
2288	0.9263
2279	0.9276
2270	0.9269
2261	0.9273
2252	0.9283
2243	0.9294
2234	0.9301
2225	0.9316
2216	0.9309
2207	0.9315
2198	0.9322
2189	0.9314
2180	0.9321
2171	0.9339
2162	0.9332
2153	0.9337
2144	0.9343
2135	0.9351
2126	0.9361
2117	0.9369
2108	0.9376
2099	0.9381
2090	0.9386
2081	0.9388
2072	0.9383
2063	0.9376
2054	0.9385
2045	0.9365
2036	0.9361
2027	0.9366
2018	0.9368
2009	0.937
2000	0.9198
1991	0.9411
1982	0.944
1973	0.9454
1964	0.952
1955	0.9559
1946	0.9512
1937	0.9502
1928	0.9493
1919	0.949
1910	0.9488
1901	0.9491
1892	0.9477
1883	0.9454
1874	0.9424
1865	0.9348
1856	0.9388
1847	0.9386
1838	0.9346
1829	0.9334
1820	0.9334
1811	0.9342
1802	0.9273
1793	0.9224
1784	0.9115
1775	0.8471
1766	0.7214
1757	0.4637
1748	0.3308
1739	0.4034
1730	0.3812
1721	0.2657
1712	0.6024
1703	0.7765
1694	0.8168
1685	0.8241
1676	0.8214
1667	0.7098
1658	0.617
1649	0.6335
1640	0.6645
1631	0.6125
1622	0.7829
1613	0.8313
1604	0.8399
1595	0.7963
1586	0.823
1577	0.8298
1568	0.8015
1559	0.7321
1550	0.7899
1541	0.8485
1532	0.879
1523	0.8865
1514	0.9025
1505	0.911
1496	0.9119
1487	0.9217
1478	0.9227
1469	0.876
1460	0.7552
1451	0.7209
1442	0.7647
1433	0.7801
1424	0.755
1415	0.7103
1406	0.7377
1397	0.8549
1388	0.8709
1379	0.8105
1370	0.7508
1361	0.6311
1352	0.7932
1343	0.8122
1334	0.8153
1325	0.7843
1316	0.66
1307	0.6713
1298	0.7242
1289	0.7309
1280	0.7013
1271	0.6586
1262	0.6752
1253	0.6464
1244	0.4764
1235	0.2933
1226	0.1893
1217	0.5158
1208	0.6918
1199	0.7188
1190	0.7008
1181	0.67
1172	0.6616
1163	0.6598
1154	0.3972
1145	0.5262
1136	0.717
1127	0.8104
1118	0.8488
1109	0.8746
1100	0.8909
1091	0.8968
1082	0.9047
1073	0.9062
1064	0.9082
1055	0.8965
1046	0.821
1037	0.7821
1028	0.7722
1019	0.7863
1010	0.8196
1001	0.801
992	0.6969
983	0.636
974	0.7615
965	0.8241
956	0.865
947	0.8751
938	0.7942
929	0.6681
920	0.7092
911	0.8031
902	0.8565
893	0.8842
884	0.89
875	0.8848
866	0.8738
857	0.8608
848	0.8249
839	0.807
830	0.8008
821	0.8341
812	0.8612
803	0.8616
794	0.7798
785	0.9128
776	0.9309
767	0.9339
758	0.9343
749	0.9353
740	0.8727
731	0.9081
722	0.9337
713	0.9409
704	0.946
695	0.9553
686	0.9644
677	0.977
668	0.9963
659	0.9598
650	0.9383
641	0.9318
632	0.9286
623	0.9317
614	0.9398
605	0.9461
596	0.9532
587	0.9564
578	0.955
569	0.9394
560	0.9464
551	0.929
542	0.9067
533	0.9014
524	0.921
515	0.9454
506	0.9613
497	0.966
488	0.9702
479	0.973
470	0.9767
461	0.9799
452	0.9788
443	0.9647
434	0.9414
425	0.9145
416	0.8475
407	0.5862
398	0.3821
389	0.2946
