Infrared Spectrum: N-HEXADECYL BROMIDE
Formula: C16 H33 Br
CAS: 112-82-3
State: LIQUID
Class: COBLENTZ
Instrument: Not specified, most likely a prism, grating, or hybrid spectrometer.
Sampling: TRANSMISSION
Path length: 0.0036 CM
Resolution: 4
Origin: CONTINENTAL OIL CO. (HAROLD F. SMITH)
MICROMETERS	TRANSMITTANCE
12.025	0.956
12.0621	0.955
12.0992	0.959
12.1364	0.95
12.1735	0.955
12.2106	0.945
12.2477	0.944
12.2848	0.945
12.3219	0.944
12.3591	0.942
12.3962	0.945
12.4333	0.942
12.4704	0.936
12.5075	0.945
12.5446	0.937
12.5818	0.933
12.6189	0.936
12.656	0.927
12.6931	0.924
12.7302	0.924
12.7674	0.92
12.8045	0.925
12.8416	0.927
12.8787	0.92
12.9158	0.911
12.9529	0.891
12.9901	0.88
13.0272	0.88
13.0643	0.866
13.1014	0.854
13.1385	0.844
13.1757	0.834
13.2128	0.831
13.2499	0.823
13.287	0.815
13.3241	0.806
13.3612	0.793
13.3984	0.775
13.4355	0.75
13.4726	0.734
13.5097	0.727
13.5468	0.711
13.5839	0.694
13.6211	0.675
13.6582	0.651
13.6953	0.62
13.7324	0.587
13.7695	0.541
13.8067	0.502
13.8438	0.455
13.8809	0.384
13.918	0.322
13.9551	0.262
13.9922	0.238
14.0294	0.252
14.0665	0.294
14.1036	0.376
14.1407	0.457
14.1778	0.534
14.2149	0.6
14.2521	0.663
14.2892	0.724
14.3263	0.77
14.3634	0.801
14.4005	0.834
14.4377	0.862
14.4748	0.88
14.5119	0.897
14.549	0.913
14.5861	0.913
14.6232	0.92
14.6604	0.924
14.6975	0.924
14.7346	0.927
14.7717	0.933
14.8088	0.933
14.846	0.936
14.8831	0.934
14.9202	0.93
14.9573	0.924
14.9944	0.917
15.0315	0.911
15.0687	0.913
15.1058	0.91
15.1429	0.885
15.18	0.871
15.2171	0.843
15.2542	0.815
15.2914	0.775
15.3285	0.72
15.3656	0.665
15.4027	0.598
15.4398	0.522
15.477	0.475
15.5141	0.424
15.5512	0.403
15.5883	0.4
15.6254	0.418
15.6625	0.462
15.6997	0.52
15.7368	0.581
15.7739	0.66
15.811	0.722
15.8481	0.759
15.8852	0.793
15.9224	0.815
15.9595	0.837
15.9966	0.855
16.0337	0.871
16.0708	0.882
16.108	0.889
16.1451	0.896
16.1822	0.902
16.2193	0.908
16.2564	0.92
16.2935	0.914
16.3307	0.92
16.3678	0.927
16.4049	0.927
16.442	0.924
16.4791	0.922
16.5163	0.924
16.5534	0.927
16.5905	0.925
16.6276	0.927
16.6647	0.927
16.7018	0.922
16.739	0.922
16.7761	0.922
16.8132	0.925
16.8503	0.924
16.8874	0.922
16.9245	0.922
16.9617	0.925
16.9988	0.913
17.0359	0.91
17.073	0.902
17.1101	0.9
17.1473	0.896
17.1844	0.893
17.2215	0.882
17.2586	0.869
17.2957	0.86
17.3328	0.841
17.37	0.817
17.4071	0.784
17.4442	0.756
17.4813	0.724
17.5184	0.689
17.5555	0.651
17.5927	0.607
17.6298	0.562
17.6669	0.522
17.704	0.491
17.7411	0.466
17.7783	0.46
17.8154	0.452
17.8525	0.48
17.8896	0.514
17.9267	0.564
17.9638	0.613
18.001	0.672
18.0381	0.727
18.0752	0.756
18.1123	0.793
18.1494	0.804
18.1866	0.818
18.2237	0.843
18.2608	0.852
18.2979	0.852
18.335	0.865
18.3721	0.875
18.4093	0.888
18.4464	0.9
18.4835	0.889
18.5206	0.9
18.5577	0.897
18.5948	0.902
18.632	0.894
18.6691	0.9
18.7062	0.899
18.7433	0.908
18.7804	0.908
18.8176	0.903
18.8547	0.908
18.8918	0.913
18.9289	0.913
18.966	0.911
19.0031	0.92
19.0403	0.92
19.0774	0.931
19.1145	0.925
19.1516	0.931
19.1887	0.933
19.2258	0.928
19.263	0.927
19.3001	0.931
19.3372	0.931
19.3743	0.937
19.4114	0.934
19.4486	0.928
19.4857	0.936
19.5228	0.937
19.5599	0.934
19.597	0.939
19.6341	0.934
19.6713	0.939
19.7084	0.942
19.7455	0.945
19.7826	0.942
19.8197	0.933
19.8568	0.934
19.894	0.939
19.9311	0.936
19.9682	0.944
20.0053	0.942
20.0424	0.947
20.0796	0.939
20.1167	0.942
20.1538	0.945
20.1909	0.945
20.228	0.944
20.2651	0.941
20.3023	0.947
20.3394	0.941
20.3765	0.945
20.4136	0.955
20.4507	0.951
20.4879	0.944
20.525	0.942
20.5621	0.945
20.5992	0.953
20.6363	0.955
20.6734	0.953
20.7106	0.948
20.7477	0.953
20.7848	0.953
20.8219	0.955
20.859	0.951
20.8961	0.959
20.9333	0.955
20.9704	0.951
21.0075	0.951
21.0446	0.948
21.0817	0.956
21.1189	0.953
21.156	0.95
21.1931	0.953
21.2302	0.958
21.2673	0.967
21.3044	0.959
21.3416	0.953
21.3787	0.959
21.4158	0.959
21.4529	0.965
21.49	0.95
21.5271	0.964
21.5643	0.961
21.6014	0.965
21.6385	0.961
21.6756	0.965
21.7127	0.968
21.7499	0.962
21.787	0.972
21.8241	0.964
21.8612	0.968
21.8983	0.97
21.9354	0.97
21.9726	0.975
22.0097	0.981
22.0468	0.978
22.0839	0.982
22.121	0.982
22.1582	0.97
22.1953	0.972
22.2324	0.972
22.2695	0.972
22.3066	0.975
22.3437	0.968
22.3809	0.972
22.418	0.972
22.4551	0.975
22.4922	0.972
22.5293	0.97
22.5664	0.972
22.6036	0.97
22.6407	0.964
22.6778	0.97
22.7149	0.972
22.752	0.972
22.7892	0.965
22.8263	0.961
22.8634	0.961
22.9005	0.962
22.9376	0.972
22.9747	0.964
23.0119	0.97
23.049	0.965
23.0861	0.973
23.1232	0.97
23.1603	0.972
23.1974	0.97
23.2346	0.97
23.2717	0.97
23.3088	0.97
23.3459	0.967
23.383	0.961
23.4202	0.972
23.4573	0.961
23.4944	0.961
23.5315	0.964
23.5686	0.961
23.6057	0.962
23.6429	0.956
23.68	0.959
23.7171	0.955
23.7542	0.951
23.7913	0.944
23.8285	0.931
23.8656	0.924
23.9027	0.922
23.9398	0.917
23.9769	0.914
24.014	0.913
24.0512	0.925
24.0883	0.93
24.1254	0.936
24.1625	0.931
24.1996	0.931
24.2367	0.927
24.2739	0.922
24.311	0.919
24.3481	0.913
24.3852	0.913
24.4223	0.903
24.4595	0.894
24.4966	0.894
24.5337	0.885
24.5708	0.88
24.6079	0.874
24.645	0.88
24.6822	0.874
24.7193	0.869
24.7564	0.854
24.7935	0.854
24.8306	0.846
24.8677	0.84
24.9049	0.829
24.942	0.829
24.9791	0.823
25.0162	0.817
25.0533	0.798
25.0905	0.792
25.1276	0.787
25.1647	0.787
25.2018	0.789
25.2389	0.781
25.276	0.782
25.3132	0.782
25.3503	0.779
25.3874	0.781
25.4245	0.772
25.4616	0.776
25.4988	0.784
25.5359	0.782
25.573	0.768
25.6101	0.764
25.6472	0.762
25.6843	0.764
25.7215	0.758
25.7586	0.751
25.7957	0.748
25.8328	0.747
25.8699	0.741
25.907	0.737
25.9442	0.737
25.9813	0.741
26.0184	0.734
