Infrared Spectrum: 9-OCTADECENOIC ACID, [Z]
Formula: C18 H34 O2
CAS: 112-80-1
State: LIQUID (NEAT)
Class: COBLENTZ III
Instrument: PERKIN-ELMER 180 (GRATING)
Instrument parameters: GRATING CHANGES AT 2000, 1000, 500, 250 CM^-^1
Sampling: TRANSMISSION
Path length: CAPILLARY, KBr CRYSTALS
Resolution: 4
Origin: STANDARD OIL OF OHIO
1/CM	TRANSMITTANCE
293.198	0.065
303.37	0.116
313.541	0.159
323.713	0.213
333.885	0.29
344.056	0.373
354.228	0.442
364.4	0.502
374.571	0.571
384.743	0.623
394.915	0.671
405.086	0.711
415.258	0.745
425.43	0.766
435.601	0.786
445.773	0.81
455.945	0.841
466.116	0.828
476.288	0.837
486.46	0.849
496.631	0.855
506.803	0.861
516.975	0.866
527.146	0.87
537.318	0.873
547.49	0.875
557.661	0.872
567.833	0.868
578.005	0.857
588.176	0.85
598.348	0.849
608.52	0.849
618.691	0.836
628.863	0.841
639.035	0.84
649.206	0.831
659.378	0.82
669.55	0.804
679.721	0.791
689.893	0.785
700.065	0.769
710.236	0.731
720.408	0.72
730.58	0.771
740.751	0.801
750.923	0.808
761.095	0.812
771.266	0.815
781.438	0.816
791.61	0.816
801.781	0.817
811.953	0.814
822.125	0.811
832.296	0.806
842.468	0.8
852.64	0.797
862.811	0.788
872.983	0.775
883.155	0.764
893.326	0.744
903.498	0.721
913.67	0.699
923.842	0.672
934.013	0.671
944.185	0.692
954.357	0.721
964.528	0.739
974.7	0.78
984.872	0.795
995.043	0.803
1005.21	0.811
1015.39	0.82
1025.56	0.825
1035.73	0.828
1045.9	0.828
1056.07	0.826
1066.24	0.819
1076.42	0.809
1086.59	0.8
1096.76	0.809
1106.93	0.801
1117.1	0.799
1127.27	0.809
1137.45	0.798
1147.62	0.794
1157.79	0.781
1167.96	0.772
1178.13	0.762
1188.3	0.738
1198.48	0.707
1208.65	0.671
1218.82	0.656
1228.99	0.659
1239.16	0.64
1249.33	0.643
1259.51	0.64
1269.68	0.608
1279.85	0.578
1290.02	0.608
1300.19	0.645
1310.36	0.688
1320.54	0.724
1330.71	0.735
1340.88	0.744
1351.05	0.758
1361.22	0.759
1371.39	0.739
1381.57	0.76
1391.74	0.727
1401.91	0.6179
1412.08	0.581
1422.25	0.604
1432.42	0.592
1442.6	0.602
1452.77	0.528
1462.94	0.527
1473.11	0.771
1483.28	0.805
1493.45	0.816
1503.63	0.82
1513.8	0.824
1523.97	0.828
1534.14	0.827
1544.31	0.827
1554.49	0.827
1564.66	0.827
1574.83	0.826
1585	0.826
1595.17	0.823
1605.34	0.819
1615.52	0.814
1625.69	0.803
1635.86	0.791
1646.03	0.767
1656.2	0.758
1666.37	0.737
1676.55	0.685
1686.72	0.5749
1696.89	0.3088
1707.06	0.061
1717.23	0.2492
1727.4	0.5521
1737.58	0.63
1747.75	0.701
1757.92	0.75
1768.09	0.775
1778.26	0.789
1788.43	0.794
1798.61	0.8
1808.78	0.803
1818.95	0.807
1829.12	0.81
1839.29	0.812
1849.46	0.814
1859.64	0.817
1869.81	0.818
1879.98	0.818
1890.15	0.819
1900.32	0.82
1910.49	0.821
1920.67	0.823
1930.84	0.824
1941.01	0.824
1951.18	0.824
1961.35	0.825
1971.52	0.827
1981.7	0.828
1991.87	0.831
2002.04	0.837
2012.21	0.839
2022.38	0.84
2032.55	0.841
2042.73	0.841
2052.9	0.841
2063.07	0.841
2073.24	0.841
2083.41	0.841
2093.58	0.841
2103.76	0.84
2113.93	0.84
2124.1	0.839
2134.27	0.839
2144.44	0.839
2154.61	0.839
2164.79	0.84
2174.96	0.839
2185.13	0.838
2195.3	0.838
2205.47	0.837
2215.64	0.8369
2225.82	0.8359
2235.99	0.8349
2246.16	0.8338
2256.33	0.832
2266.5	0.831
2276.67	0.83
2286.85	0.829
2297.02	0.827
2307.19	0.8259
2317.36	0.824
2327.53	0.8229
2337.7	0.821
2347.88	0.819
2358.05	0.817
2368.22	0.8157
2378.39	0.8128
2388.56	0.81
2398.73	0.8078
2408.91	0.804
2419.08	0.801
2429.25	0.798
2439.42	0.7958
2449.59	0.7898
2459.76	0.786
2469.94	0.7808
2480.11	0.7754
2490.28	0.7678
2500.45	0.7634
2510.62	0.756
2520.79	0.7438
2530.97	0.7381
2541.14	0.7291
2551.31	0.719
2561.48	0.7135
2571.65	0.7117
2581.82	0.7087
2592	0.7035
2602.17	0.7007
2612.34	0.6967
2622.51	0.6887
2632.68	0.6842
2642.85	0.6777
2653.03	0.6697
2663.2	0.6664
2673.37	0.6642
2683.54	0.6719
2693.71	0.6803
2703.88	0.685
2714.06	0.683
2724.23	0.6827
2734.4	0.681
2744.57	0.679
2754.74	0.676
2764.91	0.6753
2775.09	0.668
2785.26	0.6573
2795.43	0.6479
2805.6	0.625
2815.77	0.6003
2825.94	0.5578
2836.12	0.4566
2846.29	0.2172
2856.46	0.1695
2866.63	0.3136
2876.8	0.3684
2886.97	0.3361
2897.15	0.2577
2907.32	0.1525
2917.49	0.0419
2927.66	0.048
2937.83	0.1331
2948	0.2134
2958.18	0.2458
2968.35	0.3818
2978.52	0.4633
2988.69	0.4904
2998.86	0.4594
3009.03	0.4488
3019.21	0.5118
3029.38	0.5319
3039.55	0.5425
3049.72	0.5505
3059.89	0.5599
3070.06	0.5679
3080.24	0.5725
3090.41	0.5765
3100.58	0.5795
3110.75	0.5895
3120.92	0.5985
3131.09	0.6085
3141.27	0.6195
3151.44	0.629
3161.61	0.638
3171.78	0.644
3181.95	0.655
3192.12	0.6641
3202.3	0.6725
3212.47	0.6825
3222.64	0.6912
3232.81	0.6971
3242.98	0.7071
3253.15	0.7146
3263.33	0.7232
3273.5	0.73
3283.67	0.7381
3293.84	0.7436
3304.01	0.75
3314.18	0.7566
3324.36	0.761
3334.53	0.7646
3344.7	0.7686
3354.87	0.7726
3365.04	0.7796
3375.21	0.7836
3385.39	0.786
3395.56	0.7906
3405.73	0.7956
3415.9	0.7986
3426.07	0.8
3436.24	0.803
3446.42	0.806
3456.59	0.808
3466.76	0.8086
3476.93	0.811
3487.1	0.8137
3497.27	0.8157
3507.45	0.817
3517.62	0.818
3527.79	0.818
3537.96	0.82
3548.13	0.821
3558.3	0.8217
3568.48	0.823
3578.65	0.824
3588.82	0.824
3598.99	0.824
3609.16	0.824
3619.33	0.824
3629.51	0.824
3639.68	0.8247
3649.85	0.8257
3660.02	0.826
3670.19	0.826
3680.36	0.826
3690.54	0.826
3700.71	0.826
3710.88	0.826
3721.05	0.825
3731.22	0.825
3741.39	0.825
3751.57	0.825
3761.74	0.824
3771.91	0.824
3782.08	0.824
3792.25	0.823
3802.42	0.823
3812.6	0.822
3822.77	0.822
3832.94	0.823
3843.11	0.823
3853.28	0.823
3863.45	0.823
3873.63	0.823
3883.8	0.823
3893.97	0.822
3904.14	0.821
3914.31	0.821
3924.48	0.8192
3934.66	0.818
3944.83	0.818
3955	0.818
3965.17	0.818
3975.34	0.818
3985.51	0.817
3995.69	0.816
