Infrared Spectrum: 1-Chlorododecane
Formula: C12 H25 Cl
CAS: 112-52-7
State: SOLUTION (10% CCl4 FOR 3800-1330, 10% CS2 FOR 1330-400 CM^-^1)
Boiling point: 114 C AT 5 mmHg
Class: COBLENTZ III
Instrument: BECKMAN IR-9 (GRATING)
Instrument parameters: ORDER CHANGES: 670, 1200, 2000 CM^-^1
Sampling: TRANSMISSION
Path length: 0.011 CM, 0.011 CM
Resolution: 2
Origin: DOW CHEMICAL COMPANY
1/CM	TRANSMITTANCE
3782	0.8953
3773	0.8966
3764	0.8963
3755	0.8958
3746	0.8957
3737	0.8969
3728	0.8966
3719	0.8947
3710	0.8966
3701	0.8973
3692	0.8957
3683	0.8941
3674	0.8941
3665	0.8941
3656	0.8942
3647	0.8943
3638	0.8944
3629	0.8945
3620	0.8959
3611	0.8954
3602	0.8939
3593	0.8948
3584	0.8947
3575	0.8937
3566	0.8931
3557	0.8933
3548	0.8951
3539	0.8946
3530	0.8948
3521	0.8929
3512	0.8925
3503	0.892
3494	0.8914
3485	0.8906
3476	0.8899
3467	0.889
3458	0.8877
3449	0.8859
3440	0.8841
3431	0.8821
3422	0.88
3413	0.8776
3404	0.8747
3395	0.8743
3386	0.874
3377	0.8737
3368	0.8735
3359	0.8733
3350	0.8735
3341	0.8737
3332	0.8738
3323	0.8739
3314	0.8741
3305	0.8756
3296	0.8737
3287	0.8734
3278	0.8742
3269	0.8743
3260	0.8738
3251	0.8731
3242	0.8723
3233	0.8715
3224	0.8707
3215	0.87
3206	0.868
3197	0.869
3188	0.8694
3179	0.8678
3170	0.8677
3161	0.8682
3152	0.8685
3143	0.8666
3134	0.8676
3125	0.8667
3116	0.8651
3107	0.8634
3098	0.8631
3089	0.8623
3080	0.8579
3071	0.8592
3062	0.8495
3053	0.841
3044	0.8348
3035	0.8244
3026	0.8072
3017	0.7923
3008	0.7655
2999	0.7025
2990	0.6025
2981	0.5376
2972	0.4933
2963	0.3435
2954	0.111
2945	0.055
2936	0.0214
2927	0.0126
2918	0.0145
2909	0.0264
2900	0.0723
2891	0.1432
2882	0.2294
2873	0.2943
2864	0.1644
2855	0.0362
2846	0.0227
2837	0.1782
2828	0.425
2819	0.6257
2810	0.6859
2801	0.7577
2792	0.7937
2783	0.814
2774	0.8294
2765	0.8382
2756	0.846
2747	0.8493
2738	0.8483
2729	0.8454
2720	0.8461
2711	0.8509
2702	0.854
2693	0.8544
2684	0.8512
2675	0.8481
2666	0.8484
2657	0.8547
2648	0.8582
2639	0.8621
2630	0.8671
2621	0.8721
2612	0.8752
2603	0.8781
2594	0.8812
2585	0.8842
2576	0.887
2567	0.8893
2558	0.8917
2549	0.8929
2540	0.894
2531	0.8953
2522	0.8968
2513	0.8983
2504	0.8999
2495	0.9013
2486	0.9028
2477	0.9057
2468	0.9062
2459	0.9066
2450	0.9058
2441	0.9068
2432	0.9064
2423	0.9058
2414	0.905
2405	0.9057
2396	0.905
2387	0.9057
2378	0.9094
2369	0.9106
2360	0.9108
2351	0.9139
2342	0.9136
2333	0.9127
2324	0.9166
2315	0.9156
2306	0.9144
2297	0.9148
2288	0.9126
2279	0.9107
2270	0.9098
2261	0.9097
2252	0.91
2243	0.911
2234	0.9126
2225	0.9151
2216	0.9149
2207	0.9163
2198	0.9176
2189	0.9165
2180	0.9167
2171	0.9187
2162	0.9178
2153	0.9183
2144	0.9192
2135	0.9202
2126	0.9208
2117	0.9212
2108	0.9216
2099	0.9216
2090	0.9214
2081	0.9208
2072	0.9199
2063	0.9188
2054	0.919
2045	0.9159
2036	0.9154
2027	0.9159
2018	0.9157
2009	0.9164
2000	0.9156
1991	0.9173
1982	0.9182
1973	0.9175
1964	0.9179
1955	0.9197
1946	0.9173
1937	0.9188
1928	0.9206
1919	0.9225
1910	0.9225
1901	0.9234
1892	0.9223
1883	0.9211
1874	0.9216
1865	0.9218
1856	0.9223
1847	0.9216
1838	0.9219
1829	0.9207
1820	0.9199
1811	0.9203
1802	0.917
1793	0.9187
1784	0.9192
1775	0.9178
1766	0.9172
1757	0.9162
1748	0.908
1739	0.8976
1730	0.8954
1721	0.8972
1712	0.901
1703	0.9052
1694	0.9067
1685	0.9066
1676	0.9053
1667	0.905
1658	0.9025
1649	0.9012
1640	0.9008
1631	0.9009
1622	0.9021
1613	0.9141
1604	0.9177
1595	0.9276
1586	0.8947
1577	0.8886
1568	0.8797
1559	0.8901
1550	0.8859
1541	0.8977
1532	0.8853
1523	0.8737
1514	0.8941
1505	0.8919
1496	0.8775
1487	0.8596
1478	0.8193
1469	0.5768
1460	0.3487
1451	0.5269
1442	0.5057
1433	0.6903
1424	0.8129
1415	0.8643
1406	0.8748
1397	0.8746
1388	0.8572
1379	0.7413
1370	0.7902
1361	0.8174
1352	0.8087
1343	0.8051
1334	0.8333
1325	0.7635
1316	0.6994
1307	0.639
1298	0.6594
1289	0.645
1280	0.6993
1271	0.7563
1262	0.7924
1253	0.8131
1244	0.8303
1235	0.8493
1226	0.8648
1217	0.8729
1208	0.8771
1199	0.8794
1190	0.8809
1181	0.8771
1172	0.8808
1163	0.8831
1154	0.8834
1145	0.8807
1136	0.8872
1127	0.8748
1118	0.8682
1109	0.8734
1100	0.8805
1091	0.8743
1082	0.864
1073	0.8625
1064	0.8654
1055	0.8698
1046	0.8757
1037	0.8802
1028	0.883
1019	0.8859
1010	0.8867
1001	0.8838
992	0.8821
983	0.8816
974	0.8819
965	0.8888
956	0.8922
947	0.8932
938	0.8935
929	0.8929
920	0.8901
911	0.8891
902	0.8854
893	0.8733
884	0.8745
875	0.8764
866	0.8807
857	0.9059
848	0.9185
839	0.9006
830	0.9042
821	0.8986
812	0.8935
803	0.9053
794	0.8913
785	0.8802
776	0.8623
767	0.8406
758	0.8111
749	0.8012
740	0.7112
731	0.5695
722	0.5573
713	0.7226
704	0.8554
695	0.9085
686	0.9163
677	0.9162
668	0.8869
659	0.6478
650	0.6978
641	0.8894
632	0.9156
623	0.9211
614	0.9249
605	0.925
596	0.9274
587	0.926
578	0.9212
569	0.916
560	0.9083
551	0.8982
542	0.89
533	0.8838
524	0.8759
515	0.8664
506	0.8573
497	0.8484
488	0.8391
479	0.8291
470	0.8124
461	0.7832
452	0.7439
443	0.6971
434	0.6348
425	0.5074
416	0.3814
407	0.2084
