Infrared Spectrum: Linoleic acid, methyl ester
Formula: C19 H34 O2
CAS: 112-63-0
State: SOLUTION (10% CCl4 FOR 4000-1220, 10% CS2 FOR 1220-450 CM^-^1) VS SOLVENT
Class: COBLENTZ III
Instrument: CARY 90 (GRATING)
Instrument parameters: ORDER CHANGES: 3000, 2000, 1200 CM^-^1
Path length: 0.011 CM, AND 0.010 CM
Resolution: 2
Origin: WESTERN REGIONAL RES. USDA
1/CM	TRANSMITTANCE
480	0.7737
489	0.774
498	0.7755
507	0.7768
516	0.7803
525	0.7837
534	0.786
543	0.7891
552	0.7861
561	0.7745
570	0.767
579	0.7648
588	0.7634
597	0.7569
606	0.7558
615	0.7692
624	0.7759
633	0.7741
642	0.7683
651	0.7556
660	0.731
669	0.697
678	0.6524
687	0.622
696	0.5896
705	0.552
714	0.5206
723	0.5096
732	0.5864
741	0.667
750	0.7189
759	0.7399
768	0.7582
777	0.7755
786	0.7909
795	0.7978
804	0.7954
813	0.7917
822	0.7775
831	0.747
840	0.7452
849	0.7616
858	0.7569
867	0.7512
876	0.7472
885	0.7618
894	0.7644
903	0.7418
912	0.7279
921	0.765
930	0.7808
939	0.7758
948	0.7674
957	0.7581
966	0.744
975	0.7299
984	0.7117
993	0.7082
1002	0.6969
1011	0.6605
1020	0.666
1029	0.7052
1038	0.7178
1047	0.7232
1056	0.7321
1065	0.7385
1074	0.7164
1083	0.6662
1092	0.635
1101	0.6333
1110	0.6584
1119	0.6313
1128	0.6109
1137	0.5577
1146	0.506
1155	0.3833
1164	0.2753
1173	0.313
1182	0.3906
1191	0.2969
1200	0.3385
1209	0.4105
1218	0.4523
1227	0.4527
1236	0.4227
1245	0.3984
1254	0.4623
1263	0.4989
1272	0.5288
1281	0.5778
1290	0.6237
1299	0.6321
1308	0.6297
1317	0.618
1326	0.6651
1335	0.6548
1344	0.6117
1353	0.5627
1362	0.5639
1371	0.6135
1380	0.7349
1389	0.7164
1398	0.7007
1407	0.7318
1416	0.6382
1425	0.5281
1434	0.2726
1443	0.4471
1452	0.3885
1461	0.3647
1470	0.6931
1479	0.7896
1488	0.8184
1497	0.8328
1506	0.8405
1515	0.8465
1524	0.8509
1533	0.8525
1542	0.8531
1551	0.8521
1560	0.8496
1569	0.8466
1578	0.8468
1587	0.8517
1596	0.8478
1605	0.844
1614	0.845
1623	0.8432
1632	0.8314
1641	0.8081
1650	0.7945
1659	0.8162
1668	0.8271
1677	0.8122
1686	0.7919
1695	0.7587
1704	0.7303
1713	0.6819
1722	0.5756
1731	0.1454
1740	0.0193
1749	0.1619
1758	0.4709
1767	0.7215
1776	0.7683
1785	0.8013
1794	0.8305
1803	0.853
1812	0.8677
1821	0.8777
1830	0.8837
1839	0.8863
1848	0.8875
1857	0.8881
1866	0.8882
1875	0.8882
1884	0.8891
1893	0.8913
1902	0.8935
1911	0.8946
1920	0.8955
1929	0.8953
1938	0.8948
1947	0.8943
1956	0.8936
1965	0.8925
1974	0.8911
1983	0.8896
1992	0.8881
2001	0.8866
2010	0.8854
2019	0.8861
2028	0.8871
2037	0.8884
2046	0.8897
2055	0.8897
2064	0.8898
2073	0.8924
2082	0.8959
2091	0.8993
2100	0.9018
2109	0.9033
2118	0.9045
2127	0.9057
2136	0.907
2145	0.9077
2154	0.9078
2163	0.908
2172	0.9081
2181	0.9082
2190	0.9086
2199	0.9089
2208	0.9094
2217	0.9095
2226	0.909
2235	0.9085
2244	0.9079
2253	0.9065
2262	0.9052
2271	0.9039
2280	0.9028
2289	0.9017
2298	0.9008
2307	0.9001
2316	0.8995
2325	0.8988
2334	0.899
2343	0.8993
2352	0.8997
2361	0.9001
2370	0.9011
2379	0.9022
2388	0.9031
2397	0.9039
2406	0.905
2415	0.9062
2424	0.907
2433	0.9071
2442	0.9068
2451	0.906
2460	0.9056
2469	0.9053
2478	0.9047
2487	0.9038
2496	0.9029
2505	0.9018
2514	0.9008
2523	0.9003
2532	0.9004
2541	0.9006
2550	0.9004
2559	0.8992
2568	0.8979
2577	0.8967
2586	0.8957
2595	0.8945
2604	0.8922
2613	0.8898
2622	0.8877
2631	0.8859
2640	0.8837
2649	0.8811
2658	0.8802
2667	0.8805
2676	0.8819
2685	0.884
2694	0.8846
2703	0.8846
2712	0.8826
2721	0.8799
2730	0.8765
2739	0.8757
2748	0.8773
2757	0.8794
2766	0.8754
2775	0.8692
2784	0.8583
2793	0.8446
2802	0.8254
2811	0.8059
2820	0.7755
2829	0.7011
2838	0.5673
2847	0.3942
2856	0.1649
2865	0.0911
2874	0.2715
2883	0.3655
2892	0.3742
2901	0.2919
2910	0.2096
2919	0.1273
2928	0.0451
2937	0.0214
2946	0.0541
2955	0.0934
2964	0.097
2973	0.264
2982	0.4473
2991	0.5607
3000	0.5217
3009	0.354
3018	0.2834
3027	0.4589
3036	0.6727
3045	0.7434
3054	0.8014
3063	0.8209
3072	0.8385
3081	0.8532
3090	0.8669
3099	0.8759
3108	0.8825
3117	0.8864
3126	0.8886
3135	0.8903
3144	0.8916
3153	0.893
3162	0.8943
3171	0.8954
3180	0.8963
3189	0.8967
3198	0.8976
3207	0.8986
3216	0.8993
3225	0.9004
3234	0.9023
3243	0.9042
3252	0.9061
3261	0.9067
3270	0.9069
3279	0.9069
3288	0.9063
3297	0.9056
3306	0.9059
3315	0.9061
3324	0.9064
3333	0.9067
3342	0.9074
3351	0.9082
3360	0.9095
3369	0.9109
3378	0.9107
3387	0.9099
3396	0.9091
3405	0.9083
3414	0.9074
3423	0.9065
3432	0.9056
3441	0.904
3450	0.9021
3459	0.9004
3468	0.8989
3477	0.8974
3486	0.8968
3495	0.8992
3504	0.9019
3513	0.9025
3522	0.9032
3531	0.9018
3540	0.9002
3549	0.8989
3558	0.8982
3567	0.8989
3576	0.8996
3585	0.9003
3594	0.9013
3603	0.9023
3612	0.9034
3621	0.904
3630	0.9045
3639	0.905
3648	0.9052
3657	0.9046
3666	0.9041
3675	0.9035
3684	0.9032
3693	0.9031
3702	0.903
3711	0.9032
3720	0.9038
3729	0.9043
3738	0.9049
3747	0.9053
3756	0.9056
3765	0.9059
3774	0.9062
3783	0.907
3792	0.9079
3801	0.9088
3810	0.9096
3819	0.9105
3828	0.9108
3837	0.9111
3846	0.9115
3855	0.9117
3864	0.9121
3873	0.912
3882	0.9116
3891	0.9112
3900	0.9109
3909	0.9104
3918	0.9097
3927	0.9088
3936	0.9081
3945	0.9071
3954	0.9059
3963	0.9048
3972	0.9035
3981	0.9018
3990	0.9003
3999	0.9009
4008	0.9027
4017	0.9054
4026	0.9082
