Infrared Spectrum: TETRADECANOL-1
Formula: C14 H30 O
CAS: 112-72-1
State: SOLUTION (10% CS2 FOR 5000-2380 AND 1390-625, 10% C2Cl4 FOR 2380-1390 CM^-^1)
Class: COBLENTZ
Instrument: PERKIN-ELMER
Sampling: TRANSMISSION
Path length: 0.01 CM, 0.01 CM
Resolution: 4
Origin: HORMEL INSTITUTE
MICROMETERS	TRANSMITTANCE
2.034	0.883
2.06782	0.883
2.10164	0.884
2.13546	0.884
2.16928	0.884
2.2031	0.884
2.23691	0.883
2.27073	0.878
2.30455	0.846
2.33837	0.849
2.37219	0.851
2.40601	0.854
2.43983	0.856
2.47365	0.859
2.50747	0.861
2.54129	0.862
2.5751	0.864
2.60892	0.868
2.64274	0.868
2.67656	0.868
2.71038	0.861
2.7442	0.812
2.77802	0.746
2.81184	0.798
2.84566	0.717
2.87948	0.648
2.91329	0.593
2.94711	0.531
2.98093	0.5
3.01475	0.487
3.04857	0.524
3.08239	0.604
3.11621	0.648
3.15003	0.715
3.18385	0.763
3.21767	0.785
3.25148	0.796
3.2853	0.791
3.31912	0.751
3.35294	0.617
3.38676	0.201
3.42058	0.032
3.4544	0.067
3.48822	0.072
3.52204	0.233
3.55586	0.485
3.58968	0.683
3.62349	0.746
3.65731	0.768
3.69113	0.781
3.72495	0.791
3.75877	0.793
3.79259	0.808
3.82641	0.825
3.86023	0.834
3.89405	0.847
3.92787	0.856
3.96168	0.861
3.9955	0.868
4.02932	0.869
4.06314	0.878
4.09696	0.881
4.13078	0.881
4.1646	0.883
4.19842	0.873
4.23224	0.869
4.26606	0.869
4.29987	0.868
4.33369	0.869
4.36751	0.873
4.40133	0.881
4.43515	0.881
4.46897	0.883
4.50279	0.883
4.53661	0.883
4.57043	0.884
4.60425	0.883
4.63807	0.883
4.67188	0.883
4.7057	0.883
4.73952	0.884
4.77334	0.883
4.80716	0.881
4.84098	0.879
4.8748	0.879
4.90862	0.879
4.94244	0.881
4.97626	0.881
5.01007	0.879
5.04389	0.881
5.07771	0.883
5.11153	0.883
5.14535	0.881
5.17917	0.883
5.21299	0.881
5.24681	0.883
5.28063	0.883
5.31445	0.883
5.34826	0.883
5.38208	0.879
5.4159	0.879
5.44972	0.881
5.48354	0.881
5.51736	0.881
5.55118	0.883
5.585	0.881
5.61882	0.879
5.65264	0.881
5.68645	0.878
5.72027	0.869
5.75409	0.862
5.78791	0.861
5.82173	0.871
5.85555	0.873
5.88937	0.873
5.92319	0.871
5.95701	0.869
5.99083	0.868
6.02465	0.869
6.05846	0.859
6.09228	0.857
6.1261	0.859
6.15992	0.859
6.19374	0.857
6.22756	0.859
6.26138	0.859
6.2952	0.859
6.32902	0.861
6.36284	0.857
6.39665	0.861
6.43047	0.854
6.46429	0.854
6.49811	0.852
6.53193	0.849
6.56575	0.846
6.59957	0.84
6.63339	0.829
6.66721	0.808
6.70103	0.769
6.73484	0.683
6.76866	0.51
6.80248	0.265
6.8363	0.304
6.87012	0.414
6.90394	0.519
6.93776	0.556
6.97158	0.615
7.0054	0.67
7.03922	0.678
7.07303	0.678
7.10685	0.68
7.14067	0.675
7.17449	0.661
7.20831	0.592
7.24213	0.524
7.27595	0.558
7.30977	0.582
7.34359	0.615
7.37741	0.62
7.41123	0.634
7.44504	0.646
7.47886	0.666
7.51268	0.68
7.5465	0.685
7.58032	0.681
7.61414	0.675
7.64796	0.67
7.68178	0.671
7.7156	0.681
7.74942	0.693
7.78323	0.703
7.81705	0.714
7.85087	0.722
7.88469	0.727
7.91851	0.73
7.95233	0.737
7.98615	0.742
8.01997	0.746
8.05379	0.751
8.08761	0.752
8.12142	0.754
8.15524	0.758
8.18906	0.759
8.22288	0.759
8.2567	0.768
8.29052	0.771
8.32434	0.773
8.35816	0.773
8.39198	0.774
8.4258	0.78
8.45961	0.78
8.49343	0.78
8.52725	0.78
8.56107	0.783
8.59489	0.785
8.62871	0.781
8.66253	0.781
8.69635	0.781
8.73017	0.788
8.76399	0.785
8.79781	0.783
8.83162	0.773
8.86544	0.751
8.89926	0.739
8.93308	0.747
8.9669	0.761
9.00072	0.769
9.03454	0.764
9.06836	0.754
9.10218	0.737
9.136	0.705
9.16981	0.668
9.20363	0.619
9.23745	0.583
9.27127	0.541
9.30509	0.499
9.33891	0.478
9.37273	0.461
9.40655	0.426
9.44037	0.392
9.47419	0.373
9.508	0.395
9.54182	0.411
9.57564	0.433
9.60946	0.448
9.64328	0.46
9.6771	0.475
9.71092	0.495
9.74474	0.514
9.77856	0.541
9.81238	0.558
9.8462	0.587
9.88001	0.607
9.91383	0.627
9.94765	0.642
9.98147	0.656
10.0153	0.668
10.0491	0.676
10.0829	0.685
10.1167	0.692
10.1506	0.705
10.1844	0.714
10.2182	0.722
10.252	0.729
10.2858	0.739
10.3197	0.747
10.3535	0.758
10.3873	0.759
10.4211	0.761
10.4549	0.764
10.4888	0.769
10.5226	0.769
10.5564	0.769
10.5902	0.769
10.624	0.769
10.6579	0.771
10.6917	0.773
10.7255	0.778
10.7593	0.781
10.7931	0.785
10.8269	0.788
10.8608	0.793
10.8946	0.795
10.9284	0.796
10.9622	0.796
10.996	0.796
11.0299	0.8
11.0637	0.8
11.0975	0.8
11.1313	0.8
11.1651	0.798
11.199	0.785
11.2328	0.785
11.2666	0.788
11.3004	0.791
11.3342	0.796
11.3681	0.796
11.4019	0.798
11.4357	0.798
11.4695	0.8
11.5033	0.8
11.5371	0.8
11.571	0.8
11.6048	0.802
11.6386	0.802
11.6724	0.807
11.7062	0.815
11.7401	0.818
11.7739	0.824
11.8077	0.825
11.8415	0.822
11.8753	0.818
11.9092	0.817
11.943	0.815
11.9768	0.815
12.0106	0.815
12.0444	0.815
12.0783	0.815
12.1121	0.815
12.1459	0.815
12.1797	0.812
12.2135	0.81
12.2473	0.81
12.2812	0.808
12.315	0.807
12.3488	0.8
12.3826	0.8
12.4164	0.798
12.4503	0.798
12.4841	0.8
12.5179	0.8
12.5517	0.798
12.5855	0.798
12.6194	0.795
12.6532	0.793
12.687	0.79
12.7208	0.788
12.7546	0.786
12.7885	0.786
12.8223	0.783
12.8561	0.781
12.8899	0.778
12.9237	0.773
12.9575	0.768
12.9914	0.764
13.0252	0.761
13.059	0.758
13.0928	0.754
13.1266	0.752
13.1605	0.747
13.1943	0.742
13.2281	0.741
13.2619	0.737
13.2957	0.732
13.3296	0.727
13.3634	0.724
13.3972	0.715
13.431	0.708
13.4648	0.702
13.4986	0.697
13.5325	0.686
13.5663	0.683
13.6001	0.673
13.6339	0.67
13.6677	0.653
13.7016	0.641
13.7354	0.624
13.7692	0.602
13.803	0.575
13.8368	0.548
13.8707	0.531
13.9045	0.527
13.9383	0.544
13.9721	0.566
14.0059	0.587
14.0398	0.602
14.0736	0.617
14.1074	0.634
14.1412	0.642
14.175	0.646
14.2088	0.651
14.2427	0.656
14.2765	0.659
14.3103	0.659
14.3441	0.659
14.3779	0.659
14.4118	0.659
14.4456	0.659
14.4794	0.658
14.5132	0.653
14.547	0.653
14.5809	0.653
14.6147	0.653
14.6485	0.649
14.6823	0.642
14.7161	0.641
14.75	0.636
14.7838	0.631
14.8176	0.626
14.8514	0.626
14.8852	0.617
14.919	0.622
14.9529	0.654
14.9867	0.653
15.0205	0.587
15.0543	0.595
15.0881	0.605
15.122	0.605
15.1558	0.604
15.1896	0.604
15.2234	0.602
15.2572	0.6
15.2911	0.6
15.3249	0.602
15.3587	0.602
15.3925	0.602
15.4263	0.6
15.4602	0.595
15.494	0.595
