Infrared Spectrum: N-TETRADECYL BROMIDE
Formula: C14 H29 Br
CAS: 112-71-0
State: LIQUID
Class: COBLENTZ
Instrument: Not specified, most likely a prism, grating, or hybrid spectrometer.
Sampling: TRANSMISSION
Path length: 0.0037 CM
Resolution: 4
Origin: CONTINENTAL OIL CO. (HAROLD F. SMITH)
MICROMETERS	TRANSMITTANCE
2.056	0.982
2.09307	0.984
2.13014	0.973
2.16721	0.975
2.20428	0.97
2.24135	0.941
2.27842	0.897
2.31548	0.86
2.35255	0.868
2.38962	0.873
2.42669	0.877
2.46376	0.888
2.50083	0.899
2.5379	0.919
2.57497	0.931
2.61204	0.942
2.64911	0.939
2.68618	0.952
2.72325	0.945
2.76032	0.939
2.79739	0.936
2.83445	0.928
2.87152	0.95
2.90859	0.948
2.94566	0.948
2.98273	0.945
3.0198	0.947
3.05687	0.95
3.09394	0.945
3.13101	0.934
3.16808	0.917
3.20515	0.908
3.24222	0.9
3.27929	0.862
3.31636	0.809
3.35342	0.569
3.39049	0.168
3.42756	0.026
3.46463	0.024
3.5017	0.032
3.53877	0.085
3.57584	0.374
3.61291	0.687
3.64998	0.77
3.68705	0.783
3.72412	0.794
3.76119	0.775
3.79826	0.82
3.83532	0.843
3.87239	0.868
3.90946	0.899
3.94653	0.908
3.9836	0.916
4.02067	0.925
4.05774	0.93
4.09481	0.933
4.13188	0.933
4.16895	0.931
4.20602	0.931
4.24309	0.948
4.28016	0.958
4.31723	0.959
4.35429	0.925
4.39136	0.931
4.42843	0.936
4.4655	0.934
4.50257	0.939
4.53964	0.938
4.57671	0.938
4.61378	0.939
4.65085	0.941
4.68792	0.945
4.72499	0.952
4.76206	0.95
4.79913	0.952
4.83619	0.95
4.87326	0.942
4.91033	0.938
4.9474	0.938
4.98447	0.948
5.02154	0.953
5.05861	0.95
5.09568	0.959
5.13275	0.958
5.16982	0.952
5.20689	0.959
5.24396	0.953
5.28103	0.956
5.3181	0.956
5.35516	0.961
5.39223	0.958
5.4293	0.962
5.46637	0.961
5.50344	0.959
5.54051	0.962
5.57758	0.962
5.61465	0.959
5.65172	0.964
5.68879	0.964
5.72586	0.969
5.76293	0.969
5.8	0.964
5.83707	0.969
5.87413	0.97
5.9112	0.964
5.94827	0.964
5.98534	0.953
6.02241	0.953
6.05948	0.961
6.09655	0.95
6.13362	0.948
6.17069	0.947
6.20776	0.95
6.24483	0.942
6.2819	0.942
6.31897	0.939
6.35603	0.942
6.3931	0.936
6.43017	0.936
6.46724	0.928
6.50431	0.931
6.54138	0.917
6.57845	0.914
6.61552	0.894
6.65259	0.869
6.68966	0.831
6.72673	0.749
6.7638	0.65
6.80087	0.102
6.83794	0.071
6.875	0.14
6.91207	0.235
6.94914	0.269
6.98621	0.352
7.02328	0.574
7.06035	0.73
7.09742	0.801
7.13449	0.821
7.17156	0.832
7.20863	0.811
7.2457	0.613
7.28277	0.523
7.31984	0.6
7.3569	0.651
7.39397	0.656
7.43104	0.681
7.46811	0.702
7.50518	0.73
7.54225	0.773
7.57932	0.76
7.61639	0.71
7.65346	0.65
7.69053	0.582
7.7276	0.552
7.76467	0.552
7.80174	0.552
7.83881	0.526
7.87587	0.518
7.91294	0.472
7.95001	0.408
7.98708	0.408
8.02415	0.373
8.06122	0.41
8.09829	0.498
8.13536	0.512
8.17243	0.518
8.2095	0.551
8.24657	0.609
8.28364	0.631
8.32071	0.674
8.35778	0.738
8.39484	0.795
8.43191	0.834
8.46898	0.851
8.50605	0.865
8.54312	0.869
8.58019	0.88
8.61726	0.883
8.65433	0.886
8.6914	0.888
8.72847	0.885
8.76554	0.885
8.80261	0.902
8.83968	0.91
8.87674	0.908
8.91381	0.89
8.95088	0.882
8.98795	0.891
9.02502	0.893
9.06209	0.888
9.09916	0.883
9.13623	0.874
9.1733	0.866
9.21037	0.848
9.24744	0.839
9.28451	0.832
9.32158	0.842
9.35865	0.848
9.39571	0.849
9.43278	0.845
9.46985	0.842
9.50692	0.845
9.54399	0.843
9.58106	0.845
9.61813	0.852
9.6552	0.86
9.69227	0.868
9.72934	0.868
9.76641	0.871
9.80348	0.873
9.84055	0.879
9.87761	0.877
9.91468	0.877
9.95175	0.877
9.98882	0.879
10.0259	0.88
10.063	0.883
10.1	0.882
10.1371	0.888
10.1742	0.888
10.2112	0.883
10.2483	0.88
10.2854	0.879
10.3224	0.877
10.3595	0.873
10.3966	0.869
10.4337	0.868
10.4707	0.865
10.5078	0.863
10.5449	0.869
10.5819	0.874
10.619	0.879
10.6561	0.879
10.6931	0.879
10.7302	0.876
10.7673	0.874
10.8043	0.869
10.8414	0.866
10.8785	0.862
10.9156	0.859
10.9526	0.856
10.9897	0.851
11.0268	0.845
11.0638	0.84
11.1009	0.84
11.138	0.842
11.175	0.84
11.2121	0.84
11.2492	0.84
11.2862	0.849
11.3233	0.856
11.3604	0.865
11.3975	0.869
11.4345	0.869
11.4716	0.869
11.5087	0.873
11.5457	0.879
11.5828	0.879
11.6199	0.883
11.6569	0.886
11.694	0.888
11.7311	0.891
11.7681	0.893
11.8052	0.896
11.8423	0.897
11.8794	0.899
11.9164	0.899
11.9535	0.897
11.9906	0.893
12.0276	0.891
12.0647	0.89
12.1018	0.893
12.1388	0.897
12.1759	0.897
12.213	0.894
12.25	0.893
12.2871	0.89
12.3242	0.885
12.3613	0.882
12.3983	0.877
12.4354	0.876
12.4725	0.877
12.5095	0.882
12.5466	0.883
12.5837	0.886
12.6207	0.888
12.6578	0.88
12.6949	0.88
12.7319	0.877
12.769	0.868
12.8061	0.865
12.8432	0.857
12.8802	0.849
12.9173	0.839
12.9544	0.829
12.9914	0.823
13.0285	0.811
13.0656	0.798
13.1026	0.789
13.1397	0.781
13.1768	0.77
13.2138	0.756
13.2509	0.752
13.288	0.741
13.3251	0.73
13.3621	0.724
13.3992	0.715
13.4363	0.702
13.4733	0.69
13.5104	0.676
13.5475	0.653
13.5845	0.625
13.6216	0.591
13.6587	0.549
13.6957	0.501
13.7328	0.452
13.7699	0.394
13.807	0.348
13.844	0.326
13.8811	0.349
13.9182	0.402
13.9552	0.469
13.9923	0.535
14.0294	0.602
14.0664	0.65
14.1035	0.699
14.1406	0.73
14.1776	0.755
14.2147	0.784
14.2518	0.804
14.2889	0.823
14.3259	0.831
14.363	0.848
14.4001	0.857
14.4371	0.862
14.4742	0.868
14.5113	0.871
14.5483	0.873
14.5854	0.877
14.6225	0.876
14.6596	0.874
14.6966	0.876
14.7337	0.873
14.7708	0.869
14.8078	0.866
14.8449	0.86
14.882	0.849
14.919	0.832
14.9561	0.804
14.9932	0.778
15.0302	0.753
15.0673	0.746
15.1044	0.741
15.1415	0.73
15.1785	0.713
15.2156	0.678
15.2527	0.64
15.2897	0.595
15.3268	0.543
15.3639	0.509
15.4009	0.479
15.438	0.458
15.4751	0.459
15.5121	0.472
15.5492	0.49
15.5863	0.515
15.6234	0.555
15.6604	0.594
15.6975	0.625
15.7346	0.65
15.7716	0.671
15.8087	0.695
15.8458	0.708
15.8828	0.719
15.9199	0.724
15.957	0.727
15.994	0.732
