Infrared Spectrum: 1-BROMODECANE
Formula: C10 H21 Br
CAS: 112-29-8
State: LIQUID
Class: COBLENTZ
Instrument: Not specified, most likely a prism, grating, or hybrid spectrometer.
Sampling: TRANSMISSION
Path length: 0.005 CM
Resolution: 4
Origin: WYANDOTTE CHEMICALS CORP., WYANDOTTE, MICHIGAN, USA
MICROMETERS	TRANSMITTANCE
2.034	0.991
2.07476	0.994
2.11551	1
2.15627	1
2.19702	0.988
2.23778	0.912
2.27854	0.876
2.31929	0.878
2.36005	0.894
2.40081	0.909
2.44156	0.926
2.48232	0.938
2.52307	0.96
2.56383	0.967
2.60459	0.969
2.64534	0.977
2.6861	0.984
2.72686	0.982
2.76761	0.974
2.80837	0.972
2.84912	0.974
2.88988	0.962
2.93064	0.958
2.97139	0.95
3.01215	0.935
3.0529	0.933
3.09366	0.928
3.13442	0.924
3.17517	0.899
3.21593	0.888
3.25669	0.858
3.29744	0.757
3.3382	0.523
3.37895	0.116
3.41971	0.017
3.46047	0.018
3.50122	0.017
3.54198	0.03
3.58273	0.369
3.62349	0.632
3.66425	0.731
3.705	0.735
3.74576	0.741
3.78652	0.747
3.82727	0.806
3.86803	0.825
3.90878	0.851
3.94954	0.885
3.9903	0.904
4.03105	0.905
4.07181	0.916
4.11257	0.919
4.15332	0.923
4.19408	0.924
4.23483	0.924
4.27559	0.924
4.31635	0.945
4.3571	0.941
4.39786	0.943
4.43861	0.933
4.47937	0.936
4.52013	0.941
4.56088	0.943
4.60164	0.943
4.6424	0.943
4.68315	0.953
4.72391	0.955
4.76466	0.964
4.80542	0.969
4.84618	0.969
4.88693	0.97
4.92769	0.972
4.96845	0.965
5.0092	0.96
5.04996	0.965
5.09071	0.974
5.13147	0.979
5.17223	0.979
5.21298	0.976
5.25374	0.974
5.29449	0.977
5.33525	0.981
5.37601	0.981
5.41676	0.976
5.45752	0.976
5.49828	0.972
5.53903	0.972
5.57979	0.979
5.62054	0.974
5.6613	0.97
5.70206	0.969
5.74281	0.962
5.78357	0.955
5.82433	0.941
5.86508	0.938
5.90584	0.929
5.94659	0.923
5.98735	0.905
6.02811	0.904
6.06886	0.897
6.10962	0.892
6.15037	0.902
6.19113	0.904
6.23189	0.902
6.27264	0.909
6.3134	0.912
6.35416	0.909
6.39491	0.909
6.43567	0.9
6.47642	0.895
6.51718	0.89
6.55794	0.871
6.59869	0.852
6.63945	0.815
6.6802	0.784
6.72096	0.685
6.76172	0.466
6.80247	0.018
6.84323	0.064
6.88399	0.141
6.92474	0.189
6.9655	0.268
7.00625	0.494
7.04701	0.705
7.08777	0.76
7.12852	0.774
7.16928	0.769
7.21004	0.709
7.25079	0.411
7.29155	0.511
7.3323	0.6
7.37306	0.601
7.41382	0.618
7.45457	0.637
7.49533	0.697
7.53608	0.726
7.57684	0.666
7.6176	0.594
7.65835	0.507
7.69911	0.471
7.73987	0.464
7.78062	0.459
7.82138	0.418
7.86213	0.391
7.90289	0.338
7.94365	0.264
7.9844	0.254
8.02516	0.316
8.06592	0.311
8.10667	0.372
8.14743	0.401
8.18818	0.454
8.22894	0.458
8.2697	0.497
8.31045	0.545
8.35121	0.634
8.39196	0.7
8.43272	0.75
8.47348	0.764
8.51423	0.776
8.55499	0.782
8.59575	0.794
8.6365	0.8
8.67726	0.794
8.71801	0.788
8.75877	0.815
8.79953	0.825
8.84028	0.815
8.88104	0.798
8.92179	0.767
8.96255	0.772
9.00331	0.764
9.04406	0.752
9.08482	0.752
9.12558	0.755
9.16633	0.75
9.20709	0.741
9.24784	0.729
9.2886	0.731
9.32936	0.74
9.37011	0.75
9.41087	0.75
9.45163	0.75
9.49238	0.75
9.53314	0.74
9.57389	0.731
9.61465	0.731
9.65541	0.74
9.69616	0.748
9.73692	0.753
9.77767	0.753
9.81843	0.769
9.85919	0.779
9.89994	0.791
9.9407	0.8
9.98146	0.803
10.0222	0.803
10.063	0.803
10.1037	0.803
10.1445	0.803
10.1852	0.801
10.226	0.801
10.2667	0.801
10.3075	0.803
10.3483	0.803
10.389	0.803
10.4298	0.803
10.4705	0.806
10.5113	0.811
10.552	0.813
10.5928	0.815
10.6336	0.811
10.6743	0.813
10.7151	0.813
10.7558	0.808
10.7966	0.806
10.8373	0.805
10.8781	0.806
10.9188	0.811
10.9596	0.81
11.0004	0.811
11.0411	0.81
11.0819	0.81
11.1226	0.805
11.1634	0.801
11.2041	0.793
11.2449	0.774
11.2857	0.772
11.3264	0.784
11.3672	0.788
11.4079	0.791
11.4487	0.784
11.4894	0.788
11.5302	0.805
11.5709	0.818
11.6117	0.829
11.6525	0.835
11.6932	0.841
11.734	0.844
11.7747	0.842
11.8155	0.844
11.8562	0.847
11.897	0.844
11.9378	0.844
11.9785	0.841
12.0193	0.834
12.06	0.83
12.1008	0.837
12.1415	0.847
12.1823	0.851
12.223	0.849
12.2638	0.846
12.3046	0.842
12.3453	0.834
12.3861	0.827
12.4268	0.815
12.4676	0.811
12.5083	0.811
12.5491	0.822
12.5899	0.825
12.6306	0.829
12.6714	0.823
12.7121	0.815
12.7529	0.803
12.7936	0.798
12.8344	0.781
12.8751	0.769
12.9159	0.762
12.9567	0.758
12.9974	0.758
13.0382	0.752
13.0789	0.748
13.1197	0.735
13.1604	0.731
13.2012	0.714
13.242	0.702
13.2827	0.695
13.3235	0.688
13.3642	0.678
13.405	0.67
13.4457	0.656
13.4865	0.635
13.5272	0.615
13.568	0.584
13.6088	0.557
13.6495	0.524
13.6903	0.497
13.731	0.449
13.7718	0.372
13.8125	0.336
13.8533	0.302
13.894	0.302
13.9348	0.355
13.9756	0.437
14.0163	0.519
14.0571	0.594
14.0978	0.646
14.1386	0.694
14.1793	0.736
14.2201	0.772
14.2609	0.801
14.3016	0.82
14.3424	0.839
14.3831	0.854
14.4239	0.863
14.4646	0.871
14.5054	0.876
14.5461	0.873
14.5869	0.88
14.6277	0.88
14.6684	0.88
14.7092	0.883
14.7499	0.876
14.7907	0.87
14.8314	0.87
14.8722	0.868
14.913	0.863
14.9537	0.852
14.9945	0.837
15.0352	0.817
15.076	0.81
15.1167	0.815
15.1575	0.803
15.1982	0.782
15.239	0.752
15.2798	0.729
15.3205	0.682
15.3613	0.647
15.402	0.606
15.4428	0.576
15.4835	0.562
15.5243	0.558
15.5651	0.572
15.6058	0.598
15.6466	0.623
15.6873	0.649
15.7281	0.683
15.7688	0.711
15.8096	0.724
15.8503	0.736
15.8911	0.74
15.9319	0.743
15.9726	0.747
