Infrared Spectrum: BEHENIC ACID
Formula: C22 H44 O2
CAS: 112-85-6
State: SOLID (MELT)
Class: COBLENTZ
Instrument: Not specified, most likely a prism, grating, or hybrid spectrometer.
Sampling: TRANSMISSION
Resolution: 4
Origin: BATTELLE MEMORIAL INSTITUTE
MICROMETERS	TRANSMITTANCE
1.953	0.921
1.98632	0.921
2.01963	0.921
2.05295	0.92
2.08627	0.922
2.11958	0.922
2.1529	0.922
2.18622	0.922
2.21953	0.922
2.25285	0.922
2.28617	0.91
2.31948	0.89
2.3528	0.9
2.38612	0.893
2.41943	0.893
2.45275	0.904
2.48607	0.91
2.51938	0.914
2.5527	0.916
2.58602	0.914
2.61933	0.916
2.65265	0.917
2.68597	0.92
2.71928	0.918
2.7526	0.918
2.78592	0.917
2.81923	0.918
2.85255	0.918
2.88587	0.917
2.91918	0.912
2.9525	0.901
2.98581	0.893
3.01913	0.88
3.05245	0.864
3.08576	0.839
3.11908	0.817
3.1524	0.792
3.18571	0.753
3.21903	0.715
3.25235	0.683
3.28566	0.647
3.31898	0.623
3.3523	0.401
3.38561	0.188
3.41893	0.151
3.45225	0.341
3.48556	0.207
3.51888	0.545
3.5522	0.667
3.58551	0.706
3.61883	0.73
3.65215	0.74
3.68546	0.739
3.71878	0.73
3.7521	0.726
3.78541	0.73
3.81873	0.748
3.85205	0.763
3.88536	0.773
3.91868	0.783
3.952	0.8
3.98531	0.813
4.01863	0.832
4.05195	0.844
4.08526	0.851
4.11858	0.856
4.1519	0.86
4.18521	0.865
4.21853	0.869
4.25185	0.872
4.28516	0.875
4.31848	0.878
4.3518	0.881
4.38511	0.884
4.41843	0.886
4.45175	0.889
4.48506	0.892
4.51838	0.894
4.5517	0.896
4.58501	0.896
4.61833	0.896
4.65165	0.894
4.68496	0.894
4.71828	0.897
4.7516	0.898
4.78491	0.898
4.81823	0.9
4.85154	0.9
4.88486	0.901
4.91818	0.9
4.95149	0.9
4.98481	0.898
5.01813	0.897
5.05144	0.897
5.08476	0.897
5.11808	0.896
5.15139	0.893
5.18471	0.889
5.21803	0.888
5.25134	0.886
5.28466	0.885
5.31798	0.885
5.35129	0.882
5.38461	0.881
5.41793	0.881
5.45124	0.88
5.48456	0.871
5.51788	0.872
5.55119	0.872
5.58451	0.872
5.61783	0.869
5.65114	0.861
5.68446	0.855
5.71778	0.825
5.75109	0.719
5.78441	0.494
5.81773	0.256
5.85104	0.214
5.88436	0.247
5.91768	0.449
5.95099	0.648
5.98431	0.722
6.01763	0.796
6.05094	0.827
6.08426	0.84
6.11758	0.851
6.15089	0.863
6.18421	0.871
6.21753	0.875
6.25084	0.878
6.28416	0.881
6.31748	0.884
6.35079	0.885
6.38411	0.888
6.41743	0.89
6.45074	0.89
6.48406	0.89
6.51738	0.89
6.55069	0.89
6.58401	0.889
6.61733	0.886
6.65064	0.878
6.68396	0.867
6.71727	0.849
6.75059	0.694
6.78391	0.525
6.81722	0.462
6.85054	0.613
6.88386	0.734
6.91717	0.743
6.95049	0.735
6.98381	0.732
7.01712	0.756
7.05044	0.71
7.08376	0.635
7.11707	0.722
7.15039	0.816
7.18371	0.847
7.21702	0.852
7.25034	0.827
7.28366	0.827
7.31697	0.836
7.35029	0.829
7.38361	0.815
7.41692	0.811
7.45024	0.812
7.48356	0.817
7.51687	0.8
7.55019	0.792
7.58351	0.698
7.61682	0.622
7.65014	0.578
7.68346	0.533
7.71677	0.55
7.75009	0.59
7.78341	0.666
7.81672	0.723
7.85004	0.755
7.88336	0.784
7.91667	0.801
7.94999	0.791
7.98331	0.82
8.01662	0.828
8.04994	0.804
8.08326	0.824
8.11657	0.836
8.14989	0.811
8.18321	0.817
8.21652	0.816
8.24984	0.8
8.28316	0.809
8.31647	0.809
8.34979	0.777
8.38311	0.82
8.41642	0.821
8.44974	0.784
8.48306	0.848
8.51637	0.871
8.54969	0.878
8.58301	0.882
8.61632	0.886
8.64964	0.889
8.68295	0.892
8.71627	0.893
8.74959	0.894
8.7829	0.894
8.81622	0.894
8.84954	0.892
8.88285	0.88
8.91617	0.865
8.94949	0.869
8.9828	0.873
9.01612	0.868
9.04944	0.868
9.08275	0.873
9.11607	0.884
9.14939	0.888
9.1827	0.886
9.21602	0.882
9.24934	0.881
9.28265	0.885
9.31597	0.888
9.34929	0.889
9.3826	0.888
9.41592	0.888
9.44924	0.888
9.48255	0.888
9.51587	0.888
9.54919	0.886
9.5825	0.885
9.61582	0.884
9.64914	0.882
9.68245	0.88
9.71577	0.877
9.74909	0.875
9.7824	0.871
9.81572	0.864
9.84904	0.861
9.88235	0.86
9.91567	0.857
9.94899	0.855
9.9823	0.849
10.0156	0.845
10.0489	0.84
10.0823	0.832
10.1156	0.823
10.1489	0.815
10.1822	0.804
10.2155	0.793
10.2488	0.784
10.2822	0.764
10.3155	0.75
10.3488	0.734
10.3821	0.718
10.4154	0.702
10.4487	0.688
10.4821	0.667
10.5154	0.648
10.5487	0.634
10.582	0.626
10.6153	0.625
10.6486	0.625
10.682	0.631
10.7153	0.651
10.7486	0.666
10.7819	0.68
10.8152	0.695
10.8485	0.707
10.8819	0.727
10.9152	0.742
10.9485	0.744
10.9818	0.747
11.0151	0.751
11.0484	0.757
11.0818	0.765
11.1151	0.775
11.1484	0.779
11.1817	0.784
11.215	0.789
11.2483	0.796
11.2817	0.807
11.315	0.82
11.3483	0.823
11.3816	0.829
11.4149	0.835
11.4482	0.843
11.4815	0.849
11.5149	0.855
11.5482	0.859
11.5815	0.861
11.6148	0.861
11.6481	0.863
11.6814	0.868
11.7148	0.875
11.7481	0.877
11.7814	0.881
11.8147	0.881
11.848	0.884
11.8813	0.886
11.9147	0.889
11.948	0.888
11.9813	0.886
12.0146	0.888
12.0479	0.889
12.0812	0.889
12.1146	0.892
12.1479	0.894
12.1812	0.897
12.2145	0.9
12.2478	0.9
12.2811	0.893
12.3145	0.884
12.3478	0.877
12.3811	0.875
12.4144	0.88
12.4477	0.886
12.481	0.892
12.5144	0.894
12.5477	0.898
12.581	0.898
12.6143	0.898
12.6476	0.897
12.6809	0.894
12.7143	0.89
12.7476	0.885
12.7809	0.886
12.8142	0.889
12.8475	0.892
12.8808	0.896
12.9142	0.896
12.9475	0.896
12.9808	0.896
13.0141	0.884
13.0474	0.878
13.0807	0.876
13.1141	0.877
13.1474	0.877
13.1807	0.877
13.214	0.881
13.2473	0.884
13.2806	0.885
13.314	0.884
13.3473	0.881
13.3806	0.878
13.4139	0.876
13.4472	0.871
13.4805	0.861
13.5139	0.851
13.5472	0.843
13.5805	0.836
13.6138	0.817
13.6471	0.789
13.6804	0.712
13.7138	0.606
13.7471	0.609
13.7804	0.651
13.8137	0.674
13.847	0.635
13.8803	0.562
13.9137	0.562
13.947	0.666
13.9803	0.768
14.0136	0.801
14.0469	0.819
14.0802	0.824
14.1136	0.831
14.1469	0.835
14.1802	0.836
14.2135	0.836
14.2468	0.836
14.2801	0.833
14.3135	0.827
14.3468	0.817
14.3801	0.807
14.4134	0.793
14.4467	0.781
14.48	0.768
14.5134	0.761
14.5467	0.759
14.58	0.76
14.6133	0.767
14.6466	0.772
14.6799	0.779
14.7133	0.783
14.7466	0.785
14.7799	0.785
14.8132	0.785
14.8465	0.785
14.8798	0.785
14.9132	0.784
14.9465	0.784
14.9798	0.785
15.0131	0.787
15.0464	0.788
15.0797	0.791
15.1131	0.789
15.1464	0.789
15.1797	0.789
15.213	0.789
