Infrared Spectrum: DECANOL
Formula: C10 H22 O
CAS: 112-30-1
State: SOLUTION (10% IN CCl4 FOR 3800-1300, 10% IN CS2 FOR 1300-650, 10% IN CCl4 FOR 650-230 CM^-^1) VERSUS SOLVENT
Class: COBLENTZ III
Instrument: PERKIN-ELMER 521 (GRATING)
Instrument parameters: FILTERS AT 3150, 2500, 2000, 1150, 700, 410; GRATING CHANGES AT 2000, 630 CM^-^1
Sampling: TRANSMISSION
Path length: 0.011, 0.010, AND 0.010 CM (CsBr CELL)
Resolution: 4
Origin: DOW CORNING CORP.
1/CM	TRANSMITTANCE
214.754	0.793
224.59	0.776
234.426	0.768
244.262	0.762
254.098	0.754
263.934	0.75
273.77	0.747
283.607	0.747
293.443	0.757
303.279	0.758
313.115	0.756
322.951	0.76
332.787	0.761
342.623	0.761
352.459	0.76
362.295	0.757
372.131	0.754
381.967	0.756
391.803	0.752
401.64	0.749
411.476	0.746
421.312	0.738
431.148	0.731
440.984	0.726
450.82	0.726
460.656	0.725
470.492	0.702
480.328	0.718
490.164	0.711
500	0.718
509.836	0.723
519.672	0.721
529.509	0.722
539.345	0.725
549.181	0.725
559.017	0.723
568.853	0.722
578.689	0.718
588.525	0.722
598.361	0.717
608.197	0.717
618.033	0.734
627.869	0.737
637.705	0.737
647.542	0.737
657.378	0.741
667.214	0.747
677.05	0.753
686.886	0.752
696.722	0.752
706.558	0.739
716.394	0.697
726.23	0.617
736.066	0.719
745.902	0.761
755.738	0.778
765.574	0.796
775.411	0.798
785.247	0.816
795.083	0.828
804.919	0.828
814.755	0.828
824.591	0.844
834.427	0.844
844.263	0.84
854.099	0.835
863.935	0.823
873.771	0.786
883.607	0.79
893.444	0.792
903.28	0.79
913.116	0.78
922.952	0.761
932.788	0.752
942.624	0.764
952.46	0.766
962.296	0.76
972.132	0.723
981.968	0.65
991.804	0.617
1001.64	0.565
1011.48	0.529
1021.31	0.466
1031.15	0.4
1040.98	0.327
1050.82	0.265
1060.66	0.262
1070.49	0.333
1080.33	0.416
1090.17	0.571
1100	0.667
1109.84	0.663
1119.67	0.65
1129.51	0.69
1139.35	0.731
1149.18	0.743
1159.02	0.741
1168.85	0.739
1178.69	0.742
1188.53	0.743
1198.36	0.743
1208.2	0.741
1218.03	0.738
1227.87	0.735
1237.71	0.734
1247.54	0.727
1257.38	0.723
1267.21	0.718
1277.05	0.699
1286.89	0.683
1296.72	0.664
1306.56	0.651
1316.39	0.65
1326.23	0.643
1336.07	0.62
1345.9	0.609
1355.74	0.609
1365.58	0.589
1375.41	0.506
1385.25	0.558
1395.08	0.593
1404.92	0.605
1414.76	0.611
1424.59	0.601
1434.43	0.532
1444.26	0.489
1454.1	0.368
1463.94	0.258
1473.77	0.4701
1483.61	0.679
1493.44	0.757
1503.28	0.788
1513.12	0.798
1522.95	0.805
1532.79	0.821
1542.62	0.827
1552.46	0.827
1562.3	0.825
1572.13	0.82
1581.97	0.817
1591.81	0.81
1601.64	0.804
1611.48	0.8
1621.31	0.797
1631.15	0.798
1640.99	0.801
1650.82	0.804
1660.66	0.809
1670.49	0.81
1680.33	0.813
1690.17	0.816
1700	0.815
1709.84	0.81
1719.67	0.816
1729.51	0.815
1739.35	0.827
1749.18	0.837
1759.02	0.839
1768.85	0.84
1778.69	0.841
1788.53	0.841
1798.36	0.843
1808.2	0.84
1818.04	0.841
1827.87	0.841
1837.71	0.84
1847.54	0.841
1857.38	0.841
1867.22	0.841
1877.05	0.84
1886.89	0.841
1896.72	0.841
1906.56	0.841
1916.4	0.841
1926.23	0.843
1936.07	0.841
1945.9	0.844
1955.74	0.849
1965.58	0.849
1975.41	0.851
1985.25	0.852
1995.08	0.855
2004.92	0.861
2014.76	0.863
2024.59	0.863
2034.43	0.8621
2044.26	0.861
2054.1	0.864
2063.94	0.8645
2073.77	0.864
2083.61	0.865
2093.45	0.865
2103.28	0.867
2113.12	0.865
2122.95	0.865
2132.79	0.865
2142.63	0.864
2152.46	0.864
2162.3	0.863
2172.13	0.864
2181.97	0.864
2191.81	0.864
2201.64	0.864
2211.48	0.863
2221.31	0.864
2231.15	0.864
2240.99	0.863
2250.82	0.863
2260.66	0.8636
2270.49	0.8617
2280.33	0.864
2290.17	0.864
2300	0.865
2309.84	0.865
2319.68	0.867
2329.51	0.867
2339.35	0.867
2349.18	0.867
2359.02	0.8664
2368.86	0.863
2378.69	0.8584
2388.53	0.855
2398.36	0.853
2408.2	0.853
2418.04	0.855
2427.87	0.852
2437.71	0.8523
2447.54	0.851
2457.38	0.8505
2467.22	0.847
2477.05	0.8425
2486.89	0.84
2496.72	0.837
2506.56	0.8358
2516.4	0.832
2526.23	0.831
2536.07	0.828
2545.91	0.825
2555.74	0.823
2565.58	0.8168
2575.41	0.8146
2585.25	0.8077
2595.09	0.8037
2604.92	0.7997
2614.76	0.796
2624.59	0.7929
2634.43	0.788
2644.27	0.7819
2654.1	0.7757
2663.94	0.762
2673.77	0.761
2683.61	0.76
2693.45	0.761
2703.28	0.7598
2713.12	0.7497
2722.95	0.7379
2732.79	0.7349
2742.63	0.733
2752.46	0.73
2762.3	0.7269
2772.13	0.7136
2781.97	0.6898
2791.81	0.6679
2801.64	0.6348
2811.48	0.5985
2821.32	0.5402
2831.15	0.4582
2840.99	0.3251
2850.82	0.0449
2860.66	0.0241
2870.5	0.064
2880.33	0.099
2890.17	0.1199
2900	0.067
2909.84	0.014
2919.68	0.008
2929.51	0.014
2939.35	0.025
2949.18	0.028
2959.02	0.0319
2968.86	0.0635
2978.69	0.3057
2988.53	0.5187
2998.36	0.6117
3008.2	0.6625
3018.04	0.6927
3027.87	0.7129
3037.71	0.725
3047.55	0.7288
3057.38	0.731
3067.22	0.731
3077.05	0.731
3086.89	0.7272
3096.73	0.7232
3106.56	0.7152
3116.4	0.7061
3126.23	0.6944
3136.07	0.684
3145.91	0.6631
3155.74	0.6501
3165.58	0.6267
3175.41	0.6046
3185.25	0.5848
3195.09	0.5613
3204.92	0.5335
3214.76	0.5124
3224.59	0.4821
3234.43	0.4556
3244.27	0.4211
3254.1	0.3966
3263.94	0.3662
3273.77	0.3456
3283.61	0.3179
3293.45	0.3067
3303.28	0.2891
3313.12	0.2785
3322.96	0.272
3332.79	0.269
3342.63	0.27
3352.46	0.2737
3362.3	0.2807
3372.14	0.2887
3381.97	0.3047
3391.81	0.3157
3401.64	0.333
3411.48	0.3513
3421.32	0.374
3431.15	0.3891
3440.99	0.4136
3450.82	0.4344
3460.66	0.4545
3470.5	0.4777
3480.33	0.503
3490.17	0.5227
3500	0.5507
3509.84	0.5783
3519.68	0.6083
3529.51	0.6445
3539.35	0.6785
3549.19	0.7089
3559.02	0.7314
3568.86	0.7566
3578.69	0.7732
3588.53	0.777
3598.37	0.7643
3608.2	0.7368
3618.04	0.6698
3627.87	0.64
3637.71	0.6759
3647.55	0.7955
3657.38	0.82
3667.22	0.817
3677.05	0.8458
3686.89	0.863
3696.73	0.8676
3706.56	0.8715
3716.4	0.871
3726.23	0.871
3736.07	0.869
3745.91	0.8701
3755.74	0.872
3765.58	0.872
3775.42	0.872
3785.25	0.872
