Infrared Spectrum: TRIDECANOL
Formula: C13 H28 O
CAS: 112-70-9
State: LIQUID
Class: COBLENTZ
Instrument: PERKIN-ELMER
Sampling: TRANSMISSION
Path length: 0.0052 CM
Resolution: 4
Origin: STANDARD OIL OF OHIO
MICROMETERS	TRANSMITTANCE
2.007	0.935
2.04089	0.93
2.07478	0.926
2.10866	0.925
2.14255	0.928
2.17644	0.93
2.21033	0.93
2.24422	0.92
2.27811	0.826
2.31199	0.78
2.34588	0.799
2.37977	0.819
2.41366	0.823
2.44755	0.828
2.48144	0.845
2.51532	0.869
2.54921	0.875
2.5831	0.88
2.61699	0.887
2.65088	0.896
2.68477	0.899
2.71865	0.889
2.75254	0.823
2.78643	0.726
2.82032	0.431
2.85421	0.236
2.8881	0.11
2.92198	0.045
2.95587	0.011
2.98976	0.005
3.02365	0.003
3.05754	0.008
3.09143	0.059
3.12531	0.156
3.1592	0.251
3.19309	0.341
3.22698	0.433
3.26087	0.459
3.29476	0.408
3.32864	0.21
3.36253	0.022
3.39642	0.006
3.43031	0.001
3.4642	0.001
3.49809	0.008
3.53197	0.13
3.56586	0.301
3.59975	0.426
3.63364	0.476
3.66753	0.482
3.70141	0.556
3.7353	0.59
3.76919	0.619
3.80308	0.642
3.83697	0.654
3.87086	0.685
3.90474	0.736
3.93863	0.763
3.97252	0.787
4.00641	0.804
4.0403	0.814
4.07419	0.824
4.10807	0.831
4.14196	0.833
4.17585	0.835
4.20974	0.838
4.24363	0.843
4.27752	0.85
4.3114	0.858
4.34529	0.867
4.37918	0.874
4.41307	0.879
4.44696	0.882
4.48085	0.886
4.51473	0.886
4.54862	0.886
4.58251	0.889
4.6164	0.889
4.65029	0.892
4.68418	0.896
4.71806	0.896
4.75195	0.896
4.78584	0.892
4.81973	0.886
4.85362	0.88
4.88751	0.884
4.92139	0.889
4.95528	0.896
4.98917	0.899
5.02306	0.901
5.05695	0.901
5.09084	0.903
5.12472	0.903
5.15861	0.903
5.1925	0.904
5.22639	0.904
5.26028	0.904
5.29416	0.906
5.32805	0.906
5.36194	0.906
5.39583	0.906
5.42972	0.906
5.46361	0.906
5.49749	0.904
5.53138	0.903
5.56527	0.901
5.59916	0.899
5.63305	0.892
5.66694	0.884
5.70082	0.875
5.73471	0.86
5.7686	0.855
5.80249	0.855
5.83638	0.855
5.87027	0.85
5.90415	0.845
5.93804	0.84
5.97193	0.833
6.00582	0.826
6.03971	0.824
6.0736	0.818
6.10748	0.812
6.14137	0.811
6.17526	0.807
6.20915	0.804
6.24304	0.799
6.27693	0.794
6.31081	0.794
6.3447	0.79
6.37859	0.789
6.41248	0.784
6.44637	0.777
6.48026	0.765
6.51414	0.75
6.54803	0.729
6.58192	0.702
6.61581	0.659
6.6497	0.566
6.68359	0.477
6.71747	0.352
6.75136	0.161
6.78525	0.025
6.81914	0.006
6.85303	0.008
6.88691	0.023
6.9208	0.093
6.95469	0.149
6.98858	0.19
7.02247	0.238
7.05636	0.255
7.09024	0.27
7.12413	0.273
7.15802	0.234
7.19191	0.117
7.2258	0.018
7.25969	0.027
7.29357	0.059
7.32746	0.127
7.36135	0.227
7.39524	0.256
7.42913	0.272
7.46302	0.282
7.4969	0.301
7.53079	0.326
7.56468	0.352
7.59857	0.365
7.63246	0.384
7.66635	0.399
7.70023	0.409
7.73412	0.421
7.76801	0.442
7.8019	0.464
7.83579	0.474
7.86968	0.481
7.90356	0.489
7.93745	0.496
7.97134	0.493
8.00523	0.482
8.03912	0.479
8.07301	0.484
8.10689	0.491
8.14078	0.494
8.17467	0.496
8.20856	0.498
8.24245	0.5
8.27634	0.501
8.31022	0.503
8.34411	0.506
8.378	0.508
8.41189	0.515
8.44578	0.522
8.47966	0.528
8.51355	0.52
8.54744	0.505
8.58133	0.506
8.61522	0.51
8.64911	0.508
8.68299	0.5
8.71688	0.489
8.75077	0.481
8.78466	0.455
8.81855	0.431
8.85244	0.416
8.88632	0.411
8.92021	0.413
8.9541	0.438
8.98799	0.472
9.02188	0.498
9.05577	0.494
9.08965	0.479
9.12354	0.437
9.15743	0.396
9.19132	0.323
9.22521	0.239
9.2591	0.151
9.29298	0.102
9.32687	0.069
9.36076	0.032
9.39465	0.017
9.42854	0.013
9.46243	0.011
9.49631	0.011
9.5302	0.017
9.56409	0.025
9.59798	0.032
9.63187	0.039
9.66576	0.047
9.69964	0.066
9.73353	0.079
9.76742	0.095
9.80131	0.105
9.8352	0.12
9.86909	0.13
9.90297	0.142
9.93686	0.159
9.97075	0.176
10.0046	0.212
10.0385	0.244
10.0724	0.275
10.1063	0.306
10.1402	0.341
10.1741	0.372
10.208	0.396
10.2419	0.409
10.2757	0.418
10.3096	0.423
10.3435	0.423
10.3774	0.431
10.4113	0.447
10.4452	0.462
10.4791	0.486
10.513	0.517
10.5469	0.532
10.5807	0.544
10.6146	0.554
10.6485	0.559
10.6824	0.562
10.7163	0.579
10.7502	0.588
10.7841	0.593
10.818	0.595
10.8518	0.59
10.8857	0.579
10.9196	0.581
10.9535	0.586
10.9874	0.586
11.0213	0.583
11.0552	0.583
11.0891	0.579
11.123	0.581
11.1568	0.585
11.1907	0.591
11.2246	0.605
11.2585	0.617
11.2924	0.624
11.3263	0.63
11.3602	0.639
11.3941	0.647
11.4279	0.653
11.4618	0.654
11.4957	0.659
11.5296	0.659
11.5635	0.663
11.5974	0.663
11.6313	0.661
11.6652	0.656
11.6991	0.654
11.7329	0.651
11.7668	0.644
11.8007	0.639
11.8346	0.637
11.8685	0.637
11.9024	0.639
11.9363	0.644
11.9702	0.649
12.004	0.653
12.0379	0.653
12.0718	0.653
12.1057	0.653
12.1396	0.649
12.1735	0.647
12.2074	0.642
12.2413	0.639
12.2752	0.636
12.309	0.632
12.3429	0.63
12.3768	0.629
12.4107	0.625
12.4446	0.622
12.4785	0.617
12.5124	0.61
12.5463	0.605
12.5801	0.596
12.614	0.585
12.6479	0.576
12.6818	0.561
12.7157	0.551
12.7496	0.539
12.7835	0.53
12.8174	0.52
12.8513	0.511
12.8851	0.503
12.919	0.498
12.9529	0.493
12.9868	0.491
13.0207	0.489
13.0546	0.491
13.0885	0.489
13.1224	0.489
13.1563	0.488
13.1901	0.486
13.224	0.482
13.2579	0.476
13.2918	0.469
13.3257	0.462
13.3596	0.459
13.3935	0.452
13.4274	0.443
13.4612	0.435
13.4951	0.431
13.529	0.423
13.5629	0.418
13.5968	0.413
13.6307	0.411
13.6646	0.409
13.6985	0.409
13.7324	0.409
13.7662	0.409
13.8001	0.408
13.834	0.409
13.8679	0.413
13.9018	0.418
13.9357	0.421
13.9696	0.425
14.0035	0.426
14.0373	0.428
14.0712	0.428
14.1051	0.428
14.139	0.43
14.1729	0.43
14.2068	0.43
14.2407	0.428
14.2746	0.426
14.3085	0.425
14.3423	0.423
14.3762	0.421
14.4101	0.418
14.444	0.418
14.4779	0.414
14.5118	0.411
14.5457	0.409
14.5796	0.406
14.6134	0.404
14.6473	0.401
14.6812	0.399
14.7151	0.397
14.749	0.397
14.7829	0.392
14.8168	0.391
14.8507	0.389
14.8846	0.386
14.9184	0.384
14.9523	0.382
14.9862	0.379
15.0201	0.375
15.054	0.372
15.0879	0.37
15.1218	0.37
15.1557	0.37
15.1895	0.37
15.2234	0.37
15.2573	0.37
15.2912	0.37
15.3251	0.37
15.359	0.367
