Infrared Spectrum: ELAIDIC ACID
Formula: C18 H34 O2
CAS: 112-79-8
State: SOLUTION (9% CS2 FOR 5000-2380 AND 1390-625, 9% C2Cl4 FOR 2380-1390 CM^-^1)
Class: COBLENTZ
Instrument: PERKIN-ELMER
Sampling: TRANSMISSION
Path length: 0.01 CM, 0.01 CM
Resolution: 4
Origin: HORMEL INSTITUTE
MICROMETERS	TRANSMITTANCE
2.041	0.983
2.07487	0.983
2.10874	0.983
2.14261	0.984
2.17648	0.984
2.21035	0.981
2.24422	0.981
2.27809	0.964
2.31196	0.944
2.34583	0.942
2.3797	0.949
2.41357	0.954
2.44744	0.954
2.48131	0.959
2.51518	0.962
2.54905	0.966
2.58292	0.969
2.61679	0.969
2.65066	0.969
2.68453	0.972
2.71839	0.969
2.75226	0.967
2.78613	0.969
2.82	0.966
2.85387	0.955
2.88774	0.955
2.92161	0.942
2.95548	0.918
2.98935	0.888
3.02322	0.842
3.05709	0.788
3.09096	0.732
3.12483	0.661
3.1587	0.598
3.19257	0.54
3.22644	0.498
3.26031	0.467
3.29418	0.42
3.32805	0.384
3.36192	0.196
3.39579	0.05
3.42966	0.033
3.46353	0.164
3.4974	0.098
3.53127	0.411
3.56514	0.561
3.59901	0.618
3.63288	0.633
3.66675	0.64
3.70062	0.632
3.73449	0.611
3.76836	0.625
3.80223	0.65
3.8361	0.674
3.86997	0.684
3.90384	0.705
3.93771	0.74
3.97158	0.772
4.00545	0.805
4.03931	0.827
4.07318	0.844
4.10705	0.861
4.14092	0.871
4.17479	0.877
4.20866	0.894
4.24253	0.896
4.2764	0.901
4.31027	0.91
4.34414	0.913
4.37801	0.922
4.41188	0.923
4.44575	0.923
4.47962	0.93
4.51349	0.932
4.54736	0.933
4.58123	0.933
4.6151	0.937
4.64897	0.937
4.68284	0.937
4.71671	0.937
4.75058	0.938
4.78445	0.938
4.81832	0.938
4.85219	0.937
4.88606	0.935
4.91993	0.933
4.9538	0.933
4.98767	0.933
5.02154	0.932
5.05541	0.93
5.08928	0.927
5.12315	0.925
5.15702	0.923
5.19089	0.923
5.22476	0.922
5.25863	0.918
5.2925	0.916
5.32637	0.913
5.36024	0.91
5.3941	0.903
5.42797	0.898
5.46184	0.891
5.49571	0.884
5.52958	0.874
5.56345	0.867
5.59732	0.852
5.63119	0.832
5.66506	0.761
5.69893	0.716
5.7328	0.633
5.76667	0.467
5.80054	0.162
5.83441	0.02
5.86828	0.101
5.90215	0.362
5.93602	0.642
5.96989	0.72
6.00376	0.791
6.03763	0.823
6.0715	0.854
6.10537	0.872
6.13924	0.886
6.17311	0.9
6.20698	0.91
6.24085	0.91
6.27472	0.913
6.30859	0.913
6.34246	0.922
6.37633	0.922
6.4102	0.927
6.44407	0.92
6.47794	0.923
6.51181	0.916
6.54568	0.911
6.57955	0.893
6.61342	0.894
6.64729	0.894
6.68116	0.891
6.71502	0.866
6.74889	0.825
6.78276	0.642
6.81663	0.374
6.8505	0.393
6.88437	0.461
6.91824	0.483
6.95211	0.461
6.98598	0.494
7.01985	0.511
7.05372	0.442
7.08759	0.464
7.12146	0.654
7.15533	0.744
7.1892	0.774
7.22307	0.744
7.25694	0.701
7.29081	0.705
7.32468	0.715
7.35855	0.703
7.39242	0.684
7.42629	0.676
7.46016	0.672
7.49403	0.667
7.5279	0.642
7.56177	0.603
7.59564	0.562
7.62951	0.516
7.66338	0.486
7.69725	0.462
7.73112	0.433
7.76499	0.413
7.79886	0.423
7.83273	0.472
7.8666	0.523
7.90047	0.542
7.93434	0.544
7.96821	0.533
8.00208	0.516
8.03594	0.523
8.06981	0.552
8.10368	0.571
8.13755	0.576
8.17142	0.577
8.20529	0.594
8.23916	0.611
8.27303	0.644
8.3069	0.694
8.34077	0.725
8.37464	0.755
8.40851	0.772
8.44238	0.783
8.47625	0.794
8.51012	0.801
8.54399	0.806
8.57786	0.811
8.61173	0.818
8.6456	0.823
8.67947	0.825
8.71334	0.83
8.74721	0.833
8.78108	0.837
8.81495	0.84
8.84882	0.827
8.88269	0.81
8.91656	0.8
8.95043	0.805
8.9843	0.816
9.01817	0.823
9.05204	0.823
9.08591	0.813
9.11978	0.806
9.15365	0.805
9.18752	0.81
9.22139	0.816
9.25526	0.822
9.28913	0.825
9.323	0.835
9.35687	0.84
9.39073	0.85
9.4246	0.855
9.45847	0.861
9.49234	0.862
9.52621	0.864
9.56008	0.866
9.59395	0.866
9.62782	0.864
9.66169	0.866
9.69556	0.866
9.72943	0.862
9.7633	0.862
9.79717	0.859
9.83104	0.855
9.86491	0.85
9.89878	0.849
9.93265	0.844
9.96652	0.838
10.0004	0.83
10.0343	0.822
10.0681	0.81
10.102	0.791
10.1359	0.772
10.1697	0.732
10.2036	0.679
10.2375	0.593
10.2713	0.464
10.3052	0.333
10.3391	0.279
10.373	0.354
10.4068	0.471
10.4407	0.54
10.4746	0.559
10.5084	0.555
10.5423	0.544
10.5762	0.533
10.61	0.523
10.6439	0.522
10.6778	0.523
10.7117	0.528
10.7455	0.535
10.7794	0.547
10.8133	0.562
10.8471	0.583
10.881	0.6
10.9149	0.62
10.9487	0.635
10.9826	0.652
11.0165	0.664
11.0504	0.679
11.0842	0.693
11.1181	0.703
11.152	0.72
11.1858	0.727
11.2197	0.738
11.2536	0.754
11.2874	0.761
11.3213	0.767
11.3552	0.776
11.389	0.783
11.4229	0.788
11.4568	0.794
11.4907	0.798
11.5245	0.805
11.5584	0.808
11.5923	0.813
11.6261	0.822
11.66	0.827
11.6939	0.837
11.7277	0.85
11.7616	0.854
11.7955	0.859
11.8294	0.861
11.8632	0.859
11.8971	0.859
11.931	0.861
11.9648	0.864
11.9987	0.862
12.0326	0.864
12.0664	0.866
12.1003	0.866
12.1342	0.866
12.1681	0.867
12.2019	0.867
12.2358	0.869
12.2697	0.867
12.3035	0.867
12.3374	0.867
12.3713	0.867
12.4051	0.866
12.439	0.866
12.4729	0.867
12.5068	0.867
12.5406	0.867
12.5745	0.872
12.6084	0.874
12.6422	0.872
12.6761	0.872
12.71	0.872
12.7438	0.874
12.7777	0.874
12.8116	0.874
12.8454	0.874
12.8793	0.874
12.9132	0.874
12.9471	0.872
12.9809	0.872
13.0148	0.869
13.0487	0.866
13.0825	0.864
13.1164	0.864
13.1503	0.866
13.1841	0.862
13.218	0.864
13.2519	0.864
13.2858	0.862
13.3196	0.862
13.3535	0.864
13.3874	0.861
13.4212	0.855
13.4551	0.852
13.489	0.849
13.5228	0.849
13.5567	0.845
13.5906	0.838
13.6245	0.83
13.6583	0.82
13.6922	0.808
13.7261	0.783
13.7599	0.766
13.7938	0.744
13.8277	0.72
13.8615	0.715
13.8954	0.732
13.9293	0.764
13.9632	0.788
13.997	0.811
14.0309	0.827
14.0648	0.849
14.0986	0.859
14.1325	0.869
14.1664	0.872
14.2002	0.883
14.2341	0.888
14.268	0.889
14.3018	0.893
14.3357	0.896
14.3696	0.898
14.4035	0.9
14.4373	0.901
14.4712	0.9
14.5051	0.901
14.5389	0.9
14.5728	0.9
14.6067	0.9
14.6405	0.893
14.6744	0.891
14.7083	0.891
14.7422	0.891
14.776	0.888
14.8099	0.884
14.8438	0.884
14.8776	0.886
14.9115	0.883
14.9454	0.879
14.9792	0.881
15.0131	0.891
15.047	0.891
15.0809	0.889
