Infrared Spectrum: Methyl stearate
Formula: C19 H38 O2
CAS: 112-61-8
State: SOLUTION (10% CCl4 FOR 2.7-7.5, 10% CS2 FOR 7.5-26 MICRON) VS SOLVENT
Class: COBLENTZ III
Instrument: DOW KBr FOREPRISM-GRATING
Instrument parameters: BLAZED AT 3.5, 12.0, 20.0 MICRON AND CHANGED AT 5.0, 7.5, 14.9 MICRON
Sampling: TRANSMISSION
Path length: 0.011 CM, 0.011 CM
Resolution: 2
Origin: DOW CHEMICAL COMPANY
1/CM	TRANSMITTANCE
3796	0.8516
3787	0.8521
3778	0.8527
3769	0.8528
3760	0.8528
3751	0.8528
3742	0.8528
3733	0.853
3724	0.853
3715	0.8531
3706	0.8532
3697	0.8539
3688	0.8558
3679	0.8557
3670	0.8565
3661	0.8574
3652	0.8577
3643	0.8578
3634	0.8578
3625	0.8578
3616	0.8581
3607	0.859
3598	0.8598
3589	0.8607
3580	0.8624
3571	0.8646
3562	0.8668
3553	0.8689
3544	0.8705
3535	0.872
3526	0.8736
3517	0.8746
3508	0.8754
3499	0.8763
3490	0.8773
3481	0.8771
3472	0.8737
3463	0.8686
3454	0.8652
3445	0.8648
3436	0.868
3427	0.8736
3418	0.8781
3409	0.8821
3400	0.8848
3391	0.8866
3382	0.8873
3373	0.888
3364	0.8889
3355	0.8897
3346	0.8905
3337	0.8907
3328	0.891
3319	0.8913
3310	0.8915
3301	0.8918
3292	0.8916
3283	0.8914
3274	0.8912
3265	0.8909
3256	0.8899
3247	0.8888
3238	0.8878
3229	0.8868
3220	0.8862
3211	0.8851
3202	0.8839
3193	0.8827
3184	0.8815
3175	0.8801
3166	0.8778
3157	0.8757
3148	0.874
3139	0.8723
3130	0.8709
3121	0.8686
3112	0.8663
3103	0.8632
3094	0.8596
3085	0.8552
3076	0.8501
3067	0.8428
3058	0.8345
3049	0.8233
3040	0.8076
3031	0.7828
3022	0.7301
3013	0.7081
3004	0.6951
2995	0.5965
2986	0.5479
2977	0.4277
2968	0.2266
2959	0.0937
2950	0.0693
2941	0.04
2932	0.0157
2923	0.011
2914	0.0112
2905	0.025
2896	0.0764
2887	0.2096
2878	0.2784
2869	0.2088
2860	0.0402
2851	0.0161
2842	0.2781
2833	0.4608
2824	0.6015
2815	0.6725
2806	0.7062
2797	0.7342
2788	0.7555
2779	0.7754
2770	0.7938
2761	0.8069
2752	0.8151
2743	0.8171
2734	0.8175
2725	0.8183
2716	0.8212
2707	0.8251
2698	0.8268
2689	0.8235
2680	0.8195
2671	0.8165
2662	0.8139
2653	0.8164
2644	0.8204
2635	0.8243
2626	0.8278
2617	0.831
2608	0.8343
2599	0.8375
2590	0.8407
2581	0.8438
2572	0.847
2563	0.8499
2554	0.8528
2545	0.8557
2536	0.8584
2527	0.861
2518	0.8636
2509	0.8661
2500	0.8687
2491	0.8704
2482	0.8721
2473	0.8736
2464	0.8735
2455	0.8734
2446	0.8733
2437	0.8731
2428	0.8728
2419	0.8727
2410	0.8725
2401	0.8721
2392	0.8721
2383	0.8721
2374	0.8723
2365	0.8725
2356	0.8728
2347	0.8728
2338	0.8728
2329	0.871
2320	0.8675
2311	0.8668
2302	0.8675
2293	0.8682
2284	0.869
2275	0.8698
2266	0.8707
2257	0.8716
2248	0.8725
2239	0.8735
2230	0.8745
2221	0.8756
2212	0.8767
2203	0.8778
2194	0.8791
2185	0.8814
2176	0.8875
2167	0.8843
2158	0.8823
2149	0.882
2140	0.8825
2131	0.8828
2122	0.8833
2113	0.883
2104	0.8811
2095	0.878
2086	0.8751
2077	0.8725
2068	0.8707
2059	0.8691
2050	0.8688
2041	0.8686
2032	0.869
2023	0.8693
2014	0.8698
2005	0.8703
1996	0.8713
1987	0.8727
1978	0.8742
1969	0.8757
1960	0.8766
1951	0.8775
1942	0.8781
1933	0.8782
1924	0.8781
1915	0.8775
1906	0.8774
1897	0.8775
1888	0.8775
1879	0.8778
1870	0.8778
1861	0.877
1852	0.8758
1843	0.8742
1834	0.872
1825	0.8688
1816	0.8628
1807	0.8547
1798	0.8438
1789	0.827
1780	0.8034
1771	0.7649
1762	0.7083
1753	0.4205
1744	0.1301
1735	0.0101
1726	0.165
1717	0.4881
1708	0.5772
1699	0.6534
1690	0.7297
1681	0.7791
1672	0.8058
1663	0.8239
1654	0.8349
1645	0.8415
1636	0.8466
1627	0.8503
1618	0.8539
1609	0.8573
1600	0.8605
1591	0.8627
1582	0.8615
1573	0.8598
1564	0.8608
1555	0.8625
1546	0.8628
1537	0.8609
1528	0.8555
1519	0.8487
1510	0.8381
1501	0.8235
1492	0.8012
1483	0.7703
1474	0.637
1465	0.2399
1456	0.2916
1447	0.4123
1438	0.2557
1429	0.5994
1420	0.6199
1411	0.7143
1402	0.7561
1393	0.7608
1384	0.7174
1375	0.5493
1366	0.4924
1357	0.4918
1348	0.5424
1339	0.5894
1330	0.6106
1321	0.6042
1312	0.5828
1303	0.5651
1294	0.5615
1285	0.5626
1276	0.556
1267	0.5235
1258	0.4659
1249	0.3891
1240	0.3848
1231	0.4022
1222	0.4133
1213	0.393
1204	0.3399
1195	0.2881
1186	0.3297
1177	0.3279
1168	0.2003
1159	0.2542
1150	0.3838
1141	0.5135
1132	0.6217
1123	0.6258
1114	0.5248
1105	0.5701
1096	0.6292
1087	0.6597
1078	0.6837
1069	0.7007
1060	0.7192
1051	0.7389
1042	0.7515
1033	0.7522
1024	0.7398
1015	0.7132
1006	0.7005
997	0.7201
988	0.7435
979	0.7708
970	0.7968
961	0.8167
952	0.831
943	0.8407
934	0.8459
925	0.8487
916	0.8502
907	0.8505
898	0.8478
889	0.8325
880	0.7936
871	0.7861
862	0.7904
853	0.8008
844	0.8112
835	0.8146
826	0.8244
817	0.8368
808	0.844
799	0.8499
790	0.852
781	0.842
772	0.8345
763	0.8306
754	0.827
745	0.814
736	0.7892
727	0.73
718	0.6347
709	0.7803
700	0.8248
691	0.8501
682	0.8625
673	0.8668
664	0.8706
655	0.8652
646	0.8506
637	0.8483
628	0.8442
619	0.8373
610	0.8246
601	0.82
592	0.8192
583	0.8193
574	0.8214
565	0.8271
556	0.8315
547	0.8346
538	0.835
529	0.8286
520	0.8251
511	0.8271
502	0.8295
493	0.8296
484	0.8268
475	0.8266
466	0.8268
457	0.8268
448	0.823
439	0.8171
430	0.8149
421	0.8137
412	0.8144
403	0.8151
394	0.8156
