Infrared Spectrum: Tetraethylene glycol
Formula: C8 H18 O5
CAS: 112-60-7
State: LIQUID (NEAT)
Class: COBLENTZ III
Instrument: BAIRD (PRISM)
Instrument parameters: NaCl PRISM
Sampling: TRANSMISSION
Path length: CAPILLARY & SMEAR
Resolution: 2
Origin: WYANDOTTE CHEMICALS CORP.
1/CM	TRANSMITTANCE
626	0.5363
635	0.5188
644	0.504
653	0.4977
662	0.509
671	0.5088
680	0.524
689	0.551
698	0.5741
707	0.5898
716	0.6092
725	0.6323
734	0.654
743	0.6729
752	0.6944
761	0.7113
770	0.7306
779	0.7226
788	0.6923
797	0.6291
806	0.563
815	0.5146
824	0.444
833	0.4164
842	0.4701
851	0.5234
860	0.5008
869	0.3752
878	0.2644
887	0.1819
896	0.2914
905	0.3801
914	0.3133
923	0.2258
932	0.1731
941	0.184
950	0.3306
959	0.4672
968	0.5535
977	0.5353
986	0.4792
995	0.4184
1004	0.3962
1013	0.3151
1022	0.2011
1031	0.1079
1040	0.0684
1049	0.0543
1058	0.0299
1067	0.017
1076	0.0167
1085	0.0192
1094	0.0217
1103	0.0188
1112	0.0178
1121	0.0193
1130	0.02
1139	0.024
1148	0.0301
1157	0.0913
1166	0.2515
1175	0.4119
1184	0.4966
1193	0.5229
1202	0.5082
1211	0.4372
1220	0.3357
1229	0.2924
1238	0.2725
1247	0.2195
1256	0.2092
1265	0.266
1274	0.3099
1283	0.2871
1292	0.2451
1301	0.2371
1310	0.2567
1319	0.3145
1328	0.3085
1337	0.3437
1346	0.3375
1355	0.1489
1364	0.1802
1373	0.2687
1382	0.3327
1391	0.3584
1400	0.3555
1409	0.3421
1418	0.343
1427	0.3569
1436	0.3681
1445	0.3511
1454	0.2926
1463	0.2314
1472	0.2186
1481	0.247
1490	0.377
1499	0.523
1508	0.684
1517	0.7771
1526	0.8106
1535	0.8275
1544	0.8414
1553	0.8527
1562	0.8614
1571	0.8655
1580	0.8664
1589	0.869
1598	0.8699
1607	0.8677
1616	0.8634
1625	0.857
1634	0.8471
1643	0.8357
1652	0.8212
1661	0.8043
1670	0.803
1679	0.8379
1688	0.8549
1697	0.8695
1706	0.894
1715	0.9099
1724	0.9177
1733	0.9244
1742	0.9311
1751	0.938
1760	0.9446
1769	0.9545
1778	0.9584
1787	0.961
1796	0.9628
1805	0.9642
1814	0.9655
1823	0.9654
1832	0.965
1841	0.9634
1850	0.9612
1859	0.9574
1868	0.9521
1877	0.9461
1886	0.9374
1895	0.9261
1904	0.9137
1913	0.8979
1922	0.8823
1931	0.872
1940	0.8675
1949	0.8779
1958	0.8938
1967	0.9092
1976	0.9232
1985	0.9339
1994	0.9442
2003	0.9494
2012	0.9489
2021	0.9468
2030	0.9436
2039	0.9409
2048	0.9383
2057	0.9357
2066	0.9331
2075	0.9304
2084	0.9275
2093	0.9249
2102	0.9244
2111	0.9238
2120	0.9259
2129	0.9285
2138	0.9313
2147	0.9324
2156	0.9323
2165	0.9312
2174	0.9301
2183	0.9289
2192	0.9279
2201	0.9272
2210	0.9265
2219	0.9263
2228	0.9264
2237	0.9265
2246	0.9274
2255	0.9283
2264	0.9293
2273	0.9319
2282	0.9359
2291	0.9406
2300	0.9394
2309	0.9356
2318	0.9296
2327	0.9234
2336	0.9175
2345	0.912
2354	0.9092
2363	0.9085
2372	0.908
2381	0.9075
2390	0.8964
2399	0.8854
2408	0.8789
2417	0.8726
2426	0.8664
2435	0.8606
2444	0.8548
2453	0.8497
2462	0.8447
2471	0.8425
2480	0.8417
2489	0.8409
2498	0.8404
2507	0.84
2516	0.8396
2525	0.8392
2534	0.8387
2543	0.8376
2552	0.8355
2561	0.8324
2570	0.8284
2579	0.8245
2588	0.8214
2597	0.8198
2606	0.8177
2615	0.81
2624	0.8023
2633	0.7945
2642	0.7862
2651	0.7785
2660	0.7676
2669	0.7498
2678	0.7335
2687	0.6903
2696	0.6506
2705	0.6229
2714	0.6079
2723	0.5872
2732	0.5703
2741	0.5586
2750	0.5471
2759	0.5358
2768	0.5248
2777	0.5132
2786	0.4781
2795	0.4193
2804	0.3977
2813	0.3611
2822	0.3116
2831	0.2509
2840	0.1926
2849	0.1276
2858	0.0979
2867	0.0714
2876	0.0483
2885	0.0394
2894	0.0373
2903	0.0369
2912	0.0372
2921	0.0385
2930	0.0401
2939	0.0421
2948	0.0447
2957	0.0492
2966	0.0561
2975	0.0666
2984	0.0839
2993	0.1393
3002	0.3247
3011	0.4471
3020	0.5215
3029	0.6212
3038	0.6407
3047	0.6432
3056	0.6425
3065	0.6377
3074	0.6278
3083	0.6163
3092	0.5992
3101	0.5771
3110	0.5549
3119	0.533
3128	0.5112
3137	0.4893
3146	0.4595
3155	0.4321
3164	0.4004
3173	0.3686
3182	0.3414
3191	0.3085
3200	0.2775
3209	0.2405
3218	0.2215
3227	0.2073
3236	0.1934
3245	0.1758
3254	0.1478
3263	0.1112
3272	0.0922
3281	0.0815
3290	0.0741
3299	0.0675
3308	0.063
3317	0.0595
3326	0.0577
3335	0.0563
3344	0.0552
3353	0.0546
3362	0.0544
3371	0.0544
3380	0.0545
3389	0.0547
3398	0.0552
3407	0.0558
3416	0.0564
3425	0.0585
3434	0.0616
3443	0.0651
3452	0.069
3461	0.0733
3470	0.0778
3479	0.0834
3488	0.0954
3497	0.1078
3506	0.1208
3515	0.1352
3524	0.1594
3533	0.2004
3542	0.2203
3551	0.2391
3560	0.2688
3569	0.2917
3578	0.3401
3587	0.3724
3596	0.4198
3605	0.4734
3614	0.6597
3623	0.7006
3632	0.7815
3641	0.8242
3650	0.8436
3659	0.8618
3668	0.8839
3677	0.9062
3686	0.9226
3695	0.9312
3704	0.9348
3713	0.9365
3722	0.937
3731	0.9375
3740	0.938
3749	0.938
3758	0.938
3767	0.9377
3776	0.9372
3785	0.9366
3794	0.9359
3803	0.9358
3812	0.9359
3821	0.937
3830	0.9385
3839	0.9401
3848	0.9417
3857	0.9429
3866	0.944
3875	0.9441
3884	0.9435
3893	0.9428
3902	0.9422
3911	0.9413
3920	0.9404
3929	0.9394
3938	0.9382
3947	0.9363
3956	0.9344
3965	0.9324
3974	0.9306
3983	0.9286
3992	0.9264
