Infrared Spectrum: PENTYL DISULFIDE
Formula: C10 H22 S2
CAS: 112-51-6
State: SOLUTION (10% CCl4 FOR 3800-1340, 10% CS2 FOR 1340-450 CM^-^1)
Class: COBLENTZ III
Instrument: DOW KBr FOREPRISM-GRATING
Instrument parameters: BLAZED AT 3.5, 12.0, 20.0 MICRON AND CHANGED AT 5.0, 7.5, 14.9 MICRON
Sampling: TRANSMISSION
Path length: 0.011 CM, 0.010 CM
Resolution: 2
Origin: DOW CHEMICAL COMPANY
1/CM	TRANSMITTANCE
449.271	1.051
458.017	1.039
466.764	1.031
475.51	1.03
484.256	1.03
493.003	1.032
501.749	1.034
510.496	1.035
519.242	1.04
527.988	1.04
536.735	1.049
545.481	1.053
554.227	1.054
562.974	1.056
571.72	1.058
580.467	1.053
589.213	1.056
597.959	1.051
606.706	1.057
615.452	1.05
624.198	1.032
632.945	1.016
641.691	1.009
650.438	0.994
659.184	0.982
667.93	1.004
676.677	1.001
685.423	0.991
694.169	0.974
702.916	0.959
711.662	0.952
720.408	0.938
729.155	0.836
737.901	0.87
746.648	0.896
755.394	0.934
764.14	0.942
772.887	0.954
781.633	0.96
790.379	0.963
799.126	0.974
807.872	0.972
816.619	0.968
825.365	0.948
834.111	0.956
842.858	0.942
851.604	0.871
860.35	0.816
869.097	0.842
877.843	0.886
886.59	0.926
895.336	0.956
904.082	0.96
912.829	0.963
921.575	0.937
930.321	0.939
939.068	0.971
947.814	0.969
956.56	0.963
965.307	0.946
974.053	0.956
982.8	0.978
991.546	0.983
1000.29	0.983
1009.04	0.984
1017.79	0.972
1026.53	0.967
1035.28	0.957
1044.02	0.967
1052.77	0.964
1061.52	0.948
1070.26	0.92
1079.01	0.913
1087.76	0.93
1096.5	0.943
1105.25	0.931
1114	0.931
1122.74	0.976
1131.49	0.984
1140.23	0.989
1148.98	0.975
1157.73	0.968
1166.47	0.953
1175.22	0.946
1183.97	0.933
1192.71	0.937
1201.46	0.911
1210.21	0.792
1218.95	0.818
1227.7	0.871
1236.44	0.92
1245.19	0.87
1253.94	0.756
1262.68	0.765
1271.43	0.75
1280.18	0.747
1288.92	0.87
1297.67	0.792
1306.42	0.795
1315.16	0.877
1323.91	0.913
1332.65	0.872
1341.4	0.84
1350.15	0.818
1358.89	0.842
1367.64	0.804
1376.39	0.759
1385.13	0.5731
1393.88	0.826
1402.63	0.862
1411.37	0.797
1420.12	0.732
1428.86	0.793
1437.61	0.661
1446.36	0.631
1455.1	0.508
1463.85	0.366
1472.6	0.3671
1481.34	0.781
1490.09	0.834
1498.84	0.825
1507.58	0.799
1516.33	0.759
1525.07	0.726
1533.82	0.677
1542.57	0.583
1551.31	0.523
1560.06	0.546
1568.81	0.636
1577.55	0.691
1586.3	0.711
1595.05	0.765
1603.79	0.841
1612.54	0.897
1621.28	0.931
1630.03	0.945
1638.78	0.954
1647.52	0.956
1656.27	0.959
1665.02	0.956
1673.76	0.956
1682.51	0.956
1691.26	0.957
1700	0.956
1708.75	0.956
1717.49	0.953
1726.24	0.952
1734.99	0.96
1743.73	0.963
1752.48	0.964
1761.23	0.965
1769.97	0.965
1778.72	0.967
1787.47	0.967
1796.21	0.967
1804.96	0.967
1813.7	0.967
1822.45	0.967
1831.2	0.965
1839.94	0.967
1848.69	0.967
1857.44	0.964
1866.18	0.965
1874.93	0.968
1883.68	0.969
1892.42	0.969
1901.17	0.969
1909.91	0.968
1918.66	0.968
1927.41	0.969
1936.15	0.971
1944.9	0.972
1953.65	0.972
1962.39	0.974
1971.14	0.975
1979.89	0.978
1988.63	0.979
1997.38	0.982
2006.12	0.984
2014.87	0.984
2023.62	0.986
2032.36	0.987
2041.11	0.989
2049.86	0.989
2058.6	0.99
2067.35	0.99
2076.1	0.991
2084.84	0.991
2093.59	0.991
2102.33	0.991
2111.08	0.991
2119.83	0.99
2128.57	0.989
2137.32	0.9898
2146.07	0.989
2154.81	0.989
2163.56	0.989
2172.31	0.987
2181.05	0.9862
2189.8	0.986
2198.55	0.984
2207.29	0.983
2216.04	0.983
2224.78	0.982
2233.53	0.982
2242.28	0.982
2251.02	0.979
2259.77	0.978
2268.52	0.975
2277.26	0.971
2286.01	0.968
2294.76	0.9649
2303.5	0.965
2312.25	0.965
2320.99	0.967
2329.74	0.967
2338.49	0.968
2347.23	0.969
2355.98	0.971
2364.73	0.972
2373.47	0.974
2382.22	0.975
2390.97	0.975
2399.71	0.975
2408.46	0.976
2417.2	0.976
2425.95	0.978
2434.7	0.979
2443.44	0.98
2452.19	0.98
2460.94	0.98
2469.68	0.98
2478.43	0.98
2487.18	0.98
2495.92	0.98
2504.67	0.98
2513.41	0.979
2522.16	0.979
2530.91	0.978
2539.65	0.976
2548.4	0.976
2557.15	0.976
2565.89	0.974
2574.64	0.9714
2583.39	0.9684
2592.13	0.968
2600.88	0.968
2609.62	0.9657
2618.37	0.963
2627.12	0.9576
2635.86	0.956
2644.61	0.957
2653.36	0.956
2662.1	0.953
2670.85	0.9492
2679.6	0.9498
2688.34	0.954
2697.09	0.957
2705.83	0.957
2714.58	0.9531
2723.33	0.9481
2732.07	0.9392
2740.82	0.933
2749.57	0.9409
2758.31	0.948
2767.06	0.948
2775.81	0.9431
2784.55	0.934
2793.3	0.913
2802.04	0.8959
2810.79	0.8568
2819.54	0.8258
2828.28	0.8147
2837.03	0.7674
2845.78	0.6475
2854.52	0.3406
2863.27	0.1699
2872.02	0.1998
2880.76	0.1569
2889.51	0.3968
2898.25	0.3001
2907	0.1672
2915.75	0.0946
2924.49	0.0446
2933.24	0.0225
2941.99	0.0461
2950.73	0.0695
2959.48	0.0257
2968.23	0.021
2976.97	0.2109
2985.72	0.4388
2994.46	0.6366
3003.21	0.7605
3011.96	0.8259
3020.7	0.8701
3029.45	0.8978
3038.2	0.9174
3046.94	0.9265
3055.69	0.9345
3064.44	0.9415
3073.18	0.948
3081.93	0.95
3090.67	0.9536
3099.42	0.957
3108.17	0.9606
3116.91	0.963
3125.66	0.964
3134.41	0.965
3143.15	0.965
3151.9	0.965
3160.65	0.965
3169.39	0.965
3178.14	0.965
3186.88	0.965
3195.63	0.968
3204.38	0.9718
3213.12	0.9758
3221.87	0.978
3230.62	0.9798
3239.36	0.982
3248.11	0.983
3256.86	0.986
3265.6	0.989
3274.35	0.989
3283.09	0.989
3291.84	0.9889
3300.59	0.99
3309.33	0.991
3318.08	0.993
3326.83	0.993
3335.57	0.991
3344.32	0.991
3353.07	0.991
3361.81	0.993
3370.56	0.993
3379.3	0.9931
3388.05	0.994
3396.8	0.994
3405.54	0.997
3414.29	0.997
3423.04	0.997
3431.78	0.9985
3440.53	1
3449.28	1
3458.02	0.998
3466.77	0.997
3475.52	0.997
3484.26	0.998
3493.01	1
3501.75	1
3510.5	1
3519.25	1
3527.99	1
3536.74	1
3545.49	1
3554.23	1
3562.98	1
3571.73	1
3580.47	1
3589.22	1
3597.96	0.998
3606.71	0.9974
3615.46	0.9959
3624.2	0.9944
3632.95	0.993
3641.7	0.993
3650.44	0.991
3659.19	0.991
3667.94	0.991
3676.68	0.9924
3685.43	0.994
3694.17	0.995
3702.92	0.995
3711.67	0.995
3720.41	0.995
3729.16	0.995
3737.91	0.995
3746.65	0.997
3755.4	0.997
3764.15	0.997
3772.89	0.997
3781.64	0.997
3790.38	0.997
3799.13	0.994
