Infrared Spectrum: ACETIC ACID, n-DECYL ESTER
Formula: C12 H24 O2
CAS: 112-17-4
State: LIQUID
Class: COBLENTZ
Instrument: Not specified, most likely a prism, grating, or hybrid spectrometer.
Sampling: TRANSMISSION
Path length: 0.0025 CM
Resolution: 4
Origin: INFRACORD
MICROMETERS	TRANSMITTANCE
2.53	0.881
2.56541	0.878
2.60082	0.878
2.63623	0.88
2.67163	0.875
2.70704	0.871
2.74245	0.872
2.77786	0.871
2.81327	0.867
2.84868	0.846
2.88409	0.859
2.91949	0.872
2.9549	0.875
2.99031	0.878
3.02572	0.875
3.06113	0.874
3.09654	0.872
3.13194	0.867
3.16735	0.861
3.20276	0.847
3.23817	0.822
3.27358	0.768
3.30899	0.63
3.3444	0.183
3.3798	0.039
3.41521	0.048
3.45062	0.225
3.48603	0.128
3.52144	0.628
3.55685	0.773
3.59226	0.819
3.62766	0.828
3.66307	0.829
3.69848	0.834
3.73389	0.832
3.7693	0.841
3.80471	0.849
3.84012	0.859
3.87552	0.865
3.91093	0.867
3.94634	0.868
3.98175	0.871
4.01716	0.871
4.05257	0.868
4.08798	0.871
4.12338	0.872
4.15879	0.873
4.1942	0.878
4.22961	0.878
4.26502	0.875
4.30043	0.873
4.33583	0.871
4.37124	0.869
4.40665	0.871
4.44206	0.872
4.47747	0.872
4.51288	0.871
4.54829	0.868
4.58369	0.866
4.6191	0.866
4.65451	0.865
4.68992	0.864
4.72533	0.864
4.76074	0.864
4.79615	0.865
4.83155	0.866
4.86696	0.864
4.90237	0.864
4.93778	0.862
4.97319	0.862
5.0086	0.864
5.04401	0.867
5.07941	0.867
5.11482	0.866
5.15023	0.865
5.18564	0.864
5.22105	0.862
5.25646	0.856
5.29186	0.855
5.32727	0.851
5.36268	0.848
5.39809	0.848
5.4335	0.84
5.46891	0.828
5.50432	0.809
5.53972	0.783
5.57513	0.741
5.61054	0.651
5.64595	0.555
5.68136	0.267
5.71677	0.043
5.75218	0.039
5.78758	0.31
5.82299	0.528
5.8584	0.65
5.89381	0.715
5.92922	0.761
5.96463	0.788
6.00004	0.794
6.03544	0.801
6.07085	0.814
6.10626	0.823
6.14167	0.828
6.17708	0.836
6.21249	0.84
6.24789	0.841
6.2833	0.841
6.31871	0.84
6.35412	0.838
6.38953	0.836
6.42494	0.83
6.46035	0.826
6.49575	0.817
6.53116	0.812
6.56657	0.807
6.60198	0.8
6.63739	0.791
6.6728	0.776
6.70821	0.757
6.74361	0.658
6.77902	0.523
6.81443	0.287
6.84984	0.323
6.88525	0.413
6.92066	0.49
6.95607	0.522
6.99147	0.586
7.02688	0.639
7.06229	0.674
7.0977	0.69
7.13311	0.631
7.16852	0.502
7.20392	0.407
7.23933	0.424
7.27474	0.36
7.31015	0.21
7.34556	0.33
7.38097	0.608
7.41638	0.706
7.45178	0.73
7.48719	0.756
7.5226	0.738
7.55801	0.721
7.59342	0.683
7.62883	0.646
7.66424	0.609
7.69964	0.591
7.73505	0.552
7.77046	0.516
7.80587	0.457
7.84128	0.368
7.87669	0.26
7.9121	0.189
7.9475	0.119
7.98291	0.07
8.01832	0.033
8.05373	0.035
8.08914	0.037
8.12455	0.042
8.15996	0.069
8.19536	0.224
8.23077	0.367
8.26618	0.477
8.30159	0.586
8.337	0.645
8.37241	0.686
8.40781	0.724
8.44322	0.742
8.47863	0.754
8.51404	0.767
8.54945	0.775
8.58486	0.786
8.62027	0.794
8.65567	0.794
8.69108	0.788
8.72649	0.788
8.7619	0.786
8.79731	0.78
8.83272	0.773
8.86813	0.76
8.90353	0.769
8.93894	0.781
8.97435	0.783
9.00976	0.77
9.04517	0.761
9.08058	0.729
9.11599	0.687
9.15139	0.647
9.1868	0.614
9.22221	0.573
9.25762	0.548
9.29303	0.498
9.32844	0.452
9.36384	0.425
9.39925	0.401
9.43466	0.362
9.47007	0.32
9.50548	0.276
9.54089	0.249
9.5763	0.234
9.6117	0.238
9.64711	0.276
9.68252	0.329
9.71793	0.375
9.75334	0.418
9.78875	0.469
9.82416	0.541
9.85956	0.607
9.89497	0.652
9.93038	0.686
9.96579	0.709
10.0012	0.722
10.0366	0.729
10.072	0.732
10.1074	0.725
10.1428	0.704
10.1782	0.685
10.2136	0.677
10.2491	0.687
10.2845	0.702
10.3199	0.728
10.3553	0.739
10.3907	0.752
10.4261	0.751
10.4615	0.741
10.4969	0.735
10.5323	0.734
10.5677	0.738
10.6031	0.76
10.6386	0.77
10.674	0.786
10.7094	0.789
10.7448	0.793
10.7802	0.793
10.8156	0.793
10.851	0.789
10.8864	0.784
10.9218	0.782
10.9572	0.777
10.9926	0.778
11.028	0.775
11.0635	0.767
11.0989	0.756
11.1343	0.757
11.1697	0.756
11.2051	0.754
11.2405	0.762
11.2759	0.764
11.3113	0.77
11.3467	0.769
11.3821	0.775
11.4175	0.774
11.4529	0.776
11.4884	0.773
11.5238	0.771
11.5592	0.773
11.5946	0.775
11.63	0.778
11.6654	0.78
11.7008	0.784
11.7362	0.787
11.7716	0.787
11.807	0.788
11.8424	0.789
11.8779	0.791
11.9133	0.795
11.9487	0.794
11.9841	0.795
12.0195	0.803
12.0549	0.801
12.0903	0.801
12.1257	0.807
12.1611	0.812
12.1965	0.813
12.2319	0.81
12.2673	0.806
12.3028	0.806
12.3382	0.807
12.3736	0.808
12.409	0.81
12.4444	0.809
12.4798	0.813
12.5152	0.81
12.5506	0.819
12.586	0.815
12.6214	0.815
12.6568	0.815
12.6922	0.812
12.7277	0.806
12.7631	0.801
12.7985	0.8
12.8339	0.799
12.8693	0.796
12.9047	0.793
12.9401	0.793
12.9755	0.795
13.0109	0.793
13.0463	0.796
13.0817	0.796
13.1171	0.791
13.1526	0.789
13.188	0.783
13.2234	0.782
13.2588	0.775
13.2942	0.768
13.3296	0.758
13.365	0.755
13.4004	0.751
13.4358	0.742
13.4712	0.738
13.5066	0.731
13.5421	0.721
13.5775	0.711
13.6129	0.702
13.6483	0.677
13.6837	0.674
13.7191	0.657
13.7545	0.63
13.7899	0.615
13.8253	0.613
13.8607	0.634
13.8961	0.671
13.9315	0.686
13.967	0.705
14.0024	0.723
14.0378	0.732
14.0732	0.735
14.1086	0.738
14.144	0.742
14.1794	0.742
14.2148	0.742
14.2502	0.743
14.2856	0.743
14.321	0.749
14.3564	0.744
14.3919	0.735
14.4273	0.735
14.4627	0.738
14.4981	0.735
14.5335	0.73
14.5689	0.731
14.6043	0.728
14.6397	0.718
14.6751	0.718
14.7105	0.71
14.7459	0.703
14.7813	0.699
14.8168	0.698
14.8522	0.696
14.8876	0.695
14.923	0.689
14.9584	0.685
14.9938	0.687
