Infrared Spectrum: ETHANOL, 2-(2-BUTOXYETHOXY)-
Formula: C8 H18 O3
CAS: 112-34-5
State: SOLUTION (10% CCl4 FOR 3800-1330, 10% CS2 FOR 1330-400)
Class: COBLENTZ III
Instrument: BECKMAN IR-9 (GRATING)
Instrument parameters: ORDER CHANGES: 670, 1200, 2000 CM^-^1
Sampling: TRANSMISSION
Path length: 0.011 CM, 0.011 CM
Resolution: 2
Origin: DOW CHEMICAL COMPANY
1/CM	TRANSMITTANCE
399	0.4394
408	0.3516
417	0.3656
426	0.4524
435	0.5526
444	0.5967
453	0.6285
462	0.6511
471	0.6684
480	0.6782
489	0.6811
498	0.6715
507	0.6587
516	0.6481
525	0.6443
534	0.6525
543	0.6708
552	0.6689
561	0.669
570	0.6783
579	0.6875
588	0.6967
597	0.7067
606	0.7147
615	0.7191
624	0.7153
633	0.713
642	0.7185
651	0.7028
660	0.7332
669	0.7695
678	0.7995
687	0.8115
696	0.815
705	0.8144
714	0.8189
723	0.818
732	0.7756
741	0.7762
750	0.7954
759	0.8161
768	0.8292
777	0.8167
786	0.7983
795	0.7548
804	0.709
813	0.6844
822	0.6489
831	0.6243
840	0.6421
849	0.5876
858	0.5576
867	0.5428
876	0.5231
885	0.4542
894	0.4728
903	0.538
912	0.5889
921	0.6027
930	0.6015
939	0.68
948	0.6903
957	0.65
966	0.6401
975	0.5608
984	0.5895
993	0.609
1002	0.5767
1011	0.4725
1020	0.4224
1029	0.3736
1038	0.3368
1047	0.2273
1056	0.1292
1065	0.0744
1074	0.0922
1083	0.1332
1092	0.1182
1101	0.054
1110	0.0243
1119	0.0142
1128	0.0184
1137	0.0359
1146	0.1452
1155	0.3193
1164	0.5098
1173	0.6184
1182	0.6632
1191	0.6675
1200	0.6114
1209	0.5764
1218	0.5788
1227	0.5554
1236	0.5141
1245	0.459
1254	0.4892
1263	0.5331
1272	0.5473
1281	0.5136
1290	0.5243
1299	0.5282
1308	0.576
1317	0.5832
1326	0.5814
1335	0.5676
1344	0.444
1353	0.3778
1362	0.4545
1371	0.4409
1380	0.427
1389	0.494
1398	0.5002
1407	0.4912
1416	0.5274
1425	0.5693
1434	0.5477
1443	0.5514
1452	0.3595
1461	0.3359
1470	0.4043
1479	0.5376
1488	0.6721
1497	0.7108
1506	0.6835
1515	0.6531
1524	0.6183
1533	0.566
1542	0.5151
1551	0.4668
1560	0.5148
1569	0.5968
1578	0.6155
1587	0.6447
1596	0.7308
1605	0.7828
1614	0.8084
1623	0.8325
1632	0.8505
1641	0.8574
1650	0.8635
1659	0.8713
1668	0.8759
1677	0.8777
1686	0.8793
1695	0.8806
1704	0.8816
1713	0.8828
1722	0.8844
1731	0.8862
1740	0.8868
1749	0.8871
1758	0.8868
1767	0.8865
1776	0.8861
1785	0.8856
1794	0.8848
1803	0.8827
1812	0.8813
1821	0.8812
1830	0.8811
1839	0.8817
1848	0.8823
1857	0.8818
1866	0.8825
1875	0.883
1884	0.8807
1893	0.8788
1902	0.8778
1911	0.8763
1920	0.8718
1929	0.8657
1938	0.8595
1947	0.8518
1956	0.8487
1965	0.8494
1974	0.8548
1983	0.8613
1992	0.863
2001	0.861
2010	0.871
2019	0.8728
2028	0.8738
2037	0.8747
2046	0.8748
2055	0.8746
2064	0.8752
2073	0.8759
2082	0.877
2091	0.8775
2100	0.8775
2109	0.8775
2118	0.8775
2127	0.8784
2136	0.8789
2145	0.8787
2154	0.8786
2163	0.8784
2172	0.8781
2181	0.8775
2190	0.8774
2199	0.8775
2208	0.878
2217	0.8782
2226	0.8785
2235	0.8777
2244	0.8756
2253	0.8731
2262	0.8691
2271	0.8647
2280	0.8595
2289	0.8555
2298	0.857
2307	0.8592
2316	0.8613
2325	0.8633
2334	0.8654
2343	0.8668
2352	0.8683
2361	0.8696
2370	0.8708
2379	0.8712
2388	0.8707
2397	0.8701
2406	0.8693
2415	0.8685
2424	0.8678
2433	0.867
2442	0.8663
2451	0.8655
2460	0.8644
2469	0.8632
2478	0.8621
2487	0.8614
2496	0.8613
2505	0.8633
2514	0.8625
2523	0.861
2532	0.8582
2541	0.8546
2550	0.851
2559	0.8468
2568	0.8424
2577	0.8373
2586	0.8302
2595	0.8271
2604	0.8253
2613	0.8255
2622	0.8254
2631	0.8245
2640	0.8221
2649	0.8189
2658	0.8124
2667	0.8034
2676	0.7912
2685	0.7765
2694	0.7541
2703	0.7308
2712	0.7243
2721	0.7121
2730	0.6942
2739	0.6808
2748	0.6839
2757	0.6905
2766	0.6839
2775	0.6654
2784	0.6371
2793	0.5973
2802	0.5605
2811	0.51
2820	0.4743
2829	0.429
2838	0.3512
2847	0.2246
2856	0.1291
2865	0.0506
2874	0.0187
2883	0.0181
2892	0.0411
2901	0.066
2910	0.0736
2919	0.0674
2928	0.0534
2937	0.0388
2946	0.0351
2955	0.0571
2964	0.0362
2973	0.0622
2982	0.2507
2991	0.4789
3000	0.6184
3009	0.7062
3018	0.7414
3027	0.7651
3036	0.7822
3045	0.7937
3054	0.8033
3063	0.8103
3072	0.8136
3081	0.8147
3090	0.8157
3099	0.8161
3108	0.8164
3117	0.8154
3126	0.8137
3135	0.8108
3144	0.8068
3153	0.803
3162	0.8001
3171	0.798
3180	0.7968
3189	0.795
3198	0.7908
3207	0.7867
3216	0.7819
3225	0.7768
3234	0.771
3243	0.7644
3252	0.7575
3261	0.7484
3270	0.7372
3279	0.7249
3288	0.7115
3297	0.6971
3306	0.6832
3315	0.6704
3324	0.6551
3333	0.6379
3342	0.6206
3351	0.6033
3360	0.5862
3369	0.5665
3378	0.5469
3387	0.524
3396	0.503
3405	0.4839
3414	0.4674
3423	0.4467
3432	0.4244
3441	0.4046
3450	0.3895
3459	0.376
3468	0.3662
3477	0.365
3486	0.3676
3495	0.3762
3504	0.4
3513	0.4275
3522	0.4547
3531	0.5025
3540	0.5423
3549	0.5836
3558	0.6233
3567	0.6515
3576	0.676
3585	0.6758
3594	0.6445
3603	0.6035
3612	0.5965
3621	0.645
3630	0.7393
3639	0.7572
3648	0.7722
3657	0.7935
3666	0.8124
3675	0.8236
3684	0.8238
3693	0.8246
3702	0.8312
3711	0.8366
3720	0.8409
3729	0.8439
3738	0.846
3747	0.8471
3756	0.8478
3765	0.8478
3774	0.8481
3783	0.8486
3792	0.8488
