Infrared Spectrum: Triethylene glycol
Formula: C6 H14 O4
CAS: 112-27-6
State: LIQUID (NEAT)
Class: COBLENTZ III
Instrument: DOW KBr FOREPRISM-GRATING
Instrument parameters: BLAZED AT 3.5, 12.0, 20.0 MICRON AND CHANGED AT 5.0, 7.5, 14.9 MICRON
Sampling: TRANSMISSION
Path length: CAPILLARY
Resolution: 2
Origin: DOW CHEMICAL COMPANY
1/CM	TRANSMITTANCE
3786	0.7969
3777	0.7962
3768	0.7956
3759	0.7949
3750	0.7943
3741	0.7939
3732	0.7937
3723	0.7939
3714	0.7941
3705	0.7949
3696	0.7951
3687	0.7947
3678	0.7932
3669	0.7917
3660	0.7883
3651	0.7835
3642	0.7758
3633	0.7658
3624	0.7546
3615	0.7382
3606	0.7157
3597	0.6961
3588	0.6633
3579	0.6372
3570	0.5909
3561	0.5462
3552	0.5201
3543	0.4823
3534	0.4416
3525	0.4125
3516	0.3846
3507	0.3477
3498	0.3085
3489	0.2689
3480	0.2439
3471	0.2088
3462	0.1945
3453	0.1825
3444	0.1717
3435	0.1616
3426	0.1536
3417	0.1475
3408	0.142
3399	0.1381
3390	0.1365
3381	0.1362
3372	0.1376
3363	0.1431
3354	0.1496
3345	0.1565
3336	0.1639
3327	0.1714
3318	0.1794
3309	0.1879
3300	0.2003
3291	0.2127
3282	0.2302
3273	0.251
3264	0.2776
3255	0.3079
3246	0.336
3237	0.3626
3228	0.384
3219	0.4028
3210	0.4237
3201	0.4473
3192	0.4915
3183	0.5256
3174	0.5487
3165	0.5636
3156	0.5825
3147	0.6062
3138	0.6272
3129	0.643
3120	0.6578
3111	0.6728
3102	0.6878
3093	0.6994
3084	0.7081
3075	0.716
3066	0.7232
3057	0.7284
3048	0.7334
3039	0.7371
3030	0.7403
3021	0.7389
3012	0.7338
3003	0.7215
2994	0.6871
2985	0.6304
2976	0.5056
2967	0.4032
2958	0.3176
2949	0.2795
2940	0.2608
2931	0.244
2922	0.2297
2913	0.2245
2904	0.2172
2895	0.2045
2886	0.191
2877	0.1845
2868	0.2063
2859	0.2552
2850	0.3252
2841	0.408
2832	0.4678
2823	0.5009
2814	0.5341
2805	0.5627
2796	0.5912
2787	0.611
2778	0.6283
2769	0.6471
2760	0.6686
2751	0.6885
2742	0.6903
2733	0.6912
2724	0.7003
2715	0.7098
2706	0.7182
2697	0.7246
2688	0.7349
2679	0.7455
2670	0.7553
2661	0.7638
2652	0.7705
2643	0.7719
2634	0.7736
2625	0.775
2616	0.7765
2607	0.7785
2598	0.7812
2589	0.7842
2580	0.7869
2571	0.7899
2562	0.7933
2553	0.8136
2544	0.8056
2535	0.7942
2526	0.7947
2517	0.7954
2508	0.7961
2499	0.7969
2490	0.7978
2481	0.7987
2472	0.7998
2463	0.8015
2454	0.8037
2445	0.8065
2436	0.8099
2427	0.8128
2418	0.8158
2409	0.8181
2400	0.8205
2391	0.8224
2382	0.8252
2373	0.8262
2364	0.8271
2355	0.829
2346	0.8335
2337	0.8377
2328	0.8346
2319	0.8284
2310	0.8307
2301	0.8248
2292	0.8241
2283	0.8241
2274	0.8244
2265	0.825
2256	0.8257
2247	0.826
2238	0.8262
2229	0.8263
2220	0.8265
2211	0.8263
2202	0.8262
2193	0.826
2184	0.8253
2175	0.8233
2166	0.822
2157	0.8214
2148	0.82
2139	0.8191
2130	0.819
2121	0.8202
2112	0.8213
2103	0.8223
2094	0.8231
2085	0.8236
2076	0.8243
2067	0.8251
2058	0.8263
2049	0.8278
2040	0.8298
2031	0.8299
2022	0.8291
2013	0.8274
2004	0.8242
1995	0.8223
1986	0.8211
1977	0.8158
1968	0.8108
1959	0.8043
1950	0.8042
1941	0.8078
1932	0.814
1923	0.8193
1914	0.8238
1905	0.8273
1896	0.8302
1887	0.8327
1878	0.835
1869	0.8373
1860	0.8388
1851	0.8388
1842	0.8393
1833	0.8406
1824	0.8423
1815	0.8434
1806	0.8418
1797	0.8417
1788	0.8442
1779	0.8416
1770	0.8423
1761	0.8418
1752	0.8389
1743	0.8386
1734	0.8382
1725	0.8383
1716	0.8392
1707	0.8402
1698	0.8413
1689	0.8425
1680	0.844
1671	0.8421
1662	0.8411
1653	0.841
1644	0.8406
1635	0.8378
1626	0.8363
1617	0.8345
1608	0.8339
1599	0.8341
1590	0.8337
1581	0.8345
1572	0.834
1563	0.8341
1554	0.8348
1545	0.8306
1536	0.8273
1527	0.8254
1518	0.8211
1509	0.8106
1500	0.7984
1491	0.7691
1482	0.6896
1473	0.571
1464	0.5257
1455	0.507
1446	0.5423
1437	0.6032
1428	0.6254
1419	0.6146
1410	0.5935
1401	0.5855
1392	0.598
1383	0.5953
1374	0.5921
1365	0.5415
1356	0.5042
1347	0.4074
1338	0.5916
1329	0.6076
1320	0.5745
1311	0.5709
1302	0.5626
1293	0.5605
1284	0.5739
1275	0.5958
1266	0.6032
1257	0.5788
1248	0.5089
1239	0.5336
1230	0.5678
1221	0.5678
1212	0.6034
1203	0.6682
1194	0.7215
1185	0.7307
1176	0.7208
1167	0.6912
1158	0.5595
1149	0.3908
1140	0.1954
1131	0.1528
1122	0.1228
1113	0.1113
1104	0.1528
1095	0.1804
1086	0.1533
1077	0.1155
1068	0.1029
1059	0.1309
1050	0.2234
1041	0.3471
1032	0.3754
1023	0.4468
1014	0.5576
1005	0.6419
996	0.6841
987	0.7132
978	0.7411
969	0.7632
960	0.7668
951	0.7419
942	0.5072
933	0.4124
924	0.4878
915	0.5668
906	0.6395
897	0.5833
888	0.4873
879	0.5487
870	0.6534
861	0.7581
852	0.7969
843	0.784
834	0.7253
825	0.7117
816	0.7554
807	0.7925
798	0.8213
789	0.8481
780	0.8693
771	0.8762
762	0.8759
753	0.8713
744	0.8655
735	0.8586
726	0.8512
717	0.8421
708	0.8337
699	0.8238
690	0.8119
681	0.8011
672	0.7899
663	0.7764
654	0.7811
645	0.771
636	0.7568
627	0.7398
618	0.7225
609	0.7088
600	0.6982
591	0.6876
582	0.6765
573	0.6644
564	0.6522
555	0.6538
546	0.6571
537	0.656
528	0.6521
519	0.6551
510	0.6739
501	0.7007
492	0.7219
483	0.7404
474	0.7558
465	0.7686
456	0.7789
447	0.788
438	0.7972
429	0.8061
420	0.8131
411	0.8175
402	0.8178
393	0.8186
384	0.8175
