Infrared Spectrum: 1-DODECENE
Formula: C12 H24
CAS: 112-41-4
State: SOLUTION (10% IN CCl4 FOR 3800-1300, 5% IN CS2 FOR 1300-650, AND 10% IN CCl4 FOR 650-240 CM^-^1) VERSUS SOLVENT
Class: COBLENTZ III
Instrument: PERKIN-ELMER 521 (GRATING)
Instrument parameters: FILTERS AT 3150, 2500, 2000, 1150, 700, 410; GRATING CHANGES AT 2000, 630 CM^-^1
Sampling: TRANSMISSION
Path length: 0.010, 0.010, AND 0.020 CM (CsBr CELL)
Resolution: 4
Origin: DOW CORNING CORP.
1/CM	TRANSMITTANCE
234.88	0.872
243.84	0.877
252.8	0.875
261.76	0.872
270.72	0.872
279.68	0.868
288.64	0.874
297.6	0.886
306.56	0.889
315.52	0.889
324.481	0.889
333.441	0.889
342.401	0.888
351.361	0.884
360.321	0.879
369.281	0.879
378.241	0.867
387.201	0.861
396.161	0.868
405.121	0.867
414.081	0.865
423.041	0.86
432.001	0.856
440.961	0.856
449.921	0.851
458.881	0.851
467.841	0.854
476.801	0.856
485.761	0.854
494.721	0.863
503.682	0.846
512.642	0.837
521.602	0.837
530.562	0.833
539.522	0.811
548.482	0.769
557.442	0.814
566.402	0.832
575.362	0.837
584.322	0.835
593.282	0.83
602.242	0.816
611.202	0.777
620.162	0.711
629.122	0.643
638.082	0.664
647.042	0.779
656.002	0.865
664.962	0.867
673.922	0.884
682.883	0.889
691.843	0.886
700.803	0.874
709.763	0.847
718.723	0.762
727.683	0.833
736.643	0.865
745.603	0.868
754.563	0.875
763.523	0.877
772.483	0.884
781.443	0.886
790.403	0.888
799.363	0.888
808.323	0.886
817.283	0.886
826.243	0.886
835.203	0.884
844.163	0.882
853.123	0.877
862.084	0.87
871.044	0.868
880.004	0.851
888.964	0.816
897.924	0.6811
906.884	0.3231
915.844	0.72
924.804	0.846
933.764	0.872
942.724	0.875
951.684	0.872
960.644	0.865
969.604	0.849
978.564	0.807
987.524	0.6481
996.484	0.744
1005.44	0.854
1014.4	0.865
1023.36	0.867
1032.32	0.868
1041.28	0.874
1050.24	0.874
1059.2	0.872
1068.16	0.874
1077.12	0.874
1086.08	0.877
1095.04	0.884
1104	0.884
1112.96	0.882
1121.92	0.882
1130.89	0.889
1139.85	0.889
1148.81	0.891
1157.77	0.889
1166.73	0.886
1175.69	0.884
1184.65	0.884
1193.61	0.882
1202.57	0.882
1211.53	0.877
1220.49	0.874
1229.45	0.874
1238.41	0.874
1247.37	0.867
1256.33	0.865
1265.29	0.851
1274.25	0.84
1283.21	0.837
1292.17	0.828
1301.13	0.833
1310.09	0.842
1319.05	0.853
1328.01	0.847
1336.97	0.83
1345.93	0.816
1354.89	0.811
1363.85	0.786
1372.81	0.756
1381.77	0.807
1390.73	0.849
1399.69	0.833
1408.65	0.779
1417.61	0.779
1426.57	0.748
1435.53	0.583
1444.49	0.538
1453.45	0.4439
1462.41	0.339
1471.37	0.3511
1480.33	0.821
1489.29	0.8541
1498.25	0.879
1507.21	0.896
1516.17	0.909
1525.13	0.916
1534.09	0.937
1543.05	0.944
1552.01	0.944
1560.97	0.937
1569.93	0.923
1578.89	0.916
1587.85	0.914
1596.81	0.905
1605.77	0.891
1614.73	0.868
1623.69	0.847
1632.65	0.7829
1641.61	0.4171
1650.57	0.835
1659.53	0.874
1668.49	0.882
1677.45	0.884
1686.41	0.886
1695.37	0.888
1704.33	0.886
1713.29	0.882
1722.25	0.881
1731.21	0.891
1740.17	0.893
1749.13	0.893
1758.09	0.895
1767.05	0.895
1776.01	0.893
1784.97	0.891
1793.93	0.889
1802.89	0.884
1811.85	0.875
1820.81	0.84
1829.77	0.861
1838.73	0.877
1847.69	0.893
1856.65	0.895
1865.61	0.896
1874.57	0.896
1883.53	0.895
1892.49	0.893
1901.45	0.895
1910.41	0.895
1919.37	0.898
1928.33	0.898
1937.29	0.895
1946.25	0.895
1955.21	0.895
1964.17	0.893
1973.13	0.891
1982.09	0.889
1991.05	0.896
2000.01	0.895
2008.97	0.893
2017.93	0.893
2026.89	0.894
2035.85	0.895
2044.81	0.895
2053.77	0.895
2062.73	0.893
2071.69	0.893
2080.65	0.893
2089.61	0.893
2098.57	0.892
2107.53	0.891
2116.49	0.891
2125.45	0.891
2134.41	0.889
2143.37	0.888
2152.33	0.888
2161.29	0.886
2170.25	0.886
2179.21	0.888
2188.17	0.888
2197.13	0.888
2206.09	0.886
2215.05	0.886
2224.01	0.886
2232.97	0.884
2241.93	0.884
2250.89	0.882
2259.85	0.881
2268.81	0.882
2277.77	0.883
2286.73	0.882
2295.69	0.882
2304.65	0.881
2313.61	0.881
2322.57	0.879
2331.53	0.879
2340.49	0.879
2349.45	0.879
2358.41	0.879
2367.37	0.879
2376.33	0.881
2385.29	0.882
2394.25	0.882
2403.21	0.881
2412.17	0.882
2421.13	0.881
2430.09	0.882
2439.05	0.8815
2448.01	0.879
2456.97	0.879
2465.93	0.877
2474.89	0.879
2483.85	0.875
2492.81	0.874
2501.77	0.87
2510.73	0.868
2519.69	0.867
2528.65	0.866
2537.61	0.863
2546.57	0.863
2555.53	0.863
2564.49	0.8605
2573.45	0.858
2582.41	0.856
2591.37	0.853
2600.33	0.851
2609.29	0.847
2618.25	0.841
2627.21	0.839
2636.17	0.837
2645.13	0.833
2654.09	0.832
2663.05	0.828
2672.01	0.823
2680.97	0.825
2689.93	0.828
2698.89	0.833
2707.85	0.83
2716.81	0.828
2725.77	0.826
2734.73	0.826
2743.69	0.825
2752.65	0.823
2761.61	0.82
2770.57	0.814
2779.53	0.7965
2788.49	0.777
2797.45	0.758
2806.41	0.725
2815.37	0.6841
2824.33	0.6029
2833.29	0.5161
2842.25	0.3167
2851.21	0.1149
2860.17	0.0309
2869.13	0.092
2878.09	0.15
2887.05	0.239
2896.01	0.1728
2904.98	0.0715
2913.94	0.022
2922.9	0
2931.86	0
2940.82	0.007
2949.78	0.0481
2958.74	0.0545
2967.7	0.0819
2976.66	0.2471
2985.62	0.3979
2994.58	0.542
3003.54	0.596
3012.5	0.6875
3021.46	0.7459
3030.42	0.768
3039.38	0.777
3048.34	0.767
3057.3	0.737
3066.26	0.67
3075.22	0.6108
3084.18	0.6245
3093.14	0.7828
3102.1	0.8325
3111.06	0.849
3120.02	0.858
3128.98	0.863
3137.94	0.863
3146.9	0.865
3155.86	0.865
3164.82	0.865
3173.78	0.867
3182.74	0.868
3191.7	0.872
3200.66	0.875
3209.62	0.879
3218.58	0.881
3227.54	0.8815
3236.5	0.882
3245.46	0.886
3254.42	0.886
3263.38	0.886
3272.34	0.888
3281.3	0.889
3290.26	0.888
3299.22	0.889
3308.18	0.891
3317.14	0.891
3326.1	0.891
3335.06	0.891
3344.02	0.891
3352.98	0.891
3361.94	0.889
3370.9	0.891
3379.86	0.893
3388.82	0.895
3397.78	0.895
3406.74	0.895
3415.7	0.895
3424.66	0.895
3433.62	0.895
3442.58	0.895
3451.54	0.896
3460.5	0.896
3469.46	0.896
3478.42	0.896
3487.38	0.898
3496.34	0.898
3505.3	0.9
3514.26	0.9
3523.22	0.902
3532.18	0.902
3541.14	0.902
3550.1	0.902
3559.06	0.903
3568.02	0.904
3576.98	0.905
3585.94	0.904
3594.9	0.9
3603.86	0.893
3612.82	0.896
3621.78	0.893
3630.74	0.909
3639.7	0.8965
3648.66	0.916
3657.62	0.8935
3666.58	0.903
3675.54	0.905
3684.5	0.898
3693.46	0.8955
3702.42	0.898
3711.38	0.9015
3720.34	0.905
3729.3	0.911
3738.26	0.921
3747.22	0.9225
3756.18	0.903
3765.14	0.898
3774.1	0.896
3783.06	0.8955
3792.02	0.902
