Infrared Spectrum: n-Undecane
Formula: C11 H24
CAS: 1120-21-4
State: LIQUID (NEAT)
Class: COBLENTZ III
Instrument: DOW KBr FOREPRISM-GRATING
Instrument parameters: BLAZED AT 3.5, 12.0, 20.0 MICRON AND CHANGED AT 5.0, 7.5, 14.9 MICRON
Sampling: TRANSMISSION
Path length: CAPILLARY
Resolution: 2
Origin: DOW CHEMICAL COMPANY
1/CM	TRANSMITTANCE
3744	0.8165
3735	0.8174
3726	0.8184
3717	0.8202
3708	0.8224
3699	0.8243
3690	0.8216
3681	0.8157
3672	0.8139
3663	0.8135
3654	0.8135
3645	0.8134
3636	0.8132
3627	0.8115
3618	0.8098
3609	0.8081
3600	0.8075
3591	0.8151
3582	0.8277
3573	0.842
3564	0.8509
3555	0.8584
3546	0.863
3537	0.8666
3528	0.8692
3519	0.8705
3510	0.8716
3501	0.8711
3492	0.8698
3483	0.8678
3474	0.8635
3465	0.8586
3456	0.853
3447	0.8475
3438	0.8427
3429	0.8382
3420	0.8341
3411	0.83
3402	0.8259
3393	0.821
3384	0.8165
3375	0.8141
3366	0.8155
3357	0.8193
3348	0.8234
3339	0.8286
3330	0.8303
3321	0.8303
3312	0.8302
3303	0.8297
3294	0.8293
3285	0.8289
3276	0.8286
3267	0.8283
3258	0.8277
3249	0.8239
3240	0.8168
3231	0.8072
3222	0.7953
3213	0.7745
3204	0.7474
3195	0.7268
3186	0.7121
3177	0.705
3168	0.7022
3159	0.7007
3150	0.6998
3141	0.6994
3132	0.6982
3123	0.6947
3114	0.6821
3105	0.6656
3096	0.6461
3087	0.6229
3078	0.5935
3069	0.541
3060	0.4941
3051	0.4486
3042	0.3895
3033	0.3406
3024	0.2731
3015	0.2262
3006	0.0935
2997	0.0475
2988	0.0221
2979	0.0065
2970	0.0001
2961	0.0001
2952	0.0001
2943	0.0001
2934	0
2925	0
2916	0
2907	0
2898	0
2889	0
2880	0
2871	0
2862	0
2853	0.0001
2844	0.0001
2835	0.0001
2826	0.0127
2817	0.0387
2808	0.1167
2799	0.1795
2790	0.2279
2781	0.3316
2772	0.4008
2763	0.4259
2754	0.4366
2745	0.4405
2736	0.4104
2727	0.38
2718	0.4518
2709	0.4923
2700	0.5097
2691	0.5038
2682	0.4615
2673	0.4283
2664	0.4309
2655	0.4839
2646	0.5167
2637	0.535
2628	0.5492
2619	0.5643
2610	0.5829
2601	0.5892
2592	0.6139
2583	0.641
2574	0.6706
2565	0.6984
2556	0.7253
2547	0.736
2538	0.7388
2529	0.743
2520	0.7571
2511	0.7722
2502	0.7862
2493	0.7982
2484	0.8068
2475	0.8122
2466	0.8149
2457	0.8165
2448	0.8158
2439	0.8134
2430	0.8114
2421	0.8101
2412	0.8044
2403	0.7962
2394	0.7911
2385	0.7921
2376	0.7936
2367	0.7718
2358	0.8144
2349	0.805
2340	0.8008
2331	0.7851
2322	0.7885
2313	0.7921
2304	0.7957
2295	0.8007
2286	0.8058
2277	0.8106
2268	0.815
2259	0.8192
2250	0.8233
2241	0.8261
2232	0.8284
2223	0.8298
2214	0.831
2205	0.8318
2196	0.8325
2187	0.8328
2178	0.8327
2169	0.832
2160	0.8306
2151	0.8313
2142	0.8353
2133	0.841
2124	0.8466
2115	0.8515
2106	0.856
2097	0.8596
2088	0.8613
2079	0.8615
2070	0.8587
2061	0.8517
2052	0.849
2043	0.8463
2034	0.8378
2025	0.8206
2016	0.8203
2007	0.8367
1998	0.8546
1989	0.8683
1980	0.8713
1971	0.8741
1962	0.8738
1953	0.862
1944	0.8696
1935	0.8716
1926	0.8712
1917	0.8688
1908	0.8663
1899	0.8654
1890	0.865
1881	0.8648
1872	0.8649
1863	0.865
1854	0.8651
1845	0.8659
1836	0.8668
1827	0.8677
1818	0.8687
1809	0.8696
1800	0.8702
1791	0.8696
1782	0.8686
1773	0.8678
1764	0.8671
1755	0.8659
1746	0.8633
1737	0.8584
1728	0.8518
1719	0.8507
1710	0.8461
1701	0.8415
1692	0.8375
1683	0.8334
1674	0.8288
1665	0.8246
1656	0.8192
1647	0.811
1638	0.8061
1629	0.8081
1620	0.805
1611	0.7982
1602	0.7949
1593	0.7908
1584	0.7836
1575	0.7774
1566	0.7699
1557	0.7556
1548	0.7408
1539	0.726
1530	0.7003
1521	0.6375
1512	0.5985
1503	0.4726
1494	0.3905
1485	0.2512
1476	0.0218
1467	0.0059
1458	0.007
1449	0.0124
1440	0.0644
1431	0.2443
1422	0.3902
1413	0.4485
1404	0.487
1395	0.459
1386	0.1579
1377	0.0303
1368	0.1859
1359	0.3476
1350	0.3724
1341	0.3205
1332	0.5305
1323	0.562
1314	0.4814
1305	0.4071
1296	0.4476
1287	0.5116
1278	0.5636
1269	0.5753
1260	0.6138
1251	0.6649
1242	0.6718
1233	0.6883
1224	0.7146
1215	0.7333
1206	0.741
1197	0.7426
1188	0.7501
1179	0.7324
1170	0.7404
1161	0.7624
1152	0.7649
1143	0.7226
1134	0.6645
1125	0.7325
1116	0.7948
1107	0.7955
1098	0.6674
1089	0.648
1080	0.6657
1071	0.6533
1062	0.6699
1053	0.7012
1044	0.734
1035	0.7475
1026	0.7439
1017	0.7251
1008	0.7131
999	0.7104
990	0.7392
981	0.7696
972	0.7788
963	0.7378
954	0.7301
945	0.7208
936	0.7275
927	0.7542
918	0.7514
909	0.6694
900	0.6433
891	0.6057
882	0.5876
873	0.6962
864	0.7456
855	0.7641
846	0.7515
837	0.774
828	0.7765
819	0.7717
810	0.7884
801	0.7844
792	0.7368
783	0.6565
774	0.6392
765	0.5432
756	0.5695
747	0.4662
738	0.3568
729	0.175
720	0.041
711	0.3471
702	0.6425
693	0.7622
684	0.8176
675	0.8489
666	0.8685
657	0.8656
648	0.8695
639	0.8725
630	0.8747
621	0.8762
612	0.8775
603	0.8786
594	0.8788
585	0.8767
576	0.8759
567	0.876
558	0.8757
549	0.8723
540	0.8651
531	0.8548
522	0.8455
513	0.8433
504	0.8452
495	0.8459
486	0.8437
477	0.8427
468	0.8435
459	0.8465
450	0.8498
