Infrared Spectrum: 2-DECANOL
Formula: C10 H22 O
CAS: 1120-06-5
State: LIQUID (NEAT)
Class: COBLENTZ III
Instrument: PERKIN-ELMER 621 (GRATING)
Instrument parameters: GRATING CHANGE AT 623; ORDER CHANGE AT 2000. FILTERS AT 3146, 2494, 2000, 1146, 698, 497 CM^-^1
Sampling: TRANSMISSION
Path length: 0.0015 CM (CsBr WINDOWS VS CsBr WINDOW; DEMOUNTABLE WINDOWS)
Resolution: 2
Origin: PERKIN-ELMER CORP. (R. HANNAH)
1/CM	TRANSMITTANCE
4000	0.8784
3990	0.8789
3980	0.8794
3970	0.8795
3960	0.881
3950	0.8851
3940	0.8853
3930	0.8852
3920	0.885
3910	0.8846
3900	0.8858
3890	0.8883
3880	0.8892
3870	0.8881
3860	0.887
3850	0.8866
3840	0.8859
3830	0.885
3820	0.8836
3810	0.8821
3800	0.8813
3790	0.8816
3780	0.8831
3770	0.8839
3760	0.8839
3750	0.8838
3740	0.8843
3730	0.8846
3720	0.8842
3710	0.8838
3700	0.8835
3690	0.8833
3680	0.883
3670	0.8834
3660	0.8837
3650	0.8812
3640	0.867
3630	0.8486
3620	0.8424
3610	0.8434
3600	0.8444
3590	0.8444
3580	0.8431
3570	0.831
3560	0.809
3550	0.7775
3540	0.7492
3530	0.7211
3520	0.6974
3510	0.659
3500	0.622
3490	0.5786
3480	0.5323
3470	0.492
3460	0.4639
3450	0.437
3440	0.4119
3430	0.3809
3420	0.36
3410	0.3409
3400	0.3245
3390	0.3108
3380	0.2988
3370	0.2902
3360	0.2843
3350	0.2808
3340	0.2802
3330	0.2846
3320	0.2943
3310	0.3125
3300	0.3373
3290	0.3645
3280	0.395
3270	0.422
3260	0.4518
3250	0.4792
3240	0.5121
3230	0.5489
3220	0.5916
3210	0.6121
3200	0.6308
3190	0.6494
3180	0.669
3170	0.6915
3160	0.7143
3150	0.7318
3140	0.7586
3130	0.7671
3120	0.7754
3110	0.7825
3100	0.7899
3090	0.7958
3080	0.8001
3070	0.8026
3060	0.8028
3050	0.8007
3040	0.7951
3030	0.7838
3020	0.7661
3010	0.7367
3000	0.6825
2990	0.6345
2980	0.437
2970	0.246
2960	0.0603
2950	0.0706
2940	0.1002
2930	0.0204
2920	0.0094
2910	0.0143
2900	0.052
2890	0.1442
2880	0.2329
2870	0.1703
2860	0.124
2850	0.0507
2840	0.2733
2830	0.4762
2820	0.5992
2810	0.655
2800	0.7028
2790	0.733
2780	0.7542
2770	0.7715
2760	0.7818
2750	0.7856
2740	0.7834
2730	0.7814
2720	0.7804
2710	0.7837
2700	0.7889
2690	0.7911
2680	0.7908
2670	0.7898
2660	0.7891
2650	0.7903
2640	0.7957
2630	0.804
2620	0.8121
2610	0.8181
2600	0.8214
2590	0.8245
2580	0.8275
2570	0.831
2560	0.8344
2550	0.8371
2540	0.8399
2530	0.8433
2520	0.8467
2510	0.8505
2500	0.8547
2490	0.859
2480	0.863
2470	0.8646
2460	0.8653
2450	0.8649
2440	0.864
2430	0.8625
2420	0.8611
2410	0.86
2400	0.86
2390	0.8613
2380	0.8651
2370	0.8685
2360	0.8716
2350	0.8733
2340	0.8741
2330	0.8742
2320	0.8741
2310	0.8738
2300	0.8735
2290	0.8732
2280	0.873
2270	0.8731
2260	0.8733
2250	0.8735
2240	0.8738
2230	0.874
2220	0.8742
2210	0.8744
2200	0.8746
2190	0.8748
2180	0.8751
2170	0.8753
2160	0.8755
2150	0.8757
2140	0.8759
2130	0.8761
2120	0.8763
2110	0.8766
2100	0.8778
2090	0.8782
2080	0.8782
2070	0.878
2060	0.8775
2050	0.8773
2040	0.8768
2030	0.8766
2020	0.8766
2010	0.8766
2000	0.8759
1990	0.8718
1980	0.8713
1970	0.8715
1960	0.8705
1950	0.8694
1940	0.8682
1930	0.867
1920	0.8668
1910	0.8673
1900	0.8678
1890	0.8685
1880	0.8703
1870	0.871
1860	0.8711
1850	0.8718
1840	0.8728
1830	0.8735
1820	0.8732
1810	0.872
1800	0.8691
1790	0.8663
1780	0.8639
1770	0.8617
1760	0.8596
1750	0.8583
1740	0.8574
1730	0.8514
1720	0.8398
1710	0.8377
1700	0.8428
1690	0.8471
1680	0.8507
1670	0.8536
1660	0.8573
1650	0.8602
1640	0.8611
1630	0.8586
1620	0.857
1610	0.8566
1600	0.8562
1590	0.8558
1580	0.8554
1570	0.855
1560	0.8542
1550	0.8518
1540	0.8474
1530	0.8407
1520	0.8278
1510	0.8184
1500	0.7957
1490	0.7633
1480	0.6645
1470	0.3288
1460	0.3307
1450	0.4828
1440	0.5598
1430	0.6035
1420	0.6122
1410	0.6068
1400	0.6373
1390	0.651
1380	0.4046
1370	0.5042
1360	0.6377
1350	0.649
1340	0.6169
1330	0.6173
1320	0.6106
1310	0.596
1300	0.5934
1290	0.6249
1280	0.6561
1270	0.6826
1260	0.7154
1250	0.7201
1240	0.7286
1230	0.7415
1220	0.7551
1210	0.7474
1200	0.7489
1190	0.7458
1180	0.7221
1170	0.7262
1160	0.7184
1150	0.5803
1140	0.4712
1130	0.4789
1120	0.4346
1110	0.4635
1100	0.6229
1090	0.5974
1080	0.5187
1070	0.5689
1060	0.5749
1050	0.6236
1040	0.6719
1030	0.6792
1020	0.6346
1010	0.6628
1000	0.6743
990	0.7092
980	0.7545
970	0.7634
960	0.7381
950	0.5776
940	0.5878
930	0.6271
920	0.7518
910	0.7443
900	0.7771
890	0.7953
880	0.7996
870	0.7925
860	0.7847
850	0.7532
840	0.7243
830	0.7669
820	0.7922
810	0.7891
800	0.7904
790	0.7911
780	0.791
770	0.7849
760	0.7651
750	0.7626
740	0.7435
730	0.7147
720	0.6471
710	0.7171
700	0.735
690	0.7419
680	0.7371
670	0.7305
660	0.7261
650	0.7215
640	0.7175
630	0.7178
620	0.7243
610	0.7242
600	0.7282
590	0.7319
580	0.7365
570	0.7417
560	0.7475
550	0.7536
540	0.7596
530	0.764
520	0.768
510	0.7707
500	0.7675
490	0.7711
480	0.7755
470	0.7799
460	0.783
450	0.7862
440	0.7906
430	0.7951
420	0.8018
410	0.8098
400	0.8196
390	0.8268
380	0.8302
370	0.8318
360	0.835
350	0.8382
340	0.8404
330	0.8408
320	0.8428
310	0.8442
300	0.8437
