Infrared Spectrum: PYRIDINE-2-ALDEHYDE
Formula: C6 H5 N O
CAS: 1121-60-4
State: SOLUTION (10% CCl4 FOR 5000-1330, 10% CS2 FOR 1330-625 CM^-^1)
Class: COBLENTZ
Instrument: Not specified, most likely a prism, grating, or hybrid spectrometer.
Sampling: TRANSMISSION
Path length: 0.0122 CM, 0.0122 CM
Resolution: 4
Origin: DOW CHEMICAL COMPANY
MICROMETERS	TRANSMITTANCE
2.041	0.902
2.08194	0.897
2.12287	0.891
2.16381	0.897
2.20474	0.905
2.24568	0.902
2.28662	0.902
2.32755	0.907
2.36849	0.898
2.40942	0.895
2.45036	0.905
2.4913	0.91
2.53223	0.907
2.57317	0.907
2.61411	0.91
2.65504	0.907
2.69598	0.905
2.73691	0.907
2.77785	0.903
2.81879	0.9
2.85972	0.888
2.90066	0.852
2.94159	0.895
2.98253	0.897
3.02347	0.9
3.0644	0.898
3.10534	0.891
3.14627	0.874
3.18721	0.843
3.22815	0.708
3.26908	0.703
3.31002	0.807
3.35095	0.862
3.39189	0.84
3.43283	0.782
3.47376	0.535
3.5147	0.37
3.55564	0.811
3.59657	0.874
3.63751	0.828
3.67844	0.813
3.71938	0.874
3.76032	0.89
3.80125	0.897
3.84219	0.903
3.88312	0.907
3.92406	0.903
3.965	0.903
4.00593	0.909
4.04687	0.915
4.0878	0.914
4.12874	0.919
4.16968	0.921
4.21061	0.907
4.25155	0.9
4.29248	0.885
4.33342	0.903
4.37436	0.914
4.41529	0.919
4.45623	0.924
4.49716	0.926
4.5381	0.922
4.57904	0.921
4.61997	0.931
4.66091	0.926
4.70185	0.924
4.74278	0.929
4.78372	0.926
4.82465	0.922
4.86559	0.903
4.90653	0.912
4.94746	0.903
4.9884	0.874
5.02933	0.902
5.07027	0.876
5.11121	0.888
5.15214	0.888
5.19308	0.891
5.23401	0.876
5.27495	0.902
5.31589	0.89
5.35682	0.879
5.39776	0.895
5.43869	0.9
5.47963	0.9
5.52057	0.886
5.5615	0.883
5.60244	0.866
5.64338	0.806
5.68431	0.739
5.72525	0.59
5.76618	0.286
5.80712	0.053
5.84806	0.171
5.88899	0.704
5.92993	0.672
5.97086	0.626
6.0118	0.629
6.05274	0.806
6.09367	0.837
6.13461	0.818
6.17554	0.723
6.21648	0.591
6.25742	0.332
6.29835	0.257
6.33929	0.408
6.38022	0.466
6.42116	0.473
6.4621	0.545
6.50303	0.608
6.54397	0.653
6.58491	0.699
6.62584	0.754
6.66678	0.778
6.70771	0.759
6.74865	0.622
6.78959	0.555
6.83052	0.715
6.87146	0.644
6.91239	0.524
6.95333	0.754
6.99427	0.811
7.0352	0.816
7.07614	0.813
7.11707	0.845
7.15801	0.873
7.19895	0.864
7.23988	0.807
7.28082	0.641
7.32175	0.605
7.36269	0.878
7.40363	0.893
7.44456	0.905
7.4855	0.907
7.52644	0.895
7.56737	0.857
7.60831	0.79
7.64924	0.632
7.69018	0.536
7.73112	0.679
7.77205	0.782
7.81299	0.723
7.85392	0.646
7.89486	0.571
7.9358	0.686
7.97673	0.809
8.01767	0.819
8.0586	0.765
8.09954	0.662
8.14048	0.468
8.18141	0.188
8.22235	0.171
8.26328	0.487
8.30422	0.71
8.34516	0.732
8.38609	0.715
8.42703	0.797
8.46796	0.864
8.5089	0.881
8.54984	0.878
8.59077	0.862
8.63171	0.802
8.67265	0.699
8.71358	0.728
8.75452	0.867
8.79545	0.885
8.83639	0.895
8.87733	0.903
8.91826	0.903
8.9592	0.903
9.00013	0.905
9.04107	0.897
9.08201	0.869
9.12294	0.804
9.16388	0.718
9.20481	0.73
9.24575	0.864
9.28669	0.886
9.32762	0.893
9.36856	0.895
9.40949	0.891
9.45043	0.873
9.49137	0.828
9.5323	0.758
9.57324	0.567
9.61418	0.629
9.65511	0.837
9.69605	0.873
9.73698	0.878
9.77792	0.879
9.81886	0.869
9.85979	0.835
9.90073	0.754
9.94166	0.663
9.9826	0.662
10.0235	0.483
10.0645	0.373
10.1054	0.787
10.1463	0.833
10.1873	0.866
10.2282	0.879
10.2692	0.883
10.3101	0.885
10.351	0.883
10.392	0.885
10.4329	0.897
10.4738	0.903
10.5148	0.909
10.5557	0.912
10.5966	0.915
10.6376	0.915
10.6785	0.915
10.7194	0.915
10.7604	0.912
10.8013	0.909
10.8423	0.902
10.8832	0.891
10.9241	0.876
10.9651	0.861
11.006	0.84
11.0469	0.821
11.0879	0.801
11.1288	0.801
11.1697	0.813
11.2107	0.807
11.2516	0.801
11.2926	0.799
11.3335	0.789
11.3744	0.782
11.4154	0.77
11.4563	0.761
11.4972	0.746
11.5382	0.728
11.5791	0.706
11.62	0.689
11.661	0.674
11.7019	0.668
11.7429	0.667
11.7838	0.66
11.8247	0.636
11.8657	0.562
11.9066	0.461
11.9475	0.286
11.9885	0.138
12.0294	0.07
12.0703	0.164
12.1113	0.408
12.1522	0.567
12.1931	0.622
12.2341	0.624
12.275	0.605
12.316	0.622
12.3569	0.674
12.3978	0.703
12.4388	0.711
12.4797	0.715
12.5206	0.713
12.5616	0.704
12.6025	0.691
12.6434	0.674
12.6844	0.651
12.7253	0.631
12.7663	0.622
12.8072	0.612
12.8481	0.588
12.8891	0.535
12.93	0.471
12.9709	0.356
13.0119	0.21
13.0528	0.094
13.0937	0.029
13.1347	0.003
13.1756	0.008
13.2166	0.06
13.2575	0.166
13.2984	0.305
13.3394	0.397
13.3803	0.487
13.4212	0.572
13.4622	0.612
13.5031	0.62
13.544	0.607
13.585	0.595
13.6259	0.622
13.6668	0.663
13.7078	0.691
13.7487	0.711
13.7897	0.725
13.8306	0.732
13.8715	0.735
13.9125	0.732
13.9534	0.728
13.9943	0.723
14.0353	0.713
14.0762	0.704
14.1171	0.699
14.1581	0.692
14.199	0.682
14.24	0.675
14.2809	0.663
14.3218	0.653
14.3628	0.641
14.4037	0.622
14.4446	0.603
14.4856	0.578
14.5265	0.552
14.5674	0.518
14.6084	0.492
14.6493	0.466
14.6902	0.442
14.7312	0.421
14.7721	0.403
14.8131	0.38
14.854	0.361
14.8949	0.336
14.9359	0.301
14.9768	0.259
15.0177	0.204
15.0587	0.178
15.0996	0.168
15.1405	0.174
15.1815	0.202
15.2224	0.24
15.2634	0.276
15.3043	0.305
15.3452	0.334
15.3862	0.356
15.4271	0.375
15.468	0.391
15.509	0.397
15.5499	0.403
15.5908	0.408
15.6318	0.408
15.6727	0.408
15.7137	0.403
15.7546	0.399
15.7955	0.396
15.8365	0.391
15.8774	0.389
15.9183	0.397
