Infrared Spectrum: GLUTARIMIDE
Formula: C5 H7 N O2
CAS: 1121-89-7
State: SOLID (1 mg / 650 mg KBr DISC)
Class: COBLENTZ III
Instrument: PERKIN-ELMER 521 (GRATING)
Sampling: TRANSMISSION
Resolution: 4
Origin: SOUTHERN RESEARCH INSTITUTE
1/CM	TRANSMITTANCE
252.414	0.222
262.95	0.265
273.485	0.3389
284.021	0.417
294.556	0.482
305.092	0.553
315.628	0.599
326.163	0.624
336.699	0.658
347.234	0.693
357.77	0.717
368.306	0.715
378.841	0.689
389.377	0.566
399.913	0.67
410.448	0.836
420.984	0.829
431.519	0.773
442.055	0.6061
452.591	0.7309
463.126	0.841
473.662	0.899
484.197	0.893
494.733	0.888
505.269	0.875
515.804	0.861
526.34	0.839
536.875	0.794
547.411	0.617
557.947	0.739
568.482	0.856
579.018	0.893
589.553	0.876
600.089	0.797
610.625	0.704
621.16	0.882
631.696	0.893
642.232	0.892
652.767	0.878
663.303	0.848
673.838	0.831
684.374	0.895
694.91	0.891
705.445	0.882
715.981	0.87
726.516	0.852
737.052	0.825
747.588	0.786
758.123	0.708
768.659	0.807
779.194	0.78
789.73	0.743
800.266	0.71
810.801	0.681
821.337	0.655
831.873	0.654
842.408	0.681
852.944	0.722
863.479	0.764
874.015	0.804
884.551	0.821
895.086	0.824
905.622	0.803
916.157	0.718
926.693	0.828
937.229	0.842
947.764	0.844
958.3	0.84
968.835	0.836
979.371	0.837
989.907	0.832
1000.44	0.828
1010.98	0.818
1021.51	0.804
1032.05	0.786
1042.58	0.75
1053.12	0.569
1063.66	0.802
1074.19	0.812
1084.73	0.794
1095.26	0.776
1105.8	0.752
1116.33	0.713
1126.87	0.667
1137.41	0.523
1147.94	0.5091
1158.48	0.75
1169.01	0.5941
1179.55	0.363
1190.08	0.734
1200.62	0.837
1211.15	0.807
1221.69	0.759
1232.23	0.702
1242.76	0.571
1253.3	0.409
1263.83	0.404
1274.37	0.5259
1284.9	0.712
1295.44	0.803
1305.97	0.78
1316.51	0.7001
1327.05	0.591
1337.58	0.566
1348.12	0.484
1358.65	0.534
1369.19	0.502
1379.72	0.668
1390.26	0.773
1400.8	0.7359
1411.33	0.701
1421.87	0.637
1432.4	0.735
1442.94	0.816
1453.47	0.839
1464.01	0.772
1474.54	0.8099
1485.08	0.878
1495.62	0.876
1506.15	0.869
1516.69	0.849
1527.22	0.844
1537.76	0.841
1548.29	0.84
1558.83	0.824
1569.37	0.798
1579.9	0.769
1590.44	0.76
1600.97	0.729
1611.51	0.691
1622.04	0.637
1632.58	0.613
1643.11	0.556
1653.65	0.481
1664.19	0.425
1674.72	0.475
1685.26	0.361
1695.79	0.218
1706.33	0.264
1716.86	0.312
1727.4	0.379
1737.93	0.458
1748.47	0.558
1759.01	0.632
1769.54	0.672
1780.08	0.709
1790.61	0.736
1801.15	0.747
1811.68	0.739
1822.22	0.747
1832.76	0.782
1843.29	0.816
1853.83	0.832
1864.36	0.842
1874.9	0.841
1885.43	0.846
1895.97	0.865
1906.5	0.866
1917.04	0.874
1927.58	0.878
1938.11	0.89
1948.65	0.907
1959.18	0.907
1969.72	0.907
1980.25	0.91
1990.79	0.917
2001.33	0.921
2011.86	0.917
2022.4	0.918
2032.93	0.925
2043.47	0.93
2054	0.931
2064.54	0.931
2075.07	0.931
2085.61	0.93
2096.15	0.93
2106.68	0.9291
2117.22	0.928
2127.75	0.9309
2138.29	0.935
2148.82	0.935
2159.36	0.934
2169.89	0.933
2180.43	0.93
2190.97	0.928
2201.5	0.926
2212.04	0.9211
2222.57	0.914
2233.11	0.914
2243.64	0.913
2254.18	0.913
2264.72	0.912
2275.25	0.91
2285.79	0.91
2296.32	0.91
2306.86	0.909
2317.39	0.896
2327.93	0.892
2338.46	0.893
2349	0.9008
2359.54	0.904
2370.07	0.904
2380.61	0.9015
2391.14	0.897
2401.68	0.9007
2412.21	0.905
2422.75	0.9056
2433.29	0.905
2443.82	0.904
2454.36	0.9003
2464.89	0.8957
2475.43	0.893
2485.96	0.891
2496.5	0.891
2507.03	0.891
2517.57	0.891
2528.11	0.891
2538.64	0.891
2549.18	0.891
2559.71	0.893
2570.25	0.8914
2580.78	0.8888
2591.32	0.8834
2601.85	0.879
2612.39	0.879
2622.93	0.879
2633.46	0.879
2644	0.879
2654.53	0.8769
2665.07	0.874
2675.6	0.8654
2686.14	0.854
2696.68	0.863
2707.21	0.867
2717.75	0.867
2728.28	0.864
2738.82	0.859
2749.35	0.855
2759.89	0.8485
2770.42	0.8405
2780.96	0.826
2791.5	0.8126
2802.03	0.801
2812.57	0.787
2823.1	0.7595
2833.64	0.7385
2844.17	0.742
2854.71	0.7583
2865.25	0.773
2875.78	0.76
2886.32	0.7488
2896.85	0.7226
2907.39	0.7112
2917.92	0.7604
2928.46	0.7665
2938.99	0.757
2949.53	0.7396
2960.07	0.688
2970.6	0.6858
2981.14	0.7328
2991.67	0.7577
3002.21	0.754
3012.74	0.742
3023.28	0.7297
3033.81	0.7087
3044.35	0.6927
3054.89	0.6585
3065.42	0.6308
3075.96	0.6049
3086.49	0.596
3097.03	0.5993
3107.56	0.6063
3118.1	0.6215
3128.64	0.625
3139.17	0.6083
3149.71	0.5883
3160.24	0.5643
3170.78	0.5441
3181.31	0.5318
3191.85	0.5362
3202.38	0.5512
3212.92	0.5698
3223.46	0.5966
3233.99	0.6205
3244.53	0.6514
3255.06	0.6712
3265.6	0.6922
3276.13	0.7095
3286.67	0.7273
3297.21	0.7436
3307.74	0.7551
3318.28	0.757
3328.81	0.755
3339.35	0.7458
3349.88	0.7297
3360.42	0.7118
3370.95	0.6969
3381.49	0.6849
3392.03	0.681
3402.56	0.683
3413.1	0.685
3423.63	0.688
3434.17	0.691
3444.7	0.696
3455.24	0.704
3465.77	0.709
3476.31	0.721
3486.85	0.726
3497.38	0.731
3507.92	0.739
3518.45	0.753
3528.99	0.764
3539.52	0.777
3550.06	0.7929
3560.6	0.8009
3571.13	0.807
3581.67	0.82
3592.2	0.8269
3602.74	0.8369
3613.27	0.8489
3623.81	0.8579
3634.34	0.869
3644.88	0.871
3655.42	0.871
3665.95	0.867
3676.49	0.87
3687.02	0.8749
3697.56	0.878
3708.09	0.878
3718.63	0.876
3729.17	0.876
3739.7	0.876
3750.24	0.876
3760.77	0.876
3771.31	0.876
3781.84	0.875
3792.38	0.875
3802.91	0.875
3813.45	0.874
3823.99	0.874
3834.52	0.873
3845.06	0.873
3855.59	0.871
3866.13	0.87
3876.66	0.869
3887.2	0.866
3897.73	0.866
3908.27	0.866
3918.81	0.865
3929.34	0.865
3939.88	0.863
3950.41	0.862
3960.95	0.863
3971.48	0.863
3982.02	0.865
3992.56	0.866
