Infrared Spectrum: N-Sulfinylaniline
Formula: C6 H5 N O S
CAS: 1122-83-4
State: SOLUTION (5% CCl4 FOR 3800-1330, 5% CS2 FOR 1330-450 CM^-^1)
Class: COBLENTZ III
Instrument: DOW KBr FOREPRISM-GRATING
Instrument parameters: BLAZED AT 3.5, 12.0, 20.0 MICRON AND CHANGED AT 5.0, 7.5, 14.9 MICRON
Sampling: TRANSMISSION
Path length: 0.0108 CM, 0.0103 CM
Resolution: 2
Origin: DOW CHEMICAL COMPANY
1/CM	TRANSMITTANCE
3800	0.9389
3791	0.9406
3782	0.9387
3773	0.9405
3764	0.9402
3755	0.9401
3746	0.94
3737	0.9415
3728	0.9407
3719	0.9379
3710	0.9398
3701	0.9403
3692	0.9381
3683	0.9361
3674	0.9358
3665	0.9361
3656	0.9365
3647	0.9368
3638	0.9363
3629	0.9357
3620	0.9368
3611	0.9352
3602	0.9031
3593	0.9366
3584	0.9344
3575	0.9003
3566	0.9339
3557	0.9375
3548	0.941
3539	0.9402
3530	0.9406
3521	0.938
3512	0.9373
3503	0.9376
3494	0.9382
3485	0.9383
3476	0.9383
3467	0.9383
3458	0.9382
3449	0.9381
3440	0.9381
3431	0.9378
3422	0.9378
3413	0.9379
3404	0.9381
3395	0.9382
3386	0.9384
3377	0.9385
3368	0.9387
3359	0.9385
3350	0.9382
3341	0.938
3332	0.9375
3323	0.9371
3314	0.9368
3305	0.9383
3296	0.9362
3287	0.9363
3278	0.9377
3269	0.9383
3260	0.9383
3251	0.9383
3242	0.9383
3233	0.9383
3224	0.9384
3215	0.9385
3206	0.9366
3197	0.9381
3188	0.9372
3179	0.9342
3170	0.9333
3161	0.9324
3152	0.9321
3143	0.9235
3134	0.926
3125	0.9261
3116	0.9264
3107	0.9252
3098	0.9085
3089	0.8809
3080	0.8538
3071	0.7566
3062	0.7518
3053	0.8258
3044	0.8885
3035	0.9008
3026	0.8956
3017	0.8929
3008	0.9061
2999	0.9161
2990	0.9216
2981	0.9245
2972	0.9287
2963	0.9315
2954	0.9312
2945	0.931
2936	0.9334
2927	0.9319
2918	0.9304
2909	0.9306
2900	0.9305
2891	0.928
2882	0.9246
2873	0.925
2864	0.9262
2855	0.9283
2846	0.9306
2837	0.9319
2828	0.9318
2819	0.9338
2810	0.9313
2801	0.9322
2792	0.9293
2783	0.9264
2774	0.9253
2765	0.9233
2756	0.9212
2747	0.9212
2738	0.9225
2729	0.9258
2720	0.9282
2711	0.9296
2702	0.931
2693	0.9314
2684	0.9321
2675	0.9322
2666	0.9323
2657	0.9344
2648	0.9338
2639	0.9328
2630	0.9318
2621	0.9324
2612	0.9314
2603	0.9303
2594	0.9287
2585	0.9212
2576	0.917
2567	0.9192
2558	0.9229
2549	0.9269
2540	0.9296
2531	0.9307
2522	0.9321
2513	0.9342
2504	0.9362
2495	0.9364
2486	0.9348
2477	0.9334
2468	0.9265
2459	0.916
2450	0.9132
2441	0.9138
2432	0.9229
2423	0.9301
2414	0.9319
2405	0.9338
2396	0.9337
2387	0.9354
2378	0.9411
2369	0.944
2360	0.9463
2351	0.944
2342	0.9327
2333	0.9245
2324	0.9228
2315	0.905
2306	0.9124
2297	0.9233
2288	0.9283
2279	0.931
2270	0.9306
2261	0.9306
2252	0.9321
2243	0.9316
2234	0.9329
2225	0.9346
2216	0.934
2207	0.9343
2198	0.9339
2189	0.9309
2180	0.9316
2171	0.9352
2162	0.9349
2153	0.9362
2144	0.9375
2135	0.9388
2126	0.9401
2117	0.9417
2108	0.9435
2099	0.9446
2090	0.9418
2081	0.9388
2072	0.9392
2063	0.9391
2054	0.9351
2045	0.931
2036	0.932
2027	0.9348
2018	0.9365
2009	0.9364
2000	0.9356
1991	0.9185
1982	0.9141
1973	0.8973
1964	0.9111
1955	0.8938
1946	0.894
1937	0.9096
1928	0.913
1919	0.9131
1910	0.9008
1901	0.8919
1892	0.8905
1883	0.8937
1874	0.9038
1865	0.9102
1856	0.9119
1847	0.9112
1838	0.9103
1829	0.9072
1820	0.9038
1811	0.9088
1802	0.8824
1793	0.8959
1784	0.907
1775	0.9105
1766	0.9029
1757	0.8949
1748	0.8949
1739	0.9029
1730	0.9078
1721	0.9107
1712	0.9127
1703	0.9133
1694	0.9048
1685	0.8948
1676	0.9068
1667	0.9126
1658	0.9139
1649	0.9147
1640	0.9157
1631	0.9203
1622	0.9192
1613	0.9133
1604	0.8778
1595	0.8799
1586	0.8752
1577	0.8802
1568	0.8631
1559	0.8811
1550	0.9409
1541	0.9159
1532	0.9098
1523	0.9271
1514	0.9303
1505	0.9099
1496	0.8911
1487	0.6234
1478	0.8352
1469	0.9011
1460	0.8898
1451	0.6865
1442	0.893
1433	0.9044
1424	0.9114
1415	0.9101
1406	0.908
1397	0.9056
1388	0.8878
1379	0.883
1370	0.8773
1361	0.8802
1352	0.8854
1343	0.8837
1334	0.8799
1325	0.875
1316	0.8329
1307	0.7698
1298	0.4655
1289	0.3757
1280	0.4495
1271	0.7742
1262	0.8749
1253	0.8906
1244	0.8925
1235	0.8896
1226	0.8995
1217	0.8787
1208	0.8719
1199	0.8081
1190	0.4873
1181	0.3861
1172	0.5326
1163	0.0255
1154	0.274
1145	0.7727
1136	0.8591
1127	0.8957
1118	0.914
1109	0.9149
1100	0.8337
1091	0.8912
1082	0.8817
1073	0.6506
1064	0.857
1055	0.8978
1046	0.8969
1037	0.7814
1028	0.8739
1019	0.685
1010	0.9014
1001	0.8765
992	0.9055
983	0.9101
974	0.9142
965	0.913
956	0.9162
947	0.92
938	0.917
929	0.8948
920	0.7324
911	0.8561
902	0.9011
893	0.9183
884	0.9244
875	0.9251
866	0.9238
857	0.9292
848	0.9202
839	0.8923
830	0.8866
821	0.9023
812	0.9026
803	0.9064
794	0.8985
785	0.8747
776	0.7406
767	0.1053
758	0.571
749	0.7292
740	0.8046
731	0.8605
722	0.8822
713	0.8834
704	0.881
695	0.7826
686	0.1213
677	0.7775
668	0.8632
659	0.9096
650	0.9293
641	0.9128
632	0.739
623	0.9171
614	0.9346
605	0.8199
596	0.9102
587	0.9305
578	0.9396
569	0.9445
560	0.9443
551	0.9428
542	0.9413
533	0.8943
524	0.9239
515	0.9349
506	0.9356
497	0.9351
488	0.9344
479	0.9307
470	0.9216
461	0.9222
452	0.9223
