Infrared Spectrum: BENZALDEHYDE, 4-BROMO-
Formula: C7 H5 Br O
CAS: 1122-91-4
State: SOLUTION (2% IN CCl4 FOR 3800-1333, 2% IN CS2 FOR 1333-450 CM^-^1)
Class: COBLENTZ III
Instrument: DOW KBr FOREPRISM-GRATING
Instrument parameters: BLAZED AT 3.5, 12.0, 20.0 MICRON, CHANGED AT 5.0, 7.5, 14.9 MICRON
Sampling: TRANSMISSION
Path length: 0.011, 0.011 CM
Resolution: 4
Origin: DOW CHEMICAL COMPANY
1/CM	TRANSMITTANCE
448.366	0.975
457.117	0.967
465.869	0.916
474.62	0.79
483.372	1.021
492.123	1.027
500.875	0.984
509.626	1.032
518.378	1.045
527.129	1.046
535.881	1.047
544.632	1.052
553.384	1.057
562.135	1.058
570.887	1.058
579.638	1.057
588.39	1.054
597.141	1.054
605.893	1.047
614.644	1.041
623.395	1.026
632.147	1.023
640.898	1.001
649.65	0.986
658.401	1.005
667.153	1.012
675.904	0.972
684.656	0.906
693.407	0.986
702.159	0.987
710.91	0.989
719.662	0.993
728.413	0.994
737.165	1
745.916	1
754.668	0.991
763.419	0.987
772.171	0.982
780.922	0.983
789.673	0.973
798.425	0.956
807.176	0.869
815.928	0.327
824.679	0.805
833.431	0.469
842.182	0.88
850.934	0.817
859.685	0.821
868.437	0.863
877.188	0.904
885.94	0.943
894.691	0.98
903.443	1
912.194	1.002
920.946	1.006
929.697	1.004
938.449	1
947.2	0.984
955.951	1.002
964.703	1.006
973.454	1.004
982.206	1.006
990.957	1.005
999.709	0.971
1008.46	0.873
1017.21	1.001
1025.96	1.006
1034.71	1.006
1043.47	1.002
1052.22	0.994
1060.97	0.921
1069.72	0.843
1078.47	0.982
1087.22	0.98
1095.98	0.969
1104.73	0.987
1113.48	1.002
1122.23	1.004
1130.98	1.005
1139.73	0.998
1148.48	0.998
1157.24	0.984
1165.99	0.6712
1174.74	0.993
1183.49	0.984
1192.24	0.976
1200.99	0.538
1209.74	0.952
1218.5	0.991
1227.25	1.006
1236	1.001
1244.75	0.998
1253.5	0.994
1262.25	0.989
1271	0.976
1279.76	0.927
1288.51	0.957
1297.26	0.932
1306.01	0.96
1314.76	0.979
1323.51	0.986
1332.26	0.987
1341.02	0.987
1349.77	0.967
1358.52	0.972
1367.27	0.958
1376.02	0.902
1384.77	0.897
1393.53	0.972
1402.28	0.958
1411.03	0.934
1419.78	0.96
1428.53	0.957
1437.28	0.971
1446.03	0.978
1454.79	0.979
1463.54	0.967
1472.29	0.952
1481.04	0.863
1489.79	0.898
1498.54	0.872
1507.29	0.824
1516.05	0.757
1524.8	0.713
1533.55	0.638
1542.3	0.527
1551.05	0.491
1559.8	0.556
1568.55	0.587
1577.31	0.508
1586.06	0.4269
1594.81	0.4463
1603.56	0.852
1612.31	0.924
1621.06	0.956
1629.81	0.961
1638.57	0.965
1647.32	0.956
1656.07	0.941
1664.82	0.92
1673.57	0.946
1682.32	0.963
1691.08	0.893
1699.83	0.6828
1708.58	0.3539
1717.33	0.3453
1726.08	0.915
1734.83	0.932
1743.58	0.956
1752.34	0.976
1761.09	0.984
1769.84	0.99
1778.59	0.972
1787.34	0.987
1796.09	0.973
1804.84	0.976
1813.6	0.982
1822.35	0.984
1831.1	0.989
1839.85	0.984
1848.6	0.989
1857.35	0.983
1866.1	0.986
1874.86	0.984
1883.61	0.983
1892.36	0.983
1901.11	0.987
1909.86	0.979
1918.61	0.984
1927.36	0.987
1936.12	0.99
1944.87	0.993
1953.62	0.997
1962.37	1.001
1971.12	1.006
1979.87	1.009
1988.63	1.012
1997.38	1.015
2006.13	1.016
2014.88	1.017
2023.63	1.019
2032.38	1.02
2041.13	1.021
2049.89	1.023
2058.64	1.024
2067.39	1.026
2076.14	1.028
2084.89	1.028
2093.64	1.03
2102.39	1.03
2111.15	1.03
2119.9	1.03
2128.65	1.03
2137.4	1.03
2146.15	1.03
2154.9	1.03
2163.65	1.03
2172.41	1.028
2181.16	1.028
2189.91	1.027
2198.66	1.027
2207.41	1.026
2216.16	1.024
2224.92	1.0236
2233.67	1.021
2242.42	1.019
2251.17	1.0156
2259.92	1.0113
2268.67	1.0056
2277.42	1.001
2286.18	1
2294.93	1.001
2303.68	1.0044
2312.43	1.01
2321.18	1.015
2329.93	1.017
2338.68	1.019
2347.44	1.0193
2356.19	1.03
2364.94	1.0254
2373.69	1.0207
2382.44	1.0167
2391.19	1.015
2399.94	1.015
2408.7	1.017
2417.45	1.019
2426.2	1.017
2434.95	1.017
2443.7	1.017
2452.45	1.017
2461.2	1.016
2469.96	1.016
2478.71	1.016
2487.46	1.016
2496.21	1.016
2504.96	1.015
2513.71	1.015
2522.47	1.015
2531.22	1.012
2539.97	1.008
2548.72	1.008
2557.47	1.006
2566.22	1.006
2574.97	1.0048
2583.73	1.002
2592.48	1.0052
2601.23	1.009
2609.98	1.009
2618.73	1.008
2627.48	1.006
2636.23	1.006
2644.99	1.005
2653.74	1.004
2662.49	1.002
2671.24	1
2679.99	0.997
2688.74	0.993
2697.49	0.9869
2706.25	0.9797
2715	0.9573
2723.75	0.9237
2732.5	0.9073
2741.25	0.9424
2750	0.9711
2758.75	0.978
2767.51	0.9597
2776.26	0.9573
2785.01	0.9789
2793.76	0.9688
2802.51	0.9352
2811.26	0.938
2820.02	0.9181
2828.77	0.8728
2837.52	0.9248
2846.27	0.9785
2855.02	0.995
2863.77	0.9971
2872.52	1.001
2881.28	1.001
2890.03	1.004
2898.78	1.005
2907.53	1.0061
2916.28	1.012
2925.03	1.006
2933.78	1.005
2942.54	1.002
2951.29	1
2960.04	0.997
2968.79	0.994
2977.54	0.994
2986.29	0.99
2995.04	0.989
3003.8	0.989
3012.55	0.987
3021.3	0.989
3030.05	0.987
3038.8	0.984
3047.55	0.983
3056.31	0.986
3065.06	0.987
3073.81	0.987
3082.56	0.986
3091.31	0.986
3100.06	0.989
3108.81	0.9909
3117.57	0.993
3126.32	0.991
3135.07	0.991
3143.82	0.9929
3152.57	0.994
3161.32	0.994
3170.07	0.994
3178.83	0.995
3187.58	0.9979
3196.33	0.998
3205.08	0.998
3213.83	0.998
3222.58	0.998
3231.33	0.998
3240.09	0.997
3248.84	0.997
3257.59	0.997
3266.34	0.997
3275.09	0.998
3283.84	0.998
3292.59	0.998
3301.35	1
3310.1	1
3318.85	1
3327.6	1
3336.35	1
3345.1	1
3353.86	0.998
3362.61	0.998
3371.36	0.997
3380.11	0.997
3388.86	0.995
3397.61	0.993
3406.36	0.993
3415.12	0.9978
3423.87	1.002
3432.62	1.002
3441.37	1.002
3450.12	1.002
3458.87	1.001
3467.62	1
3476.38	0.998
3485.13	0.9972
3493.88	0.997
3502.63	0.995
3511.38	0.995
3520.13	0.995
3528.88	0.995
3537.64	0.995
3546.39	0.995
3555.14	0.997
3563.89	0.997
3572.64	0.997
3581.39	0.998
3590.14	0.998
3598.9	0.997
3607.65	0.995
3616.4	0.995
3625.15	0.9943
3633.9	0.993
3642.65	0.993
3651.41	0.993
3660.16	0.9947
3668.91	0.997
3677.66	0.995
3686.41	0.994
3695.16	0.993
3703.91	0.993
3712.67	0.994
3721.42	0.995
3730.17	0.9993
3738.92	1
3747.67	0.995
3756.42	0.994
3765.17	0.993
3773.93	0.991
3782.68	0.993
3791.43	0.995
