Infrared Spectrum: 2-CHLORO-4,5-DIMETHYLPHENOL
Formula: C8 H9 Cl O
CAS: 1124-04-5
State: SOLID (MELTED)
Melting point: 72-74 C
Class: COBLENTZ
Instrument: Not specified, most likely a prism, grating, or hybrid spectrometer.
Sampling: TRANSMISSION
Path length: CAPILLARY
Resolution: 4
Origin: WYANDOTTE CHEMICALS CORP., WYANDOTTE, MICHIGAN, USA
MICROMETERS	TRANSMITTANCE
2.02	0.674
2.06092	0.676
2.10184	0.688
2.14275	0.681
2.18367	0.679
2.22459	0.683
2.26551	0.695
2.30642	0.698
2.34734	0.705
2.38826	0.707
2.42918	0.707
2.47009	0.705
2.51101	0.729
2.55193	0.739
2.59285	0.743
2.63376	0.744
2.67468	0.732
2.7156	0.734
2.75652	0.702
2.79744	0.679
2.83835	0.611
2.87927	0.51
2.92019	0.352
2.96111	0.248
3.00202	0.128
3.04294	0.066
3.08386	0.073
3.12478	0.133
3.16569	0.244
3.20661	0.363
3.24753	0.45
3.28845	0.453
3.32936	0.354
3.37028	0.315
3.4112	0.453
3.45212	0.474
3.49304	0.547
3.53395	0.625
3.57487	0.636
3.61579	0.621
3.65671	0.669
3.69762	0.695
3.73854	0.708
3.77946	0.702
3.82038	0.724
3.86129	0.719
3.90221	0.715
3.94313	0.753
3.98405	0.772
4.02496	0.78
4.06588	0.744
4.1068	0.782
4.14772	0.809
4.18864	0.815
4.22955	0.799
4.27047	0.839
4.31139	0.849
4.35231	0.892
4.39322	0.871
4.43414	0.885
4.47506	0.873
4.51598	0.88
4.55689	0.88
4.59781	0.893
4.63873	0.892
4.67965	0.893
4.72057	0.904
4.76148	0.902
4.8024	0.902
4.84332	0.897
4.88424	0.904
4.92515	0.907
4.96607	0.919
5.00699	0.905
5.04791	0.907
5.08882	0.91
5.12974	0.921
5.17066	0.922
5.21158	0.917
5.25249	0.922
5.29341	0.909
5.33433	0.907
5.37525	0.933
5.41617	0.931
5.45708	0.926
5.498	0.941
5.53892	0.926
5.57984	0.929
5.62075	0.928
5.66167	0.917
5.70259	0.9
5.74351	0.835
5.78442	0.777
5.82534	0.782
5.86626	0.9
5.90718	0.904
5.94809	0.881
5.98901	0.856
6.02993	0.856
6.07085	0.828
6.11177	0.671
6.15268	0.508
6.1936	0.58
6.23452	0.695
6.27544	0.761
6.31635	0.779
6.35727	0.782
6.39819	0.76
6.43911	0.756
6.48002	0.698
6.52094	0.59
6.56186	0.282
6.60278	0.301
6.64369	0.479
6.68461	0.529
6.72553	0.467
6.76645	0.27
6.80737	0.087
6.84828	0.152
6.8892	0.308
6.93012	0.363
6.97104	0.315
7.01195	0.238
7.05287	0.215
7.09379	0.255
7.13471	0.397
7.17562	0.47
7.21654	0.5
7.25746	0.486
7.29838	0.671
7.33929	0.648
7.38021	0.63
7.42113	0.666
7.46205	0.671
7.50297	0.722
7.54388	0.775
7.5848	0.775
7.62572	0.768
7.66664	0.753
7.70755	0.666
7.74847	0.422
7.78939	0.277
7.83031	0.258
7.87122	0.416
7.91214	0.544
7.95306	0.577
7.99398	0.505
8.03489	0.366
8.07581	0.349
8.11673	0.412
8.15765	0.482
8.19857	0.52
8.23948	0.583
8.2804	0.601
8.32132	0.342
8.36224	0.226
8.40315	0.467
8.44407	0.595
8.48499	0.655
8.52591	0.664
8.56682	0.571
8.60774	0.251
8.64866	0.498
8.68958	0.72
8.7305	0.751
8.77141	0.799
8.81233	0.845
8.85325	0.849
8.89417	0.856
8.93508	0.861
8.976	0.871
9.01692	0.873
9.05784	0.883
9.09875	0.876
9.13967	0.869
9.18059	0.864
9.22151	0.861
9.26242	0.859
9.30334	0.851
9.34426	0.849
9.38518	0.839
9.4261	0.833
9.46701	0.842
9.50793	0.832
9.54885	0.821
9.58977	0.821
9.63068	0.789
9.6716	0.71
9.71252	0.477
9.75344	0.208
9.79435	0.171
9.83527	0.301
9.87619	0.515
9.91711	0.626
9.95802	0.674
9.99894	0.623
10.0399	0.464
10.0808	0.378
10.1217	0.363
10.1626	0.571
10.2035	0.727
10.2444	0.818
10.2854	0.861
10.3263	0.888
10.3672	0.898
10.4081	0.905
10.449	0.91
10.49	0.929
10.5309	0.928
10.5718	0.934
10.6127	0.938
10.6536	0.943
10.6945	0.948
10.7355	0.95
10.7764	0.953
10.8173	0.958
10.8582	0.964
10.8991	0.964
10.94	0.969
10.981	0.958
11.0219	0.967
11.0628	0.958
11.1037	0.955
11.1446	0.936
11.1856	0.929
11.2265	0.914
11.2674	0.912
11.3083	0.912
11.3492	0.892
11.3901	0.854
11.4311	0.777
11.472	0.625
11.5129	0.285
11.5538	0.131
11.5947	0.541
11.6356	0.743
11.6766	0.744
11.7175	0.467
11.7584	0.243
11.7993	0.669
11.8402	0.823
11.8812	0.892
11.9221	0.912
11.963	0.921
12.0039	0.924
12.0448	0.914
12.0857	0.912
12.1267	0.902
12.1676	0.886
12.2085	0.852
12.2494	0.818
12.2903	0.801
12.3312	0.799
12.3722	0.813
12.4131	0.801
12.454	0.806
12.4949	0.779
12.5358	0.758
12.5768	0.696
12.6177	0.565
12.6586	0.356
12.6995	0.265
12.7404	0.398
12.7813	0.571
12.8223	0.678
12.8632	0.738
12.9041	0.76
12.945	0.767
12.9859	0.765
13.0268	0.77
13.0678	0.75
13.1087	0.751
13.1496	0.748
13.1905	0.739
13.2314	0.726
13.2724	0.722
13.3133	0.719
13.3542	0.702
13.3951	0.686
13.436	0.638
13.4769	0.573
13.5179	0.508
13.5588	0.489
13.5997	0.455
13.6406	0.41
13.6815	0.364
13.7224	0.424
13.7634	0.551
13.8043	0.616
13.8452	0.659
13.8861	0.671
13.927	0.691
13.968	0.702
14.0089	0.726
14.0498	0.729
14.0907	0.738
14.1316	0.75
14.1725	0.751
14.2135	0.768
14.2544	0.772
14.2953	0.768
14.3362	0.753
14.3771	0.75
14.418	0.751
14.459	0.702
14.4999	0.648
14.5408	0.633
14.5817	0.638
14.6226	0.648
14.6636	0.669
14.7045	0.688
14.7454	0.686
14.7863	0.693
14.8272	0.702
14.8681	0.696
14.9091	0.696
14.95	0.693
14.9909	0.681
15.0318	0.669
15.0727	0.664
15.1136	0.669
15.1546	0.679
15.1955	0.684
15.2364	0.681
15.2773	0.664
15.3182	0.669
15.3592	0.648
15.4001	0.636
15.441	0.64
15.4819	0.628
15.5228	0.613
15.5637	0.606
15.6047	0.606
15.6456	0.599
15.6865	0.599
15.7274	0.602
15.7683	0.604
15.8092	0.604
15.8502	0.625
15.8911	0.626
15.932	0.633
