Infrared Spectrum: N-BUTYL PHENYL ETHER
Formula: C10 H14 O
CAS: 1126-79-0
State: LIQUID
Boiling point: 86-87 C AT 12 mmHg
Class: COBLENTZ
Instrument: Not specified, most likely a prism, grating, or hybrid spectrometer.
Sampling: TRANSMISSION
Path length: 0.003 CM
Resolution: 4
Origin: WYANDOTTE CHEMICALS CORP., WYANDOTTE, MICHIGAN, USA
MICROMETERS	TRANSMITTANCE
2.079	1
2.11905	1
2.15911	0.993
2.19916	0.975
2.23921	0.973
2.27927	0.968
2.31932	0.966
2.35938	0.963
2.39943	0.951
2.43948	0.965
2.47954	0.98
2.51959	0.985
2.55964	0.991
2.5997	0.993
2.63975	0.998
2.6798	1.003
2.71986	1.004
2.75991	1.004
2.79997	1.001
2.84002	0.998
2.88007	0.991
2.92013	0.991
2.96018	0.99
3.00023	0.986
3.04029	0.985
3.08034	0.991
3.1204	0.97
3.16045	0.965
3.2005	0.905
3.24056	0.678
3.28061	0.582
3.32066	0.537
3.36072	0.162
3.40077	0.135
3.44082	0.248
3.48088	0.21
3.52093	0.56
3.56099	0.855
3.60104	0.897
3.64109	0.895
3.68115	0.91
3.7212	0.948
3.76125	0.968
3.80131	0.973
3.84136	0.963
3.88141	0.965
3.92147	0.963
3.96152	0.943
4.00158	0.953
4.04163	0.951
4.08168	0.933
4.12174	0.956
4.16179	0.968
4.20184	0.961
4.2419	0.963
4.28195	0.976
4.322	0.983
4.36206	0.988
4.40211	0.988
4.44217	0.978
4.48222	0.985
4.52227	0.99
4.56233	0.99
4.60238	0.988
4.64243	0.993
4.68249	0.998
4.72254	1
4.7626	1
4.80265	0.985
4.8427	0.976
4.88276	0.968
4.92281	0.943
4.96286	0.917
5.00292	0.943
5.04297	0.965
5.08302	0.961
5.12308	0.96
5.16313	0.955
5.20319	0.915
5.24324	0.892
5.28329	0.958
5.32335	0.98
5.3634	0.98
5.40345	0.963
5.44351	0.935
5.48356	0.92
5.52361	0.966
5.56367	0.975
5.60372	0.963
5.64378	0.953
5.68383	0.933
5.72388	0.961
5.76394	0.965
5.80399	0.95
5.84404	0.92
5.8841	0.905
5.92415	0.917
5.9642	0.94
6.00426	0.941
6.04431	0.918
6.08437	0.895
6.12442	0.756
6.16447	0.283
6.20453	0.046
6.24458	0.107
6.28463	0.487
6.32469	0.744
6.36474	0.809
6.4048	0.859
6.44485	0.852
6.4849	0.814
6.52496	0.796
6.56501	0.64
6.60506	0.281
6.64512	0.039
6.68517	0.187
6.72522	0.162
6.76528	0.119
6.80533	0.266
6.84539	0.467
6.88544	0.665
6.92549	0.703
6.96555	0.759
7.0056	0.842
7.04565	0.849
7.08571	0.789
7.12576	0.573
7.16581	0.398
7.20587	0.517
7.24592	0.661
7.28598	0.817
7.32603	0.832
7.36608	0.822
7.40614	0.737
7.44619	0.625
7.48624	0.653
7.5263	0.674
7.56635	0.628
7.6064	0.404
7.64646	0.199
7.68651	0.237
7.72657	0.238
7.76662	0.379
7.80667	0.52
7.84673	0.402
7.88678	0.243
7.92683	0.106
7.96689	0.029
8.00694	0.031
8.047	0.031
8.08705	0.059
8.1271	0.092
8.16716	0.114
8.20721	0.185
8.24726	0.378
8.28732	0.563
8.32737	0.665
8.36742	0.728
8.40748	0.739
8.44753	0.6
8.48759	0.263
8.52764	0.199
8.56769	0.587
8.60775	0.615
8.6478	0.495
8.68785	0.643
8.72791	0.747
8.76796	0.792
8.80801	0.718
8.84807	0.6
8.88812	0.636
8.92818	0.663
8.96823	0.704
9.00828	0.718
9.04834	0.721
9.08839	0.704
9.12844	0.62
9.1685	0.416
9.20855	0.2
9.2486	0.26
9.28866	0.354
9.32871	0.301
9.36877	0.383
9.40882	0.555
9.44887	0.606
9.48893	0.514
9.52898	0.32
9.56903	0.227
9.60909	0.217
9.64914	0.2
9.6892	0.169
9.72925	0.338
9.7693	0.467
9.80936	0.477
9.84941	0.389
9.88946	0.394
9.92952	0.613
9.96957	0.621
10.0096	0.636
10.0497	0.643
10.0897	0.658
10.1298	0.661
10.1698	0.623
10.2099	0.547
10.2499	0.436
10.29	0.389
10.3301	0.535
10.3701	0.638
10.4102	0.679
10.4502	0.699
10.4903	0.746
10.5303	0.796
10.5704	0.842
10.6104	0.852
10.6505	0.87
10.6905	0.88
10.7306	0.888
10.7706	0.89
10.8107	0.88
10.8508	0.882
10.8908	0.892
10.9309	0.883
10.9709	0.839
11.011	0.799
11.051	0.797
11.0911	0.842
11.1311	0.845
11.1712	0.827
11.2112	0.767
11.2513	0.663
11.2913	0.533
11.3314	0.422
11.3714	0.422
11.4115	0.459
11.4516	0.529
11.4916	0.66
11.5317	0.766
11.5717	0.815
11.6118	0.84
11.6518	0.864
11.6919	0.875
11.7319	0.888
11.772	0.89
11.812	0.885
11.8521	0.875
11.8921	0.868
11.9322	0.872
11.9723	0.855
12.0123	0.819
12.0524	0.791
12.0924	0.771
12.1325	0.772
12.1725	0.777
12.2126	0.756
12.2526	0.719
12.2927	0.668
12.3327	0.598
12.3728	0.572
12.4128	0.63
12.4529	0.636
12.493	0.553
12.533	0.492
12.5731	0.533
12.6131	0.621
12.6532	0.699
12.6932	0.754
12.7333	0.752
12.7733	0.729
12.8134	0.694
12.8534	0.683
12.8935	0.678
12.9335	0.669
12.9736	0.633
13.0136	0.57
13.0537	0.475
13.0938	0.315
13.1338	0.18
13.1739	0.084
13.2139	0.043
13.254	0.041
13.294	0.044
13.3341	0.053
13.3741	0.122
13.4142	0.227
13.4542	0.333
13.4943	0.398
13.5343	0.466
13.5744	0.532
13.6145	0.585
13.6545	0.646
13.6946	0.711
13.7346	0.756
13.7747	0.797
13.8147	0.824
13.8548	0.845
13.8948	0.85
13.9349	0.864
13.9749	0.864
14.015	0.872
14.055	0.873
14.0951	0.867
14.1352	0.864
14.1752	0.847
14.2153	0.827
14.2553	0.796
14.2954	0.734
14.3354	0.648
14.3755	0.524
14.4155	0.381
14.4556	0.243
14.4956	0.177
14.5357	0.15
14.5757	0.197
14.6158	0.354
14.6558	0.525
14.6959	0.641
14.736	0.736
14.776	0.782
14.8161	0.822
14.8561	0.834
14.8962	0.842
14.9362	0.852
14.9763	0.845
15.0163	0.84
15.0564	0.842
15.0964	0.852
15.1365	0.86
15.1765	0.865
15.2166	0.865
15.2567	0.865
15.2967	0.873
15.3368	0.873
15.3768	0.87
15.4169	0.867
15.4569	0.862
15.497	0.867
15.537	0.865
15.5771	0.864
15.6171	0.86
15.6572	0.855
15.6972	0.85
15.7373	0.845
15.7774	0.842
15.8174	0.835
15.8575	0.83
15.8975	0.832
15.9376	0.829
15.9776	0.824
16.0177	0.827
