Infrared Spectrum: Methyl-p-chlorobenzoate
Formula: C8 H7 Cl O2
CAS: 1126-46-1
State: SOLUTION (5% CCl4 FOR 3800-1330, 5% CS2 FOR 1330-400 CM^-^1)
Class: COBLENTZ III
Instrument: DOW KBr FOREPRISM-GRATING
Instrument parameters: BLAZED AT 3.5, 12.0, 20.0 MICRON AND CHANGED AT 5.0, 7.5, 14.9 MICRON
Sampling: TRANSMISSION
Path length: 0.010 CM, 0.010 CM
Resolution: 2
Origin: DOW CHEMICAL COMPANY
1/CM	TRANSMITTANCE
3798	0.9069
3789	0.9081
3780	0.9082
3771	0.9084
3762	0.9086
3753	0.9088
3744	0.9089
3735	0.9103
3726	0.9101
3717	0.91
3708	0.9111
3699	0.911
3690	0.9097
3681	0.9086
3672	0.9088
3663	0.9089
3654	0.909
3645	0.9088
3636	0.9085
3627	0.9092
3618	0.9088
3609	0.9078
3600	0.9066
3591	0.9065
3582	0.9065
3573	0.9062
3564	0.9051
3555	0.9061
3546	0.9062
3537	0.9059
3528	0.9049
3519	0.9049
3510	0.9046
3501	0.9042
3492	0.903
3483	0.902
3474	0.9015
3465	0.8977
3456	0.8881
3447	0.877
3438	0.8719
3429	0.8748
3420	0.8801
3411	0.8842
3402	0.8881
3393	0.8904
3384	0.8905
3375	0.8901
3366	0.89
3357	0.8902
3348	0.89
3339	0.8889
3330	0.8885
3321	0.8883
3312	0.8891
3303	0.8875
3294	0.887
3285	0.8866
3276	0.8872
3267	0.8881
3258	0.8883
3249	0.8882
3240	0.8882
3231	0.8882
3222	0.888
3213	0.8877
3204	0.8863
3195	0.8868
3186	0.8853
3177	0.8844
3168	0.8837
3159	0.8817
3150	0.8759
3141	0.8729
3132	0.8748
3123	0.8755
3114	0.8757
3105	0.8762
3096	0.8778
3087	0.8688
3078	0.8604
3069	0.8628
3060	0.8639
3051	0.8643
3042	0.8584
3033	0.8276
3024	0.8224
3015	0.8232
3006	0.778
2997	0.7973
2988	0.8332
2979	0.8431
2970	0.826
2961	0.5686
2952	0.6926
2943	0.8209
2934	0.8475
2925	0.8598
2916	0.861
2907	0.852
2898	0.8537
2889	0.8591
2880	0.8632
2871	0.8675
2862	0.8712
2853	0.863
2844	0.8122
2835	0.8646
2826	0.881
2817	0.8888
2808	0.8931
2799	0.8948
2790	0.8955
2781	0.8958
2772	0.8969
2763	0.8977
2754	0.8987
2745	0.8995
2736	0.8999
2727	0.9001
2718	0.9005
2709	0.9004
2700	0.9004
2691	0.9003
2682	0.9005
2673	0.9007
2664	0.9009
2655	0.9022
2646	0.9024
2637	0.901
2628	0.9019
2619	0.9012
2610	0.8997
2601	0.8979
2592	0.8956
2583	0.8942
2574	0.8923
2565	0.8891
2556	0.8884
2547	0.8922
2538	0.8958
2529	0.8991
2520	0.9017
2511	0.903
2502	0.9032
2493	0.9027
2484	0.9014
2475	0.9025
2466	0.9029
2457	0.9029
2448	0.9044
2439	0.9048
2430	0.9051
2421	0.9048
2412	0.9017
2403	0.8993
2394	0.8988
2385	0.9009
2376	0.9083
2367	0.9115
2358	0.9162
2349	0.9194
2340	0.9223
2331	0.9214
2322	0.9203
2313	0.9156
2304	0.9106
2295	0.9073
2286	0.9021
2277	0.9027
2268	0.9031
2259	0.9042
2250	0.9029
2241	0.904
2232	0.9045
2223	0.9061
2214	0.9063
2205	0.9075
2196	0.9081
2187	0.9074
2178	0.9092
2169	0.9102
2160	0.9098
2151	0.9104
2142	0.9106
2133	0.9096
2124	0.9072
2115	0.9023
2106	0.8963
2097	0.8939
2088	0.8957
2079	0.8961
2070	0.8981
2061	0.9004
2052	0.9061
2043	0.908
2034	0.9079
2025	0.9072
2016	0.9076
2007	0.9076
1998	0.9074
1989	0.9082
1980	0.9101
1971	0.9116
1962	0.9134
1953	0.907
1944	0.9036
1935	0.8882
1926	0.8456
1917	0.8554
1908	0.8856
1899	0.9011
1890	0.9046
1881	0.906
1872	0.9066
1863	0.9055
1854	0.9051
1845	0.9038
1836	0.902
1827	0.8995
1818	0.8954
1809	0.878
1800	0.8679
1791	0.844
1782	0.8518
1773	0.8596
1764	0.8594
1755	0.8193
1746	0.729
1737	0.4103
1728	0.0097
1719	0.1713
1710	0.5947
1701	0.7793
1692	0.7919
1683	0.7963
1674	0.8037
1665	0.8507
1656	0.8623
1647	0.8654
1638	0.8595
1629	0.8553
1620	0.8128
1611	0.7661
1602	0.4072
1593	0.4787
1584	0.6739
1575	0.6832
1566	0.7182
1557	0.6902
1548	0.7046
1539	0.7475
1530	0.7675
1521	0.7993
1512	0.8233
1503	0.8379
1494	0.816
1485	0.781
1476	0.8306
1467	0.8025
1458	0.7347
1449	0.6473
1440	0.2515
1431	0.6052
1422	0.8181
1413	0.7751
1404	0.5855
1395	0.719
1386	0.7934
1377	0.807
1368	0.784
1359	0.7799
1350	0.7841
1341	0.8235
1332	0.8339
1323	0.8132
1314	0.6599
1305	0.6174
1296	0.5227
1287	0.1101
1278	0.0093
1269	0.1083
1260	0.5221
1251	0.6496
1242	0.7128
1233	0.6064
1224	0.8219
1215	0.8574
1206	0.8523
1197	0.6486
1188	0.6559
1179	0.7871
1170	0.4763
1161	0.8266
1152	0.8431
1143	0.8382
1134	0.744
1125	0.6856
1116	0.1311
1107	0.1711
1098	0.3132
1089	0.4368
1080	0.7916
1071	0.836
1062	0.8755
1053	0.8561
1044	0.8674
1035	0.8814
1026	0.8832
1017	0.1937
1008	0.8241
999	0.8822
990	0.8932
981	0.8817
972	0.7659
963	0.8004
954	0.8592
945	0.8889
936	0.8994
927	0.9026
918	0.9054
909	0.9065
900	0.9043
891	0.8927
882	0.8795
873	0.8624
864	0.8281
855	0.5196
846	0.7449
837	0.8299
828	0.5853
819	0.8023
810	0.8694
801	0.8865
792	0.888
783	0.8866
774	0.7826
765	0.0316
756	0.7738
747	0.8521
738	0.8807
729	0.693
720	0.8948
711	0.8974
702	0.8895
693	0.8488
684	0.6798
675	0.8681
666	0.884
657	0.886
648	0.8795
639	0.876
630	0.8704
621	0.8764
612	0.8882
603	0.8939
594	0.8978
585	0.8982
576	0.8961
567	0.8954
558	0.8938
549	0.8865
540	0.8738
531	0.6556
522	0.7125
513	0.8469
504	0.8589
495	0.8379
486	0.7805
477	0.7673
468	0.7788
459	0.7957
450	0.8023
441	0.7984
432	0.7724
423	0.7324
414	0.6584
405	0.4644
396	0.4037
387	0.3668
