Infrared Spectrum: NAPHTHALENE, 1-ETHYL-
Formula: C12 H12
CAS: 1127-76-0
State: LIQUID (NEAT)
Class: COBLENTZ III
Instrument: PERKIN-ELMER
Sampling: TRANSMISSION
Path length: 0.02 CM (CsI CELL)
Resolution: 4
Origin: AIR MAT. LAB., WRIGHT-PAT. AFB
1/CM	TRANSMITTANCE
219.005	0.78
228.507	0.784
238.01	0.787
247.512	0.789
257.014	0.79
266.516	0.792
276.019	0.794
285.521	0.799
295.023	0.811
304.525	0.814
314.028	0.799
323.53	0.792
333.032	0.829
342.534	0.831
352.037	0.831
361.539	0.831
371.041	0.831
380.544	0.827
390.046	0.809
399.548	0.753
409.05	0.613
418.553	0.6002
428.055	0.443
437.557	0.679
447.059	0.799
456.562	0.809
466.064	0.799
475.566	0.79
485.068	0.622
494.571	0.787
504.073	0.806
513.575	0.7751
523.078	0.777
532.58	0.715
542.082	0.7249
551.584	0.752
561.087	0.703
570.589	0.804
580.091	0.7301
589.593	0.726
599.096	0.807
608.598	0.816
618.1	0.814
627.602	0.817
637.105	0.7791
646.607	0.819
656.109	0.814
665.612	0.811
675.114	0.804
684.616	0.77
694.118	0.669
703.621	0.797
713.123	0.772
722.625	0.566
732.127	0.6566
741.63	0.735
751.132	0.652
760.634	0.29
770.136	0.0401
779.639	0.05
789.141	0.133
798.643	0.2238
808.146	0.6389
817.648	0.75
827.15	0.774
836.652	0.755
846.155	0.701
855.657	0.4781
865.159	0.7819
874.661	0.794
884.164	0.784
893.666	0.736
903.168	0.768
912.67	0.79
922.173	0.787
931.675	0.77
941.177	0.6451
950.68	0.6339
960.182	0.595
969.684	0.704
979.186	0.762
988.689	0.753
998.191	0.6182
1007.69	0.603
1017.2	0.711
1026.7	0.6939
1036.2	0.765
1045.7	0.725
1055.2	0.5538
1064.71	0.711
1074.21	0.706
1083.71	0.6979
1093.21	0.785
1102.72	0.79
1112.22	0.787
1121.72	0.78
1131.22	0.755
1140.72	0.7059
1150.23	0.713
1159.73	0.497
1169.23	0.694
1178.73	0.763
1188.24	0.75
1197.74	0.738
1207.24	0.694
1216.74	0.757
1226.25	0.72
1235.75	0.758
1245.25	0.7031
1254.75	0.531
1264.25	0.699
1273.76	0.763
1283.26	0.768
1292.76	0.787
1302.26	0.768
1311.77	0.6392
1321.27	0.736
1330.77	0.763
1340.27	0.748
1349.77	0.618
1359.28	0.706
1368.78	0.5021
1378.28	0.553
1387.78	0.4559
1397.29	0.4109
1406.79	0.698
1416.29	0.711
1425.79	0.6172
1435.3	0.571
1444.8	0.426
1454.3	0.409
1463.8	0.338
1473.3	0.677
1482.81	0.711
1492.31	0.694
1501.81	0.2914
1511.31	0.438
1520.82	0.698
1530.32	0.73
1539.82	0.763
1549.32	0.77
1558.82	0.765
1568.33	0.74
1577.83	0.639
1587.33	0.5212
1596.83	0.36
1606.34	0.758
1615.84	0.738
1625.34	0.743
1634.84	0.75
1644.35	0.757
1653.85	0.757
1663.35	0.748
1672.85	0.723
1682.35	0.718
1691.86	0.718
1701.36	0.748
1710.86	0.75
1720.36	0.741
1729.87	0.745
1739.37	0.747
1748.87	0.741
1758.37	0.743
1767.87	0.753
1777.38	0.758
1786.88	0.747
1796.38	0.703
1805.88	0.691
1815.39	0.752
1824.89	0.736
1834.39	0.738
1843.89	0.757
1853.39	0.731
1862.9	0.728
1872.4	0.752
1881.9	0.767
1891.4	0.755
1900.91	0.74
1910.41	0.696
1919.91	0.676
1929.41	0.686
1938.92	0.699
1948.42	0.711
1957.92	0.757
1967.42	0.782
1976.92	0.785
1986.43	0.787
1995.93	0.789
2005.43	0.789
2014.93	0.789
2024.44	0.789
2033.94	0.79
2043.44	0.787
2052.94	0.787
2062.44	0.7901
2071.95	0.7909
2081.45	0.789
2090.95	0.789
2100.45	0.789
2109.96	0.789
2119.46	0.789
2128.96	0.789
2138.46	0.7888
2147.97	0.785
2157.47	0.784
2166.97	0.7846
2176.47	0.787
2185.97	0.787
2195.48	0.787
2204.98	0.7844
2214.48	0.782
2223.98	0.78
2233.49	0.78
2242.99	0.78
2252.49	0.782
2261.99	0.782
2271.49	0.7795
2281	0.777
2290.5	0.7766
2300	0.7726
2309.5	0.77
2319.01	0.77
2328.51	0.7704
2338.01	0.7747
2347.51	0.774
2357.02	0.774
2366.52	0.774
2376.02	0.774
2385.52	0.7715
2395.02	0.768
2404.53	0.767
2414.03	0.767
2423.53	0.7705
2433.03	0.775
2442.54	0.775
2452.04	0.7742
2461.54	0.7743
2471.04	0.775
2480.54	0.775
2490.05	0.7723
2499.55	0.772
2509.05	0.77
2518.55	0.77
2528.06	0.77
2537.56	0.77
2547.06	0.77
2556.56	0.77
2566.06	0.77
2575.57	0.768
2585.07	0.768
2594.57	0.767
2604.07	0.765
2613.58	0.7604
2623.08	0.755
2632.58	0.7624
2642.08	0.7668
2651.59	0.763
2661.09	0.763
2670.59	0.763
2680.09	0.763
2689.59	0.7625
2699.1	0.757
2708.6	0.7541
2718.1	0.7451
2727.6	0.7489
2737.11	0.753
2746.61	0.75
2756.11	0.747
2765.61	0.74
2775.11	0.738
2784.62	0.738
2794.12	0.738
2803.62	0.7278
2813.12	0.7078
2822.63	0.6916
2832.13	0.6538
2841.63	0.615
2851.13	0.5947
2860.64	0.4785
2870.14	0.263
2879.64	0.3296
2889.14	0.438
2898.64	0.4292
2908.15	0.4121
2917.65	0.3952
2927.15	0.2555
2936.65	0.2735
2946.16	0.329
2955.66	0.1564
2965.16	0.075
2974.66	0.2049
2984.16	0.4634
2993.67	0.504
3003.17	0.445
3012.67	0.47
3022.17	0.4462
3031.68	0.3163
3041.18	0.2496
3050.68	0.2734
3060.18	0.2814
3069.69	0.347
3079.19	0.5142
3088.69	0.571
3098.19	0.6302
3107.69	0.693
3117.2	0.7237
3126.7	0.728
3136.2	0.7315
3145.7	0.7345
3155.21	0.733
3164.71	0.73
3174.21	0.7353
3183.71	0.7426
3193.21	0.7473
3202.72	0.747
3212.22	0.747
3221.72	0.7516
3231.22	0.7527
3240.73	0.753
3250.23	0.7537
3259.73	0.753
3269.23	0.755
3278.73	0.757
3288.24	0.757
3297.74	0.757
3307.24	0.7576
3316.74	0.757
3326.25	0.757
3335.75	0.755
3345.25	0.755
3354.75	0.755
3364.26	0.755
3373.76	0.755
3383.26	0.755
3392.76	0.7532
3402.26	0.753
3411.77	0.753
3421.27	0.753
3430.77	0.752
3440.27	0.752
3449.78	0.752
3459.28	0.7511
3468.78	0.75
3478.28	0.75
3487.78	0.75
3497.29	0.75
3506.79	0.748
3516.29	0.748
3525.79	0.748
3535.3	0.747
3544.8	0.747
3554.3	0.745
3563.8	0.745
3573.31	0.743
3582.81	0.743
3592.31	0.743
3601.81	0.745
3611.31	0.747
3620.82	0.747
3630.32	0.747
3639.82	0.747
3649.32	0.747
3658.83	0.743
3668.33	0.7388
3677.83	0.74
3687.33	0.74
3696.83	0.7395
3706.34	0.736
3715.84	0.735
3725.34	0.735
3734.84	0.735
3744.35	0.735
3753.85	0.735
3763.35	0.735
3772.85	0.7308
3782.36	0.73
3791.86	0.7258
3801.36	0.7257
3810.86	0.725
3820.36	0.723
3829.87	0.721
3839.37	0.721
3848.87	0.7202
3858.37	0.723
3867.88	0.726
3877.38	0.726
3886.88	0.728
3896.38	0.728
3905.88	0.728
3915.39	0.726
3924.89	0.73
3934.39	0.728
3943.89	0.725
3953.4	0.725
3962.9	0.725
3972.4	0.7234
3981.9	0.723
