Infrared Spectrum: ESTRADIOL, DIPROPIONATE
Formula: C24 H32 O4
CAS: 113-38-2
State: SOLID (0.9 mg / 200 mg KBr DISC)
Class: COBLENTZ III
Instrument: PERKIN-ELMER 21 (GRATING)
Instrument parameters: FILTER AT ABOUT 10 MICRONS
Sampling: TRANSMISSION
Resolution: 2
1/CM	TRANSMITTANCE
4000	0.9177
3991	0.9178
3982	0.918
3973	0.9182
3964	0.9184
3955	0.9186
3946	0.9188
3937	0.9192
3928	0.92
3919	0.9209
3910	0.9218
3901	0.9227
3892	0.9236
3883	0.9246
3874	0.9257
3865	0.9268
3856	0.9278
3847	0.929
3838	0.9297
3829	0.9305
3820	0.9313
3811	0.932
3802	0.9324
3793	0.9325
3784	0.9328
3775	0.9332
3766	0.9334
3757	0.9337
3748	0.9341
3739	0.9343
3730	0.9346
3721	0.9349
3712	0.9351
3703	0.9355
3694	0.9357
3685	0.936
3676	0.9364
3667	0.9366
3658	0.9368
3649	0.9371
3640	0.9373
3631	0.9375
3622	0.9378
3613	0.9378
3604	0.9382
3595	0.9394
3586	0.9431
3577	0.9465
3568	0.9481
3559	0.9491
3550	0.9502
3541	0.9508
3532	0.9511
3523	0.9514
3514	0.9501
3505	0.9487
3496	0.948
3487	0.9473
3478	0.9468
3469	0.9471
3460	0.9473
3451	0.9475
3442	0.948
3433	0.95
3424	0.9534
3415	0.9562
3406	0.9591
3397	0.9618
3388	0.9638
3379	0.9632
3370	0.9603
3361	0.9588
3352	0.9578
3343	0.9573
3334	0.9568
3325	0.9556
3316	0.9533
3307	0.9504
3298	0.948
3289	0.9465
3280	0.9451
3271	0.9445
3262	0.944
3253	0.9435
3244	0.9431
3235	0.9427
3226	0.9423
3217	0.9417
3208	0.9411
3199	0.9405
3190	0.9397
3181	0.9388
3172	0.9375
3163	0.9358
3154	0.9347
3145	0.934
3136	0.9337
3127	0.9339
3118	0.9315
3109	0.928
3100	0.9254
3091	0.9236
3082	0.9205
3073	0.9168
3064	0.9121
3055	0.9068
3046	0.9008
3037	0.8923
3028	0.8718
3019	0.7992
3010	0.7417
3001	0.6839
2992	0.6257
2983	0.6006
2974	0.5991
2965	0.5687
2956	0.5299
2947	0.4909
2938	0.4721
2929	0.4826
2920	0.5164
2911	0.5504
2902	0.5847
2893	0.6085
2884	0.6073
2875	0.6081
2866	0.6262
2857	0.6622
2848	0.6987
2839	0.7353
2830	0.7719
2821	0.7989
2812	0.8199
2803	0.8512
2794	0.8737
2785	0.8868
2776	0.8959
2767	0.9011
2758	0.9046
2749	0.9071
2740	0.9099
2731	0.9125
2722	0.915
2713	0.9175
2704	0.92
2695	0.9225
2686	0.9248
2677	0.9271
2668	0.9296
2659	0.931
2650	0.9321
2641	0.9321
2632	0.9286
2623	0.9265
2614	0.9257
2605	0.928
2596	0.9293
2587	0.9304
2578	0.9306
2569	0.9325
2560	0.9371
2551	0.9391
2542	0.9395
2533	0.9411
2524	0.9428
2515	0.945
2506	0.9473
2497	0.9487
2488	0.9496
2479	0.948
2470	0.9464
2461	0.9457
2452	0.9449
2443	0.9458
2434	0.9471
2425	0.9483
2416	0.9485
2407	0.9486
2398	0.949
2389	0.9495
2380	0.951
2371	0.9541
2362	0.9552
2353	0.9534
2344	0.9508
2335	0.9484
2326	0.9465
2317	0.946
2308	0.9468
2299	0.9474
2290	0.9491
2281	0.9518
2272	0.9571
2263	0.9606
2254	0.963
2245	0.9642
2236	0.9659
2227	0.969
2218	0.971
2209	0.9721
2200	0.9734
2191	0.9746
2182	0.9757
2173	0.9767
2164	0.9778
2155	0.9788
2146	0.9791
2137	0.9795
2128	0.98
2119	0.9801
2110	0.9801
2101	0.9799
2092	0.9793
2083	0.9773
2074	0.9748
2065	0.972
2056	0.968
2047	0.9694
2038	0.9716
2029	0.9736
2020	0.9748
2011	0.9761
2002	0.9773
1993	0.9775
1984	0.9778
1975	0.9781
1966	0.978
1957	0.9778
1948	0.9777
1939	0.9777
1930	0.978
1921	0.9754
1912	0.9713
1903	0.9665
1894	0.9645
1885	0.9639
1876	0.9635
1867	0.9624
1858	0.9604
1849	0.9556
1840	0.9474
1831	0.9345
1822	0.9182
1813	0.9007
1804	0.8787
1795	0.8375
1786	0.7655
1777	0.6772
1768	0.302
1759	0.4337
1750	0.618
1741	0.4005
1732	0.3305
1723	0.5084
1714	0.6987
1705	0.7987
1696	0.8564
1687	0.8896
1678	0.9143
1669	0.9341
1660	0.9424
1651	0.9448
1642	0.968
1633	0.9633
1624	0.9488
1615	0.9139
1606	0.8878
1597	0.9397
1588	0.9141
1579	0.9316
1570	0.9512
1561	0.9615
1552	0.9624
1543	0.958
1534	0.9527
1525	0.9451
1516	0.9031
1507	0.8043
1498	0.4822
1489	0.7503
1480	0.8135
1471	0.7769
1462	0.615
1453	0.706
1444	0.7933
1435	0.7535
1426	0.7215
1417	0.7105
1408	0.8509
1399	0.8375
1390	0.7733
1381	0.6298
1372	0.6544
1363	0.6524
1354	0.4822
1345	0.6092
1336	0.6799
1327	0.7654
1318	0.846
1309	0.883
1300	0.8757
1291	0.8142
1282	0.7301
1273	0.6897
1264	0.6985
1255	0.7214
1246	0.6491
1237	0.6715
1228	0.4933
1219	0.3891
1210	0.3966
1201	0.2724
1192	0.2204
1183	0.4624
1174	0.5318
1165	0.3668
1156	0.1483
1147	0.2503
1138	0.2049
1129	0.355
1120	0.5534
1111	0.6728
1102	0.7457
1093	0.7528
1084	0.6212
1075	0.5824
1066	0.6735
1057	0.6981
1048	0.7354
1039	0.7361
1030	0.6664
1021	0.7392
1012	0.6171
1003	0.7712
994	0.7953
985	0.8092
976	0.8424
967	0.8085
958	0.8053
949	0.8649
940	0.9154
931	0.8985
922	0.8746
913	0.8107
904	0.7941
895	0.5429
886	0.8462
877	0.8939
868	0.9058
859	0.9259
850	0.9207
841	0.9194
832	0.8003
823	0.8261
814	0.8503
805	0.7751
796	0.884
787	0.8966
778	0.9205
769	0.9471
760	0.9592
751	0.953
742	0.9528
733	0.9567
724	0.9697
715	0.9596
706	0.9477
697	0.9523
688	0.9467
679	0.9357
670	0.9388
