Infrared Spectrum: 2,4-PENTANEDIONE, 3-BENZYL-
Formula: C12 H14 O2
CAS: 1134-87-8
State: SOLUTION (7% CHCl3 FOR 2.5-15 MICRON) VS SOLVENT
Boiling point: 114 C AT 1.8 mmHg
Class: COBLENTZ III
Instrument: PERKIN-ELMER 421 (GRATING)
Instrument parameters: GRATINGS: 1999 CM^-^1
Sampling: TRANSMISSION
Path length: 0.010 CM
Resolution: 2
Origin: ABBOTT LABORATORIES
1/CM	TRANSMITTANCE
706.098	0.937
714.591	0.9587
723.085	0.9947
731.578	0.996
740.072	0.995
748.565	0.991
757.059	0.983
765.552	0.977
774.045	0.9639
782.539	0.951
791.032	0.943
799.526	0.9338
808.019	0.893
816.512	0.8622
825.006	0.8305
833.499	0.824
841.993	0.822
850.486	0.816
858.98	0.7873
867.473	0.7827
875.966	0.7717
884.46	0.7607
892.953	0.7288
901.447	0.7214
909.94	0.7169
918.433	0.71
926.927	0.6931
935.42	0.5867
943.914	0.443
952.407	0.4855
960.901	0.5676
969.394	0.5897
977.887	0.5901
986.381	0.5928
994.874	0.6084
1003.37	0.6265
1011.86	0.6219
1020.35	0.5973
1028.85	0.598
1037.34	0.6815
1045.83	0.701
1054.33	0.699
1062.82	0.6724
1071.31	0.6402
1079.81	0.6443
1088.3	0.673
1096.8	0.6693
1105.29	0.6567
1113.78	0.653
1122.28	0.6349
1130.77	0.54
1139.26	0.4203
1147.76	0.3712
1156.25	0.4431
1164.74	0.503
1173.24	0.4888
1181.73	0.479
1190.22	0.479
1198.72	0.4731
1207.21	0.4412
1215.7	0.4361
1224.2	0.4352
1232.69	0.435
1241.18	0.435
1249.68	0.436
1258.17	0.4313
1266.66	0.4317
1275.16	0.457
1283.65	0.46
1292.14	0.456
1300.64	0.455
1309.13	0.463
1317.62	0.4865
1326.12	0.5046
1334.61	0.5126
1343.1	0.4344
1351.6	0.2439
1360.09	0.2045
1368.58	0.3914
1377.08	0.4654
1385.57	0.461
1394.06	0.4378
1402.56	0.3639
1411.05	0.317
1419.55	0.33
1428.04	0.354
1436.53	0.3649
1445.03	0.3682
1453.52	0.3689
1462.01	0.5061
1470.51	0.53
1479	0.5148
1487.49	0.3627
1495.99	0.4623
1504.48	0.514
1512.97	0.512
1521.47	0.5028
1529.96	0.4876
1538.45	0.4519
1546.95	0.411
1555.44	0.3891
1563.93	0.3526
1572.43	0.2997
1580.92	0.2643
1589.41	0.2451
1597.91	0.231
1606.4	0.2847
1614.89	0.3443
1623.39	0.3731
1631.88	0.4282
1640.37	0.4805
1648.87	0.5021
1657.36	0.504
1665.85	0.501
1674.35	0.4379
1682.84	0.3362
1691.33	0.1467
1699.83	0.1344
1708.32	0.2336
1716.81	0.2315
1725.31	0.254
1733.8	0.4679
1742.29	0.5778
1750.79	0.6584
1759.28	0.709
1767.78	0.7322
1776.27	0.7395
1784.76	0.748
1793.26	0.747
1801.75	0.7474
1810.24	0.7556
1818.74	0.7694
1827.23	0.777
1835.72	0.783
1844.22	0.784
1852.71	0.781
1861.2	0.7768
1869.7	0.778
1878.19	0.7801
1886.68	0.7858
1895.18	0.788
1903.67	0.794
1912.16	0.7979
1920.66	0.7989
1929.15	0.7944
1937.64	0.7837
1946.14	0.7768
1954.63	0.7856
1963.12	0.788
1971.62	0.7997
1980.11	0.801
1988.6	0.802
1997.1	0.8098
2005.59	0.8246
2014.08	0.83
2022.58	0.832
2031.07	0.835
2039.56	0.8354
2048.06	0.834
2056.55	0.835
2065.04	0.835
2073.54	0.8346
2082.03	0.836
2090.52	0.8366
2099.02	0.84
2107.51	0.835
2116.01	0.84
2124.5	0.836
2132.99	0.838
2141.49	0.841
2149.98	0.842
2158.47	0.842
2166.97	0.846
2175.46	0.8426
2183.95	0.8446
2192.45	0.8434
2200.94	0.8414
2209.43	0.8388
2217.93	0.84
2226.42	0.841
2234.91	0.844
2243.41	0.844
2251.9	0.844
2260.39	0.846
2268.89	0.8434
2277.38	0.843
2285.87	0.846
2294.37	0.849
2302.86	0.853
2311.35	0.8572
2319.85	0.865
2328.34	0.8654
2336.83	0.865
2345.33	0.867
2353.82	0.867
2362.31	0.865
2370.81	0.862
2379.3	0.862
2387.79	0.8768
2396.29	0.8784
2404.78	0.8484
2413.27	0.8314
2421.77	0.826
2430.26	0.826
2438.76	0.825
2447.25	0.822
2455.74	0.819
2464.24	0.8164
2472.73	0.816
2481.22	0.814
2489.72	0.8126
2498.21	0.8212
2506.7	0.816
2515.2	0.817
2523.69	0.8184
2532.18	0.818
2540.68	0.822
2549.17	0.823
2557.66	0.824
2566.16	0.8224
2574.65	0.823
2583.14	0.819
2591.64	0.818
2600.13	0.82
2608.62	0.819
2617.12	0.8184
2625.61	0.819
2634.1	0.82
2642.6	0.823
2651.09	0.824
2659.58	0.8246
2668.08	0.8256
2676.57	0.8272
2685.06	0.8268
2693.56	0.8226
2702.05	0.825
2710.54	0.823
2719.04	0.8256
2727.53	0.828
2736.02	0.8242
2744.52	0.824
2753.01	0.824
2761.5	0.823
2770	0.823
2778.49	0.8246
2786.99	0.822
2795.48	0.824
2803.97	0.824
2812.47	0.8224
2820.96	0.818
2829.45	0.816
2837.95	0.8108
2846.44	0.7934
2854.93	0.786
2863.43	0.7932
2871.92	0.798
2880.41	0.7948
2888.91	0.7834
2897.4	0.765
2905.89	0.7418
2914.39	0.7118
2922.88	0.6976
2931.37	0.7066
2939.87	0.7239
2948.36	0.751
2956.85	0.7464
2965.35	0.7438
2973.84	0.7414
2982.33	0.7194
2990.83	0.6567
2999.32	0.5306
3007.81	0.4644
3016.31	0.4654
3024.8	0.4654
3033.29	0.536
3041.79	0.6728
3050.28	0.6726
3058.77	0.6494
3067.27	0.6879
3075.76	0.7142
3084.25	0.7025
3092.75	0.7665
3101.24	0.778
3109.73	0.7974
3118.23	0.8152
3126.72	0.819
3135.22	0.822
3143.71	0.825
3152.2	0.825
3160.7	0.8256
3169.19	0.8286
3177.68	0.831
3186.18	0.831
3194.67	0.83
3203.16	0.83
3211.66	0.832
3220.15	0.8356
3228.64	0.837
3237.14	0.838
3245.63	0.84
3254.12	0.84
3262.62	0.838
3271.11	0.8406
3279.6	0.841
3288.1	0.84
3296.59	0.84
3305.08	0.84
3313.58	0.837
3322.07	0.836
3330.56	0.835
3339.06	0.8392
3347.55	0.8374
3356.04	0.832
3364.54	0.8294
3373.03	0.8244
3381.52	0.822
3390.02	0.819
3398.51	0.8186
3407	0.8236
3415.5	0.8306
3423.99	0.837
3432.48	0.841
3440.98	0.8416
3449.47	0.8426
3457.97	0.8436
3466.46	0.842
3474.95	0.8452
3483.45	0.8476
3491.94	0.848
3500.43	0.8486
3508.93	0.8496
3517.42	0.8512
3525.91	0.8526
3534.41	0.8536
3542.9	0.853
3551.39	0.854
3559.89	0.854
3568.38	0.856
3576.87	0.8586
3585.37	0.861
3593.86	0.862
3602.35	0.865
3610.85	0.865
3619.34	0.865
3627.83	0.865
3636.33	0.862
3644.82	0.8594
3653.31	0.862
3661.81	0.867
3670.3	0.8766
3678.79	0.877
3687.29	0.8738
3695.78	0.876
3704.27	0.877
3712.77	0.8776
3721.26	0.878
3729.75	0.877
3738.25	0.876
3746.74	0.876
3755.23	0.876
3763.73	0.876
3772.22	0.876
3780.71	0.876
3789.21	0.876
3797.7	0.876
3806.2	0.875
3814.69	0.873
3823.18	0.873
3831.68	0.872
3840.17	0.8714
3848.66	0.871
3857.16	0.871
3865.65	0.872
3874.14	0.8726
3882.64	0.873
3891.13	0.8724
3899.62	0.8704
3908.12	0.867
3916.61	0.867
3925.1	0.866
3933.6	0.867
3942.09	0.868
3950.58	0.868
