Infrared Spectrum: Cinnamic acid, 4-hydroxy-3-methoxy-
Formula: C10 H10 O4
CAS: 1135-24-6
State: SOLID (OIL MULL)
Class: COBLENTZ III
Instrument: CARY 90 (GRATING)
Instrument parameters: GRATING CHANGES: 3000, 2000, 1200 CM^-^1
Sampling: TRANSMISSION
Resolution: 2
Origin: WESTERN REGIONAL RES. USDA
1/CM	TRANSMITTANCE
454	0.5059
463	0.564
472	0.6033
481	0.6419
490	0.6708
499	0.6903
508	0.7049
517	0.7155
526	0.7434
535	0.7815
544	0.8055
553	0.814
562	0.8085
571	0.7463
580	0.7527
589	0.8315
598	0.7945
607	0.8161
616	0.8284
625	0.8402
634	0.8502
643	0.8587
652	0.8664
661	0.8714
670	0.8731
679	0.8672
688	0.8338
697	0.841
706	0.8835
715	0.884
724	0.8833
733	0.8818
742	0.8798
751	0.8261
760	0.8864
769	0.9044
778	0.9102
787	0.9105
796	0.905
805	0.8834
814	0.8848
823	0.9056
832	0.899
841	0.8884
850	0.7283
859	0.8859
868	0.8923
877	0.89
886	0.8866
895	0.881
904	0.8717
913	0.8558
922	0.8413
931	0.8154
940	0.7785
949	0.7543
958	0.8405
967	0.8254
976	0.8695
985	0.8777
994	0.8752
1003	0.8681
1012	0.8525
1021	0.8213
1030	0.713
1039	0.8407
1048	0.8631
1057	0.8617
1066	0.8586
1075	0.8553
1084	0.8512
1093	0.8447
1102	0.8243
1111	0.732
1120	0.8208
1129	0.8115
1138	0.7946
1147	0.7311
1156	0.6581
1165	0.556
1174	0.4859
1183	0.5416
1192	0.6151
1201	0.3893
1210	0.5344
1219	0.7309
1228	0.6815
1237	0.7387
1246	0.7656
1255	0.6465
1264	0.4933
1273	0.3438
1282	0.6052
1291	0.6602
1300	0.8029
1309	0.8057
1318	0.7378
1327	0.7615
1336	0.8585
1345	0.8706
1354	0.8555
1363	0.7971
1372	0.7023
1381	0.6675
1390	0.8019
1399	0.8134
1408	0.6968
1417	0.6953
1426	0.6444
1435	0.5594
1444	0.6963
1453	0.6381
1462	0.5441
1471	0.696
1480	0.8447
1489	0.8482
1498	0.8095
1507	0.5349
1516	0.4028
1525	0.8295
1534	0.8913
1543	0.9032
1552	0.9032
1561	0.8906
1570	0.8568
1579	0.7957
1588	0.6304
1597	0.515
1606	0.6361
1615	0.537
1624	0.5742
1633	0.8293
1642	0.8458
1651	0.7525
1660	0.6048
1669	0.6338
1678	0.7157
1687	0.6169
1696	0.6658
1705	0.8404
1714	0.9014
1723	0.9295
1732	0.9374
1741	0.942
1750	0.9447
1759	0.9462
1768	0.9468
1777	0.9474
1786	0.9484
1795	0.9491
1804	0.9479
1813	0.9469
1822	0.9464
1831	0.9508
1840	0.9583
1849	0.9597
1858	0.9595
1867	0.9594
1876	0.9592
1885	0.959
1894	0.9588
1903	0.9586
1912	0.9579
1921	0.9569
1930	0.9563
1939	0.9562
1948	0.9561
1957	0.9556
1966	0.9548
1975	0.9541
1984	0.9534
1993	0.9469
2002	0.9291
2011	0.9245
2020	0.9243
2029	0.924
2038	0.9235
2047	0.9224
2056	0.9214
2065	0.9203
2074	0.9193
2083	0.9181
2092	0.917
2101	0.9158
2110	0.9147
2119	0.9137
2128	0.9127
2137	0.9117
2146	0.9106
2155	0.9093
2164	0.9081
2173	0.9068
2182	0.9057
2191	0.9047
2200	0.9037
2209	0.9027
2218	0.9013
2227	0.8998
2236	0.8983
2245	0.8956
2254	0.8928
2263	0.8901
2272	0.8875
2281	0.8849
2290	0.8824
2299	0.8799
2308	0.8777
2317	0.8755
2326	0.8733
2335	0.871
2344	0.8686
2353	0.866
2362	0.8635
2371	0.8609
2380	0.858
2389	0.8546
2398	0.8512
2407	0.8479
2416	0.8445
2425	0.8403
2434	0.8361
2443	0.8318
2452	0.8273
2461	0.8223
2470	0.8174
2479	0.8122
2488	0.8069
2497	0.8015
2506	0.7987
2515	0.7962
2524	0.797
2533	0.7982
2542	0.7959
2551	0.7932
2560	0.7905
2569	0.7879
2578	0.7849
2587	0.7819
2596	0.7828
2605	0.7861
2614	0.79
2623	0.793
2632	0.7935
2641	0.7918
2650	0.7886
2659	0.7855
2668	0.7826
2677	0.7819
2686	0.7823
2695	0.784
2704	0.786
2713	0.7836
2722	0.7803
2731	0.7838
2740	0.792
2749	0.7953
2758	0.794
2767	0.7892
2776	0.7828
2785	0.7749
2794	0.7663
2803	0.7555
2812	0.7404
2821	0.7172
2830	0.6769
2839	0.6306
2848	0.5393
2857	0.3975
2866	0.3377
2875	0.3543
2884	0.4343
2893	0.4296
2902	0.342
2911	0.2755
2920	0.1805
2929	0.1412
2938	0.1862
2947	0.2432
2956	0.212
2965	0.274
2974	0.4122
2983	0.5503
2992	0.6606
3001	0.6915
3010	0.7108
3019	0.7068
3028	0.723
3037	0.741
3046	0.748
3055	0.757
3064	0.7652
3073	0.7724
3082	0.7768
3091	0.78
3100	0.7952
3109	0.8023
3118	0.8059
3127	0.8095
3136	0.8125
3145	0.8155
3154	0.8172
3163	0.8189
3172	0.8198
3181	0.8201
3190	0.8193
3199	0.8185
3208	0.8207
3217	0.8249
3226	0.829
3235	0.8297
3244	0.8296
3253	0.8286
3262	0.8269
3271	0.8246
3280	0.8215
3289	0.8181
3298	0.8142
3307	0.8097
3316	0.8039
3325	0.7978
3334	0.7913
3343	0.7845
3352	0.7761
3361	0.7677
3370	0.7593
3379	0.7508
3388	0.7423
3397	0.7337
3406	0.7234
3415	0.7128
3424	0.6958
3433	0.652
3442	0.6286
3451	0.6458
3460	0.7031
3469	0.7663
3478	0.7938
3487	0.8263
3496	0.8411
3505	0.8488
3514	0.8536
3523	0.8572
3532	0.8594
3541	0.8612
3550	0.8624
3559	0.8633
3568	0.8638
3577	0.8643
3586	0.8647
3595	0.8649
3604	0.865
3613	0.8651
3622	0.8655
3631	0.8658
3640	0.8662
3649	0.8663
3658	0.8659
3667	0.8655
3676	0.8651
3685	0.8644
3694	0.8633
3703	0.8622
3712	0.8611
3721	0.8597
3730	0.8584
3739	0.8571
3748	0.8558
3757	0.8544
3766	0.853
3775	0.8515
3784	0.8501
3793	0.8493
3802	0.8495
3811	0.8496
3820	0.8508
3829	0.8523
3838	0.8532
3847	0.8533
3856	0.8533
3865	0.8527
3874	0.8517
3883	0.8507
3892	0.8487
3901	0.8464
3910	0.8442
3919	0.8417
3928	0.8394
3937	0.8369
3946	0.8345
3955	0.8324
3964	0.8306
3973	0.8294
3982	0.8289
3991	0.8282
4000	0.8276
