Infrared Spectrum: Benzophenone, 4-amino-
Formula: C13 H11 N O
CAS: 1137-41-3
State: SOLID (0.8 mg / 300 mg KBr DISC)
Class: COBLENTZ II
Instrument: PERKIN-ELMER 180 (GRATING)
Instrument parameters: GRATINGS: 2000, 1000, 500, 250 CM^-^1; FILTER CHANGE: 2970, 2000, 1485, 1000, 743, 500, 372, 250, 186 CM^-^1.
Sampling: TRANSMISSION
Resolution: 2
Origin: K. K. DEB-NCI FREDERICK CANCER RESEARCH CENTER
1/CM	TRANSMITTANCE
391	0.7133
400	0.7181
409	0.7369
418	0.7349
427	0.7369
436	0.6778
445	0.7193
454	0.7457
463	0.7428
472	0.7352
481	0.7269
490	0.7131
499	0.6566
508	0.5449
517	0.6713
526	0.6813
535	0.6777
544	0.6714
553	0.6633
562	0.6571
571	0.6434
580	0.6297
589	0.6061
598	0.5271
607	0.3325
616	0.6997
625	0.7147
634	0.69
643	0.7141
652	0.7283
661	0.7323
670	0.7378
679	0.66
688	0.6516
697	0.4636
706	0.4495
715	0.7457
724	0.7746
733	0.7535
742	0.4874
751	0.757
760	0.8106
769	0.8139
778	0.8094
787	0.7644
796	0.5637
805	0.8098
814	0.8101
823	0.7768
832	0.7285
841	0.5202
850	0.5815
859	0.7518
868	0.8048
877	0.8099
886	0.8054
895	0.7994
904	0.7909
913	0.7599
922	0.5341
931	0.7516
940	0.5759
949	0.7843
958	0.7626
967	0.7407
976	0.7763
985	0.7751
994	0.7685
1003	0.7585
1012	0.7718
1021	0.7376
1030	0.7728
1039	0.7688
1048	0.7616
1057	0.7529
1066	0.7057
1075	0.6857
1084	0.7447
1093	0.7412
1102	0.7308
1111	0.7152
1120	0.6895
1129	0.6359
1138	0.6138
1147	0.4611
1156	0.5129
1165	0.6909
1174	0.5073
1183	0.4885
1192	0.7765
1201	0.7796
1210	0.7642
1219	0.7562
1228	0.7377
1237	0.7112
1246	0.6743
1255	0.6195
1264	0.5647
1273	0.4339
1282	0.2327
1291	0.3495
1300	0.3819
1309	0.2244
1318	0.1406
1327	0.3278
1336	0.6582
1345	0.7407
1354	0.8131
1363	0.83
1372	0.825
1381	0.7962
1390	0.8091
1399	0.8127
1408	0.8102
1417	0.7934
1426	0.7535
1435	0.591
1444	0.4662
1453	0.8144
1462	0.8134
1471	0.7906
1480	0.7646
1489	0.7287
1498	0.7261
1507	0.6534
1516	0.5171
1525	0.657
1534	0.5744
1543	0.4918
1552	0.333
1561	0.2869
1570	0.3302
1579	0.2555
1588	0.0658
1597	0.2634
1606	0.4868
1615	0.4526
1624	0.2853
1633	0.278
1642	0.3779
1651	0.6037
1660	0.7487
1669	0.8033
1678	0.8348
1687	0.85
1696	0.8598
1705	0.8591
1714	0.8618
1723	0.8684
1732	0.876
1741	0.8811
1750	0.884
1759	0.883
1768	0.8819
1777	0.8844
1786	0.8779
1795	0.884
1804	0.8947
1813	0.8905
1822	0.8849
1831	0.8812
1840	0.883
1849	0.8853
1858	0.8836
1867	0.8823
1876	0.8792
1885	0.8747
1894	0.8697
1903	0.8659
1912	0.8541
1921	0.8546
1930	0.8728
1939	0.8719
1948	0.8672
1957	0.86
1966	0.8543
1975	0.8638
1984	0.8628
1993	0.8613
2002	0.8581
2011	0.8545
2020	0.8549
2029	0.8573
2038	0.8574
2047	0.8568
2056	0.8557
2065	0.8545
2074	0.8533
2083	0.8519
2092	0.8505
2101	0.8489
2110	0.8474
2119	0.8464
2128	0.8454
2137	0.8449
2146	0.8447
2155	0.8444
2164	0.8443
2173	0.8442
2182	0.8428
2191	0.8406
2200	0.8385
2209	0.8371
2218	0.8369
2227	0.8365
2236	0.8359
2245	0.8352
2254	0.8345
2263	0.8334
2272	0.8322
2281	0.8309
2290	0.8297
2299	0.8284
2308	0.8271
2317	0.8258
2326	0.8261
2335	0.8267
2344	0.826
2353	0.8248
2362	0.8227
2371	0.8198
2380	0.8176
2389	0.8155
2398	0.8134
2407	0.8112
2416	0.8082
2425	0.805
2434	0.8025
2443	0.8076
2452	0.8051
2461	0.8023
2470	0.8029
2479	0.804
2488	0.8035
2497	0.8019
2506	0.7999
2515	0.7999
2524	0.7997
2533	0.8001
2542	0.7992
2551	0.7969
2560	0.7937
2569	0.7903
2578	0.7861
2587	0.7819
2596	0.7791
2605	0.7765
2614	0.7745
2623	0.773
2632	0.7718
2641	0.7702
2650	0.7682
2659	0.7653
2668	0.7593
2677	0.7522
2686	0.7579
2695	0.7661
2704	0.7715
2713	0.7744
2722	0.7758
2731	0.7754
2740	0.773
2749	0.7702
2758	0.7676
2767	0.7657
2776	0.7648
2785	0.7658
2794	0.7652
2803	0.7627
2812	0.7601
2821	0.7551
2830	0.75
2839	0.744
2848	0.738
2857	0.7361
2866	0.7362
2875	0.7355
2884	0.7333
2893	0.7288
2902	0.7221
2911	0.7147
2920	0.7093
2929	0.7091
2938	0.7134
2947	0.7163
2956	0.716
2965	0.7157
2974	0.7154
2983	0.715
2992	0.7129
3001	0.7041
3010	0.694
3019	0.6825
3028	0.6711
3037	0.6573
3046	0.6375
3055	0.6517
3064	0.6777
3073	0.676
3082	0.6738
3091	0.6752
3100	0.6713
3109	0.6716
3118	0.6691
3127	0.6649
3136	0.66
3145	0.6509
3154	0.6414
3163	0.629
3172	0.6122
3181	0.5808
3190	0.5451
3199	0.5094
3208	0.4704
3217	0.4461
3226	0.4393
3235	0.4933
3244	0.5545
3253	0.5773
3262	0.5748
3271	0.5639
3280	0.5621
3289	0.5484
3298	0.5129
3307	0.475
3316	0.4093
3325	0.3423
3334	0.2753
3343	0.2167
3352	0.3197
3361	0.4405
3370	0.5613
3379	0.6027
3388	0.606
3397	0.5745
3406	0.543
3415	0.5114
3424	0.4879
3433	0.5116
3442	0.5548
3451	0.5837
3460	0.6085
3469	0.633
3478	0.6879
3487	0.7133
3496	0.725
3505	0.7298
3514	0.7324
3523	0.7338
3532	0.7341
3541	0.7341
3550	0.7343
3559	0.7344
3568	0.7346
3577	0.7348
3586	0.735
3595	0.7352
3604	0.7354
3613	0.7351
3622	0.7349
3631	0.7347
3640	0.7343
3649	0.7334
3658	0.7326
3667	0.7311
3676	0.7291
3685	0.7312
3694	0.7317
3703	0.7294
3712	0.7272
3721	0.7251
3730	0.7231
3739	0.7212
3748	0.7199
3757	0.7186
3766	0.7177
3775	0.7173
3784	0.717
