Infrared Spectrum: 2,4-Dimethylbenzophenone
Formula: C15 H14 O
CAS: 1140-14-3
State: SOLUTION (8.8% CCl4 FOR 3800-1330, 10% CS2 FOR 1330-400 CM^-^1)
Class: COBLENTZ III
Instrument: DOW KBr FOREPRISM-GRATING
Instrument parameters: BLAZED AT 3.5, 12.0, 20.0 MICRON AND CHANGED AT 5.0, 7.5, 14.9 MICRON
Sampling: TRANSMISSION
Path length: 0.011 CM, 0.011 CM
Resolution: 2
Origin: DOW CHEMICAL COMPANY
1/CM	TRANSMITTANCE
3800	0.8627
3791	0.8633
3782	0.8615
3773	0.8631
3764	0.8631
3755	0.8625
3746	0.8615
3737	0.8618
3728	0.8615
3719	0.8602
3710	0.8614
3701	0.8604
3692	0.8577
3683	0.8555
3674	0.8555
3665	0.8555
3656	0.8558
3647	0.8562
3638	0.8569
3629	0.8575
3620	0.8591
3611	0.8594
3602	0.8587
3593	0.8598
3584	0.8596
3575	0.8584
3566	0.8576
3557	0.8576
3548	0.8588
3539	0.8583
3530	0.8589
3521	0.8576
3512	0.8578
3503	0.8579
3494	0.8583
3485	0.8586
3476	0.859
3467	0.8593
3458	0.8596
3449	0.8598
3440	0.8601
3431	0.8604
3422	0.8603
3413	0.8597
3404	0.8593
3395	0.8586
3386	0.8582
3377	0.8579
3368	0.8575
3359	0.8567
3350	0.8557
3341	0.8525
3332	0.8425
3323	0.8269
3314	0.8152
3305	0.8134
3296	0.8257
3287	0.8358
3278	0.843
3269	0.8482
3260	0.8508
3251	0.8506
3242	0.8483
3233	0.8477
3224	0.8481
3215	0.8486
3206	0.8473
3197	0.8472
3188	0.8465
3179	0.8442
3170	0.8384
3161	0.83
3152	0.8293
3143	0.8297
3134	0.8308
3125	0.8235
3116	0.8059
3107	0.7819
3098	0.7565
3089	0.6342
3080	0.6219
3071	0.5467
3062	0.514
3053	0.5839
3044	0.5997
3035	0.5369
3026	0.5038
3017	0.5244
3008	0.5642
2999	0.5744
2990	0.5772
2981	0.5563
2972	0.5417
2963	0.5433
2954	0.5611
2945	0.5702
2936	0.513
2927	0.4278
2918	0.5043
2909	0.6287
2900	0.6733
2891	0.6913
2882	0.6935
2873	0.6847
2864	0.6691
2855	0.6963
2846	0.7339
2837	0.7777
2828	0.8039
2819	0.8227
2810	0.8328
2801	0.8412
2792	0.8443
2783	0.8468
2774	0.8497
2765	0.8509
2756	0.8514
2747	0.8443
2738	0.8273
2729	0.8283
2720	0.8439
2711	0.8542
2702	0.8594
2693	0.8629
2684	0.865
2675	0.8669
2666	0.8678
2657	0.8697
2648	0.8689
2639	0.8685
2630	0.868
2621	0.8663
2612	0.8643
2603	0.8634
2594	0.8632
2585	0.8635
2576	0.8637
2567	0.8632
2558	0.8634
2549	0.8645
2540	0.8671
2531	0.8696
2522	0.8718
2513	0.8739
2504	0.8757
2495	0.8766
2486	0.877
2477	0.878
2468	0.877
2459	0.8754
2450	0.8723
2441	0.8723
2432	0.8714
2423	0.8704
2414	0.8699
2405	0.8708
2396	0.8708
2387	0.8758
2378	0.8817
2369	0.883
2360	0.884
2351	0.8859
2342	0.8826
2333	0.8755
2324	0.8805
2315	0.8829
2306	0.8835
2297	0.8853
2288	0.8848
2279	0.8838
2270	0.8857
2261	0.8864
2252	0.8861
2243	0.8851
2234	0.885
2225	0.8862
2216	0.8859
2207	0.8871
2198	0.8881
2189	0.8877
2180	0.8888
2171	0.8908
2162	0.89
2153	0.8905
2144	0.8911
2135	0.8917
2126	0.8922
2117	0.8918
2108	0.8921
2099	0.8918
2090	0.8913
2081	0.8891
2072	0.8865
2063	0.8853
2054	0.8864
2045	0.8842
2036	0.883
2027	0.8824
2018	0.8817
2009	0.8806
2000	0.8791
1991	0.8713
1982	0.8671
1973	0.8516
1964	0.8429
1955	0.8265
1946	0.8604
1937	0.8723
1928	0.8724
1919	0.8482
1910	0.818
1901	0.8079
1892	0.8312
1883	0.858
1874	0.8751
1865	0.8779
1856	0.8736
1847	0.8687
1838	0.8635
1829	0.8527
1820	0.8414
1811	0.8261
1802	0.8449
1793	0.8621
1784	0.8575
1775	0.8276
1766	0.8299
1757	0.8493
1748	0.8394
1739	0.8348
1730	0.8229
1721	0.8043
1712	0.786
1703	0.7574
1694	0.7169
1685	0.6021
1676	0.1696
1667	-0.0036
1658	-0.0036
1649	0.3391
1640	0.6011
1631	0.6372
1622	0.5812
1613	0.0906
1604	0.3382
1595	0.2427
1586	0.5233
1577	0.4784
1568	0.509
1559	0.5991
1550	0.6436
1541	0.6381
1532	0.6617
1523	0.6995
1514	0.7071
1505	0.6929
1496	0.635
1487	0.6897
1478	0.6994
1469	0.6342
1460	0.4847
1451	0.0733
1442	0.4146
1433	0.5945
1424	0.7012
1415	0.7423
1406	0.7305
1397	0.7343
1388	0.7379
1379	0.6135
1370	0.8077
1361	0.8362
1352	0.8407
1343	0.8099
1334	0.7976
1325	0.7488
1316	0.1302
1307	0.3799
1298	0.2451
1289	0.1535
1280	0.2027
1271	-0.0036
1262	0.1895
1253	0.4123
1244	0.543
1235	0.3271
1226	0.7482
1217	0.8394
1208	0.8629
1199	0.8781
1190	0.8773
1181	0.7569
1172	0.3499
1163	0.7431
1154	0.6234
1145	0.8311
1136	0.878
1127	0.8876
1118	0.7945
1109	0.8581
1100	0.8979
1091	0.9059
1082	0.9085
1073	0.7275
1064	0.8674
1055	0.8884
1046	0.8396
1037	0.7164
1028	0.5708
1019	0.8591
1010	0.8892
1001	0.652
992	0.8912
983	0.8906
974	0.8519
965	0.8527
956	0.4105
947	0.3447
938	0.6773
929	0.7475
920	0.8194
911	0.6586
902	0.5579
893	0.3899
884	0.7111
875	0.8063
866	0.8511
857	0.8617
848	0.8713
839	0.7788
830	0.2465
821	0.6664
812	0.7992
803	0.7523
794	0.7735
785	0.8919
776	0.8955
767	0.9136
758	0.8775
749	0.7843
740	0.5084
731	0.4166
722	0.6783
713	0.458
704	-0.0036
695	0.3615
686	0.5999
677	0.8367
668	0.9041
659	0.909
650	0.8628
641	0.9045
632	0.9281
623	0.915
614	0.8176
605	0.45
596	0.9219
587	0.9479
578	0.9501
569	0.9113
560	0.861
551	0.9334
542	0.9297
533	0.9381
524	0.9486
515	0.9409
506	0.9312
497	0.923
488	0.9139
479	0.9018
470	0.8833
461	0.8551
452	0.7655
443	0.6732
434	0.6351
425	0.6777
416	0.5368
407	0.2575
398	0.1321
389	0.0877
