Infrared Spectrum: KETONE, HYDROXY-2-PYRIDYLMETHYL 2-PYRIDYL-
Formula: C12 H10 N2 O2
CAS: 1141-06-6
State: SOLID (NUJOL MULL)
Class: COBLENTZ III
Instrument: BAIRD (GRATING)
Instrument parameters: NaCl PRISM
Sampling: TRANSMISSION
Resolution: 2
Origin: DOW CHEMICAL COMPANY
1/CM	TRANSMITTANCE
630	0.4296
639	0.4476
648	0.4385
657	0.5403
666	0.5952
675	0.6186
684	0.638
693	0.7049
702	0.7285
711	0.7378
720	0.7501
729	0.6057
738	0.4657
747	0.7901
756	0.7471
765	0.8162
774	0.7841
783	0.2814
792	0.6421
801	0.7515
810	0.6641
819	0.611
828	0.599
837	0.7624
846	0.6765
855	0.8602
864	0.8878
873	0.8975
882	0.8101
891	0.8581
900	0.8573
909	0.892
918	0.8798
927	0.9046
936	0.9061
945	0.9092
954	0.9173
963	0.9167
972	0.9162
981	0.9215
990	0.906
999	0.8632
1008	0.8794
1017	0.9163
1026	0.9183
1035	0.9128
1044	0.9036
1053	0.8539
1062	0.8928
1071	0.8848
1080	0.8739
1089	0.8224
1098	0.62
1107	0.8809
1116	0.8943
1125	0.8978
1134	0.8941
1143	0.869
1152	0.7458
1161	0.8211
1170	0.7954
1179	0.6628
1188	0.3495
1197	0.6341
1206	0.7215
1215	0.821
1224	0.8249
1233	0.8082
1242	0.8203
1251	0.746
1260	0.4428
1269	0.278
1278	0.3174
1287	0.5484
1296	0.7268
1305	0.7489
1314	0.766
1323	0.8078
1332	0.808
1341	0.8007
1350	0.7808
1359	0.7839
1368	0.7791
1377	0.7251
1386	0.665
1395	0.6861
1404	0.5795
1413	0.4653
1422	0.5035
1431	0.6761
1440	0.6769
1449	0.5894
1458	0.4189
1467	0.2344
1476	0.273
1485	0.4787
1494	0.5931
1503	0.7387
1512	0.7748
1521	0.7961
1530	0.7981
1539	0.7957
1548	0.7753
1557	0.7778
1566	0.6472
1575	0.6597
1584	0.7208
1593	0.4201
1602	0.3468
1611	0.5842
1620	0.7004
1629	0.7869
1638	0.8337
1647	0.8525
1656	0.8568
1665	0.858
1674	0.8589
1683	0.85
1692	0.8251
1701	0.8151
1710	0.7975
1719	0.7901
1728	0.8278
1737	0.8521
1746	0.8642
1755	0.8697
1764	0.8721
1773	0.8693
1782	0.8684
1791	0.8737
1800	0.8891
1809	0.8918
1818	0.8895
1827	0.8896
1836	0.8925
1845	0.8944
1854	0.8892
1863	0.8836
1872	0.878
1881	0.8746
1890	0.8744
1899	0.8774
1908	0.8853
1917	0.8904
1926	0.8901
1935	0.8866
1944	0.8811
1953	0.8759
1962	0.8749
1971	0.8688
1980	0.8689
1989	0.8684
1998	0.8655
2007	0.8694
2016	0.8771
2025	0.8809
2034	0.8811
2043	0.8802
2052	0.8792
2061	0.8778
2070	0.8764
2079	0.8752
2088	0.8739
2097	0.8728
2106	0.8716
2115	0.8704
2124	0.8693
2133	0.868
2142	0.8665
2151	0.865
2160	0.863
2169	0.8606
2178	0.8583
2187	0.856
2196	0.8535
2205	0.8509
2214	0.8485
2223	0.8462
2232	0.8438
2241	0.8415
2250	0.8395
2259	0.8374
2268	0.8354
2277	0.8333
2286	0.8314
2295	0.8294
2304	0.8274
2313	0.8253
2322	0.8228
2331	0.8206
2340	0.8165
2349	0.8104
2358	0.8026
2367	0.7949
2376	0.7889
2385	0.7867
2394	0.7846
2403	0.7812
2412	0.7768
2421	0.7721
2430	0.7675
2439	0.7625
2448	0.7572
2457	0.7521
2466	0.7499
2475	0.7475
2484	0.7431
2493	0.7396
2502	0.7381
2511	0.7376
2520	0.7375
2529	0.7286
2538	0.7197
2547	0.7111
2556	0.7065
2565	0.7064
2574	0.7071
2583	0.7078
2592	0.7085
2601	0.7072
2610	0.7014
2619	0.6926
2628	0.684
2637	0.6771
2646	0.6706
2655	0.6661
2664	0.6656
2673	0.6651
2682	0.6639
2691	0.6624
2700	0.6598
2709	0.6568
2718	0.6534
2727	0.6535
2736	0.655
2745	0.6569
2754	0.6591
2763	0.6611
2772	0.6618
2781	0.6615
2790	0.6606
2799	0.659
2808	0.6562
2817	0.6534
2826	0.6505
2835	0.6453
2844	0.632
2853	0.5485
2862	0.4374
2871	0.355
2880	0.3427
2889	0.3359
2898	0.3264
2907	0.2839
2916	0.239
2925	0.195
2934	0.1754
2943	0.1722
2952	0.1778
2961	0.2434
2970	0.3208
2979	0.3975
2988	0.4738
2997	0.5444
3006	0.5637
3015	0.5812
3024	0.6047
3033	0.6355
3042	0.6565
3051	0.6692
3060	0.674
3069	0.6785
3078	0.6819
3087	0.6854
3096	0.6887
3105	0.6919
3114	0.6954
3123	0.6988
3132	0.7021
3141	0.7054
3150	0.708
3159	0.7106
3168	0.7132
3177	0.7158
3186	0.7183
3195	0.7208
3204	0.7231
3213	0.7255
3222	0.7276
3231	0.73
3240	0.7322
3249	0.7346
3258	0.7368
3267	0.7386
3276	0.7403
3285	0.7421
3294	0.7436
3303	0.7445
3312	0.7454
3321	0.7462
3330	0.7471
3339	0.7471
3348	0.7471
3357	0.7468
3366	0.7467
3375	0.7461
3384	0.7454
3393	0.7447
3402	0.744
3411	0.7433
3420	0.7426
3429	0.7421
3438	0.7415
3447	0.7408
3456	0.7403
3465	0.7397
3474	0.739
3483	0.7385
3492	0.7378
3501	0.7372
3510	0.7364
3519	0.7355
3528	0.7345
3537	0.7335
3546	0.7325
3555	0.7315
3564	0.7306
3573	0.7296
3582	0.7286
3591	0.7276
3600	0.7268
3609	0.7258
3618	0.725
3627	0.7242
3636	0.7233
3645	0.7225
3654	0.7215
3663	0.7208
3672	0.7199
3681	0.7188
3690	0.7175
3699	0.7164
3708	0.7151
3717	0.7141
3726	0.7128
3735	0.7117
3744	0.7105
3753	0.7093
3762	0.7081
3771	0.7068
3780	0.7057
3789	0.7045
3798	0.7033
3807	0.7018
3816	0.7005
3825	0.6989
3834	0.6975
3843	0.696
3852	0.6946
3861	0.6931
3870	0.6917
3879	0.6907
3888	0.6896
3897	0.6885
3906	0.6875
3915	0.6862
3924	0.6853
3933	0.6842
3942	0.6832
3951	0.6821
3960	0.6811
3969	0.6801
3978	0.679
3987	0.678
3996	0.6769
