Infrared Spectrum: Benzophenone, 4-nitro-
Formula: C13 H9 N O3
CAS: 1144-74-7
State: SOLID (SPLIT MULL), FLUOROLUBE FOR 3800-1340 CM^-^1, NUJOL FOR 1340-400 CM^-^1
Melting point: 137 C
Class: COBLENTZ III
Instrument: BECKMAN IR-9 (GRATING)
Instrument parameters: ORDER CHANGES: 670, 1200, 2000 CM^-^1
Sampling: TRANSMISSION
Resolution: 2
Origin: DOW CHEMICAL COMPANY
1/CM	TRANSMITTANCE
404	0.5125
413	0.5186
422	0.5553
431	0.6124
440	0.7025
449	0.7287
458	0.721
467	0.7925
476	0.7934
485	0.7248
494	0.8193
503	0.8281
512	0.8309
521	0.8223
530	0.8353
539	0.85
548	0.8566
557	0.861
566	0.8587
575	0.8218
584	0.8459
593	0.8675
602	0.8758
611	0.8754
620	0.86
629	0.8488
638	0.8809
647	0.8834
656	0.7578
665	0.8455
674	0.8245
683	0.751
692	0.1296
701	0.3874
710	0.1908
719	0.6885
728	0.7403
737	0.6092
746	0.833
755	0.6811
764	0.841
773	0.8611
782	0.8698
791	0.8714
800	0.6091
809	0.8561
818	0.8686
827	0.866
836	0.8352
845	0.7375
854	0.241
863	0.7876
872	0.4112
881	0.7346
890	0.821
899	0.8445
908	0.8473
917	0.8448
926	0.7818
935	0.5875
944	0.4437
953	0.8171
962	0.8433
971	0.8134
980	0.8033
989	0.8373
998	0.8315
1007	0.8362
1016	0.8011
1025	0.8501
1034	0.8537
1043	0.8532
1052	0.8528
1061	0.8357
1070	0.8325
1079	0.7534
1088	0.808
1097	0.7611
1106	0.5692
1115	0.6989
1124	0.8031
1133	0.8118
1142	0.7708
1151	0.6535
1160	0.7789
1169	0.8083
1178	0.7918
1187	0.7664
1196	0.816
1205	0.8135
1214	0.8061
1223	0.7991
1232	0.795
1241	0.7549
1250	0.6921
1259	0.5804
1268	0.5586
1277	0.1793
1286	0.3063
1295	0.3737
1304	0.303
1313	0.3359
1322	0.3345
1331	0.6064
1340	0.606
1349	0.4643
1358	0.23
1367	0.7224
1376	0.7861
1385	0.8238
1394	0.8085
1403	0.7711
1412	0.7861
1421	0.8137
1430	0.8235
1439	0.8103
1448	0.5979
1457	0.8004
1466	0.8071
1475	0.7918
1484	0.7682
1493	0.7141
1502	0.6077
1511	0.2295
1520	0.0124
1529	0.5174
1538	0.6678
1547	0.7439
1556	0.7789
1565	0.7795
1574	0.7545
1583	0.6305
1592	0.5901
1601	0.4876
1610	0.7106
1619	0.8024
1628	0.7875
1637	0.7326
1646	0.4587
1655	0.076
1664	0.7746
1673	0.8361
1682	0.866
1691	0.884
1700	0.8838
1709	0.8786
1718	0.8524
1727	0.8657
1736	0.8798
1745	0.8861
1754	0.8874
1763	0.8894
1772	0.8866
1781	0.8801
1790	0.8759
1799	0.872
1808	0.8721
1817	0.8704
1826	0.8599
1835	0.8568
1844	0.8628
1853	0.8631
1862	0.8661
1871	0.8656
1880	0.8633
1889	0.8628
1898	0.8614
1907	0.8575
1916	0.851
1925	0.846
1934	0.8478
1943	0.8403
1952	0.8331
1961	0.8321
1970	0.8306
1979	0.8296
1988	0.8328
1997	0.8303
2006	0.8343
2015	0.8342
2024	0.8332
2033	0.8318
2042	0.8309
2051	0.8297
2060	0.8275
2069	0.8256
2078	0.8237
2087	0.8218
2096	0.8197
2105	0.8174
2114	0.8151
2123	0.8126
2132	0.8108
2141	0.8093
2150	0.8076
2159	0.8054
2168	0.8033
2177	0.8005
2186	0.7976
2195	0.7944
2204	0.791
2213	0.7875
2222	0.784
2231	0.7803
2240	0.7765
2249	0.7728
2258	0.7691
2267	0.7656
2276	0.7621
2285	0.7586
2294	0.7561
2303	0.7537
2312	0.7511
2321	0.7487
2330	0.7471
2339	0.746
2348	0.7449
2357	0.7439
2366	0.7433
2375	0.7428
2384	0.7437
2393	0.7447
2402	0.7451
2411	0.744
2420	0.7412
2429	0.7404
2438	0.7401
2447	0.7397
2456	0.7378
2465	0.7349
2474	0.7384
2483	0.7382
2492	0.7378
2501	0.7371
2510	0.7358
2519	0.7347
2528	0.734
2537	0.7332
2546	0.7325
2555	0.7318
2564	0.7307
2573	0.7292
2582	0.7276
2591	0.726
2600	0.724
2609	0.7215
2618	0.7191
2627	0.7165
2636	0.7143
2645	0.7118
2654	0.7094
2663	0.7069
2672	0.7048
2681	0.7025
2690	0.7003
2699	0.6986
2708	0.6974
2717	0.6965
2726	0.6962
2735	0.6931
2744	0.6903
2753	0.6875
2762	0.6854
2771	0.6831
2780	0.681
2789	0.6791
2798	0.6772
2807	0.6751
2816	0.6719
2825	0.6658
2834	0.6565
2843	0.6495
2852	0.6428
2861	0.636
2870	0.6345
2879	0.6395
2888	0.6442
2897	0.6453
2906	0.6439
2915	0.6412
2924	0.6377
2933	0.6354
2942	0.6343
2951	0.6333
2960	0.6322
2969	0.631
2978	0.6296
2987	0.6279
2996	0.6259
3005	0.6228
3014	0.619
3023	0.6146
3032	0.6094
3041	0.6037
3050	0.5978
3059	0.5842
3068	0.5749
3077	0.5728
3086	0.5729
3095	0.5589
3104	0.5195
3113	0.5773
3122	0.5943
3131	0.5998
3140	0.6005
3149	0.6001
3158	0.5995
3167	0.5986
3176	0.5978
3185	0.5968
3194	0.5959
3203	0.5944
3212	0.5929
3221	0.5912
3230	0.5895
3239	0.5879
3248	0.5868
3257	0.5856
3266	0.5831
3275	0.5773
3284	0.5693
3293	0.5698
3302	0.5744
3311	0.5742
3320	0.574
3329	0.5735
3338	0.5725
3347	0.5715
3356	0.5708
3365	0.5697
3374	0.5683
3383	0.5668
3392	0.5655
3401	0.5645
3410	0.5635
3419	0.5626
3428	0.5618
3437	0.5609
3446	0.56
3455	0.5591
3464	0.5583
3473	0.5574
3482	0.5565
3491	0.5556
3500	0.5548
3509	0.554
3518	0.5533
3527	0.5525
3536	0.5516
3545	0.5507
3554	0.5498
3563	0.5488
3572	0.5479
3581	0.547
3590	0.5457
3599	0.5444
3608	0.5432
3617	0.5419
3626	0.5407
3635	0.5391
3644	0.5376
3653	0.536
3662	0.5345
3671	0.5329
3680	0.5318
3689	0.5305
3698	0.5294
3707	0.5282
3716	0.5272
3725	0.5262
3734	0.5253
3743	0.5243
3752	0.5234
3761	0.5223
3770	0.5212
3779	0.5199
3788	0.5189
3797	0.5179
