Infrared Spectrum: 3,5-DIMETHYL-5-ETHYL OXAZOLIDINE-2,4-DIONE
Formula: C7 H11 N O3
CAS: 115-67-3
State: LIQUID (UNDILUTED)
Class: COBLENTZ
Instrument: Not specified, most likely a prism, grating, or hybrid spectrometer.
Sampling: TRANSMISSION
Path length: 0.00125 CM
Resolution: 4
MICROMETERS	TRANSMITTANCE
2.032	0.895
2.06865	0.895
2.1053	0.895
2.14195	0.895
2.1786	0.891
2.21525	0.891
2.2519	0.891
2.28855	0.855
2.3252	0.835
2.36185	0.855
2.3985	0.867
2.43515	0.869
2.4718	0.869
2.50845	0.875
2.5451	0.88
2.58175	0.886
2.6184	0.893
2.65505	0.893
2.6917	0.887
2.72835	0.882
2.765	0.824
2.80166	0.801
2.83831	0.714
2.87496	0.741
2.91161	0.801
2.94826	0.839
2.98491	0.84
3.02156	0.844
3.05821	0.842
3.09486	0.846
3.13151	0.84
3.16816	0.833
3.20481	0.83
3.24146	0.811
3.27811	0.802
3.31476	0.745
3.35141	0.424
3.38806	0.224
3.42471	0.247
3.46136	0.435
3.49801	0.54
3.53466	0.69
3.57131	0.79
3.60796	0.817
3.64461	0.824
3.68126	0.824
3.71791	0.83
3.75456	0.831
3.79121	0.833
3.82786	0.855
3.86451	0.858
3.90116	0.858
3.93781	0.853
3.97446	0.842
4.01111	0.837
4.04776	0.828
4.08441	0.837
4.12106	0.839
4.15771	0.82
4.19436	0.831
4.23101	0.837
4.26766	0.839
4.30432	0.839
4.34097	0.842
4.37762	0.831
4.41427	0.83
4.45092	0.84
4.48757	0.851
4.52422	0.849
4.56087	0.799
4.59752	0.828
4.63417	0.853
4.67082	0.844
4.70747	0.828
4.74412	0.853
4.78077	0.855
4.81742	0.857
4.85407	0.848
4.89072	0.839
4.92737	0.846
4.96402	0.831
5.00067	0.826
5.03732	0.808
5.07397	0.77
5.11062	0.766
5.14727	0.804
5.18392	0.822
5.22057	0.828
5.25722	0.817
5.29387	0.79
5.33052	0.746
5.36717	0.708
5.40382	0.667
5.44047	0.522
5.47712	0.215
5.51377	0.005
5.55042	0.028
5.58707	0.216
5.62372	0.26
5.66037	0.122
5.69702	0.005
5.73367	0.001
5.77032	0.001
5.80698	0.001
5.84363	0.025
5.88028	0.13
5.91693	0.296
5.95358	0.399
5.99023	0.493
6.02688	0.544
6.06353	0.553
6.10018	0.649
6.13683	0.69
6.17348	0.698
6.21013	0.692
6.24678	0.703
6.28343	0.71
6.32008	0.696
6.35673	0.692
6.39338	0.688
6.43003	0.665
6.46668	0.591
6.50333	0.558
6.53998	0.546
6.57663	0.538
6.61328	0.321
6.64993	0.367
6.68658	0.385
6.72323	0.271
6.75988	0.216
6.79653	0.072
6.83318	0.001
6.86983	0.001
6.90648	0.001
6.94313	0.001
6.97978	0.01
7.01643	0.115
7.05308	0.226
7.08973	0.28
7.12638	0.211
7.16303	0.018
7.19968	0
7.23633	0.097
7.27299	0.135
7.30964	0.226
7.34629	0.386
7.38294	0.41
7.41959	0.33
7.45624	0.184
7.49289	0.166
7.52954	0.198
7.56619	0.106
7.60284	0.059
7.63949	0.119
7.67614	0.169
7.71279	0.133
7.74944	0.099
7.78609	0.101
7.82274	0.045
7.85939	0.021
7.89604	0.169
7.93269	0.365
7.96934	0.45
8.00599	0.461
8.04264	0.437
8.07929	0.341
8.11594	0.307
8.15259	0.381
8.18924	0.453
8.22589	0.54
8.26254	0.547
8.29919	0.481
8.33584	0.251
8.37249	0.084
8.40914	0.036
8.44579	0.15
8.48244	0.189
8.51909	0.264
8.55574	0.303
8.59239	0.303
8.62904	0.262
8.66569	0.339
8.70234	0.464
8.73899	0.542
8.77565	0.56
8.8123	0.567
8.84895	0.569
8.8856	0.56
8.92225	0.526
8.9589	0.452
8.99555	0.265
9.0322	0.094
9.06885	0.009
9.1055	0.007
9.14215	0.021
9.1788	0.103
9.21545	0.256
9.2521	0.28
9.28875	0.191
9.3254	0.07
9.36205	0.034
9.3987	0.146
9.43535	0.33
9.472	0.41
9.50865	0.401
9.5453	0.273
9.58195	0.112
9.6186	0.005
9.65525	0.001
9.6919	0.018
9.72855	0.099
9.7652	0.148
9.80185	0.142
9.8385	0.15
9.87515	0.22
9.9118	0.278
9.94845	0.265
9.9851	0.215
10.0218	0.287
10.0584	0.453
10.0951	0.603
10.1317	0.672
10.1684	0.701
10.205	0.714
10.2417	0.717
10.2783	0.717
10.315	0.712
10.3516	0.665
10.3883	0.537
10.4249	0.273
10.4616	0.204
10.4982	0.334
10.5349	0.56
10.5715	0.678
10.6082	0.737
10.6448	0.763
10.6815	0.77
10.7181	0.77
10.7548	0.746
10.7914	0.652
10.8281	0.484
10.8647	0.399
10.9014	0.47
10.938	0.618
10.9747	0.717
11.0113	0.786
11.048	0.799
11.0846	0.819
11.1213	0.826
11.1579	0.831
11.1946	0.84
11.2312	0.839
11.2679	0.84
11.3045	0.839
11.3412	0.837
11.3778	0.83
11.4145	0.817
11.4511	0.786
11.4878	0.708
11.5244	0.62
11.5611	0.571
11.5977	0.618
11.6344	0.688
11.671	0.759
11.7077	0.793
11.7443	0.811
11.781	0.826
11.8176	0.831
11.8543	0.842
11.8909	0.844
11.9276	0.84
11.9642	0.84
12.0009	0.844
12.0375	0.844
12.0742	0.844
12.1108	0.844
12.1475	0.842
12.1841	0.844
12.2208	0.835
12.2574	0.835
12.2941	0.822
12.3307	0.806
12.3674	0.781
12.404	0.746
12.4407	0.703
12.4773	0.661
12.514	0.627
12.5506	0.641
12.5873	0.661
12.6239	0.696
12.6606	0.705
12.6972	0.708
12.7339	0.703
12.7705	0.681
12.8072	0.618
12.8438	0.551
12.8805	0.405
12.9171	0.282
12.9538	0.142
12.9904	0.056
13.0271	0.012
13.0637	0.018
13.1004	0.166
13.137	0.359
13.1737	0.54
13.2103	0.616
13.247	0.656
13.2836	0.698
13.3203	0.73
13.3569	0.745
13.3936	0.745
13.4302	0.732
13.4669	0.728
13.5035	0.746
13.5402	0.766
13.5768	0.773
13.6135	0.784
13.6501	0.786
13.6868	0.793
13.7234	0.795
13.7601	0.799
13.7967	0.797
13.8334	0.797
13.87	0.795
13.9067	0.795
13.9433	0.793
13.98	0.79
14.0166	0.783
14.0533	0.784
14.0899	0.777
14.1266	0.766
14.1632	0.754
14.1999	0.728
14.2365	0.69
14.2732	0.611
14.3098	0.5
14.3465	0.367
14.3831	0.276
14.4198	0.341
14.4564	0.471
14.4931	0.571
14.5297	0.589
14.5664	0.587
14.603	0.585
14.6397	0.605
14.6763	0.627
14.713	0.627
14.7496	0.632
14.7863	0.64
14.8229	0.65
14.8596	0.667
14.8962	0.67
14.9329	0.672
14.9695	0.667
15.0062	0.67
15.0428	0.667
15.0795	0.667
15.1161	0.663
15.1528	0.654
15.1894	0.65
15.2261	0.643
15.2627	0.631
15.2994	0.622
15.336	0.613
15.3727	0.602
15.4093	0.578
15.446	0.558
15.4826	0.546
