Infrared Spectrum: METHANE, OXYBIS-
Formula: C2 H6 0
CAS: 115-10-6
State: GAS
Class: COBLENTZ
Instrument: DOW KBr FOREPRISM-GRATING
Instrument parameters: BLAZED AT 3.5, 12.0, 20.0 MICRON, CHANGED AT 5.0, 7.5, 14.9 MICRON
Sampling: TRANSMISSION
Path length: 5 CM CELL
Resolution: 4
Origin: DOW CHEMICAL COMPANY
1/CM	TRANSMITTANCE
456.086	0.964
464.828	0.971
473.571	0.976
482.313	0.975
491.056	0.975
499.798	0.983
508.541	0.982
517.283	0.979
526.026	0.982
534.768	0.989
543.511	0.993
552.253	0.995
560.996	1.001
569.738	1.004
578.48	1.002
587.223	1.002
595.965	1.002
604.708	1.004
613.45	1.004
622.193	1.008
630.935	1.008
639.678	1.005
648.42	1.004
657.163	1.002
665.905	1
674.648	1
683.39	0.997
692.133	0.995
700.875	0.995
709.617	0.997
718.36	0.994
727.102	0.993
735.845	0.994
744.587	0.995
753.33	0.994
762.072	0.995
770.815	0.997
779.557	0.995
788.3	0.989
797.042	0.991
805.785	1
814.527	1.006
823.269	1.002
832.012	1.001
840.754	1.002
849.497	0.997
858.239	0.982
866.982	0.958
875.724	0.917
884.467	0.861
893.209	0.777
901.952	0.674
910.694	0.581
919.437	0.556
928.179	0.659
936.922	0.5
945.664	0.552
954.406	0.648
963.149	0.758
971.891	0.835
980.634	0.901
989.376	0.946
998.119	0.976
1006.86	0.994
1015.6	1.004
1024.35	1.008
1033.09	1.009
1041.83	1.004
1050.57	0.993
1059.32	0.957
1068.06	0.839
1076.8	0.589
1085.54	0.362
1094.29	0.351
1103.03	0.188
1111.77	0.3129
1120.51	0.274
1129.26	0.6011
1138	0.751
1146.74	0.5889
1155.48	0.273
1164.23	0.092
1172.97	0.101
1181.71	0.2009
1190.45	0.05
1199.2	0.142
1207.94	0.6161
1216.68	0.831
1225.42	0.866
1234.17	0.884
1242.91	0.927
1251.65	0.914
1260.39	0.929
1269.14	0.957
1277.88	0.967
1286.62	0.976
1295.36	0.98
1304.11	0.987
1312.85	0.99
1321.59	0.984
1330.33	0.986
1339.07	0.987
1347.82	0.979
1356.56	0.957
1365.3	0.956
1374.04	0.968
1382.79	0.965
1391.53	0.958
1400.27	0.938
1409.01	0.914
1417.76	0.892
1426.5	0.87
1435.24	0.804
1443.98	0.733
1452.73	0.5858
1461.47	0.535
1470.21	0.575
1478.95	0.649
1487.7	0.736
1496.44	0.804
1505.18	0.858
1513.92	0.906
1522.67	0.939
1531.41	0.962
1540.15	0.972
1548.89	0.987
1557.64	0.989
1566.38	0.987
1575.12	0.98
1583.86	0.986
1592.61	0.983
1601.35	0.986
1610.09	0.986
1618.83	0.986
1627.58	0.99
1636.32	0.989
1645.06	0.984
1653.8	0.99
1662.55	0.993
1671.29	0.991
1680.03	0.993
1688.77	0.995
1697.52	0.994
1706.26	0.993
1715	0.991
1723.74	0.993
1732.49	0.989
1741.23	0.994
1749.97	0.998
1758.71	0.997
1767.46	0.994
1776.2	0.997
1784.94	0.995
1793.68	0.997
1802.43	0.995
1811.17	0.995
1819.91	0.995
1828.65	0.993
1837.4	0.993
1846.14	0.991
1854.88	0.994
1863.62	0.991
1872.37	0.989
1881.11	0.993
1889.85	0.993
1898.59	0.993
1907.34	0.994
1916.08	0.994
1924.82	0.995
1933.56	0.994
1942.3	0.995
1951.05	0.994
1959.79	0.993
1968.53	0.991
1977.27	0.99
1986.02	0.986
1994.76	0.979
2003.5	0.965
2012.24	0.957
2020.99	0.954
2029.73	0.95
2038.47	0.9609
2047.21	0.931
2055.96	0.9671
2064.7	0.9749
2073.44	0.9618
2082.18	0.9348
2090.93	0.9117
2099.67	0.9007
2108.41	0.8906
2117.15	0.8836
2125.9	0.9062
2134.64	0.9693
2143.38	0.983
2152.12	0.98
2160.87	0.979
2169.61	0.9793
2178.35	0.98
2187.09	0.982
2195.84	0.98
2204.58	0.9842
2213.32	0.991
2222.06	0.991
2230.81	0.991
2239.55	0.994
2248.29	0.995
2257.03	0.998
2265.78	1
2274.52	1.0019
2283.26	1.0002
2292	0.995
2300.75	0.9935
2309.49	1.0002
2318.23	0.989
2326.97	1.0132
2335.72	0.997
2344.46	1.0052
2353.2	1.012
2361.94	1
2370.69	1.001
2379.43	1.001
2388.17	1.002
2396.91	0.9996
2405.66	0.9885
2414.4	0.984
2423.14	0.9828
2431.88	0.9822
2440.63	0.9888
2449.37	1.0013
2458.11	1.004
2466.85	1.005
2475.6	1.005
2484.34	1.0047
2493.08	1.004
2501.82	1.002
2510.57	1.001
2519.31	1
2528.05	0.998
2536.79	0.994
2545.53	0.9884
2554.28	0.986
2563.02	0.9837
2571.76	0.979
2580.5	0.9787
2589.25	0.9717
2597.99	0.968
2606.73	0.967
2615.47	0.967
2624.22	0.968
2632.96	0.971
2641.7	0.969
2650.44	0.9724
2659.19	0.9756
2667.93	0.972
2676.67	0.967
2685.41	0.9576
2694.16	0.9534
2702.9	0.9588
2711.64	0.9632
2720.38	0.9698
2729.13	0.972
2737.87	0.969
2746.61	0.965
2755.35	0.9557
2764.1	0.9343
2772.84	0.8963
2781.58	0.826
2790.32	0.6288
2799.07	0.3378
2807.81	0.2543
2816.55	0.2102
2825.29	0.3044
2834.04	0.1563
2842.78	0.2328
2851.52	0.2605
2860.26	0.2331
2869.01	0.1645
2877.75	0.1315
2886.49	0.0915
2895.23	0.1201
2903.98	0.143
2912.72	0.138
2921.46	0.1305
2930.2	0.1452
2938.95	0.1795
2947.69	0.2514
2956.43	0.3544
2965.17	0.3651
2973.92	0.2682
2982.66	0.2521
2991.4	0.3183
3000.14	0.3618
3008.89	0.2895
3017.63	0.3911
3026.37	0.6819
3035.11	0.829
3043.86	0.879
3052.6	0.9033
3061.34	0.921
3070.08	0.9316
3078.83	0.9372
3087.57	0.9426
3096.31	0.945
3105.05	0.945
3113.8	0.9466
3122.54	0.9506
3131.28	0.954
3140.02	0.957
3148.76	0.9577
3157.51	0.962
3166.25	0.967
3174.99	0.965
3183.73	0.9677
3192.48	0.973
3201.22	0.9774
3209.96	0.976
3218.7	0.978
3227.45	0.982
3236.19	0.983
3244.93	0.9867
3253.67	0.986
3262.42	0.986
3271.16	0.987
3279.9	0.989
3288.64	0.987
3297.39	0.987
3306.13	0.987
3314.87	0.987
3323.61	0.9898
3332.36	0.9875
3341.1	0.987
3349.84	0.986
3358.58	0.9874
3367.33	0.9898
3376.07	0.99
3384.81	0.991
3393.55	0.9966
3402.3	0.994
3411.04	0.993
3419.78	0.9938
3428.52	0.997
3437.27	0.9997
3446.01	0.9997
3454.75	1
3463.49	1
3472.24	1
3480.98	1.0009
3489.72	1
3498.46	1
3507.21	1
3515.95	1
3524.69	0.998
3533.43	0.998
3542.18	0.998
3550.92	0.998
3559.66	0.998
3568.4	0.998
3577.15	0.998
3585.89	0.998
3594.63	0.998
3603.37	0.997
3612.12	0.997
3620.86	0.995
3629.6	0.995
3638.34	0.995
3647.09	0.994
3655.83	0.994
3664.57	0.994
3673.31	0.994
3682.06	0.9911
3690.8	0.99
3699.54	0.989
3708.28	0.986
3717.03	0.984
3725.77	0.983
3734.51	0.98
3743.25	0.98
3751.99	0.983
3760.74	0.987
3769.48	0.99
3778.22	0.989
3786.96	0.986
3795.71	0.98
