Infrared Spectrum: 1,3-PROPANEDIOL, 2,2-BIS(HYDROXYMETHYL)-
Formula: C5 H12 O4
CAS: 115-77-5
State: SOLID (SPLIT MULL, FLUOROLUBE FOR 3800-1333 AND NUJOL FOR 1333-400 CM ^-^1)
Class: COBLENTZ II
Instrument: DOW KBr FOREPRISM-GRATING
Instrument parameters: BLAZED AT 3.5, 12.0, 20.0 MICRON, CHANGED AT 5.0, 7.5, 14.9 MICRON
Sampling: TRANSMISSION
Resolution: 4
Origin: DOW CHEMICAL COMPANY
1/CM	TRANSMITTANCE
385.955	0.927
394.661	0.926
403.367	0.925
412.072	0.923
420.778	0.925
429.484	0.925
438.19	0.926
446.895	0.929
455.601	0.927
464.307	0.927
473.013	0.931
481.718	0.931
490.424	0.931
499.13	0.929
507.836	0.923
516.541	0.915
525.247	0.91
533.953	0.906
542.659	0.897
551.364	0.889
560.07	0.877
568.776	0.865
577.482	0.844
586.187	0.763
594.893	0.742
603.599	0.749
612.305	0.73
621.011	0.703
629.716	0.666
638.422	0.623
647.128	0.542
655.834	0.48
664.539	0.448
673.245	0.469
681.951	0.564
690.657	0.678
699.362	0.753
708.068	0.797
716.774	0.805
725.48	0.835
734.185	0.862
742.891	0.897
751.597	0.919
760.303	0.934
769.008	0.942
777.714	0.955
786.42	0.968
795.126	0.976
803.831	0.98
812.537	0.983
821.243	0.985
829.949	0.982
838.655	0.978
847.36	0.97
856.066	0.949
864.772	0.885
873.478	0.597
882.183	0.98
890.889	0.985
899.595	0.986
908.301	0.983
917.006	0.979
925.712	0.967
934.418	0.956
943.124	0.946
951.829	0.937
960.535	0.922
969.241	0.9
977.947	0.869
986.652	0.6809
995.358	0.565
1004.06	0.229
1012.77	0.046
1021.48	0.163
1030.18	0.559
1038.89	0.365
1047.59	0.858
1056.3	0.934
1065	0.945
1073.71	0.946
1082.42	0.948
1091.12	0.944
1099.83	0.93
1108.53	0.889
1117.24	0.772
1125.94	0.361
1134.65	0.639
1143.36	0.848
1152.06	0.906
1160.77	0.918
1169.47	0.923
1178.18	0.927
1186.88	0.922
1195.59	0.91
1204.3	0.892
1213	0.859
1221.71	0.848
1230.41	0.823
1239.12	0.857
1247.83	0.861
1256.53	0.846
1265.24	0.755
1273.94	0.563
1282.65	0.748
1291.35	0.844
1300.06	0.861
1308.77	0.872
1317.47	0.873
1326.18	0.866
1334.88	0.861
1343.59	0.858
1352.29	0.851
1361	0.831
1369.71	0.783
1378.41	0.665
1387.12	0.5942
1395.82	0.614
1404.53	0.454
1413.23	0.451
1421.94	0.673
1430.65	0.785
1439.35	0.825
1448.06	0.7869
1456.76	0.7981
1465.47	0.853
1474.17	0.834
1482.88	0.893
1491.59	0.917
1500.29	0.93
1509	0.931
1517.7	0.934
1526.41	0.941
1535.12	0.945
1543.82	0.948
1552.53	0.953
1561.23	0.955
1569.94	0.955
1578.64	0.953
1587.35	0.953
1596.06	0.951
1604.76	0.951
1613.47	0.956
1622.17	0.956
1630.88	0.96
1639.58	0.961
1648.29	0.96
1657	0.96
1665.7	0.955
1674.41	0.951
1683.11	0.96
1691.82	0.965
1700.52	0.976
1709.23	0.982
1717.94	0.979
1726.64	0.985
1735.35	0.987
1744.05	0.987
1752.76	0.986
1761.47	0.985
1770.17	0.985
1778.88	0.985
1787.58	0.985
1796.29	0.983
1804.99	0.982
1813.7	0.979
1822.41	0.983
1831.11	0.983
1839.82	0.983
1848.52	0.982
1857.23	0.983
1865.93	0.98
1874.64	0.98
1883.35	0.983
1892.05	0.979
1900.76	0.982
1909.46	0.985
1918.17	0.985
1926.87	0.985
1935.58	0.983
1944.29	0.983
1952.99	0.985
1961.7	0.985
1970.4	0.986
1979.11	0.985
1987.81	0.985
1996.52	0.989
2005.23	0.989
2013.93	0.99
2022.64	0.994
2031.34	0.99
2040.05	0.991
2048.76	0.9849
2057.46	0.976
2066.17	0.978
2074.87	0.9801
2083.58	0.985
2092.28	0.985
2100.99	0.9862
2109.7	0.987
2118.4	0.986
2127.11	0.985
2135.81	0.985
2144.52	0.986
2153.22	0.987
2161.93	0.987
2170.64	0.987
2179.34	0.9872
2188.05	0.9818
2196.75	0.985
2205.46	0.983
2214.16	0.9799
2222.87	0.9789
2231.58	0.9788
2240.28	0.9758
2248.99	0.9752
2257.69	0.9708
2266.4	0.9696
2275.1	0.965
2283.81	0.964
2292.52	0.963
2301.22	0.9626
2309.93	0.956
2318.63	0.9666
2327.34	0.964
2336.05	0.9654
2344.75	0.965
2353.46	0.965
2362.16	0.963
2370.87	0.961
2379.57	0.961
2388.28	0.96
2396.99	0.957
2405.69	0.955
2414.4	0.956
2423.1	0.959
2431.81	0.961
2440.51	0.957
2449.22	0.956
2457.93	0.953
2466.63	0.955
2475.34	0.952
2484.04	0.946
2492.75	0.9447
2501.45	0.944
2510.16	0.941
2518.87	0.934
2527.57	0.933
2536.28	0.934
2544.98	0.9414
2553.69	0.945
2562.39	0.945
2571.1	0.9456
2579.81	0.942
2588.51	0.9392
2597.22	0.9322
2605.92	0.9146
2614.63	0.9116
2623.34	0.911
2632.04	0.9092
2640.75	0.9052
2649.45	0.906
2658.16	0.906
2666.86	0.906
2675.57	0.906
2684.28	0.9075
2692.98	0.9129
2701.69	0.917
2710.39	0.917
2719.1	0.915
2727.8	0.914
2736.51	0.8996
2745.22	0.8885
2753.92	0.883
2762.63	0.871
2771.33	0.8605
2780.04	0.8535
2788.74	0.848
2797.45	0.8465
2806.16	0.8521
2814.86	0.855
2823.57	0.8514
2832.27	0.8404
2840.98	0.834
2849.69	0.8299
2858.39	0.821
2867.1	0.804
2875.8	0.7327
2884.51	0.667
2893.21	0.7177
2901.92	0.7936
2910.63	0.7872
2919.33	0.7474
2928.04	0.7173
2936.74	0.6313
2945.45	0.5725
2954.15	0.4859
2962.86	0.6515
2971.57	0.8716
2980.27	0.891
2988.98	0.893
2997.68	0.8923
3006.39	0.891
3015.09	0.8843
3023.8	0.8803
3032.51	0.8723
3041.21	0.8693
3049.92	0.8629
3058.62	0.857
3067.33	0.8479
3076.03	0.8386
3084.74	0.8288
3093.45	0.8108
3102.15	0.7956
3110.86	0.7801
3119.56	0.762
3128.27	0.735
3136.98	0.7112
3145.68	0.6855
3154.39	0.6552
3163.09	0.6294
3171.8	0.5972
3180.5	0.5688
3189.21	0.5325
3197.92	0.4975
3206.62	0.466
3215.33	0.4372
3224.03	0.3995
3232.74	0.3643
3241.44	0.3342
3250.15	0.2929
3258.86	0.2561
3267.56	0.2289
3276.27	0.1958
3284.97	0.172
3293.68	0.139
3302.38	0.1118
3311.09	0.0994
3319.8	0.096
3328.5	0.1018
3337.21	0.1149
3345.91	0.1335
3354.62	0.1568
3363.32	0.1893
3372.03	0.2222
3380.74	0.2532
3389.44	0.3088
3398.15	0.3524
3406.85	0.4092
3415.56	0.4616
3424.27	0.5185
3432.97	0.5823
3441.68	0.6285
3450.38	0.6775
3459.09	0.7285
3467.79	0.7749
3476.5	0.8159
3485.21	0.8419
3493.91	0.8679
3502.62	0.892
3511.32	0.912
3520.03	0.93
3528.73	0.944
3537.44	0.953
3546.15	0.961
3554.85	0.967
3563.56	0.971
3572.26	0.967
3580.97	0.978
3589.67	0.98
3598.38	0.9799
3607.09	0.9821
3615.79	0.985
3624.5	0.985
3633.2	0.985
3641.91	0.987
3650.61	0.986
3659.32	0.9861
3668.03	0.9869
3676.73	0.989
3685.44	0.989
3694.14	0.989
3702.85	0.987
3711.56	0.9851
3720.26	0.9873
3728.97	0.987
3737.67	0.99
3746.38	0.986
3755.08	0.986
3763.79	0.983
3772.5	0.986
3781.2	0.9852
3789.91	0.985
