Infrared Spectrum: 3-Hydroxy-3-methyl-2-butanone
Formula: C5 H10 O2
CAS: 115-22-0
State: SOLUTION (10% CCl4 FOR 3800-1330, 10% CS2 FOR 1330-450 CM^-^1)
Class: COBLENTZ III
Instrument: DOW KBr FOREPRISM-GRATING
Instrument parameters: BLAZED AT 3.5, 12.0, 20.0 MICRON AND CHANGED AT 5.0, 7.5, 14.9 MICRON
Sampling: TRANSMISSION
Path length: 0.011 CM, 0.011 CM
Resolution: 2
Origin: DOW CHEMICAL COMPANY
1/CM	TRANSMITTANCE
3800	0.9695
3791	0.9705
3782	0.9676
3773	0.969
3764	0.9692
3755	0.9691
3746	0.9691
3737	0.971
3728	0.9703
3719	0.9673
3710	0.9678
3701	0.9632
3692	0.9505
3683	0.9304
3674	0.9054
3665	0.9031
3656	0.9183
3647	0.9218
3638	0.9183
3629	0.9099
3620	0.8953
3611	0.8087
3602	0.795
3593	0.812
3584	0.8176
3575	0.7979
3566	0.7485
3557	0.6971
3548	0.6334
3539	0.5493
3530	0.4911
3521	0.391
3512	0.3166
3503	0.2422
3494	0.1777
3485	0.1708
3476	0.2045
3467	0.2438
3458	0.2859
3449	0.3234
3440	0.3599
3431	0.397
3422	0.4293
3413	0.4627
3404	0.5007
3395	0.5359
3386	0.5988
3377	0.6455
3368	0.6828
3359	0.7279
3350	0.7561
3341	0.7736
3332	0.7898
3323	0.8052
3314	0.8202
3305	0.835
3296	0.8435
3287	0.8522
3278	0.8623
3269	0.8729
3260	0.8787
3251	0.8824
3242	0.8847
3233	0.8872
3224	0.8897
3215	0.8921
3206	0.8935
3197	0.8982
3188	0.9024
3179	0.9046
3170	0.9074
3161	0.911
3152	0.9136
3143	0.9136
3134	0.9161
3125	0.9166
3116	0.9163
3107	0.9161
3098	0.9169
3089	0.914
3080	0.9059
3071	0.9037
3062	0.8943
3053	0.8875
3044	0.8843
3035	0.8749
3026	0.8438
3017	0.743
3008	0.6254
2999	0.5165
2990	0.2563
2981	0.0349
2972	0.1378
2963	0.4202
2954	0.5992
2945	0.5305
2936	0.4073
2927	0.4622
2918	0.5847
2909	0.652
2900	0.6926
2891	0.7213
2882	0.7154
2873	0.689
2864	0.7484
2855	0.7979
2846	0.8364
2837	0.8688
2828	0.8814
2819	0.8915
2810	0.8984
2801	0.9089
2792	0.9138
2783	0.9178
2774	0.9225
2765	0.9255
2756	0.9274
2747	0.9267
2738	0.9256
2729	0.9241
2720	0.923
2711	0.9229
2702	0.9233
2693	0.9258
2684	0.9286
2675	0.9328
2666	0.936
2657	0.9401
2648	0.9407
2639	0.9398
2630	0.9398
2621	0.941
2612	0.9407
2603	0.9403
2594	0.9398
2585	0.9395
2576	0.9393
2567	0.9387
2558	0.9386
2549	0.9382
2540	0.9379
2531	0.9375
2522	0.9365
2513	0.9354
2504	0.9344
2495	0.9335
2486	0.9329
2477	0.9348
2468	0.9375
2459	0.9403
2450	0.9421
2441	0.9452
2432	0.9444
2423	0.9418
2414	0.9398
2405	0.9402
2396	0.9401
2387	0.9412
2378	0.9464
2369	0.9498
2360	0.9525
2351	0.9582
2342	0.9539
2333	0.944
2324	0.9431
2315	0.9381
2306	0.9357
2297	0.9372
2288	0.9367
2279	0.9382
2270	0.9395
2261	0.9404
2252	0.9401
2243	0.938
2234	0.9351
2225	0.9342
2216	0.9319
2207	0.9311
2198	0.9322
2189	0.9341
2180	0.9379
2171	0.9406
2162	0.938
2153	0.9368
2144	0.9353
2135	0.9337
2126	0.933
2117	0.9327
2108	0.9322
2099	0.9316
2090	0.931
2081	0.9305
2072	0.9297
2063	0.9283
2054	0.9287
2045	0.9194
2036	0.9187
2027	0.924
2018	0.9284
2009	0.9289
2000	0.9255
1991	0.9246
1982	0.9227
1973	0.9214
1964	0.9233
1955	0.9244
1946	0.9178
1937	0.9127
1928	0.9129
1919	0.916
1910	0.9159
1901	0.9206
1892	0.922
1883	0.9233
1874	0.925
1865	0.9216
1856	0.916
1847	0.9099
1838	0.9085
1829	0.9012
1820	0.892
1811	0.895
1802	0.891
1793	0.8865
1784	0.879
1775	0.8672
1766	0.8452
1757	0.8102
1748	0.7617
1739	0.6632
1730	0.378
1721	-0.0036
1712	-0.0036
1703	-0.0036
1694	0.295
1685	0.5826
1676	0.6834
1667	0.7207
1658	0.7868
1649	0.7964
1640	0.7951
1631	0.7994
1622	0.8081
1613	0.8263
1604	0.8508
1595	0.8497
1586	0.8353
1577	0.8344
1568	0.8168
1559	0.7978
1550	0.8368
1541	0.82
1532	0.8264
1523	0.8159
1514	0.8091
1505	0.7958
1496	0.7858
1487	0.7552
1478	0.6008
1469	0.3463
1460	0.3207
1451	0.4122
1442	0.4444
1433	0.4494
1424	0.4074
1415	0.4101
1406	0.507
1397	0.5171
1388	0.3086
1379	0.1726
1370	0.1088
1361	-0.0036
1352	-0.0036
1343	0.2235
1334	0.4126
1325	0.6291
1316	0.7187
1307	0.7912
1298	0.8511
1289	0.8787
1280	0.8878
1271	0.8279
1262	0.708
1253	0.7035
1244	0.5636
1235	0.5568
1226	0.6653
1217	0.7145
1208	0.6672
1199	0.3241
1190	0.1514
1181	-0.0036
1172	-0.0036
1163	-0.0036
1154	0.1446
1145	0.2237
1136	0.1506
1127	0.1436
1118	0.088
1109	0.4197
1100	0.6911
1091	0.7994
1082	0.8703
1073	0.8891
1064	0.9208
1055	0.9385
1046	0.9423
1037	0.9227
1028	0.7695
1019	0.8194
1010	0.9015
1001	0.8891
992	0.7958
983	0.557
974	0.4854
965	0.2868
956	0.0649
947	0.3212
938	0.7452
929	0.8309
920	0.8491
911	0.8844
902	0.9583
893	0.9684
884	0.9733
875	0.8029
866	0.8218
857	0.8519
848	0.9015
839	0.9484
830	0.9523
821	0.9788
812	0.9812
803	0.9797
794	0.9742
785	0.9709
776	0.96
767	0.9519
758	0.9412
749	0.938
740	0.9086
731	0.9108
722	0.9171
713	0.9071
704	0.8841
695	0.8476
686	0.5632
677	0.6004
668	0.8096
659	0.8337
650	0.8158
641	0.8284
632	0.8272
623	0.7988
614	0.7797
605	0.7694
596	0.7407
587	0.5188
578	0.6765
569	0.7594
560	0.7186
551	0.5938
542	0.7326
533	0.7493
524	0.7435
515	0.7256
506	0.7034
497	0.6837
488	0.6942
479	0.6873
470	0.6728
461	0.6584
