Infrared Spectrum: Phosphoric acid, tri-2-chloroethyl ester
Formula: C6 H12 Cl3 O4 P
CAS: 115-96-8
State: LIQUID (NEAT)
Class: COBLENTZ III
Instrument: DOW KBr FOREPRISM-GRATING
Instrument parameters: BLAZED AT 3.5, 12.0, 20.0 MICRON AND CHANGED AT 5.0, 7.5, 14.9 MICRON
Sampling: TRANSMISSION
Path length: CAPILLARY (KBr PLATES)
Resolution: 2
Origin: DOW CHEMICAL COMPANY
1/CM	TRANSMITTANCE
3792	0.8251
3783	0.8245
3774	0.8237
3765	0.8233
3756	0.8232
3747	0.8232
3738	0.8234
3729	0.8235
3720	0.8242
3711	0.8249
3702	0.8258
3693	0.8261
3684	0.8261
3675	0.8255
3666	0.8235
3657	0.8206
3648	0.8136
3639	0.8041
3630	0.7998
3621	0.8015
3612	0.804
3603	0.8064
3594	0.8088
3585	0.8096
3576	0.8068
3567	0.8026
3558	0.798
3549	0.793
3540	0.7876
3531	0.7834
3522	0.7815
3513	0.7815
3504	0.7805
3495	0.7786
3486	0.7761
3477	0.7733
3468	0.7708
3459	0.7691
3450	0.7681
3441	0.7693
3432	0.7722
3423	0.7756
3414	0.7799
3405	0.7842
3396	0.7887
3387	0.7932
3378	0.7976
3369	0.8022
3360	0.8068
3351	0.8112
3342	0.8149
3333	0.8181
3324	0.8214
3315	0.8237
3306	0.826
3297	0.8282
3288	0.8297
3279	0.831
3270	0.8324
3261	0.8333
3252	0.8342
3243	0.835
3234	0.8358
3225	0.8367
3216	0.8378
3207	0.8387
3198	0.839
3189	0.8391
3180	0.8392
3171	0.8394
3162	0.8395
3153	0.8395
3144	0.8393
3135	0.8387
3126	0.8381
3117	0.8382
3108	0.838
3099	0.8371
3090	0.8361
3081	0.8344
3072	0.8327
3063	0.831
3054	0.8282
3045	0.823
3036	0.8151
3027	0.8022
3018	0.7871
3009	0.7761
3000	0.7712
2991	0.7643
2982	0.7512
2973	0.7221
2964	0.6568
2955	0.6206
2946	0.6259
2937	0.6544
2928	0.7057
2919	0.7506
2910	0.7674
2901	0.7651
2892	0.7572
2883	0.7447
2874	0.7475
2865	0.7742
2856	0.7925
2847	0.7978
2838	0.8028
2829	0.8098
2820	0.8202
2811	0.8283
2802	0.8354
2793	0.8398
2784	0.8418
2775	0.8425
2766	0.8418
2757	0.8395
2748	0.8374
2739	0.8367
2730	0.8371
2721	0.8393
2712	0.8415
2703	0.8432
2694	0.8448
2685	0.8464
2676	0.8475
2667	0.8484
2658	0.8493
2649	0.8503
2640	0.8509
2631	0.8516
2622	0.8523
2613	0.853
2604	0.8536
2595	0.8542
2586	0.8549
2577	0.8554
2568	0.8556
2559	0.8558
2550	0.8559
2541	0.856
2532	0.856
2523	0.8558
2514	0.8559
2505	0.8566
2496	0.856
2487	0.8559
2478	0.8566
2469	0.8575
2460	0.8594
2451	0.8612
2442	0.8632
2433	0.8649
2424	0.8664
2415	0.8663
2406	0.8653
2397	0.8632
2388	0.8625
2379	0.8624
2370	0.8632
2361	0.8649
2352	0.8663
2343	0.8671
2334	0.8675
2325	0.868
2316	0.8674
2307	0.8635
2298	0.8628
2289	0.8614
2280	0.8618
2271	0.8621
2262	0.8625
2253	0.8634
2244	0.8646
2235	0.8658
2226	0.868
2217	0.8701
2208	0.8714
2199	0.8725
2190	0.8735
2181	0.8755
2172	0.8849
2163	0.8817
2154	0.879
2145	0.8788
2136	0.8788
2127	0.8789
2118	0.879
2109	0.879
2100	0.8791
2091	0.8793
2082	0.8796
2073	0.8796
2064	0.8797
2055	0.8802
2046	0.8803
2037	0.8759
2028	0.8721
2019	0.8725
2010	0.8807
2001	0.8805
1992	0.8718
1983	0.8721
1974	0.8724
1965	0.872
1956	0.8716
1947	0.8503
1938	0.867
1929	0.8687
1920	0.8699
1911	0.8684
1902	0.8623
1893	0.8575
1884	0.8562
1875	0.8563
1866	0.8578
1857	0.8602
1848	0.8621
1839	0.8623
1830	0.8601
1821	0.8591
1812	0.8588
1803	0.8598
1794	0.8639
1785	0.8665
1776	0.8685
1767	0.8685
1758	0.867
1749	0.8654
1740	0.8652
1731	0.8654
1722	0.8656
1713	0.8659
1704	0.8661
1695	0.866
1686	0.8647
1677	0.8632
1668	0.8611
1659	0.8521
1650	0.8435
1641	0.8427
1632	0.8423
1623	0.8385
1614	0.8384
1605	0.8406
1596	0.8465
1587	0.8501
1578	0.8473
1569	0.8483
1560	0.8499
1551	0.8485
1542	0.847
1533	0.8482
1524	0.8475
1515	0.8433
1506	0.8291
1497	0.8274
1488	0.8271
1479	0.8078
1470	0.7415
1461	0.6698
1452	0.6038
1443	0.7086
1434	0.579
1425	0.681
1416	0.7872
1407	0.8071
1398	0.7811
1389	0.7372
1380	0.7518
1371	0.7794
1362	0.7861
1353	0.7854
1344	0.7743
1335	0.7541
1326	0.7122
1317	0.5796
1308	0.3846
1299	0.3734
1290	0.3396
1281	0.1422
1272	0.1592
1263	0.2803
1254	0.3113
1245	0.4402
1236	0.6486
1227	0.714
1218	0.7454
1209	0.7178
1200	0.6106
1191	0.5858
1182	0.74
1173	0.7584
1164	0.7622
1155	0.7491
1146	0.7232
1137	0.6885
1128	0.6367
1119	0.5418
1110	0.3814
1101	0.3262
1092	0.2238
1083	0.1041
1074	0.0789
1065	0.1041
1056	0.3209
1047	0.2098
1038	0.093
1029	0.0514
1020	0.0416
1011	0.0969
1002	0.2518
993	0.4738
984	0.4999
975	0.1979
966	0.2052
957	0.2948
948	0.2999
939	0.3577
930	0.4343
921	0.5103
912	0.5862
903	0.6621
894	0.7347
885	0.7605
876	0.7611
867	0.7475
858	0.7388
849	0.7437
840	0.7408
831	0.7491
822	0.7818
813	0.7814
804	0.559
795	0.4321
786	0.5123
777	0.7618
768	0.7775
759	0.7461
750	0.7305
741	0.7232
732	0.7199
723	0.7405
714	0.7933
705	0.8391
696	0.8489
687	0.8378
678	0.7217
669	0.3777
660	0.4466
651	0.6638
642	0.7914
633	0.8327
624	0.8491
615	0.8515
606	0.8518
597	0.8525
588	0.8446
579	0.8374
570	0.7994
561	0.7387
552	0.6755
543	0.6498
534	0.6265
525	0.6215
516	0.6497
507	0.6855
498	0.6975
489	0.6837
480	0.6819
471	0.6971
462	0.7197
453	0.7255
444	0.7258
435	0.7208
426	0.7012
417	0.6771
408	0.674
399	0.6737
