Infrared Spectrum: Phosphoric acid, triphenyl ester
Formula: C18 H15 O4 P
CAS: 115-86-6
State: SOLUTION (10% CCl4 FOR 2.7-7.5, 10% CS2 FOR 7.5-26 MICRON) VS SOLVENT
Class: COBLENTZ III
Instrument: DOW KBr FOREPRISM-GRATING
Instrument parameters: BLAZED AT 3.5, 12.0, 20.0 MICRON AND CHANGED AT 5.0, 7.5, 14.9 MICRON
Sampling: TRANSMISSION
Path length: 0.011 CM, 0.011 CM
Resolution: 2
Origin: DOW CHEMICAL COMPANY
1/CM	TRANSMITTANCE
3796	0.8525
3787	0.8525
3778	0.8531
3769	0.8541
3760	0.8546
3751	0.8551
3742	0.8559
3733	0.8565
3724	0.857
3715	0.8574
3706	0.8575
3697	0.8578
3688	0.8575
3679	0.8571
3670	0.8567
3661	0.8561
3652	0.8556
3643	0.8558
3634	0.8561
3625	0.8563
3616	0.8568
3607	0.8578
3598	0.8597
3589	0.8617
3580	0.8646
3571	0.868
3562	0.8698
3553	0.8703
3544	0.8708
3535	0.8713
3526	0.8721
3517	0.8738
3508	0.8748
3499	0.8756
3490	0.8765
3481	0.8775
3472	0.8792
3463	0.881
3454	0.8828
3445	0.8847
3436	0.8863
3427	0.8878
3418	0.8892
3409	0.89
3400	0.8907
3391	0.891
3382	0.8914
3373	0.8916
3364	0.8915
3355	0.8912
3346	0.8911
3337	0.8912
3328	0.892
3319	0.8927
3310	0.8947
3301	0.896
3292	0.8971
3283	0.8978
3274	0.8985
3265	0.899
3256	0.8992
3247	0.8993
3238	0.8995
3229	0.8997
3220	0.8996
3211	0.8996
3202	0.8997
3193	0.895
3184	0.8883
3175	0.8868
3166	0.8865
3157	0.8865
3148	0.8865
3139	0.886
3130	0.8848
3121	0.8814
3112	0.8744
3103	0.8555
3094	0.7536
3085	0.7621
3076	0.636
3067	0.5932
3058	0.6172
3049	0.6964
3040	0.6166
3031	0.7145
3022	0.7594
3013	0.8028
3004	0.8371
2995	0.8568
2986	0.8674
2977	0.8733
2968	0.8765
2959	0.8784
2950	0.8782
2941	0.8791
2932	0.8808
2923	0.8828
2914	0.8843
2905	0.8834
2896	0.8821
2887	0.8806
2878	0.8799
2869	0.8801
2860	0.8803
2851	0.8804
2842	0.8807
2833	0.8809
2824	0.8811
2815	0.8813
2806	0.8814
2797	0.881
2788	0.8806
2779	0.8802
2770	0.88
2761	0.8798
2752	0.8797
2743	0.8794
2734	0.8791
2725	0.8787
2716	0.8784
2707	0.8783
2698	0.8786
2689	0.8788
2680	0.8787
2671	0.8787
2662	0.8796
2653	0.8796
2644	0.8796
2635	0.879
2626	0.8759
2617	0.8713
2608	0.867
2599	0.8656
2590	0.8674
2581	0.868
2572	0.866
2563	0.8652
2554	0.8659
2545	0.8678
2536	0.869
2527	0.87
2518	0.871
2509	0.8717
2500	0.8718
2491	0.8721
2482	0.8723
2473	0.8725
2464	0.8725
2455	0.8714
2446	0.8689
2437	0.8649
2428	0.8604
2419	0.8588
2410	0.8591
2401	0.8589
2392	0.8547
2383	0.8525
2374	0.8527
2365	0.8533
2356	0.854
2347	0.8547
2338	0.8556
2329	0.8566
2320	0.8574
2311	0.8608
2302	0.866
2293	0.8668
2284	0.8651
2275	0.863
2266	0.8617
2257	0.8623
2248	0.8636
2239	0.8675
2230	0.8721
2221	0.8747
2212	0.8764
2203	0.8774
2194	0.8774
2185	0.8783
2176	0.889
2167	0.8888
2158	0.8832
2149	0.8832
2140	0.8832
2131	0.8833
2122	0.8834
2113	0.8833
2104	0.8815
2095	0.8804
2086	0.8787
2077	0.8751
2068	0.874
2059	0.8739
2050	0.8737
2041	0.8723
2032	0.866
2023	0.8556
2014	0.8487
2005	0.8471
1996	0.8481
1987	0.8493
1978	0.8488
1969	0.8456
1960	0.8351
1951	0.7957
1942	0.7946
1933	0.7501
1924	0.7665
1915	0.8068
1906	0.8068
1897	0.8225
1888	0.8284
1879	0.8271
1870	0.8175
1861	0.8247
1852	0.7975
1843	0.8291
1834	0.8637
1825	0.8715
1816	0.8728
1807	0.87
1798	0.8568
1789	0.8527
1780	0.8335
1771	0.8131
1762	0.8328
1753	0.8521
1744	0.8485
1735	0.8359
1726	0.8087
1717	0.7825
1708	0.8045
1699	0.8308
1690	0.84
1681	0.8362
1672	0.8414
1663	0.8447
1654	0.8412
1645	0.8361
1636	0.8381
1627	0.8383
1618	0.8168
1609	0.7533
1600	0.324
1591	0.0661
1582	0.2894
1573	0.6439
1564	0.7467
1555	0.7867
1546	0.8008
1537	0.8001
1528	0.7815
1519	0.7491
1510	0.6767
1501	0.3111
1492	0.0027
1483	0.0648
1474	0.4199
1465	0.6408
1456	0.5402
1447	0.7646
1438	0.7958
1429	0.8157
1420	0.8188
1411	0.8134
1402	0.8021
1393	0.7903
1384	0.7825
1375	0.7845
1366	0.7803
1357	0.7757
1348	0.7545
1339	0.4933
1330	0.4249
1321	0.2944
1312	0.0467
1303	0.0775
1294	0.0524
1285	0.3156
1276	0.5527
1267	0.6162
1258	0.639
1249	0.611
1240	0.4329
1231	0.2946
1222	0.3293
1213	0.416
1204	0.2088
1195	0.0095
1186	0
1177	0.0359
1168	0.1614
1159	0.0143
1150	0.3379
1141	0.5975
1132	0.6915
1123	0.7415
1114	0.7724
1105	0.7696
1096	0.7521
1087	0.7695
1078	0.7531
1069	0.3726
1060	0.6895
1051	0.7419
1042	0.7296
1033	0.5774
1024	0.0932
1015	0.4726
1006	0.0113
997	0.3697
988	0.3206
979	0.1101
970	0.01
961	0.0005
952	0.0002
943	0.0183
934	0.212
925	0.3393
916	0.586
907	0.6018
898	0.3905
889	0.6946
880	0.7548
871	0.7656
862	0.7851
853	0.8
844	0.8042
835	0.7922
826	0.7317
817	0.7194
808	0.7514
799	0.7185
790	0.4647
781	0.1264
772	0.0773
763	0.1302
754	0.0885
745	0.4164
736	0.6808
727	0.7065
718	0.723
709	0.7614
700	0.7443
691	0.2749
682	0.0233
673	0.701
664	0.7635
655	0.7521
646	0.7643
637	0.7751
628	0.7738
619	0.4878
610	0.6889
601	0.7122
592	0.546
583	0.3648
574	0.4028
565	0.4859
556	0.569
547	0.64
538	0.6444
529	0.4834
520	0.1934
511	0.2372
502	0.2643
493	0.3406
484	0.5265
475	0.573
466	0.6134
457	0.6476
448	0.6775
439	0.6956
430	0.7069
421	0.7118
412	0.7165
403	0.7192
394	0.7187
