Infrared Spectrum: p-CHLOROPHENYL, 2,4,5-TRICHLOROPHENYL SULFONE
Formula: C12 H6 Cl4 O2 S
CAS: 116-29-0
State: SOLUTION, SATURATED AT LESS THAN 10% (CCl4 FOR 3800-1335, 10% CS2 FOR 1335-450 CM^-^1)
Class: COBLENTZ III
Instrument: DOW KBr FOREPRISM-GRATING
Instrument parameters: BLAZED AT 3.5, 12.0, 20.0 MICRON AND CHANGED AT 5.0, 7.5, 14.9 MICRON
Sampling: TRANSMISSION
Path length: 0.011 CM, 0.012 CM
Resolution: 2
Origin: DOW CHEMICAL COMPANY
1/CM	TRANSMITTANCE
451	0.8064
460	0.8046
469	0.7391
478	0.7238
487	0.878
496	0.8227
505	0.9131
514	0.9223
523	0.9133
532	0.9282
541	0.9268
550	0.928
559	0.9112
568	0.8623
577	0.6192
586	0.7122
595	0.9196
604	0.9263
613	0.9286
622	0.8111
631	0.8945
640	0.8693
649	0.8344
658	0.605
667	0.8932
676	0.8925
685	0.7558
694	0.7346
703	0.8697
712	0.8975
721	0.9082
730	0.9071
739	0.9044
748	0.8924
757	0.3973
766	0.8971
775	0.9
784	0.9024
793	0.9052
802	0.9028
811	0.8874
820	0.7822
829	0.651
838	0.8483
847	0.7814
856	0.7192
865	0.7165
874	0.6191
883	0.7908
892	0.8606
901	0.8368
910	0.8884
919	0.909
928	0.912
937	0.9133
946	0.9088
955	0.909
964	0.9112
973	0.9118
982	0.9121
991	0.9104
1000	0.908
1009	0.8986
1018	0.7431
1027	0.9043
1036	0.8995
1045	0.8908
1054	0.8444
1063	0.5176
1072	0.832
1081	0.8377
1090	0.3684
1099	0.8267
1108	0.8721
1117	0.8542
1126	0.8886
1135	0.8418
1144	0.7944
1153	0.6691
1162	0.3234
1171	0.6294
1180	0.8543
1189	0.9031
1198	0.9066
1207	0.914
1216	0.9175
1225	0.9128
1234	0.8942
1243	0.9002
1252	0.9005
1261	0.896
1270	0.8946
1279	0.8427
1288	0.8808
1297	0.8931
1306	0.8797
1315	0.8307
1324	0.8238
1333	0.7536
1342	0.5502
1351	0.4752
1360	0.7599
1369	0.8259
1378	0.8383
1387	0.8128
1396	0.7435
1405	0.837
1414	0.837
1423	0.8144
1432	0.7308
1441	0.7301
1450	0.7808
1459	0.7758
1468	0.8057
1477	0.6424
1486	0.7894
1495	0.75
1504	0.7118
1513	0.6801
1522	0.6262
1531	0.5455
1540	0.4239
1549	0.4142
1558	0.4515
1567	0.4912
1576	0.5052
1585	0.5269
1594	0.6639
1603	0.7558
1612	0.8125
1621	0.8378
1630	0.8507
1639	0.8552
1648	0.8587
1657	0.8633
1666	0.8674
1675	0.8695
1684	0.8712
1693	0.8705
1702	0.8703
1711	0.8687
1720	0.866
1729	0.8638
1738	0.8641
1747	0.8675
1756	0.8698
1765	0.8707
1774	0.8704
1783	0.8695
1792	0.8683
1801	0.8677
1810	0.8677
1819	0.8691
1828	0.871
1837	0.8681
1846	0.8658
1855	0.8686
1864	0.8691
1873	0.8682
1882	0.8686
1891	0.8685
1900	0.8641
1909	0.8618
1918	0.8697
1927	0.8716
1936	0.8745
1945	0.875
1954	0.869
1963	0.873
1972	0.8731
1981	0.8718
1990	0.8724
1999	0.8536
2008	0.8718
2017	0.8705
2026	0.8705
2035	0.874
2044	0.8768
2053	0.8783
2062	0.8786
2071	0.8781
2080	0.8773
2089	0.876
2098	0.8753
2107	0.8781
2116	0.8787
2125	0.8775
2134	0.8765
2143	0.8753
2152	0.8743
2161	0.8734
2170	0.8728
2179	0.8721
2188	0.872
2197	0.8718
2206	0.8717
2215	0.8707
2224	0.8688
2233	0.8666
2242	0.8632
2251	0.8599
2260	0.8564
2269	0.8521
2278	0.8488
2287	0.8468
2296	0.8468
2305	0.8486
2314	0.8513
2323	0.8525
2332	0.8513
2341	0.8521
2350	0.8584
2359	0.8636
2368	0.8662
2377	0.8678
2386	0.8685
2395	0.8688
2404	0.8689
2413	0.8689
2422	0.8695
2431	0.8699
2440	0.8703
2449	0.8703
2458	0.8703
2467	0.8703
2476	0.8703
2485	0.8701
2494	0.8697
2503	0.8689
2512	0.8681
2521	0.8671
2530	0.8661
2539	0.8651
2548	0.8641
2557	0.8631
2566	0.8628
2575	0.8628
2584	0.8628
2593	0.8628
2602	0.863
2611	0.8633
2620	0.8637
2629	0.8637
2638	0.8635
2647	0.8633
2656	0.8631
2665	0.8631
2674	0.8637
2683	0.8643
2692	0.8644
2701	0.864
2710	0.8636
2719	0.8633
2728	0.8631
2737	0.8628
2746	0.8621
2755	0.8614
2764	0.8607
2773	0.8606
2782	0.862
2791	0.8625
2800	0.8621
2809	0.8609
2818	0.8591
2827	0.8567
2836	0.8534
2845	0.8492
2854	0.8475
2863	0.8558
2872	0.8593
2881	0.8583
2890	0.8557
2899	0.8511
2908	0.8451
2917	0.8375
2926	0.8336
2935	0.8421
2944	0.8499
2953	0.854
2962	0.8562
2971	0.8574
2980	0.8583
2989	0.8587
2998	0.8586
3007	0.8582
3016	0.8571
3025	0.8559
3034	0.8587
3043	0.8593
3052	0.8532
3061	0.8462
3070	0.8393
3079	0.8328
3088	0.7989
3097	0.8257
3106	0.8443
3115	0.8547
3124	0.8575
3133	0.8587
3142	0.8588
3151	0.8596
3160	0.8606
3169	0.8618
3178	0.8624
3187	0.8628
3196	0.8633
3205	0.8637
3214	0.8642
3223	0.8643
3232	0.8645
3241	0.8651
3250	0.8667
3259	0.8678
3268	0.8689
3277	0.8693
3286	0.8695
3295	0.8692
3304	0.8689
3313	0.8686
3322	0.8683
3331	0.8678
3340	0.8675
3349	0.8671
3358	0.8666
3367	0.8659
3376	0.8655
3385	0.8651
3394	0.8647
3403	0.8647
3412	0.865
3421	0.8653
3430	0.8656
3439	0.8661
3448	0.8667
3457	0.8671
3466	0.8678
3475	0.8686
3484	0.8693
3493	0.8699
3502	0.8705
3511	0.8711
3520	0.8717
3529	0.8721
3538	0.8725
3547	0.8731
3556	0.8735
3565	0.8731
3574	0.8727
3583	0.8723
3592	0.8716
3601	0.8705
3610	0.8695
3619	0.8691
3628	0.8689
3637	0.8693
3646	0.87
3655	0.8708
3664	0.8715
3673	0.8723
3682	0.873
3691	0.8738
3700	0.8738
3709	0.8711
3718	0.8685
3727	0.8748
3736	0.8753
3745	0.875
3754	0.8753
3763	0.875
3772	0.8725
3781	0.8704
