Infrared Spectrum: 1-Amino-2-naphthol-4-sulfonic acid
Formula: C10 H9 N O4 S
CAS: 116-63-2
State: SOLID (SPLIT MULL)
Class: COBLENTZ II
Instrument: DOW KBr FOREPRISM-GRATING
Instrument parameters: BLAZED AT 3.5, 12.0, 20.0 MICRON AND CHANGED AT 5.0, 7.5, 14.9 MICRON
Sampling: TRANSMISSION
Resolution: 2
Origin: DOW CHEMICAL COMPANY
1/CM	TRANSMITTANCE
3800	0.6915
3791	0.6925
3782	0.6939
3773	0.6951
3764	0.6968
3755	0.6997
3746	0.7021
3737	0.7043
3728	0.7055
3719	0.7067
3710	0.7076
3701	0.7087
3692	0.7104
3683	0.7146
3674	0.7192
3665	0.7175
3656	0.7133
3647	0.7126
3638	0.7087
3629	0.7047
3620	0.7006
3611	0.6968
3602	0.6934
3593	0.6907
3584	0.6881
3575	0.6848
3566	0.6893
3557	0.6871
3548	0.6842
3539	0.6819
3530	0.6795
3521	0.6772
3512	0.6751
3503	0.6728
3494	0.6715
3485	0.6701
3476	0.6691
3467	0.6695
3458	0.6694
3449	0.6683
3440	0.666
3431	0.6633
3422	0.6587
3413	0.6536
3404	0.646
3395	0.6369
3386	0.6267
3377	0.6125
3368	0.5947
3359	0.5733
3350	0.5467
3341	0.5174
3332	0.4887
3323	0.4638
3314	0.4392
3305	0.4142
3296	0.3875
3287	0.3579
3278	0.3278
3269	0.2755
3260	0.2334
3251	0.1637
3242	0.1428
3233	0.1592
3224	0.1829
3215	0.2072
3206	0.2273
3197	0.2458
3188	0.2594
3179	0.2687
3170	0.2707
3161	0.2652
3152	0.2515
3143	0.2469
3134	0.2452
3125	0.2462
3116	0.2482
3107	0.2509
3098	0.257
3089	0.2819
3080	0.3107
3071	0.3277
3062	0.3426
3053	0.3564
3044	0.3699
3035	0.3814
3026	0.388
3017	0.3934
3008	0.3918
2999	0.3875
2990	0.3828
2981	0.3582
2972	0.3207
2963	0.2889
2954	0.254
2945	0.2243
2936	0.2012
2927	0.1895
2918	0.1833
2909	0.1786
2900	0.1757
2891	0.1758
2882	0.1861
2873	0.209
2864	0.2365
2855	0.2603
2846	0.2884
2837	0.315
2828	0.3384
2819	0.3696
2810	0.3926
2801	0.4137
2792	0.4387
2783	0.4678
2774	0.4858
2765	0.5022
2756	0.5077
2747	0.4949
2738	0.4808
2729	0.4782
2720	0.4854
2711	0.4982
2702	0.5105
2693	0.5251
2684	0.5376
2675	0.5251
2666	0.4341
2657	0.3398
2648	0.2985
2639	0.3214
2630	0.3559
2621	0.4012
2612	0.4374
2603	0.49
2594	0.5279
2585	0.5564
2576	0.5815
2567	0.6012
2558	0.6042
2549	0.6043
2540	0.6088
2531	0.6252
2522	0.6456
2513	0.6614
2504	0.6753
2495	0.6787
2486	0.6807
2477	0.6831
2468	0.6881
2459	0.6962
2450	0.7051
2441	0.7143
2432	0.7157
2423	0.7178
2414	0.7207
2405	0.725
2396	0.7291
2387	0.733
2378	0.7364
2369	0.7394
2360	0.7415
2351	0.7401
2342	0.7383
2333	0.7358
2324	0.7343
2315	0.7333
2306	0.7336
2297	0.7348
2288	0.7382
2279	0.7424
2270	0.7465
2261	0.7518
2252	0.7575
2243	0.7635
2234	0.7695
2225	0.7762
2216	0.7811
2207	0.783
2198	0.7868
2189	0.7911
2180	0.7965
2171	0.8019
2162	0.8061
2153	0.8101
2144	0.8142
2135	0.8181
2126	0.8207
2117	0.8225
2108	0.8251
2099	0.8275
2090	0.8298
2081	0.8303
2072	0.8304
2063	0.8301
2054	0.8303
2045	0.83
2036	0.8293
2027	0.8292
2018	0.8275
2009	0.8189
2000	0.8075
1991	0.8025
1982	0.8032
1973	0.806
1964	0.8081
1955	0.806
1946	0.809
1937	0.8191
1928	0.827
1919	0.826
1910	0.8315
1901	0.84
1892	0.8425
1883	0.8448
1874	0.8518
1865	0.859
1856	0.865
1847	0.8703
1838	0.873
1829	0.8733
1820	0.8739
1811	0.8761
1802	0.8745
1793	0.869
1784	0.8533
1775	0.8525
1766	0.8803
1757	0.8905
1748	0.8906
1739	0.8939
1730	0.8948
1721	0.887
1712	0.8875
1703	0.8831
1694	0.8725
1685	0.8778
1676	0.8568
1667	0.655
1658	0.6356
1649	0.7458
1640	0.8191
1631	0.837
1622	0.7768
1613	0.685
1604	0.6485
1595	0.7022
1586	0.7064
1577	0.7783
1568	0.829
1559	0.8297
1550	0.5781
1541	0.3162
1532	0.1332
1523	0.2291
1514	0.5
1505	0.6996
1496	0.7569
1487	0.7972
1478	0.8131
1469	0.5818
1460	0.8232
1451	0.833
1442	0.7725
1433	0.4712
1424	0.8012
1415	0.8137
1406	0.6171
1397	0.7042
1388	0.749
1379	0.7597
1370	0.6282
1361	0.4972
1352	0.2428
1343	0.5235
1334	0.6434
1325	0.6272
1316	0.5503
1307	0.6346
1298	0.6475
1289	0.4683
1280	0.5653
1271	0.6094
1262	0.4502
1253	0.441
1244	0.2494
1235	0.131
1226	0.0716
1217	0.074
1208	0.1717
1199	0.2108
1190	0.0675
1181	0.0282
1172	0.0174
1163	0.1998
1154	0.2896
1145	0.3668
1136	0.463
1127	0.5799
1118	0.6201
1109	0.5123
1100	0.6497
1091	0.668
1082	0.6185
1073	0.6765
1064	0.5204
1055	0.2239
1046	0.1706
1037	0.5193
1028	0.6253
1019	0.736
1010	0.7546
1001	0.7656
992	0.7728
983	0.7725
974	0.7332
965	0.7586
956	0.7554
947	0.6144
938	0.6941
929	0.7467
920	0.7634
911	0.7731
902	0.7748
893	0.6553
884	0.7583
875	0.7774
866	0.7843
857	0.7839
848	0.7621
839	0.78
830	0.7903
821	0.7857
812	0.7872
803	0.7861
794	0.7742
785	0.7124
776	0.466
767	0.6881
758	0.4229
749	0.2574
740	0.6876
731	0.6805
722	0.6196
713	0.4556
704	0.7161
695	0.7169
686	0.6758
677	0.5158
668	0.4981
659	0.071
650	0.3528
641	0.5844
632	0.6112
623	0.714
614	0.7469
605	0.773
596	0.6086
587	0.7672
578	0.8021
569	0.8133
560	0.8194
551	0.8204
542	0.8168
533	0.7768
524	0.5675
515	0.734
506	0.8084
497	0.8168
488	0.8005
479	0.7872
470	0.7921
461	0.7946
452	0.7971
