Infrared Spectrum: 1,3-CYCLOBUTANEDIOL, 2,2,4,4-TETRAMETHYL-, MONONONANOATE
Formula: C17 H32 O3
CAS: 116373-52-5
Boiling point: 131-133 C AT 0.7 mmHg
Class: COBLENTZ
Instrument: Not specified, most likely a prism, grating, or hybrid spectrometer.
Sampling: TRANSMISSION
Path length: SMEAR
Resolution: 4
Origin: TENNESSEE EASTMAN COMPANY, RESEARCH LABORATORIES
MICROMETERS	TRANSMITTANCE
2.034	0.994
2.07494	0.993
2.11587	0.994
2.15681	0.996
2.19774	0.993
2.23868	0.962
2.27961	0.945
2.32055	0.947
2.36148	0.947
2.40242	0.948
2.44335	0.953
2.48429	0.965
2.52523	0.974
2.56616	0.974
2.6071	0.979
2.64803	0.986
2.68897	0.982
2.7299	0.864
2.77084	0.459
2.81177	0.321
2.85271	0.299
2.89365	0.36
2.93458	0.497
2.97552	0.62
3.01645	0.731
3.05739	0.805
3.09832	0.846
3.13926	0.858
3.18019	0.892
3.22113	0.9
3.26206	0.871
3.303	0.625
3.34394	0.032
3.38487	0.051
3.42581	0.148
3.46674	0.252
3.50768	0.716
3.54861	0.811
3.58955	0.842
3.63048	0.83
3.67142	0.841
3.71235	0.859
3.75329	0.868
3.79423	0.883
3.83516	0.902
3.8761	0.914
3.91703	0.931
3.95797	0.943
3.9989	0.945
4.03984	0.947
4.08077	0.95
4.12171	0.95
4.16265	0.952
4.20358	0.952
4.24452	0.95
4.28545	0.945
4.32639	0.943
4.36732	0.95
4.40826	0.955
4.44919	0.957
4.49013	0.958
4.53106	0.958
4.572	0.957
4.61294	0.955
4.65387	0.955
4.69481	0.955
4.73574	0.955
4.77668	0.96
4.81761	0.96
4.85855	0.96
4.89948	0.955
4.94042	0.958
4.98135	0.967
5.02229	0.974
5.06323	0.972
5.10416	0.972
5.1451	0.972
5.18603	0.972
5.22697	0.972
5.2679	0.974
5.30884	0.967
5.34977	0.955
5.39071	0.95
5.43165	0.935
5.47258	0.919
5.51352	0.892
5.55445	0.851
5.59539	0.793
5.63632	0.699
5.67726	0.29
5.71819	0.063
5.75913	0.052
5.80006	0.064
5.841	0.129
5.88194	0.384
5.92287	0.596
5.96381	0.707
6.00474	0.776
6.04568	0.823
6.08661	0.856
6.12755	0.866
6.16848	0.882
6.20942	0.894
6.25035	0.902
6.29129	0.907
6.33223	0.911
6.37316	0.905
6.4141	0.9
6.45503	0.888
6.49597	0.88
6.5369	0.87
6.57784	0.851
6.61877	0.83
6.65971	0.8
6.70065	0.695
6.74158	0.441
6.78252	0.138
6.82345	0.186
6.86439	0.271
6.90532	0.369
6.94626	0.468
6.98719	0.468
7.02813	0.429
7.06906	0.524
7.11	0.565
7.15094	0.427
7.19187	0.258
7.23281	0.172
7.27374	0.203
7.31468	0.282
7.35561	0.4
7.39655	0.425
7.43748	0.388
7.47842	0.384
7.51935	0.36
7.56029	0.312
7.60123	0.29
7.64216	0.288
7.6831	0.288
7.72403	0.283
7.76497	0.249
7.8059	0.241
7.84684	0.239
7.88777	0.229
7.92871	0.181
7.96965	0.157
8.01058	0.158
8.05152	0.179
8.09245	0.213
8.13339	0.206
8.17432	0.186
8.21526	0.174
8.25619	0.169
8.29713	0.143
8.33806	0.124
8.379	0.114
8.41994	0.104
8.46087	0.094
8.50181	0.082
8.54274	0.073
8.58368	0.078
8.62461	0.129
8.66555	0.232
8.70648	0.372
8.74742	0.454
8.78835	0.476
8.82929	0.417
8.87023	0.292
8.91116	0.208
8.9521	0.155
8.99303	0.117
9.03397	0.111
9.0749	0.123
9.11584	0.196
9.15677	0.29
9.19771	0.365
9.23865	0.403
9.27958	0.398
9.32052	0.36
9.36145	0.323
9.40239	0.275
9.44332	0.227
9.48426	0.198
9.52519	0.172
9.56613	0.16
9.60706	0.152
9.648	0.145
9.68894	0.152
9.72987	0.177
9.77081	0.241
9.81174	0.271
9.85268	0.256
9.89361	0.223
9.93455	0.203
9.97548	0.2
10.0164	0.225
10.0574	0.283
10.0983	0.357
10.1392	0.4
10.1802	0.411
10.2211	0.417
10.262	0.435
10.303	0.505
10.3439	0.581
10.3848	0.63
10.4258	0.644
10.4667	0.613
10.5076	0.6
10.5486	0.649
10.5895	0.68
10.6305	0.711
10.6714	0.721
10.7123	0.723
10.7533	0.723
10.7942	0.717
10.8351	0.714
10.8761	0.716
10.917	0.721
10.9579	0.728
10.9989	0.731
11.0398	0.736
11.0807	0.748
11.1217	0.764
11.1626	0.774
11.2035	0.777
11.2445	0.779
11.2854	0.776
11.3264	0.767
11.3673	0.753
11.4082	0.741
11.4492	0.717
11.4901	0.699
11.531	0.683
11.572	0.678
11.6129	0.697
11.6538	0.729
11.6948	0.758
11.7357	0.781
11.7766	0.788
11.8176	0.796
11.8585	0.798
11.8995	0.803
11.9404	0.801
11.9813	0.806
12.0223	0.806
12.0632	0.805
12.1041	0.801
12.1451	0.798
12.186	0.791
12.2269	0.786
12.2679	0.786
12.3088	0.782
12.3497	0.782
12.3907	0.781
12.4316	0.779
12.4725	0.781
12.5135	0.786
12.5544	0.789
12.5954	0.793
12.6363	0.791
12.6772	0.784
12.7182	0.77
12.7591	0.748
12.8	0.716
12.841	0.678
12.8819	0.661
12.9228	0.649
12.9638	0.652
13.0047	0.687
13.0456	0.716
13.0866	0.745
13.1275	0.75
13.1685	0.755
13.2094	0.755
13.2503	0.748
13.2913	0.741
13.3322	0.736
13.3731	0.733
13.4141	0.733
13.455	0.726
13.4959	0.721
13.5369	0.716
13.5778	0.711
13.6187	0.704
13.6597	0.682
13.7006	0.654
13.7415	0.611
13.7825	0.596
13.8234	0.591
13.8644	0.617
13.9053	0.646
13.9462	0.666
13.9872	0.68
14.0281	0.69
14.069	0.699
14.11	0.704
14.1509	0.704
14.1918	0.705
14.2328	0.707
14.2737	0.707
14.3146	0.705
14.3556	0.705
14.3965	0.705
14.4375	0.705
14.4784	0.705
14.5193	0.702
14.5603	0.697
14.6012	0.694
14.6421	0.688
14.6831	0.682
14.724	0.676
14.7649	0.67
14.8059	0.663
14.8468	0.654
14.8877	0.644
14.9287	0.632
14.9696	0.615
15.0105	0.608
15.0515	0.605
15.0924	0.605
15.1334	0.601
15.1743	0.589
15.2152	0.582
15.2562	0.572
15.2971	0.567
15.338	0.562
15.379	0.557
15.4199	0.552
15.4608	0.541
15.5018	0.535
15.5427	0.531
15.5836	0.526
15.6246	0.524
15.6655	0.524
15.7065	0.523
15.7474	0.523
15.7883	0.517
15.8293	0.517
15.8702	0.514
15.9111	0.514
15.9521	0.514
15.993	0.512
