Infrared Spectrum: O-NITRO CARBANILIC ACID, GERANIOL ESTER
Formula: C17 H22 N2 O4
CAS: 116373-28-5
Class: COBLENTZ
Instrument: Not specified, most likely a grating spectrometer.
Sampling: TRANSMISSION
Path length: CAPILLARY
Resolution: 4
Origin: CITRUS EXPERIMENT STATION, UNIVERSITY OF FLORIDA (G. EDWARDS)
MICROMETERS	TRANSMITTANCE
2.027	0.885
2.06014	0.884
2.09329	0.883
2.12643	0.88
2.15957	0.88
2.19272	0.867
2.22586	0.864
2.259	0.862
2.29215	0.863
2.32529	0.867
2.35844	0.87
2.39158	0.871
2.42472	0.871
2.45787	0.87
2.49101	0.874
2.52415	0.879
2.5573	0.88
2.59044	0.879
2.62358	0.876
2.65673	0.872
2.68987	0.867
2.72301	0.866
2.75616	0.864
2.7893	0.859
2.82244	0.854
2.85559	0.836
2.88873	0.82
2.92187	0.724
2.95502	0.432
2.98816	0.659
3.02131	0.82
3.05445	0.843
3.08759	0.847
3.12074	0.843
3.15388	0.828
3.18702	0.785
3.22017	0.786
3.25331	0.766
3.28645	0.728
3.3196	0.579
3.35274	0.387
3.38588	0.319
3.41903	0.405
3.45217	0.486
3.48531	0.559
3.51846	0.777
3.5516	0.816
3.58475	0.831
3.61789	0.828
3.65103	0.848
3.68418	0.858
3.71732	0.858
3.75046	0.86
3.78361	0.86
3.81675	0.859
3.84989	0.859
3.88304	0.867
3.91618	0.868
3.94932	0.87
3.98247	0.866
4.01561	0.86
4.04875	0.862
4.0819	0.859
4.11504	0.858
4.14818	0.86
4.18133	0.863
4.21447	0.868
4.24762	0.868
4.28076	0.871
4.3139	0.871
4.34705	0.871
4.38019	0.871
4.41333	0.867
4.44648	0.86
4.47962	0.86
4.51276	0.864
4.54591	0.868
4.57905	0.87
4.61219	0.87
4.64534	0.868
4.67848	0.867
4.71162	0.875
4.74477	0.876
4.77791	0.876
4.81106	0.875
4.8442	0.875
4.87734	0.875
4.91049	0.871
4.94363	0.87
4.97677	0.87
5.00992	0.864
5.04306	0.858
5.0762	0.858
5.10935	0.858
5.14249	0.858
5.17563	0.86
5.20878	0.862
5.24192	0.863
5.27506	0.862
5.30821	0.856
5.34135	0.85
5.37449	0.838
5.40764	0.828
5.44078	0.807
5.47393	0.793
5.50707	0.798
5.54021	0.789
5.57336	0.769
5.6065	0.72
5.63964	0.612
5.67279	0.314
5.70593	0.064
5.73907	0.188
5.77222	0.376
5.80536	0.618
5.8385	0.668
5.87165	0.724
5.90479	0.722
5.93793	0.69
5.97108	0.66
6.00422	0.68
6.03737	0.687
6.07051	0.683
6.10365	0.631
6.1368	0.531
6.16994	0.168
6.20308	0.248
6.23623	0.438
6.26937	0.273
6.30251	0.111
6.33566	0.554
6.3688	0.619
6.40194	0.523
6.43509	0.454
6.46823	0.416
6.50137	0.363
6.53452	0.091
6.56766	0.031
6.6008	0.033
6.63395	0.05
6.66709	0.197
6.70024	0.354
6.73338	0.464
6.76652	0.395
6.79967	0.269
6.83281	0.107
6.86595	0.12
6.8991	0.123
6.93224	0.071
6.96538	0.099
6.99853	0.204
7.03167	0.346
7.06481	0.401
7.09796	0.461
7.1311	0.472
7.16424	0.448
7.19739	0.375
7.23053	0.34
7.26368	0.419
7.29682	0.473
7.32996	0.421
7.36311	0.305
7.39625	0.104
7.42939	0.03
7.46254	0.09
7.49568	0.278
7.52882	0.364
7.56197	0.25
7.59511	0.299
7.62825	0.342
7.6614	0.355
7.69454	0.343
7.72768	0.293
7.76083	0.206
7.79397	0.141
7.82711	0.125
7.86026	0.173
7.8934	0.25
7.92655	0.32
7.95969	0.302
7.99283	0.193
8.02598	0.083
8.05912	0.035
8.09226	0.062
8.12541	0.202
8.15855	0.311
8.19169	0.318
8.22484	0.251
8.25798	0.137
8.29112	0.063
8.32427	0.025
8.35741	0.027
8.39055	0.076
8.4237	0.258
8.45684	0.396
8.48999	0.486
8.52313	0.51
8.55627	0.436
8.58942	0.301
8.62256	0.33
8.6557	0.442
8.68885	0.393
8.72199	0.367
8.75513	0.534
8.78828	0.607
8.82142	0.659
8.85456	0.673
8.88771	0.663
8.92085	0.625
8.95399	0.572
8.98714	0.549
9.02028	0.549
9.05342	0.553
9.08657	0.554
9.11971	0.553
9.15286	0.522
9.186	0.441
9.21914	0.338
9.25229	0.427
9.28543	0.563
9.31857	0.599
9.35172	0.578
9.38486	0.534
9.418	0.473
9.45115	0.42
9.48429	0.355
9.51743	0.299
9.55058	0.27
9.58372	0.23
9.61686	0.218
9.65001	0.242
9.68315	0.289
9.7163	0.352
9.74944	0.421
9.78258	0.515
9.81573	0.587
9.84887	0.632
9.88201	0.659
9.91516	0.669
9.9483	0.668
9.98144	0.661
10.0146	0.644
10.0477	0.627
10.0809	0.6
10.114	0.579
10.1472	0.566
10.1803	0.563
10.2134	0.564
10.2466	0.564
10.2797	0.563
10.3129	0.561
10.346	0.557
10.3792	0.55
10.4123	0.545
10.4455	0.546
10.4786	0.564
10.5117	0.596
10.5449	0.632
10.578	0.64
10.6112	0.633
10.6443	0.611
10.6775	0.583
10.7106	0.568
10.7437	0.588
10.7769	0.627
10.81	0.673
10.8432	0.708
10.8763	0.73
10.9095	0.753
10.9426	0.765
10.9757	0.779
11.0089	0.786
11.042	0.79
11.0752	0.795
11.1083	0.795
11.1415	0.794
11.1746	0.79
11.2078	0.783
11.2409	0.781
11.274	0.773
11.3072	0.769
11.3403	0.762
11.3735	0.749
11.4066	0.725
11.4398	0.692
11.4729	0.645
11.506	0.553
11.5392	0.469
11.5723	0.37
11.6055	0.428
11.6386	0.539
11.6718	0.588
11.7049	0.608
11.738	0.61
11.7712	0.607
11.8043	0.604
11.8375	0.6
11.8706	0.594
11.9038	0.59
11.9369	0.587
11.9701	0.591
12.0032	0.598
12.0363	0.599
12.0695	0.6
12.1026	0.606
12.1358	0.618
12.1689	0.633
12.2021	0.66
12.2352	0.677
12.2683	0.688
12.3015	0.698
12.3346	0.704
12.3678	0.708
12.4009	0.71
12.4341	0.712
12.4672	0.716
12.5004	0.714
12.5335	0.71
12.5666	0.698
12.5998	0.679
12.6329	0.651
12.6661	0.6
12.6992	0.53
12.7324	0.454
12.7655	0.381
12.7986	0.36
12.8318	0.408
12.8649	0.527
12.8981	0.583
12.9312	0.594
12.9644	0.562
12.9975	0.509
13.0306	0.441
13.0638	0.409
13.0969	0.421
13.1301	0.474
13.1632	0.538
13.1964	0.582
13.2295	0.603
13.2627	0.6
13.2958	0.58
13.3289	0.523
13.3621	0.448
13.3952	0.331
13.4284	0.221
13.4615	0.163
13.4947	0.151
13.5278	0.18
13.5609	0.251
13.5941	0.342
13.6272	0.415
13.6604	0.473
13.6935	0.519
13.7267	0.547
13.7598	0.571
13.7929	0.588
13.8261	0.61
13.8592	0.629
13.8924	0.64
13.9255	0.648
13.9587	0.652
13.9918	0.655
14.025	0.657
14.0581	0.656
14.0912	0.652
14.1244	0.647
14.1575	0.64
14.1907	0.635
14.2238	0.623
14.257	0.618
14.2901	0.607
14.3232	0.592
14.3564	0.582
14.3895	0.561
14.4227	0.533
14.4558	0.5
14.489	0.468
14.5221	0.445
14.5552	0.441
14.5884	0.444
14.6215	0.444
14.6547	0.437
14.6878	0.425
14.721	0.415
14.7541	0.411
14.7873	0.412
14.8204	0.423
14.8535	0.431
14.8867	0.433
14.9198	0.433
14.953	0.432
14.9861	0.431
