Infrared Spectrum: SULFONYL-M,M'-DIBENZOIC ACID, DIPHENACYL ESTER
Formula: C30 H22 O8 S
CAS: 116465-55-5
State: SOLID (NUJOL MULL)
Class: COBLENTZ
Instrument: Not specified, most likely a prism, grating, or hybrid spectrometer.
Sampling: TRANSMISSION
Resolution: 4
Origin: TENNESSEE EASTMAN COMPANY, RESEARCH LABORATORIES
MICROMETERS	TRANSMITTANCE
2.028	0.731
2.06689	0.733
2.10577	0.738
2.14466	0.741
2.18354	0.743
2.22243	0.749
2.26131	0.751
2.3002	0.751
2.33908	0.751
2.37797	0.752
2.41686	0.76
2.45574	0.769
2.49463	0.782
2.53351	0.79
2.5724	0.798
2.61128	0.803
2.65017	0.808
2.68906	0.817
2.72794	0.826
2.76683	0.832
2.80571	0.832
2.8446	0.832
2.88348	0.834
2.92237	0.835
2.96125	0.835
3.00014	0.84
3.03903	0.843
3.07791	0.843
3.1168	0.845
3.15568	0.843
3.19457	0.842
3.23345	0.816
3.27234	0.773
3.31123	0.738
3.35011	0.473
3.389	0.191
3.42788	0.1
3.46677	0.149
3.50565	0.31
3.54454	0.801
3.58342	0.845
3.62231	0.871
3.6612	0.876
3.70008	0.876
3.73897	0.878
3.77785	0.879
3.81674	0.882
3.85562	0.889
3.89451	0.902
3.9334	0.913
3.97228	0.926
4.01117	0.936
4.05005	0.943
4.08894	0.946
4.12782	0.949
4.16671	0.949
4.20559	0.951
4.24448	0.962
4.28337	0.965
4.32225	0.965
4.36114	0.964
4.40002	0.964
4.43891	0.967
4.47779	0.967
4.51668	0.97
4.55557	0.975
4.59445	0.975
4.63334	0.975
4.67222	0.977
4.71111	0.98
4.74999	0.985
4.78888	0.988
4.82776	0.99
4.86665	0.99
4.90554	0.991
4.94442	0.991
4.98331	0.993
5.02219	0.991
5.06108	0.991
5.09996	0.993
5.13885	0.996
5.17774	0.996
5.21662	0.996
5.25551	0.998
5.29439	1
5.33328	1.001
5.37216	1
5.41105	1
5.44993	1.001
5.48882	1.003
5.52771	1.003
5.56659	1.003
5.60548	1.003
5.64436	1.004
5.68325	1
5.72213	0.96
5.76102	0.682
5.79991	0.443
5.83879	0.723
5.87768	0.378
5.91656	0.585
5.95545	0.816
5.99433	0.874
6.03322	0.912
6.0721	0.943
6.11099	0.956
6.14988	0.962
6.18876	0.967
6.22765	0.939
6.26653	0.733
6.30542	0.855
6.3443	0.891
6.38319	0.962
6.42208	0.975
6.46096	0.986
6.49985	0.988
6.53873	0.99
6.57762	0.99
6.6165	0.986
6.65539	0.97
6.69427	0.941
6.73316	0.819
6.77205	0.626
6.81093	0.445
6.84982	0.445
6.8887	0.517
6.92759	0.65
6.96647	0.751
7.00536	0.704
7.04425	0.751
7.08313	0.856
7.12202	0.904
7.1609	0.91
7.19979	0.764
7.23867	0.601
7.27756	0.53
7.31644	0.564
7.35533	0.621
7.39422	0.824
7.4331	0.847
7.47199	0.847
7.51087	0.674
7.54976	0.673
7.58864	0.665
7.62753	0.613
7.66642	0.512
7.7053	0.38
7.74419	0.308
7.78307	0.608
7.82196	0.699
7.86084	0.598
7.89973	0.393
7.93861	0.482
7.9775	0.616
8.01639	0.694
8.05527	0.621
8.09416	0.523
8.13304	0.369
8.17193	0.517
8.21081	0.72
8.2497	0.783
8.28859	0.824
8.32747	0.847
8.36636	0.853
8.40524	0.847
8.44413	0.827
8.48301	0.782
8.5219	0.702
8.56078	0.583
8.59967	0.502
8.63856	0.507
8.67744	0.559
8.71633	0.544
8.75521	0.341
8.7941	0.299
8.83298	0.401
8.87187	0.541
8.91076	0.661
8.94964	0.733
8.98853	0.739
9.02741	0.731
9.0663	0.733
9.10518	0.743
9.14407	0.751
9.18295	0.751
9.22184	0.736
9.26073	0.739
9.29961	0.77
9.3385	0.822
9.37738	0.858
9.41627	0.881
9.45515	0.895
9.49404	0.902
9.53292	0.905
9.57181	0.905
9.6107	0.904
9.64958	0.892
9.68847	0.861
9.72735	0.868
9.76624	0.874
9.80512	0.9
9.84401	0.915
9.8829	0.92
9.92178	0.881
9.96067	0.827
9.99955	0.858
10.0384	0.891
10.0773	0.897
10.1162	0.897
10.1551	0.897
10.194	0.895
10.2329	0.891
10.2718	0.865
10.3106	0.842
10.3495	0.782
10.3884	0.617
10.4273	0.51
10.4662	0.603
10.5051	0.752
10.544	0.8
10.5828	0.822
10.6217	0.852
10.6606	0.86
10.6995	0.85
10.7384	0.822
10.7773	0.852
10.8162	0.882
10.855	0.91
10.8939	0.921
10.9328	0.931
10.9717	0.941
11.0106	0.949
11.0495	0.954
11.0883	0.954
11.1272	0.959
11.1661	0.959
11.205	0.957
11.2439	0.957
11.2828	0.959
11.3217	0.96
11.3605	0.962
11.3994	0.962
11.4383	0.962
11.4772	0.962
11.5161	0.962
11.555	0.962
11.5939	0.96
11.6327	0.952
11.6716	0.907
11.7105	0.887
11.7494	0.904
11.7883	0.931
11.8272	0.941
11.8661	0.941
11.9049	0.951
11.9438	0.957
11.9827	0.96
12.0216	0.964
12.0605	0.964
12.0994	0.964
12.1383	0.964
12.1771	0.964
12.216	0.962
12.2549	0.96
12.2938	0.949
12.3327	0.921
12.3716	0.9
12.4105	0.9
12.4493	0.917
12.4882	0.934
12.5271	0.946
12.566	0.952
12.6049	0.956
12.6438	0.956
12.6827	0.957
12.7215	0.956
12.7604	0.956
12.7993	0.952
12.8382	0.92
12.8771	0.873
12.916	0.876
12.9549	0.899
12.9937	0.904
13.0326	0.884
13.0715	0.835
13.1104	0.835
13.1493	0.837
13.1882	0.778
13.2271	0.682
13.2659	0.643
13.3048	0.647
13.3437	0.723
13.3826	0.707
13.4215	0.577
13.4604	0.497
13.4993	0.59
13.5381	0.731
13.577	0.754
13.6159	0.775
13.6548	0.801
13.6937	0.819
13.7326	0.84
13.7715	0.842
13.8103	0.843
13.8492	0.848
13.8881	0.848
13.927	0.85
13.9659	0.853
14.0048	0.855
14.0437	0.855
14.0825	0.856
14.1214	0.856
14.1603	0.856
14.1992	0.856
14.2381	0.855
14.277	0.852
14.3159	0.847
14.3547	0.834
14.3936	0.804
14.4325	0.741
14.4714	0.669
14.5103	0.614
14.5492	0.582
14.5881	0.575
14.6269	0.577
14.6658	0.577
14.7047	0.58
14.7436	0.58
14.7825	0.578
14.8214	0.578
14.8603	0.588
14.8991	0.627
14.938	0.673
14.9769	0.704
15.0158	0.723
15.0547	0.746
15.0936	0.749
15.1325	0.749
15.1713	0.749
15.2102	0.749
15.2491	0.749
15.288	0.749
15.3269	0.749
15.3658	0.749
15.4047	0.749
15.4435	0.749
15.4824	0.751
15.5213	0.751
15.5602	0.751
15.5991	0.751
15.638	0.751
15.6769	0.751
15.7157	0.751
15.7546	0.751
15.7935	0.751
15.8324	0.751
15.8713	0.751
15.9102	0.751
15.9491	0.752
15.9879	0.752
