Infrared Spectrum: PIVALIC ACID, DIETHYLPHOSPHONO-, ETHYL ESTER
Formula: C11 H23 O5 P
CAS: 116594-67-3
Boiling point: 90-95 C AT 0.5 mmHg
Class: COBLENTZ
Instrument: Not specified, most likely a prism, grating, or hybrid spectrometer.
Sampling: TRANSMISSION
Path length: SMEAR
Resolution: 4
Origin: TENNESSEE EASTMAN COMPANY, RESEARCH LABORATORIES
MICROMETERS	TRANSMITTANCE
2.018	0.983
2.0581	0.983
2.09819	0.983
2.13829	0.983
2.17839	0.983
2.21848	0.979
2.25858	0.953
2.29868	0.938
2.33877	0.938
2.37887	0.938
2.41897	0.938
2.45906	0.938
2.49916	0.938
2.53926	0.939
2.57935	0.943
2.61945	0.944
2.65955	0.946
2.69964	0.946
2.73974	0.931
2.77984	0.897
2.81993	0.854
2.86003	0.834
2.90013	0.814
2.94023	0.819
2.98032	0.871
3.02042	0.896
3.06052	0.903
3.10061	0.904
3.14071	0.901
3.18081	0.911
3.2209	0.914
3.261	0.908
3.3011	0.867
3.34119	0.501
3.38129	0.397
3.42139	0.456
3.46148	0.588
3.50158	0.792
3.54168	0.846
3.58177	0.882
3.62187	0.891
3.66197	0.891
3.70206	0.901
3.74216	0.916
3.78226	0.919
3.82235	0.928
3.86245	0.934
3.90255	0.938
3.94264	0.938
3.98274	0.941
4.02284	0.943
4.06293	0.943
4.10303	0.941
4.14313	0.939
4.18322	0.939
4.22332	0.941
4.26342	0.956
4.30351	0.944
4.34361	0.934
4.38371	0.936
4.4238	0.944
4.4639	0.946
4.504	0.948
4.5441	0.949
4.58419	0.949
4.62429	0.949
4.66439	0.948
4.70448	0.948
4.74458	0.948
4.78468	0.948
4.82477	0.946
4.86487	0.944
4.90497	0.944
4.94506	0.943
4.98516	0.944
5.02526	0.946
5.06535	0.946
5.10545	0.944
5.14555	0.944
5.18564	0.944
5.22574	0.944
5.26584	0.939
5.30593	0.933
5.34603	0.931
5.38613	0.929
5.42622	0.924
5.46632	0.911
5.50642	0.897
5.54651	0.889
5.58661	0.867
5.62671	0.844
5.6668	0.779
5.7069	0.632
5.747	0.272
5.78709	0.209
5.82719	0.371
5.86729	0.623
5.90738	0.705
5.94748	0.784
5.98758	0.809
6.02767	0.832
6.06777	0.851
6.10787	0.839
6.14797	0.854
6.18806	0.876
6.22816	0.894
6.26826	0.909
6.30835	0.918
6.34845	0.929
6.38855	0.923
6.42864	0.901
6.46874	0.892
6.50884	0.867
6.54893	0.869
6.58903	0.861
6.62913	0.849
6.66922	0.822
6.70932	0.68
6.74942	0.523
6.78951	0.473
6.82961	0.55
6.86971	0.553
6.9098	0.531
6.9499	0.633
6.99	0.732
7.03009	0.762
7.07019	0.712
7.11029	0.602
7.15038	0.555
7.19048	0.468
7.23058	0.538
7.27067	0.655
7.31077	0.586
7.35087	0.591
7.39096	0.77
7.43106	0.822
7.47116	0.827
7.51125	0.816
7.55135	0.78
7.59145	0.709
7.63154	0.53
7.67164	0.357
7.71174	0.336
7.75184	0.394
7.79193	0.439
7.83203	0.466
7.87213	0.474
7.91222	0.419
7.95232	0.357
7.99242	0.29
8.03251	0.234
8.07261	0.234
8.11271	0.245
8.1528	0.297
8.1929	0.361
8.233	0.399
8.27309	0.428
8.31319	0.431
8.35329	0.366
8.39338	0.294
8.43348	0.259
8.47358	0.259
8.51367	0.306
8.55377	0.327
8.59387	0.334
8.63396	0.384
8.67406	0.401
8.71416	0.394
8.75425	0.374
8.79435	0.391
8.83445	0.453
8.87454	0.5
8.91464	0.516
8.95474	0.471
8.99483	0.376
9.03493	0.346
9.07503	0.352
9.11512	0.366
9.15522	0.408
9.19532	0.458
9.23541	0.468
9.27551	0.436
9.31561	0.366
9.35571	0.292
9.3958	0.219
9.4359	0.193
9.476	0.177
9.51609	0.182
9.55619	0.198
9.59629	0.198
9.63638	0.187
9.67648	0.152
9.71658	0.142
9.75667	0.152
9.79677	0.197
9.83687	0.27
9.87696	0.359
9.91706	0.443
9.95716	0.51
9.99725	0.54
10.0373	0.57
10.0774	0.573
10.1175	0.565
10.1576	0.521
10.1977	0.449
10.2378	0.382
10.2779	0.331
10.318	0.294
10.3581	0.26
10.3982	0.244
10.4383	0.237
10.4784	0.239
10.5185	0.249
10.5586	0.27
10.5987	0.29
10.6388	0.317
10.6789	0.351
10.719	0.403
10.7591	0.466
10.7992	0.536
10.8393	0.595
10.8794	0.64
10.9195	0.68
10.9596	0.71
10.9997	0.744
11.0398	0.767
11.0799	0.787
11.12	0.801
11.1601	0.817
11.2002	0.824
11.2403	0.831
11.2803	0.837
11.3204	0.839
11.3605	0.837
11.4006	0.831
11.4407	0.811
11.4808	0.795
11.5209	0.769
11.561	0.754
11.6011	0.745
11.6412	0.719
11.6813	0.65
11.7214	0.57
11.7615	0.521
11.8016	0.523
11.8417	0.54
11.8818	0.551
11.9219	0.553
11.962	0.553
12.0021	0.548
12.0422	0.523
12.0823	0.518
12.1224	0.518
12.1625	0.523
12.2026	0.55
12.2427	0.573
12.2828	0.58
12.3229	0.583
12.363	0.583
12.4031	0.583
12.4432	0.581
12.4833	0.573
12.5233	0.56
12.5634	0.545
12.6035	0.535
12.6436	0.531
12.6837	0.533
12.7238	0.535
12.7639	0.535
12.804	0.531
12.8441	0.526
12.8842	0.523
12.9243	0.518
12.9644	0.516
13.0045	0.523
13.0446	0.548
13.0847	0.586
13.1248	0.605
13.1649	0.638
13.205	0.665
13.2451	0.692
13.2852	0.707
13.3253	0.732
13.3654	0.745
13.4055	0.754
13.4456	0.76
13.4857	0.762
13.5258	0.762
13.5659	0.762
13.606	0.762
13.6461	0.759
13.6862	0.755
13.7263	0.75
13.7663	0.744
13.8064	0.742
13.8465	0.739
13.8866	0.737
13.9267	0.735
13.9668	0.735
14.0069	0.734
14.047	0.734
14.0871	0.737
14.1272	0.74
14.1673	0.747
14.2074	0.754
14.2475	0.759
14.2876	0.765
14.3277	0.767
14.3678	0.77
14.4079	0.772
14.448	0.775
14.4881	0.775
14.5282	0.775
14.5683	0.775
14.6084	0.774
14.6485	0.774
14.6886	0.774
14.7287	0.774
14.7688	0.769
14.8089	0.765
14.849	0.762
14.8891	0.757
14.9292	0.747
14.9693	0.725
15.0093	0.719
15.0494	0.722
15.0895	0.724
15.1296	0.725
15.1697	0.722
15.2098	0.717
15.2499	0.715
15.29	0.705
15.3301	0.702
15.3702	0.697
15.4103	0.693
15.4504	0.69
15.4905	0.687
15.5306	0.685
15.5707	0.683
15.6108	0.683
15.6509	0.682
15.691	0.685
15.7311	0.68
15.7712	0.68
15.8113	0.68
15.8514	0.678
15.8915	0.677
15.9316	0.677
15.9717	0.675
