Infrared Spectrum: 2-(p-PHENYL PHENOXY)-3-METHYL PYRAZINE
Formula: C17 H14 N2 O
CAS: 116660-44-7
State: SOLID (MINERAL OIL MULL)
Melting point: 113-114.5 C
Class: COBLENTZ
Instrument: Not specified, most likely a prism, grating, or hybrid spectrometer.
Sampling: TRANSMISSION
Resolution: 4
Origin: DOW CHEMICAL COMPANY
MICROMETERS	TRANSMITTANCE
2.02	0.325
2.0609	0.345
2.10179	0.351
2.14269	0.357
2.18359	0.363
2.22449	0.366
2.26538	0.378
2.30628	0.392
2.34718	0.4
2.38807	0.4
2.42897	0.409
2.46987	0.422
2.51076	0.429
2.55166	0.448
2.59256	0.452
2.63346	0.464
2.67435	0.47
2.71525	0.477
2.75615	0.488
2.79704	0.489
2.83794	0.482
2.87884	0.484
2.91974	0.488
2.96063	0.486
3.00153	0.486
3.04243	0.489
3.08332	0.494
3.12422	0.493
3.16512	0.491
3.20601	0.467
3.24691	0.385
3.28781	0.366
3.32871	0.208
3.3696	0.039
3.4105	0.03
3.4514	0.097
3.49229	0.099
3.53319	0.511
3.57409	0.621
3.61499	0.647
3.65588	0.645
3.69678	0.657
3.73768	0.655
3.77857	0.667
3.81947	0.676
3.86037	0.684
3.90127	0.688
3.94216	0.702
3.98306	0.707
4.02396	0.708
4.06485	0.71
4.10575	0.712
4.14665	0.719
4.18754	0.727
4.22844	0.719
4.26934	0.717
4.31024	0.734
4.35113	0.763
4.39203	0.772
4.43293	0.77
4.47382	0.772
4.51472	0.782
4.55562	0.792
4.59652	0.792
4.63741	0.791
4.67831	0.792
4.71921	0.803
4.7601	0.815
4.801	0.821
4.8419	0.827
4.88279	0.827
4.92369	0.823
4.96459	0.828
5.00549	0.833
5.04638	0.833
5.08728	0.84
5.12818	0.832
5.16907	0.828
5.20997	0.827
5.25087	0.777
5.29177	0.832
5.33266	0.84
5.37356	0.871
5.41446	0.873
5.45535	0.875
5.49625	0.864
5.53715	0.849
5.57804	0.871
5.61894	0.869
5.65984	0.868
5.70074	0.863
5.74163	0.88
5.78253	0.863
5.82343	0.847
5.86432	0.861
5.90522	0.837
5.94612	0.84
5.98702	0.828
6.02791	0.849
6.06881	0.844
6.10971	0.835
6.1506	0.827
6.1915	0.758
6.2324	0.804
6.2733	0.825
6.31419	0.876
6.35509	0.878
6.39599	0.75
6.43688	0.606
6.47778	0.751
6.51868	0.549
6.55957	0.518
6.60047	0.803
6.64137	0.595
6.68227	0.186
6.72316	0.378
6.76406	0.287
6.80496	0.267
6.84585	0.253
6.88675	0.198
6.92765	0.248
6.96855	0.304
7.00944	0.219
7.05034	0.147
7.09124	0.029
7.13213	0.07
7.17303	0.214
7.21393	0.244
7.25482	0.251
7.29572	0.501
7.33662	0.636
7.37752	0.671
7.41841	0.688
7.45931	0.667
7.50021	0.607
7.5411	0.695
7.582	0.678
7.6229	0.707
7.6638	0.71
7.70469	0.559
7.74559	0.267
7.78649	0.277
7.82738	0.496
7.86828	0.383
7.90918	0.477
7.95007	0.626
7.99097	0.659
8.03187	0.592
8.07277	0.352
8.11366	0.148
8.15456	0.219
8.19546	0.426
8.23635	0.551
8.27725	0.614
8.31815	0.513
8.35905	0.371
8.39994	0.294
8.44084	0.222
8.48174	0.183
8.52263	0.227
8.56353	0.5
8.60443	0.359
8.64532	0.409
8.68622	0.553
8.72712	0.645
8.76802	0.683
8.80891	0.688
8.84981	0.669
8.89071	0.654
8.9316	0.601
8.9725	0.571
9.0134	0.729
9.0543	0.758
9.09519	0.768
9.13609	0.77
9.17699	0.76
9.21788	0.674
9.25878	0.717
9.29968	0.779
9.34058	0.801
9.38147	0.815
9.42237	0.821
9.46327	0.832
9.50416	0.833
9.54506	0.82
9.58596	0.756
9.62685	0.741
9.66775	0.823
9.70865	0.849
9.74955	0.808
9.79044	0.782
9.83134	0.832
9.87224	0.66
9.91313	0.648
9.95403	0.799
9.99493	0.82
10.0358	0.818
10.0767	0.803
10.1176	0.761
10.1585	0.676
10.1994	0.529
10.2403	0.494
10.2812	0.635
10.3221	0.732
10.363	0.785
10.4039	0.809
10.4448	0.828
10.4857	0.845
10.5266	0.851
10.5675	0.849
10.6084	0.849
10.6493	0.869
10.6902	0.876
10.7311	0.876
10.772	0.88
10.8129	0.881
10.8538	0.878
10.8947	0.866
10.9356	0.844
10.9765	0.835
11.0174	0.767
11.0583	0.46
11.0991	0.527
11.14	0.765
11.1809	0.825
11.2218	0.859
11.2627	0.869
11.3036	0.876
11.3445	0.876
11.3854	0.878
11.4263	0.876
11.4672	0.851
11.5081	0.82
11.549	0.741
11.5899	0.573
11.6308	0.323
11.6717	0.21
11.7126	0.102
11.7535	0.32
11.7944	0.565
11.8353	0.702
11.8762	0.763
11.9171	0.797
11.958	0.808
11.9989	0.821
12.0398	0.827
12.0807	0.827
12.1216	0.844
12.1625	0.861
12.2034	0.871
12.2443	0.893
12.2852	0.907
12.3261	0.914
12.367	0.922
12.4079	0.924
12.4488	0.926
12.4896	0.928
12.5305	0.929
12.5714	0.926
12.6123	0.921
12.6532	0.907
12.6941	0.861
12.735	0.803
12.7759	0.839
12.8168	0.878
12.8577	0.888
12.8986	0.88
12.9395	0.864
12.9804	0.808
13.0213	0.717
13.0622	0.708
13.1031	0.698
13.144	0.568
13.1849	0.309
13.2258	0.128
13.2667	0.157
13.3076	0.412
13.3485	0.597
13.3894	0.717
13.4303	0.78
13.4712	0.816
13.5121	0.839
13.553	0.852
13.5939	0.849
13.6348	0.83
13.6757	0.761
13.7166	0.691
13.7575	0.761
13.7984	0.839
13.8393	0.856
13.8801	0.866
13.921	0.88
13.9619	0.888
14.0028	0.895
14.0437	0.893
14.0846	0.88
14.1255	0.859
14.1664	0.825
14.2073	0.799
14.2482	0.782
14.2891	0.75
14.33	0.702
14.3709	0.619
14.4118	0.527
14.4527	0.428
14.4936	0.4
14.5345	0.474
14.5754	0.58
14.6163	0.691
14.6572	0.755
14.6981	0.789
14.739	0.806
14.7799	0.815
14.8208	0.82
14.8617	0.821
14.9026	0.821
14.9435	0.813
14.9844	0.772
15.0253	0.738
15.0662	0.763
15.1071	0.809
15.148	0.823
15.1889	0.809
15.2298	0.794
15.2706	0.782
15.3115	0.772
15.3524	0.755
15.3933	0.748
15.4342	0.734
15.4751	0.726
15.516	0.717
15.5569	0.714
15.5978	0.703
15.6387	0.69
15.6796	0.679
15.7205	0.667
15.7614	0.65
15.8023	0.64
15.8432	0.626
15.8841	0.613
15.925	0.599
15.9659	0.58
