Infrared Spectrum: 1,3-BUTADIENE, 1,4-DIBROMO-1,4-DIPHENYL-
Formula: C16 H12 Br2
CAS: 116862-67-0
State: SOLUTION (10% IN CCl4 FOR 3800-1300, 10% IN CS2 FOR 1300-650, AND 10% CCl4 FOR 650-250 CM^-^1) VERSUS SOLVENT
Melting point: 121 C
Class: COBLENTZ II
Instrument: PERKIN-ELMER 521 (GRATING)
Instrument parameters: GRATING CHANGES AT 2000, 630 CM^-^1
Sampling: TRANSMISSION
Path length: 0.012, 0.011, AND 0.010 CM (CsBr CELL)
Resolution: 4
Origin: DOW CORNING CORP.
1/CM	TRANSMITTANCE
243.404	0.816
252.34	0.835
261.276	0.854
270.213	0.868
279.149	0.872
288.085	0.881
297.021	0.886
305.957	0.893
314.894	0.895
323.83	0.9
332.766	0.895
341.702	0.893
350.638	0.889
359.575	0.889
368.511	0.889
377.447	0.865
386.383	0.853
395.319	0.851
404.256	0.823
413.192	0.83
422.128	0.828
431.064	0.833
440	0.835
448.937	0.849
457.873	0.856
466.809	0.863
475.745	0.863
484.681	0.86
493.617	0.853
502.554	0.823
511.49	0.751
520.426	0.821
529.362	0.853
538.298	0.83
547.235	0.812
556.171	0.7769
565.107	0.853
574.043	0.86
582.979	0.86
591.916	0.856
600.852	0.839
609.788	0.84
618.724	0.816
627.66	0.814
636.597	0.795
645.533	0.781
654.469	0.65
663.405	0.159
672.341	0.625
681.278	0.4661
690.214	0.0851
699.15	0.5467
708.086	0.79
717.022	0.826
725.959	0.832
734.895	0.816
743.831	0.697
752.767	0.1644
761.703	0.4295
770.64	0.804
779.576	0.84
788.512	0.851
797.448	0.847
806.384	0.842
815.321	0.823
824.257	0.784
833.193	0.751
842.129	0.6572
851.065	0.3441
860.002	0.162
868.938	0.3091
877.874	0.6409
886.81	0.77
895.746	0.798
904.683	0.777
913.619	0.7788
922.555	0.86
931.491	0.87
940.427	0.865
949.363	0.854
958.3	0.823
967.236	0.839
976.172	0.839
985.108	0.853
994.044	0.828
1002.98	0.865
1011.92	0.854
1020.85	0.828
1029.79	0.608
1038.73	0.87
1047.66	0.879
1056.6	0.856
1065.53	0.809
1074.47	0.748
1083.41	0.849
1092.34	0.823
1101.28	0.807
1110.22	0.882
1119.15	0.875
1128.09	0.877
1137.02	0.868
1145.96	0.835
1154.9	0.825
1163.83	0.832
1172.77	0.7841
1181.7	0.666
1190.64	0.734
1199.58	0.5663
1208.51	0.7006
1217.45	0.762
1226.39	0.695
1235.32	0.5241
1244.26	0.452
1253.19	0.695
1262.13	0.783
1271.07	0.8
1280	0.743
1288.94	0.736
1297.88	0.79
1306.81	0.819
1315.75	0.875
1324.68	0.863
1333.62	0.844
1342.56	0.9
1351.49	0.907
1360.43	0.898
1369.36	0.893
1378.3	0.863
1387.24	0.893
1396.17	0.898
1405.11	0.896
1414.05	0.9
1422.98	0.884
1431.92	0.84
1440.85	0.4334
1449.79	0.849
1458.73	0.875
1467.66	0.863
1476.6	0.814
1485.54	0.146
1494.47	0.847
1503.41	0.856
1512.34	0.853
1521.28	0.846
1530.22	0.837
1539.15	0.818
1548.09	0.783
1557.02	0.7131
1565.96	0.655
1574.9	0.753
1583.83	0.7291
1592.77	0.788
1601.71	0.851
1610.64	0.868
1619.58	0.875
1628.51	0.886
1637.45	0.891
1646.39	0.888
1655.32	0.882
1664.26	0.872
1673.2	0.865
1682.13	0.891
1691.07	0.889
1700	0.889
1708.94	0.881
1717.88	0.872
1726.81	0.87
1735.75	0.87
1744.68	0.865
1753.62	0.877
1762.56	0.896
1771.49	0.891
1780.43	0.886
1789.37	0.874
1798.3	0.854
1807.24	0.884
1816.17	0.882
1825.11	0.881
1834.05	0.893
1842.98	0.896
1851.92	0.898
1860.86	0.896
1869.79	0.884
1878.73	0.86
1887.66	0.877
1896.6	0.86
1905.54	0.898
1914.47	0.903
1923.41	0.9
1932.35	0.893
1941.28	0.867
1950.22	0.853
1959.15	0.861
1968.09	0.8651
1977.03	0.902
1985.96	0.905
1994.9	0.905
2003.83	0.906
2012.77	0.912
2021.71	0.912
2030.64	0.912
2039.58	0.9095
2048.52	0.909
2057.45	0.907
2066.39	0.9068
2075.32	0.905
2084.26	0.905
2093.2	0.9058
2102.13	0.902
2111.07	0.902
2120.01	0.903
2128.94	0.903
2137.88	0.902
2146.81	0.902
2155.75	0.9003
2164.69	0.9
2173.62	0.896
2182.56	0.9009
2191.49	0.902
2200.43	0.903
2209.37	0.903
2218.3	0.9027
2227.24	0.8985
2236.18	0.896
2245.11	0.896
2254.05	0.896
2262.98	0.8974
2271.92	0.896
2280.86	0.895
2289.79	0.8952
2298.73	0.898
2307.67	0.896
2316.6	0.8917
2325.54	0.889
2334.47	0.891
2343.41	0.8881
2352.35	0.8942
2361.28	0.895
2370.22	0.895
2379.15	0.8949
2388.09	0.893
2397.03	0.893
2405.96	0.8941
2414.9	0.895
2423.84	0.893
2432.77	0.889
2441.71	0.888
2450.64	0.889
2459.58	0.89
2468.52	0.893
2477.45	0.895
2486.39	0.8881
2495.33	0.886
2504.26	0.886
2513.2	0.886
2522.13	0.886
2531.07	0.8884
2540.01	0.888
2548.94	0.886
2557.88	0.8877
2566.81	0.8853
2575.75	0.8823
2584.69	0.882
2593.62	0.884
2602.56	0.8867
2611.5	0.888
2620.43	0.886
2629.37	0.884
2638.3	0.882
2647.24	0.882
2656.18	0.884
2665.11	0.884
2674.05	0.882
2682.99	0.8825
2691.92	0.882
2700.86	0.8804
2709.79	0.881
2718.73	0.8776
2727.67	0.879
2736.6	0.875
2745.54	0.879
2754.48	0.877
2763.41	0.877
2772.35	0.8744
2781.28	0.877
2790.22	0.875
2799.16	0.8749
2808.09	0.872
2817.03	0.8741
2825.96	0.8728
2834.9	0.8721
2843.84	0.875
2852.77	0.8749
2861.71	0.8675
2870.65	0.865
2879.58	0.865
2888.52	0.867
2897.45	0.871
2906.39	0.872
2915.33	0.872
2924.26	0.867
2933.2	0.867
2942.14	0.868
2951.07	0.867
2960.01	0.8651
2968.94	0.861
2977.88	0.8628
2986.82	0.8676
2995.75	0.8601
3004.69	0.8463
3013.62	0.8215
3022.56	0.7608
3031.5	0.6797
3040.43	0.615
3049.37	0.7413
3058.31	0.6792
3067.24	0.6316
3076.18	0.6805
3085.11	0.732
3094.05	0.7585
3102.99	0.8048
3111.92	0.8523
3120.86	0.8665
3129.8	0.8795
3138.73	0.8761
3147.67	0.874
3156.6	0.8764
3165.54	0.8794
3174.48	0.882
3183.41	0.8882
3192.35	0.889
3201.28	0.895
3210.22	0.896
3219.16	0.9
3228.09	0.902
3237.03	0.902
3245.97	0.9008
3254.9	0.8982
3263.84	0.902
3272.77	0.902
3281.71	0.902
3290.65	0.9
3299.58	0.8989
3308.52	0.896
3317.46	0.896
3326.39	0.896
3335.33	0.896
3344.26	0.896
3353.2	0.896
3362.14	0.895
3371.07	0.893
3380.01	0.8949
3388.94	0.896
3397.88	0.8979
3406.82	0.898
3415.75	0.898
3424.69	0.898
3433.63	0.8962
3442.56	0.8968
3451.5	0.9
3460.43	0.8968
3469.37	0.8983
3478.31	0.9
3487.24	0.9
3496.18	0.9
3505.12	0.902
3514.05	0.9027
3522.99	0.902
3531.92	0.903
3540.86	0.902
3549.8	0.902
3558.73	0.905
3567.67	0.907
3576.61	0.9065
3585.54	0.9151
3594.48	0.9093
3603.41	0.905
3612.35	0.9036
3621.29	0.905
3630.22	0.903
3639.16	0.9004
3648.09	0.902
3657.03	0.9017
3665.97	0.9023
3674.9	0.902
3683.84	0.902
3692.78	0.9029
3701.71	0.902
3710.65	0.9021
3719.58	0.903
3728.52	0.907
3737.46	0.914
3746.39	0.907
3755.33	0.907
3764.27	0.907
3773.2	0.907
3782.14	0.907
3791.07	0.907
3800.01	0.907
