Infrared Spectrum: 17Alpha-HYDROXYCORTICOSTERONE
Formula: C21 H30 O5
CAS: 116907-82-5
State: SOLID (KBr DISC)
Class: COBLENTZ III
Instrument: PERKIN-ELMER 521 (GRATING)
Instrument parameters: ORDER CHANGES: 1999, 690 CM^-^1
Sampling: TRANSMISSION
Resolution: 2
Origin: SMITH KLINE & FRENCH LABS.
1/CM	TRANSMITTANCE
268.354	0.717
277.702	0.738
287.049	0.755
296.397	0.764
305.745	0.767
315.092	0.763
324.44	0.8119
333.787	0.835
343.135	0.836
352.483	0.821
361.83	0.825
371.178	0.812
380.526	0.812
389.873	0.842
399.221	0.853
408.568	0.859
417.916	0.8071
427.264	0.793
436.611	0.781
445.959	0.793
455.307	0.746
464.654	0.719
474.002	0.767
483.349	0.763
492.697	0.735
502.045	0.677
511.392	0.712
520.74	0.682
530.088	0.65
539.435	0.658
548.783	0.632
558.131	0.58
567.478	0.593
576.826	0.609
586.173	0.613
595.521	0.642
604.869	0.647
614.216	0.694
623.564	0.712
632.912	0.735
642.259	0.685
651.607	0.6817
660.954	0.821
670.302	0.871
679.65	0.894
688.997	0.897
698.345	0.847
707.693	0.922
717.04	0.932
726.388	0.931
735.736	0.909
745.083	0.844
754.431	0.932
763.778	0.87
773.126	0.829
782.474	0.778
791.821	0.932
801.169	0.922
810.517	0.966
819.864	0.974
829.212	0.952
838.559	0.958
847.907	0.945
857.255	0.825
866.602	0.5189
875.95	0.809
885.298	0.8041
894.645	0.6179
903.993	0.6158
913.34	0.778
922.688	0.717
932.036	0.755
941.383	0.5921
950.731	0.661
960.079	0.832
969.426	0.806
978.774	0.815
988.122	0.763
997.469	0.801
1006.82	0.592
1016.16	0.676
1025.51	0.522
1034.86	0.499
1044.21	0.3931
1053.55	0.468
1062.9	0.551
1072.25	0.697
1081.6	0.63
1090.95	0.5281
1100.29	0.451
1109.64	0.367
1118.99	0.4869
1128.34	0.4481
1137.68	0.6159
1147.03	0.735
1156.38	0.735
1165.73	0.68
1175.07	0.705
1184.42	0.653
1193.77	0.577
1203.12	0.583
1212.46	0.619
1221.81	0.512
1231.16	0.4351
1240.51	0.418
1249.86	0.572
1259.2	0.6191
1268.55	0.4221
1277.9	0.432
1287.25	0.499
1296.59	0.621
1305.94	0.662
1315.29	0.622
1324.64	0.581
1333.98	0.586
1343.33	0.479
1352.68	0.517
1362.03	0.529
1371.37	0.554
1380.72	0.534
1390.07	0.477
1399.42	0.578
1408.76	0.512
1418.11	0.503
1427.46	0.45
1436.81	0.467
1446.16	0.497
1455.5	0.5059
1464.85	0.596
1474.2	0.705
1483.55	0.825
1492.89	0.883
1502.24	0.893
1511.59	0.891
1520.94	0.89
1530.28	0.883
1539.63	0.879
1548.98	0.865
1558.33	0.838
1567.67	0.822
1577.02	0.793
1586.37	0.743
1595.72	0.6391
1605.07	0.3511
1614.41	0.325
1623.76	0.123
1633.11	0.0801
1642.46	0.0759
1651.8	0.195
1661.15	0.299
1670.5	0.491
1679.85	0.6479
1689.19	0.647
1698.54	0.3121
1707.89	0.195
1717.24	0.52
1726.58	0.7079
1735.93	0.842
1745.28	0.891
1754.63	0.914
1763.97	0.923
1773.32	0.935
1782.67	0.935
1792.02	0.938
1801.37	0.943
1810.71	0.945
1820.06	0.946
1829.41	0.948
1838.76	0.949
1848.1	0.949
1857.45	0.949
1866.8	0.949
1876.15	0.949
1885.49	0.949
1894.84	0.949
1904.19	0.949
1913.54	0.949
1922.88	0.948
1932.23	0.945
1941.58	0.945
1950.93	0.943
1960.28	0.94
1969.62	0.94
1978.97	0.94
1988.32	0.941
1997.67	0.943
2007.01	0.943
2016.36	0.941
2025.71	0.94
2035.06	0.938
2044.4	0.937
2053.75	0.935
2063.1	0.934
2072.45	0.9319
2081.79	0.931
2091.14	0.931
2100.49	0.9289
2109.84	0.9259
2119.18	0.923
2128.53	0.923
2137.88	0.923
2147.23	0.923
2156.58	0.923
2165.92	0.923
2175.27	0.922
2184.62	0.922
2193.97	0.922
2203.31	0.9221
2212.66	0.923
2222.01	0.923
2231.36	0.922
2240.7	0.92
2250.05	0.92
2259.4	0.919
2268.75	0.9186
2278.09	0.917
2287.44	0.916
2296.79	0.9118
2306.14	0.9088
2315.49	0.905
2324.83	0.902
2334.18	0.902
2343.53	0.902
2352.88	0.902
2362.22	0.902
2371.57	0.902
2380.92	0.903
2390.27	0.903
2399.61	0.903
2408.96	0.902
2418.31	0.9
2427.66	0.9
2437	0.9
2446.35	0.899
2455.7	0.8967
2465.05	0.894
2474.39	0.891
2483.74	0.8893
2493.09	0.887
2502.44	0.8843
2511.79	0.882
2521.13	0.88
2530.48	0.876
2539.83	0.8722
2549.18	0.8692
2558.52	0.8662
2567.87	0.8632
2577.22	0.861
2586.57	0.858
2595.91	0.854
2605.26	0.8506
2614.61	0.8461
2623.96	0.839
2633.3	0.838
2642.65	0.838
2652	0.838
2661.35	0.8355
2670.69	0.8225
2680.04	0.8145
2689.39	0.805
2698.74	0.8
2708.09	0.7969
2717.43	0.795
2726.78	0.795
2736.13	0.795
2745.48	0.793
2754.82	0.795
2764.17	0.7956
2773.52	0.796
2782.87	0.7924
2792.21	0.7834
2801.56	0.7612
2810.91	0.7394
2820.26	0.681
2829.6	0.6418
2838.95	0.6067
2848.3	0.5511
2857.65	0.4924
2867	0.4548
2876.34	0.4443
2885.69	0.4383
2895.04	0.4036
2904.39	0.3126
2913.73	0.2617
2923.08	0.279
2932.43	0.2682
2941.78	0.2647
2951.12	0.3579
2960.47	0.4068
2969.82	0.3955
2979.17	0.5142
2988.51	0.6491
2997.86	0.6985
3007.21	0.7043
3016.56	0.7261
3025.9	0.7588
3035.25	0.7778
3044.6	0.7826
3053.95	0.784
3063.3	0.783
3072.64	0.78
3081.99	0.777
3091.34	0.7704
3100.69	0.7644
3110.03	0.7555
3119.38	0.745
3128.73	0.7402
3138.08	0.7345
3147.42	0.7264
3156.77	0.7144
3166.12	0.7021
3175.47	0.6836
3184.81	0.6684
3194.16	0.6535
3203.51	0.6354
3212.86	0.6125
3222.21	0.5895
3231.55	0.5635
3240.9	0.5356
3250.25	0.5095
3259.6	0.4824
3268.94	0.4583
3278.29	0.4333
3287.64	0.4062
3296.99	0.3802
3306.33	0.3581
3315.68	0.3371
3325.03	0.3191
3334.38	0.299
3343.72	0.279
3353.07	0.2609
3362.42	0.2208
3371.77	0.1979
3381.11	0.1768
3390.46	0.1549
3399.81	0.1257
3409.16	0.1079
3418.51	0.103
3427.85	0.105
3437.2	0.106
3446.55	0.1081
3455.9	0.1121
3465.24	0.1576
3474.59	0.2043
3483.94	0.2512
3493.29	0.2942
3502.63	0.3362
3511.98	0.3713
3521.33	0.4104
3530.68	0.4516
3540.02	0.4946
3549.37	0.5357
3558.72	0.5756
3568.07	0.6114
3577.42	0.6421
3586.76	0.6648
3596.11	0.6917
3605.46	0.7216
3614.81	0.7493
3624.15	0.7746
3633.5	0.7837
3642.85	0.8009
3652.2	0.812
3661.54	0.8182
3670.89	0.8242
3680.24	0.8275
3689.59	0.83
3698.93	0.83
3708.28	0.8284
3717.63	0.825
3726.98	0.824
3736.32	0.822
3745.67	0.822
3755.02	0.822
3764.37	0.822
3773.72	0.822
3783.06	0.821
3792.41	0.819
3801.76	0.819
3811.11	0.819
3820.45	0.819
3829.8	0.819
3839.15	0.819
3848.5	0.819
3857.84	0.819
3867.19	0.818
3876.54	0.8172
3885.89	0.8156
3895.23	0.816
3904.58	0.818
3913.93	0.819
3923.28	0.819
3932.63	0.819
3941.97	0.819
3951.32	0.819
3960.67	0.818
3970.02	0.818
3979.36	0.816
3988.71	0.815
