Infrared Spectrum: Phthalic acid, di(2-butoxyethyl) ester
Formula: C20 H30 O6
CAS: 117-83-9
State: SOLUTION (10% CCl4 FOR 2.7-7.5, 10% CS2 FOR 7.5-26 MICRON) VS SOLVENT
Class: COBLENTZ III
Instrument: DOW KBr FOREPRISM-GRATING
Instrument parameters: BLAZED AT 3.5, 12.0, 20.0 MICRON AND CHANGED AT 5.0, 7.5, 14.9 MICRON
Sampling: TRANSMISSION
Path length: 0.011 CM, 0.011 CM
Resolution: 2
Origin: DOW CHEMICAL COMPANY
1/CM	TRANSMITTANCE
3794	0.8468
3785	0.8468
3776	0.8468
3767	0.8467
3758	0.8459
3749	0.8452
3740	0.8449
3731	0.8447
3722	0.8451
3713	0.8454
3704	0.846
3695	0.8464
3686	0.8463
3677	0.8461
3668	0.8461
3659	0.8471
3650	0.8491
3641	0.8508
3632	0.8509
3623	0.851
3614	0.8502
3605	0.8492
3596	0.8486
3587	0.8489
3578	0.8513
3569	0.855
3560	0.8555
3551	0.8536
3542	0.8524
3533	0.8516
3524	0.8524
3515	0.8543
3506	0.8566
3497	0.8588
3488	0.8608
3479	0.8621
3470	0.8618
3461	0.8589
3452	0.8548
3443	0.8497
3434	0.8475
3425	0.8475
3416	0.8516
3407	0.8587
3398	0.8635
3389	0.8678
3380	0.8713
3371	0.8746
3362	0.8767
3353	0.8783
3344	0.8793
3335	0.8799
3326	0.88
3317	0.88
3308	0.8801
3299	0.8804
3290	0.8809
3281	0.8811
3272	0.8813
3263	0.8814
3254	0.8812
3245	0.8808
3236	0.8805
3227	0.88
3218	0.8797
3209	0.8795
3200	0.8794
3191	0.8794
3182	0.8796
3173	0.8797
3164	0.8791
3155	0.8783
3146	0.8775
3137	0.8763
3128	0.8749
3119	0.8734
3110	0.8715
3101	0.8687
3092	0.8634
3083	0.846
3074	0.8082
3065	0.7911
3056	0.7976
3047	0.8133
3038	0.8198
3029	0.8168
3020	0.8093
3011	0.7928
3002	0.7555
2993	0.6707
2984	0.5235
2975	0.3278
2966	0.108
2957	0.0961
2948	0.1734
2939	0.1624
2930	0.1517
2921	0.2009
2912	0.2501
2903	0.2993
2894	0.3144
2885	0.2521
2876	0.1051
2867	0.1204
2858	0.1779
2849	0.3222
2840	0.465
2831	0.5918
2822	0.6186
2813	0.5979
2804	0.6358
2795	0.7078
2786	0.7215
2777	0.7476
2768	0.7707
2759	0.7745
2750	0.7737
2741	0.7733
2732	0.7742
2723	0.7782
2714	0.7889
2705	0.7951
2696	0.8065
2687	0.8195
2678	0.8302
2669	0.8373
2660	0.8431
2651	0.846
2642	0.8481
2633	0.8499
2624	0.8503
2615	0.8502
2606	0.8497
2597	0.8488
2588	0.8486
2579	0.8491
2570	0.8512
2561	0.8534
2552	0.8552
2543	0.8563
2534	0.8575
2525	0.8586
2516	0.8597
2507	0.8608
2498	0.8618
2489	0.8631
2480	0.8643
2471	0.8655
2462	0.8665
2453	0.8673
2444	0.8681
2435	0.8682
2426	0.866
2417	0.8635
2408	0.8618
2399	0.8601
2390	0.8596
2381	0.8598
2372	0.8607
2363	0.8613
2354	0.8617
2345	0.862
2336	0.862
2327	0.8615
2318	0.8608
2309	0.86
2300	0.8594
2291	0.8587
2282	0.8582
2273	0.8577
2264	0.8574
2255	0.858
2246	0.8586
2237	0.8594
2228	0.8602
2219	0.8611
2210	0.8621
2201	0.863
2192	0.8634
2183	0.866
2174	0.8717
2165	0.8675
2156	0.8641
2147	0.8621
2138	0.8609
2129	0.86
2120	0.8595
2111	0.8589
2102	0.8587
2093	0.8602
2084	0.8618
2075	0.8628
2066	0.8634
2057	0.8633
2048	0.8632
2039	0.8625
2030	0.8617
2021	0.861
2012	0.861
2003	0.863
1994	0.8617
1985	0.8611
1976	0.8564
1967	0.8421
1958	0.8468
1949	0.848
1940	0.8328
1931	0.8354
1922	0.848
1913	0.8487
1904	0.8509
1895	0.8578
1886	0.8593
1877	0.8587
1868	0.8549
1859	0.8533
1850	0.8516
1841	0.8465
1832	0.8402
1823	0.84
1814	0.8387
1805	0.835
1796	0.8275
1787	0.8098
1778	0.7814
1769	0.7425
1760	0.6494
1751	0.4565
1742	0.1094
1733	0.014
1724	0.0063
1715	0.072
1706	0.5094
1697	0.6058
1688	0.6771
1679	0.7304
1670	0.7705
1661	0.7912
1652	0.8018
1643	0.8083
1634	0.8111
1625	0.8119
1616	0.8119
1607	0.7955
1598	0.6543
1589	0.774
1580	0.6124
1571	0.7794
1562	0.8108
1553	0.8305
1544	0.8377
1535	0.8348
1526	0.8245
1517	0.8174
1508	0.8078
1499	0.7767
1490	0.5845
1481	0.5987
1472	0.5783
1463	0.427
1454	0.4235
1445	0.5404
1436	0.581
1427	0.7168
1418	0.7343
1409	0.728
1400	0.7024
1391	0.4559
1382	0.3825
1373	0.5612
1364	0.4405
1355	0.5488
1346	0.6385
1337	0.5289
1328	0.5268
1319	0.5392
1310	0.4181
1301	0.2073
1292	0.0486
1283	0.0075
1274	0.0034
1265	0.0089
1256	0.033
1247	0.1441
1238	0.2263
1229	0.4666
1220	0.5727
1211	0.6294
1202	0.659
1193	0.6725
1184	0.6734
1175	0.6377
1166	0.5097
1157	0.3428
1148	0.1894
1139	0.0657
1130	0.0337
1121	0.0123
1112	0.013
1103	0.0965
1094	0.2254
1085	0.3171
1076	0.0846
1067	0.0953
1058	0.375
1049	0.4143
1040	0.248
1031	0.4525
1022	0.5143
1013	0.5346
1004	0.5779
995	0.6301
986	0.6337
977	0.4927
968	0.5838
959	0.5921
950	0.6127
941	0.7043
932	0.7411
923	0.7445
914	0.7106
905	0.6484
896	0.66
887	0.6671
878	0.6758
869	0.6337
860	0.6499
851	0.668
842	0.6551
833	0.6775
824	0.7131
815	0.7258
806	0.7326
797	0.6989
788	0.6372
779	0.6396
770	0.6412
761	0.6164
752	0.4803
743	0.1902
734	0.4022
725	0.6661
716	0.714
707	0.5692
698	0.5524
689	0.7044
680	0.7865
671	0.7992
662	0.8227
653	0.749
644	0.7551
635	0.7924
626	0.8078
617	0.8065
608	0.8048
599	0.8036
590	0.8017
581	0.7897
572	0.7643
563	0.7439
554	0.7415
545	0.7439
536	0.7354
527	0.7345
518	0.7394
509	0.7365
500	0.738
491	0.7432
482	0.7484
473	0.7528
464	0.7562
455	0.7601
446	0.764
437	0.7647
428	0.7634
419	0.7633
410	0.765
401	0.7668
