Infrared Spectrum: 2,2'-Dimethoxyethyl phthalate
Formula: C14 H18 O6
CAS: 117-82-8
State: SOLUTION (10% CCl4 FOR 2.7-7.5, 10% CS2 FOR 7.5-26 MICRON) VS SOLVENT
Class: COBLENTZ III
Instrument: DOW KBr FOREPRISM-GRATING
Instrument parameters: BLAZED AT 3.5, 12.0, 20.0 MICRON AND CHANGED AT 5.0, 7.5, 14.9 MICRON
Sampling: TRANSMISSION
Path length: 0.011 CM, 0.011 CM
Resolution: 2
Origin: DOW CHEMICAL COMPANY
1/CM	TRANSMITTANCE
3792	0.8492
3783	0.8496
3774	0.8495
3765	0.8486
3756	0.8478
3747	0.8478
3738	0.8481
3729	0.8485
3720	0.8496
3711	0.8507
3702	0.8518
3693	0.8525
3684	0.8518
3675	0.8452
3666	0.8363
3657	0.8402
3648	0.8452
3639	0.8471
3630	0.8478
3621	0.8482
3612	0.8488
3603	0.8492
3594	0.8496
3585	0.85
3576	0.8512
3567	0.8543
3558	0.854
3549	0.8496
3540	0.846
3531	0.8464
3522	0.8478
3513	0.8495
3504	0.8518
3495	0.8544
3486	0.8561
3477	0.8575
3468	0.8578
3459	0.8571
3450	0.8483
3441	0.8397
3432	0.8339
3423	0.8346
3414	0.8435
3405	0.8543
3396	0.8628
3387	0.8689
3378	0.8742
3369	0.8785
3360	0.8821
3351	0.8843
3342	0.8854
3333	0.8845
3324	0.8828
3315	0.8817
3306	0.8825
3297	0.8837
3288	0.8853
3279	0.8868
3270	0.8875
3261	0.8878
3252	0.888
3243	0.8875
3234	0.8871
3225	0.8863
3216	0.8857
3207	0.885
3198	0.8824
3189	0.8796
3180	0.8767
3171	0.8744
3162	0.8727
3153	0.8718
3144	0.8718
3135	0.8716
3126	0.8704
3117	0.8677
3108	0.8625
3099	0.8561
3090	0.8511
3081	0.8456
3072	0.7995
3063	0.7496
3054	0.7668
3045	0.7971
3036	0.8087
3027	0.7986
3018	0.7839
3009	0.7469
3000	0.6378
2991	0.4048
2982	0.3782
2973	0.4481
2964	0.4401
2955	0.3824
2946	0.3264
2937	0.33
2928	0.2932
2919	0.2829
2910	0.358
2901	0.3659
2892	0.2412
2883	0.2346
2874	0.2424
2865	0.3512
2856	0.422
2847	0.4394
2838	0.4309
2829	0.4664
2820	0.3308
2811	0.4315
2802	0.5435
2793	0.7078
2784	0.7275
2775	0.7571
2766	0.7945
2757	0.8001
2748	0.7961
2739	0.7833
2730	0.7891
2721	0.7896
2712	0.8108
2703	0.8286
2694	0.8402
2685	0.8468
2676	0.849
2667	0.85
2658	0.8507
2649	0.8514
2640	0.852
2631	0.8525
2622	0.8531
2613	0.853
2604	0.8527
2595	0.8496
2586	0.8486
2577	0.8484
2568	0.8489
2559	0.8491
2550	0.8496
2541	0.8503
2532	0.8514
2523	0.8527
2514	0.8544
2505	0.8562
2496	0.8585
2487	0.8607
2478	0.8624
2469	0.8641
2460	0.8657
2451	0.8661
2442	0.8644
2433	0.862
2424	0.8594
2415	0.856
2406	0.8535
2397	0.8523
2388	0.8527
2379	0.8537
2370	0.8554
2361	0.8571
2352	0.8586
2343	0.8603
2334	0.8615
2325	0.8618
2316	0.8588
2307	0.855
2298	0.8527
2289	0.8521
2280	0.8523
2271	0.8533
2262	0.8542
2253	0.855
2244	0.856
2235	0.8578
2226	0.8604
2217	0.8641
2208	0.866
2199	0.865
2190	0.8621
2181	0.8663
2172	0.8665
2163	0.855
2154	0.8504
2145	0.8468
2136	0.8464
2127	0.847
2118	0.848
2109	0.8478
2100	0.8475
2091	0.8471
2082	0.8468
2073	0.8473
2064	0.8504
2055	0.854
2046	0.856
2037	0.857
2028	0.8562
2019	0.8521
2010	0.8467
2001	0.8457
1992	0.8415
1983	0.837
1974	0.8351
1965	0.8212
1956	0.8274
1947	0.8281
1938	0.8033
1929	0.8162
1920	0.8293
1911	0.8343
1902	0.8393
1893	0.8432
1884	0.8466
1875	0.848
1866	0.8442
1857	0.8433
1848	0.8431
1839	0.8234
1830	0.8197
1821	0.8224
1812	0.8216
1803	0.8153
1794	0.8006
1785	0.7795
1776	0.7458
1767	0.6433
1758	0.4966
1749	0.2968
1740	0.0622
1731	0.0056
1722	0.0041
1713	0.0265
1704	0.3065
1695	0.5347
1686	0.5914
1677	0.6646
1668	0.7307
1659	0.7599
1650	0.7771
1641	0.7835
1632	0.7854
1623	0.7849
1614	0.7832
1605	0.7686
1596	0.6062
1587	0.7319
1578	0.5297
1569	0.7503
1560	0.786
1551	0.8072
1542	0.8175
1533	0.8114
1524	0.8047
1515	0.7968
1506	0.7824
1497	0.7556
1488	0.5372
1479	0.636
1470	0.4808
1461	0.3937
1452	0.2643
1443	0.4462
1434	0.5783
1425	0.7189
1416	0.7174
1407	0.4988
1398	0.5751
1389	0.6252
1380	0.6501
1371	0.2845
1362	0.4802
1353	0.6582
1344	0.5305
1335	0.4517
1326	0.5932
1317	0.5424
1308	0.37
1299	0.1979
1290	0.0256
1281	0.0038
1272	0.0028
1263	0.0052
1254	0.0225
1245	0.0876
1236	0.3025
1227	0.4979
1218	0.5673
1209	0.5679
1200	0.2318
1191	0.4541
1182	0.5965
1173	0.608
1164	0.4462
1155	0.3544
1146	0.1837
1137	0.0489
1128	0.0189
1119	0.0042
1110	0.0228
1101	0.1576
1092	0.1567
1083	0.2397
1074	0.0967
1065	0.0396
1056	0.4247
1047	0.4504
1038	0.1727
1029	0.3212
1020	0.4198
1011	0.6108
1002	0.7024
993	0.713
984	0.6047
975	0.6312
966	0.7372
957	0.6295
948	0.6476
939	0.7599
930	0.7686
921	0.7924
912	0.8143
903	0.8072
894	0.7401
885	0.6812
876	0.5988
867	0.4375
858	0.4933
849	0.6097
840	0.6569
831	0.6971
822	0.7421
813	0.7744
804	0.7757
795	0.6801
786	0.6385
777	0.6465
768	0.6443
759	0.5941
750	0.4299
741	0.1538
732	0.3598
723	0.6935
714	0.7369
705	0.5448
696	0.5973
687	0.7286
678	0.8362
669	0.8515
660	0.8557
651	0.7678
642	0.7554
633	0.8135
624	0.8334
615	0.8311
606	0.828
597	0.8289
588	0.8289
579	0.8115
570	0.7488
561	0.7408
552	0.756
543	0.7501
534	0.7183
525	0.6918
516	0.7205
507	0.7375
498	0.7476
489	0.7558
480	0.7636
471	0.77
462	0.7761
453	0.7815
444	0.7837
435	0.7821
426	0.7798
417	0.7787
408	0.7801
399	0.7825
