Infrared Spectrum: PHTHALIC ACID, DI-2-ETHYLHEXYL ESTER
Formula: C24 H38 O4
CAS: 117-81-7
State: LIQUID
Class: COBLENTZ
Instrument: PERKIN-ELMER
Sampling: TRANSMISSION
Path length: 0.002 CM
Resolution: 4
Origin: STANDARD OIL OF OHIO
MICROMETERS	TRANSMITTANCE
2.034	0.952
2.06759	0.952
2.10118	0.954
2.13477	0.954
2.16836	0.954
2.20195	0.954
2.23555	0.952
2.26914	0.942
2.30273	0.92
2.33632	0.912
2.36991	0.912
2.4035	0.913
2.43709	0.917
2.47068	0.92
2.50427	0.927
2.53786	0.932
2.57145	0.935
2.60504	0.937
2.63864	0.939
2.67223	0.944
2.70582	0.945
2.73941	0.945
2.773	0.945
2.80659	0.945
2.84018	0.942
2.87377	0.937
2.90736	0.927
2.94095	0.929
2.97454	0.937
3.00813	0.942
3.04173	0.94
3.07532	0.94
3.10891	0.934
3.1425	0.927
3.17609	0.92
3.20968	0.908
3.24327	0.866
3.27686	0.841
3.31045	0.795
3.34404	0.44
3.37763	0.074
3.41122	0.037
3.44482	0.054
3.47841	0.113
3.512	0.261
3.54559	0.648
3.57918	0.804
3.61277	0.853
3.64636	0.866
3.67995	0.873
3.71354	0.885
3.74713	0.895
3.78072	0.902
3.81431	0.907
3.84791	0.908
3.8815	0.91
3.91509	0.917
3.94868	0.927
3.98227	0.934
4.01586	0.935
4.04945	0.935
4.08304	0.939
4.11663	0.94
4.15022	0.939
4.18381	0.937
4.2174	0.93
4.251	0.922
4.28459	0.922
4.31818	0.93
4.35177	0.934
4.38536	0.942
4.41895	0.944
4.45254	0.942
4.48613	0.944
4.51972	0.942
4.55331	0.942
4.5869	0.944
4.62049	0.942
4.65409	0.944
4.68768	0.942
4.72127	0.942
4.75486	0.942
4.78845	0.942
4.82204	0.942
4.85563	0.942
4.88922	0.942
4.92281	0.942
4.9564	0.942
4.98999	0.94
5.02358	0.939
5.05718	0.937
5.09077	0.934
5.12436	0.929
5.15795	0.929
5.19154	0.929
5.22513	0.932
5.25872	0.934
5.29231	0.934
5.3259	0.929
5.35949	0.923
5.39308	0.917
5.42667	0.912
5.46027	0.91
5.49386	0.907
5.52745	0.9
5.56104	0.878
5.59463	0.837
5.62822	0.78
5.66181	0.64
5.6954	0.359
5.72899	0.099
5.76258	0.013
5.79617	0.038
5.82976	0.265
5.86336	0.496
5.89695	0.657
5.93054	0.755
5.96413	0.82
5.99772	0.856
6.03131	0.863
6.0649	0.875
6.09849	0.878
6.13208	0.88
6.16567	0.876
6.19926	0.805
6.23286	0.712
6.26645	0.804
6.30004	0.701
6.33363	0.743
6.36722	0.861
6.40081	0.873
6.4344	0.89
6.46799	0.89
6.50158	0.89
6.53517	0.89
6.56876	0.886
6.60235	0.878
6.63595	0.856
6.66954	0.783
6.70313	0.702
6.73672	0.66
6.77031	0.451
6.8039	0.199
6.83749	0.179
6.87108	0.288
6.90467	0.447
6.93826	0.582
6.97185	0.728
7.00544	0.792
7.03904	0.802
7.07263	0.809
7.10622	0.8
7.13981	0.734
7.1734	0.596
7.20699	0.417
7.24058	0.371
7.27417	0.505
7.30776	0.638
7.34135	0.66
7.37494	0.677
7.40853	0.682
7.44213	0.652
7.47572	0.638
7.50931	0.63
7.5429	0.574
7.57649	0.469
7.61008	0.363
7.64367	0.258
7.67726	0.158
7.71085	0.062
7.74444	0.013
7.77803	0.008
7.81162	0.01
7.84522	0.01
7.87881	0.008
7.9124	0.011
7.94599	0.027
7.97958	0.062
8.01317	0.168
8.04676	0.277
8.08035	0.403
8.11394	0.501
8.14753	0.596
8.18112	0.655
8.21471	0.699
8.24831	0.719
8.2819	0.734
8.31549	0.743
8.34908	0.75
8.38267	0.756
8.41626	0.761
8.44985	0.766
8.48344	0.761
8.51703	0.729
8.55062	0.672
8.58421	0.592
8.6178	0.564
8.6514	0.516
8.68499	0.456
8.71858	0.363
8.75217	0.275
8.78576	0.152
8.81935	0.123
8.85294	0.101
8.88653	0.077
8.92012	0.074
8.95371	0.119
8.9873	0.206
9.02089	0.435
9.05449	0.564
9.08808	0.635
9.12167	0.665
9.15526	0.66
9.18885	0.581
9.22244	0.439
9.25603	0.314
9.28962	0.173
9.32321	0.114
9.3568	0.148
9.39039	0.3
9.42398	0.501
9.45758	0.636
9.49117	0.684
9.52476	0.699
9.55835	0.603
9.59194	0.513
9.62553	0.542
9.65912	0.648
9.69271	0.736
9.7263	0.758
9.75989	0.782
9.79348	0.792
9.82707	0.798
9.86067	0.8
9.89426	0.798
9.92785	0.792
9.96144	0.768
9.99503	0.729
10.0286	0.709
10.0622	0.706
10.0958	0.707
10.1294	0.709
10.163	0.709
10.1966	0.707
10.2302	0.704
10.2638	0.702
10.2973	0.699
10.3309	0.689
10.3645	0.66
10.3981	0.635
10.4317	0.63
10.4653	0.63
10.4989	0.636
10.5325	0.648
10.5661	0.662
10.5997	0.687
10.6333	0.706
10.6668	0.724
10.7004	0.741
10.734	0.755
10.7676	0.765
10.8012	0.766
10.8348	0.771
10.8684	0.782
10.902	0.8
10.9356	0.81
10.9692	0.809
11.0028	0.805
11.0363	0.804
11.0699	0.809
11.1035	0.815
11.1371	0.824
11.1707	0.832
11.2043	0.837
11.2379	0.841
11.2715	0.849
11.3051	0.851
11.3387	0.854
11.3723	0.856
11.4058	0.858
11.4394	0.858
11.473	0.859
11.5066	0.861
11.5402	0.861
11.5738	0.859
11.6074	0.859
11.641	0.859
11.6746	0.859
11.7082	0.859
11.7418	0.861
11.7753	0.861
11.8089	0.864
11.8425	0.866
11.8761	0.866
11.9097	0.868
11.9433	0.868
11.9769	0.869
12.0105	0.868
12.0441	0.868
12.0777	0.868
12.1113	0.868
12.1448	0.868
12.1784	0.866
12.212	0.864
12.2456	0.864
12.2792	0.861
12.3128	0.861
12.3464	0.859
12.38	0.859
12.4136	0.858
12.4472	0.856
12.4808	0.851
12.5143	0.847
12.5479	0.837
12.5815	0.826
12.6151	0.802
12.6487	0.771
12.6823	0.741
12.7159	0.702
12.7495	0.677
12.7831	0.667
12.8167	0.657
12.8503	0.648
12.8838	0.638
12.9174	0.631
12.951	0.626
12.9846	0.625
13.0182	0.619
13.0518	0.619
13.0854	0.623
13.119	0.63
13.1526	0.635
13.1862	0.635
13.2197	0.625
13.2533	0.603
13.2869	0.562
13.3205	0.501
13.3541	0.445
13.3877	0.385
13.4213	0.351
13.4549	0.324
13.4885	0.317
13.5221	0.329
13.5557	0.4
13.5892	0.456
13.6228	0.501
13.6564	0.535
13.69	0.564
13.7236	0.586
13.7572	0.606
13.7908	0.628
13.8244	0.65
13.858	0.679
13.8916	0.699
13.9252	0.707
13.9587	0.719
13.9923	0.726
14.0259	0.722
14.0595	0.712
14.0931	0.673
14.1267	0.625
14.1603	0.591
14.1939	0.579
14.2275	0.577
14.2611	0.603
14.2947	0.638
14.3282	0.66
14.3618	0.679
14.3954	0.685
14.429	0.69
14.4626	0.699
14.4962	0.711
14.5298	0.731
14.5634	0.755
14.597	0.773
14.6306	0.788
14.6642	0.802
14.6977	0.812
14.7313	0.815
14.7649	0.817
14.7985	0.815
14.8321	0.817
14.8657	0.819
14.8993	0.819
14.9329	0.819
14.9665	0.815
15.0001	0.817
15.0337	0.817
15.0672	0.815
15.1008	0.815
15.1344	0.81
15.168	0.802
15.2016	0.788
15.2352	0.773
15.2688	0.753
15.3024	0.726
15.336	0.702
15.3696	0.694
