Infrared Spectrum: ACETOPHENONE, o-HYDROXY-
Formula: C8 H8 O2
CAS: 118-93-4
State: SOLUTION (10% IN CCl4 FOR 4000-1350 CM^-^1, 10% IN CS2 FOR 1350-600 CM^-^1)
Class: COBLENTZ III
Instrument: BECKMAN IR-7 (GRATING)
Instrument parameters: GRATING CHANGES AT 3000, 2200, 1150 CM^-^1
Sampling: TRANSMISSION
Path length: 0.01 CM, 0.01 CM
Resolution: 4
Origin: WESTERN REGIONAL RES. USDA
1/CM	TRANSMITTANCE
603.913	0.741
612.795	0.601
621.677	0.286
630.559	0.4439
639.441	0.692
648.323	0.774
657.205	0.764
666.087	0.807
674.969	0.813
683.851	0.8
692.733	0.763
701.615	0.775
710.497	0.63
719.379	0.643
728.261	0.539
737.143	0.072
746.025	0.445
754.907	0.002
763.789	0.2969
772.671	0.4081
781.553	0.253
790.435	0.178
799.317	0.243
808.199	0.421
817.081	0.566
825.963	0.659
834.845	0.4602
843.727	0.4559
852.609	0.622
861.491	0.5859
870.373	0.712
879.255	0.758
888.137	0.804
897.019	0.846
905.901	0.858
914.783	0.867
923.665	0.865
932.547	0.845
941.429	0.6841
950.311	0.722
959.193	0.155
968.075	0.558
976.957	0.755
985.839	0.813
994.721	0.835
1003.6	0.83
1012.49	0.809
1021.37	0.6021
1030.25	0.649
1039.13	0.6679
1048.01	0.82
1056.9	0.862
1065.78	0.828
1074.66	0.804
1083.54	0.863
1092.42	0.87
1101.31	0.862
1110.19	0.85
1119.07	0.824
1127.95	0.7411
1136.83	0.8
1145.72	0.701
1154.6	0.191
1163.48	0.402
1172.36	0.48
1181.24	0.666
1190.13	0.677
1199.01	0.627
1207.89	0.3801
1216.77	0.007
1225.65	0.1781
1234.54	0.372
1243.42	0.004
1252.3	0.29
1261.18	0.44
1270.06	0.422
1278.95	0.428
1287.83	0.543
1296.71	0.082
1305.59	0.033
1314.47	0.357
1323.36	0.205
1332.24	0.432
1341.12	0.301
1350	0.144
1358.88	0.097
1367.77	0.038
1376.65	0.19
1385.53	0.387
1394.41	0.486
1403.29	0.539
1412.18	0.547
1421.06	0.396
1429.94	0.424
1438.82	0.315
1447.7	0.023
1456.59	0.269
1465.47	0.43
1474.35	0.319
1483.23	0.09
1492.11	0.1491
1501	0.198
1509.88	0.34
1518.76	0.386
1527.64	0.381
1536.52	0.352
1545.41	0.306
1554.29	0.299
1563.17	0.328
1572.05	0.245
1580.93	0.091
1589.82	0.1991
1598.7	0.278
1607.58	0.205
1616.46	0.078
1625.34	0.138
1634.23	0.053
1643.11	0.006
1651.99	0.014
1660.87	0.181
1669.75	0.3421
1678.64	0.471
1687.52	0.597
1696.4	0.628
1705.28	0.665
1714.16	0.68
1723.05	0.695
1731.93	0.718
1740.81	0.728
1749.69	0.738
1758.57	0.746
1767.46	0.755
1776.34	0.746
1785.22	0.74
1794.1	0.711
1802.98	0.69
1811.87	0.732
1820.75	0.751
1829.63	0.745
1838.51	0.737
1847.39	0.747
1856.28	0.746
1865.16	0.731
1874.04	0.742
1882.92	0.721
1891.8	0.752
1900.69	0.757
1909.57	0.746
1918.45	0.706
1927.33	0.742
1936.21	0.751
1945.1	0.729
1953.98	0.688
1962.86	0.737
1971.74	0.745
1980.62	0.751
1989.51	0.753
1998.39	0.75
2007.27	0.746
2016.15	0.746
2025.03	0.7468
2033.92	0.7506
2042.8	0.7523
2051.68	0.755
2060.56	0.7521
2069.44	0.751
2078.33	0.753
2087.21	0.7597
2096.09	0.765
2104.97	0.767
2113.85	0.768
2122.74	0.7665
2131.62	0.7588
2140.5	0.7524
2149.38	0.7573
2158.26	0.7674
2167.15	0.7701
2176.03	0.7719
2184.91	0.7713
2193.79	0.7657
2202.67	0.7592
2211.56	0.7649
2220.44	0.7695
2229.32	0.7725
2238.2	0.775
2247.08	0.775
2255.97	0.7723
2264.85	0.7688
2273.73	0.7616
2282.61	0.7475
2291.49	0.7341
2300.38	0.734
2309.26	0.736
2318.14	0.7392
2327.02	0.742
2335.9	0.7448
2344.79	0.748
2353.67	0.7513
2362.55	0.755
2371.43	0.755
2380.31	0.7556
2389.2	0.757
2398.08	0.757
2406.96	0.7561
2415.84	0.755
2424.72	0.7535
2433.61	0.7508
2442.49	0.747
2451.37	0.7445
2460.25	0.7445
2469.13	0.746
2478.02	0.7461
2486.9	0.7478
2495.78	0.749
2504.66	0.749
2513.54	0.7478
2522.43	0.746
2531.31	0.7426
2540.19	0.7327
2549.07	0.7128
2557.95	0.716
2566.84	0.721
2575.72	0.721
2584.6	0.7177
2593.48	0.7148
2602.36	0.7121
2611.25	0.7061
2620.13	0.6998
2629.01	0.6928
2637.89	0.6891
2646.77	0.6907
2655.66	0.694
2664.54	0.6975
2673.42	0.701
2682.3	0.701
2691.18	0.6989
2700.07	0.6907
2708.95	0.6796
2717.83	0.6731
2726.71	0.6704
2735.59	0.6686
2744.48	0.6636
2753.36	0.6542
2762.24	0.6424
2771.12	0.633
2780	0.6287
2788.89	0.626
2797.77	0.6386
2806.65	0.643
2815.53	0.645
2824.41	0.6385
2833.3	0.6292
2842.18	0.62
2851.06	0.6142
2859.94	0.6088
2868.82	0.6031
2877.71	0.5941
2886.59	0.5795
2895.47	0.5587
2904.35	0.5529
2913.23	0.5466
2922.12	0.5409
2931	0.526
2939.88	0.5259
2948.76	0.5222
2957.64	0.5154
2966.53	0.4998
2975.41	0.4854
2984.29	0.4587
2993.17	0.4607
3002.05	0.464
3010.94	0.4372
3019.82	0.4238
3028.7	0.4258
3037.58	0.4338
3046.47	0.4074
3055.35	0.377
3064.23	0.3904
3073.11	0.4097
3081.99	0.4319
3090.88	0.456
3099.76	0.4799
3108.64	0.5002
3117.52	0.5166
3126.4	0.5289
3135.29	0.5351
3144.17	0.5352
3153.05	0.5304
3161.93	0.5277
3170.81	0.5376
3179.7	0.5495
3188.58	0.5624
3197.46	0.5753
3206.34	0.5879
3215.22	0.5979
3224.11	0.6038
3232.99	0.6045
3241.87	0.6004
3250.75	0.5959
3259.63	0.593
3268.52	0.604
3277.4	0.6165
3286.28	0.6273
3295.16	0.6408
3304.04	0.6501
3312.93	0.6584
3321.81	0.6667
3330.69	0.674
3339.57	0.6815
3348.45	0.6881
3357.34	0.6949
3366.22	0.7012
3375.1	0.7038
3383.98	0.7073
3392.86	0.7124
3401.75	0.7172
3410.63	0.718
3419.51	0.7207
3428.39	0.7235
3437.27	0.7262
3446.16	0.73
3455.04	0.73
3463.92	0.7331
3472.8	0.7353
3481.68	0.7381
3490.57	0.7409
3499.45	0.7426
3508.33	0.7454
3517.21	0.7462
3526.09	0.7489
3534.98	0.7507
3543.86	0.752
3552.74	0.7543
3561.62	0.755
3570.5	0.7568
3579.39	0.7586
3588.27	0.759
3597.15	0.759
3606.03	0.7599
3614.91	0.76
3623.8	0.7604
3632.68	0.7644
3641.56	0.767
3650.44	0.767
3659.32	0.767
3668.21	0.767
3677.09	0.767
3685.97	0.7644
3694.85	0.7614
3703.73	0.761
3712.62	0.7641
3721.5	0.7669
3730.38	0.7677
3739.26	0.7684
3748.14	0.7702
3757.03	0.771
3765.91	0.77
3774.79	0.769
3783.67	0.7687
3792.55	0.768
3801.44	0.767
3810.32	0.7686
3819.2	0.77
3828.08	0.77
3836.96	0.7681
3845.85	0.767
3854.73	0.767
3863.61	0.765
3872.49	0.764
3881.37	0.7633
3890.26	0.7615
3899.14	0.7597
3908.02	0.759
3916.9	0.759
3925.78	0.759
3934.67	0.759
3943.55	0.759
3952.43	0.759
3961.31	0.759
3970.19	0.758
3979.08	0.758
3987.96	0.758
