Infrared Spectrum: SALICYLIC ACID, ETHYL ESTER
Formula: C9 H10 O3
CAS: 118-61-6
State: SOLUTION (10% CCl4 FOR 3800-1340, 10% CS2 FOR 1340-450 CM^-^1)
Class: COBLENTZ III
Instrument: DOW KBr FOREPRISM-GRATING
Instrument parameters: BLAZED AT 3.5, 12.0, 20.0 MICRON AND CHANGED AT 5.0, 7.5, 14.9 MICRON
Sampling: TRANSMISSION
Path length: 0.011 CM, 0.010 CM
Resolution: 2
Origin: DOW CHEMICAL COMPANY
1/CM	TRANSMITTANCE
451	0.8323
460	0.8627
469	0.88
478	0.8914
487	0.8942
496	0.8875
505	0.837
514	0.7174
523	0.6885
532	0.2484
541	0.848
550	0.8899
559	0.8691
568	0.6907
577	0.8964
586	0.8903
595	0.8816
604	0.8701
613	0.8505
622	0.8628
631	0.8691
640	0.8516
649	0.8008
658	0.7457
667	0.3103
676	0.6507
685	0.6282
694	0.5281
703	0.0166
712	0.1684
721	0.1273
730	0.2015
739	0.3905
748	0.4607
757	0.0067
766	0.24
775	0.6661
784	0.7592
793	0.748
802	0.3466
811	0.7242
820	0.4793
829	0.7421
838	0.7855
847	0.7325
856	0.5433
865	0.3257
874	0.7054
883	0.6855
892	0.7669
901	0.8586
910	0.8743
919	0.8787
928	0.8765
937	0.8701
946	0.8377
955	0.7689
964	0.8434
973	0.828
982	0.8207
991	0.7947
1000	0.7071
1009	0.5178
1018	0.3766
1027	0.5062
1036	0.3677
1045	0.8025
1054	0.806
1063	0.7924
1072	0.7586
1081	0.5345
1090	0.017
1099	0.1058
1108	0.5679
1117	0.5862
1126	0.5462
1135	0.0771
1144	0.4018
1153	0.1914
1162	0.076
1171	0.286
1180	0.1422
1189	0.1459
1198	0.1761
1207	0.0155
1216	0.0056
1225	0.114
1234	0.1354
1243	0.1799
1252	0.0086
1261	0.1366
1270	0.2817
1279	0.4104
1288	0.1491
1297	0.0517
1306	0.0039
1315	0.2123
1324	0.0527
1333	0.1175
1342	0.2917
1351	0.3949
1360	0.4643
1369	0.3242
1378	0.0315
1387	0.3312
1396	0.1817
1405	0.1808
1414	0.1987
1423	0.252
1432	0.3273
1441	0.3766
1450	0.393
1459	0.3472
1468	0.1132
1477	0.0667
1486	0.0237
1495	0.2544
1504	0.4376
1513	0.3748
1522	0.4971
1531	0.4959
1540	0.4104
1549	0.3927
1558	0.4179
1567	0.4457
1576	0.4279
1585	0.1132
1594	0.3318
1603	0.3336
1612	0.0698
1621	0.1151
1630	0.5514
1639	0.5553
1648	0.4533
1657	0.2717
1666	0.0688
1675	0.0102
1684	0.0102
1693	0.0915
1702	0.2561
1711	0.5319
1720	0.6247
1729	0.6444
1738	0.6782
1747	0.7268
1756	0.7533
1765	0.7819
1774	0.7998
1783	0.8137
1792	0.8231
1801	0.8218
1810	0.7996
1819	0.785
1828	0.8273
1837	0.8167
1846	0.8212
1855	0.8324
1864	0.8328
1873	0.8404
1882	0.8412
1891	0.8375
1900	0.8253
1909	0.829
1918	0.8339
1927	0.7933
1936	0.8228
1945	0.8193
1954	0.7911
1963	0.8455
1972	0.8412
1981	0.8454
1990	0.8402
1999	0.8392
2008	0.8646
2017	0.8671
2026	0.8693
2035	0.8712
2044	0.8724
2053	0.8718
2062	0.8668
2071	0.8643
2080	0.8694
2089	0.8705
2098	0.869
2107	0.8671
2116	0.8663
2125	0.868
2134	0.8659
2143	0.863
2152	0.8617
2161	0.8628
2170	0.8644
2179	0.8661
2188	0.8678
2197	0.8696
2206	0.8712
2215	0.8695
2224	0.8656
2233	0.8625
2242	0.8603
2251	0.8585
2260	0.8562
2269	0.8508
2278	0.8454
2287	0.8418
2296	0.841
2305	0.8438
2314	0.8457
2323	0.8467
2332	0.8475
2341	0.8478
2350	0.8475
2359	0.8473
2368	0.8474
2377	0.8483
2386	0.8468
2395	0.846
2404	0.8473
2413	0.8509
2422	0.8552
2431	0.8544
2440	0.8528
2449	0.8531
2458	0.8498
2467	0.8488
2476	0.8501
2485	0.8511
2494	0.8518
2503	0.8539
2512	0.8568
2521	0.8574
2530	0.8537
2539	0.8437
2548	0.8403
2557	0.8473
2566	0.8536
2575	0.8542
2584	0.8538
2593	0.8498
2602	0.8445
2611	0.8383
2620	0.8328
2629	0.8309
2638	0.8325
2647	0.8347
2656	0.8375
2665	0.8417
2674	0.8428
2683	0.8354
2692	0.8294
2701	0.8307
2710	0.8303
2719	0.8284
2728	0.8255
2737	0.8217
2746	0.8165
2755	0.8086
2764	0.8034
2773	0.8028
2782	0.803
2791	0.8038
2800	0.8036
2809	0.8022
2818	0.7993
2827	0.7961
2836	0.7934
2845	0.7908
2854	0.7862
2863	0.7718
2872	0.7289
2881	0.7154
2890	0.7222
2899	0.6897
2908	0.6342
2917	0.6615
2926	0.6884
2935	0.6171
2944	0.5765
2953	0.6501
2962	0.6185
2971	0.5158
2980	0.4118
2989	0.2865
2998	0.3577
3007	0.4988
3016	0.5712
3025	0.6223
3034	0.6353
3043	0.6342
3052	0.612
3061	0.5646
3070	0.5404
3079	0.5467
3088	0.5466
3097	0.5408
3106	0.5437
3115	0.5358
3124	0.4838
3133	0.4452
3142	0.4103
3151	0.374
3160	0.3297
3169	0.3243
3178	0.3075
3187	0.2851
3196	0.2884
3205	0.2933
3214	0.3056
3223	0.3339
3232	0.3589
3241	0.4282
3250	0.4775
3259	0.5512
3268	0.5784
3277	0.6056
3286	0.6281
3295	0.6464
3304	0.6641
3313	0.6787
3322	0.6933
3331	0.7061
3340	0.7115
3349	0.7164
3358	0.7239
3367	0.7351
3376	0.7575
3385	0.7739
3394	0.7878
3403	0.7911
3412	0.7906
3421	0.7884
3430	0.7862
3439	0.7872
3448	0.7984
3457	0.8098
3466	0.8204
3475	0.832
3484	0.8402
3493	0.8465
3502	0.8515
3511	0.8553
3520	0.8593
3529	0.8628
3538	0.8673
3547	0.8714
3556	0.8753
3565	0.8809
3574	0.8849
3583	0.8794
3592	0.8771
3601	0.8783
3610	0.8798
3619	0.8813
3628	0.883
3637	0.8848
3646	0.8862
3655	0.8874
3664	0.8887
3673	0.8894
3682	0.8894
3691	0.8895
3700	0.8897
3709	0.8898
3718	0.89
3727	0.8902
3736	0.8904
3745	0.8907
3754	0.8912
3763	0.8916
3772	0.8921
3781	0.8918
3790	0.8889
