Infrared Spectrum: 4,4'-METHYLENE BIS(2,6-DI-TERT-BUTYL PHENOL)
Formula: C29 H44 O2
CAS: 118-82-1
State: SOLID (1.13% IN KBr DISC)
Class: COBLENTZ
Instrument: PERKIN-ELMER (GRATING)
Sampling: TRANSMISSION
Path length: 0.040 CM
Resolution: 4
Origin: US INDUSTRIAL CHEMICALS COMPANY, CINCINNATI, OHIO
1/CM	TRANSMITTANCE
603.766	0.71
613.052	0.685
622.337	0.67
631.623	0.725
640.909	0.739
650.195	0.746
659.48	0.746
668.766	0.692
678.052	0.7149
687.338	0.763
696.623	0.768
705.909	0.768
715.195	0.774
724.481	0.768
733.766	0.768
743.052	0.769
752.338	0.742
761.624	0.754
770.909	0.445
780.195	0.764
789.481	0.719
798.766	0.583
808.052	0.747
817.338	0.774
826.624	0.773
835.909	0.756
845.195	0.671
854.481	0.5848
863.767	0.758
873.052	0.751
882.338	0.619
891.624	0.648
900.91	0.754
910.195	0.754
919.481	0.736
928.767	0.683
938.053	0.685
947.338	0.433
956.624	0.736
965.91	0.736
975.195	0.781
984.481	0.783
993.767	0.778
1003.05	0.769
1012.34	0.742
1021.62	0.664
1030.91	0.71
1040.2	0.761
1049.48	0.763
1058.77	0.768
1068.05	0.769
1077.34	0.768
1086.62	0.754
1095.91	0.741
1105.2	0.705
1114.48	0.605
1123.77	0.4389
1133.05	0.615
1142.34	0.5141
1151.62	0.1432
1160.91	0.153
1170.2	0.446
1179.48	0.504
1188.77	0.467
1198.05	0.458
1207.34	0.458
1216.62	0.475
1225.91	0.2621
1235.2	0.106
1244.48	0.318
1253.77	0.402
1263.05	0.629
1272.34	0.609
1281.62	0.641
1290.91	0.619
1300.2	0.4971
1309.48	0.37
1318.77	0.4669
1328.05	0.681
1337.34	0.729
1346.62	0.712
1355.91	0.485
1365.2	0.446
1374.48	0.538
1383.77	0.624
1393.05	0.527
1402.34	0.592
1411.63	0.609
1420.91	0.3721
1430.2	0.071
1439.48	0.121
1448.77	0.346
1458.05	0.421
1467.34	0.441
1476.63	0.48
1485.91	0.549
1495.2	0.746
1504.48	0.783
1513.77	0.793
1523.05	0.795
1532.34	0.796
1541.63	0.791
1550.91	0.79
1560.2	0.788
1569.48	0.783
1578.77	0.778
1588.05	0.771
1597.34	0.766
1606.63	0.791
1615.91	0.803
1625.2	0.807
1634.48	0.81
1643.77	0.812
1653.05	0.81
1662.34	0.81
1671.63	0.81
1680.91	0.81
1690.2	0.81
1699.48	0.81
1708.77	0.81
1718.05	0.808
1727.34	0.808
1736.63	0.81
1745.91	0.812
1755.2	0.813
1764.48	0.817
1773.77	0.822
1783.05	0.824
1792.34	0.83
1801.63	0.837
1810.91	0.84
1820.2	0.842
1829.48	0.842
1838.77	0.842
1848.05	0.844
1857.34	0.844
1866.63	0.844
1875.91	0.846
1885.2	0.846
1894.48	0.846
1903.77	0.844
1913.05	0.844
1922.34	0.844
1931.63	0.844
1940.91	0.844
1950.2	0.844
1959.48	0.846
1968.77	0.846
1978.06	0.844
1987.34	0.84
1996.63	0.835
2005.91	0.83
2015.2	0.83
2024.48	0.83
2033.77	0.83
2043.06	0.83
2052.34	0.83
2061.63	0.83
2070.91	0.83
2080.2	0.83
2089.48	0.83
2098.77	0.83
2108.06	0.83
2117.34	0.83
2126.63	0.83
2135.91	0.8306
2145.2	0.832
2154.48	0.832
2163.77	0.834
2173.06	0.834
2182.34	0.834
2191.63	0.834
2200.91	0.834
2210.2	0.834
2219.48	0.8339
2228.77	0.832
2238.06	0.83
2247.34	0.829
2256.63	0.827
2265.91	0.825
2275.2	0.825
2284.48	0.825
2293.77	0.824
2303.06	0.824
2312.34	0.824
2321.63	0.824
2330.91	0.8238
2340.2	0.822
2349.48	0.822
2358.77	0.822
2368.06	0.822
2377.34	0.824
2386.63	0.824
2395.91	0.824
2405.2	0.824
2414.48	0.824
2423.77	0.824
2433.06	0.824
2442.34	0.824
2451.63	0.824
2460.91	0.824
2470.2	0.825
2479.48	0.827
2488.77	0.8288
2498.06	0.829
2507.34	0.829
2516.63	0.829
2525.91	0.829
2535.2	0.8277
2544.48	0.8257
2553.77	0.82
2563.06	0.8219
2572.34	0.825
2581.63	0.825
2590.91	0.8266
2600.2	0.825
2609.49	0.825
2618.77	0.8245
2628.06	0.822
2637.34	0.82
2646.63	0.818
2655.91	0.818
2665.2	0.818
2674.49	0.818
2683.77	0.8173
2693.06	0.8116
2702.34	0.808
2711.63	0.808
2720.91	0.808
2730.2	0.808
2739.49	0.808
2748.77	0.807
2758.06	0.8055
2767.34	0.8025
2776.63	0.8
2785.91	0.7959
2795.2	0.7842
2804.49	0.7649
2813.77	0.7418
2823.06	0.7067
2832.34	0.6939
2841.63	0.6846
2850.91	0.5656
2860.2	0.3616
2869.49	0.2776
2878.77	0.2846
2888.06	0.2847
2897.34	0.2569
2906.63	0.2346
2915.91	0.2595
2925.2	0.2589
2934.49	0.1895
2943.77	0.0455
2953.06	0.0412
2962.34	0.1024
2971.63	0.2471
2980.91	0.5131
2990.2	0.5232
2999.49	0.4673
3008.77	0.5877
3018.06	0.7177
3027.34	0.7558
3036.63	0.768
3045.91	0.7654
3055.2	0.7546
3064.49	0.7448
3073.77	0.7484
3083.06	0.7675
3092.34	0.8058
3101.63	0.8162
3110.91	0.817
3120.2	0.817
3129.49	0.817
3138.77	0.817
3148.06	0.817
3157.34	0.815
3166.63	0.815
3175.92	0.813
3185.2	0.812
3194.49	0.8097
3203.77	0.808
3213.06	0.808
3222.34	0.808
3231.63	0.808
3240.92	0.808
3250.2	0.8073
3259.49	0.807
3268.77	0.807
3278.06	0.8051
3287.34	0.8023
3296.63	0.8
3305.92	0.798
3315.2	0.796
3324.49	0.7936
3333.77	0.7855
3343.06	0.7826
3352.34	0.78
3361.63	0.778
3370.92	0.776
3380.2	0.774
3389.49	0.773
3398.77	0.773
3408.06	0.773
3417.34	0.773
3426.63	0.773
3435.92	0.773
3445.2	0.773
3454.49	0.773
3463.77	0.774
3473.06	0.776
3482.34	0.778
3491.63	0.7808
3500.92	0.786
3510.2	0.788
3519.49	0.79
3528.77	0.79
3538.06	0.79
3547.34	0.7865
3556.63	0.785
3565.92	0.78
3575.2	0.7729
3584.49	0.7664
3593.77	0.7572
3603.06	0.7228
3612.34	0.6448
3621.63	0.3895
3630.92	0.1293
3640.2	0.134
3649.49	0.4878
3658.77	0.736
3668.06	0.814
3677.34	0.83
3686.63	0.834
3695.92	0.835
3705.2	0.837
3714.49	0.837
3723.77	0.837
3733.06	0.837
3742.35	0.837
3751.63	0.837
3760.92	0.837
3770.2	0.837
3779.49	0.837
3788.77	0.8363
3798.06	0.835
3807.35	0.835
3816.63	0.835
3825.92	0.8346
3835.2	0.834
3844.49	0.834
3853.77	0.834
3863.06	0.834
3872.35	0.834
3881.63	0.835
3890.92	0.835
3900.2	0.837
3909.49	0.839
3918.77	0.839
3928.06	0.839
3937.35	0.839
3946.63	0.839
3955.92	0.8371
3965.2	0.837
3974.49	0.839
