Infrared Spectrum: BENZENE, HEXACHLORO-
Formula: C6 Cl6
CAS: 118-74-1
State: SOLUTION (1% CCl4 FOR 3800-1340, 1% CS2 FOR 1340-450) VS SOLVENT
Class: COBLENTZ III
Instrument: DOW KBr FOREPRISM-GRATING
Instrument parameters: BLAZED AT 3.5, 12.0, 20.0 AND CHANGED AT 5.0, 7.5, 14.9 MICRON
Sampling: TRANSMISSION
Path length: 0.0115 CM, 0.0113 CM
Resolution: 2
Origin: DOW CHEMICAL COMPANY
1/CM	TRANSMITTANCE
3816	0.8914
3807	0.8907
3798	0.8902
3789	0.8903
3780	0.8904
3771	0.8909
3762	0.8915
3753	0.892
3744	0.8925
3735	0.8928
3726	0.893
3717	0.893
3708	0.893
3699	0.8931
3690	0.8931
3681	0.8931
3672	0.8931
3663	0.8931
3654	0.8931
3645	0.8931
3636	0.8932
3627	0.8934
3618	0.8937
3609	0.8939
3600	0.8941
3591	0.8943
3582	0.8945
3573	0.8946
3564	0.8947
3555	0.8947
3546	0.8948
3537	0.8951
3528	0.8956
3519	0.896
3510	0.8965
3501	0.8968
3492	0.8971
3483	0.8975
3474	0.8985
3465	0.8994
3456	0.9001
3447	0.9005
3438	0.9015
3429	0.9027
3420	0.9044
3411	0.9064
3402	0.9081
3393	0.9071
3384	0.9058
3375	0.9041
3366	0.9034
3357	0.9038
3348	0.9043
3339	0.9047
3330	0.905
3321	0.9048
3312	0.9046
3303	0.904
3294	0.9034
3285	0.9009
3276	0.8982
3267	0.8957
3258	0.8943
3249	0.8943
3240	0.8944
3231	0.8944
3222	0.8944
3213	0.8944
3204	0.8944
3195	0.8943
3186	0.8937
3177	0.893
3168	0.8924
3159	0.8917
3150	0.8911
3141	0.8907
3132	0.8904
3123	0.8899
3114	0.8896
3105	0.8892
3096	0.8888
3087	0.8884
3078	0.8882
3069	0.8878
3060	0.8877
3051	0.8874
3042	0.8871
3033	0.8868
3024	0.8866
3015	0.8863
3006	0.8867
2997	0.887
2988	0.8875
2979	0.8878
2970	0.8885
2961	0.889
2952	0.8896
2943	0.8901
2934	0.8906
2925	0.891
2916	0.8909
2907	0.8909
2898	0.8908
2889	0.8906
2880	0.8902
2871	0.8897
2862	0.889
2853	0.8882
2844	0.8875
2835	0.8868
2826	0.886
2817	0.8856
2808	0.8854
2799	0.8851
2790	0.8849
2781	0.8848
2772	0.8852
2763	0.8856
2754	0.886
2745	0.8864
2736	0.8862
2727	0.8856
2718	0.8852
2709	0.8847
2700	0.8842
2691	0.8837
2682	0.8832
2673	0.8827
2664	0.8837
2655	0.8849
2646	0.8862
2637	0.8874
2628	0.8887
2619	0.8891
2610	0.8894
2601	0.8896
2592	0.89
2583	0.8902
2574	0.8897
2565	0.8892
2556	0.8887
2547	0.8875
2538	0.8864
2529	0.8851
2520	0.8841
2511	0.8831
2502	0.8835
2493	0.8839
2484	0.8843
2475	0.8846
2466	0.8847
2457	0.8848
2448	0.8845
2439	0.8839
2430	0.8834
2421	0.8834
2412	0.8845
2403	0.8848
2394	0.884
2385	0.8818
2376	0.8793
2367	0.877
2358	0.875
2349	0.8759
2340	0.877
2331	0.8778
2322	0.8787
2313	0.8794
2304	0.8803
2295	0.881
2286	0.8821
2277	0.8831
2268	0.8842
2259	0.8851
2250	0.8859
2241	0.8867
2232	0.8875
2223	0.8884
2214	0.8887
2205	0.8887
2196	0.8888
2187	0.8889
2178	0.889
2169	0.8891
2160	0.8894
2151	0.8899
2142	0.8904
2133	0.8908
2124	0.8912
2115	0.8914
2106	0.8916
2097	0.8917
2088	0.8918
2079	0.8918
2070	0.8921
2061	0.8927
2052	0.8933
2043	0.8939
2034	0.8938
2025	0.8935
2016	0.8939
2007	0.8951
1998	0.9023
1989	0.8939
1980	0.877
1971	0.8747
1962	0.8903
1953	0.8789
1944	0.8758
1935	0.8749
1926	0.8731
1917	0.8735
1908	0.8741
1899	0.8747
1890	0.8743
1881	0.8738
1872	0.874
1863	0.8745
1854	0.8753
1845	0.8745
1836	0.8733
1827	0.8725
1818	0.8727
1809	0.8728
1800	0.8725
1791	0.8723
1782	0.8721
1773	0.8718
1764	0.8717
1755	0.8716
1746	0.8714
1737	0.8715
1728	0.8718
1719	0.8728
1710	0.8739
1701	0.8744
1692	0.875
1683	0.8757
1674	0.8773
1665	0.8801
1656	0.8861
1647	0.8949
1638	0.8921
1629	0.8843
1620	0.8831
1611	0.8868
1602	0.8846
1593	0.8789
1584	0.868
1575	0.8641
1566	0.8624
1557	0.8538
1548	0.848
1539	0.8517
1530	0.8566
1521	0.8583
1512	0.8597
1503	0.8623
1494	0.8638
1485	0.8666
1476	0.8715
1467	0.8743
1458	0.8743
1449	0.8768
1440	0.88
1431	0.8812
1422	0.8808
1413	0.8777
1404	0.8731
1395	0.8712
1386	0.8842
1377	0.8806
1368	0.8717
1359	0.86
1350	0.1461
1341	0.7349
1332	0.843
1323	0.8775
1314	0.8778
1305	0.8756
1296	0.7525
1287	0.8566
1278	0.868
1269	0.8748
1260	0.8807
1251	0.8861
1242	0.8908
1233	0.8939
1224	0.8944
1215	0.8941
1206	0.8931
1197	0.8917
1188	0.8878
1179	0.8759
1170	0.8874
1161	0.8928
1152	0.8927
1143	0.8877
1134	0.8898
1125	0.8971
1116	0.899
1107	0.8928
1098	0.886
1089	0.8843
1080	0.8844
1071	0.8797
1062	0.8783
1053	0.8789
1044	0.8787
1035	0.8791
1026	0.8799
1017	0.8809
1008	0.8841
999	0.8862
990	0.887
981	0.8862
972	0.8854
963	0.8842
954	0.8841
945	0.8841
936	0.883
927	0.8777
918	0.8789
909	0.8805
900	0.882
891	0.8818
882	0.8802
873	0.8778
864	0.8744
855	0.873
846	0.8766
837	0.8811
828	0.884
819	0.8866
810	0.8884
801	0.8899
792	0.8904
783	0.8901
774	0.8892
765	0.8888
756	0.8883
747	0.8875
738	0.8875
729	0.8838
720	0.8711
711	0.8737
702	0.8608
693	0.6897
684	0.8659
675	0.8804
666	0.8846
657	0.8842
648	0.8855
639	0.8874
630	0.8908
621	0.8968
612	0.8986
603	0.8996
594	0.9012
585	0.9021
576	0.9031
567	0.9041
558	0.9053
549	0.9066
540	0.9075
531	0.9088
522	0.9082
513	0.9058
504	0.9052
495	0.9059
486	0.9067
477	0.9075
468	0.9101
459	0.9141
450	0.9185
