Infrared Spectrum: METHYL SALICYLATE
Formula: C8 H8 03
CAS: 119-36-8
State: SOLUTION (10% IN CCl4 FOR 3800-1300, 10% IN CS2 FOR 1300-650, 10% IN CCl4 FOR 650-230 CM^-^1) VERSUS SOLVENT
Class: COBLENTZ
Instrument: Not specified, most likely a grating or hybrid spectrometer.
Sampling: TRANSMISSION
Path length: 0.011, 0.010, AND 0.010 CM (CsBr CELL)
Resolution: 4
Origin: DOW CORNING CORP.
1/CM	TRANSMITTANCE
235.41	0.915
245.246	0.911
255.082	0.913
264.918	0.907
274.754	0.91
284.59	0.909
294.426	0.911
304.263	0.909
314.099	0.895
323.935	0.872
333.771	0.839
343.607	0.848
353.443	0.78
363.279	0.608
373.115	0.74
382.951	0.886
392.787	0.917
402.623	0.899
412.459	0.954
422.295	0.962
432.131	0.939
441.968	0.819
451.804	0.899
461.64	0.979
471.476	0.989
481.312	0.987
491.148	0.986
500.984	0.963
510.82	0.815
520.656	0.739
530.492	0.723
540.328	0.822
550.164	0.937
560	0.921
569.836	0.93
579.673	0.961
589.509	0.965
599.345	0.959
609.181	0.935
619.017	0.922
628.853	0.962
638.689	0.967
648.525	0.939
658.361	0.86
668.197	0.709
678.033	0.667
687.869	0.676
697.705	0.471
707.541	0.032
717.378	0.181
727.214	0.22
737.05	0.431
746.886	0.632
756.722	0.3109
766.558	0.1121
776.394	0.784
786.23	0.925
796.066	0.909
805.902	0.4131
815.738	0.83
825.574	0.986
835.41	0.978
845.246	0.894
855.083	0.2041
864.919	0.735
874.755	0.958
884.591	1.004
894.427	1.028
904.263	1.03
914.099	1.029
923.935	1.026
933.771	1.018
943.607	0.99
953.443	0.864
963.279	0.844
973.115	0.5621
982.951	0.947
992.788	1
1002.62	1.016
1012.46	1.012
1022.3	0.971
1032.13	0.7879
1041.97	0.922
1051.8	0.975
1061.64	0.963
1071.48	0.935
1081.31	0.79
1091.15	0.1849
1100.98	0.5882
1110.82	0.852
1120.66	0.806
1130.49	0.4409
1140.33	0.2512
1150.16	0.541
1160	0.0161
1169.84	0.482
1179.67	0.3439
1189.51	0.161
1199.35	0.117
1209.18	0.002
1219.02	0.016
1228.85	0.135
1238.69	0.205
1248.53	0.044
1258.36	0.085
1268.2	0.548
1278.03	0.537
1287.87	0.213
1297.71	0.1389
1307.54	0
1317.38	0.094
1327.21	0.026
1337.05	0.02
1346.89	0.096
1356.72	0.312
1366.56	0.461
1376.39	0.502
1386.23	0.477
1396.07	0.367
1405.9	0.32
1415.74	0.339
1425.57	0.441
1435.41	0.3939
1445.25	0.009
1455.08	0.1921
1464.92	0.195
1474.76	0.24
1484.59	0.0639
1494.43	0.1102
1504.26	0.497
1514.1	0.497
1523.94	0.676
1533.77	0.697
1543.61	0.725
1553.44	0.728
1563.28	0.705
1573.12	0.633
1582.95	0.3869
1592.79	0.248
1602.62	0.413
1612.46	0.2549
1622.3	0.082
1632.13	0.554
1641.97	0.576
1651.8	0.441
1661.64	0.3149
1671.48	0.064
1681.31	0
1691.15	0.002
1700.98	0.096
1710.82	0.3421
1720.66	0.584
1730.49	0.633
1740.33	0.635
1750.17	0.728
1760	0.762
1769.84	0.798
1779.67	0.802
1789.51	0.831
1799.35	0.832
1809.18	0.823
1819.02	0.786
1828.85	0.852
1838.69	0.848
1848.53	0.863
1858.36	0.866
1868.2	0.866
1878.03	0.877
1887.87	0.881
1897.71	0.867
1907.54	0.851
1917.38	0.855
1927.21	0.808
1937.05	0.806
1946.89	0.835
1956.72	0.828
1966.56	0.871
1976.39	0.878
1986.23	0.877
1996.07	0.883
2005.9	0.906
2015.74	0.913
2025.58	0.91
2035.41	0.905
2045.25	0.894
2055.08	0.8781
2064.92	0.877
2074.76	0.911
2084.59	0.918
2094.43	0.909
2104.26	0.894
2114.1	0.907
2123.94	0.911
2133.77	0.907
2143.61	0.901
2153.44	0.886
2163.28	0.899
2173.12	0.911
2182.95	0.907
2192.79	0.911
2202.62	0.915
2212.46	0.917
2222.3	0.915
2232.13	0.914
2241.97	0.913
2251.8	0.914
2261.64	0.91
2271.48	0.906
2281.31	0.901
2291.15	0.898
2300.99	0.906
2310.82	0.913
2320.66	0.913
2330.49	0.913
2340.33	0.913
2350.17	0.91
2360	0.909
2369.84	0.906
2379.67	0.902
2389.51	0.898
2399.35	0.894
2409.18	0.893
2419.02	0.893
2428.85	0.893
2438.69	0.897
2448.53	0.901
2458.36	0.901
2468.2	0.899
2478.03	0.894
2487.87	0.889
2497.71	0.887
2507.54	0.887
2517.38	0.89
2527.21	0.89
2537.05	0.887
2546.89	0.885
2556.72	0.881
2566.56	0.889
2576.4	0.882
2586.23	0.883
2596.07	0.882
2605.9	0.882
2615.74	0.879
2625.58	0.878
2635.41	0.877
2645.25	0.875
2655.08	0.872
2664.92	0.874
2674.76	0.881
2684.59	0.881
2694.43	0.879
2704.26	0.879
2714.1	0.882
2723.94	0.883
2733.77	0.882
2743.61	0.881
2753.44	0.877
2763.28	0.856
2773.12	0.852
2782.95	0.855
2792.79	0.852
2802.62	0.852
2812.46	0.851
2822.3	0.847
2832.13	0.834
2841.97	0.8041
2851.81	0.745
2861.64	0.7638
2871.48	0.814
2881.31	0.806
2891.15	0.779
2900.99	0.762
2910.82	0.775
2920.66	0.803
2930.49	0.78
2940.33	0.7401
2950.17	0.5371
2960	0.2866
2969.84	0.57
2979.67	0.723
2989.51	0.701
2999.35	0.6171
3009.18	0.568
3019.02	0.604
3028.85	0.582
3038.69	0.594
3048.53	0.613
3058.36	0.59
3068.2	0.6
3078.03	0.59
3087.87	0.617
3097.71	0.601
3107.54	0.604
3117.38	0.577
3127.22	0.538
3137.05	0.495
3146.89	0.454
3156.72	0.409
3166.56	0.356
3176.4	0.3381
3186.23	0.288
3196.07	0.254
3205.9	0.263
3215.74	0.275
3225.58	0.3
3235.41	0.314
3245.25	0.356
3255.08	0.4329
3264.92	0.508
3274.76	0.5459
3284.59	0.581
3294.43	0.612
3304.26	0.653
3314.1	0.675
3323.94	0.699
3333.77	0.712
3343.61	0.717
3353.44	0.717
3363.28	0.733
3373.12	0.756
3382.95	0.77
3392.79	0.786
3402.63	0.798
3412.46	0.807
3422.3	0.812
3432.13	0.815
3441.97	0.811
3451.81	0.818
3461.64	0.832
3471.48	0.8559
3481.31	0.864
3491.15	0.87
3500.99	0.871
3510.82	0.874
3520.66	0.877
3530.49	0.881
3540.33	0.889
3550.17	0.894
3560	0.899
3569.84	0.903
3579.67	0.909
3589.51	0.915
3599.35	0.919
3609.18	0.919
3619.02	0.921
3628.85	0.925
3638.69	0.929
3648.53	0.929
3658.36	0.929
3668.2	0.927
3678.04	0.927
3687.87	0.93
3697.71	0.933
3707.54	0.933
3717.38	0.934
3727.22	0.938
3737.05	0.939
3746.89	0.938
3756.72	0.941
3766.56	0.941
3776.4	0.939
3786.23	0.938
