Infrared Spectrum: HYDRAZINE, 2,4-DINITROPHENYL-
Formula: C6 H6 N4 O4
CAS: 119-26-6
State: SOLID (OIL MULL)
Class: COBLENTZ III
Instrument: PERKIN-ELMER 521 (GRATING)
Instrument parameters: FILTERS AT 3150, 2500, 2000, 1150, 700, 410; GRATING CHANGES AT 2000, 630 CM^-^1
Sampling: TRANSMISSION
Resolution: 4
Origin: DOW CORNING CORP.
1/CM	TRANSMITTANCE
232.454	0.754
241.407	0.768
250.36	0.792
259.313	0.818
268.265	0.843
277.218	0.862
286.171	0.876
295.124	0.885
304.077	0.893
313.03	0.897
321.982	0.912
330.935	0.919
339.888	0.921
348.841	0.914
357.794	0.904
366.747	0.925
375.7	0.932
384.652	0.919
393.605	0.916
402.558	0.923
411.511	0.923
420.464	0.919
429.417	0.909
438.37	0.902
447.322	0.902
456.275	0.902
465.228	0.897
474.181	0.9
483.134	0.902
492.087	0.9
501.039	0.885
509.992	0.827
518.945	0.886
527.898	0.858
536.851	0.8789
545.804	0.898
554.757	0.9
563.709	0.897
572.662	0.891
581.615	0.886
590.568	0.876
599.521	0.869
608.474	0.851
617.427	0.831
626.379	0.7541
635.332	0.719
644.285	0.77
653.238	0.832
662.191	0.871
671.144	0.897
680.096	0.893
689.049	0.8511
698.002	0.869
706.955	0.608
715.908	0.881
724.861	0.886
733.814	0.872
742.766	0.6557
751.719	0.8949
760.672	0.886
769.625	0.902
778.578	0.907
787.531	0.905
796.483	0.904
805.436	0.891
814.389	0.876
823.342	0.841
832.295	0.7209
841.248	0.878
850.201	0.888
859.153	0.895
868.106	0.897
877.059	0.9
886.012	0.898
894.965	0.893
903.918	0.886
912.871	0.862
921.823	0.7771
930.776	0.743
939.729	0.865
948.682	0.851
957.635	0.836
966.588	0.78
975.54	0.616
984.493	0.5241
993.446	0.815
1002.4	0.867
1011.35	0.858
1020.3	0.848
1029.26	0.858
1038.21	0.851
1047.16	0.817
1056.12	0.7241
1065.07	0.458
1074.02	0.818
1082.97	0.804
1091.93	0.759
1100.88	0.696
1109.83	0.548
1118.79	0.695
1127.74	0.56
1136.69	0.5899
1145.64	0.5801
1154.6	0.817
1163.55	0.857
1172.5	0.857
1181.46	0.851
1190.41	0.841
1199.36	0.818
1208.31	0.785
1217.27	0.714
1226.22	0.494
1235.17	0.702
1244.13	0.682
1253.08	0.5901
1262.03	0.503
1270.98	0.371
1279.94	0.317
1288.89	0.287
1297.84	0.381
1306.8	0.419
1315.75	0.2941
1324.7	0.184
1333.65	0.174
1342.61	0.3618
1351.56	0.7018
1360.51	0.698
1369.47	0.5711
1378.42	0.6839
1387.37	0.804
1396.32	0.811
1405.28	0.6414
1414.23	0.339
1423.18	0.505
1432.14	0.7419
1441.09	0.756
1450.04	0.705
1458.99	0.658
1467.95	0.693
1476.9	0.757
1485.85	0.682
1494.81	0.4402
1503.76	0.527
1512.71	0.475
1521.66	0.4181
1530.62	0.5331
1539.57	0.757
1548.52	0.8409
1557.48	0.817
1566.43	0.702
1575.38	0.468
1584.33	0.545
1593.29	0.555
1602.24	0.56
1611.19	0.489
1620.15	0.548
1629.1	0.398
1638.05	0.3359
1647	0.271
1655.96	0.635
1664.91	0.818
1673.86	0.862
1682.82	0.89
1691.77	0.898
1700.72	0.909
1709.67	0.914
1718.63	0.914
1727.58	0.916
1736.53	0.916
1745.49	0.914
1754.44	0.914
1763.39	0.914
1772.34	0.912
1781.3	0.914
1790.25	0.914
1799.2	0.911
1808.16	0.914
1817.11	0.914
1826.06	0.914
1835.01	0.914
1843.97	0.911
1852.92	0.904
1861.87	0.898
1870.83	0.916
1879.78	0.914
1888.73	0.914
1897.68	0.914
1906.64	0.914
1915.59	0.914
1924.54	0.912
1933.5	0.912
1942.45	0.912
1951.4	0.907
1960.35	0.912
1969.31	0.914
1978.26	0.916
1987.21	0.914
1996.17	0.921
2005.12	0.918
2014.07	0.916
2023.02	0.916
2031.98	0.913
2040.93	0.912
2049.88	0.908
2058.84	0.905
2067.79	0.907
2076.74	0.907
2085.69	0.907
2094.65	0.909
2103.6	0.911
2112.55	0.9069
2121.51	0.905
2130.46	0.904
2139.41	0.904
2148.36	0.904
2157.32	0.902
2166.27	0.898
2175.22	0.898
2184.18	0.897
2193.13	0.895
2202.08	0.897
2211.03	0.895
2219.99	0.895
2228.94	0.895
2237.89	0.895
2246.85	0.8919
2255.8	0.891
2264.75	0.891
2273.7	0.891
2282.66	0.8918
2291.61	0.8882
2300.56	0.895
2309.51	0.893
2318.47	0.891
2327.42	0.8909
2336.37	0.89
2345.33	0.89
2354.28	0.8854
2363.23	0.885
2372.18	0.883
2381.14	0.881
2390.09	0.8798
2399.04	0.878
2408	0.878
2416.95	0.879
2425.9	0.8784
2434.85	0.8777
2443.81	0.8753
2452.76	0.8763
2461.71	0.878
2470.67	0.879
2479.62	0.879
2488.57	0.8807
2497.52	0.879
2506.48	0.8781
2515.43	0.879
2524.38	0.878
2533.34	0.8767
2542.29	0.872
2551.24	0.8697
2560.19	0.8673
2569.15	0.8704
2578.1	0.8687
2587.05	0.865
2596.01	0.865
2604.96	0.8656
2613.91	0.862
2622.86	0.864
2631.82	0.86
2640.77	0.8614
2649.72	0.862
2658.68	0.862
2667.63	0.8616
2676.58	0.86
2685.53	0.86
2694.49	0.86
2703.44	0.86
2712.39	0.86
2721.35	0.858
2730.3	0.857
2739.25	0.8546
2748.2	0.853
2757.16	0.853
2766.11	0.851
2775.06	0.848
2784.02	0.8445
2792.97	0.8405
2801.92	0.8345
2810.87	0.8265
2819.83	0.8057
2828.78	0.7875
2837.73	0.7012
2846.69	0.5906
2855.64	0.4593
2864.59	0.4973
2873.54	0.5134
2882.5	0.5511
2891.45	0.5446
2900.4	0.4662
2909.36	0.3916
2918.31	0.3304
2927.26	0.2336
2936.21	0.279
2945.17	0.3858
2954.12	0.385
2963.07	0.4222
2972.03	0.5786
2980.98	0.7118
2989.93	0.7717
2998.88	0.7932
3007.84	0.8059
3016.79	0.8146
3025.74	0.8206
3034.7	0.8248
3043.65	0.829
3052.6	0.8273
3061.55	0.824
3070.51	0.8155
3079.46	0.7967
3088.41	0.6998
3097.37	0.764
3106.32	0.722
3115.27	0.7972
3124.22	0.8307
3133.18	0.8347
3142.13	0.836
3151.08	0.834
3160.04	0.832
3168.99	0.832
3177.94	0.834
3186.89	0.834
3195.85	0.8311
3204.8	0.8246
3213.75	0.8156
3222.71	0.8074
3231.66	0.7896
3240.61	0.783
3249.56	0.7888
3258.52	0.7737
3267.47	0.7408
3276.42	0.7096
3285.38	0.696
3294.33	0.6576
3303.28	0.6416
3312.23	0.6042
3321.19	0.4727
3330.14	0.2379
3339.09	0.3906
3348.05	0.5874
3357	0.7358
3365.95	0.7821
3374.9	0.792
3383.86	0.794
3392.81	0.794
3401.76	0.792
3410.72	0.794
3419.67	0.7979
3428.62	0.8059
3437.57	0.8113
3446.53	0.82
3455.48	0.8244
3464.43	0.8289
3473.39	0.831
3482.34	0.832
3491.29	0.8349
3500.24	0.837
3509.2	0.837
3518.15	0.839
3527.1	0.837
3536.06	0.836
3545.01	0.8365
3553.96	0.836
3562.91	0.834
3571.87	0.837
3580.82	0.842
3589.77	0.848
3598.73	0.849
3607.68	0.85
3616.63	0.85
3625.58	0.848
3634.54	0.85
3643.49	0.85
3652.44	0.8505
3661.4	0.851
3670.35	0.85
3679.3	0.848
3688.25	0.848
3697.21	0.85
3706.16	0.85
3715.11	0.85
3724.07	0.85
3733.02	0.848
3741.97	0.848
3750.92	0.846
3759.88	0.846
3768.83	0.844
3777.78	0.844
3786.74	0.844
