Infrared Spectrum: 2,2'-BIQUINOLINE
Formula: C18 H12 N2
CAS: 119-91-5
State: SOLID (MULL)
Class: COBLENTZ
Instrument: Not specified, most likely a prism, grating, or hybrid spectrometer.
Sampling: TRANSMISSION
Resolution: 4
Origin: WYANDOTTE CHEMICALS CORP., WYANDOTTE, MICHIGAN, USA
MICROMETERS	TRANSMITTANCE
2.093	0.88
2.133	0.905
2.173	0.935
2.21301	0.938
2.25301	0.941
2.29301	0.941
2.33301	0.926
2.37301	0.923
2.41302	0.921
2.45302	0.92
2.49302	0.92
2.53302	0.94
2.57302	0.94
2.61302	0.936
2.65303	0.941
2.69303	0.95
2.73303	0.941
2.77303	0.93
2.81303	0.921
2.85304	0.931
2.89304	0.936
2.93304	0.945
2.97304	0.943
3.01304	0.946
3.05305	0.951
3.09305	0.951
3.13305	0.953
3.17305	0.953
3.21305	0.951
3.25306	0.906
3.29306	0.769
3.33306	0.559
3.37306	0.196
3.41306	0.086
3.45307	0.089
3.49307	0.124
3.53307	0.455
3.57307	0.813
3.61307	0.873
3.65307	0.847
3.69308	0.842
3.73308	0.863
3.77308	0.877
3.81308	0.9
3.85308	0.877
3.89309	0.897
3.93309	0.882
3.97309	0.872
4.01309	0.897
4.05309	0.905
4.0931	0.875
4.1331	0.873
4.1731	0.885
4.2131	0.897
4.2531	0.85
4.29311	0.865
4.33311	0.906
4.37311	0.85
4.41311	0.808
4.45311	0.792
4.49311	0.79
4.53312	0.817
4.57312	0.832
4.61312	0.837
4.65312	0.843
4.69312	0.858
4.73313	0.867
4.77313	0.877
4.81313	0.885
4.85313	0.878
4.89313	0.885
4.93314	0.898
4.97314	0.901
5.01314	0.906
5.05314	0.918
5.09314	0.883
5.13315	0.863
5.17315	0.885
5.21315	0.887
5.25315	0.865
5.29315	0.898
5.33316	0.916
5.37316	0.892
5.41316	0.897
5.45316	0.89
5.49316	0.901
5.53316	0.873
5.57317	0.888
5.61317	0.897
5.65317	0.91
5.69317	0.918
5.73317	0.872
5.77318	0.87
5.81318	0.862
5.85318	0.868
5.89318	0.885
5.93318	0.883
5.97319	0.911
6.01319	0.893
6.05319	0.89
6.09319	0.898
6.13319	0.898
6.1732	0.797
6.2132	0.556
6.2532	0.495
6.2932	0.705
6.3332	0.77
6.3732	0.691
6.41321	0.604
6.45321	0.634
6.49321	0.679
6.53321	0.737
6.57321	0.769
6.61322	0.769
6.65322	0.511
6.69322	0.589
6.73322	0.528
6.77322	0.269
6.81323	0.129
6.85323	0.177
6.89323	0.277
6.93323	0.433
6.97323	0.606
7.01324	0.534
7.05324	0.524
7.09324	0.666
7.13324	0.677
7.17324	0.652
7.21324	0.43
7.25325	0.247
7.29325	0.43
7.33325	0.526
7.37325	0.612
7.41325	0.639
7.45326	0.636
7.49326	0.586
7.53326	0.5
7.57326	0.646
7.61326	0.681
7.65327	0.689
7.69327	0.666
7.73327	0.691
7.77327	0.724
7.81327	0.742
7.85328	0.747
7.89328	0.754
7.93328	0.762
7.97328	0.769
8.01328	0.75
8.05329	0.769
8.09329	0.775
8.13329	0.789
8.17329	0.8
8.21329	0.764
8.25329	0.651
8.2933	0.759
8.3333	0.789
8.3733	0.795
8.4133	0.803
8.4533	0.799
8.49331	0.802
8.53331	0.785
8.57331	0.77
8.61331	0.79
8.65331	0.787
8.69332	0.769
8.73332	0.619
8.77332	0.752
8.81332	0.722
8.85332	0.509
8.89333	0.752
8.93333	0.794
8.97333	0.812
9.01333	0.818
9.05333	0.818
9.09333	0.833
9.13334	0.828
9.17334	0.83
9.21334	0.827
9.25334	0.828
9.29334	0.822
9.33335	0.832
9.37335	0.83
9.41335	0.71
9.45335	0.671
9.49335	0.742
9.53336	0.78
9.57336	0.802
9.61336	0.817
9.65336	0.822
9.69336	0.83
9.73337	0.832
9.77337	0.84
9.81337	0.84
9.85337	0.799
9.89337	0.817
9.93338	0.845
9.97338	0.86
10.0134	0.858
10.0534	0.835
10.0934	0.852
10.1334	0.817
10.1734	0.85
10.2134	0.8
10.2534	0.818
10.2934	0.833
10.3334	0.828
10.3734	0.835
10.4134	0.832
10.4534	0.815
10.4934	0.694
10.5334	0.745
10.5734	0.759
10.6134	0.699
10.6534	0.78
10.6934	0.666
10.7334	0.671
10.7734	0.812
10.8134	0.832
10.8534	0.857
10.8934	0.858
10.9334	0.87
10.9734	0.882
11.0134	0.888
11.0534	0.892
11.0934	0.898
11.1334	0.901
11.1734	0.9
11.2134	0.901
11.2534	0.901
11.2934	0.911
11.3334	0.913
11.3734	0.911
11.4134	0.908
11.4534	0.835
11.4934	0.672
11.5335	0.734
11.5735	0.877
11.6135	0.897
11.6535	0.906
11.6935	0.9
11.7335	0.895
11.7735	0.888
11.8135	0.875
11.8535	0.827
11.8935	0.639
11.9335	0.308
11.9735	0.423
12.0135	0.521
12.0535	0.302
12.0935	0.101
12.1335	0.3
12.1735	0.642
12.2135	0.724
12.2535	0.767
12.2935	0.852
12.3335	0.87
12.3735	0.885
12.4135	0.9
12.4535	0.918
12.4935	0.918
12.5335	0.93
12.5735	0.928
12.6135	0.911
12.6535	0.812
12.6935	0.549
12.7335	0.526
12.7735	0.634
12.8135	0.823
12.8535	0.905
12.8935	0.935
12.9335	0.935
12.9735	0.933
13.0135	0.908
13.0535	0.757
13.0935	0.794
13.1335	0.892
13.1735	0.918
13.2135	0.928
13.2535	0.92
13.2935	0.9
13.3335	0.832
13.3735	0.671
13.4135	0.435
13.4535	0.413
13.4935	0.398
13.5335	0.227
13.5735	0.147
13.6136	0.295
13.6536	0.521
13.6936	0.646
13.7336	0.719
13.7736	0.767
13.8136	0.797
13.8536	0.817
13.8936	0.828
13.9336	0.862
13.9736	0.892
14.0136	0.92
14.0536	0.943
14.0936	0.963
14.1336	0.973
14.1736	0.985
14.2136	0.99
14.2536	0.97
14.2936	0.981
14.3336	0.988
14.3736	0.975
14.4136	0.981
14.4536	0.985
14.4936	0.981
14.5336	0.985
14.5736	0.983
14.6136	0.976
14.6536	0.97
14.6936	0.966
14.7336	0.963
14.7736	0.956
14.8136	0.945
14.8536	0.948
14.8936	0.945
14.9336	0.943
14.9736	0.923
15.0136	0.877
15.0536	0.817
15.0936	0.789
15.1336	0.817
15.1736	0.862
15.2136	0.868
15.2536	0.86
15.2936	0.85
15.3336	0.845
15.3736	0.833
15.4136	0.817
15.4536	0.803
15.4936	0.787
15.5336	0.77
15.5736	0.762
15.6136	0.754
15.6536	0.745
15.6937	0.725
15.7337	0.714
15.7737	0.704
15.8137	0.687
15.8537	0.662
15.8937	0.649
15.9337	0.614
15.9737	0.566
16.0137	0.573
