Infrared Spectrum: TETRAHYDRONAPHTHALENE
Formula: C10 H12
CAS: 119-64-2
State: VAPOR (15 MICROLITER AT 150 C)
Boiling point: 206 C
Class: COBLENTZ
Instrument: PERKIN-ELMER 180
Sampling: TRANSMISSION
Path length: 5 CM KBr CELL, CELL VOLUME: 80 CM^3
Resolution: 2-3 CM^-^1
Origin: PERKIN-ELMER CORP. (M. ZELLER)
1/CM	TRANSMITTANCE
406.762	0.52
416.23	0.576
425.697	0.629
435.165	0.69
444.632	0.7549
454.1	0.798
463.567	0.826
473.035	0.851
482.502	0.869
491.97	0.885
501.437	0.877
510.905	0.888
520.372	0.896
529.84	0.902
539.307	0.903
548.775	0.907
558.242	0.908
567.71	0.91
577.177	0.908
586.645	0.908
596.112	0.911
605.58	0.914
615.047	0.918
624.515	0.921
633.983	0.918
643.45	0.919
652.918	0.918
662.385	0.917
671.853	0.906
681.32	0.884
690.788	0.876
700.255	0.872
709.723	0.789
719.19	0.605
728.658	0.3992
738.125	0.4107
747.593	0.656
757.06	0.8389
766.528	0.877
775.995	0.877
785.463	0.872
794.93	0.86
804.398	0.868
813.865	0.876
823.333	0.895
832.8	0.899
842.268	0.894
851.735	0.888
861.203	0.895
870.671	0.904
880.138	0.903
889.606	0.902
899.073	0.907
908.541	0.908
918.008	0.902
927.476	0.884
936.943	0.875
946.411	0.888
955.878	0.894
965.346	0.891
974.813	0.884
984.281	0.881
993.748	0.879
1003.22	0.87
1012.68	0.861
1022.15	0.845
1031.62	0.846
1041.09	0.864
1050.55	0.862
1060.02	0.857
1069.49	0.862
1078.96	0.866
1088.42	0.861
1097.89	0.845
1107.36	0.838
1116.83	0.846
1126.29	0.85
1135.76	0.851
1145.23	0.854
1154.7	0.854
1164.16	0.851
1173.63	0.851
1183.1	0.851
1192.57	0.846
1202.03	0.842
1211.5	0.835
1220.97	0.831
1230.44	0.82
1239.9	0.805
1249.37	0.815
1258.84	0.831
1268.31	0.809
1277.77	0.798
1287.24	0.815
1296.71	0.839
1306.18	0.849
1315.64	0.846
1325.11	0.836
1334.58	0.816
1344.05	0.798
1353.51	0.807
1362.98	0.826
1372.45	0.827
1381.92	0.832
1391.38	0.832
1400.85	0.834
1410.32	0.83
1419.79	0.805
1429.25	0.735
1438.72	0.649
1448.19	0.625
1457.66	0.677
1467.12	0.75
1476.59	0.7359
1486.06	0.637
1495.53	0.675
1504.99	0.842
1514.46	0.857
1523.93	0.857
1533.4	0.85
1542.86	0.843
1552.33	0.838
1561.8	0.823
1571.27	0.793
1580.73	0.778
1590.2	0.781
1599.67	0.79
1609.14	0.809
1618.6	0.83
1628.07	0.839
1637.54	0.845
1647.01	0.845
1656.47	0.841
1665.94	0.826
1675.41	0.801
1684.88	0.8
1694.34	0.811
1703.81	0.813
1713.28	0.816
1722.75	0.827
1732.21	0.838
1741.68	0.851
1751.15	0.857
1760.62	0.864
1770.09	0.869
1779.55	0.875
1789.02	0.872
1798.49	0.873
1807.96	0.88
1817.42	0.885
1826.89	0.884
1836.36	0.891
1845.83	0.895
1855.29	0.894
1864.76	0.889
1874.23	0.887
1883.7	0.888
1893.16	0.885
1902.63	0.877
1912.1	0.873
1921.57	0.875
1931.03	0.87
1940.5	0.876
1949.97	0.888
1959.44	0.891
1968.9	0.891
1978.37	0.891
1987.84	0.891
1997.31	0.881
2006.77	0.879
2016.24	0.876
2025.71	0.8739
2035.18	0.876
2044.64	0.876
2054.11	0.875
2063.58	0.873
2073.05	0.8748
2082.51	0.875
2091.98	0.875
2101.45	0.875
2110.92	0.8721
2120.38	0.872
2129.85	0.87
2139.32	0.869
2148.79	0.869
2158.25	0.869
2167.72	0.868
2177.19	0.868
2186.66	0.8665
2196.12	0.866
2205.59	0.866
2215.06	0.865
2224.53	0.866
2233.99	0.866
2243.46	0.8653
2252.93	0.865
2262.4	0.865
2271.86	0.865
2281.33	0.864
2290.8	0.8617
2300.27	0.8557
2309.73	0.8531
2319.2	0.8576
2328.67	0.86
2338.14	0.86
2347.6	0.858
2357.07	0.858
2366.54	0.8579
2376.01	0.857
2385.47	0.855
2394.94	0.8545
2404.41	0.854
2413.88	0.853
2423.34	0.851
2432.81	0.851
2442.28	0.851
2451.75	0.851
2461.21	0.851
2470.68	0.85
2480.15	0.849
2489.62	0.849
2499.08	0.85
2508.55	0.8496
2518.02	0.849
2527.49	0.849
2536.95	0.849
2546.42	0.847
2555.89	0.8452
2565.36	0.845
2574.82	0.843
2584.29	0.841
2593.76	0.841
2603.23	0.842
2612.69	0.8412
2622.16	0.839
2631.63	0.8352
2641.1	0.8308
2650.56	0.8205
2660.03	0.819
2669.5	0.823
2678.97	0.8284
2688.43	0.8334
2697.9	0.8337
2707.37	0.832
2716.84	0.834
2726.3	0.834
2735.77	0.8309
2745.24	0.8288
2754.71	0.8227
2764.17	0.8164
2773.64	0.8078
2783.11	0.8014
2792.58	0.7939
2802.04	0.7889
2811.51	0.7747
2820.98	0.7363
2830.45	0.6245
2839.91	0.499
2849.38	0.4153
2858.85	0.3869
2868.32	0.4364
2877.78	0.5074
2887.25	0.4953
2896.72	0.4136
2906.19	0.3291
2915.66	0.196
2925.12	0.0569
2934.59	0.0756
2944.06	0.1547
2953.53	0.5845
2962.99	0.6915
2972.46	0.7344
2981.93	0.744
2991.4	0.6865
3000.86	0.5935
3010.33	0.5233
3019.8	0.5609
3029.27	0.6282
3038.73	0.5985
3048.2	0.548
3057.67	0.5277
3067.14	0.6324
3076.6	0.7071
3086.07	0.7723
3095.54	0.7902
3105.01	0.8
3114.47	0.8034
3123.94	0.805
3133.41	0.8014
3142.88	0.7983
3152.34	0.8033
3161.81	0.807
3171.28	0.807
3180.75	0.8049
3190.21	0.804
3199.68	0.8052
3209.15	0.808
3218.62	0.8091
3228.08	0.808
3237.55	0.808
3247.02	0.8115
3256.49	0.811
3265.95	0.811
3275.42	0.812
3284.89	0.812
3294.36	0.8109
3303.82	0.809
3313.29	0.809
3322.76	0.808
3332.23	0.808
3341.69	0.807
3351.16	0.805
3360.63	0.807
3370.1	0.805
3379.56	0.8074
3389.03	0.808
3398.5	0.808
3407.97	0.807
3417.43	0.808
3426.9	0.808
3436.37	0.808
3445.84	0.808
3455.3	0.807
3464.77	0.804
3474.24	0.802
3483.71	0.8013
3493.17	0.802
3502.64	0.802
3512.11	0.802
3521.58	0.802
3531.04	0.804
3540.51	0.802
3549.98	0.802
3559.45	0.802
3568.91	0.8009
3578.38	0.7987
3587.85	0.8
3597.32	0.802
3606.78	0.802
3616.25	0.801
3625.72	0.8
3635.19	0.7989
3644.65	0.798
3654.12	0.7991
3663.59	0.8
3673.06	0.8
3682.52	0.8
3691.99	0.798
3701.46	0.794
3710.93	0.7925
3720.39	0.788
3729.86	0.7826
3739.33	0.7849
3748.8	0.789
3758.26	0.7929
3767.73	0.793
3777.2	0.7891
3786.67	0.786
3796.13	0.7815
3805.6	0.7784
3815.07	0.788
3824.54	0.789
3834	0.789
3843.47	0.7887
3852.94	0.7812
3862.41	0.7839
3871.87	0.788
3881.34	0.789
3890.81	0.788
3900.28	0.786
3909.74	0.785
3919.21	0.785
3928.68	0.7836
3938.15	0.783
3947.61	0.782
3957.08	0.7818
3966.55	0.781
3976.02	0.7789
3985.48	0.7776
3994.95	0.778
4004.42	0.778
