Infrared Spectrum: ISOQUINOLINE
Formula: C9 H7 N
CAS: 119-65-3
State: LIQUID
Melting point: 25.5-27 C
Class: COBLENTZ
Instrument: Not specified, most likely a prism, grating, or hybrid spectrometer.
Sampling: TRANSMISSION
Path length: 0.0028 CM
Resolution: 4
Origin: WYANDOTTE CHEMICALS CORP., WYANDOTTE, MICHIGAN, USA
MICROMETERS	TRANSMITTANCE
2.031	0.953
2.06815	0.945
2.1053	0.937
2.14246	0.939
2.17961	0.944
2.21676	0.944
2.25391	0.944
2.29106	0.939
2.32822	0.94
2.36537	0.94
2.40252	0.947
2.43967	0.933
2.47683	0.911
2.51398	0.922
2.55113	0.934
2.58828	0.939
2.62543	0.942
2.66259	0.961
2.69974	0.961
2.73689	0.958
2.77404	0.954
2.81119	0.95
2.84835	0.94
2.8855	0.922
2.92265	0.902
2.9598	0.899
2.99695	0.917
3.03411	0.922
3.07126	0.923
3.10841	0.922
3.14556	0.922
3.18272	0.908
3.21987	0.821
3.25702	0.624
3.29417	0.18
3.33132	0.434
3.36848	0.608
3.40563	0.763
3.44278	0.899
3.47993	0.909
3.51708	0.937
3.55424	0.947
3.59139	0.961
3.62854	0.948
3.66569	0.959
3.70284	0.958
3.74	0.945
3.77715	0.939
3.8143	0.931
3.85145	0.958
3.88861	0.958
3.92576	0.961
3.96291	0.956
4.00006	0.968
4.03721	0.968
4.07437	0.95
4.11152	0.95
4.14867	0.951
4.18582	0.954
4.22297	0.959
4.26013	0.962
4.29728	0.972
4.33443	0.97
4.37158	0.94
4.40873	0.947
4.44589	0.968
4.48304	0.982
4.52019	0.976
4.55734	0.981
4.5945	0.979
4.63165	0.972
4.6688	0.979
4.70595	0.981
4.7431	0.973
4.78026	0.968
4.81741	0.967
4.85456	0.95
4.89171	0.968
4.92886	0.97
4.96602	0.962
5.00317	0.948
5.04032	0.902
5.07747	0.846
5.11462	0.83
5.15178	0.819
5.18893	0.776
5.22608	0.799
5.26323	0.83
5.30039	0.858
5.33754	0.883
5.37469	0.903
5.41184	0.868
5.44899	0.85
5.48615	0.852
5.5233	0.827
5.56045	0.836
5.5976	0.791
5.63475	0.801
5.67191	0.847
5.70906	0.86
5.74621	0.88
5.78336	0.894
5.82051	0.878
5.85767	0.874
5.89482	0.872
5.93197	0.874
5.96912	0.872
6.00628	0.871
6.04343	0.86
6.08058	0.849
6.11773	0.625
6.15488	0.107
6.19204	0.597
6.22919	0.729
6.26634	0.416
6.30349	0.099
6.34064	0.187
6.3778	0.496
6.41495	0.618
6.4521	0.801
6.48925	0.849
6.5264	0.894
6.56356	0.894
6.60071	0.877
6.63786	0.698
6.67501	0.276
6.71217	0.51
6.74932	0.872
6.78647	0.869
6.82362	0.739
6.86077	0.636
6.89793	0.788
6.93508	0.809
6.97223	0.728
7.00938	0.765
7.04653	0.86
7.08369	0.871
7.12084	0.871
7.15799	0.829
7.19514	0.574
7.23229	0.163
7.26945	0.071
7.3066	0.529
7.34375	0.771
7.3809	0.836
7.41806	0.869
7.45521	0.891
7.49236	0.891
7.52951	0.88
7.56666	0.88
7.60382	0.878
7.64097	0.877
7.67812	0.861
7.71527	0.871
7.75242	0.868
7.78958	0.75
7.82673	0.408
7.86388	0.096
7.90103	0.464
7.93818	0.434
7.97534	0.326
8.01249	0.45
8.04964	0.709
8.08679	0.681
8.12395	0.641
8.1611	0.683
8.19825	0.476
8.2354	0.414
8.27255	0.517
8.30971	0.58
8.34686	0.75
8.38401	0.809
8.42116	0.827
8.45831	0.75
8.49547	0.689
8.53262	0.809
8.56977	0.849
8.60692	0.85
8.64407	0.846
8.68123	0.791
8.71838	0.597
8.75553	0.34
8.79268	0.487
8.82984	0.698
8.86699	0.788
8.90414	0.812
8.94129	0.822
8.97844	0.885
9.0156	0.909
9.05275	0.911
9.0899	0.891
9.12705	0.889
9.1642	0.919
9.20136	0.931
9.23851	0.934
9.27566	0.948
9.31281	0.944
9.34996	0.94
9.38712	0.937
9.42427	0.939
9.46142	0.937
9.49857	0.919
9.53573	0.891
9.57288	0.819
9.61003	0.548
9.64718	0.316
9.68433	0.728
9.72149	0.776
9.75864	0.807
9.79579	0.678
9.83294	0.333
9.87009	0.548
9.90725	0.777
9.9444	0.829
9.98155	0.832
10.0187	0.833
10.0559	0.802
10.093	0.777
10.1302	0.742
10.1673	0.698
10.2045	0.658
10.2416	0.59
10.2788	0.529
10.3159	0.515
10.3531	0.577
10.3902	0.61
10.4274	0.599
10.4645	0.559
10.5017	0.548
10.5388	0.461
10.576	0.173
10.6131	0.062
10.6503	0.316
10.6874	0.545
10.7246	0.618
10.7617	0.638
10.7989	0.709
10.836	0.79
10.8732	0.844
10.9104	0.869
10.9475	0.889
10.9847	0.908
11.0218	0.909
11.059	0.911
11.0961	0.908
11.1333	0.902
11.1704	0.906
11.2076	0.908
11.2447	0.9
11.2819	0.875
11.319	0.84
11.3562	0.777
11.3933	0.678
11.4305	0.59
11.4676	0.459
11.5048	0.338
11.5419	0.259
11.5791	0.217
11.6162	0.267
11.6534	0.427
11.6905	0.507
11.7277	0.507
11.7649	0.423
11.802	0.329
11.8392	0.214
11.8763	0.11
11.9135	0.069
11.9506	0.04
11.9878	0.037
12.0249	0.034
12.0621	0.029
12.0992	0.026
12.1364	0.027
12.1735	0.068
12.2107	0.194
12.2478	0.358
12.285	0.52
12.3221	0.625
12.3593	0.644
12.3964	0.526
12.4336	0.195
12.4707	0.204
12.5079	0.579
12.545	0.666
12.5822	0.737
12.6194	0.751
12.6565	0.75
12.6937	0.659
12.7308	0.521
12.768	0.468
12.8051	0.43
12.8423	0.562
12.8794	0.69
12.9166	0.722
12.9537	0.732
12.9909	0.731
13.028	0.703
13.0652	0.635
13.1023	0.524
13.1395	0.397
13.1766	0.279
13.2138	0.178
13.2509	0.111
13.2881	0.083
13.3252	0.052
13.3624	0.045
13.3995	0.041
13.4367	0.041
13.4738	0.049
13.511	0.104
13.5482	0.243
13.5853	0.458
13.6225	0.611
13.6596	0.729
13.6968	0.791
13.7339	0.804
13.7711	0.829
13.8082	0.843
13.8454	0.858
13.8825	0.878
13.9197	0.885
13.9568	0.894
13.994	0.903
14.0311	0.909
14.0683	0.922
14.1054	0.93
14.1426	0.931
14.1797	0.936
14.2169	0.936
14.254	0.937
14.2912	0.942
14.3283	0.945
14.3655	0.95
14.4027	0.95
14.4398	0.947
14.477	0.947
14.5141	0.954
14.5513	0.951
14.5884	0.95
14.6256	0.953
14.6627	0.953
14.6999	0.953
14.737	0.953
14.7742	0.953
14.8113	0.953
14.8485	0.951
14.8856	0.951
14.9228	0.951
14.9599	0.945
14.9971	0.947
15.0342	0.942
15.0714	0.942
15.1085	0.942
15.1457	0.933
15.1828	0.931
15.22	0.925
15.2571	0.922
15.2943	0.923
15.3315	0.925
15.3686	0.919
15.4058	0.908
15.4429	0.886
15.4801	0.868
15.5172	0.801
15.5544	0.701
15.5915	0.618
15.6287	0.56
15.6658	0.541
15.703	0.577
15.7401	0.625
15.7773	0.718
15.8144	0.782
15.8516	0.841
15.8887	0.863
15.9259	0.881
15.963	0.889
