Infrared Spectrum: O-CYCLOHEXYL PHENOL
Formula: C12 H16 O
CAS: 119-42-6
State: SOLUTION (10% CCl4 FOR 2.5-7.5, 10% CS2 FOR 7.5-16 MICRONS)
Class: COBLENTZ
Instrument: Not specified, most likely a prism, grating, or hybrid spectrometer.
Sampling: TRANSMISSION
Path length: 0.01 CM, 0.01 CM
Resolution: 4
Origin: DOW CHEMICAL COMPANY
MICROMETERS	TRANSMITTANCE
1.997	0.903
2.03712	0.9
2.07724	0.897
2.11736	0.899
2.15748	0.9
2.1976	0.897
2.23772	0.889
2.27784	0.885
2.31796	0.884
2.35808	0.889
2.3982	0.887
2.43832	0.894
2.47844	0.895
2.51856	0.884
2.55867	0.892
2.59879	0.902
2.63891	0.903
2.67903	0.897
2.71915	0.802
2.75927	0.551
2.79939	0.625
2.83951	0.634
2.87963	0.642
2.91975	0.716
2.95987	0.771
2.99999	0.806
3.04011	0.832
3.08023	0.854
3.12035	0.87
3.16047	0.872
3.20059	0.824
3.24071	0.73
3.28083	0.7
3.32095	0.779
3.36107	0.41
3.40119	0.081
3.44131	0.46
3.48143	0.425
3.52155	0.812
3.56167	0.854
3.60178	0.892
3.6419	0.894
3.68202	0.882
3.72214	0.855
3.76226	0.882
3.80238	0.892
3.8425	0.89
3.88262	0.905
3.92274	0.905
3.96286	0.897
4.00298	0.894
4.0431	0.908
4.08322	0.908
4.12334	0.903
4.16346	0.892
4.20358	0.897
4.2437	0.903
4.28382	0.91
4.32394	0.908
4.36406	0.91
4.40418	0.917
4.4443	0.922
4.48442	0.923
4.52454	0.928
4.56466	0.933
4.60478	0.935
4.64489	0.937
4.68501	0.937
4.72513	0.937
4.76525	0.937
4.80537	0.935
4.84549	0.93
4.88561	0.933
4.92573	0.935
4.96585	0.935
5.00597	0.937
5.04609	0.937
5.08621	0.937
5.12633	0.92
5.16645	0.905
5.20657	0.922
5.24669	0.887
5.28681	0.905
5.32693	0.917
5.36705	0.918
5.40717	0.923
5.44729	0.925
5.48741	0.918
5.52753	0.917
5.56765	0.917
5.60777	0.907
5.64789	0.925
5.688	0.928
5.72812	0.93
5.76824	0.933
5.80836	0.915
5.84848	0.905
5.8886	0.905
5.92872	0.894
5.96884	0.905
6.00896	0.9
6.04908	0.9
6.0892	0.877
6.12932	0.817
6.16944	0.645
6.20956	0.548
6.24968	0.432
6.2898	0.44
6.32992	0.544
6.37004	0.554
6.41016	0.491
6.45028	0.503
6.4904	0.582
6.53052	0.604
6.57064	0.582
6.61076	0.417
6.65088	0.302
6.691	0.412
6.73111	0.549
6.77123	0.612
6.81135	0.39
6.85147	0.15
6.89159	0.369
6.93171	0.705
6.97183	0.802
7.01195	0.807
7.05207	0.817
7.09219	0.829
7.13231	0.849
7.17243	0.852
7.21255	0.829
7.25267	0.821
7.29279	0.799
7.33291	0.716
7.37303	0.673
7.41315	0.619
7.45327	0.5
7.49339	0.355
7.53351	0.423
7.57363	0.63
7.61375	0.738
7.65387	0.731
7.69399	0.615
7.73411	0.538
7.77422	0.562
7.81434	0.587
7.85446	0.557
7.89458	0.604
7.9347	0.504
7.97482	0.296
8.01494	0.337
8.05506	0.413
8.09518	0.403
8.1353	0.488
8.17542	0.518
8.21554	0.501
8.25566	0.412
8.29578	0.263
8.3359	0.253
8.37602	0.394
8.41614	0.405
8.45626	0.319
8.49638	0.223
8.5365	0.192
8.57662	0.346
8.61674	0.475
8.65686	0.468
8.69698	0.519
8.7371	0.589
8.77722	0.495
8.81733	0.485
8.85745	0.698
8.89757	0.756
8.93769	0.778
8.97781	0.778
9.01793	0.763
9.05805	0.733
9.09817	0.642
9.13829	0.543
9.17841	0.531
9.21853	0.531
9.25865	0.562
9.29877	0.652
9.33889	0.706
9.37901	0.75
9.41913	0.768
9.45925	0.769
9.49937	0.713
9.53949	0.617
9.57961	0.634
9.61973	0.745
9.65985	0.776
9.69997	0.801
9.74009	0.829
9.78021	0.849
9.82033	0.855
9.86044	0.847
9.90056	0.822
9.94068	0.746
9.9808	0.705
10.0209	0.802
10.061	0.874
10.1012	0.907
10.1413	0.922
10.1814	0.928
10.2215	0.938
10.2616	0.94
10.3018	0.933
10.3419	0.923
10.382	0.917
10.4221	0.93
10.4622	0.94
10.5024	0.94
10.5425	0.932
10.5826	0.92
10.6227	0.908
10.6628	0.889
10.703	0.87
10.7431	0.872
10.7832	0.895
10.8233	0.915
10.8634	0.92
10.9036	0.918
10.9437	0.925
10.9838	0.927
11.0239	0.915
11.064	0.884
11.1042	0.821
11.1443	0.779
11.1844	0.715
11.2245	0.653
11.2646	0.759
11.3048	0.809
11.3449	0.809
11.385	0.788
11.4251	0.764
11.4652	0.735
11.5053	0.672
11.5455	0.639
11.5856	0.663
11.6257	0.708
11.6658	0.716
11.7059	0.723
11.7461	0.731
11.7862	0.738
11.8263	0.728
11.8664	0.579
11.9065	0.45
11.9467	0.504
11.9868	0.675
12.0269	0.804
12.067	0.819
12.1071	0.822
12.1473	0.832
12.1874	0.836
12.2275	0.837
12.2676	0.802
12.3077	0.711
12.3479	0.571
12.388	0.448
12.4281	0.548
12.4682	0.72
12.5083	0.811
12.5485	0.849
12.5886	0.859
12.6287	0.86
12.6688	0.854
12.7089	0.846
12.7491	0.831
12.7892	0.826
12.8293	0.809
12.8694	0.799
12.9095	0.783
12.9497	0.758
12.9898	0.735
13.0299	0.697
13.07	0.678
13.1101	0.634
13.1503	0.556
13.1904	0.45
13.2305	0.306
13.2706	0.147
13.3107	0.057
13.3509	0.009
13.391	0.029
13.4311	0.173
13.4712	0.354
13.5113	0.483
13.5514	0.508
13.5916	0.486
13.6317	0.448
13.6718	0.458
13.7119	0.548
13.752	0.639
13.7922	0.677
13.8323	0.705
13.8724	0.71
13.9125	0.726
13.9526	0.74
13.9928	0.745
14.0329	0.745
14.073	0.74
14.1131	0.721
14.1532	0.697
14.1934	0.683
14.2335	0.672
14.2736	0.668
14.3137	0.658
14.3538	0.655
14.394	0.66
14.4341	0.668
14.4742	0.677
14.5143	0.677
14.5544	0.675
14.5946	0.67
14.6347	0.655
14.6748	0.65
14.7149	0.64
14.755	0.632
14.7952	0.627
14.8353	0.62
14.8754	0.609
14.9155	0.604
14.9556	0.6
14.9958	0.591
15.0359	0.577
15.076	0.569
15.1161	0.557
15.1562	0.543
15.1964	0.531
15.2365	0.514
15.2766	0.5
15.3167	0.49
15.3568	0.486
15.397	0.485
15.4371	0.483
15.4772	0.483
15.5173	0.48
15.5574	0.478
15.5976	0.476
15.6377	0.468
15.6778	0.465
15.7179	0.458
15.758	0.458
15.7981	0.456
15.8383	0.458
15.8784	0.458
15.9185	0.458
15.9586	0.458
