Infrared Spectrum: 1,2-Benzenedioic acid, decyl octyl ester
Formula: C26 H42 O4
CAS: 119-07-3
State: SOLUTION (10% CCl4 FOR 2.7-7.5, CS2 FOR 7.5-26 MICRON) VS SOLVENT
Instrument: DOW KBr FOREPRISM-GRATING
Instrument parameters: BLAZED AT 3.5, 12.0, 20.0 MICRON AND CHANGED AT 5.0, 7.5, 14.9 MICRON
Sampling: TRANSMISSION
Path length: 0.011 CM, 0.011 CM
Resolution: 2
Origin: DOW CHEMICAL COMPANY
1/CM	TRANSMITTANCE
3794	0.858
3785	0.859
3776	0.8597
3767	0.8597
3758	0.8598
3749	0.8601
3740	0.8602
3731	0.8602
3722	0.8599
3713	0.8593
3704	0.8586
3695	0.858
3686	0.8581
3677	0.8582
3668	0.8584
3659	0.8586
3650	0.8593
3641	0.8599
3632	0.8605
3623	0.8614
3614	0.8623
3605	0.8633
3596	0.8642
3587	0.8664
3578	0.8691
3569	0.8724
3560	0.8734
3551	0.8725
3542	0.8715
3533	0.873
3524	0.8747
3515	0.8771
3506	0.8796
3497	0.8813
3488	0.883
3479	0.8843
3470	0.8854
3461	0.8847
3452	0.8795
3443	0.8721
3434	0.8649
3425	0.8608
3416	0.8634
3407	0.8702
3398	0.8775
3389	0.8823
3380	0.8866
3371	0.8901
3362	0.8911
3353	0.8921
3344	0.8934
3335	0.8943
3326	0.895
3317	0.8957
3308	0.8965
3299	0.8968
3290	0.8973
3281	0.8977
3272	0.8985
3263	0.8992
3254	0.8998
3245	0.8999
3236	0.8999
3227	0.9
3218	0.8995
3209	0.8988
3200	0.8977
3191	0.895
3182	0.8925
3173	0.8903
3164	0.8886
3155	0.887
3146	0.8868
3137	0.8863
3128	0.8855
3119	0.8845
3110	0.8828
3101	0.8799
3092	0.8755
3083	0.8686
3074	0.8427
3065	0.7895
3056	0.791
3047	0.8124
3038	0.8225
3029	0.8212
3020	0.8058
3011	0.7983
3002	0.7619
2993	0.6944
2984	0.5916
2975	0.3877
2966	0.13
2957	0.0542
2948	0.064
2939	0.0577
2930	0.0188
2921	0.0141
2912	0.0438
2903	0.1334
2894	0.2361
2885	0.3387
2876	0.3148
2867	0.2052
2858	0.0765
2849	0.0727
2840	0.3788
2831	0.6145
2822	0.6841
2813	0.7245
2804	0.7591
2795	0.7868
2786	0.8041
2777	0.8176
2768	0.8266
2759	0.8337
2750	0.8385
2741	0.8398
2732	0.8383
2723	0.8371
2714	0.8403
2705	0.8443
2696	0.848
2687	0.8496
2678	0.8474
2669	0.8458
2660	0.8451
2651	0.8475
2642	0.8505
2633	0.8531
2624	0.8549
2615	0.8562
2606	0.8574
2597	0.858
2588	0.8587
2579	0.86
2570	0.8614
2561	0.8628
2552	0.8643
2543	0.8658
2534	0.8682
2525	0.8705
2516	0.8728
2507	0.8748
2498	0.8768
2489	0.879
2480	0.8812
2471	0.8831
2462	0.8836
2453	0.8838
2444	0.8821
2435	0.8792
2426	0.8763
2417	0.874
2408	0.8735
2399	0.8732
2390	0.873
2381	0.8739
2372	0.8749
2363	0.8757
2354	0.8757
2345	0.8754
2336	0.8748
2327	0.8739
2318	0.8718
2309	0.8707
2300	0.8708
2291	0.8706
2282	0.8707
2273	0.8712
2264	0.8718
2255	0.8728
2246	0.8737
2237	0.8747
2228	0.8755
2219	0.8763
2210	0.8771
2201	0.878
2192	0.8797
2183	0.881
2174	0.8896
2165	0.8825
2156	0.8806
2147	0.88
2138	0.8793
2129	0.8788
2120	0.8785
2111	0.8782
2102	0.8783
2093	0.8785
2084	0.8792
2075	0.8799
2066	0.88
2057	0.8798
2048	0.8796
2039	0.8792
2030	0.8789
2021	0.8789
2012	0.8788
2003	0.8786
1994	0.8778
1985	0.8785
1976	0.8789
1967	0.8709
1958	0.8643
1949	0.8703
1940	0.8631
1931	0.8564
1922	0.8671
1913	0.8695
1904	0.8703
1895	0.8702
1886	0.872
1877	0.8721
1868	0.8675
1859	0.8657
1850	0.8663
1841	0.8634
1832	0.8484
1823	0.8478
1814	0.8494
1805	0.848
1796	0.8435
1787	0.8328
1778	0.814
1769	0.7795
1760	0.7104
1751	0.5688
1742	0.2364
1733	0.0096
1724	0.0015
1715	0.0141
1706	0.3916
1697	0.591
1688	0.6528
1679	0.7168
1670	0.7675
1661	0.7951
1652	0.8115
1643	0.8214
1634	0.828
1625	0.831
1616	0.831
1607	0.819
1598	0.6678
1589	0.7919
1580	0.6229
1571	0.7846
1562	0.835
1553	0.8518
1544	0.858
1535	0.8525
1526	0.8452
1517	0.8391
1508	0.8285
1499	0.8028
1490	0.6392
1481	0.7057
1472	0.3516
1463	0.3222
1454	0.4148
1445	0.5771
1436	0.6511
1427	0.7625
1418	0.7817
1409	0.7824
1400	0.7558
1391	0.6194
1382	0.5105
1373	0.6316
1364	0.6676
1355	0.6696
1346	0.6826
1337	0.6761
1328	0.593
1319	0.5244
1310	0.3934
1301	0.2113
1292	0.0603
1283	0.0104
1274	0.007
1265	0.0087
1256	0.0358
1247	0.2234
1238	0.3514
1229	0.5688
1220	0.6442
1211	0.6898
1202	0.719
1193	0.7354
1184	0.738
1175	0.7354
1166	0.6924
1157	0.6165
1148	0.4531
1139	0.1934
1130	0.1161
1121	0.0841
1112	0.1277
1103	0.4194
1094	0.6364
1085	0.4588
1076	0.205
1067	0.1761
1058	0.388
1049	0.6089
1040	0.4702
1031	0.619
1022	0.7411
1013	0.7595
1004	0.7693
995	0.7733
986	0.7658
977	0.7287
968	0.6792
959	0.6382
950	0.6216
941	0.7037
932	0.7922
923	0.8145
914	0.8211
905	0.8262
896	0.8218
887	0.8184
878	0.8122
869	0.809
860	0.8131
851	0.8368
842	0.8392
833	0.833
824	0.8337
815	0.8349
806	0.8274
797	0.7628
788	0.7291
779	0.7243
770	0.7098
761	0.6751
752	0.5065
743	0.2907
734	0.4451
725	0.5908
716	0.68
707	0.6007
698	0.6458
689	0.7793
680	0.8595
671	0.8731
662	0.8805
653	0.7914
644	0.8058
635	0.8553
626	0.8614
617	0.8551
608	0.8538
599	0.8556
590	0.8548
581	0.8235
572	0.8008
563	0.8108
554	0.8256
545	0.8328
536	0.831
527	0.8218
518	0.8246
509	0.8283
500	0.8328
491	0.8337
482	0.8275
473	0.8301
464	0.8317
455	0.8321
446	0.8317
437	0.8313
428	0.8313
419	0.832
410	0.8328
401	0.8333
