Infrared Spectrum: Anthranilic acid, N-methyl-,
Formula: C8 H9 N O2
CAS: 119-68-6
State: SOLID (NUJOL MULL)
Melting point: 177 C
Class: COBLENTZ III
Instrument: PERKIN-ELMER 21 (GRATING)
Instrument parameters: FILTER AT ABOUT 10 MICRONS
Resolution: 2
Origin: ABBOTT LABORATORIES
1/CM	TRANSMITTANCE
667	0.6536
676	0.6807
685	0.6822
694	0.6279
703	0.6222
712	0.6527
721	0.6021
730	0.5923
739	0.5001
748	0.1959
757	0.6473
766	0.6778
775	0.6184
784	0.713
793	0.718
802	0.7283
811	0.7233
820	0.6979
829	0.6443
838	0.6501
847	0.6288
856	0.6597
865	0.6147
874	0.5519
883	0.4571
892	0.417
901	0.4188
910	0.5035
919	0.6241
928	0.6648
937	0.6745
946	0.6631
955	0.6732
964	0.6544
973	0.6666
982	0.6759
991	0.6761
1000	0.6734
1009	0.6724
1018	0.6527
1027	0.6127
1036	0.6776
1045	0.6555
1054	0.6561
1063	0.6729
1072	0.6561
1081	0.5391
1090	0.6581
1099	0.6416
1108	0.6219
1117	0.5873
1126	0.5323
1135	0.5238
1144	0.5026
1153	0.3248
1162	0.3196
1171	0.3468
1180	0.601
1189	0.5697
1198	0.4924
1207	0.4163
1216	0.3414
1225	0.234
1234	0.1532
1243	0.1084
1252	0.1096
1261	0.1769
1270	0.3379
1279	0.4803
1288	0.5036
1297	0.5433
1306	0.5454
1315	0.5111
1324	0.4726
1333	0.4723
1342	0.5006
1351	0.4524
1360	0.3932
1369	0.2916
1378	0.4948
1387	0.5035
1396	0.4109
1405	0.4594
1414	0.3707
1423	0.2127
1432	0.1302
1441	0.1367
1450	0.1077
1459	0.1499
1468	0.4152
1477	0.4856
1486	0.475
1495	0.4202
1504	0.3175
1513	0.3965
1522	0.6033
1531	0.5618
1540	0.5443
1549	0.5005
1558	0.4368
1567	0.2818
1576	0.1984
1585	0.3453
1594	0.4837
1603	0.4779
1612	0.4129
1621	0.3378
1630	0.2634
1639	0.1899
1648	0.1458
1657	0.2077
1666	0.3171
1675	0.4739
1684	0.5066
1693	0.6475
1702	0.7093
1711	0.7445
1720	0.7636
1729	0.769
1738	0.7833
1747	0.7895
1756	0.7871
1765	0.784
1774	0.7774
1783	0.7701
1792	0.7704
1801	0.7741
1810	0.7771
1819	0.7734
1828	0.7694
1837	0.7652
1846	0.7612
1855	0.7567
1864	0.7507
1873	0.7435
1882	0.7401
1891	0.7386
1900	0.7307
1909	0.7306
1918	0.7303
1927	0.7317
1936	0.7365
1945	0.7315
1954	0.7258
1963	0.7198
1972	0.7139
1981	0.7083
1990	0.703
1999	0.6984
2008	0.698
2017	0.698
2026	0.6935
2035	0.6873
2044	0.6815
2053	0.6763
2062	0.6721
2071	0.6678
2080	0.6642
2089	0.6608
2098	0.6606
2107	0.6616
2116	0.6588
2125	0.6543
2134	0.6489
2143	0.6437
2152	0.6396
2161	0.6359
2170	0.633
2179	0.6301
2188	0.6281
2197	0.6263
2206	0.6247
2215	0.6216
2224	0.6162
2233	0.6104
2242	0.6037
2251	0.597
2260	0.5902
2269	0.5833
2278	0.5765
2287	0.5694
2296	0.5609
2305	0.5523
2314	0.5474
2323	0.5449
2332	0.5434
2341	0.5427
2350	0.5404
2359	0.5362
2368	0.5311
2377	0.525
2386	0.5187
2395	0.512
2404	0.5052
2413	0.4984
2422	0.4918
2431	0.4852
2440	0.4768
2449	0.4733
2458	0.4727
2467	0.4735
2476	0.4689
2485	0.4589
2494	0.447
2503	0.4362
2512	0.425
2521	0.4123
2530	0.4071
2539	0.4089
2548	0.4176
2557	0.4203
2566	0.419
2575	0.413
2584	0.4036
2593	0.3922
2602	0.3875
2611	0.3919
2620	0.4013
2629	0.4072
2638	0.409
2647	0.4082
2656	0.4042
2665	0.3972
2674	0.3886
2683	0.3861
2692	0.3859
2701	0.3861
2710	0.3821
2719	0.3764
2728	0.3683
2737	0.3558
2746	0.3393
2755	0.3136
2764	0.2852
2773	0.2576
2782	0.218
2791	0.1638
2800	0.0969
2809	0.0306
2818	0.0114
2827	0.0099
2836	0.0086
2845	0.0074
2854	0.0063
2863	0.0057
2872	0.0059
2881	0.0067
2890	0.0083
2899	0.0104
2908	0.0131
2917	0.0161
2926	0.0188
2935	0.0823
2944	0.0949
2953	0.1512
2962	0.2164
2971	0.2536
2980	0.2877
2989	0.3011
2998	0.3115
3007	0.3209
3016	0.3301
3025	0.3424
3034	0.3601
3043	0.3774
3052	0.405
3061	0.4224
3070	0.4322
3079	0.4407
3088	0.4487
3097	0.4565
3106	0.4643
3115	0.4723
3124	0.4795
3133	0.4859
3142	0.4928
3151	0.5005
3160	0.5093
3169	0.5117
3178	0.5149
3187	0.5219
3196	0.5248
3205	0.5259
3214	0.5267
3223	0.5272
3232	0.5272
3241	0.526
3250	0.5242
3259	0.5191
3268	0.5122
3277	0.4986
3286	0.4775
3295	0.4565
3304	0.4356
3313	0.4148
3322	0.3987
3331	0.4005
3340	0.4545
3349	0.5247
3358	0.5697
3367	0.5703
3376	0.569
3385	0.5659
3394	0.5627
3403	0.5599
3412	0.5576
3421	0.5555
3430	0.5535
3439	0.5519
3448	0.551
3457	0.5503
3466	0.5492
3475	0.5477
3484	0.544
3493	0.5401
3502	0.5376
3511	0.5367
3520	0.5362
3529	0.5358
3538	0.5355
3547	0.5351
3556	0.5347
3565	0.534
3574	0.5331
3583	0.5323
3592	0.5314
3601	0.5305
3610	0.5295
3619	0.5284
3628	0.5273
3637	0.5263
3646	0.5252
3655	0.524
3664	0.5227
3673	0.5215
3682	0.5202
3691	0.5188
3700	0.5174
3709	0.5159
3718	0.5144
3727	0.5128
3736	0.5111
3745	0.5095
3754	0.5078
3763	0.5061
3772	0.5042
3781	0.5021
3790	0.5002
3799	0.4981
3808	0.4962
3817	0.4945
3826	0.493
3835	0.4914
3844	0.4899
3853	0.4884
3862	0.4869
3871	0.4854
3880	0.4835
3889	0.4886
3898	0.5038
3907	0.519
3916	0.5313
3925	0.5331
3934	0.5136
3943	0.489
3952	0.4696
3961	0.4662
3970	0.4652
3979	0.4642
3988	0.4632
3997	0.4625
