Infrared Spectrum: Benzophenone
Formula: C13 H10 O
CAS: 119-61-9
State: SOLUTION (10% CCl4 FOR 3800-1330, 10% CS2 FOR 1330-440 CM^-^1)
Melting point: 48.5 C
Boiling point: 305 C AT 760 mmHg
Class: COBLENTZ II
Instrument: DOW KBr FOREPRISM-GRATING
Instrument parameters: BLAZED AT 3.5, 12.0, 20.0 MICRON AND CHANGED AT 5.0, 7.5, 14.9 MICRON
Sampling: TRANSMISSION
Path length: 0.011 CM, 0.011 CM
Resolution: 2
Origin: DOW CHEMICAL COMPANY
1/CM	TRANSMITTANCE
3800	0.871
3791	0.8703
3782	0.8695
3773	0.87
3764	0.8706
3755	0.8728
3746	0.8768
3737	0.875
3728	0.8714
3719	0.8678
3710	0.8675
3701	0.8681
3692	0.8704
3683	0.8727
3674	0.8725
3665	0.871
3656	0.8695
3647	0.8695
3638	0.8708
3629	0.877
3620	0.8784
3611	0.8785
3602	0.8783
3593	0.8781
3584	0.8781
3575	0.8787
3566	0.8793
3557	0.8799
3548	0.8807
3539	0.8813
3530	0.8821
3521	0.883
3512	0.884
3503	0.885
3494	0.8858
3485	0.8866
3476	0.8873
3467	0.8881
3458	0.8889
3449	0.8897
3440	0.8904
3431	0.8911
3422	0.8915
3413	0.8918
3404	0.8921
3395	0.8924
3386	0.8928
3377	0.8931
3368	0.8928
3359	0.8925
3350	0.8925
3341	0.8902
3332	0.8821
3323	0.8473
3314	0.84
3305	0.8587
3296	0.883
3287	0.8888
3278	0.8908
3269	0.8918
3260	0.8901
3251	0.8907
3242	0.8932
3233	0.8941
3224	0.8943
3215	0.8937
3206	0.8928
3197	0.8918
3188	0.8906
3179	0.8834
3170	0.8695
3161	0.8625
3152	0.8695
3143	0.881
3134	0.8813
3125	0.8766
3116	0.8423
3107	0.7411
3098	0.5706
3089	0.621
3080	0.5502
3071	0.4951
3062	0.5915
3053	0.7275
3044	0.6658
3035	0.6365
3026	0.7845
3017	0.8267
3008	0.8409
2999	0.8617
2990	0.8788
2981	0.883
2972	0.8815
2963	0.8882
2954	0.8921
2945	0.8896
2936	0.8833
2927	0.8814
2918	0.8837
2909	0.8847
2900	0.8844
2891	0.8762
2882	0.8673
2873	0.8684
2864	0.8757
2855	0.8821
2846	0.8865
2837	0.8895
2828	0.8923
2819	0.8938
2810	0.8947
2801	0.8961
2792	0.8952
2783	0.8939
2774	0.892
2765	0.8851
2756	0.8782
2747	0.8777
2738	0.8839
2729	0.8892
2720	0.8927
2711	0.8952
2702	0.8971
2693	0.8983
2684	0.8978
2675	0.8967
2666	0.8956
2657	0.8928
2648	0.8901
2639	0.8875
2630	0.8847
2621	0.8832
2612	0.8863
2603	0.8823
2594	0.8767
2585	0.8811
2576	0.8846
2567	0.8868
2558	0.8885
2549	0.8896
2540	0.8904
2531	0.8909
2522	0.8915
2513	0.892
2504	0.8925
2495	0.8928
2486	0.8931
2477	0.8932
2468	0.8931
2459	0.8918
2450	0.8868
2441	0.8741
2432	0.8678
2423	0.8803
2414	0.887
2405	0.8896
2396	0.892
2387	0.8941
2378	0.8952
2369	0.8958
2360	0.8956
2351	0.8951
2342	0.8942
2333	0.8868
2324	0.8845
2315	0.8864
2306	0.8877
2297	0.8887
2288	0.8892
2279	0.889
2270	0.885
2261	0.8852
2252	0.8865
2243	0.8875
2234	0.8878
2225	0.888
2216	0.8889
2207	0.8903
2198	0.892
2189	0.901
2180	0.8982
2171	0.8924
2162	0.893
2153	0.8932
2144	0.8934
2135	0.8935
2126	0.8932
2117	0.8928
2108	0.8924
2099	0.8918
2090	0.8918
2081	0.8917
2072	0.8907
2063	0.8904
2054	0.8901
2045	0.8898
2036	0.8891
2027	0.8882
2018	0.8873
2009	0.8864
2000	0.8847
1991	0.8663
1982	0.8752
1973	0.8344
1964	0.8342
1955	0.8096
1946	0.8805
1937	0.8884
1928	0.867
1919	0.8542
1910	0.8399
1901	0.838
1892	0.8611
1883	0.8675
1874	0.8798
1865	0.887
1856	0.8911
1847	0.8921
1838	0.8791
1829	0.8694
1820	0.8386
1811	0.8134
1802	0.8706
1793	0.8803
1784	0.8655
1775	0.852
1766	0.8628
1757	0.8725
1748	0.8718
1739	0.8591
1730	0.8554
1721	0.8237
1712	0.8015
1703	0.8043
1694	0.7914
1685	0.6814
1676	0.2731
1667	0.0087
1658	0.0148
1649	0.5747
1640	0.6545
1631	0.7321
1622	0.7346
1613	0.7035
1604	0.185
1595	0.4667
1586	0.7224
1577	0.5214
1568	0.7868
1559	0.8084
1550	0.826
1541	0.8464
1532	0.8685
1523	0.8745
1514	0.8612
1505	0.8509
1496	0.8513
1487	0.8363
1478	0.8745
1469	0.8682
1460	0.8218
1451	0.073
1442	0.6676
1433	0.8365
1424	0.85
1415	0.8481
1406	0.8253
1397	0.8021
1388	0.7878
1379	0.8194
1370	0.8306
1361	0.8161
1352	0.811
1343	0.7911
1334	0.7565
1325	0.4292
1316	0.1355
1307	0.2268
1298	0.5381
1289	0.4048
1280	0.0023
1271	0.1292
1262	0.4809
1253	0.4848
1244	0.5947
1235	0.7915
1226	0.7804
1217	0.8267
1208	0.804
1199	0.786
1190	0.8128
1181	0.4167
1172	0.6439
1163	0.7425
1154	0.5287
1145	0.7447
1136	0.7949
1127	0.8518
1118	0.8777
1109	0.8721
1100	0.8678
1091	0.851
1082	0.8283
1073	0.6397
1064	0.8811
1055	0.9018
1046	0.9047
1037	0.8962
1028	0.6364
1019	0.8725
1010	0.8789
1001	0.5341
992	0.8259
983	0.8382
974	0.7895
965	0.8442
956	0.8502
947	0.7345
938	0.2359
929	0.5216
920	0.1407
911	0.679
902	0.8095
893	0.8675
884	0.879
875	0.8371
866	0.8582
857	0.852
848	0.7558
839	0.8482
830	0.8759
821	0.8667
812	0.4
803	0.8213
794	0.8561
785	0.8477
776	0.7834
767	0.282
758	0.5319
749	0.7978
740	0.8124
731	0.7991
722	0.367
713	0.4238
704	0
695	0.0006
686	0.5674
677	0.6978
668	0.7446
659	0.7455
650	0.7401
641	0.0255
632	0.7585
623	0.8026
614	0.8069
605	0.8231
596	0.8296
587	0.8308
578	0.8296
569	0.824
560	0.8238
551	0.8298
542	0.8302
533	0.8321
524	0.8411
515	0.8443
506	0.8443
497	0.844
488	0.8423
479	0.8404
470	0.8382
461	0.8334
452	0.8208
443	0.7901
434	0.7742
425	0.7798
416	0.7828
407	0.7851
398	0.7874
