Infrared Spectrum: Acetamide N-(2-mercaptoethyl)-
Formula: C4 H9 N O S
CAS: 1190-73-4
State: LIQUID (NEAT)
Class: COBLENTZ III
Instrument: PERKIN-ELMER 221 (GRATING)
Instrument parameters: FILTER AT 980 CM^-^1. GRATING 4000-1428 CM^-^1, NaCl PRISM 1428-650 CM^-^1
Path length: CAPILLARY
Resolution: 2
Origin: SOUTHERN RESEARCH INSTITUTE
1/CM	TRANSMITTANCE
635.147	0.7454
644.171	0.7468
653.195	0.7659
662.22	0.7747
671.244	0.7749
680.268	0.772
689.292	0.7675
698.317	0.7628
707.341	0.7623
716.365	0.7718
725.389	0.7867
734.413	0.7949
743.438	0.8034
752.462	0.8304
761.486	0.8755
770.51	0.904
779.535	0.9256
788.559	0.9428
797.583	0.9532
806.607	0.9585
815.631	0.9616
824.656	0.963
833.68	0.9637
842.704	0.9642
851.728	0.9643
860.753	0.9636
869.777	0.9613
878.801	0.9566
887.825	0.9495
896.849	0.9368
905.874	0.9286
914.898	0.9295
923.922	0.9411
932.946	0.946
941.97	0.9352
950.995	0.9234
960.019	0.9169
969.043	0.8965
978.067	0.8519
987.092	0.8245
996.116	0.8409
1005.14	0.8863
1014.16	0.8699
1023.19	0.8304
1032.21	0.8141
1041.24	0.8777
1050.26	0.8853
1059.29	0.8834
1068.31	0.8868
1077.33	0.8723
1086.36	0.8086
1095.38	0.8007
1104.41	0.8651
1113.43	0.922
1122.45	0.9282
1131.48	0.9269
1140.5	0.9224
1149.53	0.9143
1158.55	0.9024
1167.58	0.8879
1176.6	0.8133
1185.62	0.662
1194.65	0.6724
1203.67	0.831
1212.7	0.8303
1221.72	0.7554
1230.75	0.6446
1239.77	0.6663
1248.79	0.708
1257.82	0.6442
1266.84	0.4788
1275.87	0.3768
1284.89	0.3566
1293.92	0.4854
1302.94	0.6679
1311.96	0.7647
1320.99	0.7699
1330.01	0.7576
1339.04	0.6792
1348.06	0.4958
1357.08	0.4111
1366.11	0.4407
1375.13	0.6238
1384.16	0.6536
1393.18	0.6476
1402.21	0.6064
1411.23	0.4582
1420.25	0.4409
1429.28	0.4419
1438.3	0.5061
1447.33	0.5945
1456.35	0.619
1465.38	0.6525
1474.4	0.6479
1483.42	0.6144
1492.45	0.5362
1501.47	0.4499
1510.5	0.3351
1519.52	0.2578
1528.54	0.1732
1537.57	0.127
1546.59	0.1243
1555.62	0.174
1564.64	0.2397
1573.67	0.4344
1582.69	0.5166
1591.71	0.5397
1600.74	0.4882
1609.76	0.408
1618.79	0.2223
1627.81	0.1286
1636.84	0.0781
1645.86	0.0629
1654.88	0.069
1663.91	0.129
1672.93	0.2393
1681.96	0.5581
1690.98	0.722
1700	0.8371
1709.03	0.8577
1718.05	0.879
1727.08	0.8847
1736.1	0.8958
1745.13	0.9004
1754.15	0.9039
1763.17	0.9073
1772.2	0.9149
1781.22	0.9151
1790.25	0.921
1799.27	0.923
1808.3	0.9229
1817.32	0.9225
1826.34	0.9221
1835.37	0.9215
1844.39	0.9203
1853.42	0.9186
1862.44	0.9166
1871.47	0.9154
1880.49	0.9143
1889.51	0.9129
1898.54	0.9114
1907.56	0.9116
1916.59	0.9121
1925.61	0.9127
1934.63	0.9131
1943.66	0.9125
1952.68	0.9111
1961.71	0.9096
1970.73	0.9084
1979.76	0.9079
1988.78	0.908
1997.8	0.9072
2006.83	0.9056
2015.85	0.9048
2024.88	0.9042
2033.9	0.904
2042.93	0.9028
2051.95	0.9015
2060.97	0.9
2070	0.8986
2079.02	0.8992
2088.05	0.9
2097.07	0.9027
2106.09	0.8973
2115.12	0.8955
2124.14	0.8905
2133.17	0.8911
2142.19	0.893
2151.22	0.8943
2160.24	0.8929
2169.26	0.89
2178.29	0.8901
2187.31	0.8905
2196.34	0.8905
2205.36	0.89
2214.39	0.8887
2223.41	0.8874
2232.43	0.8865
2241.46	0.8856
2250.48	0.8854
2259.51	0.8855
2268.53	0.8861
2277.56	0.8854
2286.58	0.8842
2295.6	0.8847
2304.63	0.8849
2313.65	0.8814
2322.68	0.8783
2331.7	0.8771
2340.72	0.8756
2349.75	0.8737
2358.77	0.8724
2367.8	0.8701
2376.82	0.868
2385.85	0.8647
2394.87	0.8609
2403.89	0.8569
2412.92	0.8544
2421.94	0.851
2430.97	0.8456
2439.99	0.8433
2449.02	0.8391
2458.04	0.8327
2467.06	0.8265
2476.09	0.8168
2485.11	0.8092
2494.14	0.8066
2503.16	0.7923
2512.18	0.7846
2521.21	0.7762
2530.23	0.7689
2539.26	0.7662
2548.28	0.7686
2557.31	0.7814
2566.33	0.8094
2575.35	0.8396
2584.38	0.8505
2593.4	0.8504
2602.43	0.8498
2611.45	0.8482
2620.48	0.8481
2629.5	0.8497
2638.52	0.8511
2647.55	0.8511
2656.57	0.8503
2665.6	0.8493
2674.62	0.8473
2683.65	0.8448
2692.67	0.8387
2701.69	0.8365
2710.72	0.8402
2719.74	0.8391
2728.77	0.8309
2737.79	0.8251
2746.81	0.825
2755.84	0.825
2764.86	0.8201
2773.89	0.8067
2782.91	0.8011
2791.94	0.7932
2800.96	0.777
2809.98	0.7628
2819.01	0.747
2828.03	0.7198
2837.06	0.7054
2846.08	0.6864
2855.11	0.6793
2864.13	0.682
2873.15	0.6887
2882.18	0.6944
2891.2	0.6873
2900.23	0.6748
2909.25	0.6455
2918.27	0.5837
2927.3	0.5227
2936.32	0.5409
2945.35	0.5839
2954.37	0.6193
2963.4	0.6205
2972.42	0.6185
2981.44	0.625
2990.47	0.6482
2999.49	0.6633
3008.52	0.6656
3017.54	0.6562
3026.57	0.6424
3035.59	0.627
3044.61	0.6044
3053.64	0.5669
3062.66	0.516
3071.69	0.5064
3080.71	0.5143
3089.73	0.5492
3098.76	0.5787
3107.78	0.595
3116.81	0.6236
3125.83	0.6373
3134.86	0.6398
3143.88	0.6396
3152.9	0.6334
3161.93	0.6127
3170.95	0.5891
3179.98	0.5636
3189	0.5393
3198.03	0.5113
3207.05	0.4856
3216.07	0.4574
3225.1	0.433
3234.12	0.4006
3243.15	0.3672
3252.17	0.3336
3261.2	0.2961
3270.22	0.2705
3279.24	0.2551
3288.27	0.2529
3297.29	0.2615
3306.32	0.2748
3315.34	0.2938
3324.36	0.3144
3333.39	0.3424
3342.41	0.373
3351.44	0.428
3360.46	0.4867
3369.49	0.512
3378.51	0.5489
3387.53	0.5889
3396.56	0.6205
3405.58	0.6444
3414.61	0.6667
3423.63	0.6884
3432.66	0.7224
3441.68	0.7266
3450.7	0.7396
3459.73	0.7503
3468.75	0.7587
3477.78	0.7651
3486.8	0.7692
3495.82	0.7731
3504.85	0.777
3513.87	0.7802
3522.9	0.7832
3531.92	0.7851
3540.95	0.7874
3549.97	0.7944
3558.99	0.7953
3568.02	0.7966
3577.04	0.7986
3586.07	0.8051
3595.09	0.8049
3604.12	0.805
3613.14	0.8062
3622.16	0.8085
3631.19	0.8144
3640.21	0.8175
3649.24	0.8188
3658.26	0.8197
3667.29	0.8199
3676.31	0.8204
3685.33	0.8224
3694.36	0.8222
3703.38	0.8231
3712.41	0.8242
3721.43	0.8254
3730.45	0.8253
3739.48	0.8246
3748.5	0.8239
3757.53	0.8218
3766.55	0.8272
3775.58	0.8241
3784.6	0.8245
3793.62	0.8244
3802.65	0.8204
3811.67	0.8165
3820.7	0.8149
3829.72	0.814
3838.75	0.8137
3847.77	0.8131
3856.79	0.8132
3865.82	0.8138
3874.84	0.8189
3883.87	0.819
3892.89	0.8176
3901.91	0.817
3910.94	0.8176
3919.96	0.8177
3928.99	0.8165
3938.01	0.8152
3947.04	0.8123
3956.06	0.8111
3965.08	0.8127
3974.11	0.8142
3983.13	0.8144
3992.16	0.8136
4001.18	0.8127
