Infrared Spectrum: Cyclopentane, 1,2-dimethyl-,cis-
Formula: C7 H14
CAS: 1192-18-3
State: GAS (30 mmHg, N2 ADDED, TOTAL PRESSURE 600 mmHg)
Class: COBLENTZ
Instrument: DOW KBr FOREPRISM-GRATING
Instrument parameters: GRATING CHANGED AT 5.0, 7.5, 15.0 MICRON
Sampling: TRANSMISSION
Path length: 5 CM
Resolution: 2
Origin: DOW CHEMICAL COMPANY
1/CM	TRANSMITTANCE
457	0.8577
466	0.8563
475	0.8534
484	0.8497
493	0.846
502	0.8457
511	0.8484
520	0.8456
529	0.8444
538	0.8449
547	0.8449
556	0.8452
565	0.8465
574	0.8486
583	0.8517
592	0.857
601	0.8601
610	0.8616
619	0.8626
628	0.8634
637	0.8639
646	0.866
655	0.8683
664	0.8724
673	0.8765
682	0.878
691	0.8795
700	0.8787
709	0.8775
718	0.8753
727	0.8727
736	0.8698
745	0.8677
754	0.8665
763	0.8671
772	0.8686
781	0.8709
790	0.8721
799	0.8738
808	0.8764
817	0.8751
826	0.872
835	0.8694
844	0.8735
853	0.8695
862	0.8667
871	0.8651
880	0.8646
889	0.8663
898	0.8715
907	0.8766
916	0.8799
925	0.8771
934	0.8644
943	0.8453
952	0.8305
961	0.8451
970	0.8659
979	0.8769
988	0.8781
997	0.8739
1006	0.8668
1015	0.8543
1024	0.8493
1033	0.8514
1042	0.8563
1051	0.8628
1060	0.866
1069	0.8458
1078	0.8334
1087	0.8392
1096	0.8586
1105	0.8614
1114	0.8671
1123	0.8759
1132	0.8835
1141	0.8797
1150	0.8743
1159	0.8713
1168	0.8737
1177	0.8744
1186	0.875
1195	0.8758
1204	0.8769
1213	0.8768
1222	0.876
1231	0.8754
1240	0.8724
1249	0.8684
1258	0.8663
1267	0.8634
1276	0.8668
1285	0.8666
1294	0.8644
1303	0.8619
1312	0.859
1321	0.854
1330	0.8452
1339	0.8094
1348	0.767
1357	0.7259
1366	0.6739
1375	0.5424
1384	0.4567
1393	0.5771
1402	0.7745
1411	0.8312
1420	0.8295
1429	0.8194
1438	0.775
1447	0.6506
1456	0.5077
1465	0.501
1474	0.5196
1483	0.6234
1492	0.7375
1501	0.8363
1510	0.8244
1519	0.8508
1528	0.8571
1537	0.8607
1546	0.8569
1555	0.861
1564	0.8695
1573	0.8604
1582	0.8667
1591	0.8675
1600	0.8668
1609	0.864
1618	0.8542
1627	0.8643
1636	0.8517
1645	0.8561
1654	0.8275
1663	0.8653
1672	0.8571
1681	0.8534
1690	0.8658
1699	0.8419
1708	0.8636
1717	0.8495
1726	0.8681
1735	0.8459
1744	0.8635
1753	0.866
1762	0.8612
1771	0.86
1780	0.8688
1789	0.8661
1798	0.868
1807	0.8708
1816	0.8709
1825	0.8699
1834	0.8692
1843	0.8689
1852	0.87
1861	0.8691
1870	0.8691
1879	0.8722
1888	0.872
1897	0.8732
1906	0.8751
1915	0.8704
1924	0.8741
1933	0.8721
1942	0.8727
1951	0.8738
1960	0.8747
1969	0.8761
1978	0.8775
1987	0.8781
1996	0.8787
2005	0.8798
2014	0.8802
2023	0.8799
2032	0.8794
2041	0.8788
2050	0.8783
2059	0.8778
2068	0.8776
2077	0.8773
2086	0.877
2095	0.8768
2104	0.8766
2113	0.8764
2122	0.8763
2131	0.8761
2140	0.8762
2149	0.8762
2158	0.8762
2167	0.8762
2176	0.8762
2185	0.8763
2194	0.8764
2203	0.8765
2212	0.8764
2221	0.8762
2230	0.8762
2239	0.8762
2248	0.8762
2257	0.8768
2266	0.8774
2275	0.8784
2284	0.8799
2293	0.8801
2302	0.8797
2311	0.8778
2320	0.8755
2329	0.8729
2338	0.8748
2347	0.8767
2356	0.8778
2365	0.8779
2374	0.8783
2383	0.8785
2392	0.8783
2401	0.8786
2410	0.8792
2419	0.8801
2428	0.882
2437	0.8828
2446	0.8832
2455	0.8832
2464	0.883
2473	0.8825
2482	0.8819
2491	0.882
2500	0.8835
2509	0.8851
2518	0.884
2527	0.8821
2536	0.8803
2545	0.8785
2554	0.8764
2563	0.8741
2572	0.8718
2581	0.8694
2590	0.868
2599	0.8666
2608	0.8652
2617	0.8637
2626	0.8623
2635	0.8608
2644	0.8594
2653	0.8586
2662	0.8568
2671	0.8496
2680	0.8475
2689	0.8497
2698	0.8558
2707	0.8591
2716	0.8563
2725	0.8482
2734	0.8426
2743	0.8454
2752	0.852
2761	0.8561
2770	0.854
2779	0.8503
2788	0.8465
2797	0.841
2806	0.8314
2815	0.8171
2824	0.7955
2833	0.7703
2842	0.7425
2851	0.6743
2860	0.4414
2869	0.0904
2878	0.0681
2887	0.0956
2896	0.1568
2905	0.1096
2914	0.0847
2923	0.074
2932	0.0556
2941	0.0248
2950	0.0044
2959	0.005
2968	0.0127
2977	0.0376
2986	0.3418
2995	0.5897
3004	0.7576
3013	0.7911
3022	0.8176
3031	0.8366
3040	0.847
3049	0.8543
3058	0.8591
3067	0.8634
3076	0.867
3085	0.8693
3094	0.8706
3103	0.8702
3112	0.8692
3121	0.8678
3130	0.8661
3139	0.8644
3148	0.8632
3157	0.8613
3166	0.8588
3175	0.8574
3184	0.8597
3193	0.8652
3202	0.8706
3211	0.8768
3220	0.8785
3229	0.8785
3238	0.8785
3247	0.8785
3256	0.8831
3265	0.8853
3274	0.8858
3283	0.8859
3292	0.8864
3301	0.8875
3310	0.8882
3319	0.8889
3328	0.8897
3337	0.8913
3346	0.8931
3355	0.8949
3364	0.8967
3373	0.8985
3382	0.8987
3391	0.8976
3400	0.8965
3409	0.8956
3418	0.8948
3427	0.8937
3436	0.8929
3445	0.8922
3454	0.8933
3463	0.8941
3472	0.8939
3481	0.8939
3490	0.8938
3499	0.8936
3508	0.8937
3517	0.8939
3526	0.894
3535	0.8942
3544	0.8943
3553	0.8943
3562	0.8943
3571	0.8941
3580	0.8936
3589	0.8915
3598	0.8888
3607	0.8874
3616	0.8877
3625	0.8893
3634	0.8898
3643	0.8888
3652	0.8873
3661	0.8863
3670	0.8848
3679	0.8871
3688	0.8882
3697	0.8883
3706	0.8882
3715	0.8857
3724	0.879
3733	0.8775
3742	0.891
3751	0.8937
3760	0.8948
3769	0.8927
3778	0.886
3787	0.8869
3796	0.8933
