Infrared Spectrum: Ketone, 2-furyl methyl
Formula: C6 H6 O2
CAS: 1192-62-7
State: SOLUTION (10% CCl4 FOR 3800-1340, 10% CS2 FOR 1340-450 CM^-^1)
Class: COBLENTZ III
Instrument: DOW KBr FOREPRISM-GRATING
Instrument parameters: BLAZED AT 3.5, 12.0, 20.0 MICRON AND CHANGED AT 5.0, 7.5, 14.9 MICRON
Sampling: TRANSMISSION
Path length: 0.011 CM, 0.011 CM
Resolution: 2
Origin: DOW CHEMICAL COMPANY
1/CM	TRANSMITTANCE
3788	0.8918
3779	0.8847
3770	0.882
3761	0.8812
3752	0.8821
3743	0.8853
3734	0.8887
3725	0.8892
3716	0.8834
3707	0.8778
3698	0.8775
3689	0.8668
3680	0.8505
3671	0.8468
3662	0.8534
3653	0.8638
3644	0.8658
3635	0.8652
3626	0.8648
3617	0.8646
3608	0.8645
3599	0.8646
3590	0.8649
3581	0.863
3572	0.8566
3563	0.8556
3554	0.8518
3545	0.8473
3536	0.8452
3527	0.8435
3518	0.8437
3509	0.8443
3500	0.8445
3491	0.846
3482	0.8484
3473	0.8518
3464	0.8545
3455	0.8568
3446	0.8587
3437	0.8602
3428	0.8616
3419	0.8627
3410	0.8636
3401	0.8638
3392	0.8641
3383	0.8625
3374	0.8544
3365	0.8352
3356	0.775
3347	0.7641
3338	0.786
3329	0.8259
3320	0.8471
3311	0.8558
3302	0.8584
3293	0.857
3284	0.8618
3275	0.8593
3266	0.856
3257	0.8553
3248	0.8542
3239	0.8524
3230	0.8507
3221	0.848
3212	0.8451
3203	0.843
3194	0.8421
3185	0.8389
3176	0.832
3167	0.8188
3158	0.7871
3149	0.7421
3140	0.6962
3131	0.7158
3122	0.7324
3113	0.7511
3104	0.7876
3095	0.8087
3086	0.8232
3077	0.8374
3068	0.8374
3059	0.8352
3050	0.8328
3041	0.8278
3032	0.8158
3023	0.7925
3014	0.7665
3005	0.7521
2996	0.7955
2987	0.8128
2978	0.8115
2969	0.7928
2960	0.7874
2951	0.8155
2942	0.8278
2933	0.8296
2924	0.8154
2915	0.8292
2906	0.8458
2897	0.8563
2888	0.8607
2879	0.8628
2870	0.8639
2861	0.853
2852	0.8321
2843	0.8209
2834	0.8389
2825	0.8525
2816	0.8621
2807	0.8702
2798	0.8692
2789	0.8535
2780	0.8582
2771	0.8659
2762	0.8606
2753	0.8521
2744	0.8475
2735	0.8673
2726	0.8725
2717	0.8768
2708	0.8755
2699	0.8694
2690	0.8621
2681	0.8656
2672	0.875
2663	0.8765
2654	0.8744
2645	0.8624
2636	0.8468
2627	0.8436
2618	0.8601
2609	0.87
2600	0.8703
2591	0.8706
2582	0.8704
2573	0.8695
2564	0.8693
2555	0.8755
2546	0.8678
2537	0.8554
2528	0.863
2519	0.8775
2510	0.878
2501	0.8788
2492	0.8718
2483	0.8687
2474	0.867
2465	0.8695
2456	0.8573
2447	0.8546
2438	0.8609
2429	0.8721
2420	0.8746
2411	0.8732
2402	0.8715
2393	0.8616
2384	0.8468
2375	0.8552
2366	0.8666
2357	0.8749
2348	0.8708
2339	0.8708
2330	0.8628
2321	0.8503
2312	0.8555
2303	0.855
2294	0.8559
2285	0.854
2276	0.8578
2267	0.8567
2258	0.8557
2249	0.8591
2240	0.8624
2231	0.8628
2222	0.8707
2213	0.8758
2204	0.8708
2195	0.8639
2186	0.8649
2177	0.8668
2168	0.8675
2159	0.8743
2150	0.8758
2141	0.8752
2132	0.8741
2123	0.8723
2114	0.8618
2105	0.8545
2096	0.8565
2087	0.8571
2078	0.8518
2069	0.8584
2060	0.8607
2051	0.8614
2042	0.8578
2033	0.8611
2024	0.8601
2015	0.8504
2006	0.858
1997	0.8564
1988	0.8518
1979	0.8465
1970	0.8489
1961	0.8521
1952	0.8544
1943	0.8553
1934	0.8561
1925	0.8534
1916	0.8453
1907	0.8207
1898	0.8101
1889	0.8268
1880	0.8381
1871	0.8383
1862	0.8427
1853	0.8417
1844	0.8423
1835	0.8488
1826	0.8501
1817	0.8463
1808	0.8339
1799	0.8128
1790	0.7918
1781	0.7758
1772	0.7691
1763	0.7151
1754	0.751
1745	0.7626
1736	0.7581
1727	0.7215
1718	0.6544
1709	0.5635
1700	0.3194
1691	0.0058
1682	0.0009
1673	0.0289
1664	0.3438
1655	0.5379
1646	0.5698
1637	0.6116
1628	0.6828
1619	0.701
1610	0.6731
1601	0.603
1592	0.4003
1583	0.34
1574	0.0717
1565	0.1319
1556	0.2724
1547	0.353
1538	0.4487
1529	0.5151
1520	0.5468
1511	0.5623
1502	0.5807
1493	0.6054
1484	0.3997
1475	0.0499
1466	0.0078
1457	0.3708
1448	0.5415
1439	0.5534
1430	0.4527
1421	0.3216
1412	0.4966
1403	0.5701
1394	0.1735
1385	0.3482
1376	0.5562
1367	0.3687
1358	0.0627
1349	0.5965
1340	0.7017
1331	0.7811
1322	0.815
1313	0.7832
1304	0.7341
1295	0.2449
1286	0.1498
1277	0.0249
1268	0.4662
1259	0.7168
1250	0.8323
1241	0.8705
1232	0.857
1223	0.3582
1214	0.791
1205	0.8896
1196	0.8967
1187	0.8715
1178	0.884
1169	0.271
1160	0.073
1151	0.7096
1142	0.8748
1133	0.9061
1124	0.9016
1115	0.8489
1106	0.5449
1097	0.2184
1088	0.6719
1079	0.7887
1070	0.504
1061	0.6736
1052	0.8499
1043	0.8545
1034	0.7828
1025	0.4531
1016	0.2368
1007	0.205
998	0.5672
989	0.7991
980	0.8258
971	0.7321
962	0.4703
953	0.5438
944	0.6898
935	0.8543
926	0.8836
917	0.829
908	0.6332
899	0.1249
890	0.7117
881	0.0508
872	0.6915
863	0.7507
854	0.7375
845	0.7458
836	0.7101
827	0.4354
818	0.8047
809	0.8685
800	0.8745
791	0.8599
782	0.8001
773	0.5494
764	0.239
755	0.0077
746	0.3418
737	0.7953
728	0.8617
719	0.8925
710	0.902
701	0.9111
692	0.9121
683	0.9053
674	0.9071
665	0.8973
656	0.8136
647	0.8361
638	0.8232
629	0.3609
620	0.3104
611	0.7507
602	0.6327
593	0.4075
584	0.88
575	0.9192
566	0.9273
557	0.915
548	0.7982
539	0.7428
530	0.8868
521	0.9108
512	0.9112
503	0.8633
494	0.744
485	0.8627
476	0.8941
467	0.8998
458	0.9012
