Infrared Spectrum: P-FLUOROBENZONITRILE
Formula: C7 H4 F N
CAS: 1194-02-1
State: LIQUID
Melting point: 32-34 C
Class: COBLENTZ
Instrument: Not specified, most likely a prism, grating, or hybrid spectrometer.
Sampling: TRANSMISSION
Path length: 0.003 CM
Resolution: 4
Origin: WYANDOTTE CHEMICALS CORP., WYANDOTTE, MICHIGAN, USA
MICROMETERS	TRANSMITTANCE
2.109	0.938
2.14889	0.961
2.18879	0.975
2.22868	0.95
2.26857	0.948
2.30846	0.958
2.34836	0.953
2.38825	0.927
2.42814	0.935
2.46804	0.943
2.50793	0.941
2.54782	0.948
2.58771	0.953
2.62761	0.941
2.6675	0.965
2.70739	0.966
2.74729	0.956
2.78718	0.95
2.82707	0.938
2.86696	0.936
2.90686	0.93
2.94675	0.912
2.98664	0.907
3.02654	0.941
3.06643	0.925
3.10632	0.892
3.14621	0.822
3.18611	0.767
3.226	0.477
3.26589	0.477
3.30579	0.8
3.34568	0.782
3.38557	0.878
3.42546	0.875
3.46536	0.882
3.50525	0.89
3.54514	0.913
3.58503	0.88
3.62493	0.887
3.66482	0.907
3.70471	0.922
3.74461	0.915
3.7845	0.897
3.82439	0.91
3.86428	0.913
3.90418	0.8
3.94407	0.847
3.98396	0.905
4.02386	0.9
4.06375	0.868
4.10364	0.827
4.14353	0.837
4.18343	0.864
4.22332	0.854
4.26321	0.82
4.30311	0.852
4.343	0.887
4.38289	0.898
4.42278	0.9
4.46268	0.873
4.50257	0.764
4.54246	0.424
4.58236	0.363
4.62225	0.84
4.66214	0.882
4.70203	0.932
4.74193	0.938
4.78182	0.933
4.82171	0.917
4.86161	0.867
4.9015	0.867
4.94139	0.898
4.98128	0.915
5.02118	0.913
5.06107	0.86
5.10096	0.897
5.14086	0.888
5.18075	0.873
5.22064	0.757
5.26053	0.625
5.30043	0.689
5.34032	0.837
5.38021	0.903
5.42011	0.897
5.46	0.888
5.49989	0.908
5.53978	0.878
5.57968	0.854
5.61957	0.762
5.65946	0.779
5.69936	0.852
5.73925	0.859
5.77914	0.764
5.81903	0.761
5.85893	0.787
5.89882	0.761
5.93871	0.746
5.97861	0.666
6.0185	0.611
6.05839	0.688
6.09828	0.683
6.13818	0.58
6.17807	0.119
6.21796	0.124
6.25786	0.446
6.29775	0.56
6.33764	0.621
6.37753	0.701
6.41743	0.744
6.45732	0.737
6.49721	0.658
6.5371	0.48
6.577	0.147
6.61689	0.126
6.65678	0.145
6.69668	0.474
6.73657	0.696
6.77646	0.777
6.81635	0.784
6.85625	0.797
6.89614	0.8
6.93603	0.791
6.97593	0.752
7.01582	0.625
7.05571	0.344
7.0956	0.462
7.1355	0.703
7.17539	0.777
7.21528	0.779
7.25518	0.736
7.29507	0.691
7.33496	0.757
7.37485	0.804
7.41475	0.824
7.45464	0.835
7.49453	0.804
7.53443	0.772
7.57432	0.721
7.61421	0.679
7.6541	0.577
7.694	0.451
7.73389	0.412
7.77378	0.391
7.81368	0.431
7.85357	0.477
7.89346	0.333
7.93335	0.137
7.97325	0.102
8.01314	0.097
8.05303	0.094
8.09293	0.097
8.13282	0.106
8.17271	0.175
8.2126	0.349
8.2525	0.535
8.29239	0.608
8.33228	0.507
8.37218	0.64
8.41207	0.653
8.45196	0.582
8.49185	0.597
8.53175	0.434
8.57164	0.131
8.61153	0.164
8.65143	0.467
8.69132	0.701
8.73121	0.749
8.7711	0.786
8.811	0.787
8.85089	0.772
8.89078	0.724
8.93068	0.686
8.97057	0.65
9.01046	0.442
9.05035	0.162
9.09025	0.351
9.13014	0.573
9.17003	0.684
9.20992	0.757
9.24982	0.782
9.28971	0.802
9.3296	0.814
9.3695	0.82
9.40939	0.825
9.44928	0.827
9.48917	0.83
9.52907	0.832
9.56896	0.834
9.60885	0.835
9.64875	0.829
9.68864	0.812
9.72853	0.777
9.76842	0.65
9.80832	0.466
9.84821	0.547
9.8881	0.721
9.928	0.784
9.96789	0.809
10.0078	0.829
10.0477	0.822
10.0876	0.819
10.1275	0.81
10.1674	0.789
10.2072	0.772
10.2471	0.751
10.287	0.728
10.3269	0.708
10.3668	0.691
10.4067	0.689
10.4466	0.691
10.4865	0.683
10.5264	0.665
10.5663	0.653
10.6062	0.646
10.6461	0.663
10.686	0.686
10.7259	0.716
10.7657	0.747
10.8056	0.759
10.8455	0.769
10.8854	0.781
10.9253	0.779
10.9652	0.781
11.0051	0.776
11.045	0.767
11.0849	0.764
11.1248	0.751
11.1647	0.733
11.2046	0.711
11.2445	0.689
11.2844	0.679
11.3242	0.665
11.3641	0.66
11.404	0.641
11.4439	0.623
11.4838	0.595
11.5237	0.538
11.5636	0.487
11.6035	0.391
11.6434	0.275
11.6833	0.179
11.7232	0.124
11.7631	0.096
11.803	0.101
11.8429	0.092
11.8827	0.094
11.9226	0.089
11.9625	0.092
12.0024	0.101
12.0423	0.135
12.0822	0.165
12.1221	0.207
12.162	0.225
12.2019	0.23
12.2418	0.227
12.2817	0.245
12.3216	0.318
12.3615	0.437
12.4014	0.527
12.4412	0.592
12.4811	0.658
12.521	0.694
12.5609	0.724
12.6008	0.739
12.6407	0.756
12.6806	0.769
12.7205	0.776
12.7604	0.787
12.8003	0.792
12.8402	0.784
12.8801	0.779
12.92	0.751
12.9599	0.711
12.9997	0.757
13.0396	0.779
13.0795	0.799
13.1194	0.802
13.1593	0.802
13.1992	0.809
13.2391	0.81
13.279	0.807
13.3189	0.8
13.3588	0.784
13.3987	0.766
13.4386	0.762
13.4785	0.764
13.5184	0.772
13.5582	0.782
13.5981	0.792
13.638	0.799
13.6779	0.805
13.7178	0.809
13.7577	0.807
13.7976	0.804
13.8375	0.8
13.8774	0.799
13.9173	0.791
13.9572	0.772
13.9971	0.746
14.037	0.698
14.0769	0.635
14.1167	0.63
14.1566	0.651
14.1965	0.669
14.2364	0.674
14.2763	0.658
14.3162	0.651
14.3561	0.621
14.396	0.595
14.4359	0.547
14.4758	0.485
14.5157	0.394
14.5556	0.328
14.5955	0.253
14.6354	0.233
14.6752	0.228
14.7151	0.238
14.755	0.27
14.7949	0.333
14.8348	0.431
14.8747	0.538
14.9146	0.615
14.9545	0.665
14.9944	0.696
15.0343	0.721
15.0742	0.733
15.1141	0.737
15.154	0.754
15.1939	0.772
15.2337	0.789
15.2736	0.8
15.3135	0.807
15.3534	0.81
15.3933	0.81
15.4332	0.809
15.4731	0.799
15.513	0.784
15.5529	0.781
15.5928	0.787
15.6327	0.794
15.6726	0.8
15.7125	0.807
15.7524	0.81
15.7922	0.8
15.8321	0.805
15.872	0.809
15.9119	0.8
15.9518	0.794
15.9917	0.799
16.0316	0.797
