Infrared Spectrum: BENZONITRILE, 2,6-DICHLORO-
Formula: C7 H3 Cl2 N
CAS: 1194-65-6
State: SOLID (KBr DISC)
Melting point: 145 C
Class: COBLENTZ III
Instrument: PERKIN-ELMER 180
Sampling: TRANSMISSION
Resolution: 4
Origin: DOW CHEMICAL COMPANY
1/CM	TRANSMITTANCE
246.946	0.648
256.365	0.7399
265.783	0.83
275.202	0.892
284.621	0.942
294.04	0.961
303.458	0.97
312.877	0.976
322.296	0.982
331.715	0.984
341.133	0.966
350.552	0.991
359.971	0.996
369.39	1.003
378.808	0.998
388.227	0.983
397.646	0.897
407.065	0.949
416.483	0.975
425.902	0.989
435.321	0.994
444.739	0.989
454.158	0.984
463.577	0.983
472.996	0.981
482.414	0.978
491.833	0.974
501.252	0.971
510.671	0.974
520.089	0.973
529.508	0.969
538.927	0.9171
548.346	0.959
557.764	0.98
567.183	0.978
576.602	0.976
586.02	0.976
595.439	0.976
604.858	0.973
614.277	0.975
623.695	0.973
633.114	0.973
642.533	0.97
651.952	0.969
661.37	0.971
670.789	0.969
680.208	0.966
689.627	0.961
699.045	0.955
708.464	0.925
717.883	0.961
727.302	0.957
736.72	0.949
746.139	0.941
755.558	0.932
764.976	0.9
774.395	0.841
783.814	0.441
793.233	0.8
802.651	0.8011
812.07	0.96
821.489	0.96
830.908	0.959
840.326	0.959
849.745	0.956
859.164	0.954
868.583	0.952
878.001	0.949
887.42	0.947
896.839	0.942
906.257	0.935
915.676	0.936
925.095	0.931
934.514	0.929
943.932	0.926
953.351	0.919
962.77	0.919
972.189	0.914
981.607	0.89
991.026	0.908
1000.44	0.894
1009.86	0.887
1019.28	0.884
1028.7	0.882
1038.12	0.879
1047.54	0.875
1056.96	0.869
1066.38	0.865
1075.79	0.859
1085.21	0.851
1094.63	0.813
1104.05	0.818
1113.47	0.85
1122.89	0.853
1132.31	0.853
1141.73	0.851
1151.14	0.844
1160.56	0.839
1169.98	0.838
1179.4	0.832
1188.82	0.801
1198.24	0.5093
1207.66	0.848
1217.08	0.852
1226.49	0.846
1235.91	0.843
1245.33	0.837
1254.75	0.835
1264.17	0.827
1273.59	0.831
1283.01	0.83
1292.43	0.825
1301.84	0.821
1311.26	0.815
1320.68	0.816
1330.1	0.814
1339.52	0.81
1348.94	0.806
1358.36	0.801
1367.78	0.797
1377.19	0.792
1386.61	0.783
1396.03	0.779
1405.45	0.765
1414.87	0.745
1424.29	0.6489
1433.71	0.6859
1443.13	0.797
1452.54	0.79
1461.96	0.787
1471.38	0.781
1480.8	0.787
1490.22	0.785
1499.64	0.779
1509.06	0.778
1518.48	0.775
1527.89	0.769
1537.31	0.759
1546.73	0.739
1556.15	0.677
1565.57	0.6209
1574.99	0.686
1584.41	0.752
1593.83	0.757
1603.24	0.751
1612.66	0.74
1622.08	0.738
1631.5	0.739
1640.92	0.739
1650.34	0.739
1659.76	0.74
1669.18	0.739
1678.59	0.734
1688.01	0.726
1697.43	0.732
1706.85	0.734
1716.27	0.733
1725.69	0.731
1735.11	0.727
1744.52	0.726
1753.94	0.726
1763.36	0.721
1772.78	0.718
1782.2	0.717
1791.62	0.716
1801.04	0.706
1810.46	0.704
1819.87	0.707
1829.29	0.706
1838.71	0.703
1848.13	0.699
1857.55	0.697
1866.97	0.695
1876.39	0.689
1885.81	0.679
1895.22	0.685
1904.64	0.684
1914.06	0.682
1923.48	0.679
1932.9	0.676
1942.32	0.672
1951.74	0.668
1961.16	0.661
1970.57	0.662
1979.99	0.663
1989.41	0.661
1998.83	0.663
2008.25	0.662
2017.67	0.66
2027.09	0.6565
2036.51	0.6555
2045.92	0.652
2055.34	0.6495
2064.76	0.6475
2074.18	0.644
2083.6	0.6415
2093.02	0.6395
2102.44	0.6355
2111.86	0.633
2121.27	0.6295
2130.69	0.6275
2140.11	0.6255
2149.53	0.621
2158.95	0.619
2168.37	0.6155
2177.79	0.613
2187.21	0.6095
2196.62	0.6055
2206.04	0.5985
2215.46	0.5945
2224.88	0.5627
2234.3	0.5905
2243.72	0.598
2253.14	0.5935
2262.56	0.589
2271.97	0.588
2281.39	0.5865
2290.81	0.583
2300.23	0.58
2309.65	0.578
2319.07	0.575
2328.49	0.573
2337.91	0.5715
2347.32	0.569
2356.74	0.5665
2366.16	0.564
2375.58	0.561
2385	0.559
2394.42	0.557
2403.84	0.5535
2413.26	0.551
2422.67	0.5495
2432.09	0.547
2441.51	0.544
2450.93	0.542
2460.35	0.539
2469.77	0.536
2479.19	0.533
2488.61	0.531
2498.02	0.5295
2507.44	0.527
2516.86	0.5235
2526.28	0.519
2535.7	0.518
2545.12	0.517
2554.54	0.5145
2563.95	0.5105
2573.37	0.509
2582.79	0.5075
2592.21	0.504
2601.63	0.501
2611.05	0.499
2620.47	0.4965
2629.89	0.494
2639.3	0.492
2648.72	0.491
2658.14	0.489
2667.56	0.4875
2676.98	0.484
2686.4	0.4825
2695.82	0.4805
2705.24	0.477
2714.65	0.4755
2724.07	0.4745
2733.49	0.472
2742.91	0.469
2752.33	0.467
2761.75	0.4635
2771.17	0.462
2780.59	0.461
2790	0.4595
2799.42	0.457
2808.84	0.454
2818.26	0.45
2827.68	0.448
2837.1	0.4465
2846.52	0.444
2855.94	0.4415
2865.35	0.44
2874.77	0.4385
2884.19	0.436
2893.61	0.4335
2903.03	0.4315
2912.45	0.428
2921.87	0.426
2931.29	0.424
2940.7	0.422
2950.12	0.4215
2959.54	0.4195
2968.96	0.4166
2978.38	0.4125
2987.8	0.4105
2997.22	0.409
3006.64	0.407
3016.05	0.406
3025.47	0.4045
3034.89	0.402
3044.31	0.3995
3053.73	0.3975
3063.15	0.393
3072.57	0.3895
3081.99	0.3722
3091.4	0.3645
3100.82	0.3855
3110.24	0.3845
3119.66	0.382
3129.08	0.379
3138.5	0.376
3147.92	0.377
3157.34	0.378
3166.75	0.376
3176.17	0.373
3185.59	0.371
3195.01	0.37
3204.43	0.368
3213.85	0.366
3223.27	0.364
3232.69	0.362
3242.1	0.359
3251.52	0.357
3260.94	0.3555
3270.36	0.352
3279.78	0.35
3289.2	0.349
3298.62	0.346
3308.03	0.3435
3317.45	0.3415
3326.87	0.337
3336.29	0.335
3345.71	0.332
3355.13	0.3295
3364.55	0.3261
3373.97	0.3225
3383.38	0.32
3392.8	0.317
3402.22	0.315
3411.64	0.313
3421.06	0.3105
3430.48	0.308
3439.9	0.307
3449.32	0.306
3458.73	0.304
3468.15	0.3035
3477.57	0.303
3486.99	0.302
3496.41	0.301
3505.83	0.301
3515.25	0.3005
3524.67	0.3
3534.08	0.3005
3543.5	0.301
3552.92	0.301
3562.34	0.301
3571.76	0.301
3581.18	0.302
3590.6	0.302
3600.02	0.302
3609.43	0.302
3618.85	0.3015
3628.27	0.301
3637.69	0.3005
3647.11	0.3
3656.53	0.2995
3665.95	0.299
3675.37	0.299
3684.78	0.297
3694.2	0.297
3703.62	0.296
3713.04	0.295
3722.46	0.2945
3731.88	0.294
3741.3	0.2925
3750.72	0.2911
3760.13	0.289
3769.55	0.288
3778.97	0.287
3788.39	0.2855
3797.81	0.283
3807.23	0.283
3816.65	0.2815
3826.07	0.281
3835.48	0.279
3844.9	0.2785
3854.32	0.2771
3863.74	0.2755
3873.16	0.2745
3882.58	0.273
3892	0.2725
3901.42	0.272
3910.83	0.2701
3920.25	0.269
3929.67	0.268
3939.09	0.267
3948.51	0.265
3957.93	0.265
3967.35	0.2631
3976.77	0.262
3986.18	0.261
3995.6	0.261
