Infrared Spectrum: FENCHONE
Formula: C10 H16 O
CAS: 1195-79-5
State: LIQUID (NEAT)
Boiling point: 194 C
Class: COBLENTZ III
Instrument: CARY 90 (GRATING)
Instrument parameters: ORDER CHANGES: 3000, 2000, 1200 CM^-^1
Sampling: TRANSMISSION
Path length: CAPILLARY
Resolution: 2
Origin: WESTERN REGIONAL RES. USDA
1/CM	TRANSMITTANCE
3904	0.9548
3895	0.9556
3886	0.9565
3877	0.9574
3868	0.9585
3859	0.9593
3850	0.9593
3841	0.9592
3832	0.9588
3823	0.9583
3814	0.9593
3805	0.9613
3796	0.9639
3787	0.9668
3778	0.9681
3769	0.9687
3760	0.9683
3751	0.9673
3742	0.9659
3733	0.9639
3724	0.9618
3715	0.96
3706	0.958
3697	0.9558
3688	0.9536
3679	0.9506
3670	0.9473
3661	0.9425
3652	0.94
3643	0.9393
3634	0.9431
3625	0.9458
3616	0.948
3607	0.9483
3598	0.9443
3589	0.9396
3580	0.9348
3571	0.9301
3562	0.9284
3553	0.9295
3544	0.9299
3535	0.9285
3526	0.9261
3517	0.9201
3508	0.9099
3499	0.8812
3490	0.8037
3481	0.801
3472	0.8471
3463	0.8973
3454	0.9262
3445	0.932
3436	0.9354
3427	0.938
3418	0.9392
3409	0.9397
3400	0.94
3391	0.9403
3382	0.9412
3373	0.9424
3364	0.9443
3355	0.9461
3346	0.947
3337	0.9478
3328	0.9486
3319	0.9465
3310	0.9442
3301	0.9427
3292	0.9412
3283	0.9396
3274	0.9385
3265	0.9377
3256	0.9365
3247	0.9348
3238	0.9327
3229	0.9296
3220	0.9256
3211	0.9203
3202	0.9127
3193	0.9049
3184	0.8964
3175	0.8917
3166	0.8907
3157	0.8943
3148	0.8994
3139	0.9068
3130	0.9123
3121	0.9168
3112	0.9188
3103	0.9194
3094	0.9165
3085	0.9094
3076	0.9001
3067	0.8899
3058	0.8778
3049	0.8528
3040	0.8104
3031	0.7338
3022	0.6825
3013	0.419
3004	0.0889
2995	0.0107
2986	0.0104
2977	0.0103
2968	0.0105
2959	0.0105
2950	0.0107
2941	0.0105
2932	0.0112
2923	0.0825
2914	0.0866
2905	0.0831
2896	0.0713
2887	0.0497
2878	0.0196
2869	0.185
2860	0.6249
2851	0.7608
2842	0.8134
2833	0.8221
2824	0.8511
2815	0.8799
2806	0.8956
2797	0.9061
2788	0.9133
2779	0.917
2770	0.9181
2761	0.9168
2752	0.9139
2743	0.8992
2734	0.9063
2725	0.9189
2716	0.9259
2707	0.9325
2698	0.9381
2689	0.9428
2680	0.9466
2671	0.9481
2662	0.9496
2653	0.9503
2644	0.9503
2635	0.9504
2626	0.9506
2617	0.9509
2608	0.9513
2599	0.9518
2590	0.9527
2581	0.9534
2572	0.9542
2563	0.9548
2554	0.9555
2545	0.9561
2536	0.9568
2527	0.9578
2518	0.9583
2509	0.9578
2500	0.9571
2491	0.9563
2482	0.954
2473	0.9514
2464	0.9492
2455	0.9494
2446	0.9499
2437	0.9499
2428	0.9497
2419	0.9478
2410	0.9445
2401	0.947
2392	0.9521
2383	0.9557
2374	0.9584
2365	0.959
2356	0.9575
2347	0.9554
2338	0.9537
2329	0.9525
2320	0.9514
2311	0.9505
2302	0.9501
2293	0.9495
2284	0.948
2275	0.9477
2266	0.9505
2257	0.9541
2248	0.957
2239	0.9573
2230	0.9575
2221	0.9574
2212	0.9565
2203	0.9546
2194	0.9528
2185	0.9516
2176	0.9512
2167	0.9555
2158	0.9573
2149	0.9561
2140	0.9531
2131	0.9545
2122	0.9559
2113	0.9575
2104	0.959
2095	0.9587
2086	0.9578
2077	0.9552
2068	0.9462
2059	0.9387
2050	0.9338
2041	0.9336
2032	0.9364
2023	0.9393
2014	0.9428
2005	0.9465
1996	0.9618
1987	0.9667
1978	0.9643
1969	0.9556
1960	0.9447
1951	0.9363
1942	0.9396
1933	0.943
1924	0.9458
1915	0.9493
1906	0.9539
1897	0.9599
1888	0.9541
1879	0.9544
1870	0.9556
1861	0.9348
1852	0.8875
1843	0.9036
1834	0.9075
1825	0.8778
1816	0.8492
1807	0.8937
1798	0.8606
1789	0.7589
1780	0.6324
1771	0.3572
1762	0.129
1753	0.0735
1744	0.0051
1735	0.0039
1726	0.1054
1717	0.3744
1708	0.622
1699	0.64
1690	0.7697
1681	0.8592
1672	0.8598
1663	0.84
1654	0.8417
1645	0.8575
1636	0.8591
1627	0.8592
1618	0.8581
1609	0.8596
1600	0.8607
1591	0.8711
1582	0.8937
1573	0.9093
1564	0.9132
1555	0.8996
1546	0.8713
1537	0.9033
1528	0.9136
1519	0.9134
1510	0.8912
1501	0.8471
1492	0.5542
1483	0.3549
1474	0.394
1465	0.0918
1456	0.0753
1447	0.1502
1438	0.3229
1429	0.6464
1420	0.7664
1411	0.8042
1402	0.8133
1393	0.8017
1384	0.5115
1375	0.2834
1366	0.6812
1357	0.35
1348	0.7865
1339	0.7994
1330	0.5874
1321	0.8209
1312	0.6407
1303	0.8392
1294	0.8171
1285	0.4343
1276	0.7878
1267	0.7774
1258	0.7357
1249	0.8119
1240	0.6951
1231	0.7494
1222	0.7069
1213	0.7274
1204	0.7381
1195	0.8078
1186	0.8543
1177	0.8682
1168	0.806
1159	0.7528
1150	0.6697
1141	0.8265
1132	0.8615
1123	0.8492
1114	0.7186
1105	0.5965
1096	0.4919
1087	0.8307
1078	0.8361
1069	0.8036
1060	0.7449
1051	0.823
1042	0.7888
1033	0.6555
1024	0.0084
1015	0.0687
1006	0.2964
997	0.3772
988	0.3868
979	0.5796
970	0.8158
961	0.8121
952	0.3466
943	0.6281
934	0.4457
925	0.2817
916	0.7591
907	0.8654
898	0.8727
889	0.8633
880	0.7793
871	0.8878
862	0.8945
853	0.8892
844	0.8628
835	0.645
826	0.4696
817	0.579
808	0.7926
799	0.8616
790	0.8747
781	0.8748
772	0.8335
763	0.8816
754	0.8911
745	0.8845
736	0.884
727	0.8808
718	0.8482
709	0.8155
700	0.8558
691	0.8615
682	0.8598
673	0.8525
664	0.8101
655	0.7006
646	0.8278
637	0.8325
628	0.8323
619	0.8311
610	0.8285
601	0.8238
592	0.7832
583	0.8189
574	0.8203
565	0.8209
556	0.819
547	0.8151
538	0.8056
529	0.7745
520	0.5338
511	0.6248
502	0.599
493	0.7112
