Infrared Spectrum: Purine, 2-amino-6-methylthio-
Formula: C6 H7 N5 S
CAS: 1198-47-6
State: SOLID (1 mg / 650 mg KBr DISC)
Class: COBLENTZ III
Instrument: PERKIN-ELMER 21 (GRATING)
Instrument parameters: FILTER CHANGE ABOUT 1075 CM^-^1
Sampling: TRANSMISSION
Resolution: 2
Origin: SOUTHERN RESEARCH INSTITUTE
1/CM	TRANSMITTANCE
605.456	0.3589
614.493	0.3613
623.531	0.3817
632.568	0.4956
641.606	0.5374
650.643	0.564
659.681	0.5667
668.718	0.5571
677.756	0.5428
686.793	0.525
695.831	0.5038
704.868	0.4841
713.906	0.4612
722.943	0.3837
731.981	0.3338
741.018	0.3046
750.056	0.2967
759.093	0.2925
768.131	0.2697
777.168	0.2963
786.206	0.4065
795.243	0.4101
804.281	0.3748
813.318	0.2904
822.356	0.2863
831.393	0.324
840.431	0.349
849.468	0.3843
858.506	0.4155
867.543	0.4223
876.581	0.4162
885.618	0.3753
894.656	0.3165
903.693	0.1489
912.731	0.1484
921.768	0.196
930.806	0.3118
939.843	0.3024
948.881	0.3161
957.918	0.3326
966.956	0.3706
975.993	0.3765
985.031	0.312
994.068	0.2612
1003.11	0.2941
1012.14	0.3169
1021.18	0.2527
1030.22	0.2297
1039.26	0.4098
1048.29	0.3884
1057.33	0.513
1066.37	0.5369
1075.41	0.5057
1084.44	0.4828
1093.48	0.4676
1102.52	0.4638
1111.56	0.4473
1120.59	0.4293
1129.63	0.4022
1138.67	0.4046
1147.71	0.4189
1156.74	0.3962
1165.78	0.337
1174.82	0.2775
1183.86	0.1914
1192.89	0.1485
1201.93	0.1312
1210.97	0.1292
1220.01	0.128
1229.04	0.1016
1238.08	0.0606
1247.12	0.0197
1256.16	0.0232
1265.19	0.0845
1274.23	0.2976
1283.27	0.3176
1292.31	0.2858
1301.34	0.2495
1310.38	0.2998
1319.42	0.3987
1328.46	0.3355
1337.49	0.2463
1346.53	0.1548
1355.57	0.0781
1364.61	0.1026
1373.64	0.1266
1382.68	0.1033
1391.72	0.1597
1400.76	0.2279
1409.79	0.2905
1418.83	0.2693
1427.87	0.2233
1436.91	0.1785
1445.94	0.1436
1454.98	0.1419
1464.02	0.1525
1473.06	0.146
1482.09	0.0749
1491.13	0.059
1500.17	0.1019
1509.21	0.2192
1518.24	0.2321
1527.28	0.1573
1536.32	0.0744
1545.36	0.0289
1554.39	0.0003
1563.43	0.003
1572.47	0.0067
1581.51	0.0017
1590.54	0.0004
1599.58	0.0024
1608.62	0.0092
1617.66	0.0141
1626.69	0.0345
1635.73	0.0552
1644.77	0.1291
1653.81	0.1468
1662.84	0.1994
1671.88	0.2788
1680.92	0.3712
1689.96	0.439
1698.99	0.485
1708.03	0.5262
1717.07	0.5536
1726.11	0.5658
1735.14	0.5732
1744.18	0.5808
1753.22	0.5833
1762.26	0.5824
1771.29	0.5794
1780.33	0.576
1789.37	0.5718
1798.41	0.5698
1807.44	0.5672
1816.48	0.5653
1825.52	0.5634
1834.56	0.564
1843.59	0.5648
1852.63	0.5684
1861.67	0.5752
1870.71	0.5837
1879.74	0.592
1888.78	0.5983
1897.82	0.6072
1906.86	0.6162
1915.89	0.6243
1924.93	0.6326
1933.97	0.6404
1943.01	0.6476
1952.04	0.6533
1961.08	0.6588
1970.12	0.6624
1979.16	0.6644
1988.19	0.6652
1997.23	0.6652
2006.27	0.6649
2015.31	0.6639
2024.34	0.6628
2033.38	0.6617
2042.42	0.6606
2051.46	0.6588
2060.49	0.6567
2069.53	0.6543
2078.57	0.6516
2087.61	0.648
2096.64	0.6415
2105.68	0.6341
2114.72	0.6249
2123.76	0.6133
2132.79	0.6029
2141.83	0.5935
2150.87	0.5844
2159.91	0.5748
2168.94	0.5651
2177.98	0.5549
2187.02	0.5448
2196.06	0.5348
2205.09	0.5239
2214.13	0.5127
2223.17	0.5014
2232.21	0.4903
2241.24	0.4791
2250.28	0.4676
2259.32	0.4571
2268.36	0.4473
2277.39	0.4362
2286.43	0.4247
2295.47	0.4129
2304.51	0.4012
2313.54	0.3896
2322.58	0.3782
2331.62	0.3696
2340.66	0.3627
2349.69	0.3567
2358.73	0.3531
2367.77	0.3494
2376.81	0.3441
2385.84	0.3365
2394.88	0.3285
2403.92	0.3202
2412.96	0.3126
2421.99	0.3048
2431.03	0.2967
2440.07	0.2884
2449.11	0.2783
2458.14	0.2682
2467.18	0.2565
2476.22	0.249
2485.26	0.243
2494.29	0.2381
2503.33	0.2329
2512.37	0.2269
2521.4	0.2203
2530.44	0.2182
2539.48	0.2203
2548.52	0.2238
2557.55	0.2269
2566.59	0.2282
2575.63	0.227
2584.67	0.2228
2593.7	0.218
2602.74	0.2129
2611.78	0.2075
2620.82	0.2025
2629.85	0.1968
2638.89	0.1904
2647.93	0.1833
2656.97	0.1761
2666	0.1696
2675.04	0.1633
2684.08	0.1603
2693.12	0.1617
2702.15	0.1614
2711.19	0.1597
2720.23	0.1568
2729.27	0.1536
2738.3	0.1497
2747.34	0.1465
2756.38	0.1448
2765.42	0.146
2774.45	0.1506
2783.49	0.1577
2792.53	0.1657
2801.57	0.176
2810.6	0.1864
2819.64	0.1985
2828.68	0.2105
2837.72	0.2164
2846.75	0.2157
2855.79	0.2103
2864.83	0.2028
2873.87	0.1939
2882.9	0.1845
2891.94	0.1668
2900.98	0.1567
2910.02	0.1556
2919.05	0.1534
2928.09	0.1448
2937.13	0.1366
2946.17	0.132
2955.2	0.132
2964.24	0.1343
2973.28	0.1395
2982.32	0.1463
2991.35	0.1487
3000.39	0.1503
3009.43	0.1472
3018.47	0.1392
3027.5	0.13
3036.54	0.1205
3045.58	0.1103
3054.62	0.102
3063.65	0.0999
3072.69	0.1005
3081.73	0.1007
3090.77	0.1011
3099.8	0.1025
3108.84	0.1068
3117.88	0.1126
3126.92	0.1153
3135.95	0.1163
3144.99	0.1167
3154.03	0.1167
3163.07	0.1188
3172.1	0.124
3181.14	0.1314
3190.18	0.139
3199.22	0.1467
3208.25	0.1567
3217.29	0.1648
3226.33	0.1667
3235.37	0.1646
3244.4	0.1546
3253.44	0.1421
3262.48	0.1281
3271.52	0.112
3280.55	0.0944
3289.59	0.0874
3298.63	0.0891
3307.67	0.0929
3316.7	0.0986
3325.74	0.1045
3334.78	0.1104
3343.82	0.1166
3352.85	0.1227
3361.89	0.1298
3370.93	0.1362
3379.97	0.1542
3389	0.1717
3398.04	0.1879
3407.08	0.1937
3416.12	0.1968
3425.15	0.1972
3434.19	0.2036
3443.23	0.219
3452.27	0.244
3461.3	0.2736
3470.34	0.3215
3479.38	0.371
3488.42	0.4217
3497.45	0.4717
3506.49	0.5138
3515.53	0.5413
3524.57	0.5626
3533.6	0.5817
3542.64	0.5983
3551.68	0.6109
3560.72	0.6231
3569.75	0.6428
3578.79	0.6712
3587.83	0.6997
3596.87	0.714
3605.9	0.7224
3614.94	0.7283
3623.98	0.7333
3633.02	0.7378
3642.05	0.7419
3651.09	0.7439
3660.13	0.7448
3669.17	0.7448
3678.2	0.744
3687.24	0.743
3696.28	0.7414
3705.32	0.7398
3714.35	0.7383
3723.39	0.7369
3732.43	0.7355
3741.47	0.7341
3750.5	0.7316
3759.54	0.7283
3768.58	0.7247
3777.62	0.7209
3786.65	0.7173
3795.69	0.7138
3804.73	0.7105
3813.77	0.7077
3822.8	0.7049
3831.84	0.7023
3840.88	0.6999
3849.92	0.6975
3858.95	0.6953
3867.99	0.6934
3877.03	0.6914
3886.07	0.6891
3895.1	0.6869
3904.14	0.6846
3913.18	0.6824
3922.22	0.6802
3931.25	0.6778
3940.29	0.6751
3949.33	0.6738
3958.37	0.6737
3967.4	0.6741
3976.44	0.6756
3985.48	0.6779
3994.52	0.6808
4003.55	0.685
4012.59	0.6888
4021.63	0.6846
4030.67	0.6837
4039.7	0.6891
4048.74	0.7004
4057.78	0.7206
