Infrared Spectrum: BENZENE, 1,2,4-TRICHLORO-
Formula: C6 H3 Cl3
CAS: 120-82-1
State: SOLUTION (10% IN CCl4 FOR 3800-1300, 10% IN CS2 FOR 1300-650, AND 10% CCl4 FOR 650-250 CM^-^1) VERSUS SOLVENT
Boiling point: 213 C
Class: COBLENTZ III
Instrument: PERKIN-ELMER 521 (GRATING)
Instrument parameters: FILTERS AT 3150, 2500, 2000, 1150, 700, 410; GRATING CHANGES AT 2000, 630 CM^-^1
Sampling: TRANSMISSION
Path length: 0.011, 0.011, AND 0.012 CM (CsBr CELL)
Resolution: 4
Origin: DOW CORNING CORP.
1/CM	TRANSMITTANCE
247.268	0.771
256.211	0.773
265.153	0.778
274.096	0.783
283.038	0.785
291.981	0.79
300.923	0.801
309.866	0.815
318.808	0.831
327.751	0.846
336.693	0.851
345.636	0.851
354.578	0.851
363.521	0.851
372.463	0.853
381.406	0.85
390.348	0.855
399.291	0.811
408.234	0.844
417.176	0.855
426.119	0.843
435.061	0.794
444.004	0.447
452.946	0.813
461.889	0.6961
470.831	0.82
479.774	0.82
488.716	0.827
497.659	0.841
506.601	0.843
515.544	0.837
524.486	0.836
533.429	0.831
542.371	0.811
551.314	0.481
560.257	0.775
569.199	0.5152
578.142	0.2745
587.084	0.7939
596.027	0.824
604.969	0.832
613.912	0.851
622.854	0.867
631.797	0.883
640.739	0.888
649.682	0.881
658.624	0.871
667.567	0.8571
676.509	0.7312
685.452	0.815
694.395	0.874
703.337	0.886
712.28	0.895
721.222	0.891
730.165	0.885
739.107	0.89
748.05	0.893
756.992	0.893
765.935	0.891
774.877	0.888
783.82	0.864
792.762	0.818
801.705	0.681
810.647	0.033
819.59	0.3023
828.532	0.7799
837.475	0.879
846.418	0.878
855.36	0.799
864.303	0.4562
873.245	0.6141
882.188	0.883
891.13	0.911
900.073	0.919
909.015	0.925
917.958	0.919
926.9	0.914
935.843	0.895
944.785	0.8879
953.728	0.919
962.67	0.918
971.613	0.907
980.555	0.911
989.498	0.911
998.441	0.907
1007.38	0.898
1016.33	0.883
1025.27	0.7162
1034.21	0.0606
1043.15	0.832
1052.1	0.851
1061.04	0.834
1069.98	0.815
1078.92	0.783
1087.87	0.5197
1096.81	0.2708
1105.75	0.754
1114.69	0.6622
1123.64	0.4259
1132.58	0.571
1141.52	0.6551
1150.46	0.7431
1159.41	0.8319
1168.35	0.879
1177.29	0.9069
1186.23	0.918
1195.18	0.914
1204.12	0.905
1213.06	0.9
1222	0.89
1230.95	0.841
1239.89	0.6673
1248.83	0.7939
1257.77	0.831
1266.72	0.881
1275.66	0.888
1284.6	0.883
1293.54	0.876
1302.49	0.867
1311.43	0.858
1320.37	0.848
1329.31	0.837
1338.26	0.827
1347.2	0.792
1356.14	0.6841
1365.08	0.609
1374.03	0.374
1382.97	0.576
1391.91	0.8059
1400.85	0.82
1409.8	0.742
1418.74	0.428
1427.68	0.752
1436.62	0.759
1445.57	0.6022
1454.51	0.0001
1463.45	0.325
1472.39	0.7889
1481.34	0.789
1490.28	0.722
1499.22	0.7681
1508.16	0.86
1517.11	0.864
1526.05	0.862
1534.99	0.851
1543.93	0.811
1552.88	0.653
1561.82	0.534
1570.76	0.4559
1579.71	0.7569
1588.65	0.817
1597.59	0.832
1606.53	0.831
1615.48	0.818
1624.42	0.813
1633.36	0.834
1642.3	0.846
1651.25	0.846
1660.19	0.844
1669.13	0.843
1678.07	0.846
1687.02	0.844
1695.96	0.843
1704.9	0.841
1713.84	0.834
1722.79	0.817
1731.73	0.78
1740.67	0.797
1749.61	0.815
1758.56	0.844
1767.5	0.848
1776.44	0.855
1785.38	0.864
1794.33	0.86
1803.27	0.857
1812.21	0.858
1821.15	0.865
1830.1	0.865
1839.04	0.867
1847.98	0.865
1856.92	0.864
1865.87	0.855
1874.81	0.837
1883.75	0.794
1892.69	0.858
1901.64	0.869
1910.58	0.869
1919.52	0.872
1928.46	0.872
1937.41	0.872
1946.35	0.872
1955.29	0.871
1964.23	0.872
1973.18	0.874
1982.12	0.874
1991.06	0.872
2000	0.879
2008.95	0.885
2017.89	0.886
2026.83	0.888
2035.77	0.89
2044.72	0.89
2053.66	0.89
2062.6	0.89
2071.54	0.89
2080.49	0.89
2089.43	0.89
2098.37	0.888
2107.31	0.886
2116.26	0.886
2125.2	0.885
2134.14	0.879
2143.08	0.8847
2152.03	0.883
2160.97	0.8791
2169.91	0.879
2178.85	0.879
2187.8	0.879
2196.74	0.8829
2205.68	0.883
2214.62	0.8849
2223.57	0.881
2232.51	0.883
2241.45	0.883
2250.39	0.883
2259.34	0.8839
2268.28	0.8812
2277.22	0.8786
2286.16	0.879
2295.11	0.881
2304.05	0.8859
2312.99	0.8872
2321.94	0.886
2330.88	0.883
2339.82	0.883
2348.76	0.885
2357.71	0.885
2366.65	0.883
2375.59	0.883
2384.53	0.883
2393.48	0.883
2402.42	0.8822
2411.36	0.879
2420.3	0.8818
2429.25	0.883
2438.19	0.883
2447.13	0.883
2456.07	0.883
2465.02	0.8807
2473.96	0.881
2482.9	0.8781
2491.84	0.878
2500.79	0.876
2509.73	0.8753
2518.67	0.874
2527.61	0.8767
2536.56	0.878
2545.5	0.878
2554.44	0.878
2563.38	0.8787
2572.33	0.878
2581.27	0.878
2590.21	0.878
2599.15	0.876
2608.1	0.8776
2617.04	0.878
2625.98	0.8776
2634.92	0.8774
2643.87	0.8753
2652.81	0.876
2661.75	0.874
2670.69	0.8726
2679.64	0.8724
2688.58	0.869
2697.52	0.8674
2706.46	0.8726
2715.41	0.876
2724.35	0.876
2733.29	0.878
2742.23	0.878
2751.18	0.878
2760.12	0.8774
2769.06	0.8724
2778	0.8734
2786.95	0.871
2795.89	0.867
2804.83	0.8605
2813.77	0.862
2822.72	0.8663
2831.66	0.8713
2840.6	0.872
2849.54	0.869
2858.49	0.869
2867.43	0.871
2876.37	0.8695
2885.31	0.869
2894.26	0.8655
2903.2	0.8565
2912.14	0.853
2921.08	0.85
2930.03	0.8507
2938.97	0.8572
2947.91	0.862
2956.85	0.86
2965.8	0.8647
2974.74	0.8695
2983.68	0.874
2992.62	0.874
3001.57	0.8713
3010.51	0.869
3019.45	0.871
3028.39	0.876
3037.34	0.876
3046.28	0.874
3055.22	0.8713
3064.17	0.8666
3073.11	0.841
3082.05	0.8346
3090.99	0.8102
3099.94	0.8053
3108.88	0.8507
3117.82	0.869
3126.76	0.872
3135.71	0.8712
3144.65	0.874
3153.59	0.876
3162.53	0.88
3171.48	0.8813
3180.42	0.888
3189.36	0.888
3198.3	0.8893
3207.25	0.89
3216.19	0.891
3225.13	0.8909
3234.07	0.891
3243.02	0.891
3251.96	0.891
3260.9	0.891
3269.84	0.8904
3278.79	0.89
3287.73	0.888
3296.67	0.888
3305.61	0.888
3314.56	0.885
3323.5	0.885
3332.44	0.883
3341.38	0.8818
3350.33	0.881
3359.27	0.883
3368.21	0.8828
3377.15	0.881
3386.1	0.881
3395.04	0.881
3403.98	0.8792
3412.92	0.881
3421.87	0.883
3430.81	0.881
3439.75	0.879
3448.69	0.881
3457.64	0.879
3466.58	0.879
3475.52	0.879
3484.46	0.881
3493.41	0.881
3502.35	0.881
3511.29	0.881
3520.23	0.879
3529.18	0.8791
3538.12	0.8799
3547.06	0.8791
3556	0.883
3564.95	0.885
3573.89	0.885
3582.83	0.881
3591.77	0.883
3600.72	0.8849
3609.66	0.8821
3618.6	0.886
3627.54	0.888
3636.49	0.888
3645.43	0.888
3654.37	0.888
3663.31	0.886
3672.26	0.886
3681.2	0.884
3690.14	0.8851
3699.08	0.888
3708.03	0.886
3716.97	0.886
3725.91	0.886
3734.85	0.886
3743.8	0.885
3752.74	0.884
3761.68	0.879
3770.62	0.879
3779.57	0.883
3788.51	0.886
