Infrared Spectrum: Piperonyl sulfoxide
Formula: C18 H28 O3 S
CAS: 120-62-7
State: SOLUTION (10% CCl4 FOR 3800-1333, 10% CS2 FOR 1333-400 CM^-^1)
Boiling point: 163 C (DECOMPOSES)
Class: COBLENTZ III
Instrument: DOW KBr FOREPRISM-GRATING
Instrument parameters: BLAZED AT 3.5, 12.0, 20.0 MICRON AND CHANGED AT 5.0, 7.5, 14.9 MICRON
Sampling: TRANSMISSION
Path length: 0.011 CM, 0.011 CM
Resolution: 2
Origin: DOW CHEMICAL COMPANY
1/CM	TRANSMITTANCE
3802	0.9251
3793	0.9255
3784	0.9238
3775	0.9231
3766	0.9246
3757	0.925
3748	0.9257
3739	0.9264
3730	0.9268
3721	0.9223
3712	0.9182
3703	0.9192
3694	0.9162
3685	0.8918
3676	0.8882
3667	0.9041
3658	0.9119
3649	0.9151
3640	0.9171
3631	0.9204
3622	0.9227
3613	0.9227
3604	0.9213
3595	0.9199
3586	0.9197
3577	0.922
3568	0.9236
3559	0.9232
3550	0.9198
3541	0.919
3532	0.9179
3523	0.9156
3514	0.9147
3505	0.914
3496	0.9137
3487	0.9133
3478	0.913
3469	0.9129
3460	0.9129
3451	0.9131
3442	0.9139
3433	0.9166
3424	0.92
3415	0.9239
3406	0.9277
3397	0.9299
3388	0.9316
3379	0.9327
3370	0.9341
3361	0.9334
3352	0.9345
3343	0.9356
3334	0.9364
3325	0.9371
3316	0.9375
3307	0.9377
3298	0.9361
3289	0.9338
3280	0.9315
3271	0.9296
3262	0.9266
3253	0.9238
3244	0.9209
3235	0.9189
3226	0.915
3217	0.9136
3208	0.9106
3199	0.9097
3190	0.9077
3181	0.9058
3172	0.9048
3163	0.9049
3154	0.9036
3145	0.9009
3136	0.8999
3127	0.8971
3118	0.8937
3109	0.8897
3100	0.8852
3091	0.8791
3082	0.8551
3073	0.8472
3064	0.8455
3055	0.8389
3046	0.8069
3037	0.7828
3028	0.7718
3019	0.7237
3010	0.7236
3001	0.7113
2992	0.6342
2983	0.4929
2974	0.2897
2965	0.1332
2956	0.1559
2947	0.1606
2938	0.042
2929	0.0309
2920	0.0634
2911	0.1313
2902	0.2002
2893	0.2689
2884	0.3109
2875	0.2406
2866	0.2392
2857	0.144
2848	0.447
2839	0.7077
2830	0.7605
2821	0.7898
2812	0.8086
2803	0.8236
2794	0.8277
2785	0.7881
2776	0.7429
2767	0.8247
2758	0.8503
2749	0.8613
2740	0.863
2731	0.8642
2722	0.8672
2713	0.8716
2704	0.8745
2695	0.8734
2686	0.8711
2677	0.8698
2668	0.8743
2659	0.8807
2650	0.8844
2641	0.8857
2632	0.8846
2623	0.8817
2614	0.8814
2605	0.8817
2596	0.8831
2587	0.8842
2578	0.8851
2569	0.8858
2560	0.8868
2551	0.8879
2542	0.8889
2533	0.8899
2524	0.8913
2515	0.8926
2506	0.8941
2497	0.8951
2488	0.8959
2479	0.8981
2470	0.8999
2461	0.9013
2452	0.9016
2443	0.9003
2434	0.9002
2425	0.9011
2416	0.9016
2407	0.9014
2398	0.9
2389	0.8952
2380	0.8948
2371	0.8988
2362	0.899
2353	0.9053
2344	0.9063
2335	0.9041
2326	0.9049
2317	0.8968
2308	0.8935
2299	0.8924
2290	0.8965
2281	0.8995
2272	0.8991
2263	0.8958
2254	0.8948
2245	0.8997
2236	0.8995
2227	0.8972
2218	0.8951
2209	0.8964
2200	0.8975
2191	0.8966
2182	0.8971
2173	0.8986
2164	0.8977
2155	0.898
2146	0.8981
2137	0.8976
2128	0.8974
2119	0.8952
2110	0.8925
2101	0.8894
2092	0.8871
2083	0.8857
2074	0.8819
2065	0.8752
2056	0.8756
2047	0.8731
2038	0.8758
2029	0.8796
2020	0.8841
2011	0.8859
2002	0.8858
1993	0.89
1984	0.8899
1975	0.8893
1966	0.8899
1957	0.9063
1948	0.8933
1939	0.8936
1930	0.8945
1921	0.8957
1912	0.8899
1903	0.8915
1894	0.8903
1885	0.8749
1876	0.8577
1867	0.8484
1858	0.8609
1849	0.8636
1840	0.8584
1831	0.8631
1822	0.8764
1813	0.8847
1804	0.8875
1795	0.8904
1786	0.8914
1777	0.8853
1768	0.8812
1759	0.8747
1750	0.8667
1741	0.872
1732	0.8696
1723	0.8564
1714	0.8532
1705	0.8629
1696	0.8741
1687	0.8755
1678	0.8828
1669	0.8883
1660	0.8967
1651	0.9091
1642	0.9174
1633	0.8881
1624	0.8555
1615	0.8146
1606	0.7481
1597	0.8197
1588	0.7929
1579	0.8014
1570	0.784
1561	0.7456
1552	0.7173
1543	0.6971
1534	0.7046
1525	0.7024
1516	0.6466
1507	0.0316
1498	0.3029
1489	0.0251
1480	0.4555
1471	0.4408
1462	0.3766
1453	0.317
1444	0.0794
1435	0.5377
1426	0.7362
1417	0.7676
1408	0.7618
1399	0.7576
1390	0.8127
1381	0.6141
1372	0.6576
1363	0.6431
1354	0.6984
1345	0.7705
1336	0.7762
1327	0.7685
1318	0.768
1309	0.74
1300	0.7359
1291	0.7408
1282	0.7092
1273	0.6622
1264	0.4183
1255	0.044
1246	0.0382
1237	0.2557
1228	0.5417
1219	0.6467
1210	0.6558
1201	0.4949
1192	0.3773
1183	0.5929
1174	0.7775
1165	0.8462
1156	0.8553
1147	0.8541
1138	0.7992
1129	0.6691
1120	0.6725
1111	0.646
1102	0.5531
1093	0.6376
1084	0.6675
1075	0.5646
1066	0.3821
1057	0.1478
1048	0.0218
1039	0.0321
1030	0.2384
1021	0.4289
1012	0.6178
1003	0.661
994	0.6546
985	0.7976
976	0.8478
967	0.8441
958	0.7776
949	0.4295
940	0.5069
931	0.2629
922	0.6673
913	0.802
904	0.8275
895	0.8264
886	0.8174
877	0.733
868	0.669
859	0.6881
850	0.6957
841	0.8417
832	0.8394
823	0.6765
814	0.4209
805	0.4842
796	0.798
787	0.8159
778	0.5384
769	0.8005
760	0.8669
751	0.8816
742	0.8771
733	0.8494
724	0.7283
715	0.8228
706	0.8681
697	0.8452
688	0.8706
679	0.8548
670	0.8701
661	0.914
652	0.869
643	0.8848
634	0.8936
625	0.9095
616	0.8881
607	0.8712
598	0.8595
589	0.9287
580	0.9421
571	0.954
562	0.9538
553	0.9539
544	0.9447
535	0.9243
526	0.9327
517	0.9389
508	0.9378
499	0.9258
490	0.9134
481	0.9087
472	0.9001
463	0.8793
454	0.8667
