Infrared Spectrum: 2-METHYLBENZOTHIAZOLE
Formula: C8 H7 N S
CAS: 120-75-2
Boiling point: 128 C AT 22 mmHg
Class: COBLENTZ
Instrument: Not specified, most likely a prism, grating, or hybrid spectrometer.
Sampling: TRANSMISSION
Resolution: 4
Origin: WYANDOTTE CHEMICALS CORP., WYANDOTTE, MICHIGAN, USA
MICROMETERS	TRANSMITTANCE
2.014	0.971
2.05486	0.967
2.09571	0.964
2.13657	0.965
2.17742	0.969
2.21828	0.945
2.25913	0.957
2.29999	0.955
2.34084	0.94
2.3817	0.95
2.42256	0.942
2.46341	0.945
2.50427	0.942
2.54512	0.947
2.58598	0.96
2.62683	0.954
2.66769	0.957
2.70854	0.955
2.7494	0.95
2.79026	0.942
2.83111	0.916
2.87197	0.901
2.91282	0.903
2.95368	0.901
2.99453	0.896
3.03539	0.911
3.07625	0.904
3.1171	0.894
3.15796	0.86
3.19881	0.84
3.23967	0.775
3.28052	0.578
3.32138	0.739
3.36223	0.756
3.40309	0.773
3.44395	0.785
3.4848	0.829
3.52566	0.821
3.56651	0.86
3.60737	0.875
3.64822	0.882
3.68908	0.875
3.72993	0.884
3.77079	0.899
3.81165	0.906
3.8525	0.899
3.89336	0.903
3.93421	0.906
3.97507	0.896
4.01592	0.892
4.05678	0.904
4.09763	0.896
4.13849	0.901
4.17935	0.904
4.2202	0.904
4.26106	0.911
4.30191	0.933
4.34277	0.94
4.38362	0.92
4.42448	0.909
4.46533	0.921
4.50619	0.914
4.54705	0.913
4.5879	0.93
4.62876	0.925
4.66961	0.913
4.71047	0.923
4.75132	0.918
4.79218	0.925
4.83304	0.923
4.87389	0.918
4.91475	0.925
4.9556	0.92
4.99646	0.914
5.03731	0.911
5.07817	0.911
5.11902	0.913
5.15988	0.886
5.20074	0.867
5.24159	0.875
5.28245	0.855
5.3233	0.891
5.36416	0.88
5.40501	0.889
5.44587	0.904
5.48672	0.886
5.52758	0.865
5.56844	0.874
5.60929	0.841
5.65015	0.863
5.691	0.904
5.73186	0.899
5.77271	0.889
5.81357	0.87
5.85442	0.845
5.89528	0.823
5.93614	0.855
5.97699	0.85
6.01785	0.845
6.0587	0.843
6.09956	0.819
6.14041	0.807
6.18127	0.795
6.22213	0.656
6.26298	0.768
6.30384	0.753
6.34469	0.726
6.38555	0.698
6.4264	0.734
6.46726	0.491
6.50811	0.141
6.54897	0.343
6.58983	0.523
6.63068	0.556
6.67154	0.619
6.71239	0.688
6.75325	0.69
6.7941	0.629
6.83496	0.341
6.87581	0.443
6.91667	0.253
6.95753	0.081
6.99838	0.399
7.03924	0.583
7.08009	0.685
7.12095	0.736
7.1618	0.755
7.20266	0.755
7.24351	0.647
7.28437	0.552
7.32523	0.743
7.36608	0.789
7.40694	0.794
7.44779	0.797
7.48865	0.802
7.5295	0.797
7.57036	0.736
7.61121	0.34
7.65207	0.615
7.69293	0.727
7.73378	0.724
7.77464	0.687
7.81549	0.579
7.85635	0.688
7.8972	0.773
7.93806	0.773
7.97892	0.702
8.01977	0.44
8.06063	0.25
8.10148	0.717
8.14234	0.768
8.18319	0.789
8.22405	0.79
8.2649	0.784
8.30576	0.775
8.34662	0.75
8.38747	0.664
8.42833	0.323
8.46918	0.171
8.51004	0.151
8.55089	0.171
8.59175	0.319
8.6326	0.187
8.67346	0.414
8.71432	0.489
8.75517	0.627
8.79603	0.675
8.83688	0.562
8.87774	0.528
8.91859	0.717
8.95945	0.763
9.0003	0.763
9.04116	0.746
9.08202	0.763
9.12287	0.767
9.16373	0.767
9.20458	0.76
9.24544	0.748
9.28629	0.697
9.32715	0.576
9.368	0.401
9.40886	0.574
9.44972	0.712
9.49057	0.746
9.53143	0.748
9.57228	0.748
9.61314	0.741
9.65399	0.731
9.69485	0.704
9.73571	0.673
9.77656	0.63
9.81742	0.465
9.85827	0.455
9.89913	0.617
9.93998	0.693
9.98084	0.67
10.0217	0.595
10.0625	0.532
10.1034	0.595
10.1443	0.695
10.1851	0.734
10.226	0.76
10.2668	0.775
10.3077	0.789
10.3485	0.804
10.3894	0.816
10.4303	0.818
10.4711	0.818
10.512	0.816
10.5528	0.801
10.5937	0.772
10.6345	0.736
10.6754	0.693
10.7162	0.68
10.7571	0.722
10.798	0.775
10.8388	0.809
10.8797	0.814
10.9205	0.819
10.9614	0.828
11.0022	0.828
11.0431	0.823
11.0839	0.821
11.1248	0.819
11.1657	0.816
11.2065	0.821
11.2474	0.821
11.2882	0.819
11.3291	0.812
11.3699	0.797
11.4108	0.782
11.4516	0.729
11.4925	0.627
11.5334	0.493
11.5742	0.517
11.6151	0.573
11.6559	0.579
11.6968	0.622
11.7376	0.663
11.7785	0.709
11.8193	0.751
11.8602	0.778
11.9011	0.797
11.9419	0.807
11.9828	0.814
12.0236	0.816
12.0645	0.816
12.1053	0.814
12.1462	0.814
12.187	0.814
12.2279	0.814
12.2688	0.812
12.3096	0.809
12.3505	0.807
12.3913	0.799
12.4322	0.784
12.473	0.758
12.5139	0.702
12.5547	0.608
12.5956	0.525
12.6365	0.551
12.6773	0.646
12.7182	0.702
12.759	0.702
12.7999	0.675
12.8407	0.642
12.8816	0.585
12.9224	0.498
12.9633	0.38
13.0042	0.255
13.045	0.144
13.0859	0.079
13.1267	0.052
13.1676	0.044
13.2084	0.052
13.2493	0.107
13.2901	0.267
13.331	0.469
13.3719	0.625
13.4127	0.68
13.4536	0.722
13.4944	0.724
13.5353	0.712
13.5761	0.653
13.617	0.488
13.6578	0.284
13.6987	0.153
13.7396	0.112
13.7804	0.18
13.8213	0.353
13.8621	0.515
13.903	0.632
13.9438	0.7
13.9847	0.724
14.0255	0.734
14.0664	0.724
14.1073	0.664
14.1481	0.527
14.189	0.498
14.2298	0.612
14.2707	0.707
14.3115	0.763
14.3524	0.773
14.3932	0.79
14.4341	0.795
14.475	0.797
14.5158	0.797
14.5567	0.797
14.5975	0.797
14.6384	0.797
14.6792	0.797
14.7201	0.794
14.7609	0.787
14.8018	0.79
14.8427	0.789
14.8835	0.785
14.9244	0.784
14.9652	0.768
15.0061	0.753
15.0469	0.734
15.0878	0.736
15.1286	0.753
15.1695	0.744
15.2104	0.729
15.2512	0.7
15.2921	0.681
15.3329	0.651
15.3738	0.625
15.4146	0.605
15.4555	0.591
15.4963	0.593
15.5372	0.591
15.5781	0.583
15.6189	0.556
15.6598	0.54
15.7006	0.54
15.7415	0.571
15.7823	0.602
15.8232	0.634
15.864	0.664
15.9049	0.673
15.9458	0.68
