Infrared Spectrum: PHENETHYL AMINE, 3,4-DIMETHOXY
Formula: C10 H15 N O2
CAS: 120-20-7
Class: COBLENTZ
Instrument: Not specified, most likely a prism, grating, or hybrid spectrometer.
Sampling: TRANSMISSION
Path length: SMEAR
Resolution: 4
Origin: TENNESSEE EASTMAN COMPANY, RESEARCH LABORATORIES
MICROMETERS	TRANSMITTANCE
2.013	0.995
2.05288	0.998
2.09275	1
2.13263	1.001
2.17251	1.001
2.21239	0.996
2.25226	0.973
2.29214	0.97
2.33202	0.97
2.37189	0.97
2.41177	0.971
2.45165	0.975
2.49153	0.976
2.5314	0.983
2.57128	0.985
2.61116	0.986
2.65103	0.993
2.69091	0.995
2.73079	0.976
2.77067	0.945
2.81054	0.943
2.85042	0.938
2.8903	0.9
2.93018	0.773
2.97005	0.567
3.00993	0.692
3.04981	0.678
3.08968	0.737
3.12956	0.758
3.16944	0.773
3.20932	0.81
3.24919	0.787
3.28907	0.658
3.32895	0.397
3.36882	0.191
3.4087	0.134
3.44858	0.377
3.48846	0.272
3.52833	0.534
3.56821	0.828
3.60809	0.86
3.64796	0.858
3.68784	0.9
3.72772	0.908
3.7676	0.915
3.80747	0.923
3.84735	0.926
3.88723	0.906
3.9271	0.916
3.96698	0.941
4.00686	0.951
4.04674	0.96
4.08661	0.961
4.12649	0.963
4.16637	0.98
4.20625	0.988
4.24612	0.995
4.286	0.995
4.32588	0.995
4.36575	0.99
4.40563	0.953
4.44551	0.973
4.48539	0.983
4.52526	0.983
4.56514	0.978
4.60502	0.976
4.64489	0.985
4.68477	0.99
4.72465	0.986
4.76453	0.971
4.8044	0.928
4.84428	0.911
4.88416	0.911
4.92403	0.911
4.96391	0.918
5.00379	0.921
5.04367	0.94
5.08354	0.955
5.12342	0.961
5.1633	0.963
5.20317	0.96
5.24305	0.955
5.28293	0.953
5.32281	0.953
5.36268	0.95
5.40256	0.943
5.44244	0.936
5.48232	0.938
5.52219	0.958
5.56207	0.96
5.60195	0.956
5.64182	0.953
5.6817	0.95
5.72158	0.93
5.76146	0.903
5.80133	0.895
5.84121	0.883
5.88109	0.861
5.92096	0.841
5.96084	0.813
6.00072	0.806
6.0406	0.783
6.08047	0.725
6.12035	0.688
6.16023	0.628
6.2001	0.397
6.23998	0.312
6.27986	0.156
6.31974	0.41
6.35961	0.579
6.39949	0.617
6.43937	0.62
6.47924	0.479
6.51912	0.196
6.559	0.031
6.59888	0.044
6.63875	0.241
6.67863	0.404
6.71851	0.425
6.75839	0.199
6.79826	0.078
6.83814	0.093
6.87802	0.119
6.91789	0.171
6.95777	0.417
6.99765	0.349
7.03753	0.193
7.0774	0.517
7.11728	0.683
7.15716	0.705
7.19703	0.67
7.23691	0.638
7.27679	0.672
7.31667	0.683
7.35654	0.628
7.39642	0.554
7.4363	0.507
7.47617	0.412
7.51605	0.391
7.55593	0.419
7.59581	0.442
7.63568	0.45
7.67556	0.43
7.71544	0.356
7.75531	0.281
7.79519	0.198
7.83507	0.098
7.87495	0.046
7.91482	0.029
7.9547	0.029
7.99458	0.063
8.03446	0.073
8.07433	0.033
8.11421	0.036
8.15409	0.138
8.19396	0.316
8.23384	0.469
8.27372	0.552
8.3136	0.567
8.35347	0.447
8.39335	0.381
8.43323	0.415
8.4731	0.504
8.51298	0.505
8.55286	0.297
8.59274	0.086
8.63261	0.053
8.67249	0.053
8.71237	0.051
8.75224	0.051
8.79212	0.094
8.832	0.184
8.87188	0.287
8.91175	0.43
8.95163	0.562
8.99151	0.635
9.03138	0.675
9.07126	0.698
9.11114	0.7
9.15102	0.685
9.19089	0.638
9.23077	0.575
9.27065	0.527
9.31053	0.517
9.3504	0.545
9.39028	0.603
9.43016	0.623
9.47003	0.59
9.50991	0.415
9.54979	0.241
9.58967	0.141
9.62954	0.076
9.66942	0.043
9.7093	0.038
9.74917	0.044
9.78905	0.133
9.82893	0.219
9.86881	0.286
9.90868	0.357
9.94856	0.43
9.98844	0.509
10.0283	0.58
10.0682	0.642
10.1081	0.682
10.1479	0.707
10.1878	0.713
10.2277	0.715
10.2676	0.715
10.3075	0.715
10.3473	0.713
10.3872	0.7
10.4271	0.67
10.467	0.648
10.5068	0.642
10.5467	0.637
10.5866	0.618
10.6265	0.595
10.6663	0.567
10.7062	0.564
10.7461	0.559
10.786	0.549
10.8259	0.532
10.8657	0.522
10.9056	0.515
10.9455	0.507
10.9854	0.499
11.0252	0.48
11.0651	0.464
11.105	0.45
11.1449	0.437
11.1848	0.424
11.2246	0.415
11.2645	0.399
11.3044	0.387
11.3443	0.371
11.3841	0.356
11.424	0.337
11.4639	0.324
11.5038	0.319
11.5436	0.319
11.5835	0.311
11.6234	0.291
11.6633	0.261
11.7032	0.232
11.743	0.224
11.7829	0.219
11.8228	0.221
11.8627	0.221
11.9025	0.222
11.9424	0.226
11.9823	0.229
12.0222	0.231
12.0621	0.231
12.1019	0.231
12.1418	0.226
12.1817	0.211
12.2216	0.184
12.2614	0.154
12.3013	0.133
12.3412	0.118
12.3811	0.113
12.4209	0.111
12.4608	0.123
12.5007	0.171
12.5406	0.237
12.5805	0.304
12.6203	0.374
12.6602	0.424
12.7001	0.455
12.74	0.467
12.7798	0.472
12.8197	0.474
12.8596	0.474
12.8995	0.442
12.9393	0.359
12.9792	0.272
13.0191	0.188
13.059	0.171
13.0989	0.216
13.1387	0.321
13.1786	0.41
13.2185	0.48
13.2584	0.525
13.2982	0.547
13.3381	0.555
13.378	0.555
13.4179	0.545
13.4578	0.517
13.4976	0.509
13.5375	0.509
13.5774	0.539
13.6173	0.577
13.6571	0.6
13.697	0.62
13.7369	0.627
13.7768	0.637
13.8166	0.655
13.8565	0.68
13.8964	0.697
13.9363	0.707
13.9762	0.713
14.016	0.717
14.0559	0.718
14.0958	0.72
14.1357	0.718
14.1755	0.717
14.2154	0.707
14.2553	0.692
14.2952	0.678
14.3351	0.67
14.3749	0.665
14.4148	0.663
14.4547	0.663
14.4946	0.665
14.5344	0.67
14.5743	0.677
14.6142	0.678
14.6541	0.678
14.6939	0.678
14.7338	0.678
14.7737	0.678
14.8136	0.677
14.8535	0.675
14.8933	0.67
14.9332	0.663
14.9731	0.66
15.013	0.657
15.0528	0.657
15.0927	0.65
15.1326	0.635
15.1725	0.628
15.2123	0.623
15.2522	0.62
15.2921	0.613
15.332	0.607
15.3719	0.599
15.4117	0.587
15.4516	0.572
15.4915	0.562
15.5314	0.542
15.5712	0.529
15.6111	0.52
15.651	0.512
15.6909	0.507
15.7308	0.504
15.7706	0.504
15.8105	0.502
15.8504	0.502
15.8903	0.502
15.9301	0.502
15.97	0.502
