Infrared Spectrum: Alpha-(2,4-DICHLOROPHENOXY)PROPIONIC ACID
Formula: C9 H8 Cl2 O3
CAS: 120-36-5
State: SOLID (MINERAL OIL MULL)
Class: COBLENTZ
Instrument: Not specified, most likely a prism, grating, or hybrid spectrometer.
Sampling: TRANSMISSION
Resolution: 4
Origin: DOW CHEMICAL COMPANY
MICROMETERS	TRANSMITTANCE
2.041	0.553
2.08218	0.564
2.12335	0.574
2.16453	0.586
2.20571	0.591
2.24688	0.596
2.28806	0.596
2.32923	0.601
2.37041	0.62
2.41159	0.632
2.45276	0.647
2.49394	0.664
2.53512	0.682
2.57629	0.69
2.61747	0.692
2.65864	0.702
2.69982	0.712
2.741	0.717
2.78217	0.717
2.82335	0.717
2.86453	0.717
2.9057	0.709
2.94688	0.699
2.98805	0.678
3.02923	0.649
3.07041	0.603
3.11158	0.54
3.15276	0.482
3.19394	0.425
3.23511	0.365
3.27629	0.338
3.31746	0.311
3.35864	0.259
3.39982	0.138
3.44099	0.052
3.48217	0.104
3.52335	0.157
3.56452	0.418
3.6057	0.483
3.64687	0.497
3.68805	0.521
3.72923	0.529
3.7704	0.497
3.81158	0.517
3.85276	0.545
3.89393	0.557
3.93511	0.548
3.97628	0.641
4.01746	0.676
4.05864	0.724
4.09981	0.769
4.14099	0.798
4.18217	0.811
4.22334	0.829
4.26452	0.842
4.30569	0.859
4.34687	0.871
4.38805	0.88
4.42922	0.888
4.4704	0.897
4.51158	0.902
4.55275	0.907
4.59393	0.909
4.6351	0.916
4.67628	0.921
4.71746	0.926
4.75863	0.926
4.79981	0.929
4.84099	0.94
4.88216	0.947
4.92334	0.948
4.96451	0.948
5.00569	0.935
5.04687	0.948
5.08804	0.957
5.12922	0.958
5.1704	0.957
5.21157	0.957
5.25275	0.947
5.29393	0.943
5.3351	0.947
5.37628	0.938
5.41745	0.89
5.45863	0.89
5.49981	0.876
5.54098	0.852
5.58216	0.806
5.62334	0.757
5.66451	0.7
5.70569	0.613
5.74686	0.463
5.78804	0.244
5.82922	0.104
5.87039	0.066
5.91157	0.208
5.95275	0.476
5.99392	0.688
6.0351	0.776
6.07627	0.837
6.11745	0.875
6.15863	0.888
6.1998	0.909
6.24098	0.854
6.28216	0.702
6.32333	0.733
6.36451	0.859
6.40568	0.919
6.44686	0.955
6.48804	0.948
6.52921	0.955
6.57039	0.899
6.61157	0.796
6.65274	0.588
6.69392	0.413
6.73509	0.14
6.77627	0.158
6.81745	0.268
6.85862	0.254
6.8998	0.432
6.94098	0.594
6.98215	0.644
7.02333	0.598
7.0645	0.753
7.10568	0.846
7.14686	0.774
7.18803	0.608
7.22921	0.61
7.27039	0.569
7.31156	0.779
7.35274	0.825
7.39391	0.741
7.43509	0.663
7.47627	0.798
7.51744	0.75
7.55862	0.637
7.5998	0.598
7.64097	0.625
7.68215	0.541
7.72332	0.35
7.7645	0.181
7.80568	0.562
7.84685	0.505
7.88803	0.261
7.92921	0.242
7.97038	0.145
8.01156	0.08
8.05273	0.051
8.09391	0.129
8.13509	0.333
8.17626	0.531
8.21744	0.654
8.25862	0.731
8.29979	0.8
8.34097	0.849
8.38214	0.876
8.42332	0.899
8.4645	0.905
8.50567	0.894
8.54685	0.818
8.58803	0.692
8.6292	0.69
8.67038	0.786
8.71156	0.694
8.75273	0.504
8.79391	0.341
8.83508	0.155
8.87626	0.174
8.91744	0.364
8.95861	0.47
8.99979	0.485
9.04097	0.331
9.08214	0.164
9.12332	0.194
9.16449	0.406
9.20567	0.577
9.24685	0.68
9.28802	0.755
9.3292	0.757
9.37038	0.671
9.41155	0.417
9.45273	0.458
9.4939	0.576
9.53508	0.572
9.57626	0.705
9.61743	0.808
9.65861	0.854
9.69979	0.885
9.74096	0.899
9.78214	0.914
9.82331	0.923
9.86449	0.933
9.90567	0.943
9.94684	0.948
9.98802	0.947
10.0292	0.947
10.0704	0.95
10.1115	0.952
10.1527	0.948
10.1939	0.938
10.2351	0.929
10.2763	0.917
10.3174	0.914
10.3586	0.9
10.3998	0.887
10.441	0.861
10.4821	0.813
10.5233	0.743
10.5645	0.735
10.6057	0.782
10.6468	0.81
10.688	0.813
10.7292	0.793
10.7704	0.758
10.8115	0.717
10.8527	0.671
10.8939	0.649
10.9351	0.603
10.9762	0.548
11.0174	0.502
11.0586	0.459
11.0998	0.444
11.141	0.432
11.1821	0.439
11.2233	0.47
11.2645	0.509
11.3057	0.552
11.3468	0.6
11.388	0.647
11.4292	0.685
11.4704	0.709
11.5115	0.702
11.5527	0.596
11.5939	0.374
11.6351	0.4
11.6762	0.705
11.7174	0.658
11.7586	0.576
11.7998	0.606
11.841	0.748
11.8821	0.789
11.9233	0.791
11.9645	0.704
12.0057	0.642
12.0468	0.663
12.088	0.803
12.1292	0.852
12.1704	0.864
12.2115	0.868
12.2527	0.875
12.2939	0.868
12.3351	0.842
12.3762	0.782
12.4174	0.687
12.4586	0.478
12.4998	0.206
12.5409	0.14
12.5821	0.468
12.6233	0.671
12.6645	0.738
12.7057	0.774
12.7468	0.813
12.788	0.842
12.8292	0.852
12.8704	0.846
12.9115	0.818
12.9527	0.822
12.9939	0.854
13.0351	0.868
13.0762	0.854
13.1174	0.808
13.1586	0.748
13.1998	0.663
13.2409	0.521
13.2821	0.42
13.3233	0.386
13.3645	0.432
13.4056	0.5
13.4468	0.555
13.488	0.576
13.5292	0.574
13.5704	0.543
13.6115	0.499
13.6527	0.466
13.6939	0.488
13.7351	0.577
13.7762	0.658
13.8174	0.719
13.8586	0.757
13.8998	0.776
13.9409	0.793
13.9821	0.798
14.0233	0.803
14.0645	0.805
14.1056	0.8
14.1468	0.788
14.188	0.77
14.2292	0.738
14.2704	0.717
14.3115	0.717
14.3527	0.735
14.3939	0.745
14.4351	0.745
14.4762	0.733
14.5174	0.716
14.5586	0.7
14.5998	0.69
14.6409	0.666
14.6821	0.647
14.7233	0.629
14.7645	0.605
14.8056	0.574
14.8468	0.548
14.888	0.526
14.9292	0.502
14.9703	0.471
15.0115	0.447
15.0527	0.434
15.0939	0.418
15.1351	0.408
15.1762	0.388
15.2174	0.347
15.2586	0.309
15.2998	0.29
15.3409	0.304
15.3821	0.352
15.4233	0.394
15.4645	0.43
15.5056	0.444
15.5468	0.452
15.588	0.459
15.6292	0.461
15.6703	0.458
15.7115	0.458
15.7527	0.458
15.7939	0.454
15.835	0.444
