Infrared Spectrum: ISOBUTYL BENZOATE
Formula: C11 H14 O2
CAS: 120-50-3
State: LIQUID
Boiling point: 112-113 C AT 11 mmHg
Class: COBLENTZ
Instrument: Not specified, most likely a prism, grating, or hybrid spectrometer.
Sampling: TRANSMISSION
Path length: 0.003 CM
Resolution: 4
Origin: WYANDOTTE CHEMICALS CORP., WYANDOTTE, MICHIGAN, USA
MICROMETERS	TRANSMITTANCE
2.052	0.964
2.09081	0.961
2.12961	0.945
2.16842	0.941
2.20722	0.941
2.24603	0.951
2.28483	0.943
2.32364	0.94
2.36245	0.962
2.40125	0.962
2.44006	0.958
2.47886	0.959
2.51767	0.961
2.55647	0.969
2.59528	0.962
2.63408	0.959
2.67289	0.967
2.7117	0.962
2.7505	0.951
2.78931	0.954
2.82811	0.945
2.86692	0.912
2.90572	0.933
2.94453	0.927
2.98334	0.906
3.02214	0.911
3.06095	0.906
3.09975	0.901
3.13856	0.901
3.17736	0.804
3.21617	0.735
3.25498	0.801
3.29378	0.291
3.33259	0.3
3.37139	0.472
3.4102	0.488
3.449	0.843
3.48781	0.891
3.52661	0.92
3.56542	0.927
3.60423	0.93
3.64303	0.951
3.68184	0.95
3.72064	0.951
3.75945	0.946
3.79825	0.941
3.83706	0.956
3.87587	0.954
3.91467	0.953
3.95348	0.962
3.99228	0.956
4.03109	0.966
4.06989	0.962
4.1087	0.962
4.1475	0.959
4.18631	0.95
4.22512	0.95
4.26392	0.954
4.30273	0.956
4.34153	0.958
4.38034	0.961
4.41914	0.964
4.45795	0.961
4.49676	0.962
4.53556	0.967
4.57437	0.966
4.61317	0.966
4.65198	0.97
4.69078	0.969
4.72959	0.967
4.7684	0.956
4.8072	0.956
4.84601	0.964
4.88481	0.958
4.92362	0.964
4.96242	0.961
5.00123	0.951
5.04003	0.937
5.07884	0.92
5.11765	0.94
5.15645	0.94
5.19526	0.911
5.23406	0.891
5.27287	0.945
5.31167	0.954
5.35048	0.954
5.38929	0.945
5.42809	0.932
5.4669	0.885
5.5057	0.885
5.54451	0.861
5.58331	0.801
5.62212	0.806
5.66093	0.777
5.69973	0.543
5.73854	0.024
5.77734	0.035
5.81615	0.279
5.85495	0.54
5.89376	0.648
5.93256	0.753
5.97137	0.8
6.01018	0.822
6.04898	0.858
6.08779	0.84
6.12659	0.725
6.1654	0.491
6.2042	0.725
6.24301	0.712
6.28182	0.861
6.32062	0.869
6.35943	0.88
6.39823	0.888
6.43704	0.869
6.47584	0.879
6.51465	0.869
6.55345	0.874
6.59226	0.819
6.63107	0.683
6.66987	0.75
6.70868	0.5
6.74748	0.264
6.78629	0.385
6.82509	0.256
6.8639	0.675
6.90271	0.767
6.94151	0.814
6.98032	0.825
7.01912	0.803
7.05793	0.746
7.09673	0.582
7.13554	0.493
7.17435	0.524
7.21315	0.229
7.25196	0.322
7.29076	0.651
7.32957	0.753
7.36837	0.619
7.40718	0.543
7.44598	0.677
7.48479	0.629
7.5236	0.388
7.5624	0.08
7.60121	0.233
7.64001	0.162
7.67882	0.17
7.71762	0.027
7.75643	0.014
7.79524	0.012
7.83404	0.014
7.87285	0.022
7.91165	0.045
7.95046	0.07
7.98926	0.179
8.02807	0.45
8.06688	0.588
8.10568	0.683
8.14449	0.722
8.18329	0.751
8.2221	0.779
8.2609	0.806
8.29971	0.811
8.33851	0.798
8.37732	0.738
8.41613	0.503
8.45493	0.254
8.49374	0.362
8.53254	0.574
8.57135	0.617
8.61015	0.648
8.64896	0.669
8.68777	0.617
8.72657	0.543
8.76538	0.467
8.80418	0.424
8.84299	0.288
8.88179	0.083
8.9206	0.016
8.9594	0.019
8.99821	0.045
9.03702	0.09
9.07582	0.191
9.11463	0.488
9.15343	0.629
9.19224	0.688
9.23104	0.629
9.26985	0.29
9.30866	0.182
9.34746	0.487
9.38627	0.733
9.42507	0.84
9.46388	0.877
9.50268	0.877
9.54149	0.888
9.5803	0.869
9.6191	0.811
9.65791	0.54
9.69671	0.135
9.73552	0.501
9.77432	0.73
9.81313	0.817
9.85193	0.851
9.89074	0.843
9.92955	0.816
9.96835	0.806
10.0072	0.711
10.046	0.574
10.0848	0.396
10.1236	0.29
10.1624	0.311
10.2012	0.44
10.24	0.564
10.2788	0.651
10.3176	0.651
10.3564	0.691
10.3952	0.75
10.434	0.788
10.4728	0.785
10.5116	0.725
10.5504	0.646
10.5892	0.651
10.628	0.683
10.6669	0.679
10.7057	0.667
10.7445	0.695
10.7833	0.716
10.8221	0.729
10.8609	0.759
10.8997	0.779
10.9385	0.782
10.9773	0.779
11.0161	0.798
11.0549	0.841
11.0937	0.879
11.1325	0.895
11.1713	0.904
11.2101	0.906
11.2489	0.912
11.2877	0.896
11.3265	0.903
11.3654	0.888
11.4042	0.875
11.443	0.861
11.4818	0.861
11.5206	0.858
11.5594	0.856
11.5982	0.862
11.637	0.872
11.6758	0.861
11.7146	0.872
11.7534	0.867
11.7922	0.867
11.831	0.879
11.8698	0.891
11.9086	0.898
11.9474	0.9
11.9862	0.903
12.0251	0.895
12.0639	0.887
12.1027	0.875
12.1415	0.872
12.1803	0.87
12.2191	0.88
12.2579	0.875
12.2967	0.862
12.3355	0.83
12.3743	0.795
12.4131	0.751
12.4519	0.769
12.4907	0.824
12.5295	0.867
12.5683	0.88
12.6071	0.901
12.6459	0.909
12.6847	0.927
12.7236	0.933
12.7624	0.933
12.8012	0.937
12.84	0.933
12.8788	0.932
12.9176	0.929
12.9564	0.924
12.9952	0.932
13.034	0.929
13.0728	0.932
13.1116	0.922
13.1504	0.912
13.1892	0.909
13.228	0.906
13.2668	0.896
13.3056	0.895
13.3444	0.89
13.3832	0.887
13.4221	0.877
13.4609	0.872
13.4997	0.861
13.5385	0.85
13.5773	0.837
13.6161	0.816
13.6549	0.798
13.6937	0.762
13.7325	0.712
13.7713	0.64
13.8101	0.546
13.8489	0.401
13.8877	0.267
13.9265	0.167
13.9653	0.087
14.0041	0.059
14.0429	0.05
14.0818	0.048
14.1206	0.054
14.1594	0.077
14.1982	0.127
14.237	0.243
14.2758	0.362
14.3146	0.495
14.3534	0.583
14.3922	0.635
14.431	0.667
14.4698	0.664
14.5086	0.635
14.5474	0.58
14.5862	0.522
14.625	0.508
14.6638	0.569
14.7026	0.648
14.7414	0.712
14.7803	0.724
14.8191	0.701
14.8579	0.662
14.8967	0.604
14.9355	0.625
14.9743	0.662
15.0131	0.711
15.0519	0.762
15.0907	0.812
15.1295	0.825
15.1683	0.835
15.2071	0.837
15.2459	0.835
15.2847	0.841
15.3235	0.838
15.3623	0.832
15.4011	0.837
15.4399	0.83
15.4788	0.82
15.5176	0.814
15.5564	0.808
15.5952	0.8
15.634	0.796
15.6728	0.79
15.7116	0.798
15.7504	0.791
15.7892	0.79
15.828	0.785
15.8668	0.787
15.9056	0.779
15.9444	0.774
15.9832	0.775
16.022	0.775
