Infrared Spectrum: BENZALDEHYDE, 3,4-DIMETHOXY-VERATRALDEHYDE
Formula: C9 H10 O3
CAS: 120-14-9
State: SOLUTION (10% CCl4 FOR 5000-1330, 10% CS2 FOR 1330-625 CM^-^1)
Class: COBLENTZ
Instrument: Not specified, most likely a prism, grating, or hybrid spectrometer.
Sampling: TRANSMISSION
Path length: 0.0125 CM, 0.0125 CM
Resolution: 4
Origin: DOW CHEMICAL COMPANY
MICROMETERS	TRANSMITTANCE
2.007	0.851
2.0481	0.851
2.08919	0.847
2.13029	0.842
2.17138	0.825
2.21248	0.809
2.25357	0.82
2.29467	0.828
2.33576	0.828
2.37686	0.832
2.41796	0.827
2.45905	0.83
2.50015	0.835
2.54124	0.84
2.58234	0.837
2.62343	0.84
2.66453	0.842
2.70562	0.833
2.74672	0.825
2.78782	0.809
2.82891	0.809
2.87001	0.808
2.9111	0.801
2.9522	0.765
2.99329	0.803
3.03439	0.799
3.07549	0.792
3.11658	0.775
3.15768	0.777
3.19877	0.738
3.23987	0.684
3.28096	0.654
3.32206	0.498
3.36315	0.388
3.40425	0.44
3.44535	0.601
3.48644	0.434
3.52754	0.412
3.56863	0.585
3.60973	0.546
3.65082	0.517
3.69192	0.652
3.73301	0.744
3.77411	0.751
3.81521	0.727
3.8563	0.777
3.8974	0.782
3.93849	0.787
3.97959	0.811
4.02068	0.809
4.06178	0.816
4.10287	0.811
4.14397	0.809
4.18507	0.813
4.22616	0.804
4.26726	0.789
4.30835	0.775
4.34945	0.756
4.39054	0.792
4.43164	0.803
4.47274	0.799
4.51383	0.815
4.55493	0.809
4.59602	0.808
4.63712	0.808
4.67821	0.815
4.71931	0.799
4.7604	0.792
4.8015	0.797
4.8426	0.77
4.88369	0.739
4.92479	0.767
4.96588	0.765
5.00698	0.761
5.04807	0.794
5.08917	0.803
5.13026	0.815
5.17136	0.803
5.21246	0.792
5.25355	0.796
5.29465	0.784
5.33574	0.77
5.37684	0.768
5.41793	0.768
5.45903	0.773
5.50012	0.794
5.54122	0.785
5.58232	0.772
5.62341	0.765
5.66451	0.746
5.7056	0.726
5.7467	0.657
5.78779	0.542
5.82889	0.366
5.86998	0.131
5.91108	0.037
5.95218	0.089
5.99327	0.525
6.03437	0.601
6.07546	0.662
6.11656	0.631
6.15765	0.535
6.19875	0.297
6.23985	0.063
6.28094	0.025
6.32204	0.126
6.36313	0.327
6.40423	0.328
6.44532	0.315
6.48642	0.32
6.52751	0.27
6.56861	0.145
6.60971	0.032
6.6508	0.106
6.6919	0.458
6.73299	0.52
6.77409	0.347
6.81518	0.053
6.85628	0.089
6.89737	0.227
6.93847	0.265
6.97957	0.277
7.02066	0.104
7.06176	0.477
7.10285	0.458
7.14395	0.287
7.18504	0.181
7.22614	0.476
7.26723	0.631
7.30833	0.671
7.34943	0.618
7.39052	0.476
7.43162	0.328
7.47271	0.393
7.51381	0.551
7.5549	0.529
7.596	0.503
7.63709	0.489
7.67819	0.426
7.71929	0.306
7.76038	0.152
7.80148	0.034
7.84257	0.017
7.88367	0.013
7.92476	0.015
7.96586	0.039
8.00696	0.054
8.04805	0.025
8.08915	0.104
8.13024	0.386
8.17134	0.522
8.21243	0.565
8.25353	0.573
8.29462	0.518
8.33572	0.422
8.37682	0.441
8.41791	0.505
8.45901	0.53
8.5001	0.553
8.5412	0.479
8.58229	0.297
8.62339	0.099
8.66448	0.041
8.70558	0.071
8.74668	0.148
8.78777	0.051
8.82887	0.015
8.86996	0.044
8.91106	0.095
8.95215	0.351
8.99325	0.474
9.03434	0.571
9.07544	0.638
9.11654	0.671
9.15763	0.681
9.19873	0.702
9.23982	0.71
9.28092	0.715
9.32201	0.715
9.36311	0.715
9.40421	0.702
9.4453	0.691
9.4864	0.666
9.52749	0.616
9.56859	0.525
9.60968	0.354
9.65078	0.256
9.69187	0.171
9.73297	0.042
9.77407	0.018
9.81516	0.159
9.85626	0.417
9.89735	0.532
9.93845	0.589
9.97954	0.625
10.0206	0.652
10.0617	0.731
10.1028	0.76
10.1439	0.77
10.185	0.777
10.2261	0.78
10.2672	0.78
10.3083	0.765
10.3494	0.729
10.3905	0.698
10.4316	0.732
10.4727	0.758
10.5138	0.763
10.5549	0.761
10.596	0.743
10.6371	0.729
10.6782	0.712
10.7193	0.712
10.7604	0.724
10.8015	0.732
10.8426	0.724
10.8836	0.719
10.9247	0.732
10.9658	0.753
11.0069	0.763
11.048	0.765
11.0891	0.765
11.1302	0.758
11.1713	0.753
11.2124	0.75
11.2535	0.731
11.2946	0.71
11.3357	0.678
11.3768	0.64
11.4179	0.566
11.459	0.429
11.5001	0.26
11.5412	0.186
11.5823	0.315
11.6234	0.47
11.6645	0.5
11.7056	0.472
11.7467	0.458
11.7877	0.556
11.8288	0.66
11.8699	0.72
11.911	0.75
11.9521	0.751
11.9932	0.744
12.0343	0.731
12.0754	0.71
12.1165	0.679
12.1576	0.652
12.1987	0.618
12.2398	0.539
12.2809	0.416
12.322	0.277
12.3631	0.202
12.4042	0.142
12.4453	0.068
12.4864	0.106
12.5275	0.386
12.5686	0.568
12.6097	0.64
12.6508	0.654
12.6919	0.621
12.7329	0.522
12.774	0.4
12.8151	0.318
12.8562	0.381
12.8973	0.51
12.9384	0.58
12.9795	0.636
13.0206	0.655
13.0617	0.633
13.1028	0.602
13.1439	0.619
13.185	0.659
13.2261	0.671
13.2672	0.676
13.3083	0.676
13.3494	0.669
13.3905	0.655
13.4316	0.631
13.4727	0.589
13.5138	0.532
13.5549	0.436
13.596	0.292
13.6371	0.138
13.6781	0.059
13.7192	0.087
13.7603	0.253
13.8014	0.428
13.8425	0.532
13.8836	0.597
13.9247	0.636
13.9658	0.66
14.0069	0.678
14.048	0.69
14.0891	0.695
14.1302	0.698
14.1713	0.7
14.2124	0.7
14.2535	0.7
14.2946	0.696
14.3357	0.69
14.3768	0.688
14.4179	0.683
14.459	0.678
14.5001	0.672
14.5412	0.662
14.5822	0.654
14.6233	0.648
14.6644	0.64
14.7055	0.63
14.7466	0.623
14.7877	0.613
14.8288	0.604
14.8699	0.599
14.911	0.59
14.9521	0.578
14.9932	0.57
15.0343	0.558
15.0754	0.544
15.1165	0.529
15.1576	0.515
15.1987	0.498
15.2398	0.477
15.2809	0.458
15.322	0.448
15.3631	0.429
15.4042	0.419
15.4453	0.402
15.4864	0.361
15.5274	0.306
15.5685	0.246
15.6096	0.19
15.6507	0.159
15.6918	0.154
15.7329	0.164
15.774	0.181
15.8151	0.202
15.8562	0.217
15.8973	0.222
15.9384	0.195
