Infrared Spectrum: PHENOL, 2,4-DICHLORO-
Formula: C6 H4 Cl2 O
CAS: 120-83-2
State: SOLUTION (10% IN CCl4 FOR 3800-1333, 10% IN CS2 FOR 1333-450 CM^-^1)
Class: COBLENTZ III
Instrument: PERKIN-ELMER 180
Sampling: TRANSMISSION
Path length: 0.012, 0.011 CM
Resolution: 4
Origin: DOW CHEMICAL COMPANY
1/CM	TRANSMITTANCE
298.734	0
308.861	0
318.987	0
329.114	0.007
339.24	0.025
349.367	0.043
359.494	0.041
369.62	0.016
379.747	0
389.873	0
400	0.061
410.126	0.2649
420.253	0.4109
430.38	0.445
440.506	0.549
450.633	0.62
460.759	0.657
470.886	0.68
481.013	0.695
491.139	0.702
501.266	0.617
511.392	0.4565
521.519	0.71
531.646	0.732
541.772	0.714
551.899	0.4524
562.025	0.744
572.152	0.76
582.278	0.769
592.405	0.774
602.532	0.775
612.658	0.77
622.785	0.758
632.911	0.733
643.038	0.3742
653.165	0.7149
663.291	0.751
673.418	0.749
683.544	0.748
693.671	0.709
703.798	0.631
713.924	0.2315
724.051	0.3336
734.177	0.636
744.304	0.732
754.43	0.751
764.557	0.769
774.684	0.751
784.81	0.75
794.937	0.681
805.063	0.4259
815.19	0.2505
825.317	0.68
835.443	0.664
845.57	0.4202
855.696	0.2441
865.823	0.4197
875.95	0.652
886.076	0.709
896.203	0.74
906.329	0.76
916.456	0.759
926.582	0.743
936.709	0.72
946.836	0.739
956.962	0.757
967.089	0.775
977.215	0.778
987.342	0.77
997.469	0.769
1007.6	0.766
1017.72	0.748
1027.85	0.732
1037.97	0.676
1048.1	0.1732
1058.23	0.69
1068.35	0.672
1078.48	0.601
1088.61	0.449
1098.73	0.54
1108.86	0.596
1118.99	0.629
1129.11	0.5611
1139.24	0.61
1149.37	0.551
1159.49	0.4361
1169.62	0.0811
1179.75	0
1189.87	0.114
1200	0.435
1210.13	0.618
1220.25	0.6301
1230.38	0.2933
1240.51	0.5341
1250.63	0.5196
1260.76	0.4852
1270.89	0
1281.01	0.5159
1291.14	0.658
1301.27	0.671
1311.39	0.601
1321.52	0.1829
1331.65	0.7298
1341.77	0.855
1351.9	0.863
1362.03	0.8
1372.15	0.84
1382.28	0.815
1392.41	0.661
1402.53	0.374
1412.66	0.614
1422.79	0.815
1432.91	0.799
1443.04	0.611
1453.17	0.6291
1463.29	0.0541
1473.42	0
1483.54	0.218
1493.67	0.375
1503.8	0.568
1513.92	0.571
1524.05	0.544
1534.18	0.473
1544.3	0.428
1554.43	0.459
1564.56	0.449
1574.68	0.398
1584.81	0.485
1594.94	0.676
1605.06	0.753
1615.19	0.85
1625.32	0.841
1635.44	0.859
1645.57	0.879
1655.7	0.88
1665.82	0.881
1675.95	0.88
1686.08	0.88
1696.2	0.862
1706.33	0.882
1716.46	0.85
1726.58	0.833
1736.71	0.88
1746.84	0.88
1756.96	0.909
1767.09	0.919
1777.22	0.922
1787.34	0.921
1797.47	0.916
1807.6	0.918
1817.72	0.92
1827.85	0.917
1837.98	0.913
1848.1	0.912
1858.23	0.899
1868.36	0.852
1878.48	0.871
1888.61	0.919
1898.73	0.922
1908.86	0.923
1918.99	0.925
1929.11	0.928
1939.24	0.928
1949.37	0.926
1959.49	0.922
1969.62	0.922
1979.75	0.92
1989.87	0.91
2000	0.885
2010.13	0.9185
2020.25	0.921
2030.38	0.9185
2040.51	0.9201
2050.63	0.922
2060.76	0.9281
2070.89	0.931
2081.01	0.9299
2091.14	0.928
2101.27	0.93
2111.39	0.9293
2121.52	0.9235
2131.65	0.9221
2141.77	0.931
2151.9	0.93
2162.03	0.932
2172.15	0.9302
2182.28	0.9277
2192.41	0.9212
2202.53	0.9263
2212.66	0.9272
2222.79	0.9243
2232.91	0.919
2243.04	0.918
2253.17	0.914
2263.29	0.9065
2273.42	0.8981
2283.55	0.8975
2293.67	0.901
2303.8	0.9035
2313.92	0.9
2324.05	0.895
2334.18	0.9101
2344.3	0.9149
2354.43	0.9119
2364.56	0.9136
2374.68	0.9192
2384.81	0.9266
2394.94	0.9309
2405.06	0.9283
2415.19	0.926
2425.32	0.9236
2435.44	0.9178
2445.57	0.916
2455.7	0.8926
2465.82	0.9032
2475.95	0.9205
2486.08	0.921
2496.2	0.9177
2506.33	0.9035
2516.46	0.9127
2526.58	0.9189
2536.71	0.9153
2546.84	0.9101
2556.96	0.9194
2567.09	0.9232
2577.22	0.9201
2587.34	0.912
2597.47	0.9185
2607.6	0.922
2617.72	0.925
2627.85	0.92
2637.98	0.9154
2648.1	0.909
2658.23	0.9106
2668.36	0.919
2678.48	0.921
2688.61	0.923
2698.74	0.9214
2708.86	0.92
2718.99	0.919
2729.12	0.918
2739.24	0.9142
2749.37	0.913
2759.49	0.913
2769.62	0.918
2779.75	0.9182
2789.87	0.9117
2800	0.91
2810.13	0.91
2820.25	0.91
2830.38	0.914
2840.51	0.9131
2850.63	0.9092
2860.76	0.8971
2870.89	0.9094
2881.01	0.91
2891.14	0.9022
2901.27	0.904
2911.39	0.9065
2921.52	0.91
2931.65	0.91
2941.77	0.9059
2951.9	0.9075
2962.03	0.9058
2972.15	0.9
2982.28	0.8989
2992.41	0.895
3002.53	0.8919
3012.66	0.888
3022.79	0.8788
3032.91	0.869
3043.04	0.8648
3053.17	0.8683
3063.29	0.8398
3073.42	0.8509
3083.55	0.8522
3093.67	0.8402
3103.8	0.8593
3113.93	0.8658
3124.05	0.87
3134.18	0.871
3144.31	0.87
3154.43	0.869
3164.56	0.8708
3174.68	0.878
3184.81	0.883
3194.94	0.8889
3205.06	0.891
3215.19	0.892
3225.32	0.896
3235.44	0.898
3245.57	0.898
3255.7	0.898
3265.82	0.8986
3275.95	0.9001
3286.08	0.904
3296.2	0.907
3306.33	0.907
3316.46	0.906
3326.58	0.906
3336.71	0.904
3346.84	0.903
3356.96	0.9018
3367.09	0.9
3377.22	0.8978
3387.34	0.8935
3397.47	0.8885
3407.6	0.8807
3417.72	0.8728
3427.85	0.8612
3437.98	0.8453
3448.1	0.8216
3458.23	0.8025
3468.36	0.7892
3478.48	0.7806
3488.61	0.7711
3498.74	0.7477
3508.86	0.6616
3518.99	0.4955
3529.12	0.2038
3539.24	0.032
3549.37	0.0647
3559.5	0.4227
3569.62	0.7719
3579.75	0.8354
3589.88	0.8268
3600	0.8476
3610.13	0.9001
3620.25	0.9219
3630.38	0.9323
3640.51	0.936
3650.63	0.938
3660.76	0.9373
3670.89	0.934
3681.01	0.931
3691.14	0.9352
3701.27	0.938
3711.39	0.94
3721.52	0.94
3731.65	0.939
3741.77	0.937
3751.9	0.9393
3762.03	0.942
3772.15	0.944
3782.28	0.944
3792.41	0.942
3802.53	0.9391
3812.66	0.9331
3822.79	0.923
3832.91	0.9324
3843.04	0.941
3853.17	0.941
3863.29	0.94
3873.42	0.9385
3883.55	0.935
3893.67	0.932
3903.8	0.9289
3913.93	0.926
3924.05	0.9179
3934.18	0.914
3944.31	0.9192
3954.43	0.933
3964.56	0.9412
3974.69	0.9457
3984.81	0.948
3994.94	0.948
