Infrared Spectrum: 1,3-DIPHENYL-1,3-PROPANEDIONE
Formula: C15 H12 O2
CAS: 120-46-7
State: SOLID (MINERAL OIL MULL)
Class: COBLENTZ
Instrument: Not specified, most likely a grating or hybrid spectrometer.
Sampling: TRANSMISSION
Resolution: 4
Origin: DOW CORNING CORP.
1/CM	TRANSMITTANCE
247.68	0.601
256.64	0.6939
265.6	0.76
274.56	0.814
283.52	0.837
292.48	0.868
301.44	0.902
310.4	0.919
319.36	0.933
328.32	0.938
337.281	0.949
346.241	0.949
355.201	0.945
364.161	0.94
373.121	0.954
382.081	0.949
391.041	0.944
400.001	0.9369
408.961	0.951
417.921	0.947
426.881	0.938
435.841	0.938
444.801	0.909
453.761	0.916
462.721	0.917
471.681	0.909
480.641	0.889
489.601	0.835
498.561	0.854
507.521	0.902
516.482	0.912
525.442	0.914
534.402	0.916
543.362	0.917
552.322	0.917
561.282	0.917
570.242	0.919
579.202	0.916
588.162	0.909
597.122	0.877
606.082	0.617
615.042	0.6972
624.002	0.884
632.962	0.891
641.922	0.893
650.882	0.886
659.842	0.861
668.802	0.8051
677.762	0.4803
686.722	0.706
695.683	0.763
704.643	0.5591
713.603	0.809
722.563	0.83
731.523	0.819
740.483	0.76
749.443	0.4209
758.403	0.4393
767.363	0.816
776.323	0.847
785.283	0.762
794.243	0.865
803.203	0.849
812.163	0.863
821.123	0.875
830.083	0.868
839.043	0.837
848.003	0.853
856.963	0.874
865.923	0.874
874.884	0.874
883.844	0.874
892.804	0.874
901.764	1.008
910.724	0.984
919.684	0.958
928.644	0.905
937.604	0.966
946.564	0.956
955.524	0.93
964.484	0.905
973.444	0.861
982.404	0.849
991.364	0.83
1000.32	0.722
1009.28	0.847
1018.24	0.826
1027.2	0.755
1036.16	0.884
1045.12	0.879
1054.08	0.7969
1063.04	0.77
1072	0.812
1080.96	0.879
1089.92	0.872
1098.88	0.847
1107.84	0.895
1116.8	0.931
1125.76	0.926
1134.73	0.91
1143.69	0.893
1152.65	0.865
1161.61	0.832
1170.57	0.84
1179.53	0.807
1188.49	0.777
1197.45	0.807
1206.41	0.779
1215.37	0.727
1224.33	0.5569
1233.29	0.5292
1242.25	0.779
1251.21	0.798
1260.17	0.786
1269.13	0.756
1278.09	0.718
1287.05	0.65
1296.01	0.59
1304.97	0.562
1313.93	0.55
1322.89	0.6811
1331.85	0.748
1340.81	0.743
1349.77	0.769
1358.73	0.751
1367.69	0.701
1376.65	0.625
1385.61	0.704
1394.57	0.736
1403.53	0.718
1412.49	0.68
1421.45	0.62
1430.41	0.58
1439.37	0.533
1448.33	0.466
1457.29	0.307
1466.25	0.253
1475.21	0.33
1484.17	0.358
1493.13	0.3951
1502.09	0.4749
1511.05	0.391
1520.01	0.347
1528.97	0.316
1537.93	0.288
1546.89	0.286
1555.85	0.297
1564.81	0.321
1573.77	0.375
1582.73	0.517
1591.69	0.3469
1600.65	0.316
1609.61	0.4
1618.57	0.475
1627.53	0.513
1636.49	0.566
1645.45	0.608
1654.41	0.657
1663.37	0.697
1672.33	0.722
1681.29	0.758
1690.25	0.784
1699.21	0.825
1708.17	0.844
1717.13	0.853
1726.09	0.874
1735.05	0.884
1744.01	0.893
1752.97	0.903
1761.93	0.898
1770.89	0.898
1779.85	0.905
1788.81	0.914
1797.77	0.914
1806.73	0.907
1815.69	0.902
1824.65	0.914
1833.61	0.93
1842.57	0.926
1851.53	0.93
1860.49	0.935
1869.45	0.935
1878.41	0.937
1887.37	0.935
1896.33	0.921
1905.29	0.921
1914.25	0.926
1923.21	0.928
1932.17	0.937
1941.13	0.94
1950.09	0.926
1959.05	0.923
1968.01	0.923
1976.97	0.924
1985.93	0.924
1994.89	0.942
2003.85	0.9515
2012.81	0.954
2021.77	0.95
2030.73	0.949
2039.69	0.95
2048.65	0.947
2057.61	0.945
2066.57	0.945
2075.53	0.942
2084.49	0.938
2093.45	0.937
2102.41	0.935
2111.37	0.933
2120.33	0.933
2129.29	0.933
2138.25	0.9309
2147.21	0.9234
2156.17	0.9262
2165.13	0.935
2174.09	0.933
2183.05	0.9304
2192.01	0.9258
2200.97	0.9222
2209.93	0.9239
2218.89	0.923
2227.85	0.9187
2236.81	0.916
2245.77	0.9157
2254.73	0.914
2263.69	0.91
2272.65	0.909
2281.61	0.907
2290.57	0.905
2299.53	0.903
2308.49	0.903
2317.45	0.903
2326.41	0.902
2335.37	0.902
2344.33	0.9
2353.29	0.8996
2362.25	0.898
2371.21	0.896
2380.17	0.896
2389.13	0.895
2398.09	0.891
2407.05	0.888
2416.01	0.8865
2424.97	0.8855
2433.93	0.8825
2442.89	0.8817
2451.85	0.879
2460.81	0.877
2469.77	0.877
2478.73	0.875
2487.69	0.875
2496.65	0.874
2505.61	0.8684
2514.57	0.865
2523.53	0.8614
2532.49	0.861
2541.45	0.861
2550.41	0.86
2559.37	0.8566
2568.33	0.8523
2577.29	0.847
2586.25	0.844
2595.21	0.8403
2604.17	0.839
2613.13	0.8399
2622.09	0.839
2631.05	0.839
2640.01	0.8394
2648.97	0.839
2657.93	0.8362
2666.89	0.8332
2675.85	0.8338
2684.81	0.8418
2693.77	0.844
2702.73	0.842
2711.69	0.8396
2720.65	0.837
2729.61	0.835
2738.57	0.837
2747.53	0.8409
2756.49	0.842
2765.45	0.841
2774.41	0.837
2783.37	0.8325
2792.33	0.823
2801.29	0.815
2810.25	0.802
2819.21	0.7842
2828.17	0.7497
2837.13	0.6997
2846.09	0.4982
2855.05	0.3213
2864.01	0.2935
2872.97	0.3386
2881.93	0.3988
2890.89	0.403
2899.85	0.3234
2908.82	0.246
2917.78	0.1795
2926.74	0.1029
2935.7	0.1119
2944.66	0.1974
2953.62	0.2103
2962.58	0.2259
2971.54	0.3061
2980.5	0.4739
2989.46	0.6187
2998.42	0.6714
3007.38	0.7113
3016.34	0.7243
3025.3	0.7323
3034.26	0.736
3043.22	0.737
3052.18	0.736
3061.14	0.7279
3070.1	0.724
3079.06	0.7442
3088.02	0.76
3096.98	0.763
3105.94	0.765
3114.9	0.7676
3123.86	0.7734
3132.82	0.7756
3141.78	0.762
3150.74	0.755
3159.7	0.756
3168.66	0.758
3177.62	0.7595
3186.58	0.76
3195.54	0.762
3204.5	0.762
3213.46	0.763
3222.42	0.763
3231.38	0.763
3240.34	0.762
3249.3	0.762
3258.26	0.76
3267.22	0.758
3276.18	0.756
3285.14	0.758
3294.1	0.756
3303.06	0.7534
3312.02	0.7507
3320.98	0.75
3329.94	0.75
3338.9	0.748
3347.86	0.7453
3356.82	0.7431
3365.78	0.741
3374.74	0.741
3383.7	0.739
3392.66	0.739
3401.62	0.737
3410.58	0.736
3419.54	0.734
3428.5	0.734
3437.46	0.734
3446.42	0.736
3455.38	0.736
3464.34	0.736
3473.3	0.737
3482.26	0.737
3491.22	0.737
3500.18	0.736
3509.14	0.736
3518.1	0.736
3527.06	0.736
3536.02	0.736
3544.98	0.734
3553.94	0.734
3562.9	0.734
3571.86	0.734
3580.82	0.732
3589.78	0.732
3598.74	0.731
3607.7	0.73
3616.66	0.7295
3625.62	0.729
3634.58	0.727
3643.54	0.727
3652.5	0.725
3661.46	0.723
3670.42	0.7225
3679.38	0.7219
3688.34	0.72
3697.3	0.718
3706.26	0.716
3715.22	0.716
3724.18	0.716
3733.14	0.715
3742.1	0.7138
3751.06	0.7128
3760.02	0.7098
3768.98	0.7089
3777.94	0.708
3786.9	0.706
3795.86	0.7027
