Infrared Spectrum: Benzoic acid, phenylmethyl ester
Formula: C14 H12 O2
CAS: 120-51-4
State: SOLUTION (10% CCl4 FOR 3800-1330, 10% CS2 FOR 1330-450 CM^-^1)
Class: COBLENTZ III
Instrument: DOW KBr FOREPRISM-GRATING
Instrument parameters: BLAZED AT 3.5, 12.0, 20.0 MICRON AND CHANGED AT 5.0, 7.5, 14.9 MICRON
Sampling: TRANSMISSION
Path length: 0.011 CM, 0.011 CM
Resolution: 2
Origin: DOW CHEMICAL COMPANY
1/CM	TRANSMITTANCE
3822	0.934
3813	0.9331
3804	0.9346
3795	0.9335
3786	0.9348
3777	0.934
3768	0.9333
3759	0.9408
3750	0.9297
3741	0.9293
3732	0.9261
3723	0.927
3714	0.9261
3705	0.9248
3696	0.918
3687	0.9195
3678	0.9172
3669	0.9145
3660	0.9133
3651	0.912
3642	0.9111
3633	0.91
3624	0.9101
3615	0.9108
3606	0.912
3597	0.9022
3588	0.9041
3579	0.9076
3570	0.8986
3561	0.8988
3552	0.8969
3543	0.898
3534	0.9024
3525	0.9027
3516	0.9041
3507	0.9053
3498	0.9068
3489	0.9074
3480	0.9075
3471	0.9068
3462	0.9033
3453	0.8944
3444	0.8871
3435	0.8849
3426	0.8963
3417	0.9088
3408	0.9169
3399	0.9208
3390	0.9199
3381	0.9148
3372	0.9109
3363	0.908
3354	0.9066
3345	0.9035
3336	0.8969
3327	0.8952
3318	0.8958
3309	0.8961
3300	0.8925
3291	0.8921
3282	0.8902
3273	0.8878
3264	0.8868
3255	0.8854
3246	0.8817
3237	0.878
3228	0.8744
3219	0.8707
3210	0.8674
3201	0.8636
3192	0.8605
3183	0.8538
3174	0.8374
3165	0.8434
3156	0.8461
3147	0.8441
3138	0.8392
3129	0.8264
3120	0.7859
3111	0.7742
3102	0.5973
3093	0.6433
3084	0.64
3075	0.482
3066	0.5627
3057	0.6601
3048	0.5568
3039	0.443
3030	0.6598
3021	0.7197
3012	0.7241
3003	0.7329
2994	0.7228
2985	0.712
2976	0.7018
2967	0.672
2958	0.6357
2949	0.6623
2940	0.6933
2931	0.7479
2922	0.7693
2913	0.7729
2904	0.7564
2895	0.7279
2886	0.7225
2877	0.7516
2868	0.7659
2859	0.7856
2850	0.801
2841	0.8017
2832	0.8002
2823	0.8018
2814	0.8073
2805	0.8144
2796	0.8191
2787	0.8222
2778	0.8264
2769	0.8263
2760	0.8244
2751	0.826
2742	0.8282
2733	0.8306
2724	0.833
2715	0.8346
2706	0.8356
2697	0.8358
2688	0.8335
2679	0.8256
2670	0.8266
2661	0.8282
2652	0.8308
2643	0.8296
2634	0.8322
2625	0.8337
2616	0.8349
2607	0.836
2598	0.8337
2589	0.8343
2580	0.8389
2571	0.843
2562	0.8444
2553	0.8371
2544	0.8341
2535	0.8322
2526	0.8325
2517	0.8371
2508	0.8438
2499	0.8469
2490	0.8489
2481	0.85
2472	0.8515
2463	0.8537
2454	0.8528
2445	0.8529
2436	0.8527
2427	0.8528
2418	0.8533
2409	0.8544
2400	0.855
2391	0.8503
2382	0.849
2373	0.8485
2364	0.8435
2355	0.8454
2346	0.8444
2337	0.8419
2328	0.8427
2319	0.8454
2310	0.8458
2301	0.8467
2292	0.8495
2283	0.8486
2274	0.8478
2265	0.8467
2256	0.8464
2247	0.8472
2238	0.8493
2229	0.8509
2220	0.8506
2211	0.8519
2202	0.853
2193	0.8537
2184	0.8563
2175	0.8581
2166	0.8577
2157	0.8581
2148	0.8586
2139	0.8597
2130	0.8594
2121	0.8606
2112	0.8618
2103	0.8587
2094	0.8548
2085	0.8542
2076	0.8504
2067	0.8475
2058	0.8511
2049	0.858
2040	0.8628
2031	0.8597
2022	0.8645
2013	0.8588
2004	0.8589
1995	0.858
1986	0.8512
1977	0.833
1968	0.8222
1959	0.7754
1950	0.8181
1941	0.8123
1932	0.8412
1923	0.8218
1914	0.8219
1905	0.7906
1896	0.8186
1887	0.8317
1878	0.825
1869	0.8202
1860	0.8279
1851	0.8354
1842	0.8379
1833	0.833
1824	0.8144
1815	0.7639
1806	0.7742
1797	0.7672
1788	0.7717
1779	0.7395
1770	0.7279
1761	0.7336
1752	0.6939
1743	0.5921
1734	0.2559
1725	0.0121
1716	0.0117
1707	0.2159
1698	0.3833
1689	0.4595
1680	0.5996
1671	0.6786
1662	0.7378
1653	0.7634
1644	0.7806
1635	0.8053
1626	0.813
1617	0.79
1608	0.7413
1599	0.4282
1590	0.6932
1581	0.5424
1572	0.6872
1563	0.7284
1554	0.7035
1545	0.6736
1536	0.6688
1527	0.723
1518	0.7465
1509	0.7343
1500	0.6437
1491	0.5868
1482	0.7698
1473	0.7918
1464	0.629
1455	0.4817
1446	0.3278
1437	0.7079
1428	0.7864
1419	0.7673
1410	0.7565
1401	0.7853
1392	0.7516
1383	0.6992
1374	0.3232
1365	0.6832
1356	0.7759
1347	0.7677
1338	0.7392
1329	0.6696
1320	0.647
1311	0.1891
1302	0.5845
1293	0.5004
1284	0.2143
1275	0.0154
1266	0.007
1257	0.0442
1248	0.0819
1239	0.2435
1230	0.5841
1221	0.6735
1212	0.6009
1203	0.7087
1194	0.7484
1185	0.7358
1176	0.4167
1167	0.63
1158	0.6946
1149	0.6994
1140	0.6725
1131	0.6548
1122	0.486
1113	0.0449
1104	0.0186
1095	0.039
1086	0.4075
1077	0.494
1068	0.0675
1059	0.6591
1050	0.7529
1041	0.7737
1032	0.7168
1023	0.3366
1014	0.6859
1005	0.7188
996	0.7254
987	0.7024
978	0.6502
969	0.6155
960	0.5994
951	0.6209
942	0.6387
933	0.6334
924	0.7563
915	0.6936
906	0.6212
897	0.7487
888	0.7728
879	0.7607
870	0.7906
861	0.7885
852	0.7791
843	0.7762
834	0.7987
825	0.7733
816	0.7899
807	0.7443
798	0.7229
789	0.8112
780	0.8327
771	0.8267
762	0.7473
753	0.375
744	0.3478
735	0.3189
726	0.3821
717	0.261
708	0.01
699	0.1363
690	0.4051
681	0.6748
672	0.6635
663	0.8055
654	0.8391
645	0.8682
636	0.889
627	0.8958
618	0.8438
609	0.8892
600	0.6898
591	0.82
582	0.7789
573	0.8934
564	0.9032
555	0.9042
546	0.8863
537	0.8436
528	0.7406
519	0.7724
510	0.7967
501	0.8355
492	0.8535
483	0.8585
474	0.8473
465	0.8118
456	0.781
