Infrared Spectrum: Anthracene
Formula: C14 H10
CAS: 120-12-7
State: SOLID (1.5 mg / 350 mg KBr DISC) VS. AIR
Class: COBLENTZ II
Instrument: BECKMAN IR-12 (GRATING)
Instrument parameters: FILTERS AT 303, 473, 790, 1036, 1880, 2930 CM^-^1. GRATING CHANGE: 300.5, 650.0, 2000.4 CM^-^1
Resolution: 2
Origin: BECKMAN INSTRUMENTS, KENNETH STINE
1/CM	TRANSMITTANCE
241	0.379
251	0.4402
261	0.5754
271	0.6981
281	0.7565
291	0.8193
301	0.8172
311	0.814
321	0.8244
331	0.8443
341	0.8627
351	0.8751
361	0.8988
371	0.9039
381	0.9022
391	0.911
401	0.9044
411	0.9088
421	0.9016
431	0.8944
441	0.887
451	0.8644
461	0.6591
471	0.5589
481	0.8888
491	0.9174
501	0.9236
511	0.9265
521	0.9277
531	0.9269
541	0.9253
551	0.9226
561	0.9195
571	0.915
581	0.9074
591	0.8924
601	0.7044
611	0.906
621	0.8968
631	0.885
641	0.8785
651	0.8692
661	0.8697
671	0.8579
681	0.8378
691	0.8115
701	0.7678
711	0.6762
721	0.5306
731	0.1327
741	0.2697
751	0.913
761	0.9305
771	0.9318
781	0.9296
791	0.9261
801	0.9219
811	0.9063
821	0.9064
831	0.8876
841	0.8646
851	0.8329
861	0.7289
871	0.6698
881	0.3714
891	0.4915
901	0.9101
911	0.8991
921	0.9322
931	0.9251
941	0.9122
951	0.8605
961	0.7376
971	0.933
981	0.8593
991	0.911
1001	0.9164
1011	0.9304
1021	0.9286
1031	0.9294
1041	0.9294
1051	0.926
1061	0.9145
1071	0.9102
1081	0.9065
1091	0.9049
1101	0.8929
1111	0.8835
1121	0.8616
1131	0.8657
1141	0.8332
1151	0.9233
1161	0.89
1171	0.8289
1181	0.9175
1191	0.9292
1201	0.932
1211	0.9236
1221	0.9124
1231	0.9191
1241	0.904
1251	0.9076
1261	0.9124
1271	0.7587
1281	0.8949
1291	0.9024
1301	0.8829
1311	0.7397
1321	0.7399
1331	0.9312
1341	0.9273
1351	0.9108
1361	0.915
1371	0.9342
1381	0.9354
1391	0.9222
1401	0.8707
1411	0.9271
1421	0.9277
1431	0.9177
1441	0.8917
1451	0.6382
1461	0.9235
1471	0.9368
1481	0.9324
1491	0.928
1501	0.9234
1511	0.9177
1521	0.9122
1531	0.8783
1541	0.9065
1551	0.9261
1561	0.9106
1571	0.9009
1581	0.9084
1591	0.921
1601	0.9161
1611	0.9002
1621	0.6637
1631	0.9109
1641	0.9072
1651	0.927
1661	0.9241
1671	0.9222
1681	0.9107
1691	0.9003
1701	0.9005
1711	0.9109
1721	0.9005
1731	0.9041
1741	0.9276
1751	0.9205
1761	0.9236
1771	0.9149
1781	0.9113
1791	0.8947
1801	0.8973
1811	0.8838
1821	0.9194
1831	0.92
1841	0.925
1851	0.9217
1861	0.9134
1871	0.925
1881	0.932
1891	0.93
1901	0.9316
1911	0.9209
1921	0.9177
1931	0.8945
1941	0.9136
1951	0.8964
1961	0.9237
1971	0.9334
1981	0.9321
1991	0.9304
2001	0.9294
2011	0.9291
2021	0.9289
2031	0.9286
2041	0.9282
2051	0.9278
2061	0.9274
2071	0.927
2081	0.9266
2091	0.9262
2101	0.9258
2111	0.9254
2121	0.925
2131	0.9247
2141	0.9243
2151	0.9239
2161	0.9236
2171	0.9233
2181	0.9231
2191	0.923
2201	0.9226
2211	0.9213
2221	0.9199
2231	0.9183
2241	0.9168
2251	0.9151
2261	0.9134
2271	0.9115
2281	0.9101
2291	0.9107
2301	0.9125
2311	0.9144
2321	0.9186
2331	0.9202
2341	0.9193
2351	0.9194
2361	0.9208
2371	0.9196
2381	0.918
2391	0.9172
2401	0.9165
2411	0.9159
2421	0.9152
2431	0.9146
2441	0.9142
2451	0.9138
2461	0.9134
2471	0.9134
2481	0.9134
2491	0.9132
2501	0.9124
2511	0.9099
2521	0.9059
2531	0.903
2541	0.9016
2551	0.9028
2561	0.9038
2571	0.9046
2581	0.9047
2591	0.8985
2601	0.898
2611	0.8976
2621	0.8968
2631	0.896
2641	0.8949
2651	0.8938
2661	0.8921
2671	0.8903
2681	0.8881
2691	0.8853
2701	0.8826
2711	0.8784
2721	0.8764
2731	0.8775
2741	0.8808
2751	0.8798
2761	0.8775
2771	0.8747
2781	0.8736
2791	0.8734
2801	0.8717
2811	0.8675
2821	0.8669
2831	0.8664
2841	0.8654
2851	0.8637
2861	0.862
2871	0.8602
2881	0.8583
2891	0.8564
2901	0.8543
2911	0.8474
2921	0.8355
2931	0.8415
2941	0.8439
2951	0.8439
2961	0.8415
2971	0.8303
2981	0.8042
2991	0.8013
3001	0.8016
3011	0.7848
3021	0.7621
3031	0.7661
3041	0.6322
3051	0.5377
3061	0.8242
3071	0.8367
3081	0.8372
3091	0.8392
3101	0.8503
3111	0.8513
3121	0.8518
3131	0.8521
3141	0.8516
3151	0.8509
3161	0.8494
3171	0.8476
3181	0.8453
3191	0.8409
3201	0.839
3211	0.8403
3221	0.84
3231	0.839
3241	0.8379
3251	0.8366
3261	0.8352
3271	0.8336
3281	0.8319
3291	0.8298
3301	0.8277
3311	0.8254
3321	0.8229
3331	0.8204
3341	0.8172
3351	0.8129
3361	0.8089
3371	0.8065
3381	0.8004
3391	0.7986
3401	0.7921
3411	0.7907
3421	0.7902
3431	0.7897
3441	0.7852
3451	0.7845
3461	0.7777
3471	0.7806
3481	0.7822
3491	0.7812
3501	0.7787
3511	0.7767
3521	0.7768
3531	0.7778
3541	0.7792
3551	0.7806
3561	0.782
3571	0.7834
3581	0.7848
3591	0.7862
3601	0.7876
3611	0.7871
3621	0.786
3631	0.7846
3641	0.7832
3651	0.7859
3661	0.789
3671	0.7906
3681	0.7873
3691	0.7863
3701	0.789
3711	0.7919
3721	0.7923
3731	0.792
3741	0.7913
3751	0.7906
3761	0.7898
3771	0.7889
3781	0.7878
3791	0.7858
3801	0.7835
3811	0.7809
3821	0.7783
3831	0.776
3841	0.774
3851	0.772
3861	0.7712
3871	0.7706
3881	0.7699
3891	0.7691
3901	0.7683
3911	0.7674
3921	0.7663
3931	0.7647
3941	0.7631
3951	0.7617
3961	0.7606
3971	0.7599
3981	0.7593
3991	0.7586
