Infrared Spectrum: PHENOL, 4-CHLORO-2-BENZYL-
Formula: C13 H11 Cl O
CAS: 120-32-1
State: SOLID (0.5% KBr DISC)
Class: COBLENTZ II
Instrument: PERKIN-ELMER 621 (GRATING)
Instrument parameters: GRATING CHANGE AT 623; ORDER CHANGE AT 2000. FILTERS AT 3146, 2494, 2000, 1146, 698, 497 CM^-^1
Sampling: TRANSMISSION
Resolution: 2
Origin: PERKIN-ELMER CORP. (R. HANNAH)
1/CM	TRANSMITTANCE
4000	0.6083
3990	0.6078
3980	0.6072
3970	0.6071
3960	0.6071
3950	0.6091
3940	0.611
3930	0.6125
3920	0.614
3910	0.6155
3900	0.6165
3890	0.6166
3880	0.6173
3870	0.6182
3860	0.6194
3850	0.6222
3840	0.6266
3830	0.6295
3820	0.6321
3810	0.6353
3800	0.6388
3790	0.6455
3780	0.6484
3770	0.6492
3760	0.6491
3750	0.6501
3740	0.6524
3730	0.6546
3720	0.6574
3710	0.66
3700	0.6608
3690	0.6617
3680	0.6634
3670	0.6657
3660	0.6678
3650	0.6701
3640	0.6722
3630	0.6738
3620	0.6753
3610	0.6768
3600	0.6783
3590	0.6778
3580	0.6764
3570	0.6746
3560	0.6726
3550	0.6707
3540	0.669
3530	0.6685
3520	0.6681
3510	0.6675
3500	0.6656
3490	0.6625
3480	0.6558
3470	0.6434
3460	0.6248
3450	0.6024
3440	0.5794
3430	0.5517
3420	0.5242
3410	0.491
3400	0.4665
3390	0.4434
3380	0.4174
3370	0.3844
3360	0.3539
3350	0.3253
3340	0.3071
3330	0.2884
3320	0.2781
3310	0.2756
3300	0.2799
3290	0.285
3280	0.2921
3270	0.2998
3260	0.3088
3250	0.3199
3240	0.331
3230	0.3395
3220	0.355
3210	0.373
3200	0.3868
3190	0.4029
3180	0.4185
3170	0.4304
3160	0.4485
3150	0.4696
3140	0.4786
3130	0.496
3120	0.5128
3110	0.5205
3100	0.5229
3090	0.5187
3080	0.4805
3070	0.5091
3060	0.5237
3050	0.5478
3040	0.5681
3030	0.4712
3020	0.4758
3010	0.5397
3000	0.5457
2990	0.5769
2980	0.5853
2970	0.5933
2960	0.5988
2950	0.5227
2940	0.5676
2930	0.5412
2920	0.5248
2910	0.572
2900	0.591
2890	0.6105
2880	0.6175
2870	0.6175
2860	0.6174
2850	0.6142
2840	0.6153
2830	0.6203
2820	0.627
2810	0.6386
2800	0.6436
2790	0.6464
2780	0.6486
2770	0.6505
2760	0.6518
2750	0.6538
2740	0.6589
2730	0.6605
2720	0.6608
2710	0.6625
2700	0.6653
2690	0.6676
2680	0.6678
2670	0.6693
2660	0.6712
2650	0.676
2640	0.6874
2630	0.6933
2620	0.6931
2610	0.6925
2600	0.6925
2590	0.6926
2580	0.693
2570	0.6954
2560	0.7028
2550	0.7064
2540	0.7093
2530	0.7117
2520	0.7139
2510	0.7168
2500	0.7218
2490	0.7211
2480	0.7219
2470	0.7258
2460	0.7317
2450	0.7384
2440	0.7426
2430	0.7436
2420	0.7445
2410	0.7455
2400	0.7468
2390	0.7541
2380	0.7618
2370	0.7639
2360	0.7626
2350	0.7632
2340	0.7639
2330	0.7644
2320	0.7661
2310	0.7711
2300	0.7774
2290	0.7838
2280	0.7874
2270	0.7881
2260	0.7893
2250	0.7914
2240	0.7944
2230	0.7994
2220	0.8019
2210	0.8032
2200	0.8048
2190	0.8065
2180	0.8089
2170	0.8112
2160	0.8138
2150	0.8162
2140	0.819
2130	0.8225
2120	0.8252
2110	0.8278
2100	0.8309
2090	0.8321
2080	0.8331
2070	0.8354
2060	0.8383
2050	0.8411
2040	0.844
2030	0.8437
2020	0.8435
2010	0.8457
2000	0.8492
1990	0.8543
1980	0.8577
1970	0.8586
1960	0.8501
1950	0.8539
1940	0.8451
1930	0.8503
1920	0.8623
1910	0.8677
1900	0.8695
1890	0.8692
1880	0.8378
1870	0.8344
1860	0.864
1850	0.8646
1840	0.8701
1830	0.8797
1820	0.8797
1810	0.8808
1800	0.8705
1790	0.8804
1780	0.8842
1770	0.8763
1760	0.8687
1750	0.868
1740	0.8717
1730	0.887
1720	0.8885
1710	0.8902
1700	0.8908
1690	0.904
1680	0.9113
1670	0.9162
1660	0.9163
1650	0.9135
1640	0.9128
1630	0.9047
1620	0.9233
1610	0.9085
1600	0.7257
1590	0.8578
1580	0.7868
1570	0.8982
1560	0.9339
1550	0.9449
1540	0.9491
1530	0.9821
1520	0.9894
1510	0.9553
1500	0.5082
1490	0.2564
1480	0.5901
1470	0.6733
1460	0.7158
1450	0.325
1440	0.3432
1430	0.1649
1420	0.2632
1410	0.4518
1400	0.6274
1390	0.65
1380	0.6117
1370	0.6493
1360	0.6936
1350	0.7151
1340	0.6942
1330	0.666
1320	0.7461
1310	0.7658
1300	0.7958
1290	0.8306
1280	0.8411
1270	0.7472
1260	0.7476
1250	0.6571
1240	0.2262
1230	0.3276
1220	0.5409
1210	0.6422
1200	0.7253
1190	0.6942
1180	0.4062
1170	0.2714
1160	0.3712
1150	0.5912
1140	0.7071
1130	0.7697
1120	0.5282
1110	0.3377
1100	0.5956
1090	0.6658
1080	0.7125
1070	0.4568
1060	0.684
1050	0.73
1040	0.749
1030	0.6571
1020	0.7454
1010	0.7751
1000	0.7711
990	0.7988
980	0.8121
970	0.8254
960	0.7893
950	0.8492
940	0.8437
930	0.8061
920	0.7278
910	0.8405
900	0.613
890	0.649
880	0.4068
870	0.788
860	0.8438
850	0.8665
840	0.7458
830	0.8735
820	0.3927
810	0.4946
800	0.7457
790	0.8228
780	0.7717
770	0.7693
760	0.8625
750	0.8715
740	0.7867
730	0.4095
720	0.1904
710	0.6808
700	0.5634
690	0.442
680	0.6475
670	0.7101
660	0.6638
650	0.2556
640	0.5319
630	0.4699
620	0.5377
610	0.4962
600	0.514
590	0.5341
580	0.5554
570	0.5455
560	0.5366
550	0.5428
540	0.4858
530	0.4022
520	0.5076
510	0.5225
500	0.5154
490	0.5081
480	0.5419
470	0.5553
460	0.5646
450	0.4144
440	0.4757
430	0.5305
420	0.5628
410	0.5797
400	0.5849
390	0.5897
380	0.5737
370	0.5841
360	0.5896
350	0.5957
340	0.5879
330	0.5942
320	0.5975
310	0.5862
300	0.5857
