Infrared Spectrum: 2,4-DI-TERT-AMYL PHENOL
Formula: C16 H26 O
CAS: 120-95-6
State: LIQUID
Melting point: 24-26 C
Class: COBLENTZ
Instrument: Not specified, most likely a prism, grating, or hybrid spectrometer.
Sampling: TRANSMISSION
Path length: 0.005 CM
Resolution: 4
Origin: WYANDOTTE CHEMICALS CORP., WYANDOTTE, MICHIGAN, USA
MICROMETERS	TRANSMITTANCE
2.071	0.983
2.11081	0.985
2.15063	0.983
2.19044	0.94
2.23026	0.893
2.27007	0.923
2.30989	0.935
2.3497	0.928
2.38951	0.936
2.42933	0.943
2.46914	0.955
2.50896	0.945
2.54877	0.941
2.58859	0.961
2.6284	0.968
2.66822	0.968
2.70803	0.905
2.74784	0.662
2.78766	0.394
2.82747	0.148
2.86729	0.163
2.9071	0.244
2.94692	0.331
2.98673	0.427
3.02654	0.607
3.06636	0.708
3.10617	0.787
3.14599	0.805
3.1858	0.85
3.22562	0.821
3.26543	0.695
3.30525	0.44
3.34506	0.028
3.38487	0.031
3.42469	0.031
3.4645	0.046
3.50432	0.113
3.54413	0.603
3.58395	0.798
3.62376	0.853
3.66357	0.881
3.70339	0.881
3.7432	0.923
3.78302	0.905
3.82283	0.93
3.86265	0.96
3.90246	0.965
3.94228	0.965
3.98209	0.963
4.0219	0.958
4.06172	0.955
4.10153	0.961
4.14135	0.955
4.18116	0.951
4.22098	0.951
4.26079	0.946
4.3006	0.956
4.34042	0.966
4.38023	0.988
4.42005	0.998
4.45986	0.998
4.49968	1.004
4.53949	1.009
4.57931	1.009
4.61912	1.009
4.65893	1.009
4.69875	1.011
4.73856	1.008
4.77838	1.004
4.81819	1.008
4.85801	1.008
4.89782	1.003
4.93763	1.003
4.97745	1.003
5.01726	1.003
5.05708	1.003
5.09689	1.003
5.13671	1.001
5.17652	1.004
5.21634	1.003
5.25615	1.006
5.29596	1.001
5.33578	0.985
5.37559	0.953
5.41541	0.946
5.45522	0.976
5.49504	0.983
5.53485	0.975
5.57466	0.98
5.61448	0.981
5.65429	0.968
5.69411	0.971
5.73392	0.97
5.77374	0.976
5.81355	0.983
5.85336	0.975
5.89318	0.983
5.93299	0.971
5.97281	0.97
6.01262	0.955
6.05244	0.926
6.09225	0.89
6.13207	0.831
6.17188	0.482
6.21169	0.748
6.25151	0.82
6.29132	0.876
6.33114	0.891
6.37095	0.88
6.41077	0.85
6.45058	0.793
6.49039	0.71
6.53021	0.637
6.57002	0.289
6.60984	0.091
6.64965	0.199
6.68947	0.246
6.72928	0.086
6.7691	0.084
6.80891	0.063
6.84872	0.131
6.88854	0.317
6.92835	0.464
6.96817	0.539
7.00798	0.467
7.0478	0.161
7.08761	0.029
7.12742	0.179
7.16724	0.261
7.20705	0.101
7.24687	0.093
7.28668	0.156
7.3265	0.131
7.36631	0.462
7.40613	0.354
7.44594	0.254
7.48575	0.171
7.52557	0.241
7.56538	0.459
7.6052	0.296
7.64501	0.256
7.68483	0.216
7.72464	0.284
7.76445	0.231
7.80427	0.341
7.84408	0.429
7.8839	0.299
7.92371	0.111
7.96353	0.041
8.00334	0.063
8.04316	0.116
8.08297	0.202
8.12278	0.229
8.1626	0.241
8.20241	0.198
8.24223	0.141
8.28204	0.126
8.32186	0.114
8.36167	0.101
8.40148	0.084
8.4413	0.073
8.48111	0.066
8.52093	0.073
8.56074	0.116
8.60056	0.229
8.64037	0.267
8.68018	0.138
8.72	0.121
8.75981	0.379
8.79963	0.54
8.83944	0.44
8.87926	0.381
8.91907	0.582
8.95889	0.615
8.9987	0.738
9.03851	0.743
9.07833	0.635
9.11814	0.327
9.15796	0.049
9.19777	0.091
9.23759	0.361
9.2774	0.6
9.31721	0.67
9.35703	0.6
9.39684	0.5
9.43666	0.54
9.47647	0.643
9.51629	0.615
9.5561	0.637
9.59592	0.708
9.63573	0.775
9.67554	0.818
9.71536	0.823
9.75517	0.787
9.79499	0.71
9.8348	0.587
9.87462	0.477
9.91443	0.427
9.95424	0.542
9.99406	0.707
10.0339	0.727
10.0737	0.737
10.1135	0.828
10.1533	0.876
10.1931	0.903
10.2329	0.926
10.2728	0.931
10.3126	0.933
10.3524	0.94
10.3922	0.941
10.432	0.94
10.4718	0.935
10.5116	0.923
10.5515	0.911
10.5913	0.886
10.6311	0.806
10.6709	0.735
10.7107	0.733
10.7505	0.765
10.7903	0.748
10.8302	0.78
10.87	0.783
10.9098	0.767
10.9496	0.821
10.9894	0.853
11.0292	0.878
11.069	0.856
11.1089	0.74
11.1487	0.613
11.1885	0.594
11.2283	0.613
11.2681	0.612
11.3079	0.607
11.3477	0.608
11.3876	0.665
11.4274	0.743
11.4672	0.841
11.507	0.888
11.5468	0.901
11.5866	0.911
11.6264	0.915
11.6663	0.916
11.7061	0.911
11.7459	0.903
11.7857	0.898
11.8255	0.885
11.8653	0.87
11.9051	0.843
11.945	0.803
11.9848	0.727
12.0246	0.623
12.0644	0.499
12.1042	0.354
12.144	0.239
12.1838	0.156
12.2237	0.109
12.2635	0.079
12.3033	0.078
12.3431	0.084
12.3829	0.168
12.4227	0.331
12.4625	0.504
12.5024	0.537
12.5422	0.492
12.582	0.497
12.6218	0.56
12.6616	0.6
12.7014	0.53
12.7413	0.371
12.7811	0.281
12.8209	0.247
12.8607	0.332
12.9005	0.517
12.9403	0.663
12.9801	0.757
13.02	0.811
13.0598	0.846
13.0996	0.87
13.1394	0.878
13.1792	0.883
13.219	0.881
13.2588	0.881
13.2987	0.865
13.3385	0.845
13.3783	0.823
13.4181	0.821
13.4579	0.845
13.4977	0.863
13.5375	0.883
13.5774	0.893
13.6172	0.9
13.657	0.903
13.6968	0.9
13.7366	0.9
13.7764	0.891
13.8162	0.883
13.8561	0.863
13.8959	0.831
13.9357	0.793
13.9755	0.708
14.0153	0.602
14.0551	0.527
14.0949	0.512
14.1348	0.564
14.1746	0.66
14.2144	0.742
14.2542	0.8
14.294	0.833
14.3338	0.856
14.3736	0.873
14.4135	0.881
14.4533	0.89
14.4931	0.89
14.5329	0.89
14.5727	0.888
14.6125	0.878
14.6523	0.883
14.6922	0.883
14.732	0.878
14.7718	0.868
14.8116	0.866
14.8514	0.858
14.8912	0.84
14.931	0.823
14.9709	0.801
15.0107	0.788
15.0505	0.767
15.0903	0.72
15.1301	0.687
15.1699	0.668
15.2097	0.682
15.2496	0.7
15.2894	0.738
15.3292	0.75
15.369	0.732
15.4088	0.698
15.4486	0.64
15.4884	0.602
15.5283	0.61
15.5681	0.627
15.6079	0.667
15.6477	0.695
15.6875	0.728
15.7273	0.745
15.7671	0.765
15.807	0.778
15.8468	0.777
15.8866	0.787
15.9264	0.783
15.9662	0.783
16.006	0.783
