Infrared Spectrum: HYDROQUINONE, DIACETATE
Formula: C10 H10 O4
CAS: 1205-91-0
State: SOLID (SPLIT MULL)
Class: COBLENTZ III
Instrument: BECKMAN IR-9 (GRATING)
Instrument parameters: ORDER CHANGES: 670, 1200, 2000 CM^-^1
Sampling: TRANSMISSION
Resolution: 2
Origin: DOW CHEMICAL COMPANY
1/CM	TRANSMITTANCE
3787.1	0.6401
3778.19	0.6413
3769.27	0.6426
3760.36	0.6439
3751.45	0.6451
3742.53	0.6462
3733.62	0.6475
3724.71	0.6489
3715.79	0.6505
3706.88	0.6521
3697.97	0.654
3689.05	0.6553
3680.14	0.6566
3671.22	0.6581
3662.31	0.6595
3653.4	0.661
3644.48	0.6625
3635.57	0.6643
3626.66	0.6668
3617.74	0.6694
3608.83	0.6715
3599.92	0.6737
3591	0.6759
3582.09	0.6774
3573.18	0.6788
3564.26	0.6801
3555.35	0.6805
3546.44	0.6802
3537.52	0.6788
3528.61	0.6758
3519.7	0.672
3510.78	0.6645
3501.87	0.6542
3492.96	0.6426
3484.04	0.6302
3475.13	0.6187
3466.21	0.6076
3457.3	0.5933
3448.39	0.5789
3439.47	0.5648
3430.56	0.5526
3421.65	0.5303
3412.73	0.4827
3403.82	0.4291
3394.91	0.3932
3385.99	0.4081
3377.08	0.4376
3368.17	0.4555
3359.25	0.4722
3350.34	0.4883
3341.43	0.5044
3332.51	0.5207
3323.6	0.5348
3314.69	0.5461
3305.77	0.5575
3296.86	0.5682
3287.95	0.5788
3279.03	0.5893
3270.12	0.5988
3261.21	0.6076
3252.29	0.6162
3243.38	0.6237
3234.46	0.6305
3225.55	0.6369
3216.64	0.6412
3207.72	0.6454
3198.81	0.649
3189.9	0.6515
3180.98	0.6542
3172.07	0.6569
3163.16	0.6599
3154.24	0.6611
3145.33	0.6621
3136.42	0.6611
3127.5	0.6583
3118.59	0.655
3109.68	0.6662
3100.76	0.6716
3091.85	0.6688
3082.94	0.6587
3074.02	0.6561
3065.11	0.6627
3056.2	0.6704
3047.28	0.6669
3038.37	0.6711
3029.45	0.6774
3020.54	0.6793
3011.63	0.679
3002.71	0.6796
2993.8	0.6862
2984.89	0.6931
2975.97	0.6956
2967.06	0.6976
2958.15	0.6976
2949.23	0.6964
2940.32	0.6949
2931.41	0.6946
2922.49	0.6988
2913.58	0.7042
2904.67	0.7089
2895.75	0.7106
2886.84	0.7122
2877.93	0.7145
2869.01	0.7165
2860.1	0.7187
2851.19	0.7207
2842.27	0.7233
2833.36	0.7264
2824.44	0.7294
2815.53	0.7323
2806.62	0.7349
2797.7	0.7369
2788.79	0.739
2779.88	0.741
2770.96	0.7428
2762.05	0.7446
2753.14	0.7461
2744.22	0.7471
2735.31	0.748
2726.4	0.7489
2717.48	0.7497
2708.57	0.7506
2699.66	0.7518
2690.74	0.7529
2681.83	0.7541
2672.92	0.7555
2664	0.7576
2655.09	0.7598
2646.18	0.7619
2637.26	0.7636
2628.35	0.7654
2619.44	0.767
2610.52	0.7681
2601.61	0.7688
2592.69	0.7694
2583.78	0.7699
2574.87	0.7686
2565.95	0.7674
2557.04	0.7662
2548.13	0.7654
2539.21	0.7676
2530.3	0.7705
2521.39	0.7734
2512.47	0.7747
2503.56	0.7757
2494.65	0.7764
2485.73	0.7769
2476.82	0.7768
2467.91	0.7768
2458.99	0.7769
2450.08	0.7761
2441.17	0.7749
2432.25	0.7737
2423.34	0.7724
2414.43	0.7717
2405.51	0.7712
2396.6	0.7719
2387.68	0.7746
2378.77	0.7839
2369.86	0.7878
2360.94	0.7881
2352.03	0.7867
2343.12	0.7853
2334.2	0.784
2325.29	0.7824
2316.38	0.7822
2307.46	0.7859
2298.55	0.7897
2289.64	0.7933
2280.72	0.7936
2271.81	0.7937
2262.9	0.7973
2253.98	0.8031
2245.07	0.8078
2236.16	0.812
2227.24	0.8163
2218.33	0.8197
2209.42	0.823
2200.5	0.8263
2191.59	0.8287
2182.67	0.831
2173.76	0.833
2164.85	0.8349
2155.93	0.8368
2147.02	0.8386
2138.11	0.8399
2129.19	0.8406
2120.28	0.8424
2111.37	0.8467
2102.45	0.8496
2093.54	0.852
2084.63	0.8528
2075.71	0.8537
2066.8	0.8553
2057.89	0.8568
2048.97	0.8578
2040.06	0.8581
2031.15	0.8559
2022.23	0.854
2013.32	0.8539
2004.41	0.8572
1995.49	0.8569
1986.58	0.8531
1977.67	0.8564
1968.75	0.8659
1959.84	0.871
1950.92	0.8727
1942.01	0.873
1933.1	0.8676
1924.18	0.8532
1915.27	0.8581
1906.36	0.8699
1897.44	0.88
1888.53	0.8788
1879.62	0.8783
1870.7	0.876
1861.79	0.8722
1852.88	0.8598
1843.96	0.8679
1835.05	0.8643
1826.14	0.8322
1817.22	0.844
1808.31	0.8618
1799.4	0.8614
1790.48	0.8269
1781.57	0.7748
1772.66	0.5911
1763.74	0.1715
1754.83	0.3172
1745.91	0.3719
1737	0.5628
1728.09	0.3892
1719.17	0.1674
1710.26	0.5007
1701.35	0.6469
1692.43	0.6849
1683.52	0.6913
1674.61	0.7223
1665.69	0.7334
1656.78	0.7582
1647.87	0.7707
1638.95	0.7721
1630.04	0.7744
1621.13	0.7975
1612.21	0.8092
1603.3	0.8111
1594.39	0.8151
1585.47	0.8255
1576.56	0.8453
1567.65	0.8547
1558.73	0.8583
1549.82	0.8591
1540.9	0.8466
1531.99	0.8325
1523.08	0.7782
1514.16	0.5796
1505.25	0.241
1496.34	0.5662
1487.42	0.6847
1478.51	0.6908
1469.6	0.5968
1460.68	0.4557
1451.77	0.6621
1442.86	0.7061
1433.94	0.6611
1425.03	0.6979
1416.12	0.6759
1407.2	0.762
1398.29	0.7747
1389.38	0.7701
1380.46	0.7279
1371.55	0.4526
1362.64	0.3398
1353.72	0.5736
1344.81	0.5428
1335.9	0.6691
1326.98	0.7618
1318.07	0.7607
1309.15	0.7574
1300.24	0.756
1291.33	0.7486
1282.41	0.7528
1273.5	0.7396
1264.59	0.6994
1255.67	0.44
1246.76	0.4137
1237.85	0.2536
1228.93	0.4634
1220.02	0.2328
1211.11	0.1686
1202.19	0.3657
1193.28	0.4393
1184.37	0.1552
1175.45	0.0223
1166.54	0.1745
1157.63	0.4431
1148.71	0.5744
1139.8	0.633
1130.89	0.7031
1121.97	0.7179
1113.06	0.7524
1104.14	0.7299
1095.23	0.6684
1086.32	0.7521
1077.4	0.7613
1068.49	0.7635
1059.58	0.7621
1050.66	0.7337
1041.75	0.6512
1032.84	0.7466
1023.92	0.6911
1015.01	0.3655
1006.1	0.6427
997.183	0.7661
988.27	0.8008
979.356	0.8011
970.443	0.7851
961.529	0.8069
952.616	0.8074
943.702	0.7671
934.789	0.6017
925.875	0.4163
916.962	0.5892
908.048	0.759
899.135	0.802
890.221	0.8102
881.308	0.8226
872.394	0.8211
863.481	0.809
854.567	0.5008
845.654	0.7348
836.741	0.8056
827.827	0.5225
818.914	0.8291
810	0.8494
801.087	0.8541
792.173	0.8565
783.26	0.8552
774.346	0.8374
765.433	0.7855
756.519	0.8359
747.606	0.8572
738.692	0.8569
729.779	0.8444
720.865	0.8347
711.952	0.8717
703.038	0.8843
694.125	0.8849
685.212	0.8847
676.298	0.8742
667.385	0.8563
658.471	0.8398
649.558	0.82
640.644	0.7843
631.731	0.7587
622.817	0.7588
613.904	0.6812
604.99	0.6395
596.077	0.7607
587.163	0.8211
578.25	0.8499
569.336	0.8702
560.423	0.8768
551.509	0.8721
542.596	0.8895
533.682	0.8855
524.769	0.6682
515.856	0.7358
506.942	0.857
498.029	0.8936
489.115	0.8952
480.202	0.89
471.288	0.8791
462.375	0.8691
453.461	0.8547
444.548	0.8291
435.634	0.7993
426.721	0.7608
417.807	0.733
408.894	0.7162
399.98	0.7315
