Infrared Spectrum: Maleimide, N-(2,6-xylyl)-
Formula: C12 H11 N O2
CAS: 1206-49-1
State: SOLID (SPLIT MULL), FLUOROLUBE FOR 3800-1330 CM^-^1, NUJOL FOR 1330-400 CM^-^1
Class: COBLENTZ III
Instrument: DOW KBr FOREPRISM-GRATING
Instrument parameters: BLAZED AT 3.5, 12.0, 20.0 MICRON AND CHANGED AT 5.0, 7.5, 14.9 MICRON
Sampling: TRANSMISSION
Resolution: 2
Origin: DOW CHEMICAL COMPANY
1/CM	TRANSMITTANCE
3796	0.7901
3787	0.7917
3778	0.7935
3769	0.7946
3760	0.7954
3751	0.796
3742	0.7967
3733	0.7975
3724	0.7978
3715	0.7989
3706	0.7951
3697	0.7933
3688	0.7939
3679	0.795
3670	0.7961
3661	0.7968
3652	0.7971
3643	0.7971
3634	0.798
3625	0.7989
3616	0.8
3607	0.8003
3598	0.8008
3589	0.7996
3580	0.7988
3571	0.7987
3562	0.799
3553	0.7994
3544	0.8
3535	0.8006
3526	0.8011
3517	0.8014
3508	0.8014
3499	0.8008
3490	0.8
3481	0.7994
3472	0.7568
3463	0.7922
3454	0.7965
3445	0.8001
3436	0.8019
3427	0.8035
3418	0.8047
3409	0.8057
3400	0.8065
3391	0.8076
3382	0.809
3373	0.81
3364	0.8105
3355	0.8111
3346	0.8118
3337	0.8126
3328	0.8135
3319	0.8143
3310	0.8151
3301	0.8158
3292	0.8167
3283	0.8175
3274	0.8189
3265	0.8201
3256	0.8212
3247	0.822
3238	0.8227
3229	0.8236
3220	0.8244
3211	0.8249
3202	0.826
3193	0.826
3184	0.8232
3175	0.7996
3166	0.8194
3157	0.8261
3148	0.8268
3139	0.8273
3130	0.823
3121	0.7914
3112	0.8162
3103	0.7143
3094	0.8081
3085	0.8122
3076	0.8106
3067	0.8201
3058	0.821
3049	0.8194
3040	0.8209
3031	0.8246
3022	0.8227
3013	0.8266
3004	0.8278
2995	0.8228
2986	0.8141
2977	0.8122
2968	0.8119
2959	0.811
2950	0.8005
2941	0.7975
2932	0.7971
2923	0.7946
2914	0.8032
2905	0.8119
2896	0.8208
2887	0.8271
2878	0.8263
2869	0.8225
2860	0.8221
2851	0.8271
2842	0.8356
2833	0.8421
2824	0.8475
2815	0.8521
2806	0.8565
2797	0.8585
2788	0.8575
2779	0.856
2770	0.855
2761	0.854
2752	0.8533
2743	0.8528
2734	0.8512
2725	0.8497
2716	0.851
2707	0.8523
2698	0.8543
2689	0.8563
2680	0.858
2671	0.8597
2662	0.8613
2653	0.8627
2644	0.8641
2635	0.8647
2626	0.8654
2617	0.8661
2608	0.8668
2599	0.8677
2590	0.8686
2581	0.8693
2572	0.8697
2563	0.8701
2554	0.87
2545	0.8688
2536	0.8661
2527	0.863
2518	0.8627
2509	0.8633
2500	0.864
2491	0.8644
2482	0.8649
2473	0.8661
2464	0.8675
2455	0.8695
2446	0.8695
2437	0.8686
2428	0.8677
2419	0.8671
2410	0.8667
2401	0.8658
2392	0.8649
2383	0.8671
2374	0.8678
2365	0.8681
2356	0.8653
2347	0.8497
2338	0.8649
2329	0.8727
2320	0.8659
2311	0.8635
2302	0.8646
2293	0.8663
2284	0.8678
2275	0.869
2266	0.8703
2257	0.8715
2248	0.8727
2239	0.8739
2230	0.8754
2221	0.8767
2212	0.8781
2203	0.8792
2194	0.8798
2185	0.8802
2176	0.8807
2167	0.881
2158	0.8813
2149	0.8814
2140	0.8815
2131	0.8816
2122	0.8827
2113	0.8837
2104	0.8847
2095	0.8857
2086	0.8865
2077	0.8873
2068	0.8882
2059	0.8894
2050	0.8907
2041	0.8916
2032	0.8925
2023	0.8936
2014	0.8944
2005	0.8958
1996	0.9059
1987	0.9092
1978	0.9091
1969	0.9136
1960	0.9191
1951	0.9104
1942	0.9168
1933	0.917
1924	0.9211
1915	0.9149
1906	0.9174
1897	0.902
1888	0.908
1879	0.9154
1870	0.9223
1861	0.9237
1852	0.9247
1843	0.9258
1834	0.9283
1825	0.9275
1816	0.9111
1807	0.9075
1798	0.916
1789	0.9134
1780	0.9117
1771	0.8956
1762	0.9041
1753	0.9001
1744	0.8845
1735	0.763
1726	0.2819
1717	0.0321
1708	0.5495
1699	0.7476
1690	0.749
1681	0.8343
1672	0.8616
1663	0.8786
1654	0.8945
1645	0.8947
1636	0.8925
1627	0.9048
1618	0.9084
1609	0.8991
1600	0.8794
1591	0.8167
1582	0.9028
1573	0.9117
1564	0.9093
1555	0.9118
1546	0.9131
1537	0.91
1528	0.9099
1519	0.9117
1510	0.9054
1501	0.8883
1492	0.8485
1483	0.609
1474	0.6558
1465	0.8019
1456	0.8239
1447	0.7632
1438	0.769
1429	0.8275
1420	0.8562
1411	0.8515
1402	0.8316
1393	0.4775
1384	0.5862
1375	0.3899
1366	0.7076
1357	0.8026
1348	0.8037
1339	0.8147
1330	0.8168
1321	0.7999
1312	0.7918
1303	0.7951
1294	0.8058
1285	0.8092
1276	0.8186
1267	0.7887
1258	0.8178
1249	0.828
1240	0.8346
1231	0.8388
1222	0.8406
1213	0.8337
1204	0.7953
1195	0.8245
1186	0.8296
1177	0.8171
1168	0.7997
1159	0.496
1150	0.5529
1141	0.7886
1132	0.8067
1123	0.8039
1114	0.8259
1105	0.8295
1096	0.8297
1087	0.8302
1078	0.831
1069	0.8327
1060	0.693
1051	0.8168
1042	0.8212
1033	0.8216
1024	0.7775
1015	0.8286
1006	0.8425
997	0.8475
988	0.8528
979	0.8521
970	0.8568
961	0.8536
952	0.7895
943	0.8635
934	0.8783
925	0.8675
916	0.8861
907	0.8899
898	0.8821
889	0.8943
880	0.8999
871	0.9003
862	0.8985
853	0.8932
844	0.8725
835	0.5706
826	0.8924
817	0.9032
808	0.9055
799	0.9011
790	0.8412
781	0.7035
772	0.8666
763	0.8961
754	0.8962
745	0.8633
736	0.8497
727	0.8375
718	0.8581
709	0.8854
700	0.8447
691	0.5809
682	0.8618
673	0.8739
664	0.8157
655	0.8553
646	0.8798
637	0.8793
628	0.8838
619	0.8835
610	0.8796
601	0.8736
592	0.8131
583	0.8568
574	0.8612
565	0.8659
556	0.8665
547	0.8591
538	0.8566
529	0.8548
520	0.8486
511	0.8418
502	0.8352
493	0.8267
484	0.8172
475	0.8057
466	0.7532
457	0.7214
448	0.7922
439	0.7984
430	0.8011
421	0.8024
412	0.804
403	0.8075
394	0.8128
385	0.8191
