Infrared Spectrum: M-NITROBENZENE SULFONYL CHLORIDE
Formula: C6 H4 Cl N O4 S
CAS: 121-51-7
State: SOLID (MINERAL OIL MULL)
Melting point: 62-64 C
Class: COBLENTZ
Instrument: Not specified, most likely a prism, grating, or hybrid spectrometer.
Sampling: TRANSMISSION
Resolution: 4
Origin: WYANDOTTE CHEMICALS CORP., WYANDOTTE, MICHIGAN, USA
MICROMETERS	TRANSMITTANCE
2.034	0.5
2.0749	0.504
2.11579	0.507
2.15669	0.507
2.19759	0.507
2.23849	0.507
2.27938	0.505
2.32028	0.507
2.36118	0.512
2.40207	0.519
2.44297	0.531
2.48387	0.538
2.52477	0.546
2.56566	0.551
2.60656	0.562
2.64746	0.574
2.68835	0.579
2.72925	0.577
2.77015	0.57
2.81105	0.56
2.85194	0.55
2.89284	0.541
2.93374	0.541
2.97463	0.541
3.01553	0.543
3.05643	0.545
3.09732	0.54
3.13822	0.524
3.17912	0.494
3.22002	0.379
3.26091	0.357
3.30181	0.333
3.34271	0.201
3.3836	0.052
3.4245	0.034
3.4654	0.047
3.5063	0.057
3.54719	0.403
3.58809	0.584
3.62899	0.62
3.66988	0.608
3.71078	0.616
3.75168	0.632
3.79258	0.643
3.83347	0.659
3.87437	0.666
3.91527	0.681
3.95616	0.691
3.99706	0.708
4.03796	0.715
4.07886	0.718
4.11975	0.724
4.16065	0.727
4.20155	0.727
4.24244	0.722
4.28334	0.718
4.32424	0.737
4.36514	0.773
4.40603	0.787
4.44693	0.785
4.48783	0.78
4.52872	0.785
4.56962	0.792
4.61052	0.798
4.65142	0.804
4.69231	0.81
4.73321	0.817
4.77411	0.824
4.815	0.836
4.8559	0.844
4.8968	0.85
4.9377	0.855
4.97859	0.862
5.01949	0.867
5.06039	0.821
5.10128	0.867
5.14218	0.879
5.18308	0.86
5.22397	0.863
5.26487	0.889
5.30577	0.89
5.34667	0.882
5.38756	0.918
5.42846	0.899
5.46936	0.926
5.51025	0.93
5.55115	0.863
5.59205	0.914
5.63295	0.928
5.67384	0.911
5.71474	0.867
5.75564	0.928
5.79653	0.909
5.83743	0.936
5.87833	0.959
5.91923	0.942
5.96012	0.928
6.00102	0.916
6.04192	0.94
6.08281	0.916
6.12371	0.892
6.16461	0.752
6.20551	0.408
6.2464	0.787
6.2873	0.778
6.3282	0.819
6.36909	0.735
6.40999	0.545
6.45089	0.359
6.49179	0.175
6.53268	0.233
6.57358	0.458
6.61448	0.562
6.65537	0.592
6.69627	0.587
6.73717	0.512
6.77807	0.219
6.81896	0.131
6.85986	0.26
6.90076	0.356
6.94165	0.385
6.98255	0.526
7.02345	0.62
7.06435	0.584
7.10524	0.533
7.14614	0.386
7.18704	0.245
7.22793	0.1
7.26883	0.218
7.30973	0.379
7.35062	0.144
7.39152	0.09
7.43242	0.163
7.47332	0.253
7.51421	0.321
7.55511	0.356
7.59601	0.373
7.6369	0.419
7.6778	0.478
7.7187	0.521
7.7596	0.579
7.80049	0.57
7.84139	0.429
7.88229	0.563
7.92318	0.574
7.96408	0.589
8.00498	0.603
8.04588	0.599
8.08677	0.592
8.12767	0.572
8.16857	0.553
8.20946	0.504
8.25036	0.453
8.29126	0.385
8.33216	0.301
8.37305	0.195
8.41395	0.16
8.45485	0.158
8.49574	0.141
8.53664	0.221
8.57754	0.364
8.61844	0.485
8.65933	0.512
8.70023	0.534
8.74113	0.57
8.78202	0.606
8.82292	0.58
8.86382	0.459
8.90472	0.439
8.94561	0.58
8.98651	0.671
9.02741	0.657
9.0683	0.589
9.1092	0.519
9.1501	0.587
9.191	0.604
9.23189	0.502
9.27279	0.413
9.31369	0.424
9.35458	0.379
9.39548	0.483
9.43638	0.584
9.47727	0.647
9.51817	0.683
9.55907	0.71
9.59997	0.72
9.64086	0.729
9.68176	0.737
9.72266	0.754
9.76355	0.77
9.80445	0.797
9.84535	0.812
9.88625	0.817
9.92714	0.783
9.96804	0.579
10.0089	0.671
10.0498	0.781
10.0907	0.822
10.1316	0.839
10.1725	0.858
10.2134	0.867
10.2543	0.867
10.2952	0.884
10.3361	0.89
10.377	0.908
10.4179	0.916
10.4588	0.919
10.4997	0.918
10.5406	0.853
10.5815	0.768
10.6224	0.882
10.6633	0.931
10.7042	0.943
10.7451	0.95
10.786	0.954
10.8269	0.957
10.8678	0.962
10.9087	0.964
10.9496	0.95
10.9905	0.839
11.0314	0.546
11.0723	0.632
11.1132	0.913
11.1541	0.977
11.195	1.001
11.2359	1.003
11.2767	0.982
11.3176	0.824
11.3585	0.419
11.3994	0.199
11.4403	0.369
11.4812	0.584
11.5221	0.696
11.563	0.759
11.6039	0.819
11.6448	0.851
11.6857	0.872
11.7266	0.89
11.7675	0.904
11.8084	0.909
11.8493	0.919
11.8902	0.928
11.9311	0.93
11.972	0.928
12.0129	0.928
12.0538	0.923
12.0947	0.908
12.1356	0.875
12.1765	0.797
12.2174	0.63
12.2583	0.422
12.2992	0.618
12.3401	0.838
12.381	0.94
12.4219	0.996
12.4628	1.003
12.5037	1.006
12.5446	1.006
12.5855	1.006
12.6264	1.006
12.6672	1.005
12.7081	1.005
12.749	1.001
12.7899	1
12.8308	0.996
12.8717	0.991
12.9126	0.981
12.9535	0.965
12.9944	0.947
13.0353	0.933
13.0762	0.88
13.1171	0.741
13.158	0.534
13.1989	0.415
13.2398	0.511
13.2807	0.703
13.3216	0.805
13.3625	0.833
13.4034	0.826
13.4443	0.805
13.4852	0.739
13.5261	0.63
13.567	0.456
13.6079	0.337
13.6488	0.488
13.6897	0.701
13.7306	0.843
13.7715	0.89
13.8124	0.906
13.8533	0.902
13.8942	0.918
13.9351	0.955
13.976	0.988
14.0169	0.998
14.0578	1.001
14.0986	1.005
14.1395	1.005
14.1804	1.005
14.2213	1.005
14.2622	1.005
14.3031	1.003
14.344	1.001
14.3849	0.996
14.4258	0.989
14.4667	0.986
14.5076	0.974
14.5485	0.957
14.5894	0.947
14.6303	0.926
14.6712	0.899
14.7121	0.865
14.753	0.838
14.7939	0.802
14.8348	0.775
14.8757	0.739
14.9166	0.693
14.9575	0.643
14.9984	0.589
15.0393	0.473
15.0802	0.364
15.1211	0.303
15.162	0.289
15.2029	0.313
15.2438	0.321
15.2847	0.327
15.3256	0.367
15.3665	0.453
15.4074	0.543
15.4483	0.604
15.4892	0.654
15.53	0.676
15.5709	0.705
15.6118	0.715
15.6527	0.713
15.6936	0.708
15.7345	0.691
15.7754	0.672
15.8163	0.659
15.8572	0.637
15.8981	0.633
15.939	0.611
