Infrared Spectrum: ANILINE, N,N-DIMETHYL-
Formula: C8 H11 N
CAS: 121-69-7
State: LIQUID (NEAT)
Class: COBLENTZ III
Instrument: BECKMAN IR-4 (HYBRID PRISM-GRATING)
Sampling: TRANSMISSION
Path length: CAPILLARY
Resolution: 4
Origin: UNIVERSITY OF FLORIDA
MICROMETERS	TRANSMITTANCE
0.96	0.913
0.996591	0.913
1.03318	0.913
1.06977	0.913
1.10636	0.912
1.14295	0.912
1.17954	0.911
1.21613	0.909
1.25272	0.909
1.28932	0.909
1.32591	0.909
1.3625	0.909
1.39909	0.909
1.43568	0.908
1.47227	0.907
1.50886	0.907
1.54545	0.908
1.58204	0.909
1.61863	0.91
1.65522	0.91
1.69181	0.91
1.7284	0.91
1.76499	0.91
1.80158	0.91
1.83817	0.91
1.87476	0.91
1.91136	0.91
1.94795	0.91
1.98454	0.909
2.02113	0.909
2.05772	0.907
2.09431	0.9
2.1309	0.906
2.16749	0.901
2.20408	0.886
2.24067	0.881
2.27726	0.886
2.31385	0.884
2.35044	0.886
2.38703	0.887
2.42362	0.873
2.46021	0.893
2.4968	0.902
2.53339	0.906
2.56999	0.906
2.60658	0.907
2.64317	0.906
2.67976	0.907
2.71635	0.906
2.75294	0.906
2.78953	0.905
2.82612	0.902
2.86271	0.897
2.8993	0.893
2.93589	0.893
2.97248	0.894
3.00907	0.895
3.04566	0.893
3.08225	0.889
3.11884	0.879
3.15543	0.873
3.19203	0.844
3.22862	0.713
3.26521	0.567
3.3018	0.518
3.33839	0.518
3.37498	0.448
3.41157	0.391
3.44816	0.342
3.48475	0.358
3.52134	0.427
3.55793	0.34
3.59452	0.638
3.63111	0.798
3.6677	0.849
3.70429	0.847
3.74088	0.851
3.77747	0.854
3.81407	0.855
3.85066	0.868
3.88725	0.87
3.92384	0.871
3.96043	0.878
3.99702	0.882
4.03361	0.888
4.0702	0.89
4.10679	0.902
4.14338	0.903
4.17997	0.903
4.21656	0.899
4.25315	0.898
4.28974	0.901
4.32633	0.906
4.36292	0.906
4.39951	0.9
4.4361	0.892
4.4727	0.897
4.50929	0.908
4.54588	0.908
4.58247	0.908
4.61906	0.907
4.65565	0.906
4.69224	0.907
4.72883	0.899
4.76542	0.878
4.80201	0.871
4.8386	0.9
4.87519	0.906
4.91178	0.907
4.94837	0.907
4.98496	0.908
5.02155	0.908
5.05814	0.907
5.09474	0.895
5.13133	0.877
5.16792	0.84
5.20451	0.817
5.2411	0.818
5.27769	0.842
5.31428	0.862
5.35087	0.878
5.38746	0.882
5.42405	0.87
5.46064	0.856
5.49723	0.854
5.53382	0.863
5.57041	0.87
5.607	0.862
5.64359	0.848
5.68018	0.839
5.71678	0.829
5.75337	0.819
5.78996	0.823
5.82655	0.834
5.86314	0.814
5.89973	0.799
5.93632	0.775
5.97291	0.786
6.0095	0.788
6.04609	0.768
6.08268	0.739
6.11927	0.649
6.15586	0.48
6.19245	0.254
6.22904	0.042
6.26563	0.061
6.30222	0.343
6.33881	0.388
6.37541	0.532
6.412	0.582
6.44859	0.572
6.48518	0.507
6.52177	0.401
6.55836	0.152
6.59495	0.07
6.63154	0.079
6.66813	0.191
6.70472	0.301
6.74131	0.328
6.7779	0.421
6.81449	0.438
6.85108	0.378
6.88767	0.32
6.92426	0.269
6.96085	0.544
6.99745	0.649
7.03404	0.699
7.07063	0.709
7.10722	0.727
7.14381	0.727
7.1804	0.709
7.21699	0.671
7.25358	0.6
7.29017	0.505
7.32676	0.302
7.36335	0.159
7.39994	0.078
7.43653	0.079
7.47312	0.192
7.50971	0.353
7.5463	0.47
7.58289	0.569
7.61949	0.626
7.65608	0.658
7.69267	0.685
7.72926	0.71
7.76585	0.721
7.80244	0.724
7.83903	0.721
7.87562	0.716
7.91221	0.707
7.9488	0.702
7.98539	0.677
8.02198	0.618
8.05857	0.512
8.09516	0.379
8.13175	0.237
8.16834	0.269
8.20493	0.365
8.24152	0.482
8.27812	0.531
8.31471	0.528
8.3513	0.449
8.38789	0.259
8.42448	0.398
8.46107	0.554
8.49766	0.537
8.53425	0.427
8.57084	0.295
8.60743	0.336
8.64402	0.383
8.68061	0.5
8.7172	0.538
8.75379	0.53
8.79038	0.511
8.82697	0.497
8.86356	0.501
8.90016	0.538
8.93675	0.609
8.97334	0.66
9.00993	0.696
9.04652	0.712
9.08311	0.725
9.1197	0.735
9.15629	0.739
9.19288	0.737
9.22947	0.73
9.26606	0.715
9.30265	0.697
9.33924	0.639
9.37583	0.545
9.41242	0.427
9.44901	0.42
9.4856	0.555
9.5222	0.646
9.55879	0.716
9.59538	0.732
9.63197	0.646
9.66856	0.475
9.70515	0.49
9.74174	0.647
9.77833	0.724
9.81492	0.78
9.85151	0.799
9.8881	0.812
9.92469	0.812
9.96128	0.805
9.99787	0.788
10.0345	0.729
10.0711	0.54
10.1076	0.254
10.1442	0.41
10.1808	0.671
10.2174	0.722
10.254	0.771
10.2906	0.794
10.3272	0.798
10.3638	0.793
10.4004	0.787
10.437	0.767
10.4736	0.737
10.5101	0.697
10.5467	0.522
10.5833	0.307
10.6199	0.335
10.6565	0.469
10.6931	0.631
10.7297	0.717
10.7663	0.765
10.8029	0.791
10.8395	0.814
10.876	0.828
10.9126	0.838
10.9492	0.845
10.9858	0.849
11.0224	0.852
11.059	0.853
11.0956	0.854
11.1322	0.855
11.1688	0.856
11.2054	0.855
11.242	0.853
11.2785	0.85
11.3151	0.845
11.3517	0.838
11.3883	0.821
11.4249	0.802
11.4615	0.767
11.4981	0.731
11.5347	0.652
11.5713	0.614
11.6079	0.615
11.6444	0.65
11.681	0.695
11.7176	0.757
11.7542	0.804
11.7908	0.825
11.8274	0.843
11.864	0.851
11.9006	0.855
11.9372	0.856
11.9738	0.856
12.0104	0.856
12.0469	0.855
12.0835	0.852
12.1201	0.849
12.1567	0.845
12.1933	0.839
12.2299	0.83
12.2665	0.826
12.3031	0.817
12.3397	0.812
12.3763	0.81
12.4129	0.813
12.4494	0.822
12.486	0.826
12.5226	0.829
12.5592	0.831
12.5958	0.831
12.6324	0.831
12.669	0.83
12.7056	0.826
12.7422	0.822
12.7788	0.814
12.8153	0.808
12.8519	0.801
12.8885	0.794
12.9251	0.78
12.9617	0.764
12.9983	0.75
13.0349	0.718
13.0715	0.682
13.1081	0.61
13.1447	0.532
13.1813	0.397
13.2178	0.239
13.2544	0.109
13.291	0.038
13.3276	0.013
13.3642	0.021
13.4008	0.052
13.4374	0.112
13.474	0.207
13.5106	0.277
13.5472	0.328
13.5837	0.419
13.6203	0.53
13.6569	0.6
13.6935	0.649
13.7301	0.681
13.7667	0.698
13.8033	0.709
13.8399	0.716
13.8765	0.724
13.9131	0.724
13.9497	0.723
13.9862	0.722
14.0228	0.72
14.0594	0.715
14.096	0.706
14.1326	0.699
14.1692	0.689
14.2058	0.668
14.2424	0.627
14.279	0.58
14.3156	0.524
14.3522	0.445
14.3887	0.349
14.4253	0.209
14.4619	0.118
14.4985	0.091
14.5351	0.101
14.5717	0.17
14.6083	0.277
14.6449	0.36
14.6815	0.448
14.7181	0.52
14.7546	0.561
14.7912	0.588
14.8278	0.599
14.8644	0.609
14.901	0.618
14.9376	0.626
14.9742	0.627
