Infrared Spectrum: 3-NITROACETOPHENONE
Formula: C8 H7 N O3
CAS: 121-89-1
State: SOLUTION (10% IN CCl4 FOR 3800-1330 AND 10% IN CS2 FOR 1330-400 CM^-^1)
Class: COBLENTZ
Instrument: Not specified, most likely a prism, grating, or hybrid spectrometer.
Sampling: TRANSMISSION
Path length: 0.010 AND 0.010 CM
Resolution: 4
Origin: DOW CHEMICAL COMPANY
1/CM	TRANSMITTANCE
444.357	0.713
453.828	0.713
463.299	0.729
472.771	0.75
482.242	0.777
491.713	0.808
501.184	0.834
510.656	0.851
520.127	0.86
529.598	0.847
539.069	0.841
548.54	0.867
558.012	0.875
567.483	0.865
576.954	0.827
586.425	0.542
595.897	0.2004
605.368	0.7148
614.839	0.786
624.31	0.762
633.781	0.694
643.253	0.5251
652.724	0.408
662.195	0.1963
671.666	0.1933
681.138	0.474
690.609	0.7129
700.08	0.753
709.551	0.762
719.022	0.74
728.494	0.6319
737.965	0.2784
747.436	0.759
756.907	0.751
766.379	0.321
775.85	0.795
785.321	0.755
794.792	0.761
804.263	0.3542
813.735	0.288
823.206	0.783
832.677	0.7261
842.148	0.4481
851.62	0.125
861.091	0.145
870.562	0.183
880.033	0.2221
889.504	0.5136
898.976	0.625
908.447	0.761
917.918	0.669
927.389	0.863
936.861	0.7508
946.332	0.845
955.803	0.564
965.274	0.797
974.745	0.7789
984.217	0.897
993.688	0.884
1003.16	0.81
1012.63	0.873
1022.1	0.777
1031.57	0.891
1041.04	0.886
1050.52	0.887
1059.99	0.862
1069.46	0.731
1078.93	0.6799
1088.4	0.81
1097.87	0.744
1107.34	0.536
1116.81	0.4187
1126.28	0.843
1135.76	0.904
1145.23	0.889
1154.7	0.856
1164.17	0.724
1173.64	0.862
1183.11	0.884
1192.58	0.908
1202.05	0.897
1211.53	0.871
1221	0.818
1230.47	0.652
1239.94	0.514
1249.41	0.022
1258.88	0.0928
1268.35	0.5399
1277.82	0.7
1287.3	0.615
1296.77	0.5121
1306.24	0.722
1315.71	0.5382
1325.18	0.455
1334.65	0.268
1344.12	0.1889
1353.59	0.009
1363.07	0.023
1372.54	0.318
1382.01	0.694
1391.48	0.761
1400.95	0.823
1410.42	0.795
1419.89	0.693
1429.36	0.477
1438.84	0.3431
1448.31	0.6759
1457.78	0.742
1467.25	0.681
1476.72	0.448
1486.19	0.3401
1495.66	0.2941
1505.13	0.1151
1514.61	0.047
1524.08	0.022
1533.55	0.011
1543.02	0.012
1552.49	0.011
1561.96	0.016
1571.43	0.022
1580.9	0.025
1590.37	0.033
1599.85	0.091
1609.32	0.198
1618.79	0.055
1628.26	0.4881
1637.73	0.698
1647.2	0.77
1656.67	0.795
1666.14	0.768
1675.62	0.795
1685.09	0.7111
1694.56	0.0825
1704.03	0.014
1713.5	0.29
1722.97	0.661
1732.44	0.786
1741.91	0.843
1751.39	0.889
1760.86	0.887
1770.33	0.939
1779.8	0.952
1789.27	0.943
1798.74	0.922
1808.21	0.897
1817.68	0.92
1827.16	0.911
1836.63	0.9
1846.1	0.878
1855.57	0.862
1865.04	0.895
1874.51	0.928
1883.98	0.937
1893.45	0.941
1902.93	0.935
1912.4	0.952
1921.87	0.959
1931.34	0.943
1940.81	0.965
1950.28	0.963
1959.75	0.948
1969.22	0.939
1978.69	0.924
1988.17	0.915
1997.64	0.93
2007.11	0.933
2016.58	0.9281
2026.05	0.9437
2035.52	0.9569
2044.99	0.9718
2054.46	0.9758
2063.94	0.981
2073.41	0.992
2082.88	1.0009
2092.35	1.003
2101.82	1.003
2111.29	1.005
2120.76	1.003
2130.23	1.003
2139.71	1.0047
2149.18	1.003
2158.65	1.005
2168.12	1.003
2177.59	1.003
2187.06	1
2196.53	0.9924
2206	0.9855
2215.48	0.9795
2224.95	0.9725
2234.42	0.9621
2243.89	0.9456
2253.36	0.93
2262.83	0.9037
2272.3	0.8722
2281.77	0.8215
2291.25	0.7709
2300.72	0.7653
2310.19	0.775
2319.66	0.7905
2329.13	0.8125
2338.6	0.8275
2348.07	0.8508
2357.54	0.8875
2367.02	0.9217
2376.49	0.95
2385.96	0.954
2395.43	0.9601
2404.9	0.972
2414.37	0.9709
2423.84	0.9732
2433.31	0.985
2442.78	0.981
2452.26	0.9775
2461.73	0.972
2471.2	0.973
2480.67	0.9864
2490.14	0.99
2499.61	0.99
2509.08	0.9909
2518.55	0.992
2528.03	0.99
2537.5	0.987
2546.97	0.9858
2556.44	0.9862
2565.91	0.983
2575.38	0.9782
2584.85	0.976
2594.32	0.9766
2603.8	0.976
2613.27	0.9763
2622.74	0.9776
2632.21	0.979
2641.68	0.977
2651.15	0.977
2660.62	0.977
2670.09	0.976
2679.57	0.973
2689.04	0.9645
2698.51	0.961
2707.98	0.9729
2717.45	0.976
2726.92	0.972
2736.39	0.9696
2745.86	0.9688
2755.34	0.976
2764.81	0.9737
2774.28	0.9677
2783.75	0.9607
2793.22	0.9602
2802.69	0.9742
2812.16	0.9718
2821.63	0.9659
2831.1	0.9588
2840.58	0.957
2850.05	0.954
2859.52	0.9347
2868.99	0.9054
2878.46	0.8702
2887.93	0.8404
2897.4	0.9263
2906.87	0.948
2916.35	0.937
2925.82	0.926
2935.29	0.928
2944.76	0.9409
2954.23	0.9391
2963.7	0.9281
2973.17	0.906
2982.64	0.9305
2992.12	0.948
3001.59	0.9353
3011.06	0.8941
3020.53	0.8643
3030	0.9326
3039.47	0.9497
3048.94	0.944
3058.41	0.9316
3067.89	0.9068
3077.36	0.8913
3086.83	0.7101
3096.3	0.696
3105.77	0.7897
3115.24	0.8832
3124.71	0.9346
3134.18	0.9565
3143.66	0.9695
3153.13	0.976
3162.6	0.98
3172.07	0.9835
3181.54	0.983
3191.01	0.983
3200.48	0.9804
3209.95	0.983
3219.42	0.983
3228.9	0.981
3238.37	0.979
3247.84	0.9803
3257.31	0.981
3266.78	0.979
3276.25	0.977
3285.72	0.9764
3295.19	0.974
3304.67	0.974
3314.14	0.9729
3323.61	0.972
3333.08	0.97
3342.55	0.968
3352.02	0.9639
3361.49	0.956
3370.96	0.949
3380.44	0.928
3389.91	0.8786
3399.38	0.8872
3408.85	0.9461
3418.32	0.963
3427.79	0.9669
3437.26	0.9709
3446.73	0.974
3456.21	0.9748
3465.68	0.976
3475.15	0.9764
3484.62	0.981
3494.09	0.987
3503.56	0.987
3513.03	0.9874
3522.5	0.988
3531.98	0.988
3541.45	0.99
3550.92	0.99
3560.39	0.994
3569.86	0.994
3579.33	0.9934
3588.8	0.992
3598.27	0.992
3607.75	0.9935
3617.22	0.992
3626.69	0.992
3636.16	0.9936
3645.63	0.99
3655.1	0.9904
3664.57	0.996
3674.04	0.994
3683.51	0.9897
3692.99	0.9847
3702.46	0.985
3711.93	0.99
3721.4	0.9903
3730.87	0.994
3740.34	0.9958
3749.81	0.992
3759.28	0.9922
3768.76	0.998
3778.23	0.996
3787.7	0.9942
