Infrared Spectrum: GALLIC ACID, PROPYL ESTER
Formula: C10 H12 O5
CAS: 121-79-9
State: SOLID (OIL MULL)
Melting point: 147 C
Class: COBLENTZ III
Instrument: BAIRD NaCl PRISM
Sampling: TRANSMISSION
Resolution: 4
Origin: WYANDOTTE CHEMICALS CORP.
MICROMETERS	TRANSMITTANCE
2.039	0.236
2.07801	0.238
2.11702	0.245
2.15603	0.269
2.19504	0.275
2.23405	0.27
2.27306	0.274
2.31207	0.294
2.35108	0.305
2.39009	0.325
2.4291	0.345
2.46811	0.366
2.50712	0.378
2.54613	0.399
2.58514	0.437
2.62415	0.454
2.66316	0.501
2.70217	0.55
2.74118	0.599
2.78019	0.656
2.8192	0.487
2.85821	0.08
2.89722	0.03
2.93623	0.046
2.97524	0.095
3.01425	0.085
3.05326	0.031
3.09227	0.083
3.13128	0.123
3.17029	0.15
3.2093	0.186
3.24831	0.2
3.28732	0.203
3.32633	0.128
3.36534	0.011
3.40435	0.007
3.44336	0.004
3.48237	0.004
3.52138	0.012
3.56039	0.219
3.5994	0.344
3.63841	0.386
3.67742	0.376
3.71643	0.371
3.75544	0.378
3.79445	0.408
3.83346	0.436
3.87247	0.464
3.91148	0.477
3.95049	0.49
3.9895	0.507
4.02851	0.518
4.06752	0.539
4.10653	0.551
4.14554	0.55
4.18455	0.552
4.22356	0.568
4.26257	0.574
4.30158	0.605
4.34059	0.616
4.3796	0.64
4.41861	0.649
4.45762	0.651
4.49663	0.671
4.53564	0.686
4.57465	0.691
4.61365	0.699
4.65266	0.7
4.69167	0.725
4.73068	0.745
4.76969	0.751
4.8087	0.765
4.84771	0.778
4.88672	0.787
4.92573	0.802
4.96474	0.806
5.00375	0.822
5.04276	0.829
5.08177	0.837
5.12078	0.851
5.15979	0.862
5.1988	0.867
5.23781	0.882
5.27682	0.892
5.31583	0.9
5.35484	0.916
5.39385	0.926
5.43286	0.928
5.47187	0.952
5.51088	0.952
5.54989	0.958
5.5889	0.954
5.62791	0.957
5.66692	0.95
5.70593	0.908
5.74494	0.797
5.78395	0.637
5.82296	0.368
5.86197	0.116
5.90098	0.02
5.93999	0.08
5.979	0.337
6.01801	0.551
6.05702	0.5
6.09603	0.167
6.13504	0.049
6.17405	0.046
6.21306	0.24
6.25207	0.437
6.29108	0.569
6.33009	0.677
6.3691	0.719
6.40811	0.62
6.44712	0.457
6.48613	0.241
6.52514	0.357
6.56415	0.622
6.60316	0.678
6.64217	0.674
6.68118	0.601
6.72019	0.367
6.7592	0.082
6.79821	0.011
6.83722	0.03
6.87623	0.101
6.91524	0.214
6.95425	0.368
6.99326	0.408
7.03227	0.24
7.07128	0.063
7.11029	0.067
7.1493	0.153
7.18831	0.084
7.22732	0.02
7.26633	0.026
7.30534	0.116
7.34435	0.218
7.38336	0.174
7.42237	0.078
7.46138	0.057
7.50039	0.078
7.5394	0.053
7.57841	0.008
7.61742	0.008
7.65643	0.008
7.69544	0.017
7.73445	0.062
7.77346	0.147
7.81247	0.248
7.85148	0.28
7.89049	0.16
7.9295	0.039
7.96851	0.015
8.00752	0.012
8.04653	0.012
8.08554	0.017
8.12455	0.028
8.16356	0.063
8.20257	0.098
8.24158	0.101
8.28059	0.051
8.3196	0.012
8.35861	0.006
8.39762	0.015
8.43663	0.047
8.47564	0.089
8.51465	0.111
8.55366	0.133
8.59267	0.174
8.63168	0.2
8.67069	0.23
8.7097	0.268
8.74871	0.312
8.78772	0.35
8.82673	0.379
8.86574	0.408
8.90475	0.437
8.94376	0.465
8.98277	0.486
9.02178	0.435
9.06079	0.308
9.0998	0.339
9.13881	0.426
9.17782	0.479
9.21683	0.523
9.25584	0.553
9.29485	0.571
9.33386	0.577
9.37287	0.55
9.41188	0.446
9.45089	0.346
9.4899	0.308
9.52891	0.166
9.56792	0.046
9.60693	0.017
9.64594	0.011
9.68494	0.019
9.72395	0.08
9.76296	0.132
9.80197	0.209
9.84098	0.275
9.87999	0.333
9.919	0.381
9.95801	0.381
9.99702	0.191
10.036	0.11
10.075	0.137
10.1141	0.23
10.1531	0.279
10.1921	0.223
10.2311	0.174
10.2701	0.209
10.3091	0.264
10.3481	0.338
10.3871	0.382
10.4261	0.411
10.4651	0.437
10.5042	0.455
10.5432	0.474
10.5822	0.488
10.6212	0.484
10.6602	0.47
10.6992	0.47
10.7382	0.482
10.7772	0.475
10.8162	0.471
10.8552	0.468
10.8943	0.487
10.9333	0.509
10.9723	0.502
11.0113	0.454
11.0503	0.482
11.0893	0.513
11.1283	0.542
11.1673	0.556
11.2063	0.558
11.2453	0.558
11.2844	0.566
11.3234	0.578
11.3624	0.585
11.4014	0.583
11.4404	0.553
11.4794	0.46
11.5184	0.268
11.5574	0.232
11.5964	0.379
11.6354	0.492
11.6745	0.574
11.7135	0.588
11.7525	0.591
11.7915	0.607
11.8305	0.629
11.8695	0.649
11.9085	0.661
11.9475	0.67
11.9865	0.675
12.0255	0.681
12.0646	0.692
12.1036	0.698
12.1426	0.704
12.1816	0.705
12.2206	0.709
12.2596	0.704
12.2986	0.688
12.3376	0.64
12.3766	0.556
12.4156	0.529
12.4546	0.59
12.4937	0.64
12.5327	0.674
12.5717	0.697
12.6107	0.704
12.6497	0.713
12.6887	0.714
12.7277	0.712
12.7667	0.699
12.8057	0.685
12.8447	0.637
12.8838	0.541
12.9228	0.352
12.9618	0.194
13.0008	0.156
13.0398	0.27
13.0788	0.371
13.1178	0.436
13.1568	0.462
13.1958	0.459
13.2348	0.443
13.2739	0.432
13.3129	0.399
13.3519	0.265
13.3909	0.149
13.4299	0.117
13.4689	0.154
13.5079	0.226
13.5469	0.302
13.5859	0.354
13.6249	0.363
13.664	0.306
13.703	0.272
13.742	0.334
13.781	0.411
13.82	0.468
13.859	0.49
13.898	0.507
13.937	0.539
13.976	0.577
14.015	0.612
14.0541	0.631
14.0931	0.65
14.1321	0.664
14.1711	0.671
14.2101	0.688
14.2491	0.694
14.2881	0.703
14.3271	0.707
14.3661	0.713
14.4051	0.713
14.4442	0.719
14.4832	0.721
14.5222	0.716
14.5612	0.712
14.6002	0.716
14.6392	0.707
14.6782	0.699
14.7172	0.697
14.7562	0.697
14.7952	0.685
14.8343	0.677
14.8733	0.671
14.9123	0.664
14.9513	0.65
14.9903	0.636
15.0293	0.605
15.0683	0.582
15.1073	0.578
15.1463	0.579
15.1853	0.569
15.2244	0.553
15.2634	0.524
15.3024	0.504
15.3414	0.474
15.3804	0.459
15.4194	0.412
15.4584	0.386
15.4974	0.346
15.5364	0.316
15.5754	0.3
15.6145	0.297
15.6535	0.295
15.6925	0.295
15.7315	0.3
15.7705	0.31
15.8095	0.319
15.8485	0.323
15.8875	0.334
15.9265	0.33
15.9655	0.327
