Infrared Spectrum: VANILLIN
Formula: C8 H8 O3
CAS: 121-33-5
State: SOLID (MINERAL OIL MULL)
Class: COBLENTZ
Instrument: PERKIN-ELMER
Sampling: TRANSMISSION
Resolution: 4
Origin: AMERICAN CYANAMID, J. GOVE
MICROMETERS	TRANSMITTANCE
2.027	0.373
2.06739	0.381
2.10779	0.393
2.14818	0.403
2.18858	0.41
2.22897	0.415
2.26936	0.427
2.30976	0.442
2.35015	0.447
2.39055	0.452
2.43094	0.459
2.47133	0.479
2.51173	0.5
2.55212	0.51
2.59252	0.521
2.63291	0.53
2.6733	0.548
2.7137	0.565
2.75409	0.584
2.79448	0.616
2.83488	0.645
2.87527	0.665
2.91567	0.646
2.95606	0.55
2.99645	0.444
3.03685	0.327
3.07724	0.273
3.11764	0.221
3.15803	0.206
3.19842	0.194
3.23882	0.199
3.27921	0.201
3.31961	0.206
3.36	0.162
3.40039	0.113
3.44079	0.104
3.48118	0.108
3.52158	0.234
3.56197	0.39
3.60236	0.44
3.64276	0.457
3.68315	0.484
3.72355	0.51
3.76394	0.528
3.80433	0.552
3.84473	0.567
3.88512	0.581
3.92552	0.596
3.96591	0.606
4.0063	0.625
4.0467	0.636
4.08709	0.645
4.12749	0.657
4.16788	0.663
4.20827	0.66
4.24867	0.662
4.28906	0.67
4.32945	0.677
4.36985	0.699
4.41024	0.724
4.45064	0.746
4.49103	0.758
4.53142	0.765
4.57182	0.773
4.61221	0.79
4.65261	0.797
4.693	0.795
4.73339	0.782
4.77379	0.795
4.81418	0.807
4.85458	0.819
4.89497	0.814
4.93536	0.82
4.97576	0.827
5.01615	0.834
5.05655	0.831
5.09694	0.841
5.13733	0.856
5.17773	0.864
5.21812	0.878
5.25852	0.885
5.29891	0.886
5.3393	0.891
5.3797	0.895
5.42009	0.893
5.46049	0.915
5.50088	0.923
5.54127	0.932
5.58167	0.935
5.62206	0.934
5.66245	0.934
5.70285	0.944
5.74324	0.949
5.78364	0.947
5.82403	0.902
5.86442	0.839
5.90482	0.631
5.94521	0.39
5.98561	0.182
6.026	0.16
6.06639	0.478
6.10679	0.673
6.14718	0.758
6.18758	0.753
6.22797	0.29
6.26836	0.128
6.30876	0.103
6.34915	0.322
6.38955	0.479
6.42994	0.569
6.47033	0.597
6.51073	0.576
6.55112	0.481
6.59152	0.268
6.63191	0.202
6.6723	0.285
6.7127	0.422
6.75309	0.478
6.79349	0.243
6.83388	0.114
6.87427	0.104
6.91467	0.206
6.95506	0.211
6.99545	0.108
7.03585	0.133
7.07624	0.329
7.11664	0.385
7.15703	0.39
7.19742	0.395
7.23782	0.358
7.27821	0.319
7.31861	0.369
7.359	0.54
7.39939	0.648
7.43979	0.685
7.48018	0.694
7.52058	0.655
7.56097	0.516
7.60136	0.353
7.64176	0.219
7.68215	0.109
7.72255	0.065
7.76294	0.143
7.80333	0.285
7.84373	0.25
7.88412	0.116
7.92452	0.042
7.96491	0.047
8.0053	0.182
8.0457	0.28
8.08609	0.347
8.12649	0.43
8.16688	0.469
8.20727	0.425
8.24767	0.315
8.28806	0.234
8.32846	0.157
8.36885	0.123
8.40924	0.187
8.44964	0.224
8.49003	0.155
8.53042	0.082
8.57082	0.045
8.61121	0.042
8.65161	0.037
8.692	0.025
8.73239	0.032
8.77279	0.062
8.81318	0.114
8.85358	0.128
8.89397	0.126
8.93436	0.157
8.97476	0.239
9.01515	0.287
9.05555	0.315
9.09594	0.332
9.13633	0.341
9.17673	0.354
9.21712	0.371
9.25752	0.39
9.29791	0.403
9.3383	0.413
9.3787	0.422
9.41909	0.434
9.45949	0.447
9.49988	0.461
9.54027	0.462
9.58067	0.464
9.62106	0.466
9.66146	0.417
9.70185	0.287
9.74224	0.304
9.78264	0.378
9.82303	0.449
9.86342	0.483
9.90382	0.5
9.94421	0.518
9.98461	0.543
10.025	0.554
10.0654	0.56
10.1058	0.574
10.1462	0.589
10.1866	0.591
10.227	0.591
10.2674	0.594
10.3078	0.603
10.3482	0.608
10.3885	0.597
10.4289	0.584
10.4693	0.599
10.5097	0.611
10.5501	0.628
10.5905	0.619
10.6309	0.611
10.6713	0.623
10.7117	0.635
10.7521	0.633
10.7925	0.63
10.8329	0.638
10.8733	0.641
10.9137	0.648
10.9541	0.641
10.9945	0.645
11.0348	0.646
11.0752	0.65
11.1156	0.645
11.156	0.643
11.1964	0.643
11.2368	0.648
11.2772	0.646
11.3176	0.641
11.358	0.64
11.3984	0.633
11.4388	0.623
11.4792	0.594
11.5196	0.542
11.56	0.447
11.6004	0.29
11.6408	0.241
11.6812	0.41
11.7215	0.579
11.7619	0.646
11.8023	0.685
11.8427	0.697
11.8831	0.697
11.9235	0.699
11.9639	0.695
12.0043	0.648
12.0447	0.608
12.0851	0.594
12.1255	0.601
12.1659	0.582
12.2063	0.503
12.2467	0.41
12.2871	0.354
12.3275	0.388
12.3678	0.466
12.4082	0.516
12.4486	0.554
12.489	0.576
12.5294	0.589
12.5698	0.587
12.6102	0.591
12.6506	0.591
12.691	0.592
12.7314	0.592
12.7718	0.582
12.8122	0.579
12.8526	0.574
12.893	0.564
12.9334	0.552
12.9738	0.54
13.0142	0.511
13.0545	0.493
13.0949	0.478
13.1353	0.454
13.1757	0.447
13.2161	0.437
13.2565	0.43
13.2969	0.423
13.3373	0.415
13.3777	0.398
13.4181	0.373
13.4585	0.329
13.4989	0.268
13.5393	0.199
13.5797	0.133
13.6201	0.081
13.6605	0.065
13.7008	0.087
13.7412	0.157
13.7816	0.222
13.822	0.261
13.8624	0.277
13.9028	0.282
13.9432	0.292
13.9836	0.3
14.024	0.305
14.0644	0.305
14.1048	0.31
14.1452	0.314
14.1856	0.322
14.226	0.327
14.2664	0.327
14.3068	0.331
14.3472	0.341
14.3875	0.354
14.4279	0.359
14.4683	0.363
14.5087	0.371
14.5491	0.373
14.5895	0.378
14.6299	0.385
14.6703	0.388
14.7107	0.396
14.7511	0.402
14.7915	0.405
14.8319	0.402
14.8723	0.405
14.9127	0.425
14.9531	0.429
14.9935	0.41
15.0338	0.396
15.0742	0.4
15.1146	0.407
15.155	0.41
15.1954	0.41
15.2358	0.413
15.2762	0.415
15.3166	0.422
15.357	0.42
15.3974	0.415
15.4378	0.415
15.4782	0.417
15.5186	0.417
15.559	0.41
