Infrared Spectrum: ETHANAMINE, N,N-DIETHYL-
Formula: C6 H15 N
CAS: 121-44-8
State: SOLUTION (10% IN CCl4 FOR 3800-1300, 10% IN CS2 FOR 1300-650, 10% IN CCl4 FOR 650-250 CM^-^1) VERSUS SOLVENT
Class: COBLENTZ III
Instrument: PERKIN-ELMER 521 (GRATING)
Instrument parameters: FILTERS AT 3150, 2500, 2000, 1150, 700, 410; GRATING CHANGES AT 2000, 630 CM^-^1
Sampling: TRANSMISSION
Path length: 0.011, 0.011, AND 0.010 CM (CsBr CELL)
Resolution: 4
Origin: DOW CORNING CORP.
1/CM	TRANSMITTANCE
216.73	0.778
226.571	0.781
236.413	0.782
246.254	0.785
256.096	0.794
265.937	0.81
275.779	0.82
285.62	0.832
295.462	0.846
305.303	0.852
315.144	0.871
324.986	0.879
334.827	0.883
344.669	0.889
354.51	0.893
364.352	0.893
374.193	0.889
384.035	0.888
393.876	0.883
403.718	0.867
413.559	0.864
423.4	0.86
433.242	0.841
443.083	0.86
452.925	0.86
462.766	0.86
472.608	0.834
482.449	0.829
492.291	0.834
502.132	0.867
511.973	0.895
521.815	0.876
531.656	0.821
541.498	0.883
551.339	0.911
561.181	0.923
571.022	0.927
580.864	0.934
590.705	0.938
600.546	0.934
610.388	0.936
620.229	0.958
630.071	0.962
639.912	0.959
649.754	0.958
659.595	0.955
669.437	0.957
679.278	0.962
689.12	0.958
698.961	0.957
708.802	0.954
718.644	0.944
728.485	0.88
738.327	0.638
748.168	0.618
758.01	0.842
767.851	0.936
777.693	0.893
787.534	0.82
797.375	0.863
807.217	0.767
817.058	0.873
826.9	0.951
836.741	0.973
846.583	0.994
856.424	1.004
866.266	1.004
876.107	1.001
885.949	0.997
895.79	0.982
905.631	0.927
915.473	0.959
925.314	0.947
935.156	0.985
944.997	0.994
954.839	0.991
964.68	0.975
974.522	0.961
984.363	0.97
994.204	0.853
1004.05	0.66
1013.89	0.864
1023.73	0.802
1033.57	0.9
1043.41	0.834
1053.25	0.736
1063.09	0.527
1072.94	0.158
1082.78	0.379
1092.62	0.379
1102.46	0.553
1112.3	0.774
1122.14	0.782
1131.98	0.638
1141.83	0.606
1151.67	0.727
1161.51	0.906
1171.35	0.923
1181.19	0.887
1191.03	0.732
1200.87	0.263
1210.72	0.189
1220.56	0.53
1230.4	0.841
1240.24	0.906
1250.08	0.904
1259.92	0.864
1269.77	0.845
1279.61	0.765
1289.45	0.451
1299.29	0.449
1309.13	0.573
1318.97	0.651
1328.81	0.646
1338.66	0.569
1348.5	0.465
1358.34	0.437
1368.18	0.3969
1378.02	0.157
1387.86	0.106
1397.7	0.531
1407.55	0.68
1417.39	0.747
1427.23	0.726
1437.07	0.648
1446.91	0.328
1456.75	0.316
1466.59	0.3
1476.44	0.292
1486.28	0.63
1496.12	0.773
1505.96	0.804
1515.8	0.833
1525.64	0.848
1535.48	0.853
1545.33	0.872
1555.17	0.872
1565.01	0.876
1574.85	0.873
1584.69	0.872
1594.53	0.869
1604.37	0.868
1614.22	0.867
1624.06	0.856
1633.9	0.841
1643.74	0.83
1653.58	0.824
1663.42	0.822
1673.26	0.812
1683.11	0.8
1692.95	0.794
1702.79	0.833
1712.63	0.844
1722.47	0.844
1732.31	0.824
1742.15	0.805
1752	0.836
1761.84	0.884
1771.68	0.891
1781.52	0.893
1791.36	0.893
1801.2	0.889
1811.04	0.889
1820.89	0.892
1830.73	0.895
1840.57	0.903
1850.41	0.906
1860.25	0.907
1870.09	0.906
1879.93	0.903
1889.78	0.906
1899.62	0.906
1909.46	0.903
1919.3	0.903
1929.14	0.897
1938.98	0.891
1948.82	0.891
1958.67	0.899
1968.51	0.903
1978.35	0.904
1988.19	0.908
1998.03	0.914
2007.87	0.919
2017.72	0.922
2027.56	0.924
2037.4	0.926
2047.24	0.926
2057.08	0.926
2066.92	0.927
2076.76	0.927
2086.61	0.9241
2096.45	0.922
2106.29	0.922
2116.13	0.923
2125.97	0.923
2135.81	0.926
2145.65	0.928
2155.5	0.928
2165.34	0.926
2175.18	0.924
2185.02	0.923
2194.86	0.923
2204.7	0.92
2214.54	0.9191
2224.39	0.919
2234.23	0.919
2244.07	0.918
2253.91	0.914
2263.75	0.915
2273.59	0.9138
2283.43	0.914
2293.28	0.9138
2303.12	0.916
2312.96	0.915
2322.8	0.9109
2332.64	0.907
2342.48	0.9069
2352.32	0.9031
2362.17	0.9
2372.01	0.9
2381.85	0.9002
2391.69	0.899
2401.53	0.8951
2411.37	0.892
2421.21	0.8852
2431.06	0.883
2440.9	0.884
2450.74	0.884
2460.58	0.8773
2470.42	0.873
2480.26	0.8645
2490.1	0.8456
2499.95	0.8321
2509.79	0.8601
2519.63	0.8671
2529.47	0.8552
2539.31	0.8512
2549.15	0.8452
2558.99	0.8263
2568.84	0.7962
2578.68	0.778
2588.52	0.783
2598.36	0.7613
2608.2	0.747
2618.04	0.7527
2627.88	0.7532
2637.73	0.7464
2647.57	0.6996
2657.41	0.702
2667.25	0.6854
2677.09	0.6866
2686.93	0.6842
2696.78	0.6594
2706.62	0.5973
2716.46	0.5326
2726.3	0.4842
2736.14	0.5118
2745.98	0.4812
2755.82	0.3798
2765.67	0.3472
2775.51	0.2976
2785.35	0.1989
2795.19	0.0973
2805.03	0.0567
2814.87	0.0694
2824.71	0.1067
2834.56	0.2037
2844.4	0.3145
2854.24	0.386
2864.08	0.3597
2873.92	0.2131
2883.76	0.1429
2893.6	0.2178
2903.45	0.1747
2913.29	0.1835
2923.13	0.1334
2932.97	0.0511
2942.81	0.0644
2952.65	0.0965
2962.49	0.0316
2972.34	0.0013
2982.18	0.0054
2992.02	0.0829
3001.86	0.3663
3011.7	0.5732
3021.54	0.6876
3031.38	0.7484
3041.23	0.7815
3051.07	0.8008
3060.91	0.8167
3070.75	0.8247
3080.59	0.8294
3090.43	0.8327
3100.27	0.8431
3110.12	0.8501
3119.96	0.855
3129.8	0.8513
3139.64	0.8496
3149.48	0.845
3159.32	0.845
3169.16	0.845
3179.01	0.8527
3188.85	0.8597
3198.69	0.8703
3208.53	0.879
3218.37	0.887
3228.21	0.892
3238.05	0.889
3247.9	0.8857
3257.74	0.885
3267.58	0.884
3277.42	0.883
3287.26	0.8817
3297.1	0.881
3306.94	0.88
3316.79	0.88
3326.63	0.88
3336.47	0.88
3346.31	0.8836
3356.15	0.885
3365.99	0.891
3375.84	0.892
3385.68	0.893
3395.52	0.8942
3405.36	0.899
3415.2	0.9
3425.04	0.903
3434.88	0.903
3444.73	0.904
3454.57	0.903
3464.41	0.911
3474.25	0.9156
3484.09	0.919
3493.93	0.9226
3503.77	0.9276
3513.62	0.93
3523.46	0.932
3533.3	0.9346
3543.14	0.936
3552.98	0.939
3562.82	0.94
3572.66	0.94
3582.51	0.943
3592.35	0.943
3602.19	0.942
3612.03	0.9435
3621.87	0.946
3631.71	0.947
3641.55	0.944
3651.4	0.9425
3661.24	0.9262
3671.08	0.91
3680.92	0.9216
3690.76	0.9425
3700.6	0.9451
3710.44	0.946
3720.29	0.9475
3730.13	0.948
3739.97	0.9545
3749.81	0.958
3759.65	0.959
3769.49	0.959
3779.33	0.961
3789.18	0.961
