Infrared Spectrum: N,N-DIMETHYL-m-TOLUIDINE
Formula: C9 H13 N
CAS: 121-72-2
State: LIQUID
Boiling point: 85-88 C AT 8 mmHg
Class: COBLENTZ
Instrument: Not specified, most likely a prism, grating, or hybrid spectrometer.
Sampling: TRANSMISSION
Path length: 0.003 CM
Resolution: 4
Origin: WYANDOTTE CHEMICALS CORP., WYANDOTTE, MICHIGAN, USA
MICROMETERS	TRANSMITTANCE
2.025	0.973
2.06215	0.959
2.0993	0.954
2.13646	0.953
2.17361	0.928
2.21076	0.906
2.24791	0.911
2.28506	0.917
2.32222	0.931
2.35937	0.931
2.39652	0.917
2.43367	0.942
2.47083	0.942
2.50798	0.95
2.54513	0.961
2.58228	0.968
2.61943	0.965
2.65659	0.981
2.69374	0.976
2.73089	0.976
2.76804	0.975
2.80519	0.97
2.84235	0.972
2.8795	0.951
2.91665	0.942
2.9538	0.939
2.99095	0.934
3.02811	0.931
3.06526	0.927
3.10241	0.917
3.13956	0.885
3.17672	0.854
3.21387	0.75
3.25102	0.473
3.28817	0.288
3.32532	0.218
3.36248	0.124
3.39963	0.09
3.43678	0.094
3.47393	0.097
3.51108	0.122
3.54824	0.181
3.58539	0.155
3.62254	0.52
3.65969	0.694
3.69684	0.771
3.734	0.802
3.77115	0.832
3.8083	0.84
3.84545	0.843
3.88261	0.852
3.91976	0.86
3.95691	0.872
3.99406	0.874
4.03121	0.875
4.06837	0.868
4.10552	0.872
4.14267	0.897
4.17982	0.9
4.21697	0.911
4.25413	0.917
4.29128	0.931
4.32843	0.934
4.36558	0.931
4.40273	0.913
4.43989	0.92
4.47704	0.931
4.51419	0.94
4.55134	0.934
4.5885	0.927
4.62565	0.914
4.6628	0.936
4.69995	0.928
4.7371	0.942
4.77426	0.945
4.81141	0.945
4.84856	0.937
4.88571	0.923
4.92286	0.905
4.96002	0.92
4.99717	0.927
5.03432	0.93
5.07147	0.934
5.10862	0.937
5.14578	0.934
5.18293	0.927
5.22008	0.903
5.25723	0.836
5.29439	0.838
5.33154	0.869
5.36869	0.875
5.40584	0.861
5.44299	0.891
5.48015	0.906
5.5173	0.881
5.55445	0.85
5.5916	0.871
5.62875	0.886
5.66591	0.881
5.70306	0.878
5.74021	0.864
5.77736	0.818
5.81451	0.788
5.85167	0.746
5.88882	0.723
5.92597	0.704
5.96312	0.624
6.00028	0.604
6.03743	0.622
6.07458	0.535
6.11173	0.267
6.14888	0.037
6.18604	0.015
6.22319	0.04
6.26034	0.029
6.29749	0.147
6.33464	0.287
6.3718	0.364
6.40895	0.336
6.4461	0.291
6.48325	0.231
6.5204	0.153
6.55756	0.057
6.59471	0.035
6.63186	0.024
6.66901	0.062
6.70617	0.069
6.74332	0.13
6.78047	0.161
6.81762	0.142
6.85477	0.096
6.89193	0.066
6.92908	0.114
6.96623	0.186
7.00338	0.321
7.04053	0.385
7.07769	0.454
7.11484	0.5
7.15199	0.523
7.18914	0.501
7.22629	0.374
7.26345	0.301
7.3006	0.186
7.33775	0.043
7.3749	0.021
7.41206	0.029
7.44921	0.077
7.48636	0.173
7.52351	0.136
7.56066	0.251
7.59782	0.402
7.63497	0.409
7.67212	0.454
7.70927	0.524
7.74642	0.582
7.78358	0.608
7.82073	0.614
7.85788	0.6
7.89503	0.594
7.93218	0.565
7.96934	0.507
8.00649	0.395
8.04364	0.245
8.08079	0.139
8.11795	0.128
8.1551	0.17
8.19225	0.229
8.2294	0.371
8.26655	0.419
8.30371	0.473
8.34086	0.534
8.37801	0.535
8.41516	0.439
8.45231	0.195
8.48947	0.094
8.52662	0.327
8.56377	0.416
8.60092	0.327
8.63807	0.158
8.67523	0.197
8.71238	0.267
8.74953	0.271
8.78668	0.256
8.82384	0.262
8.86099	0.31
8.89814	0.42
8.93529	0.49
8.97244	0.527
9.0096	0.543
9.04675	0.523
9.0839	0.447
9.12105	0.478
9.1582	0.529
9.19536	0.54
9.23251	0.527
9.26966	0.493
9.30681	0.427
9.34396	0.315
9.38112	0.228
9.41827	0.222
9.45542	0.349
9.49257	0.476
9.52973	0.527
9.56688	0.531
9.60403	0.512
9.64118	0.5
9.67833	0.496
9.71549	0.465
9.75264	0.413
9.78979	0.363
9.82694	0.307
9.86409	0.242
9.90125	0.206
9.9384	0.232
9.97555	0.26
10.0127	0.194
10.0499	0.128
10.087	0.333
10.1242	0.549
10.1613	0.619
10.1985	0.659
10.2356	0.673
10.2728	0.658
10.3099	0.602
10.3471	0.493
10.3842	0.35
10.4214	0.248
10.4585	0.304
10.4957	0.423
10.5328	0.537
10.57	0.604
10.6071	0.67
10.6443	0.706
10.6814	0.742
10.7186	0.763
10.7557	0.776
10.7929	0.788
10.83	0.793
10.8672	0.802
10.9044	0.812
10.9415	0.815
10.9787	0.819
11.0158	0.821
11.053	0.818
11.0901	0.827
11.1273	0.827
11.1644	0.832
11.2016	0.822
11.2387	0.818
11.2759	0.813
11.313	0.812
11.3502	0.804
11.3873	0.787
11.4245	0.774
11.4616	0.746
11.4988	0.72
11.5359	0.673
11.5731	0.627
11.6102	0.58
11.6474	0.557
11.6845	0.515
11.7217	0.495
11.7589	0.487
11.796	0.468
11.8332	0.427
11.8703	0.364
11.9075	0.285
11.9446	0.237
11.9818	0.234
12.0189	0.313
12.0561	0.45
12.0932	0.571
12.1304	0.658
12.1675	0.717
12.2047	0.742
12.2418	0.76
12.279	0.767
12.3161	0.773
12.3533	0.76
12.3904	0.751
12.4276	0.75
12.4647	0.748
12.5019	0.746
12.539	0.759
12.5762	0.753
12.6134	0.725
12.6505	0.704
12.6877	0.664
12.7248	0.624
12.762	0.562
12.7991	0.465
12.8363	0.341
12.8734	0.206
12.9106	0.104
12.9477	0.054
12.9849	0.048
13.022	0.043
13.0592	0.04
13.0963	0.051
13.1335	0.09
13.1706	0.2
13.2078	0.33
13.2449	0.468
13.2821	0.571
13.3192	0.638
13.3564	0.677
13.3935	0.718
13.4307	0.74
13.4678	0.753
13.505	0.773
13.5422	0.784
13.5793	0.791
13.6165	0.799
13.6536	0.804
13.6908	0.804
13.7279	0.807
13.7651	0.807
13.8022	0.807
13.8394	0.805
13.8765	0.802
13.9137	0.799
13.9508	0.796
13.988	0.788
14.0251	0.767
14.0623	0.734
14.0994	0.689
14.1366	0.624
14.1737	0.568
14.2109	0.557
14.248	0.582
14.2852	0.576
14.3223	0.543
14.3595	0.464
14.3967	0.369
14.4338	0.268
14.471	0.18
14.5081	0.147
14.5453	0.15
14.5824	0.195
14.6196	0.29
14.6567	0.408
14.6939	0.515
14.731	0.602
14.7682	0.647
14.8053	0.686
14.8425	0.712
14.8796	0.731
14.9168	0.737
14.9539	0.75
14.9911	0.732
15.0282	0.739
15.0654	0.739
15.1025	0.754
15.1397	0.759
15.1768	0.765
15.214	0.76
15.2511	0.763
15.2883	0.748
15.3255	0.753
15.3626	0.742
15.3998	0.736
15.4369	0.726
15.4741	0.726
15.5112	0.726
15.5484	0.718
15.5855	0.718
15.6227	0.717
15.6598	0.704
15.697	0.701
15.7341	0.701
15.7713	0.692
15.8084	0.684
15.8456	0.681
15.8827	0.672
15.9199	0.673
15.957	0.664
