Infrared Spectrum: Benzene, 1-chloro-3-nitro-
Formula: C6 H4 Cl N O2
CAS: 121-73-3
State: SOLUTION (10% CCl4 FOR 3800-1330, 10% CS2 FOR 1330-400)
Class: COBLENTZ III
Instrument: BECKMAN IR-9 (GRATING)
Instrument parameters: ORDER CHANGES: 670, 1200, 2000 CM^-^1
Sampling: TRANSMISSION
Path length: 0.011 CM, 0.011 CM
Resolution: 2
Origin: DOW CHEMICAL COMPANY
1/CM	TRANSMITTANCE
3806	0.9781
3797	0.9738
3788	0.9722
3779	0.9692
3770	0.9724
3761	0.9738
3752	0.9754
3743	0.9765
3734	0.9787
3725	0.9806
3716	0.9811
3707	0.9838
3698	0.9841
3689	0.9818
3680	0.9796
3671	0.9797
3662	0.9796
3653	0.9792
3644	0.9789
3635	0.9785
3626	0.9807
3617	0.9809
3608	0.979
3599	0.9791
3590	0.9817
3581	0.982
3572	0.9812
3563	0.9797
3554	0.9778
3545	0.9762
3536	0.9758
3527	0.9729
3518	0.9723
3509	0.9716
3500	0.9711
3491	0.9713
3482	0.9719
3473	0.9723
3464	0.9728
3455	0.9731
3446	0.9731
3437	0.9731
3428	0.973
3419	0.9728
3410	0.9727
3401	0.9726
3392	0.9727
3383	0.9728
3374	0.9728
3365	0.9729
3356	0.9729
3347	0.9732
3338	0.9758
3329	0.9739
3320	0.9743
3311	0.9767
3302	0.9746
3293	0.9747
3284	0.9748
3275	0.9763
3266	0.9762
3257	0.9759
3248	0.9759
3239	0.9748
3230	0.973
3221	0.9708
3212	0.9634
3203	0.952
3194	0.9491
3185	0.9468
3176	0.9468
3167	0.9461
3158	0.9435
3149	0.9396
3140	0.9253
3131	0.8948
3122	0.8731
3113	0.8077
3104	0.6833
3095	0.7136
3086	0.7719
3077	0.7428
3068	0.9112
3059	0.9281
3050	0.941
3041	0.9613
3032	0.9625
3023	0.9642
3014	0.9659
3005	0.9598
2996	0.9616
2987	0.9681
2978	0.9727
2969	0.9746
2960	0.9727
2951	0.9691
2942	0.9614
2933	0.9501
2924	0.9582
2915	0.9642
2906	0.9623
2897	0.9424
2888	0.8974
2879	0.8509
2870	0.8828
2861	0.8868
2852	0.9087
2843	0.9537
2834	0.9654
2825	0.964
2816	0.9637
2807	0.9662
2798	0.9677
2789	0.967
2780	0.9704
2771	0.9712
2762	0.9713
2753	0.9701
2744	0.9668
2735	0.9627
2726	0.9635
2717	0.9634
2708	0.9596
2699	0.958
2690	0.9589
2681	0.9653
2672	0.9722
2663	0.9774
2654	0.9792
2645	0.9769
2636	0.9749
2627	0.9757
2618	0.9741
2609	0.9723
2600	0.9707
2591	0.9709
2582	0.9726
2573	0.9743
2564	0.9767
2555	0.9789
2546	0.9791
2537	0.9792
2528	0.9792
2519	0.9793
2510	0.9792
2501	0.9793
2492	0.9772
2483	0.9655
2474	0.9625
2465	0.9706
2456	0.9758
2447	0.9779
2438	0.9772
2429	0.9745
2420	0.9684
2411	0.9666
2402	0.9751
2393	0.9789
2384	0.9856
2375	0.9885
2366	0.9843
2357	0.9837
2348	0.9801
2339	0.9726
2330	0.976
2321	0.9871
2312	0.9952
2303	0.9933
2294	0.9905
2285	0.9855
2276	0.9837
2267	0.9826
2258	0.9817
2249	0.982
2240	0.985
2231	0.98
2222	0.9781
2213	0.9783
2204	0.9819
2195	0.9822
2186	0.9826
2177	0.9852
2168	0.9834
2159	0.9838
2150	0.9818
2141	0.9848
2132	0.9847
2123	0.9847
2114	0.9841
2105	0.9836
2096	0.9827
2087	0.9824
2078	0.9819
2069	0.9812
2060	0.9807
2051	0.9807
2042	0.9786
2033	0.9777
2024	0.9791
2015	0.9784
2006	0.9771
1997	0.9681
1988	0.9702
1979	0.966
1970	0.9619
1961	0.938
1952	0.9115
1943	0.9551
1934	0.9665
1925	0.9647
1916	0.9625
1907	0.9605
1898	0.9235
1889	0.9135
1880	0.9578
1871	0.9489
1862	0.952
1853	0.9621
1844	0.9541
1835	0.9412
1826	0.9474
1817	0.949
1808	0.9156
1799	0.9384
1790	0.9439
1781	0.9197
1772	0.8983
1763	0.936
1754	0.9509
1745	0.9579
1736	0.9529
1727	0.9265
1718	0.8983
1709	0.9189
1700	0.9412
1691	0.9323
1682	0.9337
1673	0.9254
1664	0.926
1655	0.9308
1646	0.9177
1637	0.9189
1628	0.9052
1619	0.8858
1610	0.8637
1601	0.7655
1592	0.8218
1583	0.7709
1574	0.7226
1565	0.8427
1556	0.8357
1547	0.1062
1538	0.0044
1529	0.0046
1520	0.0443
1511	0.4961
1502	0.7124
1493	0.7762
1484	0.8002
1475	0.6768
1466	0.4441
1457	0.5658
1448	0.7478
1439	0.8788
1430	0.8948
1421	0.861
1412	0.8967
1403	0.8845
1394	0.8379
1385	0.8967
1376	0.8671
1367	0.7945
1358	0.2022
1349	0.0002
1340	0.219
1331	0.5349
1322	0.7724
1313	0.8225
1304	0.7038
1295	0.6789
1286	0.8112
1277	0.8583
1268	0.842
1259	0.7998
1250	0.9021
1241	0.9481
1232	0.9525
1223	0.9329
1214	0.9271
1205	0.9556
1196	0.9571
1187	0.9546
1178	0.9355
1169	0.8566
1160	0.8219
1151	0.8393
1142	0.8467
1133	0.5247
1124	0.1435
1115	0.7707
1106	0.8933
1097	0.8608
1088	0.8394
1079	0.8813
1070	0.8369
1061	0.4426
1052	0.8727
1043	0.9356
1034	0.9469
1025	0.9565
1016	0.9498
1007	0.9221
998	0.8643
989	0.9364
980	0.9312
971	0.9315
962	0.9464
953	0.9491
944	0.9484
935	0.9414
926	0.9225
917	0.7446
908	0.8988
899	0.8754
890	0.456
881	0.6544
872	0.6287
863	0.9465
854	0.9298
845	0.8623
836	0.941
827	0.9472
818	0.9326
809	0.8952
800	0.4492
791	0.6364
782	0.8964
773	0.8978
764	0.8403
755	0.3904
746	0.1967
737	0.5558
728	0.1589
719	0.7975
710	0.8857
701	0.9245
692	0.9491
683	0.9276
674	0.8512
665	0.3905
656	0.6524
647	0.8959
638	0.925
629	0.9498
620	0.9632
611	0.9674
602	0.9666
593	0.9676
584	0.965
575	0.9627
566	0.9562
557	0.943
548	0.9192
539	0.8931
530	0.896
521	0.9132
512	0.9077
503	0.8728
494	0.8257
485	0.808
476	0.8265
467	0.8243
458	0.7927
449	0.747
440	0.7
431	0.6173
422	0.4176
413	0.3009
404	0.3002
