Infrared Spectrum: 3-ETHOXY-4-HYDROXY BENZALDEHYDE
Formula: C9 H10 O3
CAS: 121-32-4
State: SOLID (MELT)
Class: COBLENTZ
Instrument: Not specified, most likely a prism, grating, or hybrid spectrometer.
Sampling: TRANSMISSION
Path length: 0.0025 CM
Resolution: 4
Origin: INFRACORD
MICROMETERS	TRANSMITTANCE
2.524	0.784
2.55946	0.778
2.59492	0.78
2.63038	0.785
2.66584	0.786
2.7013	0.788
2.73676	0.787
2.77222	0.779
2.80768	0.756
2.84314	0.699
2.8786	0.608
2.91406	0.504
2.94952	0.411
2.98498	0.338
3.02044	0.296
3.05589	0.283
3.09135	0.276
3.12681	0.288
3.16227	0.31
3.19773	0.358
3.23319	0.376
3.26865	0.412
3.30411	0.438
3.33957	0.385
3.37503	0.395
3.41049	0.405
3.44595	0.441
3.48141	0.438
3.51687	0.488
3.55233	0.551
3.58779	0.574
3.62325	0.582
3.65871	0.601
3.69417	0.658
3.72963	0.671
3.76509	0.682
3.80055	0.704
3.83601	0.712
3.87147	0.711
3.90693	0.703
3.94239	0.706
3.97785	0.724
4.01331	0.734
4.04877	0.735
4.08422	0.739
4.11968	0.747
4.15514	0.749
4.1906	0.769
4.22606	0.784
4.26152	0.782
4.29698	0.758
4.33244	0.756
4.3679	0.778
4.40336	0.788
4.43882	0.794
4.47428	0.805
4.50974	0.807
4.5452	0.811
4.58066	0.812
4.61612	0.809
4.65158	0.795
4.68704	0.799
4.7225	0.806
4.75796	0.795
4.79342	0.797
4.82888	0.797
4.86434	0.801
4.8998	0.807
4.93526	0.81
4.97072	0.811
5.00618	0.809
5.04164	0.809
5.0771	0.814
5.11256	0.824
5.14801	0.823
5.18347	0.805
5.21893	0.807
5.25439	0.784
5.28985	0.8
5.32531	0.822
5.36077	0.833
5.39623	0.829
5.43169	0.826
5.46715	0.836
5.50261	0.836
5.53807	0.835
5.57353	0.816
5.60899	0.803
5.64445	0.816
5.67991	0.819
5.71537	0.82
5.75083	0.787
5.78629	0.743
5.82175	0.743
5.85721	0.712
5.89267	0.673
5.92813	0.587
5.96359	0.485
5.99905	0.24
6.03451	0.199
6.06997	0.345
6.10543	0.493
6.14089	0.555
6.17634	0.561
6.2118	0.53
6.24726	0.353
6.28272	0.196
6.31818	0.145
6.35364	0.271
6.3891	0.408
6.42456	0.524
6.46002	0.556
6.49548	0.588
6.53094	0.588
6.5664	0.546
6.60186	0.409
6.63732	0.257
6.67278	0.297
6.70824	0.4
6.7437	0.479
6.77916	0.478
6.81462	0.474
6.85008	0.466
6.88554	0.429
6.921	0.278
6.95646	0.168
6.99192	0.169
7.02738	0.358
7.06284	0.435
7.0983	0.434
7.13376	0.364
7.16922	0.338
7.20467	0.3
7.24013	0.306
7.27559	0.345
7.31105	0.366
7.34651	0.463
7.38197	0.599
7.41743	0.644
7.45289	0.655
7.48835	0.637
7.52381	0.618
7.55927	0.581
7.59473	0.511
7.63019	0.415
7.66565	0.355
7.70111	0.27
7.73657	0.207
7.77203	0.24
7.80749	0.258
7.84295	0.251
7.87841	0.22
7.91387	0.207
7.94933	0.223
7.98479	0.224
8.02025	0.204
8.05571	0.24
8.09117	0.368
8.12663	0.402
8.16209	0.423
8.19755	0.417
8.23301	0.396
8.26846	0.361
8.30392	0.314
8.33938	0.275
8.37484	0.264
8.4103	0.26
8.44576	0.262
8.48122	0.256
8.51668	0.211
8.55214	0.163
8.5876	0.115
8.62306	0.09
8.65852	0.135
8.69398	0.207
8.72944	0.295
8.7649	0.342
8.80036	0.362
8.83582	0.355
8.87128	0.255
8.90674	0.175
8.9422	0.166
8.97766	0.188
9.01312	0.259
9.04858	0.361
9.08404	0.408
9.1195	0.488
9.15496	0.53
9.19042	0.555
9.22588	0.569
9.26134	0.582
9.29679	0.597
9.33225	0.61
9.36771	0.615
9.40317	0.614
9.43863	0.597
9.47409	0.551
9.50955	0.482
9.54501	0.347
9.58047	0.246
9.61593	0.213
9.65139	0.29
9.68685	0.387
9.72231	0.53
9.75777	0.582
9.79323	0.622
9.82869	0.65
9.86415	0.658
9.89961	0.659
9.93507	0.665
9.97053	0.685
10.006	0.702
10.0414	0.693
10.0769	0.591
10.1124	0.576
10.1478	0.66
10.1833	0.69
10.2187	0.704
10.2542	0.705
10.2897	0.704
10.3251	0.704
10.3606	0.715
10.396	0.735
10.4315	0.741
10.467	0.742
10.5024	0.749
10.5379	0.762
10.5733	0.772
10.6088	0.775
10.6443	0.776
10.6797	0.778
10.7152	0.778
10.7506	0.741
10.7861	0.728
10.8216	0.739
10.857	0.744
10.8925	0.749
10.9279	0.748
10.9634	0.733
10.9989	0.684
11.0343	0.603
11.0698	0.52
11.1052	0.523
11.1407	0.586
11.1762	0.626
11.2116	0.654
11.2471	0.68
11.2825	0.692
11.318	0.705
11.3535	0.703
11.3889	0.648
11.4244	0.556
11.4598	0.489
11.4953	0.475
11.5308	0.501
11.5662	0.602
11.6017	0.633
11.6371	0.645
11.6726	0.646
11.7081	0.641
11.7435	0.618
11.779	0.556
11.8144	0.434
11.8499	0.403
11.8853	0.423
11.9208	0.487
11.9563	0.513
11.9917	0.514
12.0272	0.516
12.0626	0.559
12.0981	0.602
12.1336	0.616
12.169	0.609
12.2045	0.576
12.2399	0.532
12.2754	0.497
12.3109	0.492
12.3463	0.511
12.3818	0.532
12.4172	0.544
12.4527	0.548
12.4882	0.561
12.5236	0.57
12.5591	0.576
12.5945	0.577
12.63	0.558
12.6655	0.531
12.7009	0.512
12.7364	0.51
12.7718	0.51
12.8073	0.508
12.8428	0.508
12.8782	0.505
12.9137	0.494
12.9491	0.475
12.9846	0.459
13.0201	0.448
13.0555	0.442
13.091	0.441
13.1264	0.441
13.1619	0.441
13.1974	0.438
13.2328	0.421
13.2683	0.398
13.3037	0.38
13.3392	0.357
13.3747	0.344
13.4101	0.339
13.4456	0.339
13.481	0.355
13.5165	0.378
13.552	0.397
13.5874	0.404
13.6229	0.404
13.6583	0.415
13.6938	0.438
13.7293	0.446
13.7647	0.453
13.8002	0.453
13.8356	0.453
13.8711	0.453
13.9066	0.453
13.942	0.453
13.9775	0.453
14.0129	0.455
14.0484	0.459
14.0838	0.462
14.1193	0.47
14.1548	0.478
14.1902	0.482
14.2257	0.492
14.2611	0.499
14.2966	0.502
14.3321	0.508
14.3675	0.514
14.403	0.525
14.4384	0.531
14.4739	0.536
14.5094	0.54
14.5448	0.544
14.5803	0.549
14.6157	0.55
14.6512	0.551
14.6867	0.551
14.7221	0.552
14.7576	0.553
14.793	0.553
14.8285	0.555
14.864	0.558
14.8994	0.558
14.9349	0.561
14.9703	0.559
15.0058	0.556
