Infrared Spectrum: BICYCLO(2.2.1)HEPTA-2,5-DIENE
Formula: C7 H8
CAS: 121-46-0
State: LIQUID
Boiling point: 89.5 C
Class: COBLENTZ
Instrument: Not specified, most likely a prism, grating, or hybrid spectrometer.
Sampling: TRANSMISSION
Path length: 0.003 CM
Resolution: 4
Origin: WYANDOTTE CHEMICALS CORP., WYANDOTTE, MICHIGAN, USA
MICROMETERS	TRANSMITTANCE
2.043	0.99
2.08289	0.993
2.12278	0.993
2.16267	0.975
2.20257	0.958
2.24246	0.946
2.28235	0.933
2.32224	0.936
2.36213	0.93
2.40202	0.935
2.44191	0.925
2.48181	0.921
2.5217	0.926
2.56159	0.923
2.60148	0.901
2.64137	0.921
2.68126	0.941
2.72115	0.94
2.76105	0.938
2.80094	0.926
2.84083	0.928
2.88072	0.898
2.92061	0.915
2.9605	0.903
3.00039	0.915
3.04029	0.913
3.08018	0.903
3.12007	0.9
3.15996	0.843
3.19985	0.63
3.23974	0.365
3.27963	0.583
3.31953	0.11
3.35942	0.116
3.39931	0.328
3.4392	0.645
3.47909	0.373
3.51898	0.801
3.55887	0.858
3.59877	0.866
3.63866	0.878
3.67855	0.885
3.71844	0.87
3.75833	0.873
3.79822	0.883
3.83811	0.878
3.87801	0.886
3.9179	0.868
3.95779	0.875
3.99768	0.875
4.03757	0.861
4.07746	0.846
4.11735	0.86
4.15725	0.843
4.19714	0.861
4.23703	0.861
4.27692	0.886
4.31681	0.9
4.3567	0.876
4.39659	0.84
4.43649	0.863
4.47638	0.858
4.51627	0.853
4.55616	0.848
4.59605	0.843
4.63594	0.82
4.67583	0.828
4.71573	0.83
4.75562	0.805
4.79551	0.818
4.8354	0.833
4.87529	0.843
4.91518	0.831
4.95507	0.816
4.99497	0.831
5.03486	0.813
5.07475	0.83
5.11464	0.823
5.15453	0.818
5.19442	0.843
5.23431	0.841
5.27421	0.838
5.3141	0.843
5.35399	0.823
5.39388	0.83
5.43377	0.821
5.47366	0.821
5.51355	0.81
5.55345	0.816
5.59334	0.818
5.63323	0.811
5.67312	0.82
5.71301	0.816
5.7529	0.816
5.79279	0.82
5.83269	0.815
5.87258	0.806
5.91247	0.791
5.95236	0.795
5.99225	0.795
6.03214	0.746
6.07203	0.661
6.11193	0.778
6.15182	0.796
6.19171	0.753
6.2316	0.778
6.27149	0.791
6.31138	0.733
6.35127	0.675
6.39117	0.536
6.43106	0.25
6.47095	0.631
6.51084	0.716
6.55073	0.79
6.59062	0.791
6.63051	0.815
6.67041	0.82
6.7103	0.811
6.75019	0.806
6.79008	0.785
6.82997	0.678
6.86986	0.621
6.90975	0.748
6.94965	0.768
6.98954	0.775
7.02943	0.78
7.06932	0.78
7.10921	0.778
7.1491	0.746
7.18899	0.736
7.22889	0.761
7.26878	0.768
7.30867	0.768
7.34856	0.753
7.38845	0.753
7.42834	0.661
7.46823	0.493
7.50813	0.501
7.54802	0.296
7.58791	0.026
7.6278	0.148
7.66769	0.503
7.70758	0.636
7.74747	0.715
7.78737	0.726
7.82726	0.7
7.86715	0.648
7.90704	0.705
7.94693	0.731
7.98682	0.723
8.02671	0.71
8.06661	0.668
8.1065	0.406
8.14639	0.44
8.18628	0.603
8.22617	0.626
8.26606	0.411
8.30595	0.49
8.34585	0.7
8.38574	0.765
8.42563	0.778
8.46552	0.795
8.50541	0.79
8.5453	0.766
8.58519	0.763
8.62509	0.72
8.66498	0.583
8.70487	0.66
8.74476	0.761
8.78465	0.785
8.82454	0.791
8.86443	0.783
8.90433	0.775
8.94422	0.755
8.98411	0.718
9.024	0.721
9.06389	0.758
9.10378	0.768
9.14367	0.76
9.18357	0.758
9.22346	0.758
9.26335	0.76
9.30324	0.758
9.34313	0.726
9.38302	0.676
9.42291	0.73
9.46281	0.76
9.5027	0.766
9.54259	0.77
9.58248	0.773
9.62237	0.771
9.66226	0.765
9.70215	0.765
9.74205	0.756
9.78194	0.711
9.82183	0.651
9.86172	0.738
9.90161	0.756
9.9415	0.771
9.98139	0.778
10.0213	0.783
10.0612	0.783
10.1011	0.785
10.141	0.783
10.1809	0.783
10.2207	0.783
10.2606	0.781
10.3005	0.781
10.3404	0.776
10.3803	0.766
10.4202	0.761
10.4601	0.756
10.5	0.751
10.5399	0.731
10.5798	0.71
10.6197	0.675
10.6595	0.595
10.6994	0.37
10.7393	0.475
10.7792	0.601
10.8191	0.661
10.859	0.66
10.8989	0.656
10.9388	0.57
10.9787	0.513
11.0186	0.583
11.0585	0.623
11.0984	0.631
11.1382	0.586
11.1781	0.47
11.218	0.433
11.2579	0.476
11.2978	0.483
11.3377	0.423
11.3776	0.278
11.4175	0.09
11.4574	0.125
11.4973	0.235
11.5372	0.423
11.5771	0.541
11.6169	0.62
11.6568	0.666
11.6967	0.706
11.7366	0.72
11.7765	0.743
11.8164	0.75
11.8563	0.763
11.8962	0.763
11.9361	0.763
11.976	0.773
12.0159	0.773
12.0557	0.783
12.0956	0.78
12.1355	0.781
12.1754	0.778
12.2153	0.768
12.2552	0.766
12.2951	0.755
12.335	0.731
12.3749	0.703
12.4148	0.661
12.4547	0.565
12.4946	0.353
12.5344	0.131
12.5743	0.185
12.6142	0.383
12.6541	0.533
12.694	0.611
12.7339	0.656
12.7738	0.685
12.8137	0.685
12.8536	0.668
12.8935	0.645
12.9334	0.638
12.9733	0.66
13.0131	0.681
13.053	0.681
13.0929	0.678
13.1328	0.671
13.1727	0.663
13.2126	0.643
13.2525	0.628
13.2924	0.605
13.3323	0.576
13.3722	0.543
13.4121	0.475
13.4519	0.41
13.4918	0.336
13.5317	0.271
13.5716	0.191
13.6115	0.098
13.6514	0.051
13.6913	0.03
13.7312	0.028
13.7711	0.03
13.811	0.033
13.8509	0.038
13.8908	0.063
13.9306	0.123
13.9705	0.201
14.0104	0.285
14.0503	0.328
14.0902	0.371
14.1301	0.408
14.17	0.463
14.2099	0.52
14.2498	0.558
14.2897	0.59
14.3296	0.606
14.3695	0.62
14.4093	0.623
14.4492	0.628
14.4891	0.641
14.529	0.65
14.5689	0.656
14.6088	0.663
14.6487	0.661
14.6886	0.651
14.7285	0.651
14.7684	0.635
14.8083	0.613
14.8481	0.585
14.888	0.566
14.9279	0.538
14.9678	0.506
15.0077	0.483
15.0476	0.44
15.0875	0.368
15.1274	0.286
15.1673	0.233
15.2072	0.211
15.2471	0.22
15.287	0.235
15.3268	0.243
15.3667	0.268
15.4066	0.31
15.4465	0.351
15.4864	0.405
15.5263	0.468
15.5662	0.521
15.6061	0.561
15.646	0.586
15.6859	0.611
15.7258	0.638
15.7657	0.651
15.8055	0.663
15.8454	0.675
15.8853	0.685
15.9252	0.688
15.9651	0.695
16.005	0.695
