Infrared Spectrum: Trimethyl phosphite
Formula: C3 H9 O3 P
CAS: 121-45-9
State: SOLUTION (10% CCl4 FOR 2.6-7.5, 10% CS2 FOR 7.5-26 MICRON)
Class: COBLENTZ III
Instrument: DOW KBr FOREPRISM-GRATING
Instrument parameters: BLAZED AT 3.5, 12.0, 20.0 MICRON AND CHANGED AT 5.0, 7.5, 14.9 MICRON
Sampling: TRANSMISSION
Path length: 0.011 CM, 0.011 CM
Resolution: 2
Origin: DOW CHEMICAL COMPANY
1/CM	TRANSMITTANCE
3800	0.9415
3791	0.9443
3782	0.9433
3773	0.9458
3764	0.9464
3755	0.9463
3746	0.9456
3737	0.9469
3728	0.9458
3719	0.9427
3710	0.9447
3701	0.9381
3692	0.9326
3683	0.9328
3674	0.9348
3665	0.9351
3656	0.9347
3647	0.9338
3638	0.9336
3629	0.9339
3620	0.9358
3611	0.9286
3602	0.9254
3593	0.927
3584	0.8855
3575	0.9105
3566	0.9203
3557	0.922
3548	0.924
3539	0.9234
3530	0.9237
3521	0.9214
3512	0.9212
3503	0.9211
3494	0.9204
3485	0.9185
3476	0.9165
3467	0.9146
3458	0.9144
3449	0.9142
3440	0.9141
3431	0.9145
3422	0.915
3413	0.9155
3404	0.916
3395	0.9162
3386	0.9164
3377	0.9166
3368	0.9169
3359	0.9174
3350	0.9182
3341	0.9188
3332	0.9192
3323	0.9192
3314	0.9193
3305	0.9212
3296	0.9191
3287	0.9187
3278	0.9196
3269	0.92
3260	0.9204
3251	0.9207
3242	0.9209
3233	0.921
3224	0.9209
3215	0.9201
3206	0.9176
3197	0.9189
3188	0.9191
3179	0.9163
3170	0.9147
3161	0.9134
3152	0.9119
3143	0.9072
3134	0.9057
3125	0.9007
3116	0.8929
3107	0.8836
3098	0.8732
3089	0.8608
3080	0.8405
3071	0.8218
3062	0.7849
3053	0.7487
3044	0.72
3035	0.6869
3026	0.6274
3017	0.5118
3008	0.3904
2999	0.2902
2990	0.249
2981	0.2577
2972	0.2873
2963	0.274
2954	0.2338
2945	0.0889
2936	0.104
2927	0.2799
2918	0.3721
2909	0.3922
2900	0.4045
2891	0.453
2882	0.5842
2873	0.705
2864	0.7419
2855	0.7387
2846	0.6449
2837	0.1273
2828	0.2231
2819	0.6527
2810	0.823
2801	0.8568
2792	0.8774
2783	0.8895
2774	0.8976
2765	0.9031
2756	0.9069
2747	0.9104
2738	0.9131
2729	0.9158
2720	0.9181
2711	0.9204
2702	0.9221
2693	0.9228
2684	0.9238
2675	0.925
2666	0.9254
2657	0.9265
2648	0.9219
2639	0.9157
2630	0.9109
2621	0.9095
2612	0.9089
2603	0.9092
2594	0.9119
2585	0.9151
2576	0.9188
2567	0.9212
2558	0.9236
2549	0.9248
2540	0.9262
2531	0.9262
2522	0.9261
2513	0.9264
2504	0.9267
2495	0.927
2486	0.9271
2477	0.929
2468	0.9291
2459	0.9268
2450	0.9208
2441	0.9214
2432	0.9208
2423	0.9203
2414	0.9209
2405	0.9234
2396	0.9243
2387	0.9282
2378	0.9443
2369	0.95
2360	0.9524
2351	0.9581
2342	0.9588
2333	0.9573
2324	0.9526
2315	0.9371
2306	0.9399
2297	0.9389
2288	0.935
2279	0.9314
2270	0.9287
2261	0.9252
2252	0.9223
2243	0.9196
2234	0.9187
2225	0.9196
2216	0.9191
2207	0.9211
2198	0.9219
2189	0.9179
2180	0.9149
2171	0.9157
2162	0.9152
2153	0.9159
2144	0.9157
2135	0.9152
2126	0.9142
2117	0.9131
2108	0.9116
2099	0.9093
2090	0.8931
2081	0.8736
2072	0.8644
2063	0.8681
2054	0.8697
2045	0.866
2036	0.8648
2027	0.867
2018	0.8755
2009	0.8845
2000	0.8923
1991	0.8973
1982	0.8937
1973	0.8938
1964	0.8942
1955	0.9032
1946	0.8958
1937	0.8935
1928	0.8906
1919	0.8891
1910	0.8897
1901	0.8927
1892	0.8941
1883	0.8957
1874	0.8996
1865	0.8992
1856	0.8964
1847	0.893
1838	0.8883
1829	0.8807
1820	0.8736
1811	0.8661
1802	0.8501
1793	0.8372
1784	0.8293
1775	0.8251
1766	0.8246
1757	0.826
1748	0.8338
1739	0.844
1730	0.8549
1721	0.8656
1712	0.8737
1703	0.8806
1694	0.8864
1685	0.8904
1676	0.8927
1667	0.895
1658	0.8946
1649	0.894
1640	0.8934
1631	0.8922
1622	0.8901
1613	0.8962
1604	0.9048
1595	0.8974
1586	0.8504
1577	0.8539
1568	0.8545
1559	0.8693
1550	0.8618
1541	0.7943
1532	0.7389
1523	0.7515
1514	0.7407
1505	0.7157
1496	0.6852
1487	0.6501
1478	0.5919
1469	0.4493
1460	0.3686
1451	0.4028
1442	0.5457
1433	0.6264
1424	0.7089
1415	0.779
1406	0.807
1397	0.8223
1388	0.8359
1379	0.8408
1370	0.8469
1361	0.8536
1352	0.8552
1343	0.8538
1334	0.8521
1325	0.8503
1316	0.8532
1307	0.8484
1298	0.8364
1289	0.799
1280	0.7597
1271	0.7376
1262	0.7014
1253	0.7265
1244	0.7659
1235	0.7852
1226	0.7865
1217	0.7706
1208	0.7205
1199	0.6234
1190	0.4858
1181	0.2273
1172	0.2683
1163	0.4631
1154	0.5918
1145	0.6389
1136	0.6698
1127	0.6746
1118	0.6705
1109	0.6529
1100	0.6117
1091	0.5685
1082	0.4993
1073	0.3686
1064	0.117
1055	0.0424
1046	0.0763
1037	0.0329
1028	0.0003
1019	0.0003
1010	0.0003
1001	0.0004
992	0.2006
983	0.3438
974	0.4567
965	0.5678
956	0.6937
947	0.7591
938	0.8024
929	0.8338
920	0.8565
911	0.8674
902	0.8917
893	0.9104
884	0.939
875	0.946
866	0.9518
857	0.9396
848	0.8525
839	0.871
830	0.8803
821	0.8522
812	0.8195
803	0.796
794	0.6406
785	0.3718
776	0.1128
767	0.0201
758	0.0194
749	0.0024
740	0.002
731	0.0023
722	0.0014
713	0.1191
704	0.2986
695	0.5861
686	0.7767
677	0.8524
668	0.9246
659	0.9332
650	0.9092
641	0.9192
632	0.9325
623	0.9405
614	0.9512
605	0.9472
596	0.9474
587	0.9449
578	0.9392
569	0.9341
560	0.9221
551	0.899
542	0.8552
533	0.8402
524	0.8227
515	0.6678
506	0.675
497	0.8306
488	0.8609
479	0.8638
470	0.8576
461	0.8454
452	0.8301
443	0.8108
434	0.7862
425	0.7511
416	0.6008
407	0.4334
398	0.2117
389	0.1514
