Infrared Spectrum: 2,4-Dinitrotoluene
Formula: C 7 H 6 N 2 O 4
CAS: 121-14-2
State: solid
Instrument: Bruker IR Cube FTIR
Resolution: 0.96450084
Origin: Pacific Northwest National Laboratory Under IARPA Contract
1/cm	Reflectance
7498.99	0.719382
7481.63	0.737959
7464.27	0.68259
7446.91	0.640731
7429.55	0.652087
7412.19	0.612419
7394.84	0.584935
7377.48	0.598574
7360.12	0.587898
7342.76	0.589461
7325.4	0.586851
7308.04	0.574515
7290.68	0.628299
7273.32	0.62953
7255.96	0.61625
7238.6	0.617614
7221.24	0.615109
7203.88	0.638454
7186.52	0.637293
7169.16	0.626278
7151.8	0.627601
7134.44	0.645261
7117.08	0.64619
7099.72	0.658314
7082.36	0.661083
7065	0.668568
7047.64	0.666681
7030.28	0.663955
7012.92	0.656017
6995.56	0.651789
6978.2	0.64802
6960.84	0.646991
6943.48	0.643623
6926.12	0.627203
6908.76	0.615833
6891.4	0.601356
6874.04	0.567013
6856.68	0.519315
6839.32	0.460136
6821.96	0.39488
6804.6	0.286286
6787.24	0.215621
6769.88	0.242325
6752.52	0.314357
6735.16	0.291165
6717.8	0.281652
6700.44	0.32986
6683.08	0.385464
6665.72	0.341779
6648.36	0.291606
6631	0.324659
6613.64	0.372785
6596.28	0.372138
6578.92	0.38104
6561.56	0.455772
6544.2	0.49245
6526.85	0.504308
6509.49	0.500957
6492.13	0.494922
6474.77	0.487287
6457.41	0.484831
6440.05	0.456065
6422.69	0.484767
6405.33	0.495309
6387.97	0.502379
6370.61	0.514158
6353.25	0.514304
6335.89	0.518268
6318.53	0.514715
6301.17	0.503873
6283.81	0.483757
6266.45	0.439595
6249.09	0.418119
6231.73	0.444387
6214.37	0.445878
6197.01	0.451301
6179.65	0.446104
6162.29	0.427824
6144.93	0.391093
6127.57	0.336765
6110.21	0.218434
6092.85	0.218109
6075.49	0.156736
6058.13	0.185914
6040.77	0.158501
6023.41	0.165767
6006.05	0.176401
5988.69	0.155489
5971.33	0.115441
5953.97	0.116793
5936.61	0.101853
5919.25	0.120151
5901.89	0.143987
5884.53	0.143388
5867.17	0.127814
5849.81	0.12009
5832.45	0.108336
5815.09	0.143895
5797.73	0.12446
5780.37	0.132976
5763.01	0.102992
5745.65	0.0921363
5728.29	0.12304
5710.93	0.132306
5693.57	0.144052
5676.21	0.199337
5658.86	0.165616
5641.5	0.166763
5624.14	0.143202
5606.78	0.173837
5589.42	0.176643
5572.06	0.228983
5554.7	0.206118
5537.34	0.205796
5519.98	0.219342
5502.62	0.22734
5485.26	0.203303
5467.9	0.175452
5450.54	0.183834
5433.18	0.174291
5415.82	0.157123
5398.46	0.124115
5381.1	0.0895753
5363.74	0.0713011
5346.38	0.0495343
5329.02	0.0427072
5311.66	0.0335082
5294.3	0.0343436
5276.94	0.0354822
5259.58	0.0440667
5242.22	0.0340122
5224.86	0.0366899
5207.5	0.0391023
5190.14	0.0327266
5172.78	0.0370157
5155.42	0.0520345
5138.06	0.0634328
5120.7	0.0429451
5103.34	0.0694699
5085.98	0.0816392
5068.62	0.0922655
5051.26	0.0729249
5033.9	0.104101
5016.54	0.0812171
4999.18	0.0654663
4981.82	0.0604267
4964.46	0.0651425
4947.1	0.0666821
4929.74	0.0659221
4912.38	0.0879299
4895.02	0.0905998
4877.66	0.104486
4860.3	0.0896927
4842.94	0.138163
4825.58	0.171194
4808.22	0.127918
4790.86	0.129391
4773.51	0.0823128
4756.15	0.0997052
4738.79	0.0990404
4721.43	0.0615252
4704.07	0.115188
4686.71	0.0775474
4669.35	0.0583863
4651.99	0.0691325
4634.63	0.0690516
4617.27	0.0660019
4599.91	0.0329397
4582.55	0.0288432
4565.19	0.0211195
4547.83	0.0253571
4530.47	0.0160066
4513.11	0.0718616
4495.75	0.0384165
4478.39	0.0314357
4461.03	0.0287306
4443.67	0.0224793
4426.31	0.0574055
4408.95	0.0404959
4391.59	0.0394026
4374.23	0.0441628
4356.87	0.0380663
4339.51	0.0474784
4322.15	0.0368964
4304.79	0.0555942
4287.43	0.0290802
4270.07	0.032718
4252.71	0.0389907
4235.35	0.0493606
4217.99	0.041012
4200.63	0.0401695
4183.27	0.0436375
4165.91	0.0375429
4148.55	0.0329286
4131.19	0.0311023
4113.83	0.0521132
4096.47	0.0463542
4079.11	0.0542876
4061.75	0.0475735
4044.39	0.717499
4027.03	0.719338
4009.67	0.696163
3992.31	0.650939
3974.95	0.654412
3957.59	0.631327
3940.23	0.596215
3922.87	0.611397
3905.52	0.603846
3888.16	0.600405
3870.8	0.592996
3853.44	0.613703
3836.08	0.642053
3818.72	0.643962
3801.36	0.62928
3784	0.629853
3766.64	0.636537
3749.28	0.642301
3731.92	0.639396
3714.56	0.641383
3697.2	0.635302
3679.84	0.652422
3662.48	0.662295
3645.12	0.666077
3627.76	0.671946
3610.4	0.677347
3593.04	0.671494
3575.68	0.668987
3558.32	0.663811
3540.96	0.658257
3523.6	0.656083
3506.24	0.652038
3488.88	0.647382
3471.52	0.630219
3454.16	0.620614
3436.8	0.600283
3419.44	0.563424
3402.08	0.513213
3384.72	0.452617
3367.36	0.374117
3350	0.272202
3332.64	0.219464
3315.28	0.280029
3297.92	0.323689
3280.56	0.304852
3263.2	0.250904
3245.84	0.370743
3228.48	0.380697
3211.12	0.341426
3193.76	0.309122
3176.4	0.339022
3159.04	0.388378
3141.68	0.389204
3124.32	0.425012
3106.96	0.477578
3089.6	0.507026
3072.24	0.511943
3054.88	0.510527
3037.52	0.503391
3020.17	0.496405
3002.81	0.490337
2985.45	0.460927
2968.09	0.500361
2950.73	0.50871
2933.37	0.518721
2916.01	0.527258
2898.65	0.525191
2881.29	0.526156
2863.93	0.524898
2846.57	0.512195
2829.21	0.476779
2811.85	0.455921
2794.49	0.401289
2777.13	0.454976
2759.77	0.462605
2742.41	0.460162
2725.05	0.454277
2707.69	0.422233
2690.33	0.39525
2672.97	0.322696
2655.61	0.166084
2638.25	0.236677
2620.89	0.161738
2603.53	0.193942
2586.17	0.168281
2568.81	0.172764
2551.45	0.177166
2534.09	0.156575
2516.73	0.115151
2499.37	0.120261
2482.01	0.102446
2464.65	0.14011
2447.29	0.147595
2429.93	0.139975
2412.57	0.115355
2395.21	0.12342
2377.85	0.103661
2360.49	0.151158
2343.13	0.129255
2325.77	0.146057
2308.41	0.109023
2291.05	0.122728
2273.69	0.119582
2256.33	0.15657
2238.97	0.156933
2221.61	0.196978
2204.25	0.171884
2186.89	0.169171
2169.53	0.14289
2152.18	0.180284
2134.82	0.210849
2117.46	0.224581
2100.1	0.221506
2082.74	0.207145
2065.38	0.225331
2048.02	0.227853
2030.66	0.187067
2013.3	0.187359
1995.94	0.186742
1978.58	0.178744
1961.22	0.153967
1943.86	0.111333
1926.5	0.0910885
1909.14	0.0601479
1891.78	0.0501038
1874.42	0.039585
1857.06	0.0322986
1839.7	0.0355441
1822.34	0.0397101
1804.98	0.038779
1787.62	0.0346146
1770.26	0.0381356
1752.9	0.0356513
1735.54	0.033041
1718.18	0.040025
1700.82	0.0564222
1683.46	0.062237
1666.1	0.0528806
1648.74	0.0674307
1631.38	0.0849939
1614.02	0.0716878
1596.66	0.0892028
1579.3	0.0944445
1561.94	0.0817506
1544.58	0.0633799
1527.22	0.0553669
1509.86	0.0635177
1492.5	0.0820139
1475.14	0.0780874
1457.78	0.0825977
1440.42	0.0819713
1423.06	0.143091
1405.7	0.125046
1388.34	0.131869
1370.98	0.135907
1353.62	0.139591
1336.26	0.0982059
1318.9	0.131143
1301.54	0.12536
1284.19	0.102772
1266.83	0.109985
1249.47	0.110575
1232.11	0.0957327
1214.75	0.0428959
1197.39	0.0925057
1180.03	0.0551992
1162.67	0.0688992
1145.31	0.0306164
1127.95	0.0267918
1110.59	0.0189126
1093.23	0.0227675
1075.87	0.0125158
1058.51	0.0616698
1041.15	0.0356406
1023.79	0.0310916
1006.43	0.0274866
989.068	0.0223239
971.709	0.0685638
954.349	0.0388109
936.989	0.034761
919.629	0.0481297
902.269	0.0332267
884.91	0.0502049
867.55	0.0323646
850.19	0.0465553
832.83	0.0318827
815.47	0.0358977
798.111	0.0518785
780.751	0.0524981
763.391	0.0272984
746.031	0.0510898
728.671	0.0378097
711.312	0.042733
693.952	0.0345935
676.592	0.0362694
659.232	0.0355335
641.872	0.0553474
624.513	0.0740772
607.153	0.103677
