Infrared Spectrum: PHENYL ACETALDEHYDE
Formula: C8 H8 O
CAS: 122-78-1
State: LIQUID
Class: COBLENTZ
Instrument: Not specified, most likely a prism, grating, or hybrid spectrometer.
Sampling: TRANSMISSION
Path length: 0.0025 CM
Resolution: 4
Origin: INFRACORD
MICROMETERS	TRANSMITTANCE
2.529	0.842
2.56439	0.843
2.59979	0.844
2.63518	0.847
2.67058	0.85
2.70597	0.853
2.74137	0.857
2.77676	0.836
2.81215	0.821
2.84755	0.743
2.88294	0.684
2.91834	0.648
2.95373	0.63
2.98913	0.631
3.02452	0.698
3.05991	0.763
3.09531	0.807
3.1307	0.817
3.1661	0.833
3.20149	0.834
3.23689	0.832
3.27228	0.792
3.30768	0.641
3.34307	0.491
3.37846	0.435
3.41386	0.659
3.44925	0.662
3.48465	0.552
3.52004	0.536
3.55544	0.581
3.59083	0.533
3.62622	0.471
3.66162	0.629
3.69701	0.709
3.73241	0.614
3.7678	0.574
3.8032	0.726
3.83859	0.815
3.87398	0.845
3.90938	0.865
3.94477	0.874
3.98017	0.882
4.01556	0.89
4.05096	0.895
4.08635	0.899
4.12174	0.902
4.15714	0.902
4.19253	0.904
4.22793	0.903
4.26332	0.903
4.29872	0.906
4.33411	0.907
4.3695	0.908
4.4049	0.912
4.44029	0.915
4.47569	0.916
4.51108	0.919
4.54648	0.923
4.58187	0.925
4.61727	0.926
4.65266	0.926
4.68805	0.927
4.72345	0.927
4.75884	0.931
4.79424	0.931
4.82963	0.931
4.86503	0.929
4.90042	0.931
4.93581	0.928
4.97121	0.927
5.0066	0.928
5.042	0.928
5.07739	0.926
5.11279	0.906
5.14818	0.878
5.18357	0.846
5.21897	0.832
5.25436	0.871
5.28976	0.904
5.32515	0.901
5.36055	0.863
5.39594	0.832
5.43133	0.827
5.46673	0.866
5.50212	0.872
5.53752	0.874
5.57291	0.844
5.60831	0.807
5.6437	0.799
5.6791	0.801
5.71449	0.761
5.74988	0.687
5.78528	0.571
5.82067	0.395
5.85607	0.131
5.89146	0.01
5.92686	0.011
5.96225	0.218
5.99764	0.385
6.03304	0.661
6.06843	0.766
6.10383	0.827
6.13922	0.844
6.17462	0.865
6.21001	0.868
6.2454	0.868
6.2808	0.828
6.31619	0.621
6.35159	0.621
6.38698	0.729
6.42238	0.804
6.45777	0.891
6.49316	0.909
6.52856	0.913
6.56395	0.907
6.59935	0.907
6.63474	0.908
6.67014	0.909
6.70553	0.884
6.74092	0.535
6.77632	0.174
6.81171	0.482
6.84711	0.779
6.8825	0.832
6.9179	0.818
6.95329	0.585
6.98869	0.235
7.02408	0.638
7.05947	0.661
7.09487	0.608
7.13026	0.567
7.16566	0.47
7.20105	0.429
7.23645	0.471
7.27184	0.488
7.30723	0.488
7.34263	0.502
7.37802	0.548
7.41342	0.568
7.44881	0.589
7.48421	0.595
7.5196	0.606
7.55499	0.596
7.59039	0.585
7.62578	0.593
7.66118	0.597
7.69657	0.592
7.73197	0.592
7.76736	0.654
7.80275	0.691
7.83815	0.719
7.87354	0.733
7.90894	0.716
7.94433	0.686
7.97973	0.668
8.01512	0.682
8.05051	0.728
8.08591	0.732
8.1213	0.732
8.1567	0.736
8.19209	0.752
8.22749	0.754
8.26288	0.752
8.29828	0.731
8.33367	0.694
8.36906	0.641
8.40446	0.635
8.43985	0.629
8.47525	0.621
8.51064	0.571
8.54604	0.557
8.58143	0.565
8.61682	0.592
8.65222	0.599
8.68761	0.574
8.72301	0.508
8.7584	0.463
8.7938	0.401
8.82919	0.269
8.86458	0.18
8.89998	0.155
8.93537	0.159
8.97077	0.204
9.00616	0.257
9.04156	0.302
9.07695	0.326
9.11234	0.376
9.14774	0.419
9.18313	0.444
9.21853	0.445
9.25392	0.416
9.28932	0.318
9.32471	0.255
9.3601	0.299
9.3955	0.422
9.43089	0.46
9.46629	0.465
9.50168	0.461
9.53708	0.423
9.57247	0.383
9.60787	0.314
9.64326	0.277
9.67865	0.252
9.71405	0.23
9.74944	0.186
9.78484	0.182
9.82023	0.26
9.85563	0.302
9.89102	0.346
9.92641	0.376
9.96181	0.393
9.9972	0.399
10.0326	0.384
10.068	0.384
10.1034	0.384
10.1388	0.39
10.1742	0.402
10.2096	0.415
10.245	0.423
10.2804	0.438
10.3158	0.444
10.3511	0.446
10.3865	0.446
10.4219	0.447
10.4573	0.458
10.4927	0.478
10.5281	0.51
10.5635	0.52
10.5989	0.473
10.6343	0.412
10.6697	0.384
10.7051	0.39
10.7405	0.44
10.7759	0.479
10.8113	0.562
10.8467	0.621
10.8821	0.644
10.9175	0.648
10.9528	0.643
10.9882	0.615
11.0236	0.628
11.059	0.685
11.0944	0.749
11.1298	0.777
11.1652	0.793
11.2006	0.806
11.236	0.809
11.2714	0.811
11.3068	0.811
11.3422	0.807
11.3776	0.795
11.413	0.782
11.4484	0.764
11.4838	0.755
11.5192	0.749
11.5546	0.754
11.5899	0.762
11.6253	0.766
11.6607	0.763
11.6961	0.757
11.7315	0.757
11.7669	0.76
11.8023	0.766
11.8377	0.774
11.8731	0.788
11.9085	0.801
11.9439	0.818
11.9793	0.831
12.0147	0.833
12.0501	0.827
12.0855	0.815
12.1209	0.805
12.1563	0.801
12.1917	0.8
12.227	0.8
12.2624	0.798
12.2978	0.8
12.3332	0.806
12.3686	0.813
12.404	0.828
12.4394	0.832
12.4748	0.832
12.5102	0.834
12.5456	0.837
12.581	0.837
12.6164	0.836
12.6518	0.831
12.6872	0.812
12.7226	0.795
12.758	0.783
12.7934	0.771
12.8287	0.757
12.8641	0.739
12.8995	0.723
12.9349	0.707
12.9703	0.681
13.0057	0.635
13.0411	0.567
13.0765	0.513
13.1119	0.448
13.1473	0.393
13.1827	0.324
13.2181	0.252
13.2535	0.174
13.2889	0.121
13.3243	0.087
13.3597	0.071
13.3951	0.072
13.4305	0.087
13.4658	0.148
13.5012	0.201
13.5366	0.262
13.572	0.315
13.6074	0.359
13.6428	0.408
13.6782	0.435
13.7136	0.46
13.749	0.48
13.7844	0.498
13.8198	0.51
13.8552	0.521
13.8906	0.516
13.926	0.494
13.9614	0.453
13.9968	0.415
14.0322	0.346
14.0676	0.279
14.1029	0.203
14.1383	0.129
14.1737	0.078
14.2091	0.041
14.2445	0.024
14.2799	0.015
14.3153	0.009
14.3507	0.004
14.3861	0.011
14.4215	0.066
14.4569	0.149
14.4923	0.228
14.5277	0.351
14.5631	0.447
14.5985	0.508
14.6339	0.541
14.6693	0.564
14.7046	0.573
14.74	0.583
14.7754	0.585
14.8108	0.585
14.8462	0.585
14.8816	0.589
14.917	0.599
14.9524	0.618
14.9878	0.622
