Infrared Spectrum: Acetic acid, phenyl ester
Formula: C8 H8 O2
CAS: 122-79-2
State: SOLUTION (10% CCl4 FOR 2.6-7.5, 10% CS2 FOR 7.5-22, 2% CS2 FOR 7.5-8.9 MICRON)
Class: COBLENTZ III
Instrument: DOW KBr FOREPRISM-GRATING
Instrument parameters: BLAZED AT 3.5, 12.0, 20.0 MICRON AND CHANGED AT 5.0, 7.5, 14.9 MICRON
Sampling: TRANSMISSION
Path length: 0.011 CM, 0.01 CM, 0.01 CM
Resolution: 2
Origin: DOW CHEMICAL COMPANY
1/CM	TRANSMITTANCE
3816	0.9185
3807	0.9178
3798	0.9164
3789	0.9175
3780	0.9174
3771	0.9173
3762	0.917
3753	0.9164
3744	0.9159
3735	0.9152
3726	0.913
3717	0.9093
3708	0.9063
3699	0.9006
3690	0.894
3681	0.8922
3672	0.8983
3663	0.8991
3654	0.8976
3645	0.9
3636	0.8987
3627	0.8924
3618	0.8679
3609	0.8488
3600	0.861
3591	0.878
3582	0.8584
3573	0.8662
3564	0.8659
3555	0.8516
3546	0.8327
3537	0.8127
3528	0.7887
3519	0.772
3510	0.758
3501	0.7535
3492	0.7635
3483	0.7725
3474	0.7802
3465	0.7847
3456	0.7886
3447	0.7928
3438	0.7971
3429	0.7985
3420	0.7992
3411	0.8001
3402	0.8046
3393	0.809
3384	0.8133
3375	0.817
3366	0.8201
3357	0.8231
3348	0.8264
3339	0.8297
3330	0.8331
3321	0.8365
3312	0.8397
3303	0.839
3294	0.8383
3285	0.8379
3276	0.8385
3267	0.8397
3258	0.84
3249	0.8378
3240	0.8365
3231	0.8351
3222	0.8347
3213	0.8338
3204	0.8296
3195	0.8268
3186	0.8229
3177	0.8257
3168	0.8257
3159	0.8259
3150	0.8234
3141	0.8183
3132	0.8135
3123	0.8065
3114	0.7942
3105	0.6983
3096	0.6919
3087	0.6743
3078	0.6059
3069	0.6242
3060	0.6728
3051	0.5478
3042	0.6239
3033	0.6568
3024	0.7253
3015	0.7597
3006	0.7719
2997	0.7773
2988	0.7811
2979	0.7906
2970	0.7997
2961	0.8084
2952	0.801
2943	0.7854
2934	0.7884
2925	0.7966
2916	0.8046
2907	0.8157
2898	0.8232
2889	0.8306
2880	0.8368
2871	0.8417
2862	0.8454
2853	0.8418
2844	0.8417
2835	0.849
2826	0.8538
2817	0.8552
2808	0.8583
2799	0.8581
2790	0.8551
2781	0.853
2772	0.8542
2763	0.8568
2754	0.8598
2745	0.862
2736	0.8627
2727	0.8629
2718	0.8637
2709	0.864
2700	0.8608
2691	0.8548
2682	0.851
2673	0.853
2664	0.8563
2655	0.8604
2646	0.8616
2637	0.8563
2628	0.8538
2619	0.8524
2610	0.8553
2601	0.8643
2592	0.8673
2583	0.8652
2574	0.8629
2565	0.8623
2556	0.8632
2547	0.8662
2538	0.8703
2529	0.8722
2520	0.8733
2511	0.8743
2502	0.8749
2493	0.8754
2484	0.8759
2475	0.8779
2466	0.8785
2457	0.8779
2448	0.8765
2439	0.873
2430	0.8701
2421	0.8654
2412	0.8541
2403	0.8447
2394	0.8397
2385	0.8466
2376	0.8582
2367	0.8649
2358	0.8739
2349	0.8801
2340	0.8837
2331	0.8798
2322	0.8743
2313	0.8689
2304	0.8691
2295	0.8695
2286	0.8689
2277	0.8739
2268	0.8703
2259	0.8695
2250	0.8699
2241	0.8735
2232	0.8718
2223	0.8724
2214	0.8732
2205	0.8766
2196	0.8775
2187	0.8745
2178	0.8756
2169	0.8757
2160	0.8747
2151	0.8705
2142	0.8567
2133	0.8511
2124	0.8511
2115	0.8484
2106	0.84
2097	0.8453
2088	0.8582
2079	0.86
2070	0.8606
2061	0.8599
2052	0.8579
2043	0.8451
2034	0.8316
2025	0.8266
2016	0.806
2007	0.8026
1998	0.829
1989	0.8471
1980	0.8505
1971	0.8424
1962	0.8343
1953	0.8071
1944	0.8222
1935	0.7571
1926	0.8139
1917	0.8461
1908	0.8429
1899	0.835
1890	0.8399
1881	0.8231
1872	0.8246
1863	0.8131
1854	0.7833
1845	0.732
1836	0.7463
1827	0.7259
1818	0.6411
1809	0.5541
1800	0.5747
1791	0.4476
1782	0.114
1773	0.0054
1764	0.0009
1755	0.0804
1746	0.1435
1737	0.1442
1728	0.3581
1719	0.3873
1710	0.4422
1701	0.6892
1692	0.7547
1683	0.7853
1674	0.8028
1665	0.8127
1656	0.8185
1647	0.8121
1638	0.795
1629	0.8009
1620	0.7924
1611	0.7358
1602	0.4776
1593	0.1622
1584	0.6055
1575	0.6886
1566	0.6895
1557	0.6609
1548	0.6863
1539	0.6877
1530	0.694
1521	0.7045
1512	0.697
1503	0.3951
1494	0.0054
1485	0.4252
1476	0.347
1467	0.6088
1458	0.3965
1449	0.65
1440	0.6095
1431	0.5401
1422	0.5819
1413	0.637
1404	0.6903
1395	0.6838
1386	0.5861
1377	0.2268
1368	0.1298
1359	0.5715
1350	0.7142
1341	0.7428
1332	0.7599
1323	0.774
1314	0.7672
1305	0.747
1296	0.6545
1287	0.5797
1278	0.6532
1269	0.587
1260	0.5294
1251	0.5146
1242	0.3579
1233	0.1629
1224	0.0717
1215	0.0042
1206	0.004
1197	0.004
1188	0.0039
1179	0.0804
1170	0.3191
1161	0.0877
1152	0.3954
1143	0.5428
1134	0.7558
1125	0.8086
1116	0.8274
1107	0.8188
1098	0.8158
1089	0.7999
1080	0.7449
1071	0.509
1062	0.6683
1053	0.6485
1044	0.5656
1035	0.6459
1026	0.2464
1017	0.4442
1008	0.3664
999	0.5794
990	0.7495
981	0.8017
972	0.8249
963	0.8271
954	0.8128
945	0.7946
936	0.61
927	0.2479
918	0.2946
909	0.6442
900	0.7196
891	0.3447
882	0.6765
873	0.7752
864	0.7834
855	0.8075
846	0.8474
837	0.8096
828	0.648
819	0.5007
810	0.4427
801	0.7411
792	0.7992
783	0.823
774	0.8179
765	0.7144
756	0.3593
747	0.0413
738	0.708
729	0.8149
720	0.8354
711	0.8217
702	0.7139
693	0.008
684	0.7024
675	0.7644
666	0.5805
657	0.7562
648	0.8393
639	0.8615
630	0.8375
621	0.8462
612	0.8502
603	0.7981
594	0.6307
585	0.8299
576	0.85
567	0.8494
558	0.8394
549	0.7916
540	0.6718
531	0.4664
522	0.7891
513	0.737
504	0.3543
495	0.6763
486	0.7817
477	0.7867
468	0.7969
459	0.7952
