Infrared Spectrum: BENZOYL CHLORIDE, 4-CHLORO-
Formula: C7 H4 Cl2 O
CAS: 122-01-0
State: SOLUTION (10% CCl4 FOR 3800-1330, 10% CS2 FOR 1330-450 CM^-^1)
Class: COBLENTZ III
Instrument: Not specified, most likely a prism, grating, or hybrid spectrometer.
Sampling: TRANSMISSION
Path length: 0.011 CM, 0.011 CM
Resolution: 4
Origin: DOW CHEMICAL COMPANY
1/CM	TRANSMITTANCE
450	0.68
459.259	0.691
468.519	0.665
477.778	0.912
487.037	0.952
496.296	0.961
505.556	0.961
514.815	0.958
524.074	0.967
533.334	0.962
542.593	0.909
551.852	0.644
561.111	0.054
570.371	0.935
579.63	1.004
588.889	1.018
598.148	1.015
607.408	1.001
616.667	0.978
625.926	0.794
635.186	0.552
644.445	0.3841
653.704	0.918
662.963	0.969
672.223	1.001
681.482	0.988
690.741	1
700.001	0.956
709.26	0.701
718.519	0.11
727.778	0.197
737.038	0.958
746.297	1.002
755.556	1.02
764.816	1.025
774.075	1.015
783.334	1.008
792.593	0.981
801.853	0.895
811.112	0.817
820.371	0.711
829.63	0.428
838.89	0.025
848.149	0.35
857.408	0.119
866.668	0.031
875.927	0
885.186	0.041
894.445	0.56
903.705	0.769
912.964	0.876
922.223	0.958
931.483	0.923
940.742	0.886
950.001	0.936
959.26	0.946
968.52	0.989
977.779	0.994
987.038	1.012
996.298	1.005
1005.56	0.958
1014.82	0.131
1024.08	1.014
1033.33	1.012
1042.59	1.028
1051.85	1.027
1061.11	1.02
1070.37	0.977
1079.63	0.82
1088.89	0.123
1098.15	0.3441
1107.41	0.625
1116.67	0.903
1125.93	0.916
1135.19	0.997
1144.45	0.991
1153.71	0.959
1162.96	0.672
1172.22	0.008
1181.48	0.737
1190.74	0.397
1200	0.058
1209.26	0.1072
1218.52	0.789
1227.78	0.807
1237.04	0.979
1246.3	1.017
1255.56	1.007
1264.82	0.988
1274.08	0.866
1283.34	0.78
1292.59	0.872
1301.85	0.969
1311.11	1.027
1320.37	1.035
1329.63	1.077
1338.89	1.077
1348.15	1.067
1357.41	1.01
1366.67	1.03
1375.93	1.05
1385.19	1.028
1394.45	0.784
1403.71	0.6221
1412.97	1.014
1422.22	0.989
1431.48	1
1440.74	0.977
1450	1.011
1459.26	0.982
1468.52	0.941
1477.78	0.7739
1487.04	0.284
1496.3	0.883
1505.56	0.857
1514.82	0.796
1524.08	0.747
1533.34	0.654
1542.6	0.526
1551.85	0.48
1561.11	0.482
1570.37	0.2841
1579.63	0.169
1588.89	0.021
1598.15	0.3903
1607.41	0.8761
1616.67	0.971
1625.93	1.035
1635.19	1.05
1644.45	1.017
1653.71	0.985
1662.97	0.956
1672.22	1.008
1681.48	1
1690.74	0.968
1700	0.911
1709.26	0.833
1718.52	0.638
1727.78	0.1699
1737.04	0.034
1746.3	0.1131
1755.56	0.209
1764.82	0.096
1774.08	0.01
1783.34	0.1161
1792.6	0.639
1801.85	0.84
1811.11	0.919
1820.37	0.967
1829.63	0.979
1838.89	1.012
1848.15	1.022
1857.41	1.032
1866.67	1.038
1875.93	1.037
1885.19	1.034
1894.45	1.032
1903.71	1.024
1912.97	0.984
1922.23	0.9221
1931.48	1.024
1940.74	1.047
1950	1.053
1959.26	1.051
1968.52	1.048
1977.78	1.054
1987.04	1.051
1996.3	1.025
2005.56	1.058
2014.82	1.058
2024.08	1.0668
2033.34	1.0509
2042.6	1.035
2051.86	1.0447
2061.11	1.0483
2070.37	1.0335
2079.63	1.0364
2088.89	1.0561
2098.15	1.0625
2107.41	1.064
2116.67	1.064
2125.93	1.063
2135.19	1.064
2144.45	1.061
2153.71	1.061
2162.97	1.063
2172.23	1.061
2181.49	1.06
2190.74	1.061
2200	1.061
2209.26	1.0591
2218.52	1.057
2227.78	1.055
2237.04	1.054
2246.3	1.054
2255.56	1.051
2264.82	1.0463
2274.08	1.037
2283.34	1.0067
2292.6	1.0185
2301.86	1.0225
2311.12	1.0387
2320.37	1.0472
2329.63	1.0502
2338.89	1.05
2348.15	1.0403
2357.41	1.0268
2366.67	1.0152
2375.93	1.035
2385.19	1.0309
2394.45	1.022
2403.71	1.008
2412.97	1.0349
2422.23	1.048
2431.49	1.0468
2440.75	1.0471
2450	1.043
2459.26	1.04
2468.52	1.0427
2477.78	1.043
2487.04	1.0432
2496.3	1.04
2505.56	1.035
2514.82	1.044
2524.08	1.043
2533.34	1.038
2542.6	1.034
2551.86	1.0244
2561.12	1.0126
2570.38	1.0057
2579.63	1.0073
2588.89	1.0026
2598.15	1.0205
2607.41	1.0284
2616.67	1.0345
2625.93	1.034
2635.19	1.034
2644.45	1.034
2653.71	1.0289
2662.97	1.027
2672.23	1.025
2681.49	1.022
2690.75	1.0256
2700	1.034
2709.26	1.035
2718.52	1.0348
2727.78	1.0318
2737.04	1.0295
2746.3	1.0217
2755.56	1.0101
2764.82	1.0171
2774.08	1.0109
2783.34	1.01
2792.6	1.017
2801.86	1.027
2811.12	1.028
2820.38	1.0281
2829.63	1.0309
2838.89	1.03
2848.15	1.028
2857.41	1.024
2866.67	1.0248
2875.93	1.027
2885.19	1.028
2894.45	1.027
2903.71	1.0277
2912.97	1.028
2922.23	1.0243
2931.49	1.016
2940.75	1.011
2950.01	1.011
2959.26	1.0088
2968.52	1.005
2977.78	1.004
2987.04	1.0115
2996.3	1.0205
3005.56	1.022
3014.82	1.017
3024.08	1.0116
3033.34	1.0038
3042.6	1.002
3051.86	1.0033
3061.12	0.999
3070.38	0.9858
3079.64	0.9708
3088.89	0.9887
3098.15	0.9813
3107.41	1.0017
3116.67	1.0084
3125.93	1.0136
3135.19	1.01
3144.45	1.0111
3153.71	1.024
3162.97	1.024
3172.23	1.024
3181.49	1.027
3190.75	1.031
3200.01	1.037
3209.27	1.0379
3218.52	1.0369
3227.78	1.035
3237.04	1.038
3246.3	1.038
3255.56	1.04
3264.82	1.043
3274.08	1.0454
3283.34	1.044
3292.6	1.0402
3301.86	1.041
3311.12	1.0386
3320.38	1.0356
3329.64	1.0347
3338.9	1.035
3348.15	1.032
3357.41	1.032
3366.67	1.028
3375.93	1.0376
3385.19	1.044
3394.45	1.045
3403.71	1.044
3412.97	1.0391
3422.23	1.037
3431.49	1.0312
3440.75	1.0246
3450.01	1.0188
3459.27	1.011
3468.53	1.008
3477.78	1.0007
3487.04	0.9917
3496.3	0.977
3505.56	0.9552
3514.82	0.9799
3524.08	1.002
3533.34	1.004
3542.6	1.004
3551.86	1.0019
3561.12	1.004
3570.38	1.0021
3579.64	1.0081
3588.9	1.01
3598.16	1.007
3607.41	1.005
3616.67	1.005
3625.93	1.01
3635.19	1
3644.45	1.0038
3653.71	1.001
3662.97	1
3672.23	1.005
3681.49	1
3690.75	0.9955
3700.01	0.9992
3709.27	1.0018
3718.53	0.9977
3727.79	1.0007
3737.04	1.004
3746.3	1.0088
3755.56	1.005
3764.82	1.0016
3774.08	1.0089
3783.34	1
3792.6	1.001
