Infrared Spectrum: P-ISOPROPYL BENZALDEHYDE
Formula: C10 H12 O
CAS: 122-03-2
State: LIQUID
Boiling point: 98-99 C AT 9 mmHg
Class: COBLENTZ
Instrument: Not specified, most likely a prism, grating, or hybrid spectrometer.
Sampling: TRANSMISSION
Path length: 0.003 CM
Resolution: 4
Origin: WYANDOTTE CHEMICALS CORP., WYANDOTTE, MICHIGAN, USA
MICROMETERS	TRANSMITTANCE
2.067	0.973
2.10697	0.973
2.14695	0.978
2.18692	0.955
2.22689	0.941
2.26687	0.953
2.30684	0.956
2.34681	0.961
2.38679	0.928
2.42676	0.948
2.46673	0.965
2.5067	0.965
2.54668	0.971
2.58665	0.966
2.62662	0.978
2.6666	0.973
2.70657	0.943
2.74654	0.928
2.78652	0.873
2.82649	0.831
2.86646	0.785
2.90644	0.747
2.94641	0.715
2.98638	0.657
3.02636	0.63
3.06633	0.575
3.1063	0.512
3.14627	0.474
3.18625	0.444
3.22622	0.387
3.26619	0.302
3.30617	0.286
3.34614	0.034
3.38611	0.099
3.42609	0.181
3.46606	0.153
3.50603	0.271
3.54601	0.282
3.58598	0.389
3.62595	0.487
3.66593	0.361
3.7059	0.524
3.74587	0.544
3.78584	0.587
3.82582	0.617
3.86579	0.613
3.90576	0.638
3.94574	0.61
3.98571	0.64
4.02568	0.693
4.06566	0.735
4.10563	0.76
4.1456	0.775
4.18558	0.788
4.22555	0.813
4.26552	0.825
4.3055	0.836
4.34547	0.85
4.38544	0.856
4.42542	0.87
4.46539	0.865
4.50536	0.878
4.54533	0.891
4.58531	0.895
4.62528	0.9
4.66525	0.903
4.70523	0.905
4.7452	0.903
4.78517	0.895
4.82515	0.895
4.86512	0.901
4.90509	0.891
4.94507	0.88
4.98504	0.876
5.02501	0.871
5.06499	0.866
5.10496	0.873
5.14493	0.87
5.1849	0.846
5.22488	0.788
5.26485	0.808
5.30482	0.846
5.3448	0.851
5.38477	0.855
5.42474	0.843
5.46472	0.836
5.50469	0.83
5.54466	0.773
5.58464	0.792
5.62461	0.792
5.66458	0.777
5.70456	0.722
5.74453	0.43
5.7845	0.039
5.82447	0.029
5.86445	0.033
5.90442	0.033
5.94439	0.039
5.98437	0.108
6.02434	0.422
6.06431	0.535
6.10429	0.56
6.14426	0.261
6.18423	0.029
6.22421	0.329
6.26418	0.495
6.30415	0.194
6.34413	0.627
6.3841	0.737
6.42407	0.79
6.46404	0.798
6.50402	0.798
6.54399	0.707
6.58396	0.642
6.62394	0.738
6.66391	0.718
6.70388	0.657
6.74386	0.55
6.78383	0.262
6.8238	0.261
6.86378	0.392
6.90375	0.452
6.94372	0.364
6.9837	0.144
7.02367	0.209
7.06364	0.322
7.10362	0.371
7.14359	0.304
7.18356	0.266
7.22353	0.342
7.26351	0.435
7.30348	0.371
7.34345	0.532
7.38343	0.587
7.4234	0.472
7.46337	0.51
7.50335	0.549
7.54332	0.435
7.58329	0.242
7.62327	0.124
7.66324	0.251
7.70321	0.201
7.74319	0.101
7.78316	0.131
7.82313	0.236
7.8631	0.322
7.90308	0.349
7.94305	0.347
7.98302	0.346
8.023	0.336
8.06297	0.329
8.10294	0.322
8.14292	0.269
8.18289	0.114
8.22286	0.033
8.26284	0.131
8.30281	0.356
8.34278	0.472
8.38276	0.505
8.42273	0.331
8.4627	0.202
8.50267	0.118
8.54265	0.063
8.58262	0.276
8.62259	0.527
8.66257	0.577
8.70254	0.552
8.74251	0.557
8.78249	0.618
8.82246	0.612
8.86243	0.557
8.90241	0.555
8.94238	0.475
8.98235	0.415
9.02233	0.407
9.0623	0.415
9.10227	0.452
9.14225	0.56
9.18222	0.645
9.22219	0.682
9.26216	0.702
9.30214	0.702
9.34211	0.668
9.38208	0.549
9.42206	0.326
9.46203	0.199
9.502	0.4
9.54198	0.622
9.58195	0.692
9.62192	0.722
9.6619	0.73
9.70187	0.748
9.74184	0.742
9.78182	0.605
9.82179	0.381
9.86176	0.597
9.90173	0.653
9.94171	0.688
9.98168	0.745
10.0217	0.767
10.0616	0.77
10.1016	0.772
10.1416	0.772
10.1815	0.765
10.2215	0.752
10.2615	0.745
10.3015	0.738
10.3414	0.732
10.3814	0.708
10.4214	0.687
10.4614	0.673
10.5013	0.663
10.5413	0.657
10.5813	0.653
10.6213	0.65
10.6612	0.648
10.7012	0.648
10.7412	0.643
10.7811	0.638
10.8211	0.617
10.8611	0.6
10.9011	0.633
10.941	0.67
10.981	0.678
11.021	0.685
11.061	0.688
11.1009	0.69
11.1409	0.685
11.1809	0.658
11.2208	0.605
11.2608	0.59
11.3008	0.625
11.3408	0.648
11.3807	0.657
11.4207	0.653
11.4607	0.643
11.5007	0.625
11.5406	0.61
11.5806	0.58
11.6206	0.517
11.6606	0.419
11.7005	0.357
11.7405	0.331
11.7805	0.317
11.8204	0.279
11.8604	0.193
11.9004	0.114
11.9404	0.084
11.9803	0.094
12.0203	0.101
12.0603	0.069
12.1003	0.053
12.1402	0.054
12.1802	0.106
12.2202	0.206
12.2601	0.274
12.3001	0.362
12.3401	0.422
12.3801	0.474
12.42	0.499
12.46	0.512
12.5	0.524
12.54	0.529
12.5799	0.54
12.6199	0.554
12.6599	0.559
12.6999	0.557
12.7398	0.559
12.7798	0.562
12.8198	0.565
12.8597	0.557
12.8997	0.53
12.9397	0.537
12.9797	0.555
13.0196	0.579
13.0596	0.59
13.0996	0.597
13.1396	0.599
13.1795	0.602
13.2195	0.6
13.2595	0.628
13.2995	0.648
13.3394	0.663
13.3794	0.667
13.4194	0.673
13.4593	0.672
13.4993	0.662
13.5393	0.635
13.5793	0.579
13.6192	0.47
13.6592	0.376
13.6992	0.297
13.7392	0.292
13.7791	0.317
13.8191	0.334
13.8591	0.332
13.899	0.362
13.939	0.419
13.979	0.475
14.019	0.515
14.0589	0.534
14.0989	0.542
14.1389	0.534
14.1789	0.517
14.2188	0.535
14.2588	0.569
14.2988	0.618
14.3388	0.657
14.3787	0.682
14.4187	0.705
14.4587	0.73
14.4986	0.755
14.5386	0.772
14.5786	0.782
14.6186	0.792
14.6585	0.793
14.6985	0.805
14.7385	0.805
14.7785	0.805
14.8184	0.803
14.8584	0.801
14.8984	0.801
14.9383	0.8
14.9783	0.8
15.0183	0.782
15.0583	0.773
15.0982	0.772
15.1382	0.787
15.1782	0.787
15.2182	0.778
15.2581	0.773
15.2981	0.767
15.3381	0.76
15.3781	0.75
15.418	0.747
15.458	0.742
15.498	0.737
15.5379	0.735
15.5779	0.728
15.6179	0.723
15.6579	0.713
15.6978	0.707
15.7378	0.702
15.7778	0.702
15.8178	0.702
15.8577	0.707
15.8977	0.715
15.9377	0.717
15.9777	0.707
