Infrared Spectrum: P-BUTOXYPHENOL
Formula: C10 H14 O2
CAS: 122-94-1
State: SOLUTION (7% CHCl3)
Class: COBLENTZ
Instrument: Not specified, most likely a grating spectrometer.
Sampling: TRANSMISSION
Path length: 0.01 CM CELL
Resolution: 4
Origin: ABBOTT LABORATORIES
MICROMETERS	TRANSMITTANCE
1.981	0.984
2.01298	0.982
2.04496	0.982
2.07694	0.981
2.10892	0.964
2.14091	0.965
2.17289	0.962
2.20487	0.968
2.23685	0.968
2.26883	0.964
2.30081	0.953
2.33279	0.965
2.36477	0.96
2.39676	0.956
2.42874	0.946
2.46072	0.945
2.4927	0.948
2.52468	0.948
2.55666	0.951
2.58864	0.954
2.62062	0.951
2.65261	0.957
2.68459	0.956
2.71657	0.848
2.74855	0.643
2.78053	0.74
2.81251	0.766
2.84449	0.712
2.87647	0.66
2.90846	0.6
2.94044	0.585
2.97242	0.586
3.0044	0.613
3.03638	0.652
3.06836	0.705
3.10034	0.765
3.13232	0.788
3.16431	0.799
3.19629	0.801
3.22827	0.788
3.26025	0.769
3.29223	0.68
3.32421	0.419
3.35619	0.374
3.38817	0.478
3.42016	0.516
3.45214	0.532
3.48412	0.715
3.5161	0.813
3.54808	0.857
3.58006	0.868
3.61204	0.873
3.64402	0.879
3.67601	0.882
3.70799	0.892
3.73997	0.898
3.77195	0.901
3.80393	0.902
3.83591	0.902
3.86789	0.899
3.89987	0.899
3.93186	0.898
3.96384	0.898
3.99582	0.892
4.0278	0.887
4.05978	0.885
4.09176	0.887
4.12374	0.893
4.15572	0.896
4.18771	0.898
4.21969	0.898
4.25167	0.898
4.28365	0.909
4.31563	0.915
4.34761	0.92
4.37959	0.917
4.41157	0.92
4.44355	0.92
4.47554	0.923
4.50752	0.917
4.5395	0.913
4.57148	0.915
4.60346	0.921
4.63544	0.915
4.66742	0.917
4.6994	0.917
4.73139	0.913
4.76337	0.909
4.79535	0.896
4.82733	0.899
4.85931	0.896
4.89129	0.893
4.92327	0.895
4.95525	0.896
4.98724	0.896
5.01922	0.896
5.0512	0.907
5.08318	0.906
5.11516	0.902
5.14714	0.904
5.17912	0.907
5.2111	0.906
5.24309	0.902
5.27507	0.899
5.30705	0.893
5.33903	0.873
5.37101	0.866
5.40299	0.882
5.43497	0.895
5.46695	0.898
5.49894	0.901
5.53092	0.906
5.5629	0.907
5.59488	0.902
5.62686	0.909
5.65884	0.901
5.69082	0.896
5.7228	0.89
5.75479	0.896
5.78677	0.898
5.81875	0.896
5.85073	0.895
5.88271	0.888
5.91469	0.885
5.94667	0.885
5.97865	0.882
6.01064	0.877
6.04262	0.874
6.0746	0.868
6.10658	0.851
6.13856	0.823
6.17054	0.827
6.20252	0.791
6.2345	0.812
6.26649	0.851
6.29847	0.859
6.33045	0.865
6.36243	0.868
6.39441	0.865
6.42639	0.841
6.45837	0.809
6.49035	0.744
6.52234	0.655
6.55432	0.45
6.5863	0.247
6.61828	0.101
6.65026	0.22
6.68224	0.496
6.71422	0.666
6.7462	0.532
6.77818	0.435
6.81017	0.45
6.84215	0.483
6.87413	0.497
6.90611	0.488
6.93809	0.472
6.97007	0.485
7.00205	0.511
7.03403	0.748
7.06602	0.788
7.098	0.776
7.12998	0.715
7.16196	0.651
7.19394	0.619
7.22592	0.641
7.2579	0.647
7.28988	0.691
7.32187	0.691
7.35385	0.669
7.38583	0.658
7.41781	0.654
7.44979	0.616
7.48177	0.604
7.51375	0.608
7.54573	0.657
7.57772	0.696
7.6097	0.701
7.64168	0.685
7.67366	0.661
7.70564	0.608
7.73762	0.597
7.7696	0.691
7.80158	0.726
7.83357	0.694
7.86555	0.644
7.89753	0.586
7.92951	0.53
7.96149	0.466
7.99347	0.397
8.02545	0.259
8.05743	0.184
8.08942	0.129
8.1214	0.101
8.15338	0.112
8.18536	0.153
8.21734	0.172
8.24932	0.194
8.2813	0.215
8.31328	0.237
8.34527	0.25
8.37725	0.264
8.40923	0.287
8.44121	0.289
8.47319	0.244
8.50517	0.214
8.53715	0.214
8.56913	0.269
8.60112	0.405
8.6331	0.489
8.66508	0.557
8.69706	0.594
8.72904	0.607
8.76102	0.646
8.793	0.672
8.82498	0.677
8.85697	0.638
8.88895	0.613
8.92093	0.618
8.95291	0.636
8.98489	0.654
9.01687	0.647
9.04885	0.571
9.08083	0.483
9.11282	0.561
9.1448	0.661
9.17678	0.701
9.20876	0.712
9.24074	0.699
9.27272	0.635
9.3047	0.588
9.33668	0.53
9.36866	0.53
9.40065	0.599
9.43263	0.661
9.46461	0.716
9.49659	0.732
9.52857	0.704
9.56055	0.615
9.59253	0.539
9.62451	0.513
9.6565	0.508
9.68848	0.5
9.72046	0.489
9.75244	0.536
9.78442	0.586
9.8164	0.613
9.84838	0.602
9.88036	0.55
9.91235	0.532
9.94433	0.588
9.97631	0.654
10.0083	0.713
10.0403	0.733
10.0723	0.73
10.1042	0.721
10.1362	0.715
10.1682	0.704
10.2002	0.682
10.2322	0.638
10.2641	0.586
10.2961	0.602
10.3281	0.64
10.3601	0.688
10.3921	0.737
10.424	0.748
10.456	0.762
10.488	0.782
10.52	0.798
10.552	0.809
10.584	0.821
10.6159	0.83
10.6479	0.837
10.6799	0.843
10.7119	0.846
10.7439	0.851
10.7758	0.852
10.8078	0.854
10.8398	0.852
10.8718	0.849
10.9038	0.84
10.9357	0.834
10.9677	0.821
10.9997	0.812
11.0317	0.81
11.0637	0.82
11.0957	0.829
11.1276	0.826
11.1596	0.824
11.1916	0.823
11.2236	0.821
11.2556	0.816
11.2875	0.809
11.3195	0.798
11.3515	0.782
11.3835	0.76
11.4155	0.737
11.4474	0.741
11.4794	0.765
11.5114	0.79
11.5434	0.798
11.5754	0.801
11.6074	0.801
11.6393	0.799
11.6713	0.793
11.7033	0.774
11.7353	0.752
11.7673	0.727
11.7992	0.708
11.8312	0.685
11.8632	0.657
11.8952	0.627
11.9272	0.586
11.9591	0.524
11.9911	0.42
12.0231	0.325
12.0551	0.258
12.0871	0.22
12.1191	0.203
12.151	0.225
12.183	0.259
12.215	0.317
12.247	0.366
12.279	0.386
12.3109	0.41
12.3429	0.425
12.3749	0.436
12.4069	0.449
12.4389	0.452
12.4708	0.458
12.5028	0.461
12.5348	0.467
12.5668	0.464
12.5988	0.461
12.6308	0.46
12.6627	0.46
12.6947	0.46
12.7267	0.46
12.7587	0.463
12.7907	0.464
12.8226	0.48
12.8546	0.478
12.8866	0.478
12.9186	0.483
12.9506	0.492
12.9825	0.5
13.0145	0.517
13.0465	0.522
13.0785	0.524
13.1105	0.53
13.1425	0.536
13.1744	0.536
13.2064	0.541
13.2384	0.549
13.2704	0.557
13.3024	0.564
13.3343	0.56
13.3663	0.569
13.3983	0.568
13.4303	0.571
13.4623	0.575
13.4942	0.572
13.5262	0.569
13.5582	0.564
13.5902	0.568
13.6222	0.563
13.6542	0.569
13.6861	0.577
13.7181	0.58
13.7501	0.585
13.7821	0.585
13.8141	0.572
13.846	0.577
13.878	0.572
13.91	0.588
