Infrared Spectrum: Decanedioic acid, di-(2-ethylhexyl) ester
Formula: C26 H50 O4
CAS: 122-62-3
State: SOLUTION (10% CCl4 FOR 2.7-7.5, 10% CS2 FOR 7.5-26 MICRON) VS SOLVENT
Class: COBLENTZ III
Instrument: DOW KBr FOREPRISM-GRATING
Instrument parameters: BLAZED AT 3.5, 12.0, 20.0 MICRON AND CHANGED AT 5.0, 7.5, 14.9 MICRON
Sampling: TRANSMISSION
Path length: 0.011 CM, 0.011 CM
Resolution: 2
Origin: DOW CHEMICAL COMPANY
1/CM	TRANSMITTANCE
3768	0.8601
3759	0.8611
3750	0.8621
3741	0.8628
3732	0.8636
3723	0.864
3714	0.8644
3705	0.8648
3696	0.865
3687	0.8647
3678	0.8645
3669	0.8639
3660	0.863
3651	0.8617
3642	0.8594
3633	0.857
3624	0.856
3615	0.8586
3606	0.8615
3597	0.8645
3588	0.8674
3579	0.8678
3570	0.8682
3561	0.8681
3552	0.8678
3543	0.8674
3534	0.8673
3525	0.8671
3516	0.8686
3507	0.8718
3498	0.8761
3489	0.8784
3480	0.8797
3471	0.8803
3462	0.8789
3453	0.8731
3444	0.8661
3435	0.8625
3426	0.8674
3417	0.8738
3408	0.8786
3399	0.8828
3390	0.8848
3381	0.8862
3372	0.8877
3363	0.8881
3354	0.8883
3345	0.8884
3336	0.8883
3327	0.8878
3318	0.8873
3309	0.8868
3300	0.8863
3291	0.8857
3282	0.885
3273	0.8842
3264	0.8833
3255	0.8818
3246	0.8805
3237	0.8787
3228	0.8762
3219	0.8738
3210	0.8718
3201	0.8697
3192	0.8677
3183	0.8656
3174	0.8644
3165	0.8634
3156	0.8624
3147	0.8611
3138	0.8593
3129	0.8575
3120	0.8558
3111	0.8532
3102	0.8505
3093	0.8478
3084	0.8451
3075	0.8424
3066	0.8389
3057	0.8352
3048	0.8302
3039	0.8225
3030	0.8108
3021	0.7964
3012	0.7739
3003	0.7037
2994	0.5388
2985	0.4053
2976	0.3005
2967	0.1075
2958	0.0355
2949	0.0429
2940	0.0451
2931	0.0222
2922	0.0216
2913	0.0432
2904	0.0981
2895	0.1882
2886	0.2783
2877	0.2262
2868	0.1571
2859	0.0985
2850	0.1859
2841	0.5123
2832	0.5891
2823	0.6518
2814	0.7021
2805	0.7367
2796	0.7628
2787	0.7821
2778	0.7964
2769	0.8074
2760	0.8165
2751	0.8201
2742	0.8209
2733	0.8171
2724	0.813
2715	0.8133
2706	0.82
2697	0.8228
2688	0.8236
2679	0.8243
2670	0.8257
2661	0.8275
2652	0.8308
2643	0.8341
2634	0.8368
2625	0.8393
2616	0.8409
2607	0.842
2598	0.8438
2589	0.8459
2580	0.8485
2571	0.8511
2562	0.854
2553	0.8568
2544	0.8597
2535	0.8618
2526	0.864
2517	0.8662
2508	0.868
2499	0.8697
2490	0.8713
2481	0.8728
2472	0.8745
2463	0.8761
2454	0.8771
2445	0.8777
2436	0.8784
2427	0.8778
2418	0.8771
2409	0.8762
2400	0.8746
2391	0.8734
2382	0.8734
2373	0.8746
2364	0.8757
2355	0.8759
2346	0.8763
2337	0.8763
2328	0.876
2319	0.8754
2310	0.8751
2301	0.8751
2292	0.8751
2283	0.8751
2274	0.8756
2265	0.8764
2256	0.8771
2247	0.8784
2238	0.88
2229	0.8814
2220	0.8828
2211	0.8839
2202	0.8848
2193	0.8855
2184	0.8865
2175	0.8908
2166	0.8875
2157	0.8847
2148	0.8851
2139	0.8854
2130	0.8857
2121	0.8858
2112	0.8853
2103	0.8847
2094	0.8842
2085	0.8835
2076	0.8828
2067	0.8821
2058	0.8818
2049	0.8812
2040	0.8806
2031	0.8799
2022	0.8797
2013	0.8799
2004	0.8803
1995	0.8817
1986	0.8833
1977	0.8847
1968	0.8853
1959	0.8859
1950	0.8865
1941	0.8877
1932	0.8889
1923	0.8889
1914	0.8888
1905	0.8887
1896	0.8878
1887	0.8868
1878	0.8858
1869	0.8845
1860	0.8831
1851	0.8809
1842	0.8788
1833	0.8757
1824	0.872
1815	0.8637
1806	0.8542
1797	0.8451
1788	0.8332
1779	0.8158
1770	0.7831
1761	0.7315
1752	0.59
1743	0.2501
1734	0.0153
1725	0.0113
1716	0.1551
1707	0.3894
1698	0.5302
1689	0.6607
1680	0.723
1671	0.7749
1662	0.8107
1653	0.8298
1644	0.8411
1635	0.8497
1626	0.8582
1617	0.8645
1608	0.8686
1599	0.8713
1590	0.8723
1581	0.8734
1572	0.8739
1563	0.8739
1554	0.8746
1545	0.874
1536	0.871
1527	0.8663
1518	0.8594
1509	0.8515
1500	0.8398
1491	0.8217
1482	0.7541
1473	0.4806
1464	0.2214
1455	0.2819
1446	0.5083
1437	0.5993
1428	0.6418
1419	0.5574
1410	0.6821
1401	0.7007
1392	0.5259
1383	0.4224
1374	0.5202
1365	0.5293
1356	0.4825
1347	0.485
1338	0.5226
1329	0.555
1320	0.5733
1311	0.5318
1302	0.5067
1293	0.4919
1284	0.4736
1275	0.4408
1266	0.3807
1257	0.3368
1248	0.3122
1239	0.2953
1230	0.293
1221	0.3154
1212	0.325
1203	0.3138
1194	0.2847
1185	0.2147
1176	0.1416
1167	0.1076
1158	0.1563
1149	0.2651
1140	0.3739
1131	0.4202
1122	0.4206
1113	0.504
1104	0.5662
1095	0.5119
1086	0.509
1077	0.5812
1068	0.6621
1059	0.7074
1050	0.7157
1041	0.7035
1032	0.6478
1023	0.582
1014	0.5994
1005	0.5995
996	0.6248
987	0.6667
978	0.691
969	0.7136
960	0.7035
951	0.7024
942	0.7435
933	0.7612
924	0.771
915	0.7848
906	0.7839
897	0.7928
888	0.8148
879	0.8467
870	0.8462
861	0.8502
852	0.8689
843	0.8899
834	0.8852
825	0.8718
816	0.8731
807	0.8751
798	0.8754
789	0.8583
780	0.8205
771	0.7853
762	0.795
753	0.8592
744	0.8575
735	0.8387
726	0.7401
717	0.7712
708	0.856
699	0.8832
690	0.8955
681	0.905
672	0.91
663	0.91
654	0.9028
645	0.8853
636	0.8831
627	0.8794
618	0.8739
609	0.865
600	0.86
591	0.8575
582	0.856
573	0.8552
564	0.8571
555	0.8596
546	0.8618
537	0.8628
528	0.8585
519	0.8563
510	0.8557
501	0.8537
492	0.8452
483	0.8417
474	0.8413
465	0.8412
456	0.8412
447	0.8407
438	0.8408
429	0.8412
420	0.8428
411	0.8431
402	0.8437
393	0.8451
