Infrared Spectrum: PHOSPHOROUS ACID, TRIETHYL ESTER
Formula: C6 H15 O3 P
CAS: 122-52-1
Class: COBLENTZ
Instrument: Not specified, most likely a prism, grating, or hybrid spectrometer.
Sampling: TRANSMISSION
Path length: SMEAR
Resolution: 4
Origin: TENNESSEE EASTMAN COMPANY, RESEARCH LABORATORIES
MICROMETERS	TRANSMITTANCE
2.069	0.971
2.10891	0.971
2.14882	0.969
2.18873	0.968
2.22864	0.968
2.26855	0.949
2.30846	0.944
2.34837	0.948
2.38828	0.951
2.42819	0.953
2.4681	0.951
2.50801	0.951
2.54792	0.953
2.58783	0.953
2.62774	0.954
2.66765	0.956
2.70756	0.956
2.74747	0.954
2.78738	0.953
2.82729	0.951
2.8672	0.939
2.90711	0.931
2.94702	0.934
2.98693	0.946
3.02684	0.953
3.06675	0.954
3.10666	0.954
3.14657	0.953
3.18648	0.953
3.22639	0.954
3.2663	0.944
3.30621	0.886
3.34612	0.491
3.38603	0.439
3.42594	0.434
3.46585	0.453
3.50576	0.78
3.54567	0.867
3.58558	0.914
3.62549	0.928
3.6654	0.926
3.70531	0.923
3.74522	0.956
3.78513	0.964
3.82504	0.964
3.86495	0.964
3.90486	0.968
3.94477	0.971
3.98468	0.973
4.02459	0.973
4.0645	0.971
4.10441	0.959
4.14432	0.943
4.18423	0.941
4.22414	0.954
4.26405	0.968
4.30396	0.968
4.34387	0.966
4.38378	0.964
4.42369	0.969
4.4636	0.966
4.50351	0.973
4.54342	0.973
4.58333	0.971
4.62324	0.971
4.66315	0.971
4.70306	0.969
4.74297	0.966
4.78288	0.964
4.82279	0.966
4.8627	0.964
4.90261	0.964
4.94252	0.966
4.98243	0.968
5.02234	0.966
5.06225	0.954
5.10216	0.949
5.14207	0.944
5.18198	0.951
5.22189	0.953
5.2618	0.956
5.30171	0.954
5.34162	0.954
5.38153	0.946
5.42144	0.948
5.46135	0.938
5.50126	0.929
5.54117	0.929
5.58108	0.921
5.62099	0.903
5.6609	0.889
5.70081	0.904
5.74072	0.904
5.78063	0.904
5.82054	0.916
5.86045	0.908
5.90036	0.896
5.94027	0.896
5.98018	0.894
6.02009	0.892
6.06	0.896
6.09991	0.897
6.13982	0.906
6.17973	0.918
6.21964	0.931
6.25955	0.939
6.29946	0.943
6.33937	0.941
6.37928	0.936
6.41919	0.926
6.4591	0.926
6.49901	0.913
6.53892	0.911
6.57883	0.899
6.61874	0.871
6.65865	0.851
6.69856	0.78
6.73847	0.668
6.77838	0.754
6.81829	0.755
6.8582	0.667
6.89811	0.578
6.93802	0.725
6.97793	0.792
7.01784	0.816
7.05775	0.816
7.09766	0.749
7.13757	0.583
7.17748	0.341
7.21739	0.479
7.2573	0.693
7.29721	0.74
7.33712	0.772
7.37703	0.841
7.41694	0.869
7.45685	0.877
7.49676	0.882
7.53667	0.887
7.57658	0.881
7.61649	0.856
7.6564	0.817
7.69631	0.737
7.73622	0.702
7.77613	0.7
7.81604	0.688
7.85595	0.675
7.89586	0.645
7.93577	0.643
7.97568	0.725
8.01559	0.78
8.0555	0.821
8.09541	0.851
8.13532	0.867
8.17523	0.876
8.21514	0.879
8.25505	0.877
8.29496	0.834
8.33487	0.832
8.37478	0.819
8.41469	0.785
8.4546	0.739
8.49451	0.66
8.53442	0.516
8.57433	0.469
8.61424	0.518
8.65415	0.602
8.69406	0.65
8.73397	0.673
8.77388	0.678
8.81379	0.682
8.8537	0.675
8.89361	0.662
8.93352	0.618
8.97343	0.528
9.01334	0.456
9.05325	0.347
9.09316	0.312
9.13307	0.364
9.17298	0.394
9.21289	0.382
9.2528	0.344
9.29271	0.306
9.33262	0.259
9.37253	0.219
9.41244	0.202
9.45235	0.168
9.49226	0.132
9.53217	0.093
9.57208	0.073
9.61199	0.07
9.6519	0.065
9.69181	0.061
9.73172	0.061
9.77163	0.083
9.81154	0.177
9.85145	0.269
9.89136	0.372
9.93127	0.443
9.97118	0.478
10.0111	0.498
10.051	0.496
10.0909	0.474
10.1308	0.453
10.1707	0.443
10.2106	0.443
10.2506	0.443
10.2905	0.453
10.3304	0.464
10.3703	0.464
10.4102	0.434
10.4501	0.376
10.49	0.314
10.5299	0.247
10.5698	0.207
10.6097	0.2
10.6497	0.195
10.6896	0.172
10.7295	0.145
10.7694	0.115
10.8093	0.098
10.8492	0.091
10.8891	0.09
10.929	0.09
10.9689	0.103
11.0088	0.127
11.0488	0.162
11.0887	0.25
11.1286	0.364
11.1685	0.454
11.2084	0.573
11.2483	0.63
11.2882	0.692
11.3281	0.727
11.368	0.76
11.4079	0.784
11.4479	0.801
11.4878	0.812
11.5277	0.827
11.5676	0.834
11.6075	0.839
11.6474	0.841
11.6873	0.844
11.7272	0.844
11.7671	0.847
11.807	0.847
11.847	0.847
11.8869	0.847
11.9268	0.844
11.9667	0.837
12.0066	0.826
12.0465	0.817
12.0864	0.799
12.1263	0.774
12.1662	0.742
12.2061	0.705
12.2461	0.677
12.286	0.66
12.3259	0.657
12.3658	0.658
12.4057	0.667
12.4456	0.668
12.4855	0.663
12.5254	0.647
12.5653	0.617
12.6052	0.585
12.6452	0.535
12.6851	0.496
12.725	0.448
12.7649	0.403
12.8048	0.361
12.8447	0.334
12.8846	0.317
12.9245	0.299
12.9644	0.295
13.0043	0.289
13.0443	0.285
13.0842	0.275
13.1241	0.26
13.164	0.252
13.2039	0.227
13.2438	0.212
13.2837	0.2
13.3236	0.19
13.3635	0.183
13.4034	0.175
13.4434	0.172
13.4833	0.17
13.5232	0.17
13.5631	0.172
13.603	0.172
13.6429	0.173
13.6828	0.182
13.7227	0.198
13.7626	0.219
13.8025	0.24
13.8425	0.275
13.8824	0.306
13.9223	0.352
13.9622	0.392
14.0021	0.438
14.042	0.471
14.0819	0.511
14.1218	0.538
14.1617	0.576
14.2016	0.608
14.2416	0.627
14.2815	0.655
14.3214	0.678
14.3613	0.695
14.4012	0.709
14.4411	0.72
14.481	0.734
14.5209	0.742
14.5608	0.752
14.6007	0.755
14.6407	0.76
14.6806	0.762
14.7205	0.764
14.7604	0.769
14.8003	0.775
14.8402	0.78
14.8801	0.787
14.92	0.789
14.9599	0.79
14.9998	0.795
15.0398	0.799
15.0797	0.801
15.1196	0.804
15.1595	0.804
15.1994	0.804
15.2393	0.802
15.2792	0.802
15.3191	0.802
15.359	0.801
15.3989	0.797
15.4389	0.794
15.4788	0.792
15.5187	0.79
15.5586	0.789
15.5985	0.784
15.6384	0.779
15.6783	0.774
15.7182	0.765
15.7581	0.762
15.798	0.755
15.838	0.75
15.8779	0.744
15.9178	0.742
15.9577	0.742
15.9976	0.742
