Infrared Spectrum: 3-PHENYL-1-PROPANOL
Formula: C9 H12 O
CAS: 122-97-4
State: LIQUID
Boiling point: 120-121 C AT 12 mmHg
Class: COBLENTZ
Instrument: Not specified, most likely a prism, grating, or hybrid spectrometer.
Sampling: TRANSMISSION
Path length: 0.003 CM
Resolution: 4
Origin: WYANDOTTE CHEMICALS CORP., WYANDOTTE, MICHIGAN, USA
MICROMETERS	TRANSMITTANCE
2.041	0.955
2.08186	0.94
2.12271	0.943
2.16357	0.947
2.20442	0.938
2.24528	0.928
2.28613	0.925
2.32699	0.925
2.36784	0.911
2.4087	0.879
2.44956	0.891
2.49041	0.901
2.53127	0.906
2.57212	0.913
2.61298	0.909
2.65383	0.901
2.69469	0.872
2.73554	0.773
2.7764	0.552
2.81726	0.457
2.85811	0.319
2.89897	0.185
2.93982	0.102
2.98068	0.062
3.02153	0.044
3.06239	0.051
3.10325	0.098
3.1441	0.18
3.18496	0.301
3.22581	0.384
3.26667	0.311
3.30752	0.261
3.34838	0.413
3.38923	0.059
3.43009	0.095
3.47095	0.13
3.5118	0.149
3.55266	0.443
3.59351	0.564
3.63437	0.629
3.67522	0.659
3.71608	0.702
3.75693	0.734
3.79779	0.743
3.83865	0.756
3.8795	0.765
3.92036	0.782
3.96121	0.802
4.00207	0.811
4.04292	0.811
4.08378	0.814
4.12463	0.819
4.16549	0.823
4.20635	0.829
4.2472	0.831
4.28806	0.848
4.32891	0.855
4.36977	0.863
4.41062	0.857
4.45148	0.853
4.49233	0.858
4.53319	0.858
4.57405	0.857
4.6149	0.862
4.65576	0.858
4.69661	0.86
4.73747	0.86
4.77832	0.867
4.81918	0.857
4.86004	0.857
4.90089	0.848
4.94175	0.846
4.9826	0.848
5.02346	0.85
5.06431	0.845
5.10517	0.831
5.14602	0.795
5.18688	0.744
5.22774	0.797
5.26859	0.833
5.30945	0.811
5.3503	0.77
5.39116	0.777
5.43201	0.816
5.47287	0.819
5.51372	0.806
5.55458	0.758
5.59544	0.778
5.63629	0.818
5.67715	0.807
5.718	0.777
5.75886	0.782
5.79971	0.784
5.84057	0.782
5.88142	0.784
5.92228	0.782
5.96314	0.756
6.00399	0.739
6.04485	0.731
6.0857	0.732
6.12656	0.727
6.16741	0.622
6.20827	0.38
6.24913	0.636
6.28998	0.666
6.33084	0.736
6.37169	0.739
6.41255	0.724
6.4534	0.719
6.49426	0.719
6.53511	0.712
6.57597	0.666
6.61683	0.474
6.65768	0.151
6.69854	0.38
6.73939	0.367
6.78025	0.352
6.8211	0.295
6.86196	0.1
6.90281	0.243
6.94367	0.278
6.98453	0.299
7.02538	0.348
7.06624	0.358
7.10709	0.386
7.14795	0.401
7.1888	0.392
7.22966	0.374
7.27051	0.38
7.31137	0.411
7.35223	0.403
7.39308	0.38
7.43394	0.404
7.47479	0.404
7.51565	0.409
7.5565	0.442
7.59736	0.462
7.63821	0.484
7.67907	0.488
7.71993	0.481
7.76078	0.506
7.80164	0.523
7.84249	0.528
7.88335	0.542
7.9242	0.569
7.96506	0.579
8.00592	0.578
8.04677	0.562
8.08763	0.557
8.12848	0.544
8.16934	0.549
8.21019	0.562
8.25105	0.566
8.2919	0.566
8.33276	0.574
8.37362	0.569
8.41447	0.556
8.45533	0.518
8.49618	0.5
8.53704	0.496
8.57789	0.46
8.61875	0.469
8.6596	0.452
8.70046	0.505
8.74132	0.571
8.78217	0.598
8.82303	0.622
8.86388	0.644
8.90474	0.653
8.94559	0.642
8.98645	0.62
9.0273	0.607
9.06816	0.596
9.10902	0.54
9.14987	0.416
9.19073	0.324
9.23158	0.253
9.27244	0.168
9.31329	0.096
9.35415	0.068
9.395	0.049
9.43586	0.045
9.47672	0.051
9.51757	0.059
9.55843	0.061
9.59928	0.059
9.64014	0.047
9.68099	0.045
9.72185	0.056
9.76271	0.098
9.80356	0.171
9.84442	0.2
9.88527	0.212
9.92613	0.29
9.96698	0.358
10.0078	0.391
10.0487	0.486
10.0895	0.535
10.1304	0.554
10.1713	0.569
10.2121	0.595
10.253	0.613
10.2938	0.639
10.3347	0.646
10.3755	0.651
10.4164	0.661
10.4573	0.671
10.4981	0.675
10.539	0.671
10.5798	0.654
10.6207	0.615
10.6615	0.559
10.7024	0.508
10.7432	0.464
10.7841	0.425
10.825	0.386
10.8658	0.336
10.9067	0.307
10.9475	0.312
10.9884	0.35
11.0292	0.394
11.0701	0.455
11.1109	0.523
11.1518	0.562
11.1927	0.593
11.2335	0.612
11.2744	0.619
11.3152	0.619
11.3561	0.617
11.3969	0.607
11.4378	0.605
11.4786	0.612
11.5195	0.617
11.5604	0.627
11.6012	0.627
11.6421	0.619
11.6829	0.612
11.7238	0.596
11.7646	0.59
11.8055	0.586
11.8463	0.586
11.8872	0.586
11.9281	0.593
11.9689	0.607
12.0098	0.613
12.0506	0.613
12.0915	0.608
12.1323	0.598
12.1732	0.579
12.214	0.552
12.2549	0.518
12.2958	0.5
12.3366	0.496
12.3775	0.496
12.4183	0.494
12.4592	0.494
12.5	0.51
12.5409	0.528
12.5817	0.539
12.6226	0.547
12.6635	0.539
12.7043	0.534
12.7452	0.528
12.786	0.523
12.8269	0.515
12.8677	0.5
12.9086	0.488
12.9494	0.471
12.9903	0.442
13.0312	0.399
13.072	0.353
13.1129	0.306
13.1537	0.255
13.1946	0.2
13.2354	0.153
13.2763	0.115
13.3171	0.093
13.358	0.076
13.3989	0.073
13.4397	0.066
13.4806	0.068
13.5214	0.081
13.5623	0.102
13.6031	0.12
13.644	0.142
13.6848	0.166
13.7257	0.188
13.7666	0.198
13.8074	0.209
13.8483	0.221
13.8891	0.227
13.93	0.238
13.9708	0.246
14.0117	0.255
14.0525	0.263
14.0934	0.26
14.1343	0.229
14.1751	0.19
14.216	0.141
14.2568	0.11
14.2977	0.091
14.3385	0.088
14.3794	0.093
14.4202	0.1
14.4611	0.13
14.502	0.18
14.5428	0.231
14.5837	0.28
14.6245	0.318
14.6654	0.34
14.7062	0.352
14.7471	0.37
14.7879	0.379
14.8288	0.392
14.8697	0.403
14.9105	0.409
14.9514	0.418
14.9922	0.431
15.0331	0.448
15.0739	0.464
15.1148	0.464
15.1556	0.457
15.1965	0.455
15.2374	0.46
15.2782	0.467
15.3191	0.474
15.3599	0.474
15.4008	0.482
15.4416	0.488
15.4825	0.493
15.5233	0.501
15.5642	0.503
15.6051	0.51
15.6459	0.51
15.6868	0.511
15.7276	0.518
15.7685	0.527
15.8093	0.528
15.8502	0.53
15.891	0.535
15.9319	0.535
15.9728	0.54
