Infrared Spectrum: p-Methylacetophenone
Formula: C9 H10 O
CAS: 122-00-9
State: SOLUTION (2% CCl4 FOR 3800-1330, 2% CS2 FOR 1330-400 CM^-^1))
Class: COBLENTZ III
Instrument: BECKMAN IR-9 (GRATING)
Instrument parameters: ORDER CHANGES: 670, 1200, 2000 CM^-^1
Sampling: TRANSMISSION
Path length: 0.010 CM, 0.010 CM
Resolution: 2
Origin: DOW CHEMICAL COMPANY
1/CM	TRANSMITTANCE
3800	0.9621
3791	0.9631
3782	0.9619
3773	0.9628
3764	0.9632
3755	0.9644
3746	0.9656
3737	0.9662
3728	0.9642
3719	0.9606
3710	0.96
3701	0.9605
3692	0.9591
3683	0.958
3674	0.9579
3665	0.9579
3656	0.9578
3647	0.9579
3638	0.9582
3629	0.9582
3620	0.9592
3611	0.9586
3602	0.9573
3593	0.9573
3584	0.9564
3575	0.9547
3566	0.9533
3557	0.9525
3548	0.9528
3539	0.9516
3530	0.9516
3521	0.9503
3512	0.9501
3503	0.9499
3494	0.9496
3485	0.9493
3476	0.9491
3467	0.9488
3458	0.9482
3449	0.9474
3440	0.9468
3431	0.9464
3422	0.9459
3413	0.9443
3404	0.9428
3395	0.9413
3386	0.9398
3377	0.9371
3368	0.9319
3359	0.9267
3350	0.9298
3341	0.9356
3332	0.9397
3323	0.9429
3314	0.9448
3305	0.9469
3296	0.9471
3287	0.948
3278	0.9496
3269	0.9508
3260	0.9514
3251	0.9519
3242	0.9527
3233	0.9535
3224	0.9542
3215	0.9544
3206	0.9534
3197	0.9545
3188	0.9548
3179	0.9537
3170	0.953
3161	0.9531
3152	0.953
3143	0.9504
3134	0.9504
3125	0.9484
3116	0.9484
3107	0.9483
3098	0.9443
3089	0.9292
3080	0.9289
3071	0.9309
3062	0.9121
3053	0.9086
3044	0.9
3035	0.8802
3026	0.8871
3017	0.9033
3008	0.8821
2999	0.8939
2990	0.9075
2981	0.9089
2972	0.9024
2963	0.9082
2954	0.9137
2945	0.9161
2936	0.907
2927	0.8827
2918	0.8851
2909	0.9176
2900	0.9334
2891	0.9357
2882	0.935
2873	0.9335
2864	0.9371
2855	0.9444
2846	0.9512
2837	0.9563
2828	0.9585
2819	0.9599
2810	0.9599
2801	0.961
2792	0.961
2783	0.9607
2774	0.9614
2765	0.9614
2756	0.9617
2747	0.9617
2738	0.9617
2729	0.9617
2720	0.9617
2711	0.9617
2702	0.9617
2693	0.9611
2684	0.9605
2675	0.9598
2666	0.9593
2657	0.9601
2648	0.9594
2639	0.9587
2630	0.9586
2621	0.9595
2612	0.9599
2603	0.9603
2594	0.9608
2585	0.9612
2576	0.9615
2567	0.9615
2558	0.9615
2549	0.9615
2540	0.9614
2531	0.9613
2522	0.9618
2513	0.9622
2504	0.9626
2495	0.963
2486	0.9635
2477	0.965
2468	0.9655
2459	0.9659
2450	0.9656
2441	0.9669
2432	0.9675
2423	0.9681
2414	0.9677
2405	0.9681
2396	0.9678
2387	0.9691
2378	0.973
2369	0.9753
2360	0.9737
2351	0.9728
2342	0.9691
2333	0.9646
2324	0.964
2315	0.9607
2306	0.9577
2297	0.9593
2288	0.9596
2279	0.9598
2270	0.9595
2261	0.961
2252	0.963
2243	0.9651
2234	0.9676
2225	0.9704
2216	0.972
2207	0.9729
2198	0.9737
2189	0.9732
2180	0.9736
2171	0.9751
2162	0.9742
2153	0.9743
2144	0.9744
2135	0.9743
2126	0.974
2117	0.9736
2108	0.9732
2099	0.9728
2090	0.9722
2081	0.9713
2072	0.9703
2063	0.9686
2054	0.9681
2045	0.9654
2036	0.9641
2027	0.9642
2018	0.9645
2009	0.9639
2000	0.9607
1991	0.9538
1982	0.9586
1973	0.9584
1964	0.9573
1955	0.9579
1946	0.9522
1937	0.9532
1928	0.9541
1919	0.9468
1910	0.9537
1901	0.9542
1892	0.9517
1883	0.9552
1874	0.9577
1865	0.9578
1856	0.9579
1847	0.9573
1838	0.9569
1829	0.9552
1820	0.9514
1811	0.9463
1802	0.9522
1793	0.9528
1784	0.9528
1775	0.9507
1766	0.9435
1757	0.9395
1748	0.9383
1739	0.9363
1730	0.9328
1721	0.925
1712	0.8974
1703	0.8482
1694	0.3879
1685	0.1268
1676	0.7134
1667	0.8814
1658	0.891
1649	0.8827
1640	0.8964
1631	0.8825
1622	0.828
1613	0.6455
1604	0.5647
1595	0.7549
1586	0.7594
1577	0.7144
1568	0.7202
1559	0.6826
1550	0.7066
1541	0.8602
1532	0.8388
1523	0.8538
1514	0.8471
1505	0.8636
1496	0.8805
1487	0.8971
1478	0.9099
1469	0.8952
1460	0.8815
1451	0.868
1442	0.8352
1433	0.7875
1424	0.8217
1415	0.831
1406	0.7951
1397	0.886
1388	0.9301
1379	0.897
1370	0.8713
1361	0.722
1352	0.6676
1343	0.8792
1334	0.9201
1325	0.9336
1316	0.9277
1307	0.8684
1298	0.8901
1289	0.8698
1280	0.8597
1271	0.5893
1262	0.194
1253	0.7701
1244	0.8097
1235	0.8302
1226	0.9261
1217	0.9406
1208	0.9039
1199	0.9403
1190	0.9305
1181	0.6419
1172	0.9305
1163	0.9471
1154	0.952
1145	0.9527
1136	0.9562
1127	0.9338
1118	0.9267
1109	0.9219
1100	0.9455
1091	0.9475
1082	0.9405
1073	0.911
1064	0.9425
1055	0.9388
1046	0.93
1037	0.9196
1028	0.9295
1019	0.8107
1010	0.9381
1001	0.9443
992	0.9453
983	0.948
974	0.9371
965	0.93
956	0.84
947	0.8085
938	0.9331
929	0.9613
920	0.9684
911	0.9698
902	0.9658
893	0.9552
884	0.9478
875	0.9293
866	0.9144
857	0.8992
848	0.8991
839	0.8922
830	0.925
821	0.9289
812	0.4094
803	0.9099
794	0.9613
785	0.9623
776	0.974
767	0.9799
758	0.9518
749	0.976
740	0.9856
731	0.9714
722	0.9683
713	0.931
704	0.9562
695	0.9597
686	0.9557
677	0.9244
668	0.9236
659	0.9421
650	0.9391
641	0.9494
632	0.95
623	0.9534
614	0.9541
605	0.9399
596	0.908
587	0.7701
578	0.9325
569	0.7847
560	0.913
551	0.9371
542	0.9451
533	0.9464
524	0.9418
515	0.9338
506	0.9258
497	0.9118
488	0.8962
479	0.8712
470	0.822
461	0.7801
452	0.7611
443	0.735
434	0.646
425	0.5278
416	0.4202
407	0.4311
