Infrared Spectrum: BENZENAMINE, N-PHENYL-
Formula: C12 H11 N
CAS: 122-39-4
State: SOLUTION (10% IN CCl4 FOR 3800-1300, 10% IN CS2 FOR 1300-650, 10% IN CCl4 FOR 650-250 CM^-^1) VERSUS SOLVENT
Class: COBLENTZ III
Instrument: PERKIN-ELMER 521 (GRATING)
Instrument parameters: FILTERS AT 3150, 2500, 2000, 1150, 700, 410; GRATING CHANGES AT 2000, 630 CM^-^1
Sampling: TRANSMISSION
Path length: 0.012, 0.011, AND 0.010 CM (CsBr CELL)
Resolution: 4
Origin: DOW CORNING CORP.
1/CM	TRANSMITTANCE
241.357	0.716
251.204	0.714
261.051	0.714
270.898	0.724
280.744	0.717
290.591	0.705
300.438	0.694
310.285	0.692
320.132	0.686
329.979	0.669
339.825	0.676
349.672	0.682
359.519	0.684
369.366	0.682
379.213	0.68
389.06	0.673
398.907	0.672
408.753	0.673
418.6	0.692
428.447	0.698
438.294	0.696
448.141	0.693
457.988	0.677
467.834	0.668
477.681	0.636
487.528	0.546
497.375	0.478
507.222	0.722
517.069	0.876
526.916	0.893
536.762	0.902
546.609	0.906
556.456	0.898
566.303	0.782
576.15	0.92
585.997	0.934
595.843	0.938
605.69	0.908
615.537	0.817
625.384	0.797
635.231	0.742
645.078	0.724
654.925	0.724
664.771	0.702
674.618	0.608
684.465	0.07
694.312	0.085
704.159	0.529
714.006	0.661
723.852	0.621
733.699	0.3499
743.546	0.02
753.393	0.2221
763.24	0.616
773.087	0.729
782.934	0.785
792.78	0.804
802.627	0.801
812.474	0.729
822.321	0.782
832.168	0.812
842.015	0.822
851.862	0.788
861.708	0.709
871.555	0.389
881.402	0.5801
891.249	0.744
901.096	0.848
910.943	0.874
920.789	0.885
930.636	0.889
940.483	0.88
950.33	0.85
960.177	0.838
970.024	0.812
979.871	0.82
989.717	0.758
999.564	0.7101
1009.41	0.86
1019.26	0.786
1029.1	0.6101
1038.95	0.869
1048.8	0.866
1058.65	0.84
1068.49	0.6739
1078.34	0.537
1088.19	0.813
1098.03	0.818
1107.88	0.833
1117.73	0.88
1127.57	0.88
1137.42	0.858
1147.27	0.737
1157.11	0.737
1166.96	0.4568
1176.81	0.5061
1186.65	0.734
1196.5	0.792
1206.35	0.793
1216.19	0.654
1226.04	0.65
1235.89	0.5359
1245.74	0.2654
1255.58	0.728
1265.43	0.716
1275.28	0.6319
1285.12	0.4299
1294.97	0.1579
1304.82	0.009
1314.66	0.038
1324.51	0.294
1334.36	0.35
1344.2	0.553
1354.05	0.716
1363.9	0.724
1373.74	0.726
1383.59	0.742
1393.44	0.762
1403.28	0.6899
1413.13	0.172
1422.98	0.734
1432.83	0.8
1442.67	0.776
1452.52	0.6319
1462.37	0.3961
1472.21	0.465
1482.06	0.2729
1491.91	0
1501.75	0
1511.6	0.016
1521.45	0.1802
1531.29	0.5121
1541.14	0.6321
1550.99	0.657
1560.83	0.5289
1570.68	0.474
1580.53	0.2448
1590.38	0.001
1600.22	0.0041
1610.07	0.2001
1619.92	0.498
1629.76	0.629
1639.61	0.696
1649.46	0.745
1659.3	0.793
1669.15	0.82
1679	0.825
1688.84	0.814
1698.69	0.793
1708.54	0.806
1718.38	0.798
1728.23	0.82
1738.08	0.84
1747.92	0.85
1757.77	0.854
1767.62	0.83
1777.47	0.808
1787.31	0.82
1797.16	0.842
1807.01	0.838
1816.85	0.833
1826.7	0.829
1836.55	0.813
1846.39	0.808
1856.24	0.798
1866.09	0.826
1875.93	0.841
1885.78	0.861
1895.63	0.861
1905.47	0.842
1915.32	0.809
1925.17	0.753
1935.01	0.776
1944.86	0.8
1954.71	0.848
1964.56	0.872
1974.4	0.874
1984.25	0.877
1994.1	0.877
2003.94	0.897
2013.79	0.889
2023.64	0.882
2033.48	0.881
2043.33	0.8819
2053.18	0.873
2063.02	0.874
2072.87	0.878
2082.72	0.877
2092.56	0.87
2102.41	0.8639
2112.26	0.865
2122.1	0.869
2131.95	0.8721
2141.8	0.8771
2151.65	0.877
2161.49	0.8782
2171.34	0.885
2181.19	0.8809
2191.03	0.8802
2200.88	0.889
2210.73	0.888
2220.57	0.886
2230.42	0.8859
2240.27	0.881
2250.11	0.876
2259.96	0.8763
2269.81	0.882
2279.65	0.881
2289.5	0.876
2299.35	0.876
2309.19	0.87
2319.04	0.8688
2328.89	0.864
2338.74	0.8656
2348.58	0.8716
2358.43	0.8688
2368.28	0.866
2378.12	0.87
2387.97	0.873
2397.82	0.8716
2407.66	0.8682
2417.51	0.872
2427.36	0.87
2437.2	0.876
2447.05	0.872
2456.9	0.8697
2466.74	0.8615
2476.59	0.8595
2486.44	0.8385
2496.28	0.854
2506.13	0.8537
2515.98	0.8417
2525.83	0.8129
2535.67	0.7967
2545.52	0.7926
2555.37	0.8182
2565.21	0.8465
2575.06	0.8613
2584.91	0.865
2594.75	0.8683
2604.6	0.869
2614.45	0.868
2624.29	0.866
2634.14	0.8566
2643.99	0.8547
2653.83	0.8621
2663.68	0.8667
2673.53	0.8724
2683.38	0.8774
2693.22	0.8766
2703.07	0.873
2712.92	0.8696
2722.76	0.8606
2732.61	0.854
2742.46	0.853
2752.3	0.8564
2762.15	0.8654
2772	0.872
2781.84	0.8734
2791.69	0.873
2801.54	0.872
2811.38	0.869
2821.23	0.862
2831.08	0.8575
2840.92	0.8663
2850.77	0.8794
2860.62	0.881
2870.47	0.88
2880.31	0.8711
2890.16	0.866
2900.01	0.8615
2909.85	0.858
2919.7	0.862
2929.55	0.8685
2939.39	0.873
2949.24	0.8695
2959.09	0.865
2968.93	0.8609
2978.78	0.8504
2988.63	0.8238
2998.47	0.7757
3008.32	0.7115
3018.17	0.4791
3028.01	0.516
3037.86	0.4462
3047.71	0.326
3057.56	0.399
3067.4	0.4647
3077.25	0.5843
3087.1	0.5811
3096.94	0.5564
3106.79	0.6868
3116.64	0.7865
3126.48	0.8576
3136.33	0.8733
3146.18	0.885
3156.02	0.8913
3165.87	0.892
3175.72	0.892
3185.56	0.889
3195.41	0.8883
3205.26	0.895
3215.1	0.9007
3224.95	0.9047
3234.8	0.9057
3244.65	0.906
3254.49	0.905
3264.34	0.904
3274.19	0.904
3284.03	0.902
3293.88	0.9
3303.73	0.8973
3313.57	0.8933
3323.42	0.89
3333.27	0.8843
3343.11	0.8773
3352.96	0.87
3362.81	0.8545
3372.65	0.8299
3382.5	0.7822
3392.35	0.6978
3402.19	0.5831
3412.04	0.5381
3421.89	0.4622
3431.74	0.3904
3441.58	0.5242
3451.43	0.7356
3461.28	0.8226
3471.12	0.8564
3480.97	0.8698
3490.82	0.8796
3500.66	0.8877
3510.51	0.8917
3520.36	0.894
3530.2	0.897
3540.05	0.8997
3549.9	0.9009
3559.74	0.9
3569.59	0.9037
3579.44	0.909
3589.28	0.9015
3599.13	0.898
3608.98	0.897
3618.83	0.896
3628.67	0.8921
3638.52	0.889
3648.37	0.892
3658.21	0.89
3668.06	0.8939
3677.91	0.893
3687.75	0.8961
3697.6	0.8959
3707.45	0.896
3717.29	0.893
3727.14	0.898
3736.99	0.8999
3746.83	0.898
3756.68	0.897
3766.53	0.897
3776.38	0.896
3786.22	0.894
