Infrared Spectrum: N-(3-AMINOPROPYL) MORPHOLINE
Formula: C7 H16 N2 O
CAS: 123-00-2
State: LIQUID
Boiling point: 87-88 C AT 6 mmHg
Class: COBLENTZ
Instrument: Not specified, most likely a prism, grating, or hybrid spectrometer.
Sampling: TRANSMISSION
Path length: 0.003 CM
Resolution: 4
Origin: WYANDOTTE CHEMICALS CORP., WYANDOTTE, MICHIGAN, USA
MICROMETERS	TRANSMITTANCE
2.056	0.965
2.09587	0.966
2.13574	0.961
2.17561	0.961
2.21547	0.936
2.25534	0.928
2.29521	0.918
2.33508	0.918
2.37495	0.91
2.41482	0.918
2.45468	0.925
2.49455	0.918
2.53442	0.93
2.57429	0.943
2.61416	0.95
2.65403	0.951
2.6939	0.955
2.73376	0.943
2.77363	0.916
2.8135	0.866
2.85337	0.835
2.89324	0.813
2.93311	0.795
2.97297	0.718
3.01284	0.499
3.05271	0.539
3.09258	0.613
3.13245	0.672
3.17232	0.718
3.21218	0.793
3.25205	0.823
3.29192	0.81
3.33179	0.613
3.37166	0.101
3.41153	0.029
3.4514	0.049
3.49126	0.058
3.53113	0.044
3.571	0.039
3.61087	0.071
3.65074	0.133
3.69061	0.371
3.73047	0.452
3.77034	0.59
3.81021	0.758
3.85008	0.818
3.88995	0.878
3.92982	0.87
3.96969	0.896
4.00955	0.908
4.04942	0.916
4.08929	0.911
4.12916	0.918
4.16903	0.925
4.2089	0.921
4.24876	0.931
4.28863	0.948
4.3285	0.953
4.36837	0.948
4.40824	0.918
4.44811	0.921
4.48798	0.916
4.52784	0.926
4.56771	0.913
4.60758	0.933
4.64745	0.926
4.68732	0.925
4.72719	0.931
4.76705	0.933
4.80692	0.933
4.84679	0.931
4.88666	0.93
4.92653	0.931
4.9664	0.93
5.00626	0.928
5.04613	0.913
5.086	0.893
5.12587	0.868
5.16574	0.896
5.20561	0.89
5.24548	0.89
5.28534	0.903
5.32521	0.918
5.36508	0.92
5.40495	0.928
5.44482	0.935
5.48469	0.926
5.52455	0.93
5.56442	0.93
5.60429	0.921
5.64416	0.925
5.68403	0.921
5.7239	0.926
5.76377	0.908
5.80363	0.896
5.8435	0.893
5.88337	0.875
5.92324	0.856
5.96311	0.825
6.00298	0.795
6.04284	0.76
6.08271	0.688
6.12258	0.642
6.16245	0.592
6.20232	0.567
6.24219	0.587
6.28206	0.632
6.32192	0.692
6.36179	0.723
6.40166	0.763
6.44153	0.79
6.4814	0.798
6.52127	0.816
6.56113	0.821
6.601	0.818
6.64087	0.828
6.68074	0.778
6.72061	0.678
6.76048	0.495
6.80034	0.249
6.84021	0.236
6.88008	0.209
6.91995	0.402
6.95982	0.652
6.99969	0.752
7.03956	0.74
7.07942	0.657
7.11929	0.494
7.15916	0.525
7.19903	0.524
7.2389	0.487
7.27877	0.422
7.31863	0.371
7.3585	0.312
7.39837	0.47
7.43824	0.559
7.47811	0.392
7.51798	0.484
7.55785	0.429
7.59771	0.329
7.63758	0.217
7.67745	0.244
7.71732	0.279
7.75719	0.329
7.79706	0.251
7.83692	0.138
7.87679	0.204
7.91666	0.292
7.95653	0.44
7.9964	0.532
8.03627	0.579
8.07613	0.608
8.116	0.65
8.15587	0.708
8.19574	0.727
8.23561	0.579
8.27548	0.464
8.31535	0.648
8.35521	0.68
8.39508	0.652
8.43495	0.622
8.47482	0.59
8.51469	0.567
8.55456	0.502
8.59442	0.4
8.63429	0.279
8.67416	0.171
8.71403	0.096
8.7539	0.054
8.79377	0.046
8.83364	0.049
8.8735	0.031
8.91337	0.028
8.95324	0.028
8.99311	0.133
9.03298	0.282
9.07285	0.329
9.11271	0.357
9.15258	0.394
9.19245	0.4
9.23232	0.337
9.27219	0.216
9.31206	0.136
9.35193	0.291
9.39179	0.437
9.43166	0.55
9.47153	0.58
9.5114	0.59
9.55127	0.559
9.59114	0.402
9.631	0.317
9.67087	0.369
9.71074	0.407
9.75061	0.45
9.79048	0.465
9.83035	0.349
9.87021	0.236
9.91008	0.198
9.94995	0.312
9.98982	0.46
10.0297	0.557
10.0696	0.577
10.1094	0.56
10.1493	0.549
10.1892	0.539
10.229	0.532
10.2689	0.547
10.3088	0.562
10.3486	0.574
10.3885	0.57
10.4284	0.535
10.4682	0.515
10.5081	0.487
10.548	0.455
10.5878	0.424
10.6277	0.409
10.6676	0.429
10.7075	0.435
10.7473	0.427
10.7872	0.397
10.8271	0.341
10.8669	0.264
10.9068	0.168
10.9467	0.161
10.9865	0.244
11.0264	0.269
11.0663	0.276
11.1061	0.254
11.146	0.234
11.1859	0.221
11.2257	0.196
11.2656	0.188
11.3055	0.179
11.3453	0.178
11.3852	0.158
11.4251	0.129
11.465	0.083
11.5048	0.058
11.5447	0.049
11.5846	0.048
11.6244	0.058
11.6643	0.099
11.7042	0.141
11.744	0.189
11.7839	0.204
11.8238	0.217
11.8636	0.224
11.9035	0.216
11.9434	0.212
11.9832	0.209
12.0231	0.219
12.063	0.216
12.1028	0.227
12.1427	0.231
12.1826	0.226
12.2225	0.236
12.2623	0.241
12.3022	0.247
12.3421	0.252
12.3819	0.244
12.4218	0.236
12.4617	0.229
12.5015	0.217
12.5414	0.207
12.5813	0.206
12.6211	0.254
12.661	0.319
12.7009	0.362
12.7407	0.397
12.7806	0.427
12.8205	0.444
12.8603	0.452
12.9002	0.472
12.9401	0.487
12.98	0.489
13.0198	0.479
13.0597	0.47
13.0996	0.452
13.1394	0.45
13.1793	0.459
13.2192	0.47
13.259	0.475
13.2989	0.475
13.3388	0.472
13.3786	0.472
13.4185	0.502
13.4584	0.534
13.4982	0.559
13.5381	0.595
13.578	0.62
13.6178	0.653
13.6577	0.677
13.6976	0.697
13.7375	0.705
13.7773	0.723
13.8172	0.733
13.8571	0.737
13.8969	0.747
13.9368	0.76
13.9767	0.76
14.0165	0.763
14.0564	0.772
14.0963	0.767
14.1361	0.77
14.176	0.772
14.2159	0.772
14.2557	0.775
14.2956	0.78
14.3355	0.783
14.3753	0.787
14.4152	0.787
14.4551	0.783
14.495	0.79
14.5348	0.795
14.5747	0.79
14.6146	0.797
14.6544	0.798
14.6943	0.795
14.7342	0.792
14.774	0.793
14.8139	0.793
14.8538	0.797
14.8936	0.787
14.9335	0.798
14.9734	0.785
15.0132	0.77
15.0531	0.767
15.093	0.777
15.1328	0.782
15.1727	0.787
15.2126	0.777
15.2525	0.775
15.2923	0.767
15.3322	0.77
15.3721	0.762
15.4119	0.76
15.4518	0.758
15.4917	0.75
15.5315	0.752
15.5714	0.747
15.6113	0.748
15.6511	0.74
15.691	0.742
15.7309	0.727
15.7707	0.72
15.8106	0.707
15.8505	0.693
15.8903	0.67
15.9302	0.665
15.9701	0.668
16.01	0.67
