Infrared Spectrum: Butyl stearate
Formula: C22 H44 O2
CAS: 123-95-5
State: SOLUTION (10% CCl4 FOR 2.7-7.5, 10% CS2 FOR 7.5-26 MICRON) VS SOLVENT
Class: COBLENTZ III
Instrument: DOW KBr FOREPRISM-GRATING
Instrument parameters: BLAZED AT 3.5, 12.0, 20.0 MICRON AND CHANGED AT 5.0, 7.5, 14.9 MICRON
Sampling: TRANSMISSION
Path length: 0.011 CM, 0.011 CM
Resolution: 2
Origin: DOW CHEMICAL COMPANY
1/CM	TRANSMITTANCE
3796	0.8441
3787	0.8438
3778	0.8435
3769	0.8433
3760	0.8436
3751	0.8439
3742	0.8442
3733	0.8445
3724	0.8448
3715	0.8451
3706	0.8454
3697	0.8457
3688	0.8457
3679	0.8455
3670	0.8454
3661	0.8452
3652	0.845
3643	0.8447
3634	0.8445
3625	0.8442
3616	0.8448
3607	0.8455
3598	0.8463
3589	0.8475
3580	0.8497
3571	0.8525
3562	0.8598
3553	0.8651
3544	0.8677
3535	0.869
3526	0.8704
3517	0.8716
3508	0.8725
3499	0.8736
3490	0.8743
3481	0.8746
3472	0.8739
3463	0.8715
3454	0.8666
3445	0.8593
3436	0.8563
3427	0.8596
3418	0.864
3409	0.8675
3400	0.8707
3391	0.8725
3382	0.8745
3373	0.8764
3364	0.8783
3355	0.8798
3346	0.8811
3337	0.8824
3328	0.8837
3319	0.885
3310	0.8861
3301	0.8871
3292	0.888
3283	0.889
3274	0.8894
3265	0.8893
3256	0.8893
3247	0.8886
3238	0.8873
3229	0.885
3220	0.8825
3211	0.8803
3202	0.8782
3193	0.8773
3184	0.8765
3175	0.8756
3166	0.8751
3157	0.8745
3148	0.8741
3139	0.8725
3130	0.8706
3121	0.8686
3112	0.8667
3103	0.8648
3094	0.8633
3085	0.8609
3076	0.8573
3067	0.8523
3058	0.8459
3049	0.8333
3040	0.8209
3031	0.8078
3022	0.7921
3013	0.7733
3004	0.7434
2995	0.6744
2986	0.498
2977	0.2891
2968	0.0739
2959	0.0383
2950	0.0411
2941	0.0331
2932	0.0127
2923	0.0099
2914	0.0137
2905	0.0374
2896	0.1119
2887	0.2087
2878	0.214
2869	0.1327
2860	0.0411
2851	0.0156
2842	0.1488
2833	0.4715
2824	0.5862
2815	0.6555
2806	0.6933
2797	0.724
2788	0.7486
2779	0.7684
2770	0.7831
2761	0.7949
2752	0.8046
2743	0.8074
2734	0.8064
2725	0.8035
2716	0.8065
2707	0.8101
2698	0.8126
2689	0.8122
2680	0.809
2671	0.8061
2662	0.8058
2653	0.8094
2644	0.8132
2635	0.8175
2626	0.822
2617	0.8264
2608	0.8306
2599	0.8343
2590	0.838
2581	0.8417
2572	0.8449
2563	0.8477
2554	0.8505
2545	0.8533
2536	0.8559
2527	0.8571
2518	0.8585
2509	0.8598
2500	0.861
2491	0.862
2482	0.863
2473	0.864
2464	0.865
2455	0.8659
2446	0.8662
2437	0.8648
2428	0.8635
2419	0.8654
2410	0.8664
2401	0.8644
2392	0.8618
2383	0.861
2374	0.8618
2365	0.8628
2356	0.8638
2347	0.8645
2338	0.8647
2329	0.8643
2320	0.8593
2311	0.8562
2302	0.8558
2293	0.856
2284	0.8575
2275	0.8588
2266	0.8596
2257	0.8604
2248	0.861
2239	0.8617
2230	0.863
2221	0.8644
2212	0.8653
2203	0.866
2194	0.867
2185	0.8673
2176	0.8751
2167	0.8725
2158	0.8714
2149	0.8709
2140	0.8707
2131	0.8705
2122	0.8706
2113	0.8706
2104	0.8706
2095	0.8706
2086	0.8703
2077	0.87
2068	0.8698
2059	0.8686
2050	0.866
2041	0.8624
2032	0.8608
2023	0.8611
2014	0.8611
2005	0.861
1996	0.8621
1987	0.8636
1978	0.8642
1969	0.8649
1960	0.8657
1951	0.8665
1942	0.8678
1933	0.8693
1924	0.8703
1915	0.8709
1906	0.8715
1897	0.8718
1888	0.8721
1879	0.8711
1870	0.8698
1861	0.8687
1852	0.8671
1843	0.8645
1834	0.8623
1825	0.8589
1816	0.8557
1807	0.8489
1798	0.8397
1789	0.8298
1780	0.8175
1771	0.7993
1762	0.7715
1753	0.7219
1744	0.3871
1735	0.0393
1726	0.0178
1717	0.296
1708	0.5672
1699	0.6868
1690	0.7314
1681	0.7664
1672	0.7976
1663	0.8188
1654	0.8306
1645	0.8388
1636	0.8428
1627	0.8453
1618	0.8485
1609	0.8535
1600	0.859
1591	0.8633
1582	0.8654
1573	0.8617
1564	0.8624
1555	0.8633
1546	0.8641
1537	0.8631
1528	0.858
1519	0.8495
1510	0.8389
1501	0.8246
1492	0.8069
1483	0.7756
1474	0.5055
1465	0.2147
1456	0.2853
1447	0.4797
1438	0.5531
1429	0.6303
1420	0.6425
1411	0.6945
1402	0.736
1393	0.6333
1384	0.5659
1375	0.5308
1366	0.548
1357	0.5209
1348	0.5175
1339	0.5552
1330	0.5929
1321	0.6122
1312	0.5788
1303	0.5403
1294	0.5409
1285	0.5548
1276	0.5481
1267	0.4951
1258	0.4657
1249	0.4256
1240	0.3894
1231	0.4
1222	0.431
1213	0.4477
1204	0.436
1195	0.3858
1186	0.309
1177	0.2218
1168	0.1916
1159	0.2538
1150	0.3474
1141	0.4381
1132	0.6112
1123	0.6352
1114	0.4817
1105	0.5227
1096	0.6154
1087	0.6304
1078	0.6674
1069	0.6587
1060	0.5983
1051	0.6896
1042	0.7605
1033	0.7615
1024	0.7367
1015	0.7128
1006	0.7362
997	0.7567
988	0.773
979	0.7847
970	0.774
961	0.7471
952	0.7501
943	0.7572
934	0.7858
925	0.8161
916	0.8328
907	0.8427
898	0.8468
889	0.8447
880	0.8437
871	0.8439
862	0.8474
853	0.8608
844	0.864
835	0.8395
826	0.8435
817	0.8546
808	0.8591
799	0.8608
790	0.8604
781	0.8575
772	0.8503
763	0.8425
754	0.8328
745	0.8151
736	0.7667
727	0.7508
718	0.6592
709	0.7818
700	0.8345
691	0.865
682	0.8777
673	0.8867
664	0.8923
655	0.8873
646	0.8783
637	0.8748
628	0.8709
619	0.8666
610	0.8621
601	0.8571
592	0.8533
583	0.8525
574	0.8544
565	0.857
556	0.8599
547	0.8617
538	0.8606
529	0.8532
520	0.8458
511	0.8408
502	0.8416
493	0.8445
484	0.8453
475	0.8464
466	0.8477
457	0.8489
448	0.8471
439	0.8425
430	0.8425
421	0.8436
412	0.8452
403	0.8465
394	0.8474
