Infrared Spectrum: P-HYDROXYBENZALDEHYDE
Formula: C7 H6 O2
CAS: 123-08-0
State: SOLID (NUJOL MULL)
Class: COBLENTZ
Instrument: Not specified, most likely a prism, grating, or hybrid spectrometer.
Sampling: TRANSMISSION
Resolution: 4
Origin: BATTELLE MEMORIAL INSTITUTE (R. JAKOBSEN)
1/CM	TRANSMITTANCE
299.801	0.351
300.731	0.368
301.66	0.376
302.59	0.387
303.519	0.378
304.449	0.416
305.379	0.466
306.308	0.545
307.238	0.587
308.168	0.649
309.097	0.691
310.027	0.723
310.956	0.723
311.886	0.723
312.816	0.704
313.745	0.699
314.675	0.678
315.604	0.69
316.534	0.686
317.464	0.703
318.393	0.695
319.323	0.662
320.252	0.654
321.182	0.641
322.112	0.628
323.041	0.57
323.971	0.534
324.901	0.487
325.83	0.421
326.76	0.276
327.689	0.2
328.619	0.155
329.549	0.126
330.478	0.122
331.408	0.126
332.337	0.135
333.267	0.169
334.197	0.262
335.126	0.342
336.056	0.4
336.986	0.472
337.915	0.542
338.845	0.557
339.774	0.574
340.704	0.584
341.634	0.606
342.563	0.6
343.493	0.629
344.422	0.632
345.352	0.635
346.282	0.64
347.211	0.648
348.141	0.65
349.07	0.637
350	0.641
350.93	0.642
351.859	0.638
352.789	0.635
353.719	0.637
354.648	0.636
355.578	0.644
356.507	0.644
357.437	0.645
358.367	0.648
359.296	0.654
360.226	0.654
361.155	0.654
362.085	0.653
363.015	0.654
363.944	0.654
364.874	0.657
365.804	0.656
366.733	0.654
367.663	0.652
368.592	0.653
369.522	0.649
370.452	0.649
371.381	0.656
372.311	0.66
373.24	0.66
374.17	0.654
375.1	0.652
376.029	0.646
376.959	0.644
377.888	0.642
378.818	0.642
379.748	0.64
380.677	0.64
381.607	0.642
382.537	0.644
383.466	0.644
384.396	0.637
385.325	0.633
386.255	0.633
387.185	0.631
388.114	0.625
389.044	0.628
389.973	0.629
390.903	0.625
391.833	0.616
392.762	0.613
393.692	0.616
394.622	0.603
395.551	0.598
396.481	0.591
397.41	0.591
398.34	0.591
399.27	0.592
400.199	0.591
401.129	0.591
402.058	0.591
402.988	0.588
403.918	0.584
404.847	0.583
405.777	0.574
406.706	0.562
407.636	0.555
408.566	0.549
409.495	0.542
410.425	0.536
411.355	0.532
412.284	0.53
413.214	0.53
414.143	0.524
415.073	0.52
416.003	0.515
416.932	0.498
417.862	0.483
418.791	0.482
419.721	0.484
420.651	0.49
421.58	0.496
422.51	0.508
423.439	0.527
424.369	0.537
425.299	0.544
426.228	0.548
427.158	0.549
428.088	0.546
429.017	0.544
429.947	0.54
430.876	0.537
431.806	0.537
432.736	0.536
433.665	0.527
434.595	0.52
435.524	0.517
436.454	0.512
437.384	0.504
438.313	0.503
439.243	0.49
440.173	0.487
441.102	0.48
442.032	0.475
442.961	0.47
443.891	0.463
444.821	0.445
445.75	0.43
446.68	0.415
447.609	0.393
448.539	0.38
449.469	0.362
450.398	0.345
451.328	0.328
452.257	0.299
453.187	0.262
454.117	0.223
455.046	0.209
455.976	0.202
456.906	0.22
457.835	0.285
458.765	0.334
459.694	0.363
460.624	0.384
461.554	0.408
462.483	0.421
463.413	0.43
464.342	0.433
465.272	0.436
466.202	0.459
467.131	0.499
468.061	0.525
468.991	0.538
469.92	0.546
470.85	0.555
471.779	0.562
472.709	0.558
473.639	0.555
474.568	0.549
475.498	0.546
476.427	0.546
477.357	0.54
478.287	0.534
479.216	0.532
480.146	0.529
481.075	0.525
482.005	0.515
482.935	0.499
483.864	0.5
484.794	0.504
485.724	0.505
486.653	0.498
487.583	0.49
488.512	0.478
489.442	0.47
490.372	0.469
491.301	0.465
492.231	0.455
493.16	0.441
494.09	0.428
495.02	0.418
495.949	0.403
496.879	0.375
497.809	0.342
498.738	0.301
499.668	0.285
500.597	0.27
501.527	0.246
502.457	0.208
503.386	0.151
504.316	0.097
505.245	0.075
506.175	0.054
507.105	0.046
508.034	0.068
508.964	0.093
509.893	0.113
510.823	0.137
511.753	0.162
512.682	0.2
513.612	0.245
514.542	0.263
515.471	0.283
516.401	0.305
517.33	0.322
518.26	0.33
519.19	0.338
520.119	0.346
521.049	0.347
521.978	0.347
522.908	0.346
523.838	0.349
524.767	0.347
525.697	0.347
526.627	0.35
527.556	0.353
528.486	0.354
529.415	0.358
530.345	0.361
531.275	0.364
532.204	0.362
533.134	0.362
534.063	0.362
534.993	0.366
535.923	0.364
536.852	0.363
537.782	0.363
538.711	0.361
539.641	0.359
540.571	0.359
541.5	0.357
542.43	0.354
543.36	0.347
544.289	0.345
545.219	0.347
546.148	0.343
547.078	0.337
548.008	0.333
548.937	0.333
549.867	0.333
550.796	0.329
551.726	0.322
552.656	0.318
553.585	0.318
554.515	0.318
555.445	0.316
556.374	0.308
557.304	0.306
558.233	0.3
559.163	0.299
560.093	0.299
561.022	0.299
561.952	0.292
562.881	0.291
563.811	0.284
564.741	0.279
565.67	0.277
566.6	0.272
567.529	0.27
568.459	0.263
569.389	0.26
570.318	0.26
571.248	0.258
572.178	0.25
573.107	0.246
574.037	0.239
574.966	0.238
575.896	0.235
576.826	0.226
577.755	0.217
578.685	0.206
579.614	0.202
580.544	0.202
581.474	0.198
582.403	0.189
583.333	0.185
584.263	0.173
585.192	0.169
586.122	0.163
587.051	0.144
587.981	0.133
588.911	0.123
589.84	0.115
590.77	0.11
591.699	0.108
592.629	0.088
593.559	0.073
594.488	0.065
595.418	0.056
596.347	0.044
597.277	0.023
598.207	0.013
599.136	0.01
600.066	0.013
600.996	0.017
601.925	0.018
602.855	0.036
603.784	0.073
604.714	0.119
605.644	0.172
606.573	0.255
607.503	0.337
608.432	0.383
609.362	0.413
610.292	0.429
611.221	0.437
612.151	0.442
613.08	0.441
614.01	0.429
614.94	0.412
615.869	0.4
616.799	0.378
617.729	0.358
618.658	0.341
619.588	0.326
620.517	0.32
621.447	0.304
622.377	0.295
623.306	0.279
624.236	0.264
625.165	0.249
626.095	0.234
627.025	0.213
627.954	0.198
628.884	0.181
629.814	0.172
630.743	0.168
631.673	0.162
632.602	0.15
633.532	0.133
634.462	0.125
635.391	0.111
636.321	0.104
637.25	0.089
638.18	0.076
639.11	0.073
640.039	0.072
640.969	0.076
641.898	0.086
642.828	0.115
643.758	0.151
644.687	0.179
645.617	0.216
646.547	0.241
647.476	0.259
648.406	0.262
649.335	0.26
