Infrared Spectrum: ACETIC ACID, n-BUTYL ESTER
Formula: C6 H12 O2
CAS: 123-86-4
State: GAS (10 mmHg, N2 ADDED, TOTAL PRESSURE 600 mmHg)
Class: COBLENTZ
Instrument: DOW KBr FOREPRISM-GRATING
Instrument parameters: GRATING CHANGED AT 5.0, 7.5, 15.0 MICRON
Sampling: TRANSMISSION
Path length: 5 CM
Resolution: 4
Origin: DOW CHEMICAL COMPANY
1/CM	TRANSMITTANCE
384.615	0.946
393.846	0.946
403.077	0.944
412.307	0.94
421.538	0.932
430.769	0.934
440	0.936
449.231	0.942
458.461	0.942
467.692	0.944
476.923	0.942
486.154	0.942
495.385	0.936
504.616	0.932
513.846	0.934
523.077	0.932
532.308	0.936
541.539	0.942
550.77	0.942
560	0.94
569.231	0.936
578.462	0.936
587.693	0.936
596.924	0.928
606.154	0.914
615.385	0.926
624.616	0.93
633.847	0.92
643.078	0.936
652.309	0.963
661.539	0.977
670.77	0.985
680.001	0.993
689.232	0.993
698.463	0.993
707.693	1
716.924	0.997
726.155	0.991
735.386	0.985
744.617	0.979
753.847	0.983
763.078	0.993
772.309	0.991
781.54	0.989
790.771	0.981
800.002	0.971
809.232	0.965
818.463	0.961
827.694	0.955
836.925	0.946
846.156	0.936
855.386	0.934
864.617	0.938
873.848	0.944
883.079	0.944
892.31	0.946
901.54	0.934
910.771	0.922
920.002	0.916
929.233	0.928
938.464	0.926
947.695	0.897
956.925	0.889
966.156	0.897
975.387	0.906
984.618	0.914
993.849	0.904
1003.08	0.873
1012.31	0.834
1021.54	0.742
1030.77	0.648
1040	0.618
1049.23	0.626
1058.46	0.663
1067.7	0.6181
1076.93	0.604
1086.16	0.726
1095.39	0.842
1104.62	0.885
1113.85	0.895
1123.08	0.895
1132.31	0.897
1141.54	0.908
1150.77	0.906
1160	0.9
1169.23	0.9
1178.46	0.895
1187.7	0.891
1196.93	0.875
1206.16	0.822
1215.39	0.702
1224.62	0.4792
1233.85	0.106
1243.08	0.063
1252.31	0.1199
1261.54	0.3339
1270.77	0.526
1280	0.6359
1289.23	0.789
1298.47	0.834
1307.7	0.846
1316.93	0.865
1326.16	0.885
1335.39	0.889
1344.62	0.885
1353.85	0.855
1363.08	0.661
1372.31	0.5161
1381.54	0.6549
1390.77	0.693
1400	0.716
1409.24	0.836
1418.47	0.871
1427.7	0.867
1436.93	0.8341
1446.16	0.832
1455.39	0.795
1464.62	0.769
1473.85	0.779
1483.08	0.838
1492.31	0.873
1501.54	0.889
1510.77	0.893
1520	0.889
1529.24	0.904
1538.47	0.883
1547.7	0.9
1556.93	0.885
1566.16	0.906
1575.39	0.887
1584.62	0.912
1593.85	0.914
1603.08	0.916
1612.31	0.914
1621.54	0.908
1630.77	0.918
1640.01	0.916
1649.24	0.908
1658.47	0.912
1667.7	0.908
1676.93	0.904
1686.16	0.871
1695.39	0.887
1704.62	0.889
1713.85	0.869
1723.08	0.836
1732.31	0.767
1741.54	0.6951
1750.78	0.475
1760.01	0.146
1769.24	0.153
1778.47	0.381
1787.7	0.679
1796.93	0.853
1806.16	0.879
1815.39	0.895
1824.62	0.9
1833.85	0.9
1843.08	0.904
1852.31	0.912
1861.54	0.912
1870.78	0.908
1880.01	0.914
1889.24	0.914
1898.47	0.914
1907.7	0.914
1916.93	0.914
1926.16	0.914
1935.39	0.916
1944.62	0.918
1953.85	0.918
1963.08	0.916
1972.31	0.916
1981.55	0.918
1990.78	0.916
2000.01	0.916
2009.24	0.916
2018.47	0.914
2027.7	0.916
2036.93	0.916
2046.16	0.914
2055.39	0.914
2064.62	0.912
2073.85	0.912
2083.08	0.912
2092.32	0.914
2101.55	0.914
2110.78	0.9157
2120.01	0.916
2129.24	0.9176
2138.47	0.918
2147.7	0.916
2156.93	0.914
2166.16	0.914
2175.39	0.916
2184.62	0.918
2193.85	0.9185
2203.09	0.9195
2212.32	0.922
2221.55	0.922
2230.78	0.922
2240.01	0.92
2249.24	0.92
2258.47	0.92
2267.7	0.922
2276.93	0.922
2286.16	0.9222
2295.39	0.924
2304.62	0.924
2313.85	0.9228
2323.09	0.922
2332.32	0.924
2341.55	0.922
2350.78	0.9209
2360.01	0.918
2369.24	0.923
2378.47	0.924
2387.7	0.925
2396.93	0.928
2406.16	0.928
2415.39	0.928
2424.62	0.93
2433.86	0.93
2443.09	0.928
2452.32	0.926
2461.55	0.9232
2470.78	0.924
2480.01	0.924
2489.24	0.928
2498.47	0.928
2507.7	0.928
2516.93	0.9326
2526.16	0.934
2535.39	0.936
2544.63	0.9344
2553.86	0.934
2563.09	0.934
2572.32	0.9335
2581.55	0.932
2590.78	0.932
2600.01	0.9334
2609.24	0.934
2618.47	0.934
2627.7	0.934
2636.93	0.934
2646.16	0.936
2655.39	0.9367
2664.63	0.936
2673.86	0.936
2683.09	0.936
2692.32	0.9348
2701.55	0.934
2710.78	0.932
2720.01	0.9319
2729.24	0.9289
2738.47	0.93
2747.7	0.931
2756.93	0.934
2766.16	0.934
2775.4	0.936
2784.63	0.934
2793.86	0.934
2803.09	0.9291
2812.32	0.9241
2821.55	0.9191
2830.78	0.9142
2840.01	0.9072
2849.24	0.8978
2858.47	0.8593
2867.7	0.822
2876.93	0.7424
2886.17	0.665
2895.4	0.7332
2904.63	0.7557
2913.86	0.7388
2923.09	0.6983
2932.32	0.6551
2941.55	0.5778
2950.78	0.5155
2960.01	0.4949
2969.24	0.395
2978.47	0.3783
2987.7	0.5477
2996.93	0.768
3006.17	0.8801
3015.4	0.9003
3024.63	0.906
3033.86	0.906
3043.09	0.908
3052.32	0.914
3061.55	0.9182
3070.78	0.9292
3080.01	0.934
3089.24	0.936
3098.47	0.9381
3107.7	0.94
3116.94	0.94
3126.17	0.942
3135.4	0.942
3144.63	0.944
3153.86	0.944
3163.09	0.944
3172.32	0.944
3181.55	0.944
3190.78	0.946
3200.01	0.946
3209.24	0.946
3218.47	0.946
3227.71	0.946
3236.94	0.9473
3246.17	0.946
3255.4	0.948
3264.63	0.948
3273.86	0.951
3283.09	0.9486
3292.32	0.953
3301.55	0.955
3310.78	0.953
3320.01	0.953
3329.24	0.948
3338.47	0.948
3347.71	0.951
3356.94	0.951
3366.17	0.951
3375.4	0.951
3384.63	0.951
3393.86	0.9543
3403.09	0.955
3412.32	0.955
3421.55	0.9565
3430.78	0.953
3440.01	0.951
3449.24	0.951
3458.48	0.951
3467.71	0.948
3476.94	0.9479
3486.17	0.9449
3495.4	0.94
3504.63	0.936
3513.86	0.94
3523.09	0.948
3532.32	0.951
3541.55	0.951
3550.78	0.951
3560.01	0.951
3569.25	0.953
3578.48	0.9497
3587.71	0.9508
3596.94	0.955
3606.17	0.9532
3615.4	0.948
3624.63	0.9515
3633.86	0.948
3643.09	0.955
3652.32	0.9453
3661.55	0.9546
3670.78	0.942
3680.02	0.9532
3689.25	0.9502
3698.48	0.9519
3707.71	0.9475
3716.94	0.9502
3726.17	0.9498
3735.4	0.944
3744.63	0.9444
3753.86	0.9474
3763.09	0.951
3772.32	0.953
3781.55	0.9533
