Infrared Spectrum: PYRAZINE, 2,5-DIMETHYL-
Formula: C6 H8 N2
CAS: 123-32-0
State: LIQUID (NEAT)
Boiling point: 153-155 C
Class: COBLENTZ III
Instrument: BAIRD (GRATING)
Instrument parameters: NaCl PRISM
Sampling: TRANSMISSION
Path length: 0.003 CM
Resolution: 2
Origin: WYANDOTTE CHEMICALS CORP.
1/CM	TRANSMITTANCE
4000	0.9049
3991	0.9058
3982	0.9071
3973	0.9085
3964	0.9098
3955	0.9112
3946	0.9124
3937	0.9138
3928	0.9151
3919	0.9164
3910	0.9177
3901	0.9191
3892	0.9206
3883	0.9223
3874	0.9239
3865	0.9256
3856	0.9275
3847	0.9297
3838	0.9318
3829	0.934
3820	0.9353
3811	0.9363
3802	0.9373
3793	0.9384
3784	0.9392
3775	0.9395
3766	0.9397
3757	0.9399
3748	0.94
3739	0.9396
3730	0.9391
3721	0.9387
3712	0.9382
3703	0.9377
3694	0.9367
3685	0.9356
3676	0.9344
3667	0.9332
3658	0.9318
3649	0.9304
3640	0.9287
3631	0.9268
3622	0.9249
3613	0.9218
3604	0.9186
3595	0.9153
3586	0.9121
3577	0.9086
3568	0.9052
3559	0.9016
3550	0.8975
3541	0.8933
3532	0.889
3523	0.8854
3514	0.8834
3505	0.8828
3496	0.8828
3487	0.884
3478	0.8846
3469	0.8847
3460	0.8848
3451	0.8844
3442	0.8828
3433	0.8816
3424	0.8808
3415	0.8803
3406	0.8799
3397	0.88
3388	0.8804
3379	0.8808
3370	0.8809
3361	0.881
3352	0.881
3343	0.8811
3334	0.881
3325	0.8808
3316	0.8806
3307	0.8804
3298	0.8803
3289	0.8803
3280	0.8803
3271	0.8805
3262	0.8808
3253	0.8812
3244	0.881
3235	0.8805
3226	0.8796
3217	0.8751
3208	0.8693
3199	0.8638
3190	0.8583
3181	0.8527
3172	0.8468
3163	0.838
3154	0.8274
3145	0.8153
3136	0.7937
3127	0.7731
3118	0.7488
3109	0.6186
3100	0.4779
3091	0.4215
3082	0.4681
3073	0.5188
3064	0.546
3055	0.5292
3046	0.4023
3037	0.272
3028	0.1408
3019	0.0982
3010	0.1431
3001	0.1925
2992	0.2077
2983	0.2137
2974	0.2358
2965	0.2569
2956	0.2508
2947	0.1892
2938	0.2393
2929	0.4151
2920	0.486
2911	0.4979
2902	0.5027
2893	0.5054
2884	0.5066
2875	0.5074
2866	0.5083
2857	0.5493
2848	0.6743
2839	0.7364
2830	0.7578
2821	0.7775
2812	0.799
2803	0.8168
2794	0.8292
2785	0.8343
2776	0.8363
2767	0.8361
2758	0.8171
2749	0.7978
2740	0.7982
2731	0.8168
2722	0.8512
2713	0.8709
2704	0.874
2695	0.8798
2686	0.8875
2677	0.8927
2668	0.8955
2659	0.8957
2650	0.8913
2641	0.8837
2632	0.8767
2623	0.8723
2614	0.8707
2605	0.8807
2596	0.8957
2587	0.9034
2578	0.9063
2569	0.9071
2560	0.9036
2551	0.899
2542	0.8971
2533	0.8977
2524	0.8994
2515	0.902
2506	0.9036
2497	0.9008
2488	0.8965
2479	0.892
2470	0.8875
2461	0.8845
2452	0.8832
2443	0.8832
2434	0.8834
2425	0.8833
2416	0.8824
2407	0.8758
2398	0.8637
2389	0.8593
2380	0.8591
2371	0.8613
2362	0.8647
2353	0.8684
2344	0.8721
2335	0.8759
2326	0.8797
2317	0.8834
2308	0.8877
2299	0.8921
2290	0.898
2281	0.9057
2272	0.9081
2263	0.9078
2254	0.9055
2245	0.9051
2236	0.9055
2227	0.904
2218	0.9027
2209	0.9054
2200	0.9095
2191	0.9124
2182	0.9145
2173	0.9154
2164	0.9134
2155	0.9113
2146	0.9104
2137	0.9115
2128	0.9121
2119	0.9116
2110	0.889
2101	0.8687
2092	0.8751
2083	0.8864
2074	0.8988
2065	0.909
2056	0.912
2047	0.9127
2038	0.9118
2029	0.9108
2020	0.9092
2011	0.9084
2002	0.9075
1993	0.9053
1984	0.9018
1975	0.8712
1966	0.8275
1957	0.8061
1948	0.848
1939	0.8874
1930	0.8912
1921	0.8906
1912	0.887
1903	0.8837
1894	0.8818
1885	0.8806
1876	0.8797
1867	0.8796
1858	0.8868
1849	0.8784
1840	0.8601
1831	0.839
1822	0.7912
1813	0.7495
1804	0.7571
1795	0.8005
1786	0.8416
1777	0.8647
1768	0.8811
1759	0.8892
1750	0.8895
1741	0.8893
1732	0.8838
1723	0.8799
1714	0.8821
1705	0.8832
1696	0.8596
1687	0.8538
1678	0.8396
1669	0.8378
1660	0.841
1651	0.8438
1642	0.8271
1633	0.8125
1624	0.7899
1615	0.7648
1606	0.7428
1597	0.7226
1588	0.7034
1579	0.684
1570	0.6587
1561	0.624
1552	0.4836
1543	0.478
1534	0.4958
1525	0.4686
1516	0.2694
1507	0.0325
1498	0.0177
1489	0.0797
1480	0.1285
1471	0.0798
1462	0.0442
1453	0.0664
1444	0.1261
1435	0.1849
1426	0.2303
1417	0.3253
1408	0.378
1399	0.2319
1390	0.0462
1381	0.2141
1372	0.465
1363	0.4594
1354	0.3406
1345	0.1804
1336	0.017
1327	0.0437
1318	0.4452
1309	0.616
1300	0.6864
1291	0.7149
1282	0.7361
1273	0.7574
1264	0.4259
1255	0.7383
1246	0.7318
1237	0.7057
1228	0.7922
1219	0.8096
1210	0.8137
1201	0.7894
1192	0.7553
1183	0.5839
1174	0.0743
1165	0.088
1156	0.4133
1147	0.6112
1138	0.6206
1129	0.6797
1120	0.709
1111	0.7121
1102	0.6985
1093	0.6745
1084	0.6408
1075	0.589
1066	0.4966
1057	0.3397
1048	0.0619
1039	0.0178
1030	0.2261
1021	0.4533
1012	0.5841
1003	0.6481
994	0.6736
985	0.6672
976	0.581
967	0.3671
958	0.2995
949	0.458
940	0.5731
931	0.6317
922	0.7189
913	0.7489
904	0.7405
895	0.6565
886	0.394
877	0.3577
868	0.6634
859	0.7347
850	0.8162
841	0.8358
832	0.8467
823	0.8399
814	0.846
805	0.8536
796	0.8544
787	0.8647
778	0.8644
769	0.8616
760	0.8482
751	0.7881
742	0.5486
733	0.7647
724	0.8718
715	0.8833
706	0.8653
697	0.8905
688	0.8844
679	0.8797
670	0.8678
661	0.8504
652	0.8318
643	0.8168
634	0.8036
