Infrared Spectrum: ACETIC ACID, 3-METHYLBUTYL ESTER
Formula: C7 H14 O2
CAS: 123-92-2
State: VAPOR (8 MICROLITER AT 150 C)
Boiling point: 142 C
Class: COBLENTZ
Instrument: PERKIN-ELMER 180
Sampling: TRANSMISSION
Path length: 5 CM KBr CELL, CELL VOLUME: 80 CM^3
Resolution: 2-3 CM^-^1
Origin: PERKIN-ELMER CORP. (M. ZELLER)
1/CM	TRANSMITTANCE
397.379	0.464
406.552	0.4989
415.725	0.568
424.898	0.629
434.07	0.67
443.243	0.717
452.416	0.757
461.589	0.791
470.762	0.818
479.935	0.838
489.107	0.853
498.28	0.859
507.453	0.856
516.626	0.864
525.799	0.873
534.972	0.88
544.144	0.883
553.317	0.886
562.49	0.889
571.663	0.89
580.836	0.889
590.009	0.878
599.182	0.867
608.354	0.868
617.527	0.868
626.7	0.863
635.873	0.86
645.046	0.876
654.219	0.893
663.391	0.899
672.564	0.9
681.737	0.897
690.91	0.882
700.083	0.883
709.256	0.89
718.428	0.89
727.601	0.885
736.774	0.874
745.947	0.872
755.12	0.865
764.293	0.859
773.466	0.857
782.638	0.856
791.811	0.855
800.984	0.851
810.157	0.851
819.33	0.852
828.503	0.853
837.675	0.857
846.848	0.86
856.021	0.861
865.194	0.865
874.367	0.865
883.54	0.864
892.712	0.861
901.885	0.857
911.058	0.855
920.231	0.853
929.404	0.855
938.577	0.855
947.75	0.842
956.922	0.821
966.095	0.805
975.268	0.807
984.441	0.807
993.614	0.788
1002.79	0.726
1011.96	0.646
1021.13	0.601
1030.31	0.573
1039.48	0.551
1048.65	0.551
1057.82	0.604
1067	0.668
1076.17	0.718
1085.34	0.749
1094.52	0.766
1103.69	0.777
1112.86	0.784
1122.03	0.791
1131.21	0.794
1140.38	0.792
1149.55	0.782
1158.72	0.761
1167.9	0.748
1177.07	0.749
1186.24	0.72
1195.42	0.5982
1204.59	0.4451
1213.76	0.162
1222.93	0.035
1232.11	0.045
1241.28	0.2159
1250.45	0.435
1259.63	0.5349
1268.8	0.597
1277.97	0.664
1287.14	0.72
1296.32	0.756
1305.49	0.774
1314.66	0.782
1323.84	0.784
1333.01	0.774
1342.18	0.744
1351.35	0.6071
1360.53	0.486
1369.7	0.507
1378.87	0.581
1388.05	0.625
1397.22	0.696
1406.39	0.752
1415.56	0.765
1424.74	0.758
1433.91	0.741
1443.08	0.714
1452.26	0.683
1461.43	0.67
1470.6	0.696
1479.77	0.741
1488.95	0.783
1498.12	0.801
1507.29	0.808
1516.47	0.809
1525.64	0.813
1534.81	0.809
1543.98	0.808
1553.16	0.801
1562.33	0.801
1571.5	0.796
1580.68	0.791
1589.85	0.788
1599.02	0.791
1608.19	0.794
1617.37	0.8
1626.54	0.804
1635.71	0.804
1644.89	0.804
1654.06	0.801
1663.23	0.791
1672.4	0.774
1681.58	0.766
1690.75	0.762
1699.92	0.75
1709.1	0.726
1718.27	0.687
1727.44	0.615
1736.61	0.485
1745.79	0.2642
1754.96	0.153
1764.13	0.219
1773.31	0.4641
1782.48	0.666
1791.65	0.756
1800.82	0.809
1810	0.835
1819.17	0.847
1828.34	0.851
1837.52	0.855
1846.69	0.86
1855.86	0.86
1865.03	0.86
1874.21	0.863
1883.38	0.865
1892.55	0.867
1901.73	0.867
1910.9	0.863
1920.07	0.864
1929.24	0.865
1938.42	0.865
1947.59	0.863
1956.76	0.861
1965.94	0.864
1975.11	0.86
1984.28	0.859
1993.45	0.857
2002.63	0.852
2011.8	0.851
2020.97	0.851
2030.14	0.85
2039.32	0.8497
2048.49	0.8473
2057.66	0.847
2066.84	0.8495
2076.01	0.848
2085.18	0.8508
2094.35	0.851
2103.53	0.8501
2112.7	0.85
2121.87	0.85
2131.05	0.848
2140.22	0.848
2149.39	0.8491
2158.56	0.8511
2167.74	0.851
2176.91	0.8497
2186.08	0.848
2195.26	0.85
2204.43	0.848
2213.6	0.848
2222.77	0.8497
2231.95	0.85
2241.12	0.848
2250.29	0.848
2259.47	0.847
2268.64	0.847
2277.81	0.8459
2286.98	0.844
2296.16	0.843
2305.33	0.8424
2314.5	0.8398
2323.68	0.838
2332.85	0.839
2342.02	0.839
2351.19	0.8387
2360.37	0.838
2369.54	0.839
2378.71	0.84
2387.89	0.839
2397.06	0.839
2406.23	0.8385
2415.4	0.837
2424.58	0.837
2433.75	0.835
2442.92	0.835
2452.1	0.835
2461.27	0.835
2470.44	0.834
2479.61	0.835
2488.79	0.837
2497.96	0.837
2507.13	0.837
2516.31	0.835
2525.48	0.835
2534.65	0.834
2543.82	0.833
2553	0.833
2562.17	0.8318
2571.34	0.83
2580.52	0.826
2589.69	0.825
2598.86	0.825
2608.03	0.825
2617.21	0.823
2626.38	0.822
2635.55	0.823
2644.73	0.823
2653.9	0.822
2663.07	0.821
2672.24	0.82
2681.42	0.8191
2690.59	0.818
2699.76	0.816
2708.94	0.8128
2718.11	0.8083
2727.28	0.807
2736.45	0.808
2745.63	0.808
2754.8	0.808
2763.97	0.805
2773.15	0.8041
2782.32	0.803
2791.49	0.8
2800.66	0.7975
2809.84	0.7908
2819.01	0.7803
2828.18	0.7654
2837.36	0.7434
2846.53	0.7154
2855.7	0.6663
2864.87	0.5911
2874.05	0.5582
2883.22	0.564
2892.39	0.5558
2901.56	0.5261
2910.74	0.4887
2919.91	0.4528
2929.08	0.426
2938.26	0.3949
2947.43	0.2917
2956.6	0.2506
2965.77	0.3527
2974.95	0.5176
2984.12	0.6494
2993.29	0.7017
3002.47	0.7414
3011.64	0.748
3020.81	0.75
3029.98	0.752
3039.16	0.752
3048.33	0.753
3057.5	0.754
3066.68	0.7581
3075.85	0.7656
3085.02	0.769
3094.19	0.7723
3103.37	0.777
3112.54	0.777
3121.71	0.777
3130.89	0.777
3140.06	0.7756
3149.23	0.775
3158.4	0.774
3167.58	0.7749
3176.75	0.777
3185.92	0.778
3195.1	0.777
3204.27	0.778
3213.44	0.7811
3222.61	0.78
3231.79	0.78
3240.96	0.7832
3250.13	0.786
3259.31	0.783
3268.48	0.782
3277.65	0.782
3286.82	0.782
3296	0.783
3305.17	0.782
3314.34	0.782
3323.52	0.782
3332.69	0.7795
3341.86	0.779
3351.03	0.779
3360.21	0.778
3369.38	0.778
3378.55	0.7792
3387.73	0.78
3396.9	0.779
3406.07	0.779
3415.24	0.7807
3424.42	0.78
3433.59	0.779
3442.76	0.779
3451.94	0.779
3461.11	0.778
3470.28	0.7745
3479.45	0.7728
3488.63	0.77
3497.8	0.767
3506.97	0.77
3516.15	0.7742
3525.32	0.778
3534.49	0.7777
3543.66	0.777
3552.84	0.7783
3562.01	0.779
3571.18	0.777
3580.36	0.777
3589.53	0.778
3598.7	0.775
3607.87	0.775
3617.05	0.775
3626.22	0.777
3635.39	0.7738
3644.57	0.773
3653.74	0.774
3662.91	0.773
3672.08	0.7724
3681.26	0.771
3690.43	0.7706
3699.6	0.77
3708.78	0.77
3717.95	0.769
3727.12	0.769
3736.29	0.767
3745.47	0.767
3754.64	0.767
3763.81	0.767
3772.99	0.769
3782.16	0.7663
3791.33	0.765
3800.5	0.765
3809.68	0.7647
3818.85	0.764
3828.02	0.764
3837.19	0.762
3846.37	0.761
3855.54	0.76
3864.71	0.7605
3873.89	0.761
3883.06	0.76
3892.23	0.7579
3901.4	0.757
3910.58	0.758
3919.75	0.757
3928.92	0.758
3938.1	0.7578
3947.27	0.7577
3956.44	0.756
3965.61	0.757
3974.79	0.756
