Infrared Spectrum: 2,4-PENTANEDIONE
Formula: C5 H8 O2
CAS: 123-54-6
State: VAPOR (9 MICROLITER AT 150 C)
Boiling point: 137 C
Class: COBLENTZ
Instrument: PERKIN-ELMER 180
Sampling: TRANSMISSION
Path length: 5 CM KBr CELL, CELL VOLUME: 80 CM^3
Resolution: 2-3 CM^-^1
Origin: PERKIN-ELMER CORP. (M. ZELLER)
1/CM	TRANSMITTANCE
404.068	0.459
413.56	0.5349
423.051	0.604
432.543	0.655
442.034	0.708
451.526	0.754
461.017	0.788
470.509	0.817
480.001	0.84
489.492	0.842
498.984	0.826
508.475	0.791
517.967	0.785
527.458	0.788
536.95	0.792
546.442	0.826
555.933	0.872
565.425	0.891
574.916	0.894
584.408	0.898
593.899	0.895
603.391	0.89
612.883	0.882
622.374	0.878
631.866	0.875
641.357	0.88
650.849	0.884
660.34	0.899
669.832	0.903
679.324	0.907
688.815	0.905
698.307	0.906
707.798	0.902
717.29	0.899
726.781	0.894
736.273	0.88
745.765	0.849
755.256	0.7841
764.748	0.719
774.239	0.677
783.731	0.75
793.222	0.811
802.714	0.853
812.206	0.873
821.697	0.884
831.189	0.888
840.68	0.886
850.172	0.882
859.663	0.872
869.155	0.852
878.647	0.833
888.138	0.802
897.63	0.743
907.121	0.676
916.613	0.661
926.104	0.701
935.596	0.726
945.088	0.72
954.579	0.728
964.071	0.749
973.562	0.766
983.054	0.78
992.545	0.776
1002.04	0.777
1011.53	0.783
1021.02	0.791
1030.51	0.803
1040	0.814
1049.49	0.821
1058.99	0.829
1068.48	0.837
1077.97	0.841
1087.46	0.844
1096.95	0.841
1106.44	0.834
1115.94	0.827
1125.43	0.804
1134.92	0.768
1144.41	0.686
1153.9	0.596
1163.39	0.528
1172.89	0.529
1182.38	0.585
1191.87	0.651
1201.36	0.666
1210.85	0.64
1220.34	0.57
1229.83	0.4791
1239.33	0.418
1248.82	0.414
1258.31	0.453
1267.8	0.506
1277.29	0.542
1286.78	0.552
1296.28	0.544
1305.77	0.546
1315.26	0.559
1324.75	0.578
1334.24	0.575
1343.73	0.54
1353.23	0.451
1362.72	0.39
1372.21	0.392
1381.7	0.472
1391.19	0.512
1400.68	0.498
1410.17	0.47
1419.67	0.44
1429.16	0.433
1438.65	0.436
1448.14	0.449
1457.63	0.47
1467.12	0.498
1476.62	0.533
1486.11	0.56
1495.6	0.574
1505.09	0.569
1514.58	0.552
1524.07	0.537
1533.57	0.528
1543.06	0.508
1552.55	0.487
1562.04	0.447
1571.53	0.383
1581.02	0.2921
1590.51	0.186
1600.01	0.088
1609.5	0.042
1618.99	0.039
1628.48	0.079
1637.97	0.1531
1647.46	0.238
1656.96	0.348
1666.45	0.448
1675.94	0.506
1685.43	0.527
1694.92	0.485
1704.41	0.386
1713.9	0.302
1723.4	0.3
1732.89	0.3761
1742.38	0.486
1751.87	0.579
1761.36	0.65
1770.85	0.691
1780.35	0.733
1789.84	0.753
1799.33	0.765
1808.82	0.791
1818.31	0.808
1827.8	0.817
1837.3	0.825
1846.79	0.826
1856.28	0.826
1865.77	0.834
1875.26	0.84
1884.75	0.841
1894.24	0.834
1903.74	0.837
1913.23	0.836
1922.72	0.838
1932.21	0.837
1941.7	0.837
1951.19	0.841
1960.69	0.84
1970.18	0.834
1979.67	0.836
1989.16	0.833
1998.65	0.833
2008.14	0.836
2017.64	0.84
2027.13	0.8421
2036.62	0.842
2046.11	0.8409
2055.6	0.8406
2065.09	0.8398
2074.58	0.837
2084.08	0.836
2093.57	0.837
2103.06	0.8375
2112.55	0.838
2122.04	0.837
2131.53	0.8346
2141.03	0.836
2150.52	0.831
2160.01	0.831
2169.5	0.833
2178.99	0.836
2188.48	0.831
2197.98	0.83
2207.47	0.8293
2216.96	0.827
2226.45	0.8272
2235.94	0.825
2245.43	0.823
2254.92	0.8216
2264.42	0.8191
2273.91	0.8185
2283.4	0.817
2292.89	0.819
2302.38	0.819
2311.87	0.818
2321.37	0.8169
2330.86	0.814
2340.35	0.813
2349.84	0.811
2359.33	0.8074
2368.82	0.8076
2378.31	0.81
2387.81	0.81
2397.3	0.81
2406.79	0.808
2416.28	0.81
2425.77	0.81
2435.26	0.811
2444.76	0.811
2454.25	0.8091
2463.74	0.8044
2473.23	0.804
2482.72	0.804
2492.21	0.8036
2501.71	0.802
2511.2	0.798
2520.69	0.7998
2530.18	0.7946
2539.67	0.792
2549.16	0.7929
2558.65	0.795
2568.15	0.7945
2577.64	0.794
2587.13	0.792
2596.62	0.7909
2606.11	0.784
2615.6	0.785
2625.1	0.784
2634.59	0.779
2644.08	0.777
2653.57	0.777
2663.06	0.774
2672.55	0.7707
2682.05	0.7727
2691.54	0.7718
2701.03	0.766
2710.52	0.771
2720.01	0.7718
2729.5	0.771
2738.99	0.7652
2748.49	0.764
2757.98	0.765
2767.47	0.764
2776.96	0.7611
2786.45	0.76
2795.94	0.7582
2805.44	0.7548
2814.93	0.752
2824.42	0.7472
2833.91	0.743
2843.4	0.7425
2852.89	0.742
2862.39	0.74
2871.88	0.738
2881.37	0.7359
2890.86	0.7299
2900.35	0.7237
2909.84	0.7026
2919.33	0.6843
2928.83	0.6615
2938.32	0.6583
2947.81	0.6745
2957.3	0.68
2966.79	0.676
2976.28	0.6817
2985.78	0.6818
2995.27	0.68
3004.76	0.675
3014.25	0.669
3023.74	0.676
3033.23	0.6914
3042.72	0.6996
3052.22	0.7067
3061.71	0.7036
3071.2	0.7039
3080.69	0.708
3090.18	0.7119
3099.67	0.7194
3109.17	0.7278
3118.66	0.7379
3128.15	0.742
3137.64	0.745
3147.13	0.743
3156.62	0.746
3166.12	0.747
3175.61	0.7496
3185.1	0.7497
3194.59	0.7496
3204.08	0.7499
3213.57	0.7494
3223.06	0.7521
3232.56	0.753
3242.05	0.7532
3251.54	0.756
3261.03	0.753
3270.52	0.756
3280.01	0.753
3289.51	0.7578
3299	0.7626
3308.49	0.7626
3317.98	0.7607
3327.47	0.762
3336.96	0.76
3346.46	0.7645
3355.95	0.766
3365.44	0.765
3374.93	0.765
3384.42	0.7651
3393.91	0.768
3403.4	0.765
3412.9	0.7615
3422.39	0.757
3431.88	0.7565
3441.37	0.752
3450.86	0.75
3460.35	0.7521
3469.85	0.7566
3479.34	0.762
3488.83	0.762
3498.32	0.765
3507.81	0.7644
3517.3	0.762
3526.8	0.762
3536.29	0.762
3545.78	0.761
3555.27	0.7633
3564.76	0.76
3574.25	0.7618
3583.74	0.7585
3593.24	0.757
3602.73	0.7608
3612.22	0.764
3621.71	0.7612
3631.2	0.76
3640.69	0.76
3650.19	0.756
3659.68	0.758
3669.17	0.7576
3678.66	0.757
3688.15	0.757
3697.64	0.757
3707.14	0.7535
3716.63	0.752
3726.12	0.7495
3735.61	0.749
3745.1	0.752
3754.59	0.7529
3764.08	0.7494
3773.58	0.7488
3783.07	0.7496
3792.56	0.747
3802.05	0.7486
3811.54	0.747
3821.03	0.7453
3830.53	0.745
3840.02	0.743
3849.51	0.742
3859	0.742
3868.49	0.7427
3877.98	0.741
3887.47	0.739
3896.97	0.739
3906.46	0.737
3915.95	0.735
3925.44	0.737
3934.93	0.737
3944.42	0.7336
3953.92	0.733
3963.41	0.733
3972.9	0.734
3982.39	0.7335
3991.88	0.733
