Infrared Spectrum: P-AMINOPHENOL
Formula: C6 H7 N O
CAS: 123-30-8
State: SOLID (NUJOL MULL)
Class: COBLENTZ
Instrument: Not specified, most likely a prism, grating, or hybrid spectrometer.
Sampling: TRANSMISSION
Resolution: 4
Origin: BATTELLE MEMORIAL INSTITUTE (R. JAKOBSEN)
1/CM	TRANSMITTANCE
296.282	0.283
297.211	0.339
298.141	0.372
299.07	0.407
300	0.416
300.929	0.433
301.859	0.441
302.788	0.425
303.718	0.432
304.647	0.449
305.576	0.547
306.506	0.604
307.435	0.604
308.365	0.604
309.294	0.604
310.224	0.603
311.153	0.602
312.082	0.604
313.012	0.558
313.941	0.57
314.871	0.575
315.8	0.546
316.73	0.548
317.659	0.58
318.589	0.534
319.518	0.552
320.447	0.551
321.377	0.54
322.306	0.519
323.236	0.502
324.165	0.489
325.095	0.508
326.024	0.503
326.953	0.475
327.883	0.502
328.812	0.493
329.742	0.495
330.671	0.477
331.601	0.472
332.53	0.476
333.46	0.465
334.389	0.459
335.318	0.451
336.248	0.432
337.177	0.417
338.107	0.396
339.036	0.387
339.966	0.371
340.895	0.365
341.824	0.368
342.754	0.352
343.683	0.323
344.613	0.315
345.542	0.321
346.472	0.321
347.401	0.339
348.331	0.359
349.26	0.375
350.189	0.373
351.119	0.371
352.048	0.371
352.978	0.368
353.907	0.361
354.837	0.351
355.766	0.336
356.696	0.312
357.625	0.295
358.554	0.28
359.484	0.28
360.413	0.28
361.343	0.28
362.272	0.289
363.202	0.303
364.131	0.337
365.06	0.36
365.99	0.389
366.919	0.424
367.849	0.452
368.778	0.465
369.708	0.476
370.637	0.483
371.567	0.487
372.496	0.493
373.425	0.493
374.355	0.496
375.284	0.495
376.214	0.495
377.143	0.495
378.073	0.496
379.002	0.499
379.931	0.496
380.861	0.492
381.79	0.491
382.72	0.492
383.649	0.484
384.579	0.479
385.508	0.477
386.438	0.477
387.367	0.477
388.296	0.477
389.226	0.473
390.155	0.471
391.085	0.468
392.014	0.464
392.944	0.459
393.873	0.447
394.803	0.443
395.732	0.44
396.661	0.431
397.591	0.42
398.52	0.427
399.45	0.423
400.379	0.419
401.309	0.417
402.238	0.42
403.167	0.416
404.097	0.412
405.026	0.411
405.956	0.403
406.885	0.4
407.815	0.393
408.744	0.392
409.674	0.388
410.603	0.387
411.532	0.383
412.462	0.381
413.391	0.383
414.321	0.391
415.25	0.389
416.18	0.389
417.109	0.387
418.038	0.388
418.968	0.385
419.897	0.385
420.827	0.385
421.756	0.38
422.686	0.369
423.615	0.363
424.545	0.361
425.474	0.353
426.403	0.353
427.333	0.352
428.262	0.351
429.192	0.349
430.121	0.352
431.051	0.352
431.98	0.353
432.909	0.356
433.839	0.357
434.768	0.363
435.698	0.364
436.627	0.364
437.557	0.361
438.486	0.361
439.416	0.363
440.345	0.363
441.274	0.363
442.204	0.357
443.133	0.352
444.063	0.351
444.992	0.351
445.922	0.348
446.851	0.341
447.781	0.337
448.71	0.328
449.639	0.328
450.569	0.328
451.498	0.324
452.428	0.317
453.357	0.312
454.287	0.303
455.216	0.301
456.145	0.292
457.075	0.281
458.004	0.276
458.934	0.275
459.863	0.272
460.793	0.271
461.722	0.265
462.652	0.246
463.581	0.24
464.51	0.23
465.44	0.221
466.369	0.205
467.299	0.194
468.228	0.189
469.158	0.186
470.087	0.186
471.016	0.186
471.946	0.185
472.875	0.192
473.805	0.217
474.734	0.228
475.664	0.249
476.593	0.279
477.523	0.299
478.452	0.307
479.381	0.311
480.311	0.308
481.24	0.3
482.17	0.291
483.099	0.268
484.029	0.255
484.958	0.242
485.888	0.234
486.817	0.222
487.746	0.217
488.676	0.214
489.605	0.213
490.535	0.216
491.464	0.228
492.394	0.236
493.323	0.255
494.252	0.26
495.182	0.264
496.111	0.268
497.041	0.269
497.97	0.273
498.9	0.271
499.829	0.268
500.759	0.263
501.688	0.257
502.617	0.249
503.547	0.23
504.476	0.22
505.406	0.208
506.335	0.192
507.265	0.162
508.194	0.14
509.123	0.129
510.053	0.12
510.982	0.109
511.912	0.106
512.841	0.112
513.771	0.13
514.7	0.148
515.63	0.16
516.559	0.169
517.488	0.164
518.418	0.15
519.347	0.141
520.277	0.134
521.206	0.122
522.136	0.113
523.065	0.122
523.994	0.148
524.924	0.182
525.853	0.222
526.783	0.283
527.712	0.325
528.642	0.356
529.571	0.373
530.501	0.383
531.43	0.396
532.359	0.405
533.289	0.423
534.218	0.424
535.148	0.421
536.077	0.423
537.007	0.421
537.936	0.417
538.866	0.417
539.795	0.412
540.724	0.411
541.654	0.412
542.583	0.415
543.513	0.408
544.442	0.404
545.372	0.401
546.301	0.399
547.23	0.393
548.16	0.388
549.089	0.385
550.019	0.387
550.948	0.383
551.878	0.373
552.807	0.373
553.737	0.372
554.666	0.365
555.595	0.359
556.525	0.353
557.454	0.349
558.384	0.348
559.313	0.345
560.243	0.344
561.172	0.341
562.101	0.336
563.031	0.336
563.96	0.337
564.89	0.335
565.819	0.331
566.749	0.331
567.678	0.331
568.608	0.325
569.537	0.325
570.466	0.325
571.396	0.321
572.325	0.32
573.255	0.319
574.184	0.313
575.114	0.313
576.043	0.313
576.973	0.311
577.902	0.309
578.831	0.309
579.761	0.309
580.69	0.307
581.62	0.304
582.549	0.305
583.479	0.305
584.408	0.301
585.337	0.301
586.267	0.299
587.196	0.293
588.126	0.292
589.055	0.289
589.985	0.289
590.914	0.287
591.844	0.287
592.773	0.284
593.702	0.281
594.632	0.283
595.561	0.283
596.491	0.28
597.42	0.275
598.35	0.273
599.279	0.272
600.208	0.275
601.138	0.273
602.067	0.271
602.997	0.265
603.926	0.265
604.856	0.267
605.785	0.267
606.715	0.261
607.644	0.257
608.573	0.256
609.503	0.253
610.432	0.252
611.362	0.255
612.291	0.253
613.221	0.249
614.15	0.246
615.079	0.246
616.009	0.242
616.938	0.241
617.868	0.237
618.797	0.238
619.727	0.238
620.656	0.241
621.586	0.24
622.515	0.236
623.444	0.233
624.374	0.229
625.303	0.229
626.233	0.229
627.162	0.226
628.092	0.225
629.021	0.228
629.951	0.224
630.88	0.217
631.809	0.217
632.739	0.216
633.668	0.212
634.598	0.212
635.527	0.206
636.457	0.202
637.386	0.201
638.315	0.2
639.245	0.194
640.174	0.186
641.104	0.181
642.033	0.177
642.963	0.178
643.892	0.185
644.822	0.201
645.751	0.214
646.68	0.238
647.61	0.252
648.539	0.255
649.469	0.255
650.398	0.252
651.328	0.246
652.257	0.238
653.186	0.232
654.116	0.226
655.045	0.222
655.975	0.221
656.904	0.216
657.834	0.214
658.763	0.214
