Infrared Spectrum: Nonanedioic acid
Formula: C9 H16 O4
CAS: 123-99-9
State: SOLID (OIL MULL)
Class: COBLENTZ III
Instrument: BAIRD (GRATING)
Instrument parameters: NaCl PRISM
Resolution: 2
Origin: WYANDOTTE CHEMICALS CORP.
1/CM	TRANSMITTANCE
627	0.5852
636	0.6417
645	0.6687
654	0.6792
663	0.6163
672	0.4994
681	0.5325
690	0.6268
699	0.7239
708	0.7986
717	0.6978
726	0.3415
735	0.716
744	0.8198
753	0.8513
762	0.8463
771	0.7653
780	0.8028
789	0.8219
798	0.8005
807	0.7787
816	0.7554
825	0.7203
834	0.7063
843	0.6673
852	0.6199
861	0.5735
870	0.5189
879	0.4496
888	0.3775
897	0.3003
906	0.2335
915	0.1876
924	0.1428
933	0.1417
942	0.2255
951	0.3371
960	0.4168
969	0.4677
978	0.5117
987	0.5259
996	0.5972
1005	0.6102
1014	0.5822
1023	0.6646
1032	0.6917
1041	0.6968
1050	0.6743
1059	0.6627
1068	0.695
1077	0.6948
1086	0.6736
1095	0.6062
1104	0.393
1113	0.5257
1122	0.6502
1131	0.5043
1140	0.585
1149	0.6274
1158	0.6087
1167	0.5783
1176	0.5354
1185	0.4662
1194	0.2689
1203	0.308
1212	0.2916
1221	0.3523
1230	0.1901
1239	0.2378
1248	0.1505
1257	0.059
1266	0.2332
1275	0.1648
1284	0.1397
1293	0.1474
1302	0.0924
1311	0.0867
1320	0.1048
1329	0.2157
1338	0.4723
1347	0.4251
1356	0.4382
1365	0.4064
1374	0.3411
1383	0.2076
1392	0.3426
1401	0.3199
1410	0.1609
1419	0.0618
1428	0.1286
1437	0.116
1446	0.0808
1455	0.082
1464	0.0693
1473	0.0376
1482	0.0878
1491	0.5566
1500	0.6804
1509	0.7405
1518	0.7558
1527	0.7656
1536	0.771
1545	0.7704
1554	0.7621
1563	0.7589
1572	0.75
1581	0.7269
1590	0.7208
1599	0.6989
1608	0.6719
1617	0.6215
1626	0.552
1635	0.4637
1644	0.3856
1653	0.2726
1662	0.1746
1671	0.0958
1680	0.0288
1689	0.0152
1698	0.0136
1707	0.0139
1716	0.0147
1725	0.0234
1734	0.0512
1743	0.1782
1752	0.2533
1761	0.3279
1770	0.4237
1779	0.456
1788	0.4899
1797	0.5311
1806	0.585
1815	0.6155
1824	0.6352
1833	0.6518
1842	0.6657
1851	0.6757
1860	0.6847
1869	0.6926
1878	0.6998
1887	0.7071
1896	0.7145
1905	0.7217
1914	0.7291
1923	0.735
1932	0.7405
1941	0.7444
1950	0.7474
1959	0.7476
1968	0.7468
1977	0.7438
1986	0.7402
1995	0.7364
2004	0.7329
2013	0.7314
2022	0.7311
2031	0.7309
2040	0.7309
2049	0.7308
2058	0.7303
2067	0.7287
2076	0.724
2085	0.7169
2094	0.71
2103	0.7028
2112	0.6946
2121	0.6864
2130	0.6783
2139	0.6708
2148	0.6644
2157	0.6654
2166	0.6633
2175	0.6548
2184	0.6463
2193	0.6379
2202	0.6285
2211	0.6183
2220	0.6076
2229	0.5983
2238	0.5942
2247	0.5959
2256	0.5976
2265	0.5879
2274	0.5663
2283	0.5508
2292	0.5379
2301	0.5282
2310	0.5194
2319	0.5111
2328	0.5034
2337	0.4957
2346	0.4878
2355	0.4763
2364	0.4609
2373	0.4447
2382	0.4294
2391	0.4167
2400	0.4052
2409	0.3939
2418	0.3841
2427	0.3746
2436	0.3651
2445	0.3557
2454	0.3448
2463	0.3337
2472	0.3228
2481	0.3112
2490	0.2967
2499	0.2818
2508	0.2663
2517	0.2471
2526	0.235
2535	0.2301
2544	0.2305
2553	0.2309
2562	0.2283
2571	0.2155
2580	0.2048
2589	0.1985
2598	0.1948
2607	0.1909
2616	0.1882
2625	0.1856
2634	0.1829
2643	0.1808
2652	0.1798
2661	0.179
2670	0.1805
2679	0.1845
2688	0.1904
2697	0.1961
2706	0.1999
2715	0.1997
2724	0.1976
2733	0.1937
2742	0.1885
2751	0.1833
2760	0.1752
2769	0.1625
2778	0.1454
2787	0.1239
2796	0.1053
2805	0.0871
2814	0.065
2823	0.0334
2832	0.0106
2841	0.0046
2850	0.0046
2859	0.0046
2868	0.0045
2877	0.0045
2886	0.0044
2895	0.0044
2904	0.0043
2913	0.0043
2922	0.0042
2931	0.0042
2940	0.0042
2949	0.0041
2958	0.0044
2967	0.0068
2976	0.0149
2985	0.0471
2994	0.0732
3003	0.0827
3012	0.0911
3021	0.0978
3030	0.1036
3039	0.1093
3048	0.1157
3057	0.1262
3066	0.1367
3075	0.1453
3084	0.1535
3093	0.1613
3102	0.1747
3111	0.1912
3120	0.2063
3129	0.226
3138	0.2398
3147	0.2534
3156	0.2718
3165	0.2964
3174	0.3189
3183	0.3416
3192	0.3642
3201	0.3867
3210	0.4109
3219	0.4291
3228	0.4456
3237	0.4845
3246	0.5476
3255	0.586
3264	0.6166
3273	0.6369
3282	0.6595
3291	0.6865
3300	0.7098
3309	0.7275
3318	0.7494
3327	0.7783
3336	0.8066
3345	0.832
3354	0.8553
3363	0.8781
3372	0.8988
3381	0.9186
3390	0.9238
3399	0.9257
3408	0.9273
3417	0.9288
3426	0.9305
3435	0.9322
3444	0.9346
3453	0.9371
3462	0.9404
3471	0.9438
3480	0.947
3489	0.9481
3498	0.948
3507	0.9478
3516	0.9477
3525	0.9465
3534	0.9453
3543	0.9441
3552	0.9429
3561	0.9418
3570	0.9406
3579	0.9394
3588	0.9383
3597	0.9369
3606	0.9355
3615	0.9336
3624	0.9304
3633	0.9264
3642	0.9221
3651	0.9186
3660	0.9154
3669	0.912
3678	0.9086
3687	0.9051
3696	0.9018
3705	0.8987
3714	0.8958
3723	0.8928
3732	0.8898
3741	0.8871
3750	0.8844
3759	0.8817
3768	0.8789
3777	0.8761
3786	0.8732
3795	0.8706
3804	0.8688
3813	0.8671
3822	0.8663
3831	0.8659
3840	0.8656
3849	0.8641
3858	0.8603
3867	0.8554
3876	0.8516
3885	0.8487
3894	0.8457
3903	0.8431
3912	0.8407
3921	0.8385
3930	0.8362
3939	0.8339
3948	0.8314
3957	0.829
3966	0.8266
3975	0.8241
3984	0.8217
3993	0.8193
