Infrared Spectrum: Formamide, 1,1'-azobis-
Formula: C2 H4 N4 O2
CAS: 123-77-3
State: SOLID (SPLIT MULL)
Class: COBLENTZ III
Instrument: DOW KBr FOREPRISM-GRATING
Instrument parameters: BLAZED AT 3.5, 12.0, 20.0 MICRON AND CHANGED AT 5.0, 7.5, 14.9 MICRON
Sampling: TRANSMISSION
Resolution: 2
Origin: DOW CHEMICAL COMPANY
1/CM	TRANSMITTANCE
3812	0.8253
3803	0.8261
3794	0.8271
3785	0.8278
3776	0.8282
3767	0.829
3758	0.8301
3749	0.8311
3740	0.8325
3731	0.8338
3722	0.8353
3713	0.8371
3704	0.8388
3695	0.8405
3686	0.8421
3677	0.8439
3668	0.8454
3659	0.8465
3650	0.8477
3641	0.8483
3632	0.8488
3623	0.8492
3614	0.8498
3605	0.8506
3596	0.8514
3587	0.852
3578	0.8525
3569	0.8525
3560	0.8516
3551	0.8501
3542	0.848
3533	0.8468
3524	0.846
3515	0.844
3506	0.8421
3497	0.8399
3488	0.8363
3479	0.8324
3470	0.8284
3461	0.8235
3452	0.8151
3443	0.8021
3434	0.7775
3425	0.7433
3416	0.6969
3407	0.6626
3398	0.629
3389	0.5895
3380	0.5138
3371	0.3757
3362	0.2538
3353	0.0893
3344	0.0561
3335	0.0555
3326	0.1063
3317	0.1574
3308	0.218
3299	0.254
3290	0.2883
3281	0.3132
3272	0.3334
3263	0.3425
3254	0.3408
3245	0.3334
3236	0.3185
3227	0.295
3218	0.2604
3209	0.2238
3200	0.1976
3191	0.1812
3182	0.1733
3173	0.1769
3164	0.1919
3155	0.2093
3146	0.2271
3137	0.2492
3128	0.2745
3119	0.3038
3110	0.3357
3101	0.3576
3092	0.3889
3083	0.4203
3074	0.4452
3065	0.4676
3056	0.491
3047	0.5212
3038	0.5462
3029	0.5666
3020	0.5801
3011	0.5931
3002	0.6046
2993	0.6159
2984	0.6259
2975	0.6357
2966	0.6455
2957	0.6554
2948	0.6651
2939	0.6746
2930	0.6835
2921	0.6908
2912	0.6968
2903	0.7018
2894	0.7074
2885	0.7135
2876	0.7191
2867	0.7241
2858	0.7269
2849	0.7276
2840	0.7257
2831	0.7274
2822	0.743
2813	0.7525
2804	0.7589
2795	0.7649
2786	0.7714
2777	0.7718
2768	0.7667
2759	0.7608
2750	0.7538
2741	0.7525
2732	0.756
2723	0.7628
2714	0.7693
2705	0.7749
2696	0.7788
2687	0.7821
2678	0.7858
2669	0.7878
2660	0.7898
2651	0.7918
2642	0.7938
2633	0.7957
2624	0.7968
2615	0.798
2606	0.8006
2597	0.8035
2588	0.8065
2579	0.8098
2570	0.8131
2561	0.8158
2552	0.8184
2543	0.8209
2534	0.8228
2525	0.8248
2516	0.8265
2507	0.8271
2498	0.8278
2489	0.8282
2480	0.8284
2471	0.8286
2462	0.8287
2453	0.8286
2444	0.829
2435	0.8296
2426	0.8311
2417	0.8325
2408	0.8341
2399	0.8356
2390	0.8373
2381	0.8389
2372	0.8399
2363	0.8411
2354	0.8417
2345	0.8413
2336	0.8464
2327	0.8258
2318	0.828
2309	0.8339
2300	0.8381
2291	0.8382
2282	0.8381
2273	0.8395
2264	0.8425
2255	0.8481
2246	0.842
2237	0.8368
2228	0.8395
2219	0.8582
2210	0.8611
2201	0.8632
2192	0.8654
2183	0.8675
2174	0.87
2165	0.8721
2156	0.8743
2147	0.8762
2138	0.8781
2129	0.8801
2120	0.882
2111	0.884
2102	0.886
2093	0.8881
2084	0.8903
2075	0.8924
2066	0.8936
2057	0.8948
2048	0.8961
2039	0.896
2030	0.9021
2021	0.9028
2012	0.9038
2003	0.9045
1994	0.9066
1985	0.9175
1976	0.9212
1967	0.9228
1958	0.9461
1949	0.9302
1940	0.9328
1931	0.9344
1922	0.9351
1913	0.935
1904	0.935
1895	0.9353
1886	0.9333
1877	0.931
1868	0.9265
1859	0.922
1850	0.9243
1841	0.9267
1832	0.9258
1823	0.9196
1814	0.8968
1805	0.8697
1796	0.8582
1787	0.835
1778	0.7765
1769	0.5918
1760	0.3802
1751	0.2134
1742	0.0816
1733	0.0271
1724	0.022
1715	0.1627
1706	0.4304
1697	0.4891
1688	0.5065
1679	0.6024
1670	0.6785
1661	0.7008
1652	0.7057
1643	0.598
1634	0.4836
1625	0.537
1616	0.5908
1607	0.6255
1598	0.654
1589	0.6806
1580	0.7004
1571	0.7195
1562	0.7298
1553	0.7312
1544	0.7208
1535	0.7035
1526	0.6834
1517	0.6665
1508	0.6515
1499	0.6351
1490	0.6204
1481	0.6182
1472	0.6188
1463	0.6167
1454	0.6281
1445	0.6424
1436	0.6487
1427	0.6441
1418	0.6403
1409	0.6387
1400	0.643
1391	0.6501
1382	0.6515
1373	0.6381
1364	0.2166
1355	0.5095
1346	0.6
1337	0.6167
1328	0.4998
1319	0.5857
1310	0.6553
1301	0.7151
1292	0.7501
1283	0.7675
1274	0.7765
1265	0.7842
1256	0.791
1247	0.7971
1238	0.8025
1229	0.8084
1220	0.815
1211	0.8168
1202	0.8194
1193	0.8217
1184	0.8245
1175	0.8212
1166	0.8251
1157	0.8281
1148	0.8248
1139	0.826
1130	0.8122
1121	0.546
1112	0.363
1103	0.7093
1094	0.7694
1085	0.7806
1076	0.7892
1067	0.7998
1058	0.8151
1049	0.8291
1040	0.8425
1031	0.8559
1022	0.8703
1013	0.8794
1004	0.8858
995	0.8925
986	0.9032
977	0.906
968	0.9068
959	0.9114
950	0.921
941	0.9247
932	0.9249
923	0.9257
914	0.9218
905	0.9147
896	0.9103
887	0.9094
878	0.9083
869	0.8757
860	0.621
851	0.3377
842	0.425
833	0.7618
824	0.8103
815	0.7775
806	0.5416
797	0.6592
788	0.5688
779	0.4796
770	0.4096
761	0.2884
752	0.2131
743	0.1953
734	0.2113
725	0.2534
716	0.3414
707	0.444
698	0.5569
689	0.6436
680	0.7061
671	0.766
662	0.8018
653	0.828
644	0.8371
635	0.3232
626	0.5378
617	0.7765
608	0.8577
599	0.8801
590	0.8995
581	0.8878
572	0.8632
563	0.703
554	0.3204
545	0.7748
536	0.8393
527	0.8731
518	0.8859
509	0.8868
500	0.89
491	0.8881
482	0.871
473	0.8715
464	0.8684
455	0.8705
446	0.8749
437	0.8848
428	0.8902
419	0.8949
410	0.9007
401	0.9056
392	0.9085
383	0.9113
