Infrared Spectrum: MYRCENE
Formula: C10 H16
CAS: 123-35-3
Class: COBLENTZ
Instrument: Not specified, most likely a prism, grating, or hybrid spectrometer.
Sampling: TRANSMISSION
Resolution: 4
Origin: INTERNATIONAL FLAVORS & FRAGRANCES, INC.
MICROMETERS	TRANSMITTANCE
2.005	0.912
2.03757	0.913
2.07014	0.912
2.10271	0.906
2.13528	0.903
2.16784	0.902
2.20041	0.892
2.23298	0.875
2.26555	0.858
2.29812	0.863
2.33069	0.878
2.36326	0.886
2.39583	0.887
2.4284	0.886
2.46096	0.892
2.49353	0.898
2.5261	0.9
2.55867	0.902
2.59124	0.909
2.62381	0.906
2.65638	0.912
2.68895	0.916
2.72152	0.916
2.75408	0.916
2.78665	0.915
2.81922	0.91
2.85179	0.908
2.88436	0.903
2.91693	0.902
2.9495	0.903
2.98207	0.91
3.01464	0.91
3.0472	0.907
3.07977	0.903
3.11234	0.894
3.14491	0.798
3.17748	0.513
3.21005	0.637
3.24262	0.582
3.27519	0.237
3.30776	0.153
3.34032	0.138
3.37289	0.101
3.40546	0.222
3.43803	0.234
3.4706	0.559
3.50317	0.754
3.53574	0.832
3.56831	0.865
3.60088	0.846
3.63344	0.853
3.66601	0.895
3.69858	0.901
3.73115	0.909
3.76372	0.915
3.79629	0.916
3.82886	0.916
3.86143	0.921
3.894	0.922
3.92656	0.923
3.95913	0.925
3.9917	0.931
4.02427	0.929
4.05684	0.928
4.08941	0.928
4.12198	0.928
4.15455	0.928
4.18712	0.928
4.21968	0.928
4.25225	0.939
4.28482	0.95
4.31739	0.947
4.34996	0.939
4.38253	0.939
4.4151	0.94
4.44767	0.942
4.48024	0.942
4.5128	0.943
4.54537	0.942
4.57794	0.942
4.61051	0.942
4.64308	0.939
4.67565	0.94
4.70822	0.94
4.74079	0.94
4.77336	0.942
4.80592	0.942
4.83849	0.942
4.87106	0.942
4.90363	0.942
4.9362	0.942
4.96877	0.935
5.00134	0.93
5.03391	0.921
5.06648	0.923
5.09905	0.932
5.13161	0.937
5.16418	0.939
5.19675	0.94
5.22932	0.938
5.26189	0.93
5.29446	0.931
5.32703	0.93
5.3596	0.927
5.39217	0.912
5.42473	0.873
5.4573	0.805
5.48987	0.766
5.52244	0.755
5.55501	0.76
5.58758	0.834
5.62015	0.879
5.65272	0.9
5.68529	0.905
5.71785	0.908
5.75042	0.915
5.78299	0.916
5.81556	0.917
5.84813	0.915
5.8807	0.908
5.91327	0.863
5.94584	0.813
5.97841	0.847
6.01097	0.833
6.04354	0.789
6.07611	0.715
6.10868	0.746
6.14125	0.802
6.17382	0.766
6.20639	0.444
6.23896	0.355
6.27153	0.625
6.30409	0.721
6.33666	0.796
6.36923	0.825
6.4018	0.85
6.43437	0.861
6.46694	0.866
6.49951	0.868
6.53208	0.863
6.56465	0.859
6.59721	0.854
6.62978	0.848
6.66235	0.836
6.69492	0.815
6.72749	0.768
6.76006	0.709
6.79263	0.469
6.8252	0.384
6.85777	0.292
6.89033	0.292
6.9229	0.306
6.95547	0.447
6.98804	0.53
7.02061	0.586
7.05318	0.67
7.08575	0.69
7.11832	0.655
7.15089	0.629
7.18345	0.513
7.21602	0.391
7.24859	0.442
7.28116	0.633
7.31373	0.712
7.3463	0.751
7.37887	0.752
7.41144	0.744
7.44401	0.767
7.47657	0.768
7.50914	0.753
7.54171	0.804
7.57428	0.819
7.60685	0.811
7.63942	0.821
7.67199	0.829
7.70456	0.812
7.73713	0.789
7.76969	0.833
7.80226	0.854
7.83483	0.858
7.8674	0.862
7.89997	0.854
7.93254	0.861
7.96511	0.861
7.99768	0.857
8.03025	0.85
8.06281	0.842
8.09538	0.832
8.12795	0.833
8.16052	0.837
8.19309	0.832
8.22566	0.834
8.25823	0.84
8.2908	0.851
8.32337	0.855
8.35593	0.864
8.3885	0.875
8.42107	0.879
8.45364	0.881
8.48621	0.884
8.51878	0.886
8.55135	0.884
8.58392	0.881
8.61649	0.873
8.64905	0.859
8.68162	0.854
8.71419	0.855
8.74676	0.853
8.77933	0.861
8.8119	0.876
8.84447	0.88
8.87704	0.883
8.90961	0.875
8.94217	0.842
8.97474	0.774
9.00731	0.635
9.03988	0.596
9.07245	0.688
9.10502	0.754
9.13759	0.807
9.17016	0.836
9.20273	0.848
9.23529	0.858
9.26786	0.858
9.30043	0.849
9.333	0.826
9.36557	0.811
9.39814	0.799
9.43071	0.791
9.46328	0.774
9.49585	0.777
9.52841	0.807
9.56098	0.825
9.59355	0.822
9.62612	0.821
9.65869	0.822
9.69126	0.822
9.72383	0.818
9.7564	0.812
9.78897	0.807
9.82153	0.804
9.8541	0.798
9.88667	0.795
9.91924	0.775
9.95181	0.747
9.98438	0.681
10.0169	0.552
10.0495	0.258
10.0821	0.167
10.1147	0.25
10.1472	0.388
10.1798	0.532
10.2124	0.629
10.2449	0.692
10.2775	0.74
10.3101	0.784
10.3426	0.805
10.3752	0.815
10.4078	0.822
10.4403	0.829
10.4729	0.834
10.5055	0.836
10.5381	0.837
10.5706	0.839
10.6032	0.837
10.6358	0.835
10.6683	0.833
10.7009	0.831
10.7335	0.822
10.766	0.806
10.7986	0.785
10.8312	0.748
10.8637	0.694
10.8963	0.606
10.9289	0.478
10.9614	0.326
10.994	0.211
11.0266	0.091
11.0592	0.057
11.0917	0.048
11.1243	0.041
11.1569	0.033
11.1894	0.03
11.222	0.031
11.2546	0.041
11.2871	0.15
11.3197	0.3
11.3523	0.43
11.3848	0.545
11.4174	0.629
11.45	0.688
11.4825	0.738
11.5151	0.767
11.5477	0.795
11.5803	0.806
11.6128	0.81
11.6454	0.811
11.678	0.805
11.7105	0.788
11.7431	0.763
11.7757	0.744
11.8082	0.734
11.8408	0.717
11.8734	0.701
11.9059	0.692
11.9385	0.692
11.9711	0.689
12.0037	0.674
12.0362	0.657
12.0688	0.635
12.1014	0.63
12.1339	0.631
12.1665	0.631
12.1991	0.631
12.2316	0.634
12.2642	0.641
12.2968	0.66
12.3293	0.682
12.3619	0.711
12.3945	0.734
12.427	0.752
12.4596	0.761
12.4922	0.767
12.5248	0.767
12.5573	0.775
12.5899	0.795
12.6225	0.805
12.655	0.814
12.6876	0.82
12.7202	0.824
12.7527	0.832
12.7853	0.837
12.8179	0.842
12.8504	0.851
12.883	0.861
12.9156	0.864
12.9481	0.866
12.9807	0.868
13.0133	0.871
13.0459	0.868
13.0784	0.862
13.111	0.855
13.1436	0.837
13.1761	0.819
13.2087	0.796
13.2413	0.797
13.2738	0.805
13.3064	0.807
13.339	0.795
13.3715	0.789
13.4041	0.778
13.4367	0.778
13.4693	0.778
13.5018	0.782
13.5344	0.791
13.567	0.793
13.5995	0.8
13.6321	0.802
13.6647	0.805
13.6972	0.815
13.7298	0.826
13.7624	0.836
13.7949	0.842
13.8275	0.847
13.8601	0.851
13.8926	0.85
13.9252	0.85
13.9578	0.849
13.9904	0.848
14.0229	0.849
14.0555	0.847
14.0881	0.842
14.1206	0.84
14.1532	0.837
14.1858	0.835
14.2183	0.834
14.2509	0.834
14.2835	0.829
14.316	0.828
14.3486	0.825
14.3812	0.822
14.4137	0.819
14.4463	0.813
14.4789	0.811
14.5115	0.807
14.544	0.804
14.5766	0.798
14.6092	0.793
14.6417	0.788
14.6743	0.776
14.7069	0.768
14.7394	0.755
14.772	0.75
14.8046	0.743
14.8371	0.738
14.8697	0.738
14.9023	0.738
14.9349	0.74
14.9674	0.743
15	0.748
