Infrared Spectrum: HYDROQUINONE
Formula: C6 H6 O2
CAS: 123-31-9
State: SOLID (SPLIT MULL)
Class: COBLENTZ III
Instrument: DOW KBr FOREPRISM-GRATING
Instrument parameters: BLAZED AT 3.5, 12.0, 20.0 MICRON AND CHANGED AT 5.0, 7.5, 14.9 MICRON
Sampling: TRANSMISSION
Resolution: 2
Origin: DOW CHEMICAL COMPANY
1/CM	TRANSMITTANCE
3802	0.573
3793	0.5773
3784	0.5818
3775	0.5864
3766	0.59
3757	0.5929
3748	0.5959
3739	0.5992
3730	0.6026
3721	0.606
3712	0.6093
3703	0.6125
3694	0.6158
3685	0.6196
3676	0.6235
3667	0.6274
3658	0.6317
3649	0.6362
3640	0.6407
3631	0.6454
3622	0.6505
3613	0.6554
3604	0.6596
3595	0.6633
3586	0.6668
3577	0.6718
3568	0.6768
3559	0.681
3550	0.6842
3541	0.6867
3532	0.6886
3523	0.6893
3514	0.689
3505	0.6876
3496	0.6848
3487	0.681
3478	0.6746
3469	0.6619
3460	0.6467
3451	0.6297
3442	0.6108
3433	0.5798
3424	0.5451
3415	0.5219
3406	0.4997
3397	0.4774
3388	0.4552
3379	0.4202
3370	0.3875
3361	0.3552
3352	0.3169
3343	0.2769
3334	0.2433
3325	0.2033
3316	0.1734
3307	0.1533
3298	0.1346
3289	0.1152
3280	0.0957
3271	0.0863
3262	0.0821
3253	0.0802
3244	0.0787
3235	0.0775
3226	0.0771
3217	0.0774
3208	0.0789
3199	0.0801
3190	0.0822
3181	0.0847
3172	0.0888
3163	0.091
3154	0.0933
3145	0.0975
3136	0.1081
3127	0.1229
3118	0.1355
3109	0.1441
3100	0.153
3091	0.1634
3082	0.1754
3073	0.1904
3064	0.2032
3055	0.2197
3046	0.2373
3037	0.1903
3028	0.2203
3019	0.2762
3010	0.2894
3001	0.2998
2992	0.3113
2983	0.3234
2974	0.3355
2965	0.344
2956	0.3526
2947	0.362
2938	0.3718
2929	0.3818
2920	0.3905
2911	0.3991
2902	0.4087
2893	0.4138
2884	0.4139
2875	0.4125
2866	0.4117
2857	0.4204
2848	0.4255
2839	0.4251
2830	0.4254
2821	0.4382
2812	0.4512
2803	0.474
2794	0.4878
2785	0.4957
2776	0.5005
2767	0.5038
2758	0.5045
2749	0.4962
2740	0.4883
2731	0.4824
2722	0.4783
2713	0.4773
2704	0.4796
2695	0.488
2686	0.4994
2677	0.5229
2668	0.5452
2659	0.5606
2650	0.5694
2641	0.5696
2632	0.5651
2623	0.5601
2614	0.5556
2605	0.5538
2596	0.5528
2587	0.5528
2578	0.5554
2569	0.5596
2560	0.5693
2551	0.5847
2542	0.6009
2533	0.6148
2524	0.6233
2515	0.6273
2506	0.6253
2497	0.621
2488	0.6172
2479	0.6154
2470	0.6157
2461	0.6181
2452	0.6249
2443	0.6323
2434	0.6401
2425	0.6471
2416	0.6533
2407	0.6597
2398	0.6665
2389	0.67
2380	0.6678
2371	0.6651
2362	0.6712
2353	0.6772
2344	0.6833
2335	0.6892
2326	0.6951
2317	0.701
2308	0.7068
2299	0.7125
2290	0.7183
2281	0.7237
2272	0.7291
2263	0.7351
2254	0.7415
2245	0.7478
2236	0.7548
2227	0.7615
2218	0.7683
2209	0.7751
2200	0.7788
2191	0.7821
2182	0.7864
2173	0.7905
2164	0.7949
2155	0.7993
2146	0.8039
2137	0.8085
2128	0.8132
2119	0.8175
2110	0.821
2101	0.8234
2092	0.8255
2083	0.8257
2074	0.8302
2065	0.8345
2056	0.8367
2047	0.8399
2038	0.8418
2029	0.8394
2020	0.8389
2011	0.84
2002	0.8401
1993	0.8208
1984	0.811
1975	0.8155
1966	0.829
1957	0.8321
1948	0.8314
1939	0.834
1930	0.8336
1921	0.8391
1912	0.8439
1903	0.8462
1894	0.8492
1885	0.8528
1876	0.8368
1867	0.7975
1858	0.7651
1849	0.8095
1840	0.83
1831	0.842
1822	0.8515
1813	0.8583
1804	0.8617
1795	0.8654
1786	0.864
1777	0.8671
1768	0.8707
1759	0.8712
1750	0.8682
1741	0.8655
1732	0.8802
1723	0.8831
1714	0.8857
1705	0.8867
1696	0.8877
1687	0.8883
1678	0.8897
1669	0.8917
1660	0.8853
1651	0.875
1642	0.873
1633	0.8588
1624	0.8732
1615	0.8707
1606	0.8788
1597	0.902
1588	0.9128
1579	0.9218
1570	0.9302
1561	0.9241
1552	0.9443
1543	0.903
1534	0.6556
1525	0.1712
1516	0.1421
1507	0.4321
1498	0.5356
1489	0.3849
1480	0.061
1471	0.0826
1462	0.1612
1453	0.4046
1444	0.5553
1435	0.5962
1426	0.7061
1417	0.7321
1408	0.7181
1399	0.6614
1390	0.6749
1381	0.6557
1372	0.6036
1363	0.4216
1354	0.37
1345	0.4624
1336	0.5586
1327	0.6411
1318	0.6805
1309	0.7411
1300	0.7835
1291	0.8108
1282	0.8151
1273	0.7596
1264	0.4195
1255	0.4692
1246	0.2246
1237	0.2857
1228	0.1991
1219	0.1565
1210	0.0821
1201	0.1782
1192	0.1202
1183	0.4042
1174	0.5727
1165	0.5769
1156	0.6828
1147	0.7318
1138	0.7643
1129	0.7799
1120	0.7475
1111	0.7911
1102	0.4245
1093	0.7814
1084	0.8256
1075	0.8408
1066	0.8505
1057	0.8636
1048	0.8708
1039	0.8768
1030	0.8816
1021	0.8821
1012	0.8263
1003	0.8709
994	0.8792
985	0.8754
976	0.8698
967	0.8691
958	0.8712
949	0.8704
940	0.839
931	0.8661
922	0.8571
913	0.8687
904	0.86
895	0.8454
886	0.8606
877	0.87
868	0.8677
859	0.8505
850	0.8417
841	0.7078
832	0.2687
823	0.5875
814	0.6543
805	0.6685
796	0.6558
787	0.5849
778	0.462
769	0.2863
760	0.1496
751	0.6118
742	0.6156
733	0.6323
724	0.616
715	0.6632
706	0.6255
697	0.636
688	0.6646
679	0.7072
670	0.7503
661	0.7717
652	0.7782
643	0.7207
634	0.7007
625	0.6319
616	0.5847
607	0.62
598	0.7265
589	0.7841
580	0.8182
571	0.8384
562	0.8474
553	0.8532
544	0.8558
535	0.8544
526	0.6574
517	0.5575
508	0.9081
499	0.921
490	0.9163
481	0.9408
472	0.9296
463	0.923
454	0.9535
445	0.9582
436	0.9457
427	0.9404
418	0.9148
409	0.9211
400	0.9541
391	0.9695
382	0.9805
