Infrared Spectrum: 3-CHLOROMETHYL HEPTANE
Formula: C8 H17 Cl
CAS: 123-04-6
State: LIQUID
Class: COBLENTZ
Instrument: PERKIN-ELMER
Sampling: TRANSMISSION
Path length: 0.0024 CM
Resolution: 4
Origin: STANDARD OIL OF OHIO
MICROMETERS	TRANSMITTANCE
2.007	0.971
2.04064	0.971
2.07429	0.971
2.10793	0.972
2.14158	0.974
2.17522	0.974
2.20886	0.969
2.24251	0.954
2.27615	0.918
2.30979	0.91
2.34344	0.922
2.37708	0.927
2.41073	0.93
2.44437	0.935
2.47801	0.945
2.51166	0.957
2.5453	0.961
2.57895	0.964
2.61259	0.966
2.64623	0.966
2.67988	0.967
2.71352	0.966
2.74716	0.969
2.78081	0.972
2.81445	0.974
2.8481	0.976
2.88174	0.972
2.91538	0.967
2.94903	0.964
2.98267	0.964
3.01632	0.964
3.04996	0.961
3.0836	0.949
3.11725	0.935
3.15089	0.93
3.18454	0.922
3.21818	0.908
3.25182	0.869
3.28547	0.756
3.31911	0.266
3.35275	0.06
3.3864	0.011
3.42004	0.064
3.45369	0.079
3.48733	0.092
3.52097	0.657
3.55462	0.805
3.58826	0.869
3.62191	0.881
3.65555	0.875
3.68919	0.898
3.72284	0.905
3.75648	0.915
3.79012	0.929
3.82377	0.93
3.85741	0.94
3.89106	0.951
3.9247	0.956
3.95834	0.961
3.99199	0.967
4.02563	0.967
4.05928	0.967
4.09292	0.966
4.12656	0.961
4.16021	0.959
4.19385	0.957
4.22749	0.957
4.26114	0.961
4.29478	0.964
4.32843	0.967
4.36207	0.967
4.39571	0.967
4.42936	0.969
4.463	0.971
4.49665	0.969
4.53029	0.971
4.56393	0.972
4.59758	0.972
4.63122	0.972
4.66487	0.972
4.69851	0.972
4.73215	0.972
4.7658	0.974
4.79944	0.974
4.83308	0.976
4.86673	0.972
4.90037	0.972
4.93402	0.974
4.96766	0.974
5.0013	0.976
5.03495	0.976
5.06859	0.978
5.10224	0.978
5.13588	0.976
5.16952	0.976
5.20317	0.976
5.23681	0.978
5.27045	0.976
5.3041	0.976
5.33774	0.976
5.37139	0.974
5.40503	0.972
5.43867	0.971
5.47232	0.974
5.50596	0.972
5.53961	0.971
5.57325	0.969
5.60689	0.971
5.64054	0.969
5.67418	0.969
5.70782	0.967
5.74147	0.966
5.77511	0.962
5.80876	0.956
5.8424	0.954
5.87604	0.954
5.90969	0.952
5.94333	0.952
5.97698	0.954
6.01062	0.952
6.04426	0.952
6.07791	0.952
6.11155	0.952
6.1452	0.951
6.17884	0.945
6.21248	0.942
6.24613	0.939
6.27977	0.94
6.31341	0.94
6.34706	0.939
6.3807	0.939
6.41435	0.937
6.44799	0.932
6.48163	0.929
6.51528	0.92
6.54892	0.913
6.58257	0.903
6.61621	0.891
6.64985	0.88
6.6835	0.846
6.71714	0.716
6.75078	0.53
6.78443	0.185
6.81807	0.125
6.85172	0.17
6.88536	0.229
6.919	0.283
6.95265	0.587
6.98629	0.75
7.01994	0.805
7.05358	0.839
7.08722	0.849
7.12087	0.846
7.15451	0.82
7.18815	0.67
7.2218	0.385
7.25544	0.597
7.28909	0.746
7.32273	0.775
7.35637	0.777
7.39002	0.756
7.42366	0.753
7.45731	0.77
7.49095	0.8
7.52459	0.793
7.55824	0.739
7.59188	0.724
7.62553	0.706
7.65917	0.569
7.69281	0.396
7.72646	0.363
7.7601	0.557
7.79374	0.625
7.82739	0.625
7.86103	0.628
7.89468	0.684
7.92832	0.741
7.96196	0.783
7.99561	0.805
8.02925	0.814
8.0629	0.826
8.09654	0.858
8.13018	0.875
8.16383	0.869
8.19747	0.858
8.23111	0.856
8.26476	0.876
8.2984	0.89
8.33205	0.891
8.36569	0.881
8.39933	0.88
8.43298	0.881
8.46662	0.883
8.50027	0.89
8.53391	0.902
8.56755	0.903
8.6012	0.888
8.63484	0.88
8.66848	0.88
8.70213	0.876
8.73577	0.883
8.76942	0.89
8.80306	0.896
8.8367	0.893
8.87035	0.888
8.90399	0.886
8.93764	0.881
8.97128	0.866
9.00492	0.841
9.03857	0.829
9.07221	0.829
9.10586	0.829
9.1395	0.826
9.17314	0.841
9.20679	0.853
9.24043	0.853
9.27407	0.854
9.30772	0.858
9.34136	0.863
9.37501	0.866
9.40865	0.869
9.44229	0.88
9.47594	0.886
9.50958	0.888
9.54323	0.885
9.57687	0.881
9.61051	0.883
9.64416	0.883
9.6778	0.881
9.71144	0.881
9.74509	0.883
9.77873	0.883
9.81238	0.881
9.84602	0.885
9.87966	0.885
9.91331	0.885
9.94695	0.876
9.9806	0.868
10.0142	0.859
10.0479	0.854
10.0815	0.849
10.1152	0.846
10.1488	0.826
10.1825	0.815
10.2161	0.809
10.2497	0.798
10.2834	0.771
10.317	0.777
10.3507	0.81
10.3843	0.837
10.418	0.851
10.4516	0.859
10.4853	0.866
10.5189	0.875
10.5525	0.876
10.5862	0.869
10.6198	0.864
10.6535	0.858
10.6871	0.854
10.7208	0.853
10.7544	0.851
10.788	0.846
10.8217	0.839
10.8553	0.849
10.889	0.859
10.9226	0.864
10.9563	0.861
10.9899	0.849
11.0236	0.826
11.0572	0.804
11.0908	0.8
11.1245	0.819
11.1581	0.836
11.1918	0.849
11.2254	0.858
11.2591	0.859
11.2927	0.856
11.3264	0.849
11.36	0.839
11.3936	0.839
11.4273	0.853
11.4609	0.88
11.4946	0.9
11.5282	0.91
11.5619	0.917
11.5955	0.917
11.6291	0.918
11.6628	0.918
11.6964	0.917
11.7301	0.917
11.7637	0.917
11.7974	0.912
11.831	0.903
11.8647	0.893
11.8983	0.876
11.9319	0.859
11.9656	0.861
11.9992	0.876
12.0329	0.885
12.0665	0.893
12.1002	0.9
12.1338	0.903
12.1674	0.903
12.2011	0.903
12.2347	0.9
12.2684	0.895
12.302	0.891
12.3357	0.883
12.3693	0.88
12.403	0.873
12.4366	0.864
12.4702	0.853
12.5039	0.839
12.5375	0.827
12.5712	0.804
12.6048	0.755
12.6385	0.68
12.6721	0.633
12.7057	0.603
12.7394	0.584
12.773	0.579
12.8067	0.587
12.8403	0.597
12.874	0.591
12.9076	0.552
12.9413	0.505
12.9749	0.481
13.0085	0.494
13.0422	0.53
13.0758	0.582
13.1095	0.63
13.1431	0.679
13.1768	0.712
13.2104	0.738
13.2441	0.746
13.2777	0.743
13.3113	0.733
13.345	0.721
13.3786	0.702
13.4123	0.677
13.4459	0.645
13.4796	0.594
13.5132	0.515
13.5468	0.435
13.5805	0.388
13.6141	0.369
13.6478	0.358
13.6814	0.349
13.7151	0.332
13.7487	0.324
13.7824	0.319
13.816	0.326
13.8496	0.346
13.8833	0.376
13.9169	0.417
13.9506	0.466
13.9842	0.505
14.0179	0.577
14.0515	0.63
14.0851	0.689
14.1188	0.724
14.1524	0.751
14.1861	0.761
14.2197	0.771
14.2534	0.775
14.287	0.777
14.3207	0.771
14.3543	0.761
14.3879	0.743
14.4216	0.711
14.4552	0.63
14.4889	0.564
14.5225	0.462
14.5562	0.381
14.5898	0.344
14.6234	0.331
14.6571	0.332
14.6907	0.356
14.7244	0.413
14.758	0.488
14.7917	0.542
14.8253	0.592
14.859	0.641
14.8926	0.69
14.9262	0.716
14.9599	0.751
14.9935	0.77
15.0272	0.777
15.0608	0.785
15.0945	0.792
15.1281	0.797
15.1618	0.802
15.1954	0.804
15.229	0.804
15.2627	0.807
15.2963	0.809
15.33	0.81
15.3636	0.81
