Infrared Spectrum: 3,3'-THIODIPROPANOIC ACID, DIDODECYL ESTER
Formula: C30 H58 O4 S
CAS: 123-28-4
State: SOLID (NUJOL MULL)
Class: COBLENTZ III
Instrument: PERKIN-ELMER 21 (GRATING)
Instrument parameters: NaCl PRISM
Sampling: TRANSMISSION
Resolution: 2
Origin: CHEMIR LABORATORIES
MICROMETERS	TRANSMITTANCE
1.982	0.862
2.01952	0.863
2.05703	0.863
2.09455	0.863
2.13207	0.867
2.16958	0.868
2.2071	0.87
2.24462	0.872
2.28213	0.874
2.31965	0.863
2.35717	0.842
2.39468	0.854
2.4322	0.854
2.46971	0.855
2.50723	0.868
2.54475	0.875
2.58226	0.877
2.61978	0.881
2.6573	0.885
2.69481	0.889
2.73233	0.891
2.76985	0.889
2.80736	0.885
2.84488	0.884
2.8824	0.891
2.91991	0.885
2.95743	0.881
2.99495	0.889
3.03246	0.891
3.06998	0.891
3.1075	0.891
3.14501	0.891
3.18253	0.889
3.22005	0.884
3.25756	0.876
3.29508	0.864
3.3326	0.836
3.37011	0.771
3.40763	0.452
3.44514	0.131
3.48266	0.115
3.52018	0.277
3.55769	0.153
3.59521	0.733
3.63273	0.843
3.67024	0.872
3.70776	0.874
3.74528	0.889
3.78279	0.889
3.82031	0.889
3.85783	0.896
3.89534	0.905
3.93286	0.912
3.97038	0.919
4.00789	0.92
4.04541	0.924
4.08293	0.928
4.12044	0.927
4.15796	0.927
4.19548	0.928
4.23299	0.928
4.27051	0.928
4.30803	0.928
4.34554	0.928
4.38306	0.932
4.42057	0.933
4.45809	0.935
4.49561	0.937
4.53312	0.938
4.57064	0.94
4.60816	0.94
4.64567	0.941
4.68319	0.942
4.72071	0.948
4.75822	0.946
4.79574	0.937
4.83326	0.944
4.87077	0.949
4.90829	0.949
4.94581	0.946
4.98332	0.949
5.02084	0.95
5.05836	0.952
5.09587	0.953
5.13339	0.953
5.17091	0.953
5.20842	0.953
5.24594	0.953
5.28346	0.953
5.32097	0.953
5.35849	0.953
5.396	0.953
5.43352	0.953
5.47104	0.953
5.50855	0.95
5.54607	0.942
5.58359	0.932
5.6211	0.916
5.65862	0.895
5.69614	0.839
5.73365	0.506
5.77117	0.1
5.80869	0.188
5.8462	0.599
5.88372	0.858
5.92124	0.866
5.95875	0.912
5.99627	0.928
6.03379	0.94
6.0713	0.941
6.10882	0.949
6.14634	0.949
6.18385	0.946
6.22137	0.948
6.25889	0.948
6.2964	0.949
6.33392	0.949
6.37143	0.949
6.40895	0.95
6.44647	0.95
6.48398	0.95
6.5215	0.95
6.55902	0.95
6.59653	0.95
6.63405	0.945
6.67157	0.935
6.70908	0.912
6.7466	0.805
6.78412	0.566
6.82163	0.49
6.85915	0.485
6.89667	0.611
6.93418	0.704
6.9717	0.798
7.00922	0.758
7.04673	0.628
7.08425	0.663
7.12177	0.81
7.15928	0.771
7.1968	0.75
7.23432	0.779
7.27183	0.69
7.30935	0.632
7.34686	0.559
7.38438	0.453
7.4219	0.37
7.45941	0.549
7.49693	0.7
7.53445	0.819
7.57196	0.874
7.60948	0.889
7.647	0.888
7.68451	0.888
7.72203	0.888
7.75955	0.888
7.79706	0.868
7.83458	0.868
7.8721	0.848
7.90961	0.818
7.94713	0.693
7.98465	0.653
8.02216	0.667
8.05968	0.497
8.0972	0.29
8.13471	0.421
8.17223	0.714
8.20974	0.805
8.24726	0.838
8.28478	0.832
8.32229	0.83
8.35981	0.818
8.39733	0.774
8.43484	0.684
8.47236	0.497
8.50988	0.254
8.54739	0.128
8.58491	0.151
8.62243	0.259
8.65994	0.429
8.69746	0.596
8.73498	0.66
8.77249	0.69
8.81001	0.751
8.84753	0.786
8.88504	0.801
8.92256	0.838
8.96008	0.867
8.99759	0.887
9.03511	0.889
9.07263	0.889
9.11014	0.843
9.14766	0.868
9.18517	0.888
9.22269	0.891
9.26021	0.891
9.29772	0.891
9.33524	0.879
9.37276	0.86
9.41027	0.779
9.44779	0.751
9.48531	0.775
9.52282	0.732
9.56034	0.748
9.59786	0.799
9.63537	0.826
9.67289	0.834
9.71041	0.83
9.74792	0.83
9.78544	0.822
9.82296	0.777
9.86047	0.751
9.89799	0.785
9.93551	0.832
9.97302	0.863
10.0105	0.866
10.0481	0.868
10.0856	0.859
10.1231	0.859
10.1606	0.828
10.1981	0.802
10.2356	0.842
10.2732	0.879
10.3107	0.883
10.3482	0.816
10.3857	0.757
10.4232	0.791
10.4607	0.834
10.4983	0.803
10.5358	0.801
10.5733	0.876
10.6108	0.889
10.6483	0.897
10.6858	0.88
10.7234	0.797
10.7609	0.803
10.7984	0.871
10.8359	0.899
10.8734	0.92
10.9109	0.932
10.9485	0.937
10.986	0.941
11.0235	0.944
11.061	0.944
11.0985	0.945
11.136	0.944
11.1736	0.941
11.2111	0.933
11.2486	0.919
11.2861	0.921
11.3236	0.937
11.3611	0.946
11.3987	0.95
11.4362	0.954
11.4737	0.958
11.5112	0.958
11.5487	0.958
11.5862	0.958
11.6237	0.958
11.6613	0.958
11.6988	0.958
11.7363	0.958
11.7738	0.958
11.8113	0.958
11.8488	0.958
11.8864	0.954
11.9239	0.949
11.9614	0.948
11.9989	0.956
12.0364	0.956
12.0739	0.956
12.1115	0.956
12.149	0.954
12.1865	0.952
12.224	0.949
12.2615	0.944
12.299	0.94
12.3366	0.933
12.3741	0.92
12.4116	0.901
12.4491	0.896
12.4866	0.896
12.5241	0.887
12.5617	0.884
12.5992	0.862
12.6367	0.827
12.6742	0.77
12.7117	0.718
12.7492	0.7
12.7868	0.692
12.8243	0.713
12.8618	0.818
12.8993	0.874
12.9368	0.899
12.9743	0.908
13.0119	0.909
13.0494	0.88
13.0869	0.858
13.1244	0.889
13.1619	0.917
13.1994	0.925
13.237	0.925
13.2745	0.925
13.312	0.925
13.3495	0.925
13.387	0.919
13.4245	0.907
13.4621	0.899
13.4996	0.895
13.5371	0.895
13.5746	0.885
13.6121	0.858
13.6496	0.789
13.6872	0.75
13.7247	0.722
13.7622	0.705
13.7997	0.721
13.8372	0.74
13.8747	0.736
13.9123	0.684
13.9498	0.688
13.9873	0.799
14.0248	0.846
14.0623	0.868
14.0998	0.881
14.1374	0.887
14.1749	0.887
14.2124	0.887
14.2499	0.887
14.2874	0.887
14.3249	0.887
14.3625	0.879
14.4	0.866
14.4375	0.86
14.475	0.856
14.5125	0.854
14.55	0.851
14.5876	0.848
14.6251	0.848
14.6626	0.846
14.7001	0.839
14.7376	0.83
14.7751	0.819
14.8127	0.806
14.8502	0.793
14.8877	0.786
14.9252	0.795
14.9627	0.805
