Infrared Spectrum: Paraldehyde
Formula: C6 H12 O3
CAS: 123-63-7
State: SOLUTION (2% CCl4 FOR 3800-1330, 2% CS2 FOR 1330-450 CM^-^1)
Class: COBLENTZ III
Instrument: DOW KBr FOREPRISM-GRATING
Instrument parameters: BLAZED AT 3.5, 12.0, 20.0 MICRON AND CHANGED AT 5.0, 7.5, 14.9 MICRON
Sampling: TRANSMISSION
Path length: 0.011 CM, 0.011 CM
Resolution: 2
Origin: DOW CHEMICAL COMPANY
1/CM	TRANSMITTANCE
3810	0.9148
3801	0.9129
3792	0.9138
3783	0.9127
3774	0.9147
3765	0.915
3756	0.9146
3747	0.9138
3738	0.9142
3729	0.9132
3720	0.9131
3711	0.9137
3702	0.9138
3693	0.9126
3684	0.9112
3675	0.9101
3666	0.9104
3657	0.9116
3648	0.9119
3639	0.9108
3630	0.9097
3621	0.8883
3612	0.886
3603	0.9046
3594	0.8822
3585	0.8945
3576	0.9029
3567	0.9045
3558	0.9044
3549	0.8999
3540	0.9
3531	0.9018
3522	0.9018
3513	0.9034
3504	0.9043
3495	0.905
3486	0.9047
3477	0.9036
3468	0.9025
3459	0.9013
3450	0.9005
3441	0.8999
3432	0.8994
3423	0.899
3414	0.8986
3405	0.8983
3396	0.898
3387	0.8977
3378	0.8972
3369	0.8968
3360	0.8964
3351	0.8958
3342	0.8967
3333	0.895
3324	0.8946
3315	0.894
3306	0.8947
3297	0.8927
3288	0.8922
3279	0.8927
3270	0.892
3261	0.8911
3252	0.8903
3243	0.8886
3234	0.8869
3225	0.8844
3216	0.8845
3207	0.8822
3198	0.8816
3189	0.8811
3180	0.8796
3171	0.8788
3162	0.8788
3153	0.879
3144	0.8771
3135	0.8773
3126	0.876
3117	0.8745
3108	0.8734
3099	0.8761
3090	0.8763
3081	0.8697
3072	0.8693
3063	0.8627
3054	0.8604
3045	0.8593
3036	0.8605
3027	0.8435
3018	0.8032
3009	0.5563
3000	0.5423
2991	0.7438
2982	0.819
2973	0.8414
2964	0.8488
2955	0.8456
2946	0.666
2937	0.811
2928	0.8274
2919	0.8051
2910	0.727
2901	0.7439
2892	0.7714
2883	0.7781
2874	0.7361
2865	0.7088
2856	0.6529
2847	0.6089
2838	0.6416
2829	0.7293
2820	0.7709
2811	0.7749
2802	0.8231
2793	0.8427
2784	0.772
2775	0.7894
2766	0.8459
2757	0.8237
2748	0.8504
2739	0.8511
2730	0.8242
2721	0.8389
2712	0.8564
2703	0.8599
2694	0.8727
2685	0.8682
2676	0.8405
2667	0.8207
2658	0.8477
2649	0.8723
2640	0.8728
2631	0.8719
2622	0.8691
2613	0.825
2604	0.8623
2595	0.8848
2586	0.8921
2577	0.8911
2568	0.8909
2559	0.8911
2550	0.891
2541	0.8916
2532	0.8928
2523	0.8948
2514	0.896
2505	0.8966
2496	0.8962
2487	0.8961
2478	0.8974
2469	0.8978
2460	0.8989
2451	0.9001
2442	0.9013
2433	0.9025
2424	0.9036
2415	0.9041
2406	0.9059
2397	0.9055
2388	0.9063
2379	0.9087
2370	0.9111
2361	0.9086
2352	0.9129
2343	0.9114
2334	0.9078
2325	0.9068
2316	0.9042
2307	0.901
2298	0.901
2289	0.9002
2280	0.8982
2271	0.8987
2262	0.9013
2253	0.9005
2244	0.9009
2235	0.9028
2226	0.9043
2217	0.904
2208	0.9051
2199	0.9062
2190	0.9056
2181	0.9063
2172	0.9083
2163	0.9073
2154	0.9079
2145	0.9083
2136	0.9087
2127	0.909
2118	0.9095
2109	0.9099
2100	0.9104
2091	0.9107
2082	0.9111
2073	0.9106
2064	0.9087
2055	0.9079
2046	0.9051
2037	0.9027
2028	0.9008
2019	0.9004
2010	0.9011
2001	0.9019
1992	0.8882
1983	0.8838
1974	0.8819
1965	0.8863
1956	0.8955
1947	0.8882
1938	0.8888
1929	0.8889
1920	0.8886
1911	0.8876
1902	0.8877
1893	0.8861
1884	0.8851
1875	0.8875
1866	0.8864
1857	0.8861
1848	0.8843
1839	0.8837
1830	0.882
1821	0.8817
1812	0.8827
1803	0.8797
1794	0.8794
1785	0.8728
1776	0.86
1767	0.8331
1758	0.8237
1749	0.8297
1740	0.842
1731	0.8295
1722	0.7672
1713	0.6127
1704	0.79
1695	0.8487
1686	0.8651
1677	0.8702
1668	0.874
1659	0.8763
1650	0.8768
1641	0.8791
1632	0.8814
1623	0.8799
1614	0.8791
1605	0.8658
1596	0.8311
1587	0.8247
1578	0.8093
1569	0.7975
1560	0.7568
1551	0.7403
1542	0.7472
1533	0.7591
1524	0.7964
1515	0.8161
1506	0.8347
1497	0.8421
1488	0.8528
1479	0.8639
1470	0.8525
1461	0.835
1452	0.4817
1443	0.7739
1434	0.8177
1425	0.8079
1416	0.7899
1407	0.7713
1398	0.1299
1389	0.6301
1380	0.7108
1371	0.3359
1362	0.7529
1353	0.7899
1344	0.1427
1335	0.7207
1326	0.7794
1317	0.8447
1308	0.861
1299	0.8416
1290	0.7587
1281	0.8048
1272	0.8516
1263	0.8675
1254	0.8793
1245	0.8751
1236	0.8815
1227	0.8845
1218	0.8753
1209	0.859
1200	0.8068
1191	0.4398
1182	0.0512
1173	0.0318
1164	0.3044
1155	0.6813
1146	0.752
1137	0.7778
1128	0.7106
1119	0.5638
1110	0.2701
1101	0.0323
1092	0.4209
1083	0.6691
1074	0.7607
1065	0.8001
1056	0.8283
1047	0.8479
1038	0.8609
1029	0.8699
1020	0.8733
1011	0.8762
1002	0.8766
993	0.8777
984	0.8799
975	0.8721
966	0.8534
957	0.7951
948	0.3407
939	0.4068
930	0.7462
921	0.8153
912	0.8517
903	0.8648
894	0.8709
885	0.8668
876	0.854
867	0.8111
858	0.6081
849	0.7038
840	0.754
831	0.8244
822	0.8712
813	0.8771
804	0.8799
795	0.8768
786	0.8706
777	0.8712
768	0.8695
759	0.7974
750	0.8098
741	0.8522
732	0.8689
723	0.8757
714	0.8778
705	0.8782
696	0.8805
687	0.8823
678	0.8864
669	0.8971
660	0.8882
651	0.8708
642	0.8699
633	0.8733
624	0.8663
615	0.8837
606	0.8868
597	0.8899
588	0.8919
579	0.8887
570	0.8803
561	0.8968
552	0.8976
543	0.8958
534	0.8939
525	0.8635
516	0.8866
507	0.887
498	0.8855
489	0.8797
480	0.844
471	0.7979
462	0.8124
453	0.8176
