Infrared Spectrum: SUCCINIC ACID, DIETHYL ESTER
Formula: C8 H14 O4
CAS: 123-25-1
State: LIQUID (NEAT)
Class: COBLENTZ III
Instrument: BAIRD (PRISM)
Instrument parameters: NaCl PRISM
Sampling: TRANSMISSION
Path length: 0.003 CM
Resolution: 2
Origin: WYANDOTTE CHEMICALS CORP.
MICROMETERS	TRANSMITTANCE
1.986	0.83
2.02426	0.83
2.06253	0.832
2.10079	0.839
2.13905	0.828
2.17732	0.788
2.21558	0.769
2.25384	0.794
2.2921	0.798
2.33037	0.8
2.36863	0.803
2.40689	0.814
2.44516	0.839
2.48342	0.85
2.52168	0.856
2.55995	0.859
2.59821	0.863
2.63647	0.869
2.67474	0.87
2.713	0.852
2.75126	0.848
2.78953	0.848
2.82779	0.841
2.86605	0.821
2.90431	0.727
2.94258	0.767
2.98084	0.811
3.0191	0.833
3.05737	0.836
3.09563	0.834
3.13389	0.827
3.17216	0.821
3.21042	0.809
3.24868	0.788
3.28695	0.75
3.32521	0.314
3.36347	0.025
3.40173	0.119
3.44	0.175
3.47826	0.338
3.51652	0.556
3.55479	0.715
3.59305	0.782
3.63131	0.82
3.66958	0.842
3.70784	0.853
3.7461	0.874
3.78437	0.889
3.82263	0.892
3.86089	0.883
3.89916	0.886
3.93742	0.892
3.97568	0.896
4.01394	0.899
4.05221	0.899
4.09047	0.898
4.12873	0.896
4.167	0.894
4.20526	0.878
4.24352	0.864
4.28179	0.862
4.32005	0.866
4.35831	0.875
4.39658	0.884
4.43484	0.907
4.4731	0.91
4.51137	0.906
4.54963	0.904
4.58789	0.906
4.62615	0.913
4.66442	0.916
4.70268	0.918
4.74094	0.918
4.77921	0.913
4.81747	0.902
4.85573	0.889
4.894	0.877
4.93226	0.868
4.97052	0.858
5.00879	0.859
5.04705	0.856
5.08531	0.88
5.12357	0.9
5.16184	0.902
5.2001	0.9
5.23836	0.894
5.27663	0.883
5.31489	0.864
5.35315	0.836
5.39142	0.84
5.42968	0.85
5.46794	0.847
5.50621	0.828
5.54447	0.778
5.58273	0.711
5.621	0.607
5.65926	0.431
5.69752	0.252
5.73578	0.057
5.77405	0.029
5.81231	0.025
5.85057	0.041
5.88884	0.123
5.9271	0.232
5.96536	0.472
6.00363	0.532
6.04189	0.645
6.08015	0.696
6.11842	0.727
6.15668	0.756
6.19494	0.784
6.2332	0.799
6.27147	0.804
6.30973	0.82
6.34799	0.829
6.38626	0.832
6.42452	0.83
6.46278	0.82
6.50105	0.817
6.53931	0.803
6.57757	0.796
6.61584	0.769
6.6541	0.73
6.69236	0.653
6.73063	0.418
6.76889	0.206
6.80715	0.167
6.84541	0.125
6.88368	0.14
6.92194	0.107
6.9602	0.136
6.99847	0.142
7.03673	0.082
7.07499	0.063
7.11326	0.052
7.15152	0.077
7.18978	0.071
7.22805	0.059
7.26631	0.046
7.30457	0.022
7.34284	0.027
7.3811	0.093
7.41936	0.049
7.45762	0.031
7.49589	0.077
7.53415	0.129
7.57241	0.077
7.61068	0.034
7.64894	0.033
7.6872	0.035
7.72547	0.039
7.76373	0.044
7.80199	0.049
7.84026	0.039
7.87852	0.031
7.91678	0.022
7.95504	0.021
7.99331	0.022
8.03157	0.021
8.06983	0.021
8.1081	0.021
8.14636	0.021
8.18462	0.021
8.22289	0.021
8.26115	0.02
8.29941	0.02
8.33768	0.02
8.37594	0.02
8.4142	0.02
8.45247	0.021
8.49073	0.021
8.52899	0.022
8.56725	0.022
8.60552	0.022
8.64378	0.021
8.68204	0.021
8.72031	0.02
8.75857	0.023
8.79683	0.034
8.8351	0.085
8.87336	0.151
8.91162	0.201
8.94989	0.226
8.98815	0.191
9.02641	0.172
9.06467	0.189
9.10294	0.135
9.1412	0.093
9.17946	0.129
9.21773	0.258
9.25599	0.321
9.29425	0.32
9.33252	0.263
9.37078	0.203
9.40904	0.176
9.44731	0.176
9.48557	0.185
9.52383	0.171
9.5621	0.109
9.60036	0.052
9.63862	0.031
9.67688	0.027
9.71515	0.025
9.75341	0.023
9.79167	0.025
9.82994	0.026
9.8682	0.039
9.90646	0.063
9.94473	0.14
9.98299	0.328
10.0213	0.441
10.0595	0.508
10.0978	0.538
10.136	0.557
10.1743	0.57
10.2126	0.588
10.2508	0.615
10.2891	0.639
10.3274	0.659
10.3656	0.641
10.4039	0.57
10.4421	0.528
10.4804	0.528
10.5187	0.534
10.5569	0.543
10.5952	0.55
10.6335	0.574
10.6717	0.619
10.71	0.646
10.7483	0.647
10.7865	0.649
10.8248	0.659
10.863	0.651
10.9013	0.643
10.9396	0.66
10.9778	0.695
11.0161	0.707
11.0544	0.687
11.0926	0.63
11.1309	0.605
11.1691	0.623
11.2074	0.667
11.2457	0.697
11.2839	0.721
11.3222	0.741
11.3605	0.745
11.3987	0.751
11.437	0.752
11.4753	0.742
11.5135	0.694
11.5518	0.612
11.59	0.462
11.6283	0.28
11.6666	0.19
11.7048	0.124
11.7431	0.111
11.7814	0.133
11.8196	0.294
11.8579	0.41
11.8961	0.517
11.9344	0.612
11.9727	0.678
12.0109	0.725
12.0492	0.758
12.0875	0.764
12.1257	0.766
12.164	0.766
12.2022	0.758
12.2405	0.737
12.2788	0.708
12.317	0.678
12.3553	0.634
12.3936	0.594
12.4318	0.558
12.4701	0.523
12.5084	0.485
12.5466	0.452
12.5849	0.425
12.6231	0.402
12.6614	0.393
12.6997	0.42
12.7379	0.5
12.7762	0.592
12.8145	0.661
12.8527	0.714
12.891	0.763
12.9292	0.796
12.9675	0.823
13.0058	0.838
13.044	0.854
13.0823	0.864
13.1206	0.871
13.1588	0.88
13.1971	0.887
13.2354	0.893
13.2736	0.898
13.3119	0.902
13.3501	0.907
13.3884	0.913
13.4267	0.916
13.4649	0.919
13.5032	0.922
13.5415	0.924
13.5797	0.928
13.618	0.932
13.6562	0.935
13.6945	0.936
13.7328	0.936
13.771	0.936
13.8093	0.937
13.8476	0.94
13.8858	0.942
13.9241	0.944
13.9624	0.948
14.0006	0.95
14.0389	0.95
14.0771	0.95
14.1154	0.95
14.1537	0.95
14.1919	0.949
14.2302	0.948
14.2685	0.944
14.3067	0.94
14.345	0.937
14.3832	0.934
14.4215	0.93
14.4598	0.928
14.498	0.925
14.5363	0.922
14.5746	0.918
14.6128	0.914
14.6511	0.912
14.6894	0.908
14.7276	0.906
14.7659	0.901
14.8041	0.896
14.8424	0.89
14.8807	0.886
14.9189	0.881
14.9572	0.876
14.9955	0.864
15.0337	0.853
15.072	0.851
15.1102	0.848
15.1485	0.847
15.1868	0.846
15.225	0.845
15.2633	0.841
15.3016	0.838
15.3398	0.834
15.3781	0.83
15.4164	0.826
15.4546	0.823
15.4929	0.82
15.5311	0.815
15.5694	0.81
15.6077	0.803
15.6459	0.793
15.6842	0.781
15.7225	0.769
15.7607	0.758
15.799	0.756
15.8372	0.76
15.8755	0.764
15.9138	0.768
15.952	0.77
