Infrared Spectrum: 4-HEPTANONE
Formula: C7 H14 O
CAS: 123-19-3
State: VAPOR (20 MICROLITER AT 150 C)
Boiling point: 144 C
Class: COBLENTZ
Instrument: PERKIN-ELMER 180
Sampling: TRANSMISSION
Path length: 5 CM KBr CELL, CELL VOLUME: 80 CM^3
Resolution: 2-3 CM^-^1
Origin: PERKIN-ELMER CORP. (M. ZELLER)
1/CM	TRANSMITTANCE
396.947	0.514
406.107	0.566
415.268	0.621
424.428	0.672
433.588	0.719
442.749	0.771
451.909	0.808
461.069	0.84
470.23	0.861
479.39	0.879
488.55	0.879
497.711	0.866
506.871	0.866
516.031	0.868
525.192	0.879
534.352	0.886
543.512	0.902
552.673	0.904
561.833	0.909
570.993	0.912
580.154	0.909
589.314	0.911
598.474	0.911
607.635	0.9
616.795	0.896
625.955	0.898
635.116	0.906
644.276	0.916
653.436	0.921
662.597	0.919
671.757	0.922
680.917	0.92
690.078	0.911
699.238	0.903
708.398	0.899
717.559	0.883
726.719	0.874
735.879	0.869
745.04	0.862
754.2	0.851
763.36	0.843
772.521	0.835
781.681	0.843
790.841	0.849
800.002	0.851
809.162	0.861
818.322	0.878
827.483	0.886
836.643	0.89
845.803	0.882
854.964	0.868
864.124	0.864
873.284	0.866
882.445	0.872
891.605	0.875
900.765	0.883
909.926	0.9
919.086	0.913
928.246	0.922
937.407	0.922
946.567	0.921
955.727	0.915
964.887	0.911
974.048	0.885
983.208	0.842
992.368	0.789
1001.53	0.733
1010.69	0.6841
1019.85	0.664
1029.01	0.698
1038.17	0.748
1047.33	0.767
1056.49	0.791
1065.65	0.818
1074.81	0.828
1083.97	0.822
1093.13	0.801
1102.29	0.7551
1111.45	0.689
1120.61	0.59
1129.77	0.533
1138.93	0.556
1148.09	0.593
1157.25	0.588
1166.41	0.633
1175.58	0.723
1184.74	0.776
1193.9	0.797
1203.06	0.788
1212.22	0.779
1221.38	0.779
1230.54	0.781
1239.7	0.783
1248.86	0.754
1258.02	0.712
1267.18	0.687
1276.34	0.681
1285.5	0.684
1294.66	0.703
1303.82	0.746
1312.98	0.762
1322.14	0.736
1331.3	0.673
1340.46	0.582
1349.62	0.4771
1358.78	0.421
1367.94	0.48
1377.1	0.5859
1386.26	0.644
1395.42	0.664
1404.58	0.647
1413.74	0.635
1422.9	0.642
1432.06	0.637
1441.22	0.604
1450.39	0.556
1459.55	0.573
1468.71	0.6459
1477.87	0.728
1487.03	0.792
1496.19	0.821
1505.35	0.84
1514.51	0.844
1523.67	0.851
1532.83	0.852
1541.99	0.849
1551.15	0.848
1560.31	0.847
1569.47	0.848
1578.63	0.844
1587.79	0.842
1596.95	0.842
1606.11	0.84
1615.27	0.838
1624.43	0.839
1633.59	0.839
1642.75	0.836
1651.91	0.831
1661.07	0.821
1670.23	0.8
1679.39	0.749
1688.55	0.676
1697.71	0.506
1706.87	0.2629
1716.03	0.108
1725.19	0.091
1734.36	0.211
1743.52	0.4858
1752.68	0.698
1761.84	0.771
1771	0.81
1780.16	0.83
1789.32	0.851
1798.48	0.864
1807.64	0.877
1816.8	0.883
1825.96	0.885
1835.12	0.891
1844.28	0.886
1853.44	0.891
1862.6	0.889
1871.76	0.89
1880.92	0.889
1890.08	0.89
1899.24	0.892
1908.4	0.892
1917.56	0.891
1926.72	0.894
1935.88	0.892
1945.04	0.891
1954.2	0.889
1963.36	0.89
1972.52	0.889
1981.68	0.886
1990.84	0.885
2000	0.883
2009.17	0.883
2018.33	0.8822
2027.49	0.882
2036.65	0.881
2045.81	0.8813
2054.97	0.882
2064.13	0.8842
2073.29	0.882
2082.45	0.8818
2091.61	0.881
2100.77	0.8811
2109.93	0.882
2119.09	0.8808
2128.25	0.8774
2137.41	0.877
2146.57	0.8785
2155.73	0.8809
2164.89	0.8776
2174.05	0.8752
2183.21	0.874
2192.37	0.873
2201.53	0.8764
2210.69	0.874
2219.85	0.8728
2229.01	0.87
2238.17	0.8704
2247.33	0.872
2256.49	0.8689
2265.65	0.8644
2274.81	0.866
2283.98	0.8615
2293.14	0.862
2302.3	0.862
2311.46	0.861
2320.62	0.8604
2329.78	0.861
2338.94	0.861
2348.1	0.86
2357.26	0.861
2366.42	0.864
2375.58	0.862
2384.74	0.8603
2393.9	0.8533
2403.06	0.8564
2412.22	0.8573
2421.38	0.8637
2430.54	0.859
2439.7	0.86
2448.86	0.86
2458.02	0.857
2467.18	0.86
2476.34	0.8551
2485.5	0.859
2494.66	0.86
2503.82	0.857
2512.98	0.852
2522.14	0.857
2531.3	0.856
2540.46	0.8537
2549.62	0.852
2558.79	0.8514
2567.95	0.848
2577.11	0.848
2586.27	0.847
2595.43	0.845
2604.59	0.843
2613.75	0.8438
2622.91	0.8453
2632.07	0.84
2641.23	0.8342
2650.39	0.8317
2659.55	0.8278
2668.71	0.832
2677.87	0.8303
2687.03	0.8283
2696.19	0.8274
2705.35	0.8248
2714.51	0.8214
2723.67	0.8119
2732.83	0.803
2741.99	0.801
2751.15	0.805
2760.31	0.8011
2769.47	0.7948
2778.63	0.7815
2787.79	0.7701
2796.95	0.7574
2806.11	0.7438
2815.27	0.7305
2824.43	0.7071
2833.59	0.6715
2842.76	0.6249
2851.92	0.5406
2861.08	0.4052
2870.24	0.2468
2879.4	0.212
2888.56	0.2407
2897.72	0.249
2906.88	0.2324
2916.04	0.2003
2925.2	0.1449
2934.36	0.1046
2943.52	0.0918
2952.68	0.0465
2961.84	0.0196
2971	0.0813
2980.16	0.2311
2989.32	0.4598
2998.48	0.59
3007.64	0.6599
3016.8	0.7043
3025.96	0.7329
3035.12	0.7489
3044.28	0.7579
3053.44	0.7628
3062.6	0.768
3071.76	0.768
3080.92	0.7703
3090.08	0.7748
3099.24	0.776
3108.4	0.779
3117.57	0.776
3126.73	0.775
3135.89	0.775
3145.05	0.7772
3154.21	0.779
3163.37	0.78
3172.53	0.781
3181.69	0.78
3190.85	0.7829
3200.01	0.785
3209.17	0.7916
3218.33	0.793
3227.49	0.789
3236.65	0.7935
3245.81	0.796
3254.97	0.7968
3264.13	0.793
3273.29	0.7895
3282.45	0.7956
3291.61	0.796
3300.77	0.7939
3309.93	0.789
3319.09	0.791
3328.25	0.791
3337.41	0.789
3346.57	0.792
3355.73	0.789
3364.89	0.788
3374.05	0.7864
3383.21	0.7832
3392.38	0.7788
3401.54	0.7719
3410.7	0.7658
3419.86	0.761
3429.02	0.7621
3438.18	0.7689
3447.34	0.779
3456.5	0.7841
3465.66	0.789
3474.82	0.788
3483.98	0.787
3493.14	0.787
3502.3	0.787
3511.46	0.788
3520.62	0.788
3529.78	0.7877
3538.94	0.7843
3548.1	0.7788
3557.26	0.7753
3566.42	0.775
3575.58	0.771
3584.74	0.7808
3593.9	0.78
3603.06	0.779
3612.22	0.78
3621.38	0.778
3630.54	0.778
3639.7	0.776
3648.86	0.778
3658.02	0.7752
3667.19	0.774
3676.35	0.774
3685.51	0.772
3694.67	0.772
3703.83	0.7718
3712.99	0.77
3722.15	0.7669
3731.31	0.7656
3740.47	0.768
3749.63	0.7665
3758.79	0.765
3767.95	0.767
3777.11	0.767
3786.27	0.767
3795.43	0.7651
3804.59	0.761
3813.75	0.761
3822.91	0.761
3832.07	0.7623
3841.23	0.7588
3850.39	0.76
3859.55	0.761
3868.71	0.761
3877.87	0.7571
3887.03	0.761
3896.19	0.757
3905.35	0.7575
3914.51	0.755
3923.67	0.751
3932.83	0.748
3941.99	0.7523
3951.16	0.751
3960.32	0.749
3969.48	0.748
3978.64	0.746
3987.8	0.746
3996.96	0.7458
