Infrared Spectrum: BENZALDEHYDE, 4-METHOXY
Formula: C8 H8 O2
CAS: 123-11-5
State: VAPOR (6 MICROLITER AT 150 C)
Boiling point: 249 C
Class: COBLENTZ
Instrument: PERKIN-ELMER 180
Sampling: TRANSMISSION
Path length: 5 CM KBr CELL, CELL VOLUME: 80 CM^3
Resolution: 2-3 CM^-^1
Origin: PERKIN-ELMER CORP. (M. ZELLER)
1/CM	TRANSMITTANCE
404.243	0.424
413.693	0.4799
423.144	0.554
432.594	0.603
442.044	0.6539
451.495	0.702
460.945	0.737
470.396	0.761
479.846	0.768
489.296	0.756
498.747	0.733
508.197	0.732
517.647	0.769
527.098	0.795
536.548	0.806
545.998	0.815
555.449	0.818
564.899	0.817
574.349	0.783
583.8	0.706
593.25	0.672
602.701	0.7259
612.151	0.784
621.601	0.807
631.052	0.794
640.502	0.795
649.952	0.824
659.403	0.829
668.853	0.83
678.303	0.825
687.754	0.821
697.204	0.82
706.655	0.821
716.105	0.82
725.555	0.814
735.006	0.807
744.456	0.783
753.906	0.763
763.357	0.782
772.807	0.791
782.257	0.784
791.708	0.761
801.158	0.726
810.609	0.65
820.059	0.5431
829.509	0.516
838.96	0.512
848.41	0.5609
857.86	0.7059
867.311	0.792
876.761	0.813
886.211	0.818
895.662	0.822
905.112	0.825
914.562	0.826
924.013	0.826
933.463	0.821
942.914	0.825
952.364	0.821
961.814	0.811
971.265	0.802
980.715	0.799
990.165	0.79
999.616	0.769
1009.07	0.738
1018.52	0.6631
1027.97	0.558
1037.42	0.5419
1046.87	0.6459
1056.32	0.74
1065.77	0.761
1075.22	0.755
1084.67	0.751
1094.12	0.732
1103.57	0.729
1113.02	0.737
1122.47	0.744
1131.92	0.736
1141.37	0.6402
1150.82	0.2311
1160.27	0.216
1169.72	0.5988
1179.17	0.629
1188.62	0.602
1198.07	0.515
1207.52	0.534
1216.97	0.566
1226.42	0.5261
1235.87	0.3551
1245.33	0.1051
1254.78	0.071
1264.23	0.3088
1273.68	0.604
1283.13	0.603
1292.58	0.4701
1302.03	0.391
1311.48	0.556
1320.93	0.664
1330.38	0.702
1339.83	0.721
1349.28	0.726
1358.73	0.73
1368.18	0.723
1377.63	0.687
1387.08	0.668
1396.53	0.698
1405.98	0.717
1415.43	0.69
1424.88	0.68
1434.33	0.687
1443.78	0.68
1453.23	0.661
1462.68	0.629
1472.13	0.658
1481.58	0.692
1491.03	0.672
1500.48	0.462
1509.94	0.3849
1519.39	0.5919
1528.84	0.725
1538.29	0.738
1547.74	0.73
1557.19	0.699
1566.64	0.6
1576.09	0.4312
1585.54	0.2781
1594.99	0.148
1604.44	0.1549
1613.89	0.3579
1623.34	0.604
1632.79	0.698
1642.24	0.715
1651.69	0.715
1661.14	0.696
1670.59	0.654
1680.04	0.612
1689.49	0.519
1698.94	0.2823
1708.39	0.032
1717.84	0.156
1727.29	0.6081
1736.74	0.717
1746.19	0.73
1755.64	0.74
1765.09	0.763
1774.55	0.774
1784	0.782
1793.45	0.79
1802.9	0.792
1812.35	0.795
1821.8	0.799
1831.25	0.801
1840.7	0.799
1850.15	0.794
1859.6	0.791
1869.05	0.791
1878.5	0.786
1887.95	0.778
1897.4	0.784
1906.85	0.792
1916.3	0.792
1925.75	0.792
1935.2	0.792
1944.65	0.792
1954.1	0.786
1963.55	0.786
1973	0.788
1982.45	0.788
1991.9	0.78
2001.35	0.775
2010.8	0.78
2020.25	0.7844
2029.71	0.783
2039.16	0.7756
2048.61	0.7759
2058.06	0.779
2067.51	0.78
2076.96	0.7827
2086.41	0.7869
2095.86	0.788
2105.31	0.7918
2114.76	0.7877
2124.21	0.795
2133.66	0.786
2143.11	0.7837
2152.56	0.7847
2162.01	0.791
2171.46	0.783
2180.91	0.7878
2190.36	0.786
2199.81	0.7867
2209.26	0.786
2218.71	0.784
2228.16	0.7818
2237.61	0.7784
2247.06	0.7749
2256.51	0.7714
2265.96	0.7779
2275.41	0.775
2284.86	0.775
2294.32	0.7715
2303.77	0.768
2313.22	0.768
2322.67	0.768
2332.12	0.767
2341.57	0.7592
2351.02	0.7604
2360.47	0.7686
2369.92	0.771
2379.37	0.769
2388.82	0.7677
2398.27	0.763
2407.72	0.761
2417.17	0.764
2426.62	0.7637
2436.07	0.763
2445.52	0.76
2454.97	0.76
2464.42	0.7638
2473.87	0.76
2483.32	0.7553
2492.77	0.752
2502.22	0.757
2511.67	0.759
2521.12	0.7548
2530.57	0.7498
2540.02	0.7437
2549.47	0.7366
2558.93	0.7421
2568.38	0.7487
2577.83	0.751
2587.28	0.751
2596.73	0.749
2606.18	0.744
2615.63	0.7509
2625.08	0.751
2634.53	0.7492
2643.98	0.744
2653.43	0.7344
2662.88	0.7153
2672.33	0.6983
2681.78	0.6651
2691.23	0.6088
2700.68	0.5344
2710.13	0.5492
2719.58	0.6013
2729.03	0.6594
2738.48	0.692
2747.93	0.694
2757.38	0.6805
2766.83	0.6389
2776.28	0.5986
2785.73	0.5857
2795.18	0.5842
2804.63	0.6038
2814.09	0.6286
2823.54	0.606
2832.99	0.6156
2842.44	0.6675
2851.89	0.69
2861.34	0.69
2870.79	0.6839
2880.24	0.6644
2889.69	0.6421
2899.14	0.6225
2908.59	0.621
2918.04	0.5914
2927.49	0.5721
2936.94	0.5754
2946.39	0.5862
2955.84	0.6256
2965.29	0.659
2974.74	0.6565
2984.19	0.6208
2993.64	0.5869
3003.09	0.6255
3012.54	0.6586
3021.99	0.6711
3031.44	0.6843
3040.89	0.6943
3050.34	0.6809
3059.79	0.6656
3069.24	0.6728
3078.7	0.682
3088.15	0.688
3097.6	0.69
3107.05	0.6991
3116.5	0.7048
3125.95	0.707
3135.4	0.707
3144.85	0.7071
3154.3	0.71
3163.75	0.709
3173.2	0.705
3182.65	0.709
3192.1	0.71
3201.55	0.706
3211	0.707
3220.45	0.7099
3229.9	0.7118
3239.35	0.714
3248.8	0.7082
3258.25	0.709
3267.7	0.7103
3277.15	0.7106
3286.6	0.705
3296.05	0.7084
3305.5	0.7057
3314.95	0.7028
3324.4	0.709
3333.85	0.71
3343.31	0.7053
3352.76	0.7027
3362.21	0.7058
3371.66	0.7007
3381.11	0.6957
3390.56	0.6867
3400.01	0.6843
3409.46	0.6906
3418.91	0.6953
3428.36	0.702
3437.81	0.706
3447.26	0.7033
3456.71	0.7001
3466.16	0.703
3475.61	0.702
3485.06	0.7
3494.51	0.699
3503.96	0.7
3513.41	0.7019
3522.86	0.7026
3532.31	0.702
3541.76	0.703
3551.21	0.6981
3560.66	0.6956
3570.11	0.6883
3579.56	0.6926
3589.01	0.699
3598.46	0.699
3607.92	0.6942
3617.37	0.694
3626.82	0.695
3636.27	0.6975
3645.72	0.6926
3655.17	0.691
3664.62	0.691
3674.07	0.691
3683.52	0.6947
3692.97	0.6946
3702.42	0.691
3711.87	0.6879
3721.32	0.687
3730.77	0.6871
3740.22	0.6889
3749.67	0.687
3759.12	0.689
3768.57	0.687
3778.02	0.685
3787.47	0.69
3796.92	0.687
3806.37	0.6861
3815.82	0.6826
3825.27	0.682
3834.72	0.683
3844.17	0.6844
3853.62	0.6826
3863.08	0.682
3872.53	0.682
3881.98	0.682
3891.43	0.6833
3900.88	0.6832
3910.33	0.679
3919.78	0.679
3929.23	0.677
3938.68	0.679
3948.13	0.6786
3957.58	0.677
3967.03	0.6758
3976.48	0.676
3985.93	0.6773
