Infrared Spectrum: D-CAMPHORIC ACID
Formula: C10 H16 O4
CAS: 124-83-4
State: SOLID (MULL)
Melting point: 182-184 C
Class: COBLENTZ
Instrument: Not specified, most likely a prism, grating, or hybrid spectrometer.
Sampling: TRANSMISSION
Resolution: 4
Origin: WYANDOTTE CHEMICALS CORP., WYANDOTTE, MICHIGAN, USA
MICROMETERS	TRANSMITTANCE
2.009	0.987
2.04786	0.978
2.08672	0.987
2.12558	0.988
2.16444	0.985
2.2033	0.948
2.24216	0.917
2.28102	0.919
2.31988	0.93
2.35875	0.932
2.39761	0.932
2.43647	0.938
2.47533	0.945
2.51419	0.951
2.55305	0.954
2.59191	0.978
2.63077	0.983
2.66963	1.001
2.70849	1.003
2.74735	0.998
2.78621	0.995
2.82507	0.964
2.86393	0.941
2.90279	0.898
2.94165	0.851
2.98051	0.777
3.01937	0.6
3.05824	0.458
3.0971	0.31
3.13596	0.211
3.17482	0.142
3.21368	0.085
3.25254	0.053
3.2914	0.043
3.33026	0.029
3.36912	0.025
3.40798	0.022
3.44684	0.017
3.4857	0.011
3.52456	0.011
3.56342	0.04
3.60228	0.069
3.64114	0.088
3.68	0.098
3.71887	0.101
3.75773	0.098
3.79659	0.092
3.83545	0.101
3.87431	0.109
3.91317	0.124
3.95203	0.127
3.99089	0.153
4.02975	0.214
4.06861	0.252
4.10747	0.298
4.14633	0.327
4.18519	0.371
4.22405	0.421
4.26291	0.457
4.30177	0.468
4.34063	0.505
4.3795	0.534
4.41836	0.575
4.45722	0.6
4.49608	0.625
4.53494	0.633
4.5738	0.642
4.61266	0.654
4.65152	0.667
4.69038	0.686
4.72924	0.697
4.7681	0.696
4.80696	0.694
4.84582	0.702
4.88468	0.712
4.92354	0.717
4.9624	0.715
5.00126	0.702
5.04012	0.689
5.07899	0.67
5.11785	0.665
5.15671	0.654
5.19557	0.646
5.23443	0.623
5.27329	0.621
5.31215	0.602
5.35101	0.588
5.38987	0.568
5.42873	0.544
5.46759	0.526
5.50645	0.489
5.54531	0.479
5.58417	0.478
5.62303	0.476
5.66189	0.45
5.70075	0.353
5.73962	0.232
5.77848	0.069
5.81734	0.029
5.8562	0.032
5.89506	0.03
5.93392	0.038
5.97278	0.053
6.01164	0.176
6.0505	0.289
6.08936	0.418
6.12822	0.508
6.16708	0.584
6.20594	0.621
6.2448	0.628
6.28366	0.597
6.32252	0.631
6.36138	0.62
6.40024	0.675
6.43911	0.676
6.47797	0.689
6.51683	0.704
6.55569	0.709
6.59455	0.699
6.63341	0.649
6.67227	0.534
6.71113	0.281
6.74999	0.161
6.78885	0.061
6.82771	0.074
6.86657	0.113
6.90543	0.203
6.94429	0.247
6.98315	0.219
7.02201	0.135
7.06087	0.082
7.09974	0.138
7.1386	0.168
7.17746	0.198
7.21632	0.09
7.25518	0.108
7.29404	0.285
7.3329	0.326
7.37176	0.247
7.41062	0.26
7.44948	0.355
7.48834	0.348
7.5272	0.2
7.56606	0.163
7.60492	0.166
7.64378	0.103
7.68264	0.046
7.7215	0.033
7.76037	0.03
7.79923	0.029
7.83809	0.035
7.87695	0.064
7.91581	0.092
7.95467	0.087
7.99353	0.04
8.03239	0.035
8.07125	0.051
8.11011	0.109
8.14897	0.138
8.18783	0.101
8.22669	0.093
8.26555	0.127
8.30441	0.231
8.34327	0.332
8.38213	0.368
8.42099	0.315
8.45986	0.29
8.49872	0.253
8.53758	0.15
8.57644	0.135
8.6153	0.268
8.65416	0.41
8.69302	0.508
8.73188	0.537
8.77074	0.5
8.8096	0.323
8.84846	0.21
8.88732	0.268
8.92618	0.384
8.96504	0.536
9.0039	0.594
9.04276	0.628
9.08162	0.634
9.12049	0.584
9.15935	0.468
9.19821	0.47
9.23707	0.562
9.27593	0.6
9.31479	0.63
9.35365	0.631
9.39251	0.625
9.43137	0.605
9.47023	0.599
9.50909	0.613
9.54795	0.63
9.58681	0.626
9.62567	0.625
9.66453	0.621
9.70339	0.612
9.74225	0.599
9.78112	0.581
9.81998	0.557
9.85884	0.508
9.8977	0.483
9.93656	0.421
9.97542	0.353
10.0143	0.4
10.0531	0.426
10.092	0.4
10.1309	0.382
10.1697	0.368
10.2086	0.329
10.2474	0.289
10.2863	0.268
10.3252	0.263
10.364	0.237
10.4029	0.211
10.4417	0.182
10.4806	0.164
10.5195	0.132
10.5583	0.114
10.5972	0.09
10.636	0.09
10.6749	0.098
10.7138	0.108
10.7526	0.138
10.7915	0.163
10.8304	0.214
10.8692	0.247
10.9081	0.274
10.9469	0.29
10.9858	0.315
11.0247	0.339
11.0635	0.384
11.1024	0.416
11.1412	0.45
11.1801	0.473
11.219	0.494
11.2578	0.518
11.2967	0.528
11.3355	0.537
11.3744	0.534
11.4133	0.533
11.4521	0.552
11.491	0.575
11.5298	0.599
11.5687	0.615
11.6076	0.631
11.6464	0.636
11.6853	0.644
11.7241	0.649
11.763	0.654
11.8019	0.66
11.8407	0.662
11.8796	0.667
11.9184	0.667
11.9573	0.675
11.9962	0.68
12.035	0.683
12.0739	0.686
12.1127	0.696
12.1516	0.704
12.1905	0.704
12.2293	0.715
12.2682	0.728
12.3071	0.735
12.3459	0.739
12.3848	0.747
12.4236	0.751
12.4625	0.76
12.5014	0.77
12.5402	0.772
12.5791	0.773
12.6179	0.77
12.6568	0.754
12.6957	0.731
12.7345	0.705
12.7734	0.67
12.8122	0.631
12.8511	0.576
12.89	0.531
12.9288	0.515
12.9677	0.536
13.0065	0.528
13.0454	0.515
13.0843	0.547
13.1231	0.604
13.162	0.644
13.2008	0.68
13.2397	0.712
13.2786	0.743
13.3174	0.756
13.3563	0.762
13.3951	0.77
13.434	0.772
13.4729	0.77
13.5117	0.762
13.5506	0.76
13.5895	0.751
13.6283	0.738
13.6672	0.705
13.706	0.649
13.7449	0.554
13.7838	0.463
13.8226	0.399
13.8615	0.416
13.9003	0.516
13.9392	0.604
13.9781	0.663
14.0169	0.71
14.0558	0.743
14.0946	0.759
14.1335	0.778
14.1724	0.793
14.2112	0.804
14.2501	0.806
14.2889	0.806
14.3278	0.802
14.3667	0.798
14.4055	0.794
14.4444	0.788
14.4832	0.768
14.5221	0.756
14.561	0.751
14.5998	0.735
14.6387	0.726
14.6775	0.72
14.7164	0.71
14.7553	0.72
14.7941	0.718
14.833	0.723
14.8719	0.726
14.9107	0.73
14.9496	0.728
14.9884	0.704
15.0273	0.667
15.0662	0.659
15.105	0.672
15.1439	0.701
15.1827	0.728
15.2216	0.741
15.2605	0.754
15.2993	0.756
15.3382	0.754
15.377	0.756
15.4159	0.752
15.4548	0.744
15.4936	0.746
15.5325	0.743
15.5713	0.746
15.6102	0.735
15.6491	0.72
15.6879	0.709
15.7268	0.705
15.7656	0.699
15.8045	0.681
15.8434	0.68
15.8822	0.667
15.9211	0.655
15.9599	0.642
