Infrared Spectrum: 1,2-DIBROMO TETRAFLUORO METHANE
Formula: C2 Br2 F4
CAS: 124-73-2
State: SOLUTION (10% CCl4 FOR 5000-1330, 10% CS2 FOR 1330-625 CM^-^1)
Boiling point: 46-47.5 C
Class: COBLENTZ
Instrument: Not specified, most likely a prism, grating, or hybrid spectrometer.
Sampling: TRANSMISSION
Path length: 0.0125 CM, 0.0119 CM
Resolution: 4
Origin: DOW CHEMICAL COMPANY
MICROMETERS	TRANSMITTANCE
2.027	0.897
2.0681	0.898
2.10919	0.898
2.15029	0.9
2.19139	0.9
2.23249	0.9
2.27358	0.898
2.31468	0.898
2.35578	0.898
2.39687	0.898
2.43797	0.898
2.47907	0.907
2.52017	0.907
2.56126	0.9
2.60236	0.904
2.64346	0.905
2.68455	0.9
2.72565	0.9
2.76675	0.895
2.80785	0.895
2.84894	0.897
2.89004	0.898
2.93114	0.897
2.97224	0.897
3.01333	0.897
3.05443	0.897
3.09553	0.897
3.13662	0.897
3.17772	0.893
3.21882	0.893
3.25992	0.895
3.30101	0.897
3.34211	0.892
3.38321	0.892
3.4243	0.892
3.4654	0.892
3.5065	0.892
3.5476	0.895
3.58869	0.892
3.62979	0.892
3.67089	0.892
3.71198	0.892
3.75308	0.892
3.79418	0.892
3.83528	0.892
3.87637	0.89
3.91747	0.89
3.95857	0.892
3.99966	0.89
4.04076	0.89
4.08186	0.89
4.12296	0.89
4.16405	0.897
4.20515	0.888
4.24625	0.876
4.28735	0.875
4.32844	0.881
4.36954	0.885
4.41064	0.888
4.45173	0.888
4.49283	0.888
4.53393	0.886
4.57503	0.888
4.61612	0.888
4.65722	0.888
4.69832	0.89
4.73941	0.888
4.78051	0.888
4.82161	0.888
4.86271	0.89
4.9038	0.892
4.9449	0.888
4.986	0.886
5.02709	0.886
5.06819	0.89
5.10929	0.886
5.15039	0.883
5.19148	0.883
5.23258	0.883
5.27368	0.883
5.31477	0.883
5.35587	0.88
5.39697	0.881
5.43807	0.88
5.47916	0.88
5.52026	0.88
5.56136	0.878
5.60246	0.878
5.64355	0.878
5.68465	0.878
5.72575	0.878
5.76684	0.876
5.80794	0.88
5.84904	0.88
5.89014	0.876
5.93123	0.878
5.97233	0.878
6.01343	0.881
6.05452	0.88
6.09562	0.878
6.13672	0.878
6.17782	0.875
6.21891	0.875
6.26001	0.873
6.30111	0.869
6.3422	0.861
6.3833	0.856
6.4244	0.852
6.4655	0.849
6.50659	0.845
6.54769	0.842
6.58879	0.84
6.62988	0.849
6.67098	0.866
6.71208	0.868
6.75318	0.873
6.79427	0.873
6.83537	0.868
6.87647	0.868
6.91757	0.868
6.95866	0.868
6.99976	0.868
7.04086	0.861
7.08195	0.859
7.12305	0.859
7.16415	0.863
7.20525	0.863
7.24634	0.864
7.28744	0.866
7.32854	0.866
7.36963	0.866
7.41073	0.869
7.45183	0.869
7.49293	0.869
7.53402	0.866
7.57512	0.866
7.61622	0.866
7.65731	0.863
7.69841	0.863
7.73951	0.861
7.78061	0.857
7.8217	0.852
7.8628	0.851
7.9039	0.851
7.94499	0.849
7.98609	0.808
8.02719	0.7
8.06829	0.693
8.10938	0.791
8.15048	0.813
8.19158	0.832
8.23267	0.839
8.27377	0.839
8.31487	0.83
8.35597	0.789
8.39706	0.715
8.43816	0.465
8.47926	0.219
8.52036	0.306
8.56145	0.421
8.60255	0.443
8.64365	0.592
8.68474	0.676
8.72584	0.722
8.76694	0.738
8.80804	0.712
8.84913	0.614
8.89023	0.434
8.93133	0.238
8.97242	0.282
9.01352	0.595
9.05462	0.724
9.09572	0.739
9.13681	0.736
9.17791	0.797
9.21901	0.84
9.2601	0.847
9.3012	0.851
9.3423	0.857
9.3834	0.861
9.42449	0.861
9.46559	0.861
9.50669	0.861
9.54778	0.863
9.58888	0.863
9.62998	0.863
9.67108	0.863
9.71217	0.859
9.75327	0.852
9.79437	0.837
9.83547	0.804
9.87656	0.715
9.91766	0.511
9.95876	0.429
9.99985	0.647
10.041	0.78
10.082	0.799
10.1231	0.811
10.1642	0.839
10.2053	0.849
10.2464	0.859
10.2875	0.863
10.3286	0.863
10.3697	0.861
10.4108	0.863
10.4519	0.864
10.493	0.864
10.5341	0.864
10.5752	0.864
10.6163	0.861
10.6574	0.854
10.6985	0.856
10.7396	0.859
10.7807	0.861
10.8218	0.859
10.8629	0.857
10.904	0.861
10.9451	0.864
10.9862	0.864
11.0273	0.864
11.0684	0.864
11.1095	0.864
11.1506	0.864
11.1917	0.864
11.2328	0.859
11.2739	0.849
11.315	0.842
11.3561	0.833
11.3972	0.816
11.4383	0.753
11.4794	0.628
11.5204	0.493
11.5615	0.554
11.6026	0.719
11.6437	0.801
11.6848	0.827
11.7259	0.833
11.767	0.845
11.8081	0.856
11.8492	0.864
11.8903	0.868
11.9314	0.869
11.9725	0.869
12.0136	0.869
12.0547	0.873
12.0958	0.871
12.1369	0.871
12.178	0.871
12.2191	0.871
12.2602	0.871
12.3013	0.875
12.3424	0.875
12.3835	0.875
12.4246	0.875
12.4657	0.873
12.5068	0.871
12.5479	0.869
12.589	0.864
12.6301	0.857
12.6712	0.84
12.7123	0.823
12.7534	0.82
12.7945	0.818
12.8356	0.816
12.8767	0.811
12.9178	0.789
12.9589	0.748
12.9999	0.659
13.041	0.486
13.0821	0.284
13.1232	0.126
13.1643	0.102
13.2054	0.226
13.2465	0.484
13.2876	0.619
13.3287	0.688
13.3698	0.732
13.4109	0.763
13.452	0.797
13.4931	0.82
13.5342	0.837
13.5753	0.845
13.6164	0.847
13.6575	0.849
13.6986	0.849
13.7397	0.849
13.7808	0.849
13.8219	0.851
13.863	0.849
13.9041	0.849
13.9452	0.851
13.9863	0.851
14.0274	0.851
14.0685	0.851
14.1096	0.845
14.1507	0.84
14.1918	0.84
14.2329	0.84
14.274	0.84
14.3151	0.842
14.3562	0.845
14.3973	0.845
14.4383	0.847
14.4794	0.844
14.5205	0.84
14.5616	0.839
14.6027	0.835
14.6438	0.835
14.6849	0.83
14.726	0.827
14.7671	0.825
14.8082	0.825
14.8493	0.818
14.8904	0.818
14.9315	0.818
14.9726	0.818
15.0137	0.816
15.0548	0.816
15.0959	0.811
15.137	0.809
15.1781	0.806
15.2192	0.799
15.2603	0.797
15.3014	0.796
15.3425	0.789
15.3836	0.785
15.4247	0.779
15.4658	0.777
15.5069	0.775
15.548	0.773
15.5891	0.773
15.6302	0.773
15.6713	0.772
15.7124	0.768
15.7535	0.768
15.7946	0.767
15.8357	0.767
15.8768	0.765
