Infrared Spectrum: HEXANEDIOIC ACID
Formula: C6 H10 O4
CAS: 124-04-9
State: SOLID (SPLIT MULL, FLUOROLUBE FOR 3800-1333 AND NUJOL FOR 1333-450 CM ^-^1)
Class: COBLENTZ III
Instrument: DOW KBr FOREPRISM-GRATING
Instrument parameters: BLAZED AT 3.5, 12.0, 20.0 MICRON, CHANGED AT 5.0, 7.5, 14.9 MICRON
Sampling: TRANSMISSION
Resolution: 4
Origin: DOW CHEMICAL COMPANY
1/CM	TRANSMITTANCE
448.835	0.95
457.363	0.959
465.89	0.97
474.418	0.974
482.945	0.977
491.473	0.967
500.001	0.937
508.528	0.851
517.056	0.776
525.583	0.863
534.111	0.88
542.639	0.963
551.166	0.991
559.694	0.985
568.221	0.987
576.749	1
585.277	1.01
593.804	1.005
602.332	1.006
610.859	1
619.387	1
627.915	0.986
636.442	0.973
644.97	0.959
653.497	0.931
662.025	0.883
670.553	0.831
679.08	0.768
687.608	0.617
696.135	0.645
704.663	0.831
713.191	0.864
721.718	0.815
730.246	0.777
738.773	0.639
747.301	0.87
755.829	0.912
764.356	0.919
772.884	0.918
781.411	0.915
789.939	0.911
798.467	0.902
806.994	0.891
815.522	0.887
824.049	0.883
832.577	0.876
841.105	0.86
849.632	0.851
858.16	0.838
866.687	0.819
875.215	0.793
883.743	0.741
892.27	0.663
900.798	0.538
909.325	0.5149
917.853	0.397
926.38	0.325
934.908	0.362
943.436	0.477
951.963	0.583
960.491	0.621
969.018	0.674
977.546	0.733
986.074	0.769
994.601	0.792
1003.13	0.807
1011.66	0.813
1020.18	0.815
1028.71	0.816
1037.24	0.803
1045.77	0.763
1054.29	0.831
1062.82	0.832
1071.35	0.832
1079.88	0.838
1088.4	0.838
1096.93	0.846
1105.46	0.847
1113.99	0.85
1122.52	0.839
1131.04	0.82
1139.57	0.795
1148.1	0.755
1156.63	0.741
1165.15	0.706
1173.68	0.629
1182.21	0.4669
1190.74	0.1399
1199.26	0.12
1207.79	0.4161
1216.32	0.742
1224.85	0.777
1233.37	0.768
1241.9	0.709
1250.43	0.558
1258.96	0.493
1267.48	0.3449
1276.01	0.087
1284.54	0.066
1293.07	0.199
1301.59	0.325
1310.12	0.424
1318.65	0.436
1327.18	0.658
1335.71	0.708
1344.23	0.681
1352.76	0.589
1361.29	0.674
1369.82	0.755
1378.34	0.745
1386.87	0.7
1395.4	0.5829
1403.93	0.3398
1412.45	0.368
1420.98	0.2809
1429.51	0.2531
1438.04	0.4471
1446.56	0.702
1455.09	0.713
1463.62	0.4161
1472.15	0.839
1480.67	0.863
1489.2	0.874
1497.73	0.879
1506.26	0.882
1514.78	0.88
1523.31	0.878
1531.84	0.864
1540.37	0.855
1548.9	0.842
1557.42	0.824
1565.95	0.803
1574.48	0.795
1583.01	0.779
1591.53	0.761
1600.06	0.744
1608.59	0.725
1617.12	0.69
1625.64	0.643
1634.17	0.583
1642.7	0.53
1651.23	0.447
1659.75	0.369
1668.28	0.279
1676.81	0.148
1685.34	0.049
1693.86	0.022
1702.39	0.029
1710.92	0.0501
1719.45	0.2041
1727.97	0.4591
1736.5	0.6331
1745.03	0.7011
1753.56	0.73
1762.09	0.74
1770.61	0.748
1779.14	0.756
1787.67	0.771
1796.2	0.773
1804.72	0.768
1813.25	0.767
1821.78	0.811
1830.31	0.829
1838.83	0.834
1847.36	0.839
1855.89	0.843
1864.42	0.85
1872.94	0.852
1881.47	0.854
1890	0.858
1898.53	0.862
1907.05	0.862
1915.58	0.862
1924.11	0.86
1932.64	0.86
1941.16	0.859
1949.69	0.867
1958.22	0.894
1966.75	0.874
1975.28	0.874
1983.8	0.87
1992.33	0.87
2000.86	0.876
2009.39	0.877
2017.91	0.876
2026.44	0.876
2034.97	0.878
2043.5	0.8741
2052.02	0.869
2060.55	0.8635
2069.08	0.8545
2077.61	0.851
2086.13	0.8462
2094.66	0.8331
2103.19	0.8281
2111.72	0.8206
2120.24	0.819
2128.77	0.816
2137.3	0.813
2145.83	0.805
2154.35	0.7966
2162.88	0.7926
2171.41	0.7846
2179.94	0.783
2188.47	0.781
2196.99	0.777
2205.52	0.773
2214.05	0.7662
2222.58	0.753
2231.1	0.749
2239.63	0.7472
2248.16	0.7384
2256.69	0.724
2265.21	0.7073
2273.74	0.7056
2282.27	0.7067
2290.8	0.705
2299.32	0.701
2307.85	0.692
2316.38	0.685
2324.91	0.682
2333.43	0.6793
2341.96	0.6753
2350.49	0.672
2359.02	0.676
2367.54	0.6657
2376.07	0.6547
2384.6	0.6405
2393.13	0.6217
2401.65	0.6147
2410.18	0.613
2418.71	0.6067
2427.24	0.597
2435.77	0.5884
2444.29	0.5757
2452.82	0.5675
2461.35	0.5507
2469.88	0.5342
2478.4	0.5172
2486.93	0.5037
2495.46	0.502
2503.99	0.4903
2512.51	0.484
2521.04	0.479
2529.57	0.4718
2538.1	0.4448
2546.62	0.4278
2555.15	0.421
2563.68	0.4232
2572.21	0.425
2580.73	0.4184
2589.26	0.41
2597.79	0.4144
2606.32	0.417
2614.84	0.4136
2623.37	0.4036
2631.9	0.396
2640.43	0.3928
2648.96	0.389
2657.48	0.3877
2666.01	0.3892
2674.54	0.4025
2683.07	0.42
2691.59	0.429
2700.12	0.4307
2708.65	0.427
2717.18	0.421
2725.7	0.419
2734.23	0.417
2742.76	0.4129
2751.29	0.4104
2759.81	0.4191
2768.34	0.424
2776.87	0.4209
2785.4	0.416
2793.92	0.4059
2802.45	0.3998
2810.98	0.3958
2819.51	0.3836
2828.03	0.37
2836.56	0.3607
2845.09	0.3498
2853.62	0.3365
2862.15	0.3147
2870.67	0.2887
2879.2	0.2942
2887.73	0.307
2896.26	0.3008
2904.78	0.2819
2913.31	0.271
2921.84	0.281
2930.37	0.2807
2938.89	0.2566
2947.42	0.2079
2955.95	0.2038
2964.48	0.2441
2973	0.346
2981.53	0.356
2990.06	0.356
2998.59	0.361
3007.11	0.36
3015.64	0.356
3024.17	0.354
3032.7	0.358
3041.22	0.361
3049.75	0.3729
3058.28	0.388
3066.81	0.4
3075.34	0.417
3083.86	0.4269
3092.39	0.4357
3100.92	0.4469
3109.45	0.4638
3117.97	0.4829
3126.5	0.5059
3135.03	0.5267
3143.56	0.5552
3152.08	0.5749
3160.61	0.5909
3169.14	0.6145
3177.67	0.6287
3186.19	0.65
3194.72	0.668
3203.25	0.6846
3211.78	0.7034
3220.3	0.7198
3228.83	0.7366
3237.36	0.7546
3245.89	0.7719
3254.41	0.7925
3262.94	0.808
3271.47	0.8328
3280	0.8545
3288.53	0.8677
3297.05	0.8856
3305.58	0.8994
3314.11	0.9068
3322.64	0.9118
3331.16	0.9167
3339.69	0.9245
3348.22	0.9418
3356.75	0.9605
3365.27	0.9726
3373.8	0.9814
3382.33	0.9868
3390.86	0.9938
3399.38	0.998
3407.91	0.998
3416.44	1.001
3424.97	1
3433.49	1.001
3442.02	0.998
3450.55	0.998
3459.08	0.998
3467.6	0.998
3476.13	0.997
3484.66	0.997
3493.19	0.994
3501.72	0.9915
3510.24	0.99
3518.77	0.99
3527.3	0.9875
3535.83	0.9853
3544.35	0.985
3552.88	0.986
3561.41	0.9828
3569.94	0.9783
3578.46	0.975
3586.99	0.974
3595.52	0.971
3604.05	0.971
3612.57	0.97
3621.1	0.9653
3629.63	0.9613
3638.16	0.959
3646.68	0.958
3655.21	0.955
3663.74	0.957
3672.27	0.956
3680.79	0.951
3689.32	0.949
3697.85	0.947
3706.38	0.9424
3714.91	0.942
3723.43	0.9414
3731.96	0.939
3740.49	0.9374
3749.02	0.9317
3757.54	0.927
3766.07	0.925
3774.6	0.922
3783.13	0.921
3791.65	0.921
