Infrared Spectrum: n-NONANAL
Formula: C9 H18 O
CAS: 124-19-6
State: LIQUID (NEAT)
Class: COBLENTZ III
Instrument: BECKMAN IR-4 (HYBRID PRISM-GRATING)
Sampling: TRANSMISSION
Path length: 0.0025 CM
Resolution: 4
Origin: UNIVERSITY OF FLORIDA
MICROMETERS	TRANSMITTANCE
0.991	0.856
1.02741	0.857
1.06383	0.857
1.10024	0.857
1.13665	0.859
1.17307	0.861
1.20948	0.863
1.24589	0.867
1.2823	0.868
1.31872	0.87
1.35513	0.87
1.39154	0.87
1.42796	0.87
1.46437	0.868
1.50078	0.854
1.5372	0.846
1.57361	0.852
1.61002	0.863
1.64643	0.866
1.68285	0.871
1.71926	0.871
1.75567	0.872
1.79209	0.873
1.8285	0.873
1.86491	0.874
1.90133	0.874
1.93774	0.874
1.97415	0.874
2.01056	0.871
2.04698	0.868
2.08339	0.863
2.1198	0.84
2.15622	0.848
2.19263	0.822
2.22904	0.776
2.26546	0.784
2.30187	0.783
2.33828	0.785
2.37469	0.794
2.41111	0.796
2.44752	0.819
2.48393	0.834
2.52035	0.84
2.55676	0.842
2.59317	0.841
2.62959	0.837
2.666	0.826
2.70241	0.811
2.73882	0.801
2.77524	0.777
2.81165	0.742
2.84806	0.734
2.88448	0.681
2.92089	0.739
2.9573	0.794
2.99372	0.809
3.03013	0.808
3.06654	0.801
3.10295	0.787
3.13937	0.772
3.17578	0.759
3.21219	0.732
3.24861	0.702
3.28502	0.625
3.32143	0.451
3.35785	0.051
3.39426	0.002
3.43067	0.002
3.46708	0.002
3.5035	0.017
3.53991	0.094
3.57632	0.418
3.61274	0.355
3.64915	0.115
3.68556	0.245
3.72198	0.537
3.75839	0.664
3.7948	0.722
3.83121	0.762
3.86763	0.789
3.90404	0.816
3.94045	0.83
3.97687	0.841
4.01328	0.851
4.04969	0.852
4.08611	0.848
4.12252	0.845
4.15893	0.844
4.19534	0.843
4.23176	0.844
4.26817	0.845
4.30458	0.846
4.341	0.846
4.37741	0.846
4.41382	0.848
4.45024	0.851
4.48665	0.851
4.52306	0.85
4.55948	0.852
4.59589	0.854
4.6323	0.855
4.66871	0.858
4.70513	0.858
4.74154	0.856
4.77795	0.855
4.81437	0.851
4.85078	0.849
4.88719	0.846
4.92361	0.85
4.96002	0.857
4.99643	0.857
5.03284	0.856
5.06926	0.852
5.10567	0.852
5.14208	0.85
5.1785	0.846
5.21491	0.841
5.25132	0.836
5.28774	0.833
5.32415	0.822
5.36056	0.811
5.39697	0.8
5.43339	0.784
5.4698	0.753
5.50621	0.703
5.54263	0.636
5.57904	0.553
5.61545	0.464
5.65187	0.359
5.68828	0.198
5.72469	0.018
5.7611	0.002
5.79752	0.003
5.83393	0.053
5.87034	0.331
5.90676	0.397
5.94317	0.561
5.97958	0.666
6.016	0.705
6.05241	0.748
6.08882	0.755
6.12523	0.767
6.16165	0.783
6.19806	0.791
6.23447	0.797
6.27089	0.806
6.3073	0.807
6.34371	0.808
6.38013	0.803
6.41654	0.801
6.45295	0.792
6.48936	0.791
6.52578	0.771
6.56219	0.753
6.5986	0.734
6.63502	0.718
6.67143	0.684
6.70784	0.606
6.74426	0.475
6.78067	0.084
6.81708	0.033
6.85349	0.094
6.88991	0.18
6.92632	0.277
6.96273	0.384
6.99915	0.368
7.03556	0.247
7.07197	0.182
7.10839	0.281
7.1448	0.241
7.18121	0.18
7.21762	0.197
7.25404	0.24
7.29045	0.302
7.32686	0.346
7.36328	0.358
7.39969	0.393
7.4361	0.442
7.47252	0.531
7.50893	0.565
7.54534	0.564
7.58176	0.553
7.61817	0.543
7.65458	0.538
7.69099	0.557
7.72741	0.57
7.76382	0.561
7.80023	0.567
7.83665	0.587
7.87306	0.598
7.90947	0.611
7.94589	0.598
7.9823	0.589
8.01871	0.593
8.05512	0.601
8.09154	0.614
8.12795	0.632
8.16436	0.644
8.20078	0.641
8.23719	0.633
8.2736	0.629
8.31002	0.618
8.34643	0.607
8.38284	0.592
8.41925	0.583
8.45567	0.576
8.49208	0.566
8.52849	0.571
8.56491	0.584
8.60132	0.58
8.63773	0.559
8.67415	0.519
8.71056	0.465
8.74697	0.442
8.78338	0.448
8.8198	0.44
8.85621	0.417
8.89262	0.409
8.92904	0.431
8.96545	0.484
9.00186	0.535
9.03828	0.57
9.07469	0.595
9.1111	0.606
9.14751	0.604
9.18393	0.596
9.22034	0.574
9.25675	0.538
9.29317	0.499
9.32958	0.471
9.36599	0.46
9.40241	0.473
9.43882	0.485
9.47523	0.502
9.51164	0.51
9.54806	0.514
9.58447	0.521
9.62088	0.526
9.6573	0.538
9.69371	0.546
9.73012	0.549
9.76654	0.552
9.80295	0.555
9.83936	0.553
9.87577	0.546
9.91219	0.533
9.9486	0.521
9.98501	0.513
10.0214	0.51
10.0578	0.509
10.0943	0.507
10.1307	0.507
10.1671	0.506
10.2035	0.507
10.2399	0.51
10.2763	0.514
10.3127	0.522
10.3491	0.53
10.3856	0.55
10.422	0.569
10.4584	0.584
10.4948	0.592
10.5312	0.592
10.5676	0.593
10.604	0.598
10.6404	0.604
10.6769	0.617
10.7133	0.628
10.7497	0.636
10.7861	0.637
10.8225	0.637
10.8589	0.637
10.8953	0.638
10.9318	0.641
10.9682	0.64
11.0046	0.632
11.041	0.62
11.0774	0.604
11.1138	0.594
11.1502	0.583
11.1866	0.573
11.2231	0.573
11.2595	0.583
11.2959	0.601
11.3323	0.625
11.3687	0.642
11.4051	0.65
11.4415	0.647
11.4779	0.644
11.5144	0.629
11.5508	0.619
11.5872	0.616
11.6236	0.621
11.66	0.639
11.6964	0.656
11.7328	0.674
11.7693	0.688
11.8057	0.695
11.8421	0.701
11.8785	0.702
11.9149	0.7
11.9513	0.698
11.9877	0.694
12.0241	0.693
12.0606	0.693
12.097	0.694
12.1334	0.695
12.1698	0.7
12.2062	0.705
12.2426	0.716
12.279	0.723
12.3154	0.733
12.3519	0.738
12.3883	0.743
12.4247	0.747
12.4611	0.751
12.4975	0.751
12.5339	0.746
12.5703	0.742
12.6068	0.737
12.6432	0.729
12.6796	0.722
12.716	0.711
12.7524	0.695
12.7888	0.687
12.8252	0.673
12.8616	0.663
12.8981	0.657
12.9345	0.652
12.9709	0.651
13.0073	0.651
13.0437	0.655
13.0801	0.661
13.1165	0.664
13.1529	0.666
13.1894	0.667
13.2258	0.665
13.2622	0.662
13.2986	0.654
13.335	0.646
13.3714	0.637
13.4078	0.621
13.4442	0.604
13.4807	0.593
13.5171	0.579
13.5535	0.569
13.5899	0.558
13.6263	0.545
13.6627	0.523
13.6991	0.486
13.7356	0.441
13.772	0.388
13.8084	0.327
13.8448	0.316
13.8812	0.333
13.9176	0.378
13.954	0.444
13.9904	0.489
14.0269	0.529
14.0633	0.559
14.0997	0.581
14.1361	0.599
14.1725	0.605
14.2089	0.61
14.2453	0.607
14.2817	0.604
14.3182	0.6
14.3546	0.593
14.391	0.582
14.4274	0.569
14.4638	0.561
14.5002	0.551
14.5366	0.544
14.5731	0.542
14.6095	0.542
14.6459	0.542
14.6823	0.542
14.7187	0.543
14.7551	0.544
14.7915	0.543
14.8279	0.544
14.8644	0.545
14.9008	0.545
14.9372	0.541
14.9736	0.537
