Infrared Spectrum: N-DODECYL AMINE
Formula: C12 H27 N
CAS: 124-22-1
State: SOLID
Class: COBLENTZ
Instrument: PERKIN-ELMER
Sampling: TRANSMISSION
Path length: SMEAR ALLOWED TO SOLIDIFY, REMAINED SOLID DURING RUN
Resolution: 4
Origin: SUN CHEMICAL CORP., R.W. BASSEMIR
MICROMETERS	TRANSMITTANCE
2.04	0.818
2.07361	0.819
2.10722	0.819
2.14083	0.818
2.17444	0.821
2.20805	0.821
2.24166	0.821
2.27527	0.818
2.30888	0.804
2.34249	0.807
2.37609	0.809
2.4097	0.811
2.44331	0.814
2.47692	0.819
2.51053	0.821
2.54414	0.823
2.57775	0.824
2.61136	0.829
2.64497	0.831
2.67858	0.829
2.71219	0.829
2.7458	0.828
2.77941	0.821
2.81302	0.821
2.84663	0.819
2.88024	0.814
2.91385	0.809
2.94746	0.772
2.98107	0.608
3.01467	0.62
3.04828	0.721
3.08189	0.761
3.1155	0.767
3.14911	0.761
3.18272	0.753
3.21633	0.727
3.24994	0.698
3.28355	0.654
3.31716	0.602
3.35077	0.482
3.38438	0.215
3.41799	0.078
3.4516	0.239
3.48521	0.153
3.51882	0.382
3.55243	0.532
3.58604	0.562
3.61964	0.573
3.65325	0.591
3.68686	0.61
3.72047	0.619
3.75408	0.624
3.78769	0.625
3.8213	0.63
3.85491	0.636
3.88852	0.636
3.92213	0.639
3.95574	0.653
3.98935	0.664
4.02296	0.687
4.05657	0.704
4.09018	0.724
4.12379	0.738
4.1574	0.753
4.19101	0.765
4.22462	0.768
4.25822	0.775
4.29183	0.782
4.32544	0.785
4.35905	0.795
4.39266	0.799
4.42627	0.799
4.45988	0.797
4.49349	0.794
4.5271	0.787
4.56071	0.775
4.59432	0.765
4.62793	0.765
4.66154	0.773
4.69515	0.784
4.72876	0.79
4.76237	0.801
4.79598	0.804
4.82959	0.807
4.8632	0.812
4.8968	0.814
4.93041	0.814
4.96402	0.814
4.99763	0.818
5.03124	0.819
5.06485	0.819
5.09846	0.821
5.13207	0.823
5.16568	0.821
5.19929	0.821
5.2329	0.823
5.26651	0.823
5.30012	0.823
5.33373	0.823
5.36734	0.823
5.40095	0.824
5.43456	0.824
5.46817	0.828
5.50177	0.824
5.53538	0.826
5.56899	0.824
5.6026	0.824
5.63621	0.823
5.66982	0.823
5.70343	0.819
5.73704	0.819
5.77065	0.823
5.80426	0.823
5.83787	0.821
5.87148	0.812
5.90509	0.809
5.9387	0.799
5.97231	0.772
6.00592	0.705
6.03953	0.663
6.07314	0.661
6.10675	0.688
6.14035	0.702
6.17396	0.702
6.20757	0.673
6.24118	0.615
6.27479	0.552
6.3084	0.493
6.34201	0.433
6.37562	0.362
6.40923	0.387
6.44284	0.559
6.47645	0.624
6.51006	0.67
6.54367	0.668
6.57728	0.593
6.61089	0.513
6.6445	0.418
6.67811	0.268
6.71172	0.248
6.74533	0.352
6.77893	0.301
6.81254	0.369
6.84615	0.442
6.87976	0.528
6.91337	0.532
6.94698	0.506
6.98059	0.556
7.0142	0.63
7.04781	0.67
7.08142	0.69
7.11503	0.692
7.14864	0.659
7.18225	0.632
7.21586	0.603
7.24947	0.658
7.28308	0.693
7.31669	0.702
7.3503	0.697
7.3839	0.676
7.41751	0.647
7.45112	0.668
7.48473	0.658
7.51834	0.612
7.55195	0.596
7.58556	0.613
7.61917	0.581
7.65278	0.608
7.68639	0.649
7.72	0.675
7.75361	0.704
7.78722	0.717
7.82083	0.739
7.85444	0.744
7.88805	0.751
7.92166	0.744
7.95527	0.76
7.98888	0.767
8.02248	0.772
8.05609	0.777
8.0897	0.761
8.12331	0.768
8.15692	0.784
8.19053	0.787
8.22414	0.789
8.25775	0.784
8.29136	0.77
8.32497	0.782
8.35858	0.789
8.39219	0.792
8.4258	0.792
8.45941	0.785
8.49302	0.782
8.52663	0.784
8.56024	0.773
8.59385	0.75
8.62746	0.729
8.66106	0.7
8.69467	0.744
8.72828	0.782
8.76189	0.801
8.7955	0.804
8.82911	0.802
8.86272	0.802
8.89633	0.799
8.92994	0.802
8.96355	0.802
8.99716	0.811
9.03077	0.811
9.06438	0.809
9.09799	0.809
9.1316	0.801
9.16521	0.795
9.19882	0.801
9.23243	0.801
9.26603	0.801
9.29964	0.801
9.33325	0.801
9.36686	0.799
9.40047	0.799
9.43408	0.799
9.46769	0.801
9.5013	0.801
9.53491	0.801
9.56852	0.801
9.60213	0.801
9.63574	0.801
9.66935	0.804
9.70296	0.807
9.73657	0.811
9.77018	0.812
9.80379	0.812
9.8374	0.812
9.87101	0.812
9.90461	0.812
9.93822	0.814
9.97183	0.818
10.0054	0.821
10.0391	0.819
10.0727	0.821
10.1063	0.819
10.1399	0.819
10.1735	0.818
10.2071	0.819
10.2407	0.821
10.2743	0.821
10.3079	0.821
10.3415	0.821
10.3751	0.821
10.4088	0.821
10.4424	0.818
10.476	0.816
10.5096	0.818
10.5432	0.819
10.5768	0.819
10.6104	0.812
10.644	0.807
10.6776	0.804
10.7112	0.809
10.7449	0.811
10.7785	0.814
10.8121	0.816
10.8457	0.814
10.8793	0.812
10.9129	0.812
10.9465	0.812
10.9801	0.811
11.0137	0.811
11.0473	0.811
11.0809	0.809
11.1146	0.807
11.1482	0.807
11.1818	0.802
11.2154	0.79
11.249	0.785
11.2826	0.785
11.3162	0.792
11.3498	0.795
11.3834	0.797
11.417	0.795
11.4507	0.795
11.4843	0.795
11.5179	0.794
11.5515	0.794
11.5851	0.794
11.6187	0.79
11.6523	0.79
11.6859	0.789
11.7195	0.787
11.7531	0.785
11.7867	0.784
11.8204	0.78
11.854	0.78
11.8876	0.772
11.9212	0.751
11.9548	0.751
11.9884	0.76
12.022	0.765
12.0556	0.768
12.0892	0.768
12.1228	0.763
12.1564	0.755
12.1901	0.721
12.2237	0.661
12.2573	0.663
12.2909	0.714
12.3245	0.739
12.3581	0.748
12.3917	0.753
12.4253	0.751
12.4589	0.751
12.4925	0.746
12.5262	0.744
12.5598	0.736
12.5934	0.731
12.627	0.736
12.6606	0.741
12.6942	0.746
12.7278	0.75
12.7614	0.751
12.795	0.755
12.8286	0.755
12.8622	0.755
12.8959	0.755
12.9295	0.755
12.9631	0.751
12.9967	0.748
13.0303	0.739
13.0639	0.717
13.0975	0.705
13.1311	0.71
13.1647	0.729
13.1983	0.748
13.232	0.75
13.2656	0.75
13.2992	0.748
13.3328	0.744
13.3664	0.744
13.4	0.741
13.4336	0.732
13.4672	0.724
13.5008	0.717
13.5344	0.715
13.568	0.717
13.6017	0.715
13.6353	0.709
13.6689	0.7
13.7025	0.68
13.7361	0.661
13.7697	0.646
13.8033	0.637
13.8369	0.602
13.8705	0.564
13.9041	0.551
13.9378	0.557
13.9714	0.573
14.005	0.607
14.0386	0.632
14.0722	0.649
14.1058	0.651
14.1394	0.654
14.173	0.654
14.2066	0.653
14.2402	0.649
14.2738	0.647
14.3075	0.641
14.3411	0.636
14.3747	0.627
14.4083	0.619
14.4419	0.615
14.4755	0.603
14.5091	0.602
14.5427	0.593
14.5763	0.586
14.6099	0.583
14.6435	0.578
14.6772	0.573
14.7108	0.571
14.7444	0.569
14.778	0.568
14.8116	0.566
14.8452	0.566
14.8788	0.564
14.9124	0.564
14.946	0.568
