Infrared Spectrum: OCTANOIC ACID
Formula: C8 H16 O2
CAS: 124-07-2
State: SOLUTION (10% CCl4 FOR 3800-1330, 10% CS2 FOR 1330-400 CM^-^1)
Class: COBLENTZ III
Instrument: BECKMAN IR-9 (GRATING)
Instrument parameters: ORDER CHANGES: 670, 1200, 2000 CM^-^1
Sampling: TRANSMISSION
Path length: 0.010 CM, 0.011 CM
Resolution: 2
Origin: DOW CHEMICAL COMPANY
1/CM	TRANSMITTANCE
3800	0.9071
3791	0.9071
3782	0.9071
3773	0.9071
3764	0.9071
3755	0.9065
3746	0.9054
3737	0.9041
3728	0.9025
3719	0.901
3710	0.8995
3701	0.8978
3692	0.8963
3683	0.8961
3674	0.8967
3665	0.897
3656	0.897
3647	0.8961
3638	0.894
3629	0.8925
3620	0.891
3611	0.8906
3602	0.8903
3593	0.8896
3584	0.8885
3575	0.8863
3566	0.8789
3557	0.8625
3548	0.8409
3539	0.8359
3530	0.8455
3521	0.8549
3512	0.8558
3503	0.8532
3494	0.8494
3485	0.8445
3476	0.8389
3467	0.8336
3458	0.8292
3449	0.8247
3440	0.8164
3431	0.8074
3422	0.7978
3413	0.7875
3404	0.7738
3395	0.7598
3386	0.745
3377	0.731
3368	0.7178
3359	0.6998
3350	0.6841
3341	0.6696
3332	0.6544
3323	0.6384
3314	0.6219
3305	0.6022
3296	0.5802
3287	0.5568
3278	0.5328
3269	0.5098
3260	0.4875
3251	0.4667
3242	0.4454
3233	0.4239
3224	0.405
3215	0.3866
3206	0.3727
3197	0.3588
3188	0.3442
3179	0.3296
3170	0.315
3161	0.2987
3152	0.2824
3143	0.2649
3134	0.2471
3125	0.2298
3116	0.2146
3107	0.2028
3098	0.1996
3089	0.1981
3080	0.1943
3071	0.1844
3062	0.1751
3053	0.1707
3044	0.169
3035	0.1691
3026	0.1687
3017	0.1682
3008	0.1633
2999	0.1502
2990	0.1328
2981	0.0932
2972	0.0427
2963	0.009
2954	0.0089
2945	0.0082
2936	0.0074
2927	0.0116
2918	0.0271
2909	0.0482
2900	0.0718
2891	0.0849
2882	0.0783
2873	0.0469
2864	0.0294
2855	0.0439
2846	0.1224
2837	0.2731
2828	0.2981
2819	0.319
2810	0.3366
2801	0.353
2792	0.3684
2783	0.3832
2774	0.3878
2765	0.3878
2756	0.3894
2747	0.3941
2738	0.3966
2729	0.3979
2720	0.3974
2711	0.391
2702	0.3812
2693	0.3679
2684	0.3582
2675	0.3599
2666	0.3688
2657	0.379
2648	0.3862
2639	0.3934
2630	0.4022
2621	0.4127
2612	0.425
2603	0.4347
2594	0.4419
2585	0.4482
2576	0.4567
2567	0.4686
2558	0.4818
2549	0.4989
2540	0.516
2531	0.539
2522	0.5621
2513	0.5879
2504	0.6141
2495	0.6318
2486	0.6486
2477	0.6625
2468	0.6765
2459	0.6884
2450	0.7001
2441	0.7118
2432	0.7217
2423	0.7272
2414	0.7334
2405	0.7395
2396	0.7458
2387	0.7525
2378	0.7595
2369	0.7639
2360	0.7656
2351	0.7699
2342	0.7726
2333	0.7746
2324	0.7762
2315	0.778
2306	0.7796
2297	0.7806
2288	0.7822
2279	0.7845
2270	0.7903
2261	0.7961
2252	0.8006
2243	0.8042
2234	0.8068
2225	0.8095
2216	0.8118
2207	0.8138
2198	0.8158
2189	0.8178
2180	0.8199
2171	0.8199
2162	0.818
2153	0.8174
2144	0.8195
2135	0.8216
2126	0.8239
2117	0.8266
2108	0.8268
2099	0.8268
2090	0.8262
2081	0.825
2072	0.8232
2063	0.8213
2054	0.8194
2045	0.8171
2036	0.8147
2027	0.8118
2018	0.8086
2009	0.8065
2000	0.791
1991	0.8111
1982	0.8095
1973	0.8087
1964	0.8071
1955	0.8048
1946	0.8022
1937	0.7994
1928	0.7958
1919	0.7926
1910	0.7899
1901	0.7861
1892	0.7807
1883	0.7751
1874	0.7687
1865	0.7618
1856	0.7551
1847	0.748
1838	0.7404
1829	0.7311
1820	0.7204
1811	0.7061
1802	0.6965
1793	0.6878
1784	0.6698
1775	0.6295
1766	0.5735
1757	0.4987
1748	0.4276
1739	0.3368
1730	0.1524
1721	0.0006
1712	0.0026
1703	0.0052
1694	0.1296
1685	0.3824
1676	0.4816
1667	0.5768
1658	0.6415
1649	0.6751
1640	0.7057
1631	0.7285
1622	0.7345
1613	0.7268
1604	0.6918
1595	0.631
1586	0.5709
1577	0.5625
1568	0.5037
1559	0.4546
1550	0.4629
1541	0.536
1532	0.5879
1523	0.621
1514	0.6542
1505	0.6825
1496	0.6812
1487	0.6654
1478	0.5912
1469	0.2419
1460	0.2575
1451	0.3355
1442	0.2971
1433	0.2709
1424	0.2397
1415	0.1468
1406	0.3212
1397	0.5947
1388	0.6183
1379	0.506
1370	0.6494
1361	0.6296
1352	0.5805
1343	0.5207
1334	0.5001
1325	0.3886
1316	0.3034
1307	0.225
1298	0.1848
1289	0.1694
1280	0.1756
1271	0.2387
1262	0.3128
1253	0.2868
1244	0.2212
1235	0.2201
1226	0.2974
1217	0.4275
1208	0.3814
1199	0.4699
1190	0.5493
1181	0.5501
1172	0.5769
1163	0.6606
1154	0.7199
1145	0.7376
1136	0.7364
1127	0.6872
1118	0.5586
1109	0.5699
1100	0.6757
1091	0.7271
1082	0.7382
1073	0.7347
1064	0.7378
1055	0.7365
1046	0.7274
1037	0.7218
1028	0.7274
1019	0.7258
1010	0.7176
1001	0.7064
992	0.6858
983	0.6372
974	0.5629
965	0.4774
956	0.3634
947	0.2605
938	0.2585
929	0.3003
920	0.3571
911	0.4319
902	0.4791
893	0.5217
884	0.5473
875	0.5608
866	0.5627
857	0.5951
848	0.6703
839	0.7175
830	0.7538
821	0.7711
812	0.7557
803	0.7419
794	0.7521
785	0.7725
776	0.7845
767	0.7883
758	0.7651
749	0.7708
740	0.7593
731	0.6304
722	0.748
713	0.8018
704	0.7955
695	0.7784
686	0.7494
677	0.7493
668	0.7508
659	0.7398
650	0.7545
641	0.7525
632	0.7632
623	0.7905
614	0.7861
605	0.803
596	0.8349
587	0.8631
578	0.8733
569	0.8735
560	0.8624
551	0.8407
542	0.8248
533	0.8082
524	0.7926
515	0.7775
506	0.7461
497	0.6968
488	0.6645
479	0.6643
470	0.669
461	0.6632
452	0.6426
443	0.5928
434	0.5379
425	0.3525
416	0.2129
407	0.2087
