Infrared Spectrum: Isoborneol
Formula: C10 H18 O
CAS: 124-76-5
State: SOLID (2 mg / 200 mg (1%) KBr DISC)
Class: COBLENTZ III
Instrument: BECKMAN IR-12 (GRATING)
Instrument parameters: GRATING
Sampling: TRANSMISSION
Resolution: 2
Origin: COLGATE-PALMOLIVE COMPANY (KELLENBACH)
1/CM	TRANSMITTANCE
200	0.0311
210	0.0199
220	0.0141
230	0.0557
240	0.1448
250	0.2696
260	0.3987
270	0.5185
280	0.5472
290	0.5815
300	0.6306
310	0.6722
320	0.718
330	0.7333
340	0.7446
350	0.7654
360	0.774
370	0.7978
380	0.791
390	0.7759
400	0.7781
410	0.7757
420	0.7189
430	0.7521
440	0.7803
450	0.7872
460	0.7852
470	0.7757
480	0.7609
490	0.758
500	0.7671
510	0.7679
520	0.7591
530	0.7199
540	0.7346
550	0.7406
560	0.7382
570	0.7386
580	0.7263
590	0.73
600	0.7366
610	0.7432
620	0.7303
630	0.7225
640	0.7522
650	0.7086
660	0.711
670	0.7415
680	0.7563
690	0.7688
700	0.7807
710	0.7929
720	0.7902
730	0.7967
740	0.8284
750	0.8443
760	0.8539
770	0.8618
780	0.8499
790	0.8175
800	0.9024
810	0.9133
820	0.9131
830	0.8956
840	0.6877
850	0.8369
860	0.8093
870	0.8487
880	0.9193
890	0.9191
900	0.8166
910	0.6351
920	0.8185
930	0.8111
940	0.6921
950	0.684
960	0.7837
970	0.6818
980	0.7578
990	0.6214
1000	0.2107
1010	0.3908
1020	0.7085
1030	0.8005
1040	0.8142
1050	0.7108
1060	0.3318
1070	0.0834
1080	0.4001
1090	0.674
1100	0.5012
1110	0.5169
1120	0.7461
1130	0.8275
1140	0.8372
1150	0.8365
1160	0.8238
1170	0.801
1180	0.7664
1190	0.6217
1200	0.7281
1210	0.6441
1220	0.727
1230	0.6623
1240	0.6144
1250	0.6337
1260	0.6371
1270	0.6647
1280	0.6136
1290	0.5559
1300	0.5712
1310	0.603
1320	0.7143
1330	0.5854
1340	0.494
1350	0.5576
1360	0.563
1370	0.4354
1380	0.5647
1390	0.5306
1400	0.7023
1410	0.692
1420	0.6938
1430	0.624
1440	0.4983
1450	0.266
1460	0.3842
1470	0.4606
1480	0.5196
1490	0.7638
1500	0.812
1510	0.8309
1520	0.8453
1530	0.8606
1540	0.8493
1550	0.8685
1560	0.8589
1570	0.8743
1580	0.8669
1590	0.866
1600	0.8537
1610	0.8302
1620	0.818
1630	0.8109
1640	0.8167
1650	0.821
1660	0.8549
1670	0.8611
1680	0.8619
1690	0.8729
1700	0.8741
1710	0.8791
1720	0.8766
1730	0.8657
1740	0.8677
1750	0.8761
1760	0.8882
1770	0.8859
1780	0.8946
1790	0.883
1800	0.8799
1810	0.877
1820	0.8773
1830	0.8737
1840	0.8749
1850	0.8787
1860	0.8739
1870	0.8712
1880	0.8751
1890	0.8692
1900	0.8668
1910	0.8657
1920	0.8655
1930	0.8639
1940	0.8565
1950	0.8554
1960	0.8543
1970	0.8532
1980	0.8519
1990	0.8491
2000	0.8208
2010	0.8088
2020	0.8061
2030	0.8047
2040	0.8046
2050	0.8022
2060	0.7995
2070	0.7978
2080	0.7975
2090	0.7967
2100	0.7953
2110	0.7932
2120	0.7915
2130	0.7898
2140	0.7884
2150	0.7879
2160	0.7885
2170	0.7876
2180	0.7874
2190	0.7871
2200	0.7857
2210	0.7837
2220	0.7813
2230	0.7795
2240	0.7783
2250	0.7772
2260	0.7764
2270	0.7756
2280	0.7753
2290	0.7745
2300	0.7634
2310	0.7559
2320	0.7504
2330	0.7456
2340	0.7429
2350	0.7414
2360	0.7409
2370	0.7504
2380	0.7614
2390	0.7595
2400	0.7573
2410	0.7554
2420	0.7535
2430	0.7516
2440	0.7497
2450	0.7478
2460	0.746
2470	0.7453
2480	0.7445
2490	0.7429
2500	0.7413
2510	0.7403
2520	0.7407
2530	0.7416
2540	0.7373
2550	0.7323
2560	0.727
2570	0.7219
2580	0.7191
2590	0.7169
2600	0.7131
2610	0.7134
2620	0.7154
2630	0.7116
2640	0.7056
2650	0.7036
2660	0.6897
2670	0.6875
2680	0.6839
2690	0.6754
2700	0.6559
2710	0.6409
2720	0.645
2730	0.6529
2740	0.6481
2750	0.6408
2760	0.6437
2770	0.6538
2780	0.6546
2790	0.6485
2800	0.6362
2810	0.617
2820	0.5914
2830	0.5603
2840	0.3908
2850	0.2521
2860	0.0776
2870	0.0507
2880	0.0716
2890	0.1087
2900	0.094
2910	0.0465
2920	0.0285
2930	0.0155
2940	0.007
2950	0.0071
2960	0.0691
2970	0.1091
2980	0.2196
2990	0.345
3000	0.3569
3010	0.4219
3020	0.4851
3030	0.5277
3040	0.5584
3050	0.5665
3060	0.5697
3070	0.5704
3080	0.5699
3090	0.5687
3100	0.5666
3110	0.5634
3120	0.5593
3130	0.5547
3140	0.5482
3150	0.5407
3160	0.5311
3170	0.519
3180	0.5064
3190	0.4922
3200	0.4758
3210	0.4571
3220	0.4393
3230	0.4213
3240	0.3969
3250	0.3732
3260	0.3468
3270	0.3218
3280	0.2936
3290	0.2631
3300	0.2373
3310	0.2106
3320	0.1869
3330	0.1696
3340	0.1556
3350	0.139
3360	0.1262
3370	0.1179
3380	0.1133
3390	0.1112
3400	0.11
3410	0.1096
3420	0.1101
3430	0.1116
3440	0.1149
3450	0.1205
3460	0.1278
3470	0.1401
3480	0.1586
3490	0.1779
3500	0.2042
3510	0.2317
3520	0.2592
3530	0.2882
3540	0.3272
3550	0.3684
3560	0.3872
3570	0.4078
3580	0.4176
3590	0.4235
3600	0.4277
3610	0.431
3620	0.4477
3630	0.4846
3640	0.5
3650	0.511
3660	0.5078
3670	0.513
3680	0.5203
3690	0.5227
3700	0.5226
3710	0.5206
3720	0.5181
3730	0.5137
3740	0.5133
3750	0.5196
3760	0.5199
3770	0.5181
3780	0.5155
3790	0.5128
3800	0.5111
3810	0.51
3820	0.5089
3830	0.5078
3840	0.5065
3850	0.5053
3860	0.5039
3870	0.5026
3880	0.5029
3890	0.5033
3900	0.5037
3910	0.504
3920	0.5043
3930	0.5038
3940	0.5029
3950	0.5017
3960	0.5
3970	0.4975
3980	0.4961
3990	0.4955
4000	0.495
