Infrared Spectrum: 2-ETHYLHEXYL DIPHENYL PHOSPHATE
Formula: C20 H27 O4 P
CAS: 1241-94-7
Class: COBLENTZ
Instrument: Not specified, most likely a prism, grating, or hybrid spectrometer.
Sampling: TRANSMISSION
Path length: SMEAR
Resolution: 4
Origin: TENNESSEE EASTMAN COMPANY, RESEARCH LABORATORIES
MICROMETERS	TRANSMITTANCE
2	0.998
2.04096	1
2.08191	0.993
2.12287	0.994
2.16382	1
2.20478	0.998
2.24574	0.989
2.28669	0.976
2.32765	0.97
2.3686	0.97
2.40956	0.97
2.45052	0.945
2.49147	0.957
2.53243	0.97
2.57339	0.97
2.61434	0.969
2.6553	0.97
2.69625	0.955
2.73721	0.928
2.77817	0.912
2.81912	0.89
2.86008	0.83
2.90103	0.823
2.94199	0.817
2.98295	0.757
3.0239	0.711
3.06486	0.748
3.10581	0.806
3.14677	0.825
3.18773	0.851
3.22868	0.801
3.26964	0.611
3.31059	0.704
3.35155	0.386
3.39251	0.205
3.43346	0.331
3.47442	0.323
3.51537	0.699
3.55633	0.839
3.59729	0.875
3.63824	0.883
3.6792	0.887
3.72016	0.911
3.76111	0.919
3.80207	0.923
3.84302	0.924
3.88398	0.921
3.92494	0.921
3.96589	0.941
4.00685	0.945
4.0478	0.945
4.08876	0.947
4.12972	0.94
4.17067	0.926
4.21163	0.919
4.25258	0.909
4.29354	0.905
4.3345	0.912
4.37545	0.95
4.41641	0.947
4.45736	0.945
4.49832	0.948
4.53928	0.955
4.58023	0.955
4.62119	0.96
4.66214	0.96
4.7031	0.96
4.74406	0.955
4.78501	0.953
4.82597	0.952
4.86693	0.947
4.90788	0.943
4.94884	0.926
4.98979	0.9
5.03075	0.873
5.07171	0.849
5.11266	0.825
5.15362	0.805
5.19457	0.83
5.23553	0.849
5.27649	0.842
5.31744	0.835
5.3584	0.825
5.39935	0.863
5.44031	0.907
5.48127	0.911
5.52222	0.894
5.56318	0.858
5.60413	0.835
5.64509	0.851
5.68605	0.863
5.727	0.808
5.76796	0.758
5.80892	0.762
5.84987	0.803
5.89083	0.815
5.93178	0.827
5.97274	0.82
6.0137	0.805
6.05465	0.801
6.09561	0.791
6.13656	0.781
6.17752	0.752
6.21848	0.588
6.25943	0.222
6.30039	0.357
6.34134	0.56
6.3823	0.753
6.42326	0.781
6.46421	0.752
6.50517	0.731
6.54612	0.659
6.58708	0.601
6.62804	0.328
6.66899	0.147
6.70995	0.182
6.7509	0.283
6.79186	0.302
6.83282	0.311
6.87377	0.49
6.91473	0.622
6.95569	0.712
6.99664	0.748
7.0376	0.764
7.07855	0.764
7.11951	0.709
7.16047	0.622
7.20142	0.545
7.24238	0.517
7.28333	0.589
7.32429	0.613
7.36525	0.675
7.4062	0.695
7.44716	0.659
7.48811	0.582
7.52907	0.548
7.57003	0.427
7.61098	0.271
7.65194	0.234
7.69289	0.189
7.73385	0.172
7.77481	0.177
7.81576	0.211
7.85672	0.261
7.89767	0.309
7.93863	0.34
7.97959	0.362
8.02054	0.352
8.0615	0.3
8.10246	0.259
8.14341	0.21
8.18437	0.191
8.22532	0.22
8.26628	0.241
8.30724	0.176
8.34819	0.121
8.38915	0.102
8.4301	0.155
8.47106	0.252
8.51202	0.261
8.55297	0.201
8.59393	0.2
8.63488	0.292
8.67584	0.422
8.7168	0.497
8.75775	0.552
8.79871	0.588
8.83966	0.611
8.88062	0.617
8.92158	0.613
8.96253	0.6
9.00349	0.593
9.04445	0.593
9.0854	0.594
9.12636	0.56
9.16731	0.466
9.20827	0.394
9.24923	0.326
9.29018	0.256
9.33114	0.234
9.37209	0.23
9.41305	0.213
9.45401	0.188
9.49496	0.176
9.53592	0.158
9.57687	0.15
9.61783	0.143
9.65879	0.14
9.69974	0.131
9.7407	0.123
9.78165	0.131
9.82261	0.15
9.86357	0.153
9.90452	0.16
9.94548	0.188
9.98643	0.196
10.0274	0.21
10.0683	0.215
10.1093	0.22
10.1503	0.211
10.1912	0.21
10.2322	0.193
10.2731	0.174
10.3141	0.143
10.355	0.123
10.396	0.111
10.437	0.102
10.4779	0.099
10.5189	0.099
10.5598	0.1
10.6008	0.102
10.6417	0.119
10.6827	0.14
10.7236	0.177
10.7646	0.235
10.8056	0.305
10.8465	0.377
10.8875	0.435
10.9284	0.459
10.9694	0.452
11.0103	0.411
11.0513	0.384
11.0922	0.408
11.1332	0.487
11.1742	0.558
11.2151	0.617
11.2561	0.641
11.297	0.647
11.338	0.652
11.3789	0.654
11.4199	0.644
11.4609	0.63
11.5018	0.617
11.5428	0.611
11.5837	0.605
11.6247	0.608
11.6656	0.613
11.7066	0.617
11.7475	0.622
11.7885	0.627
11.8295	0.63
11.8704	0.63
11.9114	0.63
11.9523	0.615
11.9933	0.598
12.0342	0.582
12.0752	0.574
12.1162	0.569
12.1571	0.576
12.1981	0.574
12.239	0.565
12.28	0.56
12.3209	0.574
12.3619	0.593
12.4028	0.608
12.4438	0.613
12.4848	0.61
12.5257	0.594
12.5667	0.564
12.6076	0.517
12.6486	0.442
12.6895	0.372
12.7305	0.299
12.7714	0.241
12.8124	0.21
12.8534	0.198
12.8943	0.194
12.9353	0.193
12.9762	0.193
13.0172	0.198
13.0581	0.203
13.0991	0.203
13.1401	0.203
13.181	0.198
13.222	0.203
13.2629	0.249
13.3039	0.328
13.3448	0.417
13.3858	0.468
13.4267	0.512
13.4677	0.533
13.5087	0.541
13.5496	0.545
13.5906	0.545
13.6315	0.541
13.6725	0.538
13.7134	0.54
13.7544	0.553
13.7953	0.57
13.8363	0.591
13.8773	0.611
13.9182	0.62
13.9592	0.63
14.0001	0.635
14.0411	0.634
14.082	0.637
14.123	0.632
14.164	0.62
14.2049	0.603
14.2459	0.576
14.2868	0.535
14.3278	0.456
14.3687	0.381
14.4097	0.302
14.4506	0.244
14.4916	0.201
14.5326	0.198
14.5735	0.227
14.6145	0.292
14.6554	0.369
14.6964	0.442
14.7373	0.497
14.7783	0.528
14.8193	0.553
14.8602	0.562
14.9012	0.569
14.9421	0.57
14.9831	0.57
15.024	0.569
15.065	0.564
15.1059	0.56
15.1469	0.558
15.1879	0.558
15.2288	0.555
15.2698	0.552
15.3107	0.553
15.3517	0.552
15.3926	0.553
15.4336	0.553
15.4745	0.555
15.5155	0.552
15.5565	0.548
15.5974	0.548
15.6384	0.548
15.6793	0.543
15.7203	0.54
15.7612	0.536
15.8022	0.536
15.8432	0.535
15.8841	0.535
15.9251	0.533
15.966	0.531
