Infrared Spectrum: PRIMIDONE
Formula: C12 H14 N2 O2
CAS: 125-33-7
State: SOLID (KBr DISC)
Melting point: 281-282 C
Class: COBLENTZ III
Instrument: PERKIN-ELMER 21 (GRATING)
Instrument parameters: FILTER AT ABOUT 10 MICRONS
Sampling: TRANSMISSION
Resolution: 2
1/CM	TRANSMITTANCE
4000	0.804
3991	0.8034
3982	0.8028
3973	0.8025
3964	0.8031
3955	0.8038
3946	0.8046
3937	0.8054
3928	0.8061
3919	0.8065
3910	0.8068
3901	0.8071
3892	0.8074
3883	0.8075
3874	0.8078
3865	0.8083
3856	0.8087
3847	0.8091
3838	0.8095
3829	0.8099
3820	0.8105
3811	0.8115
3802	0.8126
3793	0.8138
3784	0.8151
3775	0.8165
3766	0.818
3757	0.8186
3748	0.819
3739	0.8193
3730	0.8195
3721	0.8198
3712	0.8197
3703	0.8186
3694	0.8174
3685	0.8164
3676	0.8156
3667	0.8149
3658	0.8142
3649	0.8135
3640	0.8125
3631	0.8118
3622	0.811
3613	0.8089
3604	0.8056
3595	0.8021
3586	0.7938
3577	0.7831
3568	0.7738
3559	0.7648
3550	0.7562
3541	0.749
3532	0.7415
3523	0.7285
3514	0.689
3505	0.6788
3496	0.6689
3487	0.6592
3478	0.6508
3469	0.6435
3460	0.636
3451	0.6291
3442	0.6224
3433	0.6151
3424	0.6066
3415	0.6003
3406	0.5949
3397	0.5932
3388	0.5924
3379	0.5926
3370	0.5928
3361	0.5947
3352	0.5959
3343	0.5965
3334	0.5953
3325	0.591
3316	0.5815
3307	0.5758
3298	0.5699
3289	0.5634
3280	0.5531
3271	0.5414
3262	0.5212
3253	0.489
3244	0.4708
3235	0.4137
3226	0.3528
3217	0.2915
3208	0.2298
3199	0.1779
3190	0.1644
3181	0.1555
3172	0.1508
3163	0.1489
3154	0.1479
3145	0.1516
3136	0.1604
3127	0.1839
3118	0.2046
3109	0.2267
3100	0.2434
3091	0.2535
3082	0.2591
3073	0.264
3064	0.2697
3055	0.2774
3046	0.2863
3037	0.2982
3028	0.3184
3019	0.351
3010	0.3845
3001	0.418
2992	0.441
2983	0.4506
2974	0.4493
2965	0.4412
2956	0.4335
2947	0.4276
2938	0.4252
2929	0.4229
2920	0.4204
2911	0.4178
2902	0.4152
2893	0.4118
2884	0.4059
2875	0.3972
2866	0.3903
2857	0.3898
2848	0.4087
2839	0.4388
2830	0.4692
2821	0.4998
2812	0.5306
2803	0.5615
2794	0.5932
2785	0.6241
2776	0.6471
2767	0.6694
2758	0.6891
2749	0.7075
2740	0.7248
2731	0.7383
2722	0.7507
2713	0.761
2704	0.7699
2695	0.7768
2686	0.7836
2677	0.7892
2668	0.7944
2659	0.7968
2650	0.7962
2641	0.7958
2632	0.7953
2623	0.7965
2614	0.798
2605	0.8018
2596	0.8062
2587	0.811
2578	0.8161
2569	0.8215
2560	0.825
2551	0.8278
2542	0.8302
2533	0.8303
2524	0.8305
2515	0.8306
2506	0.8307
2497	0.8302
2488	0.8297
2479	0.8291
2470	0.8291
2461	0.8298
2452	0.8306
2443	0.832
2434	0.8342
2425	0.8364
2416	0.8383
2407	0.8402
2398	0.8421
2389	0.8442
2380	0.8451
2371	0.8456
2362	0.8445
2353	0.8436
2344	0.8427
2335	0.8418
2326	0.8412
2317	0.8407
2308	0.8416
2299	0.8451
2290	0.8497
2281	0.8542
2272	0.8568
2263	0.8581
2254	0.8586
2245	0.8587
2236	0.8589
2227	0.8592
2218	0.8604
2209	0.8618
2200	0.8631
2191	0.8633
2182	0.8634
2173	0.8625
2164	0.8614
2155	0.8603
2146	0.8596
2137	0.8594
2128	0.8591
2119	0.8588
2110	0.8586
2101	0.8583
2092	0.8571
2083	0.8562
2074	0.8571
2065	0.8581
2056	0.86
2047	0.8609
2038	0.8609
2029	0.8638
2020	0.8678
2011	0.862
2002	0.8632
1993	0.8642
1984	0.864
1975	0.8616
1966	0.859
1957	0.8565
1948	0.854
1939	0.8574
1930	0.8603
1921	0.8613
1912	0.8618
1903	0.8603
1894	0.8535
1885	0.8488
1876	0.8481
1867	0.8491
1858	0.8524
1849	0.8542
1840	0.8548
1831	0.8546
1822	0.8495
1813	0.8373
1804	0.8251
1795	0.821
1786	0.8203
1777	0.8189
1768	0.8093
1759	0.7828
1750	0.7386
1741	0.6887
1732	0.6142
1723	0.4166
1714	0.1428
1705	0.1051
1696	0.1598
1687	0.2181
1678	0.1451
1669	0.0277
1660	0.0251
1651	0.0683
1642	0.2053
1633	0.346
1624	0.4616
1615	0.5234
1606	0.5725
1597	0.5643
1588	0.6
1579	0.6209
1570	0.6606
1561	0.6838
1552	0.6922
1543	0.7036
1534	0.7095
1525	0.7075
1516	0.668
1507	0.5233
1498	0.4093
1489	0.3096
1480	0.4158
1471	0.4925
1462	0.4576
1453	0.4481
1444	0.3064
1435	0.3973
1426	0.5796
1417	0.5632
1408	0.3612
1399	0.2976
1390	0.3541
1381	0.4691
1372	0.5194
1363	0.621
1354	0.7061
1345	0.7138
1336	0.6671
1327	0.7138
1318	0.7139
1309	0.6838
1300	0.7467
1291	0.7783
1282	0.7341
1273	0.663
1264	0.7631
1255	0.7714
1246	0.7896
1237	0.8117
1228	0.8174
1219	0.8201
1210	0.8241
1201	0.8262
1192	0.815
1183	0.7924
1174	0.7686
1165	0.7341
1156	0.6921
1147	0.6753
1138	0.7588
1129	0.7655
1120	0.4716
1111	0.6696
1102	0.7265
1093	0.7504
1084	0.7447
1075	0.6222
1066	0.7634
1057	0.7915
1048	0.7957
1039	0.7844
1030	0.6875
1021	0.7707
1012	0.7618
1003	0.7617
994	0.7822
985	0.8212
976	0.8278
967	0.823
958	0.7656
949	0.7686
940	0.8056
931	0.8245
922	0.7678
913	0.7275
904	0.7984
895	0.834
886	0.8401
877	0.8327
868	0.8277
859	0.8194
850	0.7968
841	0.7722
832	0.7464
823	0.6882
814	0.6374
805	0.6043
796	0.5362
787	0.4328
778	0.389
769	0.4589
760	0.4008
751	0.4778
742	0.6811
733	0.7775
724	0.8001
715	0.7251
706	0.4186
697	0.3306
688	0.6549
679	0.7337
670	0.7022
661	0.6678
652	0.624
