Infrared Spectrum: Cinnamylamine, N-methyl-N-2-propynyl-,
Formula: C13 H15 N
CAS: 125436-88-6
State: SOLUTION 7% (CS2 FOR 7.5-15 microns, AND CCl4 FOR 2.5-7.5 microns)
Class: COBLENTZ III
Instrument: PERKIN-ELMER 21 (GRATING)
Instrument parameters: FILTER AT ABOUT 10 MICRONS
Path length: 0.01 CM
Resolution: 2
Origin: ABBOTT LABORATORIES
1/CM	TRANSMITTANCE
650	0.3291
659	0.6302
668	0.7571
677	0.7555
686	0.3334
695	0.598
704	0.7937
713	0.8025
722	0.7377
731	0.4666
740	0.2402
749	0.7185
758	0.8289
767	0.8496
776	0.8526
785	0.8459
794	0.7926
803	0.7113
812	0.793
821	0.8051
830	0.8323
839	0.8419
848	0.829
857	0.7283
866	0.7846
875	0.8354
884	0.7972
893	0.658
902	0.6851
911	0.7991
920	0.8068
929	0.7886
938	0.7354
947	0.7321
956	0.4576
965	0.2758
974	0.4752
983	0.7238
992	0.7656
1001	0.7746
1010	0.7243
1019	0.4609
1028	0.5715
1037	0.7707
1046	0.7742
1055	0.7464
1064	0.7275
1073	0.7822
1082	0.7402
1091	0.7759
1100	0.7979
1109	0.7477
1118	0.5283
1127	0.5748
1136	0.7552
1145	0.7821
1154	0.8076
1163	0.7918
1172	0.7393
1181	0.699
1190	0.7514
1199	0.7807
1208	0.8001
1217	0.7649
1226	0.686
1235	0.6589
1244	0.6983
1253	0.7173
1262	0.7441
1271	0.7248
1280	0.7147
1289	0.6958
1298	0.6932
1307	0.6841
1316	0.5035
1325	0.6811
1334	0.7817
1343	0.7541
1352	0.6085
1361	0.6864
1370	0.8341
1379	0.8781
1388	0.8846
1397	0.8624
1406	0.8093
1415	0.7726
1424	0.7564
1433	0.6438
1442	0.6005
1451	0.6985
1460	0.8032
1469	0.8414
1478	0.7675
1487	0.7744
1496	0.924
1505	0.9416
1514	0.9478
1523	0.9512
1532	0.9531
1541	0.9495
1550	0.941
1559	0.919
1568	0.898
1577	0.9092
1586	0.8374
1595	0.877
1604	0.9053
1613	0.9058
1622	0.901
1631	0.8953
1640	0.8948
1649	0.8987
1658	0.9025
1667	0.9059
1676	0.9087
1685	0.9115
1694	0.916
1703	0.9205
1712	0.9234
1721	0.9261
1730	0.9283
1739	0.9299
1748	0.9307
1757	0.9308
1766	0.9303
1775	0.9293
1784	0.9294
1793	0.9324
1802	0.9337
1811	0.9363
1820	0.943
1829	0.943
1838	0.9398
1847	0.9337
1856	0.9293
1865	0.9347
1874	0.9403
1883	0.9455
1892	0.9464
1901	0.9444
1910	0.9386
1919	0.9248
1928	0.9232
1937	0.9412
1946	0.9489
1955	0.9516
1964	0.9536
1973	0.954
1982	0.954
1991	0.9538
2000	0.9537
2009	0.9534
2018	0.9529
2027	0.9525
2036	0.9517
2045	0.9509
2054	0.9502
2063	0.9492
2072	0.9483
2081	0.9473
2090	0.9466
2099	0.9459
2108	0.9451
2117	0.9452
2126	0.9456
2135	0.9482
2144	0.9496
2153	0.9498
2162	0.9495
2171	0.9484
2180	0.9472
2189	0.9461
2198	0.945
2207	0.9447
2216	0.9442
2225	0.9432
2234	0.9422
2243	0.9401
2252	0.9368
2261	0.9322
2270	0.9259
2279	0.9249
2288	0.9223
2297	0.9239
2306	0.9258
2315	0.9283
2324	0.9311
2333	0.9343
2342	0.9394
2351	0.941
2360	0.9402
2369	0.9392
2378	0.9383
2387	0.9381
2396	0.9379
2405	0.9377
2414	0.9376
2423	0.9374
2432	0.937
2441	0.9367
2450	0.9364
2459	0.9361
2468	0.9358
2477	0.9356
2486	0.9353
2495	0.935
2504	0.9346
2513	0.934
2522	0.9333
2531	0.9327
2540	0.9314
2549	0.93
2558	0.9282
2567	0.9248
2576	0.9193
2585	0.9131
2594	0.9065
2603	0.9004
2612	0.8967
2621	0.8945
2630	0.8905
2639	0.8847
2648	0.8775
2657	0.8696
2666	0.8626
2675	0.8563
2684	0.8483
2693	0.8341
2702	0.8157
2711	0.7972
2720	0.7525
2729	0.702
2738	0.6519
2747	0.629
2756	0.6367
2765	0.6774
2774	0.6898
2783	0.6963
2792	0.7001
2801	0.7036
2810	0.7067
2819	0.7094
2828	0.7116
2837	0.7119
2846	0.7108
2855	0.7067
2864	0.6973
2873	0.6888
2882	0.6844
2891	0.686
2900	0.6983
2909	0.7153
2918	0.7441
2927	0.7567
2936	0.7702
2945	0.7724
2954	0.7705
2963	0.7633
2972	0.7517
2981	0.7472
2990	0.7509
2999	0.7709
3008	0.7849
3017	0.8278
3026	0.8525
3035	0.8744
3044	0.8863
3053	0.8942
3062	0.8988
3071	0.9006
3080	0.9009
3089	0.9008
3098	0.9001
3107	0.8992
3116	0.8976
3125	0.8952
3134	0.8917
3143	0.8878
3152	0.8833
3161	0.8787
3170	0.8742
3179	0.8696
3188	0.8647
3197	0.8582
3206	0.8429
3215	0.7889
3224	0.7314
3233	0.6743
3242	0.6175
3251	0.5911
3260	0.6135
3269	0.7378
3278	0.8506
3287	0.874
3296	0.8798
3305	0.8847
3314	0.889
3323	0.8918
3332	0.8942
3341	0.8958
3350	0.8966
3359	0.8973
3368	0.8986
3377	0.9004
3386	0.9017
3395	0.9026
3404	0.9034
3413	0.9038
3422	0.904
3431	0.9042
3440	0.9044
3449	0.9043
3458	0.9042
3467	0.9041
3476	0.9035
3485	0.903
3494	0.9024
3503	0.9018
3512	0.9012
3521	0.9006
3530	0.9
3539	0.8997
3548	0.8995
3557	0.8992
3566	0.899
3575	0.8988
3584	0.8987
3593	0.8985
3602	0.8985
3611	0.8983
3620	0.8984
3629	0.8985
3638	0.8985
3647	0.8986
3656	0.8988
3665	0.899
3674	0.8995
3683	0.8999
3692	0.9003
3701	0.9008
3710	0.9014
3719	0.9021
3728	0.9027
3737	0.9029
3746	0.9029
3755	0.9028
3764	0.9027
3773	0.9025
3782	0.9023
3791	0.902
3800	0.9017
3809	0.9015
3818	0.9013
3827	0.9009
3836	0.9005
3845	0.9
3854	0.8996
3863	0.8991
3872	0.8986
3881	0.8983
3890	0.8979
3899	0.8975
3908	0.8972
3917	0.8968
3926	0.8968
3935	0.8968
3944	0.8968
3953	0.8968
3962	0.8968
3971	0.8968
3980	0.8969
3989	0.8969
3998	0.8969
