Infrared Spectrum: 1,3-CYCLOHEXANEDIONE, 5,5-DIMETHYL-
Formula: C8 H12 O2
CAS: 126-81-8
State: SOLUTION (2% IN CHCl3) VS SOLVENT
Class: COBLENTZ
Instrument: BECKMAN IR-7 (GRATING)
Instrument parameters: GRATING CHANGES AT 3000, 2200, 1150 CM^-^1
Sampling: TRANSMISSION
Path length: 0.01 CM
Resolution: 4
Origin: WESTERN REGIONAL RES. USDA
1/CM	TRANSMITTANCE
606.568	0.877
615.428	0.879
624.288	0.879
633.148	0.882
642.008	0.908
650.868	0.901
659.728	0.896
668.588	0.838
677.448	0.829
686.308	0.883
695.168	0.888
704.028	0.88
712.888	0.858
721.748	0.839
730.608	0.817
739.468	0.796
748.327	0.767
757.187	0.744
766.047	0.715
774.907	0.689
783.767	0.67
792.627	0.595
801.487	0.55
810.347	0.76
819.207	0.838
828.067	0.839
836.927	0.815
845.787	0.816
854.647	0.86
863.507	0.851
872.367	0.819
881.227	0.848
890.087	0.837
898.947	0.86
907.807	0.881
916.667	0.858
925.527	0.854
934.387	0.879
943.247	0.888
952.107	0.887
960.967	0.888
969.827	0.892
978.687	0.899
987.547	0.9
996.407	0.896
1005.27	0.893
1014.13	0.898
1022.99	0.906
1031.85	0.914
1040.71	0.908
1049.57	0.868
1058.43	0.862
1067.29	0.914
1076.15	0.904
1085.01	0.896
1093.87	0.876
1102.73	0.889
1111.59	0.895
1120.45	0.881
1129.31	0.827
1138.17	0.842
1147.03	0.673
1155.89	0.726
1164.75	0.732
1173.61	0.754
1182.47	0.822
1191.33	0.805
1200.19	0.782
1209.05	0.728
1217.91	0.71
1226.77	0.693
1235.63	0.547
1244.49	0.364
1253.35	0.447
1262.21	0.62
1271.07	0.742
1279.93	0.751
1288.79	0.707
1297.65	0.709
1306.51	0.712
1315.37	0.765
1324.23	0.66
1333.09	0.73
1341.95	0.733
1350.81	0.691
1359.67	0.757
1368.53	0.783
1377.39	0.66
1386.25	0.741
1395.11	0.702
1403.97	0.725
1412.83	0.696
1421.68	0.719
1430.54	0.748
1439.4	0.811
1448.26	0.817
1457.12	0.744
1465.98	0.696
1474.84	0.693
1483.7	0.802
1492.56	0.792
1501.42	0.764
1510.28	0.368
1519.14	0.041
1528	0.0659
1536.86	0.5919
1545.72	0.68
1554.58	0.674
1563.44	0.632
1572.3	0.573
1581.16	0.506
1590.02	0.461
1598.88	0.411
1607.74	0.368
1616.6	0.35
1625.46	0.455
1634.32	0.567
1643.18	0.647
1652.04	0.734
1660.9	0.791
1669.76	0.817
1678.62	0.807
1687.48	0.768
1696.34	0.693
1705.2	0.3781
1714.06	0.249
1722.92	0.394
1731.78	0.501
1740.64	0.4399
1749.5	0.7339
1758.36	0.814
1767.22	0.839
1776.08	0.867
1784.94	0.884
1793.8	0.89
1802.66	0.895
1811.52	0.9
1820.38	0.903
1829.24	0.903
1838.1	0.91
1846.96	0.913
1855.82	0.914
1864.68	0.912
1873.54	0.908
1882.4	0.912
1891.26	0.915
1900.12	0.917
1908.98	0.92
1917.84	0.922
1926.7	0.923
1935.56	0.924
1944.42	0.924
1953.28	0.924
1962.14	0.924
1971	0.924
1979.86	0.924
1988.72	0.922
1997.58	0.914
2006.44	0.912
2015.3	0.9102
2024.16	0.9085
2033.02	0.907
2041.88	0.9071
2050.74	0.9146
2059.6	0.9154
2068.46	0.9136
2077.32	0.9121
2086.18	0.9149
2095.04	0.9176
2103.9	0.92
2112.76	0.921
2121.62	0.92
2130.48	0.92
2139.34	0.9185
2148.2	0.9153
2157.06	0.9041
2165.92	0.8975
2174.78	0.8769
2183.64	0.8928
2192.5	0.916
2201.36	0.9188
2210.22	0.92
2219.08	0.922
2227.94	0.923
2236.8	0.924
2245.66	0.924
2254.52	0.924
2263.38	0.924
2272.24	0.924
2281.1	0.9233
2289.96	0.922
2298.82	0.921
2307.68	0.92
2316.54	0.9183
2325.4	0.9175
2334.26	0.917
2343.12	0.916
2351.98	0.9152
2360.84	0.915
2369.7	0.9147
2378.56	0.9139
2387.42	0.913
2396.28	0.9098
2405.14	0.9077
2414	0.905
2422.86	0.9022
2431.72	0.8977
2440.58	0.8942
2449.44	0.8908
2458.3	0.8881
2467.16	0.886
2476.02	0.886
2484.88	0.8848
2493.74	0.883
2502.6	0.883
2511.46	0.883
2520.32	0.8827
2529.18	0.882
2538.04	0.8812
2546.9	0.8804
2555.76	0.8794
2564.62	0.876
2573.48	0.875
2582.34	0.8734
2591.2	0.8734
2600.06	0.874
2608.92	0.874
2617.78	0.873
2626.64	0.8681
2635.5	0.8618
2644.36	0.86
2653.22	0.8617
2662.08	0.864
2670.94	0.8638
2679.8	0.86
2688.66	0.8557
2697.52	0.8535
2706.38	0.852
2715.24	0.8521
2724.1	0.853
2732.96	0.854
2741.82	0.8554
2750.68	0.8571
2759.54	0.8599
2768.4	0.861
2777.26	0.8614
2786.12	0.861
2794.98	0.86
2803.84	0.8573
2812.7	0.8521
2821.56	0.8476
2830.42	0.8411
2839.28	0.8365
2848.14	0.8315
2857	0.8287
2865.86	0.8197
2874.72	0.7846
2883.58	0.7304
2892.44	0.716
2901.3	0.7214
2910.16	0.7454
2919.02	0.7662
2927.88	0.7519
2936.74	0.6913
2945.6	0.672
2954.46	0.688
2963.32	0.6335
2972.18	0.5086
2981.04	0.5175
2989.9	0.6305
2998.76	0.6997
3007.62	0.7073
3016.48	0.698
3025.34	0.6808
3034.2	0.6672
3043.06	0.6699
3051.92	0.7249
3060.78	0.7678
3069.64	0.7861
3078.5	0.795
3087.36	0.8011
3096.22	0.8011
3105.08	0.801
3113.94	0.7986
3122.8	0.7947
3131.66	0.7911
3140.52	0.7917
3149.38	0.7984
3158.24	0.8042
3167.1	0.808
3175.96	0.8107
3184.82	0.811
3193.68	0.8143
3202.54	0.818
3211.4	0.8208
3220.26	0.823
3229.12	0.8267
3237.98	0.8302
3246.84	0.8338
3255.7	0.8376
3264.56	0.8386
3273.42	0.8317
3282.28	0.8252
3291.14	0.8354
3300	0.8499
3308.86	0.8552
3317.72	0.859
3326.58	0.8573
3335.44	0.8437
3344.3	0.8345
3353.16	0.8551
3362.02	0.8711
3370.88	0.8775
3379.74	0.8813
3388.6	0.883
3397.46	0.883
3406.32	0.8836
3415.18	0.885
3424.04	0.886
3432.9	0.8877
3441.76	0.8949
3450.62	0.8994
3459.48	0.9032
3468.34	0.905
3477.2	0.905
3486.06	0.9001
3494.92	0.8911
3503.78	0.886
3512.64	0.8958
3521.5	0.904
3530.36	0.9083
3539.22	0.91
3548.08	0.9082
3556.94	0.9033
3565.8	0.8884
3574.66	0.8811
3583.52	0.8957
3592.38	0.9147
3601.24	0.9289
3610.1	0.9406
3618.96	0.9516
3627.82	0.967
3636.68	0.9702
3645.54	0.9602
3654.4	0.9501
3663.26	0.9391
3672.12	0.9335
3680.98	0.923
3689.84	0.917
3698.7	0.9097
3707.56	0.9112
3716.42	0.9213
3725.28	0.9242
3734.14	0.9302
3743	0.928
3751.86	0.9334
3760.72	0.9431
3769.58	0.9431
3778.44	0.943
3787.3	0.9396
3796.16	0.9382
3805.02	0.9429
3813.88	0.945
3822.74	0.946
3831.6	0.947
3840.46	0.947
3849.32	0.947
3858.18	0.947
3867.04	0.945
3875.9	0.9429
3884.76	0.931
3893.62	0.9183
3902.48	0.915
3911.34	0.915
3920.2	0.9158
3929.06	0.9186
3937.92	0.9204
3946.78	0.9254
3955.64	0.9338
3964.5	0.9377
3973.36	0.9404
