Infrared Spectrum: PHOSPHORIC ACID, TRIS(2,3-DIBROMOPROPYL) ESTER
Formula: C9 H15 Br6 O4 P
CAS: 126-72-7
Class: COBLENTZ III
Instrument: Not specified, most likely a prism, grating, or hybrid spectrometer.
Sampling: TRANSMISSION
Path length: SMEAR ON KBr PLATE
Resolution: 4
Origin: PERKIN-ELMER CORP.
1/CM	TRANSMITTANCE
249.445	0.008
259.731	0.008
270.018	0.009
280.304	0.024
290.591	0.039
300.877	0.073
311.163	0.118
321.45	0.162
331.736	0.219
342.022	0.29
352.309	0.368
362.595	0.434
372.882	0.503
383.168	0.574
393.454	0.634
403.741	0.696
414.027	0.724
424.314	0.747
434.6	0.757
444.886	0.764
455.173	0.754
465.459	0.745
475.746	0.769
486.032	0.772
496.318	0.766
506.605	0.757
516.891	0.761
527.177	0.767
537.464	0.764
547.75	0.712
558.037	0.621
568.323	0.615
578.609	0.569
588.896	0.614
599.182	0.682
609.469	0.852
619.755	0.91
630.041	0.917
640.328	0.8601
650.614	0.796
660.9	0.802
671.187	0.841
681.473	0.883
691.76	0.895
702.046	0.92
712.332	0.942
722.619	0.945
732.905	0.936
743.192	0.927
753.478	0.921
763.764	0.91
774.051	0.882
784.337	0.852
794.623	0.846
804.91	0.871
815.196	0.875
825.483	0.815
835.769	0.762
846.055	0.6841
856.342	0.583
866.628	0.538
876.915	0.539
887.201	0.503
897.487	0.541
907.774	0.686
918.06	0.757
928.347	0.646
938.633	0.556
948.919	0.6489
959.206	0.735
969.492	0.634
979.778	0.446
990.065	0.245
1000.35	0.173
1010.64	0.193
1020.92	0.2
1031.21	0.152
1041.5	0.087
1051.78	0.097
1062.07	0.1859
1072.36	0.36
1082.64	0.421
1092.93	0.419
1103.22	0.433
1113.5	0.516
1123.79	0.627
1134.07	0.716
1144.36	0.595
1154.65	0.69
1164.93	0.782
1175.22	0.717
1185.51	0.732
1195.79	0.744
1206.08	0.784
1216.37	0.771
1226.65	0.615
1236.94	0.538
1247.22	0.729
1257.51	0.5451
1267.8	0.329
1278.08	0.304
1288.37	0.239
1298.66	0.324
1308.94	0.68
1319.23	0.765
1329.52	0.782
1339.8	0.807
1350.09	0.877
1360.37	0.887
1370.66	0.875
1380.95	0.805
1391.23	0.837
1401.52	0.87
1411.81	0.851
1422.09	0.74
1432.38	0.717
1442.67	0.785
1452.95	0.6091
1463.24	0.7399
1473.53	0.88
1483.81	0.903
1494.1	0.912
1504.38	0.912
1514.67	0.912
1524.96	0.912
1535.24	0.912
1545.53	0.912
1555.82	0.91
1566.1	0.91
1576.39	0.908
1586.68	0.908
1596.96	0.906
1607.25	0.905
1617.53	0.906
1627.82	0.907
1638.11	0.908
1648.39	0.911
1658.68	0.912
1668.97	0.913
1679.25	0.913
1689.54	0.913
1699.83	0.912
1710.11	0.913
1720.4	0.913
1730.68	0.913
1740.97	0.916
1751.26	0.917
1761.54	0.915
1771.83	0.915
1782.12	0.913
1792.4	0.912
1802.69	0.911
1812.98	0.91
1823.26	0.908
1833.55	0.906
1843.83	0.903
1854.12	0.905
1864.41	0.906
1874.69	0.906
1884.98	0.905
1895.27	0.902
1905.55	0.902
1915.84	0.902
1926.13	0.903
1936.41	0.903
1946.7	0.903
1956.99	0.903
1967.27	0.903
1977.56	0.905
1987.84	0.907
1998.13	0.91
2008.42	0.913
2018.7	0.913
2028.99	0.912
2039.28	0.912
2049.56	0.912
2059.85	0.912
2070.14	0.912
2080.42	0.912
2090.71	0.912
2100.99	0.913
2111.28	0.912
2121.57	0.911
2131.85	0.9115
2142.14	0.912
2152.43	0.91
2162.71	0.911
2173	0.909
2183.29	0.911
2193.57	0.91
2203.86	0.906
2214.14	0.906
2224.43	0.906
2234.72	0.902
2245	0.902
2255.29	0.901
2265.58	0.901
2275.86	0.9005
2286.15	0.901
2296.44	0.902
2306.72	0.902
2317.01	0.901
2327.3	0.901
2337.58	0.901
2347.87	0.9
2358.15	0.9
2368.44	0.9
2378.73	0.9005
2389.01	0.9
2399.3	0.9015
2409.59	0.901
2419.87	0.9025
2430.16	0.902
2440.45	0.902
2450.73	0.901
2461.02	0.902
2471.3	0.902
2481.59	0.902
2491.88	0.903
2502.16	0.902
2512.45	0.903
2522.74	0.905
2533.02	0.905
2543.31	0.9055
2553.6	0.905
2563.88	0.9025
2574.17	0.902
2584.45	0.903
2594.74	0.902
2605.03	0.903
2615.31	0.903
2625.6	0.903
2635.89	0.901
2646.17	0.901
2656.46	0.901
2666.75	0.901
2677.03	0.902
2687.32	0.903
2697.61	0.902
2707.89	0.903
2718.18	0.902
2728.46	0.9015
2738.75	0.902
2749.04	0.9
2759.32	0.9
2769.61	0.9
2779.9	0.901
2790.18	0.901
2800.47	0.9
2810.76	0.9
2821.04	0.892
2831.33	0.887
2841.61	0.885
2851.9	0.883
2862.19	0.883
2872.47	0.8696
2882.76	0.8361
2893.05	0.8529
2903.33	0.867
2913.62	0.8636
2923.91	0.8412
2934.19	0.8023
2944.48	0.745
2954.76	0.76
2965.05	0.766
2975.34	0.7715
2985.62	0.8018
2995.91	0.8294
3006.2	0.836
3016.48	0.8286
3026.77	0.8171
3037.06	0.8225
3047.34	0.8559
3057.63	0.8804
3067.91	0.892
3078.2	0.9005
3088.49	0.902
3098.77	0.902
3109.06	0.903
3119.35	0.9039
3129.63	0.907
3139.92	0.907
3150.21	0.907
3160.49	0.906
3170.78	0.906
3181.07	0.906
3191.35	0.905
3201.64	0.903
3211.92	0.9049
3222.21	0.905
3232.5	0.906
3242.78	0.9055
3253.07	0.9031
3263.36	0.9025
3273.64	0.903
3283.93	0.9039
3294.22	0.905
3304.5	0.905
3314.79	0.905
3325.07	0.905
3335.36	0.903
3345.65	0.903
3355.93	0.902
3366.22	0.902
3376.51	0.901
3386.79	0.9005
3397.08	0.9
3407.37	0.9
3417.65	0.9
3427.94	0.898
3438.22	0.898
3448.51	0.898
3458.8	0.898
3469.08	0.898
3479.37	0.898
3489.66	0.8989
3499.94	0.901
3510.23	0.9039
3520.52	0.907
3530.8	0.908
3541.09	0.908
3551.38	0.9089
3561.66	0.908
3571.95	0.9089
3582.23	0.911
3592.52	0.911
3602.81	0.911
3613.09	0.91
3623.38	0.9081
3633.67	0.9075
3643.95	0.908
3654.24	0.911
3664.53	0.913
3674.81	0.912
3685.1	0.915
3695.38	0.915
3705.67	0.915
3715.96	0.916
3726.24	0.916
3736.53	0.916
3746.82	0.916
3757.1	0.916
3767.39	0.916
3777.68	0.916
3787.96	0.915
3798.25	0.9141
3808.53	0.913
3818.82	0.913
3829.11	0.912
3839.39	0.912
3849.68	0.912
3859.97	0.912
3870.25	0.911
3880.54	0.911
3890.83	0.913
3901.11	0.913
3911.4	0.912
3921.69	0.912
3931.97	0.912
3942.26	0.912
3952.54	0.912
3962.83	0.911
3973.12	0.91
3983.4	0.912
3993.69	0.912
