Infrared Spectrum: Tributyl phosphate
Formula: C12 H27 O4 P
CAS: 126-73-8
State: SOLUTION (10% CCl4 FOR 2.7-7.5, 10% CS2 FOR 7.5-26 MICRON) VS SOLVENT
Class: COBLENTZ
Instrument: DOW KBr FOREPRISM-GRATING
Instrument parameters: BLAZED AT 3.5, 12.0, 20.0 MICRON AND CHANGED AT 5.0, 7.5, 14.9 MICRON
Sampling: TRANSMISSION
Path length: 0.011 CM, 0.011 CM
Resolution: 2
Origin: DOW CHEMICAL COMPANY
1/CM	TRANSMITTANCE
3792	0.8507
3783	0.8507
3774	0.8506
3765	0.85
3756	0.8495
3747	0.8495
3738	0.8495
3729	0.8497
3720	0.8501
3711	0.8501
3702	0.8498
3693	0.8492
3684	0.8467
3675	0.8382
3666	0.7733
3657	0.7762
3648	0.8245
3639	0.8362
3630	0.8404
3621	0.8441
3612	0.8464
3603	0.8483
3594	0.8496
3585	0.8506
3576	0.8508
3567	0.8493
3558	0.848
3549	0.8455
3540	0.843
3531	0.84
3522	0.8371
3513	0.8347
3504	0.832
3495	0.8256
3486	0.8147
3477	0.8031
3468	0.7922
3459	0.7837
3450	0.7791
3441	0.7768
3432	0.7768
3423	0.7801
3414	0.7871
3405	0.7986
3396	0.8112
3387	0.8237
3378	0.8348
3369	0.8437
3360	0.8511
3351	0.8575
3342	0.8638
3333	0.8678
3324	0.8714
3315	0.8749
3306	0.8773
3297	0.8795
3288	0.8816
3279	0.8835
3270	0.8843
3261	0.8844
3252	0.8842
3243	0.8825
3234	0.8808
3225	0.8778
3216	0.8748
3207	0.8712
3198	0.8689
3189	0.8677
3180	0.8678
3171	0.868
3162	0.8686
3153	0.8694
3144	0.8702
3135	0.8712
3126	0.8718
3117	0.8714
3108	0.8706
3099	0.8692
3090	0.8673
3081	0.8643
3072	0.8589
3063	0.8524
3054	0.8436
3045	0.8335
3036	0.821
3027	0.8049
3018	0.7856
3009	0.7541
3000	0.705
2991	0.5972
2982	0.3847
2973	0.1754
2964	0.0128
2955	0.0116
2946	0.0582
2937	0.0807
2928	0.066
2919	0.1441
2910	0.1963
2901	0.1798
2892	0.2343
2883	0.3298
2874	0.1059
2865	0.2393
2856	0.4088
2847	0.5298
2838	0.54
2829	0.6617
2820	0.7241
2811	0.7615
2802	0.7851
2793	0.8017
2784	0.813
2775	0.8207
2766	0.8251
2757	0.8251
2748	0.8221
2739	0.8183
2730	0.8148
2721	0.8153
2712	0.8283
2703	0.8395
2694	0.8444
2685	0.8445
2676	0.8506
2667	0.8521
2658	0.851
2649	0.8532
2640	0.8594
2631	0.8624
2622	0.8632
2613	0.8636
2604	0.8645
2595	0.8654
2586	0.8664
2577	0.8673
2568	0.8684
2559	0.8696
2550	0.8707
2541	0.8718
2532	0.8728
2523	0.874
2514	0.875
2505	0.8758
2496	0.8767
2487	0.8775
2478	0.8784
2469	0.8791
2460	0.8799
2451	0.8799
2442	0.8792
2433	0.8784
2424	0.8771
2415	0.8757
2406	0.876
2397	0.8763
2388	0.877
2379	0.8777
2370	0.8785
2361	0.8791
2352	0.8795
2343	0.8796
2334	0.8796
2325	0.8785
2316	0.8767
2307	0.8736
2298	0.8731
2289	0.8735
2280	0.8741
2271	0.875
2262	0.876
2253	0.8771
2244	0.8783
2235	0.8795
2226	0.8806
2217	0.8816
2208	0.8823
2199	0.8821
2190	0.8815
2181	0.883
2172	0.8898
2163	0.887
2154	0.8856
2145	0.8857
2136	0.8863
2127	0.8868
2118	0.8864
2109	0.8855
2100	0.8854
2091	0.8854
2082	0.8851
2073	0.884
2064	0.8825
2055	0.8803
2046	0.8784
2037	0.8767
2028	0.8762
2019	0.8762
2010	0.8771
2001	0.878
1992	0.8785
1983	0.8748
1974	0.8748
1965	0.876
1956	0.8765
1947	0.8742
1938	0.8691
1929	0.8677
1920	0.8668
1911	0.8653
1902	0.8575
1893	0.8524
1884	0.8512
1875	0.8537
1866	0.8561
1857	0.8583
1848	0.8604
1839	0.8601
1830	0.8582
1821	0.8584
1812	0.8587
1803	0.8591
1794	0.8594
1785	0.8577
1776	0.8586
1767	0.8596
1758	0.8595
1749	0.8593
1740	0.8595
1731	0.8615
1722	0.8637
1713	0.8661
1704	0.8681
1695	0.8696
1686	0.8704
1677	0.8708
1668	0.8706
1659	0.8701
1650	0.8668
1641	0.8582
1632	0.8441
1623	0.8306
1614	0.8358
1605	0.8478
1596	0.8571
1587	0.8646
1578	0.866
1569	0.8668
1560	0.8687
1551	0.8727
1542	0.8757
1533	0.8681
1524	0.8591
1515	0.8475
1506	0.829
1497	0.808
1488	0.7478
1479	0.437
1470	0.3359
1461	0.316
1452	0.5092
1443	0.6658
1434	0.5815
1425	0.7519
1416	0.7739
1407	0.7632
1398	0.5845
1389	0.5352
1380	0.5139
1371	0.7065
1362	0.7449
1353	0.7493
1344	0.7555
1335	0.7433
1326	0.7451
1317	0.7051
1308	0.5195
1299	0.3766
1290	0.2732
1281	0.0384
1272	0.0371
1263	0.0477
1254	0.059
1245	0.2431
1236	0.4198
1227	0.5001
1218	0.7068
1209	0.7569
1200	0.7758
1191	0.7878
1182	0.7914
1173	0.7761
1164	0.6686
1155	0.6348
1146	0.5238
1137	0.6282
1128	0.5598
1119	0.4641
1110	0.5696
1101	0.5835
1092	0.4507
1083	0.2996
1074	0.2663
1065	0.0875
1056	0.028
1047	0.0257
1038	0.0183
1029	0.0036
1020	0.0032
1011	0.004
1002	0.0086
993	0.0095
984	0.0101
975	0.0208
966	0.2549
957	0.2777
948	0.4527
939	0.5938
930	0.6668
921	0.6078
912	0.3026
903	0.3063
894	0.4457
885	0.5542
876	0.622
867	0.5028
858	0.5298
849	0.5379
840	0.5398
831	0.5432
822	0.5565
813	0.4609
804	0.5106
795	0.7039
786	0.7301
777	0.6461
768	0.6308
759	0.7232
750	0.6899
741	0.5351
732	0.5235
723	0.6225
714	0.7512
705	0.8246
696	0.8517
687	0.8623
678	0.8678
669	0.8683
660	0.8625
651	0.824
642	0.8298
633	0.8325
624	0.8313
615	0.822
606	0.8158
597	0.8074
588	0.7858
579	0.7306
570	0.5702
561	0.4699
552	0.4656
543	0.4685
534	0.4976
525	0.5324
516	0.5581
507	0.5635
498	0.5774
489	0.5902
480	0.5769
471	0.5483
462	0.5562
453	0.5829
444	0.6033
435	0.6197
426	0.631
417	0.6382
408	0.6425
399	0.6451
