Infrared Spectrum: BENZENE, 1,1'-SULFONYLBIS-
Formula: C12 H10 O2 S
CAS: 127-63-9
State: SOLID (SPLIT MULL, FLUOROLUBE FOR 3800-1333 AND NUJOL FOR 1333-450 CM ^-^1)
Class: COBLENTZ III
Instrument: DOW KBr FOREPRISM-GRATING
Instrument parameters: BLAZED AT 3.5, 12.0, 20.0 MICRON, CHANGED AT 5.0, 7.5, 14.9 MICRON
Sampling: TRANSMISSION
Resolution: 4
Origin: DOW CHEMICAL COMPANY
1/CM	TRANSMITTANCE
450.992	0.916
459.743	0.918
468.495	0.922
477.246	0.926
485.998	0.93
494.749	0.934
503.501	0.931
512.252	0.918
521.004	0.918
529.755	0.905
538.507	0.874
547.258	0.851
556.01	0.751
564.761	0.169
573.512	0.822
582.264	0.624
591.015	0.222
599.767	0.695
608.518	0.964
617.27	0.976
626.021	0.967
634.773	0.974
643.524	0.965
652.276	0.953
661.027	0.924
669.779	0.836
678.53	0.699
687.281	0.382
696.033	0.713
704.784	0.89
713.536	0.833
722.287	0.504
731.039	0.325
739.79	0.814
748.542	0.879
757.293	0.534
766.045	0.596
774.796	0.938
783.548	0.956
792.299	0.954
801.05	0.957
809.802	0.964
818.553	0.959
827.305	0.959
836.056	0.954
844.808	0.935
853.559	0.948
862.311	0.954
871.062	0.954
879.814	0.948
888.565	0.933
897.316	0.935
906.068	0.934
914.819	0.927
923.571	0.915
932.322	0.877
941.074	0.923
949.825	0.922
958.577	0.913
967.328	0.905
976.08	0.89
984.831	0.881
993.583	0.825
1002.33	0.896
1011.09	0.893
1019.84	0.853
1028.59	0.903
1037.34	0.894
1046.09	0.872
1054.84	0.852
1063.59	0.715
1072.35	0.655
1081.1	0.816
1089.85	0.786
1098.6	0.658
1107.35	0.465
1116.1	0.784
1124.85	0.765
1133.61	0.715
1142.36	0.535
1151.11	0.177
1159.86	0.256
1168.61	0.562
1177.36	0.729
1186.11	0.68
1194.87	0.907
1203.62	0.928
1212.37	0.926
1221.12	0.918
1229.87	0.905
1238.62	0.882
1247.37	0.848
1256.13	0.822
1264.88	0.77
1273.63	0.665
1282.38	0.647
1291.13	0.443
1299.88	0.325
1308.64	0.181
1317.39	0.418
1326.14	0.713
1334.89	0.807
1343.64	0.83
1352.39	0.892
1361.14	0.934
1369.9	0.933
1378.65	0.922
1387.4	0.912
1396.15	0.897
1404.9	0.912
1413.65	0.903
1422.4	0.892
1431.16	0.872
1439.91	0.825
1448.66	0.3
1457.41	0.964
1466.16	0.959
1474.91	0.879
1483.66	0.886
1492.42	0.949
1501.17	0.953
1509.92	0.956
1518.67	0.953
1527.42	0.946
1536.17	0.945
1544.92	0.945
1553.68	0.945
1562.43	0.949
1571.18	0.935
1579.93	0.872
1588.68	0.941
1597.43	0.942
1606.18	0.923
1614.94	0.926
1623.69	0.942
1632.44	0.942
1641.19	0.938
1649.94	0.939
1658.69	0.935
1667.45	0.933
1676.2	0.933
1684.95	0.918
1693.7	0.916
1702.45	0.93
1711.2	0.934
1719.95	0.933
1728.71	0.933
1737.46	0.924
1746.21	0.923
1754.96	0.916
1763.71	0.915
1772.46	0.9
1781.21	0.901
1789.97	0.904
1798.72	0.904
1807.47	0.904
1816.22	0.889
1824.97	0.894
1833.72	0.896
1842.47	0.9
1851.23	0.903
1859.98	0.9
1868.73	0.898
1877.48	0.897
1886.23	0.893
1894.98	0.878
1903.73	0.878
1912.49	0.878
1921.24	0.892
1929.99	0.893
1938.74	0.897
1947.49	0.892
1956.24	0.885
1964.99	0.863
1973.75	0.874
1982.5	0.872
1991.25	0.874
2000	0.892
2008.75	0.893
2017.5	0.886
2026.25	0.887
2035.01	0.883
2043.76	0.882
2052.51	0.881
2061.26	0.878
2070.01	0.874
2078.76	0.872
2087.52	0.87
2096.27	0.8699
2105.02	0.864
2113.77	0.864
2122.52	0.862
2131.27	0.86
2140.02	0.855
2148.78	0.853
2157.53	0.8509
2166.28	0.845
2175.03	0.841
2183.78	0.84
2192.53	0.84
2201.28	0.8369
2210.04	0.833
2218.79	0.827
2227.54	0.8219
2236.29	0.8179
2245.04	0.812
2253.79	0.81
2262.54	0.8079
2271.3	0.806
2280.05	0.804
2288.8	0.803
2297.55	0.8
2306.3	0.796
2315.05	0.792
2323.8	0.7849
2332.56	0.7801
2341.31	0.7891
2350.06	0.793
2358.81	0.7951
2367.56	0.796
2376.31	0.796
2385.06	0.7929
2393.82	0.795
2402.57	0.7929
2411.32	0.79
2420.07	0.792
2428.82	0.793
2437.57	0.7917
2446.33	0.7859
2455.08	0.784
2463.83	0.7841
2472.58	0.785
2481.33	0.7852
2490.08	0.784
2498.83	0.7837
2507.59	0.782
2516.34	0.781
2525.09	0.78
2533.84	0.78
2542.59	0.778
2551.34	0.777
2560.09	0.775
2568.85	0.774
2577.6	0.7708
2586.35	0.769
2595.1	0.767
2603.85	0.7668
2612.6	0.766
2621.35	0.7658
2630.11	0.763
2638.86	0.762
2647.61	0.759
2656.36	0.758
2665.11	0.758
2673.86	0.7518
2682.61	0.745
2691.37	0.7505
2700.12	0.752
2708.87	0.748
2717.62	0.744
2726.37	0.741
2735.12	0.7398
2743.87	0.739
2752.63	0.7398
2761.38	0.7355
2770.13	0.7315
2778.88	0.725
2787.63	0.726
2796.38	0.7293
2805.13	0.7247
2813.89	0.7218
2822.64	0.7232
2831.39	0.7205
2840.14	0.7144
2848.89	0.709
2857.64	0.706
2866.4	0.7054
2875.15	0.7027
2883.9	0.699
2892.65	0.698
2901.4	0.695
2910.15	0.6877
2918.9	0.684
2927.66	0.683
2936.41	0.6807
2945.16	0.678
2953.91	0.68
2962.66	0.678
2971.41	0.676
2980.16	0.6737
2988.92	0.6697
2997.67	0.6563
3006.42	0.6433
3015.17	0.653
3023.92	0.6453
3032.67	0.64
3041.42	0.6346
3050.18	0.6182
3058.93	0.6006
3067.68	0.5756
3076.43	0.5985
3085.18	0.6124
3093.93	0.6292
3102.68	0.661
3111.44	0.6563
3120.19	0.653
3128.94	0.653
3137.69	0.6536
3146.44	0.654
3155.19	0.65
3163.94	0.651
3172.7	0.654
3181.45	0.6536
3190.2	0.651
3198.95	0.6506
3207.7	0.648
3216.45	0.647
3225.21	0.646
3233.96	0.644
3242.71	0.642
3251.46	0.6396
3260.21	0.637
3268.96	0.636
3277.71	0.6341
3286.47	0.633
3295.22	0.632
3303.97	0.629
3312.72	0.627
3321.47	0.625
3330.22	0.624
3338.97	0.622
3347.73	0.621
3356.48	0.621
3365.23	0.617
3373.98	0.6165
3382.73	0.6151
3391.48	0.612
3400.23	0.609
3408.99	0.606
3417.74	0.605
3426.49	0.602
3435.24	0.5985
3443.99	0.599
3452.74	0.5955
3461.49	0.592
3470.25	0.591
3479	0.59
3487.75	0.588
3496.5	0.587
3505.25	0.586
3514	0.5835
3522.75	0.581
3531.51	0.58
3540.26	0.579
3549.01	0.576
3557.76	0.575
3566.51	0.573
3575.26	0.571
3584.01	0.5685
3592.77	0.566
3601.52	0.562
3610.27	0.562
3619.02	0.561
3627.77	0.558
3636.52	0.556
3645.28	0.5535
3654.03	0.551
3662.78	0.553
3671.53	0.549
3680.28	0.547
3689.03	0.546
3697.78	0.545
3706.54	0.543
3715.29	0.543
3724.04	0.542
3732.79	0.5394
3741.54	0.538
3750.29	0.535
3759.04	0.5344
3767.8	0.5328
3776.55	0.532
3785.3	0.5304
3794.05	0.53
