Infrared Spectrum: Beta PINENE
Formula: C10 H16
CAS: 127-91-3
Class: COBLENTZ
Instrument: Not specified, most likely a prism, grating, or hybrid spectrometer.
Sampling: TRANSMISSION
Resolution: 4
Origin: INTERNATIONAL FLAVORS & FRAGRANCES, INC.
MICROMETERS	TRANSMITTANCE
2.026	0.907
2.06253	0.907
2.09906	0.905
2.13559	0.904
2.17212	0.902
2.20865	0.901
2.24518	0.879
2.28171	0.85
2.31824	0.859
2.35477	0.87
2.3913	0.875
2.42783	0.876
2.46436	0.881
2.50089	0.882
2.53742	0.882
2.57395	0.884
2.61047	0.888
2.647	0.891
2.68353	0.898
2.72006	0.905
2.75659	0.911
2.79312	0.911
2.82965	0.905
2.86618	0.902
2.90271	0.899
2.93924	0.898
2.97577	0.893
3.0123	0.901
3.04883	0.902
3.08536	0.901
3.12189	0.882
3.15842	0.863
3.19495	0.703
3.23148	0.671
3.26801	0.727
3.30454	0.264
3.34107	0.05
3.3776	0.035
3.41413	0.048
3.45066	0.179
3.48719	0.537
3.52372	0.773
3.56025	0.831
3.59678	0.858
3.63331	0.861
3.66984	0.859
3.70637	0.893
3.74289	0.876
3.77942	0.893
3.81595	0.901
3.85248	0.901
3.88901	0.902
3.92554	0.904
3.96207	0.91
3.9986	0.908
4.03513	0.911
4.07166	0.913
4.10819	0.914
4.14472	0.913
4.18125	0.913
4.21778	0.913
4.25431	0.911
4.29084	0.911
4.32737	0.916
4.3639	0.919
4.40043	0.916
4.43696	0.916
4.47349	0.916
4.51002	0.916
4.54655	0.916
4.58308	0.92
4.61961	0.92
4.65614	0.923
4.69267	0.922
4.7292	0.916
4.76573	0.922
4.80226	0.925
4.83879	0.923
4.87531	0.925
4.91184	0.925
4.94837	0.925
4.9849	0.926
5.02143	0.926
5.05796	0.929
5.09449	0.928
5.13102	0.926
5.16755	0.931
5.20408	0.928
5.24061	0.928
5.27714	0.931
5.31367	0.931
5.3502	0.928
5.38673	0.925
5.42326	0.923
5.45979	0.92
5.49632	0.919
5.53285	0.917
5.56938	0.913
5.60591	0.902
5.64244	0.873
5.67897	0.826
5.7155	0.866
5.75203	0.89
5.78856	0.899
5.82509	0.907
5.86162	0.898
5.89815	0.87
5.93468	0.858
5.97121	0.826
6.00773	0.581
6.04426	0.298
6.08079	0.35
6.11732	0.718
6.15385	0.789
6.19038	0.834
6.22691	0.858
6.26344	0.859
6.29997	0.876
6.3365	0.891
6.37303	0.896
6.40956	0.902
6.44609	0.902
6.48262	0.898
6.51915	0.891
6.55568	0.885
6.59221	0.876
6.62874	0.864
6.66527	0.824
6.7018	0.757
6.73833	0.512
6.77486	0.389
6.81139	0.347
6.84792	0.359
6.88445	0.512
6.92098	0.474
6.95751	0.491
6.99404	0.651
7.03057	0.748
7.0671	0.759
7.10363	0.759
7.14015	0.735
7.17668	0.642
7.21321	0.336
7.24974	0.671
7.28627	0.503
7.3228	0.616
7.35933	0.792
7.39586	0.84
7.43239	0.856
7.46892	0.859
7.50545	0.855
7.54198	0.856
7.57851	0.794
7.61504	0.808
7.65157	0.844
7.6881	0.855
7.72463	0.8
7.76116	0.774
7.79769	0.799
7.83422	0.835
7.87075	0.838
7.90728	0.762
7.94381	0.66
7.98034	0.642
8.01687	0.762
8.0534	0.826
8.08993	0.826
8.12646	0.745
8.16299	0.809
8.19952	0.797
8.23605	0.751
8.27257	0.796
8.3091	0.721
8.34563	0.71
8.38216	0.742
8.41869	0.785
8.45522	0.77
8.49175	0.835
8.52828	0.866
8.56481	0.879
8.60134	0.879
8.63787	0.882
8.6744	0.882
8.71093	0.852
8.74746	0.672
8.78399	0.777
8.82052	0.844
8.85705	0.87
8.89358	0.876
8.93011	0.872
8.96664	0.85
9.00317	0.764
9.0397	0.621
9.07623	0.66
9.11276	0.774
9.14929	0.835
9.18582	0.861
9.22235	0.864
9.25888	0.856
9.29541	0.867
9.33194	0.878
9.36846	0.879
9.40499	0.878
9.44152	0.858
9.47805	0.756
9.51458	0.774
9.55111	0.794
9.58764	0.843
9.62417	0.872
9.6607	0.885
9.69723	0.893
9.73376	0.894
9.77029	0.894
9.80682	0.898
9.84335	0.887
9.87988	0.867
9.91641	0.876
9.95294	0.891
9.98947	0.894
10.026	0.896
10.0625	0.887
10.0991	0.875
10.1356	0.879
10.1721	0.885
10.2086	0.885
10.2452	0.867
10.2817	0.805
10.3182	0.849
10.3548	0.876
10.3913	0.882
10.4278	0.875
10.4644	0.844
10.5009	0.818
10.5374	0.835
10.5739	0.838
10.6105	0.802
10.647	0.824
10.6835	0.852
10.7201	0.866
10.7566	0.847
10.7931	0.756
10.8297	0.764
10.8662	0.826
10.9027	0.85
10.9392	0.853
10.9758	0.846
11.0123	0.814
11.0488	0.741
11.0854	0.689
11.1219	0.753
11.1584	0.761
11.1949	0.716
11.2315	0.634
11.268	0.519
11.3045	0.284
11.3411	0.101
11.3776	0.051
11.4141	0.042
11.4507	0.044
11.4872	0.171
11.5237	0.333
11.5602	0.493
11.5968	0.585
11.6333	0.573
11.6698	0.403
11.7064	0.266
11.7429	0.435
11.7794	0.631
11.816	0.732
11.8525	0.794
11.889	0.834
11.9255	0.852
11.9621	0.866
11.9986	0.873
12.0351	0.881
12.0717	0.881
12.1082	0.878
12.1447	0.855
12.1813	0.853
12.2178	0.872
12.2543	0.888
12.2908	0.894
12.3274	0.899
12.3639	0.899
12.4004	0.902
12.437	0.904
12.4735	0.904
12.51	0.902
12.5465	0.899
12.5831	0.894
12.6196	0.89
12.6561	0.879
12.6927	0.861
12.7292	0.856
12.7657	0.866
12.8023	0.873
12.8388	0.878
12.8753	0.876
12.9118	0.875
12.9484	0.867
12.9849	0.847
13.0214	0.797
13.058	0.733
13.0945	0.744
13.131	0.794
13.1676	0.829
13.2041	0.847
13.2406	0.859
13.2771	0.867
13.3137	0.869
13.3502	0.87
13.3867	0.872
13.4233	0.872
13.4598	0.873
13.4963	0.872
13.5328	0.872
13.5694	0.87
13.6059	0.869
13.6424	0.867
13.679	0.866
13.7155	0.863
13.752	0.859
13.7886	0.852
13.8251	0.85
13.8616	0.841
13.8981	0.834
13.9347	0.824
13.9712	0.815
14.0077	0.814
14.0443	0.817
14.0808	0.821
14.1173	0.821
14.1539	0.824
14.1904	0.823
14.2269	0.818
14.2634	0.815
14.3	0.811
14.3365	0.808
14.373	0.805
14.4096	0.803
14.4461	0.802
14.4826	0.8
14.5191	0.799
14.5557	0.796
14.5922	0.794
14.6287	0.791
14.6653	0.788
14.7018	0.78
14.7383	0.777
14.7749	0.771
14.8114	0.767
14.8479	0.762
14.8844	0.759
14.921	0.754
14.9575	0.756
14.994	0.764
