Infrared Spectrum: 3,5,5-TRIMETHYLOXAZOLIDINE-2,4-DIONE
Formula: C6 H9 N O3
CAS: 127-48-0
State: SOLUTION (7% CHCl3)
Class: COBLENTZ
Instrument: Not specified, most likely a prism, grating, or hybrid spectrometer.
Sampling: TRANSMISSION
Path length: 0.009 CM
Resolution: 4
MICROMETERS	TRANSMITTANCE
2.027	0.95
2.06566	0.948
2.10433	0.947
2.14299	0.944
2.18166	0.94
2.22032	0.937
2.25898	0.939
2.29765	0.926
2.33631	0.926
2.37498	0.926
2.41364	0.92
2.4523	0.929
2.49097	0.934
2.52963	0.936
2.5683	0.939
2.60696	0.94
2.64562	0.931
2.68429	0.934
2.72295	0.928
2.76162	0.931
2.80028	0.904
2.83895	0.835
2.87761	0.886
2.91627	0.907
2.95494	0.915
2.9936	0.92
3.03227	0.918
3.07093	0.918
3.10959	0.912
3.14826	0.91
3.18692	0.9
3.22559	0.888
3.26425	0.856
3.30291	0.714
3.34158	0.654
3.38024	0.752
3.41891	0.787
3.45757	0.853
3.49623	0.862
3.5349	0.899
3.57356	0.902
3.61223	0.9
3.65089	0.91
3.68955	0.91
3.72822	0.904
3.76688	0.904
3.80555	0.907
3.84421	0.912
3.88287	0.908
3.92154	0.904
3.9602	0.91
3.99887	0.902
4.03753	0.888
4.0762	0.892
4.11486	0.878
4.15352	0.87
4.19219	0.891
4.23085	0.9
4.26952	0.912
4.30818	0.915
4.34684	0.908
4.38551	0.888
4.42417	0.899
4.46284	0.902
4.5015	0.91
4.54016	0.9
4.57883	0.884
4.61749	0.902
4.65616	0.896
4.69482	0.9
4.73348	0.904
4.77215	0.902
4.81081	0.896
4.84948	0.902
4.88814	0.902
4.9268	0.9
4.96547	0.896
5.00413	0.888
5.0428	0.875
5.08146	0.876
5.12012	0.878
5.15879	0.881
5.19745	0.894
5.23612	0.899
5.27478	0.881
5.31344	0.869
5.35211	0.87
5.39077	0.854
5.42944	0.829
5.4681	0.686
5.50677	0.322
5.54543	0.071
5.58409	0.503
5.62276	0.571
5.66142	0.479
5.70009	0.345
5.73875	0.089
5.77741	0.012
5.81608	0.03
5.85474	0.439
5.89341	0.595
5.93207	0.599
5.97073	0.71
6.0094	0.787
6.04806	0.833
6.08673	0.833
6.12539	0.854
6.16405	0.838
6.20272	0.856
6.24138	0.859
6.28005	0.862
6.31871	0.859
6.35737	0.869
6.39604	0.853
6.4347	0.861
6.47337	0.845
6.51203	0.84
6.55069	0.798
6.58936	0.707
6.62802	0.701
6.66669	0.741
6.70535	0.707
6.74401	0.674
6.78268	0.57
6.82134	0.327
6.86001	0.123
6.89867	0.174
6.93734	0.073
6.976	0.127
7.01466	0.402
7.05333	0.597
7.09199	0.654
7.13066	0.635
7.16932	0.345
7.20798	0.143
7.24665	0.48
7.28531	0.522
7.32398	0.6
7.36264	0.659
7.4013	0.769
7.43997	0.755
7.47863	0.76
7.5173	0.784
7.55596	0.753
7.59462	0.67
7.63329	0.474
7.67195	0.252
7.71062	0.364
7.74928	0.276
7.78794	0.148
7.82661	0.327
7.86527	0.579
7.90394	0.629
7.9426	0.515
7.98126	0.455
8.01993	0.63
8.05859	0.683
8.09726	0.666
8.13592	0.595
8.17459	0.5
8.21325	0.466
8.25191	0.492
8.29058	0.546
8.32924	0.6
8.36791	0.498
8.40657	0.265
8.44523	0.436
8.4839	0.599
8.52256	0.726
8.56123	0.797
8.59989	0.819
8.63855	0.824
8.67722	0.83
8.71588	0.83
8.75455	0.825
8.79321	0.817
8.83187	0.816
8.87054	0.821
8.9092	0.816
8.94787	0.808
8.98653	0.782
9.02519	0.725
9.06386	0.522
9.10252	0.158
9.14119	0.078
9.17985	0.301
9.21851	0.557
9.25718	0.699
9.29584	0.765
9.33451	0.782
9.37317	0.787
9.41183	0.768
9.4505	0.682
9.48916	0.452
9.52783	0.228
9.56649	0.309
9.60516	0.512
9.64382	0.666
9.68248	0.752
9.72115	0.806
9.75981	0.837
9.79848	0.857
9.83714	0.854
9.8758	0.861
9.91447	0.856
9.95313	0.83
9.9918	0.789
10.0305	0.65
10.0691	0.212
10.1078	0.228
10.1465	0.48
10.1851	0.659
10.2238	0.769
10.2624	0.814
10.3011	0.832
10.3398	0.84
10.3784	0.845
10.4171	0.859
10.4558	0.873
10.4944	0.88
10.5331	0.88
10.5718	0.881
10.6104	0.878
10.6491	0.872
10.6877	0.876
10.7264	0.886
10.7651	0.897
10.8037	0.897
10.8424	0.892
10.8811	0.891
10.9197	0.881
10.9584	0.869
10.9971	0.814
11.0357	0.715
11.0744	0.782
11.1131	0.833
11.1517	0.865
11.1904	0.878
11.229	0.873
11.2677	0.859
11.3064	0.862
11.345	0.872
11.3837	0.888
11.4224	0.891
11.461	0.899
11.4997	0.902
11.5384	0.9
11.577	0.9
11.6157	0.904
11.6544	0.9
11.693	0.9
11.7317	0.9
11.7703	0.905
11.809	0.905
11.8477	0.908
11.8863	0.899
11.925	0.9
11.9637	0.902
12.0023	0.902
12.041	0.9
12.0797	0.9
12.1183	0.897
12.157	0.889
12.1956	0.888
12.2343	0.888
12.273	0.892
12.3116	0.897
12.3503	0.889
12.389	0.881
12.4276	0.884
12.4663	0.883
12.505	0.886
12.5436	0.891
12.5823	0.899
12.621	0.91
12.6596	0.918
12.6983	0.937
12.7369	0.963
12.7756	0.992
12.8143	1.017
12.8529	1.019
12.8916	1.017
12.9303	1.017
12.9689	1.017
13.0076	1.017
13.0463	1.017
13.0849	1.017
13.1236	1.017
13.1622	1.017
13.2009	1.017
13.2396	1.017
13.2782	1.017
13.3169	1.017
13.3556	1.017
13.3942	1.017
13.4329	1.015
13.4716	1.017
13.5102	1.015
13.5489	1.017
13.5876	1.017
13.6262	1.017
13.6649	1.017
13.7035	1.017
13.7422	1.015
13.7809	1.015
13.8195	1.015
13.8582	1.015
13.8969	1.014
13.9355	1.004
13.9742	0.969
14.0129	0.939
14.0515	0.915
14.0902	0.904
14.1288	0.889
14.1675	0.881
14.2062	0.872
14.2448	0.864
14.2835	0.854
14.3222	0.841
14.3608	0.813
14.3995	0.731
14.4382	0.688
14.4768	0.742
14.5155	0.809
14.5542	0.845
14.5928	0.864
14.6315	0.878
14.6701	0.881
14.7088	0.889
14.7475	0.891
14.7861	0.899
14.8248	0.891
14.8635	0.916
14.9021	0.926
14.9408	0.931
14.9795	0.947
15.0181	0.96
15.0568	0.966
15.0955	0.952
15.1341	0.862
15.1728	0.816
15.2114	0.83
15.2501	0.845
15.2888	0.857
15.3274	0.849
15.3661	0.83
15.4048	0.837
15.4434	0.851
15.4821	0.873
15.5208	0.881
