Infrared Spectrum: 2,6-DI-TERT-BUTYL-p-CRESOL
Formula: C15 H24 O
CAS: 128-37-0
State: SOLUTION (10% IN CCl4 FOR 3800-1340, 10% IN CS2 FOR 1340-450 CM^-^1)
Class: COBLENTZ III
Instrument: DOW KBr FOREPRISM-GRATING
Instrument parameters: BLAZED AT 3.5, 12.0, 20.0 MICRONS AND CHANGED AT 5.0, 7.5, 14.9 MICRONS
Sampling: TRANSMISSION
Path length: 0.011 CM, 0.011 CM
Resolution: 2
Origin: DOW CHEMICAL COMPANY
1/CM	TRANSMITTANCE
450.029	0.824
458.645	0.824
467.261	0.825
475.876	0.865
484.492	0.923
493.108	0.934
501.724	0.948
510.339	0.951
518.955	0.955
527.571	0.928
536.187	0.971
544.802	0.982
553.418	0.989
562.034	0.998
570.65	0.975
579.265	0.724
587.881	1
596.497	1.009
605.113	1.005
613.728	0.971
622.344	0.817
630.96	0.991
639.576	0.994
648.191	0.971
656.807	0.947
665.423	1.004
674.039	1.006
682.654	1.01
691.27	1.013
699.886	1.012
708.502	1.012
717.117	1.014
725.733	1.017
734.349	1.017
742.965	1.009
751.58	0.942
760.196	0.888
768.812	0.5352
777.428	0.5941
786.043	0.982
794.659	1.006
803.275	0.995
811.891	0.957
820.506	1.017
829.122	1.012
837.738	0.971
846.354	0.869
854.969	0.5629
863.585	0.6341
872.201	0.859
880.817	0.755
889.432	0.915
898.048	0.998
906.664	1.01
915.28	0.998
923.895	0.958
932.511	0.9341
941.127	1.01
949.743	1.02
958.358	1.033
966.974	1.037
975.59	1.034
984.206	1.026
992.821	0.998
1001.44	0.973
1010.05	0.978
1018.67	0.8689
1027.28	0.867
1035.9	0.922
1044.52	0.987
1053.13	1.013
1061.75	1.026
1070.36	1.024
1078.98	1.021
1087.59	1.017
1096.21	1.004
1104.83	0.974
1113.44	0.8129
1122.06	0.6452
1130.67	0.863
1139.29	0.7029
1147.9	0.139
1156.52	0.099
1165.14	0.4361
1173.75	0.736
1182.37	0.706
1190.98	0.6059
1199.6	0.621
1208.22	0.5608
1216.83	0.3851
1225.45	0.205
1234.06	0.222
1242.68	0.4199
1251.29	0.4121
1259.91	0.7321
1268.53	0.6591
1277.14	0.908
1285.76	0.91
1294.37	0.864
1302.99	0.7769
1311.6	0.3889
1320.22	0.6921
1328.84	0.881
1337.45	0.904
1346.07	0.9
1354.68	0.8589
1363.3	0.373
1371.91	0.6
1380.53	0.7891
1389.15	0.5748
1397.76	0.5789
1406.38	0.767
1414.99	0.6969
1423.61	0.4298
1432.22	0.072
1440.84	0.102
1449.46	0.2921
1458.07	0.413
1466.69	0.4
1475.3	0.488
1483.92	0.417
1492.53	0.7071
1501.15	0.757
1509.77	0.736
1518.38	0.706
1527	0.673
1535.61	0.616
1544.23	0.514
1552.85	0.493
1561.46	0.577
1570.08	0.657
1578.69	0.685
1587.31	0.707
1595.92	0.774
1604.54	0.812
1613.16	0.911
1621.77	0.942
1630.39	0.955
1639	0.966
1647.62	0.974
1656.23	0.969
1664.85	0.973
1673.47	0.978
1682.08	0.978
1690.7	0.975
1699.31	0.983
1707.93	0.977
1716.54	0.966
1725.16	0.971
1733.78	0.958
1742.39	0.935
1751.01	0.88
1759.62	0.946
1768.24	0.966
1776.85	0.958
1785.47	0.958
1794.09	0.971
1802.7	0.971
1811.32	0.974
1819.93	0.974
1828.55	0.974
1837.16	0.975
1845.78	0.975
1854.4	0.975
1863.01	0.977
1871.63	0.978
1880.24	0.979
1888.86	0.973
1897.48	0.971
1906.09	0.977
1914.71	0.981
1923.32	0.979
1931.94	0.977
1940.55	0.979
1949.17	0.979
1957.79	0.979
1966.4	0.979
1975.02	0.979
1983.63	0.971
1992.25	0.971
2000.86	0.964
2009.48	0.9767
2018.1	0.9849
2026.71	0.99
2035.33	0.994
2043.94	0.995
2052.56	0.995
2061.17	0.995
2069.79	0.998
2078.41	1
2087.02	1.0036
2095.64	1.004
2104.25	1.004
2112.87	1.004
2121.48	1.001
2130.1	1
2138.72	1.0028
2147.33	1.002
2155.95	1.002
2164.56	1.0002
2173.18	0.9983
2181.8	0.997
2190.41	1.001
2199.03	1.001
2207.64	1
2216.26	1
2224.87	1
2233.49	1.0007
2242.11	0.994
2250.72	0.99
2259.34	0.99
2267.95	0.987
2276.57	0.982
2285.18	0.9756
2293.8	0.967
2302.42	0.971
2311.03	0.9688
2319.65	0.978
2328.26	0.982
2336.88	0.9872
2345.49	0.991
2354.11	0.994
2362.73	0.994
2371.34	0.9826
2379.96	0.979
2388.57	0.981
2397.19	0.983
2405.8	0.987
2414.42	0.987
2423.04	0.987
2431.65	0.9899
2440.27	0.9929
2448.88	0.99
2457.5	0.986
2466.11	0.987
2474.73	0.99
2483.35	0.9943
2491.96	0.998
2500.58	1.001
2509.19	1.001
2517.81	1.001
2526.43	1.001
2535.04	1.0003
2543.66	0.9973
2552.27	0.9862
2560.89	0.9869
2569.5	0.993
2578.12	0.991
2586.74	0.9911
2595.35	1.001
2603.97	1.001
2612.58	0.994
2621.2	0.9923
2629.81	0.993
2638.43	0.9905
2647.05	0.9895
2655.66	0.986
2664.28	0.986
2672.89	0.989
2681.51	0.987
2690.12	0.985
2698.74	0.9752
2707.36	0.966
2715.97	0.9691
2724.59	0.9613
2733.2	0.9326
2741.82	0.9588
2750.43	0.9703
2759.05	0.9676
2767.67	0.97
2776.28	0.9615
2784.9	0.9578
2793.51	0.946
2802.13	0.9345
2810.74	0.9053
2819.36	0.8912
2827.98	0.8725
2836.59	0.8398
2845.21	0.7671
2853.82	0.5849
2862.44	0.3027
2871.06	0.2323
2879.67	0.2842
2888.29	0.319
2896.9	0.2558
2905.52	0.1727
2914.13	0.1356
2922.75	0.1997
2931.37	0.1939
2939.98	0.1075
2948.6	0.0391
2957.21	0.025
2965.83	0.0361
2974.44	0.1052
2983.06	0.3193
2991.68	0.4743
3000.29	0.4751
3008.91	0.6132
3017.52	0.7635
3026.14	0.8195
3034.75	0.857
3043.37	0.8697
3051.99	0.8579
3060.6	0.8301
3069.22	0.8277
3077.83	0.8517
3086.45	0.9116
3095.06	0.9531
3103.68	0.9664
3112.3	0.9753
3120.91	0.981
3129.53	0.983
3138.14	0.985
3146.76	0.986
3155.37	0.985
3163.99	0.9664
3172.61	0.9866
3181.22	0.987
3189.84	0.987
3198.45	0.9898
3207.07	0.99
3215.69	0.993
3224.3	0.993
3232.92	0.9971
3241.53	1.0024
3250.15	1.0052
3258.76	1.006
3267.38	1.006
3276	1.006
3284.61	1.005
3293.23	1.004
3301.84	1.005
3310.46	1.006
3319.07	1.0088
3327.69	1.0117
3336.31	1.013
3344.92	1.014
3353.54	1.013
3362.15	1.0099
3370.77	1.0058
3379.38	1.002
3388	1.002
3396.62	1.002
3405.23	1.002
3413.85	1.0045
3422.46	1.008
3431.08	1.0113
3439.69	1.0127
3448.31	1.0122
3456.93	1.012
3465.54	1.01
3474.16	1.009
3482.77	1.009
3491.39	1.0102
3500.01	1.013
3508.62	1.013
3517.24	1.0133
3525.85	1.01
3534.47	1.009
3543.08	1.007
3551.7	1.0044
3560.32	1.0003
3568.93	0.9933
3577.55	0.9852
3586.16	0.9771
3594.78	0.958
3603.39	0.918
3612.01	0.8618
3620.63	0.7419
3629.24	0.5326
3637.86	0.1569
3646.47	0.1199
3655.09	0.5469
3663.7	0.8407
3672.32	0.9233
3680.94	0.9576
3689.55	0.964
3698.17	0.9817
3706.78	0.9898
3715.4	0.991
3724.01	0.9939
3732.63	0.998
3741.25	1.001
3749.86	1.002
3758.48	1.002
3767.09	1.001
3775.71	0.9977
3784.32	0.9936
3792.94	0.991
