Infrared Spectrum: 2-NORPINENE, 2-ETHANOL-6,6-DIMETHYL-
Formula: C11 H18 O
CAS: 128-50-7
State: LIQUID (NEAT)
Class: COBLENTZ III
Instrument: CARY 90 (GRATING)
Instrument parameters: ORDER CHANGES: 3000, 2000, 1200 CM^-^1
Sampling: TRANSMISSION
Path length: 0.0025 CM
Resolution: 2
Origin: WESTERN REGIONAL RES. USDA
1/CM	TRANSMITTANCE
3992	0.9435
3983	0.9437
3974	0.944
3965	0.9443
3956	0.9454
3947	0.9475
3938	0.9502
3929	0.9528
3920	0.9551
3911	0.9571
3902	0.9588
3893	0.9596
3884	0.9593
3875	0.9607
3866	0.9649
3857	0.9701
3848	0.9748
3839	0.977
3830	0.9792
3821	0.9807
3812	0.9817
3803	0.9828
3794	0.9836
3785	0.9841
3776	0.9847
3767	0.985
3758	0.9853
3749	0.9856
3740	0.9864
3731	0.9865
3722	0.9858
3713	0.984
3704	0.9821
3695	0.9793
3686	0.976
3677	0.9716
3668	0.9656
3659	0.9534
3650	0.9308
3641	0.9118
3632	0.8886
3623	0.8724
3614	0.8621
3605	0.8488
3596	0.8134
3587	0.7757
3578	0.729
3569	0.6847
3560	0.6454
3551	0.6026
3542	0.5448
3533	0.486
3524	0.4412
3515	0.3982
3506	0.3539
3497	0.2934
3488	0.2482
3479	0.2123
3470	0.179
3461	0.1473
3452	0.1205
3443	0.1
3434	0.0841
3425	0.0726
3416	0.0616
3407	0.0513
3398	0.0433
3389	0.0372
3380	0.0322
3371	0.0278
3362	0.0238
3353	0.0207
3344	0.0192
3335	0.0193
3326	0.0198
3317	0.022
3308	0.0243
3299	0.0279
3290	0.0327
3281	0.039
3272	0.0457
3263	0.0557
3254	0.0671
3245	0.0799
3236	0.096
3227	0.1116
3218	0.1281
3209	0.1463
3200	0.1719
3191	0.2113
3182	0.2426
3173	0.2649
3164	0.3005
3155	0.3495
3146	0.403
3137	0.4364
3128	0.4625
3119	0.4898
3110	0.5108
3101	0.5337
3092	0.5458
3083	0.563
3074	0.5774
3065	0.5775
3056	0.5544
3047	0.4641
3038	0.3543
3029	0.2519
3020	0.3078
3011	0.3168
3002	0.1995
2993	0.0822
2984	0.0149
2975	0.016
2966	0.0146
2957	0.011
2948	0.0081
2939	0.0056
2930	0.0042
2921	0.0033
2912	0.0037
2903	0.0041
2894	0.0046
2885	0.005
2876	0.0062
2867	0.0135
2858	0.0802
2849	0.0864
2840	0.0503
2831	0.0936
2822	0.3164
2813	0.4558
2804	0.5454
2795	0.6023
2786	0.6553
2777	0.6784
2768	0.6826
2759	0.6871
2750	0.7135
2741	0.7128
2732	0.6994
2723	0.6972
2714	0.7412
2705	0.788
2696	0.8015
2687	0.8032
2678	0.8036
2669	0.7989
2660	0.7867
2651	0.8216
2642	0.8309
2633	0.8331
2624	0.8415
2615	0.8525
2606	0.8607
2597	0.8627
2588	0.8673
2579	0.8749
2570	0.8848
2561	0.892
2552	0.8988
2543	0.9037
2534	0.9049
2525	0.9074
2516	0.913
2507	0.9175
2498	0.9189
2489	0.9201
2480	0.9211
2471	0.9232
2462	0.9265
2453	0.931
2444	0.9357
2435	0.9402
2426	0.9446
2417	0.9493
2408	0.9551
2399	0.9568
2390	0.9544
2381	0.9508
2372	0.9492
2363	0.9497
2354	0.953
2345	0.961
2336	0.968
2327	0.9741
2318	0.976
2309	0.9775
2300	0.9792
2291	0.9803
2282	0.9814
2273	0.981
2264	0.9808
2255	0.981
2246	0.9812
2237	0.9787
2228	0.9739
2219	0.9703
2210	0.97
2201	0.9732
2192	0.9782
2183	0.9804
2174	0.9817
2165	0.9802
2156	0.9802
2147	0.982
2138	0.9827
2129	0.9802
2120	0.976
2111	0.9713
2102	0.9656
2093	0.9591
2084	0.9518
2075	0.9454
2066	0.9405
2057	0.9387
2048	0.9421
2039	0.948
2030	0.9546
2021	0.9609
2012	0.9665
2003	0.9717
1994	0.9815
1985	0.9825
1976	0.984
1967	0.9867
1958	0.9903
1949	0.9933
1940	0.9937
1931	0.9925
1922	0.9912
1913	0.989
1904	0.9883
1895	0.9882
1886	0.9886
1877	0.989
1868	0.9886
1859	0.9875
1850	0.9866
1841	0.9867
1832	0.9873
1823	0.9882
1814	0.9894
1805	0.9898
1796	0.9863
1787	0.9821
1778	0.9778
1769	0.9739
1760	0.9701
1751	0.9663
1742	0.962
1733	0.9573
1724	0.9521
1715	0.9506
1706	0.9524
1697	0.9505
1688	0.94
1679	0.9266
1670	0.9085
1661	0.8621
1652	0.7808
1643	0.8409
1634	0.8918
1625	0.8978
1616	0.8988
1607	0.8993
1598	0.8954
1589	0.8907
1580	0.8878
1571	0.8902
1562	0.8934
1553	0.8953
1544	0.8975
1535	0.8921
1526	0.8765
1517	0.8511
1508	0.8132
1499	0.765
1490	0.6549
1481	0.4762
1472	0.1621
1463	0.1945
1454	0.212
1445	0.1542
1436	0.1421
1427	0.2433
1418	0.3214
1409	0.3737
1400	0.4023
1391	0.3846
1382	0.1048
1373	0.3098
1364	0.0571
1355	0.3989
1346	0.3478
1337	0.4284
1328	0.3308
1319	0.5145
1310	0.5107
1301	0.5932
1292	0.6471
1283	0.6353
1274	0.5762
1265	0.3085
1256	0.557
1247	0.5922
1238	0.6807
1229	0.6445
1220	0.3523
1211	0.4876
1202	0.3221
1193	0.5622
1184	0.4351
1175	0.509
1166	0.596
1157	0.566
1148	0.7084
1139	0.7671
1130	0.7275
1121	0.4827
1112	0.6444
1103	0.6222
1094	0.5764
1085	0.4825
1076	0.368
1067	0.1069
1058	0.0405
1049	0.0081
1040	0.0088
1031	0.0253
1022	0.0416
1013	0.1316
1004	0.376
995	0.5274
986	0.7344
977	0.7978
968	0.7734
959	0.5459
950	0.5169
941	0.6415
932	0.7218
923	0.8325
914	0.811
905	0.748
896	0.7867
887	0.3474
878	0.7487
869	0.7315
860	0.6837
851	0.789
842	0.7086
833	0.7758
824	0.7154
815	0.6911
806	0.3859
797	0.3576
788	0.2696
779	0.3482
770	0.556
761	0.5172
752	0.6515
743	0.655
734	0.6383
725	0.6127
716	0.5917
707	0.5497
698	0.5309
689	0.4954
680	0.4915
671	0.5012
662	0.4808
653	0.4722
644	0.4882
635	0.501
626	0.4152
617	0.4897
608	0.5018
599	0.4506
590	0.4778
581	0.5445
572	0.5621
563	0.5729
554	0.5904
545	0.5966
536	0.6071
527	0.5218
518	0.6166
509	0.6498
500	0.6399
491	0.6291
482	0.6283
473	0.6243
