Infrared Spectrum: Pyrene
Formula: C16 H10
CAS: 129-00-0
State: SOLUTION (10% CCl4 FOR 4000-1340, 10% CCl4 FOR 440-200, 10% CS2 FOR 1340-430 CM^-^1)
Class: COBLENTZ III
Instrument: BECKMAN IR-12 (GRATING)
Instrument parameters: FILTERS AT 303, 473, 790, 1036, 1880, 2930 CM^-^1. GRATING CHANGE: 300.5, 650.0, 2000.4 CM^-^1
Path length: 0.01 CM, 0.01 CM, AND 0.01 CM
Resolution: 2
Origin: BECKMAN INSTRUMENTS, KENNETH STINE
1/CM	TRANSMITTANCE
228	0.1105
238	0.2847
248	0.3784
258	0.5342
268	0.6355
278	0.7278
288	0.7718
298	0.8026
308	0.7774
318	0.793
328	0.8463
338	0.8709
348	0.8972
358	0.8714
368	0.9331
378	0.9322
388	0.9371
398	0.9375
408	0.9342
418	0.9276
428	0.7819
438	0.744
448	0.7905
458	0.8261
468	0.8629
478	0.8751
488	0.7501
498	0.8189
508	0.9229
518	0.9315
528	0.9313
538	0.9339
548	0.8443
558	0.9515
568	0.9496
578	0.9446
588	0.9454
598	0.944
608	0.9386
618	0.9338
628	0.9289
638	0.9165
648	0.8867
658	0.8715
668	0.9289
678	0.931
688	0.9344
698	0.9181
708	0.5593
718	0.5541
728	0.9091
738	0.8775
748	0.2345
758	0.8462
768	0.8418
778	0.845
788	0.7901
798	0.8743
808	0.8893
818	0.7504
828	0.8523
838	0.0242
848	0.2642
858	0.7332
868	0.7992
878	0.844
888	0.8706
898	0.8868
908	0.9084
918	0.9331
928	0.9397
938	0.9352
948	0.9099
958	0.8677
968	0.794
978	0.9003
988	0.9273
998	0.9217
1008	0.899
1018	0.9316
1028	0.9382
1038	0.9429
1048	0.9405
1058	0.9202
1068	0.9168
1078	0.9288
1088	0.8641
1098	0.6854
1108	0.924
1118	0.9295
1128	0.923
1138	0.9035
1148	0.9023
1158	0.9196
1168	0.8938
1178	0.8299
1188	0.5829
1198	0.9274
1208	0.9298
1218	0.9368
1228	0.9326
1238	0.9114
1248	0.8507
1258	0.9427
1268	0.9294
1278	0.9397
1288	0.9314
1298	0.9417
1308	0.919
1318	0.9015
1328	0.9308
1338	0.9403
1348	0.9195
1358	0.907
1368	0.9049
1378	0.9103
1388	0.9091
1398	0.9066
1408	0.8909
1418	0.8845
1428	0.886
1438	0.5673
1448	0.8927
1458	0.883
1468	0.8525
1478	0.904
1488	0.8072
1498	0.8292
1508	0.7955
1518	0.6907
1528	0.6945
1538	0.6316
1548	0.5354
1558	0.545
1568	0.6213
1578	0.669
1588	0.6639
1598	0.596
1608	0.7201
1618	0.8502
1628	0.9072
1638	0.9095
1648	0.852
1658	0.8945
1668	0.8716
1678	0.9279
1688	0.9214
1698	0.9058
1708	0.9291
1718	0.929
1728	0.9277
1738	0.9123
1748	0.8942
1758	0.9079
1768	0.8858
1778	0.9275
1788	0.9049
1798	0.7955
1808	0.8897
1818	0.929
1828	0.9413
1838	0.9309
1848	0.9122
1858	0.9132
1868	0.8636
1878	0.9279
1888	0.9425
1898	0.939
1908	0.9164
1918	0.8468
1928	0.8621
1938	0.814
1948	0.9226
1958	0.9365
1968	0.9415
1978	0.9417
1988	0.9376
1998	0.9372
2008	0.9386
2018	0.9375
2028	0.9363
2038	0.9366
2048	0.9375
2058	0.9385
2068	0.9422
2078	0.9409
2088	0.9398
2098	0.9393
2108	0.9378
2118	0.9361
2128	0.9366
2138	0.9375
2148	0.9374
2158	0.937
2168	0.9357
2178	0.937
2188	0.9382
2198	0.9363
2208	0.9345
2218	0.9327
2228	0.9308
2238	0.9288
2248	0.9276
2258	0.9268
2268	0.9201
2278	0.9126
2288	0.9132
2298	0.9171
2308	0.9228
2318	0.9255
2328	0.9273
2338	0.9291
2348	0.9313
2358	0.9341
2368	0.9369
2378	0.9335
2388	0.9322
2398	0.9314
2408	0.9311
2418	0.9307
2428	0.9302
2438	0.9297
2448	0.9292
2458	0.9287
2468	0.9276
2478	0.9257
2488	0.9238
2498	0.9204
2508	0.9192
2518	0.9227
2528	0.9268
2538	0.9287
2548	0.9285
2558	0.9283
2568	0.928
2578	0.9277
2588	0.9272
2598	0.9266
2608	0.926
2618	0.9253
2628	0.925
2638	0.9249
2648	0.9249
2658	0.9239
2668	0.9223
2678	0.9215
2688	0.9214
2698	0.9214
2708	0.9216
2718	0.9219
2728	0.9218
2738	0.9218
2748	0.9217
2758	0.9215
2768	0.9212
2778	0.921
2788	0.9203
2798	0.9195
2808	0.9187
2818	0.9181
2828	0.9165
2838	0.9144
2848	0.9151
2858	0.9159
2868	0.916
2878	0.9148
2888	0.913
2898	0.9107
2908	0.9082
2918	0.9059
2928	0.9038
2938	0.8997
2948	0.8943
2958	0.8866
2968	0.8756
2978	0.8594
2988	0.8496
2998	0.8314
3008	0.826
3018	0.7707
3028	0.5987
3038	0.353
3048	0.3569
3058	0.5601
3068	0.7633
3078	0.8036
3088	0.8324
3098	0.8344
3108	0.8434
3118	0.8692
3128	0.8881
3138	0.8921
3148	0.8933
3158	0.8939
3168	0.8977
3178	0.9014
3188	0.9018
3198	0.9016
3208	0.9002
3218	0.8998
3228	0.8999
3238	0.8983
3248	0.8987
3258	0.9001
3268	0.8987
3278	0.8972
3288	0.8996
3298	0.8983
3308	0.8962
3318	0.8965
3328	0.8968
3338	0.8935
3348	0.8908
3358	0.8888
3368	0.8867
3378	0.8838
3388	0.8785
3398	0.8759
3408	0.8734
3418	0.8704
3428	0.8738
3438	0.8757
3448	0.8791
3458	0.8794
3468	0.8819
3478	0.8906
3488	0.8908
3498	0.8906
3508	0.891
3518	0.8916
3528	0.8929
3538	0.8935
3548	0.894
3558	0.8945
3568	0.8949
3578	0.8956
3588	0.8952
3598	0.8945
3608	0.8941
3618	0.8939
3628	0.894
3638	0.895
3648	0.8963
3658	0.8977
3668	0.8971
3678	0.8955
3688	0.8934
3698	0.8917
3708	0.89
3718	0.8885
3728	0.8867
3738	0.8849
3748	0.8832
3758	0.8828
3768	0.8833
3778	0.8859
3788	0.8858
3798	0.8838
3808	0.8816
3818	0.8793
3828	0.8771
3838	0.8751
3848	0.8736
3858	0.8727
3868	0.8732
3878	0.8745
3888	0.8772
3898	0.8796
3908	0.8817
3918	0.8834
3928	0.886
3938	0.887
3948	0.8858
3958	0.8837
3968	0.8814
3978	0.8798
3988	0.8796
