Infrared Spectrum: 1-CHLORO-5-NITROANTHRAQUINONE
Formula: C14 H6 Cl N O4
CAS: 129-40-8
State: SOLID (KBr PELLET)
Class: COBLENTZ
Instrument: Not specified, most likely a prism, grating, or hybrid spectrometer.
Sampling: TRANSMISSION
Resolution: 4
Origin: CORN PRODUCTS COMPANY
MICROMETERS	TRANSMITTANCE
2.027	0.502
2.06082	0.51
2.09464	0.519
2.12846	0.522
2.16228	0.524
2.1961	0.526
2.22991	0.538
2.26373	0.551
2.29755	0.56
2.33137	0.566
2.36519	0.576
2.39901	0.582
2.43283	0.587
2.46665	0.595
2.50047	0.6
2.53429	0.605
2.56811	0.61
2.60192	0.617
2.63574	0.62
2.66956	0.626
2.70338	0.632
2.7372	0.634
2.77102	0.62
2.80484	0.575
2.83866	0.522
2.87248	0.485
2.9063	0.456
2.94012	0.445
2.97394	0.456
3.00775	0.483
3.04157	0.509
3.07539	0.548
3.10921	0.573
3.14303	0.588
3.17685	0.605
3.21067	0.61
3.24449	0.61
3.27831	0.495
3.31213	0.604
3.34595	0.615
3.37976	0.646
3.41358	0.671
3.4474	0.678
3.48122	0.68
3.51504	0.692
3.54886	0.703
3.58268	0.708
3.6165	0.719
3.65032	0.722
3.68414	0.727
3.71796	0.73
3.75177	0.73
3.78559	0.739
3.81941	0.739
3.85323	0.736
3.88705	0.737
3.92087	0.742
3.95469	0.749
3.98851	0.756
4.02233	0.759
4.05615	0.766
4.08997	0.766
4.12379	0.766
4.1576	0.766
4.19142	0.766
4.22524	0.766
4.25906	0.766
4.29288	0.768
4.3267	0.768
4.36052	0.768
4.39434	0.769
4.42816	0.769
4.46198	0.769
4.4958	0.769
4.52961	0.774
4.56343	0.776
4.59725	0.774
4.63107	0.78
4.66489	0.78
4.69871	0.78
4.73253	0.781
4.76635	0.785
4.80017	0.785
4.83399	0.788
4.86781	0.783
4.90162	0.785
4.93544	0.788
4.96926	0.79
5.00308	0.786
5.0369	0.778
5.07072	0.778
5.10454	0.79
5.13836	0.793
5.17218	0.773
5.206	0.771
5.23982	0.788
5.27364	0.798
5.30745	0.791
5.34127	0.79
5.37509	0.8
5.40891	0.802
5.44273	0.803
5.47655	0.803
5.51037	0.803
5.54419	0.803
5.57801	0.8
5.61183	0.79
5.64565	0.788
5.67946	0.781
5.71328	0.783
5.7471	0.773
5.78092	0.759
5.81474	0.747
5.84856	0.727
5.88238	0.648
5.9162	0.214
5.95002	0.094
5.98384	0.355
6.01766	0.509
6.05147	0.534
6.08529	0.571
6.11911	0.614
6.15293	0.624
6.18675	0.636
6.22057	0.619
6.25439	0.362
6.28821	0.487
6.32203	0.336
6.35585	0.313
6.38967	0.467
6.42349	0.37
6.4573	0.182
6.49112	0.159
6.52494	0.292
6.55876	0.49
6.59258	0.593
6.6264	0.649
6.66022	0.675
6.69404	0.692
6.72786	0.703
6.76168	0.71
6.7955	0.703
6.82931	0.659
6.86313	0.588
6.89695	0.636
6.93077	0.659
6.96459	0.639
6.99841	0.626
7.03223	0.703
7.06605	0.734
7.09987	0.739
7.13369	0.736
7.16751	0.72
7.20132	0.646
7.23514	0.473
7.26896	0.434
7.30278	0.485
7.3366	0.595
7.37042	0.659
7.40424	0.67
7.43806	0.671
7.47188	0.642
7.5057	0.516
7.53952	0.137
7.57334	0.12
7.60715	0.128
7.64097	0.209
7.67479	0.287
7.70861	0.377
7.74243	0.382
7.77625	0.395
7.81007	0.424
7.84389	0.287
7.87771	0.103
7.91153	0.106
7.94535	0.235
7.97916	0.465
8.01298	0.582
8.0468	0.619
8.08062	0.651
8.11444	0.668
8.14826	0.67
8.18208	0.582
8.2159	0.56
8.24972	0.614
8.28354	0.651
8.31736	0.69
8.35117	0.7
8.38499	0.705
8.41881	0.702
8.45263	0.649
8.48645	0.653
8.52027	0.671
8.55409	0.654
8.58791	0.56
8.62173	0.624
8.65555	0.673
8.68937	0.683
8.72319	0.708
8.757	0.698
8.79082	0.554
8.82464	0.406
8.85846	0.51
8.89228	0.641
8.9261	0.697
8.95992	0.719
8.99374	0.736
9.02756	0.749
9.06138	0.756
9.0952	0.759
9.12901	0.761
9.16283	0.747
9.19665	0.666
9.23047	0.644
9.26429	0.722
9.29811	0.759
9.33193	0.764
9.36575	0.766
9.39957	0.773
9.43339	0.78
9.46721	0.78
9.50102	0.78
9.53484	0.778
9.56866	0.773
9.60248	0.761
9.6363	0.754
9.67012	0.756
9.70394	0.764
9.73776	0.769
9.77158	0.766
9.8054	0.759
9.83922	0.752
9.87304	0.734
9.90685	0.734
9.94067	0.724
9.97449	0.678
10.0083	0.532
10.0421	0.419
10.0759	0.424
10.1098	0.563
10.1436	0.636
10.1774	0.675
10.2112	0.697
10.245	0.73
10.2789	0.752
10.3127	0.766
10.3465	0.771
10.3803	0.773
10.4141	0.774
10.448	0.78
10.4818	0.783
10.5156	0.781
10.5494	0.781
10.5832	0.773
10.6171	0.766
10.6509	0.754
10.6847	0.759
10.7185	0.773
10.7523	0.781
10.7862	0.781
10.82	0.763
10.8538	0.751
10.8876	0.752
10.9214	0.769
10.9552	0.781
10.9891	0.786
11.0229	0.79
11.0567	0.791
11.0905	0.791
11.1243	0.793
11.1582	0.791
11.192	0.791
11.2258	0.791
11.2596	0.791
11.2934	0.786
11.3273	0.781
11.3611	0.761
11.3949	0.592
11.4287	0.509
11.4625	0.626
11.4964	0.705
11.5302	0.741
11.564	0.756
11.5978	0.763
11.6316	0.769
11.6654	0.771
11.6993	0.774
11.7331	0.776
11.7669	0.774
11.8007	0.752
11.8345	0.739
11.8684	0.751
11.9022	0.758
11.936	0.763
11.9698	0.766
12.0036	0.763
12.0375	0.759
12.0713	0.747
12.1051	0.705
12.1389	0.571
12.1727	0.389
12.2066	0.289
12.2404	0.299
12.2742	0.39
12.308	0.434
12.3418	0.414
12.3756	0.445
12.4095	0.576
12.4433	0.644
12.4771	0.683
12.5109	0.69
12.5447	0.697
12.5786	0.714
12.6124	0.722
12.6462	0.732
12.68	0.736
12.7138	0.734
12.7477	0.73
12.7815	0.715
12.8153	0.678
12.8491	0.675
12.8829	0.705
12.9168	0.727
12.9506	0.737
12.9844	0.746
13.0182	0.749
13.052	0.749
13.0859	0.744
13.1197	0.712
13.1535	0.644
13.1873	0.588
13.2211	0.626
13.2549	0.666
13.2888	0.68
13.3226	0.68
13.3564	0.697
13.3902	0.712
13.424	0.72
13.4579	0.725
13.4917	0.729
13.5255	0.73
13.5593	0.73
13.5931	0.729
13.627	0.725
13.6608	0.719
13.6946	0.71
13.7284	0.697
13.7622	0.676
13.7961	0.666
13.8299	0.673
13.8637	0.68
13.8975	0.685
13.9313	0.683
13.9651	0.675
13.999	0.656
14.0328	0.627
14.0666	0.563
14.1004	0.482
14.1342	0.358
14.1681	0.279
14.2019	0.241
14.2357	0.296
14.2695	0.372
14.3033	0.39
14.3372	0.324
14.371	0.252
14.4048	0.279
14.4386	0.406
14.4724	0.516
14.5063	0.583
14.5401	0.626
14.5739	0.649
14.6077	0.673
14.6415	0.68
14.6753	0.681
14.7092	0.688
14.743	0.693
14.7768	0.697
14.8106	0.708
14.8444	0.712
14.8783	0.715
14.9121	0.715
14.9459	0.717
14.9797	0.72
15.0135	0.724
15.0474	0.729
15.0812	0.73
15.115	0.732
15.1488	0.732
15.1826	0.734
15.2165	0.736
15.2503	0.737
15.2841	0.737
15.3179	0.739
15.3517	0.739
15.3856	0.739
15.4194	0.739
15.4532	0.739
15.487	0.739
