Infrared Spectrum: 2-Methylmercapto-10-[2-(N-methyl-2-piperidyl)ethyl]phenothiazine, hydrochloride
Formula: C21 H27 Cl N2 S2
CAS: 130-61-0
State: SOLID (OIL MULL)
Class: COBLENTZ III
Instrument: PERKIN-ELMER 21 (GRATING)
Instrument parameters: NaCl PRISM
Sampling: TRANSMISSION
Resolution: 2
Origin: SMITH KLINE & FRENCH LABS.
1/CM	TRANSMITTANCE
4000	0.5772
3991	0.5796
3982	0.5825
3973	0.5856
3964	0.5889
3955	0.5921
3946	0.5955
3937	0.5991
3928	0.6026
3919	0.6052
3910	0.6074
3901	0.6095
3892	0.6116
3883	0.613
3874	0.6143
3865	0.6151
3856	0.6156
3847	0.616
3838	0.6165
3829	0.6171
3820	0.6178
3811	0.6185
3802	0.6192
3793	0.6201
3784	0.6212
3775	0.6221
3766	0.6241
3757	0.6272
3748	0.6314
3739	0.6357
3730	0.6395
3721	0.6432
3712	0.6465
3703	0.6494
3694	0.6514
3685	0.6533
3676	0.6545
3667	0.6553
3658	0.6561
3649	0.6565
3640	0.6565
3631	0.6568
3622	0.6569
3613	0.6571
3604	0.6571
3595	0.6571
3586	0.6569
3577	0.6569
3568	0.6568
3559	0.6565
3550	0.6562
3541	0.6558
3532	0.6557
3523	0.6554
3514	0.6551
3505	0.6549
3496	0.6541
3487	0.6524
3478	0.6485
3469	0.6443
3460	0.6398
3451	0.6345
3442	0.6279
3433	0.6217
3424	0.617
3415	0.6141
3406	0.6131
3397	0.6124
3388	0.6124
3379	0.6123
3370	0.6112
3361	0.6094
3352	0.606
3343	0.6037
3334	0.6031
3325	0.6034
3316	0.6057
3307	0.6118
3298	0.6173
3289	0.6227
3280	0.6272
3271	0.6318
3262	0.6366
3253	0.6414
3244	0.6454
3235	0.6492
3226	0.653
3217	0.6568
3208	0.6615
3199	0.6645
3190	0.6653
3181	0.6655
3172	0.6661
3163	0.6669
3154	0.6696
3145	0.6721
3136	0.6745
3127	0.6774
3118	0.6801
3109	0.6826
3100	0.6838
3091	0.6848
3082	0.6854
3073	0.6856
3064	0.6853
3055	0.6828
3046	0.67
3037	0.658
3028	0.6451
3019	0.6233
3010	0.6099
3001	0.6035
2992	0.5926
2983	0.5579
2974	0.5318
2965	0.5088
2956	0.4179
2947	0.3266
2938	0.2346
2929	0.1684
2920	0.1609
2911	0.1563
2902	0.1545
2893	0.1536
2884	0.1533
2875	0.1529
2866	0.1534
2857	0.1541
2848	0.1557
2839	0.1595
2830	0.1644
2821	0.1836
2812	0.2364
2803	0.3309
2794	0.426
2785	0.5219
2776	0.6183
2767	0.6828
2758	0.7049
2749	0.7155
2740	0.7198
2731	0.7217
2722	0.7219
2713	0.72
2704	0.714
2695	0.7047
2686	0.6941
2677	0.683
2668	0.6712
2659	0.6584
2650	0.6414
2641	0.626
2632	0.615
2623	0.6066
2614	0.6005
2605	0.5962
2596	0.5924
2587	0.5855
2578	0.5714
2569	0.5617
2560	0.5535
2551	0.546
2542	0.5388
2533	0.535
2524	0.5235
2515	0.5146
2506	0.5047
2497	0.4853
2488	0.4629
2479	0.4396
2470	0.4223
2461	0.3854
2452	0.3456
2443	0.3056
2434	0.2653
2425	0.2247
2416	0.2091
2407	0.212
2398	0.2273
2389	0.2638
2380	0.3017
2371	0.3387
2362	0.3662
2353	0.385
2344	0.4038
2335	0.4276
2326	0.4476
2317	0.4769
2308	0.5106
2299	0.5648
2290	0.5985
2281	0.6405
2272	0.6656
2263	0.6889
2254	0.7042
2245	0.7172
2236	0.7287
2227	0.7426
2218	0.7564
2209	0.7687
2200	0.7812
2191	0.7908
2182	0.7992
2173	0.8068
2164	0.8142
2155	0.8207
2146	0.8271
2137	0.8335
2128	0.8395
2119	0.8453
2110	0.8495
2101	0.8524
2092	0.8548
2083	0.857
2074	0.8583
2065	0.8596
2056	0.8618
2047	0.8642
2038	0.8664
2029	0.8687
2020	0.8705
2011	0.8718
2002	0.873
1993	0.8742
1984	0.8753
1975	0.8761
1966	0.8771
1957	0.8783
1948	0.8839
1939	0.8842
1930	0.8767
1921	0.8783
1912	0.8778
1903	0.8777
1894	0.8784
1885	0.8808
1876	0.8844
1867	0.8871
1858	0.8831
1849	0.8783
1840	0.8823
1831	0.8893
1822	0.8895
1813	0.8891
1804	0.8873
1795	0.8867
1786	0.8875
1777	0.8942
1768	0.8956
1759	0.896
1750	0.8965
1741	0.8973
1732	0.8955
1723	0.8838
1714	0.8841
1705	0.8888
1696	0.8941
1687	0.8933
1678	0.8928
1669	0.8915
1660	0.8893
1651	0.8904
1642	0.8871
1633	0.8818
1624	0.8758
1615	0.87
1606	0.86
1597	0.8361
1588	0.7633
1579	0.7008
1570	0.5745
1561	0.5374
1552	0.6122
1543	0.6646
1534	0.7971
1525	0.8408
1516	0.8447
1507	0.8425
1498	0.8364
1489	0.7781
1480	0.5201
1471	0.4077
1462	0.1764
1453	0.1637
1444	0.1775
1435	0.2716
1426	0.3945
1417	0.5073
1408	0.5345
1399	0.3512
1390	0.5782
1381	0.5014
1372	0.4245
1363	0.5522
1354	0.6834
1345	0.7192
1336	0.7254
1327	0.6801
1318	0.615
1309	0.6971
1300	0.5756
1291	0.6235
1282	0.6137
1273	0.5408
1264	0.7445
1255	0.7242
1246	0.407
1237	0.5787
1228	0.4597
1219	0.6334
1210	0.6444
1201	0.729
1192	0.7835
1183	0.7849
1174	0.7944
1165	0.725
1156	0.765
1147	0.6814
1138	0.7401
1129	0.6599
1120	0.7389
1111	0.7101
1102	0.6038
1093	0.7404
1084	0.7881
1075	0.7928
1066	0.8408
1057	0.7568
1048	0.7284
1039	0.7332
1030	0.7568
1021	0.7761
1012	0.809
1003	0.8521
994	0.854
985	0.808
976	0.6441
967	0.7497
958	0.7526
949	0.6165
940	0.7688
931	0.5977
922	0.7775
913	0.8352
904	0.8044
895	0.8659
886	0.8764
877	0.8857
868	0.8753
859	0.8363
850	0.7625
841	0.8509
832	0.5777
823	0.8407
814	0.8536
805	0.7885
796	0.4183
787	0.8397
778	0.8604
769	0.8046
760	0.6001
751	0.321
742	0.7219
733	0.7542
724	0.7601
715	0.7854
706	0.8069
697	0.7915
688	0.7791
679	0.7096
670	0.7297
