Infrared Spectrum: DI-TERT-BUTYL HYDROGEN PHOSPHATE
Formula: C8 H19 O3 P
CAS: 13086-84-5
State: LIQUID
Class: COBLENTZ
Instrument: PERKIN-ELMER
Sampling: TRANSMISSION
Path length: 0.0015 CM
Resolution: 4
Origin: STANDARD OIL OF OHIO
MICROMETERS	TRANSMITTANCE
2.02	0.996
2.05377	0.996
2.08754	0.996
2.1213	0.996
2.15507	0.996
2.18884	0.996
2.22261	0.996
2.25637	0.988
2.29014	0.954
2.32391	0.952
2.35768	0.971
2.39145	0.959
2.42521	0.962
2.45898	0.972
2.49275	0.974
2.52652	0.974
2.56028	0.976
2.59405	0.977
2.62782	0.986
2.66159	0.991
2.69536	0.991
2.72912	0.986
2.76289	0.969
2.79666	0.945
2.83043	0.886
2.86419	0.883
2.89796	0.879
2.93173	0.901
2.9655	0.93
2.99927	0.95
3.03303	0.959
3.0668	0.954
3.10057	0.95
3.13434	0.952
3.1681	0.964
3.20187	0.969
3.23564	0.969
3.26941	0.957
3.30318	0.913
3.33694	0.411
3.37071	0.166
3.40448	0.34
3.43825	0.481
3.47202	0.63
3.50578	0.793
3.53955	0.881
3.57332	0.928
3.60709	0.954
3.64085	0.964
3.67462	0.964
3.70839	0.962
3.74216	0.971
3.77593	0.976
3.80969	0.976
3.84346	0.976
3.87723	0.981
3.911	0.981
3.94476	0.983
3.97853	0.976
4.0123	0.967
4.04607	0.955
4.07984	0.925
4.1136	0.742
4.14737	0.496
4.18114	0.593
4.21491	0.796
4.24867	0.859
4.28244	0.905
4.31621	0.935
4.34998	0.952
4.38375	0.937
4.41751	0.954
4.45128	0.967
4.48505	0.969
4.51882	0.972
4.55258	0.969
4.58635	0.962
4.62012	0.966
4.65389	0.969
4.68766	0.972
4.72142	0.972
4.75519	0.972
4.78896	0.969
4.82273	0.967
4.85649	0.967
4.89026	0.967
4.92403	0.966
4.9578	0.966
4.99157	0.962
5.02533	0.955
5.0591	0.959
5.09287	0.957
5.12664	0.954
5.1604	0.952
5.19417	0.957
5.22794	0.959
5.26171	0.962
5.29548	0.959
5.32924	0.957
5.36301	0.955
5.39678	0.952
5.43055	0.952
5.46431	0.949
5.49808	0.95
5.53185	0.949
5.56562	0.944
5.59939	0.944
5.63315	0.944
5.66692	0.947
5.70069	0.942
5.73446	0.933
5.76823	0.915
5.80199	0.901
5.83576	0.908
5.86953	0.91
5.9033	0.91
5.93706	0.908
5.97083	0.903
6.0046	0.9
6.03837	0.898
6.07214	0.898
6.1059	0.9
6.13967	0.901
6.17344	0.91
6.20721	0.927
6.24097	0.938
6.27474	0.949
6.30851	0.949
6.34228	0.949
6.37605	0.95
6.40981	0.954
6.44358	0.955
6.47735	0.952
6.51112	0.949
6.54488	0.942
6.57865	0.94
6.61242	0.927
6.64619	0.916
6.67996	0.864
6.71372	0.706
6.74749	0.513
6.78126	0.491
6.81503	0.535
6.84879	0.552
6.88256	0.662
6.91633	0.738
6.9501	0.788
6.98387	0.823
7.01763	0.849
7.0514	0.852
7.08517	0.842
7.11894	0.683
7.1527	0.345
7.18647	0.376
7.22024	0.574
7.25401	0.311
7.28778	0.071
7.32154	0.272
7.35531	0.623
7.38908	0.781
7.42285	0.835
7.45661	0.855
7.49038	0.867
7.52415	0.869
7.55792	0.861
7.59169	0.845
7.62545	0.818
7.65922	0.781
7.69299	0.684
7.72676	0.549
7.76052	0.4
7.79429	0.267
7.82806	0.12
7.86183	0.011
7.8956	0.005
7.92936	0.003
7.96313	0.011
7.9969	0.032
8.03067	0.135
8.06444	0.279
8.0982	0.423
8.13197	0.501
8.16574	0.562
8.19951	0.591
8.23327	0.603
8.26704	0.596
8.30081	0.562
8.33458	0.51
8.36835	0.411
8.40211	0.313
8.43588	0.218
8.46965	0.127
8.50342	0.103
8.53718	0.089
8.57095	0.171
8.60472	0.371
8.63849	0.554
8.67226	0.684
8.70602	0.745
8.73979	0.784
8.77356	0.805
8.80733	0.813
8.84109	0.818
8.87486	0.822
8.90863	0.823
8.9424	0.825
8.97617	0.822
9.00993	0.813
9.0437	0.803
9.07747	0.789
9.11124	0.771
9.145	0.752
9.17877	0.71
9.21254	0.632
9.24631	0.494
9.28008	0.333
9.31384	0.23
9.34761	0.218
9.38138	0.261
9.41515	0.301
9.44891	0.301
9.48268	0.254
9.51645	0.183
9.55022	0.12
9.58399	0.071
9.61775	0.052
9.65152	0.064
9.68529	0.105
9.71906	0.123
9.75282	0.115
9.78659	0.101
9.82036	0.091
9.85413	0.077
9.8879	0.05
9.92166	0.02
9.95543	0.013
9.9892	0.01
10.023	0.006
10.0567	0.003
10.0905	0.003
10.1243	0.003
10.158	0.003
10.1918	0.003
10.2256	0.003
10.2593	0.003
10.2931	0.003
10.3269	0.001
10.3606	0.003
10.3944	0.003
10.4282	0.003
10.4619	0.006
10.4957	0.02
10.5295	0.103
10.5633	0.174
10.597	0.257
10.6308	0.328
10.6646	0.389
10.6983	0.422
10.7321	0.43
10.7659	0.403
10.7996	0.301
10.8334	0.189
10.8672	0.144
10.9009	0.166
10.9347	0.301
10.9685	0.415
11.0022	0.557
11.036	0.63
11.0698	0.7
11.1035	0.735
11.1373	0.769
11.1711	0.796
11.2048	0.813
11.2386	0.828
11.2724	0.84
11.3061	0.85
11.3399	0.857
11.3737	0.862
11.4074	0.867
11.4412	0.871
11.475	0.874
11.5088	0.876
11.5425	0.877
11.5763	0.877
11.6101	0.879
11.6438	0.879
11.6776	0.879
11.7114	0.879
11.7451	0.877
11.7789	0.876
11.8127	0.871
11.8464	0.864
11.8802	0.854
11.914	0.845
11.9477	0.822
11.9815	0.783
12.0153	0.72
12.049	0.635
12.0828	0.52
12.1166	0.41
12.1503	0.401
12.1841	0.462
12.2179	0.528
12.2516	0.586
12.2854	0.659
12.3192	0.725
12.3529	0.786
12.3867	0.827
12.4205	0.852
12.4542	0.864
12.488	0.876
12.5218	0.886
12.5556	0.889
12.5893	0.893
12.6231	0.896
12.6569	0.901
12.6906	0.903
12.7244	0.906
12.7582	0.908
12.7919	0.91
12.8257	0.91
12.8595	0.911
12.8932	0.911
12.927	0.911
12.9608	0.911
12.9945	0.911
13.0283	0.911
13.0621	0.91
13.0958	0.908
13.1296	0.908
13.1634	0.906
13.1971	0.906
13.2309	0.905
13.2647	0.903
13.2984	0.903
13.3322	0.901
13.366	0.901
13.3997	0.9
13.4335	0.898
13.4673	0.894
13.501	0.891
13.5348	0.886
13.5686	0.879
13.6024	0.874
13.6361	0.867
13.6699	0.861
13.7037	0.852
13.7374	0.84
13.7712	0.825
13.805	0.808
13.8387	0.786
13.8725	0.761
13.9063	0.737
13.94	0.713
13.9738	0.686
14.0076	0.659
14.0413	0.622
14.0751	0.593
14.1089	0.561
14.1426	0.53
14.1764	0.5
14.2102	0.466
14.2439	0.444
14.2777	0.416
14.3115	0.401
14.3452	0.396
14.379	0.398
14.4128	0.415
14.4465	0.433
14.4803	0.454
14.5141	0.476
14.5479	0.498
14.5816	0.513
14.6154	0.53
14.6492	0.55
14.6829	0.569
14.7167	0.588
14.7505	0.605
14.7842	0.622
14.818	0.637
14.8518	0.649
14.8855	0.654
14.9193	0.661
14.9531	0.664
14.9868	0.666
15.0206	0.666
15.0544	0.661
15.0881	0.649
15.1219	0.64
15.1557	0.632
15.1894	0.628
15.2232	0.627
15.257	0.625
15.2907	0.625
15.3245	0.627
15.3583	0.633
15.392	0.647
