Infrared Spectrum: Dipentyl phthalate
Formula: C18 H26 O4
CAS: 131-18-0
State: SOLUTION (10% CCl4 FOR 2.7-7.5, 10% CS2 FOR 7.5-26 MICRON) VS SOLVENT
Class: COBLENTZ III
Instrument: DOW KBr FOREPRISM-GRATING
Instrument parameters: BLAZED AT 3.5, 12.0, 20.0 MICRON AND CHANGED AT 5.0, 7.5, 14.9 MICRON
Sampling: TRANSMISSION
Path length: 0.011 CM, 0.011 CM
Resolution: 2
Origin: DOW CHEMICAL COMPANY
1/CM	TRANSMITTANCE
3796	0.8468
3787	0.8471
3778	0.8475
3769	0.8478
3760	0.848
3751	0.8482
3742	0.8484
3733	0.8485
3724	0.8487
3715	0.8488
3706	0.8488
3697	0.8488
3688	0.8488
3679	0.8489
3670	0.8491
3661	0.8492
3652	0.8494
3643	0.8498
3634	0.8507
3625	0.8515
3616	0.8523
3607	0.8531
3598	0.8545
3589	0.8557
3580	0.8571
3571	0.8584
3562	0.8598
3553	0.8611
3544	0.8623
3535	0.8631
3526	0.864
3517	0.8652
3508	0.8666
3499	0.868
3490	0.8697
3481	0.8715
3472	0.8727
3463	0.8712
3454	0.8644
3445	0.8557
3436	0.8475
3427	0.8425
3418	0.8421
3409	0.8499
3400	0.8583
3391	0.8663
3382	0.8718
3373	0.8753
3364	0.8775
3355	0.8795
3346	0.8814
3337	0.8821
3328	0.8797
3319	0.8784
3310	0.8785
3301	0.8786
3292	0.8791
3283	0.8797
3274	0.8803
3265	0.8806
3256	0.8809
3247	0.8811
3238	0.8811
3229	0.8811
3220	0.8803
3211	0.8783
3202	0.8757
3193	0.8723
3184	0.8694
3175	0.8677
3166	0.8677
3157	0.8678
3148	0.868
3139	0.8682
3130	0.8685
3121	0.8684
3112	0.868
3103	0.8611
3094	0.8531
3085	0.8492
3076	0.8317
3067	0.7503
3058	0.7542
3049	0.7761
3040	0.7974
3031	0.7985
3022	0.7849
3013	0.7733
3004	0.7298
2995	0.6333
2986	0.4999
2977	0.2962
2968	0.1067
2959	0.0425
2950	0.0842
2941	0.1268
2932	0.1045
2923	0.0999
2914	0.1784
2905	0.2589
2896	0.3168
2887	0.3859
2878	0.3614
2869	0.2292
2860	0.2699
2851	0.3375
2842	0.5388
2833	0.6767
2824	0.72
2815	0.7549
2806	0.7768
2797	0.7948
2788	0.8092
2779	0.8207
2770	0.8291
2761	0.8311
2752	0.8313
2743	0.8308
2734	0.8303
2725	0.83
2716	0.8323
2707	0.8368
2698	0.8423
2689	0.8482
2680	0.8475
2671	0.8449
2662	0.8441
2653	0.8454
2644	0.8468
2635	0.848
2626	0.8492
2617	0.8503
2608	0.8512
2599	0.852
2590	0.8523
2581	0.8525
2572	0.8532
2563	0.8539
2554	0.8547
2545	0.8555
2536	0.8565
2527	0.8574
2518	0.8584
2509	0.86
2500	0.8616
2491	0.8634
2482	0.8661
2473	0.868
2464	0.8698
2455	0.8714
2446	0.8705
2437	0.8681
2428	0.8641
2419	0.86
2410	0.8575
2401	0.8566
2392	0.8568
2383	0.8581
2374	0.8605
2365	0.8618
2356	0.8627
2347	0.8621
2338	0.8614
2329	0.8609
2320	0.8603
2311	0.8594
2302	0.8588
2293	0.8585
2284	0.8585
2275	0.8585
2266	0.859
2257	0.8594
2248	0.8599
2239	0.8601
2230	0.8609
2221	0.8618
2212	0.863
2203	0.8642
2194	0.8657
2185	0.8688
2176	0.8755
2167	0.8705
2158	0.8664
2149	0.8658
2140	0.8654
2131	0.8649
2122	0.8647
2113	0.8647
2104	0.8647
2095	0.8644
2086	0.8644
2077	0.8645
2068	0.8646
2059	0.8641
2050	0.8637
2041	0.8636
2032	0.8636
2023	0.8636
2014	0.8635
2005	0.8637
1996	0.8637
1987	0.8631
1978	0.8621
1969	0.8494
1960	0.8488
1951	0.856
1942	0.8387
1933	0.8287
1924	0.8473
1915	0.8525
1906	0.8538
1897	0.8554
1888	0.857
1879	0.8578
1870	0.8535
1861	0.8445
1852	0.8438
1843	0.833
1834	0.8228
1825	0.8206
1816	0.8227
1807	0.82
1798	0.8138
1789	0.7997
1780	0.7671
1771	0.7282
1762	0.6522
1753	0.4944
1744	0.229
1735	0.021
1726	0.0043
1717	0.0029
1708	0.1764
1699	0.4568
1690	0.5584
1681	0.6153
1672	0.7157
1663	0.7596
1654	0.7803
1645	0.7931
1636	0.7993
1627	0.8018
1618	0.8019
1609	0.7961
1600	0.5495
1591	0.7333
1582	0.6304
1573	0.6942
1564	0.7837
1555	0.8141
1546	0.8281
1537	0.8248
1528	0.8131
1519	0.8047
1510	0.7938
1501	0.7701
1492	0.565
1483	0.6415
1474	0.4301
1465	0.3126
1456	0.3627
1447	0.4041
1438	0.6279
1429	0.7054
1420	0.7491
1411	0.7501
1402	0.7204
1393	0.5336
1384	0.4046
1375	0.5336
1366	0.616
1357	0.6169
1348	0.6349
1339	0.6102
1330	0.5499
1321	0.408
1312	0.3387
1303	0.1351
1294	0.0421
1285	0.0042
1276	0.0035
1267	0.0035
1258	0.0073
1249	0.0682
1240	0.2664
1231	0.4726
1222	0.5728
1213	0.6133
1204	0.6625
1195	0.7185
1186	0.7434
1177	0.739
1168	0.676
1159	0.5379
1150	0.4589
1141	0.2574
1132	0.0702
1123	0.0526
1114	0.0598
1105	0.4071
1096	0.5978
1087	0.6114
1078	0.1634
1069	0.0765
1060	0.322
1051	0.5884
1042	0.4149
1033	0.4612
1024	0.7171
1015	0.73
1006	0.7388
997	0.7489
988	0.7371
979	0.6961
970	0.4688
961	0.4125
952	0.5236
943	0.7257
934	0.7878
925	0.8011
916	0.8018
907	0.8126
898	0.8154
889	0.78
880	0.7608
871	0.7394
862	0.748
853	0.7655
844	0.7918
835	0.7967
826	0.7953
817	0.7824
808	0.778
799	0.7472
790	0.6686
781	0.6441
772	0.6203
763	0.6092
754	0.5467
745	0.356
736	0.2357
727	0.4586
718	0.6693
709	0.6946
700	0.4591
691	0.6256
682	0.7156
673	0.8227
664	0.8339
655	0.8316
646	0.7281
637	0.7778
628	0.8124
619	0.8205
610	0.8231
601	0.8244
592	0.8242
583	0.8182
574	0.7738
565	0.7482
556	0.7667
547	0.7854
538	0.7925
529	0.7865
520	0.7831
511	0.7765
502	0.7785
493	0.7787
484	0.7603
475	0.7625
466	0.7654
457	0.7711
448	0.7772
439	0.7815
430	0.7817
421	0.7784
412	0.7778
403	0.7784
394	0.7781
