Infrared Spectrum: DESERPIDINE
Formula: C32 H38 N2 O8
CAS: 131-01-1
State: SOLID (NUJOL MULL)
Class: COBLENTZ
Instrument: PERKIN-ELMER
Sampling: TRANSMISSION
Resolution: 4
Origin: ABBOTT LABORATORIES - WASHBURN
MICROMETERS	TRANSMITTANCE
2.044	0.651
2.08368	0.659
2.12337	0.664
2.16305	0.671
2.20274	0.676
2.24242	0.6718
2.2821	0.6539
2.32179	0.6522
2.36147	0.661
2.40116	0.6661
2.44084	0.6744
2.48053	0.694
2.52021	0.702
2.55989	0.71
2.59958	0.724
2.63926	0.735
2.67895	0.734
2.71863	0.732
2.75831	0.73
2.798	0.7241
2.83768	0.7212
2.87737	0.6135
2.91705	0.5857
2.95673	0.6527
2.99642	0.6809
3.0361	0.707
3.07579	0.71
3.11547	0.714
3.15515	0.71
3.19484	0.6969
3.23452	0.636
3.27421	0.5342
3.31389	0.3179
3.35358	0.1565
3.39326	0.144
3.43294	0.149
3.47263	0.1707
3.51231	0.3885
3.552	0.6239
3.59168	0.6963
3.63136	0.7071
3.67105	0.71
3.71073	0.7151
3.75042	0.7247
3.7901	0.7373
3.82978	0.7524
3.86947	0.772
3.90915	0.779
3.94884	0.797
3.98852	0.807
4.02821	0.8118
4.06789	0.808
4.10757	0.8131
4.14726	0.8151
4.18694	0.8149
4.22663	0.815
4.26631	0.8252
4.30599	0.832
4.34568	0.8248
4.38536	0.832
4.42505	0.828
4.46473	0.832
4.50441	0.837
4.5441	0.83
4.58378	0.827
4.62347	0.8219
4.66315	0.8282
4.70284	0.83
4.74252	0.8381
4.7822	0.835
4.82189	0.835
4.86157	0.838
4.90126	0.835
4.94094	0.843
4.98062	0.8281
5.02031	0.84
5.05999	0.845
5.09968	0.8336
5.13936	0.8463
5.17904	0.852
5.21873	0.85
5.25841	0.8381
5.2981	0.8444
5.33778	0.833
5.37746	0.845
5.41715	0.845
5.45683	0.8445
5.49652	0.8404
5.5362	0.8274
5.57589	0.7936
5.61557	0.7796
5.65525	0.7096
5.69494	0.5154
5.73462	0.2506
5.77431	0.2438
5.81399	0.2833
5.85367	0.5101
5.89336	0.6113
5.93304	0.6958
5.97273	0.722
6.01241	0.7314
6.05209	0.746
6.09178	0.741
6.13146	0.7095
6.17115	0.6718
6.21083	0.5239
6.25052	0.2944
6.2902	0.3602
6.32988	0.6275
6.36957	0.696
6.40925	0.7477
6.44894	0.749
6.48862	0.7485
6.5283	0.7369
6.56799	0.7122
6.60767	0.6021
6.64736	0.3273
6.68704	0.5374
6.72672	0.5187
6.76641	0.3296
6.80609	0.1771
6.84578	0.1646
6.88546	0.1873
6.92515	0.2518
6.96483	0.3471
7.00451	0.481
7.0442	0.2823
7.08388	0.307
7.12357	0.5614
7.16325	0.5704
7.20293	0.4192
7.24262	0.2895
7.2823	0.3125
7.32199	0.325
7.36167	0.262
7.40135	0.25
7.44104	0.2482
7.48072	0.1673
7.52041	0.2037
7.56009	0.3205
7.59977	0.335
7.63946	0.3746
7.67914	0.406
7.71883	0.401
7.75851	0.3422
7.7982	0.2833
7.83788	0.1948
7.87756	0.2436
7.91725	0.2914
7.95693	0.2288
7.99662	0.1961
8.0363	0.2304
8.07598	0.2451
8.11567	0.1848
8.15535	0.1616
8.19504	0.1871
8.23472	0.2616
8.2744	0.3514
8.31409	0.4199
8.35377	0.433
8.39346	0.3879
8.43314	0.2921
8.47283	0.342
8.51251	0.329
8.55219	0.3445
8.59188	0.3907
8.63156	0.4357
8.67125	0.3995
8.71093	0.3707
8.75061	0.3719
8.7903	0.303
8.82998	0.2059
8.86967	0.1568
8.90935	0.1686
8.94903	0.2132
8.98872	0.2586
9.0284	0.219
9.06809	0.262
9.10777	0.2679
9.14746	0.3497
9.18714	0.479
9.22682	0.5899
9.26651	0.6336
9.30619	0.656
9.34588	0.6373
9.38556	0.4808
9.42524	0.5063
9.46493	0.605
9.50461	0.641
9.5443	0.5915
9.58398	0.4597
9.62366	0.4947
9.66335	0.46
9.70303	0.3946
9.74272	0.4767
9.7824	0.5375
9.82208	0.4768
9.86177	0.503
9.90145	0.3985
9.94114	0.2918
9.98082	0.3416
10.0205	0.4933
10.0602	0.4738
10.0999	0.3873
10.1396	0.3681
10.1792	0.3338
10.2189	0.279
10.2586	0.3612
10.2983	0.5062
10.338	0.5788
10.3777	0.607
10.4173	0.5906
10.457	0.6496
10.4967	0.6794
10.5364	0.6868
10.5761	0.6408
10.6158	0.6389
10.6555	0.6681
10.6951	0.6761
10.7348	0.6813
10.7745	0.6518
10.8142	0.6936
10.8539	0.6993
10.8936	0.6803
10.9332	0.6869
10.9729	0.7173
11.0126	0.7244
11.0523	0.6748
11.092	0.6644
11.1317	0.7142
11.1713	0.7276
11.211	0.7463
11.2507	0.75
11.2904	0.7294
11.3301	0.7005
11.3698	0.6868
11.4094	0.6773
11.4491	0.5602
11.4888	0.5326
11.5285	0.636
11.5682	0.6783
11.6079	0.7188
11.6476	0.7045
11.6872	0.6438
11.7269	0.6888
11.7666	0.7484
11.8063	0.7703
11.846	0.777
11.8857	0.784
11.9253	0.7545
11.965	0.749
12.0047	0.7729
12.0444	0.7618
12.0841	0.7865
12.1238	0.8
12.1634	0.7966
12.2031	0.795
12.2428	0.795
12.2825	0.797
12.3222	0.7753
12.3619	0.7697
12.4016	0.7911
12.4412	0.7801
12.4809	0.7584
12.5206	0.7708
12.5603	0.7892
12.6	0.802
12.6397	0.802
12.6793	0.7954
12.719	0.7926
12.7587	0.7801
12.7984	0.7644
12.8381	0.7454
12.8778	0.699
12.9174	0.5942
12.9571	0.523
12.9968	0.559
13.0365	0.5122
13.0762	0.3818
13.1159	0.3355
13.1555	0.4846
13.1952	0.5758
13.2349	0.6264
13.2746	0.6362
13.3143	0.6131
13.354	0.5808
13.3937	0.5543
13.4333	0.5121
13.473	0.4361
13.5127	0.3939
13.5524	0.4325
13.5921	0.456
13.6318	0.3893
13.6714	0.2302
13.7111	0.2755
13.7508	0.4149
13.7905	0.4803
13.8302	0.542
13.8699	0.5866
13.9095	0.6359
13.9492	0.6642
13.9889	0.6926
14.0286	0.7128
14.0683	0.7207
14.108	0.73
14.1477	0.7399
14.1873	0.7424
14.227	0.745
14.2667	0.7496
14.3064	0.7508
14.3461	0.7511
14.3858	0.75
14.4254	0.7448
14.4651	0.74
14.5048	0.735
14.5445	0.737
14.5842	0.729
14.6239	0.7193
14.6635	0.7033
14.7032	0.694
14.7429	0.6852
14.7826	0.677
14.8223	0.6842
14.862	0.687
14.9017	0.686
14.9413	0.6693
14.981	0.6753
15.0207	0.6799
15.0604	0.673
15.1001	0.6692
15.1398	0.662
15.1794	0.656
15.2191	0.642
15.2588	0.626
15.2985	0.5987
15.3382	0.5544
15.3779	0.562
15.4175	0.593
