Infrared Spectrum: Phthalic acid, di-n-propyl ester
Formula: C14 H18 O4
CAS: 131-16-8
State: SOLUTION (5% CCl4 FOR 3800-1330, 5% CS2 FOR 1330-400 CM^-^1)
Class: COBLENTZ III
Instrument: DOW KBr FOREPRISM-GRATING
Instrument parameters: BLAZED AT 3.5, 12.0, 20.0 MICRON AND CHANGED AT 5.0, 7.5, 14.9 MICRON
Sampling: TRANSMISSION
Path length: 0.022 CM, 0.022 CM
Resolution: 2
Origin: DOW CHEMICAL COMPANY
1/CM	TRANSMITTANCE
387	0.1345
396	0.1453
405	0.2168
414	0.466
423	0.6315
432	0.7008
441	0.7421
450	0.7476
459	0.7333
468	0.7589
477	0.7815
486	0.7996
495	0.8204
504	0.8388
513	0.8499
522	0.8567
531	0.859
540	0.8612
549	0.8616
558	0.8339
567	0.7714
576	0.7999
585	0.8718
594	0.8803
603	0.8809
612	0.8818
621	0.8752
630	0.8633
639	0.8412
648	0.6658
657	0.7318
666	0.85
675	0.8543
684	0.8223
693	0.6266
702	0.4262
711	0.6719
720	0.7261
729	0.568
738	0.1946
747	0.1349
756	0.5564
765	0.6447
774	0.678
783	0.6528
792	0.6431
801	0.7441
810	0.8292
819	0.8061
828	0.8467
837	0.8169
846	0.729
855	0.5988
864	0.6215
873	0.678
882	0.6784
891	0.6939
900	0.7482
909	0.6747
918	0.6975
927	0.7692
936	0.2893
945	0.548
954	0.6719
963	0.616
972	0.5874
981	0.8342
990	0.8847
999	0.8917
1008	0.8883
1017	0.8713
1026	0.7819
1035	0.5445
1044	0.5298
1053	0.4774
1062	0.3718
1071	0.018
1080	0.1242
1089	0.6008
1098	0.571
1107	0.3642
1116	0.0602
1125	0.0157
1134	0.0421
1143	0.1901
1152	0.4032
1161	0.4612
1170	0.5882
1179	0.6853
1188	0.7672
1197	0.7675
1206	0.7536
1215	0.7158
1224	0.636
1233	0.4668
1242	0.2439
1251	0.0623
1260	0.0143
1269	0.0082
1278	0.0076
1287	0.0102
1296	0.0217
1305	0.1361
1314	0.0732
1323	0.3986
1332	0.6621
1341	0.6922
1350	0.4912
1359	0.6878
1368	0.7111
1377	0.6498
1386	0.5322
1395	0.3638
1404	0.7161
1413	0.7718
1422	0.7771
1431	0.7595
1440	0.6356
1449	0.4684
1458	0.4553
1467	0.336
1476	0.4179
1485	0.6058
1494	0.5396
1503	0.5936
1512	0.5367
1521	0.4788
1530	0.4115
1539	0.3034
1548	0.2325
1557	0.2428
1566	0.3068
1575	0.3487
1584	0.266
1593	0.4237
1602	0.3984
1611	0.6661
1620	0.7345
1629	0.7667
1638	0.7882
1647	0.7954
1656	0.7893
1665	0.7698
1674	0.7401
1683	0.6799
1692	0.6006
1701	0.5181
1710	0.3228
1719	0.0421
1728	0.0063
1737	0.0084
1746	0.0308
1755	0.3656
1764	0.5862
1773	0.6851
1782	0.7378
1791	0.7672
1800	0.7875
1809	0.7981
1818	0.8011
1827	0.7997
1836	0.7887
1845	0.7995
1854	0.8195
1863	0.8254
1872	0.8246
1881	0.841
1890	0.8511
1899	0.8536
1908	0.8521
1917	0.8499
1926	0.8482
1935	0.8401
1944	0.8155
1953	0.858
1962	1.0081
1971	0.8382
1980	0.8453
1989	0.8536
1998	0.968
2007	0.8593
2016	0.861
2025	0.8487
2034	0.8633
2043	0.8595
2052	0.8611
2061	0.8633
2070	0.8649
2079	0.8653
2088	0.866
2097	0.8667
2106	0.8671
2115	0.8686
2124	0.8691
2133	0.8687
2142	0.8685
2151	0.8683
2160	0.868
2169	0.867
2178	0.866
2187	0.8647
2196	0.8634
2205	0.8636
2214	0.8647
2223	0.8653
2232	0.8631
2241	0.8602
2250	0.8557
2259	0.8506
2268	0.8454
2277	0.8404
2286	0.8358
2295	0.8375
2304	0.8397
2313	0.8403
2322	0.8381
2331	0.8371
2340	0.843
2349	0.8518
2358	0.8554
2367	0.8583
2376	0.8611
2385	0.8635
2394	0.8648
2403	0.8652
2412	0.8656
2421	0.868
2430	0.8714
2439	0.8737
2448	0.8761
2457	0.8765
2466	0.876
2475	0.8754
2484	0.8749
2493	0.8727
2502	0.8705
2511	0.8687
2520	0.8685
2529	0.8686
2538	0.8688
2547	0.8689
2556	0.8691
2565	0.8692
2574	0.8693
2583	0.8695
2592	0.87
2601	0.8709
2610	0.8718
2619	0.8725
2628	0.8727
2637	0.8727
2646	0.8718
2655	0.8707
2664	0.8696
2673	0.8685
2682	0.8709
2691	0.8727
2700	0.8703
2709	0.8668
2718	0.8627
2727	0.8568
2736	0.8524
2745	0.8494
2754	0.8502
2763	0.8523
2772	0.8556
2781	0.8589
2790	0.8599
2799	0.8531
2808	0.8439
2817	0.8416
2826	0.8325
2835	0.8107
2844	0.7818
2853	0.7225
2862	0.7053
2871	0.5752
2880	0.3602
2889	0.4857
2898	0.5712
2907	0.5908
2916	0.5725
2925	0.4702
2934	0.368
2943	0.294
2952	0.3156
2961	0.2288
2970	0.101
2979	0.1625
2988	0.3582
2997	0.5538
3006	0.6931
3015	0.76
3024	0.7956
3033	0.7994
3042	0.8171
3051	0.8093
3060	0.7821
3069	0.7564
3078	0.7547
3087	0.8412
3096	0.8582
3105	0.8609
3114	0.8687
3123	0.8756
3132	0.8756
3141	0.8758
3150	0.8755
3159	0.8753
3168	0.8753
3177	0.8765
3186	0.8782
3195	0.8817
3204	0.8857
3213	0.8881
3222	0.8895
3231	0.8898
3240	0.8902
3249	0.8904
3258	0.8906
3267	0.8908
3276	0.891
3285	0.8911
3294	0.8913
3303	0.8914
3312	0.8915
3321	0.8915
3330	0.8916
3339	0.8916
3348	0.8914
3357	0.8907
3366	0.8901
3375	0.8894
3384	0.8888
3393	0.8867
3402	0.8838
3411	0.8765
3420	0.8666
3429	0.8558
3438	0.8486
3447	0.8492
3456	0.859
3465	0.8696
3474	0.8791
3483	0.8864
3492	0.8899
3501	0.89
3510	0.8898
3519	0.8893
3528	0.8885
3537	0.8877
3546	0.8871
3555	0.8865
3564	0.886
3573	0.8868
3582	0.8878
3591	0.8903
3600	0.8906
3609	0.8895
3618	0.8882
3627	0.8865
3636	0.8844
3645	0.8821
3654	0.8802
3663	0.8786
3672	0.8771
3681	0.8768
3690	0.8773
3699	0.8794
3708	0.8807
3717	0.8805
3726	0.8803
3735	0.8797
3744	0.879
3753	0.8784
3762	0.8782
3771	0.8781
3780	0.878
