Infrared Spectrum: 1,2-BENZENEDICARBOXYLIC ACID, DIMETHYL ESTER
Formula: C10 H10 O4
CAS: 131-11-3
State: SOLUTION (10% IN CCl4 FOR 3800-1300, 10% IN CS2 FOR 1300-620, 10% IN CCl4 FOR 620-240 CM^-^1) VERSUS SOLVENT
Class: COBLENTZ III
Instrument: PERKIN-ELMER 521 (GRATING)
Instrument parameters: FILTERS AT 3150, 2500, 2000, 1150, 700, 410; GRATING CHANGES AT 2000, 630 CM^-^1
Sampling: TRANSMISSION
Path length: 0.011, 0.010, AND 0.010 CM (CsBr CELL)
Resolution: 4
Origin: DOW CORNING CORP.
1/CM	TRANSMITTANCE
239.387	0.781
249.234	0.777
259.081	0.774
268.928	0.775
278.774	0.775
288.621	0.769
298.468	0.771
308.315	0.777
318.162	0.775
328.009	0.775
337.856	0.728
347.703	0.637
357.549	0.677
367.396	0.68
377.243	0.676
387.09	0.789
396.937	0.813
406.784	0.794
416.631	0.833
426.477	0.864
436.324	0.869
446.171	0.877
456.018	0.881
465.865	0.885
475.712	0.9
485.559	0.902
495.406	0.903
505.252	0.893
515.099	0.881
524.946	0.887
534.793	0.887
544.64	0.875
554.487	0.816
564.334	0.81
574.18	0.897
584.027	0.915
593.874	0.927
603.721	0.935
613.568	0.939
623.415	0.944
633.262	0.944
643.109	0.94
652.955	0.738
662.802	0.947
672.649	0.958
682.496	0.943
692.343	0.814
702.19	0.481
712.037	0.712
721.883	0.755
731.73	0.633
741.577	0.209
751.424	0.1861
761.271	0.54
771.118	0.655
780.965	0.66
790.812	0.703
800.658	0.8
810.505	0.868
820.352	0.5271
830.199	0.907
840.046	0.797
849.893	0.935
859.74	0.974
869.586	0.974
879.433	0.961
889.28	0.965
899.127	0.978
908.974	0.979
918.821	0.977
928.668	0.974
938.515	0.953
948.361	0.871
958.208	0.589
968.055	0.393
977.902	0.8171
987.749	0.931
997.596	0.948
1007.44	0.95
1017.29	0.943
1027.14	0.906
1036.98	0.7819
1046.83	0.8321
1056.68	0.931
1066.52	0.6629
1076.37	0.04
1086.22	0.5652
1096.06	0.797
1105.91	0.6379
1115.76	0.1669
1125.61	0.03
1135.45	0.064
1145.3	0.4811
1155.15	0.773
1164.99	0.738
1174.84	0.801
1184.69	0.5949
1194.53	0.302
1204.38	0.7431
1214.23	0.851
1224.07	0.794
1233.92	0.6489
1243.77	0.358
1253.61	0.132
1263.46	0.01
1273.31	0.001
1283.15	0
1293	0
1302.85	0.012
1312.7	0.2281
1322.54	0.4511
1332.39	0.553
1342.24	0.613
1352.08	0.661
1361.93	0.697
1371.78	0.718
1381.62	0.734
1391.47	0.738
1401.32	0.734
1411.16	0.723
1421.01	0.675
1430.86	0.2256
1440.7	0.1402
1450.55	0.283
1460.4	0.4201
1470.25	0.605
1480.09	0.64
1489.94	0.424
1499.79	0.71
1509.63	0.744
1519.48	0.748
1529.33	0.755
1539.17	0.761
1549.02	0.762
1558.87	0.755
1568.71	0.72
1578.56	0.5109
1588.41	0.622
1598.25	0.5689
1608.1	0.5113
1617.95	0.718
1627.8	0.716
1637.64	0.718
1647.49	0.718
1657.34	0.7
1667.18	0.672
1677.03	0.655
1686.88	0.6
1696.72	0.496
1706.57	0.453
1716.42	0.3139
1726.26	0.0329
1736.11	0
1745.96	0
1755.8	0.0442
1765.65	0.3981
1775.5	0.546
1785.35	0.646
1795.19	0.711
1805.04	0.747
1814.89	0.765
1824.73	0.767
1834.58	0.765
1844.43	0.765
1854.27	0.794
1864.12	0.801
1873.97	0.805
1883.81	0.81
1893.66	0.812
1903.51	0.812
1913.35	0.791
1923.2	0.783
1933.05	0.785
1942.89	0.771
1952.74	0.786
1962.59	0.805
1972.44	0.794
1982.28	0.818
1992.13	0.837
2001.98	0.855
2011.82	0.852
2021.67	0.849
2031.52	0.845
2041.36	0.841
2051.21	0.8519
2061.06	0.853
2070.9	0.8462
2080.75	0.8264
2090.6	0.821
2100.44	0.8209
2110.29	0.8285
2120.14	0.8417
2129.99	0.848
2139.83	0.8555
2149.68	0.8598
2159.53	0.864
2169.37	0.865
2179.22	0.867
2189.07	0.867
2198.91	0.863
2208.76	0.8592
2218.61	0.859
2228.45	0.857
2238.3	0.8535
2248.15	0.853
2257.99	0.856
2267.84	0.859
2277.69	0.86
2287.54	0.863
2297.38	0.863
2307.23	0.863
2317.08	0.863
2326.92	0.863
2336.77	0.865
2346.62	0.8634
2356.46	0.8604
2366.31	0.8594
2376.16	0.855
2386	0.8514
2395.85	0.8501
2405.7	0.8536
2415.54	0.86
2425.39	0.862
2435.24	0.864
2445.09	0.863
2454.93	0.864
2464.78	0.867
2474.63	0.865
2484.47	0.86
2494.32	0.864
2504.17	0.863
2514.01	0.8604
2523.86	0.859
2533.71	0.855
2543.55	0.8502
2553.4	0.848
2563.25	0.849
2573.09	0.848
2582.94	0.848
2592.79	0.851
2602.64	0.86
2612.48	0.8616
2622.33	0.867
2632.18	0.867
2642.02	0.8664
2651.87	0.867
2661.72	0.8677
2671.56	0.867
2681.41	0.8672
2691.26	0.868
2701.1	0.8678
2710.95	0.867
2720.8	0.8646
2730.64	0.864
2740.49	0.867
2750.34	0.865
2760.18	0.8648
2770.03	0.864
2779.88	0.864
2789.73	0.863
2799.57	0.8639
2809.42	0.86
2819.27	0.8548
2829.11	0.8297
2838.96	0.7053
2848.81	0.7123
2858.65	0.813
2868.5	0.8118
2878.35	0.7779
2888.19	0.754
2898.04	0.739
2907.89	0.7379
2917.73	0.778
2927.58	0.7581
2937.43	0.6883
2947.28	0.3942
2957.12	0.2641
2966.97	0.6534
2976.82	0.7141
2986.66	0.6636
2996.51	0.5325
3006.36	0.5815
3016.2	0.6369
3026.05	0.622
3035.9	0.6652
3045.74	0.76
3055.59	0.7612
3065.44	0.7304
3075.28	0.7148
3085.13	0.7917
3094.98	0.8356
3104.83	0.8448
3114.67	0.8605
3124.52	0.8695
3134.37	0.867
3144.21	0.868
3154.06	0.8687
3163.91	0.869
3173.75	0.871
3183.6	0.8744
3193.45	0.879
3203.29	0.881
3213.14	0.8847
3222.99	0.888
3232.83	0.8884
3242.68	0.887
3252.53	0.885
3262.38	0.884
3272.22	0.8834
3282.07	0.883
3291.92	0.8804
3301.76	0.879
3311.61	0.876
3321.46	0.875
3331.3	0.875
3341.15	0.873
3351	0.875
3360.84	0.874
3370.69	0.8725
3380.54	0.872
3390.38	0.872
3400.23	0.871
3410.08	0.867
3419.92	0.8636
3429.77	0.8464
3439.62	0.8278
3449.47	0.821
3459.31	0.8288
3469.16	0.8425
3479.01	0.8644
3488.85	0.872
3498.7	0.874
3508.55	0.8744
3518.39	0.8736
3528.24	0.873
3538.09	0.873
3547.93	0.871
3557.78	0.872
3567.63	0.872
3577.47	0.873
3587.32	0.8752
3597.17	0.881
3607.02	0.883
3616.86	0.884
3626.71	0.8826
3636.56	0.8786
3646.4	0.879
3656.25	0.88
3666.1	0.8787
3675.94	0.8729
3685.79	0.872
3695.64	0.8752
3705.48	0.887
3715.33	0.888
3725.18	0.885
3735.02	0.885
3744.87	0.883
3754.72	0.883
3764.57	0.884
3774.41	0.891
3784.26	0.891
3794.11	0.888
