Infrared Spectrum: DIBENZOFURAN
Formula: C12 H8 O
CAS: 132-64-9
State: SOLUTION (10% IN CCl4 FOR 3800-1330 CM^-^1, 10% IN CS2 FOR 1330-420 CM^-^1) VS. SOLVENT
Class: COBLENTZ II
Instrument: DOW KBr FOREPRISM-GRATING
Instrument parameters: GRATING BLAZED AT 3.5, 12.0, 20.0 MICRONS AND CHANGED AT 5.0, 7.5, 14.9 MICRONS
Sampling: TRANSMISSION
Path length: 0.011 CM, 0.011 CM
Resolution: 4
Origin: DOW CHEMICAL COMPANY
1/CM	TRANSMITTANCE
392.92	0.768
401.697	0.766
410.474	0.766
419.251	0.769
428.028	0.808
436.805	0.935
445.582	0.946
454.359	0.954
463.136	0.958
471.914	0.96
480.691	0.958
489.468	0.961
498.245	0.964
507.022	0.965
515.799	0.964
524.576	0.961
533.353	0.948
542.13	0.947
550.907	0.932
559.684	0.619
568.461	0.828
577.238	0.957
586.015	0.961
594.792	0.964
603.569	0.951
612.346	0.877
621.124	0.947
629.901	0.957
638.678	0.951
647.455	0.935
656.232	0.885
665.009	0.944
673.786	0.937
682.563	0.94
691.34	0.94
700.117	0.933
708.894	0.907
717.671	0.657
726.448	0.0001
735.225	0.754
744.002	0.449
752.779	0
761.557	0.3831
770.334	0.809
779.111	0.899
787.888	0.918
796.665	0.951
805.442	0.96
814.219	0.961
822.996	0.958
831.773	0.911
840.55	0.401
849.327	0.522
858.104	0.707
866.881	0.587
875.658	0.902
884.435	0.932
893.212	0.969
901.989	0.976
910.767	0.955
919.544	0.935
928.321	0.506
937.098	0.937
945.875	0.965
954.652	0.964
963.429	0.946
972.206	0.954
980.983	0.961
989.76	0.924
998.537	0.921
1007.31	0.822
1016.09	0.707
1024.87	0.379
1033.65	1
1042.42	1.004
1051.2	1.006
1059.98	0.987
1068.75	1.002
1077.53	0.993
1086.31	0.976
1095.08	0.939
1103.86	0.307
1112.64	0.398
1121.42	0.94
1130.19	0.951
1138.97	0.918
1147.75	0.724
1156.52	0.811
1165.3	0.877
1174.08	0.873
1182.86	0.547
1191.63	0.031
1200.41	0.013
1209.19	0.769
1217.96	0.809
1226.74	0.91
1235.52	0.874
1244.29	0.299
1253.07	0.931
1261.85	0.904
1270.63	0.874
1279.4	0.864
1288.18	0.7171
1296.96	0.932
1305.73	0.888
1314.51	0.83
1323.29	0.3242
1332.07	0.852
1340.84	0.845
1349.62	0.798
1358.4	0.714
1367.17	0.911
1375.95	0.911
1384.73	0.92
1393.5	0.929
1402.28	0.921
1411.06	0.86
1419.84	0.733
1428.61	0.695
1437.39	0.795
1446.17	0.118
1454.94	0.176
1463.72	0.771
1472.5	0.329
1481.28	0.822
1490.05	0.846
1498.83	0.862
1507.61	0.95
1516.38	0.976
1525.16	0.955
1533.94	0.969
1542.71	1
1551.49	0.998
1560.27	0.975
1569.05	0.929
1577.82	0.914
1586.6	0.597
1595.38	0.776
1604.15	0.6549
1612.93	0.913
1621.71	0.915
1630.49	0.948
1639.26	0.965
1648.04	0.961
1656.82	0.968
1665.59	0.936
1674.37	0.932
1683.15	0.94
1691.92	0.936
1700.7	0.933
1709.48	0.969
1718.26	0.984
1727.03	0.98
1735.81	0.977
1744.59	0.986
1753.36	0.976
1762.14	0.951
1770.92	0.833
1779.7	0.878
1788.47	0.972
1797.25	0.976
1806.03	0.928
1814.8	0.933
1823.58	0.976
1832.36	0.98
1841.13	0.977
1849.91	0.932
1858.69	0.907
1867.47	0.972
1876.24	0.968
1885.02	0.922
1893.8	0.804
1902.57	0.957
1911.35	0.975
1920.13	0.955
1928.91	0.838
1937.68	0.921
1946.46	0.968
1955.24	0.971
1964.01	0.976
1972.79	0.977
1981.57	0.977
1990.34	0.969
1999.12	0.965
2007.9	0.9605
2016.68	0.957
2025.45	0.958
2034.23	0.954
2043.01	0.9452
2051.78	0.9165
2060.56	0.9253
2069.34	0.9534
2078.12	0.951
2086.89	0.9517
2095.67	0.9306
2104.45	0.96
2113.22	0.9536
2122	0.954
2130.78	0.955
2139.55	0.953
2148.33	0.9502
2157.11	0.9604
2165.89	0.964
2174.66	0.9533
2183.44	0.9711
2192.22	0.9653
2200.99	0.965
2209.77	0.955
2218.55	0.966
2227.33	0.9551
2236.1	0.9643
2244.88	0.9683
2253.66	0.9624
2262.43	0.9508
2271.21	0.9617
2279.99	0.9657
2288.76	0.9688
2297.54	0.96
2306.32	0.9546
2315.1	0.935
2323.87	0.9612
2332.65	0.966
2341.43	0.968
2350.2	0.965
2358.98	0.9693
2367.76	0.972
2376.54	0.9688
2385.31	0.964
2394.09	0.9623
2402.87	0.9662
2411.64	0.969
2420.42	0.9687
2429.2	0.9636
2437.97	0.916
2446.75	0.9379
2455.53	0.9601
2464.31	0.962
2473.08	0.9428
2481.86	0.9466
2490.64	0.966
2499.41	0.9638
2508.19	0.957
2516.97	0.958
2525.75	0.944
2534.52	0.968
2543.3	0.976
2552.08	0.976
2560.85	0.972
2569.63	0.972
2578.41	0.976
2587.18	0.9771
2595.96	0.9731
2604.74	0.9719
2613.52	0.976
2622.29	0.9662
2631.07	0.9602
2639.85	0.9598
2648.62	0.9751
2657.4	0.964
2666.18	0.9574
2674.96	0.9568
2683.73	0.9759
2692.51	0.9787
2701.29	0.977
2710.06	0.983
2718.84	0.9838
2727.62	0.984
2736.39	0.983
2745.17	0.9832
2753.95	0.984
2762.73	0.979
2771.5	0.9816
2780.28	0.9832
2789.06	0.979
2797.83	0.9838
2806.61	0.9792
2815.39	0.9735
2824.17	0.9628
2832.94	0.9747
2841.72	0.9862
2850.5	0.9886
2859.27	0.987
2868.05	0.988
2876.83	0.99
2885.6	0.99
2894.38	0.988
2903.16	0.9807
2911.94	0.9694
2920.71	0.9743
2929.49	0.9794
2938.27	0.9743
2947.04	0.984
2955.82	0.9864
2964.6	0.991
2973.38	0.99
2982.15	0.988
2990.93	0.9864
2999.71	0.9808
3008.48	0.9633
3017.26	0.9396
3026.04	0.8744
3034.81	0.686
3043.59	0.827
3052.37	0.6032
3061.15	0.5483
3069.92	0.6606
3078.7	0.6233
3087.48	0.777
3096.25	0.7035
3105.03	0.9143
3113.81	0.9624
3122.59	0.9784
3131.36	0.983
3140.14	0.986
3148.92	0.9843
3157.69	0.987
3166.47	0.987
3175.25	0.9832
3184.02	0.9778
3192.8	0.9874
3201.58	0.9888
3210.36	0.9921
3219.13	0.991
3227.91	0.988
3236.69	0.9957
3245.46	0.9947
3254.24	0.995
3263.02	0.998
3271.8	0.998
3280.57	1
3289.35	0.997
3298.13	0.997
3306.9	0.998
3315.68	0.998
3324.46	0.998
3333.24	0.997
3342.01	0.997
3350.79	0.997
3359.57	0.997
3368.34	0.997
3377.12	0.997
3385.9	0.997
3394.67	0.997
3403.45	0.997
3412.23	0.997
3421.01	0.9972
3429.78	0.998
3438.56	0.997
3447.34	0.998
3456.11	0.998
3464.89	0.998
3473.67	0.998
3482.45	0.998
3491.22	0.998
3500	0.9979
3508.78	0.997
3517.55	0.997
3526.33	0.995
3535.11	0.995
3543.88	0.9979
3552.66	0.997
3561.44	0.997
3570.22	0.9949
3578.99	0.987
3587.77	0.99
3596.55	0.99
3605.32	0.987
3614.1	0.987
3622.88	0.986
3631.66	0.984
3640.43	0.986
3649.21	0.984
3657.99	0.982
3666.76	0.987
3675.54	0.9791
3684.32	0.9821
3693.09	0.9819
3701.87	0.9802
3710.65	0.9799
3719.43	0.983
3728.2	0.9821
3736.98	0.9797
3745.76	0.982
3754.53	0.98
3763.31	0.98
3772.09	0.979
3780.87	0.979
3789.64	0.977
3798.42	0.976
