Infrared Spectrum: Piperidine, 4-diphenylmethoxy-1-methyl-, hydrochloride
Formula: C19 H24 Cl N O
CAS: 132-18-3
State: SOLID (OIL MULL)
Class: COBLENTZ III
Instrument: PERKIN-ELMER 21 (GRATING)
Instrument parameters: NaCl PRISM
Sampling: TRANSMISSION
Resolution: 2
Origin: SMITH KLINE & FRENCH LABS.
1/CM	TRANSMITTANCE
659	0.6693
668	0.6808
677	0.6563
686	0.726
695	0.6063
704	0.6369
713	0.2542
722	0.7366
731	0.7763
740	0.7425
749	0.3471
758	0.6388
767	0.3487
776	0.7229
785	0.8412
794	0.8531
803	0.8551
812	0.8737
821	0.8541
830	0.837
839	0.8559
848	0.8461
857	0.8077
866	0.8444
875	0.8069
884	0.8568
893	0.8634
902	0.8539
911	0.8057
920	0.8008
929	0.771
938	0.8173
947	0.6478
956	0.7001
965	0.8104
974	0.8125
983	0.8113
992	0.7623
1001	0.6688
1010	0.7715
1019	0.6762
1028	0.7244
1037	0.7472
1046	0.6019
1055	0.4071
1064	0.45
1073	0.1652
1082	0.5607
1091	0.5337
1100	0.4752
1109	0.5605
1118	0.667
1127	0.7271
1136	0.7774
1145	0.778
1154	0.782
1163	0.7575
1172	0.7438
1181	0.7247
1190	0.7059
1199	0.7933
1208	0.8276
1217	0.8346
1226	0.8226
1235	0.8102
1244	0.7881
1253	0.6703
1262	0.7311
1271	0.7658
1280	0.7057
1289	0.711
1298	0.7231
1307	0.6724
1316	0.7772
1325	0.7472
1334	0.704
1343	0.6376
1352	0.6386
1361	0.6046
1370	0.5153
1379	0.5433
1388	0.6712
1397	0.7086
1406	0.6886
1415	0.6714
1424	0.6567
1433	0.5791
1442	0.4861
1451	0.2216
1460	0.2983
1469	0.499
1478	0.6388
1487	0.6188
1496	0.8051
1505	0.8313
1514	0.8409
1523	0.841
1532	0.839
1541	0.8349
1550	0.8337
1559	0.8304
1568	0.8059
1577	0.7717
1586	0.7416
1595	0.7093
1604	0.7426
1613	0.7208
1622	0.7738
1631	0.8302
1640	0.8441
1649	0.8481
1658	0.8462
1667	0.8512
1676	0.8561
1685	0.8609
1694	0.8709
1703	0.8775
1712	0.8782
1721	0.878
1730	0.8776
1739	0.877
1748	0.8762
1757	0.8753
1766	0.8742
1775	0.8748
1784	0.8778
1793	0.8777
1802	0.874
1811	0.8641
1820	0.8656
1829	0.872
1838	0.8763
1847	0.878
1856	0.8783
1865	0.8769
1874	0.8738
1883	0.8607
1892	0.8603
1901	0.8674
1910	0.8696
1919	0.8691
1928	0.8682
1937	0.8657
1946	0.8609
1955	0.8544
1964	0.8519
1973	0.8508
1982	0.8519
1991	0.8542
2000	0.8541
2009	0.8528
2018	0.8509
2027	0.8481
2036	0.8454
2045	0.8414
2054	0.837
2063	0.8312
2072	0.8305
2081	0.8284
2090	0.8248
2099	0.8203
2108	0.8147
2117	0.8091
2126	0.8052
2135	0.8008
2144	0.7941
2153	0.784
2162	0.7753
2171	0.7654
2180	0.7532
2189	0.7346
2198	0.71
2207	0.685
2216	0.6594
2225	0.6354
2234	0.6112
2243	0.595
2252	0.5783
2261	0.5543
2270	0.5263
2279	0.5047
2288	0.5036
2297	0.5083
2306	0.5157
2315	0.5237
2324	0.5321
2333	0.5399
2342	0.5405
2351	0.5402
2360	0.5395
2369	0.539
2378	0.5384
2387	0.5317
2396	0.5206
2405	0.5185
2414	0.5134
2423	0.4972
2432	0.4788
2441	0.4669
2450	0.4705
2459	0.4861
2468	0.5017
2477	0.5173
2486	0.5252
2495	0.5448
2504	0.5625
2513	0.5757
2522	0.5763
2531	0.5742
2540	0.571
2549	0.5657
2558	0.5588
2567	0.5534
2576	0.5526
2585	0.5576
2594	0.5771
2603	0.5969
2612	0.6165
2621	0.636
2630	0.6554
2639	0.6747
2648	0.6938
2657	0.7128
2666	0.7317
2675	0.7504
2684	0.7671
2693	0.7799
2702	0.7879
2711	0.7886
2720	0.7879
2729	0.786
2738	0.7822
2747	0.7771
2756	0.7654
2765	0.7411
2774	0.6777
2783	0.5999
2792	0.5226
2801	0.4459
2810	0.3696
2819	0.2939
2828	0.2245
2837	0.2233
2846	0.2216
2855	0.1889
2864	0.1506
2873	0.1126
2882	0.0969
2891	0.0903
2900	0.0916
2909	0.1372
2918	0.2549
2927	0.3719
2936	0.488
2945	0.5605
2954	0.6177
2963	0.6473
2972	0.6704
2981	0.6882
2990	0.6982
2999	0.7093
3008	0.7264
3017	0.7433
3026	0.7773
3035	0.7916
3044	0.7983
3053	0.8039
3062	0.8066
3071	0.8082
3080	0.808
3089	0.8071
3098	0.8059
3107	0.8037
3116	0.8008
3125	0.7971
3134	0.7933
3143	0.7908
3152	0.7883
3161	0.7861
3170	0.7843
3179	0.7826
3188	0.7808
3197	0.7791
3206	0.7779
3215	0.7767
3224	0.7754
3233	0.774
3242	0.772
3251	0.7638
3260	0.7543
3269	0.7456
3278	0.7361
3287	0.7264
3296	0.7159
3305	0.7058
3314	0.6971
3323	0.6878
3332	0.671
3341	0.6559
3350	0.6448
3359	0.6374
3368	0.6221
3377	0.6101
3386	0.5997
3395	0.5937
3404	0.594
3413	0.5955
3422	0.6014
3431	0.619
3440	0.6424
3449	0.6656
3458	0.6887
3467	0.7117
3476	0.7392
3485	0.7513
3494	0.7614
3503	0.7721
3512	0.783
3521	0.7953
3530	0.8073
3539	0.8134
3548	0.8188
3557	0.8239
3566	0.8274
3575	0.8309
3584	0.832
3593	0.8326
3602	0.8327
3611	0.833
3620	0.8329
3629	0.8327
3638	0.8325
3647	0.8321
3656	0.8318
3665	0.8315
3674	0.8312
3683	0.8309
3692	0.8303
3701	0.8296
3710	0.8286
3719	0.8264
3728	0.8239
3737	0.8209
3746	0.8182
3755	0.8172
3764	0.8173
3773	0.8173
3782	0.8174
3791	0.8174
3800	0.8175
3809	0.8175
3818	0.8175
3827	0.8175
3836	0.8173
3845	0.8173
3854	0.8171
3863	0.817
3872	0.8155
3881	0.8137
3890	0.8117
3899	0.8096
3908	0.8074
3917	0.8054
3926	0.8033
3935	0.8011
3944	0.7989
3953	0.7967
3962	0.7944
3971	0.7929
3980	0.7924
3989	0.7924
3998	0.7924
