Infrared Spectrum: Phosphoric acid, 2-biphenyl, diphenyl ester
Formula: C24 H19 O4 P
CAS: 132-29-6
State: SOLUTION (10% CCl4 FOR 2.7-7.5, 10% CS2 FOR 7.5-26 micron) VS SOLVENT
Class: COBLENTZ III
Instrument: DOW FOREPRISM-GRATING
Instrument parameters: BLAZED AT 3.5, 12.0, 20.0 MICRON AND CHANGED AT 5.0, 7.5, 14.9 MICRON
Sampling: TRANSMISSION
Path length: 0.011 CM, 0.011 CM
Resolution: 2
Origin: DOW CHEMICAL COMPANY
1/CM	TRANSMITTANCE
387	0.7174
396	0.7178
405	0.7182
414	0.7176
423	0.7137
432	0.7059
441	0.6901
450	0.6575
459	0.6165
468	0.5793
477	0.5466
486	0.4491
495	0.3455
504	0.3045
513	0.3058
522	0.5171
531	0.6153
540	0.6003
549	0.5737
558	0.5822
567	0.5492
576	0.4535
585	0.451
594	0.5971
603	0.7196
612	0.6068
621	0.7873
630	0.7913
639	0.7803
648	0.7723
657	0.7739
666	0.7501
675	0.566
684	0.2779
693	0.1227
702	0.631
711	0.7229
720	0.6472
729	0.4031
738	0.5426
747	0.0388
756	0.1108
765	0.1227
774	0.1999
783	0.1902
792	0.5902
801	0.7618
810	0.7659
819	0.7592
828	0.7888
837	0.7999
846	0.8023
855	0.7836
864	0.7864
873	0.782
882	0.7645
891	0.6623
900	0.5157
909	0.5186
918	0.5124
927	0.2362
936	0.1581
945	0.0021
954	0
963	0
972	0.0343
981	0.2443
990	0.3949
999	0.441
1008	0.1291
1017	0.5479
1026	0.3315
1035	0.6754
1044	0.4721
1053	0.6539
1062	0.6098
1071	0.5868
1080	0.7799
1089	0.7654
1098	0.6458
1107	0.368
1116	0.5234
1125	0.7523
1134	0.7292
1143	0.6501
1152	0.3467
1161	0.1063
1170	0.2173
1179	0.0001
1188	0.0031
1197	0.1058
1206	0.4201
1215	0.4479
1224	0.359
1233	0.3852
1242	0.5475
1251	0.507
1260	0.5149
1269	0.5997
1278	0.5427
1287	0.2553
1296	0.098
1305	0.0906
1314	0.1338
1323	0.5345
1332	0.606
1341	0.7617
1350	0.7799
1359	0.7835
1368	0.7872
1377	0.7871
1386	0.7854
1395	0.7956
1404	0.7928
1413	0.7817
1422	0.7458
1431	0.4215
1440	0.6219
1449	0.612
1458	0.4009
1467	0.5527
1476	0.2193
1485	0.0701
1494	0.1815
1503	0.3728
1512	0.7181
1521	0.7718
1530	0.7912
1539	0.8029
1548	0.8006
1557	0.7723
1566	0.7106
1575	0.5596
1584	0.3163
1593	0.2775
1602	0.6195
1611	0.7722
1620	0.8177
1629	0.8314
1638	0.8369
1647	0.8383
1656	0.838
1665	0.8376
1674	0.8346
1683	0.8284
1692	0.8268
1701	0.8241
1710	0.8123
1719	0.8132
1728	0.829
1737	0.8335
1746	0.8379
1755	0.8401
1764	0.8316
1773	0.8296
1782	0.835
1791	0.8244
1800	0.8327
1809	0.8504
1818	0.851
1827	0.8514
1836	0.8474
1845	0.8235
1854	0.8219
1863	0.8175
1872	0.8085
1881	0.812
1890	0.8153
1899	0.8126
1908	0.8034
1917	0.8005
1926	0.7784
1935	0.7803
1944	0.7968
1953	0.8116
1962	0.8322
1971	0.8453
1980	0.851
1989	0.8529
1998	0.8534
2007	0.8524
2016	0.8537
2025	0.861
2034	0.8653
2043	0.8678
2052	0.8702
2061	0.8714
2070	0.8718
2079	0.872
2088	0.8723
2097	0.8725
2106	0.8727
2115	0.8728
2124	0.8725
2133	0.8723
2142	0.8726
2151	0.874
2160	0.878
2169	0.8831
2178	0.8734
2187	0.8699
2196	0.8697
2205	0.8682
2214	0.8658
2223	0.8622
2232	0.8588
2241	0.8565
2250	0.8554
2259	0.8547
2268	0.8548
2277	0.8555
2286	0.8559
2295	0.8555
2304	0.8535
2313	0.8509
2322	0.8505
2331	0.8504
2340	0.8508
2349	0.8511
2358	0.8513
2367	0.8514
2376	0.8508
2385	0.8516
2394	0.8542
2403	0.853
2412	0.8529
2421	0.8563
2430	0.8604
2439	0.8621
2448	0.8638
2457	0.8646
2466	0.8646
2475	0.8647
2484	0.8647
2493	0.8643
2502	0.8639
2511	0.8626
2520	0.861
2529	0.86
2538	0.859
2547	0.858
2556	0.8572
2565	0.8564
2574	0.857
2583	0.8578
2592	0.8585
2601	0.8595
2610	0.861
2619	0.8641
2628	0.8675
2637	0.8693
2646	0.8701
2655	0.8701
2664	0.8704
2673	0.8708
2682	0.8713
2691	0.8714
2700	0.8716
2709	0.8717
2718	0.8715
2727	0.8713
2736	0.8712
2745	0.8709
2754	0.8705
2763	0.8701
2772	0.8697
2781	0.8691
2790	0.8685
2799	0.8679
2808	0.8674
2817	0.8673
2826	0.8672
2835	0.8671
2844	0.8673
2853	0.8679
2862	0.8686
2871	0.869
2880	0.8694
2889	0.8696
2898	0.8694
2907	0.8691
2916	0.8683
2925	0.867
2934	0.8656
2943	0.8634
2952	0.8616
2961	0.8612
2970	0.8594
2979	0.8517
2988	0.8368
2997	0.8147
3006	0.7718
3015	0.6686
3024	0.653
3033	0.6342
3042	0.6461
3051	0.5594
3060	0.5542
3069	0.6456
3078	0.7516
3087	0.788
3096	0.8368
3105	0.8565
3114	0.8634
3123	0.8666
3132	0.8688
3141	0.8708
3150	0.8748
3159	0.8757
3168	0.8747
3177	0.8742
3186	0.8751
3195	0.877
3204	0.88
3213	0.8805
3222	0.8806
3231	0.8804
3240	0.8802
3249	0.8796
3258	0.8791
3267	0.8774
3276	0.8754
3285	0.8727
3294	0.87
3303	0.8671
3312	0.8641
3321	0.8611
3330	0.8582
3339	0.8555
3348	0.8548
3357	0.8541
3366	0.8549
3375	0.8562
3384	0.8589
3393	0.8621
3402	0.8647
3411	0.8658
3420	0.8665
3429	0.8666
3438	0.8663
3447	0.8652
3456	0.864
3465	0.8621
3474	0.8603
3483	0.8583
3492	0.8564
3501	0.8546
3510	0.8534
3519	0.8522
3528	0.8522
3537	0.8527
3546	0.8537
3555	0.8552
3564	0.855
3573	0.8512
3582	0.8476
3591	0.8457
3600	0.844
3609	0.8423
3618	0.8408
3627	0.8393
3636	0.8389
3645	0.8388
3654	0.8387
3663	0.8391
3672	0.8396
3681	0.8401
3690	0.8404
3699	0.8406
3708	0.8409
3717	0.8408
3726	0.8407
3735	0.8407
3744	0.8407
3753	0.8396
3762	0.8385
3771	0.8371
3780	0.8354
3789	0.8337
