Infrared Spectrum: D-CELLOBIOSE
Formula: C12 H22 O11
CAS: 13299-27-9
State: SOLID (SPLIT MULL), FLUOROLUBE FOR 3800-1330 CM^-^1, NUJOL FOR 1330-400 CM^-^1
Melting point: 239 C (DECOMPOSES)
Class: COBLENTZ III
Instrument: BECKMAN IR-9 (GRATING)
Instrument parameters: ORDER CHANGES: 670, 1200, 2000 CM^-^1
Sampling: TRANSMISSION
Resolution: 2
Origin: DOW CHEMICAL COMPANY
1/CM	TRANSMITTANCE
399	0.665
408	0.651
417	0.6493
426	0.6694
435	0.733
444	0.7757
453	0.7771
462	0.7611
471	0.7385
480	0.7547
489	0.7215
498	0.7771
507	0.7943
516	0.7868
525	0.7442
534	0.724
543	0.7083
552	0.6912
561	0.6715
570	0.6307
579	0.6508
588	0.6784
597	0.7525
606	0.7251
615	0.6628
624	0.6154
633	0.645
642	0.562
651	0.6711
660	0.5918
669	0.532
678	0.6644
687	0.6838
696	0.6904
705	0.6821
714	0.6455
723	0.5721
732	0.5552
741	0.5326
750	0.5575
759	0.656
768	0.7304
777	0.7733
786	0.8125
795	0.8414
804	0.8652
813	0.8792
822	0.8864
831	0.8855
840	0.8715
849	0.896
858	0.8997
867	0.8989
876	0.8888
885	0.8408
894	0.7356
903	0.8335
912	0.8787
921	0.8758
930	0.862
939	0.8455
948	0.8245
957	0.7955
966	0.7395
975	0.5655
984	0.4408
993	0.2905
1002	0.4925
1011	0.4445
1020	0.3282
1029	0.192
1038	0.0692
1047	0.0337
1056	0.0557
1065	0.1779
1074	0.1668
1083	0.0753
1092	0.1843
1101	0.2195
1110	0.4074
1119	0.497
1128	0.3125
1137	0.6096
1146	0.5803
1155	0.5685
1164	0.3749
1173	0.4899
1182	0.7435
1191	0.7276
1200	0.7165
1209	0.6711
1218	0.6772
1227	0.7645
1236	0.8096
1245	0.7865
1254	0.6621
1263	0.5758
1272	0.6357
1281	0.5626
1290	0.6074
1299	0.6449
1308	0.5035
1317	0.6478
1326	0.6299
1335	0.4123
1344	0.3988
1353	0.4566
1362	0.4273
1371	0.5674
1380	0.5986
1389	0.6162
1398	0.6017
1407	0.5222
1416	0.4868
1425	0.4027
1434	0.4614
1443	0.571
1452	0.6098
1461	0.6781
1470	0.7168
1479	0.6815
1488	0.5985
1497	0.6499
1506	0.7607
1515	0.8031
1524	0.8299
1533	0.8481
1542	0.8596
1551	0.866
1560	0.8702
1569	0.872
1578	0.8735
1587	0.8733
1596	0.8711
1605	0.8677
1614	0.8639
1623	0.8597
1632	0.8561
1641	0.8541
1650	0.8538
1659	0.8554
1668	0.856
1677	0.8556
1686	0.8547
1695	0.8533
1704	0.834
1713	0.8175
1722	0.8387
1731	0.8517
1740	0.8543
1749	0.8564
1758	0.857
1767	0.856
1776	0.8524
1785	0.8496
1794	0.8488
1803	0.8488
1812	0.8493
1821	0.8487
1830	0.8475
1839	0.8459
1848	0.8439
1857	0.8406
1866	0.8382
1875	0.8363
1884	0.8354
1893	0.8352
1902	0.8356
1911	0.8359
1920	0.835
1929	0.834
1938	0.8325
1947	0.8305
1956	0.8284
1965	0.8263
1974	0.8232
1983	0.8198
1992	0.8141
2001	0.8115
2010	0.8151
2019	0.8114
2028	0.8078
2037	0.8047
2046	0.8014
2055	0.7976
2064	0.7933
2073	0.789
2082	0.7851
2091	0.7815
2100	0.778
2109	0.7749
2118	0.7719
2127	0.769
2136	0.7651
2145	0.7614
2154	0.7575
2163	0.7538
2172	0.7496
2181	0.7448
2190	0.7401
2199	0.7353
2208	0.7308
2217	0.7262
2226	0.7217
2235	0.7171
2244	0.7128
2253	0.7083
2262	0.7039
2271	0.6998
2280	0.6958
2289	0.6921
2298	0.6906
2307	0.6889
2316	0.6881
2325	0.688
2334	0.6883
2343	0.6897
2352	0.6921
2361	0.695
2370	0.698
2379	0.6983
2388	0.6778
2397	0.6719
2406	0.6688
2415	0.6658
2424	0.6631
2433	0.6604
2442	0.658
2451	0.6551
2460	0.6498
2469	0.646
2478	0.6445
2487	0.6431
2496	0.6418
2505	0.6406
2514	0.6396
2523	0.6387
2532	0.6378
2541	0.6365
2550	0.6352
2559	0.6325
2568	0.6285
2577	0.6228
2586	0.6166
2595	0.6098
2604	0.6037
2613	0.5982
2622	0.5926
2631	0.587
2640	0.5824
2649	0.5789
2658	0.5776
2667	0.5748
2676	0.5655
2685	0.5579
2694	0.551
2703	0.5451
2712	0.54
2721	0.5354
2730	0.5307
2739	0.5259
2748	0.5212
2757	0.5164
2766	0.511
2775	0.5048
2784	0.4987
2793	0.4923
2802	0.4839
2811	0.4756
2820	0.4669
2829	0.4564
2838	0.4441
2847	0.424
2856	0.3687
2865	0.363
2874	0.359
2883	0.3078
2892	0.2539
2901	0.2835
2910	0.3695
2919	0.3784
2928	0.3856
2937	0.4441
2946	0.4947
2955	0.4915
2964	0.4723
2973	0.4365
2982	0.4546
2991	0.5015
3000	0.4973
3009	0.4893
3018	0.474
3027	0.461
3036	0.449
3045	0.4356
3054	0.4228
3063	0.4103
3072	0.3966
3081	0.3812
3090	0.3616
3099	0.3421
3108	0.3237
3117	0.3058
3126	0.2888
3135	0.2719
3144	0.2553
3153	0.2366
3162	0.2179
3171	0.1999
3180	0.1824
3189	0.172
3198	0.1663
3207	0.1631
3216	0.1611
3225	0.1595
3234	0.155
3243	0.1484
3252	0.1395
3261	0.1295
3270	0.1189
3279	0.1051
3288	0.095
3297	0.0905
3306	0.0899
3315	0.0886
3324	0.0854
3333	0.074
3342	0.0602
3351	0.0505
3360	0.0439
3369	0.0397
3378	0.0444
3387	0.0565
3396	0.0759
3405	0.0899
3414	0.0788
3423	0.0513
3432	0.0659
3441	0.104
3450	0.1926
3459	0.2764
3468	0.3445
3477	0.3925
3486	0.464
3495	0.5637
3504	0.5995
3513	0.6494
3522	0.6889
3531	0.7254
3540	0.7535
3549	0.7755
3558	0.7906
3567	0.798
3576	0.7997
3585	0.7993
3594	0.7978
3603	0.7956
3612	0.793
3621	0.7888
3630	0.7839
3639	0.7781
3648	0.7724
3657	0.7664
3666	0.7606
3675	0.7545
3684	0.7483
3693	0.7421
3702	0.7358
3711	0.7297
3720	0.7236
3729	0.7175
3738	0.7117
3747	0.706
3756	0.7011
3765	0.6962
3774	0.6925
3783	0.6888
3792	0.6843
