Infrared Spectrum: 2-Octene, (E)
Formula: C8 H16
CAS: 13389-42-9
State: LIQUID (NEAT)
Class: COBLENTZ III
Instrument: BECKMAN IR-12 (GRATING)
Instrument parameters: GRATING
Sampling: TRANSMISSION
Path length: 0.00286 CM
Resolution: 2
Origin: COLGATE-PALMOLIVE COMPANY (KELLENBACH)
1/CM	TRANSMITTANCE
404	0.644
413	0.7126
422	0.7528
431	0.7845
440	0.8116
449	0.8306
458	0.8362
467	0.838
476	0.8612
485	0.8008
494	0.8871
503	0.8926
512	0.8987
521	0.905
530	0.9103
539	0.914
548	0.9146
557	0.9151
566	0.9237
575	0.9251
584	0.9253
593	0.9257
602	0.9257
611	0.9256
620	0.9253
629	0.9256
638	0.9261
647	0.9312
656	0.9405
665	0.9377
674	0.9336
683	0.9247
692	0.913
701	0.8942
710	0.8551
719	0.7729
728	0.6648
737	0.7576
746	0.8227
755	0.8605
764	0.8495
773	0.8488
782	0.8577
791	0.875
800	0.8902
809	0.8918
818	0.8836
827	0.8709
836	0.8481
845	0.8419
854	0.8528
863	0.8501
872	0.8349
881	0.7863
890	0.7828
899	0.7192
908	0.6311
917	0.7226
926	0.6474
935	0.6774
944	0.565
953	0.1184
962	0.0068
971	0.2209
980	0.5044
989	0.6579
998	0.7141
1007	0.7224
1016	0.7298
1025	0.7507
1034	0.7527
1043	0.6983
1052	0.7108
1061	0.7477
1070	0.7177
1079	0.7352
1088	0.7824
1097	0.8091
1106	0.7617
1115	0.8297
1124	0.849
1133	0.8462
1142	0.8446
1151	0.8486
1160	0.8567
1169	0.8633
1178	0.856
1187	0.8439
1196	0.8328
1205	0.8371
1214	0.8213
1223	0.7996
1232	0.8063
1241	0.8267
1250	0.8206
1259	0.8039
1268	0.7891
1277	0.7626
1286	0.7573
1295	0.7065
1304	0.7127
1313	0.738
1322	0.7698
1331	0.7482
1340	0.6926
1349	0.7133
1358	0.6908
1367	0.6276
1376	0.2836
1385	0.6522
1394	0.7232
1403	0.7145
1412	0.6617
1421	0.5755
1430	0.2777
1439	0.1935
1448	0.1489
1457	0.114
1466	0.1856
1475	0.6228
1484	0.6815
1493	0.7322
1502	0.773
1511	0.7992
1520	0.8099
1529	0.8288
1538	0.8117
1547	0.8437
1556	0.8318
1565	0.8544
1574	0.8572
1583	0.8672
1592	0.8686
1601	0.8693
1610	0.865
1619	0.8653
1628	0.8597
1637	0.808
1646	0.8531
1655	0.8668
1664	0.8567
1673	0.8219
1682	0.8517
1691	0.8593
1700	0.8456
1709	0.838
1718	0.8389
1727	0.8442
1736	0.8506
1745	0.8562
1754	0.8639
1763	0.8763
1772	0.8767
1781	0.876
1790	0.875
1799	0.8729
1808	0.8704
1817	0.8727
1826	0.8774
1835	0.8838
1844	0.892
1853	0.8936
1862	0.8948
1871	0.8956
1880	0.8961
1889	0.8965
1898	0.8969
1907	0.8971
1916	0.8973
1925	0.8975
1934	0.8977
1943	0.8977
1952	0.8978
1961	0.8979
1970	0.8968
1979	0.8957
1988	0.8897
1997	0.8699
2006	0.874
2015	0.8811
2024	0.8848
2033	0.8873
2042	0.8893
2051	0.8908
2060	0.8921
2069	0.8931
2078	0.8941
2087	0.8942
2096	0.8943
2105	0.8941
2114	0.8939
2123	0.8934
2132	0.8923
2141	0.8912
2150	0.8902
2159	0.8891
2168	0.8887
2177	0.8885
2186	0.8882
2195	0.8879
2204	0.8877
2213	0.887
2222	0.8862
2231	0.8854
2240	0.8847
2249	0.8839
2258	0.8833
2267	0.8833
2276	0.8833
2285	0.8816
2294	0.8797
2303	0.8778
2312	0.8757
2321	0.8733
2330	0.871
2339	0.8682
2348	0.8653
2357	0.8623
2366	0.8607
2375	0.8684
2384	0.8757
2393	0.8757
2402	0.8746
2411	0.8742
2420	0.877
2429	0.8787
2438	0.8783
2447	0.8761
2456	0.876
2465	0.879
2474	0.882
2483	0.8834
2492	0.8801
2501	0.8757
2510	0.8718
2519	0.8684
2528	0.8671
2537	0.8688
2546	0.8687
2555	0.8623
2564	0.8562
2573	0.852
2582	0.8498
2591	0.8493
2600	0.8489
2609	0.8443
2618	0.8389
2627	0.8343
2636	0.8297
2645	0.8198
2654	0.8044
2663	0.7929
2672	0.7994
2681	0.8156
2690	0.8246
2699	0.8255
2708	0.8147
2717	0.7942
2726	0.6883
2735	0.7421
2744	0.789
2753	0.7909
2762	0.7881
2771	0.7741
2780	0.7446
2789	0.7171
2798	0.653
2807	0.5955
2816	0.5399
2825	0.2952
2834	0.1385
2843	0.0053
2852	0.0004
2861	0.0202
2870	0.0213
2879	0.0375
2888	0.0249
2897	0.0119
2906	0.0001
2915	0.0001
2924	0.0001
2933	0.0021
2942	0.0073
2951	0.002
2960	0.0048
2969	0.1064
2978	0.208
2987	0.2332
2996	0.2844
3005	0.299
3014	0.2525
3023	0.2943
3032	0.5138
3041	0.5952
3050	0.6484
3059	0.6815
3068	0.7075
3077	0.7484
3086	0.7682
3095	0.7785
3104	0.7872
3113	0.7946
3122	0.8024
3131	0.8107
3140	0.8198
3149	0.8268
3158	0.8338
3167	0.8411
3176	0.8463
3185	0.8503
3194	0.8529
3203	0.8564
3212	0.861
3221	0.8661
3230	0.8702
3239	0.8737
3248	0.8762
3257	0.8787
3266	0.8802
3275	0.8804
3284	0.8806
3293	0.8802
3302	0.8799
3311	0.8795
3320	0.8793
3329	0.8791
3338	0.8789
3347	0.8787
3356	0.8785
3365	0.8783
3374	0.8785
3383	0.8787
3392	0.8789
3401	0.8791
3410	0.8793
3419	0.8794
3428	0.8791
3437	0.8787
3446	0.8784
3455	0.878
3464	0.8779
3473	0.8776
3482	0.8778
3491	0.8785
3500	0.8792
3509	0.8799
3518	0.881
3527	0.8822
3536	0.883
3545	0.8834
3554	0.8839
3563	0.8841
3572	0.8837
3581	0.8816
3590	0.8785
3599	0.8751
3608	0.8715
3617	0.8728
3626	0.8749
3635	0.8797
3644	0.8795
3653	0.8749
3662	0.8847
3671	0.8804
3680	0.8707
3689	0.8732
3698	0.8769
3707	0.8797
3716	0.8801
3725	0.8738
3734	0.866
3743	0.8693
3752	0.8733
3761	0.8764
3770	0.879
3779	0.8811
3788	0.8783
3797	0.8733
3806	0.8689
3815	0.8681
3824	0.8677
3833	0.8677
3842	0.8679
3851	0.8674
3860	0.8669
3869	0.8664
3878	0.8691
3887	0.8663
3896	0.8675
3905	0.8699
3914	0.8727
3923	0.8754
3932	0.8751
3941	0.8733
3950	0.8711
3959	0.869
3968	0.8674
3977	0.8664
3986	0.8653
3995	0.8641
