Infrared Spectrum: BENZIL
Formula: C14 H10 O2
CAS: 134-81-6
State: SOLUTION (10% IN CCl4 FOR 4000-1340 CM^-^1, 10% IN CS2 FOR 1340-600 CM^-^1)
Class: COBLENTZ III
Instrument: BECKMAN IR-7 (GRATING)
Instrument parameters: GRATING CHANGES AT 3000, 2200, 1150 CM^-^1
Sampling: TRANSMISSION
Path length: 0.010 CM, 0.011 CM
Resolution: 4
Origin: WESTERN REGIONAL RES. USDA
1/CM	TRANSMITTANCE
595.498	0.776
604.501	0.798
613.504	0.734
622.508	0.75
631.511	0.6761
640.514	0.1
649.517	0.4439
658.521	0.661
667.524	0.683
676.527	0.51
685.53	0.066
694.534	0.164
703.537	0.297
712.54	0.051
721.543	0.1239
730.547	0.521
739.55	0.699
748.553	0.744
757.556	0.734
766.559	0.702
775.563	0.611
784.566	0.487
793.569	0.453
802.572	0.539
811.576	0.739
820.579	0.799
829.582	0.794
838.585	0.725
847.589	0.637
856.592	0.498
865.595	0.214
874.598	0.187
883.602	0.4139
892.605	0.678
901.608	0.779
910.611	0.803
919.614	0.798
928.618	0.6292
937.621	0.728
946.624	0.823
955.627	0.832
964.631	0.823
973.634	0.779
982.637	0.822
991.64	0.811
1000.64	0.52
1009.65	0.822
1018.65	0.7731
1027.65	0.592
1036.66	0.835
1045.66	0.838
1054.66	0.833
1063.67	0.799
1072.67	0.696
1081.67	0.815
1090.68	0.776
1099.68	0.751
1108.68	0.822
1117.69	0.819
1126.69	0.808
1135.69	0.786
1144.7	0.765
1153.7	0.667
1162.7	0.545
1171.71	0.048
1180.71	0.412
1189.71	0.579
1198.71	0.2161
1207.72	0.005
1216.72	0.282
1225.72	0.594
1234.73	0.661
1243.73	0.602
1252.73	0.716
1261.74	0.717
1270.74	0.685
1279.74	0.546
1288.75	0.451
1297.75	0.529
1306.75	0.517
1315.76	0.418
1324.76	0.384
1333.76	0.629
1342.77	0.659
1351.77	0.759
1360.77	0.783
1369.78	0.79
1378.78	0.782
1387.78	0.75
1396.79	0.767
1405.79	0.783
1414.79	0.78
1423.8	0.784
1432.8	0.774
1441.8	0.704
1450.81	0.2111
1459.81	0.728
1468.81	0.757
1477.82	0.758
1486.82	0.737
1495.82	0.702
1504.82	0.677
1513.83	0.632
1522.83	0.588
1531.83	0.524
1540.84	0.438
1549.84	0.402
1558.84	0.42
1567.85	0.46
1576.85	0.361
1585.85	0.339
1594.86	0.067
1603.86	0.3949
1612.86	0.601
1621.87	0.669
1630.87	0.663
1639.87	0.576
1648.88	0.498
1657.88	0.279
1666.88	0.057
1675.89	0.03
1684.89	0.029
1693.89	0.145
1702.9	0.444
1711.9	0.596
1720.9	0.652
1729.91	0.69
1738.91	0.71
1747.91	0.733
1756.92	0.752
1765.92	0.758
1774.92	0.731
1783.93	0.757
1792.93	0.778
1801.93	0.78
1810.93	0.746
1819.94	0.711
1828.94	0.767
1837.94	0.773
1846.95	0.789
1855.95	0.79
1864.95	0.793
1873.96	0.798
1882.96	0.797
1891.96	0.793
1900.97	0.776
1909.97	0.74
1918.97	0.76
1927.98	0.756
1936.98	0.786
1945.98	0.796
1954.99	0.793
1963.99	0.724
1972.99	0.761
1982	0.748
1991	0.776
2000	0.79
2009.01	0.7926
2018.01	0.794
2027.01	0.794
2036.02	0.794
2045.02	0.7932
2054.02	0.7916
2063.03	0.7919
2072.03	0.7925
2081.03	0.794
2090.04	0.7956
2099.04	0.797
2108.04	0.797
2117.04	0.799
2126.05	0.799
2135.05	0.799
2144.05	0.799
2153.06	0.801
2162.06	0.802
2171.06	0.803
2180.07	0.804
2189.07	0.804
2198.07	0.804
2207.08	0.805
2216.08	0.806
2225.08	0.806
2234.09	0.806
2243.09	0.8048
2252.09	0.8033
2261.1	0.8004
2270.1	0.797
2279.1	0.794
2288.11	0.792
2297.11	0.79
2306.11	0.79
2315.12	0.789
2324.12	0.7888
2333.12	0.787
2342.13	0.786
2351.13	0.785
2360.13	0.785
2369.14	0.787
2378.14	0.7912
2387.14	0.7982
2396.15	0.8
2405.15	0.802
2414.15	0.8038
2423.15	0.8044
2432.16	0.806
2441.16	0.806
2450.16	0.8059
2459.17	0.8033
2468.17	0.803
2477.17	0.8012
2486.18	0.8007
2495.18	0.7963
2504.18	0.79
2513.19	0.7931
2522.19	0.7996
2531.19	0.8028
2540.2	0.802
2549.2	0.8023
2558.2	0.803
2567.21	0.804
2576.21	0.806
2585.21	0.7974
2594.22	0.787
2603.22	0.7896
2612.22	0.7952
2621.23	0.796
2630.23	0.797
2639.23	0.7989
2648.24	0.7994
2657.24	0.801
2666.24	0.8052
2675.25	0.806
2684.25	0.8043
2693.25	0.7985
2702.26	0.796
2711.26	0.7998
2720.26	0.8049
2729.26	0.8015
2738.27	0.797
2747.27	0.7986
2756.27	0.799
2765.28	0.799
2774.28	0.7977
2783.28	0.7961
2792.29	0.7956
2801.29	0.793
2810.29	0.791
2819.3	0.7933
2828.3	0.799
2837.3	0.801
2846.31	0.801
2855.31	0.8
2864.31	0.799
2873.32	0.7955
2882.32	0.7888
2891.32	0.785
2900.33	0.7874
2909.33	0.7918
2918.33	0.7927
2927.34	0.7861
2936.34	0.7846
2945.34	0.785
2954.35	0.7937
2963.35	0.7915
2972.35	0.7836
2981.36	0.7818
2990.36	0.781
2999.36	0.781
3008.37	0.7715
3017.37	0.761
3026.37	0.7165
3035.37	0.6752
3044.38	0.6914
3053.38	0.7025
3062.38	0.6484
3071.39	0.549
3080.39	0.6427
3089.39	0.647
3098.4	0.6997
3107.4	0.7377
3116.4	0.7661
3125.41	0.7855
3134.41	0.789
3143.41	0.7924
3152.42	0.7891
3161.42	0.7806
3170.42	0.774
3179.43	0.7898
3188.43	0.793
3197.43	0.794
3206.44	0.7953
3215.44	0.7969
3224.44	0.799
3233.45	0.799
3242.45	0.7975
3251.45	0.796
3260.46	0.7943
3269.46	0.792
3278.46	0.7958
3287.47	0.797
3296.47	0.797
3305.47	0.7951
3314.48	0.79
3323.48	0.7812
3332.48	0.7662
3341.48	0.7466
3350.49	0.7466
3359.49	0.7587
3368.49	0.7776
3377.5	0.7869
3386.5	0.7915
3395.5	0.794
3404.51	0.7966
3413.51	0.797
3422.51	0.797
3431.52	0.798
3440.52	0.799
3449.52	0.797
3458.53	0.797
3467.53	0.798
3476.53	0.799
3485.54	0.798
3494.54	0.797
3503.54	0.796
3512.55	0.7964
3521.55	0.799
3530.55	0.8
3539.56	0.8
3548.56	0.8
3557.56	0.799
3566.57	0.799
3575.57	0.7993
3584.57	0.8009
3593.58	0.801
3602.58	0.802
3611.58	0.802
3620.59	0.8029
3629.59	0.801
3638.59	0.7987
3647.59	0.7962
3656.6	0.792
3665.6	0.7919
3674.6	0.7935
3683.61	0.7949
3692.61	0.794
3701.61	0.793
3710.62	0.793
3719.62	0.794
3728.62	0.794
3737.63	0.7944
3746.63	0.797
3755.63	0.799
3764.64	0.799
3773.64	0.8
3782.64	0.8003
3791.65	0.801
3800.65	0.7996
3809.65	0.7981
3818.66	0.797
3827.66	0.7969
3836.66	0.7934
3845.67	0.792
3854.67	0.7927
3863.67	0.794
3872.68	0.794
3881.68	0.796
3890.68	0.798
3899.69	0.799
3908.69	0.799
3917.69	0.7973
3926.7	0.7938
3935.7	0.792
3944.7	0.7934
3953.7	0.794
3962.71	0.796
3971.71	0.7971
3980.71	0.7974
