Infrared Spectrum: 2-Ethylhexamide, N,N-bis(2-ethylhexoate ethyl)
Formula: C28 H53 N O5
CAS: 134-67-8
State: SOLUTION (10% CCl4 FOR 2.7-7.5, 10% CS2 FOR 7.5-26 MICRON) VS SOLVENT
Class: COBLENTZ III
Instrument: DOW KBr FOREPRISM-GRATING
Instrument parameters: BLAZED AT 3.5, 12.0, 20.0 MICRON AND CHANGED AT 5.0, 7.5, 14.9 MICRON
Sampling: TRANSMISSION
Path length: 0.011 CM, 0.011 CM
Resolution: 2
Origin: DOW CHEMICAL COMPANY
1/CM	TRANSMITTANCE
3792	0.8664
3783	0.8666
3774	0.8665
3765	0.8663
3756	0.8663
3747	0.8662
3738	0.8665
3729	0.8668
3720	0.8671
3711	0.8675
3702	0.868
3693	0.8685
3684	0.8671
3675	0.8617
3666	0.8589
3657	0.8611
3648	0.8633
3639	0.8642
3630	0.8651
3621	0.8657
3612	0.8664
3603	0.8674
3594	0.8684
3585	0.87
3576	0.8716
3567	0.8728
3558	0.8727
3549	0.8721
3540	0.871
3531	0.8696
3522	0.8678
3513	0.8668
3504	0.8662
3495	0.8658
3486	0.8659
3477	0.8659
3468	0.863
3459	0.8564
3450	0.846
3441	0.8382
3432	0.8424
3423	0.8504
3414	0.8552
3405	0.8564
3396	0.8568
3387	0.857
3378	0.8574
3369	0.8577
3360	0.8581
3351	0.8584
3342	0.8587
3333	0.8589
3324	0.8589
3315	0.8586
3306	0.858
3297	0.8545
3288	0.8506
3279	0.8493
3270	0.85
3261	0.851
3252	0.8521
3243	0.8528
3234	0.8521
3225	0.8512
3216	0.85
3207	0.8475
3198	0.8441
3189	0.8396
3180	0.8367
3171	0.8351
3162	0.8339
3153	0.8333
3144	0.8327
3135	0.8321
3126	0.8314
3117	0.8307
3108	0.8292
3099	0.8275
3090	0.8243
3081	0.8206
3072	0.8167
3063	0.8126
3054	0.808
3045	0.8028
3036	0.7942
3027	0.7828
3018	0.7653
3009	0.7105
3000	0.6528
2991	0.5671
2982	0.3732
2973	0.1809
2964	0.0252
2955	0.0199
2946	0.0614
2937	0.0668
2928	0.0467
2919	0.0668
2910	0.1165
2901	0.2103
2892	0.304
2883	0.3636
2874	0.1894
2865	0.2206
2856	0.1816
2847	0.3491
2838	0.6189
2829	0.6726
2820	0.7161
2811	0.7522
2802	0.7754
2793	0.7878
2784	0.7982
2775	0.8078
2766	0.8174
2757	0.8243
2748	0.8277
2739	0.825
2730	0.8167
2721	0.8148
2712	0.8228
2703	0.832
2694	0.8377
2685	0.8395
2676	0.8404
2667	0.8405
2658	0.8407
2649	0.8423
2640	0.8471
2631	0.8517
2622	0.8538
2613	0.8539
2604	0.8539
2595	0.8537
2586	0.8537
2577	0.8548
2568	0.856
2559	0.8571
2550	0.8585
2541	0.86
2532	0.8615
2523	0.8628
2514	0.8645
2505	0.8661
2496	0.8678
2487	0.8695
2478	0.8712
2469	0.8728
2460	0.8741
2451	0.8752
2442	0.8763
2433	0.8762
2424	0.8758
2415	0.8757
2406	0.8757
2397	0.8756
2388	0.8758
2379	0.8759
2370	0.8766
2361	0.8773
2352	0.8786
2343	0.8794
2334	0.8789
2325	0.8762
2316	0.8717
2307	0.8681
2298	0.8668
2289	0.8674
2280	0.8688
2271	0.8706
2262	0.8725
2253	0.8741
2244	0.8755
2235	0.8768
2226	0.8784
2217	0.8796
2208	0.8809
2199	0.8818
2190	0.883
2181	0.8846
2172	0.8915
2163	0.8874
2154	0.8867
2145	0.8863
2136	0.8866
2127	0.887
2118	0.8873
2109	0.8875
2100	0.8877
2091	0.8875
2082	0.8871
2073	0.8828
2064	0.8795
2055	0.8792
2046	0.8791
2037	0.8787
2028	0.8778
2019	0.8752
2010	0.8756
2001	0.8781
1992	0.8799
1983	0.8801
1974	0.881
1965	0.8818
1956	0.8827
1947	0.8828
1938	0.8827
1929	0.8821
1920	0.8818
1911	0.8816
1902	0.8814
1893	0.881
1884	0.8806
1875	0.8803
1866	0.88
1857	0.88
1848	0.8795
1839	0.8764
1830	0.8718
1821	0.8687
1812	0.8647
1803	0.8573
1794	0.8464
1785	0.8338
1776	0.8167
1767	0.7942
1758	0.7478
1749	0.5908
1740	0.2959
1731	0.0108
1722	0.0235
1713	0.2596
1704	0.4792
1695	0.5451
1686	0.5479
1677	0.5485
1668	0.5678
1659	0.3112
1650	0.0969
1641	0.1046
1632	0.3316
1623	0.5366
1614	0.6033
1605	0.6726
1596	0.7395
1587	0.7821
1578	0.7986
1569	0.8085
1560	0.8171
1551	0.8213
1542	0.8209
1533	0.8114
1524	0.7889
1515	0.7817
1506	0.7642
1497	0.7435
1488	0.7184
1479	0.5871
1470	0.385
1461	0.1609
1452	0.1969
1443	0.3
1434	0.3826
1425	0.4658
1416	0.4125
1407	0.5019
1398	0.4698
1389	0.3586
1380	0.332
1371	0.4455
1362	0.4643
1353	0.472
1344	0.4922
1335	0.572
1326	0.5933
1317	0.6003
1308	0.5914
1299	0.5414
1290	0.4873
1281	0.4714
1272	0.4556
1263	0.451
1254	0.3914
1245	0.4176
1236	0.4522
1227	0.4854
1218	0.3154
1209	0.2865
1200	0.3058
1191	0.3409
1182	0.405
1173	0.206
1164	0.06
1155	0.0658
1146	0.1898
1137	0.0809
1128	0.2794
1119	0.3518
1110	0.2945
1101	0.3069
1092	0.3193
1083	0.3396
1074	0.4717
1065	0.4983
1056	0.5864
1047	0.6189
1038	0.5856
1029	0.5756
1020	0.6268
1011	0.6684
1002	0.6428
993	0.576
984	0.6297
975	0.7257
966	0.7348
957	0.7311
948	0.7282
939	0.7361
930	0.7687
921	0.8001
912	0.8028
903	0.8018
894	0.8199
885	0.8296
876	0.8408
867	0.8491
858	0.8493
849	0.8544
840	0.8551
831	0.8285
822	0.8309
813	0.8307
804	0.7834
795	0.7738
786	0.7635
777	0.7801
768	0.7851
759	0.7739
750	0.7641
741	0.7249
732	0.7494
723	0.7215
714	0.8208
705	0.8686
696	0.8773
687	0.8789
678	0.8813
669	0.8817
660	0.8796
651	0.8624
642	0.8525
633	0.8536
624	0.853
615	0.844
606	0.8359
597	0.8366
588	0.8428
579	0.8464
570	0.8444
561	0.8338
552	0.821
543	0.81
534	0.7995
525	0.7907
516	0.7858
507	0.7872
498	0.7899
489	0.7941
480	0.798
471	0.8014
462	0.8041
453	0.8008
444	0.7936
435	0.7931
426	0.793
417	0.7938
408	0.7951
399	0.7956
390	0.7948
