Infrared Spectrum: PHOSPHONOUS ACID, PHENYL-, DIPHENYL ESTER
Formula: C18 H15 O2 P
CAS: 13410-61-2
Boiling point: 160 C AT 0.5 mmHg
Class: COBLENTZ
Instrument: Not specified, most likely a prism, grating, or hybrid spectrometer.
Sampling: TRANSMISSION
Path length: SMEAR
Resolution: 4
Origin: TENNESSEE EASTMAN COMPANY, RESEARCH LABORATORIES
MICROMETERS	TRANSMITTANCE
2.067	0.867
2.107	0.872
2.147	0.871
2.187	0.874
2.227	0.877
2.267	0.882
2.30699	0.884
2.34699	0.886
2.38699	0.892
2.42699	0.896
2.46699	0.887
2.50699	0.887
2.54699	0.901
2.58699	0.906
2.62699	0.904
2.66699	0.906
2.70699	0.899
2.74699	0.901
2.78698	0.901
2.82698	0.901
2.86698	0.902
2.90698	0.902
2.94698	0.896
2.98698	0.857
3.02698	0.825
3.06698	0.78
3.10698	0.787
3.14698	0.819
3.18698	0.85
3.22698	0.845
3.26697	0.686
3.30697	0.599
3.34697	0.825
3.38697	0.899
3.42697	0.904
3.46697	0.917
3.50697	0.921
3.54697	0.931
3.58697	0.943
3.62697	0.944
3.66697	0.943
3.70696	0.944
3.74696	0.943
3.78696	0.943
3.82696	0.943
3.86696	0.943
3.90696	0.941
3.94696	0.936
3.98696	0.946
4.02696	0.946
4.06696	0.943
4.10696	0.931
4.14696	0.916
4.18695	0.909
4.22695	0.899
4.26695	0.906
4.30695	0.877
4.34695	0.874
4.38695	0.939
4.42695	0.953
4.46695	0.948
4.50695	0.951
4.54695	0.953
4.58695	0.954
4.62694	0.961
4.66694	0.961
4.70694	0.961
4.74694	0.953
4.78694	0.943
4.82694	0.932
4.86694	0.927
4.90694	0.931
4.94694	0.936
4.98694	0.938
5.02694	0.927
5.06694	0.896
5.10693	0.852
5.14693	0.837
5.18693	0.854
5.22693	0.882
5.26693	0.887
5.30693	0.879
5.34693	0.896
5.38693	0.876
5.42693	0.901
5.46693	0.912
5.50693	0.901
5.54693	0.906
5.58692	0.909
5.62692	0.877
5.66692	0.874
5.70692	0.921
5.74692	0.902
5.78692	0.864
5.82692	0.889
5.86692	0.899
5.90692	0.876
5.94692	0.906
5.98692	0.872
6.02691	0.874
6.06691	0.902
6.10691	0.872
6.14691	0.86
6.18691	0.805
6.22691	0.551
6.26691	0.06
6.30691	0.222
6.34691	0.577
6.38691	0.775
6.42691	0.807
6.46691	0.85
6.5069	0.84
6.5469	0.827
6.5869	0.75
6.6269	0.5
6.6669	0.149
6.7069	0.035
6.7469	0.132
6.7869	0.458
6.8269	0.71
6.8669	0.547
6.9069	0.738
6.9469	0.482
6.98689	0.8
7.02689	0.854
7.06689	0.855
7.10689	0.855
7.14689	0.842
7.18689	0.829
7.22689	0.832
7.26689	0.842
7.30689	0.844
7.34689	0.85
7.38689	0.865
7.42688	0.865
7.46688	0.835
7.50688	0.782
7.54688	0.79
7.58688	0.804
7.62688	0.772
7.66688	0.735
7.70688	0.792
7.74688	0.718
7.78688	0.629
7.82688	0.631
7.86688	0.631
7.90687	0.631
7.94687	0.629
7.98687	0.537
8.02687	0.412
8.06687	0.288
8.10687	0.159
8.14687	0.08
8.18687	0.038
8.22687	0.058
8.26687	0.093
8.30687	0.04
8.34687	0.016
8.38686	0.028
8.42686	0.108
8.46686	0.306
8.50686	0.407
8.54686	0.192
8.58686	0.14
8.62686	0.273
8.66686	0.534
8.70686	0.651
8.74686	0.701
8.78686	0.671
8.82685	0.592
8.86685	0.561
8.90685	0.603
8.94685	0.544
8.98685	0.381
9.02685	0.316
9.06685	0.44
9.10685	0.613
9.14685	0.73
9.18685	0.768
9.22685	0.77
9.26685	0.648
9.30684	0.43
9.34684	0.561
9.38684	0.747
9.42684	0.805
9.46684	0.837
9.50684	0.845
9.54684	0.847
9.58684	0.84
9.62684	0.822
9.66684	0.721
9.70684	0.497
9.74683	0.365
9.78683	0.592
9.82683	0.713
9.86683	0.74
9.90683	0.718
9.94683	0.643
9.98683	0.581
10.0268	0.703
10.0668	0.742
10.1068	0.745
10.1468	0.743
10.1868	0.723
10.2268	0.706
10.2668	0.695
10.3068	0.69
10.3468	0.675
10.3868	0.651
10.4268	0.631
10.4668	0.631
10.5068	0.631
10.5468	0.629
10.5868	0.606
10.6268	0.586
10.6668	0.556
10.7068	0.529
10.7468	0.492
10.7868	0.462
10.8268	0.448
10.8668	0.437
10.9068	0.443
10.9468	0.45
10.9868	0.371
11.0268	0.299
11.0668	0.221
11.1068	0.204
11.1468	0.192
11.1868	0.177
11.2268	0.16
11.2668	0.115
11.3068	0.07
11.3468	0.045
11.3868	0.043
11.4268	0.046
11.4668	0.051
11.5068	0.043
11.5468	0.021
11.5868	0.016
11.6268	0.016
11.6668	0.048
11.7068	0.113
11.7468	0.237
11.7868	0.366
11.8268	0.482
11.8668	0.566
11.9068	0.601
11.9468	0.608
11.9868	0.597
12.0268	0.554
12.0668	0.53
12.1068	0.519
12.1468	0.547
12.1868	0.597
12.2268	0.644
12.2668	0.69
12.3068	0.731
12.3468	0.755
12.3868	0.772
12.4268	0.783
12.4668	0.785
12.5068	0.782
12.5468	0.77
12.5868	0.748
12.6268	0.716
12.6668	0.67
12.7068	0.592
12.7468	0.49
12.7868	0.333
12.8268	0.212
12.8668	0.14
12.9068	0.115
12.9468	0.107
12.9868	0.11
13.0268	0.11
13.0668	0.112
13.1068	0.122
13.1468	0.139
13.1868	0.142
13.2268	0.139
13.2668	0.118
13.3068	0.112
13.3468	0.164
13.3868	0.247
13.4268	0.348
13.4668	0.371
13.5068	0.368
13.5468	0.335
13.5868	0.298
13.6268	0.252
13.6668	0.222
13.7067	0.211
13.7467	0.204
13.7867	0.201
13.8267	0.206
13.8667	0.231
13.9067	0.261
13.9467	0.284
13.9867	0.316
14.0267	0.328
14.0667	0.321
14.1067	0.301
14.1467	0.274
14.1867	0.254
14.2267	0.242
14.2667	0.234
14.3067	0.216
14.3467	0.19
14.3867	0.159
14.4267	0.117
14.4667	0.085
14.5067	0.072
14.5467	0.097
14.5867	0.199
14.6267	0.303
14.6667	0.402
14.7067	0.515
14.7467	0.566
14.7867	0.597
14.8267	0.629
14.8667	0.643
14.9067	0.648
14.9467	0.653
14.9867	0.663
15.0267	0.693
15.0667	0.703
15.1067	0.703
15.1467	0.703
15.1867	0.703
15.2267	0.703
15.2667	0.703
15.3067	0.703
15.3467	0.703
15.3867	0.705
15.4267	0.705
15.4667	0.705
15.5067	0.705
15.5467	0.705
15.5867	0.703
15.6267	0.703
15.6667	0.7
15.7067	0.7
15.7467	0.69
15.7867	0.681
15.8267	0.68
15.8667	0.673
15.9067	0.67
15.9467	0.668
15.9867	0.661
16.0267	0.659
