Infrared Spectrum: 2,4-Dimethyl-3-hexanol
Formula: C8 H18 O
CAS: 13432-25-2
State: SOLUTION (10% CCl4 FOR 3800-1330, 10% CS2 FOR 1330-400 CM^-^1) VS SOLVENT
Class: COBLENTZ III
Instrument: BECKMAN IR-9 (GRATING)
Instrument parameters: ORDER CHANGES: 670, 1200, 2000 CM^-^1
Sampling: TRANSMISSION
Path length: 0.011 CM, 0.011 CM
Resolution: 2
Origin: DOW CHEMICAL COMPANY
1/CM	TRANSMITTANCE
399	0.7546
408	0.7643
417	0.7715
426	0.7751
435	0.7689
444	0.7594
453	0.7485
462	0.7428
471	0.7386
480	0.7342
489	0.7155
498	0.723
507	0.7549
516	0.7641
525	0.7611
534	0.7568
543	0.7678
552	0.774
561	0.7798
570	0.7843
579	0.7884
588	0.7924
597	0.7971
606	0.8006
615	0.8004
624	0.7757
633	0.8031
642	0.8174
651	0.8054
660	0.815
669	0.8414
678	0.7968
687	0.7883
696	0.8065
705	0.8284
714	0.8439
723	0.8564
732	0.8662
741	0.8721
750	0.8666
759	0.8341
768	0.7812
777	0.8081
786	0.8386
795	0.8231
804	0.7972
813	0.8132
822	0.829
831	0.8015
840	0.7685
849	0.8342
858	0.843
867	0.8425
876	0.8389
885	0.8125
894	0.7736
903	0.825
912	0.8202
921	0.7614
930	0.7558
939	0.581
948	0.475
957	0.4166
966	0.3634
975	0.2933
984	0.1636
993	0.2078
1002	0.4757
1011	0.6036
1020	0.6595
1029	0.6354
1038	0.7147
1047	0.7707
1056	0.7661
1065	0.7312
1074	0.6837
1083	0.6373
1092	0.4525
1101	0.5032
1110	0.6496
1119	0.6668
1128	0.6874
1137	0.6461
1146	0.5358
1155	0.5362
1164	0.6389
1173	0.6611
1182	0.7488
1191	0.7555
1200	0.7311
1209	0.6791
1218	0.6234
1227	0.6017
1236	0.5975
1245	0.6058
1254	0.6288
1263	0.6354
1272	0.6388
1281	0.6396
1290	0.6399
1299	0.6561
1308	0.6674
1317	0.668
1326	0.681
1335	0.7153
1344	0.7096
1353	0.6883
1362	0.4938
1371	0.4349
1380	0.2775
1389	0.4006
1398	0.619
1407	0.7001
1416	0.731
1425	0.7358
1434	0.7143
1443	0.5362
1452	0.3001
1461	0.1654
1470	0.1968
1479	0.6482
1488	0.7541
1497	0.7928
1506	0.8135
1515	0.8298
1524	0.8412
1533	0.8513
1542	0.8643
1551	0.8738
1560	0.8735
1569	0.8728
1578	0.87
1587	0.8715
1596	0.8723
1605	0.8671
1614	0.8593
1623	0.8535
1632	0.8544
1641	0.8653
1650	0.869
1659	0.8637
1668	0.8586
1677	0.8538
1686	0.8502
1695	0.8499
1704	0.8503
1713	0.849
1722	0.8571
1731	0.858
1740	0.859
1749	0.8594
1758	0.8598
1767	0.8596
1776	0.8593
1785	0.8585
1794	0.8577
1803	0.857
1812	0.8571
1821	0.8574
1830	0.8575
1839	0.8575
1848	0.8571
1857	0.8562
1866	0.8554
1875	0.8547
1884	0.8545
1893	0.8562
1902	0.854
1911	0.8514
1920	0.8501
1929	0.8491
1938	0.8481
1947	0.8475
1956	0.8473
1965	0.8471
1974	0.8484
1983	0.8499
1992	0.8514
2001	0.8536
2010	0.8574
2019	0.8575
2028	0.8563
2037	0.8549
2046	0.8537
2055	0.8527
2064	0.8516
2073	0.8504
2082	0.8493
2091	0.8482
2100	0.847
2109	0.8459
2118	0.8454
2127	0.8448
2136	0.8444
2145	0.8438
2154	0.8434
2163	0.8428
2172	0.8425
2181	0.8424
2190	0.8423
2199	0.8421
2208	0.8418
2217	0.8415
2226	0.841
2235	0.8404
2244	0.8398
2253	0.8392
2262	0.8384
2271	0.8368
2280	0.8354
2289	0.8337
2298	0.831
2307	0.8283
2316	0.8256
2325	0.8228
2334	0.8201
2343	0.8172
2352	0.8139
2361	0.8104
2370	0.8071
2379	0.8108
2388	0.823
2397	0.8313
2406	0.8315
2415	0.831
2424	0.8294
2433	0.8289
2442	0.8286
2451	0.8287
2460	0.8292
2469	0.8295
2478	0.8297
2487	0.8298
2496	0.8289
2505	0.8278
2514	0.827
2523	0.8259
2532	0.8244
2541	0.8227
2550	0.8209
2559	0.8184
2568	0.8143
2577	0.809
2586	0.8014
2595	0.7943
2604	0.7888
2613	0.7876
2622	0.7878
2631	0.7893
2640	0.7908
2649	0.7917
2658	0.7915
2667	0.7889
2676	0.7861
2685	0.7825
2694	0.7791
2703	0.7749
2712	0.7704
2721	0.759
2730	0.7518
2739	0.7521
2748	0.7545
2757	0.7575
2766	0.7572
2775	0.7535
2784	0.7496
2793	0.743
2802	0.7292
2811	0.7022
2820	0.6582
2829	0.586
2838	0.514
2847	0.4436
2856	0.3912
2865	0.2071
2874	0.1089
2883	0.0711
2892	0.1273
2901	0.1323
2910	0.1017
2919	0.086
2928	0.0726
2937	0.0605
2946	0.0563
2955	0.0576
2964	0.0331
2973	0.0177
2982	0.0179
2991	0.1681
3000	0.4485
3009	0.5621
3018	0.6544
3027	0.698
3036	0.7339
3045	0.7533
3054	0.7638
3063	0.7718
3072	0.779
3081	0.7858
3090	0.7918
3099	0.7947
3108	0.796
3117	0.796
3126	0.795
3135	0.7932
3144	0.7911
3153	0.7882
3162	0.7848
3171	0.7818
3180	0.7801
3189	0.7801
3198	0.7818
3207	0.7845
3216	0.7881
3225	0.7906
3234	0.7918
3243	0.7912
3252	0.7897
3261	0.7851
3270	0.7795
3279	0.7725
3288	0.7646
3297	0.7562
3306	0.7478
3315	0.7353
3324	0.7226
3333	0.7103
3342	0.698
3351	0.686
3360	0.6743
3369	0.6625
3378	0.6514
3387	0.6403
3396	0.6293
3405	0.6194
3414	0.6099
3423	0.6003
3432	0.5918
3441	0.5832
3450	0.5748
3459	0.5667
3468	0.5588
3477	0.5508
3486	0.5429
3495	0.535
3504	0.5275
3513	0.5237
3522	0.5244
3531	0.5283
3540	0.551
3549	0.5696
3558	0.608
3567	0.6489
3576	0.6753
3585	0.6931
3594	0.7035
3603	0.7068
3612	0.7006
3621	0.6005
3630	0.5921
3639	0.5704
3648	0.4817
3657	0.539
3666	0.6994
3675	0.743
3684	0.755
3693	0.7612
3702	0.7665
3711	0.7744
3720	0.7908
3729	0.7993
3738	0.8034
3747	0.8048
3756	0.8065
3765	0.8081
3774	0.8091
3783	0.81
3792	0.8107
3801	0.8111
3810	0.8125
