Infrared Spectrum: 1,2-DIETHYLBENZENE
Formula: C10 H14
CAS: 135-01-3
State: LIQUID
Class: COBLENTZ
Instrument: PERKIN-ELMER
Sampling: TRANSMISSION
Path length: 0.0025 CM
Resolution: 4
Origin: STANDARD OIL OF OHIO
1/CM	TRANSMITTANCE
582.677	0.617
591.109	0.61
599.54	0.609
607.972	0.614
616.404	0.622
624.836	0.6359
633.267	0.6589
641.699	0.6849
650.131	0.6999
658.562	0.7188
666.994	0.7369
675.426	0.7577
683.858	0.764
692.289	0.7513
700.721	0.7008
709.153	0.5241
717.584	0.5191
726.016	0.4605
734.448	0.465
742.879	0.3209
751.311	0.0129
759.743	0.0898
768.175	0.5154
776.606	0.6004
785.038	0.5007
793.47	0.4234
801.901	0.6492
810.333	0.6645
818.765	0.8159
827.197	0.8637
835.628	0.873
844.06	0.876
852.492	0.8692
860.923	0.848
869.355	0.8499
877.787	0.8778
886.219	0.884
894.65	0.8878
903.082	0.886
911.514	0.881
919.945	0.8696
928.377	0.8235
936.809	0.743
945.241	0.8168
953.672	0.7459
962.104	0.6581
970.536	0.765
978.967	0.7926
987.399	0.8481
995.831	0.859
1004.26	0.8514
1012.69	0.8356
1021.13	0.781
1029.56	0.6209
1037.99	0.6974
1046.42	0.7048
1054.85	0.4116
1063.28	0.5415
1071.72	0.7439
1080.15	0.8458
1088.58	0.854
1097.01	0.8477
1105.44	0.8295
1113.87	0.7996
1122.31	0.7582
1130.74	0.8002
1139.17	0.849
1147.6	0.8314
1156.03	0.8244
1164.46	0.8192
1172.9	0.7956
1181.33	0.861
1189.76	0.8644
1198.19	0.862
1206.62	0.864
1215.06	0.866
1223.49	0.8531
1231.92	0.8359
1240.35	0.83
1248.78	0.837
1257.21	0.8292
1265.65	0.8077
1274.08	0.7852
1282.51	0.7895
1290.94	0.7852
1299.37	0.78
1307.8	0.7787
1316.24	0.7595
1324.67	0.7588
1333.1	0.761
1341.53	0.7977
1349.96	0.7943
1358.39	0.7089
1366.83	0.4813
1375.26	0.6702
1383.69	0.7732
1392.12	0.7785
1400.55	0.7624
1408.98	0.7253
1417.42	0.6814
1425.85	0.6227
1434.28	0.5359
1442.71	0.3701
1451.14	0.1152
1459.57	0.167
1468.01	0.2025
1476.44	0.4627
1484.87	0.3779
1493.3	0.177
1501.73	0.6763
1510.17	0.7894
1518.6	0.8289
1527.03	0.8654
1535.46	0.8754
1543.89	0.879
1552.32	0.883
1560.76	0.879
1569.19	0.8733
1577.62	0.836
1586.05	0.8553
1594.48	0.842
1602.91	0.7205
1611.35	0.8333
1619.78	0.8346
1628.21	0.8755
1636.64	0.893
1645.07	0.898
1653.5	0.8954
1661.94	0.8993
1670.37	0.898
1678.8	0.8878
1687.23	0.869
1695.66	0.8834
1704.09	0.9
1712.53	0.8961
1720.96	0.8729
1729.39	0.8672
1737.82	0.8953
1746.25	0.9126
1754.68	0.915
1763.12	0.915
1771.55	0.915
1779.98	0.913
1788.41	0.9
1796.84	0.8519
1805.27	0.8258
1813.71	0.9006
1822.14	0.91
1830.57	0.8781
1839	0.8713
1847.43	0.9191
1855.87	0.922
1864.3	0.9163
1872.73	0.893
1881.16	0.9017
1889.59	0.912
1898.02	0.8915
1906.46	0.7945
1914.89	0.8157
1923.32	0.8878
1931.75	0.8883
1940.18	0.8515
1948.61	0.8617
1957.05	0.9078
1965.48	0.9291
1973.91	0.934
1982.34	0.9329
1990.77	0.93
1999.2	0.928
2007.64	0.931
2016.07	0.9275
2024.5	0.925
2032.93	0.9275
2041.36	0.93
2049.79	0.932
2058.23	0.934
2066.66	0.934
2075.09	0.934
2083.52	0.932
2091.95	0.93
2100.38	0.93
2108.82	0.93
2117.25	0.932
2125.68	0.932
2134.11	0.93
2142.54	0.928
2150.97	0.93
2159.41	0.93
2167.84	0.93
2176.27	0.928
2184.7	0.928
2193.13	0.928
2201.57	0.928
2210	0.927
2218.43	0.925
2226.86	0.923
2235.29	0.922
2243.72	0.923
2252.16	0.921
2260.59	0.922
2269.02	0.922
2277.45	0.922
2285.88	0.922
2294.31	0.922
2302.75	0.92
2311.18	0.914
2319.61	0.906
2328.04	0.908
2336.47	0.91
2344.9	0.913
2353.34	0.916
2361.77	0.918
2370.2	0.92
2378.63	0.92
2387.06	0.921
2395.49	0.919
2403.93	0.916
2412.36	0.9125
2420.79	0.907
2429.22	0.906
2437.65	0.916
2446.08	0.92
2454.52	0.922
2462.95	0.921
2471.38	0.919
2479.81	0.918
2488.24	0.917
2496.68	0.917
2505.11	0.915
2513.54	0.913
2521.97	0.913
2530.4	0.913
2538.83	0.912
2547.27	0.912
2555.7	0.912
2564.13	0.912
2572.56	0.912
2580.99	0.912
2589.42	0.908
2597.86	0.9029
2606.29	0.898
2614.72	0.891
2623.15	0.887
2631.58	0.887
2640.01	0.899
2648.45	0.905
2656.88	0.905
2665.31	0.906
2673.74	0.905
2682.17	0.9
2690.6	0.897
2699.04	0.895
2707.47	0.893
2715.9	0.8844
2724.33	0.8614
2732.76	0.8541
2741.19	0.87
2749.63	0.87
2758.06	0.8604
2766.49	0.85
2774.92	0.838
2783.35	0.829
2791.78	0.823
2800.22	0.8175
2808.65	0.8054
2817.08	0.7693
2825.51	0.7219
2833.94	0.6873
2842.38	0.6302
2850.81	0.5653
2859.24	0.4965
2867.67	0.3186
2876.1	0.1133
2884.53	0.0699
2892.97	0.1758
2901.4	0.2046
2909.83	0.213
2918.26	0.2009
2926.69	0.1478
2935.12	0.0349
2943.56	0.0516
2951.99	0.088
2960.42	0.0567
2968.85	0.0005
2977.28	0.0031
2985.71	0.0582
2994.15	0.2099
3002.58	0.3835
3011.01	0.3988
3019.44	0.2766
3027.87	0.2429
3036.3	0.3386
3044.74	0.449
3053.17	0.488
3061.6	0.4157
3070.03	0.3509
3078.46	0.4056
3086.89	0.7166
3095.33	0.7363
3103.76	0.691
3112.19	0.762
3120.62	0.8466
3129.05	0.855
3137.48	0.8565
3145.92	0.848
3154.35	0.843
3162.78	0.8515
3171.21	0.865
3179.64	0.8746
3188.08	0.884
3196.51	0.889
3204.94	0.892
3213.37	0.897
3221.8	0.9
3230.23	0.901
3238.67	0.901
3247.1	0.901
3255.53	0.903
3263.96	0.904
3272.39	0.905
3280.82	0.905
3289.26	0.906
3297.69	0.906
3306.12	0.905
3314.55	0.903
3322.98	0.903
3331.41	0.904
3339.85	0.905
3348.28	0.905
3356.71	0.903
3365.14	0.903
3373.57	0.903
3382	0.903
3390.44	0.905
3398.87	0.904
3407.3	0.903
3415.73	0.903
3424.16	0.903
3432.59	0.901
3441.03	0.9
3449.46	0.901
3457.89	0.901
3466.32	0.901
3474.75	0.901
3483.19	0.901
3491.62	0.901
3500.05	0.902
3508.48	0.901
3516.91	0.901
3525.34	0.901
3533.78	0.902
3542.21	0.903
3550.64	0.904
3559.07	0.903
3567.5	0.902
3575.93	0.901
3584.37	0.901
3592.8	0.901
3601.23	0.901
3609.66	0.9
3618.09	0.9005
3626.52	0.901
3634.96	0.9005
3643.39	0.899
3651.82	0.895
3660.25	0.895
3668.68	0.895
3677.11	0.895
3685.55	0.895
3693.98	0.892
3702.41	0.891
3710.84	0.891
3719.27	0.893
3727.7	0.893
3736.14	0.893
3744.57	0.893
3753	0.895
3761.43	0.895
3769.86	0.893
3778.29	0.893
3786.73	0.893
3795.16	0.893
3803.59	0.891
3812.02	0.888
3820.45	0.886
3828.89	0.884
3837.32	0.884
3845.75	0.884
3854.18	0.883
3862.61	0.883
3871.04	0.884
3879.48	0.884
3887.91	0.884
3896.34	0.883
3904.77	0.879
3913.2	0.878
3921.63	0.876
3930.07	0.878
3938.5	0.8785
