Infrared Spectrum: BENZENE, (1-METHYLPROPYL)-
Formula: C10 H14
CAS: 135-98-8
State: LIQUID (NEAT)
Class: COBLENTZ III
Instrument: PERKIN-ELMER 521 (GRATING)
Sampling: TRANSMISSION
Path length: 0.0025 CM
Resolution: 4
Origin: STANDARD OIL OF OHIO
1/CM	TRANSMITTANCE
580.546	0.627
589.781	0.61
599.016	0.603
608.251	0.609
617.485	0.619
626.72	0.6359
635.955	0.653
645.19	0.6639
654.425	0.6789
663.66	0.6811
672.894	0.6403
682.129	0.5547
691.364	0.2028
700.599	0.0298
709.834	0.5874
719.069	0.681
728.303	0.5246
737.538	0.5644
746.773	0.3641
756.008	0.127
765.243	0.1464
774.478	0.7092
783.712	0.7523
792.947	0.7479
802.182	0.7263
811.417	0.7502
820.652	0.8597
829.887	0.8535
839.121	0.8262
848.356	0.8488
857.591	0.8644
866.826	0.8748
876.061	0.8732
885.296	0.8654
894.531	0.8427
903.765	0.6357
913	0.83
922.235	0.869
931.47	0.871
940.705	0.8577
949.94	0.8197
959.174	0.6761
968.409	0.8015
977.644	0.809
986.879	0.7862
996.114	0.6075
1005.35	0.6629
1014.58	0.5879
1023.82	0.6914
1033.05	0.7023
1042.29	0.8233
1051.52	0.7159
1060.76	0.7151
1069.99	0.7737
1079.23	0.6551
1088.46	0.7006
1097.7	0.8029
1106.93	0.8173
1116.17	0.8406
1125.4	0.8345
1134.64	0.8247
1143.87	0.7977
1153.11	0.8122
1162.34	0.8488
1171.58	0.8386
1180.81	0.8232
1190.05	0.858
1199.28	0.8524
1208.52	0.8637
1217.75	0.8679
1226.98	0.8589
1236.22	0.8382
1245.45	0.8224
1254.69	0.8135
1263.92	0.8145
1273.16	0.802
1282.39	0.793
1291.63	0.78
1300.86	0.7369
1310.1	0.797
1319.33	0.759
1328.57	0.7775
1337.8	0.774
1347.04	0.7291
1356.27	0.6844
1365.51	0.5196
1374.74	0.376
1383.98	0.7327
1393.21	0.7895
1402.45	0.7867
1411.68	0.7708
1420.92	0.7401
1430.15	0.7143
1439.39	0.6176
1448.62	0.3055
1457.86	0.1862
1467.09	0.2749
1476.33	0.6738
1485.56	0.6232
1494.8	0.172
1504.03	0.7682
1513.26	0.8075
1522.5	0.8457
1531.73	0.8465
1540.97	0.8451
1550.2	0.8744
1559.44	0.8777
1568.67	0.8703
1577.91	0.8327
1587.14	0.739
1596.38	0.6921
1605.61	0.4495
1614.85	0.7935
1624.08	0.884
1633.32	0.8903
1642.55	0.8877
1651.79	0.8777
1661.02	0.8624
1670.26	0.853
1679.49	0.8943
1688.73	0.899
1697.96	0.8988
1707.2	0.895
1716.43	0.8838
1725.67	0.8785
1734.9	0.8563
1744.14	0.8198
1753.37	0.8763
1762.61	0.9042
1771.84	0.9038
1781.08	0.9034
1790.31	0.8905
1799.54	0.8303
1808.78	0.8366
1818.01	0.8707
1827.25	0.9053
1836.48	0.908
1845.72	0.9067
1854.95	0.8897
1864.19	0.8361
1873.42	0.8178
1882.66	0.8434
1891.89	0.8751
1901.13	0.907
1910.36	0.9079
1919.6	0.901
1928.83	0.8856
1938.07	0.8373
1947.3	0.7736
1956.54	0.8439
1965.77	0.8734
1975.01	0.9091
1984.24	0.911
1993.48	0.915
2002.71	0.9181
2011.95	0.92
2021.18	0.92
2030.42	0.921
2039.65	0.921
2048.89	0.92
2058.12	0.92
2067.36	0.92
2076.59	0.921
2085.82	0.921
2095.06	0.918
2104.29	0.917
2113.53	0.9181
2122.76	0.92
2132	0.917
2141.23	0.92
2150.47	0.917
2159.7	0.917
2168.94	0.918
2178.17	0.918
2187.41	0.915
2196.64	0.916
2205.88	0.916
2215.11	0.916
2224.35	0.915
2233.58	0.913
2242.82	0.913
2252.05	0.913
2261.29	0.911
2270.52	0.9121
2279.76	0.911
2288.99	0.907
2298.23	0.905
2307.46	0.9
2316.7	0.8991
2325.93	0.899
2335.17	0.899
2344.4	0.901
2353.64	0.903
2362.87	0.903
2372.1	0.903
2381.34	0.9
2390.57	0.9011
2399.81	0.901
2409.04	0.904
2418.28	0.907
2427.51	0.905
2436.75	0.907
2445.98	0.904
2455.22	0.904
2464.45	0.905
2473.69	0.907
2482.92	0.907
2492.16	0.9071
2501.39	0.909
2510.63	0.911
2519.86	0.9109
2529.1	0.908
2538.33	0.9029
2547.57	0.896
2556.8	0.8909
2566.04	0.888
2575.27	0.886
2584.51	0.884
2593.74	0.884
2602.98	0.886
2612.21	0.887
2621.45	0.89
2630.68	0.888
2639.92	0.89
2649.15	0.8881
2658.38	0.89
2667.62	0.887
2676.85	0.886
2686.09	0.886
2695.32	0.884
2704.56	0.8709
2713.79	0.867
2723.03	0.8599
2732.26	0.845
2741.5	0.8504
2750.73	0.8711
2759.97	0.871
2769.2	0.8669
2778.44	0.8568
2787.67	0.8409
2796.91	0.8257
2806.14	0.7878
2815.38	0.7659
2824.61	0.743
2833.85	0.7198
2843.08	0.6918
2852.32	0.6035
2861.55	0.3066
2870.79	0.1875
2880.02	0.0595
2889.26	0.102
2898.49	0.2159
2907.73	0.1806
2916.96	0.1075
2926.2	0.0319
2935.43	0.027
2944.66	0.0815
2953.9	0.0594
2963.13	0.002
2972.37	0.001
2981.6	0.07
2990.84	0.3678
3000.07	0.5111
3009.31	0.5086
3018.54	0.5373
3027.78	0.2987
3037.01	0.1333
3046.25	0.4017
3055.48	0.5429
3064.72	0.4183
3073.95	0.3581
3083.19	0.5024
3092.42	0.4008
3101.66	0.6489
3110.89	0.692
3120.13	0.7981
3129.36	0.8362
3138.6	0.8541
3147.83	0.856
3157.07	0.854
3166.3	0.856
3175.54	0.8601
3184.77	0.864
3194.01	0.8671
3203.24	0.875
3212.48	0.881
3221.71	0.886
3230.94	0.89
3240.18	0.8941
3249.41	0.895
3258.65	0.896
3267.88	0.896
3277.12	0.898
3286.35	0.899
3295.59	0.899
3304.82	0.899
3314.06	0.898
3323.29	0.898
3332.53	0.899
3341.76	0.899
3351	0.899
3360.23	0.898
3369.47	0.896
3378.7	0.895
3387.94	0.894
3397.17	0.895
3406.41	0.895
3415.64	0.895
3424.88	0.895
3434.11	0.895
3443.35	0.896
3452.58	0.898
3461.82	0.898
3471.05	0.896
3480.29	0.894
3489.52	0.8939
3498.76	0.895
3507.99	0.895
3517.22	0.8961
3526.46	0.899
3535.69	0.899
3544.93	0.899
3554.16	0.899
3563.4	0.898
3572.63	0.896
3581.87	0.894
3591.1	0.895
3600.34	0.894
3609.57	0.892
3618.81	0.891
3628.04	0.891
3637.28	0.888
3646.51	0.887
3655.75	0.887
3664.98	0.888
3674.22	0.887
3683.45	0.887
3692.69	0.89
3701.92	0.8871
3711.16	0.888
3720.39	0.888
3729.63	0.888
3738.86	0.888
3748.1	0.887
3757.33	0.888
3766.57	0.888
3775.8	0.887
3785.04	0.887
3794.27	0.8879
3803.5	0.887
3812.74	0.886
3821.97	0.886
3831.21	0.884
3840.44	0.886
3849.68	0.884
3858.91	0.884
3868.15	0.883
3877.38	0.884
3886.62	0.884
3895.85	0.883
3905.09	0.881
3914.32	0.879
3923.56	0.879
3932.79	0.879
3942.03	0.879
3951.26	0.879
