Infrared Spectrum: ACETOPHENONE, Alpha-BROMO-p-PHENYL-
Formula: C14 H11 Br O
CAS: 135-73-9
State: SOLID (NUJOL MULL)
Class: COBLENTZ III
Instrument: DOW NaCl PRISM SPECTROMETER
Sampling: TRANSMISSION
Resolution: 2
Origin: DOW CHEMICAL COMPANY
1/CM	TRANSMITTANCE
4000	0.4525
3991	0.4536
3982	0.4549
3973	0.4562
3964	0.4574
3955	0.4587
3946	0.4599
3937	0.4612
3928	0.4626
3919	0.4639
3910	0.4653
3901	0.4666
3892	0.4679
3883	0.469
3874	0.4702
3865	0.4712
3856	0.4724
3847	0.4735
3838	0.4746
3829	0.4756
3820	0.4766
3811	0.4775
3802	0.4785
3793	0.4794
3784	0.4804
3775	0.4812
3766	0.4823
3757	0.4833
3748	0.4843
3739	0.4852
3730	0.4862
3721	0.4873
3712	0.4883
3703	0.4893
3694	0.4903
3685	0.4914
3676	0.4926
3667	0.4938
3658	0.495
3649	0.496
3640	0.4974
3631	0.4986
3622	0.4998
3613	0.501
3604	0.5023
3595	0.5036
3586	0.5049
3577	0.506
3568	0.5074
3559	0.5087
3550	0.51
3541	0.5115
3532	0.5128
3523	0.5142
3514	0.5157
3505	0.5172
3496	0.5185
3487	0.52
3478	0.5215
3469	0.523
3460	0.5241
3451	0.5248
3442	0.5255
3433	0.5262
3424	0.527
3415	0.5274
3406	0.5276
3397	0.528
3388	0.5284
3379	0.5295
3370	0.5308
3361	0.532
3352	0.5333
3343	0.5346
3334	0.536
3325	0.5373
3316	0.5386
3307	0.5398
3298	0.5412
3289	0.5427
3280	0.5443
3271	0.5458
3262	0.5473
3253	0.549
3244	0.5507
3235	0.5524
3226	0.5543
3217	0.5562
3208	0.558
3199	0.5595
3190	0.561
3181	0.5626
3172	0.5635
3163	0.5642
3154	0.5646
3145	0.5647
3136	0.5647
3127	0.563
3118	0.5608
3109	0.5577
3100	0.5532
3091	0.5472
3082	0.5394
3073	0.5309
3064	0.5235
3055	0.5175
3046	0.5125
3037	0.5089
3028	0.5075
3019	0.5051
3010	0.5016
3001	0.4943
2992	0.4358
2983	0.364
2974	0.2917
2965	0.219
2956	0.1458
2947	0.1022
2938	0.1027
2929	0.124
2920	0.1734
2911	0.2232
2902	0.2653
2893	0.2698
2884	0.2745
2875	0.2792
2866	0.3253
2857	0.4169
2848	0.5091
2839	0.6004
2830	0.6301
2821	0.6457
2812	0.6548
2803	0.6618
2794	0.6675
2785	0.671
2776	0.6726
2767	0.6737
2758	0.6732
2749	0.6718
2740	0.6708
2731	0.6698
2722	0.6695
2713	0.6695
2704	0.6707
2695	0.6718
2686	0.6736
2677	0.6755
2668	0.6775
2659	0.6792
2650	0.681
2641	0.6828
2632	0.6847
2623	0.6865
2614	0.6885
2605	0.6905
2596	0.6931
2587	0.6955
2578	0.698
2569	0.7006
2560	0.7033
2551	0.7061
2542	0.7087
2533	0.7115
2524	0.7136
2515	0.7157
2506	0.7176
2497	0.7198
2488	0.7217
2479	0.7235
2470	0.7251
2461	0.7271
2452	0.7289
2443	0.7308
2434	0.7326
2425	0.7342
2416	0.7358
2407	0.7375
2398	0.7392
2389	0.7411
2380	0.743
2371	0.7449
2362	0.7468
2353	0.7488
2344	0.7511
2335	0.7533
2326	0.7557
2317	0.7578
2308	0.7601
2299	0.7622
2290	0.7644
2281	0.7664
2272	0.7678
2263	0.7694
2254	0.7708
2245	0.7722
2236	0.7737
2227	0.7751
2218	0.7761
2209	0.7774
2200	0.7786
2191	0.7796
2182	0.7805
2173	0.7817
2164	0.7864
2155	0.7914
2146	0.7934
2137	0.7951
2128	0.7969
2119	0.7984
2110	0.7995
2101	0.8007
2092	0.8018
2083	0.8031
2074	0.8043
2065	0.8054
2056	0.8078
2047	0.8108
2038	0.8146
2029	0.8174
2020	0.8202
2011	0.8218
2002	0.8235
1993	0.8249
1984	0.8262
1975	0.8264
1966	0.8262
1957	0.8254
1948	0.8218
1939	0.8164
1930	0.8191
1921	0.828
1912	0.8335
1903	0.8311
1894	0.8295
1885	0.8309
1876	0.8389
1867	0.8421
1858	0.8446
1849	0.8496
1840	0.8527
1831	0.8528
1822	0.8487
1813	0.8413
1804	0.8409
1795	0.8452
1786	0.8573
1777	0.858
1768	0.8568
1759	0.8618
1750	0.8668
1741	0.8708
1732	0.8727
1723	0.8706
1714	0.8621
1705	0.8198
1696	0.7097
1687	0.3079
1678	0.428
1669	0.7198
1660	0.7881
1651	0.8118
1642	0.839
1633	0.8492
1624	0.8342
1615	0.7247
1606	0.4197
1597	0.5623
1588	0.7408
1579	0.7754
1570	0.8265
1561	0.7949
1552	0.806
1543	0.828
1534	0.8434
1525	0.8418
1516	0.8387
1507	0.8461
1498	0.8638
1489	0.7928
1480	0.7521
1471	0.6443
1462	0.5756
1453	0.606
1444	0.8021
1435	0.8452
1426	0.8368
1417	0.7228
1408	0.6152
1399	0.5849
1390	0.526
1381	0.5319
1372	0.7239
1363	0.7911
1354	0.8298
1345	0.8384
1336	0.8371
1327	0.7615
1318	0.8158
1309	0.8392
1300	0.7401
1291	0.7268
1282	0.7204
1273	0.8185
1264	0.8645
1255	0.884
1246	0.8843
1237	0.8841
1228	0.8747
1219	0.8275
1210	0.5638
1201	0.3169
1192	0.5322
1183	0.7041
1174	0.7978
1165	0.8225
1156	0.8033
1147	0.827
1138	0.8432
1129	0.8362
1120	0.8365
1111	0.8308
1102	0.8728
1093	0.8813
1084	0.8825
1075	0.8197
1066	0.8866
1057	0.8983
1048	0.9059
1039	0.9096
1030	0.9071
1021	0.7864
1012	0.8899
1003	0.8181
994	0.6001
985	0.7003
976	0.8316
967	0.8637
958	0.8859
949	0.8978
940	0.9047
931	0.9046
922	0.8857
913	0.9108
904	0.9177
895	0.9189
886	0.9156
877	0.9159
868	0.9143
859	0.9102
850	0.8903
841	0.8141
832	0.5604
823	0.8488
814	0.8807
805	0.9089
796	0.8933
787	0.8893
778	0.8594
769	0.6678
760	0.3776
751	0.8321
742	0.834
733	0.8171
724	0.6694
715	0.7843
706	0.6439
697	0.4641
688	0.506
679	0.6505
670	0.6526
661	0.6207
652	0.5916
643	0.5467
634	0.5145
