Infrared Spectrum: 2-Naphthylamine, N-phenyl
Formula: C16 H13 N
CAS: 135-88-6
State: SOLID (SPLIT MULL), FLUOROLUBE FOR 3800-1330 CM^-^1, NUJOL FOR 1330-460 CM^-^1
Class: COBLENTZ III
Instrument: DOW KBr FOREPRISM-GRATING
Instrument parameters: BLAZED AT 3.5, 12.0, 20.0 MICRON AND CHANGED AT 5.0, 7.5, 14.9 MICRON
Sampling: TRANSMISSION
Resolution: 2
Origin: DOW CHEMICAL COMPANY
1/CM	TRANSMITTANCE
463	0.6662
472	0.5297
481	0.7253
490	0.6247
499	0.8315
508	0.8389
517	0.824
526	0.8652
535	0.8642
544	0.8649
553	0.8651
562	0.8685
571	0.8749
580	0.8782
589	0.8768
598	0.8671
607	0.8662
616	0.8481
625	0.8704
634	0.874
643	0.8627
652	0.7946
661	0.8315
670	0.8438
679	0.8278
688	0.7462
697	0.5645
706	0.8414
715	0.8018
724	0.6915
733	0.4078
742	0.2801
751	0.5552
760	0.5635
769	0.6578
778	0.6691
787	0.8368
796	0.8654
805	0.8377
814	0.6484
823	0.5651
832	0.6933
841	0.718
850	0.544
859	0.5396
868	0.8349
877	0.5945
886	0.7568
895	0.8595
904	0.8637
913	0.7972
922	0.8657
931	0.8571
940	0.8165
949	0.8108
958	0.6971
967	0.7831
976	0.8184
985	0.8435
994	0.8373
1003	0.8525
1012	0.7636
1021	0.8268
1030	0.8485
1039	0.8511
1048	0.8435
1057	0.841
1066	0.8189
1075	0.7203
1084	0.8338
1093	0.8325
1102	0.8212
1111	0.8068
1120	0.6203
1129	0.8039
1138	0.7644
1147	0.7568
1156	0.739
1165	0.729
1174	0.5941
1183	0.7414
1192	0.778
1201	0.7685
1210	0.7291
1219	0.7197
1228	0.6971
1237	0.543
1246	0.6862
1255	0.6958
1264	0.6325
1273	0.6271
1282	0.5984
1291	0.393
1300	0.1183
1309	0.1462
1318	0.651
1327	0.6345
1336	0.6252
1345	0.7012
1354	0.7424
1363	0.7445
1372	0.7304
1381	0.7118
1390	0.7675
1399	0.7551
1408	0.6985
1417	0.3041
1426	0.7618
1435	0.7568
1444	0.7299
1453	0.6875
1462	0.6017
1471	0.6101
1480	0.6362
1489	0.4702
1498	0.0796
1507	0.1928
1516	0.612
1525	0.776
1534	0.7815
1543	0.7706
1552	0.759
1561	0.7196
1570	0.6678
1579	0.5637
1588	0.4239
1597	0.1346
1606	0.2449
1615	0.6936
1624	0.4924
1633	0.4137
1642	0.7718
1651	0.822
1660	0.8338
1669	0.822
1678	0.8078
1687	0.8004
1696	0.8041
1705	0.8042
1714	0.7987
1723	0.7932
1732	0.7942
1741	0.7958
1750	0.7867
1759	0.7901
1768	0.7878
1777	0.7804
1786	0.7721
1795	0.7698
1804	0.7756
1813	0.778
1822	0.7715
1831	0.7708
1840	0.7643
1849	0.7625
1858	0.7684
1867	0.7672
1876	0.763
1885	0.7593
1894	0.7578
1903	0.7587
1912	0.7487
1921	0.7501
1930	0.7428
1939	0.7331
1948	0.733
1957	0.755
1966	0.755
1975	0.7493
1984	0.7447
1993	0.7412
2002	0.7378
2011	0.7401
2020	0.7328
2029	0.7282
2038	0.7241
2047	0.7217
2056	0.7194
2065	0.7169
2074	0.7142
2083	0.7108
2092	0.7072
2101	0.7036
2110	0.7
2119	0.6965
2128	0.6931
2137	0.6896
2146	0.6861
2155	0.6825
2164	0.679
2173	0.6754
2182	0.6718
2191	0.6675
2200	0.663
2209	0.6583
2218	0.6543
2227	0.6508
2236	0.6475
2245	0.6441
2254	0.6408
2263	0.6378
2272	0.6348
2281	0.6325
2290	0.6303
2299	0.6281
2308	0.626
2317	0.6238
2326	0.6223
2335	0.6207
2344	0.6198
2353	0.6192
2362	0.6186
2371	0.618
2380	0.6177
2389	0.6174
2398	0.6167
2407	0.6159
2416	0.6152
2425	0.6144
2434	0.6138
2443	0.6131
2452	0.6122
2461	0.611
2470	0.6095
2479	0.6059
2488	0.6053
2497	0.6051
2506	0.6028
2515	0.5977
2524	0.5944
2533	0.5928
2542	0.5905
2551	0.5878
2560	0.5851
2569	0.5829
2578	0.5809
2587	0.5788
2596	0.5767
2605	0.5748
2614	0.5732
2623	0.5716
2632	0.57
2641	0.5684
2650	0.5668
2659	0.5652
2668	0.5636
2677	0.562
2686	0.5604
2695	0.5587
2704	0.5567
2713	0.5545
2722	0.5523
2731	0.5501
2740	0.5479
2749	0.5459
2758	0.5441
2767	0.5423
2776	0.5405
2785	0.5387
2794	0.5367
2803	0.5346
2812	0.5326
2821	0.5306
2830	0.5285
2839	0.5262
2848	0.5241
2857	0.5218
2866	0.5189
2875	0.5155
2884	0.5121
2893	0.508
2902	0.5038
2911	0.4984
2920	0.4927
2929	0.4909
2938	0.4905
2947	0.4891
2956	0.4862
2965	0.483
2974	0.4795
2983	0.4755
2992	0.4715
3001	0.4655
3010	0.4556
3019	0.441
3028	0.4226
3037	0.4134
3046	0.3966
3055	0.3418
3064	0.4354
3073	0.4574
3082	0.4607
3091	0.4634
3100	0.4662
3109	0.4687
3118	0.4706
3127	0.4702
3136	0.469
3145	0.4666
3154	0.4643
3163	0.4619
3172	0.4596
3181	0.4572
3190	0.4551
3199	0.4532
3208	0.4512
3217	0.4493
3226	0.4474
3235	0.4455
3244	0.4432
3253	0.4408
3262	0.4385
3271	0.4357
3280	0.4327
3289	0.4295
3298	0.426
3307	0.4226
3316	0.4183
3325	0.4137
3334	0.4076
3343	0.4004
3352	0.39
3361	0.3746
3370	0.3524
3379	0.3123
3388	0.2025
3397	0.1644
3406	0.3693
3415	0.4277
3424	0.4298
3433	0.4295
3442	0.4281
3451	0.4265
3460	0.4247
3469	0.4221
3478	0.419
3487	0.4159
3496	0.4129
3505	0.411
3514	0.4096
3523	0.408
3532	0.4068
3541	0.4055
3550	0.4043
3559	0.403
3568	0.4016
3577	0.4002
3586	0.3989
3595	0.3966
3604	0.3946
3613	0.3924
3622	0.3905
3631	0.3887
3640	0.3868
3649	0.385
3658	0.3834
3667	0.3818
3676	0.3804
3685	0.3789
3694	0.3773
3703	0.3757
3712	0.3742
3721	0.3725
3730	0.3706
3739	0.3687
3748	0.3668
3757	0.3652
3766	0.3636
3775	0.3618
3784	0.3599
3793	0.3582
