Infrared Spectrum: O-CHLORO-Alpha-METHYLBENZYL ALCOHOL
Formula: C8 H9 Cl O
CAS: 13524-04-4
State: SOLUTION (10% CCl4 FOR 2.5-7.5, 10% CS2 FOR 7.5-15 MICRON)
Class: COBLENTZ
Instrument: Not specified, most likely a prism, grating, or hybrid spectrometer.
Sampling: TRANSMISSION
Path length: 0.01 CM, 0.01 CM
Resolution: 4
Origin: DOW CHEMICAL COMPANY
MICROMETERS	TRANSMITTANCE
2.067	0.9
2.10613	0.895
2.14526	0.895
2.18439	0.898
2.22352	0.897
2.26265	0.893
2.30178	0.893
2.34091	0.9
2.38004	0.897
2.41917	0.884
2.4583	0.889
2.49743	0.902
2.53656	0.9
2.57569	0.898
2.61482	0.902
2.65395	0.903
2.69308	0.89
2.73221	0.804
2.77134	0.694
2.81047	0.738
2.8496	0.632
2.88873	0.541
2.92786	0.502
2.967	0.486
3.00613	0.52
3.04526	0.587
3.08439	0.691
3.12352	0.778
3.16265	0.818
3.20178	0.835
3.24091	0.776
3.28004	0.76
3.31917	0.769
3.3583	0.574
3.39743	0.729
3.43656	0.747
3.47569	0.812
3.51482	0.864
3.55395	0.867
3.59308	0.882
3.63221	0.88
3.67134	0.88
3.71047	0.884
3.7496	0.889
3.78873	0.892
3.82786	0.895
3.86699	0.898
3.90612	0.898
3.94525	0.898
3.98438	0.9
4.02351	0.902
4.06264	0.907
4.10177	0.907
4.1409	0.905
4.18003	0.897
4.21916	0.897
4.25829	0.902
4.29742	0.902
4.33655	0.897
4.37568	0.893
4.41481	0.91
4.45394	0.915
4.49307	0.918
4.5322	0.921
4.57133	0.921
4.61046	0.92
4.64959	0.92
4.68873	0.92
4.72786	0.92
4.76699	0.92
4.80612	0.92
4.84525	0.918
4.88438	0.918
4.92351	0.918
4.96264	0.911
5.00177	0.905
5.0409	0.91
5.08003	0.897
5.11916	0.884
5.15829	0.893
5.19742	0.867
5.23655	0.898
5.27568	0.9
5.31481	0.907
5.35394	0.911
5.39307	0.905
5.4322	0.89
5.47133	0.9
5.51046	0.866
5.54959	0.887
5.58872	0.918
5.62785	0.913
5.66698	0.918
5.70611	0.915
5.74524	0.913
5.78437	0.9
5.8235	0.902
5.86263	0.889
5.90176	0.89
5.94089	0.905
5.98002	0.907
6.01915	0.9
6.05828	0.9
6.09741	0.882
6.13654	0.849
6.17567	0.809
6.2148	0.758
6.25393	0.647
6.29306	0.624
6.33219	0.543
6.37132	0.561
6.41046	0.535
6.44959	0.515
6.48872	0.577
6.52785	0.649
6.56698	0.683
6.60611	0.732
6.64524	0.765
6.68437	0.758
6.7235	0.608
6.76263	0.451
6.80176	0.553
6.84089	0.53
6.88002	0.396
6.91915	0.35
6.95828	0.539
6.99741	0.676
7.03654	0.698
7.07567	0.691
7.1148	0.69
7.15393	0.696
7.19306	0.675
7.23219	0.606
7.27132	0.551
7.31045	0.585
7.34958	0.65
7.38871	0.605
7.42784	0.618
7.46697	0.68
7.5061	0.721
7.54523	0.75
7.58436	0.769
7.62349	0.75
7.66262	0.721
7.70175	0.698
7.74088	0.672
7.78001	0.641
7.81914	0.601
7.85827	0.554
7.8974	0.533
7.93653	0.533
7.97566	0.557
8.01479	0.662
8.05392	0.752
8.09305	0.791
8.13219	0.81
8.17132	0.815
8.21045	0.794
8.24958	0.725
8.28871	0.598
8.32784	0.616
8.36697	0.685
8.4061	0.691
8.44523	0.725
8.48436	0.766
8.52349	0.794
8.56262	0.791
8.60175	0.771
8.64088	0.776
8.68001	0.794
8.71914	0.784
8.75827	0.69
8.7974	0.554
8.83653	0.437
8.87566	0.553
8.91479	0.714
8.95392	0.698
8.99305	0.629
9.03218	0.592
9.07131	0.508
9.11044	0.386
9.14957	0.272
9.1887	0.262
9.22783	0.383
9.26696	0.463
9.30609	0.461
9.34522	0.448
9.38435	0.464
9.42348	0.489
9.46261	0.494
9.50174	0.381
9.54087	0.215
9.58	0.247
9.61913	0.296
9.65826	0.226
9.69739	0.482
9.73652	0.659
9.77565	0.693
9.81478	0.701
9.85391	0.597
9.89305	0.482
9.93218	0.406
9.97131	0.455
10.0104	0.659
10.0496	0.753
10.0887	0.812
10.1278	0.836
10.167	0.851
10.2061	0.859
10.2452	0.866
10.2843	0.874
10.3235	0.88
10.3626	0.884
10.4017	0.88
10.4409	0.874
10.48	0.869
10.5191	0.827
10.5583	0.738
10.5974	0.707
10.6365	0.787
10.6756	0.849
10.7148	0.858
10.7539	0.854
10.793	0.849
10.8322	0.841
10.8713	0.84
10.9104	0.818
10.9496	0.786
10.9887	0.704
11.0278	0.611
11.067	0.536
11.1061	0.5
11.1452	0.505
11.1843	0.561
11.2235	0.688
11.2626	0.753
11.3017	0.779
11.3409	0.792
11.38	0.797
11.4191	0.799
11.4583	0.789
11.4974	0.778
11.5365	0.763
11.5756	0.748
11.6148	0.743
11.6539	0.747
11.693	0.752
11.7322	0.769
11.7713	0.796
11.8104	0.818
11.8496	0.843
11.8887	0.866
11.9278	0.88
11.9669	0.89
12.0061	0.895
12.0452	0.897
12.0843	0.897
12.1235	0.897
12.1626	0.897
12.2017	0.897
12.2409	0.897
12.28	0.895
12.3191	0.89
12.3582	0.882
12.3974	0.879
12.4365	0.882
12.4756	0.877
12.5148	0.872
12.5539	0.866
12.593	0.859
12.6322	0.849
12.6713	0.83
12.7104	0.812
12.7496	0.794
12.7887	0.766
12.8278	0.724
12.8669	0.675
12.9061	0.605
12.9452	0.582
12.9843	0.592
13.0235	0.611
13.0626	0.595
13.1017	0.51
13.1409	0.381
13.18	0.218
13.2191	0.099
13.2582	0.024
13.2974	0.009
13.3365	0.048
13.3756	0.169
13.4148	0.42
13.4539	0.536
13.493	0.598
13.5322	0.632
13.5713	0.642
13.6104	0.642
13.6495	0.619
13.6887	0.59
13.7278	0.559
13.7669	0.569
13.8061	0.624
13.8452	0.655
13.8843	0.673
13.9235	0.678
13.9626	0.68
14.0017	0.675
14.0408	0.668
14.08	0.662
14.1191	0.652
14.1582	0.639
14.1974	0.621
14.2365	0.6
14.2756	0.57
14.3148	0.52
14.3539	0.46
14.393	0.401
14.4322	0.344
14.4713	0.336
14.5104	0.375
14.5495	0.433
14.5887	0.474
14.6278	0.507
14.6669	0.518
14.7061	0.526
14.7452	0.533
14.7843	0.536
14.8235	0.535
14.8626	0.53
14.9017	0.526
14.9408	0.523
14.98	0.525
15.0191	0.518
15.0582	0.51
15.0974	0.5
15.1365	0.494
15.1756	0.484
15.2148	0.477
15.2539	0.474
15.293	0.468
15.3321	0.46
15.3713	0.456
15.4104	0.453
15.4495	0.45
15.4887	0.443
15.5278	0.438
15.5669	0.435
15.6061	0.432
15.6452	0.43
15.6843	0.43
15.7234	0.43
15.7626	0.43
15.8017	0.427
15.8408	0.429
15.88	0.429
15.9191	0.429
