Infrared Spectrum: 1,3-DIMETHYL-4-NITRO-5-CHLOROPYRAZOLE
Formula: C5 H6 Cl N3 O2
CAS: 13551-73-0
State: SOLUTION (7% IN CHCl3 FOR 2.5-12.5 MICRON) VS. SOLVENT
Class: COBLENTZ
Instrument: PERKIN-ELMER 21 (GRATING)
Instrument parameters: FILTER CHANGE AT 10 MICRON
Sampling: TRANSMISSION
Path length: 0.010 CM
Resolution: 2
Origin: ABBOTT LABORATORIES
MICROMETERS	TRANSMITTANCE
2.486	0.877
2.51412	0.877
2.54224	0.877
2.57036	0.878
2.59848	0.88
2.6266	0.881
2.65472	0.881
2.68284	0.882
2.71096	0.882
2.73908	0.881
2.7672	0.879
2.79532	0.879
2.82344	0.878
2.85156	0.878
2.87968	0.875
2.9078	0.874
2.93592	0.872
2.96404	0.87
2.99216	0.868
3.02028	0.868
3.0484	0.871
3.07652	0.871
3.10464	0.871
3.13276	0.871
3.16088	0.873
3.189	0.873
3.21712	0.873
3.24524	0.871
3.27336	0.866
3.30148	0.86
3.3296	0.852
3.35772	0.735
3.38584	0.68
3.41396	0.755
3.44208	0.757
3.4702	0.792
3.49832	0.826
3.52644	0.837
3.55456	0.839
3.58268	0.838
3.6108	0.841
3.63892	0.854
3.66704	0.862
3.69516	0.867
3.72328	0.868
3.7514	0.877
3.77952	0.882
3.80764	0.882
3.83576	0.881
3.86388	0.875
3.892	0.874
3.92012	0.874
3.94824	0.875
3.97636	0.877
4.00448	0.877
4.03261	0.878
4.06073	0.877
4.08885	0.872
4.11697	0.87
4.14509	0.871
4.17321	0.877
4.20133	0.884
4.22945	0.896
4.25757	0.898
4.28569	0.9
4.31381	0.901
4.34193	0.905
4.37005	0.906
4.39817	0.902
4.42629	0.896
4.45441	0.894
4.48253	0.892
4.51065	0.891
4.53877	0.891
4.56689	0.891
4.59501	0.893
4.62313	0.895
4.65125	0.895
4.67937	0.893
4.70749	0.892
4.73561	0.892
4.76373	0.891
4.79185	0.891
4.81997	0.889
4.84809	0.889
4.87621	0.888
4.90433	0.888
4.93245	0.887
4.96057	0.887
4.98869	0.888
5.01681	0.888
5.04493	0.889
5.07305	0.889
5.10117	0.888
5.12929	0.887
5.15741	0.885
5.18553	0.885
5.21365	0.885
5.24177	0.885
5.26989	0.885
5.29801	0.884
5.32613	0.882
5.35425	0.881
5.38237	0.879
5.41049	0.874
5.43861	0.873
5.46673	0.878
5.49485	0.881
5.52297	0.884
5.55109	0.885
5.57921	0.885
5.60733	0.881
5.63545	0.875
5.66357	0.87
5.69169	0.861
5.71981	0.861
5.74793	0.865
5.77605	0.864
5.80417	0.864
5.83229	0.868
5.86041	0.87
5.88853	0.87
5.91665	0.867
5.94477	0.864
5.97289	0.859
6.00101	0.854
6.02913	0.851
6.05725	0.848
6.08537	0.847
6.11349	0.844
6.14161	0.84
6.16973	0.837
6.19785	0.832
6.22597	0.826
6.25409	0.818
6.28221	0.803
6.31033	0.79
6.33845	0.775
6.36657	0.747
6.39469	0.702
6.42281	0.633
6.45093	0.454
6.47905	0.144
6.50717	0.043
6.53529	0.086
6.56341	0.19
6.59153	0.334
6.61965	0.477
6.64777	0.501
6.67589	0.288
6.70401	0.153
6.73213	0.189
6.76025	0.305
6.78837	0.446
6.81649	0.464
6.84461	0.4
6.87273	0.103
6.90085	0.113
6.92897	0.175
6.95709	0.272
6.98521	0.358
7.01333	0.466
7.04145	0.542
7.06957	0.599
7.0977	0.624
7.12582	0.519
7.15394	0.494
7.18206	0.576
7.21018	0.59
7.2383	0.538
7.26642	0.423
7.29454	0.422
7.32266	0.303
7.35078	0.5
7.3789	0.33
7.40702	0.05
7.43514	0.064
7.46326	0.303
7.49138	0.566
7.5195	0.688
7.54762	0.733
7.57574	0.755
7.60386	0.762
7.63198	0.765
7.6601	0.764
7.68822	0.757
7.71634	0.754
7.74446	0.749
7.77258	0.75
7.8007	0.762
7.82882	0.77
7.85694	0.771
7.88506	0.77
7.91318	0.764
7.9413	0.735
7.96942	0.693
7.99754	0.69
8.02566	0.72
8.05378	0.729
8.0819	0.728
8.11002	0.723
8.13814	0.715
8.16626	0.71
8.19438	0.709
8.2225	0.711
8.25062	0.716
8.27874	0.724
8.30686	0.74
8.33498	0.763
8.3631	0.792
8.39122	0.84
8.41934	0.868
8.44746	0.868
8.47558	0.867
8.5037	0.86
8.53182	0.839
8.55994	0.817
8.58806	0.771
8.61618	0.692
8.6443	0.467
8.67242	0.385
8.70054	0.523
8.72866	0.68
8.75678	0.738
8.7849	0.775
8.81302	0.779
8.84114	0.782
8.86926	0.784
8.89738	0.786
8.9255	0.789
8.95362	0.79
8.98174	0.792
9.00986	0.793
9.03798	0.785
9.0661	0.765
9.09422	0.75
9.12234	0.7
9.15046	0.668
9.17858	0.665
9.2067	0.7
9.23482	0.742
9.26294	0.762
9.29106	0.778
9.31918	0.785
9.3473	0.793
9.37542	0.802
9.40354	0.806
9.43166	0.807
9.45978	0.809
9.4879	0.811
9.51602	0.813
9.54414	0.814
9.57226	0.804
9.60038	0.792
9.6285	0.782
9.65662	0.755
9.68474	0.742
9.71286	0.715
9.74098	0.645
9.7691	0.622
9.79722	0.68
9.82534	0.756
9.85346	0.776
9.88158	0.793
9.9097	0.804
9.93782	0.807
9.96594	0.81
9.99406	0.81
10.0222	0.786
10.0503	0.742
10.0784	0.717
10.1065	0.727
10.1347	0.764
10.1628	0.8
10.1909	0.823
10.219	0.834
10.2471	0.837
10.2753	0.846
10.3034	0.848
10.3315	0.851
10.3596	0.85
10.3877	0.852
10.4159	0.857
10.444	0.858
10.4721	0.858
10.5002	0.858
10.5283	0.86
10.5565	0.868
10.5846	0.871
10.6127	0.871
10.6408	0.872
10.6689	0.873
10.6971	0.874
10.7252	0.878
10.7533	0.88
10.7814	0.893
10.8095	0.902
10.8377	0.903
10.8658	0.895
10.8939	0.889
10.922	0.885
10.9501	0.878
10.9783	0.867
11.0064	0.857
11.0345	0.854
11.0626	0.847
11.0907	0.84
11.1189	0.824
11.147	0.81
11.1751	0.764
11.2032	0.72
11.2313	0.64
11.2595	0.586
11.2876	0.563
11.3157	0.532
11.3438	0.538
11.3719	0.576
11.4001	0.624
11.4282	0.708
11.4563	0.747
11.4844	0.776
11.5125	0.797
11.5407	0.813
11.5688	0.825
11.5969	0.838
11.625	0.846
11.6531	0.853
11.6813	0.86
11.7094	0.866
11.7375	0.872
11.7656	0.875
11.7938	0.879
11.8219	0.882
11.85	0.885
11.8781	0.886
11.9062	0.886
11.9344	0.887
11.9625	0.887
11.9906	0.886
12.0187	0.882
12.0468	0.881
12.075	0.88
12.1031	0.88
12.1312	0.88
12.1593	0.88
12.1874	0.88
12.2156	0.881
12.2437	0.881
12.2718	0.881
12.2999	0.881
12.328	0.881
12.3562	0.88
12.3843	0.85
12.4124	0.81
12.4405	0.727
12.4686	0.631
12.4968	0.603
12.5249	0.598
12.553	0.621
12.5811	0.652
12.6092	0.688
12.6374	0.723
12.6655	0.749
12.6936	0.761
12.7217	0.777
