Infrared Spectrum: 5-METHYL-2-THIOPHENECARBOXALDEHYDE
Formula: C6 H6 O S
CAS: 13679-70-4
State: SOLUTION (10% CCl4 FOR 3800-1335, 10% CS2 FOR 1335-400 CM^-^1)
Class: COBLENTZ III
Instrument: DOW KBr FOREPRISM-GRATING
Instrument parameters: BLAZED AT 3.5, 12.0, 20.0 MICRON AND CHANGED AT 5.0, 7.5, 14.9 MICRON
Sampling: TRANSMISSION
Path length: 0.011 CM, 0.011 CM
Resolution: 2
Origin: DOW CHEMICAL COMPANY
1/CM	TRANSMITTANCE
390.351	0.21
399.123	0.25
407.895	0.424
416.667	0.647
425.439	0.716
434.211	0.767
442.983	0.804
451.755	0.829
460.527	0.82
469.298	0.756
478.07	0.486
486.842	0.254
495.614	0.81
504.386	0.871
513.158	0.892
521.93	0.904
530.702	0.905
539.474	0.892
548.246	0.853
557.018	0.907
565.79	0.915
574.562	0.925
583.334	0.912
592.106	0.853
600.878	0.55
609.65	0.692
618.421	0.903
627.193	0.929
635.965	0.904
644.737	0.84
653.509	0.741
662.281	0.474
671.053	0.174
679.825	0.668
688.597	0.7171
697.369	0.911
706.141	0.929
714.913	0.893
723.685	0.698
732.457	0.86
741.229	0.893
750.001	0.845
758.773	0.1989
767.544	0.811
776.316	0.864
785.088	0.832
793.86	0.585
802.632	0.009
811.404	0.29
820.176	0.4322
828.948	0.835
837.72	0.829
846.492	0.795
855.264	0.741
864.036	0.734
872.808	0.813
881.58	0.831
890.352	0.864
899.124	0.892
907.896	0.901
916.667	0.905
925.439	0.91
934.211	0.911
942.983	0.91
951.755	0.894
960.527	0.868
969.299	0.832
978.071	0.856
986.843	0.872
995.615	0.875
1004.39	0.869
1013.16	0.849
1021.93	0.78
1030.7	0.591
1039.47	0.455
1048.25	0.0941
1057.02	0.608
1065.79	0.813
1074.56	0.842
1083.33	0.834
1092.11	0.839
1100.88	0.834
1109.65	0.853
1118.42	0.85
1127.19	0.821
1135.97	0.81
1144.74	0.782
1153.51	0.742
1162.28	0.442
1171.05	0.699
1179.83	0.789
1188.6	0.749
1197.37	0.615
1206.14	0.395
1214.91	0.016
1223.69	0.1649
1232.46	0.1311
1241.23	0.596
1250	0.746
1258.77	0.777
1267.55	0.766
1276.32	0.745
1285.09	0.775
1293.86	0.791
1302.63	0.81
1311.4	0.813
1320.18	0.778
1328.95	0.759
1337.72	0.721
1346.49	0.775
1355.26	0.78
1364.04	0.777
1372.81	0.691
1381.58	0.4951
1390.35	0.719
1399.12	0.651
1407.9	0.739
1416.67	0.5609
1425.44	0.623
1434.21	0.406
1442.98	0.117
1451.76	0.035
1460.53	0.002
1469.3	0.136
1478.07	0.2951
1486.84	0.622
1495.62	0.684
1504.39	0.659
1513.16	0.573
1521.93	0.539
1530.7	0.423
1539.48	0.448
1548.25	0.45
1557.02	0.488
1565.79	0.576
1574.56	0.604
1583.33	0.615
1592.11	0.647
1600.88	0.688
1609.65	0.716
1618.42	0.709
1627.19	0.605
1635.97	0.495
1644.74	0.2789
1653.51	0.062
1662.28	0.017
1671.05	0
1679.83	0
1688.6	0.0472
1697.37	0.443
1706.14	0.567
1714.91	0.63
1723.69	0.739
1732.46	0.81
1741.23	0.849
1750	0.857
1758.77	0.839
1767.55	0.832
1776.32	0.869
1785.09	0.883
1793.86	0.893
1802.63	0.9
1811.41	0.908
1820.18	0.907
1828.95	0.893
1837.72	0.869
1846.49	0.883
1855.27	0.896
1864.04	0.89
1872.81	0.874
1881.58	0.846
1890.35	0.824
1899.12	0.863
1907.9	0.914
1916.67	0.93
1925.44	0.934
1934.21	0.94
1942.98	0.94
1951.76	0.939
1960.53	0.933
1969.3	0.925
1978.07	0.929
1986.84	0.928
1995.62	0.926
2004.39	0.932
2013.16	0.933
2021.93	0.936
2030.7	0.939
2039.48	0.937
2048.25	0.9341
2057.02	0.933
2065.79	0.937
2074.56	0.937
2083.34	0.936
2092.11	0.9317
2100.88	0.928
2109.65	0.9309
2118.42	0.9324
2127.2	0.9326
2135.97	0.932
2144.74	0.9348
2153.51	0.943
2162.28	0.9448
2171.05	0.946
2179.83	0.944
2188.6	0.944
2197.37	0.944
2206.14	0.941
2214.91	0.941
2223.69	0.9434
2232.46	0.941
2241.23	0.9397
2250	0.9353
2258.77	0.9237
2267.55	0.9157
2276.32	0.921
2285.09	0.921
2293.86	0.925
2302.63	0.9293
2311.41	0.9346
2320.18	0.936
2328.95	0.936
2337.72	0.936
2346.49	0.936
2355.27	0.939
2364.04	0.939
2372.81	0.9352
2381.58	0.9323
2390.35	0.928
2399.13	0.928
2407.9	0.9288
2416.67	0.922
2425.44	0.9165
2434.21	0.9118
2442.99	0.9124
2451.76	0.9264
2460.53	0.93
2469.3	0.929
2478.07	0.9276
2486.84	0.9246
2495.62	0.919
2504.39	0.9112
2513.16	0.9212
2521.93	0.922
2530.7	0.9183
2539.48	0.9038
2548.25	0.9145
2557.02	0.921
2565.79	0.921
2574.56	0.921
2583.34	0.9149
2592.11	0.911
2600.88	0.914
2609.65	0.917
2618.42	0.917
2627.2	0.9138
2635.97	0.91
2644.74	0.9009
2653.51	0.8918
2662.28	0.871
2671.06	0.8622
2679.83	0.8329
2688.6	0.7498
2697.37	0.7325
2706.14	0.828
2714.92	0.8176
2723.69	0.768
2732.46	0.5878
2741.23	0.5617
2750	0.6685
2758.78	0.7385
2767.55	0.782
2776.32	0.7437
2785.09	0.5729
2793.86	0.3719
2802.63	0.327
2811.41	0.3959
2820.18	0.5214
2828.95	0.6248
2837.72	0.643
2846.49	0.6548
2855.27	0.6653
2864.04	0.6826
2872.81	0.7732
2881.58	0.8028
2890.35	0.8021
2899.13	0.7911
2907.9	0.7644
2916.67	0.6982
2925.44	0.5842
2934.21	0.7124
2942.99	0.7822
2951.76	0.7603
2960.53	0.7551
2969.3	0.753
2978.07	0.7559
2986.85	0.7722
2995.62	0.8162
3004.39	0.8376
3013.16	0.846
3021.93	0.8487
3030.71	0.849
3039.48	0.8424
3048.25	0.8295
3057.02	0.8113
3065.79	0.7982
3074.56	0.7713
3083.34	0.8261
3092.11	0.8385
3100.88	0.8588
3109.65	0.8688
3118.42	0.868
3127.2	0.863
3135.97	0.861
3144.74	0.8706
3153.51	0.8813
3162.28	0.8868
3171.06	0.89
3179.83	0.8905
3188.6	0.8928
3197.37	0.894
3206.14	0.894
3214.92	0.894
3223.69	0.8967
3232.46	0.9007
3241.23	0.9037
3250	0.904
3258.78	0.904
3267.55	0.904
3276.32	0.904
3285.09	0.9016
3293.86	0.899
3302.64	0.8906
3311.41	0.8753
3320.18	0.855
3328.95	0.85
3337.72	0.8647
3346.5	0.8717
3355.27	0.892
3364.04	0.9113
3372.81	0.9236
3381.58	0.929
3390.35	0.932
3399.13	0.932
3407.9	0.9336
3416.67	0.934
3425.44	0.934
3434.21	0.934
3442.99	0.934
3451.76	0.934
3460.53	0.934
3469.3	0.934
3478.07	0.934
3486.85	0.934
3495.62	0.934
3504.39	0.934
3513.16	0.934
3521.93	0.934
3530.71	0.934
3539.48	0.934
3548.25	0.9381
3557.02	0.9395
3565.79	0.943
3574.57	0.9405
3583.34	0.949
3592.11	0.956
3600.88	0.9575
3609.65	0.958
3618.43	0.962
3627.2	0.961
3635.97	0.962
3644.74	0.964
3653.51	0.9585
3662.28	0.9561
3671.06	0.954
3679.83	0.9466
3688.6	0.9469
3697.37	0.9579
3706.14	0.966
3714.92	0.969
3723.69	0.969
3732.46	0.9672
3741.23	0.966
3750	0.969
3758.78	0.969
3767.55	0.968
3776.32	0.968
3785.09	0.9708
3793.86	0.969
