Infrared Spectrum: Undecadiene, 1,10-
Formula: C11 H20
CAS: 13688-67-0
State: LIQUID (NEAT)
Class: COBLENTZ III
Instrument: BECKMAN IR-12 (GRATING)
Instrument parameters: GRATING
Sampling: TRANSMISSION
Path length: 0.0104 CM
Resolution: 2
Origin: COLGATE-PALMOLIVE COMPANY (KELLENBACH)
1/CM	TRANSMITTANCE
401	0.738
410	0.7855
419	0.8287
428	0.8421
437	0.8226
446	0.8387
455	0.8797
464	0.9256
473	0.9481
482	0.9464
491	0.9299
500	0.9091
509	0.8928
518	0.9073
527	0.8935
536	0.8334
545	0.5716
554	0.4502
563	0.6425
572	0.7596
581	0.8103
590	0.7907
599	0.7101
608	0.532
617	0.2509
626	0.1135
635	0.0892
644	0.234
653	0.415
662	0.596
671	0.7486
680	0.8083
689	0.8283
698	0.8154
707	0.6066
716	0.3096
725	0.2463
734	0.5415
743	0.6023
752	0.6641
761	0.7245
770	0.7269
779	0.7465
788	0.7673
797	0.7585
806	0.7707
815	0.7202
824	0.6755
833	0.631
842	0.6065
851	0.5461
860	0.5057
869	0.4402
878	0.3315
887	0.1291
896	0.0086
905	0.0002
914	0.0002
923	0.0848
932	0.2122
941	0.3395
950	0.3751
959	0.3383
968	0.2123
977	0.0862
986	0.0005
995	0.0002
1004	0.1194
1013	0.2723
1022	0.31
1031	0.3517
1040	0.3986
1049	0.4245
1058	0.4673
1067	0.5172
1076	0.5477
1085	0.5906
1094	0.621
1103	0.6332
1112	0.6443
1121	0.6563
1130	0.6762
1139	0.7103
1148	0.733
1157	0.7362
1166	0.7255
1175	0.7096
1184	0.7204
1193	0.7071
1202	0.7282
1211	0.6944
1220	0.6669
1229	0.6599
1238	0.6592
1247	0.6944
1256	0.6293
1265	0.5851
1274	0.5554
1283	0.4983
1292	0.4437
1301	0.4419
1310	0.5223
1319	0.5087
1328	0.5685
1337	0.4864
1346	0.361
1355	0.4374
1364	0.4082
1373	0.5793
1382	0.6154
1391	0.594
1400	0.435
1409	0.1003
1418	0.2027
1427	0.0404
1436	0.0102
1445	0.0252
1454	0.0106
1463	0.0514
1472	0.449
1481	0.652
1490	0.7178
1499	0.7657
1508	0.7925
1517	0.801
1526	0.793
1535	0.7629
1544	0.751
1553	0.7833
1562	0.8257
1571	0.8498
1580	0.8544
1589	0.8441
1598	0.8023
1607	0.6047
1616	0.5382
1625	0.2443
1634	0.0028
1643	0.2098
1652	0.6062
1661	0.7349
1670	0.8029
1679	0.8422
1688	0.8698
1697	0.8902
1706	0.9014
1715	0.9077
1724	0.9149
1733	0.9176
1742	0.9213
1751	0.9284
1760	0.9267
1769	0.9224
1778	0.9143
1787	0.8999
1796	0.836
1805	0.6302
1814	0.3903
1823	0.4047
1832	0.6597
1841	0.8094
1850	0.8507
1859	0.891
1868	0.9046
1877	0.91
1886	0.9144
1895	0.9086
1904	0.9197
1913	0.9354
1922	0.941
1931	0.9414
1940	0.9366
1949	0.9287
1958	0.9164
1967	0.8655
1976	0.8133
1985	0.864
1994	0.9046
2003	0.915
2012	0.9119
2021	0.9086
2030	0.9111
2039	0.9145
2048	0.9181
2057	0.9211
2066	0.9233
2075	0.9264
2084	0.9306
2093	0.9349
2102	0.9377
2111	0.9391
2120	0.9399
2129	0.9393
2138	0.9345
2147	0.9275
2156	0.9274
2165	0.9273
2174	0.9272
2183	0.927
2192	0.9269
2201	0.9266
2210	0.9262
2219	0.9257
2228	0.9242
2237	0.9223
2246	0.9151
2255	0.9067
2264	0.8993
2273	0.8957
2282	0.8948
2291	0.8961
2300	0.8976
2309	0.8982
2318	0.8977
2327	0.8955
2336	0.8958
2345	0.8995
2354	0.9036
2363	0.9081
2372	0.9158
2381	0.9237
2390	0.9254
2399	0.9256
2408	0.9256
2417	0.925
2426	0.9244
2435	0.9236
2444	0.9209
2453	0.918
2462	0.9148
2471	0.9105
2480	0.9057
2489	0.8999
2498	0.8928
2507	0.8836
2516	0.8725
2525	0.8606
2534	0.855
2543	0.8536
2552	0.8522
2561	0.8457
2570	0.8379
2579	0.8276
2588	0.8134
2597	0.8032
2606	0.7906
2615	0.7689
2624	0.7446
2633	0.7322
2642	0.7234
2651	0.698
2660	0.664
2669	0.6396
2678	0.6422
2687	0.6878
2696	0.7051
2705	0.711
2714	0.7107
2723	0.7
2732	0.6837
2741	0.676
2750	0.6543
2759	0.6288
2768	0.5976
2777	0.5431
2786	0.4546
2795	0.3579
2804	0.196
2813	0.1484
2822	0.0231
2831	0.0047
2840	0.0008
2849	0.0007
2858	0.0006
2867	0.0005
2876	0.0004
2885	0.0003
2894	0.0002
2903	0.0001
2912	0.0001
2921	0
2930	0
2939	0.0001
2948	0.0053
2957	0.0092
2966	0.0043
2975	0.0067
2984	0.0142
2993	0.0103
3002	0.0977
3011	0.2246
3020	0.3433
3029	0.3498
3038	0.2882
3047	0.144
3056	0.0169
3065	0.0061
3074	0.0018
3083	0.206
3092	0.4408
3101	0.615
3110	0.6621
3119	0.7257
3128	0.7652
3137	0.7907
3146	0.8097
3155	0.8259
3164	0.8408
3173	0.8604
3182	0.8801
3191	0.8906
3200	0.8991
3209	0.9045
3218	0.91
3227	0.9155
3236	0.9155
3245	0.9155
3254	0.9066
3263	0.8919
3272	0.8996
3281	0.9164
3290	0.9184
3299	0.9181
3308	0.9169
3317	0.9152
3326	0.9123
3335	0.9098
3344	0.9081
3353	0.9089
3362	0.9097
3371	0.9122
3380	0.9143
3389	0.9145
3398	0.9143
3407	0.9126
3416	0.9108
3425	0.9101
3434	0.9099
3443	0.9128
3452	0.9188
3461	0.9239
3470	0.9254
3479	0.9247
3488	0.9233
3497	0.9217
3506	0.9198
3515	0.9181
3524	0.9179
3533	0.9183
3542	0.9213
3551	0.9242
3560	0.9243
3569	0.9151
3578	0.8997
3587	0.8809
3596	0.8567
3605	0.8362
3614	0.8389
3623	0.8454
3632	0.8545
3641	0.87
3650	0.8917
3659	0.9164
3668	0.9239
3677	0.925
3686	0.925
3695	0.9244
3704	0.9234
3713	0.9257
3722	0.9282
3731	0.9295
3740	0.9271
3749	0.9244
3758	0.9236
3767	0.9241
3776	0.9241
3785	0.9236
3794	0.9233
3803	0.9204
3812	0.9176
3821	0.916
3830	0.9145
3839	0.9146
3848	0.9152
3857	0.9142
3866	0.9118
3875	0.9079
3884	0.9031
3893	0.8982
3902	0.894
3911	0.8904
3920	0.8892
3929	0.8879
3938	0.8866
3947	0.8851
3956	0.8822
3965	0.8728
3974	0.8625
3983	0.8568
3992	0.8533
