Infrared Spectrum: Tetramethyl thiuram disulfide
Formula: C6 H12 N2 S4
CAS: 137-26-8
State: SOLID (OIL MULL)
Class: COBLENTZ III
Instrument: BAIRD (PRISM)
Instrument parameters: NaCl PRISM
Sampling: TRANSMISSION
Resolution: 2
Origin: WYANDOTTE CHEMICALS CORP.
1/CM	TRANSMITTANCE
627	0.549
636	0.623
645	0.6934
654	0.7519
663	0.7579
672	0.8343
681	0.8887
690	0.9106
699	0.9197
708	0.9254
717	0.8957
726	0.8945
735	0.9125
744	0.9328
753	0.9428
762	0.9439
771	0.942
780	0.9227
789	0.9123
798	0.9142
807	0.9337
816	0.9379
825	0.9356
834	0.8521
843	0.4524
852	0.6394
861	0.9345
870	0.9538
879	0.9544
888	0.9353
897	0.924
906	0.9196
915	0.8856
924	0.85
933	0.7443
942	0.4631
951	0.2641
960	0.2063
969	0.1008
978	0.1029
987	0.5028
996	0.7253
1005	0.7684
1014	0.7669
1023	0.7389
1032	0.629
1041	0.4231
1050	0.5629
1059	0.6597
1068	0.6634
1077	0.6282
1086	0.5808
1095	0.5393
1104	0.5085
1113	0.4755
1122	0.4437
1131	0.3723
1140	0.27
1149	0.1865
1158	0.2354
1167	0.4196
1176	0.5895
1185	0.6568
1194	0.6762
1203	0.6412
1212	0.5922
1221	0.5072
1230	0.2242
1239	0.0737
1248	0.2658
1257	0.5646
1266	0.655
1275	0.6695
1284	0.6747
1293	0.6523
1302	0.6523
1311	0.6389
1320	0.6126
1329	0.5751
1338	0.522
1347	0.453
1356	0.3605
1365	0.1906
1374	0.0889
1383	0.0844
1392	0.2714
1401	0.2728
1410	0.2676
1419	0.3952
1428	0.4973
1437	0.4841
1446	0.4136
1455	0.2772
1464	0.1691
1473	0.1335
1482	0.1417
1491	0.1224
1500	0.1039
1509	0.0906
1518	0.1058
1527	0.1637
1536	0.2791
1545	0.4448
1554	0.5887
1563	0.6682
1572	0.7429
1581	0.7633
1590	0.8149
1599	0.8214
1608	0.8292
1617	0.8341
1626	0.8352
1635	0.8339
1644	0.8315
1653	0.8225
1662	0.7944
1671	0.7964
1680	0.786
1689	0.7213
1698	0.7708
1707	0.8181
1716	0.8312
1725	0.8335
1734	0.8426
1743	0.8533
1752	0.8539
1761	0.8537
1770	0.8534
1779	0.8527
1788	0.8505
1797	0.8453
1806	0.84
1815	0.8336
1824	0.8273
1833	0.8212
1842	0.8168
1851	0.8145
1860	0.8127
1869	0.8107
1878	0.8034
1887	0.7928
1896	0.7821
1905	0.7714
1914	0.763
1923	0.7651
1932	0.7695
1941	0.7702
1950	0.7668
1959	0.7627
1968	0.7612
1977	0.7595
1986	0.7562
1995	0.7526
2004	0.7484
2013	0.744
2022	0.7389
2031	0.7328
2040	0.7278
2049	0.7234
2058	0.7165
2067	0.7098
2076	0.7064
2085	0.7034
2094	0.6999
2103	0.6966
2112	0.6953
2121	0.6937
2130	0.6896
2139	0.6847
2148	0.68
2157	0.6757
2166	0.6708
2175	0.6658
2184	0.6603
2193	0.6547
2202	0.6492
2211	0.6438
2220	0.6386
2229	0.6339
2238	0.6313
2247	0.6307
2256	0.6301
2265	0.63
2274	0.6305
2283	0.6315
2292	0.6255
2301	0.6175
2310	0.6097
2319	0.6017
2328	0.5928
2337	0.582
2346	0.5723
2355	0.5706
2364	0.573
2373	0.5702
2382	0.5655
2391	0.5626
2400	0.5604
2409	0.559
2418	0.5552
2427	0.5485
2436	0.5403
2445	0.5349
2454	0.5313
2463	0.5288
2472	0.5267
2481	0.525
2490	0.5232
2499	0.5214
2508	0.5191
2517	0.5165
2526	0.5139
2535	0.5114
2544	0.5092
2553	0.507
2562	0.5049
2571	0.5027
2580	0.4994
2589	0.4958
2598	0.4922
2607	0.4886
2616	0.4851
2625	0.483
2634	0.4792
2643	0.4724
2652	0.4666
2661	0.4649
2670	0.4648
2679	0.4627
2688	0.4557
2697	0.4482
2706	0.4422
2715	0.44
2724	0.4396
2733	0.4398
2742	0.4399
2751	0.4396
2760	0.4392
2769	0.4384
2778	0.4363
2787	0.4323
2796	0.4124
2805	0.3932
2814	0.3723
2823	0.3071
2832	0.2034
2841	0.1047
2850	0.0784
2859	0.075
2868	0.0747
2877	0.0743
2886	0.0719
2895	0.0651
2904	0.056
2913	0.0467
2922	0.0383
2931	0.0335
2940	0.0347
2949	0.037
2958	0.0432
2967	0.056
2976	0.0777
2985	0.1077
2994	0.1376
3003	0.1672
3012	0.2148
3021	0.2307
3030	0.2424
3039	0.2526
3048	0.2621
3057	0.2701
3066	0.2786
3075	0.2841
3084	0.2846
3093	0.2845
3102	0.284
3111	0.2836
3120	0.283
3129	0.2821
3138	0.2812
3147	0.2803
3156	0.2792
3165	0.2782
3174	0.2771
3183	0.2757
3192	0.2743
3201	0.2729
3210	0.2712
3219	0.2696
3228	0.268
3237	0.2665
3246	0.2652
3255	0.2638
3264	0.2624
3273	0.261
3282	0.2597
3291	0.2585
3300	0.2574
3309	0.2564
3318	0.2553
3327	0.2536
3336	0.2517
3345	0.2499
3354	0.2469
3363	0.2438
3372	0.2429
3381	0.2421
3390	0.2411
3399	0.2402
3408	0.2392
3417	0.2384
3426	0.2374
3435	0.2365
3444	0.2356
3453	0.2351
3462	0.2346
3471	0.2341
3480	0.2337
3489	0.2333
3498	0.2328
3507	0.2323
3516	0.232
3525	0.2317
3534	0.2318
3543	0.2318
3552	0.2318
3561	0.2314
3570	0.231
3579	0.2307
3588	0.2302
3597	0.2292
3606	0.2275
3615	0.226
3624	0.2244
3633	0.2222
3642	0.2198
3651	0.2177
3660	0.2162
3669	0.2147
3678	0.2135
3687	0.213
3696	0.2124
3705	0.2119
3714	0.2114
3723	0.2111
3732	0.2108
3741	0.2104
3750	0.2092
3759	0.2078
3768	0.2065
3777	0.2046
3786	0.2027
3795	0.2006
3804	0.1986
3813	0.1966
3822	0.1945
3831	0.1925
3840	0.1905
3849	0.1884
3858	0.1865
3867	0.1845
3876	0.1825
3885	0.1806
3894	0.179
3903	0.1773
3912	0.1757
3921	0.1742
3930	0.1726
3939	0.171
3948	0.1695
3957	0.168
3966	0.1665
3975	0.165
3984	0.1636
3993	0.1621
