Infrared Spectrum: BUTANOL, 2-METHYL-
Formula: C5 H12 O
CAS: 137-32-6
State: LIQUID (NEAT)
Class: COBLENTZ III
Instrument: PERKIN-ELMER 421 (GRATING)
Sampling: TRANSMISSION
Path length: 0.0007 CM CELL
Resolution: 4
Origin: US INDUSTRIAL CHEMICALS COMPANY, CINCINNATI, OHIO
1/CM	TRANSMITTANCE
620.546	0.703
628.999	0.706
637.451	0.706
645.904	0.708
654.356	0.715
662.809	0.72
671.261	0.722
679.714	0.73
688.166	0.733
696.619	0.74
705.071	0.75
713.524	0.757
721.976	0.764
730.429	0.772
738.882	0.777
747.334	0.776
755.787	0.755
764.239	0.75
772.692	0.771
781.144	0.806
789.597	0.813
798.049	0.816
806.502	0.833
814.954	0.835
823.407	0.83
831.859	0.837
840.312	0.854
848.765	0.862
857.217	0.866
865.67	0.867
874.122	0.867
882.575	0.855
891.027	0.815
899.48	0.818
907.932	0.835
916.385	0.857
924.837	0.847
933.29	0.833
941.742	0.837
950.195	0.789
958.648	0.752
967.1	0.725
975.553	0.701
984.005	0.677
992.458	0.676
1000.91	0.571
1009.36	0.452
1017.82	0.481
1026.27	0.6
1034.72	0.415
1043.17	0.262
1051.63	0.294
1060.08	0.43
1068.53	0.676
1076.98	0.816
1085.44	0.835
1093.89	0.823
1102.34	0.774
1110.79	0.759
1119.25	0.766
1127.7	0.779
1136.15	0.8
1144.6	0.832
1153.06	0.837
1161.51	0.825
1169.96	0.837
1178.41	0.862
1186.87	0.859
1195.32	0.847
1203.77	0.83
1212.22	0.808
1220.68	0.784
1229.13	0.783
1237.58	0.805
1246.03	0.82
1254.49	0.813
1262.94	0.806
1271.39	0.818
1279.84	0.811
1288.3	0.793
1296.75	0.789
1305.2	0.779
1313.65	0.771
1322.11	0.772
1330.56	0.757
1339.01	0.742
1347.46	0.725
1355.92	0.708
1364.37	0.659
1372.82	0.598
1381.27	0.559
1389.73	0.7
1398.18	0.706
1406.63	0.701
1415.08	0.694
1423.54	0.684
1431.99	0.674
1440.44	0.652
1448.89	0.547
1457.35	0.415
1465.8	0.461
1474.25	0.659
1482.7	0.771
1491.16	0.828
1499.61	0.852
1508.06	0.862
1516.52	0.862
1524.97	0.886
1533.42	0.889
1541.87	0.889
1550.33	0.891
1558.78	0.893
1567.23	0.896
1575.68	0.898
1584.14	0.898
1592.59	0.898
1601.04	0.901
1609.49	0.905
1617.95	0.908
1626.4	0.91
1634.85	0.91
1643.3	0.91
1651.76	0.91
1660.21	0.911
1668.66	0.911
1677.11	0.913
1685.57	0.915
1694.02	0.916
1702.47	0.918
1710.92	0.916
1719.38	0.916
1727.83	0.916
1736.28	0.918
1744.73	0.918
1753.19	0.918
1761.64	0.916
1770.09	0.916
1778.54	0.916
1787	0.918
1795.45	0.918
1803.9	0.918
1812.35	0.918
1820.81	0.918
1829.26	0.918
1837.71	0.918
1846.16	0.918
1854.62	0.918
1863.07	0.918
1871.52	0.918
1879.97	0.918
1888.43	0.918
1896.88	0.916
1905.33	0.918
1913.78	0.92
1922.24	0.92
1930.69	0.92
1939.14	0.92
1947.59	0.918
1956.05	0.918
1964.5	0.922
1972.95	0.922
1981.4	0.922
1989.86	0.925
1998.31	0.922
2006.76	0.898
2015.21	0.898
2023.67	0.898
2032.12	0.9
2040.57	0.9
2049.03	0.9
2057.48	0.9
2065.93	0.9
2074.38	0.9
2082.84	0.9
2091.29	0.901
2099.74	0.901
2108.19	0.9029
2116.65	0.903
2125.1	0.905
2133.55	0.9055
2142	0.905
2150.46	0.905
2158.91	0.905
2167.36	0.903
2175.81	0.9011
2184.27	0.903
2192.72	0.9059
2201.17	0.905
2209.62	0.9031
2218.08	0.903
2226.53	0.903
2234.98	0.905
2243.43	0.905
2251.89	0.9022
2260.34	0.901
2268.79	0.901
2277.24	0.9028
2285.7	0.905
2294.15	0.905
2302.6	0.905
2311.05	0.905
2319.51	0.9022
2327.96	0.901
2336.41	0.9
2344.86	0.9
2353.32	0.9
2361.77	0.9
2370.22	0.9
2378.67	0.8982
2387.13	0.898
2395.58	0.896
2404.03	0.894
2412.48	0.894
2420.94	0.893
2429.39	0.8913
2437.84	0.891
2446.29	0.8892
2454.75	0.889
2463.2	0.889
2471.65	0.8886
2480.1	0.8837
2488.56	0.876
2497.01	0.8926
2505.46	0.893
2513.91	0.891
2522.37	0.889
2530.82	0.888
2539.27	0.884
2547.72	0.884
2556.18	0.881
2564.63	0.8773
2573.08	0.8767
2581.54	0.876
2589.99	0.876
2598.44	0.8757
2606.89	0.876
2615.35	0.874
2623.8	0.871
2632.25	0.869
2640.7	0.8654
2649.16	0.8624
2657.61	0.8604
2666.06	0.8574
2674.51	0.854
2682.97	0.852
2691.42	0.849
2699.87	0.847
2708.32	0.8358
2716.78	0.826
2725.23	0.8124
2733.68	0.8126
2742.13	0.816
2750.59	0.8152
2759.04	0.8107
2767.49	0.8064
2775.94	0.7983
2784.4	0.7894
2792.85	0.7748
2801.3	0.7473
2809.75	0.7277
2818.21	0.693
2826.66	0.6668
2835.11	0.6305
2843.56	0.5825
2852.02	0.4719
2860.47	0.3867
2868.92	0.296
2877.37	0.2057
2885.83	0.2424
2894.28	0.322
2902.73	0.2936
2911.18	0.2435
2919.64	0.2182
2928.09	0.1925
2936.54	0.191
2944.99	0.2581
2953.45	0.176
2961.9	0.1091
2970.35	0.1364
2978.8	0.2647
2987.26	0.5799
2995.71	0.7215
3004.16	0.7748
3012.61	0.7882
3021.07	0.7924
3029.52	0.7964
3037.97	0.798
3046.42	0.796
3054.88	0.794
3063.33	0.7872
3071.78	0.783
3080.23	0.771
3088.69	0.7613
3097.14	0.7522
3105.59	0.7345
3114.04	0.7167
3122.5	0.7009
3130.95	0.6863
3139.4	0.6649
3147.86	0.6436
3156.31	0.6208
3164.76	0.598
3173.21	0.5723
3181.67	0.5458
3190.12	0.5219
3198.57	0.4923
3207.02	0.4654
3215.48	0.4384
3223.93	0.4133
3232.38	0.3974
3240.83	0.3774
3249.29	0.3526
3257.74	0.3311
3266.19	0.3142
3274.64	0.3024
3283.1	0.2836
3291.55	0.2714
3300	0.2636
3308.45	0.2577
3316.91	0.254
3325.36	0.254
3333.81	0.254
3342.26	0.254
3350.72	0.2552
3359.17	0.2609
3367.62	0.274
3376.07	0.2836
3384.53	0.3036
3392.98	0.3192
3401.43	0.3391
3409.88	0.3589
3418.34	0.3856
3426.79	0.4254
3435.24	0.4461
3443.69	0.47
3452.15	0.4972
3460.6	0.5279
3469.05	0.5562
3477.5	0.5887
3485.96	0.621
3494.41	0.6522
3502.86	0.683
3511.31	0.7151
3519.77	0.7509
3528.22	0.7719
3536.67	0.7901
3545.12	0.8173
3553.58	0.8327
3562.03	0.8586
3570.48	0.8675
3578.93	0.8901
3587.39	0.896
3595.84	0.9017
3604.29	0.9101
3612.74	0.9141
3621.2	0.916
3629.65	0.9191
3638.1	0.9231
3646.55	0.9275
3655.01	0.932
3663.46	0.933
3671.91	0.9331
3680.37	0.9366
3688.82	0.94
3697.27	0.94
3705.72	0.94
3714.18	0.9411
3722.63	0.942
3731.08	0.942
3739.53	0.942
3747.99	0.942
3756.44	0.944
3764.89	0.9445
3773.34	0.947
3781.8	0.949
3790.25	0.945
3798.7	0.948
3807.15	0.949
3815.61	0.949
3824.06	0.945
3832.51	0.945
3840.96	0.945
3849.42	0.944
3857.87	0.944
3866.32	0.944
3874.77	0.944
3883.23	0.945
3891.68	0.944
3900.13	0.944
3908.58	0.944
3917.04	0.944
3925.49	0.944
3933.94	0.9445
3942.39	0.944
3950.85	0.944
3959.3	0.944
3967.75	0.944
3976.2	0.9421
3984.66	0.942
3993.11	0.9419
