Infrared Spectrum: CARBANILIDE, o,o'-DIMETHYLTHIO-
Formula: C15 H16 N2 S
CAS: 137-97-3
State: SOLID (NUJOL MULL)
Melting point: 153 C
Class: COBLENTZ III
Instrument: BAIRD (PRISM)
Instrument parameters: NaCl PRISM
Sampling: TRANSMISSION
Resolution: 2
Origin: DOW CHEMICAL COMPANY
MICROMETERS	TRANSMITTANCE
1.995	0.525
2.03274	0.53
2.07047	0.535
2.10821	0.5446
2.14594	0.558
2.18368	0.561
2.22142	0.5718
2.25915	0.581
2.29689	0.582
2.33462	0.585
2.37236	0.5985
2.4101	0.6099
2.44783	0.6217
2.48557	0.6369
2.5233	0.644
2.56104	0.659
2.59878	0.665
2.63651	0.671
2.67425	0.685
2.71198	0.686
2.74972	0.6979
2.78746	0.705
2.82519	0.71
2.86293	0.724
2.90066	0.727
2.9384	0.7349
2.97614	0.741
3.01387	0.6828
3.05161	0.5218
3.08934	0.6729
3.12708	0.6228
3.16482	0.5079
3.20255	0.3329
3.24029	0.2271
3.27802	0.2503
3.31576	0.3484
3.3535	0.4203
3.39123	0.2953
3.42897	0.0569
3.4667	0.0561
3.50444	0.1588
3.54218	0.1992
3.57991	0.5076
3.61765	0.6879
3.65538	0.724
3.69312	0.728
3.73086	0.7481
3.76859	0.7727
3.80633	0.7958
3.84406	0.8018
3.8818	0.818
3.91954	0.821
3.95727	0.828
3.99501	0.836
4.03274	0.8446
4.07048	0.8529
4.10822	0.853
4.14595	0.855
4.18369	0.866
4.22142	0.864
4.25916	0.866
4.2969	0.873
4.33463	0.885
4.37237	0.885
4.4101	0.885
4.44784	0.885
4.48558	0.886
4.52331	0.897
4.56105	0.897
4.59878	0.896
4.63652	0.8979
4.67426	0.899
4.71199	0.9011
4.74973	0.9069
4.78746	0.91
4.8252	0.914
4.86294	0.915
4.90067	0.9169
4.93841	0.921
4.97614	0.92
5.01388	0.921
5.05162	0.921
5.08935	0.916
5.12709	0.9175
5.16482	0.918
5.20256	0.918
5.2403	0.9238
5.27803	0.927
5.31577	0.938
5.3535	0.941
5.39124	0.9427
5.42898	0.942
5.46671	0.9415
5.50445	0.94
5.54218	0.9424
5.57992	0.9452
5.61766	0.959
5.65539	0.957
5.69313	0.959
5.73086	0.958
5.7686	0.96
5.80634	0.9673
5.84407	0.962
5.88181	0.963
5.91954	0.9644
5.95728	0.971
5.99502	0.972
6.03275	0.9662
6.07049	0.9557
6.10822	0.9488
6.14596	0.94
6.1837	0.936
6.22143	0.9031
6.25917	0.891
6.2969	0.8268
6.33464	0.778
6.37238	0.8245
6.41011	0.7662
6.44785	0.643
6.48558	0.5083
6.52332	0.2353
6.56106	0.06
6.59879	0.1043
6.63653	0.2489
6.67426	0.2337
6.712	0.1845
6.74974	0.2044
6.78747	0.2462
6.82521	0.327
6.86294	0.287
6.90068	0.4179
6.93842	0.5082
6.97615	0.6342
7.01389	0.7473
7.05162	0.7991
7.08936	0.831
7.1271	0.8336
7.16483	0.835
7.20257	0.7994
7.2403	0.6765
7.27804	0.6171
7.31578	0.7182
7.35351	0.7231
7.39125	0.6554
7.42898	0.5607
7.46672	0.5228
7.50446	0.5252
7.54219	0.563
7.57993	0.6
7.61766	0.63
7.6554	0.6429
7.69314	0.6137
7.73087	0.4882
7.76861	0.451
7.80634	0.4847
7.84408	0.4678
7.88182	0.3696
7.91955	0.1998
7.95729	0.231
7.99502	0.5274
8.03276	0.5806
8.0705	0.4365
8.10823	0.5508
8.14597	0.702
8.1837	0.6433
8.22144	0.4673
8.25918	0.4272
8.29691	0.4906
8.33465	0.6344
8.37238	0.6819
8.41012	0.6807
8.44786	0.778
8.48559	0.8189
8.52333	0.8257
8.56106	0.83
8.5988	0.7989
8.63654	0.7324
8.67427	0.706
8.71201	0.7705
8.74974	0.8027
8.78748	0.811
8.82522	0.811
8.86295	0.8107
8.90069	0.7904
8.93842	0.7773
8.97616	0.7474
9.0139	0.711
9.05163	0.7763
9.08937	0.871
9.1271	0.8961
9.16484	0.9078
9.20258	0.9185
9.24031	0.9261
9.27805	0.9292
9.31578	0.94
9.35352	0.94
9.39126	0.94
9.42899	0.941
9.46673	0.94
9.50446	0.9393
9.5422	0.9033
9.57994	0.8536
9.61767	0.8135
9.65541	0.812
9.69314	0.8396
9.73088	0.8942
9.76862	0.9138
9.80635	0.924
9.84409	0.924
9.88182	0.924
9.91956	0.924
9.9573	0.924
9.99503	0.92
10.0328	0.9082
10.0705	0.8896
10.1082	0.8803
10.146	0.877
10.1837	0.873
10.2214	0.8727
10.2592	0.867
10.2969	0.861
10.3347	0.858
10.3724	0.8552
10.4101	0.854
10.4479	0.854
10.4856	0.854
10.5233	0.8555
10.5611	0.8769
10.5988	0.89
10.6365	0.896
10.6743	0.8981
10.712	0.902
10.7498	0.8974
10.7875	0.8468
10.8252	0.7779
10.863	0.766
10.9007	0.7984
10.9384	0.8665
10.9762	0.8991
11.0139	0.9239
11.0516	0.938
11.0894	0.946
11.1271	0.946
11.1648	0.947
11.2026	0.948
11.2403	0.9542
11.2781	0.965
11.3158	0.967
11.3535	0.969
11.3913	0.9656
11.429	0.948
11.4667	0.9526
11.5045	0.966
11.5422	0.9643
11.5799	0.9458
11.6177	0.9007
11.6554	0.8661
11.6932	0.8678
11.7309	0.9063
11.7686	0.9472
11.8064	0.965
11.8441	0.9664
11.8818	0.971
11.9196	0.9744
11.9573	0.9801
11.995	0.983
12.0328	0.984
12.0705	0.985
12.1082	0.985
12.146	0.983
12.1837	0.982
12.2215	0.979
12.2592	0.9789
12.2969	0.969
12.3347	0.9571
12.3724	0.9471
12.4101	0.9468
12.4479	0.9563
12.4856	0.96
12.5233	0.9596
12.5611	0.9535
12.5988	0.946
12.6366	0.9361
12.6743	0.9215
12.712	0.8797
12.7498	0.8323
12.7875	0.817
12.8252	0.847
12.863	0.862
12.9007	0.8484
12.9384	0.7958
12.9762	0.6868
13.0139	0.5361
13.0516	0.467
13.0894	0.5416
13.1271	0.5918
13.1649	0.4504
13.2026	0.3018
13.2403	0.2492
13.2781	0.3534
13.3158	0.5595
13.3535	0.6846
13.3913	0.715
13.429	0.6786
13.4667	0.5768
13.5045	0.4949
13.5422	0.4943
13.58	0.5112
13.6177	0.5369
13.6554	0.6178
13.6932	0.6954
13.7309	0.713
13.7686	0.6977
13.8064	0.6331
13.8441	0.5141
13.8818	0.3687
13.9196	0.3191
13.9573	0.4218
13.995	0.5661
14.0328	0.6423
14.0705	0.6652
14.1083	0.6742
14.146	0.68
14.1837	0.682
14.2215	0.682
14.2592	0.6719
14.2969	0.6599
14.3347	0.647
14.3724	0.6371
14.4101	0.6313
14.4479	0.6244
14.4856	0.622
14.5234	0.622
14.5611	0.622
14.5988	0.6228
14.6366	0.622
14.6743	0.622
14.712	0.622
14.7498	0.62
14.7875	0.617
14.8252	0.616
14.863	0.6095
14.9007	0.6053
14.9384	0.5988
14.9762	0.598
15.0139	0.5952
15.0517	0.587
15.0894	0.5784
15.1271	0.5695
15.1649	0.5636
15.2026	0.5506
15.2403	0.5447
15.2781	0.5377
15.3158	0.522
15.3535	0.5085
15.3913	0.4875
15.429	0.4668
15.4668	0.4376
15.5045	0.4019
15.5422	0.3688
15.58	0.3415
15.6177	0.3168
15.6554	0.309
15.6932	0.3138
15.7309	0.3244
15.7686	0.3366
15.8064	0.3449
15.8441	0.3565
15.8818	0.3573
