Infrared Spectrum: 2,5-Dimethyl-p-quinone
Formula: C8 H8 O2
CAS: 137-18-8
State: SOLUTION (5% CCl4 FOR 3800-1330, 5% CS2 FOR 1330-400)
Class: COBLENTZ III
Instrument: BECKMAN IR-9 (GRATING)
Instrument parameters: ORDER CHANGES: 670, 1200, 2000 CM^-^1
Sampling: TRANSMISSION
Path length: 0.011 CM, 0.011 CM
Resolution: 2
Origin: DOW CHEMICAL COMPANY
1/CM	TRANSMITTANCE
3799.01	0.9201
3790.05	0.9202
3781.1	0.9199
3772.14	0.9203
3763.19	0.9198
3754.23	0.9193
3745.28	0.9189
3736.32	0.9176
3727.37	0.9168
3718.41	0.9172
3709.46	0.9171
3700.5	0.9174
3691.55	0.919
3682.59	0.9178
3673.64	0.9163
3664.68	0.915
3655.73	0.9137
3646.77	0.9125
3637.82	0.9111
3628.86	0.9091
3619.91	0.9054
3610.95	0.9061
3602	0.9056
3593.04	0.8878
3584.08	0.8857
3575.13	0.9074
3566.17	0.9068
3557.22	0.9066
3548.26	0.9061
3539.31	0.9062
3530.35	0.9051
3521.4	0.9044
3512.44	0.9029
3503.49	0.9022
3494.53	0.9016
3485.58	0.9009
3476.62	0.9002
3467.67	0.8996
3458.71	0.8995
3449.76	0.8993
3440.8	0.8992
3431.85	0.8991
3422.89	0.8989
3413.94	0.8986
3404.98	0.8982
3396.02	0.8976
3387.07	0.8966
3378.11	0.8954
3369.16	0.8938
3360.2	0.8925
3351.25	0.8909
3342.29	0.8813
3333.34	0.8645
3324.38	0.8657
3315.43	0.8765
3306.47	0.8707
3297.52	0.8193
3288.56	0.8103
3279.61	0.827
3270.65	0.8443
3261.7	0.8674
3252.74	0.8847
3243.79	0.8903
3234.83	0.8935
3225.88	0.8959
3216.92	0.8971
3207.97	0.8991
3199.01	0.8993
3190.05	0.9004
3181.1	0.8992
3172.14	0.8988
3163.19	0.898
3154.23	0.8971
3145.28	0.8952
3136.32	0.8949
3127.37	0.8938
3118.41	0.8925
3109.46	0.8914
3100.5	0.8913
3091.55	0.893
3082.59	0.8869
3073.64	0.8846
3064.68	0.8745
3055.73	0.8574
3046.77	0.8389
3037.82	0.8671
3028.86	0.8725
3019.91	0.8632
3010.95	0.8432
3002	0.8104
2993.04	0.7685
2984.08	0.8006
2975.13	0.7995
2966.17	0.7617
2957.22	0.8091
2948.26	0.8396
2939.31	0.7968
2930.35	0.7128
2921.4	0.824
2912.44	0.8755
2903.49	0.8821
2894.53	0.8845
2885.58	0.8755
2876.62	0.8734
2867.67	0.8814
2858.71	0.8767
2849.76	0.8676
2840.8	0.8932
2831.85	0.8993
2822.89	0.8983
2813.94	0.8983
2804.98	0.9009
2796.02	0.9026
2787.07	0.9067
2778.11	0.9123
2769.16	0.9132
2760.2	0.9111
2751.25	0.9099
2742.29	0.9122
2733.34	0.9115
2724.38	0.9116
2715.43	0.9123
2706.47	0.9135
2697.52	0.9149
2688.56	0.9166
2679.61	0.9173
2670.65	0.9176
2661.7	0.9177
2652.74	0.9179
2643.79	0.9165
2634.83	0.9151
2625.88	0.9152
2616.92	0.9141
2607.97	0.9132
2599.01	0.9144
2590.05	0.9165
2581.1	0.9164
2572.14	0.9155
2563.19	0.9144
2554.23	0.9124
2545.28	0.9105
2536.32	0.9092
2527.37	0.9142
2518.41	0.9178
2509.46	0.9193
2500.5	0.9196
2491.55	0.9194
2482.59	0.919
2473.64	0.9173
2464.68	0.9105
2455.73	0.9136
2446.77	0.9146
2437.82	0.9154
2428.86	0.9168
2419.91	0.9168
2410.95	0.9167
2402	0.9173
2393.04	0.9165
2384.08	0.9183
2375.13	0.9254
2366.17	0.9208
2357.22	0.9195
2348.26	0.9172
2339.31	0.915
2330.35	0.9118
2321.4	0.9123
2312.44	0.9099
2303.49	0.9079
2294.53	0.9085
2285.58	0.9112
2276.62	0.9154
2267.67	0.9172
2258.71	0.9181
2249.76	0.9173
2240.8	0.9177
2231.85	0.9181
2222.89	0.9189
2213.94	0.9186
2204.98	0.9192
2196.02	0.9193
2187.07	0.9175
2178.11	0.9174
2169.16	0.9146
2160.2	0.9014
2151.25	0.8959
2142.29	0.9127
2133.34	0.9138
2124.38	0.9135
2115.43	0.9133
2106.47	0.9129
2097.52	0.9117
2088.56	0.9123
2079.61	0.9119
2070.65	0.9113
2061.7	0.9107
2052.74	0.9104
2043.79	0.9081
2034.83	0.9076
2025.88	0.9069
2016.92	0.9063
2007.97	0.9032
1999.01	0.8987
1990.05	0.9123
1981.1	0.915
1972.14	0.9135
1963.19	0.9126
1954.23	0.9098
1945.28	0.9107
1936.32	0.9153
1927.37	0.9162
1918.41	0.9175
1909.46	0.9135
1900.5	0.9124
1891.55	0.9109
1882.59	0.9089
1873.64	0.9087
1864.68	0.9076
1855.73	0.903
1846.77	0.9074
1837.82	0.9029
1828.86	0.9028
1819.91	0.9034
1810.95	0.9041
1802	0.8998
1793.04	0.8968
1784.08	0.8892
1775.13	0.8699
1766.17	0.8678
1757.22	0.8754
1748.26	0.8708
1739.31	0.8531
1730.35	0.8394
1721.4	0.861
1712.44	0.858
1703.49	0.8274
1694.53	0.7438
1685.58	0.6984
1676.62	0.4867
1667.67	0.0052
1658.71	0.0031
1649.76	0.2636
1640.8	0.1327
1631.85	0.3184
1622.89	0.4552
1613.94	0.2092
1604.98	0.6143
1596.02	0.7306
1587.07	0.7365
1578.11	0.7232
1569.16	0.7089
1560.2	0.6552
1551.25	0.6533
1542.29	0.6674
1533.34	0.7123
1524.38	0.7576
1515.43	0.786
1506.47	0.8089
1497.52	0.8209
1488.56	0.841
1479.61	0.859
1470.65	0.8466
1461.7	0.8232
1452.74	0.7605
1443.79	0.4967
1434.83	0.6344
1425.88	0.5796
1416.92	0.7715
1407.97	0.791
1399.01	0.7694
1390.05	0.7679
1381.1	0.7291
1372.14	0.6617
1363.19	0.7603
1354.23	0.7651
1345.28	0.4572
1336.32	0.4042
1327.37	0.8201
1318.41	0.8881
1309.46	0.9069
1300.5	0.9059
1291.55	0.9031
1282.59	0.8341
1273.64	0.8466
1264.68	0.7938
1255.73	0.8174
1246.77	0.5181
1237.82	0.3368
1228.86	0.8256
1219.91	0.8935
1210.95	0.9124
1202	0.9118
1193.04	0.9021
1184.08	0.8956
1175.13	0.8751
1166.17	0.8189
1157.22	0.7767
1148.26	0.2302
1139.31	0.8412
1130.35	0.9116
1121.4	0.9217
1112.44	0.9234
1103.49	0.9217
1094.53	0.9223
1085.58	0.9323
1076.62	0.9279
1067.67	0.9291
1058.71	0.9283
1049.76	0.9152
1040.8	0.8858
1031.85	0.8032
1022.89	0.8912
1013.94	0.8828
1004.98	0.8039
996.025	0.6
987.07	0.8735
978.114	0.9164
969.159	0.9254
960.204	0.9245
951.249	0.9231
942.294	0.9199
933.338	0.9091
924.383	0.8803
915.428	0.7457
906.473	0.0586
897.517	0.8308
888.562	0.8891
879.607	0.8797
870.652	0.8606
861.697	0.8476
852.741	0.8414
843.786	0.869
834.831	0.9157
825.876	0.9276
816.92	0.9261
807.965	0.9211
799.01	0.8818
790.055	0.6241
781.099	0.6659
772.144	0.7946
763.189	0.7844
754.234	0.8526
745.279	0.9167
736.323	0.9326
727.368	0.9358
718.413	0.9271
709.458	0.8122
700.502	0.9021
691.547	0.9188
682.592	0.9213
673.637	0.9115
664.682	0.8353
655.726	0.8223
646.771	0.8812
637.816	0.9068
628.861	0.9156
619.905	0.9172
610.95	0.9173
601.995	0.9166
593.04	0.9171
584.085	0.9165
575.129	0.915
566.174	0.9144
557.219	0.9129
548.264	0.9114
539.308	0.9106
530.353	0.9116
521.398	0.9101
512.443	0.906
503.488	0.8981
494.532	0.8864
485.577	0.8703
476.622	0.8514
467.667	0.8254
458.711	0.7966
449.756	0.7533
440.801	0.684
431.846	0.6244
422.891	0.5447
413.935	0.2407
404.98	0.1839
