Infrared Spectrum: BENZENETHIOL, o-AMINO-
Formula: C6 H7 N S
CAS: 137-07-5
State: SOLUTION (10% CCl4 FOR 3800-1340, 10% CS2 FOR 1340-450 CM^-^1)
Class: COBLENTZ III
Instrument: DOW KBr FOREPRISM-GRATING
Instrument parameters: BLAZED AT 3.5, 12.0, 20.0 MICRON AND CHANGED AT 5.0, 7.5, 14.9 MICRON
Sampling: TRANSMISSION
Path length: 0.0115 CM, 0.0114 CM
Resolution: 2
Origin: DOW CHEMICAL COMPANY
1/CM	TRANSMITTANCE
3802	0.8888
3793	0.8899
3784	0.8913
3775	0.8924
3766	0.8935
3757	0.8942
3748	0.8941
3739	0.8938
3730	0.8928
3721	0.8917
3712	0.8899
3703	0.8858
3694	0.8761
3685	0.8735
3676	0.8756
3667	0.8775
3658	0.8789
3649	0.88
3640	0.8794
3631	0.8782
3622	0.8774
3613	0.8766
3604	0.8763
3595	0.8758
3586	0.8752
3577	0.8743
3568	0.8728
3559	0.8703
3550	0.8678
3541	0.8623
3532	0.8538
3523	0.8423
3514	0.826
3505	0.7964
3496	0.729
3487	0.6112
3478	0.4881
3469	0.3766
3460	0.4037
3451	0.4756
3442	0.5475
3433	0.6194
3424	0.6912
3415	0.7571
3406	0.7645
3397	0.7199
3388	0.5499
3379	0.3895
3370	0.3768
3361	0.4741
3352	0.5692
3343	0.6643
3334	0.7565
3325	0.8017
3316	0.8242
3307	0.8392
3298	0.8499
3289	0.8578
3280	0.8628
3271	0.8662
3262	0.8689
3253	0.8697
3244	0.8701
3235	0.8689
3226	0.8675
3217	0.8651
3208	0.8617
3199	0.8559
3190	0.8449
3181	0.8318
3172	0.8268
3163	0.8383
3154	0.8506
3145	0.8568
3136	0.8587
3127	0.8586
3118	0.8575
3109	0.8547
3100	0.8486
3091	0.8323
3082	0.7981
3073	0.594
3064	0.5034
3055	0.6469
3046	0.7001
3037	0.74
3028	0.7336
3019	0.5574
3010	0.6471
3001	0.7865
2992	0.8303
2983	0.8465
2974	0.852
2965	0.8533
2956	0.8535
2947	0.8556
2938	0.8583
2929	0.8558
2920	0.8507
2911	0.8493
2902	0.8523
2893	0.8552
2884	0.856
2875	0.8531
2866	0.8511
2857	0.8536
2848	0.8603
2839	0.8671
2830	0.8738
2821	0.88
2812	0.8785
2803	0.8744
2794	0.8757
2785	0.8723
2776	0.8693
2767	0.8721
2758	0.8745
2749	0.8697
2740	0.8674
2731	0.8684
2722	0.8701
2713	0.8708
2704	0.8698
2695	0.8677
2686	0.8681
2677	0.8681
2668	0.8678
2659	0.8675
2650	0.8671
2641	0.8668
2632	0.8616
2623	0.8513
2614	0.8385
2605	0.8281
2596	0.8447
2587	0.8547
2578	0.8562
2569	0.8515
2560	0.8343
2551	0.8183
2542	0.8088
2533	0.8119
2524	0.826
2515	0.8407
2506	0.8532
2497	0.8611
2488	0.8678
2479	0.8704
2470	0.8671
2461	0.8625
2452	0.8664
2443	0.8702
2434	0.8687
2425	0.8697
2416	0.8708
2407	0.8714
2398	0.8713
2389	0.8713
2380	0.8749
2371	0.8787
2362	0.8796
2353	0.8795
2344	0.8771
2335	0.873
2326	0.8678
2317	0.8561
2308	0.8532
2299	0.8525
2290	0.8523
2281	0.8534
2272	0.8621
2263	0.8692
2254	0.8727
2245	0.8757
2236	0.8787
2227	0.8814
2218	0.8824
2209	0.8805
2200	0.8771
2191	0.8739
2182	0.8721
2173	0.8704
2164	0.8687
2155	0.867
2146	0.8654
2137	0.8641
2128	0.8668
2119	0.8677
2110	0.8686
2101	0.869
2092	0.8689
2083	0.8685
2074	0.8677
2065	0.8678
2056	0.8677
2047	0.8675
2038	0.8673
2029	0.8667
2020	0.8662
2011	0.8654
2002	0.8555
1993	0.834
1984	0.8484
1975	0.8477
1966	0.848
1957	0.849
1948	0.8496
1939	0.8474
1930	0.8137
1921	0.7868
1912	0.8297
1903	0.8121
1894	0.7922
1885	0.8238
1876	0.8205
1867	0.8134
1858	0.8197
1849	0.8251
1840	0.8299
1831	0.8398
1822	0.8408
1813	0.83
1804	0.8191
1795	0.8293
1786	0.8243
1777	0.803
1768	0.8068
1759	0.8195
1750	0.8194
1741	0.8124
1732	0.8233
1723	0.8313
1714	0.831
1705	0.8231
1696	0.8022
1687	0.7768
1678	0.7675
1669	0.7717
1660	0.7708
1651	0.7428
1642	0.6792
1633	0.5659
1624	0.2958
1615	0.0538
1606	0.0005
1597	0.1317
1588	0.2808
1579	0.3384
1570	0.363
1561	0.3877
1552	0.3599
1543	0.416
1534	0.4844
1525	0.53
1516	0.553
1507	0.5546
1498	0.3718
1489	0.2948
1480	0.0058
1471	0.4698
1462	0.6455
1453	0.3703
1444	0.368
1435	0.7265
1426	0.7694
1417	0.7851
1408	0.8135
1399	0.8067
1390	0.8105
1381	0.8014
1372	0.8098
1363	0.8407
1354	0.8454
1345	0.8351
1336	0.8151
1327	0.761
1318	0.6795
1309	0.2545
1300	0.1102
1291	0.6166
1282	0.7187
1273	0.7361
1264	0.6918
1255	0.6043
1246	0.7328
1237	0.8078
1228	0.8397
1219	0.8485
1210	0.8521
1201	0.8464
1192	0.8377
1183	0.8288
1174	0.8098
1165	0.7907
1156	0.3473
1147	0.666
1138	0.5523
1129	0.7639
1120	0.8019
1111	0.7992
1102	0.7715
1093	0.6851
1084	0.5959
1075	0.6851
1066	0.7649
1057	0.784
1048	0.7636
1039	0.7621
1030	0.7141
1021	0.4548
1012	0.7396
1003	0.7898
994	0.8001
985	0.805
976	0.8014
967	0.7856
958	0.7774
949	0.7753
940	0.7589
931	0.6897
922	0.708
913	0.6786
904	0.5621
895	0.7
886	0.7099
877	0.6907
868	0.6583
859	0.6253
850	0.5938
841	0.6003
832	0.6302
823	0.6489
814	0.6742
805	0.6686
796	0.6596
787	0.6487
778	0.626
769	0.584
760	0.4157
751	0.1834
742	0.0026
733	0.3194
724	0.5583
715	0.5904
706	0.4539
697	0.5854
688	0.5831
679	0.5602
670	0.5416
661	0.5564
652	0.5242
643	0.5323
634	0.5355
625	0.5292
616	0.5205
607	0.513
598	0.5055
589	0.5002
580	0.5019
571	0.5165
562	0.5781
553	0.4953
544	0.5301
535	0.3939
526	0.3852
517	0.4155
508	0.4377
499	0.4566
490	0.4716
481	0.4839
472	0.479
463	0.4466
454	0.4589
