Infrared Spectrum: p-MENTHA-1,8-DIENE
Formula: C10 H16
CAS: 138-86-3
State: VAPOR (25 MICROLITER AT 150 C)
Boiling point: 178 C
Class: COBLENTZ
Instrument: PERKIN-ELMER 180
Sampling: TRANSMISSION
Path length: 5 CM KBr CELL, CELL VOLUME: 80 CM^3
Resolution: 2-3 CM^-^1
Origin: PERKIN-ELMER CORP. (M. ZELLER)
1/CM	TRANSMITTANCE
404.068	0.508
413.56	0.56
423.051	0.61
432.543	0.671
442.034	0.7359
451.526	0.775
461.018	0.805
470.509	0.825
480.001	0.841
489.492	0.856
498.984	0.861
508.475	0.859
517.967	0.857
527.459	0.857
536.95	0.856
546.442	0.866
555.933	0.884
565.425	0.899
574.917	0.909
584.408	0.916
593.9	0.921
603.391	0.921
612.883	0.922
622.375	0.922
631.866	0.921
641.358	0.924
650.849	0.928
660.341	0.925
669.832	0.92
679.324	0.92
688.816	0.918
698.307	0.917
707.799	0.916
717.29	0.913
726.782	0.906
736.274	0.898
745.765	0.891
755.257	0.882
764.748	0.88
774.24	0.867
783.732	0.809
793.223	0.751
802.715	0.772
812.206	0.838
821.698	0.875
831.189	0.876
840.681	0.874
850.173	0.867
859.664	0.849
869.156	0.795
878.647	0.607
888.139	0.4581
897.631	0.492
907.122	0.673
916.614	0.751
926.105	0.818
935.597	0.852
945.089	0.851
954.58	0.848
964.072	0.857
973.563	0.866
983.055	0.856
992.546	0.843
1002.04	0.824
1011.53	0.801
1021.02	0.795
1030.51	0.795
1040	0.787
1049.5	0.779
1058.99	0.798
1068.48	0.82
1077.97	0.825
1087.46	0.821
1096.95	0.81
1106.45	0.799
1115.94	0.801
1125.43	0.809
1134.92	0.801
1144.41	0.76
1153.9	0.714
1163.4	0.74
1172.89	0.784
1182.38	0.798
1191.87	0.798
1201.36	0.782
1210.85	0.788
1220.34	0.792
1229.84	0.774
1239.33	0.775
1248.82	0.792
1258.31	0.809
1267.8	0.814
1277.29	0.809
1286.79	0.799
1296.28	0.799
1305.77	0.798
1315.26	0.798
1324.75	0.801
1334.24	0.801
1343.74	0.797
1353.23	0.78
1362.72	0.722
1372.21	0.606
1381.7	0.5831
1391.19	0.696
1400.68	0.756
1410.18	0.756
1419.67	0.714
1429.16	0.606
1438.65	0.525
1448.14	0.491
1457.63	0.543
1467.13	0.683
1476.62	0.774
1486.11	0.818
1495.6	0.833
1505.09	0.838
1514.58	0.843
1524.08	0.847
1533.57	0.841
1543.06	0.836
1552.55	0.828
1562.04	0.822
1571.53	0.807
1581.02	0.799
1590.52	0.786
1600.01	0.784
1609.5	0.779
1618.99	0.755
1628.48	0.699
1637.97	0.599
1647.47	0.587
1656.96	0.719
1666.45	0.788
1675.94	0.798
1685.43	0.786
1694.92	0.769
1704.42	0.78
1713.91	0.794
1723.4	0.809
1732.89	0.806
1742.38	0.81
1751.87	0.822
1761.37	0.836
1770.86	0.833
1780.35	0.829
1789.84	0.838
1799.33	0.859
1808.82	0.878
1818.31	0.886
1827.81	0.891
1837.3	0.895
1846.79	0.895
1856.28	0.894
1865.77	0.893
1875.26	0.893
1884.76	0.897
1894.25	0.894
1903.74	0.895
1913.23	0.893
1922.72	0.893
1932.21	0.893
1941.71	0.89
1951.2	0.889
1960.69	0.89
1970.18	0.889
1979.67	0.89
1989.16	0.89
1998.65	0.883
2008.15	0.876
2017.64	0.878
2027.13	0.879
2036.62	0.878
2046.11	0.875
2055.6	0.875
2065.1	0.875
2074.59	0.878
2084.08	0.876
2093.57	0.876
2103.06	0.878
2112.55	0.8766
2122.05	0.876
2131.54	0.875
2141.03	0.875
2150.52	0.875
2160.01	0.874
2169.5	0.872
2179	0.871
2188.49	0.871
2197.98	0.8707
2207.47	0.8683
2216.96	0.868
2226.45	0.867
2235.94	0.8652
2245.44	0.864
2254.93	0.864
2264.42	0.864
2273.91	0.863
2283.4	0.863
2292.89	0.8605
2302.39	0.8569
2311.88	0.8539
2321.37	0.8521
2330.86	0.855
2340.35	0.8488
2349.84	0.8476
2359.34	0.8551
2368.83	0.8583
2378.32	0.859
2387.81	0.859
2397.3	0.859
2406.79	0.857
2416.28	0.8568
2425.78	0.855
2435.27	0.853
2444.76	0.8512
2454.25	0.849
2463.74	0.851
2473.23	0.849
2482.73	0.851
2492.22	0.851
2501.71	0.8493
2511.2	0.848
2520.69	0.848
2530.18	0.8484
2539.68	0.8481
2549.17	0.844
2558.66	0.844
2568.15	0.8435
2577.64	0.841
2587.13	0.8375
2596.62	0.834
2606.12	0.8351
2615.61	0.836
2625.1	0.8348
2634.59	0.833
2644.08	0.8294
2653.57	0.825
2663.07	0.8243
2672.56	0.8237
2682.05	0.821
2691.54	0.8196
2701.03	0.8101
2710.52	0.8003
2720.02	0.7857
2729.51	0.7826
2739	0.7991
2748.49	0.805
2757.98	0.8022
2767.47	0.801
2776.97	0.7971
2786.46	0.7793
2795.95	0.7538
2805.44	0.7211
2814.93	0.6238
2824.42	0.4723
2833.91	0.3468
2843.41	0.3061
2852.9	0.2691
2862.39	0.2575
2871.88	0.2508
2881.37	0.2072
2890.86	0.168
2900.36	0.1175
2909.85	0.0699
2919.34	0.0568
2928.83	0.0826
2938.32	0.1416
2947.81	0.2545
2957.31	0.2078
2966.8	0.2165
2976.29	0.3307
2985.78	0.4755
2995.27	0.4952
3004.76	0.5109
3014.25	0.5639
3023.75	0.6403
3033.24	0.6516
3042.73	0.66
3052.22	0.6512
3061.71	0.5872
3071.2	0.5269
3080.7	0.6111
3090.19	0.7065
3099.68	0.7549
3109.17	0.7788
3118.66	0.7884
3128.15	0.792
3137.65	0.797
3147.14	0.798
3156.63	0.8
3166.12	0.802
3175.61	0.802
3185.1	0.803
3194.59	0.803
3204.09	0.8029
3213.58	0.802
3223.07	0.801
3232.56	0.8017
3242.05	0.803
3251.54	0.805
3261.04	0.805
3270.53	0.805
3280.02	0.805
3289.51	0.805
3299	0.805
3308.49	0.805
3317.99	0.805
3327.48	0.803
3336.97	0.803
3346.46	0.802
3355.95	0.802
3365.44	0.802
3374.94	0.802
3384.43	0.802
3393.92	0.801
3403.41	0.801
3412.9	0.799
3422.39	0.799
3431.88	0.799
3441.38	0.799
3450.87	0.799
3460.36	0.799
3469.85	0.799
3479.34	0.798
3488.83	0.798
3498.33	0.797
3507.82	0.797
3517.31	0.797
3526.8	0.797
3536.29	0.797
3545.78	0.7943
3555.28	0.7908
3564.77	0.7907
3574.26	0.791
3583.75	0.791
3593.24	0.791
3602.73	0.7884
3612.22	0.7877
3621.72	0.7838
3631.21	0.7834
3640.7	0.7879
3650.19	0.79
3659.68	0.788
3669.17	0.791
3678.67	0.792
3688.16	0.792
3697.65	0.792
3707.14	0.791
3716.63	0.79
3726.12	0.79
3735.62	0.79
3745.11	0.79
3754.6	0.7879
3764.09	0.786
3773.58	0.786
3783.07	0.784
3792.57	0.7829
3802.06	0.7826
3811.55	0.782
3821.04	0.7827
3830.53	0.78
3840.02	0.7783
3849.51	0.778
3859.01	0.779
3868.5	0.776
3877.99	0.776
3887.48	0.7753
3896.97	0.7752
3906.46	0.775
3915.96	0.775
3925.45	0.772
3934.94	0.772
3944.43	0.771
3953.92	0.772
3963.41	0.7729
3972.91	0.772
3982.4	0.772
3991.89	0.771
4001.38	0.7715
