Infrared Spectrum: 2-Norbornanol, 1,3,3-trimethyl-, acetate
Formula: C12 H20 O2
CAS: 13851-11-1
State: SOLUTION (10% CCl4 FOR 4000-1300, 10% CS2 FOR 1300-450 CM^-^1) VS SOLVENT
Class: COBLENTZ III
Instrument: CARY 90 (GRATING)
Instrument parameters: GRATING CHANGES: 3000, 2000, 1200 CM^-^1
Sampling: TRANSMISSION
Path length: 0.010 CM, AND 0.010 CM
Resolution: 2
Origin: WESTERN REGIONAL RES. USDA
1/CM	TRANSMITTANCE
439	0.9565
448	0.9602
457	1.0185
466	0.9781
475	0.9258
484	0.9945
493	1.0091
502	1.0058
511	0.9646
520	0.78
529	0.9721
538	1.01
547	1.0171
556	0.9633
565	0.9852
574	1.0104
583	1.0041
592	0.9705
601	0.8036
610	0.8756
619	0.9658
628	0.9582
637	0.9139
646	0.8428
655	0.6992
664	0.8756
673	0.9549
682	0.9464
691	0.946
700	0.9629
709	0.9707
718	0.977
727	0.9839
736	0.9867
745	0.987
754	0.9864
763	0.9833
772	0.9772
781	0.9631
790	0.9306
799	0.7752
808	0.7801
817	0.8836
826	0.9353
835	0.9631
844	0.9675
853	0.9463
862	0.8712
871	0.9312
880	0.9097
889	0.8949
898	0.8482
907	0.8259
916	0.7837
925	0.7547
934	0.801
943	0.7067
952	0.827
961	0.8765
970	0.7352
979	0.7194
988	0.61
997	0.6255
1006	0.5829
1015	0.1767
1024	0.619
1033	0.4734
1042	0.0289
1051	0.0004
1060	0.4072
1069	0.5198
1078	0.4764
1087	0.5616
1096	0.7268
1105	0.6822
1114	0.8284
1123	0.8721
1132	0.91
1141	0.8902
1150	0.8535
1159	0.6365
1168	0.7599
1177	0.7824
1186	0.779
1195	0.7048
1204	0.5841
1213	0.4453
1222	0.3386
1231	0.0184
1240	0.0051
1249	0.0014
1258	0.1998
1267	0.4595
1276	0.4013
1285	0.7718
1294	0.808
1303	0.892
1312	0.8385
1321	0.897
1330	0.8772
1339	0.8746
1348	0.8752
1357	0.651
1366	0.714
1375	0.5095
1384	0.7724
1393	0.8455
1402	0.8726
1411	0.8714
1420	0.8542
1429	0.8334
1438	0.8194
1447	0.7855
1456	0.7203
1465	0.6815
1474	0.7505
1483	0.8395
1492	0.8469
1501	0.8601
1510	0.8696
1519	0.8702
1528	0.8577
1537	0.8514
1546	0.8494
1555	0.849
1564	0.85
1573	0.8526
1582	0.8561
1591	0.8594
1600	0.861
1609	0.8636
1618	0.8677
1627	0.8638
1636	0.8553
1645	0.8511
1654	0.8517
1663	0.8537
1672	0.8533
1681	0.8489
1690	0.8439
1699	0.8401
1708	0.8122
1717	0.7477
1726	0.633
1735	0.1883
1744	0.2873
1753	0.6755
1762	0.7568
1771	0.7604
1780	0.828
1789	0.8405
1798	0.8406
1807	0.8335
1816	0.8363
1825	0.8428
1834	0.8486
1843	0.8516
1852	0.8534
1861	0.8562
1870	0.8583
1879	0.8596
1888	0.8572
1897	0.8543
1906	0.8578
1915	0.8544
1924	0.8553
1933	0.8557
1942	0.8552
1951	0.8536
1960	0.8533
1969	0.8553
1978	0.8585
1987	0.8592
1996	0.9142
2005	0.9991
2014	0.9976
2023	0.9957
2032	0.9945
2041	0.9934
2050	0.9922
2059	0.991
2068	0.9896
2077	0.9881
2086	0.9869
2095	0.9855
2104	0.9842
2113	0.9828
2122	0.9815
2131	0.9799
2140	0.9784
2149	0.9767
2158	0.9751
2167	0.9735
2176	0.9718
2185	0.9707
2194	0.9702
2203	0.9703
2212	0.97
2221	0.9694
2230	0.9687
2239	0.967
2248	0.9654
2257	0.9639
2266	0.9625
2275	0.9611
2284	0.9601
2293	0.9592
2302	0.9587
2311	0.9581
2320	0.9574
2329	0.9568
2338	0.957
2347	0.9567
2356	0.9547
2365	0.9615
2374	0.9605
2383	0.9542
2392	0.9524
2401	0.9532
2410	0.9538
2419	0.9539
2428	0.9541
2437	0.9542
2446	0.9539
2455	0.9533
2464	0.9529
2473	0.9529
2482	0.9531
2491	0.9531
2500	0.9531
2509	0.9532
2518	0.9526
2527	0.9516
2536	0.9507
2545	0.9497
2554	0.9481
2563	0.9464
2572	0.9448
2581	0.9432
2590	0.9417
2599	0.9401
2608	0.9388
2617	0.9378
2626	0.9368
2635	0.9358
2644	0.9346
2653	0.9328
2662	0.9311
2671	0.9289
2680	0.9267
2689	0.9242
2698	0.9216
2707	0.9202
2716	0.9205
2725	0.9227
2734	0.9258
2743	0.9292
2752	0.9328
2761	0.9353
2770	0.9369
2779	0.9362
2788	0.9356
2797	0.9342
2806	0.9326
2815	0.9312
2824	0.9302
2833	0.9282
2842	0.9246
2851	0.9199
2860	0.8566
2869	0.7272
2878	0.5813
2887	0.6836
2896	0.7365
2905	0.7213
2914	0.707
2923	0.6329
2932	0.528
2941	0.5069
2950	0.4934
2959	0.4116
2968	0.369
2977	0.5371
2986	0.6759
2995	0.7643
3004	0.8946
3013	0.9083
3022	0.9157
3031	0.9218
3040	0.9284
3049	0.9355
3058	0.9428
3067	0.9482
3076	0.9506
3085	0.9527
3094	0.9538
3103	0.9539
3112	0.9541
3121	0.9536
3130	0.9531
3139	0.9525
3148	0.9505
3157	0.9478
3166	0.945
3175	0.9423
3184	0.9393
3193	0.936
3202	0.9328
3211	0.9311
3220	0.9298
3229	0.9287
3238	0.9301
3247	0.9318
3256	0.9338
3265	0.9362
3274	0.9387
3283	0.9411
3292	0.9417
3301	0.9414
3310	0.9402
3319	0.9391
3328	0.9379
3337	0.9368
3346	0.9358
3355	0.9348
3364	0.9337
3373	0.9326
3382	0.9315
3391	0.9304
3400	0.9291
3409	0.9277
3418	0.9264
3427	0.9248
3436	0.9228
3445	0.9206
3454	0.9186
3463	0.919
3472	0.9203
3481	0.923
3490	0.9259
3499	0.9299
3508	0.9332
3517	0.9357
3526	0.9369
3535	0.9372
3544	0.937
3553	0.9366
3562	0.9361
3571	0.9355
3580	0.9347
3589	0.9334
3598	0.9322
3607	0.9305
3616	0.9288
3625	0.9282
3634	0.929
3643	0.9297
3652	0.9303
3661	0.9308
3670	0.9314
3679	0.9307
3688	0.93
3697	0.9292
3706	0.9289
3715	0.9286
3724	0.9284
3733	0.9292
3742	0.9302
3751	0.9311
3760	0.9315
3769	0.9318
3778	0.9322
3787	0.9316
3796	0.9308
3805	0.93
3814	0.9291
3823	0.9282
3832	0.9269
3841	0.9244
3850	0.922
3859	0.9188
3868	0.9148
3877	0.9106
3886	0.9049
3895	0.9002
3904	0.9013
3913	0.9051
3922	0.9077
3931	0.9089
3940	0.9086
3949	0.9052
3958	0.9029
3967	0.9023
3976	0.9067
3985	0.9111
3994	0.9128
