Infrared Spectrum: ACETIC ACID, NITRILOTRI-
Formula: C6 H9 N O6
CAS: 139-13-9
State: SOLID (OIL MULL)
Class: COBLENTZ III
Instrument: PERKIN-ELMER 521 (GRATING)
Instrument parameters: FILTERS AT 3150, 2500, 2000, 1150, 700, 410. GRATING CHANGES: 2000, 630
Sampling: TRANSMISSION
Path length: CsBr PLATES
Resolution: 2
Origin: STANDARD OIL OF OHIO
1/CM	TRANSMITTANCE
3902	0.7468
3892	0.7486
3882	0.7505
3872	0.7525
3862	0.7531
3852	0.7539
3842	0.7561
3832	0.7585
3822	0.7598
3812	0.7599
3802	0.7599
3792	0.7595
3782	0.7593
3772	0.7601
3762	0.7617
3752	0.7646
3742	0.7657
3732	0.7664
3722	0.7671
3712	0.7678
3702	0.7676
3692	0.7675
3682	0.7675
3672	0.7674
3662	0.7675
3652	0.7678
3642	0.768
3632	0.7682
3622	0.7683
3612	0.7682
3602	0.7681
3592	0.768
3582	0.7675
3572	0.7667
3562	0.7658
3552	0.7655
3542	0.7654
3532	0.7658
3522	0.7647
3512	0.7631
3502	0.7615
3492	0.7599
3482	0.7587
3472	0.7587
3462	0.7587
3452	0.7587
3442	0.7582
3432	0.7576
3422	0.7572
3412	0.7558
3402	0.7543
3392	0.7526
3382	0.7515
3372	0.7506
3362	0.751
3352	0.7493
3342	0.7497
3332	0.7501
3322	0.7505
3312	0.7505
3302	0.7505
3292	0.7505
3282	0.7505
3272	0.7498
3262	0.7487
3252	0.7465
3242	0.7442
3232	0.7401
3222	0.7356
3212	0.7312
3202	0.7271
3192	0.7221
3182	0.7161
3172	0.7097
3162	0.7046
3152	0.7003
3142	0.6976
3132	0.6918
3122	0.6812
3112	0.67
3102	0.6575
3092	0.6418
3082	0.6157
3072	0.556
3062	0.5139
3052	0.4769
3042	0.4153
3032	0.4454
3022	0.5145
3012	0.5159
3002	0.4604
2992	0.3834
2982	0.3294
2972	0.2276
2962	0.1258
2952	0.0932
2942	0.0939
2932	0.0567
2922	0.0489
2912	0.077
2902	0.1177
2892	0.1554
2882	0.1757
2872	0.1474
2862	0.1235
2852	0.1095
2842	0.2249
2832	0.375
2822	0.4512
2812	0.4928
2802	0.5226
2792	0.539
2782	0.5547
2772	0.5676
2762	0.575
2752	0.5794
2742	0.5809
2732	0.578
2722	0.5768
2712	0.5791
2702	0.5802
2692	0.5796
2682	0.576
2672	0.5721
2662	0.571
2652	0.573
2642	0.574
2632	0.5751
2622	0.5754
2612	0.5751
2602	0.5748
2592	0.5745
2582	0.5746
2572	0.5748
2562	0.575
2552	0.5752
2542	0.5753
2532	0.574
2522	0.5718
2512	0.5696
2502	0.5675
2492	0.5653
2482	0.5633
2472	0.5605
2462	0.5575
2452	0.5545
2442	0.5509
2432	0.5472
2422	0.5445
2412	0.5427
2402	0.5431
2392	0.5439
2382	0.545
2372	0.546
2362	0.547
2352	0.548
2342	0.5498
2332	0.5518
2322	0.5537
2312	0.5556
2302	0.5582
2292	0.5609
2282	0.5635
2272	0.5662
2262	0.569
2252	0.5717
2242	0.5747
2232	0.5777
2222	0.5812
2212	0.5846
2202	0.586
2192	0.5869
2182	0.5875
2172	0.5881
2162	0.5887
2152	0.5903
2142	0.5934
2132	0.5956
2122	0.5965
2112	0.5962
2102	0.5958
2092	0.5948
2082	0.5929
2072	0.5898
2062	0.5856
2052	0.5826
2042	0.5805
2032	0.5783
2022	0.5745
2012	0.5718
2002	0.5692
1992	0.5633
1982	0.5571
1972	0.5523
1962	0.5483
1952	0.5445
1942	0.5409
1932	0.5365
1922	0.5346
1912	0.533
1902	0.5322
1892	0.5312
1882	0.528
1872	0.5212
1862	0.5158
1852	0.512
1842	0.5118
1832	0.5158
1822	0.522
1812	0.53
1802	0.5374
1792	0.5448
1782	0.5512
1772	0.5529
1762	0.5405
1752	0.478
1742	0.3897
1732	0.2696
1722	0.2322
1712	0.2422
1702	0.2703
1692	0.3379
1682	0.4264
1672	0.5051
1662	0.5568
1652	0.5839
1642	0.6043
1632	0.6104
1622	0.6066
1612	0.5931
1602	0.576
1592	0.5591
1582	0.5456
1572	0.5337
1562	0.521
1552	0.509
1542	0.499
1532	0.4915
1522	0.4867
1512	0.4824
1502	0.4775
1492	0.4679
1482	0.4505
1472	0.4038
1462	0.3044
1452	0.1728
1442	0.212
1432	0.2275
1422	0.2471
1412	0.385
1402	0.3455
1392	0.368
1382	0.3797
1372	0.2859
1362	0.2947
1352	0.3345
1342	0.4141
1332	0.3574
1322	0.2882
1312	0.3407
1302	0.3626
1292	0.403
1282	0.4168
1272	0.3697
1262	0.33
1252	0.2961
1242	0.2671
1232	0.2263
1222	0.2681
1212	0.284
1202	0.3151
1192	0.2505
1182	0.2965
1172	0.3167
1162	0.3343
1152	0.353
1142	0.3724
1132	0.3895
1122	0.4018
1112	0.4093
1102	0.4145
1092	0.4189
1082	0.4279
1072	0.4367
1062	0.4364
1052	0.464
1042	0.4829
1032	0.4989
1022	0.517
1012	0.5324
1002	0.404
992	0.4854
982	0.5331
972	0.5423
962	0.4269
952	0.4477
942	0.5197
932	0.5617
922	0.5574
912	0.5949
902	0.5518
892	0.4406
882	0.5667
872	0.6254
862	0.6405
852	0.5772
842	0.6654
832	0.7007
822	0.7217
812	0.7369
802	0.7449
792	0.7544
782	0.7612
772	0.76
762	0.7503
752	0.706
742	0.4886
732	0.462
722	0.5976
712	0.6327
702	0.741
692	0.764
682	0.7491
672	0.6906
662	0.7782
652	0.8221
642	0.8407
632	0.8507
622	0.8547
612	0.8538
602	0.8517
592	0.849
582	0.8181
572	0.8534
562	0.8497
552	0.8186
542	0.8165
532	0.843
522	0.8564
512	0.86
502	0.8548
492	0.8243
482	0.6
472	0.7138
462	0.7968
452	0.8261
442	0.8305
432	0.8221
422	0.8147
412	0.813
402	0.7961
392	0.7858
382	0.7515
372	0.6089
362	0.5938
352	0.5883
342	0.5208
332	0.6383
322	0.6312
312	0.803
302	0.8687
292	0.8708
282	0.837
272	0.7305
262	0.7878
252	0.8989
