Infrared Spectrum: 1,2,3-Propanetriol, tripropionate
Formula: C12 H20 O6
CAS: 139-45-7
State: SOLUTION (10% CCl4 FOR 2.7-7.5, 10% CS2 FOR 7.5-26 MICRON) VS SOLVENT
Class: COBLENTZ III
Instrument: DOW KBr FOREPRISM-GRATING
Instrument parameters: BLAZED AT 3.5, 12.0, 20.0 MICRON AND CHANGED AT 5.0, 7.5, 14.9 MICRON
Sampling: TRANSMISSION
Path length: 0.011 CM, 0.011 CM
Resolution: 2
Origin: DOW CHEMICAL COMPANY
1/CM	TRANSMITTANCE
3794	0.8627
3785	0.8632
3776	0.8638
3767	0.8641
3758	0.8642
3749	0.8644
3740	0.8649
3731	0.8651
3722	0.8649
3713	0.8642
3704	0.8633
3695	0.8617
3686	0.8581
3677	0.8544
3668	0.8544
3659	0.8552
3650	0.8549
3641	0.8537
3632	0.8495
3623	0.8417
3614	0.8282
3605	0.8233
3596	0.8225
3587	0.8223
3578	0.821
3569	0.8167
3560	0.8068
3551	0.7911
3542	0.7753
3533	0.7619
3524	0.7501
3515	0.7458
3506	0.7468
3497	0.7471
3488	0.7464
3479	0.7425
3470	0.7386
3461	0.7375
3452	0.7644
3443	0.7865
3434	0.803
3425	0.8156
3416	0.827
3407	0.8363
3398	0.8452
3389	0.8536
3380	0.8614
3371	0.8678
3362	0.8735
3353	0.8774
3344	0.8814
3335	0.8845
3326	0.8873
3317	0.89
3308	0.8917
3299	0.8933
3290	0.8945
3281	0.895
3272	0.8955
3263	0.8948
3254	0.8941
3245	0.8934
3236	0.8927
3227	0.8921
3218	0.8915
3209	0.8908
3200	0.89
3191	0.8891
3182	0.8883
3173	0.8875
3164	0.8871
3155	0.8868
3146	0.8867
3137	0.8857
3128	0.8846
3119	0.8836
3110	0.8827
3101	0.8815
3092	0.8792
3083	0.8759
3074	0.871
3065	0.8654
3056	0.86
3047	0.8497
3038	0.8345
3029	0.8047
3020	0.7712
3011	0.629
3002	0.4466
2993	0.1929
2984	0.1976
2975	0.3434
2966	0.3814
2957	0.3664
2948	0.2434
2939	0.4206
2930	0.4965
2921	0.5496
2912	0.586
2903	0.6056
2894	0.6088
2885	0.4974
2876	0.6511
2867	0.7586
2858	0.7875
2849	0.8039
2840	0.8044
2831	0.8003
2822	0.8061
2813	0.8218
2804	0.8362
2795	0.8444
2786	0.8487
2777	0.8514
2768	0.8531
2759	0.8531
2750	0.8517
2741	0.8509
2732	0.8543
2723	0.8604
2714	0.8637
2705	0.8657
2696	0.8667
2687	0.867
2678	0.8673
2669	0.868
2660	0.8689
2651	0.8698
2642	0.8707
2633	0.8713
2624	0.8717
2615	0.872
2606	0.8724
2597	0.8723
2588	0.8723
2579	0.8721
2570	0.8721
2561	0.8718
2552	0.8715
2543	0.8712
2534	0.871
2525	0.8708
2516	0.8703
2507	0.8701
2498	0.8704
2489	0.8708
2480	0.8701
2471	0.869
2462	0.8678
2453	0.8677
2444	0.8675
2435	0.8674
2426	0.8674
2417	0.8673
2408	0.867
2399	0.8649
2390	0.8624
2381	0.8624
2372	0.863
2363	0.8634
2354	0.8637
2345	0.8637
2336	0.8623
2327	0.8596
2318	0.8567
2309	0.8575
2300	0.8621
2291	0.8633
2282	0.8644
2273	0.8654
2264	0.8662
2255	0.8645
2246	0.8631
2237	0.8627
2228	0.8633
2219	0.867
2210	0.8685
2201	0.8692
2192	0.8695
2183	0.8725
2174	0.8741
2165	0.8713
2156	0.871
2147	0.8708
2138	0.8703
2129	0.8692
2120	0.868
2111	0.8665
2102	0.8645
2093	0.8611
2084	0.8577
2075	0.8528
2066	0.8475
2057	0.8448
2048	0.8433
2039	0.8432
2030	0.8449
2021	0.8454
2012	0.8453
2003	0.8453
1994	0.8459
1985	0.8484
1976	0.852
1967	0.8545
1958	0.8554
1949	0.8557
1940	0.857
1931	0.8583
1922	0.8584
1913	0.8582
1904	0.8573
1895	0.8563
1886	0.8553
1877	0.8544
1868	0.8518
1859	0.8473
1850	0.8423
1841	0.8334
1832	0.8235
1823	0.8069
1814	0.7842
1805	0.7539
1796	0.7265
1787	0.681
1778	0.582
1769	0.3694
1760	0.1857
1751	0.004
1742	0.0026
1733	0.0033
1724	0.0445
1715	0.261
1706	0.4396
1697	0.543
1688	0.6536
1679	0.7122
1670	0.7386
1661	0.7565
1652	0.7718
1643	0.7903
1634	0.8088
1625	0.8153
1616	0.8165
1607	0.8214
1598	0.8292
1589	0.8363
1580	0.8403
1571	0.8407
1562	0.8411
1553	0.8428
1544	0.8462
1535	0.8433
1526	0.828
1517	0.8175
1508	0.7991
1499	0.7785
1490	0.7567
1481	0.6948
1472	0.3204
1463	0.1751
1454	0.352
1445	0.4328
1436	0.4762
1427	0.2848
1418	0.5247
1409	0.5634
1400	0.5121
1391	0.4162
1382	0.2571
1373	0.3214
1364	0.2321
1355	0.1542
1346	0.1779
1337	0.2492
1328	0.3068
1319	0.3571
1310	0.4738
1301	0.5183
1292	0.4945
1283	0.3182
1274	0.1846
1265	0.1872
1256	0.241
1247	0.2976
1238	0.309
1229	0.2577
1220	0.1796
1211	0.1173
1202	0.0634
1193	0.0353
1184	0.0118
1175	0.0037
1166	0.0024
1157	0.0038
1148	0.0153
1139	0.0849
1130	0.2388
1121	0.3627
1112	0.3545
1103	0.1791
1094	0.1694
1085	0.0285
1076	0.0485
1067	0.1491
1058	0.2283
1049	0.3316
1040	0.4252
1031	0.3309
1022	0.2678
1013	0.3526
1004	0.4133
995	0.4256
986	0.5871
977	0.6069
968	0.6508
959	0.6561
950	0.6982
941	0.7378
932	0.6651
923	0.6458
914	0.6868
905	0.6726
896	0.6528
887	0.654
878	0.6135
869	0.5543
860	0.594
851	0.6243
842	0.6471
833	0.6578
824	0.654
815	0.6698
806	0.3676
797	0.6658
788	0.7706
779	0.8108
770	0.8228
761	0.8251
752	0.821
743	0.8148
734	0.8122
725	0.8135
716	0.8162
707	0.8101
698	0.8017
689	0.7905
680	0.7798
671	0.7731
662	0.794
653	0.7825
644	0.7808
635	0.7824
626	0.7818
617	0.7722
608	0.7583
599	0.7484
590	0.743
581	0.7368
572	0.7325
563	0.7387
554	0.7485
545	0.7547
536	0.7587
527	0.7605
518	0.7608
509	0.7608
500	0.7599
491	0.7568
482	0.7501
473	0.7244
464	0.6867
455	0.6825
446	0.6854
437	0.6874
428	0.6889
419	0.6897
410	0.6905
401	0.6915
