Infrared Spectrum: PYRAZINE, ETHYL-
Formula: C6 H8 N2
CAS: 13925-00-3
State: LIQUID (NEAT)
Class: COBLENTZ III
Instrument: BAIRD (GRATING)
Instrument parameters: NaCl PRISM
Sampling: TRANSMISSION
Path length: 0.003 CM
Resolution: 2
Origin: WYANDOTTE CHEMICALS CORP.
1/CM	TRANSMITTANCE
4000	0.9633
3991	0.9635
3982	0.9636
3973	0.963
3964	0.9621
3955	0.9611
3946	0.9614
3937	0.9624
3928	0.9635
3919	0.9656
3910	0.968
3901	0.9704
3892	0.9728
3883	0.9752
3874	0.9747
3865	0.9731
3856	0.9716
3847	0.9705
3838	0.9707
3829	0.9709
3820	0.9712
3811	0.9715
3802	0.9718
3793	0.972
3784	0.9714
3775	0.9707
3766	0.9701
3757	0.9694
3748	0.9687
3739	0.9678
3730	0.9667
3721	0.9655
3712	0.9643
3703	0.963
3694	0.9615
3685	0.9597
3676	0.958
3667	0.9565
3658	0.9565
3649	0.9566
3640	0.9563
3631	0.9556
3622	0.9547
3613	0.952
3604	0.9477
3595	0.9436
3586	0.9406
3577	0.9378
3568	0.935
3559	0.9328
3550	0.931
3541	0.9291
3532	0.9273
3523	0.9265
3514	0.9266
3505	0.9267
3496	0.9278
3487	0.9299
3478	0.9318
3469	0.9338
3460	0.9346
3451	0.9352
3442	0.9358
3433	0.9358
3424	0.9355
3415	0.9351
3406	0.9349
3397	0.9346
3388	0.9343
3379	0.9335
3370	0.9325
3361	0.9317
3352	0.9307
3343	0.9294
3334	0.9278
3325	0.9261
3316	0.9246
3307	0.9245
3298	0.9243
3289	0.9242
3280	0.9243
3271	0.9251
3262	0.9258
3253	0.9234
3244	0.9175
3235	0.9109
3226	0.9044
3217	0.9005
3208	0.8967
3199	0.8928
3190	0.8884
3181	0.884
3172	0.875
3163	0.8621
3154	0.8454
3145	0.8241
3136	0.7969
3127	0.7564
3118	0.6987
3109	0.6029
3100	0.5066
3091	0.4097
3082	0.3764
3073	0.447
3064	0.5019
3055	0.4843
3046	0.4039
3037	0.3229
3028	0.2415
3019	0.1596
3010	0.0943
3001	0.1541
2992	0.2224
2983	0.2184
2974	0.2092
2965	0.2492
2956	0.3393
2947	0.4196
2938	0.4142
2929	0.3895
2920	0.3797
2911	0.4297
2902	0.5051
2893	0.5809
2884	0.6572
2875	0.7075
2866	0.7369
2857	0.7588
2848	0.7792
2839	0.7989
2830	0.8182
2821	0.843
2812	0.858
2803	0.8725
2794	0.8875
2785	0.9021
2776	0.907
2767	0.9058
2758	0.903
2749	0.9028
2740	0.9125
2731	0.9257
2722	0.9371
2713	0.9407
2704	0.9412
2695	0.9421
2686	0.9454
2677	0.9473
2668	0.9487
2659	0.9493
2650	0.9504
2641	0.9563
2632	0.9624
2623	0.9678
2614	0.9725
2605	0.9737
2596	0.9737
2587	0.9735
2578	0.9755
2569	0.9782
2560	0.9774
2551	0.9748
2542	0.975
2533	0.976
2524	0.9773
2515	0.9764
2506	0.9754
2497	0.9755
2488	0.9748
2479	0.9698
2470	0.967
2461	0.9705
2452	0.9746
2443	0.976
2434	0.9751
2425	0.9732
2416	0.971
2407	0.9702
2398	0.9702
2389	0.9708
2380	0.9717
2371	0.9725
2362	0.9727
2353	0.9728
2344	0.973
2335	0.9731
2326	0.9736
2317	0.9741
2308	0.9747
2299	0.9756
2290	0.9768
2281	0.9778
2272	0.9791
2263	0.9803
2254	0.9816
2245	0.9828
2236	0.9821
2227	0.9793
2218	0.9756
2209	0.9731
2200	0.972
2191	0.9741
2182	0.9768
2173	0.9797
2164	0.9828
2155	0.9859
2146	0.9868
2137	0.9862
2128	0.9839
2119	0.9813
2110	0.9786
2101	0.9763
2092	0.9741
2083	0.9741
2074	0.9789
2065	0.9832
2056	0.9853
2047	0.9794
2038	0.9755
2029	0.9746
2020	0.9764
2011	0.9784
2002	0.979
1993	0.9766
1984	0.9751
1975	0.9764
1966	0.9706
1957	0.9598
1948	0.931
1939	0.9103
1930	0.8999
1921	0.9033
1912	0.9155
1903	0.9299
1894	0.9428
1885	0.9571
1876	0.9578
1867	0.9508
1858	0.9534
1849	0.9628
1840	0.9613
1831	0.9477
1822	0.9297
1813	0.9141
1804	0.9117
1795	0.9078
1786	0.9107
1777	0.9332
1768	0.9618
1759	0.9648
1750	0.9594
1741	0.9601
1732	0.9573
1723	0.9467
1714	0.9336
1705	0.9262
1696	0.9282
1687	0.9375
1678	0.9407
1669	0.9356
1660	0.9315
1651	0.9363
1642	0.9343
1633	0.9297
1624	0.9209
1615	0.8923
1606	0.6688
1597	0.698
1588	0.8585
1579	0.8824
1570	0.8721
1561	0.8204
1552	0.5388
1543	0.3378
1534	0.6817
1525	0.7706
1516	0.7861
1507	0.6253
1498	0.2837
1489	0.1151
1480	0.1985
1471	0.2431
1462	0.3262
1453	0.3382
1444	0.3512
1435	0.4059
1426	0.2134
1417	0.0386
1408	0.1224
1399	0.3197
1390	0.4553
1381	0.5123
1372	0.7506
1363	0.7825
1354	0.7739
1345	0.7507
1336	0.7687
1327	0.6956
1318	0.5114
1309	0.528
1300	0.6801
1291	0.8151
1282	0.8509
1273	0.8439
1264	0.8198
1255	0.7758
1246	0.5812
1237	0.6072
1228	0.7775
1219	0.8436
1210	0.839
1201	0.7743
1192	0.6149
1183	0.4527
1174	0.3187
1165	0.1183
1156	0.1882
1147	0.5329
1138	0.6957
1129	0.7849
1120	0.8294
1111	0.8382
1102	0.8224
1093	0.7755
1084	0.6774
1075	0.3993
1066	0.153
1057	0.2614
1048	0.3928
1039	0.5752
1030	0.4725
1021	0.039
1012	0.4104
1003	0.7137
994	0.7021
985	0.6515
976	0.5254
967	0.6353
958	0.8024
949	0.8418
940	0.8352
931	0.8397
922	0.8798
913	0.8935
904	0.8992
895	0.8863
886	0.8424
877	0.8297
868	0.75
859	0.5299
850	0.102
841	0.1611
832	0.6375
823	0.7778
814	0.8075
805	0.7831
796	0.7496
787	0.7057
778	0.7385
769	0.7085
760	0.6724
751	0.7326
742	0.784
733	0.8482
724	0.8816
715	0.8828
706	0.9077
697	0.9118
688	0.9045
679	0.8895
670	0.8751
661	0.8585
652	0.8367
643	0.8088
634	0.7715
625	0.7621
