Infrared Spectrum: P-(1,1,3,3-TETRAMETHYLBUTYL)PHENOL
Formula: C14 H22 O
CAS: 140-66-9
State: SOLID (MELT)
Class: COBLENTZ
Instrument: Not specified, most likely a prism, grating, or hybrid spectrometer.
Sampling: TRANSMISSION
Resolution: 4
Origin: TENNESSEE EASTMAN COMPANY, RESEARCH LABORATORIES
MICROMETERS	TRANSMITTANCE
2.034	0.955
2.07494	0.959
2.11587	0.959
2.15681	0.959
2.19774	0.96
2.23868	0.959
2.27961	0.948
2.32055	0.926
2.36148	0.933
2.40242	0.938
2.44335	0.933
2.48429	0.935
2.52523	0.938
2.56616	0.936
2.6071	0.936
2.64803	0.94
2.68897	0.94
2.7299	0.902
2.77084	0.643
2.81177	0.539
2.85271	0.474
2.89365	0.43
2.93458	0.424
2.97552	0.467
3.01645	0.542
3.05739	0.61
3.09832	0.692
3.13926	0.745
3.18019	0.8
3.22113	0.817
3.26206	0.778
3.303	0.665
3.34394	0.288
3.38487	0.168
3.42581	0.211
3.46674	0.341
3.50768	0.665
3.54861	0.802
3.58955	0.849
3.63048	0.863
3.67142	0.863
3.71235	0.861
3.75329	0.866
3.79423	0.87
3.83516	0.887
3.8761	0.899
3.91703	0.904
3.95797	0.907
3.9989	0.911
4.03984	0.909
4.08077	0.909
4.12171	0.906
4.16265	0.901
4.20358	0.907
4.24452	0.914
4.28545	0.907
4.32639	0.907
4.36732	0.916
4.40826	0.93
4.44919	0.933
4.49013	0.938
4.53106	0.94
4.572	0.94
4.61294	0.94
4.65387	0.94
4.69481	0.933
4.73574	0.926
4.77668	0.928
4.81761	0.923
4.85855	0.928
4.89948	0.93
4.94042	0.93
4.98135	0.935
5.02229	0.936
5.06323	0.936
5.10416	0.936
5.1451	0.936
5.18603	0.933
5.22697	0.919
5.2679	0.902
5.30884	0.866
5.34977	0.882
5.39071	0.902
5.43165	0.914
5.47258	0.919
5.51352	0.921
5.55445	0.919
5.59539	0.916
5.63632	0.907
5.67726	0.887
5.71819	0.872
5.75913	0.873
5.80006	0.882
5.841	0.887
5.88194	0.889
5.92287	0.882
5.96381	0.872
6.00474	0.866
6.04568	0.858
6.08661	0.824
6.12755	0.8
6.16848	0.701
6.20942	0.409
6.25035	0.566
6.29129	0.686
6.33223	0.805
6.37316	0.827
6.4141	0.812
6.45503	0.807
6.49597	0.744
6.5369	0.5
6.57784	0.139
6.61877	0.336
6.65971	0.561
6.70065	0.464
6.74158	0.373
6.78252	0.327
6.82345	0.397
6.86439	0.445
6.90532	0.462
6.94626	0.447
6.98719	0.45
7.02813	0.645
7.06906	0.718
7.11	0.689
7.15094	0.518
7.19187	0.508
7.23281	0.595
7.27374	0.535
7.31468	0.261
7.35561	0.424
7.39655	0.547
7.43748	0.539
7.47842	0.554
7.51935	0.559
7.56029	0.621
7.60123	0.749
7.64216	0.788
7.6831	0.74
7.72403	0.622
7.76497	0.645
7.8059	0.699
7.84684	0.598
7.88777	0.443
7.92871	0.348
7.96965	0.295
8.01058	0.211
8.05152	0.204
8.09245	0.221
8.13339	0.228
8.17432	0.24
8.21526	0.262
8.25619	0.29
8.29713	0.32
8.33806	0.319
8.379	0.331
8.41994	0.261
8.46087	0.18
8.50181	0.233
8.54274	0.334
8.58368	0.445
8.62461	0.551
8.66555	0.617
8.70648	0.648
8.74742	0.66
8.78835	0.672
8.82929	0.639
8.87023	0.663
8.91116	0.716
8.9521	0.728
8.99303	0.704
9.03397	0.614
9.0749	0.638
9.11584	0.682
9.15677	0.754
9.19771	0.784
9.23865	0.796
9.27958	0.805
9.32052	0.813
9.36145	0.819
9.40239	0.822
9.44332	0.829
9.48426	0.827
9.52519	0.829
9.56613	0.829
9.60706	0.825
9.648	0.82
9.68894	0.812
9.72987	0.81
9.77081	0.817
9.81174	0.703
9.85268	0.65
9.89361	0.788
9.93455	0.822
9.97548	0.836
10.0164	0.841
10.0574	0.846
10.0983	0.844
10.1392	0.834
10.1802	0.812
10.2211	0.778
10.262	0.793
10.303	0.819
10.3439	0.829
10.3848	0.837
10.4258	0.841
10.4667	0.844
10.5076	0.843
10.5486	0.841
10.5895	0.841
10.6305	0.834
10.6714	0.827
10.7123	0.825
10.7533	0.831
10.7942	0.829
10.8351	0.815
10.8761	0.798
10.917	0.827
10.9579	0.834
10.9989	0.839
11.0398	0.853
11.0807	0.863
11.1217	0.872
11.1626	0.873
11.2035	0.873
11.2445	0.872
11.2854	0.875
11.3264	0.877
11.3673	0.877
11.4082	0.873
11.4492	0.86
11.4901	0.844
11.531	0.848
11.572	0.849
11.6129	0.848
11.6538	0.837
11.6948	0.822
11.7357	0.791
11.7766	0.737
11.8176	0.662
11.8585	0.607
11.8995	0.542
11.9404	0.419
11.9813	0.284
12.0223	0.199
12.0632	0.189
12.1041	0.278
12.1451	0.372
12.186	0.412
12.2269	0.389
12.2679	0.37
12.3088	0.452
12.3497	0.534
12.3907	0.614
12.4316	0.691
12.4725	0.749
12.5135	0.784
12.5544	0.796
12.5954	0.805
12.6363	0.813
12.6772	0.808
12.7182	0.808
12.7591	0.808
12.8	0.808
12.841	0.805
12.8819	0.807
12.9228	0.803
12.9638	0.8
13.0047	0.795
13.0456	0.79
13.0866	0.786
13.1275	0.779
13.1685	0.769
13.2094	0.761
13.2503	0.745
13.2913	0.726
13.3322	0.72
13.3731	0.721
13.4141	0.728
13.455	0.737
13.4959	0.737
13.5369	0.735
13.5778	0.723
13.6187	0.704
13.6597	0.677
13.7006	0.675
13.7415	0.691
13.7825	0.699
13.8234	0.699
13.8644	0.696
13.9053	0.689
13.9462	0.689
13.9872	0.687
14.0281	0.68
14.069	0.679
14.11	0.67
14.1509	0.663
14.1918	0.662
14.2328	0.648
14.2737	0.639
14.3146	0.631
14.3556	0.619
14.3965	0.622
14.4375	0.621
14.4784	0.621
14.5193	0.61
14.5603	0.607
14.6012	0.605
14.6421	0.6
14.6831	0.59
14.724	0.581
14.7649	0.575
14.8059	0.568
14.8468	0.546
14.8877	0.527
14.9287	0.51
14.9696	0.503
15.0105	0.503
15.0515	0.506
15.0924	0.511
15.1334	0.51
15.1743	0.515
15.2152	0.515
15.2562	0.517
15.2971	0.517
15.338	0.517
15.379	0.517
15.4199	0.517
15.4608	0.508
15.5018	0.51
15.5427	0.51
15.5836	0.51
15.6246	0.51
15.6655	0.51
15.7065	0.51
15.7474	0.511
15.7883	0.51
15.8293	0.51
15.8702	0.513
15.9111	0.517
15.9521	0.517
15.993	0.525
