Infrared Spectrum: N,N'-P-PHENYLENE-BISACETAMIDE
Formula: C10 H12 N2 O2
CAS: 140-50-1
State: SOLID (MINERAL OIL MULL)
Melting point: 310-312 C
Class: COBLENTZ
Instrument: Not specified, most likely a prism, grating, or hybrid spectrometer.
Sampling: TRANSMISSION
Resolution: 4
Origin: WYANDOTTE CHEMICALS CORP., WYANDOTTE, MICHIGAN, USA
MICROMETERS	TRANSMITTANCE
2.073	0.509
2.11279	0.508
2.15258	0.509
2.19237	0.504
2.23217	0.509
2.27196	0.514
2.31175	0.523
2.35154	0.528
2.39133	0.533
2.43112	0.536
2.47091	0.534
2.51071	0.539
2.5505	0.546
2.59029	0.548
2.63008	0.553
2.66987	0.561
2.70966	0.564
2.74945	0.569
2.78925	0.581
2.82904	0.583
2.86883	0.591
2.90862	0.598
2.94841	0.589
2.9882	0.481
3.02799	0.177
3.06779	0.214
3.10758	0.262
3.14737	0.225
3.18716	0.299
3.22695	0.267
3.26674	0.279
3.30653	0.23
3.34633	0.041
3.38612	0.041
3.42591	0.051
3.4657	0.054
3.50549	0.107
3.54528	0.32
3.58507	0.367
3.62487	0.4
3.66466	0.408
3.70445	0.42
3.74424	0.425
3.78403	0.435
3.82382	0.438
3.86361	0.45
3.90341	0.46
3.9432	0.461
3.98299	0.473
4.02278	0.488
4.06257	0.48
4.10236	0.493
4.14215	0.5
4.18195	0.501
4.22174	0.501
4.26153	0.504
4.30132	0.508
4.34111	0.514
4.3809	0.533
4.42069	0.539
4.46049	0.541
4.50028	0.548
4.54007	0.563
4.57986	0.574
4.61965	0.578
4.65944	0.581
4.69923	0.593
4.73903	0.606
4.77882	0.616
4.81861	0.619
4.8584	0.639
4.89819	0.647
4.93798	0.659
4.97777	0.666
5.01757	0.676
5.05736	0.681
5.09715	0.699
5.13694	0.705
5.17673	0.73
5.21652	0.745
5.25631	0.745
5.29611	0.765
5.3359	0.72
5.37569	0.78
5.41548	0.823
5.45527	0.832
5.49506	0.843
5.53485	0.878
5.57465	0.9
5.61444	0.923
5.65423	0.892
5.69402	0.91
5.73381	0.943
5.7736	0.945
5.81339	0.86
5.85319	0.744
5.89298	0.566
5.93277	0.335
5.97256	0.187
6.01235	0.101
6.05214	0.191
6.09193	0.23
6.13173	0.318
6.17152	0.322
6.21131	0.295
6.2511	0.205
6.29089	0.111
6.33068	0.086
6.37047	0.109
6.41027	0.152
6.45006	0.187
6.48985	0.25
6.52964	0.196
6.56943	0.112
6.60922	0.116
6.64901	0.134
6.68881	0.154
6.7286	0.159
6.76839	0.119
6.80818	0.076
6.84797	0.089
6.88776	0.124
6.92755	0.184
6.96735	0.302
7.00714	0.44
7.04693	0.488
7.08672	0.2
7.12651	0.104
7.1663	0.119
7.20609	0.141
7.24589	0.136
7.28568	0.104
7.32547	0.112
7.36526	0.196
7.40505	0.23
7.44484	0.265
7.48463	0.284
7.52443	0.287
7.56422	0.114
7.60401	0.101
7.6438	0.142
7.68359	0.184
7.72338	0.222
7.76317	0.255
7.80297	0.292
7.84276	0.33
7.88255	0.421
7.92234	0.375
7.96213	0.134
8.00192	0.176
8.04171	0.22
8.08151	0.222
8.1213	0.235
8.16109	0.26
8.20088	0.265
8.24067	0.265
8.28046	0.289
8.32025	0.308
8.36005	0.32
8.39984	0.335
8.43963	0.352
8.47942	0.36
8.51921	0.363
8.559	0.367
8.59879	0.38
8.63859	0.393
8.67838	0.397
8.71817	0.41
8.75796	0.423
8.79775	0.438
8.83754	0.438
8.87733	0.441
8.91713	0.441
8.95692	0.446
8.99671	0.453
9.0365	0.46
9.07629	0.468
9.11608	0.471
9.15587	0.468
9.19567	0.478
9.23546	0.481
9.27525	0.478
9.31504	0.48
9.35483	0.481
9.39462	0.485
9.43441	0.483
9.47421	0.481
9.514	0.463
9.55379	0.44
9.59358	0.403
9.63337	0.401
9.67316	0.445
9.71295	0.466
9.75275	0.476
9.79254	0.508
9.83233	0.45
9.87212	0.365
9.91191	0.323
9.9517	0.305
9.99149	0.355
10.0313	0.405
10.0711	0.441
10.1109	0.46
10.1507	0.48
10.1905	0.495
10.2302	0.5
10.27	0.506
10.3098	0.516
10.3496	0.508
10.3894	0.461
10.4292	0.332
10.469	0.37
10.5088	0.428
10.5486	0.421
10.5884	0.455
10.6282	0.493
10.6679	0.508
10.7077	0.511
10.7475	0.516
10.7873	0.524
10.8271	0.539
10.8669	0.541
10.9067	0.539
10.9465	0.544
10.9863	0.551
11.0261	0.553
11.0659	0.559
11.1057	0.564
11.1454	0.561
11.1852	0.566
11.225	0.564
11.2648	0.561
11.3046	0.558
11.3444	0.553
11.3842	0.549
11.424	0.546
11.4638	0.539
11.5036	0.536
11.5434	0.523
11.5832	0.516
11.6229	0.504
11.6627	0.495
11.7025	0.48
11.7423	0.46
11.7821	0.438
11.8219	0.413
11.8617	0.377
11.9015	0.332
11.9413	0.272
11.9811	0.224
12.0209	0.21
12.0606	0.237
12.1004	0.295
12.1402	0.383
12.18	0.465
12.2198	0.5
12.2596	0.508
12.2994	0.544
12.3392	0.543
12.379	0.544
12.4188	0.574
12.4586	0.601
12.4984	0.617
12.5381	0.624
12.5779	0.627
12.6177	0.619
12.6575	0.617
12.6973	0.609
12.7371	0.593
12.7769	0.579
12.8167	0.564
12.8565	0.541
12.8963	0.531
12.9361	0.514
12.9759	0.491
13.0156	0.466
13.0554	0.443
13.0952	0.421
13.135	0.388
13.1748	0.36
13.2146	0.338
13.2544	0.32
13.2942	0.307
13.334	0.308
13.3738	0.312
13.4136	0.318
13.4533	0.328
13.4931	0.347
13.5329	0.368
13.5727	0.39
13.6125	0.405
13.6523	0.431
13.6921	0.453
13.7319	0.47
13.7717	0.491
13.8115	0.508
13.8513	0.528
13.8911	0.538
13.9308	0.559
13.9706	0.583
14.0104	0.619
14.0502	0.641
14.09	0.661
14.1298	0.679
14.1696	0.697
14.2094	0.717
14.2492	0.725
14.289	0.74
14.3288	0.75
14.3686	0.759
14.4083	0.762
14.4481	0.77
14.4879	0.777
14.5277	0.779
14.5675	0.782
14.6073	0.779
14.6471	0.779
14.6869	0.78
14.7267	0.775
14.7665	0.782
14.8063	0.78
14.846	0.78
14.8858	0.772
14.9256	0.772
14.9654	0.772
15.0052	0.747
15.045	0.71
15.0848	0.677
15.1246	0.715
15.1644	0.739
15.2042	0.752
15.244	0.744
15.2838	0.729
15.3235	0.714
15.3633	0.702
15.4031	0.691
15.4429	0.682
15.4827	0.674
15.5225	0.659
15.5623	0.647
15.6021	0.639
15.6419	0.631
15.6817	0.617
15.7215	0.611
15.7613	0.599
15.801	0.581
15.8408	0.571
15.8806	0.559
15.9204	0.551
15.9602	0.539
16	0.519
