Infrared Spectrum: ACRYLIC ACID, ETHYL ESTER
Formula: C5 H8 O2
CAS: 140-88-5
State: GAS (30 mmHg, N2 ADDED, TOTAL PRESSURE 600 mmHg)
Class: COBLENTZ
Instrument: DOW KBr FOREPRISM-GRATING
Instrument parameters: GRATING CHANGED AT 5.0, 7.5, 15.0 MICRON
Sampling: TRANSMISSION
Path length: 5 CM
Resolution: 2
Origin: DOW CHEMICAL COMPANY
1/CM	TRANSMITTANCE
462.354	1.033
470.772	1.026
479.19	1.018
487.607	1.007
496.025	1.002
504.443	0.995
512.861	0.986
521.278	0.981
529.696	0.988
538.114	1.001
546.532	1.015
554.95	1.023
563.367	1.024
571.785	1.023
580.203	1.021
588.621	1.021
597.038	1.023
605.456	1.023
613.874	1.015
622.292	1.023
630.71	1.033
639.127	1.02
647.545	0.96
655.963	0.923
664.381	0.937
672.798	0.942
681.216	0.971
689.634	0.997
698.052	1.01
706.47	1.01
714.887	1.007
723.305	1.008
731.723	1.011
740.141	1.011
748.559	1.015
756.976	1.023
765.394	1.023
773.812	1.004
782.23	0.978
790.647	0.906
799.065	0.79
807.483	0.667
815.901	0.651
824.319	0.76
832.736	0.88
841.154	0.927
849.572	0.903
857.99	0.852
866.407	0.838
874.825	0.881
883.243	0.929
891.661	0.934
900.079	0.894
908.496	0.897
916.914	0.919
925.332	0.952
933.75	0.976
942.167	0.949
950.585	0.836
959.003	0.713
967.421	0.557
975.839	0.556
984.256	0.55
992.674	0.585
1001.09	0.726
1009.51	0.868
1017.93	0.887
1026.35	0.713
1034.76	0.489
1043.18	0.485
1051.6	0.579
1060.02	0.4101
1068.43	0.29
1076.85	0.3329
1085.27	0.6019
1093.69	0.658
1102.11	0.667
1110.52	0.71
1118.94	0.828
1127.36	0.875
1135.78	0.911
1144.19	0.903
1152.61	0.872
1161.03	0.786
1169.45	0.5671
1177.87	0.2191
1186.28	0.013
1194.7	0.01
1203.12	0.008
1211.54	0.143
1219.95	0.4211
1228.37	0.6539
1236.79	0.725
1245.21	0.744
1253.63	0.645
1262.04	0.2711
1270.46	0.109
1278.88	0.105
1287.3	0.236
1295.71	0.213
1304.13	0.199
1312.55	0.3668
1320.97	0.6789
1329.39	0.854
1337.8	0.924
1346.22	0.942
1354.64	0.933
1363.06	0.893
1371.47	0.852
1379.89	0.777
1388.31	0.609
1396.73	0.5081
1405.15	0.209
1413.56	0.192
1421.98	0.3189
1430.4	0.6999
1438.82	0.822
1447.23	0.803
1455.65	0.758
1464.07	0.739
1472.49	0.734
1480.91	0.763
1489.32	0.862
1497.74	0.893
1506.16	0.932
1514.58	0.953
1522.99	0.959
1531.41	0.975
1539.83	0.973
1548.25	0.985
1556.67	0.975
1565.08	0.979
1573.5	0.973
1581.92	0.976
1590.34	0.972
1598.75	0.955
1607.17	0.914
1615.59	0.83
1624.01	0.777
1632.43	0.71
1640.84	0.66
1649.26	0.674
1657.68	0.9289
1666.1	0.963
1674.51	0.96
1682.93	0.949
1691.35	0.943
1699.77	0.907
1708.19	0.888
1716.6	0.793
1725.02	0.5629
1733.44	0.1193
1741.86	0.024
1750.27	0.026
1758.69	0.049
1767.11	0.3
1775.53	0.679
1783.95	0.881
1792.36	0.921
1800.78	0.939
1809.2	0.955
1817.62	0.965
1826.03	0.965
1834.45	0.972
1842.87	0.979
1851.29	0.986
1859.71	0.991
1868.12	0.991
1876.54	0.988
1884.96	0.981
1893.38	0.975
1901.79	0.973
1910.21	0.968
1918.63	0.945
1927.05	0.913
1935.47	0.919
1943.88	0.956
1952.3	0.972
1960.72	0.981
1969.14	0.985
1977.55	0.986
1985.97	0.986
1994.39	0.989
2002.81	0.992
2011.23	0.994
2019.64	0.993
2028.06	0.9891
2036.48	0.9866
2044.9	0.9752
2053.31	0.9582
2061.73	0.9469
2070.15	0.96
2078.57	0.9717
2086.99	0.9784
2095.4	0.981
2103.82	0.9828
2112.24	0.984
2120.66	0.984
2129.07	0.984
2137.49	0.9844
2145.91	0.986
2154.33	0.989
2162.75	0.989
2171.16	0.989
2179.58	0.992
2188	0.994
2196.42	0.995
2204.83	0.997
2213.25	0.997
2221.67	0.998
2230.09	0.998
2238.51	0.998
2246.92	0.998
2255.34	0.998
2263.76	0.998
2272.18	0.998
2280.59	0.998
2289.01	0.998
2297.43	0.998
2305.85	0.998
2314.27	0.998
2322.68	0.998
2331.1	0.9973
2339.52	0.9967
2347.94	0.9927
2356.35	0.988
2364.77	0.9886
2373.19	0.9878
2381.61	0.984
2390.03	0.9811
2398.44	0.985
2406.86	0.9881
2415.28	0.9932
2423.7	0.997
2432.11	0.998
2440.53	1
2448.95	1
2457.37	0.9999
2465.79	0.998
2474.2	0.997
2482.62	0.997
2491.04	0.997
2499.46	0.997
2507.87	0.997
2516.29	0.997
2524.71	0.997
2533.13	0.997
2541.55	0.997
2549.96	0.997
2558.38	0.998
2566.8	0.998
2575.22	0.998
2583.63	0.998
2592.05	1
2600.47	0.997
2608.89	0.997
2617.31	0.998
2625.72	1
2634.14	1.001
2642.56	1.002
2650.98	1.002
2659.39	1.002
2667.81	1.002
2676.23	1.002
2684.65	1.001
2693.07	1.0002
2701.48	0.998
2709.9	0.997
2718.32	0.997
2726.74	0.997
2735.15	0.995
2743.57	0.994
2751.99	0.992
2760.41	0.9913
2768.83	0.991
2777.24	0.989
2785.66	0.989
2794.08	0.989
2802.5	0.988
2810.91	0.9843
2819.33	0.976
2827.75	0.9713
2836.17	0.968
2844.59	0.9654
2853	0.9589
2861.42	0.9524
2869.84	0.9388
2878.26	0.905
2886.67	0.8457
2895.09	0.8202
2903.51	0.8082
2911.93	0.7813
2920.35	0.7729
2928.76	0.7658
2937.18	0.7414
2945.6	0.6702
2954.02	0.6542
2962.43	0.6635
2970.85	0.6478
2979.27	0.4258
2987.69	0.371
2996.11	0.3371
3004.52	0.434
3012.94	0.5552
3021.36	0.7368
3029.78	0.8902
3038.19	0.8912
3046.61	0.8731
3055.03	0.8836
3063.45	0.9325
3071.87	0.949
3080.28	0.943
3088.7	0.9497
3097.12	0.956
3105.54	0.9242
3113.95	0.8959
3122.37	0.9091
3130.79	0.9516
3139.21	0.9755
3147.63	0.979
3156.04	0.979
3164.46	0.981
3172.88	0.9818
3181.3	0.9853
3189.71	0.988
3198.13	0.989
3206.55	0.989
3214.97	0.991
3223.39	0.991
3231.8	0.991
3240.22	0.992
3248.64	0.994
3257.06	0.9965
3265.47	0.998
3273.89	1.001
3282.31	1.001
3290.73	1.002
3299.15	1.002
3307.56	1.002
3315.98	1.002
3324.4	1.0013
3332.82	1.001
3341.23	1.001
3349.65	1
3358.07	1
3366.49	1
3374.91	1
3383.32	1.001
3391.74	1.001
3400.16	1.0001
3408.58	1.001
3416.99	1.002
3425.41	1.0014
3433.83	1.001
3442.25	0.9989
3450.67	0.992
3459.08	0.9785
3467.5	0.96
3475.92	0.954
3484.34	0.966
3492.75	0.9809
3501.17	0.995
3509.59	0.9989
3518.01	1
3526.43	1
3534.84	1
3543.26	1
3551.68	1
3560.1	1
3568.51	1
3576.93	1
3585.35	1
3593.77	1
3602.19	1
3610.6	0.998
3619.02	0.998
3627.44	0.9977
3635.86	0.997
3644.27	0.997
3652.69	0.995
3661.11	0.995
3669.53	0.994
3677.95	0.994
3686.36	0.991
3694.78	0.9943
3703.2	0.997
3711.62	0.997
3720.03	0.9925
3728.45	0.991
3736.87	0.991
3745.29	0.994
3753.71	0.994
3762.12	0.994
3770.54	0.994
3778.96	0.9948
3787.38	0.9934
3795.79	0.998
