Infrared Spectrum: ACETIC ACID, BENZYL ESTER
Formula: C9 H10 O2
CAS: 140-11-4
State: LIQUID
Class: COBLENTZ
Instrument: Not specified, most likely a prism, grating, or hybrid spectrometer.
Sampling: TRANSMISSION
Path length: 0.0025 CM
Resolution: 4
Origin: INFRACORD
MICROMETERS	TRANSMITTANCE
2.512	0.918
2.54744	0.918
2.58289	0.928
2.61833	0.935
2.65377	0.934
2.68921	0.937
2.72466	0.932
2.7601	0.9
2.79554	0.894
2.83099	0.882
2.86643	0.865
2.90187	0.849
2.93732	0.845
2.97276	0.866
3.0082	0.874
3.04364	0.876
3.07909	0.878
3.11453	0.878
3.14997	0.875
3.18542	0.87
3.22086	0.844
3.2563	0.769
3.29175	0.675
3.32719	0.596
3.36263	0.663
3.39807	0.686
3.43352	0.657
3.46896	0.75
3.5044	0.781
3.53985	0.858
3.57529	0.875
3.61073	0.891
3.64617	0.901
3.68162	0.902
3.71706	0.902
3.7525	0.902
3.78795	0.902
3.82339	0.904
3.85883	0.906
3.89428	0.906
3.92972	0.907
3.96516	0.91
4.0006	0.913
4.03605	0.914
4.07149	0.912
4.10693	0.906
4.14238	0.904
4.17782	0.906
4.21326	0.909
4.2487	0.916
4.28415	0.916
4.31959	0.916
4.35503	0.916
4.39048	0.916
4.42592	0.918
4.46136	0.918
4.49681	0.918
4.53225	0.918
4.56769	0.916
4.60313	0.915
4.63858	0.914
4.67402	0.915
4.70946	0.91
4.74491	0.912
4.78035	0.913
4.81579	0.914
4.85124	0.914
4.88668	0.906
4.92212	0.906
4.95756	0.912
4.99301	0.913
5.02845	0.913
5.06389	0.907
5.09934	0.89
5.13478	0.868
5.17022	0.857
5.20566	0.883
5.24111	0.894
5.27655	0.896
5.31199	0.894
5.34744	0.874
5.38288	0.865
5.41832	0.864
5.45377	0.868
5.48921	0.858
5.52465	0.82
5.56009	0.787
5.59554	0.775
5.63098	0.719
5.66642	0.641
5.70187	0.428
5.73731	0.13
5.77275	0.013
5.8082	0.002
5.84364	0.034
5.87908	0.163
5.91452	0.472
5.94997	0.602
5.98541	0.703
6.02085	0.762
6.0563	0.769
6.09174	0.774
6.12718	0.792
6.16262	0.818
6.19807	0.831
6.23351	0.828
6.26895	0.798
6.3044	0.812
6.33984	0.805
6.37528	0.844
6.41073	0.871
6.44617	0.877
6.48161	0.878
6.51705	0.878
6.5525	0.877
6.58794	0.872
6.62338	0.861
6.65883	0.828
6.69427	0.624
6.72971	0.484
6.76516	0.681
6.8006	0.737
6.83604	0.716
6.87148	0.551
6.90693	0.44
6.94237	0.3
6.97781	0.432
7.01326	0.501
7.0487	0.548
7.08414	0.614
7.11958	0.666
7.15503	0.68
7.19047	0.666
7.22591	0.549
7.26136	0.295
7.2968	0.122
7.33224	0.301
7.36769	0.241
7.40313	0.222
7.43857	0.561
7.47401	0.731
7.50946	0.761
7.5449	0.756
7.58034	0.736
7.61579	0.731
7.65123	0.704
7.68667	0.674
7.72211	0.638
7.75756	0.605
7.793	0.539
7.82844	0.447
7.86389	0.34
7.89933	0.261
7.93477	0.159
7.97022	0.061
8.00566	0.014
8.0411	0.002
8.07654	0.002
8.11199	0.002
8.14743	0.002
8.18287	0.002
8.21832	0.002
8.25376	0.019
8.2892	0.095
8.32465	0.224
8.36009	0.371
8.39553	0.503
8.43097	0.577
8.46642	0.618
8.50186	0.624
8.5373	0.648
8.57275	0.704
8.60819	0.736
8.64363	0.742
8.67907	0.743
8.71452	0.776
8.74996	0.794
8.7854	0.812
8.82085	0.82
8.85629	0.827
8.89173	0.831
8.92718	0.843
8.96262	0.836
8.99806	0.813
9.0335	0.782
9.06895	0.766
9.10439	0.764
9.13983	0.758
9.17528	0.729
9.21072	0.705
9.24616	0.627
9.28161	0.578
9.31705	0.584
9.35249	0.603
9.38793	0.603
9.42338	0.574
9.45882	0.526
9.49426	0.426
9.52971	0.332
9.56515	0.237
9.60059	0.173
9.63603	0.149
9.67148	0.124
9.70692	0.104
9.74236	0.065
9.77781	0.051
9.81325	0.097
9.84869	0.169
9.88414	0.29
9.91958	0.397
9.95502	0.433
9.99046	0.435
10.0259	0.445
10.0614	0.503
10.0968	0.543
10.1322	0.566
10.1677	0.576
10.2031	0.562
10.2386	0.526
10.274	0.484
10.3095	0.446
10.3449	0.425
10.3803	0.421
10.4158	0.432
10.4512	0.494
10.4867	0.591
10.5221	0.667
10.5576	0.712
10.593	0.731
10.6284	0.738
10.6639	0.738
10.6993	0.719
10.7348	0.694
10.7702	0.671
10.8057	0.65
10.8411	0.631
10.8765	0.627
10.912	0.634
10.9474	0.656
10.9829	0.668
11.0183	0.667
11.0538	0.649
11.0892	0.642
11.1246	0.669
11.1601	0.712
11.1955	0.755
11.231	0.786
11.2664	0.806
11.3019	0.824
11.3373	0.837
11.3727	0.843
11.4082	0.847
11.4436	0.85
11.4791	0.85
11.5145	0.85
11.55	0.85
11.5854	0.85
11.6208	0.847
11.6563	0.84
11.6917	0.826
11.7272	0.795
11.7626	0.775
11.7981	0.751
11.8335	0.725
11.8689	0.694
11.9044	0.65
11.9398	0.635
11.9753	0.634
12.0107	0.671
12.0462	0.697
12.0816	0.709
12.117	0.711
12.1525	0.713
12.1879	0.743
12.2234	0.773
12.2588	0.795
12.2943	0.809
12.3297	0.817
12.3651	0.82
12.4006	0.831
12.436	0.838
12.4715	0.843
12.5069	0.849
12.5424	0.853
12.5778	0.861
12.6132	0.864
12.6487	0.865
12.6841	0.865
12.7196	0.865
12.755	0.865
12.7905	0.859
12.8259	0.847
12.8613	0.837
12.8968	0.831
12.9322	0.807
12.9677	0.788
13.0031	0.763
13.0386	0.72
13.074	0.662
13.1094	0.579
13.1449	0.485
13.1803	0.378
13.2158	0.285
13.2512	0.21
13.2867	0.161
13.3221	0.146
13.3575	0.142
13.393	0.153
13.4284	0.167
13.4639	0.176
13.4993	0.184
13.5348	0.188
13.5702	0.195
13.6056	0.216
13.6411	0.266
13.6765	0.331
13.712	0.404
13.7474	0.477
13.7829	0.541
13.8183	0.59
13.8537	0.616
13.8892	0.635
13.9246	0.644
13.9601	0.646
13.9955	0.643
14.031	0.63
14.0664	0.591
14.1018	0.543
14.1373	0.457
14.1727	0.358
14.2082	0.255
14.2436	0.144
14.2791	0.086
14.3145	0.062
14.3499	0.071
14.3854	0.122
14.4208	0.239
14.4563	0.356
14.4917	0.47
14.5272	0.566
14.5626	0.606
14.598	0.636
14.6335	0.652
14.6689	0.661
14.7044	0.661
14.7398	0.662
14.7753	0.662
14.8107	0.662
14.8461	0.662
14.8816	0.672
14.917	0.68
14.9525	0.686
