Infrared Spectrum: BENZENEACETONITRILE
Formula: C8 H7 N
CAS: 140-29-4
State: SOLUTION (10% IN CCl4 FOR 3800-1300, 10% IN CS2 FOR 1300-650, 10% IN CCl4 FOR 650-240 CM^-^1) VERSUS SOLVENT
Class: COBLENTZ III
Instrument: PERKIN-ELMER 521 (GRATING)
Instrument parameters: FILTERS AT 3150, 2500, 2000, 1150, 700, 410; GRATING CHANGES AT 2000, 630 CM^-^1
Sampling: TRANSMISSION
Path length: 0.011, 0.010, AND 0.010 CM (CsBr CELL)
Resolution: 4
Origin: DOW CORNING CORP.
1/CM	TRANSMITTANCE
232.459	0.775
242.295	0.772
252.131	0.767
261.967	0.768
271.803	0.772
281.64	0.78
291.476	0.791
301.312	0.798
311.148	0.777
320.984	0.742
330.82	0.807
340.656	0.815
350.492	0.79
360.328	0.799
370.164	0.82
380.001	0.822
389.837	0.825
399.673	0.822
409.509	0.808
419.345	0.751
429.181	0.733
439.017	0.776
448.853	0.779
458.689	0.619
468.525	0.686
478.362	0.771
488.198	0.829
498.034	0.855
507.87	0.862
517.706	0.869
527.542	0.873
537.378	0.87
547.214	0.87
557.05	0.869
566.886	0.868
576.723	0.868
586.559	0.865
596.395	0.853
606.231	0.737
616.067	0.799
625.903	0.86
635.739	0.889
645.575	0.905
655.411	0.905
665.247	0.899
675.084	0.872
684.92	0.837
694.756	0.4998
704.592	0.2821
714.428	0.632
724.264	0.523
734.1	0.068
743.936	0.1581
753.772	0.648
763.608	0.87
773.445	0.934
783.281	0.955
793.117	0.95
802.953	0.936
812.789	0.93
822.625	0.93
832.461	0.93
842.297	0.901
852.133	0.927
861.969	0.938
871.806	0.939
881.642	0.932
891.478	0.919
901.314	0.912
911.15	0.899
920.986	0.872
930.822	0.839
940.658	0.74
950.494	0.823
960.33	0.903
970.167	0.908
980.003	0.916
989.839	0.916
999.675	0.921
1009.51	0.8311
1019.35	0.927
1029.18	0.8799
1039.02	0.904
1048.86	0.934
1058.69	0.924
1068.53	0.9
1078.36	0.675
1088.2	0.903
1098.04	0.921
1107.87	0.904
1117.71	0.947
1127.54	0.947
1137.38	0.936
1147.22	0.924
1157.05	0.893
1166.89	0.896
1176.72	0.874
1186.56	0.835
1196.4	0.854
1206.23	0.882
1216.07	0.897
1225.91	0.911
1235.74	0.913
1245.58	0.909
1255.41	0.911
1265.25	0.901
1275.09	0.899
1284.92	0.893
1294.76	0.876
1304.59	0.853
1314.43	0.842
1324.27	0.815
1334.1	0.829
1343.94	0.822
1353.77	0.835
1363.61	0.83
1373.45	0.833
1383.28	0.814
1393.12	0.78
1402.95	0.745
1412.79	0.6479
1422.63	0.2502
1432.46	0.716
1442.3	0.775
1452.14	0.624
1461.97	0.4236
1471.81	0.798
1481.64	0.812
1491.48	0.7649
1501.32	0.0593
1511.15	0.803
1520.99	0.849
1530.82	0.846
1540.66	0.854
1550.5	0.878
1560.33	0.857
1570.17	0.82
1580	0.806
1589.84	0.769
1599.68	0.738
1609.51	0.6052
1619.35	0.788
1629.19	0.819
1639.02	0.839
1648.86	0.841
1658.69	0.842
1668.53	0.838
1678.37	0.838
1688.2	0.846
1698.04	0.851
1707.87	0.85
1717.71	0.843
1727.55	0.827
1737.38	0.833
1747.22	0.845
1757.05	0.85
1766.89	0.843
1776.73	0.825
1786.56	0.823
1796.4	0.833
1806.24	0.775
1816.07	0.82
1825.91	0.833
1835.74	0.846
1845.58	0.843
1855.42	0.814
1865.25	0.834
1875.09	0.829
1884.92	0.842
1894.76	0.85
1904.6	0.841
1914.43	0.843
1924.27	0.845
1934.1	0.845
1943.94	0.834
1953.78	0.763
1963.61	0.827
1973.45	0.816
1983.28	0.853
1993.12	0.855
2002.96	0.871
2012.79	0.884
2022.63	0.882
2032.47	0.885
2042.3	0.885
2052.14	0.884
2061.97	0.885
2071.81	0.884
2081.65	0.883
2091.48	0.882
2101.32	0.882
2111.15	0.882
2120.99	0.882
2130.83	0.882
2140.66	0.882
2150.5	0.88
2160.33	0.88
2170.17	0.881
2180.01	0.881
2189.84	0.88
2199.68	0.877
2209.52	0.875
2219.35	0.8725
2229.19	0.867
2239.02	0.8455
2248.86	0.801
2258.7	0.605
2268.53	0.7244
2278.37	0.822
2288.2	0.854
2298.04	0.8645
2307.88	0.866
2317.71	0.866
2327.55	0.8715
2337.38	0.875
2347.22	0.869
2357.06	0.8725
2366.89	0.878
2376.73	0.875
2386.56	0.874
2396.4	0.874
2406.24	0.874
2416.07	0.874
2425.91	0.874
2435.75	0.878
2445.58	0.878
2455.42	0.878
2465.25	0.877
2475.09	0.877
2484.93	0.877
2494.76	0.877
2504.6	0.877
2514.43	0.877
2524.27	0.876
2534.11	0.876
2543.94	0.874
2553.78	0.874
2563.61	0.874
2573.45	0.873
2583.29	0.872
2593.12	0.8695
2602.96	0.866
2612.8	0.8655
2622.63	0.871
2632.47	0.873
2642.3	0.873
2652.14	0.874
2661.98	0.8765
2671.81	0.878
2681.65	0.874
2691.48	0.8765
2701.32	0.878
2711.16	0.877
2720.99	0.877
2730.83	0.877
2740.66	0.878
2750.5	0.877
2760.34	0.8775
2770.17	0.877
2780.01	0.874
2789.85	0.872
2799.68	0.872
2809.52	0.8675
2819.35	0.853
2829.19	0.86
2839.03	0.8615
2848.86	0.852
2858.7	0.8435
2868.53	0.8145
2878.37	0.81
2888.21	0.8035
2898.04	0.778
2907.88	0.744
2917.71	0.7365
2927.55	0.742
2937.39	0.743
2947.22	0.7205
2957.06	0.667
2966.89	0.682
2976.73	0.7365
2986.57	0.793
2996.4	0.8075
3006.24	0.795
3016.08	0.7625
3025.91	0.7134
3035.75	0.5302
3045.58	0.5282
3055.42	0.715
3065.26	0.6334
3075.09	0.5544
3084.93	0.7195
3094.76	0.663
3104.6	0.779
3114.44	0.806
3124.27	0.8615
3134.11	0.87
3143.94	0.872
3153.78	0.873
3163.62	0.8735
3173.45	0.868
3183.29	0.87
3193.13	0.869
3202.96	0.8735
3212.8	0.879
3222.63	0.887
3232.47	0.89
3242.31	0.89
3252.14	0.89
3261.98	0.889
3271.81	0.8885
3281.65	0.887
3291.49	0.885
3301.32	0.885
3311.16	0.882
3320.99	0.8805
3330.83	0.88
3340.67	0.878
3350.5	0.878
3360.34	0.878
3370.17	0.877
3380.01	0.876
3389.85	0.8765
3399.68	0.876
3409.52	0.8765
3419.36	0.877
3429.19	0.876
3439.03	0.876
3448.86	0.876
3458.7	0.876
3468.54	0.875
3478.37	0.874
3488.21	0.873
3498.04	0.873
3507.88	0.872
3517.72	0.869
3527.55	0.867
3537.39	0.865
3547.22	0.866
3557.06	0.869
3566.9	0.871
3576.73	0.8725
3586.57	0.875
3596.41	0.879
3606.24	0.881
3616.08	0.8775
3625.91	0.8765
3635.75	0.877
3645.59	0.873
3655.42	0.872
3665.26	0.8725
3675.09	0.8695
3684.93	0.871
3694.77	0.877
3704.6	0.88
3714.44	0.883
3724.27	0.892
3734.11	0.891
3743.95	0.895
3753.78	0.8925
3763.62	0.893
3773.46	0.893
3783.29	0.895
