Infrared Spectrum: p-Fluorobenzylamine
Formula: C7 H8 F N
CAS: 140-75-0
State: LIQUID (NEAT)
Class: COBLENTZ II
Instrument: BECKMAN IR-9 (GRATING)
Instrument parameters: ORDER CHANGES: 670, 1200, 2000 CM^-^1
Sampling: TRANSMISSION
Path length: CAPILLARY
Resolution: 2
Origin: DOW CHEMICAL COMPANY
1/CM	TRANSMITTANCE
3800	0.8863
3791	0.8859
3782	0.8854
3773	0.8852
3764	0.8857
3755	0.8861
3746	0.8865
3737	0.8871
3728	0.888
3719	0.8856
3710	0.8808
3701	0.8746
3692	0.8646
3683	0.8533
3674	0.8532
3665	0.8575
3656	0.8618
3647	0.8643
3638	0.8652
3629	0.8635
3620	0.8606
3611	0.8575
3602	0.8543
3593	0.8511
3584	0.8478
3575	0.8436
3566	0.8393
3557	0.835
3548	0.8306
3539	0.8258
3530	0.8211
3521	0.8162
3512	0.8106
3503	0.8045
3494	0.7985
3485	0.7924
3476	0.7864
3467	0.7801
3458	0.7738
3449	0.7665
3440	0.7592
3431	0.7511
3422	0.7406
3413	0.7258
3404	0.7065
3395	0.6815
3386	0.6704
3377	0.6711
3368	0.6801
3359	0.6941
3350	0.7034
3341	0.7055
3332	0.7053
3323	0.7006
3314	0.6953
3305	0.691
3296	0.6907
3287	0.6945
3278	0.704
3269	0.714
3260	0.7235
3251	0.7315
3242	0.7357
3233	0.7378
3224	0.7392
3215	0.7403
3206	0.7414
3197	0.7436
3188	0.7461
3179	0.7498
3170	0.7538
3161	0.7592
3152	0.7649
3143	0.7711
3134	0.7741
3125	0.7755
3116	0.7811
3107	0.7828
3098	0.7825
3089	0.7749
3080	0.7592
3071	0.7586
3062	0.7575
3053	0.7451
3044	0.7484
3035	0.7811
3026	0.7917
3017	0.7899
3008	0.8003
2999	0.808
2990	0.8085
2981	0.7993
2972	0.7875
2963	0.7715
2954	0.7461
2945	0.7175
2936	0.7033
2927	0.7021
2918	0.7162
2909	0.731
2900	0.7297
2891	0.7195
2882	0.6967
2873	0.6735
2864	0.6758
2855	0.7147
2846	0.7507
2837	0.7691
2828	0.7946
2819	0.8151
2810	0.82
2801	0.824
2792	0.8295
2783	0.8351
2774	0.8411
2765	0.8474
2756	0.8534
2747	0.8589
2738	0.8649
2729	0.8678
2720	0.8712
2711	0.8737
2702	0.8746
2693	0.874
2684	0.8739
2675	0.8745
2666	0.8799
2657	0.8831
2648	0.8843
2639	0.8853
2630	0.8857
2621	0.886
2612	0.8863
2603	0.8865
2594	0.8867
2585	0.8868
2576	0.8871
2567	0.8875
2558	0.8878
2549	0.888
2540	0.8882
2531	0.8883
2522	0.8884
2513	0.8884
2504	0.8884
2495	0.8885
2486	0.8888
2477	0.8887
2468	0.8877
2459	0.887
2450	0.8867
2441	0.8858
2432	0.8871
2423	0.89
2414	0.8906
2405	0.89
2396	0.8889
2387	0.8871
2378	0.886
2369	0.8861
2360	0.8862
2351	0.8864
2342	0.8875
2333	0.8887
2324	0.8896
2315	0.8903
2306	0.8911
2297	0.892
2288	0.8928
2279	0.8938
2270	0.8947
2261	0.8956
2252	0.8964
2243	0.8971
2234	0.8982
2225	0.8992
2216	0.9003
2207	0.9012
2198	0.9021
2189	0.903
2180	0.9039
2171	0.9048
2162	0.9057
2153	0.9066
2144	0.9075
2135	0.9075
2126	0.9075
2117	0.9075
2108	0.9075
2099	0.9065
2090	0.9049
2081	0.9025
2072	0.9005
2063	0.8993
2054	0.9001
2045	0.903
2036	0.906
2027	0.9065
2018	0.905
2009	0.9001
2000	0.8994
1991	0.8987
1982	0.8983
1973	0.8989
1964	0.8925
1955	0.8951
1946	0.895
1937	0.8928
1928	0.8918
1919	0.8893
1910	0.8814
1901	0.8621
1892	0.8659
1883	0.8828
1874	0.89
1865	0.8953
1856	0.8999
1847	0.9049
1838	0.9078
1829	0.9097
1820	0.9111
1811	0.9078
1802	0.9028
1793	0.8963
1784	0.8936
1775	0.8946
1766	0.8964
1757	0.8978
1748	0.898
1739	0.8967
1730	0.8938
1721	0.89
1712	0.8833
1703	0.8742
1694	0.8636
1685	0.8512
1676	0.8341
1667	0.816
1658	0.7567
1649	0.7271
1640	0.7471
1631	0.7392
1622	0.7019
1613	0.5959
1604	0.3174
1595	0.6341
1586	0.7078
1577	0.7493
1568	0.7835
1559	0.8076
1550	0.8188
1541	0.8085
1532	0.7701
1523	0.6468
1514	0.038
1505	0.3314
1496	0.6812
1487	0.7867
1478	0.7946
1469	0.769
1460	0.7584
1451	0.7725
1442	0.8001
1433	0.8221
1424	0.7834
1415	0.7668
1406	0.8378
1397	0.808
1388	0.7182
1379	0.7746
1370	0.8224
1361	0.8207
1352	0.8084
1343	0.823
1334	0.8352
1325	0.8355
1316	0.8346
1307	0.8285
1298	0.7851
1289	0.833
1280	0.8236
1271	0.8136
1262	0.7878
1253	0.7414
1244	0.5442
1235	0.2532
1226	0.1307
1217	0.3324
1208	0.676
1199	0.7451
1190	0.8275
1181	0.8342
1172	0.8278
1163	0.661
1154	0.6262
1145	0.8259
1136	0.8361
1127	0.8396
1118	0.8427
1109	0.8371
1100	0.8028
1091	0.7761
1082	0.8089
1073	0.7867
1064	0.7858
1055	0.7828
1046	0.7808
1037	0.7951
1028	0.8004
1019	0.7099
1010	0.7957
1001	0.7862
992	0.7676
983	0.7653
974	0.7654
965	0.7571
956	0.7557
947	0.736
938	0.714
929	0.705
920	0.6671
911	0.6292
902	0.5851
893	0.5525
884	0.5362
875	0.5256
866	0.5197
857	0.4646
848	0.3872
839	0.2937
830	0.2549
821	0.316
812	0.4164
803	0.6144
794	0.7158
785	0.7656
776	0.7839
767	0.7825
758	0.7491
749	0.6507
740	0.6099
731	0.6455
722	0.6948
713	0.7096
704	0.6984
695	0.7761
686	0.8149
677	0.8228
668	0.8363
659	0.8373
650	0.8383
641	0.8293
632	0.835
623	0.8365
614	0.8323
605	0.8258
596	0.8282
587	0.8197
578	0.8011
569	0.7615
560	0.6276
551	0.5814
542	0.6968
533	0.7308
524	0.7057
515	0.7181
506	0.664
497	0.6481
488	0.6394
479	0.6804
470	0.7251
461	0.7101
452	0.6865
443	0.6521
434	0.5938
425	0.5351
416	0.5364
407	0.5674
