Infrared Spectrum: Pyridazine, 3,6-dichloro-
Formula: C4 H2 Cl2 N2
CAS: 141-30-0
State: SOLID (SPLIT MULL), FLUOROLUBE FOR 3800-2430 CM^-^1, NUJOL FOR 2350-450 CM^-^1
Class: COBLENTZ III
Instrument: DOW KBr FOREPRISM-GRATING
Instrument parameters: BLAZED AT 3.5, 12.0, 20.0 MICRON AND CHANGED AT 5.0, 7.5, 14.9 MICRON
Sampling: TRANSMISSION
Resolution: 2
Origin: DOW CHEMICAL COMPANY
1/CM	TRANSMITTANCE
439	0.9775
448	0.9871
457	0.9963
466	1.0053
475	1.012
484	1.0159
493	1.0159
502	1.0128
511	1.0094
520	1.0015
529	0.9903
538	0.9741
547	0.928
556	0.6177
565	1.0111
574	1.0118
583	1.01
592	1.009
601	1.0056
610	0.9918
619	0.9797
628	0.9253
637	0.981
646	0.9756
655	0.9678
664	0.9602
673	0.9517
682	0.9412
691	0.9318
700	0.9188
709	0.9034
718	0.8605
727	0.8271
736	0.8553
745	0.8585
754	0.8746
763	0.871
772	0.8564
781	0.7595
790	0.8352
799	0.8763
808	0.8582
817	0.8559
826	0.8128
835	0.5228
844	0.5833
853	0.7896
862	0.8598
871	0.8713
880	0.8649
889	0.8587
898	0.8554
907	0.8545
916	0.849
925	0.8441
934	0.8392
943	0.8343
952	0.8295
961	0.8247
970	0.8211
979	0.8144
988	0.8278
997	0.8197
1006	0.8065
1015	0.7799
1024	0.7864
1033	0.7461
1042	0.6801
1051	0.736
1060	0.7883
1069	0.7732
1078	0.7551
1087	0.7347
1096	0.7087
1105	0.6649
1114	0.5887
1123	0.4762
1132	0.3539
1141	0.3031
1150	0.1825
1159	0.3768
1168	0.7032
1177	0.8435
1186	0.8766
1195	0.8786
1204	0.8755
1213	0.8718
1222	0.8705
1231	0.8671
1240	0.8468
1249	0.8341
1258	0.8338
1267	0.8206
1276	0.803
1285	0.7928
1294	0.7771
1303	0.7728
1312	0.7664
1321	0.7508
1330	0.7365
1339	0.689
1348	0.655
1357	0.6183
1366	0.4958
1375	0.147
1384	0.1195
1393	0.4266
1402	0.7578
1411	0.7828
1420	0.8141
1429	0.7951
1438	0.6392
1447	0.4772
1456	0.3382
1465	0.2819
1474	0.6196
1483	0.7458
1492	0.7864
1501	0.796
1510	0.7961
1519	0.7793
1528	0.6023
1537	0.8104
1546	0.7731
1555	0.565
1564	0.8424
1573	0.8484
1582	0.8338
1591	0.8324
1600	0.8413
1609	0.8466
1618	0.8421
1627	0.8525
1636	0.869
1645	0.8662
1654	0.8344
1663	0.8172
1672	0.8017
1681	0.8042
1690	0.8147
1699	0.8161
1708	0.8142
1717	0.8105
1726	0.8089
1735	0.8078
1744	0.8072
1753	0.8062
1762	0.8048
1771	0.8035
1780	0.803
1789	0.8025
1798	0.8017
1807	0.8007
1816	0.7998
1825	0.7989
1834	0.7978
1843	0.7962
1852	0.7948
1861	0.7928
1870	0.7908
1879	0.7888
1888	0.7867
1897	0.7844
1906	0.7817
1915	0.7807
1924	0.7794
1933	0.7771
1942	0.7725
1951	0.7653
1960	0.743
1969	0.7699
1978	0.7803
1987	0.7775
1996	0.7734
2005	0.7599
2014	0.7592
2023	0.755
2032	0.7505
2041	0.7536
2050	0.7512
2059	0.7508
2068	0.7536
2077	0.7512
2086	0.7472
2095	0.7425
2104	0.7399
2113	0.7371
2122	0.7349
2131	0.7325
2140	0.7306
2149	0.7286
2158	0.7272
2167	0.7258
2176	0.7247
2185	0.7234
2194	0.7231
2203	0.7226
2212	0.7232
2221	0.7234
2230	0.7231
2239	0.7224
2248	0.7208
2257	0.7174
2266	0.7134
2275	0.7093
2284	0.7045
2293	0.6999
2302	0.6956
2311	0.7011
2320	0.7007
2329	0.6872
2338	0.6976
2347	0.7018
2356	0.7026
2365	0.718
2374	0.7474
2383	0.7767
2392	0.8061
2401	0.8355
2410	0.8649
2419	0.8942
2428	0.9236
2437	0.9503
2446	0.9462
2455	0.9418
2464	0.9387
2473	0.9375
2482	0.9333
2491	0.9309
2500	0.9227
2509	0.9097
2518	0.899
2527	0.889
2536	0.8753
2545	0.8696
2554	0.903
2563	0.9
2572	0.8949
2581	0.8882
2590	0.8796
2599	0.8871
2608	0.8865
2617	0.8803
2626	0.8738
2635	0.8671
2644	0.8543
2653	0.8308
2662	0.8217
2671	0.8187
2680	0.8106
2689	0.7915
2698	0.8018
2707	0.8333
2716	0.8305
2725	0.8263
2734	0.8205
2743	0.8115
2752	0.798
2761	0.7888
2770	0.7914
2779	0.789
2788	0.7825
2797	0.775
2806	0.7669
2815	0.7585
2824	0.7558
2833	0.7504
2842	0.7365
2851	0.7201
2860	0.7115
2869	0.7071
2878	0.7018
2887	0.6928
2896	0.678
2905	0.6644
2914	0.6511
2923	0.6391
2932	0.6417
2941	0.643
2950	0.6418
2959	0.639
2968	0.6348
2977	0.6288
2986	0.6193
2995	0.6074
3004	0.5875
3013	0.5628
3022	0.531
3031	0.4705
3040	0.3274
3049	0.3604
3058	0.3455
3067	0.1392
3076	0.4046
3085	0.5917
3094	0.537
3103	0.3764
3112	0.2139
3121	0.269
3130	0.5865
3139	0.6554
3148	0.6554
3157	0.654
3166	0.6522
3175	0.65
3184	0.6475
3193	0.6449
3202	0.6422
3211	0.6393
3220	0.6362
3229	0.6333
3238	0.6305
3247	0.6276
3256	0.6248
3265	0.6219
3274	0.619
3283	0.616
3292	0.6131
3301	0.6095
3310	0.6058
3319	0.6022
3328	0.5975
3337	0.5925
3346	0.5876
3355	0.5826
3364	0.5775
3373	0.5723
3382	0.5672
3391	0.562
3400	0.5571
3409	0.5521
3418	0.5472
3427	0.5419
3436	0.5362
3445	0.5303
3454	0.5245
3463	0.5196
3472	0.5158
3481	0.512
3490	0.5081
3499	0.5041
3508	0.5003
3517	0.4962
3526	0.4929
3535	0.4896
3544	0.4865
3553	0.4833
3562	0.4801
3571	0.4776
3580	0.4751
3589	0.4725
3598	0.4694
3607	0.4659
3616	0.462
3625	0.4583
3634	0.4552
3643	0.4524
3652	0.4497
3661	0.4469
3670	0.4441
3679	0.4412
3688	0.4385
3697	0.4357
3706	0.4329
3715	0.4301
3724	0.4273
3733	0.4248
3742	0.4224
3751	0.42
3760	0.4181
3769	0.4154
3778	0.4124
