Infrared Spectrum: BUTANOIC ACID, 3-OXO-, ETHYL ESTER
Formula: C6 H10 O3
CAS: 141-97-9
State: LIQUID (NEAT)
Class: COBLENTZ III
Instrument: PERKIN-ELMER 521 (GRATING)
Instrument parameters: FILTERS AT 3150, 2500, 2000, 1150, 700, 410 AND GRATING CHANGES AT 2000, 630 CM^-^1
Sampling: TRANSMISSION
Path length: SMEAR, KBr CRYSTALS
Resolution: 4
Origin: STANDARD OIL OF OHIO
1/CM	TRANSMITTANCE
278.759	0.092
288.306	0.111
297.852	0.135
307.399	0.156
316.945	0.196
326.492	0.233
336.038	0.269
345.585	0.329
355.131	0.403
364.678	0.457
374.225	0.504
383.771	0.569
393.318	0.619
402.864	0.664
412.411	0.72
421.957	0.76
431.504	0.796
441.05	0.812
450.597	0.814
460.144	0.833
469.69	0.846
479.237	0.845
488.783	0.841
498.33	0.838
507.876	0.843
517.423	0.86
526.969	0.847
536.516	0.794
546.063	0.657
555.609	0.689
565.156	0.813
574.702	0.859
584.249	0.873
593.795	0.872
603.342	0.868
612.888	0.865
622.435	0.847
631.982	0.831
641.528	0.871
651.075	0.878
660.621	0.879
670.168	0.883
679.714	0.881
689.261	0.879
698.807	0.875
708.354	0.866
717.901	0.859
727.447	0.848
736.994	0.84
746.54	0.852
756.087	0.869
765.633	0.864
775.18	0.851
784.726	0.802
794.273	0.769
803.82	0.732
813.366	0.766
822.913	0.8
832.459	0.799
842.006	0.777
851.552	0.753
861.099	0.759
870.645	0.795
880.192	0.822
889.739	0.838
899.285	0.843
908.832	0.841
918.378	0.812
927.925	0.759
937.471	0.744
947.018	0.797
956.564	0.839
966.111	0.841
975.657	0.827
985.204	0.778
994.751	0.757
1004.3	0.722
1013.84	0.615
1023.39	0.55
1032.94	0.42
1042.48	0.288
1052.03	0.492
1061.58	0.709
1071.12	0.751
1080.67	0.741
1090.22	0.678
1099.76	0.601
1109.31	0.65
1118.86	0.619
1128.4	0.571
1137.95	0.449
1147.5	0.265
1157.04	0.23
1166.59	0.33
1176.14	0.303
1185.68	0.305
1195.23	0.323
1204.77	0.406
1214.32	0.445
1223.87	0.429
1233.41	0.354
1242.96	0.277
1252.51	0.288
1262.05	0.279
1271.6	0.292
1281.15	0.331
1290.69	0.363
1300.24	0.337
1309.79	0.279
1319.33	0.223
1328.88	0.316
1338.43	0.498
1347.97	0.549
1357.52	0.376
1367.07	0.274
1376.61	0.463
1386.16	0.537
1395.71	0.525
1405.25	0.488
1414.8	0.411
1424.35	0.463
1433.89	0.529
1443.44	0.542
1452.99	0.552
1462.53	0.6
1472.08	0.599
1481.62	0.645
1491.17	0.756
1500.72	0.785
1510.26	0.797
1519.81	0.808
1529.36	0.816
1538.9	0.813
1548.45	0.82
1558	0.812
1567.54	0.818
1577.09	0.808
1586.64	0.8
1596.18	0.774
1605.73	0.749
1615.28	0.714
1624.82	0.646
1634.37	0.557
1643.92	0.558
1653.46	0.526
1663.01	0.606
1672.56	0.649
1682.1	0.624
1691.65	0.551
1701.2	0.4279
1710.74	0.164
1720.29	0.097
1729.84	0.129
1739.38	0.108
1748.93	0.107
1758.47	0.205
1768.02	0.453
1777.57	0.619
1787.11	0.692
1796.66	0.741
1806.21	0.772
1815.75	0.797
1825.3	0.82
1834.85	0.838
1844.39	0.838
1853.94	0.841
1863.49	0.844
1873.03	0.845
1882.58	0.845
1892.13	0.846
1901.67	0.848
1911.22	0.853
1920.77	0.853
1930.31	0.853
1939.86	0.853
1949.41	0.853
1958.95	0.853
1968.5	0.854
1978.05	0.854
1987.59	0.856
1997.14	0.857
2006.69	0.858
2016.23	0.857
2025.78	0.856
2035.33	0.856
2044.87	0.857
2054.42	0.857
2063.96	0.857
2073.51	0.856
2083.06	0.853
2092.6	0.854
2102.15	0.857
2111.7	0.858
2121.24	0.858
2130.79	0.858
2140.34	0.858
2149.88	0.857
2159.43	0.8576
2168.98	0.858
2178.52	0.858
2188.07	0.859
2197.62	0.8594
2207.16	0.86
2216.71	0.859
2226.26	0.859
2235.8	0.858
2245.35	0.858
2254.9	0.858
2264.44	0.858
2273.99	0.859
2283.54	0.859
2293.08	0.8584
2302.63	0.854
2312.18	0.8524
2321.72	0.846
2331.27	0.8434
2340.81	0.8343
2350.36	0.848
2359.91	0.85
2369.45	0.852
2379	0.856
2388.55	0.856
2398.09	0.854
2407.64	0.854
2417.19	0.854
2426.73	0.856
2436.28	0.858
2445.83	0.858
2455.37	0.857
2464.92	0.853
2474.47	0.8523
2484.01	0.851
2493.56	0.851
2503.11	0.851
2512.65	0.852
2522.2	0.852
2531.75	0.852
2541.29	0.851
2550.84	0.851
2560.39	0.851
2569.93	0.852
2579.48	0.852
2589.03	0.851
2598.57	0.85
2608.12	0.851
2617.66	0.851
2627.21	0.851
2636.76	0.85
2646.3	0.85
2655.85	0.85
2665.4	0.85
2674.94	0.8508
2684.49	0.85
2694.04	0.848
2703.58	0.848
2713.13	0.8462
2722.68	0.844
2732.22	0.844
2741.77	0.841
2751.32	0.84
2760.86	0.839
2770.41	0.839
2779.96	0.8378
2789.5	0.839
2799.05	0.8345
2808.6	0.8282
2818.14	0.822
2827.69	0.8163
2837.24	0.8105
2846.78	0.7943
2856.33	0.7853
2865.88	0.7667
2875.42	0.7413
2884.97	0.743
2894.51	0.7156
2904.06	0.669
2913.61	0.6619
2923.15	0.6536
2932.7	0.6121
2942.25	0.6082
2951.79	0.6391
2961.34	0.6128
2970.89	0.561
2980.43	0.4712
2989.98	0.4742
2999.53	0.5585
3009.07	0.6286
3018.62	0.7071
3028.17	0.7575
3037.71	0.7819
3047.26	0.7949
3056.81	0.8019
3066.35	0.8099
3075.9	0.8119
3085.45	0.8179
3094.99	0.821
3104.54	0.822
3114.09	0.825
3123.63	0.834
3133.18	0.838
3142.73	0.837
3152.27	0.837
3161.82	0.8399
3171.37	0.837
3180.91	0.839
3190.46	0.84
3200	0.839
3209.55	0.841
3219.1	0.843
3228.64	0.843
3238.19	0.844
3247.74	0.844
3257.28	0.844
3266.83	0.844
3276.38	0.845
3285.92	0.845
3295.47	0.845
3305.02	0.845
3314.56	0.845
3324.11	0.844
3333.66	0.844
3343.2	0.844
3352.75	0.844
3362.3	0.844
3371.84	0.844
3381.39	0.843
3390.94	0.841
3400.48	0.8377
3410.03	0.8268
3419.58	0.8129
3429.12	0.8102
3438.67	0.8141
3448.22	0.8191
3457.76	0.825
3467.31	0.833
3476.85	0.837
3486.4	0.838
3495.95	0.839
3505.49	0.8409
3515.04	0.8413
3524.59	0.843
3534.13	0.8413
3543.68	0.841
3553.23	0.843
3562.77	0.838
3572.32	0.843
3581.87	0.845
3591.41	0.844
3600.96	0.8452
3610.51	0.844
3620.05	0.8442
3629.6	0.8442
3639.15	0.851
3648.69	0.846
3658.24	0.8502
3667.79	0.8468
3677.33	0.8454
3686.88	0.8448
3696.43	0.851
3705.97	0.8468
3715.52	0.8478
3725.07	0.846
3734.61	0.841
3744.16	0.8388
3753.7	0.8437
3763.25	0.85
3772.8	0.852
3782.34	0.8495
3791.89	0.8478
3801.44	0.846
3810.98	0.8448
3820.53	0.8445
3830.08	0.844
3839.62	0.843
3849.17	0.843
3858.72	0.843
3868.26	0.843
3877.81	0.844
3887.36	0.845
3896.9	0.845
3906.45	0.8473
3916	0.848
3925.54	0.8477
3935.09	0.848
3944.64	0.8467
3954.18	0.8463
3963.73	0.848
3973.28	0.847
3982.82	0.8457
3992.37	0.8453
4001.92	0.848
