Infrared Spectrum: 2-Butenedioic acid(Z), diethyl ester
Formula: C8 H12 O4
CAS: 141-05-9
State: SOLUTION (10% CCl4 FOR 2.7-7.5, 10% CS2 FOR 7.5-26 MICRON) VS SOLVENT
Class: COBLENTZ III
Instrument: DOW KBr FOREPRISM-GRATING
Instrument parameters: BLAZED AT 3.5, 12.0, 20.0 MICRON AND CHANGED AT 5.0, 7.5, 14.9 MICRON
Sampling: TRANSMISSION
Path length: 0.011 CM, 0.011 CM
Resolution: 2
Origin: DOW CHEMICAL COMPANY
1/CM	TRANSMITTANCE
3794	0.8525
3785	0.8521
3776	0.8517
3767	0.8514
3758	0.8514
3749	0.8513
3740	0.8513
3731	0.8517
3722	0.8521
3713	0.8528
3704	0.8544
3695	0.8536
3686	0.8523
3677	0.8516
3668	0.8515
3659	0.8512
3650	0.851
3641	0.8516
3632	0.8527
3623	0.8537
3614	0.8548
3605	0.8558
3596	0.8566
3587	0.8575
3578	0.8585
3569	0.8594
3560	0.8598
3551	0.86
3542	0.8607
3533	0.8615
3524	0.863
3515	0.8644
3506	0.8659
3497	0.8671
3488	0.8687
3479	0.8696
3470	0.8694
3461	0.8646
3452	0.85
3443	0.8334
3434	0.8148
3425	0.8108
3416	0.8417
3407	0.8657
3398	0.8754
3389	0.8806
3380	0.8804
3371	0.8778
3362	0.8773
3353	0.8771
3344	0.8787
3335	0.8803
3326	0.8821
3317	0.8842
3308	0.8862
3299	0.888
3290	0.8891
3281	0.8901
3272	0.8911
3263	0.8918
3254	0.8914
3245	0.8908
3236	0.8902
3227	0.8894
3218	0.8886
3209	0.8878
3200	0.8868
3191	0.8857
3182	0.8847
3173	0.8837
3164	0.8828
3155	0.8818
3146	0.8808
3137	0.8797
3128	0.8783
3119	0.8766
3110	0.8744
3101	0.8702
3092	0.8627
3083	0.8568
3074	0.8508
3065	0.8446
3056	0.8411
3047	0.8282
3038	0.8238
3029	0.8201
3020	0.8028
3011	0.7178
3002	0.4736
2993	0.2321
2984	0.1499
2975	0.2338
2966	0.3829
2957	0.4293
2948	0.5208
2939	0.5119
2930	0.4312
2921	0.5357
2912	0.637
2903	0.5044
2894	0.5683
2885	0.7071
2876	0.7272
2867	0.698
2858	0.7369
2849	0.7974
2840	0.8221
2831	0.8315
2822	0.8347
2813	0.8368
2804	0.8403
2795	0.8481
2786	0.8558
2777	0.8589
2768	0.8578
2759	0.8556
2750	0.8528
2741	0.8554
2732	0.8586
2723	0.8605
2714	0.8621
2705	0.8636
2696	0.8658
2687	0.868
2678	0.8694
2669	0.8702
2660	0.8707
2651	0.8699
2642	0.8692
2633	0.8684
2624	0.8673
2615	0.8661
2606	0.8652
2597	0.8646
2588	0.8643
2579	0.8651
2570	0.866
2561	0.8662
2552	0.8662
2543	0.8662
2534	0.8662
2525	0.8661
2516	0.8661
2507	0.8661
2498	0.866
2489	0.8658
2480	0.8656
2471	0.8652
2462	0.8654
2453	0.8655
2444	0.8657
2435	0.8652
2426	0.8599
2417	0.8546
2408	0.8515
2399	0.8507
2390	0.8505
2381	0.851
2372	0.8517
2363	0.8524
2354	0.8532
2345	0.854
2336	0.8549
2327	0.8559
2318	0.858
2309	0.8601
2300	0.8625
2291	0.8638
2282	0.8642
2273	0.8644
2264	0.8645
2255	0.8646
2246	0.8647
2237	0.8654
2228	0.8665
2219	0.8675
2210	0.8681
2201	0.8686
2192	0.8692
2183	0.8718
2174	0.8755
2165	0.8685
2156	0.8654
2147	0.8633
2138	0.8611
2129	0.8603
2120	0.8603
2111	0.8606
2102	0.8603
2093	0.8578
2084	0.8551
2075	0.8544
2066	0.8538
2057	0.8528
2048	0.8495
2039	0.8486
2030	0.8489
2021	0.8501
2012	0.8514
2003	0.8518
1994	0.853
1985	0.8557
1976	0.8589
1967	0.8602
1958	0.8581
1949	0.8548
1940	0.8534
1931	0.8468
1922	0.8442
1913	0.8435
1904	0.8367
1895	0.8343
1886	0.8275
1877	0.8268
1868	0.8299
1859	0.832
1850	0.8332
1841	0.8307
1832	0.8198
1823	0.8071
1814	0.7918
1805	0.7768
1796	0.7607
1787	0.7404
1778	0.7051
1769	0.626
1760	0.5139
1751	0.1846
1742	0.0211
1733	0.0026
1724	0.0002
1715	0.0068
1706	0.2651
1697	0.4018
1688	0.503
1679	0.5897
1670	0.6322
1661	0.5977
1652	0.4137
1643	0.2946
1634	0.3582
1625	0.573
1616	0.6675
1607	0.7324
1598	0.7628
1589	0.7821
1580	0.7972
1571	0.8024
1562	0.8086
1553	0.8169
1544	0.8249
1535	0.8281
1526	0.8247
1517	0.8143
1508	0.7982
1499	0.7833
1490	0.7484
1481	0.575
1472	0.4239
1463	0.4096
1454	0.4882
1445	0.4183
1436	0.6019
1427	0.5997
1418	0.3994
1409	0.147
1400	0.1728
1391	0.243
1382	0.1731
1373	0.2879
1364	0.4312
1355	0.6217
1346	0.6974
1337	0.706
1328	0.6907
1319	0.5151
1310	0.3693
1301	0.0946
1292	0.0484
1283	0.0746
1274	0.1268
1265	0.1108
1256	0.0637
1247	0.0321
1238	0.0291
1229	0.0394
1220	0.0343
1211	0.0117
1202	0.0036
1193	0.0362
1184	0.0836
1175	0.0535
1166	0.018
1157	0.0047
1148	0.0124
1139	0.3148
1130	0.5018
1121	0.5578
1112	0.4106
1103	0.4794
1094	0.3037
1085	0.6131
1076	0.6948
1067	0.7057
1058	0.6846
1049	0.4285
1040	0.2396
1031	0.0451
1022	0.0268
1013	0.343
1004	0.6166
995	0.6985
986	0.7325
977	0.5114
968	0.5189
959	0.619
950	0.7458
941	0.784
932	0.8078
923	0.7974
914	0.7525
905	0.7468
896	0.8043
887	0.8128
878	0.7728
869	0.6309
860	0.3893
851	0.5775
842	0.4771
833	0.4082
824	0.5797
815	0.4609
806	0.3063
797	0.4995
788	0.6231
779	0.6799
770	0.7351
761	0.7938
752	0.8153
743	0.8183
734	0.8161
725	0.8108
716	0.8056
707	0.8158
698	0.8365
689	0.8463
680	0.8432
671	0.8327
662	0.8335
653	0.8238
644	0.832
635	0.8475
626	0.8538
617	0.8498
608	0.8142
599	0.7592
590	0.7525
581	0.7958
572	0.838
563	0.8502
554	0.8524
545	0.8425
536	0.8171
527	0.7946
518	0.7976
509	0.8011
500	0.7821
491	0.7728
482	0.7772
473	0.7836
464	0.791
455	0.8001
446	0.8068
437	0.8038
428	0.8001
419	0.7983
410	0.7975
