Infrared Spectrum: Malonic acid
Formula: C3 H4 O4
CAS: 141-82-2
State: solid
Instrument: Bruker Tensor 37 FTIR
Resolution: 0.96450084
Origin: Pacific Northwest National Laboratory Under IARPA Contract
1/cm	Reflectance
7498.03	0.572977
7480.67	0.570846
7463.31	0.56753
7445.95	0.565198
7428.59	0.556196
7411.23	0.529216
7393.87	0.533866
7376.51	0.531908
7359.15	0.510883
7341.79	0.516186
7324.43	0.525428
7307.07	0.525068
7289.71	0.52987
7272.35	0.527322
7254.99	0.513823
7237.63	0.507291
7220.27	0.51193
7202.91	0.517029
7185.55	0.510513
7168.19	0.505919
7150.83	0.498094
7133.47	0.489348
7116.11	0.486212
7098.75	0.482989
7081.39	0.476533
7064.03	0.466011
7046.67	0.459279
7029.31	0.44957
7011.96	0.442332
6994.6	0.43167
6977.24	0.419427
6959.88	0.402618
6942.52	0.385241
6925.16	0.372003
6907.8	0.353287
6890.44	0.335934
6873.08	0.321035
6855.72	0.305908
6838.36	0.290168
6821	0.277394
6803.64	0.264737
6786.28	0.25248
6768.92	0.237563
6751.56	0.223918
6734.2	0.203682
6716.84	0.195429
6699.48	0.188878
6682.12	0.180191
6664.76	0.161866
6647.4	0.165936
6630.04	0.170845
6612.68	0.168272
6595.32	0.171961
6577.96	0.171894
6560.6	0.169759
6543.24	0.165863
6525.88	0.162393
6508.52	0.159128
6491.16	0.154958
6473.8	0.151831
6456.44	0.147036
6439.08	0.144445
6421.72	0.140971
6404.36	0.139496
6387	0.137732
6369.64	0.136992
6352.28	0.137231
6334.92	0.136238
6317.56	0.135748
6300.2	0.135069
6282.84	0.131856
6265.48	0.13282
6248.12	0.131996
6230.76	0.131946
6213.4	0.132715
6196.04	0.133097
6178.68	0.132082
6161.32	0.132624
6143.97	0.132009
6126.61	0.129509
6109.25	0.119473
6091.89	0.114822
6074.53	0.118554
6057.17	0.11839
6039.81	0.116197
6022.45	0.109634
6005.09	0.105066
5987.73	0.100074
5970.37	0.0937395
5953.01	0.0817551
5935.65	0.0609573
5918.29	0.0796107
5900.93	0.0784972
5883.57	0.0775603
5866.21	0.0803718
5848.85	0.0780455
5831.49	0.0749606
5814.13	0.0803672
5796.77	0.078379
5779.41	0.0752579
5762.05	0.0718262
5744.69	0.0697652
5727.33	0.0635738
5709.97	0.06157
5692.61	0.0618207
5675.25	0.0671692
5657.89	0.0682941
5640.53	0.0696677
5623.17	0.0688814
5605.81	0.0691676
5588.45	0.0695492
5571.09	0.0667118
5553.73	0.0638272
5536.37	0.0588743
5519.01	0.0530476
5501.65	0.0463621
5484.29	0.0390563
5466.93	0.0325481
5449.57	0.0279443
5432.21	0.0256425
5414.85	0.0245205
5397.49	0.0235001
5380.13	0.0231381
5362.77	0.0232526
5345.41	0.0238693
5328.05	0.0239724
5310.69	0.025155
5293.33	0.0263581
5275.97	0.0270655
5258.62	0.0285729
5241.26	0.0292761
5223.9	0.0292099
5206.54	0.0303396
5189.18	0.0312996
5171.82	0.0307069
5154.46	0.030458
5137.1	0.0301892
5119.74	0.0302156
5102.38	0.0300557
5085.02	0.0300672
5067.66	0.0299123
5050.3	0.0304381
5032.94	0.0308601
5015.58	0.0308013
4998.22	0.0309981
4980.86	0.0313232
4963.5	0.0312351
4946.14	0.0315162
4928.78	0.031301
4911.42	0.0321848
4894.06	0.0323763
4876.7	0.031354
4859.34	0.0314187
4841.98	0.0330867
4824.62	0.0324817
4807.26	0.0311996
4789.9	0.0310189
4772.54	0.0319225
4755.18	0.0313187
4737.82	0.0296823
4720.46	0.0280873
4703.1	0.0262311
4685.74	0.0236682
4668.38	0.0225807
4651.02	0.0210618
4633.66	0.0616646
4616.3	0.0473853
4598.94	0.0621489
4581.58	0.036202
4564.22	0.0322259
4546.86	0.0315896
4529.5	0.0298695
4512.14	0.0265603
4494.78	0.0248668
4477.42	0.0197282
4460.06	0.0400492
4442.7	0.0329248
4425.34	0.0261364
4407.98	0.029707
4390.63	0.027881
4373.27	0.0239072
4355.91	0.0481145
4338.55	0.0484052
4321.19	0.0354729
4303.83	0.0347358
4286.47	0.031762
4269.11	0.0294162
4251.75	0.0262826
4234.39	0.0249588
4217.03	0.0344194
4199.67	0.0382462
4182.31	0.0356163
4164.95	0.034609
4147.59	0.0330036
4130.23	0.0331065
4112.87	0.0378169
4095.51	0.0367632
4078.15	0.0538318
4060.79	0.0464671
4043.43	0.572728
4026.07	0.572509
4008.71	0.565465
3991.35	0.557226
3973.99	0.550758
3956.63	0.534143
3939.27	0.53772
3921.91	0.530296
3904.55	0.511974
3887.19	0.521182
3869.83	0.526529
3852.47	0.530636
3835.11	0.530394
3817.75	0.528013
3800.39	0.512414
3783.03	0.514285
3765.67	0.517939
3748.31	0.516983
3730.95	0.512434
3713.59	0.508285
3696.23	0.49833
3678.87	0.493343
3661.51	0.489884
3644.15	0.48458
3626.79	0.478657
3609.43	0.46951
3592.07	0.462165
3574.71	0.450318
3557.35	0.441463
3539.99	0.430955
3522.64	0.419696
3505.28	0.402862
3487.92	0.387129
3470.56	0.373506
3453.2	0.356324
3435.84	0.338618
3418.48	0.320968
3401.12	0.306813
3383.76	0.292312
3366.4	0.278649
3349.04	0.266775
3331.68	0.252333
3314.32	0.23828
3296.96	0.225105
3279.6	0.187946
3262.24	0.200688
3244.88	0.192472
3227.52	0.17971
3210.16	0.165555
3192.8	0.174097
3175.44	0.174554
3158.08	0.175
3140.72	0.177382
3123.36	0.176075
3106	0.173326
3088.64	0.169509
3071.28	0.166373
3053.92	0.16307
3036.56	0.158284
3019.2	0.154829
3001.84	0.151013
2984.48	0.148185
2967.12	0.145175
2949.76	0.143483
2932.4	0.141544
2915.04	0.141697
2897.68	0.141363
2880.32	0.140133
2862.96	0.139388
2845.6	0.138767
2828.24	0.136123
2810.88	0.136734
2793.52	0.136087
2776.16	0.135903
2758.8	0.136978
2741.44	0.137061
2724.08	0.135737
2706.72	0.135827
2689.36	0.135487
2672	0.129701
2654.64	0.120267
2637.29	0.118751
2619.93	0.122154
2602.57	0.121239
2585.21	0.117586
2567.85	0.111293
2550.49	0.106116
2533.13	0.100403
2515.77	0.0929177
2498.41	0.0789461
2481.05	0.0659776
2463.69	0.0826968
2446.33	0.0803138
2428.97	0.0817967
2411.61	0.0819093
2394.25	0.081341
2376.89	0.07591
2359.53	0.0816721
2342.17	0.0791289
2324.81	0.0757801
2307.45	0.0727613
2290.09	0.0705369
2272.73	0.0590453
2255.37	0.061806
2238.01	0.0663748
2220.65	0.069759
2203.29	0.0707338
2185.93	0.0708838
2168.57	0.0713746
2151.21	0.0715378
2133.85	0.0705082
2116.49	0.0671313
2099.13	0.0635706
2081.77	0.0577138
2064.41	0.0511052
2047.05	0.0442085
2029.69	0.0365432
2012.33	0.0310007
1994.97	0.0266222
1977.61	0.0251387
1960.25	0.0242803
1942.89	0.0232944
1925.53	0.0230895
1908.17	0.0230329
1890.81	0.0234924
1873.45	0.0241677
1856.09	0.0254674
1838.73	0.0264837
1821.37	0.0274836
1804.01	0.0283648
1786.65	0.0287695
1769.3	0.0297482
1751.94	0.0310096
1734.58	0.0308798
1717.22	0.0307553
1699.86	0.0302588
1682.5	0.0296366
1665.14	0.0295943
1647.78	0.0297675
1630.42	0.0299285
1613.06	0.0298059
1595.7	0.030814
1578.34	0.0309009
1560.98	0.0306855
1543.62	0.0309287
1526.26	0.0309996
1508.9	0.0314721
1491.54	0.0312035
1474.18	0.0311127
1456.82	0.0321033
1439.46	0.0322263
1422.1	0.0307629
1404.74	0.031689
1387.38	0.0326726
1370.02	0.0316659
1352.66	0.0301497
1335.3	0.0311619
1317.94	0.0316722
1300.58	0.0306801
1283.22	0.0288041
1265.86	0.0269572
1248.5	0.0248414
1231.14	0.0230181
1213.78	0.0216324
1196.42	0.0208399
1179.06	0.0647864
1161.7	0.0483692
1144.34	0.0465117
1126.98	0.0336221
1109.62	0.0315185
1092.26	0.0305473
1074.9	0.0291124
1057.54	0.025437
1040.18	0.0231598
1022.82	0.0311079
1005.46	0.0363471
988.104	0.0303306
970.744	0.0227511
953.384	0.0314078
936.025	0.0258389
918.665	0.0264885
901.305	0.0344078
883.945	0.0459732
866.585	0.0339889
849.226	0.0329206
831.866	0.0298899
814.506	0.0272076
797.146	0.0242335
779.786	0.0245979
762.427	0.0348918
745.067	0.0367513
727.707	0.0336726
710.347	0.031977
692.987	0.0300789
675.628	0.0332451
658.268	0.0369336
640.908	0.0308527
623.548	0.0387636
606.188	0.0355203
