Infrared Spectrum: ACRYLIC ACID, n-BUTYL ESTER
Formula: C7 H12 O2
CAS: 141-32-2
State: GAS (10 mmHg, N2 ADDED, TOTAL PRESSURE 600 mmHg)
Class: COBLENTZ
Instrument: DOW KBr FOREPRISM-GRATING
Instrument parameters: GRATING CHANGED AT 5.0, 7.5, 15.0 MICRON
Sampling: TRANSMISSION
Path length: 5 CM
Resolution: 2
Origin: DOW CHEMICAL COMPANY
1/CM	TRANSMITTANCE
386.885	0.983
396.253	0.982
405.62	0.976
414.988	0.97
424.356	0.965
433.723	0.957
443.091	0.946
452.459	0.943
461.826	0.94
471.194	0.94
480.562	0.947
489.93	0.947
499.297	0.947
508.665	0.944
518.033	0.944
527.4	0.946
536.768	0.947
546.136	0.951
555.503	0.954
564.871	0.959
574.239	0.962
583.606	0.967
592.974	0.973
602.342	0.976
611.709	0.982
621.077	0.985
630.445	0.988
639.813	0.994
649.18	0.994
658.548	0.989
667.916	0.991
677.283	0.994
686.651	1.001
696.019	1.002
705.386	1.002
714.754	1.004
724.122	1.004
733.489	1
742.857	0.997
752.225	0.995
761.592	0.997
770.96	0.997
780.328	0.992
789.695	0.985
799.063	0.967
808.431	0.941
817.799	0.937
827.166	0.96
836.534	0.969
845.902	0.97
855.269	0.965
864.637	0.965
874.005	0.962
883.372	0.963
892.74	0.966
902.108	0.96
911.475	0.96
920.843	0.962
930.211	0.957
939.578	0.946
948.946	0.921
958.314	0.892
967.682	0.881
977.049	0.881
986.417	0.873
995.785	0.897
1005.15	0.913
1014.52	0.915
1023.89	0.913
1033.26	0.911
1042.62	0.896
1051.99	0.884
1061.36	0.858
1070.73	0.814
1080.09	0.858
1089.46	0.913
1098.83	0.934
1108.2	0.93
1117.56	0.925
1126.93	0.919
1136.3	0.909
1145.67	0.9
1155.04	0.892
1164.4	0.883
1173.77	0.833
1183.14	0.564
1192.51	0.373
1201.87	0.511
1211.24	0.728
1220.61	0.832
1229.98	0.852
1239.34	0.874
1248.71	0.867
1258.08	0.817
1267.45	0.712
1276.82	0.695
1286.18	0.797
1295.55	0.776
1304.92	0.801
1314.29	0.884
1323.65	0.909
1333.02	0.915
1342.39	0.919
1351.76	0.921
1361.12	0.918
1370.49	0.916
1379.86	0.913
1389.23	0.893
1398.6	0.886
1407.96	0.739
1417.33	0.762
1426.7	0.902
1436.07	0.916
1445.43	0.908
1454.8	0.893
1464.17	0.886
1473.54	0.893
1482.9	0.912
1492.27	0.924
1501.64	0.928
1511.01	0.934
1520.37	0.932
1529.74	0.934
1539.11	0.932
1548.48	0.937
1557.85	0.932
1567.21	0.94
1576.58	0.937
1585.95	0.94
1595.32	0.935
1604.68	0.931
1614.05	0.922
1623.42	0.915
1632.79	0.905
1642.15	0.897
1651.52	0.912
1660.89	0.934
1670.26	0.94
1679.63	0.94
1688.99	0.94
1698.36	0.93
1707.73	0.927
1717.1	0.912
1726.46	0.873
1735.83	0.706
1745.2	0.559
1754.57	0.661
1763.93	0.868
1773.3	0.911
1782.67	0.922
1792.04	0.934
1801.41	0.953
1810.77	0.957
1820.14	0.957
1829.51	0.962
1838.88	0.963
1848.24	0.965
1857.61	0.965
1866.98	0.967
1876.35	0.967
1885.71	0.969
1895.08	0.969
1904.45	0.967
1913.82	0.966
1923.19	0.965
1932.55	0.966
1941.92	0.969
1951.29	0.969
1960.66	0.97
1970.02	0.969
1979.39	0.967
1988.76	0.965
1998.13	0.965
2007.49	0.966
2016.86	0.967
2026.23	0.967
2035.6	0.967
2044.97	0.965
2054.33	0.9658
2063.7	0.966
2073.07	0.967
2082.44	0.967
2091.8	0.967
2101.17	0.967
2110.54	0.969
2119.91	0.97
2129.27	0.973
2138.64	0.973
2148.01	0.9721
2157.38	0.972
2166.75	0.976
2176.11	0.976
2185.48	0.976
2194.85	0.976
2204.22	0.976
2213.58	0.976
2222.95	0.976
2232.32	0.978
2241.69	0.978
2251.05	0.978
2260.42	0.976
2269.79	0.976
2279.16	0.978
2288.53	0.978
2297.89	0.979
2307.26	0.9827
2316.63	0.9911
2326	0.995
2335.36	0.997
2344.73	0.997
2354.1	0.997
2363.47	0.997
2372.83	0.9943
2382.2	0.988
2391.57	0.9814
2400.94	0.981
2410.31	0.982
2419.67	0.983
2429.04	0.983
2438.41	0.985
2447.78	0.985
2457.14	0.9838
2466.51	0.9814
2475.88	0.981
2485.25	0.982
2494.61	0.983
2503.98	0.983
2513.35	0.983
2522.72	0.9825
2532.09	0.9825
2541.45	0.9855
2550.82	0.986
2560.19	0.986
2569.56	0.986
2578.92	0.985
2588.29	0.985
2597.66	0.985
2607.03	0.985
2616.39	0.986
2625.76	0.986
2635.13	0.986
2644.5	0.988
2653.86	0.988
2663.23	0.988
2672.6	0.9872
2681.97	0.986
2691.34	0.986
2700.7	0.986
2710.07	0.986
2719.44	0.986
2728.81	0.983
2738.17	0.983
2747.54	0.985
2756.91	0.985
2766.28	0.985
2775.64	0.985
2785.01	0.983
2794.38	0.982
2803.75	0.982
2813.12	0.9817
2822.48	0.9805
2831.85	0.975
2841.22	0.9665
2850.59	0.9568
2859.95	0.9468
2869.32	0.9331
2878.69	0.9204
2888.06	0.8972
2897.42	0.916
2906.79	0.9144
2916.16	0.8955
2925.53	0.881
2934.9	0.8725
2944.26	0.8418
2953.63	0.839
2963	0.8118
2972.37	0.7463
2981.73	0.7783
2991.1	0.88
3000.47	0.9546
3009.84	0.9783
3019.2	0.983
3028.57	0.983
3037.94	0.9809
3047.31	0.978
3056.68	0.9832
3066.04	0.989
3075.41	0.989
3084.78	0.988
3094.15	0.988
3103.51	0.986
3112.88	0.982
3122.25	0.988
3131.62	0.995
3140.98	0.995
3150.35	0.992
3159.72	0.992
3169.09	0.992
3178.46	0.994
3187.82	0.9911
3197.19	0.991
3206.56	0.991
3215.93	0.992
3225.29	0.992
3234.66	0.994
3244.03	0.992
3253.4	0.992
3262.76	0.992
3272.13	0.992
3281.5	0.9911
3290.87	0.991
3300.24	0.991
3309.6	0.991
3318.97	0.992
3328.34	0.992
3337.71	0.992
3347.07	0.994
3356.44	0.994
3365.81	0.994
3375.18	0.994
3384.54	0.994
3393.91	0.995
3403.28	0.995
3412.65	0.994
3422.02	0.9934
3431.38	0.995
3440.75	0.995
3450.12	0.995
3459.49	0.995
3468.85	0.9926
3478.22	0.991
3487.59	0.992
3496.96	0.994
3506.32	0.9963
3515.69	0.998
3525.06	0.998
3534.43	0.998
3543.8	0.998
3553.16	0.998
3562.53	0.998
3571.9	0.998
3581.27	0.998
3590.63	0.998
3600	0.998
3609.37	0.998
3618.74	0.998
3628.1	0.9959
3637.47	0.998
3646.84	0.997
3656.21	0.998
3665.58	0.998
3674.94	0.997
3684.31	0.995
3693.68	0.9945
3703.05	0.995
3712.41	0.9975
3721.78	0.998
3731.15	0.9975
3740.52	0.995
3749.88	0.992
3759.25	0.9944
3768.62	0.9958
3777.99	0.997
3787.35	0.997
3796.72	0.997
