Infrared Spectrum: Diisobutyl adipate
Formula: C14 H26 O4
CAS: 141-04-8
State: SOLUTION (10% CCl4 FOR 2.7-7.5, 10% CS2 FOR 7.5-26 MICRON) VS SOLVENT
Class: COBLENTZ III
Instrument: DOW KBr FOREPRISM-GRATING
Instrument parameters: BLAZED AT 3.5, 12.0, 20.0 MICRON AND CHANGED AT 5.0, 7.5, 14.9 MICRON
Sampling: TRANSMISSION
Path length: 0.011 CM, 0.011 CM
Resolution: 2
Origin: DOW CHEMICAL COMPANY
1/CM	TRANSMITTANCE
3800	0.8571
3791	0.8574
3782	0.8578
3773	0.8587
3764	0.8598
3755	0.8602
3746	0.8605
3737	0.861
3728	0.8618
3719	0.8628
3710	0.8639
3701	0.8646
3692	0.8638
3683	0.8595
3674	0.8571
3665	0.8597
3656	0.8617
3647	0.8618
3638	0.8604
3629	0.858
3620	0.8565
3611	0.858
3602	0.859
3593	0.8595
3584	0.8599
3575	0.8598
3566	0.8581
3557	0.8554
3548	0.8528
3539	0.8506
3530	0.8496
3521	0.851
3512	0.8531
3503	0.8556
3494	0.8584
3485	0.8609
3476	0.8617
3467	0.8553
3458	0.8444
3449	0.8383
3440	0.8368
3431	0.8447
3422	0.8555
3413	0.8639
3404	0.8695
3395	0.8715
3386	0.8718
3377	0.8718
3368	0.871
3359	0.8696
3350	0.8683
3341	0.8668
3332	0.866
3323	0.8653
3314	0.8646
3305	0.8636
3296	0.8621
3287	0.8606
3278	0.8596
3269	0.8596
3260	0.8598
3251	0.8592
3242	0.858
3233	0.8553
3224	0.8518
3215	0.8481
3206	0.8443
3197	0.8404
3188	0.8385
3179	0.838
3170	0.8388
3161	0.8392
3152	0.8397
3143	0.8399
3134	0.8401
3125	0.8403
3116	0.8406
3107	0.8395
3098	0.8381
3089	0.8364
3080	0.8342
3071	0.8311
3062	0.8268
3053	0.8215
3044	0.814
3035	0.8061
3026	0.7982
3017	0.7834
3008	0.7486
2999	0.5918
2990	0.3954
2981	0.1734
2972	0.0316
2963	0.0317
2954	0.0646
2945	0.1017
2936	0.1303
2927	0.2012
2918	0.2657
2909	0.3083
2900	0.3223
2891	0.3134
2882	0.2887
2873	0.2025
2864	0.4787
2855	0.6074
2846	0.6633
2837	0.7084
2828	0.7322
2819	0.7519
2810	0.7708
2801	0.7876
2792	0.8008
2783	0.8105
2774	0.8155
2765	0.8194
2756	0.8212
2747	0.8224
2738	0.8221
2729	0.8182
2720	0.8115
2711	0.8197
2702	0.8292
2693	0.8371
2684	0.839
2675	0.8371
2666	0.8332
2657	0.8342
2648	0.8358
2639	0.8378
2630	0.8404
2621	0.843
2612	0.8454
2603	0.8467
2594	0.8455
2585	0.8454
2576	0.8473
2567	0.8491
2558	0.851
2549	0.8528
2540	0.8546
2531	0.8562
2522	0.8578
2513	0.8593
2504	0.8608
2495	0.8621
2486	0.8635
2477	0.8648
2468	0.866
2459	0.8671
2450	0.868
2441	0.8682
2432	0.8685
2423	0.8687
2414	0.8686
2405	0.8675
2396	0.8664
2387	0.8654
2378	0.8647
2369	0.8651
2360	0.8658
2351	0.8665
2342	0.8671
2333	0.867
2324	0.8645
2315	0.8621
2306	0.8605
2297	0.8599
2288	0.8604
2279	0.8625
2270	0.8647
2261	0.8667
2252	0.8684
2243	0.8689
2234	0.8695
2225	0.8699
2216	0.8701
2207	0.8699
2198	0.8693
2189	0.8696
2180	0.8731
2171	0.8744
2162	0.8727
2153	0.8718
2144	0.8711
2135	0.8701
2126	0.869
2117	0.8666
2108	0.8655
2099	0.8645
2090	0.8643
2081	0.8642
2072	0.8637
2063	0.8631
2054	0.8625
2045	0.8618
2036	0.8612
2027	0.8607
2018	0.8606
2009	0.8605
2000	0.8603
1991	0.8598
1982	0.8591
1973	0.8587
1964	0.8589
1955	0.8593
1946	0.8599
1937	0.8605
1928	0.8609
1919	0.8605
1910	0.8601
1901	0.8597
1892	0.8593
1883	0.8578
1874	0.8562
1865	0.8546
1856	0.8528
1847	0.8489
1838	0.8431
1829	0.8366
1820	0.8277
1811	0.8149
1802	0.7984
1793	0.7801
1784	0.7568
1775	0.7161
1766	0.6487
1757	0.4438
1748	0.133
1739	0.0028
1730	0.0017
1721	0.0259
1712	0.2124
1703	0.355
1694	0.5014
1685	0.6068
1676	0.6764
1667	0.7215
1658	0.7595
1649	0.7789
1640	0.7937
1631	0.804
1622	0.8112
1613	0.8178
1604	0.8221
1595	0.8262
1586	0.8305
1577	0.8339
1568	0.8357
1559	0.8378
1550	0.8412
1541	0.8442
1532	0.8414
1523	0.8355
1514	0.8244
1505	0.8087
1496	0.7868
1487	0.735
1478	0.4949
1469	0.1715
1460	0.3054
1451	0.4271
1442	0.5397
1433	0.5516
1424	0.4062
1415	0.51
1406	0.5784
1397	0.335
1388	0.3144
1379	0.2181
1370	0.2087
1361	0.3357
1352	0.3371
1343	0.4105
1334	0.4352
1325	0.4671
1316	0.4018
1307	0.3782
1298	0.3834
1289	0.2588
1280	0.2452
1271	0.2682
1262	0.2111
1253	0.1752
1244	0.1541
1235	0.1402
1226	0.1501
1217	0.1525
1208	0.1467
1199	0.1355
1190	0.0882
1181	0.0667
1172	0.0553
1163	0.0549
1154	0.0826
1145	0.0979
1136	0.0945
1127	0.2347
1118	0.444
1109	0.5383
1100	0.5806
1091	0.5862
1082	0.4477
1073	0.4141
1064	0.4538
1055	0.4666
1046	0.5145
1037	0.5291
1028	0.5016
1019	0.3997
1010	0.3282
1001	0.3074
992	0.3926
983	0.4422
974	0.6227
965	0.5783
956	0.6568
947	0.5264
938	0.5723
929	0.5617
920	0.5744
911	0.6116
902	0.661
893	0.7021
884	0.7335
875	0.7445
866	0.7535
857	0.7615
848	0.7668
839	0.7672
830	0.7475
821	0.7318
812	0.7644
803	0.7794
794	0.778
785	0.7671
776	0.7614
767	0.7551
758	0.7357
749	0.7271
740	0.758
731	0.7732
722	0.7871
713	0.789
704	0.7907
695	0.8007
686	0.8088
677	0.8115
668	0.7971
659	0.8209
650	0.8072
641	0.8006
632	0.7958
623	0.7925
614	0.785
605	0.7758
596	0.7744
587	0.7736
578	0.7765
569	0.7861
560	0.7954
551	0.8035
542	0.8055
533	0.7971
524	0.7924
515	0.788
506	0.786
497	0.7884
488	0.7915
479	0.7921
470	0.7917
461	0.791
452	0.7871
443	0.7684
434	0.7472
425	0.749
416	0.7511
407	0.7518
398	0.7519
