Infrared Spectrum: HEXANEDIOIC ACID, DIETHYL ESTER
Formula: C10 H18 O4
CAS: 141-28-6
State: SOLUTION (10% IN CCl4 FOR 3800-1300, 10% IN CS2 FOR 1300-650, AND 10% CCl4 FOR 650-240 CM^-^1) VERSUS SOLVENT
Class: COBLENTZ III
Instrument: PERKIN-ELMER 521 (GRATING)
Instrument parameters: FILTERS AT 3150, 2500, 2000, 1150, 700, 410; GRATING CHANGES AT 2000, 630 CM^-^1
Sampling: TRANSMISSION
Path length: 0.011, 0.010, AND 0.010 CM (CsBr CELL)
Resolution: 4
Origin: DOW CORNING CORP.
1/CM	TRANSMITTANCE
235.371	0.779
245.196	0.779
255.022	0.778
264.847	0.776
274.672	0.779
284.498	0.78
294.323	0.78
304.148	0.778
313.974	0.775
323.799	0.778
333.625	0.78
343.45	0.783
353.275	0.778
363.101	0.77
372.926	0.779
382.751	0.809
392.577	0.846
402.402	0.85
412.227	0.861
422.053	0.865
431.878	0.866
441.703	0.87
451.529	0.862
461.354	0.856
471.18	0.872
481.005	0.889
490.83	0.907
500.656	0.913
510.481	0.918
520.306	0.92
530.132	0.923
539.957	0.919
549.782	0.918
559.608	0.911
569.433	0.895
579.258	0.869
589.084	0.875
598.909	0.876
608.735	0.883
618.56	0.892
628.385	0.897
638.211	0.904
648.036	0.913
657.861	0.918
667.687	0.934
677.512	0.942
687.337	0.944
697.163	0.94
706.988	0.94
716.813	0.943
726.639	0.936
736.464	0.908
746.289	0.892
756.115	0.833
765.94	0.834
775.766	0.833
785.591	0.837
795.416	0.798
805.242	0.841
815.067	0.858
824.892	0.893
834.718	0.883
844.543	0.858
854.368	0.815
864.194	0.774
874.019	0.788
883.844	0.813
893.67	0.842
903.495	0.876
913.321	0.805
923.146	0.727
932.971	0.766
942.797	0.784
952.622	0.841
962.447	0.879
972.273	0.9
982.098	0.915
991.923	0.892
1001.75	0.831
1011.57	0.721
1021.4	0.595
1031.22	0.333
1041.05	0.239
1050.88	0.387
1060.7	0.419
1070.53	0.432
1080.35	0.399
1090.18	0.45
1100	0.401
1109.83	0.512
1119.65	0.444
1129.48	0.3649
1139.3	0.118
1149.13	0.083
1158.95	0.084
1168.78	0.048
1178.61	0.033
1188.43	0.036
1198.26	0.052
1208.08	0.096
1217.91	0.116
1227.73	0.12
1237.56	0.11
1247.38	0.111
1257.21	0.129
1267.03	0.188
1276.86	0.268
1286.68	0.283
1296.51	0.306
1306.33	0.24
1316.16	0.303
1325.99	0.381
1335.81	0.465
1345.64	0.379
1355.46	0.321
1365.29	0.498
1375.11	0.1369
1384.94	0.1762
1394.76	0.36
1404.59	0.4701
1414.41	0.49
1424.24	0.329
1434.06	0.447
1443.89	0.447
1453.72	0.336
1463.54	0.344
1473.37	0.3491
1483.19	0.463
1493.02	0.725
1502.84	0.797
1512.67	0.829
1522.49	0.845
1532.32	0.852
1542.14	0.854
1551.97	0.854
1561.79	0.848
1571.62	0.844
1581.44	0.84
1591.27	0.831
1601.1	0.815
1610.92	0.805
1620.75	0.801
1630.57	0.793
1640.4	0.778
1650.22	0.774
1660.05	0.748
1669.87	0.727
1679.7	0.68
1689.52	0.603
1699.35	0.4389
1709.17	0.2539
1719	0.063
1728.83	0.024
1738.65	0
1748.48	0
1758.3	0.0321
1768.13	0.3311
1777.95	0.536
1787.78	0.647
1797.6	0.709
1807.43	0.745
1817.25	0.782
1827.08	0.806
1836.9	0.825
1846.73	0.836
1856.55	0.85
1866.38	0.852
1876.21	0.852
1886.03	0.852
1895.86	0.856
1905.68	0.856
1915.51	0.856
1925.33	0.86
1935.16	0.86
1944.98	0.865
1954.81	0.865
1964.63	0.862
1974.46	0.864
1984.28	0.864
1994.11	0.865
2003.94	0.869
2013.76	0.868
2023.59	0.869
2033.41	0.868
2043.24	0.868
2053.06	0.865
2062.89	0.868
2072.71	0.865
2082.54	0.8689
2092.36	0.869
2102.19	0.869
2112.01	0.872
2121.84	0.873
2131.66	0.8758
2141.49	0.876
2151.32	0.876
2161.14	0.875
2170.97	0.875
2180.79	0.873
2190.62	0.872
2200.44	0.8704
2210.27	0.87
2220.09	0.872
2229.92	0.87
2239.74	0.872
2249.57	0.87
2259.39	0.87
2269.22	0.869
2279.04	0.869
2288.87	0.87
2298.7	0.872
2308.52	0.87
2318.35	0.87
2328.17	0.8684
2338	0.866
2347.82	0.868
2357.65	0.87
2367.47	0.869
2377.3	0.869
2387.12	0.8669
2396.95	0.865
2406.77	0.8615
2416.6	0.861
2426.43	0.861
2436.25	0.861
2446.08	0.862
2455.9	0.862
2465.73	0.859
2475.55	0.8575
2485.38	0.8485
2495.2	0.845
2505.03	0.844
2514.85	0.8391
2524.68	0.836
2534.5	0.833
2544.33	0.8282
2554.15	0.8256
2563.98	0.8224
2573.81	0.8214
2583.63	0.8163
2593.46	0.814
2603.28	0.813
2613.11	0.811
2622.93	0.807
2632.76	0.8044
2642.58	0.802
2652.41	0.8017
2662.23	0.799
2672.06	0.797
2681.88	0.798
2691.71	0.799
2701.54	0.802
2711.36	0.802
2721.19	0.801
2731.01	0.798
2740.84	0.797
2750.66	0.795
2760.49	0.7948
2770.31	0.791
2780.14	0.7869
2789.96	0.7799
2799.79	0.7758
2809.61	0.7667
2819.44	0.7569
2829.26	0.7279
2839.09	0.7157
2848.92	0.6958
2858.74	0.6671
2868.57	0.5602
2878.39	0.4416
2888.22	0.4545
2898.04	0.493
2907.87	0.4123
2917.69	0.3361
2927.52	0.3181
2937.34	0.2264
2947.17	0.1893
2956.99	0.1941
2966.82	0.186
2976.65	0.1802
2986.47	0.1044
2996.3	0.128
3006.12	0.2855
3015.95	0.4522
3025.77	0.6148
3035.6	0.6615
3045.42	0.6888
3055.25	0.7041
3065.07	0.7145
3074.9	0.719
3084.72	0.724
3094.55	0.728
3104.37	0.729
3114.2	0.7358
3124.03	0.7438
3133.85	0.745
3143.68	0.7495
3153.5	0.7534
3163.33	0.755
3173.15	0.755
3182.98	0.755
3192.8	0.756
3202.63	0.758
3212.45	0.759
3222.28	0.7613
3232.1	0.763
3241.93	0.7666
3251.76	0.7666
3261.58	0.7676
3271.41	0.771
3281.23	0.7704
3291.06	0.77
3300.88	0.771
3310.71	0.7731
3320.53	0.7785
3330.36	0.782
3340.18	0.7825
3350.01	0.787
3359.83	0.7905
3369.66	0.7964
3379.48	0.802
3389.31	0.8055
3399.14	0.8094
3408.96	0.8134
3418.79	0.813
3428.61	0.8078
3438.44	0.8004
3448.26	0.7906
3458.09	0.7836
3467.91	0.7881
3477.74	0.8132
3487.56	0.826
3497.39	0.83
3507.21	0.831
3517.04	0.826
3526.87	0.819
3536.69	0.817
3546.52	0.8238
3556.34	0.8295
3566.17	0.8443
3575.99	0.85
3585.82	0.8617
3595.64	0.8735
3605.47	0.883
3615.29	0.8872
3625.12	0.881
3634.94	0.883
3644.77	0.891
3654.59	0.8952
3664.42	0.896
3674.25	0.8887
3684.07	0.88
3693.9	0.8911
3703.72	0.9053
3713.55	0.9132
3723.37	0.9159
3733.2	0.916
3743.02	0.918
3752.85	0.92
3762.67	0.919
3772.5	0.919
3782.32	0.92
3792.15	0.919
