Infrared Spectrum: 2-THIOXO-4-THIAZOLIDINONE
Formula: C3 H3 N O S2
CAS: 141-84-4
State: SOLID (MINERAL OIL MULL)
Class: COBLENTZ
Instrument: Not specified, most likely a prism, grating, or hybrid spectrometer.
Sampling: TRANSMISSION
Resolution: 4
Origin: DOW CHEMICAL COMPANY
MICROMETERS	TRANSMITTANCE
2.033	0.644
2.07314	0.651
2.11327	0.661
2.15341	0.667
2.19355	0.676
2.23368	0.676
2.27382	0.672
2.31395	0.681
2.35409	0.691
2.39423	0.697
2.43436	0.709
2.4745	0.717
2.51464	0.722
2.55477	0.73
2.59491	0.735
2.63504	0.739
2.67518	0.75
2.71532	0.749
2.75545	0.75
2.79559	0.749
2.83573	0.747
2.87586	0.749
2.916	0.742
2.95613	0.749
2.99627	0.749
3.03641	0.722
3.07654	0.666
3.11668	0.586
3.15682	0.554
3.19695	0.536
3.23709	0.495
3.27723	0.553
3.31736	0.571
3.3575	0.365
3.39763	0.134
3.43777	0.212
3.47791	0.252
3.51804	0.629
3.55818	0.727
3.59832	0.749
3.63845	0.759
3.67859	0.767
3.71872	0.775
3.75886	0.779
3.799	0.797
3.83913	0.808
3.87927	0.817
3.91941	0.822
3.95954	0.827
3.99968	0.835
4.03981	0.837
4.07995	0.843
4.12009	0.84
4.16022	0.833
4.20036	0.843
4.2405	0.858
4.28063	0.868
4.32077	0.868
4.36091	0.863
4.40104	0.865
4.44118	0.865
4.48131	0.868
4.52145	0.872
4.56159	0.872
4.60172	0.875
4.64186	0.873
4.682	0.877
4.72213	0.878
4.76227	0.878
4.8024	0.883
4.84254	0.888
4.88268	0.89
4.92281	0.893
4.96295	0.898
5.00309	0.895
5.04322	0.9
5.08336	0.9
5.12349	0.898
5.16363	0.9
5.20377	0.901
5.2439	0.901
5.28404	0.9
5.32418	0.895
5.36431	0.9
5.40445	0.9
5.44458	0.892
5.48472	0.875
5.52486	0.875
5.56499	0.835
5.60513	0.76
5.64527	0.8
5.6854	0.79
5.72554	0.725
5.76568	0.529
5.80581	0.277
5.84595	0.21
5.88608	0.466
5.92622	0.581
5.96636	0.719
6.00649	0.765
6.04663	0.815
6.08677	0.828
6.1269	0.837
6.16704	0.833
6.20717	0.838
6.24731	0.837
6.28745	0.842
6.32758	0.848
6.36772	0.862
6.40786	0.878
6.44799	0.875
6.48813	0.878
6.52826	0.877
6.5684	0.875
6.60854	0.865
6.64867	0.855
6.68881	0.835
6.72895	0.784
6.76908	0.657
6.80922	0.471
6.84936	0.343
6.88949	0.235
6.92963	0.294
6.96976	0.564
7.0099	0.702
7.05004	0.76
7.09017	0.77
7.13031	0.772
7.17045	0.704
7.21058	0.548
7.25072	0.511
7.29085	0.659
7.33099	0.755
7.37113	0.772
7.41126	0.767
7.4514	0.727
7.49154	0.626
7.53167	0.641
7.57181	0.759
7.61194	0.737
7.65208	0.73
7.69222	0.787
7.73235	0.817
7.77249	0.822
7.81263	0.823
7.85276	0.807
7.8929	0.777
7.93304	0.737
7.97317	0.664
8.01331	0.475
8.05344	0.25
8.09358	0.204
8.13372	0.49
8.17385	0.694
8.21399	0.697
8.25413	0.661
8.29426	0.548
8.3344	0.428
8.37453	0.355
8.41467	0.425
8.45481	0.604
8.49494	0.717
8.53508	0.755
8.57522	0.767
8.61535	0.764
8.65549	0.754
8.69562	0.757
8.73576	0.782
8.7759	0.795
8.81603	0.785
8.85617	0.785
8.89631	0.787
8.93644	0.785
8.97658	0.784
9.01672	0.757
9.05685	0.76
9.09699	0.775
9.13712	0.752
9.17726	0.641
9.2174	0.405
9.25753	0.403
9.29767	0.616
9.33781	0.729
9.37794	0.764
9.41808	0.779
9.45821	0.79
9.49835	0.8
9.53849	0.808
9.57862	0.815
9.61876	0.82
9.6589	0.823
9.69903	0.83
9.73917	0.835
9.7793	0.835
9.81944	0.843
9.85958	0.852
9.89971	0.857
9.93985	0.858
9.97999	0.863
10.0201	0.865
10.0603	0.865
10.1004	0.867
10.1405	0.87
10.1807	0.87
10.2208	0.868
10.2609	0.865
10.3011	0.867
10.3412	0.865
10.3813	0.867
10.4215	0.873
10.4616	0.875
10.5018	0.875
10.5419	0.875
10.582	0.875
10.6222	0.875
10.6623	0.875
10.7024	0.878
10.7426	0.877
10.7827	0.877
10.8228	0.878
10.863	0.878
10.9031	0.877
10.9433	0.877
10.9834	0.88
11.0235	0.878
11.0637	0.877
11.1038	0.868
11.1439	0.867
11.1841	0.847
11.2242	0.782
11.2643	0.734
11.3045	0.75
11.3446	0.704
11.3848	0.707
11.4249	0.774
11.465	0.81
11.5052	0.83
11.5453	0.837
11.5854	0.837
11.6256	0.843
11.6657	0.845
11.7058	0.84
11.746	0.835
11.7861	0.827
11.8263	0.822
11.8664	0.812
11.9065	0.795
11.9467	0.767
11.9868	0.739
12.0269	0.7
12.0671	0.666
12.1072	0.627
12.1473	0.598
12.1875	0.588
12.2276	0.601
12.2678	0.637
12.3079	0.689
12.348	0.715
12.3882	0.749
12.4283	0.769
12.4684	0.785
12.5086	0.794
12.5487	0.802
12.5888	0.808
12.629	0.799
12.6691	0.72
12.7093	0.647
12.7494	0.624
12.7895	0.727
12.8297	0.779
12.8698	0.797
12.9099	0.805
12.9501	0.808
12.9902	0.812
13.0303	0.815
13.0705	0.817
13.1106	0.818
13.1508	0.817
13.1909	0.818
13.231	0.813
13.2712	0.808
13.3113	0.808
13.3514	0.805
13.3916	0.803
13.4317	0.802
13.4718	0.799
13.512	0.794
13.5521	0.787
13.5923	0.782
13.6324	0.779
13.6725	0.77
13.7127	0.767
13.7528	0.757
13.7929	0.755
13.8331	0.745
13.8732	0.74
13.9133	0.745
13.9535	0.747
13.9936	0.744
14.0338	0.74
14.0739	0.739
14.114	0.727
14.1542	0.72
14.1943	0.712
14.2344	0.697
14.2746	0.686
14.3147	0.667
14.3548	0.656
14.395	0.642
14.4351	0.602
14.4753	0.569
14.5154	0.531
14.5555	0.496
14.5957	0.461
14.6358	0.446
14.6759	0.44
14.7161	0.456
14.7562	0.493
14.7963	0.521
14.8365	0.543
14.8766	0.558
14.9168	0.563
14.9569	0.566
14.997	0.571
15.0372	0.569
15.0773	0.566
15.1174	0.558
15.1576	0.549
15.1977	0.543
15.2378	0.536
15.278	0.528
15.3181	0.524
15.3582	0.519
15.3984	0.514
15.4385	0.503
15.4787	0.495
15.5188	0.488
15.5589	0.481
15.5991	0.473
15.6392	0.466
15.6793	0.456
15.7195	0.451
15.7596	0.446
15.7997	0.443
15.8399	0.436
15.88	0.428
