Infrared Spectrum: Di-(2-ethylhexyl)fumarate
Formula: C20 H36 O4
CAS: 141-02-6
State: SOLUTION (10% CCl4 FOR 2.7-7.5, 10% CS2 FOR 7.5-26 MICRON) VS SOLVENT
Class: COBLENTZ III
Instrument: DOW KBr FOREPRISM-GRATING
Instrument parameters: BLAZED AT 3.5, 12.0, 20.0 MICRON AND CHANGED AT 5.0, 7.5, 14.9 MICRON
Sampling: TRANSMISSION
Path length: 0.011 CM, 0.011 CM
Resolution: 2
Origin: DOW CHEMICAL COMPANY
1/CM	TRANSMITTANCE
3796	0.859
3787	0.8598
3778	0.861
3769	0.8623
3760	0.8639
3751	0.8646
3742	0.8654
3733	0.8663
3724	0.8671
3715	0.8677
3706	0.8682
3697	0.8684
3688	0.8685
3679	0.8685
3670	0.8683
3661	0.8678
3652	0.8664
3643	0.8644
3634	0.8621
3625	0.8603
3616	0.86
3607	0.8608
3598	0.8628
3589	0.8656
3580	0.8683
3571	0.8723
3562	0.8748
3553	0.8752
3544	0.8748
3535	0.8743
3526	0.8737
3517	0.8739
3508	0.8773
3499	0.8805
3490	0.8831
3481	0.8844
3472	0.885
3463	0.8849
3454	0.8835
3445	0.8789
3436	0.8631
3427	0.8421
3418	0.8421
3409	0.8605
3400	0.8744
3391	0.8818
3382	0.8831
3373	0.8823
3364	0.8818
3355	0.8818
3346	0.8818
3337	0.8816
3328	0.8813
3319	0.8811
3310	0.881
3301	0.8808
3292	0.8796
3283	0.8773
3274	0.8755
3265	0.8756
3256	0.8759
3247	0.8761
3238	0.8764
3229	0.8765
3220	0.8759
3211	0.8744
3202	0.8727
3193	0.8702
3184	0.8675
3175	0.8655
3166	0.8643
3157	0.864
3148	0.8642
3139	0.8639
3130	0.8628
3121	0.8608
3112	0.8587
3103	0.8555
3094	0.8503
3085	0.8397
3076	0.8266
3067	0.8187
3058	0.8188
3049	0.8171
3040	0.8131
3031	0.8051
3022	0.7896
3013	0.7671
3004	0.7125
2995	0.5223
2986	0.3098
2977	0.1022
2968	0.0199
2959	0.0187
2950	0.0553
2941	0.0624
2932	0.0265
2923	0.0287
2914	0.0936
2905	0.1525
2896	0.2115
2887	0.2643
2878	0.093
2869	0.155
2860	0.1059
2851	0.3862
2842	0.5628
2833	0.6245
2824	0.6807
2815	0.7286
2806	0.7572
2797	0.7776
2788	0.794
2779	0.8046
2770	0.8126
2761	0.8184
2752	0.8212
2743	0.8206
2734	0.8132
2725	0.8111
2716	0.8172
2707	0.8234
2698	0.8288
2689	0.8333
2680	0.8358
2671	0.8367
2662	0.8353
2653	0.8386
2644	0.8424
2635	0.8457
2626	0.8489
2617	0.849
2608	0.8489
2599	0.8483
2590	0.8489
2581	0.851
2572	0.8544
2563	0.8567
2554	0.8588
2545	0.8601
2536	0.8607
2527	0.8614
2518	0.8631
2509	0.8647
2500	0.8664
2491	0.8678
2482	0.8693
2473	0.8706
2464	0.872
2455	0.8733
2446	0.8742
2437	0.8748
2428	0.8753
2419	0.8756
2410	0.8762
2401	0.8762
2392	0.8754
2383	0.8748
2374	0.8748
2365	0.8743
2356	0.874
2347	0.8739
2338	0.8749
2329	0.8756
2320	0.8747
2311	0.8708
2302	0.8656
2293	0.8662
2284	0.8675
2275	0.8689
2266	0.8702
2257	0.8714
2248	0.8727
2239	0.8739
2230	0.8755
2221	0.8775
2212	0.8797
2203	0.8809
2194	0.8803
2185	0.8794
2176	0.8866
2167	0.8811
2158	0.8774
2149	0.8771
2140	0.8771
2131	0.8775
2122	0.8788
2113	0.8803
2104	0.8818
2095	0.8836
2086	0.8847
2077	0.8853
2068	0.886
2059	0.8856
2050	0.8848
2041	0.8832
2032	0.8831
2023	0.8827
2014	0.8843
2005	0.8821
1996	0.8806
1987	0.8796
1978	0.8794
1969	0.8792
1960	0.8787
1951	0.8778
1942	0.8763
1933	0.8735
1924	0.8725
1915	0.8706
1906	0.8686
1897	0.867
1888	0.866
1879	0.8664
1870	0.8651
1861	0.8549
1852	0.8563
1843	0.86
1834	0.8613
1825	0.8591
1816	0.8551
1807	0.8485
1798	0.8371
1789	0.8232
1780	0.8055
1771	0.78
1762	0.7567
1753	0.7075
1744	0.4894
1735	0.1261
1726	0.0078
1717	0.0064
1708	0.2265
1699	0.4748
1690	0.5766
1681	0.6153
1672	0.7019
1663	0.709
1654	0.6992
1645	0.5024
1636	0.6954
1627	0.7925
1618	0.8191
1609	0.8348
1600	0.8463
1591	0.8525
1582	0.8556
1573	0.856
1564	0.8549
1555	0.8557
1546	0.8548
1537	0.8508
1528	0.8443
1519	0.8361
1510	0.8241
1501	0.8078
1492	0.7817
1483	0.7043
1474	0.3473
1465	0.1679
1456	0.362
1447	0.519
1438	0.669
1429	0.7153
1420	0.7143
1411	0.7075
1402	0.6499
1393	0.4239
1384	0.2895
1375	0.5239
1366	0.5879
1357	0.5842
1348	0.6042
1339	0.5306
1330	0.5802
1321	0.539
1312	0.2684
1303	0.0886
1294	0.0272
1285	0.0397
1276	0.1552
1267	0.1218
1258	0.0561
1249	0.0808
1240	0.2315
1231	0.4589
1222	0.2372
1213	0.4593
1204	0.5607
1195	0.5952
1186	0.6085
1177	0.2895
1168	0.1496
1159	0.1507
1150	0.0338
1141	0.2115
1132	0.5579
1123	0.6508
1114	0.6851
1105	0.7314
1096	0.7828
1087	0.7857
1078	0.7474
1069	0.7519
1060	0.7525
1051	0.7474
1042	0.6401
1033	0.4335
1024	0.3325
1015	0.3028
1006	0.3629
997	0.4583
988	0.4903
979	0.1272
970	0.3727
961	0.6525
952	0.7218
943	0.7503
934	0.7465
925	0.7453
916	0.744
907	0.7383
898	0.7571
889	0.7747
880	0.8067
871	0.8314
862	0.8462
853	0.8545
844	0.874
835	0.8683
826	0.8398
817	0.8425
808	0.8403
799	0.8294
790	0.7643
781	0.6818
772	0.5016
763	0.7415
754	0.8287
745	0.8396
736	0.8328
727	0.7487
718	0.8625
709	0.8798
700	0.8858
691	0.8875
682	0.8773
673	0.8228
664	0.7337
655	0.7954
646	0.8214
637	0.8527
628	0.8648
619	0.8682
610	0.8709
601	0.8731
592	0.8731
583	0.8714
574	0.8661
565	0.861
556	0.8605
547	0.861
538	0.8537
529	0.848
520	0.8471
511	0.8465
502	0.8414
493	0.8295
484	0.8246
475	0.8293
466	0.8364
457	0.8397
448	0.8402
439	0.8401
430	0.8402
421	0.841
412	0.8427
403	0.8457
394	0.8455
