Infrared Spectrum: 2-PROPENOIC ACID, 2-METHYL-, DODECYL ESTER
Formula: C16 H30 O2
CAS: 142-90-5
State: SOLUTION (5% IN CCl4 FOR 3800-1300, 5% IN CS2 FOR 1300-650, AND 5% IN CCl4 FOR 650-240 CM^-^1) VERSUS SOLVENT
Class: COBLENTZ II
Instrument: PERKIN-ELMER 521 (GRATING)
Instrument parameters: GRATING CHANGES AT 2000, 630 CM^-^1
Sampling: TRANSMISSION
Path length: 0.010, 0.010, AND 0.020 CM (CsBr CELL)
Resolution: 4
Origin: DOW CORNING CORP.
1/CM	TRANSMITTANCE
232.454	0.835
241.407	0.849
250.36	0.853
259.313	0.851
268.265	0.849
277.218	0.846
286.171	0.841
295.124	0.842
304.077	0.844
313.03	0.844
321.983	0.849
330.935	0.846
339.888	0.839
348.841	0.832
357.794	0.832
366.747	0.834
375.7	0.839
384.652	0.827
393.605	0.844
402.558	0.853
411.511	0.86
420.464	0.862
429.417	0.856
438.37	0.848
447.322	0.844
456.275	0.837
465.228	0.837
474.181	0.841
483.134	0.844
492.087	0.848
501.04	0.848
509.992	0.844
518.945	0.837
527.898	0.839
536.851	0.841
545.804	0.844
554.757	0.849
563.71	0.855
572.662	0.858
581.615	0.856
590.568	0.834
599.521	0.835
608.474	0.834
617.427	0.835
626.379	0.834
635.332	0.825
644.285	0.781
653.238	0.774
662.191	0.804
671.144	0.844
680.097	0.853
689.049	0.855
698.002	0.851
706.955	0.844
715.908	0.7921
724.861	0.792
733.814	0.834
742.767	0.848
751.719	0.851
760.672	0.853
769.625	0.853
778.578	0.851
787.531	0.848
796.484	0.839
805.437	0.795
814.389	0.6309
823.342	0.821
832.295	0.841
841.248	0.844
850.201	0.842
859.154	0.839
868.106	0.848
877.059	0.846
886.012	0.841
894.965	0.839
903.918	0.835
912.871	0.825
921.824	0.792
930.776	0.6781
939.729	0.41
948.682	0.759
957.635	0.804
966.588	0.797
975.541	0.785
984.494	0.79
993.446	0.785
1002.4	0.762
1011.35	0.668
1020.3	0.759
1029.26	0.771
1038.21	0.78
1047.16	0.787
1056.12	0.795
1065.07	0.797
1074.02	0.815
1082.97	0.827
1091.93	0.832
1100.88	0.834
1109.83	0.816
1118.79	0.799
1127.74	0.743
1136.69	0.677
1145.64	0.5061
1154.6	0.198
1163.55	0.102
1172.5	0.2069
1181.46	0.387
1190.41	0.5159
1199.36	0.6229
1208.31	0.719
1217.27	0.762
1226.22	0.776
1235.17	0.787
1244.13	0.78
1253.08	0.776
1262.03	0.762
1270.98	0.741
1279.94	0.706
1288.89	0.5652
1297.84	0.273
1306.8	0.588
1315.75	0.4652
1324.7	0.4109
1333.65	0.671
1342.61	0.776
1351.56	0.79
1360.51	0.788
1369.47	0.769
1378.42	0.691
1387.37	0.757
1396.32	0.764
1405.28	0.719
1414.23	0.778
1423.18	0.776
1432.14	0.7081
1441.09	0.659
1450.04	0.549
1458.99	0.507
1467.95	0.462
1476.9	0.715
1485.85	0.821
1494.81	0.846
1503.76	0.853
1512.71	0.863
1521.66	0.87
1530.62	0.87
1539.57	0.872
1548.52	0.876
1557.48	0.872
1566.43	0.87
1575.38	0.867
1584.33	0.863
1593.29	0.856
1602.24	0.848
1611.19	0.834
1620.15	0.799
1629.1	0.719
1638.05	0.5983
1647	0.7949
1655.96	0.837
1664.91	0.827
1673.86	0.813
1682.82	0.781
1691.77	0.762
1700.72	0.6961
1709.67	0.4781
1718.63	0.109
1727.58	0.1407
1736.53	0.6169
1745.49	0.767
1754.44	0.813
1763.39	0.832
1772.34	0.842
1781.3	0.848
1790.25	0.851
1799.2	0.853
1808.16	0.856
1817.11	0.858
1826.06	0.86
1835.01	0.865
1843.97	0.863
1852.92	0.862
1861.87	0.862
1870.83	0.855
1879.78	0.849
1888.73	0.853
1897.68	0.858
1906.64	0.858
1915.59	0.86
1924.54	0.862
1933.5	0.863
1942.45	0.867
1951.4	0.86
1960.35	0.863
1969.31	0.863
1978.26	0.862
1987.21	0.86
1996.17	0.869
2005.12	0.872
2014.07	0.87
2023.02	0.869
2031.98	0.867
2040.93	0.867
2049.88	0.867
2058.84	0.8699
2067.79	0.87
2076.74	0.869
2085.69	0.869
2094.65	0.8673
2103.6	0.867
2112.55	0.8634
2121.51	0.8606
2130.46	0.863
2139.41	0.862
2148.36	0.8605
2157.32	0.8623
2166.27	0.865
2175.22	0.862
2184.18	0.862
2193.13	0.862
2202.08	0.863
2211.03	0.862
2219.99	0.8607
2228.94	0.863
2237.89	0.863
2246.85	0.8648
2255.8	0.862
2264.75	0.8618
2273.7	0.86
2282.66	0.86
2291.61	0.86
2300.56	0.863
2309.52	0.863
2318.47	0.869
2327.42	0.864
2336.37	0.863
2345.33	0.865
2354.28	0.865
2363.23	0.869
2372.19	0.8623
2381.14	0.856
2390.09	0.856
2399.04	0.856
2408	0.856
2416.95	0.855
2425.9	0.855
2434.86	0.855
2443.81	0.855
2452.76	0.855
2461.71	0.853
2470.67	0.853
2479.62	0.853
2488.57	0.855
2497.53	0.853
2506.48	0.853
2515.43	0.8536
2524.38	0.853
2533.34	0.851
2542.29	0.8507
2551.24	0.851
2560.2	0.8508
2569.15	0.849
2578.1	0.849
2587.05	0.848
2596.01	0.8479
2604.96	0.842
2613.91	0.8421
2622.87	0.843
2631.82	0.842
2640.77	0.841
2649.72	0.842
2658.68	0.8417
2667.63	0.837
2676.58	0.835
2685.54	0.837
2694.49	0.837
2703.44	0.8419
2712.39	0.8416
2721.35	0.839
2730.3	0.835
2739.25	0.834
2748.21	0.834
2757.16	0.8324
2766.11	0.828
2775.06	0.825
2784.02	0.8195
2792.97	0.8115
2801.92	0.8033
2810.88	0.7826
2819.83	0.7599
2828.78	0.7285
2837.73	0.6804
2846.69	0.4625
2855.64	0.2001
2864.59	0.2839
2873.55	0.4205
2882.5	0.5139
2891.45	0.4787
2900.4	0.3374
2909.36	0.2696
2918.31	0.1469
2927.26	0.0626
2936.22	0.0351
2945.17	0.1883
2954.12	0.2279
2963.07	0.2606
2972.03	0.4063
2980.98	0.5622
2989.93	0.6457
2998.89	0.72
3007.84	0.7748
3016.79	0.7828
3025.74	0.8028
3034.7	0.8156
3043.65	0.82
3052.6	0.8247
3061.56	0.833
3070.51	0.841
3079.46	0.842
3088.41	0.844
3097.37	0.8404
3106.32	0.8405
3115.27	0.8468
3124.23	0.8525
3133.18	0.853
3142.13	0.853
3151.08	0.855
3160.04	0.855
3168.99	0.855
3177.94	0.856
3186.9	0.856
3195.85	0.856
3204.8	0.856
3213.75	0.858
3222.71	0.8582
3231.66	0.86
3240.61	0.86
3249.57	0.86
3258.52	0.862
3267.47	0.863
3276.42	0.865
3285.38	0.865
3294.33	0.8669
3303.28	0.8681
3312.23	0.865
3321.19	0.865
3330.14	0.865
3339.09	0.8642
3348.05	0.8621
3357	0.863
3365.95	0.863
3374.9	0.867
3383.86	0.8673
3392.81	0.867
3401.76	0.8654
3410.72	0.856
3419.67	0.8552
3428.62	0.8553
3437.57	0.8595
3446.53	0.867
3455.48	0.869
3464.43	0.8692
3473.39	0.869
3482.34	0.87
3491.29	0.8693
3500.24	0.8692
3509.2	0.87
3518.15	0.87
3527.1	0.87
3536.06	0.87
3545.01	0.87
3553.96	0.869
3562.91	0.8695
3571.87	0.8719
3580.82	0.874
3589.77	0.876
3598.73	0.871
3607.68	0.869
3616.63	0.87
3625.58	0.8719
3634.54	0.874
3643.49	0.8741
3652.44	0.869
3661.4	0.8699
3670.35	0.8728
3679.3	0.8757
3688.25	0.872
3697.21	0.872
3706.16	0.874
3715.11	0.872
3724.07	0.8746
3733.02	0.8786
3741.97	0.881
3750.92	0.8795
3759.88	0.8755
3768.83	0.872
3777.78	0.872
3786.74	0.872
