Infrared Spectrum: ACETIC ACID, n-HEXYL ESTER
Formula: C8 H16 O2
CAS: 142-92-7
State: SOLUTION (10% IN CCl4 FOR 3800-1300, 10% IN CS2 FOR 1300-650, AND 10% CCl4 FOR 650-240 CM^-^1) VERSUS SOLVENT
Class: COBLENTZ III
Instrument: PERKIN-ELMER 521 (GRATING)
Instrument parameters: FILTERS AT 3150, 2500, 2000, 1150, 700, 410; GRATING CHANGES AT 2000, 630 CM^-^1
Sampling: TRANSMISSION
Path length: 0.012, 0.012, AND 0.010 CM (CsBr CELL)
Resolution: 4
Origin: DOW CORNING CORP.
1/CM	TRANSMITTANCE
241.357	0.733
251.204	0.738
261.051	0.747
270.898	0.753
280.744	0.761
290.591	0.761
300.438	0.765
310.285	0.77
320.132	0.792
329.979	0.802
339.825	0.827
349.672	0.852
359.519	0.849
369.366	0.841
379.213	0.833
389.06	0.817
398.907	0.802
408.753	0.788
418.6	0.792
428.447	0.798
438.294	0.797
448.141	0.785
457.988	0.773
467.835	0.796
477.681	0.802
487.528	0.802
497.375	0.805
507.222	0.8
517.069	0.792
526.916	0.809
536.762	0.812
546.609	0.815
556.456	0.82
566.303	0.823
576.15	0.817
585.997	0.808
595.844	0.774
605.69	0.541
615.537	0.757
625.384	0.746
635.231	0.671
645.078	0.73
654.925	0.798
664.771	0.827
674.618	0.863
684.465	0.869
694.312	0.867
704.159	0.861
714.006	0.831
723.853	0.707
733.699	0.77
743.546	0.831
753.393	0.824
763.24	0.828
773.087	0.845
782.934	0.857
792.781	0.824
802.627	0.797
812.474	0.794
822.321	0.821
832.168	0.804
842.015	0.766
851.862	0.773
861.708	0.774
871.555	0.761
881.402	0.721
891.249	0.62
901.096	0.632
910.943	0.785
920.79	0.788
930.636	0.727
940.483	0.638
950.33	0.684
960.177	0.709
970.024	0.672
979.871	0.654
989.717	0.684
999.564	0.648
1009.41	0.509
1019.26	0.3149
1029.1	0.166
1038.95	0.148
1048.8	0.166
1058.65	0.225
1068.49	0.332
1078.34	0.436
1088.19	0.557
1098.03	0.663
1107.88	0.666
1117.73	0.63
1127.57	0.644
1137.42	0.71
1147.27	0.714
1157.11	0.745
1166.96	0.743
1176.81	0.719
1186.65	0.664
1196.5	0.548
1206.35	0.372
1216.2	0.178
1226.04	0.002
1235.89	0.002
1245.74	0.002
1255.58	0.063
1265.43	0.156
1275.28	0.284
1285.12	0.416
1294.97	0.505
1304.82	0.565
1314.66	0.659
1324.51	0.709
1334.36	0.727
1344.2	0.698
1354.05	0.565
1363.9	0.0879
1373.74	0.2391
1383.59	0.316
1393.44	0.3651
1403.29	0.611
1413.13	0.627
1422.98	0.592
1432.83	0.49
1442.67	0.473
1452.52	0.373
1462.37	0.289
1472.21	0.323
1482.06	0.648
1491.91	0.731
1501.75	0.76
1511.6	0.786
1521.45	0.796
1531.29	0.793
1541.14	0.794
1550.99	0.8
1560.83	0.801
1570.68	0.808
1580.53	0.808
1590.38	0.823
1600.22	0.823
1610.07	0.823
1619.92	0.821
1629.76	0.816
1639.61	0.8
1649.46	0.764
1659.3	0.756
1669.15	0.752
1679	0.727
1688.84	0.678
1698.69	0.592
1708.54	0.548
1718.38	0.4269
1728.23	0.1658
1738.08	0
1747.92	0
1757.77	0.095
1767.62	0.398
1777.47	0.579
1787.31	0.678
1797.16	0.729
1807.01	0.774
1816.85	0.805
1826.7	0.824
1836.55	0.829
1846.39	0.845
1856.24	0.849
1866.09	0.851
1875.93	0.856
1885.78	0.855
1895.63	0.861
1905.47	0.863
1915.32	0.869
1925.17	0.865
1935.01	0.868
1944.86	0.869
1954.71	0.872
1964.56	0.871
1974.4	0.869
1984.25	0.873
1994.1	0.875
2003.94	0.871
2013.79	0.868
2023.64	0.872
2033.48	0.869
2043.33	0.869
2053.18	0.872
2063.02	0.8681
2072.87	0.8643
2082.72	0.8639
2092.56	0.8708
2102.41	0.8671
2112.26	0.865
2122.11	0.864
2131.95	0.859
2141.8	0.8627
2151.65	0.863
2161.49	0.869
2171.34	0.864
2181.19	0.8678
2191.03	0.869
2200.88	0.872
2210.73	0.871
2220.57	0.872
2230.42	0.872
2240.27	0.8675
2250.11	0.868
2259.96	0.8673
2269.81	0.869
2279.65	0.869
2289.5	0.869
2299.35	0.865
2309.2	0.868
2319.04	0.865
2328.89	0.8683
2338.74	0.8699
2348.58	0.8684
2358.43	0.871
2368.28	0.869
2378.12	0.8674
2387.97	0.8659
2397.82	0.8646
2407.66	0.864
2417.51	0.865
2427.36	0.865
2437.2	0.8645
2447.05	0.862
2456.9	0.856
2466.74	0.851
2476.59	0.853
2486.44	0.8555
2496.29	0.8581
2506.13	0.8594
2515.98	0.861
2525.83	0.86
2535.67	0.8594
2545.52	0.861
2555.37	0.863
2565.21	0.8556
2575.06	0.8516
2584.91	0.849
2594.75	0.8447
2604.6	0.844
2614.45	0.8456
2624.29	0.8447
2634.14	0.841
2643.99	0.8397
2653.83	0.8357
2663.68	0.8247
2673.53	0.823
2683.38	0.8238
2693.22	0.825
2703.07	0.823
2712.92	0.8192
2722.76	0.8074
2732.61	0.806
2742.46	0.8103
2752.3	0.815
2762.15	0.813
2772	0.805
2781.84	0.7966
2791.69	0.782
2801.54	0.7714
2811.38	0.7484
2821.23	0.7094
2831.08	0.6491
2840.93	0.5641
2850.77	0.3154
2860.62	0.1129
2870.47	0.163
2880.31	0.1509
2890.16	0.3319
2900.01	0.2391
2909.85	0.1601
2919.7	0.0615
2929.55	0.0142
2939.39	0.0236
2949.24	0.0411
2959.09	0.0092
2968.93	0.0409
2978.78	0.1546
2988.63	0.3751
2998.47	0.5364
3008.32	0.6446
3018.17	0.6859
3028.02	0.7086
3037.86	0.7403
3047.71	0.763
3057.56	0.7756
3067.4	0.7976
3077.25	0.8096
3087.1	0.8166
3096.94	0.8226
3106.79	0.829
3116.64	0.8318
3126.48	0.835
3136.33	0.836
3146.18	0.836
3156.02	0.8397
3165.87	0.843
3175.72	0.845
3185.56	0.848
3195.41	0.852
3205.26	0.859
3215.11	0.8606
3224.95	0.864
3234.8	0.869
3244.65	0.871
3254.49	0.872
3264.34	0.873
3274.19	0.872
3284.03	0.872
3293.88	0.8714
3303.73	0.871
3313.57	0.871
3323.42	0.872
3333.27	0.871
3343.11	0.87
3352.96	0.87
3362.81	0.869
3372.65	0.868
3382.5	0.868
3392.35	0.8685
3402.2	0.871
3412.04	0.871
3421.89	0.867
3431.74	0.8606
3441.58	0.8486
3451.43	0.8338
3461.28	0.8218
3471.12	0.8389
3480.97	0.8611
3490.82	0.869
3500.66	0.873
3510.51	0.873
3520.36	0.873
3530.2	0.873
3540.05	0.8766
3549.9	0.8757
3559.75	0.8783
3569.59	0.8805
3579.44	0.8862
3589.29	0.8825
3599.13	0.8853
3608.98	0.882
3618.83	0.884
3628.67	0.882
3638.52	0.8805
3648.37	0.88
3658.21	0.8805
3668.06	0.8799
3677.91	0.876
3687.75	0.875
3697.6	0.8791
3707.45	0.8831
3717.29	0.8862
3727.14	0.8898
3736.99	0.8901
3746.84	0.8919
3756.68	0.8901
3766.53	0.888
3776.38	0.888
3786.22	0.89
