Infrared Spectrum: 2-PYRIDINOL
Formula: C5 H5 N O
CAS: 142-08-5
State: SOLID (1.0% IN KBr PELLET)
Class: COBLENTZ
Instrument: Not specified, most likely a prism, grating, or hybrid spectrometer.
Sampling: TRANSMISSION
Path length: 0.0355 CM THICK
Resolution: 4
Origin: ANDERSON PHYSICAL LABORATORY
1/CM	TRANSMITTANCE
668.645	0.255
677.077	0.327
685.509	0.354
693.942	0.396
702.374	0.433
710.806	0.3711
719.238	0.345
727.671	0.359
736.103	0.39
744.535	0.29
752.967	0.451
761.4	0.58
769.832	0.566
778.264	0.481
786.696	0.2811
795.129	0.2
803.561	0.3739
811.993	0.67
820.425	0.712
828.857	0.723
837.29	0.729
845.722	0.733
854.154	0.735
862.586	0.732
871.019	0.732
879.451	0.723
887.883	0.703
896.315	0.685
904.748	0.703
913.18	0.714
921.612	0.688
930.044	0.651
938.477	0.606
946.909	0.4791
955.341	0.412
963.773	0.5979
972.206	0.601
980.638	0.55
989.07	0.41
997.502	0.282
1005.93	0.587
1014.37	0.5411
1022.8	0.422
1031.23	0.4849
1039.66	0.634
1048.1	0.47
1056.53	0.463
1064.96	0.612
1073.39	0.559
1081.82	0.455
1090.26	0.499
1098.69	0.557
1107.12	0.583
1115.55	0.598
1123.99	0.64
1132.42	0.636
1140.85	0.603
1149.28	0.46
1157.71	0.476
1166.15	0.431
1174.58	0.497
1183.01	0.6629
1191.44	0.744
1199.88	0.759
1208.31	0.772
1216.74	0.777
1225.17	0.768
1233.6	0.717
1242.04	0.679
1250.47	0.709
1258.9	0.712
1267.33	0.681
1275.77	0.619
1284.2	0.687
1292.63	0.694
1301.06	0.703
1309.49	0.735
1317.93	0.721
1326.36	0.708
1334.79	0.639
1343.22	0.574
1351.66	0.6449
1360.09	0.678
1368.52	0.687
1376.95	0.679
1385.39	0.66
1393.82	0.621
1402.25	0.581
1410.68	0.554
1419.11	0.529
1427.55	0.401
1435.98	0.2032
1444.41	0.193
1452.84	0.5049
1461.28	0.409
1469.71	0.218
1478.14	0.3569
1486.57	0.6189
1495	0.735
1503.44	0.709
1511.87	0.667
1520.3	0.628
1528.73	0.578
1537.17	0.524
1545.6	0.403
1554.03	0.341
1562.46	0.175
1570.89	0.144
1579.33	0.189
1587.76	0.324
1596.19	0.488
1604.62	0.637
1613.06	0.5801
1621.49	0.418
1629.92	0.433
1638.35	0.487
1646.78	0.6489
1655.22	0.76
1663.65	0.763
1672.08	0.763
1680.51	0.757
1688.95	0.756
1697.38	0.766
1705.81	0.762
1714.24	0.759
1722.67	0.757
1731.11	0.751
1739.54	0.751
1747.97	0.748
1756.4	0.738
1764.84	0.736
1773.27	0.735
1781.7	0.73
1790.13	0.735
1798.56	0.738
1807	0.733
1815.43	0.724
1823.86	0.723
1832.29	0.718
1840.73	0.709
1849.16	0.702
1857.59	0.693
1866.02	0.7
1874.45	0.702
1882.89	0.697
1891.32	0.694
1899.75	0.7
1908.18	0.7
1916.62	0.696
1925.05	0.684
1933.48	0.678
1941.91	0.678
1950.34	0.675
1958.78	0.67
1967.21	0.66
1975.64	0.664
1984.07	0.663
1992.51	0.672
2000.94	0.6735
2009.37	0.676
2017.8	0.676
2026.24	0.675
2034.67	0.675
2043.1	0.674
2051.53	0.672
2059.96	0.667
2068.4	0.6668
2076.83	0.6635
2085.26	0.6602
2093.69	0.658
2102.13	0.6547
2110.56	0.653
2118.99	0.6512
2127.42	0.6489
2135.85	0.6412
2144.29	0.6335
2152.72	0.6315
2161.15	0.631
2169.58	0.631
2178.02	0.628
2186.45	0.627
2194.88	0.627
2203.31	0.6247
2211.74	0.6215
2220.18	0.619
2228.61	0.6119
2237.04	0.6084
2245.47	0.607
2253.91	0.607
2262.34	0.609
2270.77	0.609
2279.2	0.61
2287.63	0.61
2296.07	0.612
2304.5	0.6136
2312.93	0.6155
2321.36	0.616
2329.8	0.615
2338.23	0.6111
2346.66	0.609
2355.09	0.6062
2363.52	0.604
2371.96	0.6024
2380.39	0.6004
2388.82	0.5956
2397.25	0.593
2405.69	0.592
2414.12	0.59
2422.55	0.589
2430.98	0.587
2439.41	0.5854
2447.85	0.5783
2456.28	0.574
2464.71	0.5709
2473.14	0.568
2481.58	0.568
2490.01	0.5663
2498.44	0.565
2506.87	0.5627
2515.3	0.559
2523.74	0.559
2532.17	0.556
2540.6	0.5537
2549.03	0.551
2557.47	0.55
2565.9	0.548
2574.33	0.5463
2582.76	0.545
2591.19	0.5442
2599.63	0.544
2608.06	0.542
2616.49	0.542
2624.92	0.542
2633.36	0.541
2641.79	0.5386
2650.22	0.5354
2658.65	0.535
2667.08	0.535
2675.52	0.535
2683.95	0.5302
2692.38	0.5273
2700.81	0.5258
2709.25	0.524
2717.68	0.5204
2726.11	0.5153
2734.54	0.5108
2742.98	0.5086
2751.41	0.506
2759.84	0.5051
2768.27	0.5048
2776.7	0.4983
2785.14	0.4873
2793.57	0.4784
2802	0.472
2810.43	0.4696
2818.87	0.4651
2827.3	0.4631
2835.73	0.4597
2844.16	0.4562
2852.59	0.4544
2861.03	0.454
2869.46	0.4507
2877.89	0.449
2886.32	0.448
2894.76	0.4451
2903.19	0.4429
2911.62	0.4358
2920.05	0.4291
2928.48	0.4271
2936.92	0.4172
2945.35	0.4108
2953.78	0.4044
2962.21	0.3962
2970.65	0.395
2979.08	0.3942
2987.51	0.3923
2995.94	0.3891
3004.37	0.3846
3012.81	0.3725
3021.24	0.3573
3029.67	0.3425
3038.1	0.341
3046.54	0.3428
3054.97	0.349
3063.4	0.3624
3071.83	0.369
3080.26	0.3642
3088.7	0.3573
3097.13	0.3531
3105.56	0.3451
3113.99	0.3189
3122.43	0.2971
3130.86	0.2365
3139.29	0.2158
3147.72	0.2163
3156.15	0.2341
3164.59	0.2661
3173.02	0.2881
3181.45	0.3016
3189.88	0.3117
3198.32	0.3237
3206.75	0.3264
3215.18	0.3167
3223.61	0.3072
3232.04	0.2944
3240.48	0.2848
3248.91	0.2845
3257.34	0.2915
3265.77	0.2969
3274.21	0.296
3282.64	0.2921
3291.07	0.2828
3299.5	0.2702
3307.93	0.2358
3316.37	0.2159
3324.8	0.1894
3333.23	0.1721
3341.66	0.1748
3350.1	0.1862
3358.53	0.2087
3366.96	0.2238
3375.39	0.2502
3383.83	0.2832
3392.26	0.3408
3400.69	0.3767
3409.12	0.3904
3417.55	0.3934
3425.99	0.3975
3434.42	0.398
3442.85	0.4
3451.28	0.4
3459.72	0.4
3468.15	0.401
3476.58	0.403
3485.01	0.404
3493.44	0.4067
3501.88	0.407
3510.31	0.4112
3518.74	0.416
3527.17	0.418
3535.61	0.418
3544.04	0.4195
3552.47	0.4235
3560.9	0.4265
3569.33	0.43
3577.77	0.433
3586.2	0.434
3594.63	0.434
3603.06	0.434
3611.5	0.434
3619.93	0.434
3628.36	0.434
3636.79	0.434
3645.22	0.434
3653.66	0.433
3662.09	0.4315
3670.52	0.43
3678.95	0.428
3687.39	0.428
3695.82	0.4272
3704.25	0.425
3712.68	0.424
3721.11	0.422
3729.55	0.421
3737.98	0.418
3746.41	0.416
3754.84	0.415
3763.28	0.4122
3771.71	0.412
3780.14	0.412
3788.57	0.412
3797	0.412
3805.44	0.412
3813.87	0.4114
3822.3	0.41
3830.73	0.4092
3839.17	0.4089
3847.6	0.4054
3856.03	0.4035
3864.46	0.4014
3872.89	0.401
3881.33	0.3994
3889.76	0.396
3898.19	0.3952
3906.62	0.393
3915.06	0.393
3923.49	0.3924
3931.92	0.392
3940.35	0.39
3948.78	0.39
3957.22	0.39
3965.65	0.389
3974.08	0.389
