Infrared Spectrum: n-Heptane
Formula: C7 H16
CAS: 142-82-5
State: GAS (30 mmHg, N2 ADDED, TOTAL PRESSURE 600 mmHg)
Class: COBLENTZ
Instrument: DOW KBr FOREPRISM-GRATING
Instrument parameters: GRATING CHANGED AT 5.0, 7.5, 15.0 MICRON
Sampling: TRANSMISSION
Path length: 5 CM
Resolution: 2
Origin: DOW CHEMICAL COMPANY
1/CM	TRANSMITTANCE
456	0.8632
465	0.8601
474	0.859
483	0.8589
492	0.8576
501	0.8565
510	0.8556
519	0.8556
528	0.8564
537	0.8583
546	0.8604
555	0.863
564	0.8654
573	0.8665
582	0.8693
591	0.8714
600	0.8734
609	0.8742
618	0.8741
627	0.8741
636	0.8741
645	0.8747
654	0.8747
663	0.874
672	0.8825
681	0.8725
690	0.8702
699	0.8638
708	0.8483
717	0.8094
726	0.788
735	0.8155
744	0.8369
753	0.8472
762	0.8517
771	0.8488
780	0.8459
789	0.8573
798	0.8743
807	0.8777
816	0.8765
825	0.875
834	0.874
843	0.8745
852	0.8757
861	0.8722
870	0.8668
879	0.864
888	0.8623
897	0.8567
906	0.857
915	0.867
924	0.8655
933	0.8579
942	0.8597
951	0.8682
960	0.8758
969	0.8809
978	0.8856
987	0.886
996	0.8848
1005	0.8832
1014	0.8814
1023	0.8818
1032	0.886
1041	0.891
1050	0.8899
1059	0.8848
1068	0.8754
1077	0.8643
1086	0.8676
1095	0.8801
1104	0.8894
1113	0.8947
1122	0.8943
1131	0.8833
1140	0.8718
1149	0.8754
1158	0.8871
1167	0.891
1176	0.8901
1185	0.8893
1194	0.8954
1203	0.888
1212	0.8828
1221	0.8838
1230	0.887
1239	0.8725
1248	0.8672
1257	0.8673
1266	0.864
1275	0.8575
1284	0.8491
1293	0.8462
1302	0.8411
1311	0.8312
1320	0.843
1329	0.8521
1338	0.8351
1347	0.7969
1356	0.8064
1365	0.8212
1374	0.7902
1383	0.6879
1392	0.6758
1401	0.7686
1410	0.8252
1419	0.8366
1428	0.8303
1437	0.8039
1446	0.7321
1455	0.6178
1464	0.5069
1473	0.4731
1482	0.5958
1491	0.7456
1500	0.8036
1509	0.8352
1518	0.844
1527	0.8475
1536	0.8509
1545	0.854
1554	0.857
1563	0.8611
1572	0.8605
1581	0.8626
1590	0.8633
1599	0.8632
1608	0.8632
1617	0.8643
1626	0.8652
1635	0.865
1644	0.865
1653	0.8666
1662	0.8625
1671	0.8636
1680	0.864
1689	0.8642
1698	0.8624
1707	0.8642
1716	0.8667
1725	0.8675
1734	0.8658
1743	0.8671
1752	0.8647
1761	0.8636
1770	0.863
1779	0.8623
1788	0.862
1797	0.8624
1806	0.8627
1815	0.8631
1824	0.8636
1833	0.864
1842	0.8637
1851	0.863
1860	0.8624
1869	0.8617
1878	0.8616
1887	0.8614
1896	0.862
1905	0.863
1914	0.8642
1923	0.8649
1932	0.8625
1941	0.8628
1950	0.8628
1959	0.8623
1968	0.8621
1977	0.8624
1986	0.8629
1995	0.8635
2004	0.8625
2013	0.8617
2022	0.8603
2031	0.8588
2040	0.8574
2049	0.8583
2058	0.8591
2067	0.8599
2076	0.8607
2085	0.8615
2094	0.8621
2103	0.8625
2112	0.863
2121	0.8633
2130	0.8636
2139	0.8639
2148	0.8641
2157	0.8644
2166	0.8648
2175	0.8651
2184	0.8657
2193	0.8664
2202	0.8671
2211	0.8678
2220	0.8684
2229	0.8687
2238	0.8691
2247	0.8694
2256	0.8697
2265	0.87
2274	0.8704
2283	0.8708
2292	0.8716
2301	0.8724
2310	0.8745
2319	0.8783
2328	0.8836
2337	0.8834
2346	0.882
2355	0.8883
2364	0.8916
2373	0.883
2382	0.8691
2391	0.8659
2400	0.8655
2409	0.8661
2418	0.868
2427	0.8701
2436	0.8714
2445	0.8726
2454	0.8739
2463	0.8748
2472	0.8751
2481	0.8753
2490	0.8753
2499	0.8746
2508	0.874
2517	0.8732
2526	0.8714
2535	0.8695
2544	0.8677
2553	0.8654
2562	0.8631
2571	0.8601
2580	0.8571
2589	0.8544
2598	0.8529
2607	0.8528
2616	0.8527
2625	0.8524
2634	0.8514
2643	0.8503
2652	0.8478
2661	0.8423
2670	0.8349
2679	0.8372
2688	0.8435
2697	0.8478
2706	0.8489
2715	0.8432
2724	0.8319
2733	0.8195
2742	0.8169
2751	0.8305
2760	0.8375
2769	0.8372
2778	0.8307
2787	0.8181
2796	0.8038
2805	0.792
2814	0.7807
2823	0.7575
2832	0.7127
2841	0.5934
2850	0.4084
2859	0.1696
2868	0.0979
2877	0.0996
2886	0.1232
2895	0.2295
2904	0.2414
2913	0.1022
2922	0.0166
2931	0.0128
2940	0.0249
2949	0.0445
2958	0.0365
2967	0.0138
2976	0.0251
2985	0.2958
2994	0.68
3003	0.7435
3012	0.7685
3021	0.778
3030	0.7842
3039	0.7946
3048	0.8119
3057	0.8307
3066	0.8389
3075	0.8432
3084	0.8457
3093	0.8482
3102	0.8507
3111	0.8524
3120	0.8536
3129	0.8538
3138	0.8541
3147	0.853
3156	0.8518
3165	0.8525
3174	0.8532
3183	0.8527
3192	0.8526
3201	0.8543
3210	0.8593
3219	0.8652
3228	0.8703
3237	0.8738
3246	0.8765
3255	0.8785
3264	0.8801
3273	0.8808
3282	0.8812
3291	0.8816
3300	0.8819
3309	0.8821
3318	0.8823
3327	0.8824
3336	0.8825
3345	0.8825
3354	0.8824
3363	0.8823
3372	0.8822
3381	0.8822
3390	0.8822
3399	0.8822
3408	0.8825
3417	0.8828
3426	0.8832
3435	0.8834
3444	0.8835
3453	0.8836
3462	0.8839
3471	0.8846
3480	0.8854
3489	0.886
3498	0.8864
3507	0.8868
3516	0.887
3525	0.8866
3534	0.8862
3543	0.8857
3552	0.8849
3561	0.8841
3570	0.8834
3579	0.8827
3588	0.882
3597	0.8809
3606	0.8796
3615	0.8786
3624	0.8802
3633	0.8801
3642	0.8766
3651	0.8783
3660	0.8772
3669	0.8723
3678	0.8717
3687	0.8779
3696	0.8807
3705	0.8812
3714	0.8819
3723	0.8815
3732	0.881
3741	0.8797
3750	0.8788
3759	0.8798
3768	0.8814
3777	0.8828
3786	0.8806
