Infrared Spectrum: ANILINE HYDROCHLORIDE
Formula: C6 H8 N Cl
CAS: 142-04-1
State: SOLID (0.5% IN KBr PELLET)
Class: COBLENTZ
Instrument: Not specified, most likely a grating spectrometer.
Sampling: TRANSMISSION
Resolution: 4
Origin: STANDARD OIL OF OHIO
MICROMETERS	TRANSMITTANCE
2.012	0.832
2.0456	0.835
2.07919	0.839
2.11279	0.837
2.14638	0.83
2.17998	0.827
2.21357	0.825
2.24717	0.83
2.28076	0.835
2.31436	0.84
2.34795	0.846
2.38155	0.847
2.41515	0.849
2.44874	0.849
2.48234	0.842
2.51593	0.856
2.54953	0.862
2.58312	0.866
2.61672	0.869
2.65031	0.879
2.68391	0.881
2.71751	0.883
2.7511	0.869
2.7847	0.849
2.81829	0.798
2.85189	0.724
2.88548	0.659
2.91908	0.626
2.95267	0.614
2.98627	0.654
3.01986	0.693
3.05346	0.698
3.08706	0.646
3.12065	0.475
3.15425	0.39
3.18784	0.272
3.22144	0.184
3.25503	0.115
3.28863	0.076
3.32222	0.057
3.35582	0.033
3.38941	0.016
3.42301	0.008
3.45661	0.005
3.4902	0.001
3.5238	0.003
3.55739	0.006
3.59099	0.01
3.62458	0.016
3.65818	0.055
3.69177	0.116
3.72537	0.148
3.75896	0.177
3.79256	0.204
3.82616	0.199
3.85975	0.126
3.89335	0.109
3.92694	0.103
3.96054	0.143
3.99413	0.243
4.02773	0.375
4.06132	0.445
4.09492	0.524
4.12852	0.565
4.16211	0.592
4.19571	0.626
4.2293	0.642
4.2629	0.656
4.29649	0.695
4.33009	0.734
4.36368	0.764
4.39728	0.764
4.43087	0.764
4.46447	0.769
4.49807	0.78
4.53166	0.783
4.56526	0.79
4.59885	0.802
4.63245	0.812
4.66604	0.813
4.69964	0.824
4.73323	0.832
4.76683	0.84
4.80042	0.832
4.83402	0.812
4.86762	0.8
4.90121	0.793
4.93481	0.722
4.9684	0.666
5.002	0.661
5.03559	0.648
5.06919	0.644
5.10278	0.648
5.13638	0.67
5.16997	0.685
5.20357	0.688
5.23717	0.686
5.27076	0.685
5.30436	0.686
5.33795	0.69
5.37155	0.717
5.40514	0.741
5.43874	0.751
5.47233	0.754
5.50593	0.763
5.53953	0.766
5.57312	0.769
5.60672	0.78
5.64031	0.783
5.67391	0.786
5.7075	0.788
5.7411	0.786
5.77469	0.796
5.80829	0.803
5.84188	0.81
5.87548	0.815
5.90908	0.818
5.94267	0.818
5.97627	0.813
6.00986	0.778
6.04346	0.749
6.07705	0.72
6.11065	0.67
6.14424	0.632
6.17784	0.578
6.21143	0.45
6.24503	0.34
6.27863	0.421
6.31222	0.328
6.34582	0.27
6.37941	0.277
6.41301	0.311
6.4466	0.343
6.4802	0.395
6.51379	0.461
6.54739	0.445
6.58098	0.387
6.61458	0.439
6.64818	0.382
6.68177	0.069
6.71537	0.06
6.74896	0.172
6.78256	0.35
6.81615	0.411
6.84975	0.492
6.88334	0.622
6.91694	0.703
6.95054	0.749
6.98413	0.785
7.01773	0.805
7.05132	0.824
7.08492	0.837
7.11851	0.839
7.15211	0.835
7.1857	0.84
7.2193	0.844
7.25289	0.842
7.28649	0.84
7.32009	0.846
7.35368	0.849
7.38728	0.849
7.42087	0.846
7.45447	0.813
7.48806	0.793
7.52166	0.749
7.55525	0.744
7.58885	0.802
7.62244	0.834
7.65604	0.842
7.68964	0.825
7.72323	0.768
7.75683	0.727
7.79042	0.764
7.82402	0.805
7.85761	0.83
7.89121	0.837
7.9248	0.844
7.9584	0.847
7.99199	0.846
8.02559	0.844
8.05919	0.842
8.09278	0.842
8.12638	0.842
8.15997	0.842
8.19357	0.839
8.22716	0.834
8.26076	0.825
8.29435	0.798
8.32795	0.729
8.36155	0.656
8.39514	0.639
8.42874	0.736
8.46233	0.786
8.49593	0.771
8.52952	0.773
8.56312	0.791
8.59671	0.788
8.63031	0.781
8.6639	0.78
8.6975	0.785
8.7311	0.783
8.76469	0.773
8.79829	0.766
8.83188	0.764
8.86548	0.758
8.89907	0.724
8.93267	0.683
8.96626	0.607
8.99986	0.509
9.03345	0.445
9.06705	0.417
9.10065	0.423
9.13424	0.455
9.16784	0.463
9.20143	0.45
9.23503	0.504
9.26862	0.639
9.30222	0.729
9.33581	0.769
9.36941	0.793
9.40301	0.803
9.4366	0.791
9.4702	0.778
9.50379	0.773
9.53739	0.759
9.57098	0.742
9.60458	0.732
9.63817	0.725
9.67177	0.688
9.70536	0.556
9.73896	0.604
9.77256	0.702
9.80615	0.773
9.83975	0.803
9.87334	0.82
9.90694	0.83
9.94053	0.81
9.97413	0.825
10.0077	0.847
10.0413	0.852
10.0749	0.856
10.1085	0.852
10.1421	0.861
10.1757	0.864
10.2093	0.862
10.2429	0.864
10.2765	0.866
10.3101	0.868
10.3437	0.871
10.3773	0.871
10.4109	0.878
10.4445	0.884
10.4781	0.886
10.5117	0.884
10.5453	0.884
10.5788	0.886
10.6124	0.89
10.646	0.888
10.6796	0.886
10.7132	0.89
10.7468	0.891
10.7804	0.888
10.814	0.888
10.8476	0.884
10.8812	0.874
10.9148	0.868
10.9484	0.852
10.982	0.847
11.0156	0.846
11.0492	0.847
11.0828	0.851
11.1164	0.862
11.15	0.874
11.1836	0.886
11.2172	0.89
11.2508	0.895
11.2844	0.896
11.3179	0.898
11.3515	0.9
11.3851	0.903
11.4187	0.9
11.4523	0.896
11.4859	0.895
11.5195	0.895
11.5531	0.895
11.5867	0.895
11.6203	0.891
11.6539	0.89
11.6875	0.886
11.7211	0.881
11.7547	0.879
11.7883	0.878
11.8219	0.876
11.8555	0.871
11.8891	0.871
11.9227	0.868
11.9563	0.866
11.9899	0.866
12.0235	0.869
12.057	0.873
12.0906	0.878
12.1242	0.883
12.1578	0.883
12.1914	0.883
12.225	0.886
12.2586	0.89
12.2922	0.886
12.3258	0.884
12.3594	0.884
12.393	0.884
12.4266	0.886
12.4602	0.881
12.4938	0.881
12.5274	0.874
12.561	0.868
12.5946	0.854
12.6282	0.851
12.6618	0.844
12.6954	0.851
12.729	0.856
12.7626	0.859
12.7961	0.854
12.8297	0.847
12.8633	0.835
12.8969	0.818
12.9305	0.81
12.9641	0.805
12.9977	0.803
13.0313	0.802
13.0649	0.79
13.0985	0.774
13.1321	0.751
13.1657	0.712
13.1993	0.664
13.2329	0.607
13.2665	0.521
13.3001	0.46
13.3337	0.384
13.3673	0.304
13.4009	0.204
13.4345	0.126
13.4681	0.103
13.5017	0.089
13.5352	0.084
13.5688	0.121
13.6024	0.172
13.636	0.262
13.6696	0.417
13.7032	0.592
13.7368	0.668
13.7704	0.725
13.804	0.756
13.8376	0.781
13.8712	0.798
13.9048	0.807
13.9384	0.817
13.972	0.825
14.0056	0.829
14.0392	0.832
14.0728	0.835
14.1064	0.839
14.14	0.84
14.1736	0.839
14.2072	0.837
14.2408	0.824
14.2743	0.798
14.3079	0.783
14.3415	0.751
14.3751	0.72
14.4087	0.671
14.4423	0.602
14.4759	0.47
14.5095	0.375
14.5431	0.274
14.5767	0.211
14.6103	0.179
14.6439	0.189
14.6775	0.284
14.7111	0.387
14.7447	0.546
14.7783	0.661
14.8119	0.708
14.8455	0.737
14.8791	0.756
14.9127	0.768
14.9463	0.78
14.9799	0.788
15.0134	0.798
15.047	0.81
15.0806	0.82
15.1142	0.825
15.1478	0.83
15.1814	0.83
15.215	0.832
15.2486	0.832
15.2822	0.832
15.3158	0.83
15.3494	0.829
15.383	0.83
