Infrared Spectrum: 2',4',5'-TRIHYDROXY BUTYROPHENONE
Formula: C10 H12 O4
CAS: 1421-63-2
State: SOLID (0.52% IN KBr DISC)
Class: COBLENTZ
Instrument: PERKIN-ELMER (GRATING)
Sampling: TRANSMISSION
Path length: 0.040 CM
Resolution: 4
Origin: US INDUSTRIAL CHEMICALS COMPANY, CINCINNATI, OHIO
1/CM	TRANSMITTANCE
602.014	0.925
611.306	0.923
620.598	0.913
629.889	0.888
639.181	0.852
648.473	0.823
657.765	0.6961
667.056	0.7057
676.348	0.908
685.64	0.898
694.932	0.896
704.223	0.927
713.515	0.847
722.807	0.896
732.099	0.928
741.39	0.898
750.682	0.891
759.974	0.816
769.266	0.75
778.557	0.6161
787.849	0.616
797.141	0.764
806.433	0.85
815.724	0.847
825.016	0.793
834.308	0.279
843.6	0.747
852.891	0.7251
862.183	0.3553
871.475	0.5365
880.767	0.847
890.058	0.808
899.35	0.767
908.642	0.952
917.934	0.972
927.225	0.976
936.517	0.976
945.809	0.974
955.101	0.971
964.392	0.966
973.684	0.938
982.976	0.877
992.268	0.833
1001.56	0.93
1010.85	0.942
1020.14	0.933
1029.43	0.916
1038.73	0.903
1048.02	0.927
1057.31	0.925
1066.6	0.91
1075.89	0.881
1085.19	0.789
1094.48	0.761
1103.77	0.62
1113.06	0.845
1122.35	0.835
1131.64	0.779
1140.94	0.6621
1150.23	0.461
1159.52	0.328
1168.81	0.081
1178.1	0.159
1187.39	0.266
1196.69	0.35
1205.98	0.218
1215.27	0.566
1224.56	0.479
1233.85	0.554
1243.14	0.584
1252.44	0.571
1261.73	0.491
1271.02	0.264
1280.31	0.081
1289.6	0.15
1298.9	0.157
1308.19	0.6249
1317.48	0.645
1326.77	0.503
1336.06	0.5959
1345.35	0.642
1354.65	0.6
1363.94	0.416
1373.23	0.13
1382.52	0.071
1391.81	0.335
1401.1	0.338
1410.4	0.208
1419.69	0.289
1428.98	0.5109
1438.27	0.571
1447.56	0.544
1456.86	0.583
1466.15	0.728
1475.44	0.789
1484.73	0.767
1494.02	0.742
1503.31	0.661
1512.61	0.345
1521.9	0.323
1531.19	0.294
1540.48	0.598
1549.77	0.703
1559.06	0.715
1568.36	0.684
1577.65	0.647
1586.94	0.598
1596.23	0.4301
1605.52	0.276
1614.81	0.286
1624.11	0.264
1633.4	0.198
1642.69	0.279
1651.98	0.769
1661.27	0.872
1670.57	0.944
1679.86	0.952
1689.15	0.954
1698.44	0.955
1707.73	0.955
1717.02	0.955
1726.32	0.961
1735.61	0.976
1744.9	0.979
1754.19	0.989
1763.48	0.998
1772.77	0.998
1782.07	0.998
1791.36	0.998
1800.65	0.998
1809.94	0.998
1819.23	0.998
1828.53	0.998
1837.82	0.996
1847.11	0.996
1856.4	0.996
1865.69	0.996
1874.98	0.996
1884.28	0.996
1893.57	0.996
1902.86	0.998
1912.15	0.998
1921.44	0.998
1930.73	0.998
1940.03	0.998
1949.32	0.998
1958.61	0.998
1967.9	0.998
1977.19	0.998
1986.49	0.998
1995.78	0.998
2005.07	0.966
2014.36	0.966
2023.65	0.966
2032.94	0.964
2042.24	0.964
2051.53	0.964
2060.82	0.964
2070.11	0.964
2079.4	0.962
2088.69	0.961
2097.99	0.959
2107.28	0.959
2116.57	0.957
2125.86	0.957
2135.15	0.9551
2144.44	0.955
2153.74	0.955
2163.03	0.957
2172.32	0.957
2181.61	0.955
2190.9	0.954
2200.2	0.954
2209.49	0.954
2218.78	0.954
2228.07	0.9532
2237.36	0.9517
2246.65	0.95
2255.95	0.9478
2265.24	0.9446
2274.53	0.9438
2283.82	0.9403
2293.11	0.937
2302.4	0.9343
2311.7	0.9279
2320.99	0.9253
2330.28	0.9208
2339.57	0.918
2348.86	0.918
2358.16	0.918
2367.45	0.918
2376.74	0.918
2386.03	0.918
2395.32	0.916
2404.61	0.918
2413.91	0.916
2423.2	0.9149
2432.49	0.913
2441.78	0.9119
2451.07	0.911
2460.36	0.911
2469.66	0.9085
2478.95	0.906
2488.24	0.905
2497.53	0.903
2506.82	0.8987
2516.11	0.8935
2525.41	0.8888
2534.7	0.888
2543.99	0.888
2553.28	0.887
2562.57	0.8838
2571.87	0.8811
2581.16	0.879
2590.45	0.8731
2599.74	0.8684
2609.03	0.861
2618.32	0.8543
2627.62	0.8511
2636.91	0.847
2646.2	0.8421
2655.49	0.8306
2664.78	0.8276
2674.07	0.823
2683.37	0.823
2692.66	0.822
2701.95	0.822
2711.24	0.822
2720.53	0.82
2729.83	0.8187
2739.12	0.8172
2748.41	0.8125
2757.7	0.8033
2766.99	0.801
2776.28	0.801
2785.58	0.803
2794.87	0.803
2804.16	0.8018
2813.45	0.8006
2822.74	0.8
2832.03	0.7983
2841.33	0.7888
2850.62	0.7766
2859.91	0.7664
2869.2	0.6714
2878.49	0.684
2887.79	0.729
2897.08	0.7368
2906.37	0.7334
2915.66	0.7268
2924.95	0.6674
2934.24	0.6467
2943.54	0.6956
2952.83	0.6717
2962.12	0.5244
2971.41	0.6081
2980.7	0.7314
2989.99	0.7808
2999.29	0.7916
3008.58	0.794
3017.87	0.7976
3027.16	0.798
3036.45	0.798
3045.74	0.798
3055.04	0.7945
3064.33	0.792
3073.62	0.787
3082.91	0.781
3092.2	0.774
3101.5	0.7641
3110.79	0.7548
3120.08	0.7441
3129.37	0.7269
3138.66	0.7082
3147.95	0.6954
3157.25	0.6813
3166.54	0.6577
3175.83	0.6375
3185.12	0.5933
3194.41	0.5725
3203.7	0.5438
3213	0.5149
3222.29	0.4875
3231.58	0.4695
3240.87	0.4473
3250.16	0.4183
3259.46	0.3812
3268.75	0.3366
3278.04	0.2972
3287.33	0.2766
3296.62	0.2846
3305.91	0.3204
3315.21	0.3503
3324.5	0.3779
3333.79	0.4015
3343.08	0.4153
3352.37	0.42
3361.66	0.4231
3370.96	0.427
3380.25	0.428
3389.54	0.43
3398.83	0.432
3408.12	0.432
3417.41	0.43
3426.71	0.4196
3436	0.4094
3445.29	0.3521
3454.58	0.2634
3463.87	0.21
3473.17	0.2646
3482.46	0.3761
3491.75	0.4661
3501.04	0.5348
3510.33	0.6179
3519.62	0.6836
3528.92	0.7299
3538.21	0.7851
3547.5	0.8278
3556.79	0.8525
3566.08	0.8735
3575.37	0.8911
3584.67	0.9163
3593.96	0.9231
3603.25	0.9295
3612.54	0.933
3621.83	0.9355
3631.13	0.938
3640.42	0.9395
3649.71	0.94
3659	0.94
3668.29	0.94
3677.58	0.94
3686.88	0.94
3696.17	0.94
3705.46	0.94
3714.75	0.94
3724.04	0.938
3733.33	0.9378
3742.63	0.937
3751.92	0.935
3761.21	0.933
3770.5	0.933
3779.79	0.933
3789.08	0.933
3798.38	0.932
3807.67	0.93
3816.96	0.928
3826.25	0.928
3835.54	0.928
3844.84	0.928
3854.13	0.928
3863.42	0.928
3872.71	0.927
3882	0.927
3891.29	0.9253
3900.59	0.9224
3909.88	0.9213
3919.17	0.92
3928.46	0.92
3937.75	0.918
3947.04	0.918
3956.34	0.918
3965.63	0.916
3974.92	0.916
3984.21	0.916
