Infrared Spectrum: Lauric acid
Formula: C12 H24 O2
CAS: 143-07-7
State: SOLUTION (10% CCl4 FOR 3800-1330, 10% CS2 FOR 1330-400 CM^-^1)
Class: COBLENTZ III
Instrument: DOW KBr FOREPRISM-GRATING
Instrument parameters: BLAZED AT 3.5, 12.0, 20.0 MICRON AND CHANGED AT 5.0, 7.5, 14.9 MICRON
Sampling: TRANSMISSION
Path length: 0.011 CM, 0.011 CM
Resolution: 2
Origin: DOW CHEMICAL COMPANY
1/CM	TRANSMITTANCE
3812	0.8894
3803	0.8899
3794	0.8898
3785	0.8896
3776	0.8893
3767	0.889
3758	0.8889
3749	0.8888
3740	0.8885
3731	0.8891
3722	0.8891
3713	0.8888
3704	0.8888
3695	0.8844
3686	0.8798
3677	0.8808
3668	0.8817
3659	0.8813
3650	0.881
3641	0.8805
3632	0.8808
3623	0.8808
3614	0.8811
3605	0.8849
3596	0.886
3587	0.8861
3578	0.8857
3569	0.8814
3560	0.8728
3551	0.861
3542	0.8465
3533	0.8481
3524	0.86
3515	0.865
3506	0.8658
3497	0.8644
3488	0.8607
3479	0.8568
3470	0.8529
3461	0.8489
3452	0.8441
3443	0.8386
3434	0.8329
3425	0.8261
3416	0.82
3407	0.8129
3398	0.8028
3389	0.7916
3380	0.7763
3371	0.7626
3362	0.7504
3353	0.738
3344	0.7262
3335	0.7137
3326	0.7016
3317	0.6842
3308	0.6636
3299	0.6427
3290	0.625
3281	0.6071
3272	0.5887
3263	0.5699
3254	0.5533
3245	0.5369
3236	0.5207
3227	0.5012
3218	0.4816
3209	0.4623
3200	0.4432
3191	0.4244
3182	0.4052
3173	0.3845
3164	0.362
3155	0.344
3146	0.3269
3137	0.3113
3128	0.2968
3119	0.2848
3110	0.2733
3101	0.2645
3092	0.2583
3083	0.2508
3074	0.2459
3065	0.2407
3056	0.2354
3047	0.2299
3038	0.2265
3029	0.2219
3020	0.2186
3011	0.2147
3002	0.2041
2993	0.1896
2984	0.1059
2975	0.0496
2966	0.0238
2957	0.0181
2948	0.0133
2939	0.01
2930	0.0081
2921	0.0101
2912	0.0235
2903	0.0564
2894	0.0966
2885	0.0955
2876	0.0571
2867	0.0228
2858	0.0149
2849	0.1174
2840	0.2514
2831	0.299
2822	0.3306
2813	0.3541
2804	0.3736
2795	0.3902
2786	0.4042
2777	0.4191
2768	0.4279
2759	0.4341
2750	0.4336
2741	0.4322
2732	0.4328
2723	0.4361
2714	0.4375
2705	0.4347
2696	0.4254
2687	0.4096
2678	0.4006
2669	0.3973
2660	0.4018
2651	0.4139
2642	0.4277
2633	0.4395
2624	0.4505
2615	0.4599
2606	0.4684
2597	0.4748
2588	0.4802
2579	0.4858
2570	0.4937
2561	0.5048
2552	0.5189
2543	0.537
2534	0.5554
2525	0.5765
2516	0.5985
2507	0.622
2498	0.6427
2489	0.6621
2480	0.6772
2471	0.691
2462	0.7033
2453	0.7141
2444	0.7227
2435	0.7304
2426	0.7373
2417	0.7435
2408	0.7508
2399	0.758
2390	0.766
2381	0.7754
2372	0.7821
2363	0.7853
2354	0.791
2345	0.7951
2336	0.7965
2327	0.7953
2318	0.792
2309	0.79
2300	0.789
2291	0.7915
2282	0.7946
2273	0.7996
2264	0.8029
2255	0.8059
2246	0.8074
2237	0.8092
2228	0.8103
2219	0.8112
2210	0.8127
2201	0.8135
2192	0.814
2183	0.8149
2174	0.8156
2165	0.8155
2156	0.8159
2147	0.8166
2138	0.8174
2129	0.818
2120	0.8187
2111	0.8192
2102	0.8198
2093	0.8203
2084	0.821
2075	0.8212
2066	0.8212
2057	0.8185
2048	0.8159
2039	0.8149
2030	0.8148
2021	0.8148
2012	0.8142
2003	0.8135
1994	0.813
1985	0.8137
1976	0.8145
1967	0.8154
1958	0.8174
1949	0.8177
1940	0.8137
1931	0.8113
1922	0.8106
1913	0.8095
1904	0.8088
1895	0.806
1886	0.801
1877	0.7965
1868	0.7918
1859	0.7863
1850	0.7803
1841	0.7736
1832	0.7658
1823	0.758
1814	0.7505
1805	0.744
1796	0.7373
1787	0.7301
1778	0.7225
1769	0.7007
1760	0.6499
1751	0.5755
1742	0.5407
1733	0.4362
1724	0.2528
1715	0.0176
1706	0.0086
1697	0.06
1688	0.2477
1679	0.4623
1670	0.5707
1661	0.6284
1652	0.6697
1643	0.7095
1634	0.7472
1625	0.7695
1616	0.7832
1607	0.7847
1598	0.7755
1589	0.742
1580	0.6636
1571	0.647
1562	0.6209
1553	0.5831
1544	0.5336
1535	0.579
1526	0.6335
1517	0.6595
1508	0.6827
1499	0.7042
1490	0.7249
1481	0.7199
1472	0.6721
1463	0.2221
1454	0.2475
1445	0.367
1436	0.3478
1427	0.3412
1418	0.3212
1409	0.2057
1400	0.4711
1391	0.6323
1382	0.6622
1373	0.5904
1364	0.639
1355	0.6448
1346	0.6194
1337	0.5858
1328	0.547
1319	0.4864
1310	0.4142
1301	0.3363
1292	0.2783
1283	0.2516
1274	0.3291
1265	0.366
1256	0.4133
1247	0.4216
1238	0.375
1229	0.4124
1220	0.4606
1211	0.4861
1202	0.5618
1193	0.6829
1184	0.7355
1175	0.7667
1166	0.7796
1157	0.7887
1148	0.822
1139	0.8649
1130	0.884
1121	0.8416
1112	0.7403
1103	0.8176
1094	0.8703
1085	0.8817
1076	0.8612
1067	0.8457
1058	0.8631
1049	0.8755
1040	0.8861
1031	0.8963
1022	0.899
1013	0.89
1004	0.8774
995	0.8615
986	0.8377
977	0.8001
968	0.7189
959	0.6026
950	0.4951
941	0.4023
932	0.387
923	0.4266
914	0.4775
905	0.5452
896	0.61
887	0.6581
878	0.6869
869	0.7031
860	0.7253
851	0.7495
842	0.7856
833	0.8378
824	0.8775
815	0.8977
806	0.8959
797	0.8934
788	0.8977
779	0.9061
770	0.8995
761	0.8978
752	0.9094
743	0.8885
734	0.8402
725	0.7509
716	0.7028
707	0.8603
698	0.9238
689	0.9303
680	0.919
671	0.8915
662	0.8901
653	0.8787
644	0.8741
635	0.8802
626	0.8759
617	0.8999
608	0.914
599	0.9009
590	0.9288
581	0.9448
572	0.9541
563	0.9584
554	0.9582
545	0.9532
536	0.9467
527	0.9355
518	0.9239
509	0.9077
500	0.8855
491	0.8584
482	0.8299
473	0.8222
464	0.8286
455	0.8414
446	0.8492
437	0.83
428	0.7823
419	0.737
410	0.6408
401	0.2545
392	0.1426
383	0.1278
