Infrared Spectrum: N-DODECYL BROMIDE
Formula: C12 H25 Br
CAS: 143-15-7
State: LIQUID
Class: COBLENTZ
Instrument: Not specified, most likely a prism, grating, or hybrid spectrometer.
Sampling: TRANSMISSION
Path length: 0.0036 CM
Resolution: 4
Origin: CONTINENTAL OIL CO. (HAROLD F. SMITH)
MICROMETERS	TRANSMITTANCE
12.012	0.941
12.0491	0.934
12.0863	0.93
12.1234	0.937
12.1605	0.933
12.1977	0.93
12.2348	0.931
12.272	0.937
12.3091	0.944
12.3462	0.942
12.3834	0.937
12.4205	0.934
12.4576	0.93
12.4948	0.925
12.5319	0.913
12.569	0.905
12.6062	0.899
12.6433	0.902
12.6804	0.911
12.7176	0.92
12.7547	0.919
12.7919	0.919
12.829	0.911
12.8661	0.896
12.9033	0.88
12.9404	0.872
12.9775	0.86
13.0147	0.851
13.0518	0.834
13.0889	0.826
13.1261	0.82
13.1632	0.818
13.2004	0.812
13.2375	0.8
13.2746	0.79
13.3118	0.781
13.3489	0.77
13.386	0.751
13.4232	0.737
13.4603	0.731
13.4974	0.72
13.5346	0.705
13.5717	0.699
13.6088	0.666
13.646	0.641
13.6831	0.598
13.7203	0.559
13.7574	0.537
13.7945	0.493
13.8317	0.443
13.8688	0.381
13.9059	0.331
13.9431	0.289
13.9802	0.262
14.0173	0.282
14.0545	0.331
14.0916	0.396
14.1287	0.479
14.1659	0.551
14.203	0.623
14.2402	0.689
14.2773	0.731
14.3144	0.768
14.3516	0.81
14.3887	0.843
14.4258	0.868
14.463	0.88
14.5001	0.897
14.5372	0.905
14.5744	0.914
14.6115	0.917
14.6487	0.922
14.6858	0.922
14.7229	0.93
14.7601	0.927
14.7972	0.92
14.8343	0.917
14.8715	0.917
14.9086	0.913
14.9457	0.911
14.9829	0.906
15.02	0.9
15.0571	0.902
15.0943	0.893
15.1314	0.871
15.1686	0.852
15.2057	0.827
15.2428	0.8
15.28	0.755
15.3171	0.708
15.3542	0.641
15.3914	0.565
15.4285	0.497
15.4656	0.424
15.5028	0.372
15.5399	0.339
15.5771	0.314
15.6142	0.324
15.6513	0.351
15.6885	0.395
15.7256	0.469
15.7627	0.539
15.7999	0.61
15.837	0.68
15.8741	0.731
15.9113	0.762
15.9484	0.79
15.9855	0.815
16.0227	0.84
16.0598	0.855
16.097	0.863
16.1341	0.879
16.1712	0.899
16.2084	0.896
16.2455	0.903
16.2826	0.908
16.3198	0.908
16.3569	0.905
16.394	0.906
16.4312	0.911
16.4683	0.908
16.5055	0.913
16.5426	0.913
16.5797	0.92
16.6169	0.91
16.654	0.908
16.6911	0.911
16.7283	0.92
16.7654	0.914
16.8025	0.917
16.8397	0.911
16.8768	0.906
16.9139	0.91
16.9511	0.91
16.9882	0.91
17.0254	0.9
17.0625	0.893
17.0996	0.891
17.1368	0.888
17.1739	0.882
17.211	0.868
17.2482	0.858
17.2853	0.841
17.3224	0.82
17.3596	0.793
17.3967	0.768
17.4339	0.725
17.471	0.699
17.5081	0.657
17.5453	0.606
17.5824	0.568
17.6195	0.511
17.6567	0.486
17.6938	0.438
17.7309	0.404
17.7681	0.376
17.8052	0.37
17.8423	0.378
17.8795	0.404
17.9166	0.449
17.9538	0.5
17.9909	0.551
18.028	0.624
18.0652	0.68
18.1023	0.722
18.1394	0.747
18.1766	0.784
18.2137	0.804
18.2508	0.812
18.288	0.826
18.3251	0.84
18.3622	0.848
18.3994	0.858
18.4365	0.862
18.4737	0.869
18.5108	0.877
18.5479	0.883
18.5851	0.882
18.6222	0.879
18.6593	0.885
18.6965	0.889
18.7336	0.885
18.7707	0.891
18.8079	0.886
18.845	0.891
18.8822	0.894
18.9193	0.897
18.9564	0.886
18.9936	0.899
19.0307	0.899
19.0678	0.903
19.105	0.908
19.1421	0.91
19.1792	0.91
19.2164	0.908
19.2535	0.913
19.2906	0.919
19.3278	0.924
19.3649	0.917
19.4021	0.925
19.4392	0.924
19.4763	0.92
19.5135	0.93
19.5506	0.928
19.5877	0.925
19.6249	0.924
19.662	0.934
19.6991	0.931
19.7363	0.937
19.7734	0.937
19.8106	0.939
19.8477	0.934
19.8848	0.93
19.922	0.928
19.9591	0.939
19.9962	0.936
20.0334	0.933
20.0705	0.93
20.1076	0.936
20.1448	0.933
20.1819	0.939
20.219	0.933
20.2562	0.939
20.2933	0.945
20.3305	0.942
20.3676	0.948
20.4047	0.937
20.4419	0.93
20.479	0.93
20.5161	0.93
20.5533	0.931
20.5904	0.942
20.6275	0.942
20.6647	0.936
20.7018	0.942
20.739	0.937
20.7761	0.941
20.8132	0.937
20.8504	0.942
20.8875	0.939
20.9246	0.941
20.9618	0.948
20.9989	0.941
21.036	0.942
21.0732	0.942
21.1103	0.95
21.1474	0.948
21.1846	0.941
21.2217	0.942
21.2589	0.945
21.296	0.95
21.3331	0.959
21.3703	0.961
21.4074	0.959
21.4445	0.958
21.4817	0.959
21.5188	0.955
21.5559	0.959
21.5931	0.951
21.6302	0.956
21.6673	0.956
21.7045	0.961
21.7416	0.959
21.7788	0.958
21.8159	0.962
21.853	0.959
21.8902	0.958
21.9273	0.959
21.9644	0.962
22.0016	0.97
22.0387	0.968
22.0758	0.972
22.113	0.961
22.1501	0.968
22.1873	0.962
22.2244	0.965
22.2615	0.964
22.2987	0.968
22.3358	0.967
22.3729	0.964
22.4101	0.968
22.4472	0.964
22.4843	0.964
22.5215	0.962
22.5586	0.953
22.5957	0.951
22.6329	0.959
22.67	0.956
22.7072	0.959
22.7443	0.953
22.7814	0.959
22.8186	0.955
22.8557	0.95
22.8928	0.959
22.93	0.956
22.9671	0.95
23.0042	0.956
23.0414	0.961
23.0785	0.962
23.1157	0.962
23.1528	0.967
23.1899	0.962
23.2271	0.961
23.2642	0.959
23.3013	0.958
23.3385	0.956
23.3756	0.953
23.4127	0.958
23.4499	0.959
23.487	0.959
23.5241	0.951
23.5613	0.953
23.5984	0.95
23.6356	0.948
23.6727	0.942
23.7098	0.941
23.747	0.939
23.7841	0.937
23.8212	0.931
23.8584	0.925
23.8955	0.916
23.9326	0.914
23.9698	0.919
24.0069	0.922
24.0441	0.924
24.0812	0.925
24.1183	0.927
24.1555	0.925
24.1926	0.919
24.2297	0.917
24.2669	0.908
24.304	0.906
24.3411	0.903
24.3783	0.899
24.4154	0.894
24.4525	0.891
24.4897	0.893
24.5268	0.889
24.564	0.871
24.6011	0.868
24.6382	0.868
24.6754	0.857
24.7125	0.857
24.7496	0.857
24.7868	0.852
24.8239	0.848
24.861	0.834
24.8982	0.829
24.9353	0.823
24.9725	0.823
25.0096	0.813
25.0467	0.787
25.0839	0.776
25.121	0.768
25.1581	0.77
25.1953	0.767
25.2324	0.762
25.2695	0.77
25.3067	0.77
25.3438	0.772
25.3809	0.767
25.4181	0.767
25.4552	0.77
25.4924	0.772
25.5295	0.768
25.5666	0.765
25.6038	0.761
25.6409	0.767
25.678	0.753
25.7152	0.742
25.7523	0.744
25.7894	0.737
25.8266	0.731
25.8637	0.728
25.9008	0.731
25.938	0.717
25.9751	0.711
