Infrared Spectrum: CYCLOHEXANONE, 3,3,5,5-TETRAMETHYL-
Formula: C10 H18 O
CAS: 14376-79-5
State: SOLUTION (10% CCl4 FOR 3800-1335, 10% CS2 FOR 1335-450 CM^-^1)
Class: COBLENTZ III
Instrument: DOW KBr FOREPRISM-GRATING
Instrument parameters: BLAZED AT 3.5, 12.0, 20.0 MICRON AND CHANGED AT 5.0, 7.5, 14.9 MICRON
Sampling: TRANSMISSION
Path length: 0.011 CM, 0.012 CM
Resolution: 2
Origin: DOW CHEMICAL COMPANY
1/CM	TRANSMITTANCE
458	0.8168
467	0.8171
476	0.8171
485	0.8125
494	0.798
503	0.778
512	0.7587
521	0.7247
530	0.4503
539	0.4819
548	0.7425
557	0.7878
566	0.8088
575	0.8245
584	0.8324
593	0.8306
602	0.8141
611	0.7992
620	0.8342
629	0.8421
638	0.8358
647	0.8221
656	0.8099
665	0.8468
674	0.8378
683	0.8677
692	0.869
701	0.8718
710	0.8744
719	0.8764
728	0.8739
737	0.8683
746	0.8612
755	0.8648
764	0.8689
773	0.8705
782	0.8649
791	0.8643
800	0.8671
809	0.8653
818	0.8593
827	0.8556
836	0.8432
845	0.7826
854	0.8549
863	0.8704
872	0.8688
881	0.8632
890	0.8312
899	0.8202
908	0.791
917	0.8464
926	0.8181
935	0.804
944	0.8298
953	0.8463
962	0.8076
971	0.7421
980	0.8483
989	0.8507
998	0.8504
1007	0.8454
1016	0.8498
1025	0.8289
1034	0.8373
1043	0.8259
1052	0.7708
1061	0.7501
1070	0.8815
1079	0.8923
1088	0.8755
1097	0.7574
1106	0.7161
1115	0.8467
1124	0.8858
1133	0.8824
1142	0.8599
1151	0.8036
1160	0.7525
1169	0.8567
1178	0.8368
1187	0.7703
1196	0.7851
1205	0.7812
1214	0.7178
1223	0.3738
1232	0.4294
1241	0.3376
1250	0.6318
1259	0.6898
1268	0.5298
1277	0.174
1286	0.3257
1295	0.3647
1304	0.6317
1313	0.7617
1322	0.7883
1331	0.8065
1340	0.7621
1349	0.254
1358	0.735
1367	0.395
1376	0.6517
1385	0.551
1394	0.5528
1403	0.7281
1412	0.6842
1421	0.408
1430	0.4306
1439	0.5959
1448	0.5112
1457	0.2158
1466	0.3177
1475	0.4909
1484	0.5519
1493	0.7394
1502	0.8137
1511	0.8603
1520	0.8784
1529	0.889
1538	0.8925
1547	0.8914
1556	0.8905
1565	0.8906
1574	0.8888
1583	0.8806
1592	0.8699
1601	0.858
1610	0.8447
1619	0.8304
1628	0.8165
1637	0.7867
1646	0.8037
1655	0.7867
1664	0.7322
1673	0.5004
1682	0.4362
1691	0.3414
1700	0.2817
1709	0.0453
1718	0.0016
1727	0.1149
1736	0.3662
1745	0.5989
1754	0.65
1763	0.6554
1772	0.7401
1781	0.8062
1790	0.8383
1799	0.8452
1808	0.8441
1817	0.8437
1826	0.8554
1835	0.8645
1844	0.8668
1853	0.8682
1862	0.8702
1871	0.8713
1880	0.8728
1889	0.8746
1898	0.873
1907	0.8671
1916	0.8668
1925	0.8739
1934	0.8771
1943	0.8737
1952	0.8706
1961	0.8743
1970	0.877
1979	0.8795
1988	0.8805
1997	0.8799
2006	0.9241
2015	0.9235
2024	0.9224
2033	0.9211
2042	0.9195
2051	0.9177
2060	0.915
2069	0.9124
2078	0.9138
2087	0.9166
2096	0.9194
2105	0.9185
2114	0.9144
2123	0.9106
2132	0.9105
2141	0.9108
2150	0.9116
2159	0.9157
2168	0.9202
2177	0.9198
2186	0.9199
2195	0.9201
2204	0.9203
2213	0.9203
2222	0.9202
2231	0.9202
2240	0.9203
2249	0.9201
2258	0.9195
2267	0.9184
2276	0.9174
2285	0.9187
2294	0.9203
2303	0.9186
2312	0.9238
2321	0.9271
2330	0.9266
2339	0.9254
2348	0.9238
2357	0.9214
2366	0.9175
2375	0.9125
2384	0.9075
2393	0.9096
2402	0.9117
2411	0.9118
2420	0.9117
2429	0.9112
2438	0.9108
2447	0.91
2456	0.9092
2465	0.9083
2474	0.9075
2483	0.9075
2492	0.9063
2501	0.9012
2510	0.8993
2519	0.9028
2528	0.9055
2537	0.9028
2546	0.8965
2555	0.8938
2564	0.8941
2573	0.8959
2582	0.8997
2591	0.9002
2600	0.8998
2609	0.897
2618	0.8942
2627	0.8913
2636	0.8884
2645	0.8851
2654	0.8805
2663	0.8753
2672	0.8657
2681	0.8643
2690	0.8777
2699	0.874
2708	0.8607
2717	0.8467
2726	0.8465
2735	0.8475
2744	0.8601
2753	0.8692
2762	0.8614
2771	0.8493
2780	0.8478
2789	0.8392
2798	0.7997
2807	0.764
2816	0.6976
2825	0.602
2834	0.5586
2843	0.5157
2852	0.5243
2861	0.3784
2870	0.2045
2879	0.1833
2888	0.1714
2897	0.1207
2906	0.0876
2915	0.1384
2924	0.1375
2933	0.1365
2942	0.092
2951	0.0062
2960	0.0033
2969	0.0646
2978	0.2638
2987	0.3612
2996	0.333
3005	0.6342
3014	0.7549
3023	0.8156
3032	0.842
3041	0.8536
3050	0.8594
3059	0.864
3068	0.8681
3077	0.8708
3086	0.8731
3095	0.8741
3104	0.8752
3113	0.8747
3122	0.874
3131	0.8731
3140	0.8717
3149	0.8696
3158	0.8684
3167	0.8665
3176	0.8635
3185	0.8593
3194	0.8537
3203	0.8551
3212	0.8594
3221	0.8636
3230	0.869
3239	0.8728
3248	0.8752
3257	0.8768
3266	0.8783
3275	0.8792
3284	0.8798
3293	0.8797
3302	0.8796
3311	0.879
3320	0.8784
3329	0.8777
3338	0.877
3347	0.8763
3356	0.8744
3365	0.8712
3374	0.8636
3383	0.8545
3392	0.8425
3401	0.8349
3410	0.8334
3419	0.8434
3428	0.8606
3437	0.8685
3446	0.8692
3455	0.8695
3464	0.8695
3473	0.8697
3482	0.87
3491	0.8702
3500	0.8706
3509	0.8711
3518	0.8731
3527	0.8741
3536	0.8748
3545	0.8763
3554	0.8793
3563	0.883
3572	0.8854
3581	0.886
3590	0.8861
3599	0.8861
3608	0.8857
3617	0.8852
3626	0.8842
3635	0.883
3644	0.8809
3653	0.8788
3662	0.8783
3671	0.8616
3680	0.863
3689	0.876
3698	0.8798
3707	0.8802
3716	0.8809
3725	0.8817
3734	0.8818
3743	0.8812
3752	0.8845
3761	0.8787
3770	0.8771
3779	0.8777
3788	0.8785
