Infrared Spectrum: TRIMETHYL ORTHOACETATE
Formula: C5 H12 O3
CAS: 1445-45-0
State: LIQUID
Boiling point: 105-108 C
Class: COBLENTZ
Instrument: Not specified, most likely a prism, grating, or hybrid spectrometer.
Sampling: TRANSMISSION
Path length: 0.003 CM
Resolution: 4
Origin: WYANDOTTE CHEMICALS CORP., WYANDOTTE, MICHIGAN, USA
MICROMETERS	TRANSMITTANCE
2.025	0.958
2.06213	0.959
2.09927	0.959
2.1364	0.944
2.17353	0.852
2.21067	0.884
2.2478	0.905
2.28493	0.919
2.32207	0.916
2.3592	0.912
2.39633	0.905
2.43347	0.916
2.4706	0.936
2.50773	0.953
2.54487	0.967
2.582	0.973
2.61913	0.982
2.65627	0.97
2.6934	0.954
2.73053	0.925
2.76767	0.916
2.8048	0.889
2.84193	0.886
2.87907	0.908
2.9162	0.925
2.95333	0.934
2.99047	0.933
3.0276	0.925
3.06473	0.926
3.10187	0.906
3.139	0.874
3.17613	0.835
3.21327	0.771
3.2504	0.653
3.28753	0.446
3.32467	0.052
3.3618	0.035
3.39893	0.06
3.43607	0.132
3.4732	0.345
3.51033	0.239
3.54747	0.328
3.5846	0.754
3.62173	0.825
3.65887	0.849
3.696	0.867
3.73313	0.883
3.77027	0.883
3.8074	0.875
3.84453	0.869
3.88167	0.883
3.9188	0.902
3.95593	0.922
3.99307	0.931
4.0302	0.93
4.06733	0.928
4.10447	0.926
4.1416	0.923
4.17873	0.916
4.21587	0.916
4.253	0.92
4.29013	0.931
4.32727	0.94
4.3644	0.939
4.40153	0.916
4.43867	0.909
4.4758	0.906
4.51293	0.931
4.55007	0.931
4.5872	0.937
4.62433	0.926
4.66147	0.922
4.6986	0.903
4.73573	0.835
4.77287	0.796
4.81	0.825
4.84713	0.844
4.88427	0.841
4.9214	0.861
4.95853	0.889
4.99567	0.917
5.0328	0.909
5.06993	0.894
5.10707	0.898
5.1442	0.894
5.18133	0.864
5.21847	0.838
5.2556	0.847
5.29273	0.892
5.32987	0.917
5.367	0.926
5.40413	0.917
5.44127	0.916
5.4784	0.919
5.51553	0.919
5.55267	0.898
5.5898	0.83
5.62693	0.721
5.66407	0.748
5.7012	0.768
5.73833	0.772
5.77547	0.878
5.8126	0.866
5.84973	0.853
5.88687	0.858
5.924	0.842
5.96113	0.838
5.99827	0.822
6.0354	0.813
6.07253	0.76
6.10967	0.713
6.1468	0.735
6.18393	0.762
6.22107	0.785
6.2582	0.793
6.29533	0.774
6.33247	0.734
6.3696	0.71
6.40673	0.684
6.44387	0.66
6.481	0.682
6.51813	0.699
6.55527	0.682
6.5924	0.651
6.62953	0.606
6.66667	0.534
6.7038	0.388
6.74093	0.236
6.77807	0.141
6.8152	0.161
6.85233	0.197
6.88947	0.2
6.9266	0.141
6.96373	0.261
7.00087	0.497
7.038	0.584
7.07513	0.586
7.11227	0.541
7.1494	0.384
7.18653	0.105
7.22367	0.04
7.2608	0.153
7.29793	0.381
7.33507	0.502
7.3722	0.62
7.40933	0.674
7.44647	0.709
7.4836	0.734
7.52073	0.741
7.55787	0.738
7.595	0.723
7.63213	0.678
7.66927	0.62
7.7064	0.592
7.74353	0.587
7.78067	0.559
7.8178	0.485
7.85493	0.373
7.89207	0.194
7.9292	0.041
7.96633	0.032
8.00347	0.031
8.0406	0.027
8.07773	0.035
8.11487	0.048
8.152	0.04
8.18913	0.027
8.22627	0.027
8.2634	0.026
8.30053	0.04
8.33767	0.04
8.3748	0.032
8.41193	0.032
8.44907	0.031
8.4862	0.029
8.52333	0.029
8.56047	0.031
8.5976	0.034
8.63473	0.027
8.67187	0.029
8.709	0.037
8.74613	0.032
8.78327	0.035
8.8204	0.031
8.85753	0.034
8.89467	0.034
8.9318	0.032
8.96893	0.034
9.00607	0.057
9.0432	0.083
9.08033	0.127
9.11747	0.147
9.1546	0.133
9.19173	0.087
9.22887	0.051
9.266	0.034
9.30313	0.035
9.34027	0.034
9.3774	0.032
9.41453	0.029
9.45167	0.031
9.4888	0.029
9.52593	0.032
9.56307	0.032
9.6002	0.034
9.63733	0.031
9.67447	0.032
9.7116	0.043
9.74873	0.08
9.78587	0.169
9.823	0.267
9.86013	0.34
9.89727	0.415
9.9344	0.486
9.97153	0.555
10.0087	0.598
10.0458	0.632
10.0829	0.66
10.1201	0.693
10.1572	0.712
10.1943	0.73
10.2315	0.743
10.2686	0.754
10.3057	0.763
10.3429	0.763
10.38	0.771
10.4171	0.768
10.4543	0.772
10.4914	0.771
10.5285	0.768
10.5657	0.763
10.6028	0.751
10.6399	0.749
10.6771	0.741
10.7142	0.721
10.7513	0.713
10.7885	0.687
10.8256	0.66
10.8627	0.628
10.8999	0.59
10.937	0.544
10.9741	0.463
11.0113	0.39
11.0484	0.262
11.0855	0.155
11.1227	0.074
11.1598	0.051
11.1969	0.041
11.2341	0.045
11.2712	0.051
11.3083	0.043
11.3455	0.054
11.3826	0.073
11.4197	0.115
11.4569	0.199
11.494	0.309
11.5311	0.398
11.5683	0.477
11.6054	0.538
11.6425	0.586
11.6797	0.631
11.7168	0.667
11.7539	0.692
11.7911	0.716
11.8282	0.724
11.8653	0.737
11.9025	0.752
11.9396	0.771
11.9767	0.782
12.0139	0.793
12.051	0.802
12.0881	0.81
12.1253	0.816
12.1624	0.822
12.1995	0.821
12.2367	0.822
12.2738	0.827
12.3109	0.833
12.3481	0.838
12.3852	0.838
12.4223	0.849
12.4595	0.841
12.4966	0.844
12.5337	0.849
12.5709	0.846
12.608	0.838
12.6451	0.841
12.6823	0.839
12.7194	0.832
12.7565	0.835
12.7937	0.835
12.8308	0.83
12.8679	0.835
12.9051	0.835
12.9422	0.833
12.9793	0.832
13.0165	0.841
13.0536	0.838
13.0907	0.836
13.1279	0.836
13.165	0.83
13.2021	0.824
13.2393	0.819
13.2764	0.811
13.3135	0.805
13.3507	0.8
13.3878	0.776
13.4249	0.763
13.4621	0.755
13.4992	0.744
13.5363	0.713
13.5735	0.681
13.6106	0.664
13.6477	0.704
13.6849	0.755
13.722	0.797
13.7591	0.818
13.7963	0.835
13.8334	0.849
13.8705	0.852
13.9077	0.858
13.9448	0.86
13.9819	0.863
14.0191	0.861
14.0562	0.866
14.0933	0.864
14.1305	0.869
14.1676	0.867
14.2047	0.87
14.2419	0.864
14.279	0.861
14.3161	0.867
14.3533	0.867
14.3904	0.856
14.4275	0.852
14.4647	0.842
14.5018	0.839
14.5389	0.838
14.5761	0.836
14.6132	0.844
14.6503	0.842
14.6875	0.838
14.7246	0.833
14.7617	0.832
14.7989	0.828
14.836	0.821
14.8731	0.821
14.9103	0.827
14.9474	0.824
14.9845	0.808
15.0217	0.785
15.0588	0.779
15.0959	0.788
15.1331	0.797
15.1702	0.794
15.2073	0.791
15.2445	0.786
15.2816	0.783
15.3187	0.774
15.3559	0.768
15.393	0.765
15.4301	0.757
15.4673	0.749
15.5044	0.738
15.5415	0.735
15.5787	0.727
15.6158	0.724
15.6529	0.72
15.6901	0.699
15.7272	0.696
15.7643	0.695
15.8015	0.688
15.8386	0.67
15.8757	0.662
15.9129	0.65
15.95	0.637
15.9871	0.629
