Infrared Spectrum: Picolinamide
Formula: C6 H6 N2 O
CAS: 1452-77-3
State: SOLID (SPLIT MULL), FLUOROLUBE FOR 3800-1330 CM^-^1, NUJOL FOR 1330-450 CM^-^1
Class: COBLENTZ III
Instrument: DOW KBr FOREPRISM-GRATING
Instrument parameters: BLAZED AT 3.5, 12.0, 20.0 MICRON AND CHANGED AT 5.0, 7.5, 14.9 MICRON
Sampling: TRANSMISSION
Resolution: 2
Origin: DOW CHEMICAL COMPANY
1/CM	TRANSMITTANCE
3800	0.7061
3791	0.708
3782	0.71
3773	0.7118
3764	0.7139
3755	0.7158
3746	0.7186
3737	0.7224
3728	0.7254
3719	0.7251
3710	0.7251
3701	0.7271
3692	0.7294
3683	0.7285
3674	0.7282
3665	0.7306
3656	0.7375
3647	0.7385
3638	0.7391
3629	0.7411
3620	0.7434
3611	0.7454
3602	0.7472
3593	0.7493
3584	0.7511
3575	0.7521
3566	0.7524
3557	0.7561
3548	0.7601
3539	0.7625
3530	0.7611
3521	0.7615
3512	0.7635
3503	0.7665
3494	0.7694
3485	0.7715
3476	0.7719
3467	0.7685
3458	0.7431
3449	0.6936
3440	0.6074
3431	0.5094
3422	0.2117
3413	0.1518
3404	0.2704
3395	0.4191
3386	0.4712
3377	0.5173
3368	0.5508
3359	0.5735
3350	0.5898
3341	0.6048
3332	0.6146
3323	0.6168
3314	0.6141
3305	0.6114
3296	0.5668
3287	0.526
3278	0.5069
3269	0.5016
3260	0.5057
3251	0.53
3242	0.5387
3233	0.539
3224	0.4977
3215	0.4576
3206	0.4
3197	0.3422
3188	0.3142
3179	0.3041
3170	0.3059
3161	0.3412
3152	0.3846
3143	0.4165
3134	0.4458
3125	0.4716
3116	0.4943
3107	0.5117
3098	0.5297
3089	0.5517
3080	0.5673
3071	0.5791
3062	0.5893
3053	0.5818
3044	0.6044
3035	0.6192
3026	0.633
3017	0.6471
3008	0.6584
2999	0.6665
2990	0.6746
2981	0.6821
2972	0.6899
2963	0.6971
2954	0.7051
2945	0.7122
2936	0.7195
2927	0.7253
2918	0.7312
2909	0.7375
2900	0.7435
2891	0.7486
2882	0.753
2873	0.7557
2864	0.759
2855	0.7621
2846	0.7651
2837	0.7687
2828	0.7721
2819	0.7754
2810	0.7775
2801	0.7798
2792	0.7801
2783	0.7784
2774	0.7782
2765	0.7761
2756	0.7695
2747	0.7631
2738	0.7664
2729	0.7743
2720	0.7818
2711	0.789
2702	0.7955
2693	0.7978
2684	0.8001
2675	0.8026
2666	0.8054
2657	0.8075
2648	0.8099
2639	0.8119
2630	0.8143
2621	0.8161
2612	0.8178
2603	0.8196
2594	0.8213
2585	0.823
2576	0.8246
2567	0.8262
2558	0.8278
2549	0.83
2540	0.8325
2531	0.835
2522	0.8377
2513	0.8396
2504	0.8408
2495	0.8396
2486	0.838
2477	0.8366
2468	0.8389
2459	0.8407
2450	0.8425
2441	0.8438
2432	0.8448
2423	0.8457
2414	0.8468
2405	0.8478
2396	0.8491
2387	0.8502
2378	0.8513
2369	0.8523
2360	0.8535
2351	0.8545
2342	0.8567
2333	0.8588
2324	0.8604
2315	0.8603
2306	0.8582
2297	0.8546
2288	0.8518
2279	0.8532
2270	0.857
2261	0.8575
2252	0.8581
2243	0.8597
2234	0.8615
2225	0.8634
2216	0.8657
2207	0.8681
2198	0.8696
2189	0.8694
2180	0.8717
2171	0.8745
2162	0.8771
2153	0.8795
2144	0.8818
2135	0.8834
2126	0.885
2117	0.8865
2108	0.888
2099	0.8894
2090	0.8905
2081	0.8913
2072	0.8918
2063	0.8921
2054	0.8925
2045	0.8924
2036	0.8938
2027	0.9002
2018	0.9013
2009	0.9
2000	0.8948
1991	0.8868
1982	0.8851
1973	0.872
1964	0.8896
1955	0.8906
1946	0.8878
1937	0.8901
1928	0.8937
1919	0.8952
1910	0.8933
1901	0.8911
1892	0.895
1883	0.882
1874	0.8867
1865	0.8957
1856	0.8996
1847	0.9021
1838	0.903
1829	0.9025
1820	0.9008
1811	0.8958
1802	0.8935
1793	0.8944
1784	0.895
1775	0.895
1766	0.8948
1757	0.8928
1748	0.8902
1739	0.883
1730	0.8696
1721	0.8658
1712	0.835
1703	0.7794
1694	0.6997
1685	0.4502
1676	0.2639
1667	0.0503
1658	0.1698
1649	0.435
1640	0.5722
1631	0.6453
1622	0.6632
1613	0.5764
1604	0.5043
1595	0.5862
1586	0.3352
1577	0.6854
1568	0.4247
1559	0.6675
1550	0.7439
1541	0.7815
1532	0.7961
1523	0.8084
1514	0.8192
1505	0.8278
1496	0.8361
1487	0.8347
1478	0.8169
1469	0.4802
1460	0.7521
1451	0.7797
1442	0.5026
1433	0.7796
1424	0.8214
1415	0.7436
1406	0.5042
1397	0.2843
1388	0.2561
1379	0.5126
1370	0.6606
1361	0.7396
1352	0.7657
1343	0.7578
1334	0.7715
1325	0.7822
1316	0.7815
1307	0.7819
1298	0.7828
1289	0.6575
1280	0.7368
1271	0.7711
1262	0.7757
1253	0.7028
1244	0.7762
1235	0.794
1226	0.77
1217	0.7901
1208	0.8145
1199	0.8309
1190	0.8373
1181	0.8368
1172	0.8211
1163	0.7699
1154	0.8197
1145	0.8167
1136	0.844
1127	0.8552
1118	0.853
1109	0.8402
1100	0.7241
1091	0.6851
1082	0.7989
1073	0.8344
1064	0.8494
1055	0.8566
1046	0.7675
1037	0.8268
1028	0.8537
1019	0.8621
1010	0.8702
1001	0.863
992	0.8277
983	0.8637
974	0.8643
965	0.8684
956	0.8715
947	0.8727
938	0.872
929	0.8703
920	0.868
911	0.8275
902	0.8568
893	0.8578
884	0.8585
875	0.8589
866	0.8555
857	0.8514
848	0.8443
839	0.8311
830	0.7206
821	0.7787
812	0.7642
803	0.626
794	0.5898
785	0.6978
776	0.5879
767	0.6008
758	0.2838
749	0.7311
740	0.7893
731	0.7955
722	0.7915
713	0.7987
704	0.7938
695	0.7533
686	0.7696
677	0.7533
668	0.7158
659	0.6611
650	0.5712
641	0.6634
632	0.4244
623	0.5798
614	0.4612
605	0.5655
596	0.7294
587	0.7807
578	0.801
569	0.8093
560	0.8083
551	0.8099
542	0.8075
533	0.7587
524	0.6651
515	0.7143
506	0.7738
497	0.8067
488	0.8189
479	0.8242
470	0.8243
461	0.8225
