Infrared Spectrum: 1-Nonadecanol
Formula: C19 H40 O
CAS: 1454-84-8
State: SOLUTION (10% CCl4 FOR 3800-1330, 10% CS2 FOR 1330-400, AND 2% CCl4 FOR 3300-2300 CM^-^1) VS SOLVENT
Class: COBLENTZ III
Instrument: BECKMAN IR-9 (GRATING)
Instrument parameters: ORDER CHANGES: 670, 1200, 2000 CM^-^1
Sampling: TRANSMISSION
Path length: 0.010 CM, 0.011 CM, AND 0.010 CM
Resolution: 2
Origin: DOW CHEMICAL COMPANY
1/CM	TRANSMITTANCE
399	0.5483
408	0.5741
417	0.6752
426	0.796
435	0.8253
444	0.8292
453	0.8288
462	0.8271
471	0.8224
480	0.8092
489	0.8004
498	0.7961
507	0.7942
516	0.7941
525	0.7955
534	0.8008
543	0.806
552	0.8106
561	0.815
570	0.8195
579	0.8241
588	0.8274
597	0.8299
606	0.8324
615	0.8348
624	0.837
633	0.8395
642	0.844
651	0.8473
660	0.8523
669	0.846
678	0.8411
687	0.8383
696	0.8194
705	0.7838
714	0.6844
723	0.5983
732	0.7327
741	0.7822
750	0.8054
759	0.8164
768	0.8276
777	0.8385
786	0.8462
795	0.8495
804	0.8509
813	0.852
822	0.8539
831	0.8562
840	0.8626
849	0.8694
858	0.848
867	0.8381
876	0.8334
885	0.8305
894	0.8297
903	0.8284
912	0.8259
921	0.8238
930	0.8189
939	0.8118
948	0.8059
957	0.8001
966	0.7971
975	0.7817
984	0.764
993	0.7416
1002	0.7141
1011	0.681
1020	0.6366
1029	0.5889
1038	0.5461
1047	0.5144
1056	0.4929
1065	0.5466
1074	0.5759
1083	0.6435
1092	0.7271
1101	0.762
1110	0.77
1119	0.7725
1128	0.7787
1137	0.7969
1146	0.7979
1155	0.798
1164	0.7969
1173	0.7953
1182	0.7947
1191	0.7945
1200	0.7932
1209	0.791
1218	0.7877
1227	0.7847
1236	0.7802
1245	0.7751
1254	0.7686
1263	0.7608
1272	0.7518
1281	0.7388
1290	0.7237
1299	0.703
1308	0.7005
1317	0.7171
1326	0.7258
1335	0.7639
1344	0.7411
1353	0.7263
1362	0.7205
1371	0.6897
1380	0.6264
1389	0.7077
1398	0.7388
1407	0.7588
1416	0.7708
1425	0.7692
1434	0.6836
1443	0.6165
1452	0.4716
1461	0.3709
1470	0.3471
1479	0.7253
1488	0.7789
1497	0.8103
1506	0.8302
1515	0.8414
1524	0.845
1533	0.854
1542	0.8683
1551	0.8842
1560	0.8893
1569	0.8855
1578	0.8796
1587	0.8793
1596	0.8778
1605	0.8678
1614	0.8676
1623	0.8625
1632	0.8604
1641	0.8599
1650	0.8593
1659	0.8588
1668	0.8583
1677	0.858
1686	0.8579
1695	0.8578
1704	0.8577
1713	0.8576
1722	0.8575
1731	0.8574
1740	0.8575
1749	0.8574
1758	0.8572
1767	0.857
1776	0.8569
1785	0.8573
1794	0.8577
1803	0.8581
1812	0.8584
1821	0.8588
1830	0.8589
1839	0.8591
1848	0.8592
1857	0.8589
1866	0.8586
1875	0.8582
1884	0.8583
1893	0.8585
1902	0.8589
1911	0.86
1920	0.861
1929	0.862
1938	0.8631
1947	0.8632
1956	0.8626
1965	0.8621
1974	0.8608
1983	0.8594
1992	0.8546
2001	0.8608
2010	0.869
2019	0.8692
2028	0.8689
2037	0.8689
2046	0.8689
2055	0.8689
2064	0.8689
2073	0.8689
2082	0.8689
2091	0.8688
2100	0.8687
2109	0.8686
2118	0.8682
2127	0.8678
2136	0.8674
2145	0.8672
2154	0.8673
2163	0.8675
2172	0.8672
2181	0.8666
2190	0.8659
2199	0.8644
2208	0.8629
2217	0.8625
2226	0.8622
2235	0.8619
2244	0.8617
2253	0.8614
2262	0.8611
2271	0.8608
2280	0.8606
2289	0.8602
2298	0.86
2307	0.8597
2316	0.8594
2325	0.8598
2334	0.8605
2343	0.8612
2352	0.8628
2361	0.8641
2370	0.8646
2379	0.8634
2388	0.859
2397	0.8561
2406	0.8557
2415	0.8559
2424	0.8562
2433	0.8563
2442	0.8567
2451	0.8572
2460	0.8574
2469	0.8568
2478	0.8564
2487	0.8557
2496	0.8546
2505	0.8534
2514	0.8523
2523	0.8513
2532	0.8503
2541	0.849
2550	0.8468
2559	0.8445
2568	0.8416
2577	0.8379
2586	0.8342
2595	0.8301
2604	0.8253
2613	0.8205
2622	0.8161
2631	0.8118
2640	0.8076
2649	0.8033
2658	0.799
2667	0.7961
2676	0.7936
2685	0.795
2694	0.7978
2703	0.8008
2712	0.8031
2721	0.7995
2730	0.7947
2739	0.7904
2748	0.786
2757	0.7806
2766	0.7728
2775	0.7627
2784	0.7514
2793	0.7367
2802	0.706
2811	0.6629
2820	0.588
2829	0.3997
2838	0.216
2847	0.0246
2856	0.0163
2865	0.1153
2874	0.1703
2883	0.1917
2892	0.1157
2901	0.0563
2910	0.0319
2919	0.0155
2928	0.0111
2937	0.0115
2946	0.074
2955	0.0838
2964	0.2435
2973	0.3937
2982	0.5499
2991	0.6065
3000	0.6809
3009	0.7225
3018	0.7407
3027	0.7627
3036	0.7805
3045	0.7932
3054	0.8047
3063	0.8141
3072	0.8188
3081	0.8228
3090	0.8258
3099	0.828
3108	0.829
3117	0.8298
3126	0.8294
3135	0.8289
3144	0.8281
3153	0.8269
3162	0.8248
3171	0.8225
3180	0.82
3189	0.8164
3198	0.813
3207	0.8081
3216	0.8029
3225	0.7964
3234	0.7891
3243	0.7815
3252	0.7734
3261	0.7652
3270	0.7568
3279	0.7482
3288	0.7399
3297	0.7318
3306	0.7235
3315	0.713
3324	0.7071
3333	0.7022
3342	0.7
3351	0.6995
3360	0.7002
3369	0.7027
3378	0.7058
3387	0.7091
3396	0.7136
3405	0.7173
3414	0.7201
3423	0.7229
3432	0.7257
3441	0.7299
3450	0.7343
3459	0.7382
3468	0.7409
3477	0.7425
3486	0.7442
3495	0.7474
3504	0.7518
3513	0.757
3522	0.7632
3531	0.77
3540	0.7791
3549	0.7884
3558	0.7976
3567	0.8086
3576	0.8116
3585	0.8017
3594	0.8144
3603	0.8124
3612	0.7681
3621	0.7149
3630	0.6768
3639	0.6726
3648	0.7321
3657	0.7982
3666	0.8138
3675	0.8207
3684	0.8258
3693	0.8287
3702	0.8309
3711	0.8328
3720	0.8341
3729	0.8355
3738	0.8371
3747	0.8384
3756	0.8395
3765	0.8397
3774	0.8395
3783	0.8384
3792	0.8378
