Infrared Spectrum: 3-PHENYL RHODANINE
Formula: C9 H7 N O S2
CAS: 1457-46-1
State: SOLID (MINERAL OIL MULL)
Class: COBLENTZ
Instrument: Not specified, most likely a prism, grating, or hybrid spectrometer.
Sampling: TRANSMISSION
Resolution: 4
Origin: DOW CHEMICAL COMPANY
MICROMETERS	TRANSMITTANCE
2.034	0.535
2.07528	0.547
2.11656	0.554
2.15783	0.572
2.19911	0.579
2.24039	0.584
2.28167	0.586
2.32294	0.6
2.36422	0.612
2.4055	0.62
2.44678	0.634
2.48805	0.643
2.52933	0.65
2.57061	0.658
2.61189	0.682
2.65316	0.68
2.69444	0.699
2.73572	0.701
2.777	0.71
2.81827	0.716
2.85955	0.711
2.90083	0.711
2.94211	0.723
2.98339	0.728
3.02466	0.706
3.06594	0.646
3.10722	0.639
3.1485	0.703
3.18977	0.711
3.23105	0.699
3.27233	0.658
3.31361	0.62
3.35488	0.322
3.39616	0.084
3.43744	0.245
3.47872	0.329
3.51999	0.727
3.56127	0.801
3.60255	0.826
3.64383	0.826
3.6851	0.837
3.72638	0.843
3.76766	0.852
3.80894	0.861
3.85022	0.859
3.89149	0.881
3.93277	0.886
3.97405	0.9
4.01533	0.905
4.0566	0.91
4.09788	0.907
4.13916	0.902
4.18044	0.9
4.22171	0.893
4.26299	0.926
4.30427	0.943
4.34555	0.943
4.38682	0.921
4.4281	0.946
4.46938	0.948
4.51066	0.953
4.55193	0.955
4.59321	0.957
4.63449	0.96
4.67577	0.96
4.71705	0.965
4.75832	0.965
4.7996	0.97
4.84088	0.977
4.88216	0.982
4.92343	0.981
4.96471	0.981
5.00599	0.977
5.04727	0.97
5.08854	0.972
5.12982	0.987
5.1711	0.986
5.21238	0.974
5.25365	0.96
5.29493	0.963
5.33621	0.974
5.37749	1.006
5.41876	0.996
5.46004	0.993
5.50132	0.989
5.5426	0.967
5.58388	0.951
5.62515	0.893
5.66643	0.753
5.70771	0.457
5.74899	0.168
5.79026	0.274
5.83154	0.636
5.87282	0.77
5.9141	0.843
5.95537	0.876
5.99665	0.888
6.03793	0.873
6.07921	0.883
6.12048	0.891
6.16176	0.883
6.20304	0.879
6.24432	0.797
6.28559	0.797
6.32687	0.895
6.36815	0.881
6.40943	0.819
6.45071	0.783
6.49198	0.825
6.53326	0.852
6.57454	0.861
6.61582	0.811
6.65709	0.622
6.69837	0.607
6.73965	0.734
6.78093	0.636
6.8222	0.512
6.86348	0.5
6.90476	0.703
6.94604	0.828
6.98731	0.9
7.02859	0.924
7.06987	0.941
7.11115	0.902
7.15242	0.852
7.1937	0.708
7.23498	0.66
7.27626	0.684
7.31754	0.72
7.35881	0.528
7.40009	0.224
7.44137	0.457
7.48265	0.692
7.52392	0.72
7.5652	0.682
7.60648	0.773
7.64776	0.747
7.68903	0.696
7.73031	0.557
7.77159	0.596
7.81287	0.617
7.85414	0.603
7.89542	0.506
7.9367	0.267
7.97798	0.077
8.01925	0.041
8.06053	0.066
8.10181	0.065
8.14309	0.061
8.18437	0.233
8.22564	0.265
8.26692	0.271
8.3082	0.511
8.34948	0.62
8.39075	0.56
8.43203	0.348
8.47331	0.456
8.51459	0.433
8.55586	0.372
8.59714	0.559
8.63842	0.638
8.6797	0.722
8.72097	0.766
8.76225	0.794
8.80353	0.813
8.84481	0.825
8.88608	0.83
8.92736	0.802
8.96864	0.792
9.00992	0.833
9.0512	0.852
9.09247	0.862
9.13375	0.866
9.17503	0.861
9.21631	0.843
9.25758	0.811
9.29886	0.725
9.34014	0.687
9.38142	0.722
9.42269	0.692
9.46397	0.471
9.50525	0.473
9.54653	0.763
9.5878	0.819
9.62908	0.831
9.67036	0.843
9.71164	0.847
9.75291	0.833
9.79419	0.847
9.83547	0.881
9.87675	0.898
9.91803	0.903
9.9593	0.852
10.0006	0.881
10.0419	0.91
10.0831	0.915
10.1244	0.926
10.1657	0.922
10.207	0.903
10.2482	0.909
10.2895	0.926
10.3308	0.933
10.3721	0.931
10.4134	0.919
10.4546	0.933
10.4959	0.945
10.5372	0.95
10.5785	0.95
10.6197	0.95
10.661	0.931
10.7023	0.921
10.7436	0.931
10.7849	0.953
10.8261	0.955
10.8674	0.95
10.9087	0.934
10.95	0.948
10.9912	0.958
11.0325	0.96
11.0738	0.963
11.1151	0.965
11.1564	0.965
11.1976	0.948
11.2389	0.847
11.2802	0.715
11.3215	0.873
11.3627	0.934
11.404	0.951
11.4453	0.962
11.4866	0.967
11.5279	0.974
11.5691	0.984
11.6104	0.994
11.6517	0.991
11.693	0.96
11.7342	0.962
11.7755	0.981
11.8168	0.984
11.8581	0.977
11.8994	0.963
11.9406	0.953
11.9819	0.897
12.0232	0.728
12.0645	0.598
12.1057	0.677
12.147	0.787
12.1883	0.833
12.2296	0.876
12.2708	0.902
12.3121	0.922
12.3534	0.948
12.3947	0.967
12.436	0.982
12.4772	0.994
12.5185	1.001
12.5598	1.001
12.6011	0.998
12.6423	0.921
12.6836	0.828
12.7249	0.797
12.7662	0.864
12.8075	0.912
12.8487	0.939
12.89	0.946
12.9313	0.943
12.9726	0.921
13.0138	0.898
13.0551	0.869
13.0964	0.797
13.1377	0.634
13.179	0.49
13.2202	0.542
13.2615	0.718
13.3028	0.801
13.3441	0.85
13.3853	0.871
13.4266	0.89
13.4679	0.902
13.5092	0.909
13.5505	0.909
13.5917	0.902
13.633	0.893
13.6743	0.891
13.7156	0.886
13.7568	0.881
13.7981	0.873
13.8394	0.867
13.8807	0.862
13.922	0.866
13.9632	0.869
14.0045	0.861
14.0458	0.843
14.0871	0.819
14.1283	0.789
14.1696	0.742
14.2109	0.665
14.2522	0.554
14.2935	0.404
14.3347	0.296
14.376	0.246
14.4173	0.276
14.4586	0.382
14.4998	0.502
14.5411	0.603
14.5824	0.67
14.6237	0.708
14.665	0.722
14.7062	0.728
14.7475	0.728
14.7888	0.73
14.8301	0.728
14.8713	0.72
14.9126	0.708
14.9539	0.698
14.9952	0.686
15.0364	0.653
15.0777	0.62
15.119	0.581
15.1603	0.552
15.2016	0.538
15.2428	0.54
15.2841	0.564
15.3254	0.59
15.3667	0.603
15.4079	0.612
15.4492	0.615
15.4905	0.617
15.5318	0.617
15.5731	0.619
15.6143	0.612
15.6556	0.608
15.6969	0.605
15.7382	0.602
15.7794	0.596
15.8207	0.593
15.862	0.588
