Infrared Spectrum: 1-Methylcyclopentanol
Formula: C6 H12 O
CAS: 1462-03-9
State: SOLUTION (10% CCl4 FOR 3800-1330, 10% CS2 FOR 1330-460 CM^-^1)
Class: COBLENTZ III
Instrument: DOW KBr FOREPRISM-GRATING
Instrument parameters: BLAZED AT 3.5, 12.0, 20.0 MICRON AND CHANGED AT 5.0, 7.5, 14.9 MICRON
Sampling: TRANSMISSION
Path length: 0.010 CM, 0.010 CM
Resolution: 2
Origin: DOW CHEMICAL COMPANY
1/CM	TRANSMITTANCE
3800	0.9129
3791	0.9123
3782	0.909
3773	0.9083
3764	0.9079
3755	0.9079
3746	0.9088
3737	0.9111
3728	0.9112
3719	0.9098
3710	0.9098
3701	0.9085
3692	0.9051
3683	0.9013
3674	0.8989
3665	0.8967
3656	0.8948
3647	0.8922
3638	0.8891
3629	0.8766
3620	0.7633
3611	0.5998
3602	0.5791
3593	0.7407
3584	0.8186
3575	0.8269
3566	0.8285
3557	0.8167
3548	0.7733
3539	0.7114
3530	0.6509
3521	0.6035
3512	0.5664
3503	0.508
3494	0.4434
3485	0.4096
3476	0.3881
3467	0.3673
3458	0.3441
3449	0.328
3440	0.3123
3431	0.2971
3422	0.2812
3413	0.2646
3404	0.2458
3395	0.2272
3386	0.2124
3377	0.2012
3368	0.1947
3359	0.1929
3350	0.1951
3341	0.2023
3332	0.2168
3323	0.2403
3314	0.2714
3305	0.3056
3296	0.3442
3287	0.3761
3278	0.4174
3269	0.473
3260	0.5279
3251	0.5588
3242	0.5908
3233	0.6229
3224	0.6519
3215	0.6756
3206	0.7009
3197	0.7283
3188	0.7487
3179	0.7651
3170	0.7809
3161	0.7945
3152	0.8074
3143	0.8165
3134	0.8276
3125	0.8353
3116	0.842
3107	0.8484
3098	0.8519
3089	0.8545
3080	0.8526
3071	0.8534
3062	0.8468
3053	0.8392
3044	0.8328
3035	0.8219
3026	0.7994
3017	0.7668
3008	0.6658
2999	0.5844
2990	0.2684
2981	0.1102
2972	0.0096
2963	0.0046
2954	0.0092
2945	0.0369
2936	0.0591
2927	0.0784
2918	0.1606
2909	0.1885
2900	0.248
2891	0.3186
2882	0.2127
2873	0.126
2864	0.2812
2855	0.3043
2846	0.6328
2837	0.702
2828	0.7393
2819	0.764
2810	0.7845
2801	0.8072
2792	0.823
2783	0.8294
2774	0.8369
2765	0.8447
2756	0.853
2747	0.8617
2738	0.8692
2729	0.8723
2720	0.8746
2711	0.8796
2702	0.8849
2693	0.8901
2684	0.8939
2675	0.8971
2666	0.9006
2657	0.9052
2648	0.9068
2639	0.9071
2630	0.9051
2621	0.9035
2612	0.9003
2603	0.8981
2594	0.8963
2585	0.896
2576	0.8983
2567	0.9009
2558	0.9038
2549	0.906
2540	0.9073
2531	0.9081
2522	0.9089
2513	0.9097
2504	0.911
2495	0.9122
2486	0.9145
2477	0.919
2468	0.9223
2459	0.9254
2450	0.9248
2441	0.9253
2432	0.9249
2423	0.9245
2414	0.9246
2405	0.9258
2396	0.9253
2387	0.9269
2378	0.932
2369	0.9353
2360	0.9381
2351	0.9429
2342	0.9443
2333	0.9438
2324	0.9422
2315	0.9338
2306	0.9261
2297	0.9216
2288	0.9188
2279	0.9194
2270	0.9194
2261	0.9203
2252	0.9216
2243	0.9227
2234	0.9229
2225	0.9241
2216	0.9238
2207	0.9239
2198	0.9239
2189	0.9228
2180	0.9232
2171	0.9248
2162	0.9239
2153	0.9244
2144	0.9251
2135	0.9255
2126	0.9259
2117	0.9262
2108	0.9263
2099	0.9262
2090	0.9256
2081	0.9251
2072	0.9243
2063	0.9239
2054	0.9259
2045	0.9249
2036	0.9254
2027	0.9254
2018	0.9237
2009	0.9216
2000	0.9165
1991	0.9129
1982	0.9208
1973	0.9173
1964	0.9155
1955	0.9196
1946	0.9195
1937	0.9188
1928	0.9188
1919	0.9191
1910	0.9195
1901	0.922
1892	0.9235
1883	0.9225
1874	0.9216
1865	0.9193
1856	0.9178
1847	0.9166
1838	0.9157
1829	0.9144
1820	0.915
1811	0.9179
1802	0.9187
1793	0.9218
1784	0.9244
1775	0.925
1766	0.9269
1757	0.9293
1748	0.9296
1739	0.9276
1730	0.9256
1721	0.9226
1712	0.92
1703	0.9186
1694	0.9167
1685	0.9146
1676	0.9123
1667	0.9107
1658	0.9077
1649	0.9059
1640	0.9055
1631	0.9074
1622	0.9101
1613	0.9077
1604	0.8795
1595	0.869
1586	0.8532
1577	0.8499
1568	0.8372
1559	0.7874
1550	0.8056
1541	0.8396
1532	0.8368
1523	0.8328
1514	0.832
1505	0.8243
1496	0.819
1487	0.7835
1478	0.6636
1469	0.6148
1460	0.4293
1451	0.3573
1442	0.5089
1433	0.6132
1424	0.7071
1415	0.6846
1406	0.6258
1397	0.563
1388	0.5267
1379	0.2692
1370	0.4144
1361	0.521
1352	0.5815
1343	0.6614
1334	0.6362
1325	0.4798
1316	0.4481
1307	0.5398
1298	0.5201
1289	0.5106
1280	0.5039
1271	0.522
1262	0.5441
1253	0.5437
1244	0.5338
1235	0.5184
1226	0.4791
1217	0.3118
1208	0.2367
1199	0.3001
1190	0.3389
1181	0.409
1172	0.4785
1163	0.4957
1154	0.4643
1145	0.4806
1136	0.5172
1127	0.4732
1118	0.4227
1109	0.4145
1100	0.5001
1091	0.6376
1082	0.706
1073	0.7351
1064	0.7429
1055	0.7093
1046	0.4644
1037	0.2991
1028	0.3986
1019	0.4505
1010	0.5803
1001	0.7362
992	0.7821
983	0.7852
974	0.7249
965	0.7955
956	0.7885
947	0.6333
938	0.4577
929	0.3378
920	0.5173
911	0.4176
902	0.3443
893	0.5738
884	0.538
875	0.6203
866	0.7266
857	0.7534
848	0.7552
839	0.7426
830	0.7231
821	0.7147
812	0.7376
803	0.7599
794	0.7732
785	0.781
776	0.7819
767	0.7844
758	0.7879
749	0.7859
740	0.7796
731	0.7722
722	0.7673
713	0.7596
704	0.7521
695	0.7445
686	0.7284
677	0.714
668	0.6855
659	0.6612
650	0.6602
641	0.6563
632	0.6546
623	0.6556
614	0.6564
605	0.6544
596	0.639
587	0.628
578	0.6333
569	0.6419
560	0.6557
551	0.6659
542	0.6765
533	0.6879
524	0.6956
515	0.6993
506	0.7012
497	0.7027
488	0.6971
479	0.687
470	0.6733
461	0.6612
