Infrared Spectrum: 2-HYDROXY-5-METHYLBENZOPHENONE
Formula: C14 H12 O2
CAS: 1470-57-1
State: SOLUTION (10% IN CCl4 FOR 5000-1350 CM^-^1, 10% IN CS2 FOR 1350-625 CM^-^1)
Class: COBLENTZ
Instrument: Not specified, most likely a prism, grating, or hybrid spectrometer.
Sampling: TRANSMISSION
Path length: 0.01 CM, 0.01 CM
Resolution: 4
Origin: DOW CHEMICAL COMPANY
MICROMETERS	TRANSMITTANCE
2.05	0.845
2.0893	0.843
2.12859	0.839
2.16789	0.837
2.20718	0.842
2.24648	0.84
2.28577	0.842
2.32507	0.845
2.36437	0.85
2.40366	0.847
2.44296	0.843
2.48225	0.856
2.52155	0.86
2.56084	0.861
2.60014	0.861
2.63944	0.86
2.67873	0.855
2.71803	0.853
2.75732	0.848
2.79662	0.84
2.83592	0.83
2.87521	0.817
2.91451	0.795
2.9538	0.759
2.9931	0.741
3.03239	0.697
3.07169	0.655
3.11099	0.626
3.15028	0.619
3.18958	0.591
3.22887	0.541
3.26817	0.486
3.30746	0.534
3.34676	0.573
3.38606	0.549
3.42535	0.617
3.46465	0.661
3.50394	0.738
3.54324	0.762
3.58253	0.775
3.62183	0.777
3.66113	0.785
3.70042	0.806
3.73972	0.83
3.77901	0.826
3.81831	0.827
3.8576	0.835
3.8969	0.85
3.9362	0.845
3.97549	0.86
4.01479	0.865
4.05408	0.865
4.09338	0.866
4.13267	0.873
4.17197	0.863
4.21127	0.843
4.25056	0.839
4.28986	0.855
4.32915	0.866
4.36845	0.868
4.40775	0.878
4.44704	0.886
4.48634	0.889
4.52563	0.884
4.56493	0.887
4.60422	0.891
4.64352	0.891
4.68282	0.891
4.72211	0.889
4.76141	0.879
4.8007	0.879
4.84	0.881
4.87929	0.879
4.91859	0.873
4.95789	0.874
4.99718	0.868
5.03648	0.861
5.07577	0.842
5.11507	0.876
5.15436	0.861
5.19366	0.824
5.23296	0.843
5.27225	0.861
5.31155	0.871
5.35084	0.843
5.39014	0.853
5.42943	0.852
5.46873	0.821
5.50803	0.845
5.54732	0.829
5.58662	0.811
5.62591	0.834
5.66521	0.845
5.7045	0.842
5.7438	0.827
5.7831	0.813
5.82239	0.801
5.86169	0.801
5.90098	0.78
5.94028	0.741
5.97958	0.678
6.01887	0.564
6.05817	0.305
6.09746	0.066
6.13676	0.086
6.17605	0.105
6.21535	0.052
6.25465	0.102
6.29394	0.13
6.33324	0.23
6.37253	0.297
6.41183	0.299
6.45112	0.328
6.49042	0.416
6.52972	0.448
6.56901	0.453
6.60831	0.422
6.6476	0.269
6.6869	0.136
6.72619	0.05
6.76549	0.33
6.80479	0.44
6.84408	0.442
6.88338	0.386
6.92267	0.582
6.96197	0.632
7.00126	0.669
7.04056	0.611
7.07986	0.541
7.11915	0.53
7.15845	0.51
7.19774	0.507
7.23704	0.51
7.27633	0.448
7.31563	0.346
7.35493	0.226
7.39422	0.126
7.43352	0.05
7.47281	0.047
7.51211	0.18
7.55141	0.385
7.5907	0.45
7.63	0.276
7.66929	0.102
7.70859	0.086
7.74788	0.375
7.78718	0.549
7.82648	0.52
7.86577	0.499
7.90507	0.45
7.94436	0.268
7.98366	0.074
8.02295	0.068
8.06225	0.138
8.10155	0.095
8.14084	0.029
8.18014	0.05
8.21943	0.097
8.25873	0.134
8.29802	0.38
8.33732	0.539
8.37662	0.559
8.41591	0.481
8.45521	0.422
8.4945	0.603
8.5338	0.676
8.57309	0.699
8.61239	0.707
8.65169	0.713
8.69098	0.661
8.73028	0.512
8.76957	0.297
8.80887	0.45
8.84816	0.647
8.88746	0.65
8.92676	0.671
8.96605	0.77
9.00535	0.795
9.04464	0.813
9.08394	0.821
9.12324	0.822
9.16253	0.826
9.20183	0.796
9.24112	0.734
9.28042	0.684
9.31971	0.775
9.35901	0.809
9.39831	0.809
9.4376	0.813
9.4769	0.804
9.51619	0.778
9.55549	0.765
9.59478	0.777
9.63408	0.772
9.67338	0.71
9.71267	0.733
9.75197	0.814
9.79126	0.84
9.83056	0.848
9.86985	0.853
9.90915	0.826
9.94845	0.769
9.98774	0.796
10.027	0.84
10.0663	0.834
10.1056	0.832
10.1449	0.832
10.1842	0.814
10.2235	0.762
10.2628	0.718
10.3021	0.661
10.3414	0.502
10.3807	0.294
10.42	0.126
10.4593	0.33
10.4986	0.619
10.5379	0.76
10.5772	0.798
10.6165	0.806
10.6558	0.801
10.6951	0.772
10.7344	0.741
10.7737	0.721
10.813	0.749
10.8522	0.775
10.8915	0.791
10.9308	0.8
10.9701	0.793
11.0094	0.782
11.0487	0.77
11.088	0.741
11.1273	0.691
11.1666	0.682
11.2059	0.72
11.2452	0.733
11.2845	0.72
11.3238	0.699
11.3631	0.663
11.4024	0.634
11.4417	0.609
11.481	0.58
11.5203	0.541
11.5596	0.452
11.5989	0.274
11.6382	0.198
11.6775	0.373
11.7168	0.476
11.7561	0.538
11.7953	0.549
11.8346	0.572
11.8739	0.6
11.9132	0.6
11.9525	0.556
11.9918	0.487
12.0311	0.26
12.0704	0.095
12.1097	0.092
12.149	0.282
12.1883	0.408
12.2276	0.455
12.2669	0.442
12.3062	0.378
12.3455	0.292
12.3848	0.287
12.4241	0.386
12.4634	0.468
12.5027	0.486
12.542	0.471
12.5813	0.424
12.6206	0.325
12.6599	0.23
12.6991	0.191
12.7384	0.291
12.7777	0.339
12.817	0.343
12.8563	0.33
12.8956	0.308
12.9349	0.279
12.9742	0.25
13.0135	0.226
13.0528	0.203
13.0921	0.18
13.1314	0.16
13.1707	0.147
13.21	0.138
13.2493	0.133
13.2886	0.149
13.3279	0.18
13.3672	0.26
13.4065	0.338
13.4458	0.416
13.4851	0.455
13.5244	0.466
13.5637	0.465
13.603	0.458
13.6422	0.453
13.6815	0.452
13.7208	0.452
13.7601	0.453
13.7994	0.458
13.8387	0.458
13.878	0.455
13.9173	0.45
13.9566	0.443
13.9959	0.427
14.0352	0.4
14.0745	0.344
14.1138	0.265
14.1531	0.175
14.1924	0.068
14.2317	0.011
14.271	0.013
14.3103	0.079
14.3496	0.182
14.3889	0.3
14.4282	0.354
14.4675	0.39
14.5068	0.414
14.546	0.435
14.5853	0.448
14.6246	0.463
14.6639	0.468
14.7032	0.468
14.7425	0.463
14.7818	0.453
14.8211	0.44
14.8604	0.43
14.8997	0.417
14.939	0.4
14.9783	0.38
15.0176	0.339
15.0569	0.286
15.0962	0.23
15.1355	0.149
15.1748	0.082
15.2141	0.058
15.2534	0.076
15.2927	0.128
15.332	0.204
15.3713	0.282
15.4106	0.321
15.4499	0.349
15.4891	0.364
15.5284	0.37
15.5677	0.373
15.607	0.375
15.6463	0.373
15.6856	0.369
15.7249	0.365
15.7642	0.357
15.8035	0.352
15.8428	0.349
15.8821	0.352
15.9214	0.354
