Infrared Spectrum: 2,5-DICHLORO-Alpha-METHYLBENZYL ALCOHOL
Formula: C8 H8 Cl2 O
CAS: 1475-12-3
State: SOLUTION (10% CCl4 FOR 2.5-7.5, 10% CS2 FOR 7.5-15 MICRON)
Class: COBLENTZ
Instrument: Not specified, most likely a prism, grating, or hybrid spectrometer.
Sampling: TRANSMISSION
Path length: 0.01 CM, 0.01 CM
Resolution: 4
Origin: DOW CHEMICAL COMPANY
MICROMETERS	TRANSMITTANCE
2.048	0.8
2.08711	0.801
2.12622	0.801
2.16533	0.811
2.20444	0.816
2.24355	0.816
2.28266	0.814
2.32177	0.813
2.36088	0.817
2.39999	0.817
2.4391	0.819
2.47822	0.821
2.51733	0.821
2.55644	0.821
2.59555	0.827
2.63466	0.826
2.67377	0.826
2.71288	0.803
2.75199	0.632
2.7911	0.609
2.83021	0.678
2.86932	0.539
2.90843	0.487
2.94754	0.458
2.98665	0.463
3.02576	0.505
3.06487	0.575
3.10398	0.66
3.14309	0.723
3.1822	0.764
3.22131	0.777
3.26042	0.775
3.29954	0.8
3.33865	0.619
3.37776	0.588
3.41687	0.666
3.45598	0.712
3.49509	0.769
3.5342	0.801
3.57331	0.821
3.61242	0.83
3.65153	0.83
3.69064	0.83
3.72975	0.839
3.76886	0.842
3.80797	0.848
3.84708	0.848
3.88619	0.852
3.9253	0.86
3.96441	0.858
4.00352	0.858
4.04263	0.861
4.08174	0.869
4.12086	0.866
4.15997	0.868
4.19908	0.871
4.23819	0.871
4.2773	0.869
4.31641	0.863
4.35552	0.856
4.39463	0.863
4.43374	0.879
4.47285	0.882
4.51196	0.886
4.55107	0.894
4.59018	0.894
4.62929	0.892
4.6684	0.894
4.70751	0.895
4.74662	0.894
4.78573	0.894
4.82484	0.894
4.86395	0.892
4.90306	0.892
4.94218	0.892
4.98129	0.892
5.0204	0.889
5.05951	0.892
5.09862	0.892
5.13773	0.892
5.17684	0.891
5.21595	0.891
5.25506	0.887
5.29417	0.842
5.33328	0.86
5.37239	0.879
5.4115	0.879
5.45061	0.874
5.48972	0.878
5.52883	0.878
5.56794	0.869
5.60705	0.861
5.64616	0.861
5.68527	0.863
5.72438	0.865
5.7635	0.873
5.80261	0.873
5.84172	0.869
5.88083	0.868
5.91994	0.868
5.95905	0.868
5.99816	0.863
6.03727	0.852
6.07638	0.832
6.11549	0.801
6.1546	0.783
6.19371	0.749
6.23282	0.665
6.27193	0.531
6.31104	0.508
6.35015	0.517
6.38926	0.422
6.42837	0.401
6.46748	0.419
6.50659	0.502
6.5457	0.551
6.58482	0.6
6.62393	0.66
6.66304	0.702
6.70215	0.681
6.74126	0.582
6.78037	0.391
6.81948	0.143
6.85859	0.147
6.8977	0.349
6.93681	0.531
6.97592	0.6
7.01503	0.627
7.05414	0.603
7.09325	0.51
7.13236	0.406
7.17147	0.343
7.21058	0.461
7.24969	0.46
7.2888	0.455
7.32791	0.495
7.36702	0.547
7.40613	0.559
7.44525	0.531
7.48436	0.531
7.52347	0.624
7.56258	0.691
7.60169	0.731
7.6408	0.731
7.67991	0.705
7.71902	0.681
7.75813	0.661
7.79724	0.65
7.83635	0.613
7.87546	0.546
7.91457	0.445
7.95368	0.4
7.99279	0.395
8.0319	0.515
8.07101	0.65
8.11012	0.71
8.14923	0.746
8.18834	0.764
8.22745	0.772
8.26657	0.731
8.30568	0.596
8.34479	0.487
8.3839	0.528
8.42301	0.6
8.46212	0.648
8.50123	0.689
8.54034	0.733
8.57945	0.754
8.61856	0.765
8.65767	0.765
8.69678	0.738
8.73589	0.671
8.775	0.512
8.81411	0.414
8.85322	0.536
8.89233	0.697
8.93144	0.712
8.97055	0.619
9.00966	0.486
9.04877	0.222
9.08789	0.082
9.127	0.092
9.16611	0.105
9.20522	0.164
9.24433	0.351
9.28344	0.429
9.32255	0.437
9.36166	0.432
9.40077	0.424
9.43988	0.382
9.47899	0.295
9.5181	0.235
9.55721	0.196
9.59632	0.183
9.63543	0.248
9.67454	0.347
9.71365	0.474
9.75276	0.528
9.79187	0.536
9.83098	0.502
9.87009	0.484
9.90921	0.521
9.94832	0.645
9.98743	0.723
10.0265	0.782
10.0656	0.803
10.1048	0.822
10.1439	0.835
10.183	0.842
10.2221	0.848
10.2612	0.848
10.3003	0.85
10.3394	0.85
10.3785	0.85
10.4176	0.848
10.4568	0.842
10.4959	0.837
10.535	0.826
10.5741	0.813
10.6132	0.788
10.6523	0.785
10.6914	0.793
10.7305	0.8
10.7696	0.793
10.8087	0.778
10.8479	0.718
10.887	0.622
10.9261	0.51
10.9652	0.388
11.0043	0.326
11.0434	0.367
11.0825	0.469
11.1216	0.541
11.1607	0.515
11.1999	0.422
11.239	0.421
11.2781	0.489
11.3172	0.538
11.3563	0.58
11.3954	0.632
11.4345	0.665
11.4736	0.676
11.5127	0.661
11.5518	0.637
11.591	0.637
11.6301	0.645
11.6692	0.648
11.7083	0.652
11.7474	0.656
11.7865	0.669
11.8256	0.679
11.8647	0.679
11.9038	0.627
11.943	0.58
11.9821	0.562
12.0212	0.59
12.0603	0.632
12.0994	0.648
12.1385	0.619
12.1776	0.593
12.2167	0.539
12.2558	0.4
12.2949	0.186
12.3341	0.073
12.3732	0.1
12.4123	0.356
12.4514	0.569
12.4905	0.668
12.5296	0.713
12.5687	0.747
12.6078	0.765
12.6469	0.778
12.686	0.786
12.7252	0.786
12.7643	0.788
12.8034	0.791
12.8425	0.791
12.8816	0.791
12.9207	0.791
12.9598	0.791
12.9989	0.793
13.038	0.79
13.0772	0.788
13.1163	0.783
13.1554	0.78
13.1945	0.777
13.2336	0.772
13.2727	0.77
13.3118	0.764
13.3509	0.759
13.39	0.751
13.4291	0.747
13.4683	0.741
13.5074	0.738
13.5465	0.731
13.5856	0.725
13.6247	0.715
13.6638	0.702
13.7029	0.697
13.742	0.694
13.7811	0.689
13.8203	0.674
13.8594	0.648
13.8985	0.629
13.9376	0.617
13.9767	0.614
14.0158	0.601
14.0549	0.578
14.094	0.564
14.1331	0.562
14.1722	0.575
14.2114	0.588
14.2505	0.601
14.2896	0.601
14.3287	0.601
14.3678	0.6
14.4069	0.595
14.446	0.591
14.4851	0.59
14.5242	0.583
14.5634	0.577
14.6025	0.572
14.6416	0.565
14.6807	0.557
14.7198	0.551
14.7589	0.543
14.798	0.536
14.8371	0.523
14.8762	0.52
14.9153	0.518
14.9545	0.512
14.9936	0.502
15.0327	0.491
15.0718	0.479
15.1109	0.469
15.15	0.465
15.1891	0.46
15.2282	0.452
15.2673	0.445
15.3065	0.435
15.3456	0.429
15.3847	0.424
15.4238	0.419
15.4629	0.416
15.502	0.411
15.5411	0.403
15.5802	0.401
15.6193	0.396
15.6584	0.393
15.6976	0.395
15.7367	0.39
15.7758	0.39
15.8149	0.388
15.854	0.388
15.8931	0.388
