Infrared Spectrum: ORTHO VANILLIN
Formula: C8 H8 O3
CAS: 148-53-8
State: SOLUTION (10% CCl4 FOR 5000-1330, 10% CS2 FOR 1330-625 CM^-^1)
Class: COBLENTZ
Instrument: Not specified, most likely a prism, grating, or hybrid spectrometer.
Sampling: TRANSMISSION
Path length: 0.005 CM
Resolution: 4
Origin: WYANDOTTE CHEMICALS CORP., WYANDOTTE, MICHIGAN, USA
MICROMETERS	TRANSMITTANCE
2.026	0.995
2.06474	0.995
2.10349	0.995
2.14223	0.991
2.18098	0.977
2.21972	0.98
2.25847	0.985
2.29721	0.988
2.33595	0.988
2.3747	0.99
2.41344	0.99
2.45219	0.988
2.49093	0.987
2.52968	0.987
2.56842	0.983
2.60717	0.991
2.64591	0.995
2.68465	0.998
2.7234	1
2.76214	1
2.80089	0.99
2.83963	0.954
2.87838	0.857
2.91712	0.852
2.95586	0.837
2.99461	0.813
3.03335	0.784
3.0721	0.715
3.11084	0.678
3.14959	0.642
3.18833	0.566
3.22708	0.537
3.26582	0.53
3.30456	0.487
3.34331	0.524
3.38205	0.569
3.4208	0.446
3.45954	0.517
3.49829	0.573
3.53703	0.524
3.57577	0.282
3.61452	0.719
3.65326	0.771
3.69201	0.67
3.73075	0.779
3.7695	0.845
3.80824	0.873
3.84699	0.886
3.88573	0.879
3.92447	0.878
3.96322	0.897
4.00196	0.896
4.04071	0.912
4.07945	0.918
4.1182	0.93
4.15694	0.933
4.19568	0.939
4.23443	0.954
4.27317	0.964
4.31192	0.967
4.35066	0.987
4.38941	0.993
4.42815	0.983
4.46689	0.977
4.50564	0.978
4.54438	0.99
4.58313	0.991
4.62187	0.978
4.66062	0.978
4.69936	0.978
4.73811	0.982
4.77685	0.99
4.81559	0.975
4.85434	0.98
4.89308	0.991
4.93183	0.993
4.97057	0.978
5.00932	0.949
5.04806	0.948
5.0868	0.967
5.12555	0.961
5.16429	0.956
5.20304	0.975
5.24178	0.974
5.28053	0.957
5.31927	0.922
5.35802	0.928
5.39676	0.961
5.4355	0.97
5.47425	0.964
5.51299	0.948
5.55174	0.933
5.59048	0.954
5.62923	0.954
5.66797	0.928
5.70671	0.915
5.74546	0.899
5.7842	0.897
5.82295	0.824
5.86169	0.769
5.90044	0.628
5.93918	0.233
5.97792	0.11
6.01667	0.034
6.05541	0.019
6.09416	0.056
6.1329	0.337
6.17165	0.373
6.21039	0.462
6.24914	0.443
6.28788	0.29
6.32662	0.563
6.36537	0.707
6.40411	0.719
6.44286	0.724
6.4816	0.724
6.52035	0.717
6.55909	0.685
6.59783	0.631
6.63658	0.555
6.67532	0.381
6.71407	0.146
6.75281	0.021
6.79156	0.03
6.8303	0.021
6.86905	0.025
6.90779	0.037
6.94653	0.063
6.98528	0.202
7.02402	0.357
7.06277	0.415
7.10151	0.459
7.14026	0.469
7.179	0.297
7.21774	0.038
7.25649	0.202
7.29523	0.469
7.33398	0.509
7.37272	0.462
7.41147	0.454
7.45021	0.454
7.48896	0.402
7.5277	0.215
7.56644	0.087
7.60519	0.11
7.64393	0.18
7.68268	0.178
7.72142	0.204
7.76017	0.181
7.79891	0.056
7.83765	0.012
7.8764	0.016
7.91514	0.017
7.95389	0.012
7.99263	0.012
8.03138	0.012
8.07012	0.038
8.10886	0.112
8.14761	0.147
8.18635	0.168
8.2251	0.05
8.26384	0.102
8.30259	0.345
8.34133	0.475
8.38008	0.543
8.41882	0.542
8.45756	0.493
8.49631	0.613
8.53505	0.646
8.5738	0.426
8.61254	0.503
8.65129	0.613
8.69003	0.683
8.72877	0.733
8.76752	0.792
8.80626	0.814
8.84501	0.819
8.88375	0.81
8.9225	0.788
8.96124	0.754
8.99999	0.709
9.03873	0.706
9.07747	0.683
9.11622	0.55
9.15496	0.433
9.19371	0.41
9.23245	0.243
9.2712	0.181
9.30994	0.141
9.34868	0.183
9.38743	0.394
9.42617	0.608
9.46492	0.696
9.50366	0.733
9.54241	0.741
9.58115	0.743
9.6199	0.707
9.65864	0.655
9.69738	0.707
9.73613	0.756
9.77487	0.774
9.81362	0.784
9.85236	0.792
9.89111	0.8
9.92985	0.805
9.96859	0.806
10.0073	0.829
10.0461	0.845
10.0848	0.849
10.1236	0.849
10.1623	0.845
10.2011	0.84
10.2398	0.826
10.2785	0.803
10.3173	0.754
10.356	0.672
10.3948	0.524
10.4335	0.357
10.4723	0.183
10.511	0.034
10.5498	0.063
10.5885	0.277
10.6272	0.524
10.666	0.688
10.7047	0.764
10.7435	0.797
10.7822	0.818
10.821	0.831
10.8597	0.842
10.8985	0.85
10.9372	0.855
10.9759	0.855
11.0147	0.837
11.0534	0.8
11.0922	0.772
11.1309	0.762
11.1697	0.777
11.2084	0.798
11.2472	0.81
11.2859	0.814
11.3246	0.811
11.3634	0.805
11.4021	0.801
11.4409	0.818
11.4796	0.845
11.5184	0.857
11.5571	0.86
11.5959	0.86
11.6346	0.862
11.6733	0.858
11.7121	0.847
11.7508	0.821
11.7896	0.775
11.8283	0.691
11.8671	0.603
11.9058	0.551
11.9446	0.383
11.9833	0.306
12.022	0.576
12.0608	0.714
12.0995	0.756
12.1383	0.782
12.177	0.814
12.2158	0.827
12.2545	0.842
12.2933	0.844
12.332	0.839
12.3707	0.834
12.4095	0.842
12.4482	0.832
12.487	0.834
12.5257	0.819
12.5645	0.808
12.6032	0.777
12.642	0.738
12.6807	0.685
12.7194	0.641
12.7582	0.61
12.7969	0.574
12.8357	0.498
12.8744	0.371
12.9132	0.232
12.9519	0.185
12.9907	0.297
13.0294	0.397
13.0681	0.433
13.1069	0.433
13.1456	0.426
13.1844	0.409
13.2231	0.387
13.2619	0.352
13.3006	0.314
13.3394	0.266
13.3781	0.225
13.4168	0.18
13.4556	0.139
13.4943	0.103
13.5331	0.066
13.5718	0.051
13.6106	0.043
13.6493	0.04
13.6881	0.04
13.7268	0.053
13.7655	0.069
13.8043	0.081
13.843	0.077
13.8818	0.068
13.9205	0.051
13.9593	0.053
13.998	0.058
14.0368	0.089
14.0755	0.129
14.1142	0.186
14.153	0.241
14.1917	0.293
14.2305	0.323
14.2692	0.355
14.308	0.375
14.3467	0.389
14.3855	0.387
14.4242	0.389
14.4629	0.4
14.5017	0.439
14.5404	0.488
14.5792	0.543
14.6179	0.586
14.6567	0.623
14.6954	0.654
14.7342	0.678
14.7729	0.702
14.8116	0.719
14.8504	0.737
14.8891	0.745
14.9279	0.751
14.9666	0.758
15.0054	0.762
15.0441	0.758
15.0829	0.75
15.1216	0.762
15.1603	0.769
15.1991	0.774
15.2378	0.767
15.2766	0.761
15.3153	0.746
15.3541	0.735
15.3928	0.725
15.4315	0.702
15.4703	0.693
15.509	0.665
15.5478	0.641
15.5865	0.618
15.6253	0.602
15.664	0.608
15.7028	0.639
15.7415	0.668
15.7802	0.688
15.819	0.699
15.8577	0.704
15.8965	0.715
15.9352	0.715
15.974	0.715
