Infrared Spectrum: Propionitrile, 3-(N-ethylanilino)-
Formula: C11 H14 N2
CAS: 148-87-8
State: SOLUTION (10% CCl4 FOR 3800-1330, 10% CS2 FOR 1330-400 CM^-^1)
Class: COBLENTZ III
Instrument: DOW KBr FOREPRISM-GRATING
Instrument parameters: BLAZED AT 3.5, 12.0, 20.0 MICRON AND CHANGED AT 5.0, 7.5, 14.9 MICRON
Sampling: TRANSMISSION
Path length: 0.011 CM, 0.011 CM
Resolution: 2
Origin: DOW CHEMICAL COMPANY
1/CM	TRANSMITTANCE
3790	0.9094
3781	0.9074
3772	0.9062
3763	0.9045
3754	0.9016
3745	0.8979
3736	0.8995
3727	0.9002
3718	0.9004
3709	0.9031
3700	0.902
3691	0.8994
3682	0.8965
3673	0.895
3664	0.8969
3655	0.9002
3646	0.9
3637	0.9036
3628	0.9047
3619	0.9021
3610	0.9007
3601	0.9025
3592	0.903
3583	0.8974
3574	0.8973
3565	0.9004
3556	0.9009
3547	0.9027
3538	0.9014
3529	0.9001
3520	0.8998
3511	0.9006
3502	0.9026
3493	0.9042
3484	0.9052
3475	0.9062
3466	0.9074
3457	0.9082
3448	0.9086
3439	0.909
3430	0.9094
3421	0.9094
3412	0.9098
3403	0.9098
3394	0.9091
3385	0.9083
3376	0.9076
3367	0.9075
3358	0.9075
3349	0.9075
3340	0.9079
3331	0.909
3322	0.91
3313	0.9108
3304	0.9122
3295	0.9113
3286	0.9122
3277	0.9128
3268	0.9141
3259	0.9129
3250	0.9106
3241	0.9072
3232	0.9074
3223	0.909
3214	0.9092
3205	0.9049
3196	0.8983
3187	0.8947
3178	0.8948
3169	0.896
3160	0.8985
3151	0.8979
3142	0.8956
3133	0.895
3124	0.8817
3115	0.8517
3106	0.8262
3097	0.6707
3088	0.7236
3079	0.7648
3070	0.6616
3061	0.6501
3052	0.6824
3043	0.6375
3034	0.6249
3025	0.6052
3016	0.7477
3007	0.7613
2998	0.6229
2989	0.4415
2980	0.2593
2971	0.3115
2962	0.4396
2953	0.5265
2944	0.5187
2935	0.4585
2926	0.4725
2917	0.5654
2908	0.6068
2899	0.5408
2890	0.5233
2881	0.5268
2872	0.5469
2863	0.6683
2854	0.6986
2845	0.7139
2836	0.7301
2827	0.7523
2818	0.7759
2809	0.7969
2800	0.8291
2791	0.846
2782	0.8532
2773	0.8621
2764	0.869
2755	0.8741
2746	0.8786
2737	0.8817
2728	0.8839
2719	0.884
2710	0.8836
2701	0.8827
2692	0.8818
2683	0.8816
2674	0.8825
2665	0.8841
2656	0.8872
2647	0.889
2638	0.8892
2629	0.8917
2620	0.8909
2611	0.8883
2602	0.8863
2593	0.8857
2584	0.8852
2575	0.8838
2566	0.8852
2557	0.8871
2548	0.8894
2539	0.8919
2530	0.8931
2521	0.895
2512	0.8969
2503	0.8986
2494	0.9001
2485	0.901
2476	0.9033
2467	0.904
2458	0.9039
2449	0.9048
2440	0.9057
2431	0.9066
2422	0.9076
2413	0.9082
2404	0.9104
2395	0.9103
2386	0.9113
2377	0.9145
2368	0.9129
2359	0.9111
2350	0.9106
2341	0.9087
2332	0.9046
2323	0.9052
2314	0.9036
2305	0.9055
2296	0.9088
2287	0.9088
2278	0.9064
2269	0.8956
2260	0.8225
2251	0.639
2242	0.8503
2233	0.8817
2224	0.8969
2215	0.9054
2206	0.9148
2197	0.9147
2188	0.9142
2179	0.9172
2170	0.9222
2161	0.9234
2152	0.9254
2143	0.926
2134	0.9247
2125	0.9231
2116	0.9222
2107	0.9215
2098	0.9203
2089	0.9216
2080	0.9232
2071	0.9239
2062	0.9216
2053	0.9251
2044	0.9263
2035	0.9234
2026	0.9241
2017	0.9262
2008	0.9241
1999	0.9049
1990	0.9345
1981	0.9362
1972	0.9366
1963	0.9468
1954	0.9405
1945	0.9326
1936	0.911
1927	0.8997
1918	0.8738
1909	0.8879
1900	0.9101
1891	0.9249
1882	0.9314
1873	0.9354
1864	0.9347
1855	0.9384
1846	0.931
1837	0.9296
1828	0.9181
1819	0.9168
1810	0.9181
1801	0.9252
1792	0.9282
1783	0.9301
1774	0.9258
1765	0.9206
1756	0.916
1747	0.9207
1738	0.9218
1729	0.9174
1720	0.913
1711	0.9057
1702	0.8865
1693	0.8829
1684	0.8736
1675	0.8625
1666	0.8416
1657	0.8414
1648	0.8486
1639	0.8405
1630	0.7984
1621	0.6995
1612	0.3168
1603	0.0395
1594	0.0784
1585	0.5013
1576	0.4372
1567	0.6712
1558	0.7107
1549	0.7776
1540	0.7697
1531	0.756
1522	0.6496
1513	0.1707
1504	0.0201
1495	0.2504
1486	0.5286
1477	0.5418
1468	0.4855
1459	0.6439
1450	0.5266
1441	0.7718
1432	0.7724
1423	0.6422
1414	0.7233
1405	0.5886
1396	0.3167
1387	0.4172
1378	0.2244
1369	0.1554
1360	0.1131
1351	0.1485
1342	0.3972
1333	0.6346
1324	0.6403
1315	0.658
1306	0.6606
1297	0.7102
1288	0.5996
1279	0.4886
1270	0.2194
1261	0.4342
1252	0.5036
1243	0.5054
1234	0.6224
1225	0.5325
1216	0.379
1207	0.4858
1198	0.5174
1189	0.2318
1180	0.2023
1171	0.5712
1162	0.6957
1153	0.726
1144	0.8335
1135	0.8116
1126	0.4775
1117	0.7824
1108	0.8649
1099	0.892
1090	0.8923
1081	0.8285
1072	0.6013
1063	0.8213
1054	0.8354
1045	0.5229
1036	0.7282
1027	0.5454
1018	0.7824
1009	0.6411
1000	0.4732
991	0.637
982	0.718
973	0.8327
964	0.883
955	0.9056
946	0.9161
937	0.9262
928	0.9327
919	0.9374
910	0.9357
901	0.8061
892	0.8789
883	0.9259
874	0.9049
865	0.7673
856	0.7865
847	0.9021
838	0.938
829	0.944
820	0.9239
811	0.8599
802	0.8448
793	0.7417
784	0.8553
775	0.8808
766	0.7749
757	0.5424
748	0.0216
739	0.3601
730	0.8302
721	0.9111
712	0.8559
703	0.8447
694	0.2557
685	0.4221
676	0.8954
667	0.9644
658	0.9628
649	0.9108
640	0.9336
631	0.9532
622	0.962
613	0.9475
604	0.964
595	0.957
586	0.9398
577	0.8832
568	0.8985
559	0.9374
550	0.9305
541	0.9135
532	0.8789
523	0.8287
514	0.7863
505	0.8056
496	0.855
487	0.8961
478	0.9298
469	0.9338
460	0.9548
451	0.9603
442	0.956
433	0.9419
424	0.9034
415	0.8328
406	0.6943
397	0.5112
388	0.3821
