Infrared Spectrum: 8-Quinolinol
Formula: C9 H7 N O
CAS: 148-24-3
State: SOLUTION (10% CCl4 FOR 3800-1320, 10% CS2 FOR 1320-400)
Class: COBLENTZ III
Instrument: BECKMAN IR-9 (GRATING)
Instrument parameters: ORDER CHANGES: 670, 1200, 2000 CM^-^1
Sampling: TRANSMISSION
Path length: 0.012 CM, 0.011 CM
Resolution: 2
Origin: DOW CHEMICAL COMPANY
1/CM	TRANSMITTANCE
3816	0.9037
3807	0.9036
3798	0.9032
3789	0.9055
3780	0.906
3771	0.906
3762	0.9048
3753	0.9035
3744	0.902
3735	0.9005
3726	0.8974
3717	0.8914
3708	0.8863
3699	0.8798
3690	0.8731
3681	0.87
3672	0.8719
3663	0.877
3654	0.8824
3645	0.8862
3636	0.889
3627	0.8909
3618	0.8903
3609	0.8849
3600	0.8906
3591	0.891
3582	0.8844
3573	0.8893
3564	0.8905
3555	0.8897
3546	0.8857
3537	0.8806
3528	0.875
3519	0.8639
3510	0.8505
3501	0.8301
3492	0.8017
3483	0.7693
3474	0.7274
3465	0.613
3456	0.5494
3447	0.463
3438	0.4099
3429	0.3392
3420	0.2606
3411	0.2613
3402	0.279
3393	0.3263
3384	0.3923
3375	0.4622
3366	0.5235
3357	0.5499
3348	0.5625
3339	0.5714
3330	0.58
3321	0.5892
3312	0.6006
3303	0.6101
3294	0.6201
3285	0.6299
3276	0.6402
3267	0.6507
3258	0.6602
3249	0.6687
3240	0.6769
3231	0.6844
3222	0.6917
3213	0.6973
3204	0.7018
3195	0.7086
3186	0.7123
3177	0.715
3168	0.7187
3159	0.7224
3150	0.7256
3141	0.7291
3132	0.7348
3123	0.7366
3114	0.7351
3105	0.718
3096	0.7176
3087	0.7105
3078	0.6807
3069	0.6403
3060	0.5314
3051	0.4826
3042	0.4301
3033	0.573
3024	0.6237
3015	0.6069
3006	0.6771
2997	0.7284
2988	0.7643
2979	0.787
2970	0.7932
2961	0.7876
2952	0.8021
2943	0.8154
2934	0.8212
2925	0.8296
2916	0.8362
2907	0.8426
2898	0.8466
2889	0.8514
2880	0.8562
2871	0.861
2862	0.8646
2853	0.8644
2844	0.8638
2835	0.8618
2826	0.8674
2817	0.869
2808	0.8705
2799	0.8704
2790	0.8699
2781	0.872
2772	0.8753
2763	0.8774
2754	0.8774
2745	0.877
2736	0.8774
2727	0.8778
2718	0.8784
2709	0.8788
2700	0.8789
2691	0.8789
2682	0.8789
2673	0.879
2664	0.8788
2655	0.8796
2646	0.8773
2637	0.8717
2628	0.8685
2619	0.8644
2610	0.8702
2601	0.8696
2592	0.8706
2583	0.8755
2574	0.8804
2565	0.8825
2556	0.8804
2547	0.8755
2538	0.8732
2529	0.8738
2520	0.8741
2511	0.8743
2502	0.8784
2493	0.8802
2484	0.8819
2475	0.884
2466	0.8846
2457	0.885
2448	0.8875
2439	0.8893
2430	0.8913
2421	0.8933
2412	0.8958
2403	0.8996
2394	0.8991
2385	0.8964
2376	0.9007
2367	0.8964
2358	0.8926
2349	0.888
2340	0.8893
2331	0.8928
2322	0.8991
2313	0.9006
2304	0.9007
2295	0.8996
2286	0.893
2277	0.8858
2268	0.8845
2259	0.8866
2250	0.8892
2241	0.8977
2232	0.9044
2223	0.9105
2214	0.9107
2205	0.9102
2196	0.9146
2187	0.9166
2178	0.912
2169	0.907
2160	0.9104
2151	0.9106
2142	0.9045
2133	0.9013
2124	0.914
2115	0.9187
2106	0.9183
2097	0.9165
2088	0.9179
2079	0.9174
2070	0.9093
2061	0.9072
2052	0.9111
2043	0.9135
2034	0.9166
2025	0.9193
2016	0.9217
2007	0.9215
1998	0.9201
1989	0.9055
1980	0.9042
1971	0.8957
1962	0.8885
1953	0.8824
1944	0.8373
1935	0.868
1926	0.8634
1917	0.8388
1908	0.7627
1899	0.8353
1890	0.8735
1881	0.8444
1872	0.8661
1863	0.8916
1854	0.8975
1845	0.8944
1836	0.8761
1827	0.8415
1818	0.8678
1809	0.89
1800	0.8913
1791	0.8885
1782	0.894
1773	0.8832
1764	0.8648
1755	0.8521
1746	0.8201
1737	0.8338
1728	0.8723
1719	0.8845
1710	0.8875
1701	0.8687
1692	0.8236
1683	0.872
1674	0.8854
1665	0.8922
1656	0.8848
1647	0.8803
1638	0.8696
1629	0.741
1620	0.7684
1611	0.7629
1602	0.8535
1593	0.7589
1584	0.6619
1575	0.3601
1566	0.4666
1557	0.7666
1548	0.7116
1539	0.6431
1530	0.6176
1521	0.6532
1512	0.4112
1503	0.0902
1494	0.024
1485	0.2658
1476	0.253
1467	0.0483
1458	0.2841
1449	0.5078
1440	0.6574
1431	0.5774
1422	0.5723
1413	0.5724
1404	0.1991
1395	0.295
1386	0.5397
1377	0.368
1368	0.0563
1359	0.4542
1350	0.5706
1341	0.5855
1332	0.7807
1323	0.8276
1314	0.7996
1305	0.8157
1296	0.8004
1287	0.6029
1278	0.4425
1269	0.037
1260	0.2298
1251	0.1242
1242	0.6254
1233	0.5777
1224	0.5362
1215	0.0801
1206	0.3885
1197	0.1036
1188	0.1493
1179	0.4492
1170	0.6598
1161	0.6404
1152	0.4026
1143	0.6003
1134	0.6356
1125	0.5947
1116	0.6217
1107	0.5811
1098	0.5244
1089	0.3073
1080	0.478
1071	0.7603
1062	0.816
1053	0.8152
1044	0.6762
1035	0.7937
1026	0.84
1017	0.8628
1008	0.8931
999	0.9047
990	0.9088
981	0.9065
972	0.8793
963	0.8357
954	0.8837
945	0.8596
936	0.8793
927	0.8905
918	0.9096
909	0.927
900	0.9341
891	0.9422
882	0.8135
873	0.8985
864	0.8134
855	0.8878
846	0.823
837	0.8162
828	0.8524
819	0.7165
810	0.184
801	0.7427
792	0.7499
783	0.1124
774	0.2936
765	0.7302
756	0.8584
747	0.4332
738	0.2029
729	0.7437
720	0.8211
711	0.8327
702	0.0965
693	0.8224
684	0.8543
675	0.8657
666	0.847
657	0.8539
648	0.7751
639	0.7622
630	0.3756
621	0.8064
612	0.806
603	0.7419
594	0.5607
585	0.3087
576	0.2432
567	0.1618
558	0.3864
549	0.5618
540	0.6393
531	0.5784
522	0.7191
513	0.7731
504	0.8185
495	0.8316
486	0.8309
477	0.8509
468	0.8371
459	0.5317
450	0.5844
441	0.766
432	0.7115
423	0.6218
414	0.3167
405	0.1758
