Infrared Spectrum: 2-HEXADECANOL
Formula: C16 H34 O
CAS: 14852-31-4
State: SOLUTION (10% CCl4 FOR 3800-1330, 10% CS2 FOR 1330-460 CM^-^1)
Melting point: 42 C
Class: COBLENTZ III
Instrument: DOW KBr FOREPRISM-GRATING
Instrument parameters: BLAZED AT 3.5, 12.0, 20.0 MICRON AND CHANGED AT 5.0, 7.5, 14.9 MICRON
Sampling: TRANSMISSION
Path length: 0.012 CM, 0.011 CM
Resolution: 2
Origin: DOW CHEMICAL COMPANY
1/CM	TRANSMITTANCE
455	0.7746
464	0.776
473	0.7787
482	0.7814
491	0.7837
500	0.7883
509	0.7928
518	0.7974
527	0.8018
536	0.8048
545	0.8069
554	0.811
563	0.8144
572	0.8172
581	0.8198
590	0.8224
599	0.8225
608	0.8211
617	0.8178
626	0.8147
635	0.8093
644	0.7969
653	0.7865
662	0.8143
671	0.8601
680	0.8836
689	0.8784
698	0.8597
707	0.8218
716	0.6821
725	0.733
734	0.8185
743	0.8502
752	0.866
761	0.8747
770	0.882
779	0.8867
788	0.8895
797	0.8853
806	0.8817
815	0.884
824	0.8631
833	0.828
842	0.7632
851	0.7274
860	0.7458
869	0.7871
878	0.8225
887	0.8445
896	0.8474
905	0.8399
914	0.82
923	0.7761
932	0.7394
941	0.776
950	0.8294
959	0.8353
968	0.8368
977	0.8348
986	0.8085
995	0.7744
1004	0.756
1013	0.7445
1022	0.7419
1031	0.7236
1040	0.7018
1049	0.6822
1058	0.6764
1067	0.668
1076	0.6624
1085	0.6547
1094	0.6468
1103	0.644
1112	0.6332
1121	0.6632
1130	0.6428
1139	0.6664
1148	0.756
1157	0.7808
1166	0.8021
1175	0.811
1184	0.8315
1193	0.833
1202	0.8304
1211	0.8238
1220	0.8076
1229	0.7858
1238	0.7471
1247	0.7325
1256	0.7441
1265	0.7454
1274	0.7312
1283	0.7089
1292	0.6887
1301	0.6834
1310	0.7019
1319	0.7231
1328	0.7178
1337	0.7334
1346	0.6983
1355	0.6688
1364	0.6243
1373	0.5068
1382	0.6641
1391	0.7037
1400	0.7325
1409	0.7534
1418	0.7618
1427	0.7065
1436	0.5872
1445	0.4729
1454	0.3143
1463	0.2512
1472	0.5812
1481	0.7588
1490	0.7611
1499	0.7342
1508	0.691
1517	0.6508
1526	0.6066
1535	0.551
1544	0.4506
1553	0.4566
1562	0.5406
1571	0.5985
1580	0.604
1589	0.6387
1598	0.7505
1607	0.8146
1616	0.8368
1625	0.8446
1634	0.8507
1643	0.8525
1652	0.856
1661	0.8641
1670	0.8707
1679	0.8749
1688	0.8763
1697	0.8765
1706	0.8721
1715	0.8714
1724	0.874
1733	0.8763
1742	0.881
1751	0.8813
1760	0.8828
1769	0.8846
1778	0.8852
1787	0.8858
1796	0.8855
1805	0.8849
1814	0.8845
1823	0.8845
1832	0.8821
1841	0.8794
1850	0.8766
1859	0.8756
1868	0.8778
1877	0.881
1886	0.8825
1895	0.8818
1904	0.8804
1913	0.8805
1922	0.8801
1931	0.8798
1940	0.8796
1949	0.8792
1958	0.877
1967	0.8757
1976	0.875
1985	0.8705
1994	0.8692
2003	0.8786
2012	0.8787
2021	0.8794
2030	0.8803
2039	0.8818
2048	0.8836
2057	0.8853
2066	0.8868
2075	0.8883
2084	0.8896
2093	0.8899
2102	0.8904
2111	0.8898
2120	0.8889
2129	0.888
2138	0.8878
2147	0.888
2156	0.8882
2165	0.8883
2174	0.8888
2183	0.8892
2192	0.8896
2201	0.8893
2210	0.8891
2219	0.8888
2228	0.8878
2237	0.8863
2246	0.8842
2255	0.8801
2264	0.8753
2273	0.8709
2282	0.8675
2291	0.8642
2300	0.8696
2309	0.878
2318	0.8873
2327	0.894
2336	0.8944
2345	0.8928
2354	0.8916
2363	0.8888
2372	0.8828
2381	0.8768
2390	0.8715
2399	0.8693
2408	0.8686
2417	0.8688
2426	0.8688
2435	0.8681
2444	0.8673
2453	0.8666
2462	0.8659
2471	0.865
2480	0.8637
2489	0.8625
2498	0.8612
2507	0.8584
2516	0.8556
2525	0.8525
2534	0.8497
2543	0.8467
2552	0.8431
2561	0.8374
2570	0.8314
2579	0.8252
2588	0.8201
2597	0.815
2606	0.8096
2615	0.8033
2624	0.7971
2633	0.7903
2642	0.7835
2651	0.7765
2660	0.7696
2669	0.7649
2678	0.7684
2687	0.7761
2696	0.7825
2705	0.7781
2714	0.7685
2723	0.7593
2732	0.7633
2741	0.7646
2750	0.7625
2759	0.7574
2768	0.7483
2777	0.7332
2786	0.7121
2795	0.6771
2804	0.6485
2813	0.608
2822	0.5519
2831	0.4742
2840	0.3645
2849	0.0065
2858	0.0001
2867	0.1046
2876	0.1392
2885	0.1659
2894	0.0707
2903	0.0595
2912	0.0051
2921	0.0005
2930	0.0001
2939	0.0067
2948	0.0495
2957	0.046
2966	0.0787
2975	0.2645
2984	0.47
2993	0.561
3002	0.6414
3011	0.6999
3020	0.7282
3029	0.7434
3038	0.7548
3047	0.7621
3056	0.7674
3065	0.7705
3074	0.7732
3083	0.7751
3092	0.7764
3101	0.7761
3110	0.7756
3119	0.7733
3128	0.7704
3137	0.7678
3146	0.766
3155	0.7695
3164	0.7739
3173	0.7753
3182	0.7738
3191	0.7703
3200	0.7649
3209	0.7575
3218	0.7493
3227	0.7403
3236	0.7295
3245	0.7178
3254	0.7062
3263	0.6947
3272	0.6826
3281	0.6692
3290	0.6558
3299	0.6443
3308	0.6333
3317	0.6226
3326	0.6125
3335	0.6053
3344	0.6004
3353	0.6019
3362	0.6046
3371	0.6104
3380	0.6177
3389	0.6252
3398	0.6328
3407	0.64
3416	0.6471
3425	0.6542
3434	0.6599
3443	0.6656
3452	0.6711
3461	0.6765
3470	0.6819
3479	0.6878
3488	0.6953
3497	0.7034
3506	0.7149
3515	0.7317
3524	0.7569
3533	0.7814
3542	0.8031
3551	0.8153
3560	0.8192
3569	0.8178
3578	0.819
3587	0.7911
3596	0.7533
3605	0.7074
3614	0.6667
3623	0.6967
3632	0.8232
3641	0.8418
3650	0.8457
3659	0.8449
3668	0.8457
3677	0.8499
3686	0.8545
3695	0.8578
3704	0.8612
3713	0.8643
3722	0.8668
3731	0.8647
3740	0.8608
3749	0.8604
3758	0.861
3767	0.861
3776	0.8605
3785	0.8593
3794	0.8575
