Infrared Spectrum: TRANS-4-OCTENE
Formula: C8 H16
CAS: 14850-23-8
State: SOLUTION (10.02% IN CCl4 FOR 3800-1300, 5.17% IN CS2 FOR 1350-650, AND 10.02% IN CCl4 FOR 650-250 CM^-^1) VERSUS SOLVENT
Class: COBLENTZ
Instrument: Not specified, most likely a grating or hybrid spectrometer.
Sampling: TRANSMISSION
Path length: 0.010, 0.010 (NaCl CELL), AND 0.02 CM (CsBr CELL)
Resolution: 4
Origin: DOW CORNING CORP.
1/CM	TRANSMITTANCE
229.624	0.907
238.591	0.9
247.558	0.895
256.526	0.874
265.493	0.871
274.46	0.871
283.427	0.857
292.394	0.853
301.361	0.869
310.329	0.867
319.296	0.867
328.263	0.867
337.23	0.858
346.197	0.86
355.165	0.857
364.132	0.853
373.099	0.848
382.066	0.85
391.033	0.862
400.001	0.865
408.968	0.869
417.935	0.867
426.902	0.862
435.869	0.867
444.836	0.881
453.804	0.867
462.771	0.872
471.738	0.871
480.705	0.864
489.672	0.864
498.64	0.862
507.607	0.855
516.574	0.848
525.541	0.853
534.508	0.862
543.476	0.864
552.443	0.86
561.41	0.864
570.377	0.864
579.344	0.864
588.311	0.858
597.279	0.858
606.246	0.86
615.213	0.867
624.18	0.871
633.147	0.874
642.115	0.874
651.082	0.874
660.049	0.869
669.016	0.876
677.983	0.885
686.95	0.879
695.918	0.871
704.885	0.876
713.852	0.869
722.819	0.862
731.786	0.837
740.754	0.832
749.721	0.834
758.688	0.834
767.655	0.837
776.622	0.841
785.59	0.862
794.557	0.869
803.524	0.881
812.491	0.883
821.458	0.881
830.425	0.878
839.393	0.876
848.36	0.869
857.327	0.86
866.294	0.862
875.261	0.85
884.229	0.843
893.196	0.846
902.163	0.874
911.13	0.876
920.097	0.871
929.065	0.867
938.032	0.85
946.999	0.792
955.966	0.5242
964.933	0.224
973.9	0.618
982.868	0.785
991.835	0.839
1000.8	0.843
1009.77	0.844
1018.74	0.851
1027.7	0.85
1036.67	0.831
1045.64	0.796
1054.61	0.736
1063.57	0.811
1072.54	0.836
1081.51	0.825
1090.47	0.811
1099.44	0.834
1108.41	0.864
1117.38	0.865
1126.34	0.865
1135.31	0.871
1144.28	0.878
1153.24	0.89
1162.21	0.888
1171.18	0.885
1180.15	0.879
1189.11	0.871
1198.08	0.869
1207.05	0.867
1216.01	0.867
1224.98	0.865
1233.95	0.864
1242.92	0.851
1251.88	0.836
1260.85	0.818
1269.82	0.831
1278.78	0.831
1287.75	0.824
1296.72	0.824
1305.69	0.831
1314.65	0.832
1323.62	0.82
1332.59	0.759
1341.56	0.7769
1350.52	0.799
1359.49	0.811
1368.46	0.7681
1377.42	0.414
1386.39	0.792
1395.36	0.824
1404.33	0.82
1413.29	0.806
1422.26	0.763
1431.23	0.5872
1440.19	0.461
1449.16	0.433
1458.13	0.3079
1467.1	0.3849
1476.06	0.742
1485.03	0.813
1494	0.85
1502.96	0.871
1511.93	0.897
1520.9	0.909
1529.87	0.919
1538.83	0.942
1547.8	0.945
1556.77	0.94
1565.73	0.925
1574.7	0.914
1583.67	0.916
1592.64	0.911
1601.6	0.895
1610.57	0.886
1619.54	0.879
1628.51	0.878
1637.47	0.872
1646.44	0.871
1655.41	0.869
1664.37	0.864
1673.34	0.867
1682.31	0.869
1691.28	0.867
1700.24	0.867
1709.21	0.867
1718.18	0.867
1727.14	0.865
1736.11	0.864
1745.08	0.862
1754.05	0.865
1763.01	0.869
1771.98	0.872
1780.95	0.878
1789.91	0.881
1798.88	0.879
1807.85	0.879
1816.82	0.876
1825.78	0.872
1834.75	0.871
1843.72	0.867
1852.68	0.867
1861.65	0.871
1870.62	0.874
1879.59	0.883
1888.55	0.883
1897.52	0.883
1906.49	0.881
1915.46	0.883
1924.42	0.885
1933.39	0.883
1942.36	0.881
1951.32	0.883
1960.29	0.881
1969.26	0.883
1978.23	0.883
1987.19	0.881
1996.16	0.883
2005.13	0.883
2014.09	0.883
2023.06	0.883
2032.03	0.881
2041	0.8809
2049.96	0.879
2058.93	0.879
2067.9	0.881
2076.86	0.879
2085.83	0.879
2094.8	0.8789
2103.77	0.8767
2112.73	0.876
2121.7	0.878
2130.67	0.874
2139.63	0.874
2148.6	0.874
2157.57	0.8725
2166.54	0.872
2175.5	0.8735
2184.47	0.8746
2193.44	0.876
2202.4	0.876
2211.37	0.876
2220.34	0.874
2229.31	0.872
2238.27	0.872
2247.24	0.8738
2256.21	0.872
2265.18	0.872
2274.14	0.8748
2283.11	0.874
2292.08	0.872
2301.04	0.8789
2310.01	0.8785
2318.98	0.871
2327.95	0.8715
2336.91	0.876
2345.88	0.872
2354.85	0.872
2363.81	0.869
2372.78	0.867
2381.75	0.8646
2390.72	0.865
2399.68	0.8644
2408.65	0.865
2417.62	0.865
2426.58	0.865
2435.55	0.865
2444.52	0.865
2453.49	0.865
2462.45	0.865
2471.42	0.867
2480.39	0.868
2489.35	0.864
2498.32	0.8635
2507.29	0.86
2516.26	0.8594
2525.22	0.8554
2534.19	0.853
2543.16	0.85
2552.13	0.8504
2561.09	0.853
2570.06	0.851
2579.03	0.8501
2587.99	0.8472
2596.96	0.8441
2605.93	0.846
2614.9	0.848
2623.86	0.844
2632.83	0.839
2641.8	0.836
2650.76	0.834
2659.73	0.823
2668.7	0.8201
2677.67	0.8327
2686.63	0.8309
2695.6	0.829
2704.57	0.8249
2713.53	0.82
2722.5	0.8139
2731.47	0.7992
2740.44	0.8155
2749.4	0.82
2758.37	0.8143
2767.34	0.8002
2776.3	0.7932
2785.27	0.7686
2794.24	0.7553
2803.21	0.7305
2812.17	0.6908
2821.14	0.6086
2830.11	0.4628
2839.08	0.2424
2848.04	0.2556
2857.01	0.2182
2865.98	0.0947
2874.94	0.047
2883.91	0.1664
2892.88	0.1589
2901.85	0.0893
2910.81	0.0418
2919.78	0.0131
2928.75	0
2937.71	0.0398
2946.68	0.0411
2955.65	0
2964.62	0.01
2973.58	0.1136
2982.55	0.2496
2991.52	0.3325
3000.48	0.4485
3009.45	0.4913
3018.42	0.5222
3027.39	0.5424
3036.35	0.6308
3045.32	0.7236
3054.29	0.7673
3063.25	0.7953
3072.22	0.8085
3081.19	0.8194
3090.16	0.8246
3099.12	0.8317
3108.09	0.834
3117.06	0.8355
3126.03	0.8465
3134.99	0.85
3143.96	0.85
3152.93	0.85
3161.89	0.85
3170.86	0.85
3179.83	0.848
3188.8	0.848
3197.76	0.85
3206.73	0.851
3215.7	0.857
3224.66	0.8598
3233.63	0.862
3242.6	0.864
3251.57	0.864
3260.53	0.864
3269.5	0.865
3278.47	0.865
3287.43	0.865
3296.4	0.865
3305.37	0.865
3314.34	0.867
3323.3	0.8661
3332.27	0.865
3341.24	0.867
3350.2	0.865
3359.17	0.865
3368.14	0.867
3377.11	0.867
3386.07	0.867
3395.04	0.867
3404.01	0.869
3412.98	0.8704
3421.94	0.871
3430.91	0.872
3439.88	0.8725
3448.84	0.8745
3457.81	0.876
3466.78	0.878
3475.75	0.879
3484.71	0.878
3493.68	0.879
3502.65	0.8827
3511.61	0.883
3520.58	0.885
3529.55	0.885
3538.52	0.885
3547.48	0.886
3556.45	0.8851
3565.42	0.8952
3574.38	0.8879
3583.35	0.898
3592.32	0.886
3601.29	0.888
3610.25	0.891
3619.22	0.891
3628.19	0.8927
3637.15	0.881
3646.12	0.911
3655.09	0.885
3664.06	0.8865
3673.02	0.895
3681.99	0.8839
3690.96	0.8848
3699.93	0.8854
3708.89	0.891
3717.86	0.885
3726.83	0.8888
3735.79	0.8914
3744.76	0.9056
3753.73	0.8858
3762.7	0.883
3771.66	0.883
3780.63	0.8795
3789.6	0.883
