Infrared Spectrum: (3'-DI-N-BUTYLAMINOPROPYL)-P-AMINOBENZOATE
Formula: C18 H30 O2 N2
CAS: 149-16-6
State: LIQUID
Class: COBLENTZ
Instrument: Not specified, most likely a prism, grating, or hybrid spectrometer.
Sampling: TRANSMISSION
Path length: CAPILLARY
Resolution: 4
MICROMETERS	TRANSMITTANCE
2.021	0.882
2.05679	0.885
2.09259	0.885
2.12838	0.878
2.16418	0.889
2.19997	0.88
2.23577	0.884
2.27156	0.88
2.30735	0.876
2.34315	0.876
2.37894	0.875
2.41474	0.878
2.45053	0.876
2.48632	0.868
2.52212	0.878
2.55791	0.88
2.59371	0.876
2.6295	0.873
2.6653	0.882
2.70109	0.88
2.73688	0.869
2.77268	0.861
2.80847	0.848
2.84427	0.801
2.88006	0.702
2.91585	0.711
2.95165	0.576
2.98744	0.618
3.02324	0.727
3.05903	0.753
3.09483	0.72
3.13062	0.743
3.16641	0.764
3.20221	0.775
3.238	0.778
3.2738	0.76
3.30959	0.752
3.34539	0.604
3.38118	0.346
3.41697	0.411
3.45277	0.53
3.48856	0.511
3.52436	0.602
3.56015	0.59
3.59594	0.63
3.63174	0.699
3.66753	0.724
3.70333	0.741
3.73912	0.769
3.77492	0.78
3.81071	0.79
3.8465	0.799
3.8823	0.815
3.91809	0.833
3.95389	0.833
3.98968	0.843
4.02547	0.85
4.06127	0.855
4.09706	0.859
4.13286	0.862
4.16865	0.862
4.20445	0.864
4.24024	0.868
4.27603	0.871
4.31183	0.868
4.34762	0.866
4.38342	0.869
4.41921	0.871
4.45501	0.866
4.4908	0.864
4.52659	0.859
4.56239	0.855
4.59818	0.862
4.63398	0.869
4.66977	0.871
4.70556	0.869
4.74136	0.871
4.77715	0.871
4.81295	0.873
4.84874	0.873
4.88454	0.871
4.92033	0.871
4.95612	0.871
4.99192	0.871
5.02771	0.875
5.06351	0.875
5.0993	0.875
5.1351	0.873
5.17089	0.869
5.20668	0.866
5.24248	0.862
5.27827	0.868
5.31407	0.873
5.34986	0.878
5.38565	0.876
5.42145	0.875
5.45724	0.873
5.49304	0.873
5.52883	0.871
5.56463	0.869
5.60042	0.864
5.63621	0.859
5.67201	0.855
5.7078	0.848
5.7436	0.827
5.77939	0.801
5.81518	0.697
5.85098	0.439
5.88677	0.323
5.92257	0.24
5.95836	0.421
5.99416	0.553
6.02995	0.604
6.06574	0.576
6.10154	0.428
6.13733	0.309
6.17313	0.307
6.20892	0.34
6.24472	0.163
6.28051	0.506
6.3163	0.62
6.3521	0.586
6.38789	0.608
6.42369	0.655
6.45948	0.727
6.49527	0.741
6.53107	0.752
6.56686	0.685
6.60266	0.478
6.63845	0.613
6.67425	0.713
6.71004	0.753
6.74583	0.764
6.78163	0.715
6.81742	0.583
6.85322	0.551
6.88901	0.572
6.9248	0.629
6.9606	0.62
6.99639	0.706
7.03219	0.752
7.06798	0.745
7.10378	0.688
7.13957	0.688
7.17536	0.667
7.21116	0.583
7.24695	0.539
7.28275	0.546
7.31854	0.625
7.35434	0.685
7.39013	0.711
7.42592	0.695
7.46172	0.692
7.49751	0.666
7.53331	0.606
7.5691	0.583
7.60489	0.511
7.64069	0.393
7.67648	0.386
7.71228	0.497
7.74807	0.453
7.78387	0.319
7.81966	0.165
7.85545	0.1
7.89125	0.107
7.92704	0.198
7.96284	0.369
7.99863	0.493
8.03442	0.594
8.07022	0.639
8.10601	0.659
8.14181	0.685
8.1776	0.715
8.2134	0.75
8.24919	0.778
8.28498	0.787
8.32078	0.794
8.35657	0.794
8.39237	0.794
8.42816	0.769
8.46396	0.706
8.49975	0.618
8.53554	0.304
8.57134	0.151
8.60713	0.318
8.64293	0.567
8.67872	0.625
8.71451	0.687
8.75031	0.717
8.7861	0.715
8.8219	0.68
8.85769	0.634
8.89349	0.544
8.92928	0.428
8.96507	0.346
9.00087	0.332
9.03666	0.356
9.07246	0.413
9.10825	0.471
9.14404	0.523
9.17984	0.548
9.21563	0.55
9.25143	0.55
9.28722	0.562
9.32302	0.595
9.35881	0.63
9.3946	0.664
9.4304	0.688
9.46619	0.704
9.50199	0.722
9.53778	0.725
9.57358	0.743
9.60937	0.75
9.64516	0.762
9.68096	0.764
9.71675	0.768
9.75255	0.768
9.78834	0.768
9.82413	0.768
9.85993	0.769
9.89572	0.76
9.93152	0.76
9.96731	0.787
10.0031	0.796
10.0389	0.797
10.0747	0.794
10.1105	0.78
10.1463	0.792
10.1821	0.796
10.2179	0.797
10.2537	0.796
10.2895	0.794
10.3253	0.792
10.361	0.79
10.3968	0.79
10.4326	0.79
10.4684	0.79
10.5042	0.79
10.54	0.792
10.5758	0.796
10.6116	0.797
10.6474	0.799
10.6832	0.799
10.719	0.799
10.7548	0.799
10.7906	0.797
10.8264	0.794
10.8622	0.783
10.898	0.785
10.9338	0.789
10.9695	0.79
11.0053	0.79
11.0411	0.79
11.0769	0.79
11.1127	0.792
11.1485	0.792
11.1843	0.796
11.2201	0.799
11.2559	0.799
11.2917	0.801
11.3275	0.803
11.3633	0.804
11.3991	0.808
11.4349	0.811
11.4707	0.811
11.5065	0.806
11.5423	0.811
11.5781	0.808
11.6138	0.797
11.6496	0.789
11.6854	0.775
11.7212	0.746
11.757	0.701
11.7928	0.662
11.8286	0.608
11.8644	0.583
11.9002	0.597
11.936	0.657
11.9718	0.734
12.0076	0.762
12.0434	0.783
12.0792	0.792
12.115	0.794
12.1508	0.796
12.1866	0.796
12.2223	0.797
12.2581	0.797
12.2939	0.797
12.3297	0.797
12.3655	0.797
12.4013	0.797
12.4371	0.797
12.4729	0.796
12.5087	0.794
12.5445	0.792
12.5803	0.79
12.6161	0.79
12.6519	0.789
12.6877	0.785
12.7235	0.778
12.7593	0.766
12.7951	0.748
12.8308	0.704
12.8666	0.634
12.9024	0.523
12.9382	0.444
12.974	0.488
13.0098	0.579
13.0456	0.676
13.0814	0.708
13.1172	0.727
13.153	0.736
13.1888	0.739
13.2246	0.743
13.2604	0.746
13.2962	0.748
13.332	0.746
13.3678	0.745
13.4036	0.745
13.4393	0.745
13.4751	0.743
13.5109	0.739
13.5467	0.734
13.5825	0.729
13.6183	0.727
13.6541	0.725
13.6899	0.724
13.7257	0.724
13.7615	0.724
13.7973	0.725
13.8331	0.725
13.8689	0.725
13.9047	0.725
13.9405	0.722
13.9763	0.718
14.0121	0.717
14.0478	0.713
14.0836	0.711
14.1194	0.71
14.1552	0.695
14.191	0.674
14.2268	0.636
14.2626	0.588
14.2984	0.571
14.3342	0.578
14.37	0.604
14.4058	0.632
14.4416	0.646
14.4774	0.669
14.5132	0.662
14.549	0.666
14.5848	0.664
14.6206	0.662
14.6564	0.666
14.6921	0.662
14.7279	0.657
14.7637	0.652
14.7995	0.644
14.8353	0.641
14.8711	0.639
14.9069	0.637
14.9427	0.636
14.9785	0.63
15.0143	0.627
15.0501	0.62
15.0859	0.615
15.1217	0.609
15.1575	0.606
15.1933	0.601
15.2291	0.597
15.2649	0.59
15.3006	0.583
15.3364	0.581
15.3722	0.581
15.408	0.576
15.4438	0.572
