Infrared Spectrum: ORTHOFORMIC ACID, TRIMETHYL ESTER
Formula: C4 H10 O3
CAS: 149-73-5
State: SOLUTION (10% CCl4 FOR 3800-1300, 6% CS2 FOR 1300-600, AND 10% CCl4 FOR 600-250)
Boiling point: 101 C
Class: COBLENTZ III
Instrument: PERKIN-ELMER 521 (GRATING)
Instrument parameters: FILTERS AT 3150, 2500, 2000, 1150, 700, 410. GRATING CHANGES: 2000, 630
Sampling: TRANSMISSION
Path length: 0.011 CM, 0.011 CM, AND 0.012 CM
Resolution: 2
Origin: DOW CORNING CORP.
1/CM	TRANSMITTANCE
3818	0.9473
3809	0.9494
3800	0.9511
3791	0.9528
3782	0.9541
3773	0.9531
3764	0.951
3755	0.9502
3746	0.9515
3737	0.9532
3728	0.9556
3719	0.9571
3710	0.9574
3701	0.9547
3692	0.9505
3683	0.9518
3674	0.954
3665	0.956
3656	0.9575
3647	0.958
3638	0.9575
3629	0.9559
3620	0.9553
3611	0.9553
3602	0.9555
3593	0.9553
3584	0.9544
3575	0.9511
3566	0.9471
3557	0.9434
3548	0.9433
3539	0.9446
3530	0.9463
3521	0.948
3512	0.9497
3503	0.9507
3494	0.9518
3485	0.9528
3476	0.9537
3467	0.9537
3458	0.9536
3449	0.9536
3440	0.9545
3431	0.9559
3422	0.9581
3413	0.9606
3404	0.9616
3395	0.9612
3386	0.9599
3377	0.959
3368	0.9583
3359	0.9577
3350	0.9571
3341	0.9568
3332	0.9575
3323	0.9582
3314	0.9584
3305	0.958
3296	0.9575
3287	0.9571
3278	0.9571
3269	0.9568
3260	0.9568
3251	0.9571
3242	0.9577
3233	0.9573
3224	0.9568
3215	0.9532
3206	0.9484
3197	0.9435
3188	0.9387
3179	0.9335
3170	0.9275
3161	0.9207
3152	0.9138
3143	0.9068
3134	0.8999
3125	0.8928
3116	0.8841
3107	0.8736
3098	0.8609
3089	0.8454
3080	0.823
3071	0.8056
3062	0.7834
3053	0.7565
3044	0.6965
3035	0.5846
3026	0.3616
3017	0.1776
3008	0.151
2999	0.2375
2990	0.2376
2981	0.1679
2972	0.0953
2963	0.0655
2954	0.0566
2945	0.0586
2936	0.1168
2927	0.1659
2918	0.1662
2909	0.1702
2900	0.1674
2891	0.1644
2882	0.242
2873	0.3564
2864	0.4636
2855	0.2775
2846	0.0496
2837	0.2913
2828	0.4415
2819	0.5973
2810	0.6951
2801	0.7555
2792	0.7805
2783	0.8065
2774	0.8638
2765	0.8823
2756	0.8918
2747	0.8925
2738	0.8762
2729	0.8611
2720	0.8854
2711	0.8988
2702	0.9014
2693	0.8956
2684	0.8677
2675	0.7649
2666	0.7608
2657	0.7994
2648	0.8478
2639	0.8759
2630	0.9002
2621	0.9094
2612	0.9105
2603	0.9038
2594	0.9064
2585	0.9113
2576	0.9171
2567	0.9233
2558	0.9262
2549	0.9259
2540	0.9303
2531	0.9346
2522	0.9365
2513	0.9382
2504	0.9386
2495	0.9389
2486	0.9389
2477	0.9383
2468	0.9377
2459	0.9366
2450	0.9333
2441	0.9304
2432	0.9287
2423	0.9284
2414	0.9307
2405	0.9343
2396	0.9345
2387	0.9341
2378	0.9343
2369	0.9342
2360	0.934
2351	0.9335
2342	0.9331
2333	0.9283
2324	0.9217
2315	0.9196
2306	0.9184
2297	0.9188
2288	0.9207
2279	0.9241
2270	0.9268
2261	0.9293
2252	0.9291
2243	0.9259
2234	0.9217
2225	0.9161
2216	0.9115
2207	0.9084
2198	0.9098
2189	0.9104
2180	0.9113
2171	0.9118
2162	0.9141
2153	0.9095
2144	0.8907
2135	0.8652
2126	0.8525
2117	0.8401
2108	0.8307
2099	0.8451
2090	0.8673
2081	0.8886
2072	0.8963
2063	0.8736
2054	0.8436
2045	0.8652
2036	0.8895
2027	0.9102
2018	0.9178
2009	0.9184
2000	0.9193
1991	0.9206
1982	0.9115
1973	0.9174
1964	0.9251
1955	0.9323
1946	0.9343
1937	0.9318
1928	0.9328
1919	0.9352
1910	0.9361
1901	0.9371
1892	0.9353
1883	0.9323
1874	0.9308
1865	0.9321
1856	0.9325
1847	0.9314
1838	0.9325
1829	0.9333
1820	0.9183
1811	0.9056
1802	0.904
1793	0.9078
1784	0.9127
1775	0.9097
1766	0.9049
1757	0.9031
1748	0.9092
1739	0.9088
1730	0.8971
1721	0.9071
1712	0.9167
1703	0.9253
1694	0.9199
1685	0.9156
1676	0.9105
1667	0.9059
1658	0.9024
1649	0.9048
1640	0.907
1631	0.9053
1622	0.9007
1613	0.8932
1604	0.8827
1595	0.8763
1586	0.8671
1577	0.8548
1568	0.843
1559	0.8328
1550	0.8234
1541	0.8206
1532	0.8312
1523	0.8353
1514	0.8265
1505	0.8071
1496	0.7797
1487	0.7245
1478	0.5141
1469	0.3064
1460	0.33
1451	0.1733
1442	0.2154
1433	0.5114
1424	0.7464
1415	0.7992
1406	0.8105
1397	0.8158
1388	0.7975
1379	0.6401
1370	0.2091
1361	0.2334
1352	0.1299
1343	0.5771
1334	0.7039
1325	0.76
1316	0.7924
1307	0.8074
1298	0.8128
1289	0.8101
1280	0.8008
1271	0.7876
1262	0.7661
1253	0.7336
1244	0.6725
1235	0.4684
1226	0.3081
1217	0.3375
1208	0.3082
1199	0.1467
1190	0.1292
1181	0.2875
1172	0.4486
1163	0.3984
1154	0.2582
1145	0.2945
1136	0.0759
1127	0.0071
1118	0.0277
1109	0.0126
1100	0.0052
1091	0.0167
1082	0.0475
1073	0.002
1064	0.0055
1055	0.2294
1046	0.3768
1037	0.2177
1028	0.1669
1019	0.2514
1010	0.451
1001	0.4423
992	0.1972
983	0.0819
974	0.3564
965	0.5629
956	0.705
947	0.7633
938	0.7541
929	0.5386
920	0.6895
911	0.532
902	0.7678
893	0.8404
884	0.8711
875	0.8823
866	0.8916
857	0.8978
848	0.9058
839	0.9097
830	0.9034
821	0.9003
812	0.9007
803	0.903
794	0.9066
785	0.9117
776	0.9049
767	0.893
758	0.9064
749	0.9084
740	0.9092
731	0.9096
722	0.9084
713	0.9064
704	0.9031
695	0.8916
686	0.8665
677	0.8914
668	0.9015
659	0.9016
650	0.8957
641	0.9012
632	0.905
623	0.9075
614	0.9147
605	0.9227
596	0.9231
587	0.9181
578	0.9102
569	0.8949
560	0.8446
551	0.8298
542	0.8239
533	0.8791
524	0.8817
515	0.8651
506	0.7057
497	0.6401
488	0.8025
479	0.825
470	0.8598
461	0.8421
452	0.8421
443	0.8368
434	0.8268
425	0.8175
416	0.8055
407	0.7949
398	0.7768
389	0.7669
380	0.7315
371	0.6945
362	0.6756
353	0.6756
344	0.6742
335	0.6704
326	0.6649
317	0.6334
308	0.6006
299	0.5982
290	0.598
281	0.5968
272	0.5906
263	0.5786
254	0.5728
