Infrared Spectrum: HEXANOIC ACID, 2-ETHYL-
Formula: C8 H16 02
CAS: 149-57-5
State: SOLUTION (10% IN CCl4 FOR 3800-1300, 10% IN CS2 FOR 1300-650, 10% IN CCl4 FOR 650-250 CM^-^1) VERSUS SOLVENT
Class: COBLENTZ III
Instrument: PERKIN-ELMER 521 (GRATING)
Instrument parameters: FILTERS AT 3150, 2500, 2000, 1150, 700, 410; GRATING CHANGES AT 2000, 630 CM^-^1
Sampling: TRANSMISSION
Path length: 0.012, 0.012, AND 0.012 CM (CsBr CELL)
Resolution: 4
Origin: DOW CORNING CORP.
1/CM	TRANSMITTANCE
232.495	0.981
242.342	0.979
252.189	0.977
262.036	0.961
271.882	0.951
281.729	0.94
291.576	0.927
301.423	0.903
311.27	0.865
321.117	0.822
330.963	0.769
340.81	0.762
350.657	0.798
360.504	0.845
370.351	0.897
380.198	0.912
390.044	0.922
399.891	0.934
409.738	0.94
419.585	0.939
429.432	0.935
439.279	0.931
449.125	0.922
458.972	0.924
468.819	0.932
478.666	0.934
488.513	0.934
498.36	0.926
508.206	0.911
518.053	0.869
527.9	0.826
537.747	0.81
547.594	0.801
557.441	0.846
567.287	0.896
577.134	0.914
586.981	0.926
596.828	0.918
606.675	0.892
616.522	0.877
626.368	0.856
636.215	0.782
646.062	0.829
655.909	0.718
665.756	0.797
675.603	0.828
685.449	0.836
695.296	0.844
705.143	0.838
714.99	0.804
724.837	0.664
734.684	0.702
744.53	0.738
754.377	0.738
764.224	0.697
774.071	0.569
783.918	0.463
793.765	0.638
803.611	0.731
813.458	0.739
823.305	0.727
833.152	0.702
842.999	0.673
852.846	0.645
862.692	0.633
872.539	0.589
882.386	0.542
892.233	0.504
902.08	0.442
911.927	0.355
921.773	0.3
931.62	0.226
941.467	0.205
951.314	0.251
961.161	0.361
971.008	0.503
980.854	0.61
990.701	0.661
1000.55	0.693
1010.39	0.712
1020.24	0.716
1030.09	0.71
1039.94	0.714
1049.78	0.704
1059.63	0.676
1069.48	0.656
1079.32	0.66
1089.17	0.5669
1099.02	0.522
1108.86	0.551
1118.71	0.59
1128.56	0.673
1138.4	0.637
1148.25	0.625
1158.1	0.691
1167.94	0.661
1177.79	0.63
1187.64	0.496
1197.48	0.316
1207.33	0.314
1217.18	0.157
1227.03	0.077
1236.87	0.174
1246.72	0.241
1256.57	0.228
1266.41	0.14
1276.26	0.159
1286.11	0.11
1295.95	0.253
1305.8	0.442
1315.65	0.497
1325.49	0.506
1335.34	0.502
1345.19	0.54
1355.03	0.634
1364.88	0.63
1374.73	0.402
1384.57	0.574
1394.42	0.484
1404.27	0.308
1414.12	0.244
1423.96	0.327
1433.81	0.365
1443.66	0.285
1453.5	0.095
1463.35	0.127
1473.2	0.645
1483.04	0.712
1492.89	0.743
1502.74	0.765
1512.58	0.767
1522.43	0.771
1532.28	0.759
1542.12	0.751
1551.97	0.758
1561.82	0.758
1571.66	0.75
1581.51	0.746
1591.36	0.744
1601.2	0.735
1611.05	0.711
1620.9	0.683
1630.75	0.637
1640.59	0.589
1650.44	0.527
1660.29	0.463
1670.13	0.3789
1679.98	0.1949
1689.83	0
1699.67	0
1709.52	0.002
1719.37	0.1401
1729.21	0.3431
1739.06	0.41
1748.91	0.444
1758.75	0.589
1768.6	0.648
1778.45	0.671
1788.29	0.675
1798.14	0.68
1807.99	0.685
1817.84	0.687
1827.68	0.695
1837.53	0.7
1847.38	0.714
1857.22	0.724
1867.07	0.735
1876.92	0.743
1886.76	0.747
1896.61	0.75
1906.46	0.758
1916.3	0.759
1926.15	0.759
1936	0.763
1945.84	0.769
1955.69	0.77
1965.54	0.765
1975.38	0.77
1985.23	0.77
1995.08	0.762
2004.93	0.7775
2014.77	0.784
2024.62	0.787
2034.47	0.7879
2044.31	0.791
2054.16	0.793
2064.01	0.7935
2073.85	0.794
2083.7	0.794
2093.55	0.794
2103.39	0.7921
2113.24	0.7906
2123.09	0.7896
2132.93	0.787
2142.78	0.786
2152.63	0.785
2162.47	0.7826
2172.32	0.7802
2182.17	0.778
2192.01	0.777
2201.86	0.7736
2211.71	0.773
2221.56	0.77
2231.4	0.77
2241.25	0.769
2251.1	0.7643
2260.94	0.7603
2270.79	0.758
2280.64	0.7543
2290.48	0.746
2300.33	0.744
2310.18	0.743
2320.02	0.734
2329.87	0.7267
2339.72	0.7181
2349.56	0.708
2359.41	0.6984
2369.26	0.6864
2379.1	0.6791
2388.95	0.6717
2398.8	0.6582
2408.65	0.6469
2418.49	0.636
2428.34	0.623
2438.19	0.6072
2448.03	0.597
2457.88	0.5778
2467.73	0.5538
2477.57	0.5421
2487.42	0.5111
2497.27	0.4959
2507.11	0.4666
2516.96	0.4439
2526.81	0.4202
2536.65	0.3938
2546.5	0.3715
2556.35	0.3586
2566.19	0.3526
2576.04	0.348
2585.89	0.3497
2595.74	0.3392
2605.58	0.3188
2615.43	0.3017
2625.28	0.291
2635.12	0.292
2644.97	0.2875
2654.82	0.2759
2664.66	0.2666
2674.51	0.261
2684.36	0.2711
2694.2	0.2805
2704.05	0.3003
2713.9	0.307
2723.74	0.2988
2733.59	0.2888
2743.44	0.2809
2753.28	0.275
2763.13	0.2709
2772.98	0.2639
2782.82	0.2568
2792.67	0.2478
2802.52	0.2299
2812.37	0.2089
2822.21	0.1827
2832.06	0.1569
2841.91	0.1106
2851.75	0.0317
2861.6	0.017
2871.45	0.016
2881.29	0.044
2891.14	0.034
2900.99	0.017
2910.83	0
2920.68	0
2930.53	0
2940.37	0
2950.22	0
2960.07	0
2969.91	0.0048
2979.76	0.0554
2989.61	0.0906
2999.46	0.1
3009.3	0.1059
3019.15	0.104
3029	0.099
3038.84	0.1029
3048.69	0.1109
3058.54	0.1189
3068.38	0.1258
3078.23	0.1298
3088.08	0.1377
3097.92	0.1438
3107.77	0.1579
3117.62	0.1669
3127.46	0.196
3137.31	0.2097
3147.16	0.2277
3157	0.2434
3166.85	0.2674
3176.7	0.2844
3186.55	0.3094
3196.39	0.3333
3206.24	0.3583
3216.09	0.3839
3225.93	0.4069
3235.78	0.4314
3245.63	0.4625
3255.47	0.4902
3265.32	0.5184
3275.17	0.5424
3285.01	0.5737
3294.86	0.5973
3304.71	0.6218
3314.55	0.6391
3324.4	0.6556
3334.25	0.6708
3344.09	0.6983
3353.94	0.7195
3363.79	0.747
3373.63	0.7617
3383.48	0.7802
3393.33	0.7964
3403.18	0.8112
3413.02	0.8201
3422.87	0.8314
3432.72	0.8391
3442.56	0.8495
3452.41	0.853
3462.26	0.857
3472.1	0.861
3481.95	0.864
3491.8	0.863
3501.64	0.8537
3511.49	0.8413
3521.34	0.8453
3531.18	0.8669
3541.03	0.88
3550.88	0.887
3560.72	0.8909
3570.57	0.8986
3580.42	0.891
3590.27	0.888
3600.11	0.8914
3609.96	0.892
3619.81	0.891
3629.65	0.888
3639.5	0.888
3649.35	0.888
3659.19	0.887
3669.04	0.888
3678.89	0.888
3688.73	0.889
3698.58	0.888
3708.43	0.891
3718.27	0.892
3728.12	0.892
3737.97	0.892
3747.81	0.8906
3757.66	0.892
3767.51	0.8925
3777.36	0.892
3787.2	0.893
