Infrared Spectrum: 3-Octene, (E)
Formula: C8 H16
CAS: 14919-01-8
State: LIQUID (NEAT)
Class: COBLENTZ III
Instrument: BECKMAN IR-12 (GRATING)
Instrument parameters: GRATING
Sampling: TRANSMISSION
Path length: 0.0094 CM
Resolution: 2
Origin: COLGATE-PALMOLIVE COMPANY (KELLENBACH)
1/CM	TRANSMITTANCE
200	0.5441
210	0.6052
220	0.7033
230	0.8048
240	0.9055
250	0.8978
260	0.8824
270	0.8904
280	0.8776
290	0.8769
300	0.9017
310	0.9758
320	0.9946
330	1.0099
340	1.013
350	0.9902
360	0.9442
370	0.9178
380	0.9036
390	0.8815
400	0.8557
410	0.8358
420	0.8591
430	0.861
440	0.8438
450	0.855
460	0.8683
470	0.8666
480	0.8541
490	0.8564
500	0.8706
510	0.8692
520	0.8518
530	0.8634
540	0.8951
550	0.8977
560	0.8943
570	0.8948
580	0.8928
590	0.8643
600	0.8729
610	0.8885
620	0.8898
630	0.888
640	0.8857
650	0.8779
660	0.8622
670	0.8517
680	0.8408
690	0.8288
700	0.7939
710	0.7313
720	0.5952
730	0.3695
740	0.4036
750	0.4501
760	0.5381
770	0.5283
780	0.5386
790	0.5852
800	0.6061
810	0.6269
820	0.6237
830	0.6351
840	0.6644
850	0.6445
860	0.6328
870	0.6128
880	0.5191
890	0.4653
900	0.5326
910	0.5446
920	0.4187
930	0.1692
940	0.2716
950	0.0762
960	0.0054
970	0.0002
980	0.1553
990	0.2803
1000	0.3903
1010	0.4975
1020	0.5501
1030	0.4144
1040	0.3508
1050	0.3545
1060	0.3366
1070	0.3156
1080	0.3269
1090	0.35
1100	0.3146
1110	0.5279
1120	0.5968
1130	0.5984
1140	0.5699
1150	0.6071
1160	0.6403
1170	0.6495
1180	0.6415
1190	0.6112
1200	0.5803
1210	0.6136
1220	0.6197
1230	0.5486
1240	0.5021
1250	0.5209
1260	0.5361
1270	0.4937
1280	0.3256
1290	0.2933
1300	0.2976
1310	0.3476
1320	0.3661
1330	0.3147
1340	0.2386
1350	0.3276
1360	0.3137
1370	0.093
1380	0.0778
1390	0.363
1400	0.3954
1410	0.3685
1420	0.2335
1430	0.0301
1440	0.0126
1450	0.0058
1460	0
1470	0.079
1480	0.3346
1490	0.4357
1500	0.4915
1510	0.5424
1520	0.5723
1530	0.5975
1540	0.5984
1550	0.6242
1560	0.6321
1570	0.6509
1580	0.6532
1590	0.6569
1600	0.657
1610	0.6625
1620	0.6572
1630	0.6654
1640	0.6526
1650	0.6449
1660	0.6116
1670	0.6077
1680	0.6248
1690	0.6341
1700	0.6298
1710	0.6246
1720	0.6313
1730	0.6366
1740	0.6453
1750	0.6493
1760	0.6341
1770	0.5909
1780	0.5849
1790	0.5963
1800	0.6304
1810	0.6626
1820	0.6731
1830	0.6803
1840	0.6857
1850	0.6879
1860	0.6879
1870	0.6876
1880	0.6902
1890	0.6865
1900	0.6893
1910	0.7002
1920	0.7004
1930	0.7014
1940	0.7075
1950	0.7126
1960	0.7136
1970	0.7123
1980	0.7153
1990	0.7156
2000	0.7183
2010	0.7354
2020	0.7175
2030	0.7056
2040	0.7133
2050	0.7183
2060	0.7203
2070	0.7261
2080	0.7315
2090	0.7333
2100	0.7313
2110	0.7312
2120	0.7333
2130	0.7333
2140	0.7282
2150	0.7237
2160	0.721
2170	0.7205
2180	0.7174
2190	0.716
2200	0.715
2210	0.7094
2220	0.7114
2230	0.7169
2240	0.7168
2250	0.7173
2260	0.7194
2270	0.7224
2280	0.7234
2290	0.722
2300	0.7184
2310	0.7129
2320	0.7097
2330	0.7074
2340	0.7059
2350	0.7031
2360	0.6965
2370	0.691
2380	0.6896
2390	0.6883
2400	0.6879
2410	0.6916
2420	0.6981
2430	0.6991
2440	0.7052
2450	0.7182
2460	0.7217
2470	0.7217
2480	0.7187
2490	0.7083
2500	0.6944
2510	0.6825
2520	0.6704
2530	0.6607
2540	0.6595
2550	0.6553
2560	0.6456
2570	0.6339
2580	0.6233
2590	0.6168
2600	0.621
2610	0.6263
2620	0.6214
2630	0.6057
2640	0.5859
2650	0.5625
2660	0.5383
2670	0.5387
2680	0.5604
2690	0.5726
2700	0.5636
2710	0.5284
2720	0.4504
2730	0.4442
2740	0.486
2750	0.487
2760	0.4556
2770	0.4239
2780	0.3763
2790	0.3387
2800	0.2651
2810	0.1834
2820	0.1017
2830	0.02
2840	0.0001
2850	0
2860	0
2870	0
2880	0
2890	0
2900	0
2910	0
2920	0
2930	0
2940	0
2950	0
2960	0
2970	0.0001
2980	0.0001
2990	0.013
3000	0.0306
3010	0.0336
3020	0.0203
3030	0.0881
3040	0.1848
3050	0.2816
3060	0.3734
3070	0.4544
3080	0.4862
3090	0.5112
3100	0.5311
3110	0.5439
3120	0.5523
3130	0.5508
3140	0.5496
3150	0.5474
3160	0.546
3170	0.5531
3180	0.5685
3190	0.588
3200	0.6014
3210	0.6126
3220	0.6247
3230	0.6345
3240	0.6439
3250	0.6522
3260	0.6588
3270	0.6633
3280	0.665
3290	0.6664
3300	0.6674
3310	0.6678
3320	0.6678
3330	0.6674
3340	0.6669
3350	0.666
3360	0.665
3370	0.6623
3380	0.6622
3390	0.6627
3400	0.6634
3410	0.6642
3420	0.665
3430	0.6655
3440	0.6659
3450	0.6666
3460	0.6681
3470	0.6696
3480	0.6704
3490	0.6709
3500	0.6717
3510	0.6733
3520	0.6774
3530	0.6764
3540	0.6767
3550	0.6753
3560	0.6738
3570	0.6717
3580	0.6691
3590	0.6664
3600	0.6636
3610	0.6608
3620	0.658
3630	0.6555
3640	0.6537
3650	0.6522
3660	0.649
3670	0.6452
3680	0.6458
3690	0.6502
3700	0.6503
3710	0.6492
3720	0.6482
3730	0.6461
3740	0.6435
3750	0.6409
3760	0.6394
3770	0.6381
3780	0.6378
3790	0.6367
3800	0.635
3810	0.6323
3820	0.6313
3830	0.6313
3840	0.6334
3850	0.6331
3860	0.6275
3870	0.633
3880	0.6338
3890	0.6302
3900	0.6259
3910	0.621
3920	0.6178
3930	0.6114
3940	0.6049
3950	0.5989
3960	0.5935
3970	0.5901
3980	0.591
3990	0.597
4000	0.592
