Infrared Spectrum: 1-Fluoro-2-nitrobenzene
Formula: C6 H4 F N O2
CAS: 1493-27-2
State: SOLUTION (10% CCl4 FOR 3800-1340, 10% CS2 FOR 1340-430 CM^-^1)
Class: COBLENTZ III
Instrument: DOW KBr FOREPRISM-GRATING
Instrument parameters: BLAZED AT 3.5, 12.0, 20.0 MICRON AND CHANGED AT 5.0, 7.5, 14.9 MICRON
Sampling: TRANSMISSION
Path length: 0.011 CM, 0.011 CM
Resolution: 2
Origin: DOW CHEMICAL COMPANY
1/CM	TRANSMITTANCE
3804	0.8909
3795	0.8898
3786	0.8888
3777	0.8881
3768	0.8878
3759	0.8877
3750	0.8877
3741	0.8878
3732	0.8868
3723	0.8828
3714	0.8789
3705	0.8764
3696	0.8775
3687	0.8817
3678	0.887
3669	0.8853
3660	0.884
3651	0.8827
3642	0.8816
3633	0.8804
3624	0.8792
3615	0.8781
3606	0.877
3597	0.876
3588	0.8749
3579	0.8739
3570	0.8739
3561	0.8738
3552	0.8738
3543	0.8736
3534	0.873
3525	0.8721
3516	0.8711
3507	0.8687
3498	0.8658
3489	0.863
3480	0.8603
3471	0.8593
3462	0.8583
3453	0.8571
3444	0.8562
3435	0.855
3426	0.8538
3417	0.8525
3408	0.8515
3399	0.8508
3390	0.8503
3381	0.8506
3372	0.8514
3363	0.8521
3354	0.853
3345	0.8551
3336	0.8574
3327	0.8595
3318	0.8612
3309	0.8628
3300	0.8644
3291	0.8662
3282	0.8678
3273	0.8697
3264	0.8704
3255	0.8707
3246	0.8715
3237	0.8724
3228	0.8733
3219	0.8728
3210	0.8721
3201	0.871
3192	0.8699
3183	0.8704
3174	0.8728
3165	0.8758
3156	0.877
3147	0.8751
3138	0.8717
3129	0.8666
3120	0.8323
3111	0.7961
3102	0.808
3093	0.8125
3084	0.7965
3075	0.7865
3066	0.8018
3057	0.8025
3048	0.8359
3039	0.8516
3030	0.8458
3021	0.8533
3012	0.8652
3003	0.8751
2994	0.8817
2985	0.8832
2976	0.8817
2967	0.8753
2958	0.8668
2949	0.8611
2940	0.8612
2931	0.8609
2922	0.8593
2913	0.8566
2904	0.8548
2895	0.8512
2886	0.8249
2877	0.7528
2868	0.7751
2859	0.8302
2850	0.8428
2841	0.8507
2832	0.859
2823	0.8666
2814	0.8724
2805	0.8753
2796	0.8741
2787	0.8728
2778	0.8753
2769	0.8787
2760	0.8801
2751	0.8752
2742	0.862
2733	0.8723
2724	0.879
2715	0.8815
2706	0.8813
2697	0.8783
2688	0.872
2679	0.8702
2670	0.8736
2661	0.8774
2652	0.8821
2643	0.8847
2634	0.8849
2625	0.8831
2616	0.8793
2607	0.8787
2598	0.8782
2589	0.8777
2580	0.8774
2571	0.8778
2562	0.8801
2553	0.8838
2544	0.8866
2535	0.8874
2526	0.8882
2517	0.8881
2508	0.8866
2499	0.884
2490	0.8801
2481	0.8631
2472	0.8703
2463	0.8782
2454	0.8811
2445	0.8806
2436	0.8788
2427	0.8764
2418	0.8751
2409	0.8748
2400	0.8727
2391	0.87
2382	0.8709
2373	0.8747
2364	0.8783
2355	0.8763
2346	0.8715
2337	0.8644
2328	0.8599
2319	0.8621
2310	0.8713
2301	0.8604
2292	0.8592
2283	0.8634
2274	0.8678
2265	0.872
2256	0.876
2247	0.8791
2238	0.8813
2229	0.883
2220	0.8845
2211	0.8858
2202	0.8865
2193	0.8873
2184	0.888
2175	0.8887
2166	0.8893
2157	0.8899
2148	0.8899
2139	0.8899
2130	0.8898
2121	0.8896
2112	0.8895
2103	0.8892
2094	0.8888
2085	0.8863
2076	0.8814
2067	0.8837
2058	0.8862
2049	0.8832
2040	0.883
2031	0.8852
2022	0.8873
2013	0.8868
2004	0.884
1995	0.8833
1986	0.8908
1977	0.8847
1968	0.8661
1959	0.8446
1950	0.8724
1941	0.8716
1932	0.8367
1923	0.848
1914	0.8747
1905	0.8791
1896	0.8718
1887	0.8742
1878	0.8808
1869	0.8867
1860	0.8856
1851	0.8751
1842	0.8652
1833	0.8748
1824	0.8678
1815	0.8189
1806	0.8191
1797	0.856
1788	0.8711
1779	0.8809
1770	0.8841
1761	0.8811
1752	0.8767
1743	0.8725
1734	0.8671
1725	0.8593
1716	0.8668
1707	0.8748
1698	0.869
1689	0.8496
1680	0.8423
1671	0.8432
1662	0.8315
1653	0.8121
1644	0.7735
1635	0.7244
1626	0.6633
1617	0.2069
1608	0.0099
1599	0.0672
1590	0.2774
1581	0.3105
1572	0.2566
1563	0.2557
1554	0.1059
1545	0.014
1536	0.0062
1527	0.0387
1518	0.2585
1509	0.3389
1500	0.3943
1491	0.2723
1482	0.1789
1473	0.5121
1464	0.6393
1455	0.6469
1446	0.7203
1437	0.7343
1428	0.7867
1419	0.8089
1410	0.8296
1401	0.7554
1392	0.7858
1383	0.7415
1374	0.4578
1365	0.1918
1356	0.0123
1347	0.0021
1338	0.2084
1329	0.4169
1320	0.591
1311	0.4269
1302	0.565
1293	0.6549
1284	0.6928
1275	0.6955
1266	0.1396
1257	0.6057
1248	0.5656
1239	0.1712
1230	0.6075
1221	0.7191
1212	0.7703
1203	0.7972
1194	0.8198
1185	0.8327
1176	0.8284
1167	0.8121
1158	0.6395
1149	0.7701
1140	0.5451
1131	0.7086
1122	0.7754
1113	0.8094
1104	0.7925
1095	0.6199
1086	0.4958
1077	0.713
1068	0.7878
1059	0.8055
1050	0.7243
1041	0.815
1032	0.663
1023	0.7519
1014	0.8148
1005	0.8436
996	0.8459
987	0.8466
978	0.8468
969	0.847
960	0.8449
951	0.7167
942	0.774
933	0.8355
924	0.8442
915	0.8471
906	0.8475
897	0.847
888	0.8221
879	0.7644
870	0.6517
861	0.207
852	0.3868
843	0.6994
834	0.778
825	0.7955
816	0.7183
807	0.3852
798	0.7343
789	0.7415
780	0.2604
771	0.2614
762	0.6617
753	0.6728
744	0.0057
735	0.2567
726	0.5864
717	0.7601
708	0.8008
699	0.8086
690	0.7546
681	0.5887
672	0.7441
663	0.69
654	0.3749
645	0.7345
636	0.8101
627	0.8388
618	0.8447
609	0.8514
600	0.856
591	0.8595
582	0.8577
573	0.8061
564	0.7751
555	0.82
546	0.7375
537	0.679
528	0.8015
519	0.7465
510	0.6761
501	0.7778
492	0.8047
483	0.814
474	0.816
465	0.8121
456	0.8061
447	0.8025
438	0.8015
