Infrared Spectrum: 3-HEPTANOL, 4-METHYL-
Formula: C8 H18 O
CAS: 14979-39-6
State: SOLUTION (10% CCl4 FOR 3800-1330, 10% CS2 FOR 1330-400 CM^-^1)
Class: COBLENTZ III
Instrument: BECKMAN IR-9 (GRATING)
Instrument parameters: ORDER CHANGES: 670, 1200, 2000 CM^-^1
Sampling: TRANSMISSION
Path length: 0.011 CM, 0.010 CM
Resolution: 2
Origin: DOW CHEMICAL COMPANY
1/CM	TRANSMITTANCE
405.887	0.96
415.182	0.973
424.477	0.969
433.772	0.95
443.068	0.936
452.363	0.918
461.658	0.898
470.953	0.893
480.248	0.885
489.543	0.869
498.838	0.861
508.134	0.853
517.429	0.85
526.724	0.866
536.019	0.876
545.314	0.877
554.609	0.882
563.904	0.892
573.2	0.896
582.495	0.898
591.79	0.898
601.085	0.901
610.38	0.888
619.675	0.895
628.97	0.906
638.266	0.911
647.561	0.917
656.856	0.928
666.151	0.95
675.446	0.957
684.741	0.968
694.036	0.978
703.332	0.982
712.627	0.989
721.922	0.994
731.217	0.976
740.512	0.825
749.807	0.936
759.103	0.979
768.398	0.986
777.693	0.96
786.988	1.018
796.283	1.001
805.578	1.013
814.873	0.982
824.169	0.963
833.464	0.981
842.759	1.008
852.054	1.011
861.349	0.969
870.644	0.956
879.939	0.933
889.235	0.934
898.53	0.957
907.825	0.885
917.12	0.898
926.415	0.915
935.71	0.765
945.005	0.428
954.301	0.389
963.596	0.193
972.891	0.2191
982.186	0.7
991.481	0.831
1000.78	0.834
1010.07	0.805
1019.37	0.777
1028.66	0.726
1037.96	0.691
1047.25	0.693
1056.55	0.757
1065.84	0.694
1075.14	0.633
1084.43	0.683
1093.73	0.619
1103.02	0.598
1112.32	0.718
1121.61	0.767
1130.91	0.783
1140.2	0.745
1149.5	0.648
1158.79	0.795
1168.09	0.86
1177.38	0.922
1186.68	0.943
1195.97	0.917
1205.27	0.854
1214.56	0.765
1223.86	0.693
1233.15	0.69
1242.45	0.699
1251.75	0.716
1261.04	0.751
1270.34	0.779
1279.63	0.781
1288.93	0.76
1298.22	0.741
1307.52	0.738
1316.81	0.757
1326.11	0.763
1335.4	0.758
1344.7	0.771
1353.99	0.779
1363.29	0.738
1372.58	0.6219
1381.88	0.328
1391.17	0.558
1400.47	0.668
1409.76	0.716
1419.06	0.77
1428.35	0.8
1437.65	0.78
1446.94	0.665
1456.24	0.3379
1465.53	0.218
1474.83	0.466
1484.12	0.768
1493.42	0.869
1502.71	0.911
1512.01	0.938
1521.3	0.962
1530.6	0.973
1539.89	0.991
1549.19	1.01
1558.48	1.017
1567.78	1.015
1577.08	1.01
1586.37	1.007
1595.67	1.005
1604.96	0.997
1614.26	0.988
1623.55	0.979
1632.85	0.976
1642.14	0.978
1651.44	0.979
1660.73	0.984
1670.03	0.986
1679.32	0.988
1688.62	0.991
1697.91	0.992
1707.21	0.994
1716.5	0.997
1725.8	1.001
1735.09	1.002
1744.39	1.002
1753.68	1.007
1762.98	1.007
1772.27	1.007
1781.57	1.007
1790.86	1.007
1800.16	1.007
1809.45	1.007
1818.75	1.007
1828.04	1.007
1837.34	1.007
1846.63	1.005
1855.93	1.005
1865.22	1.004
1874.52	1.004
1883.82	1.005
1893.11	1.004
1902.41	1.004
1911.7	1.004
1921	1.002
1930.29	1.002
1939.59	1.001
1948.88	1.001
1958.18	1.002
1967.47	1.002
1976.77	1.004
1986.06	1.004
1995.36	1.005
2004.65	1.002
2013.95	1.005
2023.24	1.007
2032.54	1.007
2041.83	1.008
2051.13	1.008
2060.42	1.008
2069.72	1.008
2079.01	1.007
2088.31	1.007
2097.6	1.005
2106.9	1.005
2116.19	1.005
2125.49	1.005
2134.78	1.005
2144.08	1.004
2153.37	1.002
2162.67	1.001
2171.96	1.001
2181.26	1.001
2190.55	1.001
2199.85	1.001
2209.15	1
2218.44	1
2227.74	1
2237.03	1
2246.33	1
2255.62	0.998
2264.92	0.998
2274.21	0.998
2283.51	0.998
2292.8	0.998
2302.1	0.998
2311.39	0.998
2320.69	0.9956
2329.98	0.995
2339.28	0.994
2348.57	0.994
2357.87	0.994
2367.16	0.995
2376.46	0.995
2385.75	0.9913
2395.05	0.984
2404.34	0.981
2413.64	0.981
2422.93	0.981
2432.23	0.982
2441.52	0.981
2450.82	0.981
2460.11	0.981
2469.41	0.981
2478.7	0.981
2488	0.981
2497.29	0.981
2506.59	0.981
2515.88	0.979
2525.18	0.979
2534.48	0.9782
2543.77	0.975
2553.07	0.97
2562.36	0.9651
2571.66	0.9594
2580.95	0.956
2590.25	0.9502
2599.54	0.9431
2608.84	0.937
2618.13	0.933
2627.43	0.931
2636.72	0.93
2646.02	0.93
2655.31	0.928
2664.61	0.927
2673.9	0.925
2683.2	0.9221
2692.49	0.917
2701.79	0.912
2711.08	0.9061
2720.38	0.8932
2729.67	0.8722
2738.97	0.8788
2748.26	0.893
2757.56	0.896
2766.85	0.892
2776.15	0.882
2785.44	0.87
2794.74	0.8529
2804.03	0.8239
2813.33	0.7886
2822.62	0.7064
2831.92	0.6213
2841.21	0.3919
2850.51	0.2642
2859.81	0.1851
2869.1	0.0428
2878.4	0.1142
2887.69	0.2069
2896.99	0.1967
2906.28	0.1487
2915.58	0.0764
2924.87	0.0517
2934.17	0.0464
2943.46	0.0718
2952.76	0.0453
2962.05	0.0228
2971.35	0.0269
2980.64	0.2069
2989.94	0.5231
2999.23	0.6908
3008.53	0.7784
3017.82	0.8342
3027.12	0.8675
3036.41	0.8883
3045.71	0.9065
3055	0.914
3064.3	0.9226
3073.59	0.933
3082.89	0.9344
3092.18	0.937
3101.48	0.9432
3110.77	0.95
3120.07	0.9537
3129.36	0.9538
3138.66	0.947
3147.95	0.941
3157.25	0.9337
3166.55	0.9295
3175.84	0.9272
3185.14	0.9192
3194.43	0.914
3203.73	0.912
3213.02	0.909
3222.32	0.9034
3231.61	0.8981
3240.91	0.8835
3250.2	0.8717
3259.5	0.8514
3268.79	0.831
3278.09	0.815
3287.38	0.791
3296.68	0.7613
3305.97	0.7292
3315.27	0.7012
3324.56	0.6746
3333.86	0.6468
3343.15	0.6307
3352.45	0.6089
3361.74	0.5942
3371.04	0.5862
3380.33	0.5786
3389.63	0.574
3398.92	0.574
3408.22	0.572
3417.51	0.572
3426.81	0.574
3436.1	0.575
3445.4	0.575
3454.69	0.5775
3463.99	0.579
3473.28	0.5801
3482.58	0.5845
3491.88	0.5884
3501.17	0.6039
3510.47	0.618
3519.76	0.6554
3529.06	0.692
3538.35	0.741
3547.65	0.7801
3556.94	0.8295
3566.24	0.8546
3575.53	0.8786
3584.83	0.8941
3594.12	0.8902
3603.42	0.8247
3612.71	0.7503
3622.01	0.6841
3631.3	0.6456
3640.6	0.7332
3649.89	0.8895
3659.19	0.9335
3668.48	0.9512
3677.78	0.954
3687.07	0.9566
3696.37	0.9744
3705.66	0.9816
3714.96	0.988
3724.25	0.9916
3733.55	0.9933
3742.84	0.997
3752.14	0.998
3761.43	0.998
3770.73	1
3780.02	1
3789.32	1.001
3798.61	1.001
3807.91	1.001
