Infrared Spectrum: BENZYL DISULFIDE
Formula: C14 H14 S2
CAS: 150-60-7
State: SOLUTION (10% CCl4 FOR 5000-1330, 10% CS2 FOR 1330-625 CM^-^1)
Class: COBLENTZ
Instrument: Not specified, most likely a prism, grating, or hybrid spectrometer.
Sampling: TRANSMISSION
Path length: 0.0123 CM, 0.0115 CM
Resolution: 4
Origin: DOW CHEMICAL COMPANY
MICROMETERS	TRANSMITTANCE
2.033	0.883
2.07315	0.875
2.11331	0.863
2.15346	0.875
2.19361	0.878
2.23377	0.865
2.27392	0.873
2.31408	0.871
2.35423	0.87
2.39438	0.858
2.43454	0.863
2.47469	0.883
2.51484	0.885
2.555	0.878
2.59515	0.888
2.63531	0.883
2.67546	0.885
2.71561	0.881
2.75577	0.876
2.79592	0.871
2.83607	0.865
2.87623	0.861
2.91638	0.858
2.95653	0.853
2.99669	0.86
3.03684	0.856
3.077	0.855
3.11715	0.853
3.1573	0.826
3.19746	0.695
3.23761	0.62
3.27776	0.606
3.31792	0.816
3.35807	0.768
3.39823	0.761
3.43838	0.848
3.47853	0.86
3.51869	0.858
3.55884	0.868
3.59899	0.883
3.63915	0.885
3.6793	0.88
3.71945	0.885
3.75961	0.873
3.79976	0.878
3.83992	0.885
3.88007	0.888
3.92022	0.885
3.96038	0.885
4.00053	0.891
4.04068	0.888
4.08084	0.89
4.12099	0.891
4.16115	0.885
4.2013	0.888
4.24145	0.883
4.28161	0.888
4.32176	0.885
4.36191	0.891
4.40207	0.888
4.44222	0.895
4.48238	0.891
4.52253	0.895
4.56268	0.9
4.60284	0.9
4.64299	0.901
4.68314	0.901
4.7233	0.901
4.76345	0.9
4.8036	0.896
4.84376	0.901
4.88391	0.903
4.92407	0.898
4.96422	0.891
5.00437	0.891
5.04453	0.876
5.08468	0.85
5.12483	0.84
5.16499	0.891
5.20514	0.896
5.2453	0.86
5.28545	0.855
5.3256	0.851
5.36576	0.895
5.40591	0.891
5.44606	0.886
5.48622	0.866
5.52637	0.841
5.56652	0.876
5.60668	0.88
5.64683	0.88
5.68699	0.843
5.72714	0.871
5.76729	0.885
5.80745	0.881
5.8476	0.885
5.88775	0.88
5.92791	0.861
5.96806	0.853
6.00822	0.856
6.04837	0.86
6.08852	0.851
6.12868	0.851
6.16883	0.818
6.20898	0.706
6.24914	0.85
6.28929	0.835
6.32944	0.871
6.3696	0.885
6.40975	0.891
6.44991	0.875
6.49006	0.853
6.53021	0.848
6.57037	0.848
6.61052	0.803
6.65067	0.533
6.69083	0.633
6.73098	0.825
6.77114	0.83
6.81129	0.716
6.85144	0.486
6.8916	0.821
6.93175	0.776
6.9719	0.775
7.01206	0.723
7.05221	0.756
7.09236	0.828
7.13252	0.851
7.17267	0.846
7.21283	0.85
7.25298	0.865
7.29313	0.871
7.33329	0.886
7.37344	0.885
7.41359	0.883
7.45375	0.851
7.4939	0.87
7.53406	0.855
7.57421	0.863
7.61436	0.875
7.65452	0.878
7.69467	0.868
7.73482	0.856
7.77498	0.866
7.81513	0.873
7.85529	0.878
7.89544	0.873
7.93559	0.863
7.97575	0.851
8.0159	0.823
8.05605	0.75
8.09621	0.645
8.13636	0.65
8.17651	0.8
8.21667	0.82
8.25682	0.775
8.29698	0.658
8.33713	0.62
8.37728	0.756
8.41744	0.771
8.45759	0.771
8.49774	0.805
8.5379	0.801
8.57805	0.791
8.61821	0.785
8.65836	0.793
8.69851	0.806
8.73867	0.815
8.77882	0.811
8.81897	0.811
8.85913	0.821
8.89928	0.826
8.93943	0.825
8.97959	0.825
9.01974	0.821
9.0599	0.81
9.10005	0.81
9.1402	0.821
9.18036	0.821
9.22051	0.811
9.26066	0.783
9.30082	0.685
9.34097	0.563
9.38113	0.565
9.42128	0.721
9.46143	0.788
9.50159	0.803
9.54174	0.815
9.58189	0.82
9.62205	0.8
9.6622	0.715
9.70235	0.6
9.74251	0.708
9.78266	0.8
9.82282	0.815
9.86297	0.828
9.90312	0.83
9.94328	0.826
9.98343	0.818
10.0236	0.835
10.0637	0.841
10.1039	0.841
10.144	0.838
10.1842	0.84
10.2244	0.84
10.2645	0.845
10.3047	0.845
10.3448	0.84
10.385	0.838
10.4251	0.85
10.4653	0.851
10.5054	0.856
10.5456	0.863
10.5857	0.861
10.6259	0.86
10.666	0.861
10.7062	0.86
10.7464	0.858
10.7865	0.851
10.8267	0.843
10.8668	0.831
10.907	0.788
10.9471	0.711
10.9873	0.691
11.0274	0.778
11.0676	0.831
11.1077	0.846
11.1479	0.86
11.188	0.861
11.2282	0.861
11.2683	0.856
11.3085	0.856
11.3487	0.855
11.3888	0.856
11.429	0.851
11.4691	0.831
11.5093	0.803
11.5494	0.796
11.5896	0.803
11.6297	0.83
11.6699	0.841
11.71	0.851
11.7502	0.853
11.7903	0.856
11.8305	0.856
11.8707	0.85
11.9108	0.843
11.951	0.845
11.9911	0.853
12.0313	0.86
12.0714	0.868
12.1116	0.868
12.1517	0.871
12.1919	0.87
12.232	0.851
12.2722	0.841
12.3123	0.836
12.3525	0.841
12.3927	0.84
12.4328	0.826
12.473	0.82
12.5131	0.83
12.5533	0.848
12.5934	0.85
12.6336	0.853
12.6737	0.85
12.7139	0.835
12.754	0.826
12.7942	0.808
12.8343	0.778
12.8745	0.731
12.9147	0.66
12.9548	0.551
12.995	0.466
13.0351	0.383
13.0753	0.283
13.1154	0.21
13.1556	0.25
13.1957	0.371
13.2359	0.51
13.276	0.591
13.3162	0.655
13.3563	0.703
13.3965	0.738
13.4366	0.76
13.4768	0.775
13.517	0.781
13.5571	0.796
13.5973	0.801
13.6374	0.805
13.6776	0.8
13.7177	0.803
13.7579	0.798
13.798	0.79
13.8382	0.776
13.8783	0.768
13.9185	0.743
13.9586	0.721
13.9988	0.678
14.039	0.64
14.0791	0.585
14.1193	0.505
14.1594	0.411
14.1996	0.32
14.2397	0.173
14.2799	0.101
14.32	0.05
14.3602	0.043
14.4003	0.076
14.4405	0.186
14.4806	0.315
14.5208	0.493
14.561	0.618
14.6011	0.695
14.6413	0.73
14.6814	0.756
14.7216	0.775
14.7617	0.783
14.8019	0.788
14.842	0.785
14.8822	0.778
14.9223	0.761
14.9625	0.748
15.0026	0.736
15.0428	0.715
15.0829	0.705
15.1231	0.695
15.1633	0.69
15.2034	0.69
15.2436	0.695
15.2837	0.708
15.3239	0.731
15.364	0.758
15.4042	0.778
15.4443	0.801
15.4845	0.821
15.5246	0.85
15.5648	0.87
15.6049	0.876
15.6451	0.881
15.6853	0.888
15.7254	0.891
15.7656	0.898
15.8057	0.903
15.8459	0.91
15.886	0.911
