Infrared Spectrum: P-METHOXYPHENOL
Formula: C7 H8 O2
CAS: 150-76-5
State: SOLUTION (ETHYL ETHER)
Class: COBLENTZ
Instrument: Not specified, most likely a prism, grating, or hybrid spectrometer.
Sampling: TRANSMISSION
Path length: 0.0200 CM
Resolution: 4
Origin: BATTELLE MEMORIAL INSTITUTE (R. JAKOBSEN)
1/CM	TRANSMITTANCE
300.066	0.384
300.996	0.389
301.925	0.396
302.855	0.416
303.784	0.403
304.714	0.445
305.644	0.478
306.573	0.533
307.503	0.58
308.433	0.625
309.362	0.639
310.292	0.655
311.221	0.663
312.151	0.681
313.081	0.679
314.01	0.688
314.94	0.663
315.869	0.659
316.799	0.663
317.729	0.668
318.658	0.659
319.588	0.664
320.518	0.66
321.447	0.671
322.377	0.667
323.306	0.667
324.236	0.647
325.166	0.661
326.095	0.675
327.025	0.663
327.954	0.618
328.884	0.664
329.814	0.652
330.743	0.836
331.673	0.832
332.603	0.83
333.532	0.828
334.462	0.831
335.391	0.84
336.321	0.827
337.251	0.842
338.18	0.839
339.11	0.838
340.039	0.843
340.969	0.844
341.899	0.84
342.828	0.84
343.758	0.846
344.688	0.844
345.617	0.851
346.547	0.847
347.476	0.85
348.406	0.846
349.336	0.84
350.265	0.822
351.195	0.82
352.124	0.824
353.054	0.814
353.984	0.815
354.913	0.819
355.843	0.82
356.773	0.806
357.702	0.81
358.632	0.799
359.561	0.794
360.491	0.904
361.421	0.904
362.35	0.9
363.28	0.891
364.209	0.885
365.139	0.879
366.069	0.876
366.998	0.862
367.928	0.851
368.858	0.838
369.787	0.834
370.717	0.832
371.646	0.828
372.576	0.822
373.506	0.809
374.435	0.787
375.365	0.782
376.294	0.779
377.224	0.774
378.154	0.759
379.083	0.751
380.013	0.751
380.943	0.751
381.872	0.751
382.802	0.745
383.731	0.742
384.661	0.75
385.591	0.75
386.52	0.751
387.45	0.761
388.379	0.759
389.309	0.757
390.239	0.757
391.168	0.757
392.098	0.761
393.028	0.769
393.957	0.777
394.887	0.781
395.816	0.791
396.746	0.799
397.676	0.809
398.605	0.812
399.535	0.822
400.464	0.824
401.394	0.827
402.324	0.831
403.253	0.831
404.183	0.842
405.113	0.85
406.042	0.856
406.972	0.851
407.901	0.852
408.831	0.855
409.761	0.859
410.69	0.867
411.62	0.871
412.549	0.871
413.479	0.863
414.409	0.863
415.338	0.863
416.268	0.862
417.198	0.856
418.127	0.85
419.057	0.848
419.986	0.846
420.916	0.842
421.846	0.842
422.775	0.842
423.705	0.838
424.634	0.832
425.564	0.822
426.494	0.818
427.423	0.814
428.353	0.803
429.283	0.79
430.212	0.782
431.142	0.774
432.071	0.761
433.001	0.74
433.931	0.709
434.86	0.679
435.79	0.653
436.719	0.628
437.649	0.592
438.579	0.572
439.508	0.562
440.438	0.554
441.368	0.55
442.297	0.545
443.227	0.554
444.156	0.584
445.086	0.6
446.016	0.623
446.945	0.649
447.875	0.672
448.804	0.688
449.734	0.708
450.664	0.718
451.593	0.721
452.523	0.729
453.453	0.746
454.382	0.755
455.312	0.762
456.241	0.77
457.171	0.782
458.101	0.786
459.03	0.793
459.96	0.797
460.889	0.797
461.819	0.797
462.749	0.806
463.678	0.811
464.608	0.811
465.538	0.811
466.467	0.815
467.397	0.819
468.326	0.812
469.256	0.811
470.186	0.811
471.115	0.81
472.045	0.809
472.974	0.807
473.904	0.801
474.834	0.806
475.763	0.809
476.693	0.801
477.623	0.798
478.552	0.793
479.482	0.787
480.411	0.785
481.341	0.783
482.271	0.781
483.2	0.778
484.13	0.766
485.059	0.759
485.989	0.753
486.919	0.75
487.848	0.749
488.778	0.74
489.708	0.736
490.637	0.732
491.567	0.728
492.496	0.725
493.426	0.71
494.356	0.692
495.285	0.677
496.215	0.667
497.144	0.647
498.074	0.633
499.004	0.62
499.933	0.611
500.863	0.602
501.793	0.591
502.722	0.582
503.652	0.563
504.581	0.55
505.511	0.539
506.441	0.522
507.37	0.509
508.3	0.49
509.229	0.469
510.159	0.453
511.089	0.446
512.018	0.423
512.948	0.396
513.878	0.352
514.807	0.315
515.737	0.286
516.666	0.262
517.596	0.241
518.526	0.237
519.455	0.229
520.385	0.226
521.314	0.228
522.244	0.23
523.174	0.238
524.103	0.249
525.033	0.255
525.963	0.27
526.892	0.279
527.822	0.294
528.751	0.309
529.681	0.322
530.611	0.33
531.54	0.338
532.47	0.35
533.399	0.372
534.329	0.393
535.259	0.409
536.188	0.423
537.118	0.437
538.048	0.458
538.977	0.472
539.907	0.484
540.836	0.489
541.766	0.5
542.696	0.506
543.625	0.522
544.555	0.535
545.484	0.537
546.414	0.539
547.344	0.55
548.273	0.553
549.203	0.555
550.133	0.557
551.062	0.561
551.992	0.566
552.921	0.566
553.851	0.564
554.781	0.568
555.71	0.57
556.64	0.576
557.57	0.579
558.499	0.58
559.429	0.584
560.358	0.588
561.288	0.592
562.218	0.594
563.147	0.595
564.077	0.596
565.006	0.596
565.936	0.599
566.866	0.599
567.795	0.599
568.725	0.6
569.655	0.602
570.584	0.603
571.514	0.603
572.443	0.602
573.373	0.602
574.303	0.602
575.232	0.603
576.162	0.602
577.091	0.6
578.021	0.603
578.951	0.606
579.88	0.606
580.81	0.606
581.74	0.602
582.669	0.598
583.599	0.599
584.528	0.602
585.458	0.6
586.388	0.596
587.317	0.595
588.247	0.595
589.176	0.594
590.106	0.588
591.036	0.586
591.965	0.584
592.895	0.586
593.825	0.58
594.754	0.579
595.684	0.576
596.613	0.575
597.543	0.574
598.473	0.575
599.402	0.576
600.332	0.575
601.261	0.578
602.191	0.579
603.121	0.579
604.05	0.579
604.98	0.578
605.91	0.576
606.839	0.574
607.769	0.57
608.698	0.57
609.628	0.567
610.558	0.567
611.487	0.567
612.417	0.567
613.346	0.566
614.276	0.566
615.206	0.566
616.135	0.564
617.065	0.561
617.995	0.561
618.924	0.559
619.854	0.559
620.783	0.561
621.713	0.561
622.643	0.561
623.572	0.553
624.502	0.546
625.431	0.543
626.361	0.541
627.291	0.538
628.22	0.539
629.15	0.538
630.08	0.537
631.009	0.537
631.939	0.537
632.868	0.531
633.798	0.53
634.728	0.537
635.657	0.539
636.587	0.538
637.516	0.537
638.446	0.534
639.376	0.535
640.305	0.535
641.235	0.534
642.165	0.533
643.094	0.531
644.024	0.531
644.953	0.529
645.883	0.527
646.813	0.527
647.742	0.53
648.672	0.53
649.601	0.529
650.531	0.526
651.461	0.523
652.39	0.526
653.32	0.529
654.25	0.529
655.179	0.529
656.109	0.526
657.038	0.526
657.968	0.527
658.898	0.53
