Infrared Spectrum: BENZOIC ACID, p-AMINO-
Formula: C7 H7 N O2
CAS: 150-13-0
State: SOLID (SPLIT MULL)
Class: COBLENTZ III
Instrument: DOW KBr FOREPRISM-GRATING
Instrument parameters: BLAZED AT 3.5, 12.0, 20.0 MICRON AND CHANGED AT 5.0, 7.5, 14.9 MICRON
Sampling: TRANSMISSION
Resolution: 2
Origin: DOW CHEMICAL COMPANY
1/CM	TRANSMITTANCE
3794	0.5231
3785	0.5245
3776	0.5262
3767	0.5279
3758	0.5296
3749	0.5315
3740	0.5335
3731	0.5356
3722	0.5383
3713	0.5409
3704	0.5435
3695	0.5468
3686	0.5503
3677	0.5537
3668	0.5572
3659	0.5607
3650	0.5642
3641	0.5677
3632	0.5712
3623	0.5748
3614	0.5788
3605	0.5826
3596	0.5865
3587	0.5905
3578	0.5949
3569	0.5992
3560	0.6036
3551	0.6089
3542	0.6146
3533	0.6201
3524	0.6255
3515	0.631
3506	0.6347
3497	0.6358
3488	0.6326
3479	0.5422
3470	0.4112
3461	0.2853
3452	0.4012
3443	0.5135
3434	0.5664
3425	0.6095
3416	0.6406
3407	0.6601
3398	0.6751
3389	0.5255
3380	0.3221
3371	0.3639
3362	0.1542
3353	0.2753
3344	0.377
3335	0.4434
3326	0.4858
3317	0.5109
3308	0.5319
3299	0.5469
3290	0.5573
3281	0.5649
3272	0.5689
3263	0.5669
3254	0.5465
3245	0.5262
3236	0.4845
3227	0.4614
3218	0.498
3209	0.5138
3200	0.525
3191	0.5304
3182	0.5302
3173	0.529
3164	0.528
3155	0.5266
3146	0.5239
3137	0.5184
3128	0.5126
3119	0.506
3110	0.4959
3101	0.4836
3092	0.4697
3083	0.4562
3074	0.4416
3065	0.4272
3056	0.4137
3047	0.4039
3038	0.4078
3029	0.4082
3020	0.4055
3011	0.3982
3002	0.3897
2993	0.3794
2984	0.3706
2975	0.3653
2966	0.3623
2957	0.363
2948	0.3666
2939	0.3744
2930	0.3829
2921	0.3839
2912	0.3794
2903	0.38
2894	0.383
2885	0.3816
2876	0.3768
2867	0.3737
2858	0.3755
2849	0.3814
2840	0.3838
2831	0.3789
2822	0.3734
2813	0.381
2804	0.3889
2795	0.3979
2786	0.4066
2777	0.4152
2768	0.4257
2759	0.4378
2750	0.4483
2741	0.4575
2732	0.4629
2723	0.4634
2714	0.47
2705	0.472
2696	0.4627
2687	0.4241
2678	0.3968
2669	0.3947
2660	0.3959
2651	0.403
2642	0.4154
2633	0.4239
2624	0.4267
2615	0.4456
2606	0.4538
2597	0.4362
2588	0.4217
2579	0.437
2570	0.4423
2561	0.3991
2552	0.3862
2543	0.3887
2534	0.4016
2525	0.4184
2516	0.4347
2507	0.4493
2498	0.4624
2489	0.474
2480	0.4856
2471	0.493
2462	0.4967
2453	0.5001
2444	0.5069
2435	0.5151
2426	0.5237
2417	0.5319
2408	0.5401
2399	0.5471
2390	0.5536
2381	0.5604
2372	0.5662
2363	0.5677
2354	0.5698
2345	0.5755
2336	0.5777
2327	0.584
2318	0.5962
2309	0.6074
2300	0.6173
2291	0.6252
2282	0.632
2273	0.639
2264	0.6461
2255	0.6535
2246	0.6614
2237	0.6692
2228	0.6771
2219	0.6843
2210	0.6915
2201	0.6986
2192	0.7055
2183	0.7124
2174	0.7185
2165	0.7242
2156	0.7287
2147	0.7328
2138	0.7371
2129	0.7418
2120	0.7476
2111	0.7554
2102	0.7608
2093	0.7644
2084	0.7687
2075	0.7721
2066	0.7725
2057	0.7737
2048	0.7795
2039	0.7874
2030	0.7969
2021	0.7944
2012	0.7965
2003	0.8034
1994	0.8061
1985	0.7807
1976	0.7806
1967	0.7824
1958	0.7888
1949	0.7925
1940	0.7937
1931	0.7921
1922	0.7908
1913	0.7737
1904	0.7717
1895	0.7874
1886	0.7941
1877	0.7965
1868	0.7982
1859	0.8007
1850	0.8071
1841	0.8133
1832	0.8195
1823	0.8251
1814	0.8304
1805	0.8352
1796	0.8389
1787	0.839
1778	0.838
1769	0.85
1760	0.8674
1751	0.8574
1742	0.8637
1733	0.8851
1724	0.8846
1715	0.8528
1706	0.7584
1697	0.5206
1688	0.2857
1679	0.1429
1670	0.1183
1661	0.0965
1652	0.252
1643	0.3722
1634	0.1748
1625	0.1298
1616	0.2775
1607	0.1727
1598	0.0634
1589	0.2358
1580	0.4226
1571	0.298
1562	0.417
1553	0.5006
1544	0.5387
1535	0.5635
1526	0.4953
1517	0.5226
1508	0.6008
1499	0.6901
1490	0.7221
1481	0.7432
1472	0.7687
1463	0.7804
1454	0.7356
1445	0.2549
1436	0.3905
1427	0.3326
1418	0.28
1409	0.4053
1400	0.5012
1391	0.5379
1382	0.6071
1373	0.6511
1364	0.6714
1355	0.6424
1346	0.3778
1337	0.458
1328	0.1802
1319	0.1639
1310	0.1006
1301	0.2607
1292	0.0846
1283	0.2006
1274	0.384
1265	0.5038
1256	0.5981
1247	0.6575
1238	0.7064
1229	0.7497
1220	0.7817
1211	0.8046
1202	0.7918
1193	0.8481
1184	0.8297
1175	0.0742
1166	0.3156
1157	0.5567
1148	0.6376
1139	0.6649
1130	0.5455
1121	0.6553
1112	0.7228
1103	0.7531
1094	0.7626
1085	0.7636
1076	0.7486
1067	0.7518
1058	0.7824
1049	0.8018
1040	0.8041
1031	0.8065
1022	0.8055
1013	0.8115
1004	0.8072
995	0.8085
986	0.8046
977	0.7974
968	0.7721
959	0.7534
950	0.7561
941	0.7308
932	0.6781
923	0.6346
914	0.6256
905	0.6341
896	0.6354
887	0.6465
878	0.7003
869	0.7474
860	0.7603
851	0.645
842	0.3786
833	0.6798
824	0.7432
815	0.7141
806	0.7499
797	0.7558
788	0.7418
779	0.661
770	0.2485
761	0.7472
752	0.8028
743	0.8081
734	0.8022
725	0.7941
716	0.7878
707	0.822
698	0.627
689	0.8118
680	0.8323
671	0.8274
662	0.8271
653	0.825
644	0.835
635	0.7918
626	0.8525
617	0.545
608	0.7308
599	0.776
590	0.773
581	0.7572
572	0.7265
563	0.635
554	0.4199
545	0.6676
536	0.7639
527	0.7732
518	0.771
509	0.6464
500	0.5348
491	0.6889
482	0.7108
473	0.7134
464	0.7124
