Infrared Spectrum: ACETIC ACID, CITRONELLYL ESTER
Formula: C12 H22 O2
CAS: 150-84-5
Class: COBLENTZ
Instrument: Not specified, most likely a prism, grating, or hybrid spectrometer.
Sampling: TRANSMISSION
Resolution: 4
Origin: INFRACORD
MICROMETERS	TRANSMITTANCE
2.53	0.861
2.56546	0.861
2.60092	0.866
2.63638	0.859
2.67184	0.874
2.7073	0.863
2.74276	0.869
2.77822	0.861
2.81368	0.872
2.84914	0.873
2.8846	0.868
2.92006	0.861
2.95552	0.861
2.99098	0.868
3.02644	0.869
3.0619	0.868
3.09735	0.875
3.13281	0.877
3.16827	0.874
3.20373	0.889
3.23919	0.872
3.27465	0.864
3.31011	0.853
3.34557	0.793
3.38103	0.67
3.41649	0.382
3.45195	0.332
3.48741	0.284
3.52287	0.463
3.55833	0.501
3.59379	0.78
3.62925	0.867
3.66471	0.895
3.70017	0.894
3.73563	0.886
3.77109	0.899
3.80655	0.909
3.84201	0.915
3.87747	0.92
3.91293	0.919
3.94839	0.925
3.98385	0.926
4.01931	0.93
4.05477	0.924
4.09023	0.922
4.12569	0.931
4.16115	0.931
4.19661	0.928
4.23206	0.936
4.26752	0.928
4.30298	0.931
4.33844	0.937
4.3739	0.947
4.40936	0.938
4.44482	0.936
4.48028	0.943
4.51574	0.94
4.5512	0.937
4.58666	0.936
4.62212	0.928
4.65758	0.938
4.69304	0.938
4.7285	0.933
4.76396	0.93
4.79942	0.937
4.83488	0.936
4.87034	0.927
4.9058	0.933
4.94126	0.932
4.97672	0.933
5.01218	0.934
5.04764	0.932
5.0831	0.932
5.11856	0.934
5.15402	0.928
5.18948	0.932
5.22494	0.928
5.2604	0.926
5.29586	0.924
5.33132	0.922
5.36677	0.919
5.40223	0.913
5.43769	0.911
5.47315	0.911
5.50861	0.904
5.54407	0.894
5.57953	0.883
5.61499	0.864
5.65045	0.831
5.68591	0.776
5.72137	0.638
5.75683	0.392
5.79229	0.085
5.82775	0.139
5.86321	0.62
5.89867	0.774
5.93413	0.806
5.96959	0.848
6.00505	0.86
6.04051	0.859
6.07597	0.863
6.11143	0.863
6.14689	0.874
6.18235	0.887
6.21781	0.89
6.25327	0.896
6.28873	0.896
6.32419	0.9
6.35965	0.899
6.39511	0.893
6.43057	0.893
6.46603	0.896
6.50148	0.892
6.53694	0.877
6.5724	0.885
6.60786	0.881
6.64332	0.872
6.67878	0.868
6.71424	0.866
6.7497	0.854
6.78516	0.819
6.82062	0.744
6.85608	0.665
6.89154	0.566
6.927	0.536
6.96246	0.549
6.99792	0.595
7.03338	0.632
7.06884	0.713
7.1043	0.77
7.13976	0.793
7.17522	0.783
7.21068	0.712
7.24614	0.607
7.2816	0.527
7.31706	0.491
7.35252	0.451
7.38798	0.417
7.42344	0.675
7.4589	0.784
7.49436	0.804
7.52982	0.848
7.56528	0.848
7.60074	0.829
7.63619	0.825
7.67165	0.793
7.70711	0.78
7.74257	0.771
7.77803	0.764
7.81349	0.727
7.84895	0.667
7.88441	0.598
7.91987	0.536
7.95533	0.47
7.99079	0.392
8.02625	0.242
8.06171	0.157
8.09717	0.1
8.13263	0.09
8.16809	0.1
8.20355	0.169
8.23901	0.373
8.27447	0.53
8.30993	0.635
8.34539	0.72
8.38085	0.773
8.41631	0.792
8.45177	0.821
8.48723	0.817
8.52269	0.813
8.55815	0.822
8.59361	0.838
8.62907	0.857
8.66453	0.864
8.69999	0.853
8.73545	0.835
8.7709	0.819
8.80636	0.817
8.84182	0.84
8.87728	0.84
8.91274	0.825
8.9482	0.804
8.98366	0.791
9.01912	0.797
9.05458	0.79
9.09004	0.793
9.1255	0.809
9.16096	0.799
9.19642	0.786
9.23188	0.772
9.26734	0.765
9.3028	0.766
9.33826	0.755
9.37372	0.709
9.40918	0.645
9.44464	0.581
9.4801	0.514
9.51556	0.476
9.55102	0.496
9.58648	0.537
9.62194	0.573
9.6574	0.566
9.69286	0.536
9.72832	0.522
9.76378	0.552
9.79924	0.6
9.8347	0.648
9.87016	0.693
9.90561	0.725
9.94107	0.76
9.97653	0.799
10.012	0.813
10.0475	0.824
10.0829	0.83
10.1184	0.83
10.1538	0.822
10.1893	0.804
10.2248	0.805
10.2602	0.808
10.2957	0.803
10.3311	0.789
10.3666	0.786
10.4021	0.79
10.4375	0.796
10.473	0.787
10.5084	0.787
10.5439	0.809
10.5793	0.832
10.6148	0.84
10.6503	0.866
10.6857	0.866
10.7212	0.864
10.7566	0.868
10.7921	0.862
10.8276	0.861
10.863	0.864
10.8985	0.879
10.9339	0.886
10.9694	0.887
11.0049	0.892
11.0403	0.89
11.0758	0.883
11.1112	0.883
11.1467	0.885
11.1822	0.88
11.2176	0.879
11.2531	0.867
11.2885	0.868
11.324	0.861
11.3595	0.874
11.3949	0.877
11.4304	0.889
11.4658	0.892
11.5013	0.894
11.5368	0.896
11.5722	0.889
11.6077	0.887
11.6431	0.885
11.6786	0.88
11.7141	0.866
11.7495	0.857
11.785	0.861
11.8204	0.851
11.8559	0.847
11.8914	0.84
11.9268	0.822
11.9623	0.816
11.9977	0.81
12.0332	0.8
12.0687	0.797
12.1041	0.797
12.1396	0.803
12.175	0.827
12.2105	0.834
12.246	0.841
12.2814	0.851
12.3169	0.856
12.3523	0.861
12.3878	0.863
12.4233	0.862
12.4587	0.86
12.4942	0.87
12.5296	0.873
12.5651	0.877
12.6006	0.88
12.636	0.887
12.6715	0.892
12.7069	0.894
12.7424	0.893
12.7778	0.894
12.8133	0.893
12.8488	0.894
12.8842	0.892
12.9197	0.886
12.9551	0.885
12.9906	0.886
13.0261	0.882
13.0615	0.886
13.097	0.883
13.1324	0.883
13.1679	0.889
13.2034	0.892
13.2388	0.889
13.2743	0.893
13.3097	0.888
13.3452	0.882
13.3807	0.874
13.4161	0.87
13.4516	0.868
13.487	0.862
13.5225	0.859
13.558	0.855
13.5934	0.86
13.6289	0.862
13.6643	0.861
13.6998	0.872
13.7353	0.868
13.7707	0.872
13.8062	0.869
13.8416	0.873
13.8771	0.869
13.9126	0.873
13.948	0.872
13.9835	0.866
14.0189	0.87
14.0544	0.863
14.0899	0.861
14.1253	0.867
14.1608	0.857
14.1962	0.857
14.2317	0.859
14.2672	0.855
14.3026	0.85
14.3381	0.845
14.3735	0.847
14.409	0.838
14.4445	0.832
14.4799	0.828
14.5154	0.828
14.5508	0.824
14.5863	0.822
14.6218	0.818
14.6572	0.815
14.6927	0.811
14.7281	0.808
14.7636	0.804
14.7991	0.796
14.8345	0.791
14.87	0.783
14.9054	0.783
14.9409	0.779
14.9764	0.774
