Infrared Spectrum: 2-Acetylglutaric acid, diethyl ester
Formula: C11 H18 O5
CAS: 1501-06-0
State: SOLUTION (10% CCl4 FOR 3800-1330, 10% CS2 FOR 1330-460 CM^-^1)
Class: COBLENTZ III
Instrument: DOW KBr FOREPRISM-GRATING
Instrument parameters: BLAZED AT 3.5, 12.0, 20.0 MICRON AND CHANGED AT 5.0, 7.5, 14.9 MICRON
Sampling: TRANSMISSION
Path length: 0.011 CM, 0.011 CM
Resolution: 2
Origin: DOW CHEMICAL COMPANY
1/CM	TRANSMITTANCE
3800	0.9311
3791	0.9318
3782	0.9289
3773	0.9295
3764	0.9288
3755	0.9289
3746	0.9294
3737	0.9316
3728	0.9314
3719	0.929
3710	0.93
3701	0.9294
3692	0.9213
3683	0.9132
3674	0.9157
3665	0.9188
3656	0.921
3647	0.922
3638	0.9225
3629	0.922
3620	0.9232
3611	0.9225
3602	0.9188
3593	0.9169
3584	0.9173
3575	0.8897
3566	0.9045
3557	0.9088
3548	0.9119
3539	0.9114
3530	0.912
3521	0.9097
3512	0.9093
3503	0.9089
3494	0.9078
3485	0.9044
3476	0.898
3467	0.8889
3458	0.8748
3449	0.8588
3440	0.8506
3431	0.855
3422	0.8659
3413	0.8806
3404	0.893
3395	0.9013
3386	0.9047
3377	0.9066
3368	0.9078
3359	0.9082
3350	0.9088
3341	0.9097
3332	0.9102
3323	0.9106
3314	0.9102
3305	0.9112
3296	0.9087
3287	0.9074
3278	0.9073
3269	0.9061
3260	0.9045
3251	0.9043
3242	0.9036
3233	0.9027
3224	0.9019
3215	0.9009
3206	0.8974
3197	0.8969
3188	0.8955
3179	0.8922
3170	0.8912
3161	0.891
3152	0.8902
3143	0.8863
3134	0.8856
3125	0.883
3116	0.8796
3107	0.8772
3098	0.8762
3089	0.8731
3080	0.866
3071	0.8657
3062	0.8589
3053	0.8501
3044	0.8382
3035	0.8192
3026	0.7894
3017	0.7443
3008	0.4769
2999	0.3453
2990	0.2144
2981	0.2668
2972	0.3875
2963	0.4125
2954	0.4567
2945	0.4646
2936	0.4363
2927	0.5369
2918	0.5785
2909	0.5392
2900	0.637
2891	0.723
2882	0.7278
2873	0.6949
2864	0.7627
2855	0.7963
2846	0.8126
2837	0.827
2828	0.8367
2819	0.8479
2810	0.8581
2801	0.8682
2792	0.8724
2783	0.8729
2774	0.8726
2765	0.8733
2756	0.8745
2747	0.8764
2738	0.8783
2729	0.8801
2720	0.8818
2711	0.884
2702	0.8863
2693	0.8884
2684	0.8903
2675	0.8912
2666	0.8915
2657	0.8935
2648	0.8934
2639	0.8935
2630	0.8947
2621	0.8965
2612	0.8965
2603	0.8964
2594	0.8963
2585	0.8956
2576	0.8949
2567	0.8941
2558	0.8935
2549	0.8935
2540	0.8937
2531	0.8938
2522	0.8934
2513	0.8928
2504	0.8921
2495	0.8914
2486	0.8908
2477	0.8918
2468	0.8914
2459	0.8909
2450	0.8891
2441	0.8897
2432	0.8889
2423	0.8872
2414	0.8856
2405	0.8852
2396	0.8832
2387	0.8845
2378	0.8898
2369	0.8921
2360	0.8929
2351	0.8942
2342	0.89
2333	0.8875
2324	0.8918
2315	0.8911
2306	0.8911
2297	0.8927
2288	0.8917
2279	0.8907
2270	0.8876
2261	0.8849
2252	0.883
2243	0.8817
2234	0.8822
2225	0.8843
2216	0.8849
2207	0.886
2198	0.8863
2189	0.8847
2180	0.8842
2171	0.8851
2162	0.8826
2153	0.8818
2144	0.8802
2135	0.8784
2126	0.8768
2117	0.8751
2108	0.8731
2099	0.8709
2090	0.8687
2081	0.8668
2072	0.8648
2063	0.8627
2054	0.8631
2045	0.8601
2036	0.8588
2027	0.8591
2018	0.8596
2009	0.8596
2000	0.8602
1991	0.8647
1982	0.8643
1973	0.8614
1964	0.8605
1955	0.8644
1946	0.8625
1937	0.8624
1928	0.8624
1919	0.8592
1910	0.8556
1901	0.8484
1892	0.844
1883	0.8436
1874	0.8462
1865	0.8459
1856	0.8428
1847	0.8359
1838	0.8291
1829	0.8147
1820	0.7996
1811	0.7826
1802	0.7516
1793	0.7116
1784	0.657
1775	0.5599
1766	0.3709
1757	0.1226
1748	0.0002
1739	0.0001
1730	0.0001
1721	0
1712	0.021
1703	0.2636
1694	0.4554
1685	0.584
1676	0.6412
1667	0.6948
1658	0.6844
1649	0.6404
1640	0.6909
1631	0.7434
1622	0.7276
1613	0.7209
1604	0.7518
1595	0.791
1586	0.8093
1577	0.7994
1568	0.7703
1559	0.7796
1550	0.8406
1541	0.8579
1532	0.8348
1523	0.819
1514	0.8079
1505	0.7928
1496	0.7745
1487	0.7343
1478	0.5046
1469	0.4468
1460	0.4756
1451	0.3471
1442	0.3794
1433	0.4509
1424	0.3805
1415	0.5293
1406	0.5554
1397	0.3947
1388	0.4109
1379	0.183
1370	0.1865
1361	0.1948
1352	0.2989
1343	0.3944
1334	0.3632
1325	0.3169
1316	0.2961
1307	0.268
1298	0.244
1289	0.2552
1280	0.214
1271	0.18
1262	0.1322
1253	0.0743
1244	0.0519
1235	0.0776
1226	0.0964
1217	0.0878
1208	0.0698
1199	0.0519
1190	0.033
1181	0.03
1172	0.0435
1163	0.0518
1154	0.0407
1145	0.0452
1136	0.2202
1127	0.4723
1118	0.5045
1109	0.4427
1100	0.3475
1091	0.4458
1082	0.5362
1073	0.525
1064	0.5027
1055	0.3557
1046	0.2938
1037	0.2621
1028	0.2053
1019	0.4004
1010	0.622
1001	0.7311
992	0.7764
983	0.8115
974	0.8262
965	0.8074
956	0.752
947	0.7574
938	0.7889
929	0.7987
920	0.816
911	0.8329
902	0.8424
893	0.8236
884	0.8407
875	0.8146
866	0.6719
857	0.5948
848	0.7739
839	0.8053
830	0.8238
821	0.8223
812	0.8031
803	0.7949
794	0.7709
785	0.7184
776	0.7651
767	0.8029
758	0.8355
749	0.854
740	0.8638
731	0.8735
722	0.887
713	0.8941
704	0.9003
695	0.9051
686	0.906
677	0.9047
668	0.9056
659	0.8536
650	0.8521
641	0.8489
632	0.8496
623	0.8443
614	0.8257
605	0.8097
596	0.8116
587	0.8114
578	0.822
569	0.8366
560	0.8236
551	0.7988
542	0.7997
533	0.8108
524	0.8105
515	0.7974
506	0.7799
497	0.7631
488	0.7526
479	0.747
470	0.7416
