Infrared Spectrum: 1,3-DIMETHOXYBENZENE
Formula: C8 H10 O2
CAS: 151-10-0
State: LIQUID (NEAT)
Class: COBLENTZ III
Instrument: GS 2A CONSOLE
Sampling: TRANSMISSION
Path length: CAPILLARY
Resolution: 4
Origin: GRUBB PARSONS LTD., NEWCASTLE (DR. A. E. MARTIN)
1/CM	TRANSMITTANCE
4.994	0.936
5.0393	0.936
5.0846	0.935
5.1299	0.926
5.17521	0.902
5.22051	0.904
5.26581	0.918
5.31111	0.922
5.35641	0.9
5.40171	0.938
5.44702	0.947
5.49232	0.94
5.53762	0.929
5.58292	0.936
5.62822	0.944
5.67352	0.935
5.71882	0.922
5.76413	0.911
5.80943	0.904
5.85473	0.897
5.90003	0.882
5.94533	0.872
5.99063	0.859
6.03594	0.868
6.08124	0.848
6.12654	0.704
6.17184	0.257
6.21714	0.12
6.26244	0.093
6.30774	0.216
6.35305	0.499
6.39835	0.729
6.44365	0.798
6.48895	0.783
6.53425	0.801
6.57955	0.803
6.62486	0.753
6.67016	0.297
6.71546	0.108
6.76076	0.418
6.80606	0.279
6.85136	0.223
6.89667	0.362
6.94197	0.45
6.98727	0.351
7.03257	0.754
7.07787	0.803
7.12317	0.861
7.16847	0.882
7.21378	0.895
7.25908	0.893
7.30438	0.89
7.34968	0.888
7.39498	0.872
7.44028	0.7
7.48559	0.567
7.53089	0.625
7.57619	0.702
7.62149	0.659
7.66679	0.583
7.71209	0.383
7.75739	0.163
7.8027	0.365
7.848	0.538
7.8933	0.176
7.9386	0.421
7.9839	0.726
8.0292	0.783
8.07451	0.8
8.11981	0.781
8.16511	0.738
8.21041	0.6
8.25571	0.09
8.30101	0.232
8.34631	0.342
8.39162	0.394
8.43692	0.594
8.48222	0.63
8.52752	0.574
8.57282	0.288
8.61812	0.207
8.66343	0.081
8.70873	0.072
8.75403	0.219
8.79933	0.455
8.84463	0.601
8.88993	0.643
8.93523	0.657
8.98054	0.652
9.02584	0.636
9.07114	0.619
9.11644	0.598
9.16174	0.572
9.20704	0.565
9.25235	0.452
9.29765	0.506
9.34295	0.652
9.38825	0.681
9.43355	0.621
9.47885	0.374
9.52416	0.172
9.56946	0.209
9.61476	0.288
9.66006	0.268
9.70536	0.356
9.75066	0.509
9.79596	0.659
9.84127	0.762
9.88657	0.794
9.93187	0.823
9.97717	0.843
10.0225	0.855
10.0678	0.801
10.1131	0.79
10.1584	0.875
10.2037	0.886
10.249	0.899
10.2943	0.902
10.3396	0.902
10.3849	0.9
10.4302	0.899
10.4755	0.897
10.5208	0.89
10.5661	0.875
10.6114	0.875
10.6567	0.888
10.702	0.893
10.7473	0.859
10.7926	0.758
10.8379	0.718
10.8832	0.79
10.9285	0.818
10.9738	0.749
11.0191	0.618
11.0644	0.61
11.1097	0.749
11.155	0.834
11.2003	0.855
11.2456	0.859
11.2909	0.877
11.3362	0.895
11.3815	0.899
11.4268	0.895
11.4721	0.879
11.5174	0.863
11.5627	0.837
11.608	0.803
11.6533	0.763
11.6986	0.72
11.7439	0.672
11.7892	0.632
11.8345	0.596
11.8798	0.556
11.9251	0.508
11.9704	0.472
12.0157	0.481
12.061	0.549
12.1063	0.637
12.1516	0.672
12.1969	0.7
12.2422	0.744
12.2875	0.792
12.3329	0.837
12.3782	0.868
12.4235	0.879
12.4688	0.873
12.5141	0.859
12.5594	0.852
12.6047	0.861
12.65	0.866
12.6953	0.863
12.7406	0.848
12.7859	0.828
12.8312	0.778
12.8765	0.713
12.9218	0.634
12.9671	0.565
13.0124	0.499
13.0577	0.423
13.103	0.362
13.1483	0.371
13.1936	0.41
13.2389	0.49
13.2842	0.581
13.3295	0.697
13.3748	0.794
13.4201	0.854
13.4654	0.886
13.5107	0.899
13.556	0.911
13.6013	0.918
13.6466	0.913
13.6919	0.908
13.7372	0.881
13.7825	0.83
13.8278	0.796
13.8731	0.805
13.9184	0.852
13.9637	0.9
14.009	0.918
14.0543	0.922
14.0996	0.924
14.1449	0.926
14.1902	0.922
14.2355	0.915
14.2808	0.9
14.3261	0.868
14.3714	0.836
14.4167	0.765
14.462	0.668
14.5073	0.54
14.5526	0.394
14.5979	0.367
14.6432	0.445
14.6885	0.563
14.7338	0.711
14.7791	0.781
14.8244	0.837
14.8697	0.87
14.915	0.895
14.9603	0.902
15.0056	0.909
15.0509	0.926
15.0962	0.938
15.1415	0.942
15.1868	0.944
15.2322	0.949
15.2775	0.951
15.3228	0.953
15.3681	0.953
15.4134	0.954
15.4587	0.956
15.504	0.956
15.5493	0.956
15.5946	0.956
15.6399	0.958
15.6852	0.958
15.7305	0.958
15.7758	0.958
15.8211	0.958
15.8664	0.958
15.9117	0.956
15.957	0.954
16.0023	0.951
16.0476	0.949
16.0929	0.949
16.1382	0.951
16.1835	0.953
16.2288	0.953
16.2741	0.956
16.3194	0.958
16.3647	0.96
16.41	0.96
16.4553	0.96
16.5006	0.96
16.5459	0.96
16.5912	0.96
16.6365	0.958
16.6818	0.956
16.7271	0.954
16.7724	0.953
16.8177	0.949
16.863	0.944
16.9083	0.938
16.9536	0.922
16.9989	0.908
17.0442	0.879
17.0895	0.85
17.1348	0.83
17.1801	0.821
17.2254	0.819
17.2707	0.821
17.316	0.827
17.3613	0.834
17.4066	0.841
17.4519	0.839
17.4972	0.837
17.5425	0.834
17.5878	0.837
17.6331	0.841
17.6784	0.841
17.7237	0.846
17.769	0.852
17.8143	0.861
17.8596	0.868
17.9049	0.879
17.9502	0.886
17.9955	0.891
18.0408	0.897
18.0861	0.9
18.1314	0.9
18.1768	0.899
18.2221	0.897
18.2674	0.895
18.3127	0.891
18.358	0.888
18.4033	0.881
18.4486	0.868
18.4939	0.859
18.5392	0.843
18.5845	0.837
18.6298	0.821
18.6751	0.818
18.7204	0.809
18.7657	0.81
18.811	0.816
18.8563	0.821
18.9016	0.83
18.9469	0.839
18.9922	0.848
19.0375	0.852
19.0828	0.857
19.1281	0.863
19.1734	0.866
19.2187	0.87
19.264	0.868
19.3093	0.863
19.3546	0.861
19.3999	0.864
19.4452	0.868
19.4905	0.87
19.5358	0.87
19.5811	0.875
19.6264	0.879
19.6717	0.879
19.717	0.884
19.7623	0.888
19.8076	0.89
19.8529	0.893
19.8982	0.899
19.9435	0.902
19.9888	0.909
20.0341	0.913
20.0794	0.915
20.1247	0.917
20.17	0.918
20.2153	0.918
20.2606	0.918
20.3059	0.917
20.3512	0.917
20.3965	0.915
20.4418	0.913
20.4871	0.911
20.5324	0.909
20.5777	0.906
20.623	0.904
20.6683	0.897
20.7136	0.893
20.7589	0.888
20.8042	0.884
20.8495	0.879
20.8948	0.875
20.9401	0.87
20.9854	0.864
21.0307	0.859
21.0761	0.852
21.1214	0.846
21.1667	0.839
21.212	0.83
21.2573	0.821
21.3026	0.812
21.3479	0.805
21.3932	0.798
21.4385	0.785
21.4838	0.778
21.5291	0.763
21.5744	0.754
21.6197	0.745
21.665	0.738
21.7103	0.731
21.7556	0.724
21.8009	0.72
21.8462	0.718
21.8915	0.722
21.9368	0.729
21.9821	0.735
22.0274	0.742
22.0727	0.749
22.118	0.758
22.1633	0.771
22.2086	0.78
22.2539	0.787
22.2992	0.796
22.3445	0.801
22.3898	0.81
22.4351	0.819
22.4804	0.827
22.5257	0.832
22.571	0.837
22.6163	0.841
22.6616	0.845
22.7069	0.85
22.7522	0.852
22.7975	0.855
22.8428	0.857
22.8881	0.859
22.9334	0.861
22.9787	0.863
23.024	0.864
23.0693	0.866
