Infrared Spectrum: PHOSPHOROTHIOIC ACID, O,O,O-TRIMETHYL ESTER
Formula: C3 H9 O3 P S
CAS: 152-18-1
State: SOLUTION (10% IN CCl4 FOR 3800-1330, 10% IN CS2 FOR 1330-400 CM^-^1)
Class: COBLENTZ III
Instrument: BECKMAN IR-9 (GRATING)
Instrument parameters: ORDER CHANGES AT 670, 1200, 2000 CM^-^1
Sampling: TRANSMISSION
Path length: 0.011, 0.011 CM
Resolution: 4
Origin: DOW CHEMICAL COMPANY
1/CM	TRANSMITTANCE
400.227	0.268
408.755	0.257
417.282	0.264
425.81	0.289
434.337	0.376
442.865	0.489
451.393	0.517
459.92	0.596
468.448	0.69
476.975	0.729
485.503	0.849
494.03	0.916
502.558	0.948
511.086	0.966
519.613	0.98
528.141	0.989
536.668	1.002
545.196	1.01
553.724	1.013
562.251	1
570.779	0.989
579.306	1
587.834	0.985
596.361	0.772
604.889	0.853
613.417	0.849
621.944	0.721
630.472	0.889
638.999	0.936
647.527	0.93
656.055	0.896
664.582	0.933
673.11	0.976
681.637	0.997
690.165	1.005
698.693	1.005
707.22	1.006
715.748	1.009
724.275	1.008
732.803	1.004
741.33	0.997
749.858	0.978
758.386	0.94
766.913	0.874
775.441	0.777
783.968	0.633
792.496	0.416
801.024	0.136
809.551	0.033
818.079	0.009
826.606	0.001
835.134	0.001
843.661	0.001
852.189	0.042
860.717	0.298
869.244	0.518
877.772	0.677
886.299	0.782
894.827	0.85
903.355	0.893
911.882	0.917
920.41	0.932
928.937	0.94
937.465	0.937
945.993	0.921
954.52	0.9
963.048	0.876
971.575	0.838
980.103	0.794
988.63	0.717
997.158	0.578
1005.69	0.393
1014.21	0.129
1022.74	0.024
1031.27	0.01
1039.8	0.008
1048.32	0.006
1056.85	0.004
1065.38	0.02
1073.91	0.04
1082.43	0.166
1090.96	0.278
1099.49	0.412
1108.02	0.505
1116.54	0.564
1125.07	0.601
1133.6	0.633
1142.13	0.648
1150.65	0.638
1159.18	0.594
1167.71	0.492
1176.24	0.229
1184.76	0.09
1193.29	0.341
1201.82	0.57
1210.35	0.666
1218.88	0.714
1227.4	0.76
1235.93	0.794
1244.46	0.818
1252.99	0.828
1261.51	0.826
1270.04	0.82
1278.57	0.88
1287.1	0.893
1295.62	0.917
1304.15	0.944
1312.68	0.948
1321.21	0.948
1329.73	0.945
1338.26	0.945
1346.79	0.941
1355.32	0.932
1363.84	0.921
1372.37	0.912
1380.9	0.906
1389.43	0.898
1397.95	0.89
1406.48	0.877
1415.01	0.85
1423.54	0.802
1432.06	0.706
1440.59	0.4489
1449.12	0.3321
1457.65	0.265
1466.18	0.3641
1474.7	0.602
1483.23	0.696
1491.76	0.729
1500.29	0.732
1508.81	0.705
1517.34	0.668
1525.87	0.633
1534.4	0.576
1542.92	0.504
1551.45	0.474
1559.98	0.508
1568.51	0.602
1577.03	0.641
1585.56	0.676
1594.09	0.745
1602.62	0.826
1611.14	0.87
1619.67	0.892
1628.2	0.9
1636.73	0.892
1645.25	0.89
1653.78	0.889
1662.31	0.906
1670.84	0.936
1679.36	0.953
1687.89	0.958
1696.42	0.968
1704.95	0.976
1713.48	0.981
1722	0.985
1730.53	0.988
1739.06	0.989
1747.59	0.989
1756.11	0.989
1764.64	0.989
1773.17	0.986
1781.7	0.981
1790.22	0.98
1798.75	0.978
1807.28	0.974
1815.81	0.97
1824.33	0.961
1832.86	0.95
1841.39	0.937
1849.92	0.914
1858.44	0.881
1866.97	0.837
1875.5	0.809
1884.03	0.833
1892.55	0.885
1901.08	0.912
1909.61	0.914
1918.14	0.906
1926.66	0.933
1935.19	0.956
1943.72	0.969
1952.25	0.976
1960.78	0.978
1969.3	0.98
1977.83	0.978
1986.36	0.977
1994.89	0.965
2003.41	0.962
2011.94	0.964
2020.47	0.961
2029	0.961
2037.52	0.97
2046.05	0.976
2054.58	0.977
2063.11	0.976
2071.63	0.973
2080.16	0.97
2088.69	0.972
2097.22	0.973
2105.74	0.976
2114.27	0.977
2122.8	0.976
2131.33	0.977
2139.85	0.982
2148.38	0.985
2156.91	0.986
2165.44	0.988
2173.96	0.988
2182.49	0.988
2191.02	0.988
2199.55	0.988
2208.08	0.985
2216.6	0.985
2225.13	0.984
2233.66	0.981
2242.19	0.98
2250.71	0.978
2259.24	0.974
2267.77	0.964
2276.3	0.954
2284.82	0.952
2293.35	0.952
2301.88	0.954
2310.41	0.956
2318.93	0.957
2327.46	0.961
2335.99	0.961
2344.52	0.9621
2353.04	0.965
2361.57	0.966
2370.1	0.969
2378.63	0.974
2387.15	0.977
2395.68	0.98
2404.21	0.98
2412.74	0.98
2421.26	0.98
2429.79	0.98
2438.32	0.981
2446.85	0.9821
2455.38	0.984
2463.9	0.9839
2472.43	0.982
2480.96	0.98
2489.49	0.981
2498.01	0.978
2506.54	0.9781
2515.07	0.978
2523.6	0.977
2532.12	0.9771
2540.65	0.981
2549.18	0.9809
2557.71	0.98
2566.23	0.98
2574.76	0.977
2583.29	0.9759
2591.82	0.9719
2600.34	0.9649
2608.87	0.96
2617.4	0.9579
2625.93	0.957
2634.45	0.954
2642.98	0.9531
2651.51	0.9571
2660.04	0.962
2668.56	0.9621
2677.09	0.964
2685.62	0.964
2694.15	0.962
2702.68	0.964
2711.2	0.964
2719.73	0.962
2728.26	0.962
2736.79	0.964
2745.31	0.962
2753.84	0.961
2762.37	0.962
2770.9	0.962
2779.42	0.9609
2787.95	0.957
2796.48	0.954
2805.01	0.9538
2813.53	0.9459
2822.06	0.9358
2830.59	0.9077
2839.12	0.7667
2847.64	0.2957
2856.17	0.6535
2864.7	0.8145
2873.23	0.8491
2881.75	0.8497
2890.28	0.8169
2898.81	0.7282
2907.34	0.7084
2915.86	0.7583
2924.39	0.7647
2932.92	0.6559
2941.45	0.3355
2949.98	0.0786
2958.5	0.2817
2967.03	0.5794
2975.56	0.646
2984.09	0.5673
2992.61	0.4915
3001.14	0.4766
3009.67	0.4957
3018.2	0.488
3026.72	0.603
3035.25	0.7174
3043.78	0.7849
3052.31	0.8206
3060.83	0.8423
3069.36	0.8582
3077.89	0.8702
3086.42	0.8813
3094.94	0.893
3103.47	0.9053
3112	0.9148
3120.53	0.9321
3129.05	0.9402
3137.58	0.946
3146.11	0.95
3154.64	0.954
3163.16	0.9561
3171.69	0.958
3180.22	0.9611
3188.75	0.964
3197.28	0.964
3205.8	0.965
3214.33	0.965
3222.86	0.966
3231.39	0.966
3239.91	0.966
3248.44	0.968
3256.97	0.966
3265.5	0.966
3274.02	0.966
3282.55	0.966
3291.08	0.966
3299.61	0.966
3308.13	0.9659
3316.66	0.964
3325.19	0.964
3333.72	0.964
3342.24	0.9619
3350.77	0.9609
3359.3	0.96
3367.83	0.96
3376.35	0.958
3384.88	0.9579
3393.41	0.9579
3401.94	0.956
3410.46	0.9557
3418.99	0.956
3427.52	0.956
3436.05	0.956
3444.58	0.956
3453.1	0.956
3461.63	0.957
3470.16	0.956
3478.69	0.956
3487.21	0.956
3495.74	0.956
3504.27	0.956
3512.8	0.957
3521.32	0.9561
3529.85	0.9561
3538.38	0.957
3546.91	0.957
3555.43	0.958
3563.96	0.9597
3572.49	0.96
3581.02	0.9537
3589.54	0.9562
3598.07	0.961
3606.6	0.9578
3615.13	0.964
3623.65	0.966
3632.18	0.9682
3640.71	0.9698
3649.24	0.9703
3657.76	0.972
3666.29	0.973
3674.82	0.968
3683.35	0.9637
3691.88	0.9642
3700.4	0.9663
3708.93	0.9703
3717.46	0.973
3725.99	0.9762
3734.51	0.9772
3743.04	0.98
3751.57	0.98
3760.1	0.9783
3768.62	0.98
3777.15	0.9797
3785.68	0.978
3794.21	0.98
