Infrared Spectrum: 2-FLUORENAMINE
Formula: C13 H11 N
CAS: 153-78-6
State: SOLID (MINERAL OIL MULL)
Melting point: 124.5-126.5 C
Class: COBLENTZ
Instrument: Not specified, most likely a prism, grating, or hybrid spectrometer.
Sampling: TRANSMISSION
Resolution: 4
Origin: WYANDOTTE CHEMICALS CORP., WYANDOTTE, MICHIGAN, USA
MICROMETERS	TRANSMITTANCE
2.019	0.198
2.05618	0.196
2.09337	0.193
2.13055	0.195
2.16774	0.19
2.20492	0.192
2.2421	0.179
2.27929	0.184
2.31647	0.19
2.35366	0.19
2.39084	0.193
2.42802	0.198
2.46521	0.198
2.50239	0.2
2.53958	0.207
2.57676	0.201
2.61394	0.207
2.65113	0.215
2.68831	0.218
2.7255	0.223
2.76268	0.218
2.79986	0.227
2.83705	0.201
2.87423	0.141
2.91142	0.175
2.9486	0.184
2.98578	0.142
3.02297	0.178
3.06015	0.193
3.09734	0.178
3.13452	0.182
3.17171	0.187
3.20889	0.184
3.24607	0.156
3.28326	0.106
3.32044	0.032
3.35763	0.02
3.39481	0.02
3.43199	0.021
3.46918	0.02
3.50636	0.091
3.54355	0.217
3.58073	0.262
3.61791	0.272
3.6551	0.26
3.69228	0.268
3.72947	0.268
3.76665	0.272
3.80383	0.282
3.84102	0.296
3.8782	0.311
3.91539	0.324
3.95257	0.33
3.98975	0.339
4.02694	0.342
4.06412	0.341
4.10131	0.345
4.13849	0.347
4.17567	0.348
4.21286	0.344
4.25004	0.33
4.28723	0.342
4.32441	0.358
4.36159	0.382
4.39878	0.392
4.43596	0.392
4.47315	0.392
4.51033	0.396
4.54751	0.401
4.5847	0.404
4.62188	0.412
4.65907	0.417
4.69625	0.421
4.73343	0.432
4.77062	0.44
4.8078	0.449
4.84499	0.454
4.88217	0.46
4.91935	0.466
4.95654	0.468
4.99372	0.472
5.03091	0.471
5.06809	0.479
5.10527	0.489
5.14246	0.474
5.17964	0.488
5.21683	0.482
5.25401	0.499
5.2912	0.486
5.32838	0.503
5.36556	0.51
5.40275	0.528
5.43993	0.525
5.47712	0.537
5.5143	0.551
5.55148	0.541
5.58867	0.562
5.62585	0.555
5.66304	0.576
5.70022	0.587
5.7374	0.603
5.77459	0.601
5.81177	0.62
5.84896	0.618
5.88614	0.604
5.92332	0.648
5.96051	0.683
5.99769	0.658
6.03488	0.621
6.07206	0.593
6.10924	0.268
6.14643	0.096
6.18361	0.158
6.2208	0.294
6.25798	0.246
6.29516	0.32
6.33235	0.364
6.36953	0.469
6.40672	0.471
6.4439	0.5
6.48108	0.519
6.51827	0.528
6.55545	0.537
6.59264	0.545
6.62982	0.431
6.667	0.279
6.70419	0.305
6.74137	0.147
6.77856	0.031
6.81574	0.026
6.85292	0.029
6.89011	0.062
6.92729	0.17
6.96448	0.353
7.00166	0.431
7.03884	0.48
7.07603	0.494
7.11321	0.353
7.1504	0.322
7.18758	0.221
7.22476	0.097
7.26195	0.17
7.29913	0.288
7.33632	0.451
7.3735	0.341
7.41069	0.386
7.44787	0.444
7.48505	0.489
7.52224	0.547
7.55942	0.272
7.59661	0.32
7.63379	0.31
7.67097	0.424
7.70816	0.511
7.74534	0.395
7.78253	0.184
7.81971	0.184
7.85689	0.314
7.89408	0.424
7.93126	0.48
7.96845	0.506
8.00563	0.531
8.04281	0.57
8.08	0.587
8.11718	0.573
8.15437	0.389
8.19155	0.483
8.22873	0.559
8.26592	0.586
8.3031	0.564
8.34029	0.506
8.37747	0.592
8.41465	0.603
8.45184	0.51
8.48902	0.537
8.52621	0.567
8.56339	0.582
8.60057	0.567
8.63776	0.573
8.67494	0.564
8.71213	0.601
8.74931	0.66
8.78649	0.651
8.82368	0.609
8.86086	0.452
8.89805	0.356
8.93523	0.528
8.97241	0.581
9.0096	0.604
9.04678	0.581
9.08397	0.6
9.12115	0.624
9.15833	0.648
9.19552	0.651
9.2327	0.626
9.26989	0.629
9.30707	0.669
9.34425	0.688
9.38144	0.702
9.41862	0.706
9.45581	0.719
9.49299	0.724
9.53018	0.733
9.56736	0.734
9.60454	0.739
9.64173	0.748
9.67891	0.75
9.7161	0.624
9.75328	0.579
9.79046	0.579
9.82765	0.6
9.86483	0.665
9.90202	0.7
9.9392	0.711
9.97638	0.725
10.0136	0.733
10.0508	0.737
10.0879	0.736
10.1251	0.739
10.1623	0.736
10.1995	0.731
10.2367	0.727
10.2739	0.728
10.311	0.731
10.3482	0.736
10.3854	0.742
10.4226	0.737
10.4598	0.662
10.497	0.589
10.5341	0.609
10.5713	0.663
10.6085	0.682
10.6457	0.697
10.6829	0.733
10.7201	0.736
10.7572	0.683
10.7944	0.652
10.8316	0.708
10.8688	0.711
10.906	0.717
10.9432	0.772
10.9804	0.803
11.0175	0.829
11.0547	0.846
11.0919	0.851
11.1291	0.86
11.1663	0.863
11.2035	0.869
11.2406	0.872
11.2778	0.883
11.315	0.899
11.3522	0.911
11.3894	0.902
11.4266	0.841
11.4637	0.733
11.5009	0.713
11.5381	0.809
11.5753	0.848
11.6125	0.875
11.6497	0.883
11.6868	0.869
11.724	0.796
11.7612	0.624
11.7984	0.559
11.8356	0.623
11.8728	0.764
11.91	0.841
11.9471	0.888
11.9843	0.875
12.0215	0.745
12.0587	0.474
12.0959	0.302
12.1331	0.288
12.1702	0.299
12.2074	0.435
12.2446	0.573
12.2818	0.674
12.319	0.759
12.3562	0.812
12.3933	0.835
12.4305	0.862
12.4677	0.872
12.5049	0.882
12.5421	0.894
12.5793	0.905
12.6165	0.916
12.6536	0.928
12.6908	0.934
12.728	0.937
12.7652	0.934
12.8024	0.916
12.8396	0.848
12.8767	0.655
12.9139	0.322
12.9511	0.106
12.9883	0.077
13.0255	0.21
13.0627	0.407
13.0998	0.525
13.137	0.59
13.1742	0.641
13.2114	0.702
13.2486	0.737
13.2858	0.767
13.3229	0.787
13.3601	0.803
13.3973	0.809
13.4345	0.787
13.4717	0.634
13.5089	0.407
13.5461	0.255
13.5832	0.164
13.6204	0.124
13.6576	0.203
13.6948	0.353
13.732	0.444
13.7692	0.5
13.8063	0.537
13.8435	0.572
13.8807	0.59
13.9179	0.62
13.9551	0.657
13.9923	0.685
14.0294	0.699
14.0666	0.719
14.1038	0.73
14.141	0.75
14.1782	0.758
14.2154	0.765
14.2525	0.77
14.2897	0.767
14.3269	0.755
14.3641	0.73
14.4013	0.708
14.4385	0.72
14.4757	0.742
14.5128	0.755
14.55	0.756
14.5872	0.758
14.6244	0.756
14.6616	0.748
14.6988	0.747
14.7359	0.737
14.7731	0.733
14.8103	0.717
14.8475	0.717
14.8847	0.706
14.9219	0.699
14.959	0.691
14.9962	0.66
15.0334	0.607
15.0706	0.576
15.1078	0.572
15.145	0.589
15.1821	0.615
15.2193	0.631
15.2565	0.634
15.2937	0.626
15.3309	0.618
15.3681	0.612
15.4053	0.61
15.4424	0.603
15.4796	0.582
15.5168	0.572
15.554	0.567
15.5912	0.565
15.6284	0.562
15.6655	0.561
15.7027	0.551
15.7399	0.544
15.7771	0.522
15.8143	0.508
15.8515	0.497
15.8886	0.48
15.9258	0.485
15.963	0.469
