Infrared Spectrum: 3-PHENYLBUTYROPHENONE
Formula: C16 H16 O
CAS: 1533-20-6
State: SOLUTION (10% CCl4 FOR 2-7.5, 10% CS2 FOR 7.5-16 MICRONS)
Melting point: 73 C
Class: COBLENTZ III
Instrument: BAIRD (PRISM)
Instrument parameters: NaCl PRISM
Sampling: TRANSMISSION
Path length: 0.012 CM, 0.012 CM
Resolution: 2
Origin: DOW CHEMICAL COMPANY
MICROMETERS	TRANSMITTANCE
2.01	0.908
2.04902	0.919
2.08805	0.911
2.12707	0.909
2.1661	0.919
2.20512	0.921
2.24414	0.915
2.28317	0.91
2.32219	0.911
2.36122	0.915
2.40024	0.91
2.43926	0.902
2.47829	0.909
2.51731	0.924
2.55633	0.948
2.59536	0.955
2.63438	0.948
2.67341	0.96
2.71243	0.948
2.75145	0.953
2.79048	0.952
2.8295	0.951
2.86853	0.949
2.90755	0.946
2.94657	0.907
2.9856	0.893
3.02462	0.913
3.06365	0.909
3.10267	0.894
3.14169	0.881
3.18072	0.874
3.21974	0.795
3.25877	0.661
3.29779	0.583
3.33681	0.622
3.37584	0.575
3.41486	0.544
3.45389	0.635
3.49291	0.746
3.53193	0.878
3.57096	0.903
3.60998	0.922
3.649	0.938
3.68803	0.955
3.72705	0.955
3.76608	0.957
3.8051	0.957
3.84412	0.955
3.88315	0.957
3.92217	0.959
3.9612	0.959
4.00022	0.959
4.03924	0.959
4.07827	0.959
4.11729	0.959
4.15632	0.959
4.19534	0.995
4.23436	1.002
4.27339	0.943
4.31241	0.903
4.35144	0.898
4.39046	0.922
4.42948	0.949
4.46851	0.959
4.50753	0.962
4.54656	0.962
4.58558	0.963
4.6246	0.963
4.66363	0.963
4.70265	0.962
4.74167	0.962
4.7807	0.962
4.81972	0.962
4.85875	0.962
4.89777	0.96
4.93679	0.959
4.97582	0.957
5.01484	0.952
5.05387	0.916
5.09289	0.877
5.13191	0.876
5.17094	0.891
5.20996	0.914
5.24899	0.9
5.28801	0.897
5.32703	0.889
5.36606	0.892
5.40508	0.916
5.44411	0.909
5.48313	0.883
5.52215	0.856
5.56118	0.875
5.6002	0.887
5.63923	0.887
5.67825	0.877
5.71727	0.861
5.7563	0.842
5.79532	0.83
5.83434	0.795
5.87337	0.635
5.91239	0.266
5.95142	0.044
5.99044	0.342
6.02946	0.661
6.06849	0.739
6.10751	0.798
6.14654	0.806
6.18556	0.744
6.22458	0.541
6.26361	0.372
6.30263	0.454
6.34166	0.451
6.38068	0.513
6.4197	0.491
6.45873	0.444
6.49775	0.474
6.53678	0.529
6.5758	0.583
6.61482	0.619
6.65385	0.605
6.69287	0.47
6.7319	0.696
6.77092	0.775
6.80994	0.683
6.84897	0.535
6.88799	0.253
6.92701	0.563
6.96604	0.733
7.00506	0.779
7.04409	0.732
7.08311	0.632
7.12213	0.667
7.16116	0.738
7.20018	0.707
7.23921	0.606
7.27823	0.529
7.31725	0.491
7.35628	0.436
7.3953	0.475
7.43433	0.535
7.47335	0.552
7.51237	0.562
7.5514	0.567
7.59042	0.541
7.62945	0.511
7.66847	0.528
7.70749	0.545
7.74652	0.475
7.78554	0.408
7.82457	0.356
7.86359	0.297
7.90261	0.348
7.94164	0.592
7.98066	0.667
8.01968	0.679
8.05871	0.658
8.09773	0.649
8.13676	0.6
8.17578	0.509
8.2148	0.393
8.25383	0.413
8.29285	0.33
8.33188	0.24
8.3709	0.418
8.40992	0.568
8.44895	0.491
8.48797	0.413
8.527	0.566
8.56602	0.669
8.60504	0.68
8.64407	0.672
8.68309	0.723
8.72212	0.788
8.76114	0.814
8.80016	0.822
8.83919	0.827
8.87821	0.832
8.91724	0.817
8.95626	0.798
8.99528	0.755
9.03431	0.709
9.07333	0.69
9.11235	0.679
9.15138	0.699
9.1904	0.704
9.22943	0.695
9.26845	0.699
9.30747	0.7
9.3465	0.711
9.38552	0.729
9.42455	0.724
9.46357	0.748
9.50259	0.795
9.54162	0.806
9.58064	0.801
9.61967	0.782
9.65869	0.746
9.69771	0.695
9.73674	0.639
9.77576	0.599
9.81479	0.573
9.85381	0.6
9.89283	0.64
9.93186	0.619
9.97088	0.506
10.0099	0.438
10.0489	0.451
10.088	0.363
10.127	0.331
10.166	0.365
10.205	0.451
10.244	0.552
10.2831	0.63
10.3221	0.685
10.3611	0.728
10.4001	0.754
10.4392	0.783
10.4782	0.798
10.5172	0.804
10.5562	0.809
10.5953	0.809
10.6343	0.801
10.6733	0.788
10.7123	0.765
10.7514	0.742
10.7904	0.733
10.8294	0.745
10.8684	0.742
10.9075	0.712
10.9465	0.684
10.9855	0.646
11.0245	0.585
11.0636	0.58
11.1026	0.623
11.1416	0.656
11.1806	0.669
11.2196	0.671
11.2587	0.683
11.2977	0.705
11.3367	0.711
11.3757	0.7
11.4148	0.674
11.4538	0.662
11.4928	0.662
11.5318	0.665
11.5709	0.658
11.6099	0.652
11.6489	0.645
11.6879	0.644
11.727	0.643
11.766	0.651
11.805	0.658
11.844	0.666
11.8831	0.676
11.9221	0.699
11.9611	0.716
12.0001	0.727
12.0391	0.734
12.0782	0.743
12.1172	0.759
12.1562	0.768
12.1952	0.776
12.2343	0.782
12.2733	0.776
12.3123	0.768
12.3513	0.762
12.3904	0.757
12.4294	0.751
12.4684	0.745
12.5074	0.744
12.5465	0.745
12.5855	0.749
12.6245	0.743
12.6635	0.743
12.7026	0.743
12.7416	0.743
12.7806	0.742
12.8196	0.734
12.8587	0.723
12.8977	0.706
12.9367	0.683
12.9757	0.64
13.0147	0.569
13.0538	0.464
13.0928	0.338
13.1318	0.227
13.1708	0.172
13.2099	0.158
13.2489	0.147
13.2879	0.117
13.3269	0.081
13.366	0.073
13.405	0.105
13.444	0.141
13.483	0.163
13.5221	0.206
13.5611	0.319
13.6001	0.411
13.6391	0.49
13.6782	0.544
13.7172	0.586
13.7562	0.621
13.7952	0.638
13.8343	0.655
13.8733	0.658
13.9123	0.652
13.9513	0.647
13.9903	0.633
14.0294	0.614
14.0684	0.583
14.1074	0.536
14.1464	0.475
14.1855	0.393
14.2245	0.288
14.2635	0.178
14.3025	0.095
14.3416	0.051
14.3806	0.047
14.4196	0.062
14.4586	0.067
14.4977	0.066
14.5367	0.077
14.5757	0.116
14.6147	0.195
14.6538	0.284
14.6928	0.349
14.7318	0.394
14.7708	0.42
14.8098	0.44
14.8489	0.451
14.8879	0.462
14.9269	0.469
14.9659	0.471
15.005	0.46
15.044	0.452
15.083	0.444
15.122	0.437
15.1611	0.426
15.2001	0.422
15.2391	0.424
15.2781	0.427
15.3172	0.429
15.3562	0.433
15.3952	0.437
15.4342	0.442
15.4733	0.443
15.5123	0.443
15.5513	0.443
15.5903	0.444
15.6294	0.448
15.6684	0.449
15.7074	0.449
15.7464	0.448
15.7854	0.449
15.8245	0.449
15.8635	0.447
15.9025	0.447
15.9415	0.447
15.9806	0.447
