Infrared Spectrum: CARBANILIC ACID, n-BUTYL ESTER
Formula: C11 H15 N O2
CAS: 1538-74-5
State: SOLID (2 mg / 100 mg KBr)
Melting point: 61 C
Class: COBLENTZ
Instrument: Not specified, most likely a grating spectrometer.
Sampling: TRANSMISSION
Resolution: 4
Origin: CITRUS EXPERIMENT STATION, UNIVERSITY OF FLORIDA (G. EDWARDS)
MICROMETERS	TRANSMITTANCE
2.033	0.618
2.06616	0.621
2.09932	0.623
2.13248	0.628
2.16564	0.628
2.19879	0.63
2.23195	0.632
2.26511	0.636
2.29827	0.639
2.33143	0.643
2.36459	0.644
2.39775	0.647
2.43091	0.652
2.46407	0.655
2.49723	0.658
2.53038	0.66
2.56354	0.66
2.5967	0.662
2.62986	0.662
2.66302	0.666
2.69618	0.668
2.72934	0.67
2.7625	0.672
2.79566	0.678
2.82882	0.686
2.86197	0.69
2.89513	0.69
2.92829	0.68
2.96145	0.617
2.99461	0.373
3.02777	0.533
3.06093	0.632
3.09409	0.671
3.12725	0.68
3.16041	0.68
3.19356	0.679
3.22672	0.682
3.25988	0.664
3.29304	0.687
3.3262	0.683
3.35936	0.551
3.39252	0.606
3.42568	0.648
3.45884	0.628
3.492	0.672
3.52515	0.714
3.55831	0.715
3.59147	0.722
3.62463	0.728
3.65779	0.734
3.69095	0.736
3.72411	0.739
3.75727	0.738
3.79043	0.738
3.82359	0.746
3.85674	0.744
3.8899	0.742
3.92306	0.744
3.95622	0.748
3.98938	0.752
4.02254	0.756
4.0557	0.759
4.08886	0.759
4.12202	0.757
4.15518	0.756
4.18833	0.757
4.22149	0.765
4.25465	0.771
4.28781	0.772
4.32097	0.769
4.35413	0.769
4.38729	0.772
4.42045	0.775
4.45361	0.773
4.48676	0.775
4.51992	0.78
4.55308	0.783
4.58624	0.777
4.6194	0.781
4.65256	0.784
4.68572	0.787
4.71888	0.787
4.75204	0.787
4.7852	0.792
4.81835	0.789
4.85151	0.785
4.88467	0.789
4.91783	0.789
4.95099	0.792
4.98415	0.797
5.01731	0.792
5.05047	0.791
5.08363	0.789
5.11679	0.787
5.14994	0.795
5.1831	0.796
5.21626	0.796
5.24942	0.795
5.28258	0.792
5.31574	0.791
5.3489	0.795
5.38206	0.795
5.41522	0.793
5.44838	0.792
5.48153	0.788
5.51469	0.784
5.54785	0.785
5.58101	0.781
5.61417	0.777
5.64733	0.764
5.68049	0.751
5.71365	0.703
5.74681	0.638
5.77997	0.502
5.81312	0.345
5.84628	0.273
5.87944	0.472
5.9126	0.553
5.94576	0.606
5.97892	0.69
6.01208	0.739
6.04524	0.772
6.0784	0.772
6.11156	0.76
6.14471	0.718
6.17787	0.628
6.21103	0.566
6.24419	0.41
6.27735	0.647
6.31051	0.755
6.34367	0.742
6.37683	0.655
6.40999	0.453
6.44315	0.367
6.4763	0.404
6.50946	0.541
6.54262	0.667
6.57578	0.678
6.60894	0.595
6.6421	0.631
6.67526	0.674
6.70842	0.655
6.74158	0.654
6.77474	0.732
6.80789	0.707
6.84105	0.688
6.87421	0.648
6.90737	0.371
6.94053	0.549
6.97369	0.703
7.00685	0.763
7.04001	0.781
7.07317	0.787
7.10632	0.788
7.13948	0.771
7.17264	0.765
7.2058	0.759
7.23896	0.764
7.27212	0.787
7.30528	0.769
7.33844	0.751
7.3716	0.767
7.40476	0.772
7.43791	0.751
7.47107	0.719
7.50423	0.638
7.53739	0.535
7.57055	0.412
7.60371	0.595
7.63687	0.574
7.67003	0.601
7.70319	0.696
7.73635	0.739
7.7695	0.769
7.80266	0.753
7.83582	0.715
7.86898	0.688
7.90214	0.723
7.9353	0.702
7.96846	0.64
8.00162	0.541
8.03478	0.416
8.06794	0.252
8.10109	0.172
8.13425	0.222
8.16741	0.369
8.20057	0.49
8.23373	0.578
8.26689	0.643
8.30005	0.692
8.33321	0.731
8.36637	0.771
8.39953	0.783
8.43268	0.76
8.46584	0.761
8.499	0.791
8.53216	0.808
8.56532	0.815
8.59848	0.792
8.63164	0.816
8.6648	0.832
8.69796	0.836
8.73112	0.836
8.76427	0.837
8.79743	0.828
8.83059	0.815
8.86375	0.824
8.89691	0.836
8.93007	0.841
8.96323	0.84
8.99639	0.837
9.02955	0.836
9.06271	0.835
9.09586	0.832
9.12902	0.824
9.16218	0.796
9.19534	0.746
9.2285	0.691
9.26166	0.732
9.29482	0.712
9.32798	0.589
9.36114	0.442
9.39429	0.405
9.42745	0.448
9.46061	0.496
9.49377	0.623
9.52693	0.712
9.56009	0.75
9.59325	0.779
9.62641	0.799
9.65957	0.764
9.69273	0.682
9.72588	0.714
9.75904	0.772
9.7922	0.752
9.82536	0.783
9.85852	0.812
9.89168	0.829
9.92484	0.833
9.958	0.84
9.99116	0.833
10.0243	0.775
10.0575	0.815
10.0906	0.84
10.1238	0.841
10.157	0.837
10.1901	0.819
10.2233	0.813
10.2564	0.835
10.2896	0.843
10.3227	0.843
10.3559	0.844
10.3891	0.852
10.4222	0.863
10.4554	0.861
10.4885	0.861
10.5217	0.868
10.5549	0.869
10.588	0.871
10.6212	0.875
10.6543	0.875
10.6875	0.875
10.7207	0.875
10.7538	0.875
10.787	0.875
10.8201	0.875
10.8533	0.872
10.8864	0.869
10.9196	0.867
10.9528	0.86
10.9859	0.827
11.0191	0.808
11.0522	0.839
11.0854	0.852
11.1186	0.86
11.1517	0.867
11.1849	0.871
11.218	0.875
11.2512	0.876
11.2844	0.878
11.3175	0.878
11.3507	0.88
11.3838	0.88
11.417	0.88
11.4502	0.882
11.4833	0.881
11.5165	0.88
11.5496	0.878
11.5828	0.878
11.6159	0.877
11.6491	0.876
11.6823	0.871
11.7154	0.863
11.7486	0.849
11.7817	0.828
11.8149	0.82
11.8481	0.808
11.8812	0.797
11.9144	0.809
11.9475	0.845
11.9807	0.863
12.0139	0.868
12.047	0.871
12.0802	0.869
12.1133	0.872
12.1465	0.869
12.1796	0.868
12.2128	0.868
12.246	0.871
12.2791	0.872
12.3123	0.875
12.3454	0.876
12.3786	0.869
12.4118	0.877
12.4449	0.881
12.4781	0.882
12.5112	0.882
12.5444	0.877
12.5776	0.877
12.6107	0.876
12.6439	0.875
12.677	0.88
12.7102	0.871
12.7434	0.868
12.7765	0.864
12.8097	0.856
12.8428	0.835
12.876	0.805
12.9091	0.746
12.9423	0.691
12.9755	0.716
13.0086	0.763
13.0418	0.759
13.0749	0.743
13.1081	0.742
13.1413	0.746
13.1744	0.739
13.2076	0.726
13.2407	0.691
13.2739	0.643
13.3071	0.606
13.3402	0.571
13.3734	0.575
13.4065	0.597
13.4397	0.638
13.4729	0.692
13.506	0.732
13.5392	0.765
13.5723	0.785
13.6055	0.801
13.6386	0.819
13.6718	0.829
13.705	0.836
13.7381	0.839
13.7713	0.835
13.8044	0.837
13.8376	0.836
13.8708	0.836
13.9039	0.841
13.9371	0.843
13.9702	0.836
14.0034	0.832
14.0366	0.828
14.0697	0.82
14.1029	0.807
14.136	0.797
14.1692	0.785
14.2023	0.757
14.2355	0.743
14.2687	0.722
14.3018	0.699
14.335	0.692
14.3681	0.694
14.4013	0.702
14.4345	0.706
14.4676	0.718
14.5008	0.731
14.5339	0.748
14.5671	0.779
14.6003	0.783
14.6334	0.787
14.6666	0.792
14.6997	0.793
14.7329	0.797
14.7661	0.803
14.7992	0.812
14.8324	0.808
14.8655	0.807
14.8987	0.796
14.9318	0.788
14.965	0.801
