Infrared Spectrum: N,N-DIMETHYLTRIFLUOROACETAMIDE
Formula: C4 H6 F3 N O
CAS: 1547-87-1
State: LIQUID
Class: COBLENTZ
Instrument: PERKIN-ELMER
Sampling: TRANSMISSION
Path length: CAPILLARY
Resolution: 4
Origin: ABBOTT LABORATORIES - WASHBURN
MICROMETERS	TRANSMITTANCE
2.054	0.883
2.08971	0.884
2.12542	0.887
2.16114	0.8871
2.19685	0.89
2.23256	0.892
2.26827	0.8992
2.30398	0.898
2.3397	0.899
2.37541	0.9041
2.41112	0.907
2.44683	0.907
2.48254	0.913
2.51825	0.9158
2.55397	0.914
2.58968	0.916
2.62539	0.916
2.6611	0.911
2.69681	0.911
2.73253	0.911
2.76824	0.907
2.80395	0.8959
2.83966	0.8888
2.87537	0.884
2.91109	0.8829
2.9468	0.881
2.98251	0.883
3.01822	0.883
3.05393	0.887
3.08964	0.8903
3.12536	0.8921
3.16107	0.896
3.19678	0.9019
3.23249	0.907
3.2682	0.9141
3.30392	0.917
3.33963	0.908
3.37534	0.89
3.41105	0.8328
3.44676	0.838
3.48248	0.8653
3.51819	0.8892
3.5539	0.901
3.58961	0.913
3.62532	0.9312
3.66104	0.937
3.69675	0.943
3.73246	0.9439
3.76817	0.94
3.80388	0.938
3.83959	0.9406
3.87531	0.928
3.91102	0.925
3.94673	0.92
3.98244	0.9188
4.01815	0.9109
4.05387	0.902
4.08958	0.8989
4.12529	0.893
4.161	0.893
4.19671	0.8918
4.23243	0.887
4.26814	0.889
4.30385	0.875
4.33956	0.8752
4.37527	0.878
4.41098	0.872
4.4467	0.8661
4.48241	0.869
4.51812	0.865
4.55383	0.86
4.58954	0.857
4.62526	0.8589
4.66097	0.857
4.69668	0.856
4.73239	0.853
4.7681	0.85
4.80382	0.847
4.83953	0.8421
4.87524	0.8441
4.91095	0.844
4.94666	0.844
4.98238	0.841
5.01809	0.836
5.0538	0.839
5.08951	0.8417
5.12522	0.841
5.16093	0.839
5.19665	0.838
5.23236	0.8357
5.26807	0.8321
5.30378	0.835
5.33949	0.832
5.37521	0.827
5.41092	0.8284
5.44663	0.8294
5.48234	0.829
5.51805	0.826
5.55377	0.821
5.58948	0.818
5.62519	0.809
5.6609	0.7965
5.69661	0.7715
5.73232	0.7308
5.76804	0.6666
5.80375	0.5468
5.83946	0.3445
5.87517	0.127
5.91088	0.1516
5.9466	0.2339
5.98231	0.5308
6.01802	0.7056
6.05373	0.7275
6.08944	0.762
6.12516	0.7856
6.16087	0.7974
6.19658	0.803
6.23229	0.808
6.268	0.811
6.30372	0.812
6.33943	0.809
6.37514	0.8011
6.41085	0.794
6.44656	0.791
6.48227	0.79
6.51799	0.7795
6.5537	0.7475
6.58941	0.7076
6.62512	0.7245
6.66083	0.7291
6.69655	0.7169
6.73226	0.7377
6.76797	0.754
6.80368	0.7434
6.83939	0.7227
6.87511	0.71
6.91082	0.7167
6.94653	0.7214
6.98224	0.7217
7.01795	0.6629
7.05367	0.6301
7.08938	0.6409
7.12509	0.6109
7.1608	0.7126
7.19651	0.7591
7.23222	0.7889
7.26794	0.7934
7.30365	0.7993
7.33936	0.803
7.37507	0.808
7.41078	0.808
7.4465	0.8023
7.48221	0.7964
7.51792	0.7888
7.55363	0.7904
7.58934	0.7946
7.62506	0.794
7.66077	0.79
7.69648	0.7797
7.73219	0.746
7.7679	0.6389
7.80361	0.5517
7.83933	0.5364
7.87504	0.6031
7.91075	0.6303
7.94646	0.5558
7.98217	0.4635
8.01789	0.3896
8.0536	0.3785
8.08931	0.4407
8.12502	0.5655
8.16073	0.6289
8.19645	0.6425
8.23216	0.6115
8.26787	0.5507
8.30358	0.5125
8.33929	0.3968
8.37501	0.275
8.41072	0.2068
8.44643	0.1939
8.48214	0.2791
8.51785	0.43
8.55356	0.4881
8.58928	0.4819
8.62499	0.4105
8.6607	0.3337
8.69641	0.2695
8.73212	0.2175
8.76784	0.1859
8.80355	0.1765
8.83926	0.2183
8.87497	0.3141
8.91068	0.4033
8.9464	0.3993
8.98211	0.3195
9.01782	0.2473
9.05353	0.2247
9.08924	0.2877
9.12495	0.437
9.16067	0.5732
9.19638	0.6439
9.23209	0.7004
9.2678	0.7276
9.30351	0.7414
9.33923	0.7496
9.37494	0.7427
9.41065	0.7334
9.44636	0.7341
9.48207	0.7575
9.51779	0.778
9.5535	0.7876
9.58921	0.7949
9.62492	0.8025
9.66063	0.808
9.69635	0.812
9.73206	0.809
9.76777	0.808
9.80348	0.808
9.83919	0.805
9.8749	0.8099
9.91062	0.8195
9.94633	0.8263
9.98204	0.83
10.0178	0.83
10.0535	0.8348
10.0892	0.836
10.1249	0.8405
10.1606	0.845
10.1963	0.841
10.232	0.841
10.2677	0.8412
10.3034	0.842
10.3392	0.8447
10.3749	0.847
10.4106	0.85
10.4463	0.848
10.482	0.847
10.5177	0.8463
10.5534	0.844
10.5891	0.845
10.6249	0.845
10.6606	0.8411
10.6963	0.836
10.732	0.827
10.7677	0.7977
10.8034	0.7595
10.8391	0.7434
10.8748	0.7872
10.9105	0.8093
10.9463	0.8289
10.982	0.8405
11.0177	0.842
11.0534	0.845
11.0891	0.847
11.1248	0.848
11.1605	0.847
11.1962	0.847
11.232	0.8498
11.2677	0.85
11.3034	0.848
11.3391	0.85
11.3748	0.851
11.4105	0.8517
11.4462	0.8478
11.4819	0.851
11.5177	0.8509
11.5534	0.8471
11.5891	0.851
11.6248	0.851
11.6605	0.851
11.6962	0.849
11.7319	0.85
11.7676	0.8478
11.8033	0.848
11.8391	0.848
11.8748	0.845
11.9105	0.851
11.9462	0.846
11.9819	0.85
12.0176	0.8463
12.0533	0.842
12.089	0.8422
12.1248	0.844
12.1605	0.839
12.1962	0.8463
12.2319	0.839
12.2676	0.838
12.3033	0.838
12.339	0.836
12.3747	0.838
12.4104	0.8441
12.4462	0.8599
12.4819	0.8622
12.5176	0.8563
12.5533	0.856
12.589	0.8523
12.6247	0.844
12.6604	0.844
12.6961	0.842
12.7319	0.841
12.7676	0.838
12.8033	0.8337
12.839	0.83
12.8747	0.8266
12.9104	0.823
12.9461	0.821
12.9818	0.8138
13.0176	0.8061
13.0533	0.7936
13.089	0.7734
13.1247	0.7207
13.1604	0.6222
13.1961	0.581
13.2318	0.6132
13.2675	0.6555
13.3032	0.7261
13.339	0.7662
13.3747	0.787
13.4104	0.797
13.4461	0.801
13.4818	0.8024
13.5175	0.805
13.5532	0.802
13.5889	0.8
13.6247	0.8029
13.6604	0.803
13.6961	0.8007
13.7318	0.796
13.7675	0.796
13.8032	0.7932
13.8389	0.7942
13.8746	0.796
13.9103	0.791
13.9461	0.793
13.9818	0.7916
14.0175	0.787
14.0532	0.79
14.0889	0.787
14.1246	0.782
14.1603	0.7808
14.196	0.776
14.2318	0.775
14.2675	0.775
14.3032	0.7723
14.3389	0.7679
14.3746	0.761
14.4103	0.758
14.446	0.7568
14.4817	0.754
14.5175	0.7493
14.5532	0.7433
14.5889	0.736
14.6246	0.7319
14.6603	0.724
14.696	0.7145
14.7317	0.7
14.7674	0.682
14.8031	0.6281
14.8389	0.5597
14.8746	0.5003
14.9103	0.4409
14.946	0.4445
14.9817	0.4982
15.0174	0.6376
15.0531	0.6491
15.0888	0.6589
15.1246	0.6708
15.1603	0.674
15.196	0.677
15.2317	0.674
15.2674	0.6736
15.3031	0.668
15.3388	0.665
15.3745	0.662
15.4102	0.659
