Infrared Spectrum: PYRIMIDINE, 6-CHLORO-2,4-DIAMINO-
Formula: C4 H5 Cl N4
CAS: 156-83-2
State: SOLID (SPLIT MULL)
Class: COBLENTZ III
Instrument: DOW KBr FOREPRISM-GRATING
Instrument parameters: BLAZED AT 3.5, 12.0, 20.0 MICRON AND CHANGED AT 5.0, 7.5, 14.9 MICRON
Sampling: TRANSMISSION
Resolution: 2
Origin: DOW CHEMICAL COMPANY
1/CM	TRANSMITTANCE
382	0.497
391	0.4962
400	0.4948
409	0.4941
418	0.494
427	0.5007
436	0.5136
445	0.5262
454	0.5226
463	0.5164
472	0.5086
481	0.4996
490	0.4876
499	0.4744
508	0.4621
517	0.4533
526	0.4808
535	0.4926
544	0.444
553	0.4278
562	0.4517
571	0.5271
580	0.5531
589	0.5703
598	0.5865
607	0.5901
616	0.5624
625	0.5222
634	0.6005
643	0.6082
652	0.6106
661	0.6082
670	0.5997
679	0.5885
688	0.5856
697	0.586
706	0.5641
715	0.5424
724	0.5505
733	0.5878
742	0.6123
751	0.632
760	0.6426
769	0.627
778	0.5931
787	0.5727
796	0.2373
805	0.5875
814	0.6284
823	0.6379
832	0.6376
841	0.6208
850	0.6041
859	0.6074
868	0.5929
877	0.5492
886	0.4796
895	0.251
904	0.5498
913	0.6235
922	0.621
931	0.6106
940	0.5936
949	0.5708
958	0.5281
967	0.4697
976	0.4687
985	0.5825
994	0.601
1003	0.5951
1012	0.5979
1021	0.5969
1030	0.5919
1039	0.5843
1048	0.5798
1057	0.579
1066	0.5801
1075	0.5822
1084	0.5844
1093	0.587
1102	0.5891
1111	0.5873
1120	0.5794
1129	0.5705
1138	0.5177
1147	0.431
1156	0.3276
1165	0.5264
1174	0.576
1183	0.5948
1192	0.5996
1201	0.5967
1210	0.591
1219	0.5855
1228	0.5789
1237	0.567
1246	0.546
1255	0.4971
1264	0.4247
1273	0.378
1282	0.4835
1291	0.5396
1300	0.5489
1309	0.5493
1318	0.5402
1327	0.4594
1336	0.4306
1345	0.4173
1354	0.3866
1363	0.2884
1372	0.1529
1381	0.5428
1390	0.5359
1399	0.4732
1408	0.4219
1417	0.3682
1426	0.2883
1435	0.2532
1444	0.2123
1453	0.221
1462	0.3224
1471	0.466
1480	0.3904
1489	0.4199
1498	0.3868
1507	0.3864
1516	0.3114
1525	0.2503
1534	0.1829
1543	0.1091
1552	0.075
1561	0.1628
1570	0.1275
1579	0.0904
1588	0.151
1597	0.2789
1606	0.371
1615	0.2482
1624	0.1081
1633	0.1183
1642	0.0926
1651	0.2045
1660	0.2463
1669	0.6798
1678	0.7733
1687	0.84
1696	0.8523
1705	0.8648
1714	0.8733
1723	0.8809
1732	0.8839
1741	0.8812
1750	0.8735
1759	0.8658
1768	0.8588
1777	0.8552
1786	0.8515
1795	0.8478
1804	0.8443
1813	0.8399
1822	0.8347
1831	0.8294
1840	0.8236
1849	0.8178
1858	0.8128
1867	0.808
1876	0.8033
1885	0.7988
1894	0.7945
1903	0.7901
1912	0.7865
1921	0.7832
1930	0.7808
1939	0.7791
1948	0.7793
1957	0.7786
1966	0.7634
1975	0.7575
1984	0.7514
1993	0.7358
2002	0.7242
2011	0.7219
2020	0.7196
2029	0.7174
2038	0.7149
2047	0.7114
2056	0.7076
2065	0.7034
2074	0.6991
2083	0.6943
2092	0.6895
2101	0.6845
2110	0.6796
2119	0.6746
2128	0.6694
2137	0.6642
2146	0.6592
2155	0.6542
2164	0.6493
2173	0.6444
2182	0.6401
2191	0.6358
2200	0.6315
2209	0.6272
2218	0.6235
2227	0.6204
2236	0.6173
2245	0.6142
2254	0.6112
2263	0.6086
2272	0.6062
2281	0.6037
2290	0.6012
2299	0.599
2308	0.5975
2317	0.5959
2326	0.5958
2335	0.5964
2344	0.5971
2353	0.5967
2362	0.5951
2371	0.5935
2380	0.5919
2389	0.5903
2398	0.5887
2407	0.5867
2416	0.5845
2425	0.5823
2434	0.5801
2443	0.5778
2452	0.5754
2461	0.573
2470	0.5706
2479	0.5679
2488	0.5652
2497	0.5625
2506	0.5598
2515	0.5571
2524	0.5543
2533	0.5512
2542	0.5482
2551	0.5451
2560	0.5421
2569	0.539
2578	0.5356
2587	0.532
2596	0.5284
2605	0.5249
2614	0.5212
2623	0.5177
2632	0.5141
2641	0.5104
2650	0.5068
2659	0.5031
2668	0.4994
2677	0.4957
2686	0.492
2695	0.4891
2704	0.4865
2713	0.4852
2722	0.4841
2731	0.483
2740	0.4808
2749	0.478
2758	0.4739
2767	0.4698
2776	0.4664
2785	0.463
2794	0.4599
2803	0.4581
2812	0.4573
2821	0.4565
2830	0.4558
2839	0.452
2848	0.4456
2857	0.4382
2866	0.4308
2875	0.4251
2884	0.4198
2893	0.4148
2902	0.4099
2911	0.405
2920	0.4014
2929	0.3979
2938	0.3943
2947	0.3909
2956	0.3876
2965	0.3784
2974	0.3687
2983	0.359
2992	0.3491
3001	0.338
3010	0.327
3019	0.3159
3028	0.305
3037	0.2955
3046	0.2861
3055	0.2767
3064	0.2673
3073	0.2552
3082	0.2421
3091	0.229
3100	0.2172
3109	0.2056
3118	0.1877
3127	0.172
3136	0.1684
3145	0.1693
3154	0.1764
3163	0.1884
3172	0.2004
3181	0.2156
3190	0.2265
3199	0.2359
3208	0.2391
3217	0.252
3226	0.2669
3235	0.2828
3244	0.301
3253	0.3196
3262	0.3234
3271	0.3181
3280	0.2999
3289	0.2908
3298	0.2897
3307	0.2899
3316	0.2824
3325	0.2564
3334	0.2261
3343	0.2283
3352	0.2143
3361	0.2117
3370	0.3008
3379	0.3514
3388	0.3587
3397	0.3525
3406	0.3443
3415	0.3396
3424	0.3372
3433	0.3152
3442	0.2537
3451	0.2043
3460	0.1951
3469	0.2001
3478	0.4704
3487	0.5977
3496	0.6127
3505	0.6104
3514	0.5995
3523	0.5902
3532	0.5822
3541	0.5757
3550	0.5697
3559	0.5634
3568	0.557
3577	0.5505
3586	0.5448
3595	0.5391
3604	0.5339
3613	0.529
3622	0.5242
3631	0.5193
3640	0.5143
3649	0.5096
3658	0.5053
3667	0.5009
3676	0.4966
3685	0.4923
3694	0.4881
3703	0.4838
3712	0.4796
3721	0.4756
3730	0.472
3739	0.4683
3748	0.4648
3757	0.4624
3766	0.46
3775	0.458
3784	0.456
3793	0.4541
3802	0.4522
