Infrared Spectrum: TRANS-1,2-DICHLOROETHYLENE
Formula: C2 H2 Cl2
CAS: 156-60-5
Class: COBLENTZ
Instrument: Not specified, most likely a prism, grating, or hybrid spectrometer.
Sampling: TRANSMISSION
Resolution: 4
Origin: W.T. BOLLETER
MICROMETERS	TRANSMITTANCE
14.577	0.733
14.6469	0.715
14.7168	0.697
14.7868	0.663
14.8567	0.638
14.9266	0.622
14.9965	0.629
15.0664	0.644
15.1364	0.654
15.2063	0.663
15.2762	0.674
15.3461	0.709
15.416	0.741
15.4859	0.765
15.5559	0.781
15.6258	0.79
15.6957	0.797
15.7656	0.798
15.8355	0.791
15.9055	0.781
15.9754	0.775
16.0453	0.759
16.1152	0.743
16.1851	0.729
16.2551	0.718
16.325	0.715
16.3949	0.713
16.4648	0.717
16.5347	0.717
16.6047	0.709
16.6746	0.699
16.7445	0.688
16.8144	0.697
16.8843	0.711
16.9542	0.736
17.0242	0.759
17.0941	0.772
17.164	0.779
17.2339	0.781
17.3038	0.782
17.3738	0.781
17.4437	0.781
17.5136	0.781
17.5835	0.779
17.6534	0.775
17.7234	0.772
17.7933	0.77
17.8632	0.765
17.9331	0.763
18.003	0.765
18.0729	0.765
18.1429	0.765
18.2128	0.761
18.2827	0.754
18.3526	0.745
18.4225	0.736
18.4925	0.729
18.5624	0.725
18.6323	0.724
18.7022	0.725
18.7721	0.731
18.8421	0.738
18.912	0.745
18.9819	0.752
19.0518	0.768
19.1217	0.781
19.1917	0.79
19.2616	0.797
19.3315	0.802
19.4014	0.807
19.4713	0.809
19.5412	0.811
19.6112	0.813
19.6811	0.813
19.751	0.813
19.8209	0.813
19.8908	0.809
19.9608	0.809
20.0307	0.8
20.1006	0.798
20.1705	0.793
20.2404	0.788
20.3104	0.782
20.3803	0.782
20.4502	0.781
20.5201	0.781
20.59	0.781
20.66	0.779
20.7299	0.779
20.7998	0.774
20.8697	0.768
20.9396	0.763
21.0095	0.756
21.0795	0.743
21.1494	0.731
21.2193	0.709
21.2892	0.695
21.3591	0.658
21.4291	0.642
21.499	0.635
21.5689	0.638
21.6388	0.651
21.7087	0.674
21.7787	0.699
21.8486	0.713
21.9185	0.724
21.9884	0.733
22.0583	0.738
22.1283	0.741
22.1982	0.747
22.2681	0.756
22.338	0.759
22.4079	0.765
22.4778	0.77
22.5478	0.775
22.6177	0.777
22.6876	0.777
22.7575	0.779
22.8274	0.779
22.8974	0.781
22.9673	0.781
23.0372	0.784
23.1071	0.79
23.177	0.791
23.247	0.797
23.3169	0.798
23.3868	0.8
23.4567	0.804
23.5266	0.806
23.5965	0.807
23.6665	0.811
23.7364	0.814
23.8063	0.816
23.8762	0.816
23.9461	0.82
24.0161	0.82
24.086	0.82
24.1559	0.823
24.2258	0.825
24.2957	0.825
24.3657	0.827
24.4356	0.827
24.5055	0.829
24.5754	0.829
24.6453	0.83
24.7153	0.832
24.7852	0.836
24.8551	0.838
24.925	0.839
24.9949	0.843
25.0648	0.843
25.1348	0.841
25.2047	0.838
25.2746	0.832
25.3445	0.827
25.4144	0.825
25.4844	0.82
25.5543	0.82
25.6242	0.816
25.6941	0.816
25.764	0.818
25.834	0.814
25.9039	0.813
25.9738	0.813
26.0437	0.811
26.1136	0.813
26.1836	0.807
26.2535	0.806
26.3234	0.807
26.3933	0.807
26.4632	0.806
26.5331	0.804
26.6031	0.804
26.673	0.804
26.7429	0.802
26.8128	0.8
26.8827	0.8
26.9527	0.798
27.0226	0.798
27.0925	0.798
27.1624	0.798
27.2323	0.798
27.3023	0.798
27.3722	0.797
27.4421	0.795
27.512	0.793
27.5819	0.791
27.6518	0.79
27.7218	0.788
27.7917	0.782
27.8616	0.779
27.9315	0.777
28.0014	0.772
28.0714	0.763
28.1413	0.756
28.2112	0.752
28.2811	0.749
28.351	0.745
28.421	0.741
28.4909	0.743
28.5608	0.747
28.6307	0.747
28.7006	0.747
28.7706	0.75
28.8405	0.754
28.9104	0.752
28.9803	0.752
29.0502	0.756
29.1201	0.756
29.1901	0.754
29.26	0.752
29.3299	0.75
29.3998	0.75
29.4697	0.75
29.5397	0.75
29.6096	0.749
29.6795	0.749
29.7494	0.749
29.8193	0.745
29.8893	0.741
29.9592	0.74
30.0291	0.738
30.099	0.738
30.1689	0.736
30.2389	0.734
30.3088	0.729
30.3787	0.729
30.4486	0.725
30.5185	0.727
30.5884	0.725
30.6584	0.724
30.7283	0.724
30.7982	0.722
30.8681	0.718
30.938	0.717
31.008	0.715
31.0779	0.715
31.1478	0.711
31.2177	0.708
31.2876	0.708
31.3576	0.706
31.4275	0.702
31.4974	0.701
31.5673	0.699
31.6372	0.697
31.7072	0.688
31.7771	0.686
31.847	0.685
31.9169	0.681
31.9868	0.679
32.0567	0.676
32.1267	0.672
32.1966	0.672
32.2665	0.67
32.3364	0.665
32.4063	0.661
32.4763	0.656
32.5462	0.645
32.6161	0.645
32.686	0.645
32.7559	0.642
32.8259	0.64
32.8958	0.629
32.9657	0.626
33.0356	0.613
33.1055	0.604
33.1754	0.601
33.2454	0.601
33.3153	0.599
33.3852	0.599
33.4551	0.597
33.525	0.594
33.595	0.587
33.6649	0.583
33.7348	0.581
33.8047	0.58
33.8746	0.571
33.9446	0.562
34.0145	0.556
34.0844	0.551
34.1543	0.548
34.2242	0.544
34.2942	0.537
34.3641	0.53
34.434	0.523
34.5039	0.514
34.5738	0.507
34.6437	0.505
34.7137	0.498
34.7836	0.485
34.8535	0.483
34.9234	0.478
34.9933	0.475
35.0633	0.467
35.1332	0.464
35.2031	0.46
35.273	0.459
35.3429	0.459
35.4129	0.451
35.4828	0.441
35.5527	0.427
35.6226	0.423
35.6925	0.414
35.7625	0.414
35.8324	0.409
35.9023	0.402
35.9722	0.395
36.0421	0.384
36.112	0.379
36.182	0.373
36.2519	0.371
36.3218	0.368
36.3917	0.366
36.4616	0.357
36.5316	0.355
36.6015	0.352
36.6714	0.35
36.7413	0.346
36.8112	0.341
36.8812	0.338
36.9511	0.336
37.021	0.329
37.0909	0.327
37.1608	0.318
37.2308	0.316
37.3007	0.313
37.3706	0.309
37.4405	0.306
37.5104	0.302
37.5803	0.297
37.6503	0.291
37.7202	0.293
37.7901	0.29
37.86	0.279
37.9299	0.275
