Infrared Spectrum: Ethylene, 1,2-dichloro-, cis-
Formula: C2 H2 Cl2
CAS: 156-59-2
State: GAS (100 mmHg, N2 ADDED, TOTAL PRESSURE 600 mmHg)
Class: COBLENTZ
Instrument: DOW KBr FOREPRISM-GRATING
Instrument parameters: GRATING CHANGED AT 5.0, 7.5, 15.0 MICRON
Sampling: TRANSMISSION
Path length: 5 CM
Resolution: 2
Origin: DOW CHEMICAL COMPANY
1/CM	TRANSMITTANCE
391	0.85
400	0.8472
409	0.8448
418	0.8435
427	0.843
436	0.8434
445	0.8439
454	0.8443
463	0.8445
472	0.8422
481	0.8434
490	0.8401
499	0.8349
508	0.8307
517	0.8272
526	0.8246
535	0.8232
544	0.8207
553	0.7916
562	0.4979
571	0.5251
580	0.4469
589	0.7977
598	0.8397
607	0.8417
616	0.8454
625	0.8527
634	0.8584
643	0.8568
652	0.8173
661	0.7319
670	0.3025
679	0.1322
688	0.0886
697	0.0294
706	0.061
715	0.082
724	0.1811
733	0.1928
742	0.4252
751	0.5591
760	0.8061
769	0.901
778	0.9176
787	0.9183
796	0.9091
805	0.878
814	0.8157
823	0.5924
832	0.6078
841	0.5291
850	0.0056
859	0.0033
868	0.0057
877	0.5462
886	0.8423
895	0.8425
904	0.851
913	0.8495
922	0.8537
931	0.8676
940	0.8762
949	0.8845
958	0.8875
967	0.8858
976	0.8816
985	0.8789
994	0.8768
1003	0.8752
1012	0.8723
1021	0.8688
1030	0.8689
1039	0.8778
1048	0.8831
1057	0.8844
1066	0.8832
1075	0.8807
1084	0.8759
1093	0.8638
1102	0.869
1111	0.8654
1120	0.8751
1129	0.8744
1138	0.8742
1147	0.8734
1156	0.8722
1165	0.8706
1174	0.8668
1183	0.862
1192	0.8437
1201	0.8238
1210	0.8141
1219	0.855
1228	0.8552
1237	0.8548
1246	0.854
1255	0.8513
1264	0.8283
1273	0.766
1282	0.6414
1291	0.4551
1300	0.1035
1309	0.1795
1318	0.1741
1327	0.8348
1336	0.8389
1345	0.834
1354	0.8271
1363	0.8183
1372	0.8067
1381	0.7955
1390	0.8014
1399	0.7946
1408	0.815
1417	0.8235
1426	0.8234
1435	0.8197
1444	0.8128
1453	0.8048
1462	0.7952
1471	0.7998
1480	0.8126
1489	0.83
1498	0.8375
1507	0.8384
1516	0.8379
1525	0.8359
1534	0.8261
1543	0.7905
1552	0.6297
1561	0.3233
1570	0.348
1579	0.163
1588	0.1317
1597	0.1715
1606	0.2159
1615	0.4746
1624	0.7237
1633	0.8256
1642	0.8373
1651	0.8259
1660	0.8282
1669	0.8362
1678	0.8382
1687	0.8256
1696	0.8049
1705	0.7757
1714	0.7636
1723	0.7363
1732	0.7883
1741	0.8112
1750	0.8237
1759	0.8307
1768	0.836
1777	0.8384
1786	0.8405
1795	0.8416
1804	0.842
1813	0.8418
1822	0.841
1831	0.8396
1840	0.8385
1849	0.8385
1858	0.8385
1867	0.8385
1876	0.8378
1885	0.8392
1894	0.8411
1903	0.8435
1912	0.8435
1921	0.842
1930	0.8416
1939	0.8418
1948	0.8428
1957	0.8414
1966	0.8402
1975	0.8386
1984	0.8388
1993	0.839
2002	0.839
2011	0.839
2020	0.8389
2029	0.8389
2038	0.8387
2047	0.8384
2056	0.8382
2065	0.838
2074	0.8377
2083	0.8374
2092	0.8375
2101	0.8377
2110	0.838
2119	0.837
2128	0.8358
2137	0.8338
2146	0.8315
2155	0.831
2164	0.8324
2173	0.8346
2182	0.8381
2191	0.8414
2200	0.843
2209	0.8422
2218	0.8414
2227	0.8405
2236	0.8398
2245	0.8391
2254	0.8385
2263	0.8379
2272	0.8373
2281	0.8367
2290	0.8362
2299	0.8358
2308	0.8355
2317	0.8352
2326	0.8369
2335	0.8392
2344	0.8381
2353	0.8363
2362	0.8342
2371	0.8326
2380	0.8319
2389	0.8369
2398	0.8414
2407	0.843
2416	0.8411
2425	0.8371
2434	0.8348
2443	0.8391
2452	0.8434
2461	0.8464
2470	0.8487
2479	0.8506
2488	0.8523
2497	0.8534
2506	0.8539
2515	0.8543
2524	0.8539
2533	0.8533
2542	0.8528
2551	0.8519
2560	0.8504
2569	0.8489
2578	0.8495
2587	0.8528
2596	0.8555
2605	0.8555
2614	0.8551
2623	0.8546
2632	0.8543
2641	0.8543
2650	0.8543
2659	0.8542
2668	0.8537
2677	0.8531
2686	0.8526
2695	0.852
2704	0.8515
2713	0.851
2722	0.8506
2731	0.8501
2740	0.8497
2749	0.8502
2758	0.8512
2767	0.8523
2776	0.8539
2785	0.8558
2794	0.8568
2803	0.8561
2812	0.8535
2821	0.8504
2830	0.8469
2839	0.8418
2848	0.82
2857	0.7803
2866	0.748
2875	0.7194
2884	0.7419
2893	0.7801
2902	0.7966
2911	0.7939
2920	0.7693
2929	0.7343
2938	0.6739
2947	0.6932
2956	0.6996
2965	0.6718
2974	0.6948
2983	0.7489
2992	0.8372
3001	0.8482
3010	0.8511
3019	0.851
3028	0.8501
3037	0.8459
3046	0.8455
3055	0.8414
3064	0.8212
3073	0.6699
3082	0.24
3091	0.3299
3100	0.2069
3109	0.8253
3118	0.8475
3127	0.8573
3136	0.8592
3145	0.8595
3154	0.8608
3163	0.8621
3172	0.8634
3181	0.8645
3190	0.866
3199	0.8675
3208	0.8689
3217	0.8695
3226	0.8689
3235	0.8672
3244	0.8657
3253	0.8651
3262	0.8655
3271	0.8665
3280	0.8679
3289	0.8699
3298	0.8715
3307	0.8727
3316	0.8731
3325	0.873
3334	0.873
3343	0.8729
3352	0.8726
3361	0.8724
3370	0.8723
3379	0.8725
3388	0.8727
3397	0.8729
3406	0.8733
3415	0.8736
3424	0.874
3433	0.8743
3442	0.8745
3451	0.8746
3460	0.8747
3469	0.8748
3478	0.8748
3487	0.8747
3496	0.8746
3505	0.8745
3514	0.8744
3523	0.8746
3532	0.8751
3541	0.8754
3550	0.8758
3559	0.8762
3568	0.8764
3577	0.8765
3586	0.8766
3595	0.876
3604	0.8751
3613	0.8739
3622	0.871
3631	0.8666
3640	0.8607
3649	0.8564
3658	0.8556
3667	0.865
3676	0.8723
3685	0.8753
3694	0.8766
3703	0.8766
3712	0.876
3721	0.8747
3730	0.8732
3739	0.8703
3748	0.8705
3757	0.8731
3766	0.8748
3775	0.8749
3784	0.8737
3793	0.8714
