Infrared Spectrum: 2-Octanol, 3,3,4,4,5,5,6,6,7,7,8,8-dodecafluoro-
Formula: C8 H6 F12 O
CAS: 156122-84-8
State: LIQUID (NEAT)
Class: COBLENTZ III
Instrument: DOW KBr FOREPRISM-GRATING
Instrument parameters: BLAZED AT 3.5, 12.0, 20.0 MICRON AND CHANGED AT 5.0, 7.5, 14.9 MICRON
Sampling: TRANSMISSION
Path length: CAPILLARY
Resolution: 2
Origin: DOW CHEMICAL COMPANY
1/CM	TRANSMITTANCE
3778	0.8667
3769	0.8678
3760	0.8677
3751	0.8654
3742	0.8665
3733	0.8667
3724	0.8657
3715	0.8633
3706	0.8586
3697	0.8491
3688	0.8282
3679	0.8241
3670	0.8264
3661	0.8278
3652	0.8169
3643	0.7901
3634	0.7706
3625	0.7589
3616	0.75
3607	0.7438
3598	0.7615
3589	0.7798
3580	0.7857
3571	0.7848
3562	0.7771
3553	0.7632
3544	0.7468
3535	0.7281
3526	0.7091
3517	0.6864
3508	0.6562
3499	0.6268
3490	0.604
3481	0.5825
3472	0.5672
3463	0.552
3454	0.5371
3445	0.524
3436	0.5132
3427	0.5041
3418	0.4975
3409	0.4923
3400	0.4882
3391	0.4864
3382	0.4855
3373	0.4866
3364	0.4924
3355	0.5007
3346	0.511
3337	0.5226
3328	0.5346
3319	0.5489
3310	0.5639
3301	0.5795
3292	0.5958
3283	0.6133
3274	0.6315
3265	0.6488
3256	0.6655
3247	0.6818
3238	0.6961
3229	0.71
3220	0.7238
3211	0.7354
3202	0.7456
3193	0.7557
3184	0.7653
3175	0.7743
3166	0.7831
3157	0.7911
3148	0.7985
3139	0.8054
3130	0.8118
3121	0.8167
3112	0.8212
3103	0.8248
3094	0.8286
3085	0.8323
3076	0.8343
3067	0.8355
3058	0.8357
3049	0.8348
3040	0.8313
3031	0.8136
3022	0.7755
3013	0.7512
3004	0.7326
2995	0.7285
2986	0.7658
2977	0.7917
2968	0.7965
2959	0.7818
2950	0.7658
2941	0.7721
2932	0.789
2923	0.7926
2914	0.7942
2905	0.7993
2896	0.8064
2887	0.8074
2878	0.8124
2869	0.8183
2860	0.8209
2851	0.8217
2842	0.8215
2833	0.8225
2824	0.8258
2815	0.8289
2806	0.8309
2797	0.832
2788	0.8333
2779	0.8339
2770	0.8346
2761	0.835
2752	0.835
2743	0.835
2734	0.835
2725	0.8347
2716	0.8347
2707	0.8349
2698	0.8355
2689	0.8366
2680	0.8377
2671	0.839
2662	0.8406
2653	0.8421
2644	0.8433
2635	0.8444
2626	0.8455
2617	0.8457
2608	0.846
2599	0.846
2590	0.8456
2581	0.845
2572	0.8435
2563	0.8424
2554	0.8423
2545	0.8421
2536	0.8418
2527	0.8414
2518	0.8411
2509	0.8407
2500	0.8405
2491	0.8404
2482	0.8402
2473	0.8404
2464	0.8409
2455	0.8414
2446	0.8418
2437	0.842
2428	0.8424
2419	0.843
2410	0.8439
2401	0.8448
2392	0.8463
2383	0.8489
2374	0.8528
2365	0.8573
2356	0.8608
2347	0.8634
2338	0.8658
2329	0.867
2320	0.8671
2311	0.8562
2302	0.8485
2293	0.8461
2284	0.8449
2275	0.8437
2266	0.8425
2257	0.8416
2248	0.841
2239	0.8412
2230	0.8414
2221	0.8417
2212	0.8463
2203	0.8493
2194	0.8492
2185	0.849
2176	0.8494
2167	0.8498
2158	0.8502
2149	0.8501
2140	0.8495
2131	0.8491
2122	0.8491
2113	0.8496
2104	0.8502
2095	0.8506
2086	0.851
2077	0.8518
2068	0.8518
2059	0.8518
2050	0.8523
2041	0.8524
2032	0.853
2023	0.8532
2014	0.8532
2005	0.8513
1996	0.84
1987	0.8418
1978	0.8464
1969	0.8443
1960	0.8456
1951	0.8468
1942	0.8473
1933	0.8473
1924	0.8462
1915	0.8443
1906	0.8431
1897	0.843
1888	0.8433
1879	0.8437
1870	0.8434
1861	0.843
1852	0.8427
1843	0.8418
1834	0.8408
1825	0.8399
1816	0.8399
1807	0.84
1798	0.838
1789	0.8486
1780	0.8363
1771	0.8343
1762	0.8325
1753	0.8305
1744	0.8286
1735	0.8264
1726	0.8206
1717	0.8178
1708	0.8168
1699	0.8187
1690	0.8225
1681	0.8263
1672	0.8287
1663	0.8303
1654	0.8288
1645	0.8244
1636	0.8207
1627	0.8186
1618	0.8198
1609	0.8234
1600	0.8286
1591	0.8327
1582	0.8353
1573	0.8363
1564	0.8343
1555	0.8315
1546	0.8305
1537	0.8304
1528	0.831
1519	0.8313
1510	0.8275
1501	0.824
1492	0.8187
1483	0.8032
1474	0.7715
1465	0.703
1456	0.675
1447	0.7472
1438	0.7462
1429	0.7271
1420	0.6949
1411	0.6456
1402	0.5797
1393	0.6425
1384	0.6329
1375	0.706
1366	0.691
1357	0.6638
1348	0.7365
1339	0.7608
1330	0.7621
1321	0.6771
1312	0.6034
1303	0.5897
1294	0.5542
1285	0.4722
1276	0.5024
1267	0.5591
1258	0.5766
1249	0.4481
1240	0.362
1231	0.3268
1222	0.3484
1213	0.3189
1204	0.2687
1195	0.1971
1186	0.0993
1177	0.0441
1168	0.0321
1159	0.1119
1150	0.1674
1141	0.1124
1132	0.0807
1123	0.0869
1114	0.117
1105	0.2019
1096	0.3476
1087	0.4034
1078	0.4622
1069	0.5479
1060	0.567
1051	0.5648
1042	0.4747
1033	0.5076
1024	0.4983
1015	0.4107
1006	0.655
997	0.7738
988	0.8065
979	0.8218
970	0.822
961	0.7971
952	0.7069
943	0.6994
934	0.6323
925	0.7207
916	0.6921
907	0.7469
898	0.7054
889	0.5969
880	0.4982
871	0.5387
862	0.715
853	0.7319
844	0.8061
835	0.8361
826	0.7894
817	0.561
808	0.4604
799	0.4116
790	0.5306
781	0.5943
772	0.8058
763	0.8484
754	0.842
745	0.7271
736	0.7324
727	0.7595
718	0.6871
709	0.7114
700	0.7958
691	0.8375
682	0.8245
673	0.8167
664	0.8048
655	0.8108
646	0.8181
637	0.7903
628	0.7765
619	0.7736
610	0.7614
601	0.7356
592	0.7458
583	0.7297
574	0.7118
565	0.6726
556	0.6585
547	0.6138
538	0.7028
529	0.7215
520	0.7069
511	0.7306
502	0.7307
493	0.7181
484	0.7125
475	0.7415
466	0.7478
457	0.7445
448	0.7468
439	0.7444
430	0.7497
421	0.7498
412	0.7476
403	0.7462
394	0.7456
385	0.7457
