Infrared Spectrum: P-PHENYLAZOBENZOIC ACID
Formula: C13 H10 N2 O2
CAS: 1562-93-2
State: SOLID (OIL MULL)
Melting point: 242-244 C
Class: COBLENTZ
Instrument: Not specified, most likely a prism, grating, or hybrid spectrometer.
Sampling: TRANSMISSION
Resolution: 4
Origin: WYANDOTTE CHEMICALS CORP., WYANDOTTE, MICHIGAN, USA
MICROMETERS	TRANSMITTANCE
2.035	0.339
2.07492	0.344
2.11484	0.352
2.15476	0.356
2.19468	0.351
2.2346	0.346
2.27452	0.357
2.31444	0.359
2.35436	0.366
2.39428	0.366
2.4342	0.381
2.47412	0.387
2.51404	0.391
2.55396	0.399
2.59388	0.415
2.6338	0.42
2.67372	0.435
2.71364	0.439
2.75356	0.437
2.79348	0.44
2.8334	0.454
2.87332	0.45
2.91324	0.454
2.95316	0.449
2.99308	0.454
3.033	0.45
3.07292	0.437
3.11284	0.415
3.15276	0.377
3.19268	0.332
3.2326	0.277
3.27252	0.229
3.31244	0.151
3.35236	0.023
3.39228	0.028
3.4322	0.028
3.47212	0.031
3.51204	0.056
3.55196	0.207
3.59188	0.267
3.6318	0.316
3.67172	0.316
3.71164	0.314
3.75156	0.266
3.79148	0.281
3.8314	0.294
3.87132	0.304
3.91124	0.301
3.95116	0.271
3.99108	0.291
4.031	0.327
4.07092	0.359
4.11084	0.382
4.15076	0.396
4.19068	0.41
4.2306	0.427
4.27052	0.419
4.31044	0.447
4.35036	0.472
4.39028	0.529
4.4302	0.524
4.47012	0.534
4.51004	0.544
4.54996	0.554
4.58988	0.56
4.6298	0.582
4.66972	0.594
4.70964	0.603
4.74956	0.61
4.78948	0.622
4.8294	0.628
4.86932	0.625
4.90924	0.643
4.94916	0.657
4.98908	0.663
5.029	0.677
5.06892	0.68
5.10884	0.678
5.14876	0.653
5.18868	0.632
5.2286	0.673
5.26852	0.68
5.30844	0.667
5.34836	0.678
5.38828	0.68
5.4282	0.68
5.46812	0.693
5.50804	0.692
5.54796	0.678
5.58788	0.687
5.6278	0.703
5.66772	0.723
5.70764	0.75
5.74756	0.763
5.78748	0.655
5.8274	0.48
5.86732	0.202
5.90724	0.061
5.94716	0.051
5.98708	0.163
6.027	0.277
6.06692	0.437
6.10684	0.502
6.14676	0.514
6.18668	0.327
6.2266	0.415
6.26652	0.352
6.30644	0.55
6.34636	0.579
6.38628	0.64
6.4262	0.612
6.46612	0.628
6.50604	0.603
6.54596	0.6
6.58588	0.603
6.6258	0.442
6.66572	0.559
6.70564	0.449
6.74556	0.311
6.78548	0.108
6.8254	0.133
6.86532	0.179
6.90524	0.159
6.94516	0.163
6.98508	0.148
7.025	0.262
7.06492	0.301
7.10484	0.437
7.14476	0.489
7.18468	0.372
7.2246	0.198
7.26452	0.291
7.30444	0.404
7.34436	0.554
7.38428	0.577
7.4242	0.565
7.46412	0.467
7.50404	0.336
7.54396	0.277
7.58388	0.163
7.6238	0.109
7.66372	0.129
7.70364	0.074
7.74356	0.061
7.78348	0.123
7.8234	0.217
7.86332	0.356
7.90324	0.427
7.94316	0.455
7.98308	0.484
8.023	0.515
8.06292	0.537
8.10284	0.542
8.14276	0.494
8.18268	0.362
8.2226	0.46
8.26252	0.53
8.30244	0.595
8.34236	0.637
8.38228	0.65
8.4222	0.587
8.46212	0.592
8.50204	0.622
8.54196	0.658
8.58188	0.647
8.6218	0.499
8.66172	0.65
8.70164	0.534
8.74156	0.602
8.78148	0.672
8.8214	0.579
8.86132	0.49
8.90124	0.613
8.94116	0.638
8.98108	0.599
9.021	0.577
9.06092	0.585
9.10084	0.652
9.14076	0.71
9.18068	0.745
9.2206	0.755
9.26052	0.74
9.30044	0.6
9.34036	0.658
9.38028	0.747
9.4202	0.765
9.46012	0.78
9.50004	0.778
9.53996	0.775
9.57988	0.772
9.6198	0.762
9.65972	0.75
9.69964	0.733
9.73956	0.705
9.77948	0.682
9.8194	0.632
9.85932	0.437
9.89924	0.602
9.93916	0.68
9.97908	0.642
10.019	0.695
10.0589	0.718
10.0988	0.707
10.1388	0.68
10.1787	0.723
10.2186	0.715
10.2585	0.667
10.2984	0.642
10.3384	0.63
10.3783	0.587
10.4182	0.495
10.4581	0.377
10.498	0.299
10.538	0.232
10.5779	0.219
10.6178	0.234
10.6577	0.284
10.6976	0.351
10.7376	0.419
10.7775	0.47
10.8174	0.504
10.8573	0.336
10.8972	0.429
10.9372	0.582
10.9771	0.645
11.017	0.68
11.0569	0.707
11.0968	0.727
11.1368	0.737
11.1767	0.743
11.2166	0.75
11.2565	0.758
11.2964	0.772
11.3364	0.778
11.3763	0.772
11.4162	0.698
11.4561	0.495
11.496	0.206
11.536	0.159
11.5759	0.276
11.6158	0.454
11.6557	0.544
11.6956	0.594
11.7356	0.628
11.7755	0.655
11.8154	0.655
11.8553	0.645
11.8952	0.617
11.9352	0.61
11.9751	0.688
12.015	0.732
12.0549	0.753
12.0948	0.777
12.1348	0.798
12.1747	0.803
12.2146	0.801
12.2545	0.803
12.2944	0.798
12.3344	0.811
12.3743	0.828
12.4142	0.845
12.4541	0.851
12.494	0.851
12.534	0.838
12.5739	0.808
12.6138	0.705
12.6537	0.545
12.6936	0.474
12.7336	0.469
12.7735	0.231
12.8134	0.091
12.8533	0.234
12.8932	0.435
12.9332	0.567
12.9731	0.632
13.013	0.638
13.0529	0.582
13.0928	0.597
13.1328	0.66
13.1727	0.732
13.2126	0.773
13.2525	0.793
13.2924	0.806
13.3324	0.828
13.3723	0.835
13.4122	0.84
13.4521	0.841
13.492	0.845
13.532	0.843
13.5719	0.848
13.6118	0.85
13.6517	0.868
13.6916	0.86
13.7316	0.856
13.7715	0.855
13.8114	0.851
13.8513	0.851
13.8912	0.856
13.9312	0.88
13.9711	0.905
14.011	0.928
14.0509	0.94
14.0908	0.953
14.1308	0.955
14.1707	0.956
14.2106	0.945
14.2505	0.905
14.2904	0.831
14.3304	0.715
14.3703	0.502
14.4102	0.339
14.4501	0.214
14.49	0.179
14.53	0.241
14.5699	0.294
14.6098	0.322
14.6497	0.319
14.6896	0.314
14.7296	0.332
14.7695	0.4
14.8094	0.492
14.8493	0.592
14.8892	0.655
14.9292	0.698
14.9691	0.707
15.009	0.687
15.0489	0.663
15.0888	0.657
15.1288	0.687
15.1687	0.715
15.2086	0.73
15.2485	0.728
15.2884	0.727
15.3284	0.725
15.3683	0.722
15.4082	0.713
15.4481	0.71
15.488	0.703
15.528	0.698
15.5679	0.687
15.6078	0.677
15.6477	0.665
15.6876	0.655
15.7276	0.594
15.7675	0.597
15.8074	0.58
15.8473	0.575
15.8872	0.574
15.9272	0.574
15.9671	0.56
16.007	0.559
