Infrared Spectrum: 2-BUTYNE-1,4-DIOL DIACETATE
Formula: C8 H10 O4
CAS: 1573-17-7
Boiling point: 123-126 C AT 10 mmHg
Class: COBLENTZ
Instrument: Not specified, most likely a prism, grating, or hybrid spectrometer.
Sampling: TRANSMISSION
Path length: SMEAR
Resolution: 4
Origin: TENNESSEE EASTMAN COMPANY, RESEARCH LABORATORIES
MICROMETERS	TRANSMITTANCE
2.027	0.974
2.0679	0.976
2.10879	0.979
2.14969	0.979
2.19059	0.967
2.23149	0.947
2.27238	0.954
2.31328	0.955
2.35418	0.955
2.39507	0.964
2.43597	0.964
2.47687	0.96
2.51777	0.964
2.55866	0.964
2.59956	0.967
2.64046	0.971
2.68136	0.965
2.72225	0.954
2.76315	0.952
2.80405	0.933
2.84494	0.877
2.88584	0.892
2.92674	0.904
2.96764	0.902
3.00853	0.901
3.04943	0.899
3.09033	0.901
3.13122	0.901
3.17212	0.889
3.21302	0.87
3.25392	0.829
3.29481	0.77
3.33571	0.718
3.37661	0.706
3.41751	0.839
3.4584	0.875
3.4993	0.925
3.5402	0.933
3.58109	0.942
3.62199	0.945
3.66289	0.94
3.70379	0.954
3.74468	0.957
3.78558	0.962
3.82648	0.959
3.86737	0.947
3.90827	0.957
3.94917	0.965
3.99007	0.964
4.03096	0.952
4.07186	0.935
4.11276	0.93
4.15366	0.94
4.19455	0.954
4.23545	0.954
4.27635	0.947
4.31724	0.948
4.35814	0.96
4.39904	0.957
4.43994	0.943
4.48083	0.95
4.52173	0.952
4.56263	0.952
4.60352	0.931
4.64442	0.938
4.68532	0.942
4.72622	0.945
4.76711	0.943
4.80801	0.906
4.84891	0.889
4.88981	0.904
4.9307	0.921
4.9716	0.925
5.0125	0.923
5.05339	0.926
5.09429	0.901
5.13519	0.885
5.17609	0.902
5.21698	0.919
5.25788	0.914
5.29878	0.887
5.33967	0.826
5.38057	0.802
5.42147	0.802
5.46237	0.776
5.50326	0.732
5.54416	0.643
5.58506	0.5
5.62596	0.236
5.66685	0.039
5.70775	0.028
5.74865	0.091
5.78954	0.25
5.83044	0.403
5.87134	0.504
5.91224	0.621
5.95313	0.664
5.99403	0.681
6.03493	0.691
6.07582	0.724
6.11672	0.764
6.15762	0.797
6.19852	0.817
6.23941	0.838
6.28031	0.85
6.32121	0.85
6.36211	0.836
6.403	0.809
6.4439	0.802
6.4848	0.773
6.52569	0.768
6.56659	0.759
6.60749	0.741
6.64839	0.744
6.68928	0.71
6.73018	0.7
6.77108	0.625
6.81197	0.534
6.85287	0.362
6.89377	0.301
6.93467	0.262
6.97556	0.347
7.01646	0.459
7.05736	0.521
7.09826	0.519
7.13915	0.405
7.18005	0.241
7.22095	0.124
7.26184	0.158
7.30274	0.223
7.34364	0.201
7.38454	0.33
7.42543	0.567
7.46633	0.652
7.50723	0.686
7.54812	0.703
7.58902	0.701
7.62992	0.681
7.67082	0.645
7.71171	0.575
7.75261	0.465
7.79351	0.337
7.8344	0.204
7.8753	0.165
7.9162	0.149
7.9571	0.11
7.99799	0.073
8.03889	0.051
8.07979	0.039
8.12069	0.032
8.16158	0.028
8.20248	0.028
8.24338	0.054
8.28427	0.134
8.32517	0.228
8.36607	0.325
8.40697	0.425
8.44786	0.482
8.48876	0.48
8.52966	0.381
8.57055	0.245
8.61145	0.175
8.65235	0.183
8.69325	0.275
8.73414	0.425
8.77504	0.56
8.81594	0.635
8.85684	0.666
8.89773	0.686
8.93863	0.698
8.97953	0.7
9.02042	0.695
9.06132	0.674
9.10222	0.66
9.14312	0.642
9.18401	0.614
9.22491	0.599
9.26581	0.572
9.3067	0.541
9.3476	0.511
9.3885	0.459
9.4294	0.393
9.47029	0.321
9.51119	0.25
9.55209	0.201
9.59299	0.141
9.63388	0.085
9.67478	0.061
9.71568	0.059
9.75657	0.071
9.79747	0.131
9.83837	0.206
9.87927	0.291
9.92016	0.359
9.96106	0.415
10.002	0.456
10.0429	0.494
10.0838	0.505
10.1246	0.5
10.1655	0.442
10.2064	0.369
10.2473	0.315
10.2882	0.248
10.3291	0.211
10.37	0.241
10.4109	0.354
10.4518	0.48
10.4927	0.567
10.5336	0.628
10.5745	0.662
10.6154	0.684
10.6563	0.695
10.6972	0.693
10.7381	0.671
10.779	0.63
10.8199	0.574
10.8608	0.517
10.9017	0.485
10.9426	0.485
10.9835	0.521
11.0244	0.577
11.0653	0.616
11.1062	0.659
11.1471	0.686
11.188	0.713
11.2289	0.729
11.2698	0.747
11.3107	0.758
11.3516	0.764
11.3925	0.775
11.4334	0.78
11.4743	0.781
11.5152	0.785
11.5561	0.788
11.5969	0.79
11.6378	0.79
11.6787	0.781
11.7196	0.771
11.7605	0.758
11.8014	0.734
11.8423	0.693
11.8832	0.643
11.9241	0.582
11.965	0.521
12.0059	0.49
12.0468	0.483
12.0877	0.536
12.1286	0.597
12.1695	0.652
12.2104	0.691
12.2513	0.713
12.2922	0.729
12.3331	0.727
12.374	0.717
12.4149	0.701
12.4558	0.698
12.4967	0.703
12.5376	0.729
12.5785	0.759
12.6194	0.792
12.6603	0.804
12.7012	0.816
12.7421	0.824
12.783	0.829
12.8239	0.833
12.8648	0.834
12.9057	0.834
12.9466	0.836
12.9875	0.836
13.0284	0.838
13.0692	0.836
13.1101	0.836
13.151	0.836
13.1919	0.836
13.2328	0.833
13.2737	0.833
13.3146	0.831
13.3555	0.831
13.3964	0.831
13.4373	0.829
13.4782	0.827
13.5191	0.822
13.56	0.819
13.6009	0.817
13.6418	0.814
13.6827	0.812
13.7236	0.809
13.7645	0.805
13.8054	0.8
13.8463	0.797
13.8872	0.793
13.9281	0.79
13.969	0.787
14.0099	0.781
14.0508	0.776
14.0917	0.775
14.1326	0.768
14.1735	0.763
14.2144	0.759
14.2553	0.751
14.2962	0.746
14.3371	0.737
14.378	0.73
14.4189	0.725
14.4598	0.713
14.5007	0.706
14.5415	0.698
14.5824	0.684
14.6233	0.678
14.6642	0.662
14.7051	0.647
14.746	0.63
14.7869	0.616
14.8278	0.604
14.8687	0.591
14.9096	0.577
14.9505	0.567
14.9914	0.563
15.0323	0.563
15.0732	0.565
15.1141	0.562
15.155	0.558
15.1959	0.558
15.2368	0.555
15.2777	0.553
15.3186	0.548
15.3595	0.54
15.4004	0.536
15.4413	0.531
15.4822	0.524
15.5231	0.522
15.564	0.511
15.6049	0.504
15.6458	0.494
15.6867	0.482
15.7276	0.475
15.7685	0.471
15.8094	0.47
15.8503	0.466
15.8912	0.461
15.9321	0.458
15.973	0.459
