Infrared Spectrum: Cyclobutanecarbonitrile,3-methylene-,
Formula: C6 H7 N
CAS: 15760-35-7
State: LIQUID (NEAT)
Class: COBLENTZ III
Instrument: PERKIN-ELMER 21 (GRATING)
Instrument parameters: FILTER AT ABOUT 10 MICRONS
Path length: CAPILLARY
Resolution: 2
Origin: ABBOTT LABORATORIES
1/CM	TRANSMITTANCE
667	0.7036
676	0.7242
685	0.7435
694	0.7535
703	0.7654
712	0.7729
721	0.7807
730	0.7857
739	0.7744
748	0.7671
757	0.7698
766	0.7942
775	0.8198
784	0.828
793	0.8309
802	0.8245
811	0.8187
820	0.7997
829	0.7505
838	0.7543
847	0.7549
856	0.7126
865	0.5638
874	0.2671
883	0.102
892	0.1423
901	0.3439
910	0.5322
919	0.6828
928	0.7412
937	0.7661
946	0.7711
955	0.796
964	0.8189
973	0.818
982	0.8143
991	0.8138
1000	0.7958
1009	0.7914
1018	0.7885
1027	0.769
1036	0.7544
1045	0.7095
1054	0.7376
1063	0.8046
1072	0.8133
1081	0.8136
1090	0.818
1099	0.8144
1108	0.8084
1117	0.7976
1126	0.7794
1135	0.7479
1144	0.6968
1153	0.642
1162	0.7104
1171	0.7039
1180	0.6609
1189	0.715
1198	0.7547
1207	0.7439
1216	0.6988
1225	0.7701
1234	0.7873
1243	0.7831
1252	0.783
1261	0.7875
1270	0.794
1279	0.7969
1288	0.7942
1297	0.7916
1306	0.7658
1315	0.747
1324	0.7753
1333	0.7922
1342	0.7904
1351	0.7842
1360	0.7689
1369	0.7449
1378	0.7118
1387	0.6162
1396	0.4701
1405	0.4459
1414	0.4721
1423	0.586
1432	0.6258
1441	0.6978
1450	0.741
1459	0.775
1468	0.7971
1477	0.8063
1486	0.8092
1495	0.8088
1504	0.8067
1513	0.8044
1522	0.8007
1531	0.8004
1540	0.8052
1549	0.8153
1558	0.8228
1567	0.8242
1576	0.8224
1585	0.819
1594	0.8155
1603	0.8112
1612	0.8063
1621	0.7974
1630	0.7846
1639	0.767
1648	0.7442
1657	0.7077
1666	0.6669
1675	0.4913
1684	0.2918
1693	0.558
1702	0.7708
1711	0.805
1720	0.8151
1729	0.8179
1738	0.8166
1747	0.8137
1756	0.8084
1765	0.7995
1774	0.7931
1783	0.7965
1792	0.8137
1801	0.8272
1810	0.8354
1819	0.8436
1828	0.8504
1837	0.8544
1846	0.8564
1855	0.8579
1864	0.8592
1873	0.8602
1882	0.8612
1891	0.8617
1900	0.8621
1909	0.8615
1918	0.8603
1927	0.8599
1936	0.8603
1945	0.8606
1954	0.8606
1963	0.8599
1972	0.8589
1981	0.8573
1990	0.8558
1999	0.8543
2008	0.8552
2017	0.8567
2026	0.8554
2035	0.8507
2044	0.8473
2053	0.8484
2062	0.8505
2071	0.8524
2080	0.8517
2089	0.8495
2098	0.8463
2107	0.8455
2116	0.848
2125	0.8546
2134	0.856
2143	0.8549
2152	0.8521
2161	0.8476
2170	0.8418
2179	0.8356
2188	0.8254
2197	0.7996
2206	0.7606
2215	0.6066
2224	0.3088
2233	0.332
2242	0.5805
2251	0.8133
2260	0.8365
2269	0.8401
2278	0.8414
2287	0.8417
2296	0.8421
2305	0.8424
2314	0.8421
2323	0.8421
2332	0.8417
2341	0.8412
2350	0.8408
2359	0.8407
2368	0.8411
2377	0.8415
2386	0.8419
2395	0.8434
2404	0.8451
2413	0.8463
2422	0.8471
2431	0.8482
2440	0.8505
2449	0.8526
2458	0.8545
2467	0.8556
2476	0.8567
2485	0.8573
2494	0.8577
2503	0.8575
2512	0.8573
2521	0.8566
2530	0.8548
2539	0.8531
2548	0.8512
2557	0.8495
2566	0.8477
2575	0.8462
2584	0.846
2593	0.8465
2602	0.8477
2611	0.849
2620	0.8505
2629	0.8531
2638	0.8557
2647	0.8572
2656	0.8572
2665	0.8554
2674	0.8525
2683	0.848
2692	0.8441
2701	0.841
2710	0.8388
2719	0.8378
2728	0.837
2737	0.8363
2746	0.8348
2755	0.8331
2764	0.8279
2773	0.8085
2782	0.7908
2791	0.7727
2800	0.7549
2809	0.7423
2818	0.7391
2827	0.7395
2836	0.7397
2845	0.7394
2854	0.7369
2863	0.7271
2872	0.7088
2881	0.6568
2890	0.5849
2899	0.5136
2908	0.4426
2917	0.3971
2926	0.4383
2935	0.499
2944	0.4894
2953	0.4779
2962	0.475
2971	0.5226
2980	0.5726
2989	0.6222
2998	0.6715
3007	0.7205
3016	0.7545
3025	0.7509
3034	0.7364
3043	0.7217
3052	0.707
3061	0.6929
3070	0.6903
3079	0.7164
3088	0.7482
3097	0.7799
3106	0.8109
3115	0.8226
3124	0.8267
3133	0.83
3142	0.8316
3151	0.8319
3160	0.8316
3169	0.8311
3178	0.8294
3187	0.8275
3196	0.8229
3205	0.8173
3214	0.8105
3223	0.803
3232	0.7953
3241	0.7867
3250	0.7803
3259	0.7767
3268	0.7756
3277	0.78
3286	0.791
3295	0.8018
3304	0.8126
3313	0.8231
3322	0.8287
3331	0.8319
3340	0.8343
3349	0.8358
3358	0.8371
3367	0.8385
3376	0.8397
3385	0.8408
3394	0.8419
3403	0.8428
3412	0.8434
3421	0.844
3430	0.8446
3439	0.8444
3448	0.8442
3457	0.8438
3466	0.8435
3475	0.843
3484	0.8423
3493	0.8415
3502	0.8408
3511	0.8409
3520	0.8419
3529	0.843
3538	0.8444
3547	0.8457
3556	0.8472
3565	0.8487
3574	0.8502
3583	0.8517
3592	0.8531
3601	0.8544
3610	0.8558
3619	0.8572
3628	0.8585
3637	0.8596
3646	0.8606
3655	0.8617
3664	0.8627
3673	0.8636
3682	0.8642
3691	0.8647
3700	0.865
3709	0.8655
3718	0.866
3727	0.8662
3736	0.8661
3745	0.866
3754	0.8659
3763	0.8659
3772	0.8657
3781	0.8655
3790	0.8653
3799	0.8651
3808	0.8649
3817	0.8646
3826	0.8645
3835	0.8643
3844	0.8642
3853	0.8641
3862	0.864
3871	0.8638
3880	0.8638
3889	0.8632
3898	0.8623
3907	0.8614
3916	0.8604
3925	0.8591
3934	0.8578
3943	0.8569
3952	0.8559
3961	0.855
3970	0.8541
3979	0.8532
3988	0.8523
3997	0.8515
