Infrared Spectrum: 3,6-DIMETHYL-PHENANTHRENE
Formula: C16 H14
CAS: 1576-67-6
State: SOLUTION (50 g/L IN BENZENE)
Class: COBLENTZ
Instrument: Not specified, most likely a prism, grating, or hybrid spectrometer.
Sampling: TRANSMISSION
Path length: 0.1 CM
Resolution: 4
Origin: CENTRE D'ETUDES NUCLEAIRES DE GRENOBLE
MICROMETERS	TRANSMITTANCE
16	0.682
16.0558	0.689
16.1115	0.697
16.1673	0.71
16.223	0.722
16.2788	0.732
16.3345	0.734
16.3903	0.739
16.446	0.746
16.5018	0.803
16.5575	0.85
16.6133	0.887
16.669	0.895
16.7248	0.939
16.7805	0.989
16.8363	1.005
16.892	1.013
16.9478	1.016
17.0035	1.013
17.0593	1.008
17.115	1.005
17.1708	1.003
17.2265	1
17.2823	0.993
17.338	0.986
17.3938	0.981
17.4495	0.988
17.5053	0.989
17.561	0.981
17.6168	0.978
17.6725	0.976
17.7283	0.973
17.784	0.968
17.8398	0.963
17.8955	0.946
17.9513	0.941
18.007	0.932
18.0628	0.922
18.1185	0.902
18.1743	0.887
18.23	0.873
18.2858	0.853
18.3415	0.825
18.3973	0.805
18.453	0.771
18.5088	0.684
18.5645	0.603
18.6203	0.502
18.676	0.354
18.7318	0.243
18.7875	0.136
18.8433	0.084
18.899	0.052
18.9548	0.057
19.0105	0.176
19.0663	0.253
19.122	0.403
19.1778	0.504
19.2335	0.621
19.2893	0.7
19.345	0.751
19.4008	0.803
19.4565	0.835
19.5123	0.848
19.568	0.877
19.6238	0.887
19.6795	0.902
19.7353	0.909
19.791	0.915
19.8468	0.919
19.9025	0.929
19.9583	0.936
20.014	0.937
20.0698	0.937
20.1255	0.939
20.1813	0.939
20.237	0.942
20.2928	0.936
20.3485	0.931
20.4043	0.926
20.46	0.922
20.5158	0.91
20.5715	0.902
20.6273	0.88
20.683	0.823
20.7388	0.805
20.7945	0.805
20.8503	0.81
20.906	0.828
20.9618	0.857
21.0175	0.877
21.0733	0.885
21.129	0.894
21.1848	0.904
21.2405	0.91
21.2963	0.915
21.352	0.922
21.4078	0.926
21.4635	0.929
21.5193	0.932
21.575	0.936
21.6308	0.937
21.6865	0.941
21.7423	0.942
21.798	0.942
21.8538	0.942
21.9095	0.939
21.9653	0.937
22.021	0.934
22.0768	0.931
22.1325	0.926
22.1883	0.921
22.244	0.909
22.2998	0.899
22.3555	0.894
22.4113	0.885
22.467	0.873
22.5228	0.847
22.5785	0.833
22.6343	0.788
22.69	0.768
22.7458	0.729
22.8015	0.655
22.8573	0.586
22.913	0.512
22.9688	0.433
23.0245	0.327
23.0803	0.273
23.136	0.21
23.1918	0.161
23.2475	0.141
23.3033	0.142
23.359	0.161
23.4148	0.215
23.4705	0.275
23.5263	0.376
23.582	0.426
23.6378	0.505
23.6935	0.583
23.7493	0.625
23.805	0.702
23.8608	0.727
23.9165	0.779
23.9723	0.796
24.028	0.81
24.0838	0.821
24.1395	0.825
24.1953	0.821
24.251	0.81
24.3068	0.806
24.3625	0.81
24.4183	0.82
24.474	0.845
24.5298	0.875
24.5855	0.899
24.6413	0.91
24.697	0.926
24.7528	0.932
24.8085	0.951
24.8643	0.954
24.92	0.963
24.9758	0.969
25.0315	0.969
25.0873	0.969
25.143	0.973
25.1988	0.976
25.2545	0.976
25.3103	0.978
25.366	0.979
25.4218	0.984
25.4775	0.983
25.5333	0.981
25.589	0.979
25.6448	0.979
25.7005	0.981
25.7563	0.983
25.812	0.983
25.8678	0.984
25.9235	0.986
25.9793	0.981
26.035	0.984
26.0908	0.984
26.1465	0.984
26.2023	0.986
26.258	0.986
26.3138	0.991
26.3695	0.996
26.4253	0.994
26.481	0.989
26.5368	0.991
26.5925	0.986
26.6483	0.989
26.704	0.988
26.7598	0.984
26.8155	0.983
26.8713	0.978
26.927	0.974
26.9828	0.976
27.0385	0.981
27.0943	0.986
27.15	0.983
27.2058	0.979
27.2615	0.976
27.3173	0.981
27.373	0.986
27.4288	0.986
27.4845	0.989
27.5403	0.986
27.596	0.981
27.6518	0.984
27.7075	0.988
27.7633	0.981
27.819	0.976
27.8748	0.979
27.9305	0.984
27.9863	0.984
28.042	0.988
28.0978	0.986
28.1535	0.984
28.2093	0.981
28.265	0.986
28.3208	0.988
28.3765	0.984
28.4323	0.988
28.488	0.986
28.5438	0.983
28.5995	0.981
28.6553	0.978
28.711	0.981
28.7668	0.988
28.8225	0.986
28.8783	0.983
28.934	0.979
28.9898	0.979
29.0455	0.983
29.1013	0.986
29.157	0.983
29.2128	0.984
29.2685	0.988
29.3243	0.988
29.38	0.986
29.4358	0.981
29.4915	0.978
29.5473	0.979
29.603	0.981
29.6588	0.983
29.7145	0.979
29.7703	0.976
29.826	0.976
29.8818	0.981
29.9375	0.979
29.9933	0.973
30.049	0.978
30.1048	0.983
30.1605	0.981
30.2163	0.978
30.272	0.976
30.3278	0.976
30.3835	0.979
30.4393	0.981
30.495	0.976
30.5508	0.974
30.6065	0.978
30.6623	0.978
30.718	0.969
30.7738	0.973
30.8295	0.973
30.8853	0.974
30.941	0.971
30.9968	0.973
31.0525	0.973
31.1083	0.973
31.164	0.974
31.2198	0.976
31.2755	0.968
31.3313	0.969
31.387	0.973
31.4428	0.974
31.4985	0.976
31.5543	0.974
31.61	0.973
31.6658	0.973
31.7215	0.976
31.7773	0.976
31.833	0.978
31.8888	0.971
31.9445	0.971
32.0003	0.974
32.056	0.976
32.1118	0.974
32.1675	0.978
32.2233	0.978
32.279	0.974
32.3348	0.978
32.3905	0.981
32.4463	0.984
32.502	0.988
32.5578	0.989
32.6135	0.981
32.6693	0.979
32.725	0.984
32.7808	0.989
32.8365	0.991
32.8923	0.994
32.948	0.993
33.0038	0.986
33.0595	0.983
33.1153	0.978
33.171	0.978
33.2268	0.981
33.2825	0.984
33.3383	0.981
33.394	0.978
33.4498	0.974
33.5055	0.969
33.5613	0.971
33.617	0.973
33.6728	0.973
33.7285	0.969
33.7843	0.964
33.84	0.964
33.8958	0.961
33.9515	0.957
34.0073	0.954
34.063	0.952
34.1188	0.952
34.1745	0.947
34.2303	0.942
34.286	0.927
34.3418	0.926
34.3975	0.922
34.4533	0.91
34.509	0.9
34.5648	0.884
34.6205	0.88
34.6763	0.855
34.732	0.845
34.7878	0.828
34.8435	0.813
34.8993	0.801
34.955	0.8
