Infrared Spectrum: 2,7-DIMETHYL-PHENANTHRENE
Formula: C16 H14
CAS: 1576-69-8
State: SOLUTION (60 g/L IN HEPTANE)
Class: COBLENTZ
Instrument: Not specified, most likely a prism, grating, or hybrid spectrometer.
Sampling: TRANSMISSION
Path length: 0.05 CM
Resolution: 4
Origin: CENTRE D'ETUDES NUCLEAIRES DE GRENOBLE
MICROMETERS	TRANSMITTANCE
14.967	0.824
15.0228	0.837
15.0786	0.845
15.1344	0.847
15.1902	0.849
15.246	0.85
15.3018	0.854
15.3576	0.854
15.4134	0.855
15.4692	0.86
15.525	0.862
15.5808	0.867
15.6366	0.867
15.6924	0.867
15.7482	0.867
15.804	0.867
15.8598	0.867
15.9156	0.867
15.9714	0.867
16.0272	0.871
16.083	0.872
16.1388	0.874
16.1946	0.872
16.2504	0.871
16.3062	0.867
16.362	0.871
16.4178	0.872
16.4736	0.869
16.5295	0.867
16.5853	0.867
16.6411	0.867
16.6969	0.867
16.7527	0.867
16.8085	0.867
16.8643	0.867
16.9201	0.867
16.9759	0.867
17.0317	0.867
17.0875	0.867
17.1433	0.867
17.1991	0.867
17.2549	0.865
17.3107	0.865
17.3665	0.865
17.4223	0.865
17.4781	0.864
17.5339	0.862
17.5897	0.862
17.6455	0.86
17.7013	0.86
17.7571	0.857
17.8129	0.855
17.8687	0.854
17.9245	0.852
17.9803	0.855
18.0361	0.857
18.0919	0.859
18.1477	0.855
18.2035	0.854
18.2593	0.847
18.3151	0.844
18.3709	0.829
18.4267	0.788
18.4825	0.753
18.5383	0.711
18.5941	0.698
18.6499	0.713
18.7057	0.743
18.7615	0.778
18.8173	0.795
18.8731	0.798
18.9289	0.793
18.9847	0.783
19.0405	0.78
19.0963	0.785
19.1521	0.797
19.2079	0.814
19.2637	0.83
19.3195	0.839
19.3753	0.847
19.4311	0.852
19.4869	0.852
19.5428	0.85
19.5986	0.854
19.6544	0.852
19.7102	0.854
19.766	0.855
19.8218	0.855
19.8776	0.849
19.9334	0.837
19.9892	0.822
20.045	0.804
20.1008	0.795
20.1566	0.797
20.2124	0.802
20.2682	0.82
20.324	0.83
20.3798	0.84
20.4356	0.847
20.4914	0.85
20.5472	0.85
20.603	0.85
20.6588	0.847
20.7146	0.847
20.7704	0.844
20.8262	0.835
20.882	0.827
20.9378	0.822
20.9936	0.802
21.0494	0.74
21.1052	0.691
21.161	0.639
21.2168	0.614
21.2726	0.618
21.3284	0.644
21.3842	0.7
21.44	0.747
21.4958	0.77
21.5516	0.793
21.6074	0.8
21.6632	0.814
21.719	0.817
21.7748	0.824
21.8306	0.827
21.8864	0.83
21.9422	0.832
21.998	0.83
22.0538	0.824
22.1096	0.819
22.1654	0.814
22.2212	0.809
22.277	0.804
22.3328	0.795
22.3886	0.783
22.4444	0.758
22.5002	0.737
22.556	0.7
22.6119	0.658
22.6677	0.587
22.7235	0.519
22.7793	0.418
22.8351	0.323
22.8909	0.249
22.9467	0.182
23.0025	0.165
23.0583	0.182
23.1141	0.231
23.1699	0.316
23.2257	0.413
23.2815	0.477
23.3373	0.574
23.3931	0.621
23.4489	0.666
23.5047	0.698
23.5605	0.716
23.6163	0.75
23.6721	0.755
23.7279	0.77
23.7837	0.78
23.8395	0.79
23.8953	0.797
23.9511	0.805
24.0069	0.812
24.0627	0.817
24.1185	0.822
24.1743	0.825
24.2301	0.829
24.2859	0.83
24.3417	0.839
24.3975	0.84
24.4533	0.842
24.5091	0.845
24.5649	0.85
24.6207	0.849
24.6765	0.85
24.7323	0.85
24.7881	0.852
24.8439	0.852
24.8997	0.854
24.9555	0.855
25.0113	0.857
25.0671	0.854
25.1229	0.852
25.1787	0.854
25.2345	0.855
25.2903	0.854
25.3461	0.855
25.4019	0.857
25.4577	0.855
25.5135	0.852
25.5693	0.852
25.6252	0.854
25.681	0.857
25.7368	0.86
25.7926	0.86
25.8484	0.86
25.9042	0.857
25.96	0.857
26.0158	0.854
26.0716	0.855
26.1274	0.855
26.1832	0.855
26.239	0.855
26.2948	0.857
26.3506	0.857
26.4064	0.859
26.4622	0.857
26.518	0.855
26.5738	0.854
26.6296	0.854
26.6854	0.859
26.7412	0.857
26.797	0.859
26.8528	0.864
26.9086	0.862
26.9644	0.862
27.0202	0.865
27.076	0.862
27.1318	0.857
27.1876	0.857
27.2434	0.854
27.2992	0.854
27.355	0.857
27.4108	0.859
27.4666	0.859
27.5224	0.857
27.5782	0.854
27.634	0.854
27.6898	0.855
27.7456	0.854
27.8014	0.854
27.8572	0.854
27.913	0.854
27.9688	0.855
28.0246	0.855
28.0804	0.857
28.1362	0.857
28.192	0.855
28.2478	0.854
28.3036	0.855
28.3594	0.857
28.4152	0.857
28.471	0.855
28.5268	0.859
28.5826	0.857
28.6384	0.857
28.6943	0.857
28.7501	0.857
28.8059	0.859
28.8617	0.857
28.9175	0.859
28.9733	0.857
29.0291	0.855
29.0849	0.859
29.1407	0.855
29.1965	0.855
29.2523	0.857
29.3081	0.857
29.3639	0.859
29.4197	0.859
29.4755	0.859
29.5313	0.857
29.5871	0.855
29.6429	0.855
29.6987	0.854
29.7545	0.855
29.8103	0.859
29.8661	0.854
29.9219	0.854
29.9777	0.857
30.0335	0.859
30.0893	0.859
30.1451	0.86
30.2009	0.86
30.2567	0.86
30.3125	0.86
30.3683	0.857
30.4241	0.859
30.4799	0.86
30.5357	0.86
30.5915	0.86
30.6473	0.86
30.7031	0.86
30.7589	0.862
30.8147	0.862
30.8705	0.859
30.9263	0.859
30.9821	0.862
31.0379	0.86
31.0937	0.857
31.1495	0.86
31.2053	0.857
31.2611	0.859
31.3169	0.859
31.3727	0.855
31.4285	0.855
31.4843	0.857
31.5401	0.857
31.5959	0.859
31.6517	0.855
31.7076	0.857
31.7634	0.854
31.8192	0.855
31.875	0.854
31.9308	0.852
31.9866	0.852
32.0424	0.854
32.0982	0.854
32.154	0.855
32.2098	0.854
32.2656	0.857
32.3214	0.855
32.3772	0.855
32.433	0.855
32.4888	0.859
32.5446	0.855
32.6004	0.855
32.6562	0.854
32.712	0.854
32.7678	0.852
32.8236	0.854
32.8794	0.852
32.9352	0.854
32.991	0.852
33.0468	0.852
33.1026	0.849
33.1584	0.852
33.2142	0.859
33.27	0.862
33.3258	0.86
33.3816	0.86
33.4374	0.862
33.4932	0.859
33.549	0.855
33.6048	0.855
33.6606	0.854
33.7164	0.857
33.7722	0.857
33.828	0.855
33.8838	0.857
33.9396	0.855
33.9954	0.859
34.0512	0.857
34.107	0.854
34.1628	0.859
34.2186	0.857
34.2744	0.857
34.3302	0.849
34.386	0.849
34.4418	0.85
34.4976	0.845
34.5534	0.847
34.6092	0.847
34.665	0.842
34.7208	0.847
34.7767	0.84
34.8325	0.835
34.8883	0.84
34.9441	0.842
34.9999	0.84
