Infrared Spectrum: P-ETHYL BROMO BENZENE
Formula: C8 H9 Br
CAS: 1585-07-5
State: SOLUTION (10% CCl4 FOR 2.5-7.5, 10% CS2 FOR 7.5-16 MICRON)
Class: COBLENTZ
Instrument: Not specified, most likely a prism, grating, or hybrid spectrometer.
Sampling: TRANSMISSION
Path length: 0.01 CM, 0.01 CM
Resolution: 4
Origin: DOW CHEMICAL COMPANY
MICROMETERS	TRANSMITTANCE
2.029	0.871
2.06811	0.873
2.10722	0.873
2.14633	0.871
2.18544	0.878
2.22455	0.873
2.26366	0.873
2.30277	0.873
2.34188	0.875
2.38099	0.878
2.4201	0.871
2.45921	0.88
2.49832	0.891
2.53743	0.891
2.57654	0.889
2.61565	0.886
2.65476	0.894
2.69387	0.886
2.73298	0.884
2.77209	0.867
2.8112	0.85
2.85031	0.852
2.88942	0.852
2.92853	0.849
2.96764	0.849
3.00675	0.85
3.04586	0.854
3.08497	0.855
3.12408	0.858
3.16319	0.862
3.2023	0.85
3.24141	0.803
3.28052	0.75
3.31963	0.719
3.35874	0.439
3.39785	0.521
3.43695	0.653
3.47606	0.677
3.51517	0.839
3.55428	0.871
3.59339	0.884
3.6325	0.891
3.67161	0.899
3.71072	0.905
3.74983	0.905
3.78894	0.914
3.82805	0.92
3.86716	0.923
3.90627	0.925
3.94538	0.925
3.98449	0.928
4.0236	0.93
4.06271	0.931
4.10182	0.933
4.14093	0.931
4.18004	0.927
4.21915	0.923
4.25826	0.923
4.29737	0.917
4.33648	0.915
4.37559	0.925
4.4147	0.931
4.45381	0.938
4.49292	0.941
4.53203	0.943
4.57114	0.943
4.61025	0.944
4.64936	0.944
4.68847	0.944
4.72758	0.944
4.76669	0.944
4.8058	0.943
4.84491	0.941
4.88402	0.94
4.92313	0.936
4.96224	0.933
5.00135	0.936
5.04046	0.941
5.07957	0.941
5.11868	0.941
5.15779	0.943
5.1969	0.936
5.23601	0.891
5.27512	0.841
5.31423	0.93
5.35334	0.936
5.39245	0.936
5.43156	0.94
5.47067	0.936
5.50978	0.938
5.54889	0.935
5.588	0.915
5.62711	0.904
5.66622	0.927
5.70533	0.93
5.74444	0.93
5.78355	0.935
5.82266	0.928
5.86177	0.915
5.90088	0.901
5.93999	0.894
5.9791	0.884
6.01821	0.857
6.05732	0.824
6.09643	0.865
6.13554	0.855
6.17465	0.81
6.21375	0.717
6.25286	0.612
6.29197	0.602
6.33108	0.576
6.37019	0.529
6.4093	0.476
6.44841	0.465
6.48752	0.557
6.52663	0.609
6.56574	0.651
6.60485	0.672
6.64396	0.562
6.68307	0.346
6.72218	0.387
6.76129	0.672
6.8004	0.598
6.83951	0.596
6.87862	0.701
6.91773	0.773
6.95684	0.823
6.99595	0.815
7.03506	0.734
7.07417	0.648
7.11328	0.685
7.15239	0.811
7.1915	0.829
7.23061	0.81
7.26972	0.86
7.30883	0.88
7.34794	0.886
7.38705	0.873
7.42616	0.857
7.46527	0.839
7.50438	0.836
7.54349	0.857
7.5826	0.871
7.62171	0.876
7.66082	0.88
7.69993	0.886
7.73904	0.914
7.77815	0.923
7.81726	0.925
7.85637	0.923
7.89548	0.925
7.93459	0.931
7.9737	0.933
8.01281	0.93
8.05192	0.922
8.09103	0.901
8.13014	0.896
8.16925	0.928
8.20836	0.918
8.24747	0.891
8.28658	0.883
8.32569	0.889
8.3648	0.884
8.40391	0.88
8.44302	0.865
8.48213	0.883
8.52124	0.92
8.56035	0.93
8.59946	0.935
8.63857	0.941
8.67768	0.943
8.71679	0.943
8.7559	0.94
8.79501	0.935
8.83412	0.925
8.87323	0.915
8.91234	0.863
8.95145	0.831
8.99055	0.821
9.02966	0.849
9.06877	0.878
9.10788	0.886
9.14699	0.883
9.1861	0.867
9.22521	0.797
9.26432	0.641
9.30343	0.322
9.34254	0.523
9.38165	0.748
9.42076	0.779
9.45987	0.811
9.49898	0.816
9.53809	0.841
9.5772	0.88
9.61631	0.888
9.65542	0.901
9.69453	0.901
9.73364	0.893
9.77275	0.863
9.81186	0.737
9.85097	0.44
9.89008	0.322
9.92919	0.813
9.9683	0.842
10.0074	0.896
10.0465	0.92
10.0856	0.927
10.1247	0.933
10.1639	0.923
10.203	0.917
10.2421	0.893
10.2812	0.873
10.3203	0.862
10.3594	0.87
10.3985	0.902
10.4376	0.927
10.4767	0.933
10.5158	0.943
10.5549	0.944
10.5941	0.943
10.6332	0.938
10.6723	0.936
10.7114	0.943
10.7505	0.94
10.7896	0.943
10.8287	0.94
10.8678	0.935
10.9069	0.931
10.946	0.928
10.9852	0.923
11.0243	0.917
11.0634	0.914
11.1025	0.901
11.1416	0.893
11.1807	0.881
11.2198	0.868
11.2589	0.855
11.298	0.834
11.3371	0.821
11.3763	0.803
11.4154	0.786
11.4545	0.774
11.4936	0.761
11.5327	0.748
11.5718	0.734
11.6109	0.721
11.65	0.711
11.6891	0.703
11.7282	0.711
11.7674	0.722
11.8065	0.737
11.8456	0.742
11.8847	0.73
11.9238	0.716
11.9629	0.67
12.002	0.602
12.0411	0.473
12.0802	0.348
12.1193	0.179
12.1585	0.09
12.1976	0.089
12.2367	0.277
12.2758	0.403
12.3149	0.534
12.354	0.615
12.3931	0.672
12.4322	0.705
12.4713	0.726
12.5104	0.743
12.5496	0.748
12.5887	0.752
12.6278	0.75
12.6669	0.743
12.706	0.74
12.7451	0.742
12.7842	0.73
12.8233	0.706
12.8624	0.633
12.9015	0.546
12.9407	0.551
12.9798	0.635
13.0189	0.696
13.058	0.732
13.0971	0.756
13.1362	0.769
13.1753	0.784
13.2144	0.79
13.2535	0.802
13.2926	0.805
13.3317	0.811
13.3709	0.81
13.41	0.815
13.4491	0.816
13.4882	0.82
13.5273	0.818
13.5664	0.815
13.6055	0.813
13.6446	0.81
13.6837	0.803
13.7228	0.799
13.762	0.792
13.8011	0.786
13.8402	0.781
13.8793	0.771
13.9184	0.763
13.9575	0.756
13.9966	0.748
14.0357	0.74
14.0748	0.734
14.1139	0.73
14.1531	0.732
14.1922	0.735
14.2313	0.737
14.2704	0.739
14.3095	0.734
14.3486	0.734
14.3877	0.729
14.4268	0.724
14.4659	0.719
14.505	0.716
14.5442	0.711
14.5833	0.701
14.6224	0.698
14.6615	0.692
14.7006	0.68
14.7397	0.674
14.7788	0.664
14.8179	0.656
14.857	0.645
14.8961	0.635
14.9353	0.625
14.9744	0.622
15.0135	0.615
15.0526	0.602
15.0917	0.593
15.1308	0.581
15.1699	0.562
15.209	0.552
15.2481	0.544
15.2872	0.538
15.3264	0.533
15.3655	0.525
15.4046	0.521
15.4437	0.518
15.4828	0.512
15.5219	0.504
15.561	0.499
15.6001	0.492
15.6392	0.484
15.6783	0.481
15.7175	0.476
15.7566	0.468
15.7957	0.463
15.8348	0.458
15.8739	0.457
15.913	0.461
