Infrared Spectrum: BENZOTHIAZOLE, 2-AMINO-6-BROMO-
Formula: C7 H5 Br N2 S
CAS: 15864-32-1
State: SOLID (KBr DISC)
Class: COBLENTZ II
Instrument: BECKMAN IR-9 (GRATING)
Instrument parameters: ORDER CHANGES: 670, 1200, 2000 CM^-^1
Sampling: TRANSMISSION
Resolution: 2
Origin: DOW CHEMICAL COMPANY
1/CM	TRANSMITTANCE
405	0.6674
414	0.6815
423	0.6928
432	0.6989
441	0.6919
450	0.7003
459	0.7382
468	0.7404
477	0.7511
486	0.7761
495	0.793
504	0.8093
513	0.8126
522	0.7762
531	0.7941
540	0.5475
549	0.751
558	0.8525
567	0.8515
576	0.8355
585	0.8038
594	0.7365
603	0.7075
612	0.7628
621	0.8225
630	0.8125
639	0.7693
648	0.7332
657	0.7312
666	0.7751
675	0.7508
684	0.6306
693	0.6329
702	0.6327
711	0.6828
720	0.7072
729	0.7206
738	0.7206
747	0.4131
756	0.6876
765	0.7624
774	0.7849
783	0.8032
792	0.8135
801	0.7782
810	0.3029
819	0.6578
828	0.8128
837	0.8839
846	0.8668
855	0.7875
864	0.5456
873	0.836
882	0.8437
891	0.6767
900	0.9049
909	0.9094
918	0.9018
927	0.8912
936	0.8848
945	0.8732
954	0.8808
963	0.8812
972	0.8732
981	0.8646
990	0.856
999	0.8462
1008	0.837
1017	0.8264
1026	0.8186
1035	0.8108
1044	0.7908
1053	0.7288
1062	0.7786
1071	0.7683
1080	0.7305
1089	0.6795
1098	0.7211
1107	0.5676
1116	0.6797
1125	0.7458
1134	0.7603
1143	0.7196
1152	0.7708
1161	0.7865
1170	0.7901
1179	0.788
1188	0.7851
1197	0.7817
1206	0.7596
1215	0.7349
1224	0.7197
1233	0.7099
1242	0.6961
1251	0.6758
1260	0.6603
1269	0.4774
1278	0.3472
1287	0.4667
1296	0.4821
1305	0.3466
1314	0.4394
1323	0.529
1332	0.4954
1341	0.5522
1350	0.615
1359	0.5574
1368	0.6321
1377	0.7014
1386	0.6771
1395	0.689
1404	0.6639
1413	0.5444
1422	0.4787
1431	0.4435
1440	0.1879
1449	0.0277
1458	0.7226
1467	0.8169
1476	0.8145
1485	0.7468
1494	0.7033
1503	0.6786
1512	0.4694
1521	0.2129
1530	0.0156
1539	0.158
1548	0.5424
1557	0.7269
1566	0.8015
1575	0.7751
1584	0.6854
1593	0.6319
1602	0.6014
1611	0.3612
1620	0.2158
1629	0.0741
1638	0.0668
1647	0.699
1656	0.7958
1665	0.835
1674	0.8611
1683	0.8751
1692	0.8813
1701	0.8812
1710	0.8756
1719	0.8633
1728	0.8557
1737	0.8581
1746	0.8525
1755	0.8488
1764	0.8485
1773	0.8481
1782	0.848
1791	0.8445
1800	0.8377
1809	0.8311
1818	0.8281
1827	0.8299
1836	0.8284
1845	0.8243
1854	0.8193
1863	0.8135
1872	0.7924
1881	0.7847
1890	0.8001
1899	0.8047
1908	0.8047
1917	0.8032
1926	0.8005
1935	0.7971
1944	0.7921
1953	0.79
1962	0.7865
1971	0.7836
1980	0.7804
1989	0.7771
1998	0.7764
2007	0.7751
2016	0.7731
2025	0.7708
2034	0.7665
2043	0.7621
2052	0.7584
2061	0.7546
2070	0.7488
2079	0.7438
2088	0.745
2097	0.7458
2106	0.7458
2115	0.7448
2124	0.7438
2133	0.7424
2142	0.7405
2151	0.7383
2160	0.7347
2169	0.7308
2178	0.7285
2187	0.7265
2196	0.7238
2205	0.7206
2214	0.7178
2223	0.7151
2232	0.7132
2241	0.7117
2250	0.7101
2259	0.7078
2268	0.7056
2277	0.7031
2286	0.7006
2295	0.6987
2304	0.6971
2313	0.6958
2322	0.6946
2331	0.6933
2340	0.6921
2349	0.691
2358	0.69
2367	0.689
2376	0.6881
2385	0.6848
2394	0.6801
2403	0.6768
2412	0.6743
2421	0.6721
2430	0.6701
2439	0.6676
2448	0.6651
2457	0.6621
2466	0.6591
2475	0.6561
2484	0.6537
2493	0.6511
2502	0.6484
2511	0.6455
2520	0.6425
2529	0.6398
2538	0.6378
2547	0.6359
2556	0.6344
2565	0.6299
2574	0.6248
2583	0.6191
2592	0.6126
2601	0.6099
2610	0.6086
2619	0.6055
2628	0.6031
2637	0.6009
2646	0.6
2655	0.597
2664	0.5934
2673	0.588
2682	0.5808
2691	0.573
2700	0.5635
2709	0.5529
2718	0.541
2727	0.5243
2736	0.5215
2745	0.5289
2754	0.5434
2763	0.5534
2772	0.5567
2781	0.5565
2790	0.5519
2799	0.545
2808	0.5382
2817	0.5307
2826	0.5222
2835	0.5125
2844	0.5024
2853	0.4948
2862	0.4891
2871	0.486
2880	0.4793
2889	0.466
2898	0.4512
2907	0.4383
2916	0.426
2925	0.4141
2934	0.4022
2943	0.3966
2952	0.3954
2961	0.3943
2970	0.3936
2979	0.3932
2988	0.3934
2997	0.3902
3006	0.3799
3015	0.3664
3024	0.3518
3033	0.3348
3042	0.3149
3051	0.2946
3060	0.2683
3069	0.2501
3078	0.2382
3087	0.229
3096	0.2226
3105	0.2229
3114	0.2259
3123	0.2318
3132	0.2488
3141	0.2732
3150	0.3076
3159	0.3484
3168	0.3736
3177	0.3871
3186	0.4029
3195	0.4206
3204	0.4431
3213	0.4569
3222	0.4597
3231	0.4625
3240	0.471
3249	0.4729
3258	0.4346
3267	0.3945
3276	0.355
3285	0.3541
3294	0.3849
3303	0.4379
3312	0.4692
3321	0.4867
3330	0.4976
3339	0.5035
3348	0.5041
3357	0.5008
3366	0.4936
3375	0.4835
3384	0.4726
3393	0.4618
3402	0.4465
3411	0.4284
3420	0.4036
3429	0.3605
3438	0.2723
3447	0.1784
3456	0.1151
3465	0.3826
3474	0.4464
3483	0.4814
3492	0.5031
3501	0.5115
3510	0.5159
3519	0.5192
3528	0.5224
3537	0.524
3546	0.5245
3555	0.5248
3564	0.5259
3573	0.5273
3582	0.5304
3591	0.5336
3600	0.5358
3609	0.537
3618	0.5382
3627	0.5391
3636	0.5403
3645	0.5416
3654	0.5434
3663	0.5446
3672	0.5455
3681	0.5448
3690	0.5439
3699	0.543
3708	0.5421
3717	0.5409
3726	0.5396
3735	0.538
3744	0.536
3753	0.5335
3762	0.5312
3771	0.5288
3780	0.526
3789	0.5233
3798	0.5205
