Infrared Spectrum: Tripropyl citrate
Formula: C15 H26 O7
CAS: 1587-21-9
State: SOLUTION (10% CCl4 FOR 2.7-7.5, 10% CS2 FOR 7.5-26 MICRON) VS SOLVENT
Class: COBLENTZ III
Instrument: DOW KBr FOREPRISM-GRATING
Instrument parameters: BLAZED AT 3.5, 12.0, 20.0 MICRON AND CHANGED AT 5.0, 7.5, 14.9 MICRON
Sampling: TRANSMISSION
Path length: 0.011 CM, 0.011 CM
Resolution: 2
Origin: DOW CHEMICAL COMPANY
1/CM	TRANSMITTANCE
3784	0.8795
3775	0.8806
3766	0.8817
3757	0.882
3748	0.8823
3739	0.8825
3730	0.883
3721	0.8833
3712	0.8827
3703	0.8818
3694	0.8809
3685	0.8782
3676	0.8735
3667	0.8704
3658	0.8695
3649	0.8681
3640	0.8659
3631	0.8561
3622	0.8473
3613	0.8447
3604	0.8413
3595	0.8318
3586	0.8033
3577	0.7435
3568	0.7317
3559	0.7221
3550	0.704
3541	0.6768
3532	0.5818
3523	0.5644
3514	0.5549
3505	0.552
3496	0.561
3487	0.5771
3478	0.5936
3469	0.609
3460	0.623
3451	0.6369
3442	0.6506
3433	0.6644
3424	0.679
3415	0.6935
3406	0.7061
3397	0.7186
3388	0.7297
3379	0.7406
3370	0.7491
3361	0.7571
3352	0.7624
3343	0.7669
3334	0.7712
3325	0.7749
3316	0.7774
3307	0.7798
3298	0.7817
3289	0.7832
3280	0.7837
3271	0.7841
3262	0.7846
3253	0.785
3244	0.7846
3235	0.7841
3226	0.7836
3217	0.7831
3208	0.7825
3199	0.7819
3190	0.7815
3181	0.7812
3172	0.7819
3163	0.7828
3154	0.7842
3145	0.7851
3136	0.7849
3127	0.7841
3118	0.7833
3109	0.7825
3100	0.7818
3091	0.7811
3082	0.7804
3073	0.779
3064	0.7775
3055	0.7741
3046	0.7697
3037	0.7626
3028	0.7501
3019	0.7221
3010	0.6548
3001	0.5365
2992	0.3493
2983	0.1621
2974	0.0664
2965	0.0839
2956	0.1696
2947	0.2502
2938	0.2121
2929	0.2935
2920	0.3993
2911	0.4635
2902	0.4332
2893	0.4114
2884	0.2697
2875	0.4339
2866	0.5982
2857	0.6028
2848	0.6683
2839	0.7107
2830	0.7391
2821	0.7584
2812	0.7754
2803	0.789
2794	0.8003
2785	0.8075
2776	0.8117
2767	0.8131
2758	0.8134
2749	0.8124
2740	0.8111
2731	0.8104
2722	0.8138
2713	0.8221
2704	0.8288
2695	0.8324
2686	0.8342
2677	0.8324
2668	0.8308
2659	0.8315
2650	0.8336
2641	0.8347
2632	0.8356
2623	0.8362
2614	0.8358
2605	0.8354
2596	0.8351
2587	0.8361
2578	0.8377
2569	0.8392
2560	0.8406
2551	0.8418
2542	0.8441
2533	0.847
2524	0.85
2515	0.8527
2506	0.8551
2497	0.8555
2488	0.8573
2479	0.8602
2470	0.8633
2461	0.8637
2452	0.8641
2443	0.8645
2434	0.865
2425	0.8654
2416	0.8659
2407	0.8662
2398	0.8667
2389	0.8671
2380	0.8674
2371	0.8677
2362	0.8681
2353	0.8686
2344	0.8692
2335	0.8697
2326	0.8703
2317	0.871
2308	0.8718
2299	0.8728
2290	0.8741
2281	0.876
2272	0.8778
2263	0.8798
2254	0.8818
2245	0.8839
2236	0.8856
2227	0.887
2218	0.8884
2209	0.8893
2200	0.8901
2191	0.8901
2182	0.8949
2173	0.8968
2164	0.8903
2155	0.8868
2146	0.8849
2137	0.8834
2128	0.8824
2119	0.8825
2110	0.8828
2101	0.8828
2092	0.8828
2083	0.883
2074	0.8831
2065	0.8832
2056	0.8835
2047	0.8836
2038	0.8835
2029	0.8835
2020	0.8834
2011	0.8834
2002	0.8833
1993	0.8828
1984	0.8778
1975	0.8789
1966	0.8794
1957	0.878
1948	0.8766
1939	0.8753
1930	0.8735
1921	0.8715
1912	0.8699
1903	0.8698
1894	0.8702
1885	0.8666
1876	0.8624
1867	0.8604
1858	0.8581
1849	0.8537
1840	0.8481
1831	0.8407
1822	0.8296
1813	0.8149
1804	0.7958
1795	0.7703
1786	0.7286
1777	0.6035
1768	0.4433
1759	0.1201
1750	0.0279
1741	0.0059
1732	0.0033
1723	0.01
1714	0.0819
1705	0.2032
1696	0.3962
1687	0.5105
1678	0.6399
1669	0.7022
1660	0.7412
1651	0.7672
1642	0.7845
1633	0.7974
1624	0.8053
1615	0.8132
1606	0.8217
1597	0.8292
1588	0.8365
1579	0.8409
1570	0.8428
1561	0.8441
1552	0.8486
1543	0.8524
1534	0.8513
1525	0.8433
1516	0.8312
1507	0.8225
1498	0.8084
1489	0.7705
1480	0.6026
1471	0.3001
1462	0.3043
1453	0.4498
1444	0.5289
1435	0.4579
1426	0.4312
1417	0.3749
1408	0.3138
1399	0.2772
1390	0.2803
1381	0.2583
1372	0.3727
1363	0.3382
1354	0.1799
1345	0.2278
1336	0.184
1327	0.1959
1318	0.2093
1309	0.2061
1300	0.2347
1291	0.199
1282	0.1873
1273	0.1928
1264	0.1818
1255	0.1679
1246	0.1558
1237	0.1346
1228	0.0959
1219	0.0642
1210	0.0361
1201	0.0205
1192	0.0099
1183	0.0067
1174	0.0104
1165	0.0378
1156	0.1027
1147	0.1979
1138	0.2476
1129	0.2437
1120	0.2507
1111	0.2429
1102	0.2645
1093	0.3044
1084	0.3399
1075	0.33
1066	0.3325
1057	0.2045
1048	0.2999
1039	0.4146
1030	0.5033
1021	0.6254
1012	0.659
1003	0.5332
994	0.3982
985	0.4366
976	0.3373
967	0.2962
958	0.4129
949	0.5705
940	0.4952
931	0.5097
922	0.5543
913	0.5103
904	0.4999
895	0.5525
886	0.5866
877	0.6457
868	0.6739
859	0.6951
850	0.7424
841	0.7611
832	0.7587
823	0.7587
814	0.7264
805	0.7184
796	0.7335
787	0.7394
778	0.7391
769	0.7425
760	0.7349
751	0.7231
742	0.7451
733	0.7751
724	0.7783
715	0.7833
706	0.7825
697	0.7889
688	0.7974
679	0.8024
670	0.8015
661	0.7865
652	0.7607
643	0.7419
634	0.7368
625	0.728
616	0.6937
607	0.6555
598	0.6449
589	0.6417
580	0.6428
571	0.6465
562	0.6546
553	0.6621
544	0.6687
535	0.6736
526	0.6775
517	0.6808
508	0.6839
499	0.6861
490	0.6865
481	0.6825
472	0.6804
463	0.6791
454	0.678
445	0.6754
436	0.6743
427	0.6742
418	0.6747
409	0.6761
400	0.6762
391	0.6767
