Infrared Spectrum: PULEGONE
Formula: C10 H16 O
CAS: 15932-80-6
State: LIQUID (SMEAR)
Class: COBLENTZ
Instrument: Not specified, most likely a prism, grating, or hybrid spectrometer.
Sampling: TRANSMISSION
Resolution: 4
Origin: BATTELLE MEMORIAL INSTITUTE
MICROMETERS	TRANSMITTANCE
2.042	0.957
2.07871	0.958
2.11542	0.958
2.15213	0.958
2.18884	0.959
2.22555	0.959
2.26226	0.959
2.29897	0.959
2.33568	0.957
2.37239	0.955
2.4091	0.955
2.44581	0.955
2.48252	0.957
2.51923	0.957
2.55594	0.957
2.59265	0.958
2.62936	0.958
2.66607	0.958
2.70278	0.958
2.73949	0.959
2.7762	0.959
2.81291	0.955
2.84962	0.948
2.88633	0.948
2.92304	0.948
2.95975	0.948
2.99646	0.949
3.03317	0.95
3.06988	0.953
3.10659	0.953
3.1433	0.954
3.18001	0.954
3.21672	0.954
3.25343	0.95
3.29014	0.933
3.32685	0.877
3.36356	0.709
3.40027	0.563
3.43698	0.547
3.47369	0.662
3.5104	0.658
3.54711	0.852
3.58382	0.909
3.62053	0.933
3.65724	0.939
3.69395	0.941
3.73066	0.948
3.76737	0.95
3.80408	0.95
3.84079	0.954
3.8775	0.954
3.91421	0.955
3.95092	0.955
3.98763	0.958
4.02434	0.958
4.06105	0.958
4.09776	0.958
4.13447	0.958
4.17118	0.959
4.20789	0.959
4.2446	0.959
4.28131	0.959
4.31802	0.959
4.35473	0.959
4.39144	0.959
4.42815	0.959
4.46486	0.959
4.50157	0.959
4.53828	0.959
4.57499	0.959
4.6117	0.959
4.64841	0.959
4.68512	0.959
4.72183	0.959
4.75854	0.959
4.79525	0.959
4.83196	0.959
4.86867	0.959
4.90538	0.959
4.94209	0.959
4.9788	0.958
5.01551	0.958
5.05222	0.955
5.08893	0.955
5.12564	0.957
5.16235	0.957
5.19906	0.954
5.23577	0.954
5.27248	0.954
5.30919	0.954
5.3459	0.954
5.38261	0.953
5.41932	0.954
5.45603	0.953
5.49274	0.954
5.52945	0.953
5.56616	0.95
5.60287	0.947
5.63958	0.944
5.67629	0.937
5.713	0.927
5.74971	0.914
5.78642	0.872
5.82313	0.715
5.85984	0.716
5.89655	0.581
5.93326	0.45
5.96997	0.55
6.00668	0.757
6.04339	0.795
6.0801	0.812
6.11681	0.763
6.15352	0.734
6.19023	0.716
6.22694	0.716
6.26365	0.733
6.30036	0.765
6.33707	0.813
6.37378	0.851
6.41049	0.868
6.4472	0.887
6.48391	0.892
6.52062	0.903
6.55733	0.907
6.59404	0.907
6.63075	0.907
6.66746	0.906
6.70417	0.906
6.74088	0.895
6.77759	0.871
6.8143	0.809
6.85101	0.732
6.88772	0.685
6.92443	0.687
6.96114	0.706
6.99785	0.766
7.03456	0.787
7.07127	0.79
7.10798	0.826
7.14469	0.85
7.1814	0.856
7.21811	0.824
7.25482	0.753
7.29153	0.727
7.32824	0.752
7.36495	0.825
7.40166	0.861
7.43837	0.871
7.47508	0.853
7.51179	0.85
7.5485	0.868
7.58521	0.878
7.62192	0.879
7.65863	0.879
7.69534	0.869
7.73205	0.812
7.76876	0.633
7.80547	0.629
7.84218	0.774
7.87889	0.8
7.9156	0.857
7.95231	0.874
7.98902	0.874
8.02573	0.873
8.06244	0.876
8.09915	0.874
8.13586	0.856
8.17257	0.849
8.20928	0.822
8.24599	0.692
8.2827	0.634
8.31941	0.749
8.35612	0.817
8.39283	0.856
8.42954	0.879
8.46625	0.892
8.50296	0.899
8.53967	0.903
8.57638	0.906
8.61309	0.906
8.6498	0.905
8.68651	0.895
8.72322	0.871
8.75993	0.838
8.79664	0.812
8.83335	0.785
8.87006	0.776
8.90677	0.808
8.94348	0.844
8.98019	0.863
9.0169	0.872
9.05361	0.871
9.09032	0.857
9.12703	0.823
9.16374	0.838
9.20045	0.861
9.23716	0.866
9.27387	0.866
9.31058	0.872
9.34729	0.878
9.384	0.887
9.42071	0.893
9.45742	0.901
9.49413	0.907
9.53084	0.909
9.56755	0.909
9.60426	0.906
9.64097	0.893
9.67768	0.861
9.71439	0.835
9.7511	0.834
9.78781	0.858
9.82452	0.874
9.86123	0.878
9.89794	0.883
9.93465	0.896
9.97136	0.906
10.0081	0.916
10.0448	0.916
10.0815	0.919
10.1182	0.922
10.1549	0.926
10.1916	0.927
10.2283	0.928
10.265	0.93
10.3017	0.93
10.3385	0.93
10.3752	0.93
10.4119	0.93
10.4486	0.93
10.4853	0.93
10.522	0.927
10.5587	0.926
10.5954	0.925
10.6321	0.919
10.6688	0.905
10.7056	0.899
10.7423	0.901
10.779	0.915
10.8157	0.922
10.8524	0.926
10.8891	0.926
10.9258	0.927
10.9625	0.927
10.9992	0.927
11.0359	0.927
11.0727	0.928
11.1094	0.928
11.1461	0.928
11.1828	0.928
11.2195	0.928
11.2562	0.926
11.2929	0.922
11.3296	0.92
11.3663	0.912
11.403	0.895
11.4398	0.893
11.4765	0.894
11.5132	0.914
11.5499	0.919
11.5866	0.923
11.6233	0.927
11.66	0.93
11.6967	0.933
11.7334	0.938
11.7701	0.939
11.8069	0.942
11.8436	0.943
11.8803	0.944
11.917	0.944
11.9537	0.944
11.9904	0.944
12.0271	0.944
12.0638	0.944
12.1005	0.944
12.1372	0.944
12.174	0.944
12.2107	0.944
12.2474	0.944
12.2841	0.944
12.3208	0.944
12.3575	0.944
12.3942	0.944
12.4309	0.944
12.4676	0.944
12.5043	0.944
12.5411	0.944
12.5778	0.944
12.6145	0.944
12.6512	0.944
12.6879	0.943
12.7246	0.942
12.7613	0.942
12.798	0.941
12.8347	0.941
12.8714	0.941
12.9082	0.941
12.9449	0.941
12.9816	0.942
13.0183	0.943
13.055	0.942
13.0917	0.942
13.1284	0.942
13.1651	0.941
13.2018	0.939
13.2385	0.937
13.2753	0.936
13.312	0.936
13.3487	0.936
13.3854	0.936
13.4221	0.936
13.4588	0.933
13.4955	0.932
13.5322	0.93
13.5689	0.93
13.6056	0.931
13.6424	0.93
13.6791	0.928
13.7158	0.926
13.7525	0.925
13.7892	0.925
13.8259	0.923
13.8626	0.922
13.8993	0.922
13.936	0.921
13.9727	0.919
14.0095	0.916
14.0462	0.914
14.0829	0.91
14.1196	0.907
14.1563	0.905
14.193	0.904
14.2297	0.9
14.2664	0.895
14.3031	0.895
14.3398	0.894
14.3766	0.889
14.4133	0.887
14.45	0.883
14.4867	0.88
14.5234	0.877
14.5601	0.873
14.5968	0.868
14.6335	0.863
14.6702	0.86
14.7069	0.855
14.7437	0.853
14.7804	0.851
14.8171	0.847
14.8538	0.846
14.8905	0.844
14.9272	0.844
14.9639	0.844
15.0006	0.844
15.0373	0.838
15.074	0.833
15.1108	0.83
15.1475	0.829
15.1842	0.828
15.2209	0.826
15.2576	0.823
15.2943	0.819
15.331	0.813
15.3677	0.806
