Infrared Spectrum: 2-AMINO-3-METHYL PYRIDINE
Formula: C6 H8 N2
CAS: 1603-40-3
State: LIQUID
Class: COBLENTZ
Instrument: Not specified, most likely a prism, grating, or hybrid spectrometer.
Sampling: TRANSMISSION
Path length: 0.0015 CM
Resolution: 4
Origin: WYANDOTTE CHEMICALS CORP., WYANDOTTE, MICHIGAN, USA
MICROMETERS	TRANSMITTANCE
2.034	0.777
2.07484	0.78
2.11567	0.795
2.15651	0.802
2.19734	0.811
2.23818	0.814
2.27901	0.819
2.31985	0.819
2.36068	0.821
2.40152	0.824
2.44235	0.828
2.48319	0.828
2.52403	0.831
2.56486	0.833
2.6057	0.838
2.64653	0.848
2.68737	0.852
2.7282	0.838
2.76904	0.816
2.80987	0.714
2.85071	0.472
2.89154	0.294
2.93238	0.214
2.97321	0.151
3.01405	0.11
3.05489	0.081
3.09572	0.069
3.13656	0.045
3.17739	0.037
3.21823	0.042
3.25906	0.076
3.2999	0.113
3.34073	0.171
3.38157	0.204
3.4224	0.227
3.46324	0.299
3.50408	0.367
3.54491	0.501
3.58575	0.607
3.62658	0.659
3.66742	0.695
3.70825	0.736
3.74909	0.758
3.78992	0.77
3.83076	0.78
3.87159	0.775
3.91243	0.787
3.95327	0.819
3.9941	0.835
4.03494	0.86
4.07577	0.874
4.11661	0.889
4.15744	0.901
4.19828	0.911
4.23911	0.911
4.27995	0.908
4.32078	0.904
4.36162	0.904
4.40246	0.899
4.44329	0.906
4.48413	0.906
4.52496	0.92
4.5658	0.909
4.60663	0.899
4.64747	0.887
4.6883	0.887
4.72914	0.894
4.76997	0.918
4.81081	0.923
4.85164	0.925
4.89248	0.923
4.93332	0.923
4.97415	0.931
5.01499	0.943
5.05582	0.954
5.09666	0.962
5.13749	0.96
5.17833	0.948
5.21916	0.948
5.26	0.93
5.30083	0.879
5.34167	0.858
5.38251	0.857
5.42334	0.869
5.46418	0.92
5.50501	0.945
5.54585	0.952
5.58668	0.957
5.62752	0.954
5.66835	0.938
5.70919	0.897
5.75002	0.846
5.79086	0.765
5.8317	0.721
5.87253	0.709
5.91337	0.671
5.9542	0.571
5.99504	0.377
6.03587	0.132
6.07671	0.034
6.11754	0.015
6.15838	0.015
6.19921	0.015
6.24005	0.015
6.28088	0.015
6.32172	0.034
6.36256	0.187
6.40339	0.37
6.44423	0.46
6.48506	0.522
6.5259	0.551
6.56673	0.528
6.60757	0.433
6.6484	0.251
6.68924	0.164
6.73007	0.049
6.77091	0.023
6.81175	0.023
6.85258	0.022
6.89342	0.02
6.93425	0.02
6.97509	0.022
7.01592	0.064
7.05676	0.19
7.09759	0.295
7.13843	0.363
7.17926	0.38
7.2201	0.25
7.26094	0.273
7.30177	0.501
7.34261	0.576
7.38344	0.6
7.42428	0.557
7.46511	0.522
7.50595	0.452
7.54678	0.403
7.58762	0.413
7.62845	0.474
7.66929	0.5
7.71013	0.343
7.75096	0.144
7.7918	0.171
7.83263	0.168
7.87347	0.136
7.9143	0.28
7.95514	0.484
7.99597	0.579
8.03681	0.613
8.07764	0.63
8.11848	0.619
8.15931	0.608
8.20015	0.6
8.24099	0.585
8.28182	0.494
8.32266	0.302
8.36349	0.124
8.40433	0.219
8.44516	0.438
8.486	0.547
8.52683	0.581
8.56767	0.591
8.6085	0.605
8.64934	0.608
8.69018	0.559
8.73101	0.501
8.77185	0.403
8.81268	0.34
8.85352	0.397
8.89435	0.491
8.93519	0.515
8.97602	0.534
9.01686	0.522
9.05769	0.522
9.09853	0.518
9.13937	0.491
9.1802	0.406
9.22104	0.248
9.26187	0.171
9.30271	0.241
9.34354	0.396
9.38438	0.488
9.42521	0.513
9.46605	0.522
9.50688	0.5
9.54772	0.442
9.58855	0.375
9.62939	0.299
9.67023	0.272
9.71106	0.301
9.7519	0.338
9.79273	0.389
9.83357	0.437
9.8744	0.479
9.91524	0.506
9.95607	0.482
9.99691	0.37
10.0377	0.227
10.0786	0.154
10.1194	0.198
10.1603	0.309
10.2011	0.409
10.2419	0.498
10.2828	0.52
10.3236	0.535
10.3644	0.527
10.4053	0.501
10.4461	0.488
10.4869	0.491
10.5278	0.511
10.5686	0.547
10.6094	0.571
10.6503	0.583
10.6911	0.583
10.7319	0.578
10.7728	0.576
10.8136	0.586
10.8545	0.593
10.8953	0.608
10.9361	0.61
10.977	0.612
11.0178	0.613
11.0586	0.61
11.0995	0.61
11.1403	0.602
11.1811	0.605
11.222	0.608
11.2628	0.61
11.3036	0.612
11.3445	0.593
11.3853	0.557
11.4261	0.51
11.467	0.493
11.5078	0.501
11.5487	0.506
11.5895	0.51
11.6303	0.51
11.6712	0.508
11.712	0.503
11.7528	0.493
11.7937	0.482
11.8345	0.481
11.8753	0.474
11.9162	0.465
11.957	0.459
11.9978	0.447
12.0387	0.426
12.0795	0.42
12.1204	0.403
12.1612	0.38
12.202	0.363
12.2429	0.357
12.2837	0.35
12.3245	0.34
12.3654	0.323
12.4062	0.311
12.447	0.29
12.4879	0.263
12.5287	0.229
12.5695	0.204
12.6104	0.146
12.6512	0.12
12.692	0.071
12.7329	0.047
12.7737	0.025
12.8146	0.018
12.8554	0.017
12.8962	0.017
12.9371	0.017
12.9779	0.017
13.0187	0.02
13.0596	0.025
13.1004	0.023
13.1412	0.03
13.1821	0.061
13.2229	0.096
13.2637	0.149
13.3046	0.171
13.3454	0.153
13.3863	0.122
13.4271	0.108
13.4679	0.108
13.5088	0.134
13.5496	0.163
13.5904	0.18
13.6313	0.198
13.6721	0.2
13.7129	0.21
13.7538	0.219
13.7946	0.212
13.8354	0.205
13.8763	0.209
13.9171	0.209
13.9579	0.209
13.9988	0.209
14.0396	0.2
14.0805	0.2
14.1213	0.2
14.1621	0.2
14.203	0.202
14.2438	0.2
14.2846	0.204
14.3255	0.204
14.3663	0.204
14.4071	0.205
14.448	0.205
14.4888	0.207
14.5296	0.209
14.5705	0.209
14.6113	0.212
14.6521	0.219
14.693	0.221
14.7338	0.222
14.7747	0.224
14.8155	0.229
14.8563	0.231
14.8972	0.243
14.938	0.238
14.9788	0.253
15.0197	0.258
15.0605	0.272
15.1013	0.284
15.1422	0.282
15.183	0.28
15.2238	0.27
15.2647	0.278
15.3055	0.272
15.3464	0.29
15.3872	0.297
15.428	0.302
15.4689	0.311
15.5097	0.324
15.5505	0.331
15.5914	0.343
15.6322	0.348
15.673	0.35
15.7139	0.355
15.7547	0.365
15.7955	0.375
15.8364	0.384
15.8772	0.394
15.918	0.406
15.9589	0.414
