Infrared Spectrum: 2-AMINO-5-METHYL PYRIDINE
Formula: C6 H8 N2
CAS: 1603-41-4
State: SOLID (MINERAL OIL MULL)
Class: COBLENTZ
Instrument: Not specified, most likely a prism, grating, or hybrid spectrometer.
Sampling: TRANSMISSION
Resolution: 4
Origin: WYANDOTTE CHEMICALS CORP., WYANDOTTE, MICHIGAN, USA
MICROMETERS	TRANSMITTANCE
2.02	0.23
2.06078	0.23
2.10155	0.232
2.14233	0.232
2.18311	0.232
2.22388	0.23
2.26466	0.235
2.30544	0.234
2.34621	0.242
2.38699	0.258
2.42777	0.259
2.46854	0.271
2.50932	0.275
2.5501	0.271
2.59087	0.275
2.63165	0.282
2.67243	0.29
2.7132	0.295
2.75398	0.312
2.79476	0.324
2.83553	0.333
2.87631	0.355
2.91709	0.323
2.95786	0.29
2.99864	0.302
3.03942	0.304
3.08019	0.282
3.12097	0.28
3.16175	0.254
3.20252	0.211
3.2433	0.203
3.28408	0.211
3.32485	0.201
3.36563	0.117
3.40641	0.054
3.44718	0.034
3.48796	0.03
3.52874	0.035
3.56951	0.15
3.61029	0.252
3.65107	0.311
3.69184	0.335
3.73262	0.343
3.7734	0.35
3.81417	0.362
3.85495	0.372
3.89573	0.386
3.9365	0.4
3.97728	0.418
4.01805	0.429
4.05883	0.446
4.09961	0.449
4.14038	0.454
4.18116	0.461
4.22194	0.464
4.26271	0.47
4.30349	0.468
4.34427	0.471
4.38504	0.478
4.42582	0.49
4.4666	0.507
4.50737	0.512
4.54815	0.519
4.58893	0.523
4.6297	0.536
4.67048	0.545
4.71126	0.54
4.75203	0.553
4.79281	0.564
4.83359	0.57
4.87436	0.574
4.91514	0.574
4.95592	0.584
4.99669	0.601
5.03747	0.605
5.07825	0.617
5.11902	0.618
5.1598	0.634
5.20058	0.646
5.24135	0.651
5.28213	0.656
5.32291	0.671
5.36368	0.68
5.40446	0.692
5.44524	0.712
5.48601	0.726
5.52679	0.726
5.56757	0.752
5.60834	0.77
5.64912	0.791
5.6899	0.803
5.73067	0.815
5.77145	0.817
5.81223	0.847
5.853	0.866
5.89378	0.876
5.93456	0.902
5.97533	0.933
6.01611	0.904
6.05689	0.663
6.09766	0.309
6.13844	0.198
6.17922	0.264
6.21999	0.338
6.26077	0.49
6.30155	0.57
6.34232	0.504
6.3831	0.429
6.42388	0.63
6.46465	0.723
6.50543	0.837
6.54621	0.871
6.58698	0.519
6.62776	0.193
6.66854	0.124
6.70931	0.186
6.75009	0.222
6.79087	0.16
6.83164	0.1
6.87242	0.112
6.9132	0.174
6.95397	0.294
6.99475	0.441
7.03553	0.55
7.0763	0.603
7.11708	0.576
7.15786	0.388
7.19863	0.218
7.23941	0.177
7.28019	0.153
7.32096	0.235
7.36174	0.336
7.40252	0.394
7.44329	0.451
7.48407	0.475
7.52485	0.523
7.56562	0.459
7.6064	0.429
7.64718	0.444
7.68795	0.48
7.72873	0.523
7.7695	0.529
7.81028	0.555
7.85106	0.56
7.89183	0.492
7.93261	0.401
7.97339	0.439
8.01416	0.473
8.05494	0.492
8.09572	0.514
8.13649	0.535
8.17727	0.54
8.21805	0.512
8.25882	0.536
8.2996	0.553
8.34038	0.569
8.38115	0.577
8.42193	0.581
8.46271	0.593
8.50348	0.605
8.54426	0.605
8.58504	0.601
8.62581	0.601
8.66659	0.613
8.70737	0.594
8.74814	0.458
8.78892	0.43
8.8297	0.487
8.87047	0.543
8.91125	0.57
8.95203	0.574
8.9928	0.582
9.03358	0.601
9.07436	0.598
9.11513	0.6
9.15591	0.605
9.19669	0.6
9.23746	0.586
9.27824	0.574
9.31902	0.562
9.35979	0.565
9.40057	0.572
9.44135	0.582
9.48212	0.586
9.5229	0.582
9.56368	0.591
9.60445	0.615
9.64523	0.641
9.68601	0.652
9.72678	0.654
9.76756	0.61
9.80834	0.523
9.84911	0.569
9.88989	0.62
9.93067	0.663
9.97144	0.68
10.0122	0.699
10.053	0.707
10.0938	0.712
10.1345	0.716
10.1753	0.716
10.2161	0.721
10.2569	0.719
10.2977	0.731
10.3384	0.741
10.3792	0.738
10.42	0.731
10.4608	0.726
10.5015	0.733
10.5423	0.75
10.5831	0.757
10.6239	0.765
10.6646	0.77
10.7054	0.77
10.7462	0.772
10.787	0.786
10.8278	0.782
10.8685	0.74
10.9093	0.753
10.9501	0.776
10.9909	0.8
11.0316	0.817
11.0724	0.832
11.1132	0.844
11.154	0.842
11.1947	0.841
11.2355	0.846
11.2763	0.844
11.3171	0.842
11.3578	0.849
11.3986	0.861
11.4394	0.863
11.4802	0.864
11.521	0.868
11.5617	0.864
11.6025	0.866
11.6433	0.868
11.6841	0.849
11.7248	0.805
11.7656	0.813
11.8064	0.834
11.8472	0.834
11.8879	0.825
11.9287	0.81
11.9695	0.801
12.0103	0.762
12.0511	0.682
12.0918	0.536
12.1326	0.369
12.1734	0.324
12.2142	0.43
12.2549	0.565
12.2957	0.649
12.3365	0.714
12.3773	0.738
12.418	0.77
12.4588	0.781
12.4996	0.796
12.5404	0.81
12.5811	0.806
12.6219	0.803
12.6627	0.808
12.7035	0.81
12.7443	0.813
12.785	0.818
12.8258	0.822
12.8666	0.822
12.9074	0.829
12.9481	0.83
12.9889	0.829
13.0297	0.832
13.0705	0.811
13.1112	0.772
13.152	0.731
13.1928	0.711
13.2336	0.712
13.2744	0.683
13.3151	0.661
13.3559	0.663
13.3967	0.685
13.4375	0.723
13.4782	0.755
13.519	0.774
13.5598	0.779
13.6006	0.772
13.6413	0.772
13.6821	0.777
13.7229	0.772
13.7637	0.767
13.8044	0.755
13.8452	0.755
13.886	0.745
13.9268	0.745
13.9676	0.757
14.0083	0.784
14.0491	0.805
14.0899	0.811
14.1307	0.823
14.1714	0.83
14.2122	0.832
14.253	0.835
14.2938	0.841
14.3345	0.839
14.3753	0.839
14.4161	0.839
14.4569	0.832
14.4976	0.834
14.5384	0.825
14.5792	0.822
14.62	0.815
14.6608	0.805
14.7015	0.791
14.7423	0.777
14.7831	0.77
14.8239	0.757
14.8646	0.741
14.9054	0.729
14.9462	0.728
14.987	0.728
15.0277	0.7
15.0685	0.666
15.1093	0.659
15.1501	0.641
15.1909	0.637
15.2316	0.629
15.2724	0.605
15.3132	0.579
15.354	0.562
15.3947	0.538
15.4355	0.523
15.4763	0.507
15.5171	0.499
15.5578	0.49
15.5986	0.485
15.6394	0.483
15.6802	0.478
15.7209	0.478
15.7617	0.476
15.8025	0.473
15.8433	0.47
15.8841	0.468
15.9248	0.464
15.9656	0.463
