Infrared Spectrum: PHOSPHORODIAMIDIC CHLORIDE, N,N,N',N'-TETRAMETHYL-
Formula: C4 H12 Cl N2 O P
CAS: 1605-65-8
State: SOLUTION (5% CCl4 FOR 3800-1330, 5% CS2 FOR 1330-400 CM^-^1)
Class: COBLENTZ III
Instrument: DOW KBr FOREPRISM-GRATING
Instrument parameters: BLAZED AT 3.5, 12.0, 20.0 MICRON AND CHANGED AT 5.0, 7.5, 14.9 MICRON
Sampling: TRANSMISSION
Path length: 0.012 CM, 0.011 CM
Resolution: 2
Origin: DOW CHEMICAL COMPANY
1/CM	TRANSMITTANCE
382	0.2652
391	0.2749
400	0.3134
409	0.4465
418	0.6512
427	0.6708
436	0.6706
445	0.681
454	0.696
463	0.5436
472	0.7215
481	0.8341
490	0.8386
499	0.8332
508	0.8039
517	0.7555
526	0.6754
535	0.3002
544	0.0785
553	0.352
562	0.7399
571	0.8637
580	0.9067
589	0.923
598	0.9297
607	0.9321
616	0.9309
625	0.9235
634	0.9042
643	0.8542
652	0.7961
661	0.6878
670	0.1489
679	0.6884
688	0.8746
697	0.9101
706	0.9202
715	0.912
724	0.9013
733	0.8838
742	0.7745
751	0.4328
760	0.5506
769	0.9151
778	0.9431
787	0.9471
796	0.9497
805	0.9482
814	0.9503
823	0.9467
832	0.925
841	0.8716
850	0.8085
859	0.7874
868	0.8224
877	0.8668
886	0.9018
895	0.9136
904	0.9093
913	0.9031
922	0.8925
931	0.8725
940	0.8345
949	0.7846
958	0.6549
967	0.3572
976	0.0867
985	0.057
994	0.0563
1003	0.5204
1012	0.695
1021	0.7808
1030	0.8162
1039	0.8128
1048	0.7836
1057	0.6531
1066	0.4975
1075	0.8033
1084	0.843
1093	0.8462
1102	0.8456
1111	0.854
1120	0.8506
1129	0.8255
1138	0.7458
1147	0.6525
1156	0.5928
1165	0.45
1174	0.4501
1183	0.4741
1192	0.5577
1201	0.6491
1210	0.6328
1219	0.6021
1228	0.5336
1237	0.2358
1246	0.0614
1255	0.4688
1264	0.5764
1273	0.5249
1282	0.399
1291	0.2499
1300	0.1671
1309	0.2185
1318	0.4973
1327	0.6543
1336	0.7065
1345	0.7399
1354	0.7633
1363	0.7824
1372	0.7933
1381	0.7961
1390	0.7949
1399	0.7886
1408	0.7731
1417	0.7593
1426	0.746
1435	0.6861
1444	0.5932
1453	0.4295
1462	0.3503
1471	0.5082
1480	0.4334
1489	0.6083
1498	0.6317
1507	0.6159
1516	0.5918
1525	0.5562
1534	0.4993
1543	0.4144
1552	0.4064
1561	0.481
1570	0.5324
1579	0.5566
1588	0.5849
1597	0.6895
1606	0.751
1615	0.7748
1624	0.7907
1633	0.8005
1642	0.8011
1651	0.7995
1660	0.8074
1669	0.8178
1678	0.8252
1687	0.8288
1696	0.8302
1705	0.8278
1714	0.8247
1723	0.8237
1732	0.8223
1741	0.8241
1750	0.8304
1759	0.8359
1768	0.838
1777	0.8425
1786	0.8457
1795	0.8457
1804	0.8451
1813	0.8443
1822	0.8441
1831	0.8449
1840	0.8459
1849	0.8484
1858	0.8509
1867	0.8545
1876	0.8567
1885	0.8575
1894	0.8567
1903	0.8557
1912	0.8547
1921	0.8535
1930	0.8524
1939	0.8513
1948	0.8497
1957	0.8505
1966	0.8411
1975	0.8417
1984	0.8428
1993	0.8475
2002	0.8578
2011	0.8584
2020	0.8588
2029	0.8586
2038	0.8585
2047	0.8585
2056	0.8584
2065	0.8582
2074	0.8582
2083	0.8584
2092	0.8588
2101	0.8586
2110	0.8585
2119	0.8586
2128	0.859
2137	0.8594
2146	0.8599
2155	0.86
2164	0.8602
2173	0.8604
2182	0.8605
2191	0.8605
2200	0.8605
2209	0.8602
2218	0.8595
2227	0.8587
2236	0.8573
2245	0.8559
2254	0.8537
2263	0.8492
2272	0.8437
2281	0.843
2290	0.8427
2299	0.8425
2308	0.8447
2317	0.8551
2326	0.8625
2335	0.8643
2344	0.8659
2353	0.8662
2362	0.866
2371	0.8641
2380	0.8591
2389	0.8585
2398	0.8583
2407	0.858
2416	0.8578
2425	0.8575
2434	0.8575
2443	0.8573
2452	0.8575
2461	0.8578
2470	0.8582
2479	0.8586
2488	0.8592
2497	0.8598
2506	0.86
2515	0.8595
2524	0.8591
2533	0.8586
2542	0.8578
2551	0.8571
2560	0.8565
2569	0.8558
2578	0.8557
2587	0.8557
2596	0.8557
2605	0.8558
2614	0.856
2623	0.8562
2632	0.8564
2641	0.8564
2650	0.8564
2659	0.8563
2668	0.8555
2677	0.8546
2686	0.8531
2695	0.8513
2704	0.8492
2713	0.8468
2722	0.8438
2731	0.8403
2740	0.8345
2749	0.8285
2758	0.8214
2767	0.8137
2776	0.8025
2785	0.7847
2794	0.7594
2803	0.5802
2812	0.5923
2821	0.7314
2830	0.7181
2839	0.6165
2848	0.5033
2857	0.5597
2866	0.5799
2875	0.5373
2884	0.4383
2893	0.4091
2902	0.421
2911	0.4324
2920	0.3846
2929	0.3578
2938	0.34
2947	0.3509
2956	0.4977
2965	0.6026
2974	0.7261
2983	0.7376
2992	0.68
3001	0.6725
3010	0.7272
3019	0.7794
3028	0.8096
3037	0.8231
3046	0.8275
3055	0.8311
3064	0.8342
3073	0.8368
3082	0.8392
3091	0.8414
3100	0.8434
3109	0.8453
3118	0.8471
3127	0.849
3136	0.851
3145	0.8528
3154	0.8549
3163	0.8561
3172	0.8568
3181	0.8577
3190	0.8583
3199	0.8589
3208	0.8595
3217	0.8601
3226	0.8606
3235	0.8611
3244	0.8617
3253	0.8621
3262	0.8628
3271	0.8642
3280	0.8656
3289	0.8668
3298	0.8675
3307	0.8678
3316	0.8682
3325	0.8683
3334	0.8684
3343	0.8685
3352	0.8687
3361	0.8688
3370	0.8687
3379	0.8681
3388	0.8675
3397	0.867
3406	0.8662
3415	0.8654
3424	0.8649
3433	0.8646
3442	0.8644
3451	0.8641
3460	0.8644
3469	0.8651
3478	0.8659
3487	0.8666
3496	0.8674
3505	0.8689
3514	0.8707
3523	0.8725
3532	0.8739
3541	0.8746
3550	0.8753
3559	0.8757
3568	0.8767
3577	0.8795
3586	0.8824
3595	0.8818
3604	0.8816
3613	0.8817
3622	0.8818
3631	0.8815
3640	0.8811
3649	0.8807
3658	0.88
3667	0.8793
3676	0.8784
3685	0.8775
3694	0.8818
3703	0.8857
3712	0.8873
3721	0.8875
3730	0.8875
3739	0.8871
3748	0.8868
3757	0.8863
3766	0.886
3775	0.8859
3784	0.8857
