Infrared Spectrum: Octadecanamine, N,N-dimethyl-, hydrochloride
Formula: C20 H44 Cl N
CAS: 1613-17-8
State: SOLID (KBr DISC, 0.8% WT.)
Class: COBLENTZ III
Instrument: PERKIN-ELMER 157
Sampling: TRANSMISSION
Resolution: 2
Origin: BRITISH PETROLEUM CO. LTD., ENGLAND
1/CM	TRANSMITTANCE
668	0.9726
677	0.9635
686	0.9277
695	0.8933
704	0.8316
713	0.6482
722	0.3384
731	0.2312
740	0.7703
749	0.8553
758	0.8191
767	0.8791
776	0.8648
785	0.8915
794	0.8115
803	0.9005
812	0.8869
821	0.8404
830	0.8658
839	0.778
848	0.8884
857	0.9022
866	0.9018
875	0.8988
884	0.85
893	0.8621
902	0.885
911	0.8803
920	0.8637
929	0.7994
938	0.7991
947	0.6913
956	0.37
965	0.6243
974	0.5695
983	0.6961
992	0.545
1001	0.5934
1010	0.4166
1019	0.6531
1028	0.6901
1037	0.7195
1046	0.6959
1055	0.7134
1064	0.7077
1073	0.673
1082	0.7841
1091	0.7726
1100	0.6363
1109	0.6609
1118	0.7316
1127	0.6994
1136	0.7565
1145	0.731
1154	0.6775
1163	0.681
1172	0.603
1181	0.6963
1190	0.718
1199	0.7004
1208	0.7334
1217	0.6994
1226	0.7142
1235	0.6446
1244	0.7193
1253	0.6777
1262	0.7101
1271	0.7068
1280	0.6805
1289	0.6794
1298	0.6602
1307	0.6439
1316	0.5936
1325	0.5129
1334	0.5544
1343	0.6151
1352	0.5984
1361	0.5582
1370	0.4873
1379	0.4309
1388	0.4325
1397	0.4309
1406	0.4015
1415	0.3469
1424	0.329
1433	0.2917
1442	0.2996
1451	0.2941
1460	0.0748
1469	0.0782
1478	0.1044
1487	0.1916
1496	0.4242
1505	0.5229
1514	0.5431
1523	0.5535
1532	0.5624
1541	0.5683
1550	0.5716
1559	0.5728
1568	0.5742
1577	0.5751
1586	0.5773
1595	0.5776
1604	0.5594
1613	0.5483
1622	0.5429
1631	0.5439
1640	0.548
1649	0.5684
1658	0.5751
1667	0.5912
1676	0.6126
1685	0.6181
1694	0.6195
1703	0.6205
1712	0.6208
1721	0.6236
1730	0.6392
1739	0.6487
1748	0.6525
1757	0.6556
1766	0.6567
1775	0.6568
1784	0.6569
1793	0.6571
1802	0.6575
1811	0.6581
1820	0.6552
1829	0.6483
1838	0.6465
1847	0.6451
1856	0.6419
1865	0.6364
1874	0.6272
1883	0.6225
1892	0.6155
1901	0.6118
1910	0.6088
1919	0.607
1928	0.6051
1937	0.6032
1946	0.6014
1955	0.5994
1964	0.5971
1973	0.595
1982	0.5891
1991	0.5822
2000	0.5751
2009	0.569
2018	0.5643
2027	0.5613
2036	0.5591
2045	0.557
2054	0.5569
2063	0.5541
2072	0.5459
2081	0.5443
2090	0.5425
2099	0.5409
2108	0.5366
2117	0.531
2126	0.5262
2135	0.5232
2144	0.5204
2153	0.5181
2162	0.5161
2171	0.5119
2180	0.5053
2189	0.5006
2198	0.4979
2207	0.4915
2216	0.484
2225	0.4769
2234	0.47
2243	0.4619
2252	0.4539
2261	0.4461
2270	0.4385
2279	0.4243
2288	0.4097
2297	0.3956
2306	0.3814
2315	0.3655
2324	0.3467
2333	0.3269
2342	0.3071
2351	0.2822
2360	0.2729
2369	0.2692
2378	0.2669
2387	0.2594
2396	0.2412
2405	0.2262
2414	0.2071
2423	0.1849
2432	0.1607
2441	0.1467
2450	0.1157
2459	0.0941
2468	0.0834
2477	0.0846
2486	0.0853
2495	0.0782
2504	0.0734
2513	0.0726
2522	0.0722
2531	0.0721
2540	0.0718
2549	0.0715
2558	0.0709
2567	0.0658
2576	0.0532
2585	0.0414
2594	0.036
2603	0.0352
2612	0.0347
2621	0.0342
2630	0.0341
2639	0.034
2648	0.0339
2657	0.0339
2666	0.0339
2675	0.0347
2684	0.0431
2693	0.0605
2702	0.0696
2711	0.0798
2720	0.0935
2729	0.1011
2738	0.1047
2747	0.1076
2756	0.11
2765	0.1101
2774	0.1079
2783	0.1048
2792	0.098
2801	0.0881
2810	0.0646
2819	0.0426
2828	0.034
2837	0.0335
2846	0.0334
2855	0.0339
2864	0.0353
2873	0.0364
2882	0.0359
2891	0.0338
2900	0.0316
2909	0.0319
2918	0.0328
2927	0.0336
2936	0.0345
2945	0.0355
2954	0.0426
2963	0.0615
2972	0.071
2981	0.076
2990	0.0813
2999	0.0872
3008	0.0977
3017	0.1171
3026	0.1198
3035	0.121
3044	0.1222
3053	0.1238
3062	0.1316
3071	0.1383
3080	0.1395
3089	0.1405
3098	0.1408
3107	0.1409
3116	0.1408
3125	0.1406
3134	0.1404
3143	0.1396
3152	0.1384
3161	0.136
3170	0.1324
3179	0.1273
3188	0.1233
3197	0.1223
3206	0.122
3215	0.122
3224	0.1219
3233	0.122
3242	0.122
3251	0.1196
3260	0.1172
3269	0.1134
3278	0.1091
3287	0.1056
3296	0.1024
3305	0.099
3314	0.093
3323	0.0856
3332	0.0785
3341	0.0756
3350	0.0739
3359	0.073
3368	0.0723
3377	0.0723
3386	0.0722
3395	0.0722
3404	0.0725
3413	0.0728
3422	0.0731
3431	0.0735
3440	0.0739
3449	0.0748
3458	0.0795
3467	0.0822
3476	0.0843
3485	0.0854
3494	0.086
3503	0.0866
3512	0.088
3521	0.0936
3530	0.0998
3539	0.1089
3548	0.1158
3557	0.1183
3566	0.1196
3575	0.1208
3584	0.1215
3593	0.1222
3602	0.1224
3611	0.1227
3620	0.1229
3629	0.1231
3638	0.1232
3647	0.1232
3656	0.1233
3665	0.1234
3674	0.1234
3683	0.1235
3692	0.1235
3701	0.1234
3710	0.1233
3719	0.1232
3728	0.1232
3737	0.1231
3746	0.123
3755	0.1229
3764	0.1228
3773	0.1226
3782	0.1226
3791	0.1224
3800	0.1223
3809	0.1222
3818	0.1221
3827	0.122
3836	0.1218
3845	0.1216
3854	0.1214
3863	0.1212
3872	0.121
3881	0.1208
3890	0.1206
3899	0.1202
3908	0.1198
3917	0.1193
3926	0.1188
3935	0.1183
3944	0.1177
3953	0.1167
3962	0.1156
3971	0.1145
3980	0.1129
3989	0.1114
3998	0.11
