Infrared Spectrum: 3,5-DI-TERT-BUTYL-4-HYDROXYBENZALDEHYDE
Formula: C15 H22 O2
CAS: 1620-98-0
State: SOLID (KBr PELLET)
Class: COBLENTZ
Instrument: Not specified, most likely a prism, grating, or hybrid spectrometer.
Sampling: TRANSMISSION
Resolution: 4
Origin: TENNESSEE EASTMAN COMPANY, RESEARCH LABORATORIES
MICROMETERS	TRANSMITTANCE
2.027	0.954
2.0679	0.959
2.10879	0.962
2.14969	0.962
2.19059	0.962
2.23148	0.962
2.27238	0.959
2.31328	0.959
2.35417	0.957
2.39507	0.957
2.43597	0.957
2.47686	0.957
2.51776	0.955
2.55866	0.947
2.59955	0.94
2.64045	0.931
2.68135	0.928
2.72224	0.901
2.76314	0.807
2.80404	0.676
2.84493	0.567
2.88583	0.388
2.92672	0.281
2.96762	0.313
3.00852	0.434
3.04941	0.519
3.09031	0.62
3.13121	0.669
3.1721	0.71
3.213	0.741
3.2539	0.763
3.29479	0.764
3.33569	0.752
3.37659	0.434
3.41748	0.454
3.45838	0.543
3.49928	0.603
3.54017	0.737
3.58107	0.747
3.62197	0.798
3.66286	0.79
3.70376	0.764
3.74466	0.817
3.78555	0.838
3.82645	0.843
3.86735	0.839
3.90824	0.85
3.94914	0.858
3.99004	0.865
4.03093	0.879
4.07183	0.88
4.11273	0.887
4.15362	0.899
4.19452	0.906
4.23542	0.911
4.27631	0.911
4.31721	0.911
4.35811	0.914
4.399	0.938
4.4399	0.943
4.4808	0.947
4.52169	0.95
4.56259	0.95
4.60348	0.95
4.64438	0.952
4.68528	0.954
4.72617	0.952
4.76707	0.952
4.80797	0.954
4.84886	0.957
4.88976	0.959
4.93066	0.96
4.97155	0.96
5.01245	0.965
5.05335	0.971
5.09424	0.971
5.13514	0.971
5.17604	0.971
5.21693	0.972
5.25783	0.976
5.29873	0.977
5.33962	0.977
5.38052	0.977
5.42142	0.977
5.46231	0.974
5.50321	0.971
5.54411	0.967
5.585	0.959
5.6259	0.954
5.6668	0.947
5.70769	0.952
5.74859	0.928
5.78949	0.918
5.83038	0.908
5.87128	0.902
5.91218	0.856
5.95307	0.746
5.99397	0.367
6.03487	0.284
6.07576	0.7
6.11666	0.79
6.15756	0.8
6.19845	0.81
6.23935	0.705
6.28024	0.223
6.32114	0.391
6.36204	0.449
6.40293	0.775
6.44383	0.885
6.48473	0.899
6.52562	0.911
6.56652	0.921
6.60742	0.93
6.64831	0.928
6.68921	0.875
6.73011	0.787
6.771	0.804
6.8119	0.761
6.8528	0.742
6.89369	0.701
6.93459	0.616
6.97549	0.228
7.01638	0.471
7.05728	0.819
7.09818	0.848
7.13907	0.775
7.17997	0.79
7.22087	0.49
7.26176	0.586
7.30266	0.741
7.34356	0.678
7.38445	0.705
7.42535	0.882
7.46625	0.901
7.50714	0.868
7.54804	0.827
7.58894	0.718
7.62983	0.596
7.67073	0.625
7.71163	0.413
7.75252	0.366
7.79342	0.625
7.83432	0.741
7.87521	0.703
7.91611	0.485
7.957	0.304
7.9979	0.582
8.0388	0.596
8.07969	0.381
8.12059	0.533
8.16149	0.712
8.20238	0.749
8.24328	0.715
8.28418	0.516
8.32507	0.173
8.36597	0.204
8.40687	0.345
8.44776	0.453
8.48866	0.674
8.52956	0.706
8.57045	0.717
8.61135	0.712
8.65225	0.703
8.69314	0.688
8.73404	0.666
8.77494	0.623
8.81583	0.551
8.85673	0.459
8.89763	0.367
8.93852	0.337
8.97942	0.221
9.02032	0.102
9.06121	0.059
9.10211	0.068
9.14301	0.149
9.1839	0.265
9.2248	0.395
9.2657	0.499
9.30659	0.568
9.34749	0.611
9.38839	0.643
9.42928	0.664
9.47018	0.689
9.51108	0.706
9.55197	0.729
9.59287	0.746
9.63376	0.758
9.67466	0.763
9.71556	0.729
9.75645	0.698
9.79735	0.746
9.83825	0.781
9.87914	0.795
9.92004	0.787
9.96094	0.836
10.0018	0.855
10.0427	0.873
10.0836	0.879
10.1245	0.887
10.1654	0.882
10.2063	0.853
10.2472	0.778
10.2881	0.666
10.329	0.676
10.3699	0.797
10.4108	0.865
10.4517	0.892
10.4926	0.904
10.5335	0.911
10.5744	0.916
10.6153	0.919
10.6562	0.911
10.6971	0.896
10.738	0.833
10.7789	0.833
10.8198	0.889
10.8607	0.914
10.9016	0.931
10.9425	0.901
10.9834	0.885
11.0242	0.933
11.0651	0.94
11.106	0.936
11.1469	0.843
11.1878	0.618
11.2287	0.475
11.2696	0.62
11.3105	0.804
11.3514	0.882
11.3923	0.918
11.4332	0.938
11.4741	0.954
11.515	0.971
11.5559	0.976
11.5968	0.981
11.6377	0.984
11.6786	0.988
11.7195	0.988
11.7604	0.989
11.8013	0.991
11.8422	0.991
11.8831	0.991
11.924	0.989
11.9649	0.988
12.0058	0.986
12.0467	0.986
12.0876	0.977
12.1285	0.967
12.1694	0.926
12.2102	0.775
12.2511	0.725
12.292	0.814
12.3329	0.88
12.3738	0.904
12.4147	0.892
12.4556	0.889
12.4965	0.918
12.5374	0.938
12.5783	0.948
12.6192	0.947
12.6601	0.936
12.701	0.867
12.7419	0.872
12.7828	0.913
12.8237	0.933
12.8646	0.938
12.9055	0.942
12.9464	0.947
12.9873	0.948
13.0282	0.948
13.0691	0.948
13.11	0.947
13.1509	0.931
13.1918	0.899
13.2327	0.88
13.2736	0.911
13.3145	0.93
13.3554	0.935
13.3963	0.942
13.4371	0.947
13.478	0.947
13.5189	0.942
13.5598	0.943
13.6007	0.943
13.6416	0.94
13.6825	0.938
13.7234	0.933
13.7643	0.931
13.8052	0.93
13.8461	0.923
13.887	0.918
13.9279	0.916
13.9688	0.913
14.0097	0.901
14.0506	0.897
14.0915	0.892
14.1324	0.885
14.1733	0.879
14.2142	0.863
14.2551	0.85
14.296	0.833
14.3369	0.812
14.3778	0.778
14.4187	0.739
14.4596	0.691
14.5005	0.638
14.5414	0.589
14.5823	0.548
14.6231	0.524
14.664	0.522
14.7049	0.562
14.7458	0.623
14.7867	0.674
14.8276	0.718
14.8685	0.749
14.9094	0.759
14.9503	0.761
14.9912	0.758
15.0321	0.759
15.073	0.759
15.1139	0.759
15.1548	0.758
15.1957	0.746
15.2366	0.737
15.2775	0.727
15.3184	0.715
15.3593	0.701
15.4002	0.695
15.4411	0.686
15.482	0.679
15.5229	0.672
15.5638	0.664
15.6047	0.657
15.6456	0.643
15.6865	0.638
15.7274	0.63
15.7683	0.623
15.8091	0.611
15.85	0.599
15.8909	0.591
15.9318	0.591
15.9727	0.582
