Infrared Spectrum: tert-Butyl Methyl Ether
Formula: ( C H3)3 C O C H3
CAS: 1634-04-4
State: gas
Melting point: -109 C
Boiling point: 55.2 C
Class: IUPAC A
Instrument: IFS66V (Bruker)
Instrument parameters: KBr Beam splitter; MCT Detector; Multipass cell
Sampling: 1 L/min Flow
Resolution: 1.9290
Temperature: 23 C
Pressure: 101.3 kPa
Origin: NIST, Anayltical Chemistry Division, 301-975-3108
cm-1	(micromol/mol)-1m-1 (base 10)
574.687	2.5783e-07
583.365	-2.94287e-07
592.043	2.54348e-08
600.721	6.19617e-08
609.4	8.81732e-08
618.078	5.92205e-08
626.756	3.4095e-08
635.434	6.99507e-08
644.112	1.48278e-07
652.79	1.73714e-07
661.469	6.56997e-08
670.147	9.26588e-08
678.825	3.96312e-07
687.503	5.03503e-07
696.181	1.07024e-06
704.859	5.4446e-06
713.537	2.01336e-05
722.216	3.02847e-05
730.894	2.47195e-05
739.572	1.59681e-05
748.25	2.62863e-06
756.928	1.17439e-06
765.606	1.12643e-06
774.285	1.18513e-06
782.963	1.05864e-06
791.641	1.01691e-06
800.319	1.11069e-06
808.997	1.39972e-06
817.675	1.85921e-06
826.353	4.47693e-06
835.032	2.03277e-05
843.71	6.60969e-05
852.388	0.000104699
861.066	8.04459e-05
869.744	5.09095e-05
878.422	6.09733e-06
887.101	1.29692e-06
895.779	1.22564e-06
904.457	1.54095e-06
913.135	1.34955e-06
921.813	1.21261e-06
930.491	1.12951e-06
939.169	9.95893e-07
947.848	1.11301e-06
956.526	1.12467e-06
965.204	1.43435e-06
973.882	1.86322e-06
982.56	2.783e-06
991.238	3.77733e-06
999.917	6.93348e-06
1008.59	1.80917e-05
1017.27	3.4125e-05
1025.95	3.22633e-05
1034.63	2.44944e-05
1043.31	8.11952e-06
1051.99	8.42516e-06
1060.66	1.61981e-05
1069.34	5.1295e-05
1078.02	0.000186864
1086.7	0.000425437
1095.38	0.000576361
1104.05	0.000451929
1112.73	0.000154529
1121.41	3.25754e-05
1130.09	1.88056e-05
1138.77	1.75332e-05
1147.45	2.10105e-05
1156.12	2.90141e-05
1164.8	3.25417e-05
1173.48	3.97129e-05
1182.16	6.07374e-05
1190.84	0.000138355
1199.51	0.000324014
1208.19	0.000545883
1216.87	0.000513267
1225.55	0.00024972
1234.23	0.000162829
1242.9	0.000117146
1251.58	0.000107872
1260.26	9.45201e-05
1268.94	7.52997e-05
1277.62	3.94286e-05
1286.3	1.54033e-05
1294.97	6.44562e-06
1303.65	3.86845e-06
1312.33	2.99643e-06
1321.01	2.7752e-06
1329.69	2.90263e-06
1338.36	5.50753e-06
1347.04	2.85846e-05
1355.72	0.000128993
1364.4	0.000210389
1373.08	0.000195905
1381.76	0.000177979
1390.43	0.000159726
1399.11	6.79635e-05
1407.79	1.60424e-05
1416.47	7.87728e-06
1425.15	9.47233e-06
1433.82	1.16717e-05
1442.5	1.84828e-05
1451.18	3.60332e-05
1459.86	6.2602e-05
1468.54	8.46995e-05
1477.22	9.39997e-05
1485.89	7.50436e-05
1494.57	3.64789e-05
1503.25	1.47702e-05
1511.93	5.94055e-06
1520.61	4.71772e-06
1529.28	4.15301e-06
1537.96	4.39657e-06
1546.64	4.48903e-06
1555.32	4.7657e-06
1564	5.89873e-06
1572.67	7.11095e-06
1581.35	7.28365e-06
1590.03	5.50343e-06
1598.71	2.09654e-06
1607.39	1.65071e-06
1616.07	2.20504e-06
1624.74	2.23863e-06
1633.42	2.44709e-06
1642.1	2.33733e-06
1650.78	1.65401e-06
1659.46	1.39813e-06
1668.13	1.20172e-06
1676.81	1.31839e-06
1685.49	2.34735e-06
1694.17	3.15808e-06
1702.85	4.49951e-06
1711.53	4.28012e-06
1720.2	3.14756e-06
1728.88	1.39149e-06
1737.56	1.35873e-06
1746.24	1.31723e-06
1754.92	1.18188e-06
1763.59	1.05405e-06
1772.27	1.28933e-06
1780.95	9.41753e-07
1789.63	1.10876e-06
1798.31	1.9802e-06
1806.98	3.36445e-06
1815.66	4.30185e-06
1824.34	4.16323e-06
1833.02	2.60588e-06
1841.7	1.19024e-06
1850.38	9.71161e-07
1859.05	8.9094e-07
1867.73	9.87059e-07
1876.41	9.85893e-07
1885.09	1.11242e-06
1893.77	1.13031e-06
1902.44	1.23628e-06
1911.12	1.52574e-06
1919.8	2.55285e-06
1928.48	4.60554e-06
1937.16	7.1284e-06
1945.84	8.29854e-06
1954.51	6.77593e-06
1963.19	3.37705e-06
1971.87	9.47345e-07
1980.55	6.26479e-07
1989.23	5.71802e-07
1997.9	5.23612e-07
2006.58	5.78412e-07
2015.26	6.07477e-07
2023.94	7.57803e-07
2032.62	1.0539e-06
2041.3	1.95715e-06
2049.97	3.41403e-06
2058.65	4.64666e-06
2067.33	4.00979e-06
2076.01	2.15964e-06
2084.69	1.95278e-06
2093.36	2.61799e-06
2102.04	2.46807e-06
2110.72	2.24895e-06
2119.4	2.35843e-06
2128.08	1.80798e-06
2136.75	1.18539e-06
2145.43	1.48771e-06
2154.11	2.85065e-06
2162.79	5.86104e-06
2171.47	9.1049e-06
2180.15	1.08674e-05
2188.82	7.48565e-06
2197.5	2.5879e-06
2206.18	1.14704e-06
2214.86	1.01469e-06
2223.54	1.16367e-06
2232.21	1.20523e-06
2240.89	9.07333e-07
2249.57	1.07434e-06
2258.25	1.49416e-06
2266.93	2.27898e-06
2275.61	2.56527e-06
2284.28	2.47666e-06
2292.96	1.97048e-06
2301.64	1.58023e-06
2310.32	1.09219e-06
2319	7.18037e-07
2327.67	5.63642e-07
2336.35	7.10595e-07
2345.03	1.30296e-06
2353.71	1.8326e-06
2362.39	1.94704e-06
2371.06	1.97725e-06
2379.74	1.73572e-06
2388.42	1.62817e-06
2397.1	1.28589e-06
2405.78	1.24738e-06
2414.46	1.30454e-06
2423.13	1.23394e-06
2431.81	6.76168e-07
2440.49	5.03215e-07
2449.17	3.80985e-07
2457.85	5.47435e-07
2466.52	6.64828e-07
2475.2	8.89918e-07
2483.88	7.69852e-07
2492.56	6.29975e-07
2501.24	4.58088e-07
2509.92	4.17922e-07
2518.59	3.35615e-07
2527.27	3.95512e-07
2535.95	4.97496e-07
2544.63	8.34097e-07
2553.31	1.05268e-06
2561.98	1.56571e-06
2570.66	2.17006e-06
2579.34	3.07506e-06
2588.02	3.88571e-06
2596.7	4.17057e-06
2605.38	4.34364e-06
2614.05	4.77279e-06
2622.73	4.91981e-06
2631.41	4.55487e-06
2640.09	4.12646e-06
2648.77	4.01359e-06
2657.44	3.77861e-06
2666.12	3.55821e-06
2674.8	3.1637e-06
2683.48	3.07717e-06
2692.16	2.80853e-06
2700.83	3.07059e-06
2709.51	3.80792e-06
2718.19	5.65635e-06
2726.87	6.90645e-06
2735.55	7.05489e-06
2744.23	6.34632e-06
2752.9	5.64206e-06
2761.58	5.52886e-06
2770.26	5.82531e-06
2778.94	6.24838e-06
2787.62	8.1478e-06
2796.29	1.09358e-05
2804.97	1.85022e-05
2813.65	4.63661e-05
2822.33	0.000103335
2831.01	0.000132937
2839.69	0.000126259
2848.36	8.85732e-05
2857.04	4.40817e-05
2865.72	5.6936e-05
2874.4	9.34681e-05
2883.08	0.000136618
2891.75	0.000189525
2900.43	0.000239054
2909.11	0.000268699
2917.79	0.000292564
2926.47	0.000275555
2935.14	0.000283478
2943.82	0.000307511
2952.5	0.000306596
2961.18	0.000324409
2969.86	0.000579807
2978.54	0.000856392
2987.21	0.00110982
2995.89	0.00053604
3004.57	0.000151879
3013.25	3.93453e-05
3021.93	2.26246e-05
3030.6	1.59419e-05
3039.28	1.32035e-05
3047.96	1.08157e-05
3056.64	1.0199e-05
3065.32	9.57042e-06
3074	9.46851e-06
3082.67	8.30548e-06
3091.35	7.20762e-06
3100.03	5.88165e-06
3108.71	5.44488e-06
3117.39	4.96601e-06
3126.06	5.13622e-06
3134.74	5.32721e-06
3143.42	6.14985e-06
3152.1	6.26055e-06
3160.78	6.09503e-06
3169.46	5.6073e-06
3178.13	5.74665e-06
3186.81	5.84156e-06
3195.49	6.11822e-06
3204.17	5.90936e-06
3212.85	5.98575e-06
3221.52	6.36613e-06
3230.2	7.01104e-06
3238.88	6.78446e-06
3247.56	5.80045e-06
3256.24	4.05916e-06
3264.91	2.78198e-06
3273.59	1.76257e-06
3282.27	1.38408e-06
3290.95	1.13246e-06
3299.63	1.19333e-06
3308.31	1.5655e-06
3316.98	2.2161e-06
3325.66	2.13946e-06
3334.34	2.09558e-06
3343.02	1.73147e-06
3351.7	1.56763e-06
3360.37	1.24792e-06
3369.05	1.09049e-06
3377.73	1.40787e-06
3386.41	2.18133e-06
3395.09	2.04127e-06
3403.77	1.66593e-06
3412.44	9.92392e-07
3421.12	1.0159e-06
3429.8	1.32713e-06
3438.48	1.60456e-06
3447.16	1.31154e-06
3455.83	9.24096e-07
3464.51	7.18917e-07
3473.19	8.70618e-07
3481.87	1.09919e-06
3490.55	9.58211e-07
3499.22	5.94839e-07
3507.9	3.36706e-07
3516.58	1.67377e-07
3525.26	1.11449e-07
3533.94	6.13542e-08
3542.62	1.07534e-07
3551.29	1.26676e-07
3559.97	6.62236e-08
3568.65	1.27398e-07
3577.33	1.66364e-08
3586.01	1.51994e-07
3594.68	8.26672e-08
3603.36	9.91162e-08
3612.04	2.62175e-07
3620.72	5.37454e-08
3629.4	5.30917e-07
3638.08	8.5774e-08
3646.75	3.04248e-07
3655.43	1.93407e-07
3664.11	1.51399e-07
3672.79	1.88743e-07
3681.47	1.76756e-07
3690.14	2.659e-07
3698.82	4.04297e-07
3707.5	4.60367e-07
3716.18	4.29203e-07
3724.86	3.74406e-07
3733.54	1.74653e-07
3742.21	3.45768e-07
3750.89	1.43858e-07
3759.57	5.07377e-07
3768.25	4.04405e-07
3776.93	4.60244e-07
3785.6	5.53399e-07
3794.28	5.10106e-07
3802.96	6.06208e-07
3811.64	6.86001e-07
3820.32	9.44398e-07
3828.99	9.2338e-07
3837.67	1.64983e-06
3846.35	9.40342e-07
3855.03	1.12763e-06
3863.71	9.60269e-07
3872.39	1.08707e-06
3881.06	1.46803e-06
3889.74	1.75065e-06
3898.42	2.0294e-06
3907.1	2.31195e-06
3915.78	2.73187e-06
3924.45	2.90544e-06
3933.13	2.52969e-06
3941.81	2.02674e-06
3950.49	1.80458e-06
3959.17	1.99069e-06
3967.85	2.17337e-06
