Infrared Spectrum: CYCLOPENTYLCYCLOPENTANE
Formula: C10 H18
CAS: 1636-39-1
State: SOLUTION (20% IN CCl4 FOR 4000-1300 CM^-^1, 20% IN CS2 FOR 1300-450 CM^-^1) VS. SOLVENT
Class: COBLENTZ III
Instrument: CARY 90 (GRATING)
Instrument parameters: GRATING CHANGES AT 3000, 2000, 1200 CM^-^1
Sampling: TRANSMISSION
Path length: 0.01 CM, 0.01 CM
Resolution: 4
Origin: WESTERN REGIONAL RES. USDA
1/CM	TRANSMITTANCE
478.352	0.744
487.372	0.756
496.392	0.766
505.412	0.776
514.431	0.782
523.451	0.784
532.471	0.782
541.491	0.777
550.511	0.768
559.531	0.764
568.551	0.767
577.57	0.772
586.59	0.775
595.61	0.779
604.63	0.784
613.65	0.782
622.67	0.784
631.69	0.786
640.709	0.791
649.729	0.794
658.749	0.797
667.769	0.799
676.789	0.796
685.809	0.794
694.829	0.792
703.848	0.788
712.868	0.788
721.888	0.788
730.908	0.787
739.928	0.785
748.948	0.781
757.968	0.778
766.987	0.776
776.007	0.774
785.027	0.773
794.047	0.777
803.067	0.776
812.087	0.776
821.107	0.775
830.126	0.775
839.146	0.779
848.166	0.775
857.186	0.769
866.206	0.765
875.226	0.733
884.246	0.67
893.265	0.687
902.285	0.72
911.305	0.688
920.325	0.633
929.345	0.696
938.365	0.738
947.385	0.747
956.404	0.762
965.424	0.768
974.444	0.774
983.464	0.777
992.484	0.777
1001.5	0.772
1010.52	0.767
1019.54	0.757
1028.56	0.757
1037.58	0.768
1046.6	0.774
1055.62	0.777
1064.64	0.782
1073.66	0.793
1082.68	0.795
1091.7	0.787
1100.72	0.775
1109.74	0.776
1118.76	0.778
1127.78	0.781
1136.8	0.781
1145.82	0.769
1154.84	0.747
1163.86	0.731
1172.88	0.718
1181.9	0.712
1190.92	0.707
1199.94	0.702
1208.96	0.697
1217.98	0.685
1227	0.67
1236.02	0.659
1245.04	0.653
1254.06	0.677
1263.08	0.691
1272.1	0.686
1281.12	0.658
1290.14	0.627
1299.16	0.603
1308.18	0.624
1317.2	0.612
1326.22	0.504
1335.24	0.698
1344.26	0.737
1353.28	0.718
1362.3	0.714
1371.32	0.758
1380.34	0.773
1389.36	0.762
1398.38	0.75
1407.4	0.733
1416.42	0.7
1425.44	0.658
1434.46	0.545
1443.48	0.281
1452.5	0.2241
1461.52	0.496
1470.54	0.459
1479.56	0.5771
1488.58	0.7
1497.6	0.743
1506.62	0.775
1515.64	0.787
1524.66	0.802
1533.68	0.817
1542.7	0.825
1551.71	0.835
1560.73	0.841
1569.75	0.826
1578.77	0.828
1587.79	0.834
1596.81	0.827
1605.83	0.82
1614.85	0.816
1623.87	0.813
1632.89	0.812
1641.91	0.813
1650.93	0.812
1659.95	0.811
1668.97	0.808
1677.99	0.808
1687.01	0.809
1696.03	0.805
1705.05	0.801
1714.07	0.797
1723.09	0.801
1732.11	0.806
1741.13	0.811
1750.15	0.812
1759.17	0.809
1768.19	0.813
1777.21	0.819
1786.23	0.82
1795.25	0.817
1804.27	0.819
1813.29	0.82
1822.31	0.821
1831.33	0.822
1840.35	0.821
1849.37	0.818
1858.39	0.82
1867.41	0.825
1876.43	0.826
1885.45	0.827
1894.47	0.827
1903.49	0.828
1912.51	0.829
1921.53	0.829
1930.55	0.828
1939.57	0.825
1948.59	0.82
1957.61	0.819
1966.63	0.828
1975.65	0.836
1984.67	0.835
1993.69	0.809
2002.71	0.803
2011.73	0.805
2020.75	0.806
2029.77	0.808
2038.79	0.809
2047.81	0.81
2056.83	0.811
2065.85	0.813
2074.87	0.814
2083.89	0.816
2092.91	0.817
2101.93	0.817
2110.95	0.8166
2119.97	0.816
2128.99	0.8136
2138.01	0.812
2147.03	0.8106
2156.05	0.8086
2165.07	0.806
2174.09	0.804
2183.1	0.803
2192.12	0.804
2201.14	0.8044
2210.16	0.805
2219.18	0.805
2228.2	0.8067
2237.22	0.8084
2246.24	0.811
2255.26	0.812
2264.28	0.813
2273.3	0.813
2282.32	0.813
2291.34	0.814
2300.36	0.817
2309.38	0.8183
2318.4	0.82
2327.42	0.822
2336.44	0.822
2345.46	0.823
2354.48	0.823
2363.5	0.825
2372.52	0.8263
2381.54	0.8273
2390.56	0.829
2399.58	0.8283
2408.6	0.829
2417.62	0.83
2426.64	0.8302
2435.66	0.8308
2444.68	0.828
2453.7	0.8258
2462.72	0.822
2471.74	0.82
2480.76	0.8212
2489.78	0.823
2498.8	0.8282
2507.82	0.829
2516.84	0.829
2525.86	0.828
2534.88	0.8246
2543.9	0.82
2552.92	0.8138
2561.94	0.8108
2570.96	0.8088
2579.98	0.806
2589	0.8058
2598.02	0.8052
2607.04	0.8081
2616.06	0.811
2625.08	0.814
2634.1	0.8171
2643.12	0.8221
2652.14	0.8271
2661.16	0.8299
2670.18	0.8269
2679.2	0.8199
2688.22	0.816
2697.24	0.814
2706.26	0.814
2715.28	0.814
2724.3	0.814
2733.32	0.8129
2742.34	0.8049
2751.36	0.7959
2760.38	0.7908
2769.4	0.7769
2778.42	0.7669
2787.44	0.7548
2796.46	0.7397
2805.48	0.7058
2814.49	0.6699
2823.51	0.4887
2832.53	0.4106
2841.55	0.334
2850.57	0.2499
2859.59	0.1821
2868.61	0.141
2877.63	0.2047
2886.65	0.2639
2895.67	0.2622
2904.69	0.2162
2913.71	0.205
2922.73	0.203
2931.75	0.1835
2940.77	0.1336
2949.79	0.0824
2958.81	0.0785
2967.83	0.1531
2976.85	0.2466
2985.87	0.396
2994.89	0.4936
3003.91	0.5702
3012.93	0.6451
3021.95	0.6999
3030.97	0.7313
3039.99	0.7615
3049.01	0.7857
3058.03	0.7996
3067.05	0.8126
3076.07	0.8219
3085.09	0.8299
3094.11	0.8369
3103.13	0.8427
3112.15	0.8478
3121.17	0.853
3130.19	0.8558
3139.21	0.86
3148.23	0.862
3157.25	0.862
3166.27	0.86
3175.29	0.858
3184.31	0.857
3193.33	0.8578
3202.35	0.86
3211.37	0.862
3220.39	0.863
3229.41	0.8628
3238.43	0.864
3247.45	0.8658
3256.47	0.867
3265.49	0.867
3274.51	0.869
3283.53	0.869
3292.55	0.869
3301.57	0.869
3310.59	0.87
3319.61	0.87
3328.63	0.87
3337.65	0.871
3346.67	0.871
3355.69	0.8693
3364.71	0.867
3373.73	0.866
3382.75	0.867
3391.77	0.869
3400.79	0.87
3409.81	0.869
3418.83	0.866
3427.85	0.865
3436.87	0.864
3445.88	0.8637
3454.9	0.863
3463.92	0.861
3472.94	0.86
3481.96	0.8587
3490.98	0.858
3500	0.858
3509.02	0.86
3518.04	0.86
3527.06	0.8616
3536.08	0.864
3545.1	0.8682
3554.12	0.8706
3563.14	0.8726
3572.16	0.875
3581.18	0.8772
3590.2	0.879
3599.22	0.8796
3608.24	0.881
3617.26	0.8826
3626.28	0.884
3635.3	0.883
3644.32	0.8815
3653.34	0.88
3662.36	0.879
3671.38	0.876
3680.4	0.874
3689.42	0.8725
3698.44	0.87
3707.46	0.8665
3716.48	0.865
3725.5	0.8665
3734.52	0.8695
3743.54	0.872
3752.56	0.871
3761.58	0.8695
3770.6	0.8655
3779.62	0.863
3788.64	0.8605
3797.66	0.858
3806.68	0.8565
3815.7	0.856
3824.72	0.856
3833.74	0.856
3842.76	0.857
3851.78	0.858
3860.8	0.86
3869.82	0.862
3878.84	0.864
3887.86	0.866
3896.88	0.8694
3905.9	0.872
3914.92	0.8744
3923.94	0.876
3932.96	0.878
3941.98	0.878
3951	0.878
3960.02	0.879
3969.04	0.88
3978.06	0.8813
3987.08	0.8823
3996.1	0.884
4005.12	0.886
