Infrared Spectrum: 2-PENTANONE, (2,4-DINITROPHENYL)HYDRAZONE
Formula: C11 H14 N4 O4
CAS: 1636-82-4
State: SOLID (1 mg / 200 mg KBr DISC) VS. KBr
Class: COBLENTZ III
Instrument: BECKMAN IR-4 (HYBRID PRISM-GRATING)
Sampling: TRANSMISSION
Resolution: 4
Origin: UNIVERSITY OF FLORIDA
MICROMETERS	TRANSMITTANCE
2	0.625
2.03669	0.63
2.07339	0.638
2.11008	0.643
2.14677	0.648
2.18347	0.649
2.22016	0.652
2.25685	0.655
2.29355	0.663
2.33024	0.668
2.36693	0.673
2.40363	0.676
2.44032	0.681
2.47701	0.685
2.51371	0.689
2.5504	0.694
2.5871	0.699
2.62379	0.703
2.66048	0.71
2.69718	0.709
2.73387	0.713
2.77056	0.711
2.80726	0.721
2.84395	0.719
2.88064	0.722
2.91734	0.727
2.95403	0.726
2.99072	0.726
3.02742	0.607
3.06411	0.716
3.1008	0.728
3.1375	0.734
3.17419	0.735
3.21088	0.717
3.24758	0.697
3.28427	0.73
3.32096	0.735
3.35766	0.701
3.39435	0.604
3.43104	0.668
3.46774	0.661
3.50443	0.702
3.54112	0.729
3.57782	0.735
3.61451	0.746
3.65121	0.749
3.6879	0.754
3.72459	0.758
3.76129	0.762
3.79798	0.766
3.83467	0.769
3.87137	0.776
3.90806	0.774
3.94475	0.776
3.98145	0.78
4.01814	0.782
4.05483	0.782
4.09153	0.78
4.12822	0.779
4.16491	0.781
4.20161	0.786
4.2383	0.802
4.27499	0.808
4.31169	0.805
4.34838	0.801
4.38507	0.799
4.42177	0.798
4.45846	0.8
4.49515	0.802
4.53185	0.803
4.56854	0.803
4.60523	0.805
4.64193	0.808
4.67862	0.812
4.71532	0.815
4.75201	0.812
4.7887	0.819
4.8254	0.812
4.86209	0.815
4.89878	0.812
4.93548	0.815
4.97217	0.823
5.00886	0.816
5.04556	0.804
5.08225	0.812
5.11894	0.82
5.15564	0.818
5.19233	0.825
5.22902	0.826
5.26572	0.824
5.30241	0.825
5.3391	0.825
5.3758	0.823
5.41249	0.82
5.44918	0.813
5.48588	0.807
5.52257	0.82
5.55926	0.823
5.59596	0.822
5.63265	0.816
5.66934	0.82
5.70604	0.818
5.74273	0.821
5.77943	0.816
5.81612	0.806
5.85281	0.812
5.88951	0.801
5.9262	0.802
5.96289	0.795
5.99959	0.787
6.03628	0.762
6.07297	0.701
6.10967	0.628
6.14636	0.335
6.18305	0.22
6.21975	0.464
6.25644	0.419
6.29313	0.207
6.32983	0.363
6.36652	0.55
6.40321	0.704
6.43991	0.746
6.4766	0.706
6.51329	0.613
6.54999	0.519
6.58668	0.346
6.62337	0.384
6.66007	0.414
6.69676	0.496
6.73345	0.658
6.77015	0.696
6.80684	0.695
6.84354	0.625
6.88023	0.636
6.91692	0.641
6.95362	0.628
6.99031	0.584
7.027	0.436
7.0637	0.268
7.10039	0.318
7.13708	0.589
7.17378	0.695
7.21047	0.708
7.24716	0.682
7.28386	0.64
7.32055	0.415
7.35724	0.425
7.39394	0.524
7.43063	0.427
7.46732	0.14
7.50402	0.107
7.54071	0.269
7.5774	0.341
7.6141	0.266
7.65079	0.25
7.68748	0.227
7.72418	0.36
7.76087	0.484
7.79756	0.501
7.83426	0.461
7.87095	0.402
7.90765	0.257
7.94434	0.133
7.98103	0.147
8.01773	0.256
8.05442	0.489
8.09111	0.62
8.12781	0.641
8.1645	0.529
8.20119	0.331
8.23789	0.436
8.27458	0.505
8.31127	0.593
8.34797	0.643
8.38466	0.676
8.42135	0.7
8.45805	0.712
8.49474	0.721
8.53143	0.735
8.56813	0.748
8.60482	0.758
8.64151	0.75
8.67821	0.725
8.7149	0.584
8.75159	0.464
8.78829	0.421
8.82498	0.338
8.86167	0.303
8.89837	0.37
8.93506	0.409
8.97176	0.451
9.00845	0.501
9.04514	0.552
9.08184	0.589
9.11853	0.609
9.15522	0.625
9.19192	0.634
9.22861	0.627
9.2653	0.62
9.302	0.568
9.33869	0.427
9.37538	0.46
9.41208	0.575
9.44877	0.638
9.48546	0.62
9.52216	0.539
9.55885	0.587
9.59554	0.646
9.63224	0.677
9.66893	0.695
9.70562	0.707
9.74232	0.718
9.77901	0.726
9.8157	0.73
9.8524	0.734
9.88909	0.735
9.92578	0.735
9.96248	0.735
9.99917	0.733
10.0359	0.731
10.0726	0.727
10.1093	0.722
10.1459	0.724
10.1826	0.732
10.2193	0.742
10.256	0.753
10.2927	0.758
10.3294	0.763
10.3661	0.765
10.4028	0.771
10.4395	0.775
10.4762	0.777
10.5129	0.776
10.5496	0.775
10.5863	0.776
10.623	0.78
10.6597	0.78
10.6963	0.778
10.733	0.772
10.7697	0.744
10.8064	0.673
10.8431	0.611
10.8798	0.671
10.9165	0.659
10.9532	0.601
10.9899	0.684
11.0266	0.73
11.0633	0.755
11.1	0.764
11.1367	0.766
11.1734	0.769
11.2101	0.769
11.2467	0.766
11.2834	0.771
11.3201	0.777
11.3568	0.776
11.3935	0.772
11.4302	0.773
11.4669	0.769
11.5036	0.768
11.5403	0.767
11.577	0.768
11.6137	0.77
11.6504	0.774
11.6871	0.775
11.7238	0.754
11.7605	0.683
11.7972	0.53
11.8338	0.552
11.8705	0.634
11.9072	0.708
11.9439	0.741
11.9806	0.733
12.0173	0.722
12.054	0.696
12.0907	0.636
12.1274	0.689
12.1641	0.75
12.2008	0.773
12.2375	0.778
12.2742	0.78
12.3109	0.782
12.3476	0.789
12.3842	0.79
12.4209	0.782
12.4576	0.781
12.4943	0.788
12.531	0.786
12.5677	0.778
12.6044	0.779
12.6411	0.786
12.6778	0.776
12.7145	0.776
12.7512	0.778
12.7879	0.784
12.8246	0.781
12.8613	0.775
12.898	0.78
12.9346	0.782
12.9713	0.778
13.008	0.779
13.0447	0.774
13.0814	0.767
13.1181	0.762
13.1548	0.721
13.1915	0.748
13.2282	0.762
13.2649	0.763
13.3016	0.758
13.3383	0.743
13.375	0.717
13.4117	0.654
13.4484	0.51
13.485	0.502
13.5217	0.606
13.5584	0.682
13.5951	0.721
13.6318	0.727
13.6685	0.718
13.7052	0.699
13.7419	0.652
13.7786	0.59
13.8153	0.551
13.852	0.573
13.8887	0.639
13.9254	0.685
13.9621	0.697
13.9988	0.711
14.0355	0.715
14.0721	0.717
14.1088	0.717
14.1455	0.721
14.1822	0.72
14.2189	0.719
14.2556	0.711
14.2923	0.71
14.329	0.71
14.3657	0.703
14.4024	0.7
14.4391	0.691
14.4758	0.678
14.5125	0.668
14.5492	0.648
14.5859	0.638
14.6225	0.639
14.6592	0.649
14.6959	0.652
14.7326	0.659
14.7693	0.663
14.806	0.665
14.8427	0.665
14.8794	0.663
14.9161	0.668
14.9528	0.663
14.9895	0.662
15.0262	0.665
