Infrared Spectrum: 1-HEPTANETHIOL
Formula: C7 H16 S
CAS: 1639-09-4
State: LIQUID
Boiling point: 174-176 C
Class: COBLENTZ
Instrument: Not specified, most likely a prism, grating, or hybrid spectrometer.
Sampling: TRANSMISSION
Path length: 0.005 CM
Resolution: 4
Origin: WYANDOTTE CHEMICALS CORP., WYANDOTTE, MICHIGAN, USA
MICROMETERS	TRANSMITTANCE
2.031	0.996
2.06812	0.99
2.10524	0.992
2.14235	0.981
2.17947	0.919
2.21659	0.832
2.25371	0.817
2.29082	0.82
2.32794	0.831
2.36506	0.848
2.40218	0.871
2.43929	0.894
2.47641	0.91
2.51353	0.917
2.55065	0.91
2.58777	0.906
2.62488	0.913
2.662	0.91
2.69912	0.897
2.73624	0.903
2.77335	0.913
2.81047	0.913
2.84759	0.91
2.88471	0.91
2.92182	0.906
2.95894	0.899
2.99606	0.903
3.03318	0.897
3.0703	0.883
3.10741	0.849
3.14453	0.81
3.18165	0.813
3.21877	0.77
3.25588	0.679
3.293	0.499
3.33012	0.105
3.36724	0.026
3.40435	0.023
3.44147	0.024
3.47859	0.029
3.51571	0.106
3.55283	0.446
3.58994	0.604
3.62706	0.666
3.66418	0.652
3.7013	0.693
3.73841	0.662
3.77553	0.703
3.81265	0.719
3.84977	0.713
3.88688	0.648
3.924	0.651
3.96112	0.747
3.99824	0.798
4.03536	0.817
4.07247	0.818
4.10959	0.837
4.14671	0.837
4.18383	0.829
4.22094	0.831
4.25806	0.849
4.29518	0.841
4.3323	0.86
4.36942	0.849
4.40653	0.851
4.44365	0.854
4.48077	0.857
4.51789	0.851
4.555	0.86
4.59212	0.857
4.62924	0.844
4.66636	0.849
4.70347	0.857
4.74059	0.863
4.77771	0.868
4.81483	0.863
4.85195	0.86
4.88906	0.862
4.92618	0.858
4.9633	0.851
5.00042	0.858
5.03753	0.858
5.07465	0.857
5.11177	0.868
5.14889	0.865
5.186	0.862
5.22312	0.868
5.26024	0.865
5.29736	0.866
5.33448	0.869
5.37159	0.866
5.40871	0.866
5.44583	0.868
5.48295	0.866
5.52006	0.862
5.55718	0.862
5.5943	0.862
5.63142	0.863
5.66853	0.849
5.70565	0.849
5.74277	0.841
5.77989	0.849
5.81701	0.844
5.85412	0.841
5.89124	0.829
5.92836	0.826
5.96548	0.831
6.00259	0.831
6.03971	0.826
6.07683	0.823
6.11395	0.82
6.15106	0.82
6.18818	0.81
6.2253	0.813
6.26242	0.817
6.29954	0.809
6.33665	0.81
6.37377	0.798
6.41089	0.789
6.44801	0.778
6.48512	0.759
6.52224	0.748
6.55936	0.724
6.59648	0.679
6.63359	0.655
6.67071	0.578
6.70783	0.452
6.74495	0.186
6.78207	0.034
6.81918	0.052
6.8563	0.096
6.89342	0.133
6.93054	0.161
6.96765	0.255
7.00477	0.491
7.04189	0.582
7.07901	0.612
7.11612	0.634
7.15324	0.596
7.19036	0.423
7.22748	0.217
7.2646	0.415
7.30171	0.483
7.33883	0.516
7.37595	0.491
7.41307	0.505
7.45018	0.548
7.4873	0.587
7.52442	0.559
7.56154	0.474
7.59865	0.359
7.63577	0.313
7.67289	0.31
7.71001	0.341
7.74713	0.299
7.78424	0.246
7.82136	0.237
7.85848	0.415
7.8956	0.502
7.93271	0.423
7.96983	0.341
8.00695	0.386
8.04407	0.417
8.08118	0.477
8.1183	0.589
8.15542	0.654
8.19254	0.627
8.22966	0.584
8.26677	0.621
8.30389	0.663
8.34101	0.691
8.37813	0.702
8.41524	0.71
8.45236	0.694
8.48948	0.679
8.5266	0.686
8.56372	0.705
8.60083	0.733
8.63795	0.751
8.67507	0.77
8.71219	0.789
8.7493	0.792
8.78642	0.77
8.82354	0.739
8.86066	0.669
8.89777	0.598
8.93489	0.572
8.97201	0.561
9.00913	0.565
9.04625	0.584
9.08336	0.646
9.12048	0.693
9.1576	0.705
9.19472	0.71
9.23183	0.696
9.26895	0.703
9.30607	0.714
9.34319	0.702
9.3803	0.675
9.41742	0.663
9.45454	0.68
9.49166	0.696
9.52878	0.703
9.56589	0.706
9.60301	0.696
9.64013	0.688
9.67725	0.697
9.71436	0.693
9.75148	0.697
9.7886	0.7
9.82572	0.702
9.86283	0.702
9.89995	0.706
9.93707	0.71
9.97419	0.706
10.0113	0.693
10.0484	0.683
10.0855	0.686
10.1227	0.693
10.1598	0.702
10.1969	0.711
10.234	0.717
10.2711	0.714
10.3082	0.699
10.3454	0.688
10.3825	0.682
10.4196	0.671
10.4567	0.672
10.4938	0.665
10.531	0.662
10.5681	0.649
10.6052	0.638
10.6423	0.638
10.6794	0.629
10.7165	0.627
10.7537	0.62
10.7908	0.613
10.8279	0.606
10.865	0.612
10.9021	0.613
10.9392	0.61
10.9764	0.618
11.0135	0.635
11.0506	0.648
11.0877	0.654
11.1248	0.663
11.162	0.663
11.1991	0.658
11.2362	0.651
11.2733	0.652
11.3104	0.665
11.3475	0.68
11.3847	0.685
11.4218	0.694
11.4589	0.696
11.496	0.693
11.5331	0.683
11.5702	0.682
11.6074	0.686
11.6445	0.689
11.6816	0.688
11.7187	0.691
11.7558	0.689
11.793	0.683
11.8301	0.686
11.8672	0.691
11.9043	0.694
11.9414	0.7
11.9785	0.696
12.0157	0.697
12.0528	0.699
12.0899	0.685
12.127	0.689
12.1641	0.685
12.2012	0.689
12.2384	0.683
12.2755	0.688
12.3126	0.7
12.3497	0.703
12.3868	0.697
12.424	0.699
12.4611	0.699
12.4982	0.696
12.5353	0.688
12.5724	0.677
12.6095	0.672
12.6467	0.672
12.6838	0.682
12.7209	0.688
12.758	0.679
12.7951	0.669
12.8323	0.66
12.8694	0.644
12.9065	0.629
12.9436	0.603
12.9807	0.592
13.0178	0.59
13.055	0.59
13.0921	0.587
13.1292	0.586
13.1663	0.582
13.2034	0.582
13.2405	0.584
13.2777	0.584
13.3148	0.581
13.3519	0.573
13.389	0.564
13.4261	0.533
13.4633	0.513
13.5004	0.493
13.5375	0.474
13.5746	0.446
13.6117	0.404
13.6488	0.375
13.686	0.336
13.7231	0.297
13.7602	0.255
13.7973	0.224
13.8344	0.198
13.8715	0.217
13.9087	0.265
13.9458	0.322
13.9829	0.362
14.02	0.403
14.0571	0.432
14.0943	0.444
14.1314	0.457
14.1685	0.465
14.2056	0.48
14.2427	0.506
14.2798	0.536
14.317	0.568
14.3541	0.589
14.3912	0.607
14.4283	0.638
14.4654	0.657
14.5025	0.672
14.5397	0.689
14.5768	0.7
14.6139	0.713
14.651	0.724
14.6881	0.724
14.7253	0.739
14.7624	0.737
14.7995	0.742
14.8366	0.741
14.8737	0.745
14.9108	0.741
14.948	0.741
14.9851	0.733
15.0222	0.72
15.0593	0.713
15.0964	0.719
15.1335	0.72
15.1707	0.711
15.2078	0.7
15.2449	0.679
15.282	0.666
15.3191	0.648
15.3563	0.648
15.3934	0.641
15.4305	0.651
15.4676	0.657
15.5047	0.674
15.5418	0.688
15.579	0.696
15.6161	0.689
15.6532	0.699
15.6903	0.702
15.7274	0.7
15.7645	0.7
15.8017	0.691
15.8388	0.694
15.8759	0.694
15.913	0.694
15.9501	0.688
15.9873	0.693
