Infrared Spectrum: 2-PENTADECANOL
Formula: C15 H32 O
CAS: 1653-34-5
State: SOLID (SPLIT MULL), FLUOROLUBE FOR 3800-1335 CM^-^1, NUJOL FOR 1335-450 CM^-^1
Melting point: 34 C
Class: COBLENTZ III
Instrument: DOW KBr FOREPRISM-GRATING
Instrument parameters: BLAZED AT 3.5, 12.0, 20.0 MICRON AND CHANGED AT 5.0, 7.5, 14.9 MICRON
Sampling: TRANSMISSION
Resolution: 2
Origin: DOW CHEMICAL COMPANY
1/CM	TRANSMITTANCE
456	0.7797
465	0.7836
474	0.7845
483	0.7851
492	0.7838
501	0.7812
510	0.7792
519	0.7742
528	0.7676
537	0.7664
546	0.7721
555	0.7778
564	0.7765
573	0.7782
582	0.7942
591	0.7937
600	0.7864
609	0.7734
618	0.7676
627	0.7818
636	0.7876
645	0.7886
654	0.7824
663	0.7888
672	0.7868
681	0.7892
690	0.7557
699	0.7341
708	0.7375
717	0.7067
726	0.7385
735	0.7724
744	0.7861
753	0.7921
762	0.7955
771	0.7971
780	0.7965
789	0.7938
798	0.7904
807	0.7818
816	0.7786
825	0.7617
834	0.711
843	0.7371
852	0.75
861	0.7518
870	0.7633
879	0.7615
888	0.7582
897	0.7538
906	0.7456
915	0.7356
924	0.7214
933	0.7118
942	0.7128
951	0.7208
960	0.7294
969	0.7248
978	0.7138
987	0.7008
996	0.6931
1005	0.6917
1014	0.6881
1023	0.6911
1032	0.6815
1041	0.6701
1050	0.6611
1059	0.6607
1068	0.6565
1077	0.6588
1086	0.6507
1095	0.6327
1104	0.6099
1113	0.5664
1122	0.5738
1131	0.549
1140	0.571
1149	0.6283
1158	0.6476
1167	0.6636
1176	0.6494
1185	0.6357
1194	0.6492
1203	0.6471
1212	0.6585
1221	0.6648
1230	0.6807
1239	0.6784
1248	0.6739
1257	0.668
1266	0.6565
1275	0.6418
1284	0.6253
1293	0.6094
1302	0.592
1311	0.5893
1320	0.5917
1329	0.6525
1338	0.7251
1347	0.7262
1356	0.7258
1365	0.7034
1374	0.6632
1383	0.7265
1392	0.7726
1401	0.7678
1410	0.7644
1419	0.7667
1428	0.759
1437	0.7291
1446	0.6947
1455	0.6171
1464	0.5854
1473	0.7508
1482	0.8254
1491	0.8437
1500	0.8508
1509	0.8557
1518	0.8593
1527	0.8628
1536	0.8668
1545	0.8703
1554	0.8714
1563	0.8712
1572	0.8715
1581	0.8706
1590	0.8695
1599	0.8693
1608	0.8694
1617	0.8697
1626	0.8701
1635	0.873
1644	0.8728
1653	0.8725
1662	0.8725
1671	0.8739
1680	0.8753
1689	0.876
1698	0.8757
1707	0.8741
1716	0.876
1725	0.879
1734	0.8804
1743	0.8775
1752	0.8767
1761	0.8771
1770	0.8768
1779	0.876
1788	0.875
1797	0.8744
1806	0.8743
1815	0.8754
1824	0.8766
1833	0.8777
1842	0.8787
1851	0.8792
1860	0.8783
1869	0.8771
1878	0.8767
1887	0.8766
1896	0.8752
1905	0.8747
1914	0.8746
1923	0.8747
1932	0.8747
1941	0.8748
1950	0.8777
1959	0.88
1968	0.8763
1977	0.8765
1986	0.8764
1995	0.883
2004	0.8898
2013	0.8899
2022	0.8902
2031	0.8896
2040	0.8894
2049	0.8893
2058	0.8893
2067	0.8893
2076	0.8891
2085	0.8885
2094	0.8878
2103	0.8875
2112	0.8874
2121	0.8874
2130	0.8873
2139	0.8871
2148	0.8871
2157	0.8863
2166	0.8846
2175	0.8839
2184	0.8828
2193	0.882
2202	0.8815
2211	0.881
2220	0.8805
2229	0.8798
2238	0.8792
2247	0.8782
2256	0.8771
2265	0.8761
2274	0.8754
2283	0.8752
2292	0.8752
2301	0.8744
2310	0.8738
2319	0.8751
2328	0.8841
2337	0.8803
2346	0.8816
2355	0.8799
2364	0.8735
2373	0.8699
2382	0.8692
2391	0.8694
2400	0.8697
2409	0.8699
2418	0.8696
2427	0.8692
2436	0.8681
2445	0.867
2454	0.8659
2463	0.8649
2472	0.8636
2481	0.8621
2490	0.8606
2499	0.859
2508	0.8571
2517	0.8552
2526	0.8533
2535	0.8513
2544	0.8493
2553	0.8471
2562	0.8452
2571	0.843
2580	0.8404
2589	0.8377
2598	0.8351
2607	0.8323
2616	0.8292
2625	0.8259
2634	0.8227
2643	0.82
2652	0.8188
2661	0.8175
2670	0.8164
2679	0.8165
2688	0.8165
2697	0.814
2706	0.8096
2715	0.8061
2724	0.8035
2733	0.8012
2742	0.799
2751	0.7958
2760	0.7881
2769	0.779
2778	0.7684
2787	0.7549
2796	0.7339
2805	0.7122
2814	0.6743
2823	0.6293
2832	0.5825
2841	0.4168
2850	0.1996
2859	0.2459
2868	0.4172
2877	0.4436
2886	0.3749
2895	0.293
2904	0.211
2913	0.1285
2922	0.1264
2931	0.1482
2940	0.3085
2949	0.3791
2958	0.3534
2967	0.4462
2976	0.6043
2985	0.7246
2994	0.7671
3003	0.7936
3012	0.806
3021	0.8118
3030	0.8141
3039	0.8143
3048	0.8128
3057	0.8115
3066	0.8096
3075	0.8065
3084	0.8031
3093	0.7981
3102	0.7912
3111	0.7822
3120	0.7726
3129	0.7622
3138	0.7517
3147	0.741
3156	0.7278
3165	0.7128
3174	0.6972
3183	0.6832
3192	0.6692
3201	0.6507
3210	0.6328
3219	0.6164
3228	0.5986
3237	0.588
3246	0.5805
3255	0.5755
3264	0.5705
3273	0.5639
3282	0.5537
3291	0.5426
3300	0.531
3309	0.5201
3318	0.5097
3327	0.5103
3336	0.5167
3345	0.5307
3354	0.5435
3363	0.5564
3372	0.5723
3381	0.5885
3390	0.6045
3399	0.618
3408	0.6315
3417	0.6457
3426	0.6593
3435	0.6722
3444	0.6853
3453	0.6974
3462	0.7094
3471	0.7215
3480	0.7339
3489	0.7451
3498	0.756
3507	0.7655
3516	0.7751
3525	0.7844
3534	0.7924
3543	0.7989
3552	0.8031
3561	0.806
3570	0.8088
3579	0.8103
3588	0.8114
3597	0.8112
3606	0.8111
3615	0.8107
3624	0.8115
3633	0.8141
3642	0.8174
3651	0.8183
3660	0.8175
3669	0.8162
3678	0.8153
3687	0.8144
3696	0.8135
3705	0.8128
3714	0.8125
3723	0.8121
3732	0.8117
3741	0.8115
3750	0.8117
3759	0.8117
3768	0.8111
3777	0.8107
3786	0.8103
3795	0.8101
