Infrared Spectrum: 4-HEPTANONE, 2,4-DINITROPHENYL HYDRAZONE
Formula: C13 H18 N4 O4
CAS: 1655-41-0
State: SOLID (KBr PELLET)
Melting point: 72 C
Class: COBLENTZ
Instrument: Not specified, most likely a grating spectrometer.
Sampling: TRANSMISSION
Resolution: 4
Origin: CITRUS EXPERIMENT STATION, UNIVERSITY OF FLORIDA (G. EDWARDS)
MICROMETERS	TRANSMITTANCE
1.027	0.285
1.067	0.292
1.107	0.299
1.147	0.303
1.187	0.307
1.227	0.311
1.26699	0.317
1.30699	0.321
1.34699	0.327
1.38699	0.329
1.42699	0.335
1.46699	0.339
1.50699	0.345
1.54699	0.349
1.58699	0.353
1.62699	0.357
1.66699	0.36
1.70699	0.365
1.74698	0.367
1.78698	0.368
1.82698	0.369
1.86698	0.375
1.90698	0.38
1.94698	0.381
1.98698	0.383
2.02698	0.384
2.06698	0.385
2.10698	0.388
2.14698	0.391
2.18698	0.392
2.22697	0.395
2.26697	0.396
2.30697	0.399
2.34697	0.4
2.38697	0.4
2.42697	0.401
2.46697	0.401
2.50697	0.401
2.54697	0.401
2.58697	0.4
2.62697	0.399
2.66696	0.397
2.70696	0.392
2.74696	0.388
2.78696	0.381
2.82696	0.38
2.86696	0.38
2.90696	0.38
2.94696	0.377
2.98696	0.349
3.02696	0.415
3.06696	0.439
3.10696	0.441
3.14695	0.44
3.18695	0.425
3.22695	0.425
3.26695	0.427
3.30695	0.415
3.34695	0.348
3.38695	0.331
3.42695	0.376
3.46695	0.381
3.50695	0.436
3.54695	0.452
3.58695	0.46
3.62694	0.463
3.66694	0.468
3.70694	0.468
3.74694	0.469
3.78694	0.469
3.82694	0.469
3.86694	0.471
3.90694	0.472
3.94694	0.473
3.98694	0.473
4.02694	0.475
4.06693	0.479
4.10693	0.48
4.14693	0.484
4.18693	0.488
4.22693	0.489
4.26693	0.489
4.30693	0.489
4.34693	0.489
4.38693	0.492
4.42693	0.495
4.46693	0.496
4.50693	0.497
4.54692	0.499
4.58692	0.5
4.62692	0.504
4.66692	0.506
4.70692	0.507
4.74692	0.507
4.78692	0.507
4.82692	0.507
4.86692	0.507
4.90692	0.507
4.94692	0.507
4.98692	0.507
5.02691	0.51
5.06691	0.511
5.10691	0.516
5.14691	0.516
5.18691	0.515
5.22691	0.515
5.26691	0.515
5.30691	0.515
5.34691	0.515
5.38691	0.515
5.42691	0.515
5.4669	0.516
5.5069	0.515
5.5469	0.514
5.5869	0.51
5.6269	0.507
5.6669	0.499
5.7069	0.496
5.7469	0.496
5.7869	0.487
5.8269	0.483
5.8669	0.48
5.9069	0.479
5.94689	0.475
5.98689	0.467
6.02689	0.432
6.06689	0.389
6.10689	0.283
6.14689	0.22
6.18689	0.311
6.22689	0.34
6.26689	0.2
6.30689	0.267
6.34689	0.425
6.38688	0.441
6.42688	0.433
6.46688	0.355
6.50688	0.333
6.54688	0.335
6.58688	0.335
6.62688	0.337
6.66688	0.391
6.70688	0.452
6.74688	0.44
6.78688	0.42
6.82688	0.431
6.86687	0.441
6.90687	0.441
6.94687	0.413
6.98687	0.369
7.02687	0.269
7.06687	0.269
7.10687	0.436
7.14687	0.499
7.18687	0.488
7.22687	0.467
7.26687	0.449
7.30687	0.396
7.34686	0.329
7.38686	0.299
7.42686	0.21
7.46686	0.283
7.50686	0.383
7.54686	0.389
7.58686	0.289
7.62686	0.178
7.66686	0.216
7.70686	0.293
7.74686	0.327
7.78685	0.319
7.82685	0.289
7.86685	0.21
7.90685	0.11
7.94685	0.105
7.98685	0.225
8.02685	0.367
8.06685	0.423
8.10685	0.431
8.14685	0.369
8.18685	0.279
8.22685	0.312
8.26684	0.409
8.30684	0.463
8.34684	0.489
8.38684	0.51
8.42684	0.518
8.46684	0.524
8.50684	0.53
8.54684	0.531
8.58684	0.531
8.62684	0.527
8.66684	0.5
8.70684	0.437
8.74683	0.34
8.78683	0.291
8.82683	0.285
8.86683	0.34
8.90683	0.388
8.94683	0.412
8.98683	0.456
9.02683	0.475
9.06683	0.484
9.10683	0.488
9.14683	0.488
9.18682	0.484
9.22682	0.481
9.26682	0.468
9.30682	0.427
9.34682	0.405
9.38682	0.432
9.42682	0.456
9.46682	0.468
9.50682	0.475
9.54682	0.483
9.58682	0.503
9.62682	0.519
9.66681	0.54
9.70681	0.551
9.74681	0.56
9.78681	0.568
9.82681	0.575
9.86681	0.576
9.90681	0.578
9.94681	0.578
9.98681	0.578
10.0268	0.579
10.0668	0.579
10.1068	0.579
10.1468	0.579
10.1868	0.579
10.2268	0.578
10.2668	0.578
10.3068	0.578
10.3468	0.578
10.3868	0.578
10.4268	0.578
10.4668	0.576
10.5068	0.576
10.5468	0.574
10.5868	0.57
10.6268	0.57
10.6668	0.568
10.7068	0.558
10.7468	0.535
10.7868	0.485
10.8268	0.451
10.8668	0.472
10.9068	0.473
10.9468	0.507
10.9868	0.55
11.0268	0.568
11.0668	0.57
11.1068	0.576
11.1468	0.579
11.1868	0.579
11.2268	0.579
11.2668	0.579
11.3068	0.579
11.3468	0.579
11.3868	0.579
11.4268	0.579
11.4668	0.579
11.5068	0.579
11.5468	0.576
11.5868	0.576
11.6268	0.575
11.6668	0.572
11.7068	0.56
11.7468	0.542
11.7868	0.503
11.8268	0.463
11.8668	0.472
11.9068	0.503
11.9468	0.53
11.9868	0.526
12.0268	0.518
12.0668	0.548
12.1068	0.568
12.1468	0.574
12.1868	0.575
12.2268	0.575
12.2668	0.575
12.3068	0.574
12.3468	0.574
12.3868	0.572
12.4268	0.572
12.4668	0.572
12.5068	0.572
12.5468	0.571
12.5868	0.57
12.6268	0.57
12.6668	0.568
12.7067	0.567
12.7467	0.566
12.7867	0.563
12.8267	0.56
12.8667	0.558
12.9067	0.555
12.9467	0.554
12.9867	0.548
13.0267	0.546
13.0667	0.543
13.1067	0.542
13.1467	0.54
13.1867	0.54
13.2267	0.539
13.2667	0.534
13.3067	0.526
13.3467	0.508
13.3867	0.477
13.4267	0.409
13.4667	0.38
13.5067	0.424
13.5467	0.469
13.5867	0.485
13.6267	0.488
13.6667	0.483
13.7067	0.473
13.7467	0.453
13.7867	0.444
13.8267	0.447
13.8667	0.459
13.9067	0.472
13.9467	0.473
13.9867	0.473
14.0267	0.473
14.0667	0.472
14.1067	0.469
14.1467	0.468
14.1867	0.464
14.2267	0.46
14.2667	0.455
14.3067	0.449
14.3467	0.444
14.3867	0.437
14.4267	0.433
14.4667	0.431
14.5067	0.428
14.5467	0.424
14.5867	0.424
14.6267	0.424
14.6667	0.421
14.7067	0.419
14.7467	0.416
14.7867	0.409
14.8267	0.404
14.8667	0.392
14.9067	0.377
14.9467	0.363
14.9867	0.363
