Infrared Spectrum: CYCLOHEXANONE, 4-(1,1-DIMETHYLPROPYL)
Formula: C11 H20 O
CAS: 16587-71-6
State: LIQUID (NEAT)
Class: COBLENTZ III
Instrument: BECKMAN IR-12 (GRATING)
Instrument parameters: GRATING
Sampling: TRANSMISSION
Path length: CAPILLARY
Resolution: 2
Origin: COLGATE-PALMOLIVE COMPANY (KELLENBACH)
1/CM	TRANSMITTANCE
445	0.0014
454	0.0126
463	0.0275
472	0.0457
481	0.0702
490	0.1194
499	0.1317
508	0.1281
517	0.1479
526	0.2692
535	0.3349
544	0.3925
553	0.4457
562	0.4806
571	0.5153
580	0.5727
589	0.6226
598	0.6613
607	0.7022
616	0.7297
625	0.757
634	0.7798
643	0.7922
652	0.802
661	0.7892
670	0.7803
679	0.8195
688	0.8678
697	0.8852
706	0.8937
715	0.8959
724	0.8957
733	0.8794
742	0.8165
751	0.7517
760	0.5918
769	0.6864
778	0.8331
787	0.7739
796	0.8635
805	0.9022
814	0.9071
823	0.8941
832	0.8332
841	0.7417
850	0.8947
859	0.9056
868	0.907
877	0.9091
886	0.866
895	0.8307
904	0.8446
913	0.8685
922	0.7963
931	0.7356
940	0.6919
949	0.436
958	0.6343
967	0.8178
976	0.8313
985	0.6306
994	0.6222
1003	0.7708
1012	0.6667
1021	0.7098
1030	0.8068
1039	0.8017
1048	0.7495
1057	0.7224
1066	0.6606
1075	0.7214
1084	0.7998
1093	0.8078
1102	0.7251
1111	0.7649
1120	0.8325
1129	0.8304
1138	0.816
1147	0.7542
1156	0.4163
1165	0.1894
1174	0.5432
1183	0.6476
1192	0.5752
1201	0.4123
1210	0.3845
1219	0.4478
1228	0.5783
1237	0.6997
1246	0.6214
1255	0.6273
1264	0.7597
1273	0.7844
1282	0.6937
1291	0.5688
1300	0.739
1309	0.7365
1318	0.6933
1327	0.4245
1336	0.394
1345	0.4842
1354	0.6264
1363	0.5649
1372	0.4099
1381	0.3618
1390	0.3082
1399	0.6315
1408	0.5877
1417	0.4076
1426	0.3615
1435	0.3572
1444	0.3586
1453	0.2926
1462	0.2198
1471	0.211
1480	0.4491
1489	0.6681
1498	0.75
1507	0.7855
1516	0.8162
1525	0.8313
1534	0.8478
1543	0.8453
1552	0.8551
1561	0.851
1570	0.8505
1579	0.8439
1588	0.8511
1597	0.8505
1606	0.8441
1615	0.8242
1624	0.7995
1633	0.7667
1642	0.7538
1651	0.7178
1660	0.6239
1669	0.5614
1678	0.5184
1687	0.4891
1696	0.2769
1705	0.0712
1714	0.0157
1723	0.0139
1732	0.2551
1741	0.4469
1750	0.5857
1759	0.6699
1768	0.7238
1777	0.762
1786	0.79
1795	0.8071
1804	0.8193
1813	0.824
1822	0.8179
1831	0.8449
1840	0.8625
1849	0.8692
1858	0.875
1867	0.8761
1876	0.8777
1885	0.8785
1894	0.8776
1903	0.8756
1912	0.8705
1921	0.8662
1930	0.8756
1939	0.8811
1948	0.8817
1957	0.8814
1966	0.8815
1975	0.8814
1984	0.8792
1993	0.8761
2002	0.8769
2011	0.8818
2020	0.8852
2029	0.8871
2038	0.8873
2047	0.8842
2056	0.8779
2065	0.8727
2074	0.8699
2083	0.8695
2092	0.8707
2101	0.8741
2110	0.8783
2119	0.8822
2128	0.8825
2137	0.8777
2146	0.8761
2155	0.8747
2164	0.8737
2173	0.8731
2182	0.8723
2191	0.8714
2200	0.8704
2209	0.8695
2218	0.8692
2227	0.8691
2236	0.87
2245	0.8709
2254	0.8715
2263	0.8718
2272	0.8717
2281	0.8714
2290	0.8712
2299	0.8704
2308	0.8692
2317	0.8658
2326	0.862
2335	0.8579
2344	0.8541
2353	0.8502
2362	0.8466
2371	0.8465
2380	0.8492
2389	0.8523
2398	0.8553
2407	0.8582
2416	0.8611
2425	0.8632
2434	0.8599
2443	0.8552
2452	0.8511
2461	0.8529
2470	0.8583
2479	0.8601
2488	0.8587
2497	0.8571
2506	0.8561
2515	0.8553
2524	0.8543
2533	0.8532
2542	0.8522
2551	0.8504
2560	0.8479
2569	0.8448
2578	0.84
2587	0.8351
2596	0.8275
2605	0.8163
2614	0.8057
2623	0.8001
2632	0.8005
2641	0.8022
2650	0.7971
2659	0.7859
2668	0.7876
2677	0.7956
2686	0.8021
2695	0.8018
2704	0.7966
2713	0.789
2722	0.7803
2731	0.7736
2740	0.7759
2749	0.7835
2758	0.7827
2767	0.7752
2776	0.7611
2785	0.7412
2794	0.7124
2803	0.6788
2812	0.6114
2821	0.5371
2830	0.4629
2839	0.3964
2848	0.2646
2857	0.1307
2866	0.0784
2875	0.0629
2884	0.0908
2893	0.1162
2902	0.0958
2911	0.0753
2920	0.0596
2929	0.043
2938	0.0248
2947	0.0133
2956	0.0096
2965	0.0105
2974	0.0662
2983	0.1778
2992	0.5097
3001	0.5811
3010	0.6256
3019	0.6625
3028	0.695
3037	0.7202
3046	0.7366
3055	0.7499
3064	0.7609
3073	0.7735
3082	0.7848
3091	0.7901
3100	0.792
3109	0.7936
3118	0.7944
3127	0.7948
3136	0.7953
3145	0.7954
3154	0.7953
3163	0.7951
3172	0.795
3181	0.7948
3190	0.7947
3199	0.7948
3208	0.7953
3217	0.7967
3226	0.7985
3235	0.8007
3244	0.803
3253	0.8054
3262	0.8076
3271	0.8095
3280	0.8102
3289	0.8103
3298	0.8092
3307	0.8075
3316	0.8054
3325	0.8027
3334	0.7996
3343	0.7948
3352	0.7895
3361	0.7827
3370	0.7752
3379	0.7671
3388	0.7578
3397	0.7449
3406	0.7225
3415	0.7006
3424	0.7025
3433	0.7158
3442	0.7331
3451	0.736
3460	0.7357
3469	0.7336
3478	0.7287
3487	0.7239
3496	0.7219
3505	0.7218
3514	0.7215
3523	0.7244
3532	0.7292
3541	0.7357
3550	0.7428
3559	0.7499
3568	0.7568
3577	0.7653
3586	0.7676
3595	0.7721
3604	0.7778
3613	0.7772
3622	0.7766
3631	0.7804
3640	0.7844
3649	0.7885
3658	0.795
3667	0.8
3676	0.801
3685	0.8013
3694	0.8055
3703	0.8157
3712	0.8192
3721	0.8211
3730	0.8215
3739	0.82
3748	0.8181
3757	0.8194
3766	0.8226
3775	0.8254
3784	0.8261
3793	0.8246
3802	0.8228
3811	0.8204
3820	0.8193
3829	0.8193
3838	0.8184
3847	0.8142
3856	0.8118
3865	0.8108
3874	0.8108
3883	0.8107
3892	0.8105
3901	0.8099
3910	0.8092
3919	0.8079
3928	0.8056
3937	0.8033
3946	0.8021
3955	0.8016
3964	0.8014
3973	0.801
3982	0.8006
3991	0.7996
