Infrared Spectrum: 4-Chloro-2-nitrodiphenylamine
Formula: C12 H9 Cl N2 O2
CAS: 16611-15-7
State: SOLUTION (10% CCl4 FOR 3800-1335, 10% CS2 FOR 1335-460 CM^-^1)
Melting point: 62 C
Class: COBLENTZ III
Instrument: DOW KBr FOREPRISM-GRATING
Instrument parameters: BLAZED AT 3.5, 12.0, 20.0 MICRON AND CHANGED AT 5.0, 7.5, 14.9 MICRON
Sampling: TRANSMISSION
Path length: 0.010 CM, 0.010 CM
Resolution: 2
Origin: DOW CHEMICAL COMPANY
1/CM	TRANSMITTANCE
460	0.5495
469	0.5328
478	0.4915
487	0.4357
496	0.2774
505	0.3214
514	0.3264
523	0.2883
532	0.4899
541	0.5835
550	0.4851
559	0.5798
568	0.6172
577	0.641
586	0.6652
595	0.6965
604	0.7251
613	0.7301
622	0.7378
631	0.7473
640	0.6879
649	0.7495
658	0.7145
667	0.5539
676	0.7832
685	0.4912
694	0.0397
703	0.5987
712	0.689
721	0.5364
730	0.7482
739	0.7643
748	0.6299
757	0.0154
766	0.31
775	0.7388
784	0.8428
793	0.8488
802	0.7804
811	0.1678
820	0.4361
829	0.7008
838	0.7541
847	0.8162
856	0.4745
865	0.8215
874	0.8106
883	0.5532
892	0.6275
901	0.2875
910	0.7748
919	0.8566
928	0.8668
937	0.87
946	0.8658
955	0.8419
964	0.8435
973	0.8559
982	0.8613
991	0.8665
1000	0.8267
1009	0.8564
1018	0.8394
1027	0.6352
1036	0.8157
1045	0.7953
1054	0.7563
1063	0.6565
1072	0.3083
1081	0.65
1090	0.7715
1099	0.7533
1108	0.6003
1117	0.6832
1126	0.7012
1135	0.6594
1144	0.2319
1153	0.1527
1162	0.7145
1171	0.7794
1180	0.7798
1189	0.7464
1198	0.6339
1207	0.6043
1216	0.3232
1225	0.1047
1234	0.2459
1243	0.193
1252	-0.0036
1261	-0.0036
1270	0.0588
1279	0.2885
1288	0.3619
1297	0.4062
1306	0.5688
1315	0.606
1324	0.5399
1333	0.4367
1342	0.1402
1351	-0.0036
1360	0.3539
1369	0.6878
1378	0.7663
1387	0.7801
1396	0.7214
1405	0.5043
1414	0.1756
1423	0.1453
1432	0.4851
1441	0.6738
1450	0.5829
1459	0.3493
1468	0.4719
1477	0.2583
1486	0.029
1495	-0.0036
1504	-0.0036
1513	-0.0036
1522	-0.0036
1531	-0.0036
1540	0.0618
1549	0.5379
1558	0.4381
1567	-0.0036
1576	0.0006
1585	0.2576
1594	0.0174
1603	0.1204
1612	0.3603
1621	0.037
1630	0.3905
1639	0.7054
1648	0.7737
1657	0.7981
1666	0.8571
1675	0.8872
1684	0.8838
1693	0.8631
1702	0.8221
1711	0.8401
1720	0.9048
1729	0.912
1738	0.8998
1747	0.9003
1756	0.9033
1765	0.8864
1774	0.8573
1783	0.9085
1792	0.9091
1801	0.9126
1810	0.9289
1819	0.9342
1828	0.9365
1837	0.9335
1846	0.9293
1855	0.9287
1864	0.9248
1873	0.9214
1882	0.9263
1891	0.9331
1900	0.9302
1909	0.912
1918	0.9308
1927	0.9248
1936	0.9067
1945	0.9064
1954	0.9312
1963	0.9262
1972	0.9372
1981	0.9421
1990	0.9428
1999	0.9467
2008	0.9491
2017	0.9516
2026	0.9528
2035	0.9551
2044	0.9571
2053	0.9589
2062	0.9552
2071	0.9521
2080	0.9528
2089	0.9543
2098	0.9557
2107	0.9604
2116	0.962
2125	0.9629
2134	0.9618
2143	0.9601
2152	0.9586
2161	0.9561
2170	0.9563
2179	0.96
2188	0.9643
2197	0.9653
2206	0.964
2215	0.9616
2224	0.9607
2233	0.9621
2242	0.9661
2251	0.9661
2260	0.9655
2269	0.9651
2278	0.9651
2287	0.9651
2296	0.9636
2305	0.9593
2314	0.965
2323	0.9756
2332	0.975
2341	0.9762
2350	0.9751
2359	0.9729
2368	0.9682
2377	0.963
2386	0.9524
2395	0.9458
2404	0.9412
2413	0.9351
2422	0.9401
2431	0.949
2440	0.9466
2449	0.9424
2458	0.9452
2467	0.9537
2476	0.9557
2485	0.9554
2494	0.9567
2503	0.9576
2512	0.9581
2521	0.9575
2530	0.956
2539	0.9522
2548	0.9426
2557	0.9311
2566	0.9231
2575	0.9316
2584	0.9486
2593	0.9496
2602	0.9477
2611	0.9537
2620	0.9543
2629	0.9508
2638	0.9466
2647	0.9493
2656	0.9523
2665	0.9516
2674	0.9516
2683	0.9507
2692	0.9492
2701	0.9469
2710	0.9429
2719	0.9416
2728	0.9405
2737	0.9332
2746	0.924
2755	0.9206
2764	0.923
2773	0.9274
2782	0.929
2791	0.9285
2800	0.9261
2809	0.917
2818	0.9054
2827	0.8953
2836	0.904
2845	0.9178
2854	0.9177
2863	0.9198
2872	0.921
2881	0.9242
2890	0.9271
2899	0.9256
2908	0.9241
2917	0.9206
2926	0.921
2935	0.9198
2944	0.9203
2953	0.9209
2962	0.9198
2971	0.9192
2980	0.919
2989	0.921
2998	0.9207
3007	0.9112
3016	0.8931
3025	0.8644
3034	0.8211
3043	0.7478
3052	0.7934
3061	0.7874
3070	0.7568
3079	0.7835
3088	0.7751
3097	0.718
3106	0.7573
3115	0.8627
3124	0.8836
3133	0.9001
3142	0.9103
3151	0.9195
3160	0.9237
3169	0.9242
3178	0.925
3187	0.9268
3196	0.928
3205	0.9297
3214	0.9312
3223	0.9299
3232	0.9287
3241	0.9269
3250	0.9246
3259	0.921
3268	0.9153
3277	0.9062
3286	0.896
3295	0.883
3304	0.8678
3313	0.8331
3322	0.7865
3331	0.7008
3340	0.5278
3349	0.3477
3358	0.283
3367	0.4143
3376	0.6266
3385	0.7318
3394	0.831
3403	0.8683
3412	0.8888
3421	0.9046
3430	0.9098
3439	0.9122
3448	0.916
3457	0.9314
3466	0.9357
3475	0.9381
3484	0.9406
3493	0.9428
3502	0.9452
3511	0.947
3520	0.9479
3529	0.948
3538	0.9489
3547	0.9508
3556	0.9504
3565	0.9507
3574	0.9472
3583	0.9525
3592	0.9552
3601	0.9541
3610	0.9557
3619	0.9572
3628	0.9552
3637	0.9577
3646	0.956
3655	0.9585
3664	0.9618
3673	0.957
3682	0.9532
3691	0.9547
3700	0.9576
3709	0.9604
3718	0.96
3727	0.9654
3736	0.9633
3745	0.9571
3754	0.9561
3763	0.9558
3772	0.9561
3781	0.9569
3790	0.9572
3799	0.9517
