Infrared Spectrum: 1-INDANONE, 3-PHENYL-
Formula: C15 H12 O
CAS: 16618-72-7
State: SOLUTION (10% CCl4 FOR 3800-1330, 10% CS2 FOR 1330-400 CM^-^1)
Melting point: 75 C
Class: COBLENTZ III
Instrument: BECKMAN IR-9 (GRATING)
Instrument parameters: ORDER CHANGES: 670, 1200, 2000 CM^-^1
Sampling: TRANSMISSION
Path length: 0.011 CM, 0.011 CM
Resolution: 2
Origin: DOW CHEMICAL COMPANY
1/CM	TRANSMITTANCE
406	0.4217
415	0.3648
424	0.4498
433	0.576
442	0.6957
451	0.74
460	0.7101
469	0.6119
478	0.7701
487	0.8403
496	0.8687
505	0.8841
514	0.8654
523	0.6987
532	0.5767
541	0.6273
550	0.7033
559	0.803
568	0.7682
577	0.5828
586	0.7622
595	0.718
604	0.7981
613	0.7958
622	0.8501
631	0.8787
640	0.8607
649	0.814
658	0.6983
667	0.7453
676	0.7658
685	0.7956
694	0.4878
703	0.2574
712	0.7465
721	0.7581
730	0.8034
739	0.7546
748	0.3895
757	0.0188
766	0.2056
775	0.7155
784	0.8146
793	0.7928
802	0.7976
811	0.8591
820	0.8813
829	0.886
838	0.8631
847	0.8067
856	0.7339
865	0.6745
874	0.6837
883	0.7489
892	0.8314
901	0.8492
910	0.6807
919	0.8201
928	0.5928
937	0.79
946	0.854
955	0.8483
964	0.8275
973	0.8432
982	0.8305
991	0.8122
1000	0.7989
1009	0.7551
1018	0.4674
1027	0.7018
1036	0.6336
1045	0.3393
1054	0.7447
1063	0.803
1072	0.7543
1081	0.6661
1090	0.5722
1099	0.7065
1108	0.8165
1117	0.8325
1126	0.8294
1135	0.809
1144	0.6512
1153	0.5178
1162	0.7339
1171	0.6734
1180	0.7499
1189	0.7406
1198	0.5746
1207	0.6319
1216	0.7343
1225	0.7495
1234	0.2283
1243	0.6475
1252	0.7407
1261	0.4495
1270	0.4356
1279	0.4678
1288	0.3153
1297	0.5075
1306	0.7208
1315	0.4867
1324	0.6355
1333	0.735
1342	0.724
1351	0.7884
1360	0.8677
1369	0.8852
1378	0.8917
1387	0.8653
1396	0.8599
1405	0.6016
1414	0.7896
1423	0.8785
1432	0.8824
1441	0.8493
1450	0.7115
1459	0.6027
1468	0.5016
1477	0.6006
1486	0.789
1495	0.2511
1504	0.7057
1513	0.7044
1522	0.6801
1531	0.6412
1540	0.5359
1549	0.471
1558	0.4707
1567	0.5341
1576	0.5718
1585	0.4921
1594	0.4233
1603	0.1783
1612	0.449
1621	0.6858
1630	0.7562
1639	0.7828
1648	0.8328
1657	0.8471
1666	0.8349
1675	0.7633
1684	0.7368
1693	0.7
1702	0.3396
1711	0.0575
1720	0.0013
1729	0.0471
1738	0.3727
1747	0.6133
1756	0.7472
1765	0.8014
1774	0.835
1783	0.8532
1792	0.8644
1801	0.8433
1810	0.8403
1819	0.8743
1828	0.8834
1837	0.8778
1846	0.8935
1855	0.9035
1864	0.886
1873	0.8713
1882	0.8992
1891	0.8989
1900	0.9173
1909	0.9251
1918	0.9148
1927	0.9218
1936	0.9215
1945	0.8197
1954	0.8851
1963	0.8863
1972	0.8841
1981	0.9228
1990	0.9311
1999	0.9339
2008	0.9403
2017	0.9424
2026	0.9424
2035	0.9428
2044	0.9437
2053	0.9435
2062	0.9434
2071	0.9441
2080	0.9461
2089	0.9487
2098	0.9521
2107	0.9545
2116	0.9571
2125	0.9578
2134	0.9583
2143	0.9584
2152	0.9574
2161	0.9565
2170	0.9557
2179	0.955
2188	0.9539
2197	0.9521
2206	0.9504
2215	0.9475
2224	0.9462
2233	0.9412
2242	0.9358
2251	0.9324
2260	0.9295
2269	0.9271
2278	0.9247
2287	0.9221
2296	0.919
2305	0.9162
2314	0.9178
2323	0.9197
2332	0.9205
2341	0.9225
2350	0.9258
2359	0.932
2368	0.9357
2377	0.9383
2386	0.9404
2395	0.9425
2404	0.9441
2413	0.944
2422	0.9435
2431	0.9425
2440	0.9416
2449	0.9408
2458	0.9401
2467	0.939
2476	0.9377
2485	0.9396
2494	0.9407
2503	0.9397
2512	0.9385
2521	0.9374
2530	0.9368
2539	0.9371
2548	0.9382
2557	0.9398
2566	0.9408
2575	0.9409
2584	0.9402
2593	0.9392
2602	0.9382
2611	0.9375
2620	0.937
2629	0.9357
2638	0.9316
2647	0.9318
2656	0.9323
2665	0.9323
2674	0.9315
2683	0.9301
2692	0.9288
2701	0.9297
2710	0.932
2719	0.9328
2728	0.9318
2737	0.9298
2746	0.9275
2755	0.9249
2764	0.9213
2773	0.9178
2782	0.9146
2791	0.9098
2800	0.9009
2809	0.9007
2818	0.9078
2827	0.9111
2836	0.9118
2845	0.91
2854	0.9067
2863	0.8978
2872	0.8791
2881	0.8478
2890	0.8144
2899	0.7743
2908	0.7708
2917	0.7687
2926	0.7741
2935	0.8021
2944	0.8355
2953	0.8341
2962	0.8216
2971	0.8171
2980	0.8364
2989	0.8487
2998	0.8439
3007	0.7915
3016	0.7669
3025	0.5584
3034	0.442
3043	0.6693
3052	0.711
3061	0.6218
3070	0.5682
3079	0.5985
3088	0.6432
3097	0.7994
3106	0.8253
3115	0.8485
3124	0.8844
3133	0.8925
3142	0.8954
3151	0.8967
3160	0.8959
3169	0.893
3178	0.8903
3187	0.887
3196	0.8835
3205	0.8828
3214	0.8834
3223	0.884
3232	0.8845
3241	0.8816
3250	0.8787
3259	0.8758
3268	0.8731
3277	0.8705
3286	0.8678
3295	0.8653
3304	0.8632
3313	0.8612
3322	0.8594
3331	0.8575
3340	0.8563
3349	0.8554
3358	0.8549
3367	0.8544
3376	0.8541
3385	0.8534
3394	0.8474
3403	0.8323
3412	0.8132
3421	0.8006
3430	0.8138
3439	0.8416
3448	0.8642
3457	0.8754
3466	0.8837
3475	0.8881
3484	0.8923
3493	0.8963
3502	0.8999
3511	0.9034
3520	0.907
3529	0.9106
3538	0.9143
3547	0.9178
3556	0.9209
3565	0.9234
3574	0.9238
3583	0.92
3592	0.9313
3601	0.9325
3610	0.9251
3619	0.9352
3628	0.9385
3637	0.9401
3646	0.9409
3655	0.942
3664	0.9431
3673	0.9435
3682	0.9425
3691	0.9412
3700	0.9418
3709	0.9432
3718	0.9449
3727	0.9463
3736	0.9475
3745	0.9485
3754	0.9492
3763	0.9488
3772	0.9482
3781	0.9475
3790	0.947
3799	0.9464
