Infrared Spectrum: 5-AMINO-4-CYANO-PYRAZOLE
Formula: C4 H4 N4
CAS: 16617-46-2
Class: COBLENTZ
Instrument: Not specified, most likely a prism, grating, or hybrid spectrometer.
Sampling: TRANSMISSION
Resolution: 4
Origin: TENNESSEE EASTMAN COMPANY, RESEARCH LABORATORIES
MICROMETERS	TRANSMITTANCE
2.02	0.806
2.05988	0.811
2.09975	0.815
2.13963	0.823
2.17951	0.826
2.21939	0.828
2.25926	0.833
2.29914	0.835
2.33902	0.836
2.37889	0.84
2.41877	0.845
2.45865	0.846
2.49852	0.85
2.5384	0.851
2.57828	0.853
2.61816	0.856
2.65803	0.858
2.69791	0.86
2.73779	0.858
2.77766	0.82
2.81754	0.743
2.85742	0.665
2.89729	0.588
2.93717	0.361
2.97705	0.356
3.01693	0.355
3.0568	0.37
3.09668	0.485
3.13656	0.351
3.17643	0.311
3.21631	0.281
3.25619	0.43
3.29607	0.55
3.33594	0.558
3.37582	0.48
3.4157	0.43
3.45557	0.556
3.49545	0.615
3.53533	0.605
3.5752	0.636
3.61508	0.726
3.65496	0.751
3.69484	0.761
3.73471	0.773
3.77459	0.771
3.81447	0.795
3.85434	0.83
3.89422	0.831
3.9341	0.851
3.97397	0.86
4.01385	0.865
4.05373	0.875
4.09361	0.883
4.13348	0.886
4.17336	0.886
4.21324	0.891
4.25311	0.905
4.29299	0.905
4.33287	0.903
4.37274	0.896
4.41262	0.901
4.4525	0.843
4.49238	0.35
4.53225	0.8
4.57213	0.843
4.61201	0.878
4.65188	0.886
4.69176	0.883
4.73164	0.891
4.77152	0.895
4.81139	0.898
4.85127	0.898
4.89115	0.9
4.93102	0.9
4.9709	0.901
5.01078	0.905
5.05065	0.91
5.09053	0.91
5.13041	0.91
5.17029	0.91
5.21016	0.913
5.25004	0.91
5.28992	0.913
5.32979	0.911
5.36967	0.918
5.40955	0.916
5.44942	0.915
5.4893	0.915
5.52918	0.913
5.56906	0.913
5.60893	0.91
5.64881	0.903
5.68869	0.89
5.72856	0.876
5.76844	0.858
5.80832	0.856
5.8482	0.861
5.88807	0.86
5.92795	0.843
5.96783	0.826
6.0077	0.771
6.04758	0.651
6.08746	0.4
6.12733	0.368
6.16721	0.596
6.20709	0.668
6.24697	0.72
6.28684	0.738
6.32672	0.701
6.3666	0.208
6.40647	0.52
6.44635	0.648
6.48623	0.62
6.5261	0.455
6.56598	0.315
6.60586	0.501
6.64574	0.571
6.68561	0.603
6.72549	0.751
6.76537	0.79
6.80524	0.813
6.84512	0.835
6.885	0.845
6.92488	0.856
6.96475	0.861
7.00463	0.86
7.04451	0.861
7.08438	0.86
7.12426	0.828
7.16414	0.793
7.20401	0.821
7.24389	0.84
7.28377	0.848
7.32365	0.85
7.36352	0.853
7.4034	0.855
7.44328	0.855
7.48315	0.843
7.52303	0.856
7.56291	0.868
7.60278	0.875
7.64266	0.88
7.68254	0.883
7.72242	0.883
7.76229	0.885
7.80217	0.885
7.84205	0.885
7.88192	0.885
7.9218	0.886
7.96168	0.89
8.00155	0.89
8.04143	0.89
8.08131	0.89
8.12119	0.876
8.16106	0.816
8.20094	0.633
8.24082	0.775
8.28069	0.798
8.32057	0.791
8.36045	0.781
8.40033	0.773
8.4402	0.808
8.48008	0.85
8.51996	0.875
8.55983	0.891
8.59971	0.9
8.63959	0.905
8.67946	0.905
8.71934	0.905
8.75922	0.905
8.7991	0.905
8.83897	0.905
8.87885	0.905
8.91873	0.905
8.9586	0.905
8.99848	0.905
9.03836	0.903
9.07823	0.903
9.11811	0.905
9.15799	0.906
9.19787	0.91
9.23774	0.91
9.27762	0.911
9.3175	0.911
9.35737	0.91
9.39725	0.908
9.43713	0.905
9.47701	0.891
9.51688	0.861
9.55676	0.813
9.59664	0.695
9.63651	0.445
9.67639	0.463
9.71627	0.723
9.75614	0.828
9.79602	0.865
9.8359	0.885
9.87578	0.9
9.91565	0.905
9.95553	0.908
9.99541	0.913
10.0353	0.918
10.0752	0.92
10.115	0.921
10.1549	0.921
10.1948	0.923
10.2347	0.925
10.2745	0.926
10.3144	0.926
10.3543	0.926
10.3942	0.926
10.4341	0.926
10.4739	0.926
10.5138	0.926
10.5537	0.926
10.5936	0.926
10.6334	0.921
10.6733	0.911
10.7132	0.89
10.7531	0.88
10.7929	0.888
10.8328	0.905
10.8727	0.911
10.9126	0.911
10.9525	0.91
10.9923	0.91
11.0322	0.913
11.0721	0.915
11.112	0.918
11.1518	0.921
11.1917	0.923
11.2316	0.926
11.2715	0.928
11.3113	0.928
11.3512	0.928
11.3911	0.928
11.431	0.928
11.4709	0.925
11.5107	0.906
11.5506	0.893
11.5905	0.891
11.6304	0.891
11.6702	0.891
11.7101	0.893
11.75	0.89
11.7899	0.89
11.8298	0.89
11.8696	0.89
11.9095	0.89
11.9494	0.89
11.9893	0.891
12.0291	0.89
12.069	0.886
12.1089	0.881
12.1488	0.878
12.1886	0.875
12.2285	0.866
12.2684	0.861
12.3083	0.855
12.3482	0.848
12.388	0.841
12.4279	0.823
12.4678	0.815
12.5077	0.8
12.5475	0.783
12.5874	0.771
12.6273	0.755
12.6672	0.75
12.707	0.745
12.7469	0.745
12.7868	0.746
12.8267	0.748
12.8666	0.75
12.9064	0.755
12.9463	0.761
12.9862	0.763
13.0261	0.765
13.0659	0.766
13.1058	0.761
13.1457	0.745
13.1856	0.733
13.2254	0.728
13.2653	0.741
13.3052	0.758
13.3451	0.758
13.385	0.768
13.4248	0.78
13.4647	0.785
13.5046	0.79
13.5445	0.8
13.5843	0.801
13.6242	0.803
13.6641	0.803
13.704	0.803
13.7438	0.803
13.7837	0.798
13.8236	0.768
13.8635	0.713
13.9034	0.61
13.9432	0.558
13.9831	0.583
14.023	0.683
14.0629	0.738
14.1027	0.766
14.1426	0.778
14.1825	0.786
14.2224	0.79
14.2622	0.788
14.3021	0.79
14.342	0.79
14.3819	0.79
14.4218	0.79
14.4616	0.788
14.5015	0.788
14.5414	0.79
14.5813	0.788
14.6211	0.786
14.661	0.781
14.7009	0.781
14.7408	0.778
14.7807	0.776
14.8205	0.773
14.8604	0.768
14.9003	0.765
14.9402	0.755
14.98	0.745
15.0199	0.741
15.0598	0.741
15.0997	0.741
15.1395	0.733
15.1794	0.725
15.2193	0.72
15.2592	0.711
15.2991	0.706
15.3389	0.7
15.3788	0.691
15.4187	0.685
15.4586	0.68
15.4984	0.673
15.5383	0.668
15.5782	0.663
15.6181	0.663
15.6579	0.656
15.6978	0.651
15.7377	0.643
15.7776	0.636
15.8175	0.63
15.8573	0.616
15.8972	0.615
15.9371	0.613
15.977	0.611
