Infrared Spectrum: 2-THIOPHENE SULFONYL CHLORIDE
Formula: C4 H3 Cl O2 S2
CAS: 16629-19-9
State: SOLUTION (10% CCl4 FOR 5000-1330, 10% CS2 FOR 1330-625 CM^-^1)
Class: COBLENTZ
Instrument: Not specified, most likely a prism, grating, or hybrid spectrometer.
Sampling: TRANSMISSION
Path length: 0.0110 CM, 0.0106 CM
Resolution: 4
Origin: DOW CHEMICAL COMPANY
MICROMETERS	TRANSMITTANCE
2.034	0.875
2.07431	0.877
2.11461	0.875
2.15492	0.88
2.19523	0.875
2.23554	0.88
2.27584	0.887
2.31615	0.89
2.35646	0.89
2.39676	0.89
2.43707	0.894
2.47738	0.899
2.51769	0.894
2.55799	0.892
2.5983	0.895
2.63861	0.901
2.67892	0.904
2.71922	0.907
2.75953	0.906
2.79984	0.902
2.84014	0.892
2.88045	0.875
2.92076	0.87
2.96107	0.874
3.00137	0.875
3.04168	0.877
3.08199	0.88
3.12229	0.875
3.1626	0.842
3.20291	0.755
3.24322	0.835
3.28352	0.892
3.32383	0.895
3.36414	0.901
3.40444	0.901
3.44475	0.904
3.48506	0.904
3.52537	0.911
3.56567	0.909
3.60598	0.907
3.64629	0.909
3.68659	0.914
3.7269	0.924
3.76721	0.929
3.80752	0.924
3.84782	0.924
3.88813	0.919
3.92844	0.912
3.96875	0.929
4.00905	0.926
4.04936	0.922
4.08967	0.929
4.12997	0.914
4.17028	0.916
4.21059	0.927
4.2509	0.926
4.2912	0.926
4.33151	0.926
4.37182	0.924
4.41212	0.924
4.45243	0.929
4.49274	0.941
4.53305	0.941
4.57335	0.937
4.61366	0.932
4.65397	0.934
4.69427	0.942
4.73458	0.944
4.77489	0.944
4.8152	0.941
4.8555	0.937
4.89581	0.932
4.93612	0.931
4.97643	0.926
5.01673	0.929
5.05704	0.936
5.09735	0.937
5.13765	0.937
5.17796	0.939
5.21827	0.942
5.25858	0.942
5.29888	0.942
5.33919	0.934
5.3795	0.931
5.4198	0.922
5.46011	0.904
5.50042	0.899
5.54073	0.929
5.58103	0.934
5.62134	0.927
5.66165	0.907
5.70195	0.88
5.74226	0.902
5.78257	0.927
5.82288	0.926
5.86318	0.924
5.90349	0.921
5.9438	0.904
5.98411	0.902
6.02441	0.906
6.06472	0.894
6.10503	0.875
6.14533	0.874
6.18564	0.864
6.22595	0.79
6.26626	0.716
6.30656	0.659
6.34687	0.607
6.38718	0.567
6.42748	0.528
6.46779	0.506
6.5081	0.543
6.54841	0.598
6.58871	0.649
6.62902	0.664
6.66933	0.642
6.70963	0.802
6.74994	0.86
6.79025	0.87
6.83056	0.882
6.87086	0.88
6.91117	0.852
6.95148	0.838
6.99178	0.837
7.03209	0.78
7.0724	0.656
7.11271	0.37
7.15301	0.11
7.19332	0.02
7.23363	0.02
7.27394	0.171
7.31424	0.501
7.35455	0.751
7.39486	0.635
7.43516	0.463
7.47547	0.818
7.51578	0.843
7.55609	0.862
7.59639	0.877
7.6367	0.887
7.67701	0.909
7.71731	0.914
7.75762	0.916
7.79793	0.922
7.83824	0.919
7.87854	0.912
7.91885	0.901
7.95916	0.869
7.99946	0.825
8.03977	0.796
8.08008	0.635
8.12039	0.302
8.16069	0.496
8.201	0.756
8.24131	0.783
8.28162	0.79
8.32192	0.741
8.36223	0.622
8.40254	0.312
8.44284	0.035
8.48315	0
8.52346	0.05
8.56377	0.115
8.60407	0.291
8.64438	0.57
8.68469	0.706
8.72499	0.741
8.7653	0.738
8.80561	0.729
8.84592	0.761
8.88622	0.818
8.92653	0.845
8.96684	0.86
9.00714	0.859
9.04745	0.84
9.08776	0.805
9.12807	0.667
9.16837	0.419
9.20868	0.555
9.24899	0.817
9.2893	0.815
9.3296	0.704
9.36991	0.741
9.41022	0.828
9.45052	0.86
9.49083	0.869
9.53114	0.87
9.57145	0.872
9.61175	0.874
9.65206	0.872
9.69237	0.865
9.73267	0.812
9.77298	0.681
9.81329	0.431
9.8536	0.145
9.8939	0.187
9.93421	0.607
9.97452	0.786
10.0148	0.838
10.0551	0.854
10.0954	0.889
10.1357	0.909
10.1761	0.921
10.2164	0.931
10.2567	0.934
10.297	0.941
10.3373	0.942
10.3776	0.946
10.4179	0.946
10.4582	0.942
10.4985	0.939
10.5388	0.939
10.5791	0.941
10.6194	0.942
10.6597	0.946
10.7	0.949
10.7404	0.949
10.7807	0.947
10.821	0.939
10.8613	0.934
10.9016	0.926
10.9419	0.921
10.9822	0.919
11.0225	0.921
11.0628	0.927
11.1031	0.929
11.1434	0.927
11.1837	0.922
11.224	0.916
11.2643	0.901
11.3047	0.88
11.345	0.859
11.3853	0.84
11.4256	0.82
11.4659	0.798
11.5062	0.77
11.5465	0.739
11.5868	0.676
11.6271	0.481
11.6674	0.325
11.7077	0.37
11.748	0.548
11.7883	0.602
11.8286	0.593
11.869	0.654
11.9093	0.768
11.9496	0.818
11.9899	0.838
12.0302	0.86
12.0705	0.874
12.1108	0.889
12.1511	0.899
12.1914	0.907
12.2317	0.911
12.272	0.909
12.3123	0.907
12.3526	0.906
12.3929	0.904
12.4333	0.899
12.4736	0.894
12.5139	0.892
12.5542	0.89
12.5945	0.89
12.6348	0.889
12.6751	0.885
12.7154	0.88
12.7557	0.879
12.796	0.875
12.8363	0.879
12.8766	0.874
12.9169	0.869
12.9572	0.859
12.9976	0.855
13.0379	0.85
13.0782	0.837
13.1185	0.823
13.1588	0.812
13.1991	0.8
13.2394	0.771
13.2797	0.701
13.32	0.642
13.3603	0.632
13.4006	0.677
13.4409	0.699
13.4812	0.699
13.5216	0.669
13.5619	0.62
13.6022	0.555
13.6425	0.456
13.6828	0.345
13.7231	0.253
13.7634	0.145
13.8037	0.068
13.844	0.02
13.8843	0.006
13.9246	0.03
13.9649	0.109
14.0052	0.243
14.0455	0.402
14.0859	0.5
14.1262	0.567
14.1665	0.595
14.2068	0.62
14.2471	0.632
14.2874	0.64
14.3277	0.64
14.368	0.642
14.4083	0.64
14.4486	0.639
14.4889	0.632
14.5292	0.63
14.5695	0.622
14.6098	0.612
14.6502	0.6
14.6905	0.582
14.7308	0.565
14.7711	0.54
14.8114	0.508
14.8517	0.474
14.892	0.436
14.9323	0.374
14.9726	0.29
15.0129	0.171
15.0532	0.095
15.0935	0.088
15.1338	0.132
15.1741	0.179
15.2145	0.244
15.2548	0.293
15.2951	0.328
15.3354	0.362
15.3757	0.38
15.416	0.402
15.4563	0.411
15.4966	0.417
15.5369	0.419
15.5772	0.421
15.6175	0.421
15.6578	0.421
15.6981	0.421
15.7384	0.421
15.7788	0.421
15.8191	0.422
15.8594	0.424
15.8997	0.427
15.94	0.429
