Infrared Spectrum: Bisphenol A diglycidyl ether
Formula: C 21 H 24 O 4
CAS: 1675-54-3
State: solid
Instrument: Bruker Tensor 37 FTIR
Resolution: 0.96450084
Origin: Pacific Northwest National Laboratory Under IARPA Contract
1/cm	Reflectance
7498.03	0.0349405
7480.67	0.0328632
7463.31	0.0307452
7445.95	0.0291594
7428.59	0.0283142
7411.23	0.0284712
7393.87	0.0273992
7376.51	0.028024
7359.15	0.0288776
7341.79	0.0282914
7324.43	0.0280542
7307.07	0.0263797
7289.71	0.0267061
7272.35	0.0266096
7254.99	0.0267254
7237.63	0.0272463
7220.27	0.0258891
7202.91	0.0259638
7185.55	0.025846
7168.19	0.0253337
7150.83	0.0262664
7133.47	0.025492
7116.11	0.0261619
7098.75	0.0260493
7081.39	0.0249148
7064.03	0.0254475
7046.67	0.0257304
7029.31	0.0264983
7011.96	0.027144
6994.6	0.0260445
6977.24	0.0269467
6959.88	0.0265962
6942.52	0.0266517
6925.16	0.0271352
6907.8	0.0266979
6890.44	0.0269108
6873.08	0.0261182
6855.72	0.0255605
6838.36	0.0255877
6821	0.0241308
6803.64	0.0238093
6786.28	0.0239727
6768.92	0.0237373
6751.56	0.0237172
6734.2	0.0237595
6716.84	0.0234663
6699.48	0.0236945
6682.12	0.0237172
6664.76	0.0231665
6647.4	0.0242592
6630.04	0.0238652
6612.68	0.024013
6595.32	0.0246459
6577.96	0.0232786
6560.6	0.0238523
6543.24	0.0242319
6525.88	0.0237775
6508.52	0.0230733
6491.16	0.0246867
6473.8	0.0241429
6456.44	0.0235858
6439.08	0.0240284
6421.72	0.0236157
6404.36	0.0244346
6387	0.0237139
6369.64	0.0234537
6352.28	0.023205
6334.92	0.0238355
6317.56	0.023873
6300.2	0.0236055
6282.84	0.0237922
6265.48	0.0235468
6248.12	0.0236602
6230.76	0.0237186
6213.4	0.0235406
6196.04	0.0234703
6178.68	0.0233711
6161.32	0.0234519
6143.97	0.0233224
6126.61	0.0234586
6109.25	0.0231279
6091.89	0.0229285
6074.53	0.0231807
6057.17	0.0227949
6039.81	0.0227496
6022.45	0.0227721
6005.09	0.0228578
5987.73	0.0223828
5970.37	0.0224241
5953.01	0.0225774
5935.65	0.0225284
5918.29	0.0223678
5900.93	0.0222947
5883.57	0.0223183
5866.21	0.0222188
5848.85	0.0222224
5831.49	0.0220383
5814.13	0.0220901
5796.77	0.0221381
5779.41	0.0221848
5762.05	0.0221266
5744.69	0.0219505
5727.33	0.0219519
5709.97	0.0218342
5692.61	0.0217044
5675.25	0.0217455
5657.89	0.0217291
5640.53	0.0215888
5623.17	0.0216163
5605.81	0.0211816
5588.45	0.0205978
5571.09	0.0205384
5553.73	0.0202454
5536.37	0.0198338
5519.01	0.0196748
5501.65	0.0195307
5484.29	0.0192899
5466.93	0.0191442
5449.57	0.0187412
5432.21	0.0186098
5414.85	0.0185328
5397.49	0.0184139
5380.13	0.0185523
5362.77	0.0187595
5345.41	0.0185688
5328.05	0.0186073
5310.69	0.0184349
5293.33	0.0185631
5275.97	0.0186304
5258.62	0.0185027
5241.26	0.018392
5223.9	0.0180735
5206.54	0.0179482
5189.18	0.018131
5171.82	0.0181312
5154.46	0.0185081
5137.1	0.0185377
5119.74	0.0185687
5102.38	0.0185719
5085.02	0.0186091
5067.66	0.0184569
5050.3	0.0186493
5032.94	0.0185691
5015.58	0.0185106
4998.22	0.0185473
4980.86	0.018651
4963.5	0.0185541
4946.14	0.018497
4928.78	0.018536
4911.42	0.0185214
4894.06	0.0185375
4876.7	0.0183945
4859.34	0.0183555
4841.98	0.0182802
4824.62	0.0183207
4807.26	0.0183953
4789.9	0.0183922
4772.54	0.0183453
4755.18	0.0181946
4737.82	0.0181502
4720.46	0.0179938
4703.1	0.0179891
4685.74	0.0179352
4668.38	0.0178909
4651.02	0.0176078
4633.66	0.0174764
4616.3	0.0166845
4598.94	0.0159769
4581.58	0.0155897
4564.22	0.0157134
4546.86	0.015853
4529.5	0.0157223
4512.14	0.0158365
4494.78	0.0159804
4477.42	0.0156757
4460.06	0.0152209
4442.7	0.0149862
4425.34	0.0149182
4407.98	0.0146816
4390.63	0.0146051
4373.27	0.0143719
4355.91	0.014465
4338.55	0.0143439
4321.19	0.0141386
4303.83	0.014193
4286.47	0.0141304
4269.11	0.0142522
4251.75	0.0145618
4234.39	0.0142543
4217.03	0.0138563
4199.67	0.0137387
4182.31	0.0140155
4164.95	0.0139772
4147.59	0.0140586
4130.23	0.0137723
4112.87	0.0139851
4095.51	0.0135595
4078.15	0.0140277
4060.79	0.0138723
4043.43	0.0301776
4026.07	0.029322
4008.71	0.0288688
3991.35	0.0293985
3973.99	0.0290942
3956.63	0.0291654
3939.27	0.0287361
3921.91	0.0286388
3904.55	0.0288821
3887.19	0.0290506
3869.83	0.028536
3852.47	0.0288177
3835.11	0.0286194
3817.75	0.0285342
3800.39	0.0288688
3783.03	0.0291734
3765.67	0.0286741
3748.31	0.0284701
3730.95	0.028546
3713.59	0.0285352
3696.23	0.0285231
3678.87	0.028757
3661.51	0.0285224
3644.15	0.0281967
3626.79	0.0284066
3609.43	0.0285044
3592.07	0.0283742
3574.71	0.0286418
3557.35	0.0282755
3539.99	0.0285945
3522.64	0.0284751
3505.28	0.0284035
3487.92	0.0282209
3470.56	0.0285881
3453.2	0.028309
3435.84	0.0284207
3418.48	0.028224
3401.12	0.0280453
3383.76	0.0281208
3366.4	0.0277827
3349.04	0.0276398
3331.68	0.027579
3314.32	0.0274761
3296.96	0.0271986
3279.6	0.0273549
3262.24	0.0274134
3244.88	0.0275577
3227.52	0.0274336
3210.16	0.0272872
3192.8	0.0275192
3175.44	0.0274562
3158.08	0.0274809
3140.72	0.027449
3123.36	0.0276269
3106	0.027743
3088.64	0.0276093
3071.28	0.0277215
3053.92	0.0277184
3036.56	0.027806
3019.2	0.0276464
3001.84	0.0276237
2984.48	0.0276995
2967.12	0.0277031
2949.76	0.0276022
2932.4	0.0276571
2915.04	0.0275335
2897.68	0.0276855
2880.32	0.0276786
2862.96	0.0277033
2845.6	0.0276857
2828.24	0.0275371
2810.88	0.0275402
2793.52	0.0275796
2776.16	0.027528
2758.8	0.027496
2741.44	0.0276215
2724.08	0.0275057
2706.72	0.027477
2689.36	0.0275384
2672	0.0273281
2654.64	0.0274008
2637.29	0.0272711
2619.93	0.0272205
2602.57	0.0271411
2585.21	0.0271336
2567.85	0.0271668
2550.49	0.0271561
2533.13	0.0271921
2515.77	0.0271023
2498.41	0.0271336
2481.05	0.0271943
2463.69	0.0271651
2446.33	0.0270629
2428.97	0.0270474
2411.61	0.027016
2394.25	0.0270172
2376.89	0.0269238
2359.53	0.0269399
2342.17	0.0269577
2324.81	0.0269355
2307.45	0.0269434
2290.09	0.0269493
2272.73	0.0268836
2255.37	0.0268649
2238.01	0.0268692
2220.65	0.0268469
2203.29	0.0268445
2185.93	0.0268592
2168.57	0.0266588
2151.21	0.0264573
2133.85	0.0262393
2116.49	0.0260346
2099.13	0.0259198
2081.77	0.0258233
2064.41	0.025706
2047.05	0.0255495
2029.69	0.0255391
2012.33	0.0253421
1994.97	0.0251953
1977.61	0.025083
1960.25	0.0251278
1942.89	0.0250402
1925.53	0.0250785
1908.17	0.0249695
1890.81	0.0249856
1873.45	0.0248978
1856.09	0.0247989
1838.73	0.0247218
1821.37	0.0248606
1804.01	0.0246704
1786.65	0.0249196
1769.3	0.0252389
1751.94	0.0255743
1734.58	0.0257051
1717.22	0.0256714
1699.86	0.0256185
1682.5	0.0255612
1665.14	0.0255447
1647.78	0.0255136
1630.42	0.0254266
1613.06	0.0253435
1595.7	0.0253232
1578.34	0.0252895
1560.98	0.0252457
1543.62	0.0252428
1526.26	0.025234
1508.9	0.0252236
1491.54	0.0252278
1474.18	0.0251641
1456.82	0.0251451
1439.46	0.0250916
1422.1	0.0250511
1404.74	0.0250104
1387.38	0.0249882
1370.02	0.0249499
1352.66	0.024875
1335.3	0.0248726
1317.94	0.0248473
1300.58	0.0247147
1283.22	0.0246042
1265.86	0.0245085
1248.5	0.0244167
1231.14	0.0244139
1213.78	0.0242796
1196.42	0.0240519
1179.06	0.0237495
1161.7	0.0232677
1144.34	0.0226176
1126.98	0.0221018
1109.62	0.020818
1092.26	0.0224657
1074.9	0.0214076
1057.54	0.0193108
1040.18	0.0247995
1022.82	0.0247834
1005.46	0.0235614
988.104	0.0223786
970.744	0.0222615
953.384	0.0195898
936.025	0.018708
918.665	0.0287902
901.305	0.0256726
883.945	0.0273276
866.585	0.025233
849.226	0.024527
831.866	0.0229818
814.506	0.0290276
797.146	0.0261005
779.786	0.0251908
762.427	0.0220293
745.067	0.0237396
727.707	0.0213334
710.347	0.0331956
692.987	0.0273202
675.628	0.0279292
658.268	0.0268477
640.908	0.0257766
623.548	0.0250938
606.188	0.0243146
