Infrared Spectrum: CYCLOHEXANE, n-PROPYL-
Formula: C9 H18
CAS: 1678-92-8
State: SOLUTION (10% CCl4 FOR 3800-1330, 10% CS2 FOR 1330-400 CM^-^1)
Class: COBLENTZ III
Instrument: DOW KBr FOREPRISM-GRATING
Instrument parameters: BLAZED AT 3.5, 12.0, 20.0 MICRON AND CHANGED AT 5.0, 7.5, 14.9 MICRON
Sampling: TRANSMISSION
Path length: 0.011 CM, 0.011 CM
Resolution: 2
Origin: DOW CHEMICAL COMPANY
1/CM	TRANSMITTANCE
386	0.1058
395	0.1191
404	0.1703
413	0.4533
422	0.6869
431	0.7433
440	0.7718
449	0.7958
458	0.8207
467	0.84
476	0.8573
485	0.8723
494	0.8846
503	0.8961
512	0.903
521	0.9065
530	0.9078
539	0.9091
548	0.9098
557	0.9105
566	0.8965
575	0.9236
584	0.9242
593	0.9245
602	0.9238
611	0.9218
620	0.9181
629	0.9128
638	0.9047
647	0.8925
656	0.8834
665	0.8971
674	0.9139
683	0.9171
692	0.918
701	0.9175
710	0.9147
719	0.9093
728	0.8871
737	0.7587
746	0.8636
755	0.906
764	0.9149
773	0.9174
782	0.8995
791	0.8965
800	0.8771
809	0.9163
818	0.9163
827	0.9009
836	0.8591
845	0.6415
854	0.7711
863	0.7547
872	0.7657
881	0.6962
890	0.7978
899	0.7771
908	0.8684
917	0.8967
926	0.8953
935	0.9103
944	0.9111
953	0.8496
962	0.8621
971	0.8144
980	0.8971
989	0.9023
998	0.8953
1007	0.8804
1016	0.857
1025	0.8501
1034	0.8373
1043	0.8692
1052	0.8587
1061	0.8638
1070	0.8323
1079	0.8662
1088	0.8513
1097	0.8484
1106	0.8221
1115	0.8172
1124	0.8734
1133	0.8806
1142	0.8756
1151	0.8566
1160	0.857
1169	0.8675
1178	0.8698
1187	0.8452
1196	0.8665
1205	0.8654
1214	0.8467
1223	0.8541
1232	0.8589
1241	0.8484
1250	0.8084
1259	0.7471
1268	0.748
1277	0.7544
1286	0.81
1295	0.7969
1304	0.8058
1313	0.7904
1322	0.7862
1331	0.8148
1340	0.8153
1349	0.7644
1358	0.8008
1367	0.7922
1376	0.754
1385	0.7335
1394	0.8076
1403	0.8199
1412	0.8191
1421	0.8119
1430	0.7875
1439	0.7045
1448	0.4176
1457	0.2154
1466	0.3984
1475	0.6302
1484	0.7758
1493	0.7771
1502	0.7596
1511	0.7248
1520	0.681
1529	0.6352
1538	0.5621
1547	0.4833
1556	0.461
1565	0.5321
1574	0.6062
1583	0.6283
1592	0.6592
1601	0.755
1610	0.8145
1619	0.8428
1628	0.8577
1637	0.8662
1646	0.8707
1655	0.8717
1664	0.8721
1673	0.8728
1682	0.8743
1691	0.8756
1700	0.8764
1709	0.8773
1718	0.8785
1727	0.8792
1736	0.88
1745	0.8807
1754	0.8809
1763	0.8804
1772	0.8795
1781	0.8786
1790	0.8792
1799	0.875
1808	0.8728
1817	0.873
1826	0.8725
1835	0.8717
1844	0.8712
1853	0.8708
1862	0.8706
1871	0.8702
1880	0.8695
1889	0.8691
1898	0.8691
1907	0.8695
1916	0.8698
1925	0.8702
1934	0.8706
1943	0.8698
1952	0.8683
1961	0.8784
1970	0.8937
1979	0.8989
1988	0.8952
1997	0.8937
2006	0.8941
2015	0.8951
2024	0.8961
2033	0.8968
2042	0.8975
2051	0.8978
2060	0.8983
2069	0.8992
2078	0.9003
2087	0.9004
2096	0.9005
2105	0.9
2114	0.8995
2123	0.8981
2132	0.8968
2141	0.8961
2150	0.8955
2159	0.8949
2168	0.8944
2177	0.8938
2186	0.8932
2195	0.8924
2204	0.8918
2213	0.8915
2222	0.8903
2231	0.8875
2240	0.8849
2249	0.8821
2258	0.8798
2267	0.8771
2276	0.8746
2285	0.8718
2294	0.8689
2303	0.8695
2312	0.8712
2321	0.8733
2330	0.8773
2339	0.8843
2348	0.892
2357	0.8938
2366	0.8936
2375	0.8915
2384	0.896
2393	0.8859
2402	0.8803
2411	0.8768
2420	0.8775
2429	0.8794
2438	0.8821
2447	0.885
2456	0.8851
2465	0.8828
2474	0.8798
2483	0.8787
2492	0.8796
2501	0.8818
2510	0.8827
2519	0.8813
2528	0.8791
2537	0.8753
2546	0.8706
2555	0.8647
2564	0.8587
2573	0.8525
2582	0.8464
2591	0.8401
2600	0.8332
2609	0.8306
2618	0.8303
2627	0.8291
2636	0.8242
2645	0.8076
2654	0.7836
2663	0.7562
2672	0.7461
2681	0.7965
2690	0.8165
2699	0.8134
2708	0.8093
2717	0.8069
2726	0.8078
2735	0.8115
2744	0.8186
2753	0.8228
2762	0.8178
2771	0.8012
2780	0.7819
2789	0.7554
2798	0.6931
2807	0.7018
2816	0.6608
2825	0.5864
2834	0.4507
2843	0.2373
2852	0.0167
2861	0.015
2870	0.0794
2879	0.0846
2888	0.1452
2897	0.0769
2906	0.013
2915	0.0069
2924	0.0052
2933	0.0057
2942	0.0121
2951	0.0353
2960	0.0337
2969	0.0355
2978	0.4154
2987	0.5867
2996	0.679
3005	0.7126
3014	0.7525
3023	0.7748
3032	0.7911
3041	0.8037
3050	0.8139
3059	0.8221
3068	0.8273
3077	0.8321
3086	0.8345
3095	0.8363
3104	0.8373
3113	0.8381
3122	0.8385
3131	0.8382
3140	0.8371
3149	0.8358
3158	0.838
3167	0.8417
3176	0.8471
3185	0.8518
3194	0.8545
3203	0.8561
3212	0.8574
3221	0.8584
3230	0.8595
3239	0.8606
3248	0.8617
3257	0.8646
3266	0.8683
3275	0.8697
3284	0.8694
3293	0.8701
3302	0.871
3311	0.8721
3320	0.8724
3329	0.8718
3338	0.8713
3347	0.8707
3356	0.8702
3365	0.8696
3374	0.8705
3383	0.8716
3392	0.8738
3401	0.8745
3410	0.875
3419	0.8756
3428	0.8764
3437	0.8765
3446	0.8763
3455	0.8757
3464	0.8751
3473	0.8755
3482	0.8761
3491	0.876
3500	0.8761
3509	0.8762
3518	0.8763
3527	0.8764
3536	0.8767
3545	0.8768
3554	0.8756
3563	0.8734
3572	0.8677
3581	0.8485
3590	0.8754
3599	0.8751
3608	0.8743
3617	0.8716
3626	0.8651
3635	0.8718
3644	0.8734
3653	0.8737
3662	0.8736
3671	0.8728
3680	0.8714
3689	0.8697
3698	0.8691
3707	0.8688
3716	0.8686
3725	0.8691
3734	0.8696
3743	0.8702
3752	0.8708
3761	0.8714
3770	0.8725
3779	0.8736
3788	0.8744
