Infrared Spectrum: Cyclohexanecarboxamide, N-(2-chloroethyl)-
Formula: C9 H16 Cl N O
CAS: 16813-44-8
State: SOLID (SPLIT MULL), FLUOROLUBE FOR 3800-1330 CM^-^1, NUJOL FOR 1330-400 CM^-^1
Melting point: 95-96 C
Class: COBLENTZ III
Instrument: DOW KBr FOREPRISM-GRATING
Instrument parameters: BLAZED AT 3.5, 12.0, 20.0 MICRON AND CHANGED AT 5.0, 7.5, 14.9 MICRON
Sampling: TRANSMISSION
Resolution: 2
Origin: DOW CHEMICAL COMPANY
1/CM	TRANSMITTANCE
461	0.874
470	0.8903
479	0.8982
488	0.9009
497	0.8967
506	0.8818
515	0.8738
524	0.8728
533	0.8345
542	0.9042
551	0.9085
560	0.9101
569	0.9127
578	0.9154
587	0.9167
596	0.916
605	0.9132
614	0.9068
623	0.8965
632	0.8856
641	0.8689
650	0.852
659	0.8308
668	0.8053
677	0.808
686	0.7606
695	0.71
704	0.6967
713	0.7254
722	0.7434
731	0.7891
740	0.758
749	0.6899
758	0.7851
767	0.8005
776	0.8064
785	0.8404
794	0.8556
803	0.825
812	0.8525
821	0.8658
830	0.8746
839	0.865
848	0.8523
857	0.8781
866	0.876
875	0.8758
884	0.8328
893	0.8021
902	0.8708
911	0.8678
920	0.8181
929	0.8216
938	0.8599
947	0.8674
956	0.8667
965	0.8633
974	0.8631
983	0.8667
992	0.8667
1001	0.8436
1010	0.8258
1019	0.8481
1028	0.8446
1037	0.8454
1046	0.8442
1055	0.7735
1064	0.8042
1073	0.7934
1082	0.8508
1091	0.8621
1100	0.8703
1109	0.8705
1118	0.8583
1127	0.8394
1136	0.8171
1145	0.8367
1154	0.8396
1163	0.7764
1172	0.7399
1181	0.6362
1190	0.5821
1199	0.7715
1208	0.7115
1217	0.4223
1226	0.8032
1235	0.8075
1244	0.7049
1253	0.5808
1262	0.7038
1271	0.7818
1280	0.7722
1289	0.6564
1298	0.6843
1307	0.6899
1316	0.6788
1325	0.6632
1334	0.6548
1343	0.6828
1352	0.6865
1361	0.6648
1370	0.6674
1379	0.6334
1388	0.5695
1397	0.6526
1406	0.681
1415	0.6828
1424	0.6661
1433	0.573
1442	0.4716
1451	0.5
1460	0.6486
1469	0.6949
1478	0.6999
1487	0.6922
1496	0.6645
1505	0.6201
1514	0.5207
1523	0.4195
1532	0.318
1541	0.2598
1550	0.3069
1559	0.4818
1568	0.6768
1577	0.7236
1586	0.741
1595	0.7506
1604	0.7185
1613	0.6856
1622	0.5879
1631	0.349
1640	0.1071
1649	0.1164
1658	0.4124
1667	0.6107
1676	0.7404
1685	0.8097
1694	0.8296
1703	0.8317
1712	0.8261
1721	0.7886
1730	0.7171
1739	0.7342
1748	0.8534
1757	0.8639
1766	0.8706
1775	0.8759
1784	0.8787
1793	0.8802
1802	0.8808
1811	0.8814
1820	0.8818
1829	0.8823
1838	0.8821
1847	0.8817
1856	0.8812
1865	0.8809
1874	0.8805
1883	0.8809
1892	0.8815
1901	0.882
1910	0.8821
1919	0.8824
1928	0.8825
1937	0.8824
1946	0.8823
1955	0.8814
1964	0.8795
1973	0.879
1982	0.879
1991	0.8791
2000	0.8816
2009	0.8843
2018	0.8865
2027	0.8875
2036	0.8886
2045	0.8888
2054	0.889
2063	0.8889
2072	0.8887
2081	0.8885
2090	0.8884
2099	0.8881
2108	0.8875
2117	0.887
2126	0.8864
2135	0.8858
2144	0.8851
2153	0.8843
2162	0.8836
2171	0.8825
2180	0.8815
2189	0.8804
2198	0.8794
2207	0.8785
2216	0.8775
2225	0.8764
2234	0.8752
2243	0.874
2252	0.8728
2261	0.8718
2270	0.8711
2279	0.8704
2288	0.8698
2297	0.8691
2306	0.8688
2315	0.8698
2324	0.8712
2333	0.873
2342	0.8744
2351	0.8739
2360	0.8723
2369	0.8687
2378	0.865
2387	0.8633
2396	0.863
2405	0.8634
2414	0.8637
2423	0.8636
2432	0.8634
2441	0.8632
2450	0.862
2459	0.8606
2468	0.859
2477	0.8571
2486	0.857
2495	0.8568
2504	0.8575
2513	0.8592
2522	0.8609
2531	0.863
2540	0.8635
2549	0.8617
2558	0.8587
2567	0.8557
2576	0.8525
2585	0.8494
2594	0.8478
2603	0.8467
2612	0.8457
2621	0.8451
2630	0.8446
2639	0.8435
2648	0.841
2657	0.8363
2666	0.8297
2675	0.8233
2684	0.8203
2693	0.8239
2702	0.8299
2711	0.832
2720	0.8294
2729	0.8243
2738	0.8165
2747	0.8092
2756	0.8051
2765	0.8019
2774	0.8008
2783	0.7907
2792	0.7776
2801	0.7658
2810	0.7634
2819	0.7719
2828	0.7722
2837	0.7603
2846	0.7238
2855	0.5493
2864	0.343
2873	0.5069
2882	0.6373
2891	0.6004
2900	0.551
2909	0.5016
2918	0.4403
2927	0.315
2936	0.1898
2945	0.1902
2954	0.3645
2963	0.6021
2972	0.6491
2981	0.6881
2990	0.7143
2999	0.7268
3008	0.7264
3017	0.7371
3026	0.7408
3035	0.7347
3044	0.7258
3053	0.7155
3062	0.703
3071	0.689
3080	0.6817
3089	0.6878
3098	0.7108
3107	0.7298
3116	0.7491
3125	0.7615
3134	0.7669
3143	0.7683
3152	0.7669
3161	0.7634
3170	0.7544
3179	0.7387
3188	0.7175
3197	0.7012
3206	0.6932
3215	0.6865
3224	0.6811
3233	0.6599
3242	0.6231
3251	0.5672
3260	0.4756
3269	0.3722
3278	0.2688
3287	0.2161
3296	0.2116
3305	0.2721
3314	0.3599
3323	0.4476
3332	0.5379
3341	0.6094
3350	0.6767
3359	0.7131
3368	0.7436
3377	0.7721
3386	0.7999
3395	0.813
3404	0.8214
3413	0.829
3422	0.8349
3431	0.8378
3440	0.841
3449	0.8421
3458	0.8437
3467	0.8455
3476	0.847
3485	0.848
3494	0.8491
3503	0.8497
3512	0.8502
3521	0.8506
3530	0.851
3539	0.8513
3548	0.8516
3557	0.8518
3566	0.8521
3575	0.8521
3584	0.8518
3593	0.8516
3602	0.8514
3611	0.8518
3620	0.853
3629	0.854
3638	0.8545
3647	0.8548
3656	0.8541
3665	0.8533
3674	0.8546
3683	0.8571
3692	0.8688
3701	0.8673
3710	0.8598
3719	0.8534
3728	0.8505
3737	0.8502
3746	0.8499
3755	0.8492
3764	0.8485
3773	0.8473
3782	0.8468
3791	0.8468
3800	0.8473
3809	0.8475
