Infrared Spectrum: NONANOIC ACID, METHYL ESTER
Formula: C10 H20 O2
CAS: 1731-84-6
State: LIQUID
Boiling point: 82-84 C AT 11 mmHg
Class: COBLENTZ
Instrument: Not specified, most likely a prism, grating, or hybrid spectrometer.
Sampling: TRANSMISSION
Path length: 0.003 CM
Resolution: 4
Origin: WYANDOTTE CHEMICALS CORP., WYANDOTTE, MICHIGAN, USA
MICROMETERS	TRANSMITTANCE
2.048	0.952
2.08876	0.962
2.12951	0.955
2.17027	0.925
2.21102	0.892
2.25178	0.899
2.29254	0.894
2.33329	0.902
2.37405	0.913
2.41481	0.921
2.45556	0.926
2.49632	0.93
2.53707	0.94
2.57783	0.948
2.61859	0.954
2.65934	0.957
2.7001	0.943
2.74086	0.931
2.78161	0.908
2.82237	0.909
2.86312	0.916
2.90388	0.875
2.94464	0.914
2.98539	0.909
3.02615	0.897
3.06691	0.897
3.10766	0.889
3.14842	0.868
3.18917	0.858
3.22993	0.838
3.27069	0.734
3.31144	0.49
3.3522	0.12
3.39296	0.035
3.43371	0.054
3.47447	0.1
3.51522	0.16
3.55598	0.64
3.59674	0.792
3.63749	0.833
3.67825	0.831
3.71901	0.85
3.75976	0.848
3.80052	0.873
3.84127	0.879
3.88203	0.885
3.92279	0.902
3.96354	0.911
4.0043	0.918
4.04506	0.918
4.08581	0.909
4.12657	0.914
4.16732	0.918
4.20808	0.908
4.24884	0.908
4.28959	0.926
4.33035	0.952
4.3711	0.955
4.41186	0.926
4.45262	0.923
4.49337	0.926
4.53413	0.921
4.57489	0.928
4.61564	0.926
4.6564	0.93
4.69715	0.931
4.73791	0.93
4.77867	0.921
4.81942	0.908
4.86018	0.897
4.90094	0.89
4.94169	0.89
4.98245	0.892
5.0232	0.899
5.06396	0.894
5.10472	0.906
5.14547	0.901
5.18623	0.906
5.22699	0.916
5.26774	0.918
5.3085	0.919
5.34925	0.913
5.39001	0.908
5.43077	0.901
5.47152	0.892
5.51228	0.858
5.55304	0.804
5.59379	0.71
5.63455	0.526
5.6753	0.194
5.71606	0.03
5.75682	0.068
5.79757	0.321
5.83833	0.458
5.87909	0.596
5.91984	0.71
5.9606	0.773
6.00135	0.792
6.04211	0.802
6.08287	0.798
6.12362	0.805
6.16438	0.816
6.20514	0.802
6.24589	0.821
6.28665	0.824
6.3274	0.824
6.36816	0.822
6.40892	0.798
6.44967	0.788
6.49043	0.773
6.53118	0.771
6.57194	0.759
6.6127	0.741
6.65345	0.703
6.69421	0.616
6.73497	0.473
6.77572	0.112
6.81648	0.126
6.85723	0.16
6.89799	0.122
6.93875	0.102
6.9795	0.31
7.02026	0.4
7.06102	0.56
7.10177	0.637
7.14253	0.633
7.18328	0.546
7.22404	0.282
7.2648	0.27
7.30555	0.229
7.34631	0.248
7.38707	0.298
7.42782	0.352
7.46858	0.383
7.50933	0.361
7.55009	0.327
7.59085	0.327
7.6316	0.308
7.67236	0.31
7.71312	0.298
7.75387	0.252
7.79463	0.257
7.83538	0.229
7.87614	0.19
7.9169	0.115
7.95765	0.076
7.99841	0.091
8.03917	0.115
8.07992	0.119
8.12068	0.114
8.16143	0.095
8.20219	0.074
8.24295	0.056
8.2837	0.047
8.32446	0.047
8.36521	0.052
8.40597	0.071
8.44673	0.063
8.48748	0.044
8.52824	0.035
8.569	0.042
8.60975	0.064
8.65051	0.131
8.69126	0.24
8.73202	0.39
8.77278	0.465
8.81353	0.5
8.85429	0.429
8.89505	0.298
8.9358	0.224
8.97656	0.197
9.01731	0.269
9.05807	0.42
9.09883	0.558
9.13958	0.606
9.18034	0.637
9.2211	0.635
9.26185	0.638
9.30261	0.626
9.34336	0.606
9.38412	0.587
9.42488	0.58
9.46563	0.572
9.50639	0.58
9.54715	0.575
9.5879	0.567
9.62866	0.57
9.66941	0.562
9.71017	0.546
9.75093	0.512
9.79168	0.5
9.83244	0.488
9.8732	0.495
9.91395	0.494
9.95471	0.509
9.99546	0.529
10.0362	0.555
10.077	0.584
10.1177	0.611
10.1585	0.637
10.1992	0.652
10.24	0.686
10.2808	0.71
10.3215	0.749
10.3623	0.778
10.403	0.793
10.4438	0.804
10.4845	0.809
10.5253	0.819
10.5661	0.826
10.6068	0.822
10.6476	0.841
10.6883	0.843
10.7291	0.85
10.7698	0.851
10.8106	0.846
10.8513	0.848
10.8921	0.841
10.9329	0.833
10.9736	0.819
11.0144	0.809
11.0551	0.802
11.0959	0.798
11.1366	0.79
11.1774	0.776
11.2182	0.735
11.2589	0.708
11.2997	0.684
11.3404	0.649
11.3812	0.625
11.4219	0.609
11.4627	0.613
11.5034	0.63
11.5442	0.637
11.585	0.638
11.6257	0.65
11.6665	0.676
11.7072	0.686
11.748	0.693
11.7887	0.684
11.8295	0.683
11.8703	0.678
11.911	0.686
11.9518	0.703
11.9925	0.722
12.0333	0.734
12.074	0.739
12.1148	0.749
12.1555	0.751
12.1963	0.742
12.2371	0.752
12.2778	0.759
12.3186	0.773
12.3593	0.783
12.4001	0.795
12.4408	0.805
12.4816	0.812
12.5223	0.821
12.5631	0.816
12.6039	0.816
12.6446	0.809
12.6854	0.804
12.7261	0.8
12.7669	0.787
12.8076	0.78
12.8484	0.758
12.8892	0.749
12.9299	0.734
12.9707	0.725
13.0114	0.724
13.0522	0.732
13.0929	0.746
13.1337	0.746
13.1744	0.747
13.2152	0.746
13.256	0.737
13.2967	0.737
13.3375	0.739
13.3782	0.734
13.419	0.724
13.4597	0.722
13.5005	0.713
13.5413	0.715
13.582	0.703
13.6228	0.706
13.6635	0.7
13.7043	0.674
13.745	0.63
13.7858	0.586
13.8265	0.546
13.8673	0.555
13.9081	0.604
13.9488	0.654
13.9896	0.691
14.0303	0.72
14.0711	0.735
14.1118	0.747
14.1526	0.759
14.1934	0.761
14.2341	0.764
14.2749	0.764
14.3156	0.77
14.3564	0.775
14.3971	0.775
14.4379	0.776
14.4786	0.787
14.5194	0.79
14.5602	0.792
14.6009	0.798
14.6417	0.798
14.6824	0.793
14.7232	0.795
14.7639	0.79
14.8047	0.785
14.8455	0.776
14.8862	0.77
14.927	0.764
14.9677	0.752
15.0085	0.735
15.0492	0.664
15.09	0.604
15.1307	0.586
15.1715	0.625
15.2123	0.676
15.253	0.708
15.2938	0.712
15.3345	0.715
15.3753	0.722
15.416	0.715
15.4568	0.718
15.4976	0.717
15.5383	0.722
15.5791	0.715
15.6198	0.712
15.6606	0.712
15.7013	0.717
15.7421	0.713
15.7828	0.706
15.8236	0.703
15.8644	0.708
15.9051	0.703
15.9459	0.7
15.9866	0.7
