Infrared Spectrum: 1-(p-Chlorophenyl)cyclohexanol
Formula: C12 H15 Cl O
CAS: 17380-83-5
State: SOLUTION (10% CCl4 FOR 3800-1340, 10% CS2 FOR 1340-460 CM^-^1) VS SOLVENT
Class: COBLENTZ II
Instrument: DOW KBr FOREPRISM-GRATING
Instrument parameters: BLAZED AT 3.5, 12.0, 20.0 MICRON AND CHANGED AT 5.0, 7.5, 14.9 MICRON
Sampling: TRANSMISSION
Path length: 0.011 CM, 0.011 CM
Resolution: 2
Origin: DOW CHEMICAL COMPANY
1/CM	TRANSMITTANCE
3794	0.8878
3785	0.8867
3776	0.8851
3767	0.8825
3758	0.8831
3749	0.8833
3740	0.8835
3731	0.8828
3722	0.8818
3713	0.8806
3704	0.8792
3695	0.8775
3686	0.8758
3677	0.8734
3668	0.8711
3659	0.8682
3650	0.8614
3641	0.8362
3632	0.7889
3623	0.7475
3614	0.685
3605	0.5166
3596	0.5684
3587	0.7326
3578	0.7778
3569	0.8071
3560	0.8107
3551	0.8118
3542	0.8046
3533	0.7931
3524	0.7731
3515	0.7461
3506	0.7294
3497	0.7139
3488	0.7018
3479	0.6937
3470	0.6908
3461	0.6921
3452	0.6988
3443	0.7068
3434	0.715
3425	0.723
3416	0.731
3407	0.739
3398	0.7471
3389	0.7551
3380	0.7632
3371	0.771
3362	0.7787
3353	0.7862
3344	0.794
3335	0.8014
3326	0.8088
3317	0.8161
3308	0.8241
3299	0.8321
3290	0.839
3281	0.8442
3272	0.849
3263	0.8525
3254	0.8563
3245	0.8589
3236	0.8606
3227	0.8621
3218	0.8636
3209	0.8646
3200	0.8655
3191	0.8649
3182	0.8644
3173	0.8621
3164	0.8598
3155	0.8596
3146	0.8599
3137	0.8612
3128	0.8608
3119	0.8558
3110	0.844
3101	0.8053
3092	0.7954
3083	0.8183
3074	0.8295
3065	0.8246
3056	0.8178
3047	0.822
3038	0.801
3029	0.8224
3020	0.8383
3011	0.8353
3002	0.8154
2993	0.7796
2984	0.686
2975	0.5565
2966	0.3918
2957	0.1969
2948	0.0461
2939	0.044
2930	0.0607
2921	0.2217
2912	0.3896
2903	0.5022
2894	0.5751
2885	0.6036
2876	0.4845
2867	0.289
2858	0.2934
2849	0.45
2840	0.6871
2831	0.7862
2822	0.8087
2813	0.8183
2804	0.8242
2795	0.83
2786	0.8371
2777	0.8457
2768	0.8521
2759	0.8568
2750	0.8592
2741	0.8602
2732	0.8606
2723	0.8571
2714	0.8547
2705	0.8531
2696	0.8521
2687	0.8493
2678	0.8307
2669	0.8308
2660	0.8392
2651	0.8475
2642	0.854
2633	0.8566
2624	0.8557
2615	0.8542
2606	0.8535
2597	0.855
2588	0.8553
2579	0.8547
2570	0.8541
2561	0.8563
2552	0.8587
2543	0.86
2534	0.8609
2525	0.86
2516	0.8586
2507	0.8583
2498	0.8585
2489	0.8587
2480	0.8588
2471	0.859
2462	0.8592
2453	0.8597
2444	0.8601
2435	0.8592
2426	0.8555
2417	0.8551
2408	0.8551
2399	0.8532
2390	0.8525
2381	0.8531
2372	0.8549
2363	0.8568
2354	0.859
2345	0.8601
2336	0.8601
2327	0.8581
2318	0.8537
2309	0.8492
2300	0.8473
2291	0.8482
2282	0.8501
2273	0.8517
2264	0.8527
2255	0.853
2246	0.8527
2237	0.8524
2228	0.8521
2219	0.8521
2210	0.8523
2201	0.8532
2192	0.8543
2183	0.856
2174	0.8574
2165	0.8587
2156	0.859
2147	0.8589
2138	0.8586
2129	0.8584
2120	0.8591
2111	0.8597
2102	0.8602
2093	0.8602
2084	0.8602
2075	0.8603
2066	0.8606
2057	0.8616
2048	0.8625
2039	0.8632
2030	0.8636
2021	0.864
2012	0.8649
2003	0.8624
1994	0.869
1985	0.8692
1976	0.8693
1967	0.8697
1958	0.8692
1949	0.8658
1940	0.8641
1931	0.8578
1922	0.8575
1913	0.8363
1904	0.8153
1895	0.8455
1886	0.8485
1877	0.8607
1868	0.8602
1859	0.8633
1850	0.8642
1841	0.8628
1832	0.8603
1823	0.8578
1814	0.8575
1805	0.859
1796	0.851
1787	0.841
1778	0.8404
1769	0.8436
1760	0.8465
1751	0.8501
1742	0.8495
1733	0.8478
1724	0.8483
1715	0.8486
1706	0.8483
1697	0.8475
1688	0.8467
1679	0.8462
1670	0.8392
1661	0.8235
1652	0.8153
1643	0.8138
1634	0.8248
1625	0.8361
1616	0.8288
1607	0.811
1598	0.71
1589	0.8112
1580	0.8312
1571	0.833
1562	0.8523
1553	0.8523
1544	0.8505
1535	0.847
1526	0.8378
1517	0.7971
1508	0.6671
1499	0.1076
1490	0.4206
1481	0.451
1472	0.6665
1463	0.6275
1454	0.501
1445	0.571
1436	0.681
1427	0.761
1418	0.7642
1409	0.6801
1400	0.6337
1391	0.708
1382	0.6887
1373	0.6251
1364	0.5912
1355	0.5437
1346	0.5914
1337	0.6489
1328	0.7508
1319	0.7569
1310	0.6993
1301	0.6607
1292	0.7342
1283	0.7212
1274	0.7157
1265	0.6676
1256	0.5373
1247	0.7101
1238	0.7665
1229	0.8045
1220	0.8028
1211	0.6388
1202	0.7521
1193	0.773
1184	0.7561
1175	0.693
1166	0.646
1157	0.6847
1148	0.4693
1139	0.6418
1130	0.611
1121	0.5566
1112	0.625
1103	0.5406
1094	0.215
1085	0.7045
1076	0.7451
1067	0.7961
1058	0.7232
1049	0.754
1040	0.735
1031	0.5921
1022	0.7141
1013	0.1432
1004	0.7048
995	0.8096
986	0.6645
977	0.2818
968	0.3011
959	0.548
950	0.7634
941	0.7796
932	0.8121
923	0.8158
914	0.8238
905	0.7076
896	0.7576
887	0.8325
878	0.8673
869	0.8763
860	0.8475
851	0.4541
842	0.7278
833	0.3808
824	0.2607
815	0.429
806	0.8151
797	0.8718
788	0.8877
779	0.85
770	0.8551
761	0.8847
752	0.8801
743	0.8096
734	0.8327
725	0.8381
716	0.8263
707	0.8537
698	0.8464
689	0.8352
680	0.7758
671	0.8458
662	0.8385
653	0.8268
644	0.8207
635	0.7961
626	0.8038
617	0.7961
608	0.7867
599	0.7739
590	0.7618
581	0.7619
572	0.7486
563	0.728
554	0.6764
545	0.2309
536	0.5836
527	0.6586
518	0.6906
509	0.7024
500	0.6678
491	0.6825
482	0.7004
473	0.7071
