Infrared Spectrum: Acetophenone, 2'-trifluoromethyl-
Formula: C9 H7 F3 O
CAS: 17408-14-9
State: SOLUTION (10% CCl4 FOR 3800-1340, 10% CS2 FOR 1340-460 CM^-^1)
Class: COBLENTZ III
Instrument: DOW KBr FOREPRISM-GRATING
Instrument parameters: BLAZED AT 3.5, 12.0, 20.0 MICRON AND CHANGED AT 5.0, 7.5, 14.9 MICRON
Sampling: TRANSMISSION
Path length: 0.010 CM, 0.010 CM
Resolution: 2
Origin: DOW CHEMICAL COMPANY
1/CM	TRANSMITTANCE
462	0.73
471	0.7344
480	0.7375
489	0.7423
498	0.7638
507	0.7733
516	0.7736
525	0.7662
534	0.7549
543	0.7508
552	0.7688
561	0.7704
570	0.7481
579	0.7394
588	0.6994
597	0.5295
606	0.2627
615	0.6355
624	0.7548
633	0.7714
642	0.7624
651	0.2682
660	0.6497
669	0.7786
678	0.8227
687	0.8274
696	0.7155
705	0.824
714	0.8125
723	0.4854
732	0.813
741	0.8064
750	0.73
759	0.3336
768	0.0096
777	0.5556
786	0.7675
795	0.7989
804	0.803
813	0.8142
822	0.8426
831	0.8382
840	0.8157
849	0.7634
858	0.7093
867	0.7261
876	0.7219
885	0.7883
894	0.8084
903	0.8394
912	0.8397
921	0.8272
930	0.8335
939	0.8096
948	0.6855
957	0.6248
966	0.6315
975	0.7242
984	0.7839
993	0.7829
1002	0.7372
1011	0.6421
1020	0.7012
1029	0.476
1038	0.0629
1047	0.0893
1056	0.6427
1065	0.6312
1074	0.6106
1083	0.3951
1092	0.2976
1101	0.4382
1110	0.1441
1119	0.0348
1128	0.0003
1137	0.0015
1146	0.0057
1155	0.0564
1164	0.0167
1173	0
1182	0.1439
1191	0.4438
1200	0.5755
1209	0.6456
1218	0.6664
1227	0.5789
1236	0.2111
1245	0.0227
1254	0.1357
1263	0.3375
1272	0.094
1281	0.3227
1290	0.4669
1299	0.2691
1308	0.0158
1317	0.0047
1326	0.1953
1335	0.3881
1344	0.6057
1353	0.3857
1362	0.1929
1371	0.5778
1380	0.7035
1389	0.763
1398	0.7646
1407	0.7368
1416	0.6549
1425	0.5952
1434	0.6514
1443	0.6794
1452	0.6072
1461	0.7829
1470	0.7907
1479	0.7795
1488	0.7444
1497	0.6457
1506	0.7076
1515	0.6675
1524	0.6287
1533	0.566
1542	0.4899
1551	0.462
1560	0.5019
1569	0.5518
1578	0.5091
1587	0.4646
1596	0.6444
1605	0.6029
1614	0.6916
1623	0.7821
1632	0.7934
1641	0.7853
1650	0.7849
1659	0.7861
1668	0.7522
1677	0.7209
1686	0.6513
1695	0.2674
1704	0.0352
1713	0.0018
1722	0.1505
1731	0.5241
1740	0.7266
1749	0.7825
1758	0.8057
1767	0.8221
1776	0.8322
1785	0.8416
1794	0.8496
1803	0.8559
1812	0.8575
1821	0.8393
1830	0.8219
1839	0.8394
1848	0.8536
1857	0.854
1866	0.8512
1875	0.8696
1884	0.8711
1893	0.8694
1902	0.8681
1911	0.8671
1920	0.8673
1929	0.8611
1938	0.8335
1947	0.8492
1956	0.8604
1965	0.8577
1974	0.848
1983	0.8698
1992	0.8738
2001	0.8861
2010	0.9008
2019	0.9056
2028	0.9082
2037	0.9096
2046	0.9102
2055	0.9107
2064	0.911
2073	0.911
2082	0.9108
2091	0.9105
2100	0.9102
2109	0.9083
2118	0.9065
2127	0.9091
2136	0.912
2145	0.9122
2154	0.9122
2163	0.9123
2172	0.9123
2181	0.9121
2190	0.9115
2199	0.9106
2208	0.9097
2217	0.9079
2226	0.9061
2235	0.9041
2244	0.9013
2253	0.8983
2262	0.8953
2271	0.8925
2280	0.8903
2289	0.8881
2298	0.8875
2307	0.8884
2316	0.8893
2325	0.8921
2334	0.8952
2343	0.9006
2352	0.9055
2361	0.9106
2370	0.9153
2379	0.9147
2388	0.9142
2397	0.9135
2406	0.9126
2415	0.9118
2424	0.9116
2433	0.9114
2442	0.9113
2451	0.9113
2460	0.9114
2469	0.9114
2478	0.9113
2487	0.9112
2496	0.9113
2505	0.9115
2514	0.9118
2523	0.912
2532	0.9117
2541	0.9112
2550	0.9108
2559	0.9103
2568	0.9098
2577	0.9092
2586	0.9079
2595	0.9062
2604	0.9044
2613	0.9022
2622	0.8997
2631	0.8973
2640	0.8973
2649	0.9011
2658	0.9036
2667	0.9022
2676	0.9013
2685	0.9017
2694	0.9029
2703	0.9038
2712	0.9039
2721	0.9033
2730	0.9021
2739	0.9009
2748	0.8998
2757	0.8987
2766	0.898
2775	0.8973
2784	0.8967
2793	0.8962
2802	0.895
2811	0.8934
2820	0.8913
2829	0.8889
2838	0.887
2847	0.8849
2856	0.8828
2865	0.8821
2874	0.8823
2883	0.8807
2892	0.8773
2901	0.8731
2910	0.8683
2919	0.8635
2928	0.8597
2937	0.8587
2946	0.8634
2955	0.865
2964	0.8614
2973	0.8553
2982	0.851
2991	0.8511
3000	0.8498
3009	0.8142
3018	0.8007
3027	0.8199
3036	0.8331
3045	0.833
3054	0.8317
3063	0.8258
3072	0.7992
3081	0.782
3090	0.7839
3099	0.7969
3108	0.8583
3117	0.8636
3126	0.8678
3135	0.8746
3144	0.8768
3153	0.8786
3162	0.8798
3171	0.8804
3180	0.8805
3189	0.8805
3198	0.8803
3207	0.8799
3216	0.8797
3225	0.8794
3234	0.8791
3243	0.8788
3252	0.8787
3261	0.8785
3270	0.8784
3279	0.8777
3288	0.8771
3297	0.8764
3306	0.8758
3315	0.8751
3324	0.8745
3333	0.8734
3342	0.8721
3351	0.8701
3360	0.8674
3369	0.8647
3378	0.8604
3387	0.8538
3396	0.8443
3405	0.8324
3414	0.8301
3423	0.84
3432	0.8579
3441	0.8694
3450	0.8736
3459	0.8757
3468	0.8773
3477	0.8776
3486	0.8781
3495	0.8781
3504	0.8782
3513	0.8781
3522	0.8775
3531	0.8768
3540	0.8761
3549	0.8754
3558	0.8751
3567	0.8747
3576	0.8743
3585	0.8739
3594	0.8735
3603	0.8737
3612	0.874
3621	0.8743
3630	0.8746
3639	0.8748
3648	0.8743
3657	0.8736
3666	0.8729
3675	0.872
3684	0.8707
3693	0.8708
3702	0.8732
3711	0.877
3720	0.8797
3729	0.8815
3738	0.8826
3747	0.8828
3756	0.8823
3765	0.8812
3774	0.8799
3783	0.8788
3792	0.8783
3801	0.878
3810	0.878
