Infrared Spectrum: 2-BUTANOL, 3,3,4,4-TETRAFLUORO-
Formula: C4 H6 F4 O
CAS: 17425-25-1
State: SOLUTION (10% CCl4 FOR 3800-400 CM^-^1)
Boiling point: 113 C AT 760 mmHg
Class: COBLENTZ III
Instrument: DOW KBr FOREPRISM-GRATING
Instrument parameters: BLAZED AT 3.5, 12.0, 20.0 MICRON AND CHANGED AT 5.0, 7.5, 14.9 MICRON
Sampling: TRANSMISSION
Path length: 0.011 CM
Resolution: 2
Origin: DOW CHEMICAL COMPANY
1/CM	TRANSMITTANCE
383	0.6284
392	0.6293
401	0.6331
410	0.6397
419	0.6435
428	0.6229
437	0.6122
446	0.6148
455	0.6315
464	0.669
473	0.6625
482	0.6683
491	0.6986
500	0.6842
509	0.4972
518	0.6095
527	0.6974
536	0.6277
545	0.7241
554	0.6751
563	0.5576
572	0.7215
581	0.6326
590	0.7406
599	0.6881
608	0.7821
617	0.7667
626	0.7305
635	0.7778
644	0.8575
653	0.8581
662	0.8528
671	0.8346
680	0.7561
689	0.6424
698	0.4602
707	0.5026
716	0.3559
725	0.2939
734	0.1026
743	0.0001
752	0.0001
761	0
770	0
779	0
788	0
797	0
806	0
815	0.0245
824	0.0365
833	0.3025
842	0.6252
851	0.7598
860	0.8145
869	0.8331
878	0.838
887	0.8111
896	0.4858
905	0.4774
914	0.6229
923	0.8465
932	0.8855
941	0.8902
950	0.8806
959	0.856
968	0.7839
977	0.6496
986	0.5648
995	0.5955
1004	0.2719
1013	0.1342
1022	0.3316
1031	0.1228
1040	0.3008
1049	0.3737
1058	0.3628
1067	0.3302
1076	0.2325
1085	0.1818
1094	0.1155
1103	0.0063
1112	0.0066
1121	0.0071
1130	0.0075
1139	0.027
1148	0.1954
1157	0.4796
1166	0.5801
1175	0.5669
1184	0.4578
1193	0.2465
1202	0.1852
1211	0.2334
1220	0.3225
1229	0.3588
1238	0.2762
1247	0.1815
1256	0.2213
1265	0.3999
1274	0.4458
1283	0.54
1292	0.66
1301	0.709
1310	0.7594
1319	0.8071
1328	0.8071
1337	0.7908
1346	0.6493
1355	0.6381
1364	0.6657
1373	0.6375
1382	0.5142
1391	0.5862
1400	0.5609
1409	0.5075
1418	0.6532
1427	0.7475
1436	0.7768
1445	0.7299
1454	0.5948
1463	0.5945
1472	0.7669
1481	0.8428
1490	0.843
1499	0.8164
1508	0.7685
1517	0.7168
1526	0.6626
1535	0.6028
1544	0.5088
1553	0.4987
1562	0.582
1571	0.6397
1580	0.6654
1589	0.6901
1598	0.7525
1607	0.8008
1616	0.8406
1625	0.8598
1634	0.881
1643	0.9014
1652	0.9134
1661	0.9223
1670	0.9343
1679	0.9418
1688	0.9417
1697	0.9385
1706	0.936
1715	0.9451
1724	0.951
1733	0.9553
1742	0.9598
1751	0.9635
1760	0.9665
1769	0.9684
1778	0.9693
1787	0.9683
1796	0.9668
1805	0.9649
1814	0.964
1823	0.9659
1832	0.9685
1841	0.9713
1850	0.9738
1859	0.9766
1868	0.979
1877	0.9794
1886	0.9784
1895	0.9763
1904	0.9733
1913	0.9697
1922	0.9663
1931	0.9649
1940	0.9684
1949	0.9736
1958	0.9753
1967	0.9747
1976	0.973
1985	0.9703
1994	0.9651
2003	0.9684
2012	0.9684
2021	0.9708
2030	0.9734
2039	0.9756
2048	0.9778
2057	0.9793
2066	0.9803
2075	0.9813
2084	0.9818
2093	0.9821
2102	0.9823
2111	0.9817
2120	0.9811
2129	0.9799
2138	0.9783
2147	0.9767
2156	0.9746
2165	0.972
2174	0.9694
2183	0.9656
2192	0.9618
2201	0.9594
2210	0.9578
2219	0.9587
2228	0.9596
2237	0.9601
2246	0.9608
2255	0.9617
2264	0.961
2273	0.9566
2282	0.9511
2291	0.9536
2300	0.958
2309	0.9605
2318	0.9735
2327	0.9912
2336	0.9904
2345	0.9889
2354	0.9866
2363	0.9837
2372	0.981
2381	0.9786
2390	0.9771
2399	0.9758
2408	0.9752
2417	0.9746
2426	0.9741
2435	0.9735
2444	0.973
2453	0.9723
2462	0.9716
2471	0.9709
2480	0.9703
2489	0.9698
2498	0.9694
2507	0.9691
2516	0.9697
2525	0.9702
2534	0.9708
2543	0.9712
2552	0.9718
2561	0.9721
2570	0.9725
2579	0.9725
2588	0.9723
2597	0.9721
2606	0.972
2615	0.9708
2624	0.9696
2633	0.9684
2642	0.9668
2651	0.9652
2660	0.9636
2669	0.9614
2678	0.9582
2687	0.9556
2696	0.9534
2705	0.9511
2714	0.9505
2723	0.9504
2732	0.9503
2741	0.9501
2750	0.9499
2759	0.9497
2768	0.9496
2777	0.9497
2786	0.95
2795	0.9509
2804	0.9485
2813	0.9431
2822	0.9364
2831	0.9284
2840	0.9224
2849	0.9186
2858	0.9093
2867	0.8911
2876	0.8653
2885	0.8505
2894	0.8408
2903	0.8284
2912	0.8162
2921	0.8038
2930	0.775
2939	0.7164
2948	0.7378
2957	0.8252
2966	0.8225
2975	0.7207
2984	0.6197
2993	0.5289
3002	0.6252
3011	0.7661
3020	0.8971
3029	0.9259
3038	0.9359
3047	0.9398
3056	0.9395
3065	0.9368
3074	0.9341
3083	0.9305
3092	0.926
3101	0.9206
3110	0.9144
3119	0.9065
3128	0.898
3137	0.8893
3146	0.8798
3155	0.869
3164	0.8573
3173	0.8439
3182	0.8302
3191	0.8148
3200	0.7976
3209	0.7785
3218	0.7576
3227	0.7364
3236	0.7145
3245	0.6941
3254	0.6756
3263	0.6597
3272	0.6437
3281	0.6275
3290	0.6098
3299	0.5916
3308	0.5735
3317	0.5549
3326	0.5362
3335	0.5203
3344	0.5049
3353	0.4904
3362	0.477
3371	0.466
3380	0.4564
3389	0.4482
3398	0.4445
3407	0.4432
3416	0.4432
3425	0.4444
3434	0.4468
3443	0.4506
3452	0.455
3461	0.4614
3470	0.4703
3479	0.4824
3488	0.4982
3497	0.5222
3506	0.5538
3515	0.5838
3524	0.6147
3533	0.6475
3542	0.6822
3551	0.7182
3560	0.7297
3569	0.7248
3578	0.6981
3587	0.6266
3596	0.4988
3605	0.4503
3614	0.4636
3623	0.5152
3632	0.5945
3641	0.7344
3650	0.845
3659	0.8463
3668	0.8363
3677	0.8367
3686	0.8694
3695	0.8963
3704	0.9336
3713	0.9586
3722	0.9751
3731	0.9797
3740	0.9823
3749	0.9845
3758	0.9857
3767	0.9868
3776	0.9875
3785	0.9875
3794	0.9854
