Infrared Spectrum: BENZENE, 2-PROPENYLOXY-
Formula: C9 H10 O
CAS: 1746-13-0
State: SOLUTION (11% IN CCl4 FOR 3800-1300, 11% IN CS2 FOR 1300-650, AND 11% IN CCl4 FOR 650-250 CM^-^1) VERSUS SOLVENT
Class: COBLENTZ III
Instrument: PERKIN-ELMER 521 (GRATING)
Instrument parameters: FILTERS AT 3150, 2500, 2000, 1150, 700, 410; GRATING CHANGES AT 2000, 630 CM^-^1
Sampling: TRANSMISSION
Path length: 0.010 0.010, AND 0.010 CM (CsBr CELL)
Resolution: 4
Origin: DOW CORNING CORP.
1/CM	TRANSMITTANCE
246.154	0.907
255.128	0.903
264.103	0.896
273.077	0.884
282.052	0.875
291.026	0.87
300	0.87
308.975	0.854
317.949	0.863
326.924	0.863
335.898	0.868
344.872	0.872
353.847	0.868
362.821	0.868
371.796	0.872
380.77	0.868
389.744	0.865
398.719	0.868
407.693	0.86
416.668	0.867
425.642	0.865
434.616	0.863
443.591	0.858
452.565	0.844
461.539	0.842
470.514	0.814
479.488	0.797
488.463	0.769
497.437	0.6741
506.411	0.489
515.386	0.681
524.36	0.729
533.335	0.7579
542.309	0.793
551.283	0.769
560.258	0.6781
569.232	0.692
578.207	0.786
587.181	0.777
596.155	0.76
605.13	0.73
614.104	0.767
623.079	0.743
632.053	0.704
641.027	0.694
650.002	0.734
658.976	0.739
667.951	0.748
676.925	0.6991
685.899	0.061
694.874	0.4102
703.848	0.7619
712.823	0.8
721.797	0.791
730.771	0.732
739.746	0.4932
748.72	0.024
757.695	0.2666
766.669	0.652
775.643	0.695
784.618	0.6501
793.592	0.777
802.566	0.765
811.541	0.6129
820.515	0.552
829.49	0.506
838.464	0.786
847.438	0.833
856.413	0.807
865.387	0.776
874.362	0.5189
883.336	0.6728
892.31	0.732
901.285	0.702
910.259	0.5151
919.234	0.094
928.208	0.1431
937.182	0.5408
946.157	0.666
955.131	0.678
964.106	0.643
973.08	0.4731
982.054	0.236
991.029	0.167
1000	0.2691
1008.98	0.374
1017.95	0.225
1026.93	0.1462
1035.9	0.099
1044.88	0.513
1053.85	0.671
1062.82	0.695
1071.8	0.451
1080.77	0.5501
1089.75	0.669
1098.72	0.575
1107.7	0.583
1116.67	0.61
1125.64	0.723
1134.62	0.727
1143.59	0.6658
1152.57	0.5167
1161.54	0.531
1170.52	0.1321
1179.49	0.613
1188.47	0.625
1197.44	0.54
1206.41	0.3751
1215.39	0.024
1224.36	0.064
1233.34	0.013
1242.31	0.008
1251.29	0.1591
1260.26	0.2341
1269.24	0.4069
1278.21	0.526
1287.18	0.293
1296.16	0.2761
1305.13	0.318
1314.11	0.685
1323.08	0.706
1332.06	0.59
1341.03	0.748
1350	0.727
1358.98	0.5271
1367.95	0.666
1376.93	0.671
1385.9	0.657
1394.88	0.75
1403.85	0.6518
1412.83	0.5661
1421.8	0.2461
1430.77	0.6321
1439.75	0.715
1448.72	0.61
1457.7	0.309
1466.67	0.5131
1475.65	0.4071
1484.62	0.251
1493.59	0.003
1502.57	0.2745
1511.54	0.671
1520.52	0.786
1529.49	0.807
1538.47	0.811
1547.44	0.79
1556.42	0.762
1565.39	0.669
1574.36	0.59
1583.34	0.2409
1592.31	0.2014
1601.29	0.097
1610.26	0.4861
1619.24	0.7111
1628.21	0.772
1637.19	0.769
1646.16	0.6809
1655.13	0.7669
1664.11	0.837
1673.08	0.844
1682.06	0.83
1691.03	0.793
1700.01	0.786
1708.98	0.772
1717.95	0.779
1726.93	0.83
1735.9	0.853
1744.88	0.849
1753.85	0.849
1762.83	0.828
1771.8	0.828
1780.78	0.856
1789.75	0.867
1798.72	0.868
1807.7	0.868
1816.67	0.863
1825.65	0.837
1834.62	0.781
1843.6	0.802
1852.57	0.77
1861.55	0.818
1870.52	0.837
1879.49	0.867
1888.47	0.872
1897.44	0.867
1906.42	0.856
1915.39	0.84
1924.37	0.758
1933.34	0.833
1942.31	0.83
1951.29	0.846
1960.26	0.863
1969.24	0.865
1978.21	0.863
1987.19	0.854
1996.16	0.842
2005.14	0.846
2014.11	0.8605
2023.08	0.867
2032.06	0.863
2041.03	0.865
2050.01	0.8498
2058.98	0.835
2067.96	0.8381
2076.93	0.8534
2085.9	0.8667
2094.88	0.875
2103.85	0.875
2112.83	0.874
2121.8	0.874
2130.78	0.881
2139.75	0.882
2148.73	0.882
2157.7	0.882
2166.67	0.882
2175.65	0.882
2184.62	0.8819
2193.6	0.881
2202.57	0.882
2211.55	0.881
2220.52	0.877
2229.5	0.875
2238.47	0.877
2247.44	0.8777
2256.42	0.875
2265.39	0.874
2274.37	0.8737
2283.34	0.872
2292.32	0.8754
2301.29	0.8743
2310.26	0.867
2319.24	0.867
2328.21	0.8654
2337.19	0.87
2346.16	0.872
2355.14	0.87
2364.11	0.872
2373.09	0.8705
2382.06	0.867
2391.03	0.863
2400.01	0.861
2408.98	0.86
2417.96	0.858
2426.93	0.8532
2435.91	0.851
2444.88	0.8592
2453.86	0.856
2462.83	0.8498
2471.8	0.842
2480.78	0.844
2489.75	0.8575
2498.73	0.8666
2507.7	0.8644
2516.68	0.8584
2525.65	0.8434
2534.62	0.844
2543.6	0.8434
2552.57	0.8555
2561.55	0.86
2570.52	0.858
2579.5	0.858
2588.47	0.86
2597.45	0.8617
2606.42	0.867
2615.39	0.865
2624.37	0.8632
2633.34	0.8638
2642.32	0.8718
2651.29	0.872
2660.27	0.8702
2669.24	0.87
2678.22	0.868
2687.19	0.8662
2696.16	0.8601
2705.14	0.8536
2714.11	0.851
2723.09	0.847
2732.06	0.8441
2741.04	0.8474
2750.01	0.8559
2758.98	0.8591
2767.96	0.851
2776.93	0.843
2785.91	0.84
2794.88	0.844
2803.86	0.842
2812.83	0.8325
2821.81	0.8089
2830.78	0.7903
2839.75	0.7577
2848.73	0.6977
2857.7	0.5966
2866.68	0.5246
2875.65	0.5471
2884.63	0.5651
2893.6	0.6122
2902.57	0.6171
2911.55	0.5688
2920.52	0.5796
2929.5	0.6034
2938.47	0.6141
2947.45	0.6767
2956.42	0.7282
2965.4	0.753
2974.37	0.7429
2983.34	0.678
2992.32	0.6439
3001.29	0.688
3010.27	0.6985
3019.24	0.6277
3028.22	0.5059
3037.19	0.5053
3046.17	0.5144
3055.14	0.6195
3064.11	0.5364
3073.09	0.496
3082.06	0.52
3091.04	0.5277
3100.01	0.5637
3108.99	0.6418
3117.96	0.8
3126.93	0.833
3135.91	0.8434
3144.88	0.8462
3153.86	0.853
3162.83	0.8545
3171.81	0.858
3180.78	0.8615
3189.76	0.867
3198.73	0.8685
3207.7	0.872
3216.68	0.8743
3225.65	0.877
3234.63	0.882
3243.6	0.8835
3252.58	0.8854
3261.55	0.886
3270.53	0.888
3279.5	0.889
3288.47	0.889
3297.45	0.889
3306.42	0.889
3315.4	0.889
3324.37	0.888
3333.35	0.8905
3342.32	0.889
3351.29	0.889
3360.27	0.888
3369.24	0.888
3378.22	0.888
3387.19	0.888
3396.17	0.889
3405.14	0.889
3414.12	0.888
3423.09	0.888
3432.06	0.888
3441.04	0.888
3450.01	0.888
3458.99	0.889
3467.96	0.889
3476.94	0.889
3485.91	0.889
3494.88	0.888
3503.86	0.8871
3512.83	0.886
3521.81	0.884
3530.78	0.886
3539.76	0.8849
3548.73	0.886
3557.71	0.889
3566.68	0.889
3575.65	0.89
3584.63	0.8961
3593.6	0.892
3602.58	0.891
3611.55	0.893
3620.53	0.896
3629.5	0.8955
3638.48	0.8911
3647.45	0.895
3656.42	0.8911
3665.4	0.895
3674.37	0.898
3683.35	0.896
3692.32	0.8929
3701.3	0.8967
3710.27	0.8959
3719.24	0.8956
3728.22	0.9021
3737.19	0.9042
3746.17	0.91
3755.14	0.898
3764.12	0.896
3773.09	0.8954
3782.07	0.895
3791.04	0.895
