Infrared Spectrum: STYRENE, p-TERT-BUTYL-
Formula: C12 H16
CAS: 1746-23-2
State: LIQUID (NEAT)
Class: COBLENTZ III
Instrument: PERKIN-ELMER 521 (GRATING)
Instrument parameters: FILTERS AT 3130, 2475, 2000, 1150, 700, 410. GRATING CHANGES: 2000, 620 CM^-^1
Sampling: TRANSMISSION
Path length: 0.003 CM, KBr
Resolution: 2
Origin: STANDARD OIL OF OHIO (L. WOLFRAM)
1/CM	TRANSMITTANCE
503.982	0.873
513.233	0.871
522.484	0.869
531.735	0.8709
540.986	0.7905
550.237	0.8415
559.489	0.8398
568.74	0.8196
577.991	0.629
587.242	0.7618
596.493	0.8041
605.744	0.81
614.995	0.805
624.246	0.7912
633.497	0.7539
642.748	0.6739
651.999	0.638
661.251	0.8013
670.502	0.843
679.753	0.8362
689.004	0.8045
698.255	0.847
707.506	0.8041
716.757	0.8289
726.008	0.8555
735.259	0.85
744.51	0.8408
753.761	0.8114
763.012	0.8311
772.264	0.828
781.515	0.822
790.766	0.8049
800.017	0.7158
809.268	0.7827
818.519	0.764
827.77	0.5475
837.021	0.0232
846.272	0.0981
855.523	0.6214
864.774	0.737
874.026	0.735
883.277	0.7134
892.528	0.5184
901.779	0.0524
911.03	0.1061
920.281	0.406
929.532	0.6386
938.783	0.6905
948.034	0.7295
957.285	0.739
966.536	0.7295
975.788	0.7009
985.039	0.5096
994.29	0.1017
1003.54	0.6403
1012.79	0.6167
1022.04	0.3579
1031.29	0.6427
1040.55	0.7026
1049.8	0.7637
1059.05	0.7834
1068.3	0.803
1077.55	0.8061
1086.8	0.7967
1096.05	0.747
1105.3	0.6353
1114.55	0.2357
1123.8	0.598
1133.06	0.4869
1142.31	0.8009
1151.56	0.805
1160.81	0.8012
1170.06	0.7944
1179.31	0.7698
1188.56	0.7393
1197.81	0.647
1207.06	0.4773
1216.32	0.5422
1225.57	0.747
1234.82	0.7344
1244.07	0.734
1253.32	0.719
1262.57	0.6349
1271.82	0.1699
1281.07	0.5742
1290.32	0.4774
1299.58	0.682
1308.83	0.7633
1318.08	0.7589
1327.33	0.6839
1336.58	0.7846
1345.83	0.7412
1355.08	0.6674
1364.33	0.3419
1373.58	0.4134
1382.84	0.6521
1392.09	0.5535
1401.34	0.2729
1410.59	0.2045
1419.84	0.632
1429.09	0.6393
1438.34	0.6776
1447.59	0.5319
1456.84	0.358
1466.1	0.2517
1475.35	0.2695
1484.6	0.3257
1493.85	0.6357
1503.1	0.5783
1512.35	0.1856
1521.6	0.3524
1530.85	0.7987
1540.1	0.7994
1549.36	0.783
1558.61	0.7392
1567.86	0.7371
1577.11	0.797
1586.36	0.793
1595.61	0.796
1604.86	0.7318
1614.11	0.488
1623.36	0.7077
1632.61	0.1052
1641.87	0.6924
1651.12	0.7881
1660.37	0.7769
1669.62	0.709
1678.87	0.7889
1688.12	0.8232
1697.37	0.836
1706.62	0.833
1715.87	0.8232
1725.13	0.811
1734.38	0.8051
1743.63	0.8046
1752.88	0.8215
1762.13	0.835
1771.38	0.8277
1780.63	0.794
1789.88	0.756
1799.13	0.748
1808.39	0.7088
1817.64	0.7082
1826.89	0.7421
1836.14	0.7896
1845.39	0.8331
1854.64	0.851
1863.89	0.853
1873.14	0.853
1882.39	0.8536
1891.65	0.8292
1900.9	0.7863
1910.15	0.7043
1919.4	0.8028
1928.65	0.8477
1937.9	0.8572
1947.15	0.8578
1956.4	0.8538
1965.65	0.852
1974.91	0.8542
1984.16	0.8651
1993.41	0.875
2002.66	0.875
2011.91	0.875
2021.16	0.877
2030.41	0.875
2039.66	0.875
2048.91	0.877
2058.16	0.878
2067.42	0.879
2076.67	0.879
2085.92	0.881
2095.17	0.883
2104.42	0.879
2113.67	0.878
2122.92	0.877
2132.17	0.877
2141.42	0.875
2150.68	0.875
2159.93	0.875
2169.18	0.878
2178.43	0.878
2187.68	0.878
2196.93	0.878
2206.18	0.878
2215.43	0.878
2224.68	0.878
2233.94	0.878
2243.19	0.879
2252.44	0.879
2261.69	0.879
2270.94	0.879
2280.19	0.874
2289.44	0.869
2298.69	0.871
2307.94	0.871
2317.2	0.869
2326.45	0.871
2335.7	0.873
2344.95	0.871
2354.2	0.871
2363.45	0.869
2372.7	0.867
2381.95	0.864
2391.2	0.862
2400.46	0.87
2409.71	0.874
2418.96	0.875
2428.21	0.874
2437.46	0.877
2446.71	0.877
2455.96	0.877
2465.21	0.877
2474.46	0.877
2483.72	0.877
2492.97	0.877
2502.22	0.875
2511.47	0.874
2520.72	0.875
2529.97	0.874
2539.22	0.874
2548.47	0.873
2557.72	0.865
2566.97	0.861
2576.23	0.861
2585.48	0.861
2594.73	0.862
2603.98	0.865
2613.23	0.865
2622.48	0.864
2631.73	0.862
2640.98	0.861
2650.23	0.861
2659.49	0.861
2668.74	0.861
2677.99	0.861
2687.24	0.861
2696.49	0.857
2705.74	0.847
2714.99	0.83
2724.24	0.837
2733.49	0.844
2742.75	0.841
2752	0.836
2761.25	0.853
2770.5	0.849
2779.75	0.84
2789	0.837
2798.25	0.8279
2807.5	0.788
2816.75	0.794
2826.01	0.766
2835.26	0.745
2844.51	0.7199
2853.76	0.6327
2863.01	0.3728
2872.26	0.143
2881.51	0.1881
2890.76	0.279
2900.01	0.2238
2909.27	0.109
2918.52	0.1632
2927.77	0.1899
2937.02	0.135
2946.27	0.0709
2955.52	0.018
2964.77	0.009
2974.02	0.01
2983.27	0.0583
2992.52	0.2482
3001.78	0.3251
3011.03	0.3418
3020.28	0.448
3029.53	0.413
3038.78	0.4229
3048.03	0.4451
3057.28	0.4529
3066.53	0.467
3075.78	0.5241
3085.04	0.4567
3094.29	0.2531
3103.54	0.6112
3112.79	0.7631
3122.04	0.784
3131.29	0.75
3140.54	0.813
3149.79	0.826
3159.04	0.827
3168.3	0.827
3177.55	0.828
3186.8	0.828
3196.05	0.828
3205.3	0.828
3214.55	0.83
3223.8	0.832
3233.05	0.836
3242.3	0.837
3251.56	0.84
3260.81	0.848
3270.06	0.85
3279.31	0.85
3288.56	0.852
3297.81	0.852
3307.06	0.852
3316.31	0.857
3325.56	0.861
3334.82	0.862
3344.07	0.864
3353.32	0.864
3362.57	0.865
3371.82	0.865
3381.07	0.865
3390.32	0.865
3399.57	0.865
3408.82	0.864
3418.07	0.864
3427.33	0.864
3436.58	0.865
3445.83	0.869
3455.08	0.873
3464.33	0.873
3473.58	0.873
3482.83	0.873
3492.08	0.874
3501.33	0.874
3510.59	0.873
3519.84	0.873
3529.09	0.873
3538.34	0.874
3547.59	0.873
3556.84	0.873
3566.09	0.874
3575.34	0.873
3584.59	0.873
3593.85	0.873
3603.1	0.873
3612.35	0.874
3621.6	0.873
3630.85	0.874
3640.1	0.873
3649.35	0.873
3658.6	0.871
3667.85	0.871
3677.11	0.873
3686.36	0.871
3695.61	0.873
3704.86	0.873
3714.11	0.871
3723.36	0.871
3732.61	0.87
3741.86	0.871
3751.11	0.87
3760.37	0.869
3769.62	0.867
3778.87	0.866
3788.12	0.864
3797.37	0.862
3806.62	0.862
3815.87	0.862
3825.12	0.862
3834.37	0.862
3843.63	0.861
3852.88	0.861
3862.13	0.861
3871.38	0.857
3880.63	0.853
3889.88	0.85
