Infrared Spectrum: 1,4-DIMETHYL-2-ETHYL BENZENE
Formula: C10 H14
CAS: 1758-88-9
State: LIQUID
Class: COBLENTZ
Instrument: PERKIN-ELMER
Sampling: TRANSMISSION
Path length: 0.0024 CM
Resolution: 4
Origin: STANDARD OIL OF OHIO
1/CM	TRANSMITTANCE
601.237	0.552
609.669	0.552
618.1	0.55
626.532	0.554
634.964	0.571
643.396	0.5889
651.827	0.6179
660.259	0.6399
668.691	0.657
677.122	0.698
685.554	0.7179
693.986	0.7351
702.417	0.7219
710.849	0.75
719.281	0.7686
727.713	0.7338
736.144	0.7567
744.576	0.8001
753.008	0.8278
761.439	0.8348
769.871	0.842
778.303	0.8302
786.734	0.8002
795.166	0.7101
803.598	0.3613
812.03	0.026
820.461	0.259
828.893	0.7155
837.325	0.8102
845.756	0.8416
854.188	0.85
862.62	0.849
871.051	0.8275
879.483	0.6686
887.915	0.4697
896.347	0.7212
904.778	0.7265
913.21	0.8271
921.642	0.8547
930.073	0.8522
938.505	0.8428
946.937	0.811
955.368	0.816
963.8	0.7545
972.232	0.7165
980.664	0.7811
989.095	0.816
997.527	0.795
1005.96	0.7333
1014.39	0.756
1022.82	0.7516
1031.25	0.6532
1039.69	0.5726
1048.12	0.5824
1056.55	0.5948
1064.98	0.6027
1073.41	0.7274
1081.84	0.8143
1090.28	0.8363
1098.71	0.849
1107.14	0.849
1115.57	0.8289
1124	0.808
1132.43	0.8041
1140.87	0.82
1149.3	0.7982
1157.73	0.5823
1166.16	0.7984
1174.59	0.849
1183.02	0.852
1191.46	0.85
1199.89	0.8446
1208.32	0.8118
1216.75	0.8255
1225.18	0.8458
1233.61	0.8233
1242.05	0.8006
1250.48	0.8138
1258.91	0.835
1267.34	0.8335
1275.77	0.8272
1284.2	0.8069
1292.64	0.8095
1301.07	0.818
1309.5	0.8165
1317.93	0.7759
1326.36	0.7585
1334.8	0.7423
1343.23	0.7592
1351.66	0.7725
1360.09	0.7403
1368.52	0.6156
1376.95	0.438
1385.39	0.5976
1393.82	0.681
1402.25	0.6609
1410.68	0.6305
1419.11	0.5848
1427.54	0.5072
1435.98	0.454
1444.41	0.3223
1452.84	0.2181
1461.27	0.172
1469.7	0.179
1478.13	0.4111
1486.57	0.4929
1495	0.4856
1503.43	0.251
1511.86	0.3463
1520.29	0.5797
1528.72	0.7484
1537.16	0.7645
1545.59	0.8078
1554.02	0.8157
1562.45	0.8166
1570.88	0.8117
1579.31	0.7706
1587.75	0.7803
1596.18	0.828
1604.61	0.8104
1613.04	0.7299
1621.47	0.5808
1629.9	0.7673
1638.34	0.8824
1646.77	0.906
1655.2	0.915
1663.63	0.915
1672.06	0.918
1680.49	0.918
1688.93	0.918
1697.36	0.9193
1705.79	0.93
1714.22	0.928
1722.65	0.925
1731.09	0.922
1739.52	0.9023
1747.95	0.877
1756.38	0.8478
1764.81	0.8563
1773.24	0.9
1781.68	0.9156
1790.11	0.9312
1798.54	0.937
1806.97	0.9358
1815.4	0.9296
1823.83	0.9118
1832.27	0.9072
1840.7	0.913
1849.13	0.9203
1857.56	0.927
1865.99	0.9224
1874.42	0.9021
1882.86	0.8539
1891.29	0.8551
1899.72	0.8947
1908.15	0.927
1916.58	0.932
1925.01	0.935
1933.45	0.9391
1941.88	0.94
1950.31	0.94
1958.74	0.94
1967.17	0.938
1975.6	0.938
1984.04	0.94
1992.47	0.944
2000.9	0.9431
2009.33	0.949
2017.76	0.949
2026.19	0.9479
2034.63	0.945
2043.06	0.944
2051.49	0.949
2059.92	0.949
2068.35	0.949
2076.78	0.949
2085.22	0.949
2093.65	0.947
2102.08	0.947
2110.51	0.947
2118.94	0.949
2127.38	0.949
2135.81	0.949
2144.24	0.949
2152.67	0.949
2161.1	0.9479
2169.53	0.947
2177.97	0.947
2186.4	0.949
2194.83	0.949
2203.26	0.947
2211.69	0.9479
2220.12	0.947
2228.56	0.947
2236.99	0.942
2245.42	0.94
2253.85	0.94
2262.28	0.9389
2270.71	0.938
2279.15	0.937
2287.58	0.9361
2296.01	0.938
2304.44	0.94
2312.87	0.94
2321.3	0.94
2329.74	0.94
2338.17	0.938
2346.6	0.938
2355.03	0.937
2363.46	0.935
2371.89	0.933
2380.33	0.932
2388.76	0.93
2397.19	0.928
2405.62	0.927
2414.05	0.9259
2422.48	0.925
2430.92	0.925
2439.35	0.927
2447.78	0.927
2456.21	0.928
2464.64	0.928
2473.07	0.928
2481.51	0.9289
2489.94	0.93
2498.37	0.932
2506.8	0.928
2515.23	0.93
2523.67	0.93
2532.1	0.928
2540.53	0.928
2548.96	0.932
2557.39	0.932
2565.82	0.928
2574.26	0.927
2582.69	0.925
2591.12	0.925
2599.55	0.925
2607.98	0.923
2616.41	0.9169
2624.85	0.916
2633.28	0.916
2641.71	0.9211
2650.14	0.9225
2658.57	0.918
2667	0.915
2675.44	0.915
2683.87	0.913
2692.3	0.9089
2700.73	0.9005
2709.16	0.8989
2717.59	0.8924
2726.03	0.8596
2734.46	0.7864
2742.89	0.7854
2751.32	0.8657
2759.75	0.876
2768.18	0.8729
2776.62	0.8615
2785.05	0.8479
2793.48	0.8339
2801.91	0.8264
2810.34	0.8114
2818.77	0.7727
2827.21	0.7247
2835.64	0.6607
2844.07	0.6103
2852.5	0.5293
2860.93	0.3885
2869.36	0.2404
2877.8	0.1075
2886.23	0.0897
2894.66	0.177
2903.09	0.1765
2911.52	0.1699
2919.96	0.128
2928.39	0.0553
2936.82	0.0389
2945.25	0.0472
2953.68	0.0681
2962.11	0.0583
2970.55	0.0155
2978.98	0.0171
2987.41	0.0813
2995.84	0.2085
3004.27	0.2052
3012.7	0.1887
3021.14	0.2558
3029.57	0.3053
3038	0.392
3046.43	0.3782
3054.86	0.3774
3063.29	0.5599
3071.73	0.6803
3080.16	0.7146
3088.59	0.7304
3097.02	0.8032
3105.45	0.8291
3113.88	0.8275
3122.32	0.8084
3130.75	0.7971
3139.18	0.8532
3147.61	0.8765
3156.04	0.8821
3164.47	0.888
3172.91	0.8935
3181.34	0.9
3189.77	0.9021
3198.2	0.9071
3206.63	0.911
3215.06	0.911
3223.5	0.911
3231.93	0.911
3240.36	0.913
3248.79	0.913
3257.22	0.913
3265.65	0.915
3274.09	0.915
3282.52	0.916
3290.95	0.916
3299.38	0.916
3307.81	0.916
3316.25	0.916
3324.68	0.916
3333.11	0.916
3341.54	0.916
3349.97	0.916
3358.4	0.916
3366.84	0.915
3375.27	0.915
3383.7	0.9139
3392.13	0.913
3400.56	0.913
3408.99	0.913
3417.43	0.911
3425.86	0.911
3434.29	0.911
3442.72	0.9105
3451.15	0.91
3459.58	0.908
3468.02	0.908
3476.45	0.906
3484.88	0.906
3493.31	0.906
3501.74	0.906
3510.17	0.908
3518.61	0.908
3527.04	0.91
3535.47	0.91
3543.9	0.911
3552.33	0.9105
3560.76	0.911
3569.2	0.9105
3577.63	0.91
3586.06	0.91
3594.49	0.911
3602.92	0.911
3611.35	0.911
3619.79	0.911
3628.22	0.911
3636.65	0.91
3645.08	0.91
3653.51	0.908
3661.94	0.906
3670.38	0.906
3678.81	0.9055
3687.24	0.906
3695.67	0.906
3704.1	0.9055
3712.54	0.903
3720.97	0.901
3729.4	0.901
3737.83	0.901
3746.26	0.901
3754.69	0.901
3763.13	0.901
3771.56	0.901
3779.99	0.901
3788.42	0.901
3796.85	0.901
3805.28	0.901
3813.72	0.9005
3822.15	0.9
3830.58	0.9
3839.01	0.8991
3847.44	0.8989
3855.87	0.894
3864.31	0.893
3872.74	0.889
3881.17	0.888
3889.6	0.888
3898.03	0.8849
3906.46	0.8835
3914.9	0.881
3923.33	0.8779
3931.76	0.877
3940.19	0.8781
