Infrared Spectrum: 1,2,3-Trichloro-4-nitrobenzene
Formula: C6 H2 Cl3 N O2
CAS: 17700-09-3
State: SOLUTION (10% CCl4 FOR 3800-1340, 10% CS2 FOR 1340-400 CM^-^1)
Class: COBLENTZ III
Instrument: BECKMAN IR-9 (GRATING)
Instrument parameters: ORDER CHANGES: 670, 1200, 2000 CM^-^1
Sampling: TRANSMISSION
Path length: 0.011 CM, 0.011 CM
Resolution: 2
Origin: DOW CHEMICAL COMPANY
1/CM	TRANSMITTANCE
3798	0.8697
3789	0.8695
3780	0.8694
3771	0.8692
3762	0.869
3753	0.8688
3744	0.8687
3735	0.8685
3726	0.8683
3717	0.8682
3708	0.8681
3699	0.8682
3690	0.8683
3681	0.8684
3672	0.8686
3663	0.8687
3654	0.8689
3645	0.8691
3636	0.8693
3627	0.8695
3618	0.8697
3609	0.8697
3600	0.8698
3591	0.8698
3582	0.8698
3573	0.8698
3564	0.8698
3555	0.8697
3546	0.8697
3537	0.8695
3528	0.8691
3519	0.8685
3510	0.868
3501	0.8675
3492	0.8665
3483	0.8654
3474	0.8644
3465	0.8628
3456	0.8618
3447	0.8609
3438	0.8599
3429	0.859
3420	0.8584
3411	0.8578
3402	0.8575
3393	0.8571
3384	0.8567
3375	0.8554
3366	0.8545
3357	0.8556
3348	0.8563
3339	0.8568
3330	0.857
3321	0.8571
3312	0.8571
3303	0.8573
3294	0.8582
3285	0.8591
3276	0.8601
3267	0.8625
3258	0.8642
3249	0.8648
3240	0.8653
3231	0.8654
3222	0.8652
3213	0.8646
3204	0.8634
3195	0.8612
3186	0.8587
3177	0.8551
3168	0.85
3159	0.843
3150	0.8328
3141	0.8225
3132	0.8168
3123	0.832
3114	0.8323
3105	0.8248
3096	0.8098
3087	0.7496
3078	0.7446
3069	0.8327
3060	0.8538
3051	0.8621
3042	0.8663
3033	0.8664
3024	0.8646
3015	0.862
3006	0.8609
2997	0.8602
2988	0.8625
2979	0.8684
2970	0.873
2961	0.8749
2952	0.8718
2943	0.867
2934	0.8612
2925	0.8543
2916	0.8475
2907	0.8414
2898	0.8375
2889	0.8337
2880	0.8303
2871	0.8325
2862	0.8433
2853	0.8534
2844	0.8621
2835	0.8644
2826	0.8652
2817	0.8657
2808	0.8663
2799	0.8675
2790	0.8688
2781	0.8696
2772	0.8701
2763	0.8704
2754	0.8698
2745	0.8691
2736	0.8684
2727	0.8675
2718	0.8668
2709	0.8662
2700	0.8655
2691	0.8651
2682	0.8658
2673	0.8675
2664	0.8693
2655	0.8707
2646	0.8715
2637	0.872
2628	0.8737
2619	0.8759
2610	0.8799
2601	0.8816
2592	0.8828
2583	0.8843
2574	0.8841
2565	0.8831
2556	0.8818
2547	0.8789
2538	0.8714
2529	0.8628
2520	0.8598
2511	0.8697
2502	0.8774
2493	0.8805
2484	0.8811
2475	0.8807
2466	0.8802
2457	0.8791
2448	0.8768
2439	0.8732
2430	0.8724
2421	0.8775
2412	0.8814
2403	0.8818
2394	0.8812
2385	0.8745
2376	0.861
2367	0.8549
2358	0.8551
2349	0.8554
2340	0.8584
2331	0.8628
2322	0.8671
2313	0.8708
2304	0.8744
2295	0.878
2286	0.8816
2277	0.8838
2268	0.8859
2259	0.8871
2250	0.8882
2241	0.8892
2232	0.8898
2223	0.8903
2214	0.8908
2205	0.8913
2196	0.8916
2187	0.8917
2178	0.892
2169	0.8921
2160	0.8921
2151	0.892
2142	0.8918
2133	0.8918
2124	0.8917
2115	0.8917
2106	0.8918
2097	0.8918
2088	0.8917
2079	0.8914
2070	0.8912
2061	0.8909
2052	0.8908
2043	0.8908
2034	0.8913
2025	0.892
2016	0.8923
2007	0.8924
1998	0.8904
1989	0.8873
1980	0.8866
1971	0.885
1962	0.8842
1953	0.8844
1944	0.8845
1935	0.8847
1926	0.885
1917	0.884
1908	0.873
1899	0.8547
1890	0.8377
1881	0.858
1872	0.8768
1863	0.8842
1854	0.885
1845	0.8864
1836	0.8871
1827	0.887
1818	0.8859
1809	0.8842
1800	0.8811
1791	0.8809
1782	0.8738
1773	0.8614
1764	0.863
1755	0.8692
1746	0.8704
1737	0.8702
1728	0.8691
1719	0.8677
1710	0.8658
1701	0.8617
1692	0.8567
1683	0.8497
1674	0.8421
1665	0.8331
1656	0.8145
1647	0.8071
1638	0.8117
1629	0.8055
1620	0.7887
1611	0.7636
1602	0.7361
1593	0.695
1584	0.5317
1575	0.1151
1566	0.1214
1557	0.2264
1548	0.0495
1539	0.0761
1530	0.2897
1521	0.5428
1512	0.6556
1503	0.7435
1494	0.7835
1485	0.7971
1476	0.8011
1467	0.8011
1458	0.7938
1449	0.7637
1440	0.6052
1431	0.3632
1422	0.7364
1413	0.7571
1404	0.729
1395	0.6794
1386	0.6274
1377	0.1877
1368	0.2305
1359	0.0555
1350	0.0421
1341	0.1598
1332	0.4002
1323	0.6212
1314	0.7044
1305	0.7775
1296	0.8161
1287	0.822
1278	0.8188
1269	0.7768
1260	0.5154
1251	0.7941
1242	0.8314
1233	0.829
1224	0.8145
1215	0.8298
1206	0.8171
1197	0.7851
1188	0.6632
1179	0.5628
1170	0.2422
1161	0.5709
1152	0.7499
1143	0.7024
1134	0.6806
1125	0.8286
1116	0.8495
1107	0.8604
1098	0.8568
1089	0.834
1080	0.8628
1071	0.8758
1062	0.8768
1053	0.8773
1044	0.8742
1035	0.8707
1026	0.8749
1017	0.8765
1008	0.8771
999	0.8773
990	0.8755
981	0.8736
972	0.872
963	0.8671
954	0.8536
945	0.8323
936	0.844
927	0.8385
918	0.8378
909	0.8296
900	0.7778
891	0.322
882	0.7711
873	0.7941
864	0.8444
855	0.849
846	0.8421
837	0.8098
828	0.6875
819	0.2642
810	0.7658
801	0.6443
792	0.663
783	0.7503
774	0.602
765	0.3464
756	0.6662
747	0.6981
738	0.4927
729	0.815
720	0.8557
711	0.8245
702	0.8169
693	0.8605
684	0.8723
675	0.8749
666	0.8718
657	0.8587
648	0.8695
639	0.8623
630	0.8471
621	0.8327
612	0.7161
603	0.8189
594	0.8321
585	0.7991
576	0.659
567	0.6246
558	0.8194
549	0.8299
540	0.8308
531	0.8263
522	0.8049
513	0.7575
504	0.6671
495	0.7982
486	0.8209
477	0.8236
468	0.8406
459	0.8497
450	0.8471
441	0.8394
432	0.831
423	0.8282
414	0.8395
405	0.8553
