Infrared Spectrum: Aniline, 3-methylthio-
Formula: C7 H9 N S
CAS: 1783-81-9
State: SOLUTION (10% CCl4 FOR 3800-1330, 10% CS2 FOR 1330-400)
Class: COBLENTZ III
Instrument: BECKMAN IR-9 (GRATING)
Instrument parameters: ORDER CHANGES: 670, 1200, 2000 CM^-^1
Sampling: TRANSMISSION
Path length: 0.011 CM, 0.011 CM
Resolution: 2
Origin: DOW CHEMICAL COMPANY
1/CM	TRANSMITTANCE
3810	0.9231
3801	0.9218
3792	0.9229
3783	0.922
3774	0.9235
3765	0.9236
3756	0.9233
3747	0.9224
3738	0.9213
3729	0.9198
3720	0.9207
3711	0.9235
3702	0.9258
3693	0.9259
3684	0.9259
3675	0.9268
3666	0.9271
3657	0.9273
3648	0.9275
3639	0.9275
3630	0.9286
3621	0.9291
3612	0.9284
3603	0.9267
3594	0.9254
3585	0.9222
3576	0.9185
3567	0.9127
3558	0.9068
3549	0.9008
3540	0.8906
3531	0.8765
3522	0.8519
3513	0.8095
3504	0.7026
3495	0.5796
3486	0.5509
3477	0.5797
3468	0.6305
3459	0.6822
3450	0.7338
3441	0.7767
3432	0.7806
3423	0.747
3414	0.613
3405	0.4555
3396	0.4554
3387	0.4962
3378	0.5594
3369	0.6226
3360	0.6857
3351	0.7488
3342	0.8005
3333	0.8403
3324	0.8635
3315	0.8756
3306	0.8873
3297	0.8929
3288	0.8985
3279	0.9035
3270	0.9045
3261	0.9001
3252	0.8915
3243	0.8791
3234	0.8627
3225	0.8468
3216	0.8445
3207	0.8503
3198	0.8716
3189	0.8866
3180	0.8955
3171	0.9008
3162	0.905
3153	0.9086
3144	0.91
3135	0.9124
3126	0.9121
3117	0.9076
3108	0.8938
3099	0.8614
3090	0.787
3081	0.7891
3072	0.7924
3063	0.7146
3054	0.6962
3045	0.7084
3036	0.7657
3027	0.7352
3018	0.7579
3009	0.7902
3000	0.7398
2991	0.7148
2982	0.8007
2973	0.8734
2964	0.8888
2955	0.8915
2946	0.8813
2937	0.8423
2928	0.4501
2919	0.6571
2910	0.8717
2901	0.8866
2892	0.8863
2883	0.884
2874	0.8703
2865	0.8696
2856	0.8803
2847	0.8619
2838	0.8603
2829	0.8953
2820	0.9228
2811	0.9319
2802	0.9356
2793	0.9343
2784	0.9322
2775	0.9295
2766	0.926
2757	0.9155
2748	0.9145
2739	0.917
2730	0.9248
2721	0.9301
2712	0.929
2703	0.9254
2694	0.9237
2685	0.9253
2676	0.9276
2667	0.9295
2658	0.9312
2649	0.9316
2640	0.932
2631	0.9307
2622	0.9308
2613	0.9298
2604	0.9288
2595	0.928
2586	0.9275
2577	0.9262
2568	0.9246
2559	0.9339
2550	0.9411
2541	0.9421
2532	0.9411
2523	0.9404
2514	0.9403
2505	0.9401
2496	0.9409
2487	0.938
2478	0.9395
2469	0.9416
2460	0.9436
2451	0.9445
2442	0.9446
2433	0.9432
2424	0.939
2415	0.934
2406	0.9294
2397	0.9273
2388	0.9277
2379	0.9304
2370	0.9335
2361	0.9319
2352	0.9367
2343	0.9365
2334	0.9364
2325	0.9393
2316	0.9405
2307	0.9383
2298	0.9336
2289	0.93
2280	0.9285
2271	0.9307
2262	0.9361
2253	0.9371
2244	0.9369
2235	0.9371
2226	0.9364
2217	0.9341
2208	0.933
2199	0.931
2190	0.9277
2181	0.925
2172	0.9233
2163	0.9195
2154	0.9197
2145	0.9221
2136	0.9246
2127	0.926
2118	0.9274
2109	0.9291
2100	0.9313
2091	0.9318
2082	0.9306
2073	0.9258
2064	0.9229
2055	0.9243
2046	0.9238
2037	0.9231
2028	0.9208
2019	0.9219
2010	0.9207
2001	0.9071
1992	0.9118
1983	0.9129
1974	0.9129
1965	0.9137
1956	0.9127
1947	0.9085
1938	0.9073
1929	0.9013
1920	0.876
1911	0.8535
1902	0.8808
1893	0.8977
1884	0.89
1875	0.9031
1866	0.904
1857	0.9045
1848	0.9035
1839	0.9036
1830	0.8966
1821	0.888
1812	0.8855
1803	0.8835
1794	0.892
1785	0.8991
1776	0.8985
1767	0.8978
1758	0.8986
1749	0.8959
1740	0.8875
1731	0.8825
1722	0.8744
1713	0.8565
1704	0.843
1695	0.8435
1686	0.8424
1677	0.8381
1668	0.8288
1659	0.8058
1650	0.7386
1641	0.6005
1632	0.481
1623	0.016
1614	0.0505
1605	0.1686
1596	0.0072
1587	0.0335
1578	0.221
1569	0.3758
1560	0.5538
1551	0.6472
1542	0.6867
1533	0.6391
1524	0.6194
1515	0.6867
1506	0.7107
1497	0.6043
1488	0.4611
1479	0.0809
1470	0.6105
1461	0.7117
1452	0.6257
1443	0.2377
1434	0.3081
1425	0.4338
1416	0.6633
1407	0.7583
1398	0.8124
1389	0.8447
1380	0.8701
1371	0.8853
1362	0.8869
1353	0.8817
1344	0.8718
1335	0.8421
1326	0.7654
1317	0.6307
1308	0.4576
1299	0.4597
1290	0.4708
1281	0.6668
1272	0.6391
1263	0.2877
1254	0.5595
1245	0.7617
1236	0.8302
1227	0.8505
1218	0.8523
1209	0.8529
1200	0.8508
1191	0.8478
1182	0.8347
1173	0.7686
1164	0.4183
1155	0.7803
1146	0.8295
1137	0.84
1128	0.8337
1119	0.8051
1110	0.7888
1101	0.8113
1092	0.746
1083	0.5832
1074	0.6397
1065	0.7732
1056	0.8143
1047	0.8382
1038	0.8487
1029	0.8536
1020	0.8513
1011	0.845
1002	0.8364
993	0.7597
984	0.783
975	0.7775
966	0.4887
957	0.6275
948	0.604
939	0.8091
930	0.8243
921	0.8213
912	0.8121
903	0.7791
894	0.4329
885	0.4088
876	0.5948
867	0.5996
858	0.5135
849	0.4148
840	0.4342
831	0.5437
822	0.6695
813	0.6829
804	0.7032
795	0.6642
786	0.5872
777	0.3891
768	0.081
759	0.17
750	0.5057
741	0.6631
732	0.6659
723	0.6469
714	0.6404
705	0.6182
696	0.5535
687	0.235
678	0.3178
669	0.5493
660	0.5414
651	0.5244
642	0.5306
633	0.5319
624	0.5344
615	0.5382
606	0.5414
597	0.5501
588	0.5701
579	0.5933
570	0.5365
561	0.5073
552	0.5024
543	0.5224
534	0.5343
525	0.4807
516	0.4729
507	0.4746
498	0.4746
489	0.4715
480	0.4668
471	0.4565
462	0.4353
453	0.3754
444	0.3052
435	0.363
426	0.4159
417	0.4523
408	0.7275
