Infrared Spectrum: Heptanenitrile, 7-hydroxy-
Formula: C7 H13 N O
CAS: 17976-80-6
State: LIQUID (NEAT)
Boiling point: 139 C AT 8 mmHg
Class: COBLENTZ III
Instrument: DOW KBr FOREPRISM-GRATING
Instrument parameters: BLAZED AT 3.5, 12.0, 20.0 MICRON AND CHANGED AT 5.0, 7.5, 14.9 MICRON
Sampling: TRANSMISSION
Path length: CAPILLARY
Resolution: 2
Origin: DOW CHEMICAL COMPANY
1/CM	TRANSMITTANCE
457	0.6754
466	0.6772
475	0.6774
484	0.6769
493	0.6757
502	0.6753
511	0.6754
520	0.6758
529	0.6759
538	0.6774
547	0.6788
556	0.6799
565	0.6812
574	0.6828
583	0.6841
592	0.6906
601	0.6952
610	0.6972
619	0.7019
628	0.7062
637	0.7102
646	0.7152
655	0.7194
664	0.7213
673	0.7255
682	0.7343
691	0.7391
700	0.7402
709	0.7362
718	0.7101
727	0.6791
736	0.7192
745	0.7453
754	0.7505
763	0.7586
772	0.7715
781	0.7863
790	0.7933
799	0.7936
808	0.7916
817	0.7967
826	0.7963
835	0.7893
844	0.7859
853	0.7987
862	0.7957
871	0.7868
880	0.7888
889	0.7773
898	0.7412
907	0.7478
916	0.7753
925	0.7971
934	0.7992
943	0.7928
952	0.787
961	0.7682
970	0.6745
979	0.6833
988	0.6617
997	0.6201
1006	0.6361
1015	0.616
1024	0.5267
1033	0.4791
1042	0.5118
1051	0.3393
1060	0.4381
1069	0.4817
1078	0.5083
1087	0.6006
1096	0.6928
1105	0.7611
1114	0.7902
1123	0.8041
1132	0.7909
1141	0.7673
1150	0.7556
1159	0.7835
1168	0.7922
1177	0.7815
1186	0.7869
1195	0.7851
1204	0.7848
1213	0.7803
1222	0.7613
1231	0.7646
1240	0.7658
1249	0.7599
1258	0.7643
1267	0.759
1276	0.7419
1285	0.7338
1294	0.7224
1303	0.7138
1312	0.7054
1321	0.6882
1330	0.6792
1339	0.6897
1348	0.6746
1357	0.6454
1366	0.6513
1375	0.654
1384	0.6549
1393	0.6649
1402	0.6547
1411	0.6381
1420	0.5762
1429	0.4995
1438	0.6071
1447	0.6098
1456	0.5436
1465	0.5143
1474	0.6695
1483	0.7347
1492	0.7897
1501	0.8028
1510	0.8148
1519	0.8233
1528	0.8284
1537	0.8324
1546	0.835
1555	0.8378
1564	0.8406
1573	0.8427
1582	0.843
1591	0.8432
1600	0.8401
1609	0.8321
1618	0.828
1627	0.8243
1636	0.8214
1645	0.8186
1654	0.816
1663	0.8127
1672	0.8211
1681	0.83
1690	0.8371
1699	0.8252
1708	0.8053
1717	0.8242
1726	0.8426
1735	0.8457
1744	0.8473
1753	0.8483
1762	0.8502
1771	0.8507
1780	0.8522
1789	0.8535
1798	0.8543
1807	0.8544
1816	0.8546
1825	0.8539
1834	0.8532
1843	0.8524
1852	0.8516
1861	0.8515
1870	0.8516
1879	0.8515
1888	0.8514
1897	0.8517
1906	0.8524
1915	0.8522
1924	0.8517
1933	0.8514
1942	0.8509
1951	0.8502
1960	0.8516
1969	0.8525
1978	0.8516
1987	0.8497
1996	0.8823
2005	0.8881
2014	0.8873
2023	0.886
2032	0.8848
2041	0.8834
2050	0.8827
2059	0.8824
2068	0.8828
2077	0.8832
2086	0.8834
2095	0.8837
2104	0.8853
2113	0.8869
2122	0.8878
2131	0.8883
2140	0.8883
2149	0.8873
2158	0.8863
2167	0.8847
2176	0.8831
2185	0.8814
2194	0.8799
2203	0.88
2212	0.8772
2221	0.8677
2230	0.8458
2239	0.7973
2248	0.6217
2257	0.6869
2266	0.855
2275	0.8963
2284	0.9062
2293	0.9129
2302	0.9164
2311	0.9185
2320	0.9189
2329	0.9175
2338	0.9166
2347	0.9159
2356	0.9151
2365	0.9146
2374	0.9141
2383	0.913
2392	0.9119
2401	0.9108
2410	0.9098
2419	0.9087
2428	0.9076
2437	0.9066
2446	0.9056
2455	0.9045
2464	0.9035
2473	0.9025
2482	0.9014
2491	0.9001
2500	0.8989
2509	0.8976
2518	0.8964
2527	0.8951
2536	0.8938
2545	0.8921
2554	0.8904
2563	0.8887
2572	0.8866
2581	0.8837
2590	0.8809
2599	0.878
2608	0.875
2617	0.8719
2626	0.8689
2635	0.866
2644	0.8632
2653	0.8604
2662	0.8576
2671	0.8546
2680	0.8515
2689	0.8483
2698	0.8449
2707	0.8408
2716	0.8367
2725	0.8326
2734	0.8279
2743	0.8231
2752	0.8177
2761	0.8103
2770	0.8002
2779	0.7859
2788	0.7687
2797	0.7507
2806	0.7269
2815	0.7045
2824	0.6767
2833	0.6322
2842	0.5546
2851	0.3801
2860	0.2308
2869	0.2581
2878	0.3537
2887	0.3991
2896	0.3754
2905	0.295
2914	0.2147
2923	0.1342
2932	0.0872
2941	0.0934
2950	0.2328
2959	0.4066
2968	0.558
2977	0.6767
2986	0.7532
2995	0.7916
3004	0.806
3013	0.8142
3022	0.8193
3031	0.8217
3040	0.8222
3049	0.8214
3058	0.819
3067	0.8159
3076	0.8108
3085	0.8043
3094	0.7975
3103	0.7886
3112	0.7797
3121	0.7708
3130	0.7612
3139	0.7502
3148	0.7384
3157	0.7253
3166	0.7107
3175	0.6937
3184	0.6745
3193	0.6531
3202	0.6264
3211	0.6028
3220	0.5796
3229	0.5563
3238	0.5337
3247	0.5154
3256	0.4971
3265	0.479
3274	0.4622
3283	0.4451
3292	0.4279
3301	0.4118
3310	0.3973
3319	0.3854
3328	0.3753
3337	0.3686
3346	0.3633
3355	0.3573
3364	0.3513
3373	0.3481
3382	0.3457
3391	0.3439
3400	0.3444
3409	0.3454
3418	0.3469
3427	0.3493
3436	0.3536
3445	0.3598
3454	0.3668
3463	0.3753
3472	0.386
3481	0.4015
3490	0.4193
3499	0.4374
3508	0.4567
3517	0.4787
3526	0.5021
3535	0.5286
3544	0.5644
3553	0.6219
3562	0.64
3571	0.7041
3580	0.737
3589	0.7636
3598	0.7859
3607	0.8104
3616	0.8288
3625	0.842
3634	0.8522
3643	0.8602
3652	0.8662
3661	0.8709
3670	0.8752
3679	0.8787
3688	0.8814
3697	0.8828
3706	0.8835
3715	0.8857
3724	0.8892
3733	0.8883
3742	0.8836
3751	0.8825
3760	0.8851
3769	0.887
3778	0.8883
