Infrared Spectrum: 4-METHOXYCYCLOHEXANOL
Formula: C7 H14 O2
CAS: 18068-06-9
Class: COBLENTZ
Instrument: Not specified, most likely a prism, grating, or hybrid spectrometer.
Sampling: TRANSMISSION
Path length: SMEAR
Resolution: 4
Origin: TENNESSEE EASTMAN COMPANY, RESEARCH LABORATORIES
MICROMETERS	TRANSMITTANCE
2.042	0.951
2.08193	0.948
2.12187	0.945
2.1618	0.941
2.20173	0.943
2.24167	0.943
2.2816	0.935
2.32153	0.91
2.36146	0.908
2.4014	0.908
2.44133	0.908
2.48126	0.906
2.5212	0.905
2.56113	0.905
2.60106	0.908
2.641	0.918
2.68093	0.918
2.72086	0.918
2.76079	0.865
2.80073	0.8
2.84066	0.71
2.88059	0.56
2.92053	0.291
2.96046	0.205
3.00039	0.188
3.04033	0.191
3.08026	0.256
3.12019	0.328
3.16013	0.45
3.20006	0.555
3.23999	0.666
3.27992	0.733
3.31986	0.765
3.35979	0.69
3.39972	0.3
3.43966	0.086
3.47959	0.26
3.51952	0.225
3.55946	0.385
3.59939	0.583
3.63932	0.743
3.67925	0.78
3.71919	0.791
3.75912	0.79
3.79905	0.778
3.83899	0.775
3.87892	0.818
3.91885	0.833
3.95879	0.841
3.99872	0.853
4.03865	0.861
4.07859	0.866
4.11852	0.876
4.15845	0.883
4.19838	0.883
4.23832	0.89
4.27825	0.94
4.31818	0.941
4.35812	0.928
4.39805	0.901
4.43798	0.9
4.47792	0.896
4.51785	0.891
4.55778	0.89
4.59772	0.888
4.63765	0.876
4.67758	0.876
4.71751	0.875
4.75745	0.878
4.79738	0.881
4.83731	0.881
4.87725	0.883
4.91718	0.883
4.95711	0.878
4.99705	0.88
5.03698	0.888
5.07691	0.888
5.11684	0.896
5.15678	0.895
5.19671	0.898
5.23664	0.9
5.27658	0.9
5.31651	0.896
5.35644	0.9
5.39638	0.898
5.43631	0.9
5.47624	0.898
5.51618	0.896
5.55611	0.896
5.59604	0.898
5.63597	0.895
5.67591	0.893
5.71584	0.893
5.75577	0.883
5.79571	0.855
5.83564	0.848
5.87557	0.82
5.91551	0.826
5.95544	0.835
5.99537	0.811
6.0353	0.783
6.07524	0.788
6.11517	0.775
6.1551	0.801
6.19504	0.83
6.23497	0.845
6.2749	0.85
6.31484	0.85
6.35477	0.856
6.3947	0.861
6.43464	0.855
6.47457	0.868
6.5145	0.848
6.55443	0.848
6.59437	0.79
6.6343	0.791
6.67423	0.805
6.71417	0.781
6.7541	0.726
6.79403	0.565
6.83397	0.496
6.8739	0.396
6.91383	0.415
6.95376	0.501
6.9937	0.593
7.03363	0.628
7.07356	0.635
7.1135	0.673
7.15343	0.683
7.19336	0.68
7.2333	0.608
7.27323	0.451
7.31316	0.378
7.3531	0.513
7.39303	0.545
7.43296	0.605
7.47289	0.615
7.51283	0.626
7.55276	0.65
7.59269	0.686
7.63263	0.693
7.67256	0.681
7.71249	0.655
7.75243	0.618
7.79236	0.621
7.83229	0.651
7.87222	0.676
7.91216	0.68
7.95209	0.631
7.99202	0.643
8.03196	0.673
8.07189	0.648
8.11182	0.621
8.15176	0.6
8.19169	0.648
8.23162	0.68
8.27156	0.675
8.31149	0.623
8.35142	0.578
8.39135	0.518
8.43129	0.585
8.47122	0.635
8.51115	0.678
8.55109	0.686
8.59102	0.68
8.63095	0.646
8.67089	0.57
8.71082	0.498
8.75075	0.513
8.79068	0.54
8.83062	0.508
8.87055	0.508
8.91048	0.506
8.95042	0.461
8.99035	0.385
9.03028	0.233
9.07022	0.178
9.11015	0.173
9.15008	0.151
9.19002	0.141
9.22995	0.161
9.26988	0.166
9.30981	0.166
9.34975	0.17
9.38968	0.23
9.42961	0.331
9.46955	0.448
9.50948	0.541
9.54941	0.635
9.58935	0.673
9.62928	0.668
9.66921	0.605
9.70915	0.596
9.74908	0.606
9.78901	0.651
9.82894	0.676
9.86888	0.703
9.90881	0.738
9.94874	0.753
9.98868	0.756
10.0286	0.715
10.0685	0.645
10.1085	0.623
10.1484	0.651
10.1883	0.636
10.2283	0.513
10.2682	0.393
10.3081	0.341
10.3481	0.376
10.388	0.5
10.4279	0.586
10.4679	0.643
10.5078	0.681
10.5477	0.726
10.5877	0.75
10.6276	0.75
10.6675	0.706
10.7075	0.595
10.7474	0.446
10.7873	0.396
10.8273	0.443
10.8672	0.508
10.9071	0.528
10.9471	0.595
10.987	0.611
11.0269	0.611
11.0669	0.621
11.1068	0.675
11.1467	0.74
11.1867	0.773
11.2266	0.78
11.2665	0.78
11.3065	0.78
11.3464	0.775
11.3863	0.741
11.4263	0.74
11.4662	0.766
11.5061	0.793
11.5461	0.803
11.586	0.813
11.6259	0.816
11.6659	0.82
11.7058	0.821
11.7457	0.818
11.7857	0.816
11.8256	0.815
11.8655	0.815
11.9055	0.808
11.9454	0.8
11.9853	0.783
12.0253	0.773
12.0652	0.776
12.1051	0.783
12.1451	0.788
12.185	0.791
12.2249	0.793
12.2649	0.788
12.3048	0.776
12.3447	0.773
12.3847	0.775
12.4246	0.781
12.4645	0.781
12.5045	0.781
12.5444	0.781
12.5843	0.778
12.6243	0.768
12.6642	0.77
12.7041	0.768
12.7441	0.768
12.784	0.768
12.8239	0.766
12.8639	0.763
12.9038	0.761
12.9437	0.76
12.9837	0.76
13.0236	0.755
13.0635	0.75
13.1035	0.743
13.1434	0.741
13.1833	0.741
13.2233	0.733
13.2632	0.728
13.3031	0.721
13.3431	0.72
13.383	0.72
13.4229	0.715
13.4629	0.705
13.5028	0.695
13.5427	0.688
13.5827	0.685
13.6226	0.681
13.6625	0.681
13.7024	0.678
13.7424	0.676
13.7823	0.675
13.8222	0.673
13.8622	0.67
13.9021	0.666
13.942	0.665
13.982	0.66
14.0219	0.65
14.0618	0.646
14.1018	0.643
14.1417	0.638
14.1816	0.633
14.2216	0.63
14.2615	0.626
14.3014	0.616
14.3414	0.613
14.3813	0.61
14.4212	0.605
14.4612	0.605
14.5011	0.601
14.541	0.598
14.581	0.595
14.6209	0.588
14.6608	0.588
14.7008	0.586
14.7407	0.583
14.7806	0.576
14.8206	0.566
14.8605	0.561
14.9004	0.56
14.9404	0.56
14.9803	0.563
15.0202	0.566
15.0602	0.565
15.1001	0.563
15.14	0.563
15.18	0.563
15.2199	0.561
15.2598	0.561
15.2998	0.561
15.3397	0.561
15.3796	0.561
15.4196	0.561
15.4595	0.561
15.4994	0.561
15.5394	0.561
15.5793	0.561
15.6192	0.561
15.6592	0.561
15.6991	0.561
15.739	0.561
15.779	0.563
15.8189	0.566
15.8588	0.568
15.8988	0.57
15.9387	0.571
15.9786	0.578
