Infrared Spectrum: 1-Tridecene, 2-methyl-
Formula: C14 H28
CAS: 18094-01-4
State: LIQUID (NEAT)
Class: COBLENTZ III
Instrument: BECKMAN IR-12 (GRATING)
Instrument parameters: GRATING
Sampling: TRANSMISSION
Path length: CAPILLARY
Resolution: 2
Origin: COLGATE-PALMOLIVE COMPANY (KELLENBACH)
1/CM	TRANSMITTANCE
404	0.6698
413	0.712
422	0.7319
431	0.7386
440	0.7826
449	0.8227
458	0.8487
467	0.8652
476	0.8809
485	0.9021
494	0.9199
503	0.9139
512	0.9089
521	0.9002
530	0.8902
539	0.8851
548	0.8726
557	0.8729
566	0.8897
575	0.9149
584	0.939
593	0.9399
602	0.9418
611	0.9444
620	0.9466
629	0.9491
638	0.9505
647	0.94
656	0.9039
665	0.899
674	0.8948
683	0.8903
692	0.8836
701	0.865
710	0.8126
719	0.6915
728	0.7211
737	0.7865
746	0.8216
755	0.8436
764	0.8503
773	0.8549
782	0.8571
791	0.8666
800	0.8749
809	0.8727
818	0.8657
827	0.8597
836	0.8556
845	0.8549
854	0.8453
863	0.8242
872	0.7699
881	0.5243
890	0.3776
899	0.7
908	0.7881
917	0.8276
926	0.8427
935	0.8516
944	0.8549
953	0.858
962	0.8517
971	0.8559
980	0.8514
989	0.8474
998	0.8479
1007	0.8428
1016	0.8424
1025	0.8468
1034	0.8473
1043	0.8469
1052	0.8441
1061	0.8395
1070	0.8358
1079	0.8271
1088	0.8356
1097	0.8496
1106	0.8524
1115	0.8384
1124	0.8357
1133	0.856
1142	0.8675
1151	0.8661
1160	0.8598
1169	0.8578
1178	0.859
1187	0.8574
1196	0.8509
1205	0.8525
1214	0.8455
1223	0.8401
1232	0.8384
1241	0.826
1250	0.8264
1259	0.8255
1268	0.8129
1277	0.7994
1286	0.7949
1295	0.7913
1304	0.7862
1313	0.7968
1322	0.8159
1331	0.8181
1340	0.7946
1349	0.7784
1358	0.763
1367	0.6887
1376	0.5618
1385	0.7492
1394	0.7815
1403	0.7845
1412	0.7721
1421	0.7217
1430	0.6122
1439	0.5172
1448	0.4792
1457	0.4197
1466	0.4172
1475	0.65
1484	0.7675
1493	0.803
1502	0.8229
1511	0.8122
1520	0.8282
1529	0.8386
1538	0.8378
1547	0.8495
1556	0.8466
1565	0.8493
1574	0.8522
1583	0.8516
1592	0.8511
1601	0.8493
1610	0.8444
1619	0.8328
1628	0.8133
1637	0.7562
1646	0.6015
1655	0.7133
1664	0.8169
1673	0.8353
1682	0.8418
1691	0.8628
1700	0.8499
1709	0.8699
1718	0.8551
1727	0.8767
1736	0.8679
1745	0.8694
1754	0.8766
1763	0.8699
1772	0.8316
1781	0.8326
1790	0.8518
1799	0.8675
1808	0.8757
1817	0.878
1826	0.8723
1835	0.8777
1844	0.8708
1853	0.8807
1862	0.8817
1871	0.8814
1880	0.884
1889	0.8849
1898	0.8846
1907	0.8843
1916	0.8839
1925	0.8838
1934	0.8842
1943	0.8852
1952	0.886
1961	0.8861
1970	0.8858
1979	0.8849
1988	0.8823
1997	0.8871
2006	0.8815
2015	0.8749
2024	0.8709
2033	0.8687
2042	0.8703
2051	0.8717
2060	0.8705
2069	0.8715
2078	0.873
2087	0.8738
2096	0.8737
2105	0.8735
2114	0.8734
2123	0.8728
2132	0.8717
2141	0.8706
2150	0.8697
2159	0.8693
2168	0.869
2177	0.8686
2186	0.8684
2195	0.8683
2204	0.8682
2213	0.8686
2222	0.8694
2231	0.8708
2240	0.8697
2249	0.8685
2258	0.8696
2267	0.8708
2276	0.8698
2285	0.8668
2294	0.8632
2303	0.859
2312	0.8541
2321	0.847
2330	0.8404
2339	0.8407
2348	0.8437
2357	0.8399
2366	0.8371
2375	0.8433
2384	0.8551
2393	0.8646
2402	0.8674
2411	0.867
2420	0.8641
2429	0.8639
2438	0.8661
2447	0.8707
2456	0.8711
2465	0.8708
2474	0.8695
2483	0.8681
2492	0.8667
2501	0.865
2510	0.863
2519	0.861
2528	0.8595
2537	0.858
2546	0.8572
2555	0.8562
2564	0.8538
2573	0.8512
2582	0.8482
2591	0.8443
2600	0.8399
2609	0.8354
2618	0.831
2627	0.8273
2636	0.8236
2645	0.82
2654	0.8152
2663	0.8101
2672	0.8056
2681	0.8033
2690	0.8106
2699	0.8159
2708	0.8134
2717	0.8007
2726	0.7869
2735	0.7902
2744	0.797
2753	0.7985
2762	0.7971
2771	0.7913
2780	0.7774
2789	0.7542
2798	0.7226
2807	0.6737
2816	0.6293
2825	0.5291
2834	0.4601
2843	0.2457
2852	0.1558
2861	0.2918
2870	0.3283
2879	0.3421
2888	0.302
2897	0.2347
2906	0.1675
2915	0.1001
2924	0.0624
2933	0.1368
2942	0.2445
2951	0.2434
2960	0.3023
2969	0.4174
2978	0.5204
2987	0.5867
2996	0.665
3005	0.7084
3014	0.733
3023	0.7543
3032	0.7669
3041	0.7717
3050	0.7676
3059	0.7171
3068	0.6219
3077	0.6463
3086	0.7522
3095	0.7794
3104	0.8035
3113	0.8232
3122	0.8335
3131	0.8402
3140	0.8441
3149	0.8477
3158	0.851
3167	0.8532
3176	0.8553
3185	0.8567
3194	0.858
3203	0.8592
3212	0.8604
3221	0.8614
3230	0.8624
3239	0.8636
3248	0.8651
3257	0.8665
3266	0.8676
3275	0.8682
3284	0.8686
3293	0.8673
3302	0.8658
3311	0.8645
3320	0.864
3329	0.8634
3338	0.8639
3347	0.8637
3356	0.8631
3365	0.8616
3374	0.8603
3383	0.8605
3392	0.8624
3401	0.8642
3410	0.867
3419	0.8688
3428	0.8665
3437	0.8634
3446	0.863
3455	0.8631
3464	0.8648
3473	0.8666
3482	0.869
3491	0.8709
3500	0.8724
3509	0.8735
3518	0.8743
3527	0.8741
3536	0.874
3545	0.8733
3554	0.8722
3563	0.8711
3572	0.8699
3581	0.868
3590	0.866
3599	0.8636
3608	0.8607
3617	0.8592
3626	0.8591
3635	0.8612
3644	0.8603
3653	0.8562
3662	0.8623
3671	0.8606
3680	0.8592
3689	0.8611
3698	0.8632
3707	0.8626
3716	0.8609
3725	0.8585
3734	0.8554
3743	0.8518
3752	0.8524
3761	0.8614
3770	0.8657
3779	0.8685
3788	0.869
3797	0.8628
3806	0.8606
3815	0.8612
3824	0.8589
3833	0.8549
3842	0.8508
3851	0.8518
3860	0.8544
3869	0.8567
3878	0.8586
3887	0.8591
3896	0.8595
3905	0.8595
3914	0.8595
3923	0.8595
3932	0.8595
3941	0.8595
3950	0.8593
3959	0.8589
3968	0.8586
3977	0.8588
3986	0.859
3995	0.8587
