Infrared Spectrum: (-)Beta-PINENE
Formula: C10 H16
CAS: 18172-67-3
State: SOLUTION (10% IN CCl4 FOR 3800-1333, 10% IN CS2 FOR 1333-470 CM^-^1)
Class: COBLENTZ II
Instrument: DOW KBr FOREPRISM-GRATING
Instrument parameters: BLAZED AT 3.5, 12.0, 20.0 MICRON, CHANGED AT 5.0, 7.5, 14.9 MICRON
Sampling: TRANSMISSION
Path length: 0.011, 0.011 CM
Resolution: 4
Origin: DOW CHEMICAL COMPANY
1/CM	TRANSMITTANCE
471.227	1.001
479.913	1.015
488.599	1.027
497.286	1.025
505.972	1.021
514.658	1.002
523.344	0.896
532.031	0.869
540.717	0.984
549.403	1.001
558.089	1.002
566.775	0.998
575.462	0.998
584.148	0.994
592.834	0.98
601.52	0.896
610.206	0.923
618.893	0.982
627.579	0.99
636.265	0.98
644.951	0.971
653.638	0.986
662.324	0.986
671.01	0.986
679.696	0.98
688.382	0.978
697.069	0.972
705.755	0.967
714.441	0.954
723.127	0.954
731.813	0.959
740.5	0.96
749.186	0.956
757.872	0.941
766.558	0.86
775.245	0.934
783.931	0.934
792.617	0.923
801.303	0.945
809.989	0.948
818.676	0.933
827.362	0.911
836.048	0.93
844.734	0.9
853.42	0.623
862.107	0.712
870.793	0.249
879.479	0.095
888.165	0.562
896.852	0.74
905.538	0.703
914.224	0.89
922.91	0.886
931.596	0.903
940.283	0.9
948.969	0.9
957.655	0.901
966.341	0.927
975.027	0.867
983.714	0.918
992.4	0.877
1001.09	0.941
1009.77	0.934
1018.46	0.939
1027.14	0.948
1035.83	0.939
1044.52	0.901
1053.2	0.847
1061.89	0.914
1070.58	0.918
1079.26	0.899
1087.95	0.905
1096.63	0.854
1105.32	0.68
1114.01	0.892
1122.69	0.916
1131.38	0.915
1140.07	0.826
1148.75	0.892
1157.44	0.926
1166.12	0.926
1174.81	0.901
1183.5	0.813
1192.18	0.818
1200.87	0.773
1209.56	0.86
1218.24	0.826
1226.93	0.854
1235.61	0.871
1244.3	0.87
1252.99	0.708
1261.67	0.743
1270.36	0.875
1279.04	0.864
1287.73	0.824
1296.42	0.873
1305.1	0.892
1313.79	0.829
1322.48	0.942
1331.16	0.944
1339.85	0.956
1348.53	0.95
1357.22	0.929
1365.91	0.777
1374.59	0.787
1383.28	0.534
1391.97	0.833
1400.65	0.837
1409.34	0.878
1418.02	0.882
1426.71	0.83
1435.4	0.628
1444.08	0.615
1452.77	0.667
1461.46	0.377
1470.14	0.5
1478.83	0.581
1487.51	0.863
1496.2	0.919
1504.89	0.946
1513.57	0.968
1522.26	0.978
1530.95	0.986
1539.63	1.002
1548.32	1.012
1557	1.013
1565.69	1.01
1574.38	0.993
1583.06	0.986
1591.75	0.953
1600.43	0.949
1609.12	0.946
1617.81	0.916
1626.49	0.869
1635.18	0.538
1643.87	0.357
1652.55	0.608
1661.24	0.821
1669.92	0.914
1678.61	0.935
1687.3	0.946
1695.98	0.964
1704.67	0.976
1713.36	0.976
1722.04	0.968
1730.73	0.961
1739.41	0.957
1748.1	0.945
1756.79	0.914
1765.47	0.911
1774.16	0.949
1782.85	0.961
1791.53	0.967
1800.22	0.971
1808.9	0.972
1817.59	0.974
1826.28	0.975
1834.96	0.978
1843.65	0.98
1852.34	0.982
1861.02	0.98
1869.71	0.983
1878.39	0.983
1887.08	0.984
1895.77	0.984
1904.45	0.982
1913.14	0.983
1921.82	0.984
1930.51	0.984
1939.2	0.984
1947.88	0.983
1956.57	0.983
1965.26	0.984
1973.94	0.983
1982.63	0.984
1991.31	0.983
2000	0.982
2008.69	0.986
2017.37	0.989
2026.06	0.9841
2034.75	0.9859
2043.43	0.9871
2052.12	0.9841
2060.8	0.984
2069.49	0.9842
2078.18	0.9858
2086.86	0.984
2095.55	0.983
2104.24	0.983
2112.92	0.9803
2121.61	0.9829
2130.29	0.98
2138.98	0.983
2147.67	0.984
2156.35	0.9844
2165.04	0.9798
2173.73	0.9892
2182.41	0.9832
2191.1	0.9797
2199.78	0.98
2208.47	0.9805
2217.16	0.978
2225.84	0.979
2234.53	0.9854
2243.21	0.983
2251.9	0.983
2260.59	0.984
2269.27	0.983
2277.96	0.9853
2286.65	0.984
2295.33	0.984
2304.02	0.984
2312.7	0.9836
2321.39	0.9864
2330.08	0.986
2338.76	0.986
2347.45	0.986
2356.14	0.984
2364.82	0.986
2373.51	0.986
2382.19	0.9849
2390.88	0.983
2399.57	0.98
2408.25	0.9795
2416.94	0.9805
2425.63	0.9835
2434.31	0.984
2443	0.9849
2451.68	0.984
2460.37	0.9825
2469.06	0.9836
2477.74	0.984
2486.43	0.9826
2495.12	0.984
2503.8	0.9796
2512.49	0.976
2521.17	0.978
2529.86	0.982
2538.55	0.98
2547.23	0.9773
2555.92	0.978
2564.6	0.976
2573.29	0.9774
2581.98	0.9753
2590.66	0.9774
2599.35	0.9753
2608.04	0.979
2616.72	0.979
2625.41	0.976
2634.09	0.976
2642.78	0.975
2651.47	0.9705
2660.15	0.9621
2668.84	0.9424
2677.53	0.9694
2686.21	0.9742
2694.9	0.9748
2703.58	0.9718
2712.27	0.9644
2720.96	0.9321
2729.64	0.9313
2738.33	0.9544
2747.02	0.959
2755.7	0.948
2764.39	0.956
2773.07	0.954
2781.76	0.9519
2790.45	0.9447
2799.13	0.9289
2807.82	0.9047
2816.5	0.892
2825.19	0.8629
2833.88	0.8059
2842.56	0.667
2851.25	0.628
2859.94	0.4971
2868.62	0.1567
2877.31	0.1943
2885.99	0.1975
2894.68	0.1245
2903.37	0.0763
2912.05	0.0316
2920.74	0.0161
2929.43	0.0208
2938.11	0.028
2946.8	0.031
2955.48	0.0503
2964.17	0.0927
2972.86	0.0942
2981.54	0.0765
2990.23	0.129
2998.92	0.3189
3007.6	0.5632
3016.29	0.7365
3024.97	0.8123
3033.66	0.8454
3042.35	0.8613
3051.03	0.8502
3059.72	0.8164
3068.41	0.6907
3077.09	0.5386
3085.78	0.7731
3094.46	0.8798
3103.15	0.9209
3111.84	0.9347
3120.52	0.9403
3129.21	0.9447
3137.89	0.946
3146.58	0.948
3155.27	0.952
3163.95	0.954
3172.64	0.9552
3181.33	0.9622
3190.01	0.964
3198.7	0.9686
3207.38	0.971
3216.07	0.974
3224.76	0.9756
3233.44	0.9769
3242.13	0.978
3250.82	0.9785
3259.5	0.978
3268.19	0.9795
3276.87	0.98
3285.56	0.979
3294.25	0.98
3302.93	0.98
3311.62	0.982
3320.31	0.98
3328.99	0.979
3337.68	0.979
3346.36	0.979
3355.05	0.98
3363.74	0.98
3372.42	0.9807
3381.11	0.9834
3389.8	0.984
3398.48	0.984
3407.17	0.986
3415.85	0.986
3424.54	0.986
3433.23	0.9876
3441.91	0.99
3450.6	0.989
3459.28	0.989
3467.97	0.991
3476.66	0.993
3485.34	0.9932
3494.03	0.994
3502.72	0.995
3511.4	0.997
3520.09	0.998
3528.77	0.998
3537.46	0.998
3546.15	0.998
3554.83	0.997
3563.52	0.9967
3572.21	0.994
3580.89	0.993
3589.58	0.991
3598.26	0.99
3606.95	0.989
3615.64	0.989
3624.32	0.9869
3633.01	0.986
3641.7	0.983
3650.38	0.982
3659.07	0.982
3667.75	0.982
3676.44	0.982
3685.13	0.983
3693.81	0.982
3702.5	0.982
3711.19	0.979
3719.87	0.979
3728.56	0.982
3737.24	0.9801
3745.93	0.98
3754.62	0.98
3763.3	0.979
3771.99	0.978
3780.67	0.976
3789.36	0.976
