Infrared Spectrum: Diisobutylamine hydrochloride
Formula: C8 H20 Cl N
CAS: 18251-82-6
State: SOLID (NUJOL MULL)
Class: COBLENTZ III
Instrument: DOW KBr FOREPRISM-GRATING
Instrument parameters: BLAZED AT 3.5, 12.0, 20.0 MICRON AND CHANGED AT 5.0, 7.5, 14.9 MICRON
Sampling: TRANSMISSION
Resolution: 2
Origin: DOW CHEMICAL COMPANY
1/CM	TRANSMITTANCE
452	0.7685
461	0.7685
470	0.7941
479	0.8171
488	0.8255
497	0.827
506	0.8213
515	0.8021
524	0.7362
533	0.8341
542	0.8475
551	0.8521
560	0.855
569	0.8546
578	0.8539
587	0.8547
596	0.8557
605	0.8553
614	0.8582
623	0.8597
632	0.8545
641	0.8537
650	0.8545
659	0.8539
668	0.8507
677	0.8545
686	0.8478
695	0.8413
704	0.8332
713	0.9863
722	0.924
731	0.9153
740	0.9406
749	0.9601
758	0.9702
767	0.9698
776	0.966
785	0.9593
794	0.9506
803	0.9401
812	0.8433
821	0.9315
830	0.9049
839	0.8521
848	0.8516
857	0.916
866	0.9439
875	0.9447
884	0.9344
893	0.9386
902	0.9451
911	0.9397
920	0.9194
929	0.8663
938	0.9035
947	0.9077
956	0.8144
965	0.8473
974	0.8837
983	0.8757
992	0.8286
1001	0.8006
1010	0.7021
1019	0.5642
1028	0.7319
1037	0.8666
1046	0.9
1055	0.9075
1064	0.907
1073	0.9037
1082	0.9071
1091	0.9083
1100	0.9086
1109	0.9103
1118	0.9199
1127	0.916
1136	0.9198
1145	0.9012
1154	0.8798
1163	0.8813
1172	0.8314
1181	0.7878
1190	0.8594
1199	0.8985
1208	0.9161
1217	0.9166
1226	0.9042
1235	0.8915
1244	0.9002
1253	0.9002
1262	0.8878
1271	0.8762
1280	0.8614
1289	0.8122
1298	0.7828
1307	0.8051
1316	0.7906
1325	0.8038
1334	0.8101
1343	0.7485
1352	0.7078
1361	0.6524
1370	0.4793
1379	0.3976
1388	0.5099
1397	0.5542
1406	0.6405
1415	0.5176
1424	0.5989
1433	0.3942
1442	0.2097
1451	0.1849
1460	0.1173
1469	0.0677
1478	0.3013
1487	0.6112
1496	0.7858
1505	0.82
1514	0.8332
1523	0.8358
1532	0.8399
1541	0.8375
1550	0.8245
1559	0.8042
1568	0.7754
1577	0.7321
1586	0.6564
1595	0.5719
1604	0.7191
1613	0.8432
1622	0.8718
1631	0.8853
1640	0.9039
1649	0.9034
1658	0.8924
1667	0.8858
1676	0.8809
1685	0.8818
1694	0.8868
1703	0.8945
1712	0.8955
1721	0.8947
1730	0.8958
1739	0.8967
1748	0.9008
1757	0.906
1766	0.909
1775	0.9094
1784	0.907
1793	0.9032
1802	0.898
1811	0.8921
1820	0.8828
1829	0.8695
1838	0.8586
1847	0.8535
1856	0.8524
1865	0.8621
1874	0.8749
1883	0.8884
1892	0.8978
1901	0.9053
1910	0.9068
1919	0.906
1928	0.9047
1937	0.9007
1946	0.903
1955	0.9017
1964	0.903
1973	0.9016
1982	0.902
1991	0.9018
2000	0.9013
2009	0.8927
2018	0.8903
2027	0.8893
2036	0.8895
2045	0.89
2054	0.8906
2063	0.891
2072	0.8915
2081	0.892
2090	0.8909
2099	0.8896
2108	0.8868
2117	0.8839
2126	0.8812
2135	0.8784
2144	0.8757
2153	0.8725
2162	0.8695
2171	0.8664
2180	0.8654
2189	0.8645
2198	0.8635
2207	0.8613
2216	0.8577
2225	0.8513
2234	0.8499
2243	0.8494
2252	0.8464
2261	0.8418
2270	0.8365
2279	0.8296
2288	0.8207
2297	0.8101
2306	0.7989
2315	0.7871
2324	0.7747
2333	0.7649
2342	0.7583
2351	0.753
2360	0.7448
2369	0.7255
2378	0.6961
2387	0.6571
2396	0.5926
2405	0.4676
2414	0.4456
2423	0.3577
2432	0.3479
2441	0.4947
2450	0.6521
2459	0.6983
2468	0.7001
2477	0.6939
2486	0.6826
2495	0.6667
2504	0.6324
2513	0.5744
2522	0.4784
2531	0.3752
2540	0.3645
2549	0.3721
2558	0.3929
2567	0.3494
2576	0.303
2585	0.3659
2594	0.4846
2603	0.5195
2612	0.5099
2621	0.476
2630	0.4288
2639	0.3424
2648	0.2995
2657	0.2926
2666	0.2571
2675	0.2559
2684	0.2527
2693	0.2152
2702	0.1492
2711	0.1127
2720	0.0791
2729	0.0688
2738	0.0609
2747	0.0409
2756	0.0297
2765	0.0301
2774	0.0349
2783	0.0436
2792	0.0521
2801	0.0462
2810	0.0423
2819	0.0464
2828	0.0553
2837	0.0544
2846	0.0429
2855	0.0104
2864	0.0089
2873	0.0095
2882	0.0096
2891	0.0063
2900	0.0009
2909	0.0015
2918	0.0019
2927	0.0023
2936	0.0022
2945	0.0023
2954	0.0033
2963	0.0052
2972	0.0097
2981	0.0261
2990	0.0707
2999	0.1069
3008	0.1531
3017	0.211
3026	0.267
3035	0.3179
3044	0.3682
3053	0.4153
3062	0.4485
3071	0.5031
3080	0.5388
3089	0.5736
3098	0.6015
3107	0.625
3116	0.6468
3125	0.6765
3134	0.7
3143	0.7171
3152	0.7278
3161	0.7292
3170	0.728
3179	0.7271
3188	0.7282
3197	0.7349
3206	0.7498
3215	0.7691
3224	0.7936
3233	0.8088
3242	0.8178
3251	0.8252
3260	0.8308
3269	0.8354
3278	0.8389
3287	0.8407
3296	0.8423
3305	0.8425
3314	0.8425
3323	0.8414
3332	0.8397
3341	0.8371
3350	0.834
3359	0.8349
3368	0.838
3377	0.8425
3386	0.8443
3395	0.8452
3404	0.8445
3413	0.8437
3422	0.8428
3431	0.8421
3440	0.8417
3449	0.8412
3458	0.8408
3467	0.8402
3476	0.8402
3485	0.8402
3494	0.8402
3503	0.8402
3512	0.8398
3521	0.8393
3530	0.839
3539	0.8385
3548	0.8381
3557	0.8377
3566	0.8374
3575	0.8371
3584	0.8368
3593	0.8366
3602	0.8364
3611	0.8362
3620	0.8361
3629	0.8355
3638	0.8348
3647	0.834
3656	0.8333
3665	0.8325
3674	0.8314
3683	0.8301
3692	0.8289
3701	0.8275
3710	0.8263
3719	0.8249
3728	0.8235
3737	0.822
3746	0.8206
3755	0.8191
3764	0.8176
3773	0.8164
3782	0.8151
