Infrared Spectrum: TETRABORANE
Formula: B4 H10
CAS: 18283-93-7
State: SOLUTION (1.09 M IN MINERAL OIL);
Class: COBLENTZ
Instrument: Not specified, most likely a prism, grating, or hybrid spectrometer.
Sampling: TRANSMISSION
Path length: 0.0094 CM CELL, COMPENSATED
Resolution: 4
Origin: KALLERY CHEMICAL COMPANY
MICROMETERS	TRANSMITTANCE
2.212	0.955
2.24748	0.951
2.28297	0.944
2.31845	0.93
2.35394	0.926
2.38942	0.93
2.4249	0.937
2.46039	0.942
2.49587	0.944
2.53136	0.942
2.56684	0.942
2.60232	0.941
2.63781	0.937
2.67329	0.935
2.70878	0.932
2.74426	0.928
2.77975	0.926
2.81523	0.923
2.85071	0.923
2.8862	0.923
2.92168	0.925
2.95717	0.925
2.99265	0.926
3.02813	0.928
3.06362	0.93
3.0991	0.932
3.13459	0.934
3.17007	0.935
3.20555	0.939
3.24104	0.941
3.27652	0.942
3.31201	0.942
3.34749	0.941
3.38297	0.941
3.41846	0.941
3.45394	0.941
3.48943	0.942
3.52491	0.944
3.5604	0.941
3.59588	0.935
3.63136	0.925
3.66685	0.903
3.70233	0.852
3.73782	0.666
3.7733	0.147
3.80878	0.065
3.84427	0.21
3.87975	0.456
3.91524	0.327
3.95072	0.105
3.9862	0.262
4.02169	0.648
4.05717	0.811
4.09266	0.852
4.12814	0.877
4.16362	0.88
4.19911	0.882
4.23459	0.88
4.27008	0.873
4.30556	0.857
4.34105	0.828
4.37653	0.816
4.41201	0.834
4.4475	0.825
4.48298	0.798
4.51847	0.714
4.55395	0.577
4.58943	0.418
4.62492	0.188
4.6604	0.354
4.69589	0.386
4.73137	0.445
4.76685	0.663
4.80234	0.75
4.83782	0.786
4.87331	0.819
4.90879	0.843
4.94427	0.85
4.97976	0.864
5.01524	0.875
5.05073	0.88
5.08621	0.891
5.12169	0.898
5.15718	0.901
5.19266	0.901
5.22815	0.898
5.26363	0.885
5.29912	0.868
5.3346	0.86
5.37008	0.862
5.40557	0.871
5.44105	0.88
5.47654	0.884
5.51202	0.889
5.5475	0.893
5.58299	0.898
5.61847	0.9
5.65396	0.896
5.68944	0.891
5.72492	0.884
5.76041	0.875
5.79589	0.875
5.83138	0.877
5.86686	0.878
5.90234	0.882
5.93783	0.887
5.97331	0.893
6.0088	0.893
6.04428	0.885
6.07977	0.873
6.11525	0.855
6.15073	0.825
6.18622	0.754
6.2217	0.62
6.25719	0.582
6.29267	0.648
6.32815	0.714
6.36364	0.748
6.39912	0.777
6.43461	0.832
6.47009	0.839
6.50557	0.841
6.54106	0.843
6.57654	0.844
6.61203	0.852
6.64751	0.859
6.68299	0.875
6.71848	0.887
6.75396	0.893
6.78945	0.896
6.82493	0.894
6.86042	0.898
6.8959	0.907
6.93138	0.916
6.96687	0.914
7.00235	0.887
7.03784	0.846
7.07332	0.798
7.1088	0.721
7.14429	0.661
7.17977	0.639
7.21526	0.639
7.25074	0.675
7.28622	0.746
7.32171	0.803
7.35719	0.877
7.39268	0.894
7.42816	0.903
7.46364	0.907
7.49913	0.91
7.53461	0.912
7.5701	0.91
7.60558	0.901
7.64106	0.896
7.67655	0.893
7.71203	0.891
7.74752	0.894
7.783	0.896
7.81849	0.894
7.85397	0.887
7.88945	0.862
7.92494	0.843
7.96042	0.843
7.99591	0.841
8.03139	0.841
8.06687	0.841
8.10236	0.843
8.13784	0.843
8.17333	0.839
8.20881	0.83
8.24429	0.814
8.27978	0.786
8.31526	0.727
8.35075	0.684
8.38623	0.629
8.42171	0.62
8.4572	0.629
8.49268	0.634
8.52817	0.622
8.56365	0.588
8.59914	0.57
8.63462	0.534
8.6701	0.411
8.70559	0.367
8.74107	0.39
8.77656	0.388
8.81204	0.304
8.84752	0.29
8.88301	0.319
8.91849	0.454
8.95398	0.565
8.98946	0.691
9.02494	0.734
9.06043	0.754
9.09591	0.77
9.1314	0.775
9.16688	0.775
9.20236	0.766
9.23785	0.734
9.27333	0.693
9.30882	0.593
9.3443	0.385
9.37979	0.347
9.41527	0.399
9.45075	0.508
9.48624	0.607
9.52172	0.705
9.55721	0.718
9.59269	0.723
9.62817	0.723
9.66366	0.711
9.69914	0.675
9.73463	0.634
9.77011	0.611
9.80559	0.613
9.84108	0.638
9.87656	0.659
9.91205	0.677
9.94753	0.688
9.98301	0.688
10.0185	0.682
10.054	0.661
10.0895	0.629
10.125	0.59
10.1604	0.543
10.1959	0.467
10.2314	0.417
10.2669	0.352
10.3024	0.263
10.3379	0.167
10.3733	0.142
10.4088	0.147
10.4443	0.262
10.4798	0.356
10.5153	0.516
10.5508	0.584
10.5862	0.641
10.6217	0.664
10.6572	0.689
10.6927	0.707
10.7282	0.721
10.7637	0.734
10.7991	0.737
10.8346	0.739
10.8701	0.736
10.9056	0.72
10.9411	0.689
10.9766	0.65
11.0121	0.598
11.0475	0.55
11.083	0.459
11.1185	0.415
11.154	0.413
11.1895	0.431
11.225	0.493
11.2604	0.557
11.2959	0.622
11.3314	0.661
11.3669	0.691
11.4024	0.705
11.4379	0.716
11.4733	0.72
11.5088	0.714
11.5443	0.7
11.5798	0.679
11.6153	0.632
11.6508	0.563
11.6863	0.454
11.7217	0.388
11.7572	0.31
11.7927	0.253
11.8282	0.238
11.8637	0.245
11.8992	0.335
11.9346	0.415
11.9701	0.49
12.0056	0.55
12.0411	0.6
12.0766	0.647
12.1121	0.682
12.1475	0.714
12.183	0.734
12.2185	0.748
12.254	0.759
12.2895	0.768
12.325	0.778
12.3604	0.787
12.3959	0.793
12.4314	0.798
12.4669	0.803
12.5024	0.805
12.5379	0.807
12.5734	0.807
12.6088	0.805
12.6443	0.805
12.6798	0.807
12.7153	0.812
12.7508	0.819
12.7863	0.827
12.8217	0.839
12.8572	0.852
12.8927	0.862
12.9282	0.875
12.9637	0.885
12.9992	0.898
13.0346	0.907
13.0701	0.912
13.1056	0.918
13.1411	0.921
13.1766	0.923
13.2121	0.926
13.2476	0.928
13.283	0.93
13.3185	0.932
13.354	0.935
13.3895	0.937
13.425	0.937
13.4605	0.937
13.4959	0.937
13.5314	0.937
13.5669	0.939
13.6024	0.941
13.6379	0.941
13.6734	0.948
13.7088	0.955
13.7443	0.964
13.7798	0.969
13.8153	0.978
13.8508	0.983
13.8863	0.991
13.9217	0.994
13.9572	0.996
13.9927	0.998
14.0282	0.994
14.0637	0.992
14.0992	0.989
14.1347	0.983
14.1701	0.976
14.2056	0.973
14.2411	0.969
14.2766	0.967
14.3121	0.966
14.3476	0.962
14.383	0.962
14.4185	0.962
14.454	0.962
14.4895	0.96
14.525	0.96
14.5605	0.96
14.5959	0.959
14.6314	0.959
14.6669	0.959
14.7024	0.959
14.7379	0.957
14.7734	0.955
14.8089	0.955
14.8443	0.955
14.8798	0.955
14.9153	0.955
14.9508	0.955
14.9863	0.957
15.0218	0.955
15.0572	0.955
15.0927	0.955
15.1282	0.955
15.1637	0.955
15.1992	0.955
15.2347	0.957
15.2701	0.957
15.3056	0.959
15.3411	0.959
15.3766	0.959
15.4121	0.959
15.4476	0.957
15.483	0.955
15.5185	0.955
15.554	0.955
15.5895	0.957
