Infrared Spectrum: Octadecylamine, hydrochloride
Formula: C18 H40 Cl N
CAS: 1838-08-0
State: SOLID (SPLIT MULL), FLUOROLUBE FOR 3800-1330 CM^-^1, NUJOL FOR 1330-400 CM^-^1
Class: COBLENTZ III
Instrument: BECKMAN IR-9 (GRATING)
Instrument parameters: ORDER CHANGES: 670, 1200, 2000 CM^-^1
Sampling: TRANSMISSION
Resolution: 2
Origin: DOW CHEMICAL COMPANY
1/CM	TRANSMITTANCE
402	0.5858
411	0.5805
420	0.6024
429	0.6646
438	0.6984
447	0.7253
456	0.7604
465	0.7936
474	0.8013
483	0.8037
492	0.8116
501	0.8061
510	0.8291
519	0.838
528	0.8522
537	0.8562
546	0.8622
555	0.884
564	0.8957
573	0.9042
582	0.9113
591	0.9179
600	0.9226
609	0.9282
618	0.9322
627	0.9336
636	0.9314
645	0.9302
654	0.9294
663	0.9276
672	0.9257
681	0.9231
690	0.9169
699	0.8965
708	0.8489
717	0.4059
726	0.7038
735	0.819
744	0.8674
753	0.8852
762	0.8619
771	0.8777
780	0.8256
789	0.8668
798	0.9027
807	0.9162
816	0.9101
825	0.9061
834	0.9093
843	0.9029
852	0.8903
861	0.9039
870	0.902
879	0.8955
888	0.8589
897	0.8365
906	0.8628
915	0.8599
924	0.8394
933	0.8615
942	0.8702
951	0.8525
960	0.8659
969	0.8422
978	0.82
987	0.8329
996	0.8634
1005	0.8366
1014	0.8131
1023	0.8538
1032	0.8611
1041	0.8536
1050	0.8575
1059	0.8594
1068	0.8401
1077	0.8435
1086	0.8582
1095	0.8294
1104	0.8829
1113	0.8884
1122	0.8709
1131	0.8578
1140	0.7998
1149	0.738
1158	0.8395
1167	0.8477
1176	0.8535
1185	0.8647
1194	0.8596
1203	0.8741
1212	0.8701
1221	0.8678
1230	0.8721
1239	0.8599
1248	0.8677
1257	0.8584
1266	0.8577
1275	0.8433
1284	0.8433
1293	0.8296
1302	0.8093
1311	0.8206
1320	0.8296
1329	0.8281
1338	0.8075
1347	0.804
1356	0.8243
1365	0.8346
1374	0.825
1383	0.8356
1392	0.8308
1401	0.7956
1410	0.8407
1419	0.8492
1428	0.8489
1437	0.8352
1446	0.8156
1455	0.7668
1464	0.5346
1473	0.1965
1482	0.7446
1491	0.7403
1500	0.7911
1509	0.7736
1518	0.698
1527	0.7121
1536	0.8384
1545	0.8516
1554	0.8568
1563	0.8464
1572	0.8011
1581	0.7874
1590	0.7818
1599	0.7414
1608	0.7493
1617	0.7873
1626	0.8573
1635	0.8716
1644	0.878
1653	0.8783
1662	0.8796
1671	0.8843
1680	0.8891
1689	0.8904
1698	0.8899
1707	0.8891
1716	0.887
1725	0.8812
1734	0.8846
1743	0.8943
1752	0.8974
1761	0.8976
1770	0.8966
1779	0.8954
1788	0.8943
1797	0.8944
1806	0.8944
1815	0.8941
1824	0.8939
1833	0.8942
1842	0.8946
1851	0.8949
1860	0.8951
1869	0.8953
1878	0.8955
1887	0.895
1896	0.8943
1905	0.8943
1914	0.8954
1923	0.896
1932	0.8952
1941	0.8944
1950	0.8922
1959	0.8901
1968	0.888
1977	0.8847
1986	0.8797
1995	0.8723
2004	0.8571
2013	0.8451
2022	0.8325
2031	0.8111
2040	0.7746
2049	0.7652
2058	0.7957
2067	0.8391
2076	0.8539
2085	0.8605
2094	0.8643
2103	0.8672
2112	0.8696
2121	0.8715
2130	0.872
2139	0.8725
2148	0.873
2157	0.8729
2166	0.8724
2175	0.8717
2184	0.8712
2193	0.8697
2202	0.868
2211	0.8656
2220	0.8626
2229	0.8591
2238	0.8561
2247	0.8535
2256	0.8516
2265	0.8501
2274	0.849
2283	0.8477
2292	0.8465
2301	0.8465
2310	0.8467
2319	0.8469
2328	0.8474
2337	0.8477
2346	0.8476
2355	0.8474
2364	0.8472
2373	0.8469
2382	0.8385
2391	0.8326
2400	0.83
2409	0.8283
2418	0.826
2427	0.8173
2436	0.82
2445	0.8195
2454	0.8168
2463	0.8133
2472	0.8073
2481	0.7993
2490	0.79
2499	0.7795
2508	0.7656
2517	0.7716
2526	0.7644
2535	0.753
2544	0.7714
2553	0.7827
2562	0.772
2571	0.7626
2580	0.7567
2589	0.7484
2598	0.7501
2607	0.7475
2616	0.7387
2625	0.7304
2634	0.7213
2643	0.7105
2652	0.6925
2661	0.6875
2670	0.6926
2679	0.6876
2688	0.6769
2697	0.6762
2706	0.6808
2715	0.6747
2724	0.6627
2733	0.6459
2742	0.6261
2751	0.602
2760	0.5793
2769	0.558
2778	0.5378
2787	0.5128
2796	0.4872
2805	0.4635
2814	0.444
2823	0.4159
2832	0.3099
2841	0.0524
2850	0.0176
2859	0.1161
2868	0.2222
2877	0.2211
2886	0.1672
2895	0.1048
2904	0.0564
2913	0.0228
2922	0.0121
2931	0.0164
2940	0.0746
2949	0.1022
2958	0.0901
2967	0.0935
2976	0.0983
2985	0.1048
2994	0.1304
3003	0.2024
3012	0.2313
3021	0.2387
3030	0.2467
3039	0.2574
3048	0.2902
3057	0.3496
3066	0.4338
3075	0.4803
3084	0.5198
3093	0.5553
3102	0.5832
3111	0.6064
3120	0.6112
3129	0.6295
3138	0.6488
3147	0.6729
3156	0.6927
3165	0.7138
3174	0.7314
3183	0.7379
3192	0.7378
3201	0.7383
3210	0.7379
3219	0.749
3228	0.7688
3237	0.7886
3246	0.8041
3255	0.8205
3264	0.8369
3273	0.8483
3282	0.8564
3291	0.8617
3300	0.8653
3309	0.8671
3318	0.8687
3327	0.8695
3336	0.8698
3345	0.87
3354	0.87
3363	0.8701
3372	0.8702
3381	0.8704
3390	0.8704
3399	0.8699
3408	0.8694
3417	0.8689
3426	0.868
3435	0.867
3444	0.866
3453	0.865
3462	0.8647
3471	0.8645
3480	0.8644
3489	0.8642
3498	0.8642
3507	0.8641
3516	0.8641
3525	0.8641
3534	0.8641
3543	0.8642
3552	0.865
3561	0.8641
3570	0.864
3579	0.8637
3588	0.8631
3597	0.8608
3606	0.8582
3615	0.8568
3624	0.856
3633	0.8561
3642	0.8566
3651	0.8572
3660	0.8579
3669	0.8587
3678	0.8585
3687	0.8582
3696	0.8586
3705	0.859
3714	0.8594
3723	0.8597
3732	0.8599
3741	0.8602
3750	0.86
3759	0.8595
3768	0.8592
3777	0.859
3786	0.8588
3795	0.8587
