Infrared Spectrum: SEBACIC ACID, DIISOBUTYL ESTER
Formula: C18 H34 O4
CAS: 18420-46-7
Class: COBLENTZ
Instrument: Not specified, most likely a prism, grating, or hybrid spectrometer.
Sampling: TRANSMISSION
Path length: SMEAR
Resolution: 4
Origin: TENNESSEE EASTMAN COMPANY, RESEARCH LABORATORIES
MICROMETERS	TRANSMITTANCE
2.033	0.988
2.07292	0.988
2.11284	0.986
2.15276	0.986
2.19268	0.988
2.2326	0.976
2.27252	0.931
2.31244	0.916
2.35236	0.925
2.39228	0.933
2.4322	0.936
2.47212	0.94
2.51204	0.968
2.55196	0.971
2.59188	0.975
2.6318	0.981
2.67172	0.988
2.71164	0.996
2.75156	0.996
2.79148	0.996
2.8314	0.996
2.87132	0.985
2.91124	0.918
2.95116	0.965
2.99108	0.96
3.031	0.956
3.07092	0.953
3.11084	0.951
3.15076	0.936
3.19068	0.933
3.2306	0.943
3.27052	0.931
3.31044	0.827
3.35036	0.539
3.39028	0.001
3.4302	0.127
3.47012	0.187
3.51004	0.453
3.54996	0.749
3.58988	0.852
3.6298	0.898
3.66972	0.9
3.70964	0.898
3.74956	0.928
3.78948	0.928
3.8294	0.943
3.86932	0.958
3.90924	0.965
3.94916	0.973
3.98908	0.98
4.029	0.981
4.06892	0.983
4.10884	0.988
4.14876	0.99
4.18868	0.99
4.2286	0.98
4.26852	0.988
4.30844	1
4.34836	0.998
4.38828	0.985
4.4282	0.983
4.46812	0.991
4.50804	0.998
4.54796	0.998
4.58788	0.993
4.6278	0.983
4.66772	0.983
4.70764	0.98
4.74756	0.978
4.78748	0.978
4.8274	0.98
4.86732	0.98
4.90724	0.978
4.94716	0.973
4.98708	0.973
5.027	0.981
5.06692	0.981
5.10684	0.98
5.14676	0.973
5.18668	0.975
5.2266	0.976
5.26652	0.976
5.30644	0.976
5.34636	0.97
5.38628	0.961
5.4262	0.951
5.46612	0.936
5.50604	0.908
5.54596	0.862
5.58588	0.8
5.6258	0.669
5.66572	0.458
5.70564	0.109
5.74556	0.041
5.78548	0.064
5.8254	0.299
5.86532	0.48
5.90524	0.616
5.94516	0.732
5.98508	0.81
6.025	0.858
6.06492	0.88
6.10484	0.911
6.14476	0.923
6.18468	0.93
6.2246	0.945
6.26452	0.95
6.30444	0.951
6.34436	0.951
6.38428	0.951
6.4242	0.951
6.46412	0.95
6.50404	0.946
6.54396	0.928
6.58388	0.911
6.6238	0.897
6.66372	0.833
6.70364	0.715
6.74356	0.443
6.78348	0.156
6.8234	0.232
6.86332	0.378
6.90324	0.478
6.94316	0.531
6.98308	0.503
7.023	0.475
7.06292	0.586
7.10284	0.598
7.14276	0.405
7.18268	0.387
7.2226	0.225
7.26252	0.212
7.30244	0.26
7.34236	0.355
7.38228	0.335
7.4222	0.35
7.46212	0.406
7.50204	0.448
7.54196	0.405
7.58188	0.378
7.6218	0.36
7.66172	0.348
7.70164	0.335
7.74156	0.292
7.78148	0.272
7.8214	0.264
7.86132	0.234
7.90124	0.217
7.94116	0.194
7.98108	0.174
8.021	0.152
8.06092	0.141
8.10084	0.142
8.14076	0.159
8.18068	0.166
8.2206	0.162
8.26052	0.149
8.30044	0.129
8.34036	0.102
8.38028	0.084
8.4202	0.078
8.46012	0.076
8.50004	0.068
8.53996	0.069
8.57988	0.079
8.6198	0.099
8.65972	0.144
8.69964	0.199
8.73956	0.24
8.77948	0.242
8.8194	0.244
8.85932	0.252
8.89924	0.308
8.93916	0.368
8.97908	0.362
9.019	0.325
9.05892	0.3
9.09884	0.302
9.13876	0.323
9.17868	0.398
9.2186	0.496
9.25852	0.553
9.29844	0.598
9.33836	0.612
9.37828	0.612
9.4182	0.609
9.45812	0.601
9.49804	0.576
9.53796	0.553
9.57788	0.531
9.6178	0.48
9.65772	0.413
9.69764	0.383
9.73756	0.34
9.77748	0.31
9.8174	0.294
9.85732	0.285
9.89724	0.287
9.93716	0.294
9.97708	0.3
10.017	0.32
10.0569	0.372
10.0968	0.425
10.1368	0.509
10.1767	0.589
10.2166	0.651
10.2565	0.679
10.2964	0.664
10.3364	0.642
10.3763	0.686
10.4162	0.725
10.4561	0.717
10.496	0.661
10.536	0.621
10.5759	0.612
10.6158	0.632
10.6557	0.657
10.6956	0.664
10.7356	0.661
10.7755	0.651
10.8154	0.652
10.8553	0.669
10.8952	0.672
10.9352	0.672
10.9751	0.689
11.015	0.712
11.0549	0.735
11.0948	0.762
11.1348	0.787
11.1747	0.8
11.2146	0.813
11.2545	0.82
11.2944	0.828
11.3344	0.833
11.3743	0.833
11.4142	0.84
11.4541	0.837
11.494	0.833
11.534	0.832
11.5739	0.832
11.6138	0.837
11.6537	0.843
11.6936	0.853
11.7336	0.863
11.7735	0.87
11.8134	0.872
11.8533	0.875
11.8932	0.875
11.9332	0.872
11.9731	0.858
12.013	0.837
12.0529	0.815
12.0928	0.802
12.1328	0.8
12.1727	0.817
12.2126	0.838
12.2525	0.855
12.2924	0.868
12.3324	0.88
12.3723	0.888
12.4122	0.892
12.4521	0.893
12.492	0.893
12.532	0.893
12.5719	0.892
12.6118	0.887
12.6517	0.885
12.6916	0.883
12.7316	0.88
12.7715	0.873
12.8114	0.863
12.8513	0.858
12.8912	0.853
12.9312	0.852
12.9711	0.852
13.011	0.853
13.0509	0.853
13.0908	0.853
13.1308	0.853
13.1707	0.853
13.2106	0.85
13.2505	0.845
13.2904	0.842
13.3304	0.84
13.3703	0.837
13.4102	0.833
13.4501	0.825
13.49	0.818
13.53	0.807
13.5699	0.794
13.6098	0.764
13.6497	0.734
13.6896	0.719
13.7296	0.702
13.7695	0.7
13.8094	0.722
13.8493	0.74
13.8892	0.762
13.9292	0.777
13.9691	0.785
14.009	0.789
14.0489	0.79
14.0888	0.792
14.1288	0.797
14.1687	0.797
14.2086	0.797
14.2485	0.797
14.2884	0.797
14.3284	0.799
14.3683	0.797
14.4082	0.797
14.4481	0.799
14.488	0.799
14.528	0.799
14.5679	0.797
14.6078	0.794
14.6477	0.789
14.6876	0.785
14.7276	0.777
14.7675	0.77
14.8074	0.767
14.8473	0.76
14.8872	0.755
14.9272	0.742
14.9671	0.739
15.007	0.739
15.0469	0.732
15.0868	0.724
15.1268	0.715
15.1667	0.704
15.2066	0.692
15.2465	0.687
15.2864	0.676
15.3264	0.671
15.3663	0.669
15.4062	0.661
15.4461	0.657
15.486	0.652
15.526	0.647
15.5659	0.639
15.6058	0.634
15.6457	0.632
15.6856	0.629
15.7256	0.626
15.7655	0.624
15.8054	0.621
15.8453	0.619
15.8852	0.619
15.9252	0.617
15.9651	0.616
16.005	0.616
