Infrared Spectrum: 3,3'-TETRAMETHYLENE-DI-OXYDIPROPIONITRILE
Formula: C10 H16 O2 N2
CAS: 18664-94-3
State: SOLID (SPLIT MULL)
Class: COBLENTZ
Instrument: Not specified, most likely a grating spectrometer.
Sampling: TRANSMISSION
Resolution: 4
Origin: STANDARD OIL OF OHIO
1/CM	TRANSMITTANCE
216.228	0.708
225.695	0.708
235.161	0.711
244.628	0.723
254.094	0.725
263.561	0.73
273.028	0.765
282.494	0.807
291.961	0.812
301.428	0.814
310.894	0.819
320.361	0.824
329.827	0.827
339.294	0.827
348.761	0.822
358.227	0.809
367.694	0.6981
377.161	0.7798
386.627	0.816
396.094	0.767
405.56	0.699
415.027	0.849
424.494	0.863
433.96	0.856
443.427	0.848
452.894	0.848
462.36	0.848
471.827	0.849
481.293	0.849
490.76	0.843
500.227	0.5829
509.693	0.7379
519.16	0.851
528.627	0.853
538.093	0.853
547.56	0.851
557.026	0.848
566.493	0.833
575.96	0.799
585.426	0.645
594.893	0.6401
604.36	0.804
613.826	0.838
623.293	0.848
632.759	0.849
642.226	0.848
651.693	0.812
661.159	0.821
670.626	0.838
680.093	0.849
689.559	0.856
699.026	0.858
708.492	0.851
717.959	0.816
727.426	0.809
736.892	0.797
746.359	0.757
755.825	0.7378
765.292	0.848
774.759	0.853
784.225	0.856
793.692	0.853
803.159	0.836
812.625	0.824
822.092	0.792
831.558	0.731
841.025	0.507
850.492	0.7799
859.958	0.834
869.425	0.839
878.892	0.833
888.358	0.821
897.825	0.817
907.291	0.809
916.758	0.785
926.225	0.762
935.691	0.721
945.158	0.6668
954.625	0.669
964.091	0.649
973.558	0.607
983.024	0.549
992.491	0.286
1001.96	0.1412
1011.42	0.5219
1020.89	0.45
1030.36	0.102
1039.82	0.2589
1049.29	0.291
1058.76	0.359
1068.22	0.2929
1077.69	0.178
1087.16	0.123
1096.62	0.042
1106.09	0.04
1115.56	0.045
1125.02	0.07
1134.49	0.1499
1143.96	0.301
1153.42	0.414
1162.89	0.509
1172.36	0.6
1181.82	0.661
1191.29	0.661
1200.76	0.536
1210.22	0.664
1219.69	0.4239
1229.16	0.4448
1238.62	0.583
1248.09	0.553
1257.56	0.359
1267.02	0.693
1276.49	0.741
1285.96	0.747
1295.42	0.6981
1304.89	0.704
1314.36	0.723
1323.82	0.655
1333.29	0.539
1342.76	0.704
1352.22	0.6319
1361.69	0.182
1371.16	0.3401
1380.62	0.6201
1390.09	0.693
1399.56	0.546
1409.02	0.5051
1418.49	0.569
1427.96	0.701
1437.42	0.733
1446.89	0.721
1456.36	0.568
1465.82	0.721
1475.29	0.483
1484.76	0.342
1494.22	0.7201
1503.69	0.826
1513.16	0.838
1522.62	0.839
1532.09	0.839
1541.56	0.838
1551.02	0.838
1560.49	0.838
1569.96	0.838
1579.42	0.833
1588.89	0.829
1598.35	0.833
1607.82	0.827
1617.29	0.827
1626.75	0.822
1636.22	0.829
1645.69	0.833
1655.15	0.834
1664.62	0.833
1674.09	0.826
1683.55	0.829
1693.02	0.833
1702.49	0.834
1711.95	0.838
1721.42	0.838
1730.89	0.839
1740.35	0.838
1749.82	0.833
1759.29	0.833
1768.75	0.829
1778.22	0.827
1787.69	0.827
1797.15	0.827
1806.62	0.827
1816.09	0.827
1825.55	0.826
1835.02	0.819
1844.49	0.819
1853.95	0.817
1863.42	0.819
1872.89	0.821
1882.35	0.816
1891.82	0.814
1901.29	0.811
1910.75	0.809
1920.22	0.806
1929.69	0.802
1939.15	0.779
1948.62	0.762
1958.09	0.79
1967.55	0.794
1977.02	0.806
1986.49	0.809
1995.95	0.804
2005.42	0.801
2014.89	0.801
2024.35	0.802
2033.82	0.798
2043.29	0.794
2052.75	0.794
2062.22	0.795
2071.69	0.795
2081.15	0.787
2090.62	0.7836
2100.09	0.7701
2109.55	0.768
2119.02	0.768
2128.49	0.772
2137.95	0.774
2147.42	0.774
2156.89	0.774
2166.35	0.7745
2175.82	0.768
2185.29	0.7625
2194.75	0.7531
2204.22	0.752
2213.69	0.7403
2223.15	0.7207
2232.62	0.6242
2242.09	0.261
2251.55	0.4176
2261.02	0.7105
2270.49	0.7847
2279.95	0.7881
2289.42	0.785
2298.89	0.784
2308.35	0.782
2317.82	0.782
2327.28	0.782
2336.75	0.782
2346.22	0.7791
2355.68	0.772
2365.15	0.772
2374.62	0.7692
2384.08	0.768
2393.55	0.7676
2403.02	0.7632
2412.48	0.758
2421.95	0.757
2431.42	0.758
2440.88	0.7598
2450.35	0.7592
2459.82	0.7553
2469.28	0.753
2478.75	0.753
2488.22	0.7546
2497.68	0.758
2507.15	0.7539
2516.62	0.748
2526.08	0.747
2535.55	0.747
2545.02	0.748
2554.48	0.7453
2563.95	0.736
2573.42	0.736
2582.88	0.735
2592.35	0.7313
2601.82	0.7256
2611.28	0.7157
2620.75	0.713
2630.22	0.711
2639.68	0.7023
2649.15	0.7124
2658.62	0.7103
2668.08	0.703
2677.55	0.6951
2687.02	0.6677
2696.48	0.647
2705.95	0.6548
2715.42	0.6486
2724.88	0.595
2734.35	0.627
2743.82	0.6137
2753.28	0.629
2762.75	0.6038
2772.22	0.595
2781.68	0.5785
2791.15	0.5017
2800.62	0.3567
2810.08	0.384
2819.55	0.4821
2829.02	0.4858
2838.48	0.4598
2847.95	0.334
2857.42	0.19
2866.88	0.0814
2876.35	0.0816
2885.82	0.13
2895.28	0.1756
2904.75	0.345
2914.22	0.4264
2923.68	0.3757
2933.15	0.3121
2942.62	0.1846
2952.08	0.1468
2961.55	0.4228
2971.02	0.4874
2980.48	0.5099
2989.95	0.6757
2999.42	0.6895
3008.88	0.693
3018.35	0.691
3027.81	0.691
3037.28	0.6925
3046.75	0.691
3056.21	0.6905
3065.68	0.689
3075.15	0.688
3084.61	0.688
3094.08	0.6968
3103.55	0.707
3113.01	0.709
3122.48	0.709
3131.95	0.711
3141.41	0.7083
3150.88	0.7055
3160.35	0.704
3169.81	0.703
3179.28	0.703
3188.75	0.701
3198.21	0.6995
3207.68	0.6975
3217.15	0.6933
3226.61	0.6875
3236.08	0.6798
3245.55	0.6755
3255.01	0.6754
3264.48	0.677
3273.95	0.679
3283.41	0.679
3292.88	0.679
3302.35	0.6768
3311.81	0.6705
3321.28	0.666
3330.75	0.666
3340.21	0.6618
3349.68	0.661
3359.15	0.659
3368.61	0.659
3378.08	0.6566
3387.55	0.6526
3397.01	0.6516
3406.48	0.65
3415.95	0.649
3425.41	0.6456
3434.88	0.642
3444.35	0.6376
3453.81	0.635
3463.28	0.6343
3472.75	0.63
3482.21	0.629
3491.68	0.627
3501.15	0.629
3510.61	0.627
3520.08	0.627
3529.55	0.627
3539.01	0.627
3548.48	0.627
3557.95	0.625
3567.41	0.625
3576.88	0.6297
3586.35	0.6341
3595.81	0.635
3605.28	0.63
3614.75	0.632
3624.21	0.632
3633.68	0.634
3643.15	0.63
3652.61	0.6313
3662.08	0.6299
3671.55	0.629
3681.01	0.629
3690.48	0.6278
3699.95	0.6268
3709.41	0.622
3718.88	0.622
3728.35	0.6188
3737.81	0.617
3747.28	0.617
3756.74	0.617
3766.21	0.615
3775.68	0.6098
3785.14	0.608
3794.61	0.605
3804.08	0.6038
3813.54	0.603
3823.01	0.602
3832.48	0.6
3841.94	0.598
3851.41	0.596
3860.88	0.596
3870.34	0.595
3879.81	0.5938
3889.28	0.593
