Infrared Spectrum: 3-Heptanol, 2-methyl
Formula: C8 H18 O
CAS: 18720-62-2
State: SOLUTION (10% CCl4 FOR 3800-1330, 10% CS2 FOR 1330-400)
Class: COBLENTZ III
Instrument: BECKMAN IR-9 (GRATING)
Instrument parameters: ORDER CHANGES: 670, 1200, 2000 CM^-^1
Sampling: TRANSMISSION
Path length: 0.011 CM, 0.011 CM
Resolution: 2
Origin: DOW CHEMICAL COMPANY
1/CM	TRANSMITTANCE
401	0.8386
410	0.8433
419	0.8225
428	0.7898
437	0.7659
446	0.7497
455	0.7368
464	0.7246
473	0.7132
482	0.699
491	0.6828
500	0.6799
509	0.6789
518	0.6877
527	0.6841
536	0.6684
545	0.6701
554	0.6864
563	0.6986
572	0.7033
581	0.7022
590	0.7122
599	0.7147
608	0.7083
617	0.715
626	0.7268
635	0.7285
644	0.7348
653	0.7402
662	0.7463
671	0.7511
680	0.7551
689	0.763
698	0.7687
707	0.7676
716	0.7583
725	0.7234
734	0.74
743	0.7711
752	0.7758
761	0.795
770	0.7922
779	0.7534
788	0.7059
797	0.7764
806	0.7768
815	0.786
824	0.7895
833	0.7838
842	0.8241
851	0.8329
860	0.8174
869	0.791
878	0.7337
887	0.6235
896	0.6402
905	0.7394
914	0.7559
923	0.7253
932	0.7329
941	0.6688
950	0.6698
959	0.6063
968	0.5824
977	0.3787
986	0.2571
995	0.2983
1004	0.3172
1013	0.4073
1022	0.5186
1031	0.5077
1040	0.5555
1049	0.5317
1058	0.5601
1067	0.5598
1076	0.5436
1085	0.6372
1094	0.601
1103	0.5577
1112	0.5802
1121	0.5955
1130	0.6095
1139	0.5882
1148	0.544
1157	0.6553
1166	0.6849
1175	0.6549
1184	0.6743
1193	0.6871
1202	0.6629
1211	0.665
1220	0.6723
1229	0.6465
1238	0.6074
1247	0.5865
1256	0.5705
1265	0.5705
1274	0.5982
1283	0.6171
1292	0.6193
1301	0.6087
1310	0.6027
1319	0.6067
1328	0.6085
1337	0.62
1346	0.6232
1355	0.6198
1364	0.5475
1373	0.4524
1382	0.3378
1391	0.3952
1400	0.5172
1409	0.5736
1418	0.6172
1427	0.6419
1436	0.5904
1445	0.5435
1454	0.3866
1463	0.2242
1472	0.1814
1481	0.5817
1490	0.6976
1499	0.755
1508	0.7907
1517	0.8143
1526	0.8303
1535	0.8472
1544	0.862
1553	0.8781
1562	0.8799
1571	0.8752
1580	0.8655
1589	0.8668
1598	0.8621
1607	0.8534
1616	0.8446
1625	0.838
1634	0.8369
1643	0.8425
1652	0.8447
1661	0.8451
1670	0.8451
1679	0.8458
1688	0.8471
1697	0.8486
1706	0.8497
1715	0.8514
1724	0.8536
1733	0.8599
1742	0.8603
1751	0.8607
1760	0.8611
1769	0.8616
1778	0.8622
1787	0.8628
1796	0.8633
1805	0.8638
1814	0.8636
1823	0.8633
1832	0.863
1841	0.8628
1850	0.8627
1859	0.8622
1868	0.8616
1877	0.8606
1886	0.8593
1895	0.8581
1904	0.8575
1913	0.8574
1922	0.8576
1931	0.8585
1940	0.8596
1949	0.8609
1958	0.8626
1967	0.8635
1976	0.8622
1985	0.8608
1994	0.8582
2003	0.848
2012	0.8603
2021	0.8614
2030	0.8607
2039	0.8596
2048	0.8601
2057	0.8603
2066	0.8606
2075	0.8605
2084	0.8603
2093	0.8599
2102	0.8596
2111	0.8593
2120	0.859
2129	0.8586
2138	0.8584
2147	0.858
2156	0.8578
2165	0.8575
2174	0.8574
2183	0.8574
2192	0.8573
2201	0.8571
2210	0.8567
2219	0.8563
2228	0.856
2237	0.8555
2246	0.855
2255	0.8544
2264	0.854
2273	0.8534
2282	0.8529
2291	0.8521
2300	0.8512
2309	0.8503
2318	0.8494
2327	0.8485
2336	0.8476
2345	0.8469
2354	0.8462
2363	0.8455
2372	0.8451
2381	0.8445
2390	0.8441
2399	0.8436
2408	0.8433
2417	0.8429
2426	0.8428
2435	0.8427
2444	0.8426
2453	0.8427
2462	0.8432
2471	0.8437
2480	0.8433
2489	0.8428
2498	0.8418
2507	0.8406
2516	0.8389
2525	0.8362
2534	0.8335
2543	0.8298
2552	0.8256
2561	0.8207
2570	0.8159
2579	0.8088
2588	0.8048
2597	0.801
2606	0.798
2615	0.797
2624	0.7966
2633	0.796
2642	0.7947
2651	0.7907
2660	0.7856
2669	0.7798
2678	0.7772
2687	0.7761
2696	0.7752
2705	0.7729
2714	0.761
2723	0.7516
2732	0.7451
2741	0.7479
2750	0.7573
2759	0.756
2768	0.7498
2777	0.7412
2786	0.7285
2795	0.7106
2804	0.6877
2813	0.6503
2822	0.5896
2831	0.4933
2840	0.3475
2849	0.2236
2858	0.0803
2867	0.0691
2876	0.0531
2885	0.122
2894	0.128
2903	0.1026
2912	0.071
2921	0.0417
2930	0.0265
2939	0.0256
2948	0.0287
2957	0.0203
2966	0.0192
2975	0.1143
2984	0.3542
2993	0.4836
3002	0.5879
3011	0.665
3020	0.7055
3029	0.7316
3038	0.7535
3047	0.7753
3056	0.7865
3065	0.7936
3074	0.7983
3083	0.8017
3092	0.8035
3101	0.8047
3110	0.8054
3119	0.8049
3128	0.8029
3137	0.7995
3146	0.7949
3155	0.789
3164	0.7822
3173	0.7759
3182	0.7698
3191	0.763
3200	0.7559
3209	0.7485
3218	0.7408
3227	0.7327
3236	0.7235
3245	0.712
3254	0.6986
3263	0.6795
3272	0.6601
3281	0.6406
3290	0.6213
3299	0.5978
3308	0.5729
3317	0.5483
3326	0.5223
3335	0.4971
3344	0.4765
3353	0.4602
3362	0.4483
3371	0.4412
3380	0.4381
3389	0.4356
3398	0.4344
3407	0.4352
3416	0.4372
3425	0.4399
3434	0.4432
3443	0.4464
3452	0.4499
3461	0.4533
3470	0.4569
3479	0.4608
3488	0.4648
3497	0.4692
3506	0.4798
3515	0.5013
3524	0.5292
3533	0.5601
3542	0.591
3551	0.6352
3560	0.6797
3569	0.7131
3578	0.7408
3587	0.7483
3596	0.7399
3605	0.691
3614	0.6321
3623	0.5849
3632	0.5402
3641	0.5877
3650	0.7403
3659	0.7854
3668	0.7958
3677	0.7992
3686	0.8041
3695	0.8204
3704	0.8286
3713	0.8331
3722	0.8367
3731	0.8392
3740	0.8407
3749	0.8417
3758	0.8422
3767	0.8426
3776	0.8428
3785	0.8433
3794	0.8436
