Infrared Spectrum: ACETIC ACID, p-CHLOROPHENYL-
Formula: C8 H7 Cl O2
CAS: 1878-66-6
State: SOLID (OIL MULL)
Class: COBLENTZ III
Instrument: PERKIN-ELMER 21 (GRATING)
Instrument parameters: NaCl PRISM
Sampling: TRANSMISSION
Resolution: 2
Origin: SMITH KLINE & FRENCH
1/CM	TRANSMITTANCE
4000	0.8001
3991	0.8015
3982	0.8032
3973	0.8047
3964	0.8062
3955	0.8078
3946	0.8094
3937	0.8108
3928	0.8124
3919	0.814
3910	0.8154
3901	0.8165
3892	0.8175
3883	0.8185
3874	0.8196
3865	0.8206
3856	0.8217
3847	0.8227
3838	0.8237
3829	0.8249
3820	0.8265
3811	0.8282
3802	0.83
3793	0.8316
3784	0.8331
3775	0.8347
3766	0.8362
3757	0.8378
3748	0.8394
3739	0.8417
3730	0.8441
3721	0.8465
3712	0.8483
3703	0.8494
3694	0.8506
3685	0.8517
3676	0.8528
3667	0.8535
3658	0.8544
3649	0.8552
3640	0.8561
3631	0.8568
3622	0.8573
3613	0.858
3604	0.8586
3595	0.8584
3586	0.8566
3577	0.8539
3568	0.85
3559	0.8459
3550	0.8415
3541	0.8371
3532	0.833
3523	0.8292
3514	0.8257
3505	0.8233
3496	0.8218
3487	0.8215
3478	0.8211
3469	0.8206
3460	0.8202
3451	0.82
3442	0.8198
3433	0.8196
3424	0.8194
3415	0.8193
3406	0.8192
3397	0.8189
3388	0.8187
3379	0.8184
3370	0.8181
3361	0.8178
3352	0.8175
3343	0.8169
3334	0.8161
3325	0.815
3316	0.8132
3307	0.809
3298	0.8047
3289	0.7998
3280	0.7948
3271	0.7887
3262	0.7824
3253	0.7764
3244	0.7701
3235	0.7621
3226	0.7537
3217	0.7448
3208	0.7354
3199	0.7251
3190	0.7112
3181	0.6978
3172	0.6853
3163	0.6744
3154	0.664
3145	0.651
3136	0.6349
3127	0.6156
3118	0.5978
3109	0.5817
3100	0.5628
3091	0.5445
3082	0.5236
3073	0.5088
3064	0.4998
3055	0.4901
3046	0.4804
3037	0.4721
3028	0.465
3019	0.4592
3010	0.4536
3001	0.4475
2992	0.4417
2983	0.4364
2974	0.4309
2965	0.4251
2956	0.4172
2947	0.4018
2938	0.365
2929	0.3334
2920	0.3159
2911	0.3123
2902	0.2811
2893	0.2363
2884	0.2193
2875	0.2185
2866	0.2266
2857	0.2451
2848	0.2706
2839	0.2918
2830	0.3094
2821	0.3159
2812	0.3179
2803	0.3262
2794	0.4048
2785	0.4704
2776	0.4922
2767	0.5254
2758	0.5553
2749	0.5754
2740	0.585
2731	0.5877
2722	0.5878
2713	0.5862
2704	0.5822
2695	0.574
2686	0.5617
2677	0.5585
2668	0.5621
2659	0.5708
2650	0.5798
2641	0.589
2632	0.5925
2623	0.5881
2614	0.5787
2605	0.5727
2596	0.571
2587	0.5714
2578	0.5796
2569	0.6016
2560	0.6248
2551	0.6271
2542	0.6271
2533	0.6264
2524	0.626
2515	0.626
2506	0.6415
2497	0.6584
2488	0.6736
2479	0.686
2470	0.6937
2461	0.7004
2452	0.7071
2443	0.7139
2434	0.7208
2425	0.7276
2416	0.7355
2407	0.7436
2398	0.7518
2389	0.7598
2380	0.7678
2371	0.7765
2362	0.7871
2353	0.7989
2344	0.8104
2335	0.8132
2326	0.8131
2317	0.8141
2308	0.8202
2299	0.8213
2290	0.8221
2281	0.8234
2272	0.8248
2263	0.8268
2254	0.829
2245	0.8333
2236	0.8434
2227	0.8478
2218	0.8512
2209	0.8535
2200	0.8566
2191	0.8609
2182	0.8655
2173	0.8704
2164	0.8728
2155	0.8748
2146	0.8763
2137	0.8778
2128	0.8795
2119	0.881
2110	0.8824
2101	0.8838
2092	0.8847
2083	0.8855
2074	0.8864
2065	0.8875
2056	0.8886
2047	0.8896
2038	0.8906
2029	0.8917
2020	0.8928
2011	0.8942
2002	0.895
1993	0.8956
1984	0.8962
1975	0.8964
1966	0.8963
1957	0.897
1948	0.8975
1939	0.8978
1930	0.8978
1921	0.8975
1912	0.8967
1903	0.889
1894	0.862
1885	0.8563
1876	0.8678
1867	0.8767
1858	0.8832
1849	0.8863
1840	0.8768
1831	0.8748
1822	0.8691
1813	0.858
1804	0.8441
1795	0.8246
1786	0.8191
1777	0.8036
1768	0.7841
1759	0.7811
1750	0.7668
1741	0.74
1732	0.6968
1723	0.6338
1714	0.5236
1705	0.4155
1696	0.2379
1687	0.205
1678	0.2073
1669	0.3018
1660	0.4693
1651	0.6392
1642	0.6992
1633	0.7451
1624	0.7821
1615	0.8105
1606	0.828
1597	0.8019
1588	0.7671
1579	0.8792
1570	0.8767
1561	0.8907
1552	0.8952
1543	0.91
1534	0.9265
1525	0.9184
1516	0.9161
1507	0.9057
1498	0.8531
1489	0.4689
1480	0.4683
1471	0.7425
1462	0.6651
1453	0.5862
1444	0.6012
1435	0.6576
1426	0.6407
1417	0.4567
1408	0.393
1399	0.3664
1390	0.521
1381	0.7115
1372	0.6767
1363	0.7151
1354	0.7604
1345	0.7576
1336	0.529
1327	0.5324
1318	0.7008
1309	0.7475
1300	0.7092
1291	0.5703
1282	0.5626
1273	0.6368
1264	0.6207
1255	0.5343
1246	0.4164
1237	0.4503
1228	0.4765
1219	0.5787
1210	0.6819
1201	0.7511
1192	0.5312
1183	0.7114
1174	0.6825
1165	0.5314
1156	0.685
1147	0.7933
1138	0.8275
1129	0.8424
1120	0.8641
1111	0.8657
1102	0.734
1093	0.7943
1084	0.3187
1075	0.7588
1066	0.8225
1057	0.8338
1048	0.8242
1039	0.8342
1030	0.8567
1021	0.8605
1012	0.4702
1003	0.7982
994	0.8275
985	0.8234
976	0.7987
967	0.7608
958	0.6981
949	0.6501
940	0.5765
931	0.5255
922	0.4577
913	0.4921
904	0.5073
895	0.5908
886	0.6696
877	0.7244
868	0.7741
859	0.7906
850	0.6872
841	0.818
832	0.8412
823	0.7124
814	0.6908
805	0.3312
796	0.6227
787	0.8524
778	0.9002
769	0.9142
760	0.9139
751	0.9038
742	0.8418
733	0.4135
724	0.7747
715	0.8721
706	0.8967
697	0.8958
688	0.8388
679	0.7288
670	0.8047
661	0.598
652	0.6905
