Infrared Spectrum: (m-Chlorophenyl)acetic acid
Formula: C8 H7 Cl O2
CAS: 1878-65-5
State: SOLID (SPLIT MULL), FLUOROLUBE FOR 3800-1330 CM^-^1, NUJOL FOR 1330-460 CM^-^1
Melting point: 78 C
Class: COBLENTZ III
Instrument: DOW KBr FOREPRISM-GRATING
Instrument parameters: BLAZED AT 3.5, 12.0, 20.0 MICRON AND CHANGED AT 5.0, 7.5, 14.9 MICRON
Sampling: TRANSMISSION
Resolution: 2
Origin: DOW CHEMICAL COMPANY
1/CM	TRANSMITTANCE
3810	0.602
3801	0.603
3792	0.6052
3783	0.6078
3774	0.6097
3765	0.611
3756	0.6125
3747	0.6141
3738	0.6159
3729	0.6178
3720	0.6196
3711	0.6214
3702	0.6235
3693	0.6257
3684	0.6279
3675	0.63
3666	0.6323
3657	0.6344
3648	0.6362
3639	0.6382
3630	0.6401
3621	0.6419
3612	0.6439
3603	0.6457
3594	0.6469
3585	0.6482
3576	0.6495
3567	0.6508
3558	0.6521
3549	0.6533
3540	0.6546
3531	0.6568
3522	0.6597
3513	0.6625
3504	0.6655
3495	0.6684
3486	0.6714
3477	0.6743
3468	0.6767
3459	0.679
3450	0.6812
3441	0.6836
3432	0.6856
3423	0.6869
3414	0.6885
3405	0.6899
3396	0.6915
3387	0.6925
3378	0.693
3369	0.6933
3360	0.6937
3351	0.6928
3342	0.6911
3333	0.6894
3324	0.6876
3315	0.6855
3306	0.6833
3297	0.6793
3288	0.6737
3279	0.6682
3270	0.6624
3261	0.6564
3252	0.6504
3243	0.6444
3234	0.6375
3225	0.6297
3216	0.6221
3207	0.6141
3198	0.5994
3189	0.5853
3180	0.5726
3171	0.568
3162	0.5643
3153	0.5585
3144	0.549
3135	0.5353
3126	0.5215
3117	0.5078
3108	0.4943
3099	0.4809
3090	0.4679
3081	0.4624
3072	0.4635
3063	0.4667
3054	0.467
3045	0.4518
3036	0.4364
3027	0.4321
3018	0.4342
3009	0.4477
3000	0.4628
2991	0.4709
2982	0.4664
2973	0.4445
2964	0.4298
2955	0.4303
2946	0.4391
2937	0.4473
2928	0.4405
2919	0.4166
2910	0.435
2901	0.4577
2892	0.4736
2883	0.4827
2874	0.4882
2865	0.4926
2856	0.4968
2847	0.5012
2838	0.5065
2829	0.5156
2820	0.5277
2811	0.5408
2802	0.5512
2793	0.5584
2784	0.5626
2775	0.5612
2766	0.5575
2757	0.5504
2748	0.5399
2739	0.5315
2730	0.5329
2721	0.5443
2712	0.5558
2703	0.5675
2694	0.5783
2685	0.5878
2676	0.5895
2667	0.5696
2658	0.5587
2649	0.5604
2640	0.5698
2631	0.5759
2622	0.5808
2613	0.5923
2604	0.605
2595	0.6154
2586	0.6228
2577	0.6256
2568	0.6215
2559	0.6172
2550	0.6216
2541	0.6278
2532	0.633
2523	0.6407
2514	0.6494
2505	0.6582
2496	0.6685
2487	0.6786
2478	0.6849
2469	0.6908
2460	0.6968
2451	0.7026
2442	0.7083
2433	0.7134
2424	0.7165
2415	0.7195
2406	0.7226
2397	0.726
2388	0.7294
2379	0.7326
2370	0.7361
2361	0.74
2352	0.744
2343	0.7483
2334	0.7496
2325	0.7485
2316	0.7501
2307	0.7546
2298	0.7595
2289	0.7644
2280	0.7689
2271	0.771
2262	0.7711
2253	0.7721
2244	0.7746
2235	0.7811
2226	0.7888
2217	0.7954
2208	0.801
2199	0.8054
2190	0.8095
2181	0.8124
2172	0.8153
2163	0.8189
2154	0.8223
2145	0.8253
2136	0.8283
2127	0.8297
2118	0.831
2109	0.8332
2100	0.8356
2091	0.8378
2082	0.8398
2073	0.8411
2064	0.8425
2055	0.8438
2046	0.8458
2037	0.8478
2028	0.851
2019	0.8549
2010	0.859
2001	0.8597
1992	0.8484
1983	0.8435
1974	0.8477
1965	0.8505
1956	0.8535
1947	0.8021
1938	0.8313
1929	0.8475
1920	0.8532
1911	0.8558
1902	0.8575
1893	0.8587
1884	0.8499
1875	0.8536
1866	0.8518
1857	0.857
1848	0.8621
1839	0.8649
1830	0.8571
1821	0.8462
1812	0.8446
1803	0.8462
1794	0.8477
1785	0.8474
1776	0.8342
1767	0.8218
1758	0.8119
1749	0.8036
1740	0.8006
1731	0.7491
1722	0.6086
1713	0.3334
1704	0.1076
1695	0.0688
1686	0.0744
1677	0.2272
1668	0.4248
1659	0.5339
1650	0.6062
1641	0.6535
1632	0.6919
1623	0.7257
1614	0.7448
1605	0.7387
1596	0.6611
1587	0.7383
1578	0.5747
1569	0.621
1560	0.7512
1551	0.7851
1542	0.8058
1533	0.8158
1524	0.8202
1515	0.8156
1506	0.8015
1497	0.7972
1488	0.8018
1479	0.4916
1470	0.7651
1461	0.8011
1452	0.8008
1443	0.7736
1434	0.6157
1425	0.5553
1416	0.3944
1407	0.3122
1398	0.6132
1389	0.7103
1380	0.7305
1371	0.7254
1362	0.6831
1353	0.5136
1344	0.5391
1335	0.6578
1326	0.7669
1317	0.7576
1308	0.684
1299	0.5178
1290	0.6322
1281	0.5605
1272	0.7028
1263	0.6596
1254	0.3999
1245	0.1603
1236	0.3647
1227	0.4684
1218	0.6089
1209	0.705
1200	0.5212
1191	0.6544
1182	0.7391
1173	0.8067
1164	0.8022
1155	0.8212
1146	0.8278
1137	0.8281
1128	0.8386
1119	0.8418
1110	0.8285
1101	0.7901
1092	0.6397
1083	0.6526
1074	0.6711
1065	0.8046
1056	0.8228
1047	0.8318
1038	0.8338
1029	0.8337
1020	0.8358
1011	0.8392
1002	0.7064
993	0.8139
984	0.8014
975	0.6792
966	0.7692
957	0.7378
948	0.695
939	0.4434
930	0.5638
921	0.4951
912	0.4995
903	0.4486
894	0.3264
885	0.433
876	0.5608
867	0.4647
858	0.6969
849	0.7461
840	0.7815
831	0.8028
822	0.813
813	0.8143
804	0.8004
795	0.2668
786	0.6625
777	0.8217
768	0.8367
759	0.8365
750	0.8266
741	0.8147
732	0.5645
723	0.1757
714	0.7688
705	0.8305
696	0.8252
687	0.636
678	0.7586
669	0.8546
660	0.8725
651	0.8795
642	0.8732
633	0.8736
624	0.8388
615	0.6889
606	0.8378
597	0.8662
588	0.8678
579	0.8658
570	0.8505
561	0.8357
552	0.8432
543	0.8338
534	0.7242
525	0.8305
516	0.8421
507	0.8438
498	0.8444
489	0.842
480	0.8351
471	0.8273
462	0.8228
