Infrared Spectrum: 1-PROPENE, HEXACHLORO-
Formula: C3 Cl6
CAS: 1888-71-7
State: SOLUTION (10% IN CCl4 FOR 3800-1300, 10% IN CS2 FOR 1300-600, AND 10% IN CCl4 FOR 600-250 CM^-^1) VERSUS SOLVENT
Class: COBLENTZ III
Instrument: PERKIN-ELMER 521 (GRATING)
Instrument parameters: FILTERS AT 3150, 2500, 2000, 1150, 700, 410; GRATING CHANGES AT 2000, 630 CM^-^1
Sampling: TRANSMISSION
Path length: 0.011, 0.011, AND 0.010 CM (CsBr CELL)
Resolution: 4
Origin: DOW CORNING CORP.
1/CM	TRANSMITTANCE
254.268	0.922
263.44	0.917
272.612	0.906
281.784	0.914
290.956	0.921
300.128	0.918
309.3	0.918
318.472	0.92
327.644	0.914
336.816	0.911
345.988	0.902
355.16	0.907
364.332	0.916
373.504	0.91
382.676	0.906
391.848	0.916
401.02	0.92
410.192	0.918
419.364	0.917
428.536	0.921
437.708	0.927
446.88	0.924
456.052	0.92
465.224	0.92
474.396	0.902
483.568	0.899
492.74	0.914
501.912	0.922
511.084	0.924
520.256	0.921
529.428	0.92
538.6	0.92
547.772	0.916
556.944	0.885
566.116	0.803
575.288	0.91
584.46	0.918
593.632	0.922
602.804	0.921
611.976	0.918
621.148	0.909
630.32	0.843
639.492	0.762
648.664	0.5621
657.836	0.1001
667.008	0.5848
676.18	0.748
685.352	0.793
694.524	0.788
703.696	0.786
712.868	0.778
722.04	0.7331
731.212	0.687
740.384	0.616
749.556	0.4301
758.728	0.0641
767.9	0.022
777.072	0.031
786.244	0.297
795.416	0.436
804.588	0.607
813.76	0.7229
822.932	0.788
832.104	0.8
841.276	0.797
850.448	0.775
859.62	0.66
868.791	0.244
877.963	0.782
887.135	0.812
896.307	0.8
905.479	0.792
914.651	0.753
923.823	0.6321
932.995	0.4271
942.167	0.415
951.339	0.2479
960.511	0.713
969.683	0.804
978.855	0.812
988.027	0.818
997.199	0.812
1006.37	0.806
1015.54	0.8
1024.72	0.799
1033.89	0.801
1043.06	0.799
1052.23	0.793
1061.4	0.771
1070.58	0.737
1079.75	0.5179
1088.92	0.2679
1098.09	0.726
1107.26	0.795
1116.44	0.799
1125.61	0.803
1134.78	0.8
1143.95	0.815
1153.12	0.822
1162.3	0.825
1171.47	0.823
1180.64	0.828
1189.81	0.828
1198.98	0.833
1208.16	0.836
1217.33	0.839
1226.5	0.843
1235.67	0.847
1244.84	0.85
1254.02	0.854
1263.19	0.856
1272.36	0.861
1281.53	0.865
1290.7	0.867
1299.88	0.872
1309.05	0.876
1318.22	0.878
1327.39	0.881
1336.56	0.881
1345.74	0.883
1354.91	0.883
1364.08	0.881
1373.25	0.88
1382.42	0.88
1391.6	0.881
1400.77	0.881
1409.94	0.881
1419.11	0.884
1428.28	0.884
1437.46	0.883
1446.63	0.881
1455.8	0.881
1464.97	0.88
1474.14	0.878
1483.31	0.873
1492.49	0.872
1501.66	0.866
1510.83	0.85
1520	0.828
1529.17	0.793
1538.35	0.5899
1547.52	0.199
1556.69	0.7528
1565.86	0.837
1575.03	0.854
1584.21	0.861
1593.38	0.869
1602.55	0.872
1611.72	0.873
1620.89	0.873
1630.07	0.872
1639.24	0.87
1648.41	0.872
1657.58	0.873
1666.75	0.873
1675.93	0.873
1685.1	0.872
1694.27	0.869
1703.44	0.855
1712.61	0.859
1721.79	0.865
1730.96	0.865
1740.13	0.865
1749.3	0.865
1758.47	0.869
1767.65	0.872
1776.82	0.872
1785.99	0.873
1795.16	0.873
1804.33	0.876
1813.51	0.873
1822.68	0.873
1831.85	0.873
1841.02	0.873
1850.19	0.873
1859.37	0.873
1868.54	0.873
1877.71	0.873
1886.88	0.87
1896.05	0.873
1905.23	0.877
1914.4	0.876
1923.57	0.874
1932.74	0.877
1941.91	0.876
1951.09	0.876
1960.26	0.873
1969.43	0.872
1978.6	0.873
1987.77	0.874
1996.95	0.874
2006.12	0.878
2015.29	0.8765
2024.46	0.876
2033.63	0.8766
2042.81	0.878
2051.98	0.8752
2061.15	0.8772
2070.32	0.877
2079.49	0.877
2088.67	0.877
2097.84	0.874
2107.01	0.873
2116.18	0.873
2125.35	0.873
2134.53	0.873
2143.7	0.8721
2152.87	0.8679
2162.04	0.8621
2171.21	0.8624
2180.39	0.8689
2189.56	0.8711
2198.73	0.869
2207.9	0.869
2217.07	0.87
2226.25	0.87
2235.42	0.869
2244.59	0.869
2253.76	0.869
2262.93	0.869
2272.11	0.869
2281.28	0.869
2290.45	0.8704
2299.62	0.872
2308.79	0.87
2317.97	0.869
2327.14	0.8667
2336.31	0.867
2345.48	0.867
2354.65	0.865
2363.83	0.8664
2373	0.869
2382.17	0.865
2391.34	0.867
2400.51	0.867
2409.69	0.865
2418.86	0.8639
2428.03	0.8631
2437.2	0.865
2446.37	0.865
2455.55	0.865
2464.72	0.865
2473.89	0.863
2483.06	0.863
2492.23	0.863
2501.41	0.862
2510.58	0.863
2519.75	0.8629
2528.92	0.865
2538.09	0.863
2547.27	0.862
2556.44	0.862
2565.61	0.8629
2574.78	0.862
2583.95	0.865
2593.13	0.8625
2602.3	0.861
2611.47	0.858
2620.64	0.854
2629.81	0.855
2638.99	0.8581
2648.16	0.863
2657.33	0.863
2666.5	0.8627
2675.67	0.863
2684.85	0.863
2694.02	0.861
2703.19	0.865
2712.36	0.862
2721.53	0.862
2730.71	0.863
2739.88	0.863
2749.05	0.863
2758.22	0.8659
2767.39	0.866
2776.57	0.8651
2785.74	0.863
2794.91	0.865
2804.08	0.865
2813.25	0.865
2822.43	0.8639
2831.6	0.8632
2840.77	0.866
2849.94	0.867
2859.11	0.8654
2868.29	0.8658
2877.46	0.865
2886.63	0.866
2895.8	0.867
2904.97	0.869
2914.15	0.87
2923.32	0.87
2932.49	0.87
2941.66	0.869
2950.83	0.8651
2960.01	0.8626
2969.18	0.861
2978.35	0.863
2987.52	0.867
2996.69	0.866
3005.87	0.865
3015.04	0.865
3024.21	0.866
3033.38	0.866
3042.55	0.8687
3051.73	0.8626
3060.9	0.865
3070.07	0.863
3079.24	0.8674
3088.41	0.87
3097.59	0.87
3106.76	0.87
3115.93	0.8706
3125.1	0.873
3134.27	0.876
3143.45	0.878
3152.62	0.878
3161.79	0.878
3170.96	0.878
3180.13	0.878
3189.31	0.8775
3198.48	0.878
3207.65	0.88
3216.82	0.88
3225.99	0.88
3235.17	0.8812
3244.34	0.8818
3253.51	0.881
3262.68	0.881
3271.85	0.8813
3281.03	0.881
3290.2	0.881
3299.37	0.88
3308.54	0.88
3317.71	0.881
3326.89	0.878
3336.06	0.878
3345.23	0.877
3354.4	0.878
3363.57	0.8792
3372.75	0.8799
3381.92	0.88
3391.09	0.88
3400.26	0.8775
3409.43	0.877
3418.61	0.877
3427.78	0.878
3436.95	0.8788
3446.12	0.878
3455.29	0.878
3464.47	0.878
3473.64	0.878
3482.81	0.877
3491.98	0.876
3501.15	0.8777
3510.33	0.876
3519.5	0.8763
3528.67	0.8772
3537.84	0.879
3547.01	0.881
3556.19	0.8818
3565.36	0.883
3574.53	0.8879
3583.7	0.8852
3592.87	0.88
3602.05	0.881
3611.22	0.883
3620.39	0.887
3629.56	0.8834
3638.73	0.889
3647.91	0.8855
3657.08	0.8804
3666.25	0.8873
3675.42	0.8816
3684.59	0.8876
3693.77	0.8832
3702.94	0.8865
3712.11	0.888
3721.28	0.8906
3730.45	0.898
3739.63	0.9
3748.8	0.8899
3757.97	0.8841
3767.14	0.884
3776.31	0.885
3785.49	0.8864
3794.66	0.895
