Infrared Spectrum: Purine, 2,6-diamino-
Formula: C5 H6 N6
CAS: 1904-98-9
State: SOLID (1 mg / 650 mg KBr DISC)
Class: COBLENTZ III
Instrument: PERKIN-ELMER 21 (GRATING)
Instrument parameters: FILTER CHANGE ABOUT 1070 CM^-^1
Sampling: TRANSMISSION
Resolution: 2
Origin: SOUTHERN RESEARCH INSTITUTE
1/CM	TRANSMITTANCE
610	0.4026
619.021	0.4044
628.042	0.4178
637.063	0.4651
646.084	0.5024
655.105	0.5053
664.126	0.4945
673.147	0.4749
682.167	0.4609
691.188	0.4615
700.209	0.4657
709.23	0.4728
718.251	0.4717
727.272	0.4623
736.293	0.4449
745.314	0.446
754.335	0.4414
763.356	0.4292
772.377	0.4044
781.398	0.339
790.419	0.3587
799.44	0.4319
808.46	0.4354
817.481	0.4344
826.502	0.4311
835.523	0.4382
844.544	0.4521
853.565	0.4692
862.586	0.4851
871.607	0.498
880.628	0.5089
889.649	0.5148
898.67	0.5103
907.691	0.5026
916.712	0.475
925.733	0.4196
934.753	0.3612
943.774	0.4282
952.795	0.5852
961.816	0.6004
970.837	0.5989
979.858	0.5903
988.879	0.579
997.9	0.5795
1006.92	0.5869
1015.94	0.58
1024.96	0.5725
1033.98	0.5654
1043	0.5467
1052.03	0.5306
1061.05	0.5091
1070.07	0.3816
1079.09	0.4294
1088.11	0.4257
1097.13	0.4606
1106.15	0.5326
1115.17	0.5461
1124.19	0.5497
1133.21	0.5364
1142.23	0.517
1151.26	0.5081
1160.28	0.5148
1169.3	0.528
1178.32	0.5265
1187.34	0.5213
1196.36	0.5124
1205.38	0.4979
1214.4	0.4785
1223.42	0.4503
1232.44	0.4195
1241.47	0.4785
1250.49	0.4789
1259.51	0.4634
1268.53	0.4347
1277.55	0.3886
1286.57	0.3761
1295.59	0.4906
1304.61	0.4775
1313.63	0.4526
1322.65	0.4223
1331.67	0.3878
1340.7	0.3704
1349.72	0.3846
1358.74	0.3751
1367.76	0.3449
1376.78	0.3019
1385.8	0.2432
1394.82	0.1637
1403.84	0.1352
1412.86	0.3015
1421.88	0.2832
1430.9	0.293
1439.93	0.2649
1448.95	0.2232
1457.97	0.2814
1466.99	0.3181
1476.01	0.2875
1485.03	0.299
1494.05	0.2925
1503.07	0.3981
1512.09	0.4472
1521.11	0.4433
1530.13	0.4053
1539.16	0.3626
1548.18	0.3008
1557.2	0.2522
1566.22	0.179
1575.24	0.1212
1584.26	0.0804
1593.28	0.0685
1602.3	0.0472
1611.32	0.0504
1620.34	0.0681
1629.37	0.1268
1638.39	0.1646
1647.41	0.1946
1656.43	0.2642
1665.45	0.3595
1674.47	0.4651
1683.49	0.5334
1692.51	0.6008
1701.53	0.6346
1710.55	0.661
1719.57	0.6831
1728.6	0.7079
1737.62	0.734
1746.64	0.7495
1755.66	0.749
1764.68	0.7458
1773.7	0.742
1782.72	0.7378
1791.74	0.7363
1800.76	0.7339
1809.78	0.7303
1818.8	0.7307
1827.83	0.734
1836.85	0.7352
1845.87	0.7316
1854.89	0.7266
1863.91	0.7195
1872.93	0.7107
1881.95	0.7025
1890.97	0.6968
1899.99	0.695
1909.01	0.6942
1918.03	0.6938
1927.06	0.6909
1936.08	0.6855
1945.1	0.6807
1954.12	0.6765
1963.14	0.672
1972.16	0.667
1981.18	0.6619
1990.2	0.6569
1999.22	0.6519
2008.24	0.6471
2017.27	0.6425
2026.29	0.6378
2035.31	0.6331
2044.33	0.6286
2053.35	0.6242
2062.37	0.6197
2071.39	0.6153
2080.41	0.6108
2089.43	0.6063
2098.45	0.6018
2107.47	0.5973
2116.5	0.5928
2125.52	0.5884
2134.54	0.584
2143.56	0.5798
2152.58	0.5756
2161.6	0.5713
2170.62	0.5675
2179.64	0.5638
2188.66	0.56
2197.68	0.5561
2206.7	0.5522
2215.73	0.5484
2224.75	0.5445
2233.77	0.5408
2242.79	0.5372
2251.81	0.5337
2260.83	0.5329
2269.85	0.532
2278.87	0.5284
2287.89	0.524
2296.91	0.5187
2305.93	0.5133
2314.96	0.5085
2323.98	0.5039
2333	0.4992
2342.02	0.4952
2351.04	0.4912
2360.06	0.4873
2369.08	0.4838
2378.1	0.4805
2387.12	0.4772
2396.14	0.4725
2405.17	0.4614
2414.19	0.4595
2423.21	0.4589
2432.23	0.4563
2441.25	0.4516
2450.27	0.4424
2459.29	0.4326
2468.31	0.4235
2477.33	0.4156
2486.35	0.4092
2495.37	0.4035
2504.4	0.3984
2513.42	0.3935
2522.44	0.3892
2531.46	0.3876
2540.48	0.3855
2549.5	0.3814
2558.52	0.3752
2567.54	0.3702
2576.56	0.3651
2585.58	0.3596
2594.6	0.3534
2603.63	0.3467
2612.65	0.3407
2621.67	0.3347
2630.69	0.3285
2639.71	0.3222
2648.73	0.3153
2657.75	0.3084
2666.77	0.3035
2675.79	0.2987
2684.81	0.2946
2693.83	0.2914
2702.86	0.2891
2711.88	0.287
2720.9	0.2856
2729.92	0.2845
2738.94	0.2844
2747.96	0.2847
2756.98	0.2857
2766	0.2872
2775.02	0.2906
2784.04	0.2961
2793.07	0.3047
2802.09	0.3118
2811.11	0.3109
2820.13	0.3088
2829.15	0.3045
2838.17	0.3018
2847.19	0.302
2856.21	0.3024
2865.23	0.3031
2874.25	0.304
2883.27	0.3041
2892.3	0.3
2901.32	0.2957
2910.34	0.2928
2919.36	0.292
2928.38	0.2886
2937.4	0.2882
2946.42	0.2892
2955.44	0.2877
2964.46	0.2863
2973.48	0.2851
2982.5	0.2831
2991.53	0.2802
3000.55	0.2749
3009.57	0.2664
3018.59	0.2572
3027.61	0.2483
3036.63	0.2402
3045.65	0.2339
3054.67	0.23
3063.69	0.2272
3072.71	0.2236
3081.73	0.2196
3090.76	0.218
3099.78	0.2193
3108.8	0.2217
3117.82	0.2247
3126.84	0.2307
3135.86	0.238
3144.88	0.2479
3153.9	0.2612
3162.92	0.2819
3171.94	0.3127
3180.97	0.3282
3189.99	0.3376
3199.01	0.3407
3208.03	0.3424
3217.05	0.343
3226.07	0.3427
3235.09	0.3405
3244.11	0.3361
3253.13	0.3264
3262.15	0.3165
3271.17	0.3047
3280.2	0.29
3289.22	0.2752
3298.24	0.2626
3307.26	0.2514
3316.28	0.2425
3325.3	0.2383
3334.32	0.2374
3343.34	0.2428
3352.36	0.254
3361.38	0.2717
3370.4	0.2861
3379.43	0.2787
3388.45	0.2603
3397.47	0.2447
3406.49	0.2318
3415.51	0.2286
3424.53	0.231
3433.55	0.2389
3442.57	0.2621
3451.59	0.3382
3460.61	0.368
3469.63	0.3802
3478.66	0.3963
3487.68	0.4141
3496.7	0.4355
3505.72	0.4554
3514.74	0.473
3523.76	0.4916
3532.78	0.5095
3541.8	0.5282
3550.82	0.547
3559.84	0.5644
3568.87	0.5806
3577.89	0.5974
3586.91	0.6094
3595.93	0.6186
3604.95	0.627
3613.97	0.6311
3622.99	0.632
3632.01	0.6325
3641.03	0.6326
3650.05	0.6323
3659.07	0.6318
3668.1	0.631
3677.12	0.6299
3686.14	0.6267
3695.16	0.6238
3704.18	0.621
3713.2	0.6184
3722.22	0.6157
3731.24	0.6132
3740.26	0.6106
3749.28	0.6084
3758.3	0.6066
3767.33	0.6047
3776.35	0.6024
3785.37	0.6001
3794.39	0.5982
3803.41	0.597
3812.43	0.5959
3821.45	0.5949
3830.47	0.5942
3839.49	0.5933
3848.51	0.5919
3857.53	0.5906
3866.56	0.5889
3875.58	0.5865
3884.6	0.5831
3893.62	0.5811
3902.64	0.5801
3911.66	0.5792
3920.68	0.5768
3929.7	0.5751
3938.72	0.5742
3947.74	0.5737
3956.77	0.5728
3965.79	0.5719
3974.81	0.5715
3983.83	0.5712
3992.85	0.5706
4001.87	0.5701
4010.89	0.5647
4019.91	0.5713
4028.93	0.5739
4037.95	0.579
4046.97	0.5863
4056	0.6179
