Infrared Spectrum: N-n-BUTYL-p-TOLUENE SULFONAMIDE
Formula: C11 H17 N O2 S
CAS: 1907-65-9
State: SOLID (MINERAL OIL MULL)
Melting point: 43-45 C
Class: COBLENTZ
Instrument: Not specified, most likely a prism, grating, or hybrid spectrometer.
Sampling: TRANSMISSION
Resolution: 4
Origin: WYANDOTTE CHEMICALS CORP., WYANDOTTE, MICHIGAN, USA
MICROMETERS	TRANSMITTANCE
2.025	0.513
2.0622	0.516
2.0994	0.53
2.1366	0.534
2.1738	0.537
2.211	0.511
2.2482	0.497
2.2854	0.503
2.3226	0.517
2.3598	0.514
2.397	0.525
2.4342	0.539
2.4714	0.548
2.5086	0.541
2.5458	0.553
2.583	0.579
2.6202	0.57
2.6574	0.596
2.6946	0.618
2.7318	0.601
2.769	0.603
2.8062	0.604
2.8434	0.609
2.8806	0.607
2.9178	0.603
2.955	0.607
2.9922	0.612
3.0294	0.595
3.0666	0.272
3.1038	0.165
3.141	0.294
3.1782	0.33
3.2154	0.365
3.2526	0.358
3.2898	0.299
3.327	0.175
3.3642	0.04
3.4014	0.031
3.4386	0.037
3.4758	0.038
3.513	0.051
3.5502	0.26
3.5874	0.499
3.6246	0.568
3.6618	0.568
3.699	0.576
3.7362	0.596
3.7734	0.612
3.8106	0.635
3.8478	0.643
3.885	0.644
3.9222	0.682
3.9594	0.713
3.9966	0.73
4.0338	0.728
4.071	0.73
4.1082	0.72
4.1454	0.741
4.1826	0.742
4.2198	0.717
4.257	0.716
4.2942	0.73
4.3314	0.768
4.3686	0.8
4.4058	0.795
4.443	0.784
4.4802	0.8
4.5174	0.81
4.5546	0.806
4.5918	0.818
4.629	0.82
4.6662	0.823
4.7034	0.829
4.7406	0.863
4.7778	0.863
4.815	0.865
4.8522	0.871
4.8894	0.877
4.9266	0.879
4.9638	0.899
5.001	0.891
5.0382	0.897
5.0754	0.903
5.1126	0.905
5.1498	0.913
5.187	0.908
5.2242	0.903
5.2614	0.798
5.2986	0.889
5.3358	0.917
5.373	0.925
5.4102	0.925
5.4474	0.931
5.4846	0.945
5.5218	0.95
5.559	0.871
5.5962	0.93
5.6334	0.927
5.6706	0.928
5.7078	0.911
5.745	0.93
5.7822	0.95
5.8194	0.95
5.8566	0.919
5.8938	0.959
5.931	0.941
5.9682	0.931
6.0054	0.906
6.0426	0.832
6.0798	0.897
6.117	0.869
6.1542	0.917
6.1914	0.773
6.2286	0.387
6.2658	0.742
6.303	0.8
6.3402	0.818
6.3774	0.834
6.4146	0.849
6.4518	0.82
6.489	0.843
6.5262	0.795
6.5634	0.807
6.6006	0.765
6.6378	0.548
6.675	0.46
6.7122	0.319
6.7494	0.215
6.7866	0.058
6.8238	0.062
6.861	0.062
6.8982	0.088
6.9354	0.108
6.9726	0.114
7.0098	0.224
7.047	0.334
7.0842	0.426
7.1214	0.438
7.1586	0.463
7.1958	0.395
7.233	0.176
7.2702	0.235
7.3074	0.345
7.3446	0.423
7.3818	0.396
7.419	0.316
7.4562	0.212
7.4934	0.168
7.5306	0.105
7.5678	0.083
7.605	0.127
7.6422	0.156
7.6794	0.24
7.7166	0.269
7.7538	0.217
7.791	0.294
7.8282	0.384
7.8654	0.42
7.9026	0.406
7.9398	0.503
7.977	0.541
8.0142	0.578
8.0514	0.595
8.0886	0.584
8.1258	0.534
8.163	0.545
8.2002	0.6
8.2374	0.613
8.2746	0.621
8.3118	0.626
8.349	0.595
8.3862	0.55
8.4234	0.5
8.4606	0.462
8.4978	0.359
8.535	0.17
8.5722	0.069
8.6094	0.063
8.6466	0.066
8.6838	0.082
8.721	0.136
8.7582	0.231
8.7954	0.293
8.8326	0.252
8.8698	0.234
8.907	0.238
8.9442	0.32
8.9814	0.348
9.0186	0.297
9.0558	0.218
9.093	0.131
9.1302	0.079
9.1674	0.134
9.2046	0.244
9.2418	0.299
9.279	0.288
9.3162	0.159
9.3534	0.089
9.3906	0.142
9.4278	0.248
9.465	0.345
9.5022	0.415
9.5394	0.462
9.5766	0.472
9.6138	0.469
9.651	0.488
9.6882	0.534
9.7254	0.59
9.7626	0.572
9.7998	0.431
9.837	0.567
9.8742	0.652
9.9114	0.71
9.9486	0.731
9.9858	0.744
10.023	0.764
10.0602	0.764
10.0974	0.755
10.1346	0.725
10.1718	0.722
10.209	0.734
10.2462	0.747
10.2834	0.75
10.3206	0.733
10.3578	0.716
10.395	0.748
10.4322	0.734
10.4694	0.73
10.5066	0.694
10.5438	0.635
10.581	0.61
10.6182	0.572
10.6554	0.496
10.6926	0.395
10.7298	0.314
10.767	0.255
10.8042	0.258
10.8414	0.342
10.8786	0.451
10.9158	0.522
10.953	0.579
10.9902	0.638
11.0274	0.7
11.0646	0.764
11.1018	0.809
11.139	0.841
11.1762	0.848
11.2134	0.824
11.2506	0.779
11.2878	0.7
11.325	0.545
11.3622	0.406
11.3994	0.319
11.4366	0.314
11.4738	0.362
11.511	0.429
11.5482	0.488
11.5854	0.525
11.6226	0.568
11.6598	0.609
11.697	0.635
11.7342	0.668
11.7714	0.699
11.8086	0.717
11.8458	0.736
11.883	0.747
11.9202	0.747
11.9574	0.672
11.9946	0.618
12.0318	0.728
12.069	0.758
12.1062	0.733
12.1434	0.714
12.1806	0.699
12.2178	0.669
12.255	0.561
12.2922	0.379
12.3294	0.175
12.3666	0.086
12.4038	0.133
12.441	0.294
12.4782	0.463
12.5154	0.547
12.5526	0.578
12.5898	0.586
12.627	0.643
12.6642	0.696
12.7014	0.728
12.7386	0.741
12.7758	0.741
12.813	0.745
12.8502	0.751
12.8874	0.741
12.9246	0.734
12.9618	0.733
12.999	0.724
13.0362	0.717
13.0734	0.713
13.1106	0.696
13.1478	0.699
13.185	0.686
13.2222	0.672
13.2594	0.666
13.2966	0.651
13.3338	0.64
13.371	0.617
13.4082	0.593
13.4454	0.565
13.4826	0.502
13.5198	0.427
13.557	0.395
13.5942	0.417
13.6314	0.431
13.6686	0.443
13.7058	0.429
13.743	0.421
13.7802	0.413
13.8174	0.4
13.8546	0.379
13.8918	0.365
13.929	0.367
13.9662	0.353
14.0034	0.348
14.0406	0.337
14.0778	0.317
14.115	0.294
14.1522	0.266
14.1894	0.277
14.2266	0.33
14.2638	0.382
14.301	0.393
14.3382	0.375
14.3754	0.351
14.4126	0.325
14.4498	0.299
14.487	0.291
14.5242	0.279
14.5614	0.272
14.5986	0.258
14.6358	0.258
14.673	0.237
14.7102	0.237
14.7474	0.237
14.7846	0.237
14.8218	0.231
14.859	0.226
14.8962	0.226
14.9334	0.226
14.9706	0.227
15.0078	0.244
15.045	0.277
15.0822	0.275
15.1194	0.257
15.1566	0.251
15.1938	0.265
15.231	0.271
15.2682	0.289
15.3054	0.305
15.3426	0.322
15.3798	0.334
15.417	0.355
15.4542	0.39
15.4914	0.403
15.5286	0.435
15.5658	0.46
15.603	0.472
15.6402	0.494
15.6774	0.5
15.7146	0.496
15.7518	0.508
15.789	0.516
15.8262	0.506
15.8634	0.503
15.9006	0.496
15.9378	0.491
15.975	0.5
