Infrared Spectrum: 3-Decene, (E)
Formula: C10 H20
CAS: 19150-21-1
State: LIQUID (NEAT)
Class: COBLENTZ III
Instrument: BECKMAN IR-12 (GRATING)
Instrument parameters: GRATING
Sampling: TRANSMISSION
Path length: 0.01056 CM
Resolution: 2
Origin: COLGATE-PALMOLIVE COMPANY (KELLENBACH)
1/CM	TRANSMITTANCE
402	0.5792
411	0.6115
420	0.6345
429	0.6987
438	0.7453
447	0.759
456	0.7762
465	0.7911
474	0.7967
483	0.7979
492	0.7966
501	0.8157
510	0.8352
519	0.8351
528	0.8338
537	0.8496
546	0.8595
555	0.8655
564	0.8674
573	0.8701
582	0.8794
591	0.8717
600	0.8636
609	0.8768
618	0.8821
627	0.8841
636	0.8836
645	0.8837
654	0.8875
663	0.8802
672	0.8704
681	0.8591
690	0.8376
699	0.7902
708	0.6023
717	0.2936
726	0.2506
735	0.4758
744	0.5948
753	0.5762
762	0.5432
771	0.5358
780	0.5636
789	0.5798
798	0.5908
807	0.6055
816	0.6332
825	0.6616
834	0.6831
843	0.7034
852	0.6888
861	0.6315
870	0.6268
879	0.5639
888	0.5053
897	0.4319
906	0.4526
915	0.5446
924	0.5379
933	0.5026
942	0.3696
951	0.0544
960	0.0061
969	0.0011
978	0.0896
987	0.2783
996	0.4029
1005	0.4654
1014	0.4752
1023	0.553
1032	0.5383
1041	0.525
1050	0.4136
1059	0.3182
1068	0.3201
1077	0.2922
1086	0.4951
1095	0.4795
1104	0.5075
1113	0.5232
1122	0.6777
1131	0.6985
1140	0.6668
1149	0.7101
1158	0.7331
1167	0.7354
1176	0.7077
1185	0.6714
1194	0.7041
1203	0.69
1212	0.6653
1221	0.6772
1230	0.6944
1239	0.6496
1248	0.6269
1257	0.5379
1266	0.5002
1275	0.4926
1284	0.3196
1293	0.2941
1302	0.3194
1311	0.3811
1320	0.4076
1329	0.3232
1338	0.2501
1347	0.2858
1356	0.326
1365	0.2121
1374	0.0351
1383	0.3133
1392	0.4477
1401	0.4549
1410	0.4268
1419	0.2883
1428	0.0803
1437	0.0185
1446	0.0127
1455	0.0114
1464	0.007
1473	0.2494
1482	0.3981
1491	0.5188
1500	0.5782
1509	0.6263
1518	0.6596
1527	0.7005
1536	0.7153
1545	0.7356
1554	0.754
1563	0.7713
1572	0.7749
1581	0.7814
1590	0.788
1599	0.7897
1608	0.7901
1617	0.7941
1626	0.7946
1635	0.7912
1644	0.7894
1653	0.7794
1662	0.7337
1671	0.7273
1680	0.7547
1689	0.7622
1698	0.7584
1707	0.7526
1716	0.7593
1725	0.7659
1734	0.7741
1743	0.7818
1752	0.7648
1761	0.7413
1770	0.7078
1779	0.7119
1788	0.746
1797	0.7748
1806	0.789
1815	0.791
1824	0.7916
1833	0.7981
1842	0.8055
1851	0.8146
1860	0.8202
1869	0.8218
1878	0.8251
1887	0.8383
1896	0.8385
1905	0.8368
1914	0.8332
1923	0.8385
1932	0.8403
1941	0.8394
1950	0.8394
1959	0.8405
1968	0.8397
1977	0.8365
1986	0.8376
1995	0.8387
2004	0.8204
2013	0.8053
2022	0.7923
2031	0.7974
2040	0.8044
2049	0.8128
2058	0.821
2067	0.8218
2076	0.8249
2085	0.8292
2094	0.8322
2103	0.8297
2112	0.828
2121	0.8289
2130	0.825
2139	0.8129
2148	0.8095
2157	0.8096
2166	0.8093
2175	0.8081
2184	0.8053
2193	0.8048
2202	0.8056
2211	0.8066
2220	0.8089
2229	0.8103
2238	0.8069
2247	0.8019
2256	0.8032
2265	0.8059
2274	0.8069
2283	0.8071
2292	0.8072
2301	0.807
2310	0.8039
2319	0.7991
2328	0.7943
2337	0.7892
2346	0.784
2355	0.7799
2364	0.7784
2373	0.7792
2382	0.7797
2391	0.782
2400	0.7861
2409	0.7897
2418	0.7912
2427	0.7916
2436	0.7945
2445	0.8008
2454	0.8063
2463	0.8091
2472	0.8069
2481	0.8036
2490	0.7984
2499	0.7887
2508	0.7784
2517	0.7678
2526	0.7569
2535	0.746
2544	0.7359
2553	0.7306
2562	0.7153
2571	0.7014
2580	0.6887
2589	0.6793
2598	0.6705
2607	0.6618
2616	0.6535
2625	0.6446
2634	0.623
2643	0.5953
2652	0.5661
2661	0.562
2670	0.5748
2679	0.5903
2688	0.5967
2697	0.591
2706	0.553
2715	0.4695
2724	0.4908
2733	0.5234
2742	0.5249
2751	0.5051
2760	0.4644
2769	0.4069
2778	0.3356
2787	0.2725
2796	0.1255
2805	0.0849
2814	0.0198
2823	0.0091
2832	0.0045
2841	0.0026
2850	0.0023
2859	0.0025
2868	0.0032
2877	0.0035
2886	0.0031
2895	0.0027
2904	0.0027
2913	0.0043
2922	0.0051
2931	0.0024
2940	0.0004
2949	0.0008
2958	0.0011
2967	0.0023
2976	0.0146
2985	0.0277
2994	0.0442
3003	0.0402
3012	0.0378
3021	0.1342
3030	0.2581
3039	0.3819
3048	0.4738
3057	0.5199
3066	0.5568
3075	0.5881
3084	0.6075
3093	0.6233
3102	0.6395
3111	0.6556
3120	0.669
3129	0.675
3138	0.6753
3147	0.6715
3156	0.672
3165	0.6809
3174	0.6992
3183	0.717
3192	0.7325
3201	0.7472
3210	0.7627
3219	0.7786
3228	0.7923
3237	0.8004
3246	0.8042
3255	0.8081
3264	0.8155
3273	0.8186
3282	0.8192
3291	0.8228
3300	0.8238
3309	0.8218
3318	0.8209
3327	0.8206
3336	0.82
3345	0.8185
3354	0.8159
3363	0.8137
3372	0.8124
3381	0.8123
3390	0.8141
3399	0.8162
3408	0.8152
3417	0.8141
3426	0.8126
3435	0.8111
3444	0.811
3453	0.8115
3462	0.813
3471	0.8144
3480	0.8164
3489	0.8186
3498	0.823
3507	0.8219
3516	0.8209
3525	0.8255
3534	0.8305
3543	0.8295
3552	0.8364
3561	0.838
3570	0.8365
3579	0.8322
3588	0.8259
3597	0.8187
3606	0.8139
3615	0.812
3624	0.811
3633	0.8088
3642	0.8078
3651	0.8089
3660	0.8113
3669	0.8099
3678	0.8077
3687	0.8058
3696	0.8045
3705	0.8041
3714	0.8039
3723	0.8043
3732	0.8032
3741	0.8015
3750	0.7998
3759	0.7982
3768	0.7969
3777	0.7966
3786	0.7977
3795	0.7981
3804	0.7976
3813	0.7967
3822	0.7957
3831	0.7946
3840	0.7934
3849	0.7921
3858	0.7909
3867	0.7902
3876	0.79
3885	0.7912
3894	0.7897
3903	0.7818
3912	0.7761
3921	0.7717
3930	0.7692
3939	0.7654
3948	0.7568
3957	0.7506
3966	0.7504
3975	0.7501
3984	0.7498
3993	0.7495
