Infrared Spectrum: 2H-PYRAN-2-CARBOXALDEHYDE, 3,4-DIHYDRO-2,5-DIMETHYLMETHACROLEIN DIMER
Formula: C8 H12 O2
CAS: 1920-21-4
Boiling point: 166 C AT 750 mmHg
Class: COBLENTZ
Instrument: Not specified, most likely a prism, grating, or hybrid spectrometer.
Sampling: TRANSMISSION
Resolution: 4
Origin: TENNESSEE EASTMAN COMPANY, RESEARCH LABORATORIES
MICROMETERS	TRANSMITTANCE
2	0.891
2.03976	0.891
2.07951	0.89
2.11927	0.891
2.15903	0.886
2.19878	0.868
2.23854	0.856
2.2783	0.833
2.31805	0.826
2.35781	0.828
2.39756	0.84
2.43732	0.843
2.47708	0.85
2.51683	0.858
2.55659	0.86
2.59635	0.865
2.6361	0.863
2.67586	0.868
2.71562	0.853
2.75537	0.846
2.79513	0.823
2.83489	0.801
2.87464	0.787
2.9144	0.742
2.95416	0.826
2.99391	0.841
3.03367	0.846
3.07342	0.851
3.11318	0.85
3.15294	0.841
3.19269	0.825
3.23245	0.775
3.27221	0.575
3.31196	0.638
3.35172	0.129
3.39148	0.108
3.43123	0.124
3.47099	0.181
3.51075	0.221
3.5505	0.207
3.59026	0.396
3.63001	0.6
3.66977	0.584
3.70953	0.559
3.74928	0.59
3.78904	0.75
3.8288	0.815
3.86855	0.835
3.90831	0.84
3.94807	0.85
3.98782	0.86
4.02758	0.86
4.06734	0.856
4.10709	0.856
4.14685	0.858
4.18661	0.86
4.22636	0.87
4.26612	0.858
4.30587	0.84
4.34563	0.813
4.38539	0.823
4.42514	0.831
4.4649	0.838
4.50466	0.853
4.54441	0.855
4.58417	0.856
4.62393	0.86
4.66368	0.861
4.70344	0.863
4.7432	0.863
4.78295	0.86
4.82271	0.858
4.86247	0.85
4.90222	0.83
4.94198	0.83
4.98173	0.846
5.02149	0.85
5.06125	0.85
5.101	0.856
5.14076	0.858
5.18052	0.855
5.22027	0.843
5.26003	0.843
5.29979	0.825
5.33954	0.823
5.3793	0.8
5.41906	0.788
5.45881	0.778
5.49857	0.755
5.53832	0.73
5.57808	0.692
5.61784	0.645
5.65759	0.49
5.69735	0.148
5.73711	0.028
5.77686	0.081
5.81662	0.267
5.85638	0.374
5.89613	0.327
5.93589	0.241
5.97565	0.059
6.0154	0.356
6.05516	0.58
6.09492	0.657
6.13467	0.707
6.17443	0.743
6.21418	0.78
6.25394	0.805
6.2937	0.82
6.33345	0.83
6.37321	0.821
6.41297	0.811
6.45272	0.835
6.49248	0.8
6.53224	0.811
6.57199	0.8
6.61175	0.785
6.65151	0.773
6.69126	0.732
6.73102	0.687
6.77078	0.52
6.81053	0.299
6.85029	0.151
6.89004	0.103
6.9298	0.173
6.96956	0.342
7.00931	0.552
7.04907	0.63
7.08883	0.65
7.12858	0.635
7.16834	0.515
7.2081	0.284
7.24785	0.171
7.28761	0.247
7.32737	0.364
7.36712	0.555
7.40688	0.65
7.44664	0.668
7.48639	0.628
7.52615	0.56
7.5659	0.633
7.60566	0.705
7.64542	0.72
7.68517	0.733
7.72493	0.733
7.76469	0.715
7.80444	0.665
7.8442	0.54
7.88396	0.396
7.92371	0.346
7.96347	0.414
8.00323	0.55
8.04298	0.535
8.08274	0.544
8.12249	0.615
8.16225	0.61
8.20201	0.567
8.24176	0.489
8.28152	0.247
8.32128	0.144
8.36103	0.163
8.40079	0.202
8.44055	0.209
8.4803	0.164
8.52006	0.076
8.55982	0.028
8.59957	0.024
8.63933	0.023
8.67909	0.023
8.71884	0.033
8.7586	0.033
8.79835	0.024
8.83811	0.026
8.87787	0.119
8.91762	0.219
8.95738	0.212
8.99714	0.108
9.03689	0.131
9.07665	0.276
9.11641	0.397
9.15616	0.472
9.19592	0.51
9.23568	0.537
9.27543	0.555
9.31519	0.564
9.35495	0.579
9.3947	0.6
9.43446	0.613
9.47421	0.618
9.51397	0.615
9.55373	0.594
9.59348	0.559
9.63324	0.524
9.673	0.475
9.71275	0.379
9.75251	0.404
9.79227	0.454
9.83202	0.482
9.87178	0.362
9.91154	0.217
9.95129	0.209
9.99105	0.217
10.0308	0.242
10.0706	0.405
10.1103	0.515
10.1501	0.567
10.1898	0.584
10.2296	0.602
10.2693	0.615
10.3091	0.617
10.3489	0.62
10.3886	0.63
10.4284	0.63
10.4681	0.605
10.5079	0.557
10.5476	0.497
10.5874	0.445
10.6272	0.444
10.6669	0.525
10.7067	0.557
10.7464	0.557
10.7862	0.532
10.8259	0.485
10.8657	0.44
10.9054	0.381
10.9452	0.381
10.985	0.45
11.0247	0.52
11.0645	0.545
11.1042	0.55
11.144	0.55
11.1837	0.507
11.2235	0.412
11.2633	0.276
11.303	0.202
11.3428	0.193
11.3825	0.254
11.4223	0.331
11.462	0.415
11.5018	0.495
11.5416	0.525
11.5813	0.52
11.6211	0.479
11.6608	0.43
11.7006	0.374
11.7403	0.324
11.7801	0.287
11.8198	0.277
11.8596	0.302
11.8994	0.404
11.9391	0.524
11.9789	0.617
12.0186	0.683
12.0584	0.712
12.0981	0.74
12.1379	0.753
12.1777	0.76
12.2174	0.767
12.2572	0.773
12.2969	0.777
12.3367	0.782
12.3764	0.783
12.4162	0.787
12.4559	0.785
12.4957	0.777
12.5355	0.752
12.5752	0.692
12.615	0.607
12.6547	0.495
12.6945	0.399
12.7342	0.397
12.774	0.532
12.8138	0.637
12.8535	0.685
12.8933	0.703
12.933	0.705
12.9728	0.673
13.0125	0.617
13.0523	0.56
13.0921	0.557
13.1318	0.557
13.1716	0.547
13.2113	0.465
13.2511	0.351
13.2908	0.311
13.3306	0.354
13.3703	0.452
13.4101	0.529
13.4499	0.57
13.4896	0.587
13.5294	0.615
13.5691	0.645
13.6089	0.672
13.6486	0.695
13.6884	0.713
13.7282	0.728
13.7679	0.742
13.8077	0.748
13.8474	0.752
13.8872	0.757
13.9269	0.757
13.9667	0.757
14.0065	0.757
14.0462	0.748
14.086	0.735
14.1257	0.718
14.1655	0.707
14.2052	0.688
14.245	0.665
14.2847	0.637
14.3245	0.612
14.3643	0.569
14.404	0.515
14.4438	0.469
14.4835	0.404
14.5233	0.349
14.563	0.302
14.6028	0.289
14.6426	0.301
14.6823	0.364
14.7221	0.427
14.7618	0.49
14.8016	0.545
14.8413	0.579
14.8811	0.594
14.9208	0.6
14.9606	0.6
15.0004	0.62
15.0401	0.653
15.0799	0.657
15.1196	0.657
15.1594	0.655
15.1991	0.653
15.2389	0.653
15.2787	0.653
15.3184	0.65
15.3582	0.648
15.3979	0.648
15.4377	0.645
15.4774	0.642
15.5172	0.633
15.557	0.633
15.5967	0.628
15.6365	0.623
15.6762	0.618
15.716	0.612
15.7557	0.608
15.7955	0.607
15.8352	0.603
15.875	0.595
15.9148	0.589
15.9545	0.582
15.9943	0.58
