Infrared Spectrum: DIBORANE
Formula: B2 H6
CAS: 19287-45-7
State: SOLUTION (2.54 mg/ml IN 2,3-DIMETHYLBUTANE);
Class: COBLENTZ
Instrument: Not specified, most likely a prism, grating, or hybrid spectrometer.
Sampling: TRANSMISSION
Path length: 0.0206 CM CELL, COMPENSATED
Resolution: 4
Origin: KALLERY CHEMICAL COMPANY
MICROMETERS	TRANSMITTANCE
2	0.877
2.03443	0.884
2.06886	0.889
2.10328	0.889
2.13771	0.889
2.17214	0.887
2.20657	0.886
2.241	0.887
2.27543	0.886
2.30985	0.884
2.34428	0.886
2.37871	0.886
2.41314	0.889
2.44757	0.889
2.482	0.892
2.51642	0.887
2.55085	0.882
2.58528	0.88
2.61971	0.879
2.65414	0.875
2.68857	0.865
2.72299	0.862
2.75742	0.869
2.79185	0.88
2.82628	0.882
2.86071	0.882
2.89514	0.884
2.92956	0.884
2.96399	0.886
2.99842	0.884
3.03285	0.884
3.06728	0.884
3.1017	0.884
3.13613	0.886
3.17056	0.886
3.20499	0.887
3.23942	0.886
3.27385	0.884
3.30827	0.882
3.3427	0.88
3.37713	0.879
3.41156	0.879
3.44599	0.879
3.48042	0.88
3.51484	0.88
3.54927	0.879
3.5837	0.875
3.61813	0.872
3.65256	0.869
3.68699	0.853
3.72141	0.814
3.75584	0.748
3.79027	0.617
3.8247	0.617
3.85913	0.727
3.89356	0.741
3.92798	0.634
3.96241	0.588
3.99684	0.698
4.03127	0.824
4.0657	0.853
4.10013	0.87
4.13455	0.875
4.16898	0.877
4.20341	0.874
4.23784	0.872
4.27227	0.87
4.30669	0.87
4.34112	0.872
4.37555	0.875
4.40998	0.879
4.44441	0.88
4.47884	0.882
4.51326	0.886
4.54769	0.884
4.58212	0.882
4.61655	0.882
4.65098	0.882
4.68541	0.88
4.71983	0.88
4.75426	0.88
4.78869	0.879
4.82312	0.88
4.85755	0.882
4.89198	0.88
4.9264	0.88
4.96083	0.88
4.99526	0.88
5.02969	0.882
5.06412	0.88
5.09855	0.88
5.13297	0.88
5.1674	0.879
5.20183	0.875
5.23626	0.872
5.27069	0.867
5.30511	0.858
5.33954	0.846
5.37397	0.84
5.4084	0.841
5.44283	0.85
5.47726	0.857
5.51168	0.86
5.54611	0.87
5.58054	0.874
5.61497	0.874
5.6494	0.875
5.68383	0.874
5.71825	0.874
5.75268	0.872
5.78711	0.872
5.82154	0.87
5.85597	0.87
5.8904	0.867
5.92482	0.863
5.95925	0.855
5.99368	0.845
6.02811	0.835
6.06254	0.811
6.09697	0.722
6.13139	0.644
6.16582	0.579
6.20025	0.523
6.23468	0.222
6.26911	0.147
6.30353	0.209
6.33796	0.314
6.37239	0.45
6.40682	0.522
6.44125	0.62
6.47568	0.668
6.5101	0.707
6.54453	0.756
6.57896	0.763
6.61339	0.772
6.64782	0.775
6.68225	0.778
6.71667	0.78
6.7511	0.78
6.78553	0.78
6.81996	0.78
6.85439	0.78
6.88882	0.778
6.92324	0.777
6.95767	0.777
6.9921	0.775
7.02653	0.775
7.06096	0.775
7.09539	0.777
7.12981	0.782
7.16424	0.789
7.19867	0.792
7.2331	0.792
7.26753	0.792
7.30196	0.794
7.33638	0.794
7.37081	0.794
7.40524	0.795
7.43967	0.802
7.4741	0.809
7.50852	0.823
7.54295	0.829
7.57738	0.838
7.61181	0.84
7.64624	0.843
7.68067	0.843
7.71509	0.843
7.74952	0.845
7.78395	0.845
7.81838	0.845
7.85281	0.846
7.88724	0.846
7.92166	0.848
7.95609	0.85
7.99052	0.855
8.02495	0.855
8.05938	0.855
8.09381	0.855
8.12823	0.857
8.16266	0.857
8.19709	0.853
8.23152	0.85
8.26595	0.848
8.30038	0.84
8.3348	0.829
8.36923	0.819
8.40366	0.806
8.43809	0.787
8.47252	0.751
8.50694	0.709
8.54137	0.649
8.5758	0.593
8.61023	0.569
8.64466	0.583
8.67909	0.595
8.71351	0.603
8.74794	0.636
8.78237	0.688
8.8168	0.714
8.85123	0.719
8.88566	0.719
8.92008	0.719
8.95451	0.722
8.98894	0.758
9.02337	0.814
9.0578	0.831
9.09223	0.836
9.12665	0.845
9.16108	0.848
9.19551	0.85
9.22994	0.853
9.26437	0.857
9.2988	0.858
9.33322	0.86
9.36765	0.862
9.40208	0.863
9.43651	0.865
9.47094	0.867
9.50536	0.865
9.53979	0.865
9.57422	0.865
9.60865	0.865
9.64308	0.865
9.67751	0.865
9.71193	0.865
9.74636	0.865
9.78079	0.865
9.81522	0.865
9.84965	0.865
9.88408	0.865
9.9185	0.863
9.95293	0.863
9.98736	0.863
10.0218	0.862
10.0562	0.862
10.0906	0.86
10.1251	0.857
10.1595	0.853
10.1939	0.845
10.2284	0.831
10.2628	0.814
10.2972	0.802
10.3316	0.792
10.3661	0.787
10.4005	0.789
10.4349	0.795
10.4694	0.809
10.5038	0.819
10.5382	0.829
10.5726	0.838
10.6071	0.841
10.6415	0.852
10.6759	0.853
10.7104	0.855
10.7448	0.858
10.7792	0.86
10.8136	0.86
10.8481	0.862
10.8825	0.86
10.9169	0.862
10.9514	0.862
10.9858	0.862
11.0202	0.863
11.0546	0.865
11.0891	0.867
11.1235	0.867
11.1579	0.869
11.1924	0.872
11.2268	0.875
11.2612	0.877
11.2956	0.879
11.3301	0.879
11.3645	0.879
11.3989	0.88
11.4333	0.88
11.4678	0.88
11.5022	0.88
11.5366	0.882
11.5711	0.882
11.6055	0.88
11.6399	0.882
11.6743	0.88
11.7088	0.88
11.7432	0.88
11.7776	0.882
11.8121	0.88
11.8465	0.882
11.8809	0.886
11.9153	0.887
11.9498	0.886
11.9842	0.889
12.0186	0.889
12.0531	0.892
12.0875	0.892
12.1219	0.894
12.1563	0.896
12.1908	0.896
12.2252	0.897
12.2596	0.897
12.2941	0.897
12.3285	0.897
12.3629	0.897
12.3973	0.897
12.4318	0.897
12.4662	0.897
12.5006	0.897
12.5351	0.897
12.5695	0.897
12.6039	0.897
12.6383	0.899
12.6728	0.899
12.7072	0.899
12.7416	0.899
12.7761	0.901
12.8105	0.901
12.8449	0.899
12.8793	0.901
12.9138	0.903
12.9482	0.901
12.9826	0.901
13.017	0.901
13.0515	0.901
13.0859	0.901
13.1203	0.901
13.1548	0.901
13.1892	0.903
13.2236	0.903
13.258	0.903
13.2925	0.903
13.3269	0.903
13.3613	0.904
13.3958	0.903
13.4302	0.904
13.4646	0.903
13.499	0.903
13.5335	0.903
13.5679	0.903
13.6023	0.903
13.6368	0.904
13.6712	0.903
13.7056	0.903
13.74	0.903
13.7745	0.903
13.8089	0.903
13.8433	0.903
13.8778	0.903
13.9122	0.903
13.9466	0.903
13.981	0.903
14.0155	0.903
14.0499	0.904
14.0843	0.903
14.1188	0.901
14.1532	0.903
14.1876	0.903
14.222	0.903
14.2565	0.904
14.2909	0.904
14.3253	0.908
14.3598	0.908
14.3942	0.908
14.4286	0.909
14.463	0.909
14.4975	0.909
14.5319	0.909
14.5663	0.908
14.6008	0.908
14.6352	0.909
14.6696	0.909
14.704	0.909
14.7385	0.909
14.7729	0.908
14.8073	0.909
14.8417	0.909
14.8762	0.909
14.9106	0.911
14.945	0.911
14.9795	0.909
15.0139	0.909
15.0483	0.909
15.0827	0.908
15.1172	0.909
15.1516	0.909
15.186	0.909
15.2205	0.911
15.2549	0.909
15.2893	0.909
15.3237	0.909
15.3582	0.908
15.3926	0.909
15.427	0.909
15.4615	0.909
