Infrared Spectrum: (2,4-DICHLOROPHENOXY) ACETIC ACID, METHYL ESTER
Formula: C9 H8 Cl2 O3
CAS: 1928-38-7
State: SOLUTION (10% CCl4 FOR 2.5-7.5, 10% CS2 FOR 7.5-15 MICRON)
Class: COBLENTZ
Instrument: Not specified, most likely a prism, grating, or hybrid spectrometer.
Sampling: TRANSMISSION
Path length: 0.01 CM, 0.01 CM
Resolution: 4
Origin: DOW CHEMICAL COMPANY
MICROMETERS	TRANSMITTANCE
2.02	0.927
2.06017	0.925
2.10033	0.925
2.1405	0.92
2.18066	0.918
2.22083	0.91
2.26099	0.91
2.30116	0.91
2.34132	0.91
2.38149	0.908
2.42166	0.908
2.46182	0.907
2.50199	0.903
2.54215	0.902
2.58232	0.903
2.62248	0.905
2.66265	0.908
2.70281	0.905
2.74298	0.905
2.78314	0.903
2.82331	0.894
2.86348	0.89
2.90364	0.892
2.94381	0.894
2.98397	0.89
3.02414	0.887
3.0643	0.882
3.10447	0.875
3.14463	0.87
3.1848	0.855
3.22497	0.839
3.26513	0.819
3.3053	0.783
3.34546	0.735
3.38563	0.675
3.42579	0.789
3.46596	0.814
3.50612	0.827
3.54629	0.864
3.58646	0.867
3.62662	0.869
3.66679	0.872
3.70695	0.874
3.74712	0.879
3.78728	0.88
3.82745	0.879
3.86761	0.875
3.90778	0.874
3.94794	0.874
3.98811	0.879
4.02828	0.879
4.06844	0.879
4.10861	0.88
4.14877	0.879
4.18894	0.879
4.2291	0.877
4.26927	0.877
4.30943	0.879
4.3496	0.882
4.38977	0.884
4.42993	0.89
4.4701	0.89
4.51026	0.89
4.55043	0.89
4.59059	0.89
4.63076	0.889
4.67092	0.884
4.71109	0.88
4.75126	0.879
4.79142	0.88
4.83159	0.882
4.87175	0.882
4.91192	0.884
4.95208	0.885
4.99225	0.887
5.03241	0.887
5.07258	0.885
5.11274	0.884
5.15291	0.884
5.19308	0.884
5.23324	0.884
5.27341	0.879
5.31357	0.874
5.35374	0.857
5.3939	0.849
5.43407	0.842
5.47423	0.827
5.5144	0.756
5.55457	0.652
5.59473	0.283
5.6349	0.076
5.67506	0.096
5.71523	0.1
5.75539	0.403
5.79556	0.649
5.83572	0.73
5.87589	0.773
5.91606	0.821
5.95622	0.849
5.99639	0.86
6.03655	0.87
6.07672	0.872
6.11688	0.869
6.15705	0.852
6.19721	0.822
6.23738	0.683
6.27754	0.625
6.31771	0.65
6.35788	0.71
6.39804	0.736
6.43821	0.751
6.47837	0.761
6.51854	0.764
6.5587	0.743
6.59887	0.649
6.63903	0.337
6.6792	0.142
6.71937	0.024
6.75953	0.147
6.7997	0.377
6.83986	0.422
6.88003	0.324
6.92019	0.235
6.96036	0.442
7.00052	0.624
7.04069	0.726
7.08086	0.741
7.12102	0.604
7.16119	0.461
7.20135	0.579
7.24152	0.586
7.28168	0.657
7.32185	0.701
7.36201	0.741
7.40218	0.766
7.44234	0.743
7.48251	0.668
7.52268	0.554
7.56284	0.365
7.60301	0.18
7.64317	0.137
7.68334	0.17
7.7235	0.203
7.76367	0.211
7.80383	0.223
7.844	0.195
7.88417	0.201
7.92433	0.231
7.9645	0.248
8.00466	0.258
8.04483	0.253
8.08499	0.183
8.12516	0.155
8.16532	0.105
8.20549	0.051
8.24566	0.021
8.28582	0.019
8.32599	0.071
8.36615	0.127
8.40632	0.13
8.44648	0.153
8.48665	0.326
8.52681	0.501
8.56698	0.589
8.60714	0.624
8.64731	0.645
8.68748	0.68
8.72764	0.682
8.76781	0.66
8.80797	0.637
8.84814	0.584
8.8883	0.483
8.92847	0.389
8.96863	0.316
9.0088	0.153
9.04897	0.167
9.08913	0.193
9.1293	0.104
9.16946	0.094
9.20963	0.127
9.24979	0.153
9.28996	0.192
9.33012	0.385
9.37029	0.514
9.41046	0.582
9.45062	0.566
9.49079	0.546
9.53095	0.574
9.57112	0.61
9.61128	0.634
9.65145	0.637
9.69161	0.627
9.73178	0.619
9.77194	0.62
9.81211	0.629
9.85228	0.63
9.89244	0.614
9.93261	0.614
9.97277	0.652
10.0129	0.698
10.0531	0.713
10.0933	0.698
10.1334	0.66
10.1736	0.62
10.2138	0.649
10.2539	0.718
10.2941	0.768
10.3343	0.811
10.3744	0.834
10.4146	0.852
10.4548	0.857
10.4949	0.859
10.5351	0.86
10.5753	0.86
10.6154	0.86
10.6556	0.86
10.6958	0.86
10.7359	0.859
10.7761	0.857
10.8162	0.855
10.8564	0.852
10.8966	0.85
10.9367	0.849
10.9769	0.852
11.0171	0.855
11.0572	0.857
11.0974	0.855
11.1376	0.852
11.1777	0.836
11.2179	0.802
11.2581	0.794
11.2982	0.793
11.3384	0.779
11.3786	0.718
11.4187	0.597
11.4589	0.334
11.4991	0.324
11.5392	0.5
11.5794	0.582
11.6196	0.687
11.6597	0.706
11.6999	0.673
11.7401	0.642
11.7802	0.65
11.8204	0.65
11.8606	0.529
11.9007	0.481
11.9409	0.536
11.981	0.615
12.0212	0.658
12.0614	0.66
12.1015	0.655
12.1417	0.657
12.1819	0.682
12.222	0.71
12.2622	0.72
12.3024	0.695
12.3425	0.647
12.3827	0.516
12.4229	0.359
12.463	0.241
12.5032	0.223
12.5434	0.377
12.5835	0.597
12.6237	0.713
12.6639	0.773
12.704	0.801
12.7442	0.809
12.7844	0.811
12.8245	0.811
12.8647	0.802
12.9049	0.786
12.945	0.748
12.9852	0.705
13.0254	0.667
13.0655	0.647
13.1057	0.644
13.1458	0.653
13.186	0.703
13.2262	0.743
13.2663	0.783
13.3065	0.799
13.3467	0.816
13.3868	0.827
13.427	0.831
13.4672	0.831
13.5073	0.829
13.5475	0.817
13.5877	0.794
13.6278	0.743
13.668	0.688
13.7082	0.639
13.7483	0.569
13.7885	0.519
13.8287	0.471
13.8688	0.45
13.909	0.451
13.9492	0.476
13.9893	0.513
14.0295	0.557
14.0697	0.607
14.1098	0.645
14.15	0.682
14.1902	0.711
14.2303	0.74
14.2705	0.761
14.3106	0.779
14.3508	0.798
14.391	0.816
14.4311	0.837
14.4713	0.865
14.5115	0.892
14.5516	0.917
14.5918	0.938
14.632	0.958
14.6721	0.975
14.7123	0.988
14.7525	0.998
14.7926	1.008
14.8328	1.009
14.873	1.009
14.9131	1.011
14.9533	1.011
14.9935	1.008
15.0336	1.008
15.0738	1.008
15.114	1.008
15.1541	1.008
15.1943	1.008
15.2345	1.008
15.2746	1.001
15.3148	0.995
15.355	0.97
15.3951	0.943
15.4353	0.912
15.4754	0.885
15.5156	0.874
15.5558	0.87
15.5959	0.869
15.6361	0.867
15.6763	0.869
15.7164	0.869
15.7566	0.869
15.7968	0.869
15.8369	0.869
15.8771	0.869
15.9173	0.869
15.9574	0.857
15.9976	0.857
