Infrared Spectrum: 4-Decene, (Z)
Formula: C10 H20
CAS: 19398-88-0
State: LIQUID (NEAT)
Class: COBLENTZ III
Instrument: BECKMAN IR-12 (GRATING)
Instrument parameters: GRATING
Sampling: TRANSMISSION
Path length: 0.01056 CM
Resolution: 2
Origin: COLGATE-PALMOLIVE COMPANY (KELLENBACH)
1/CM	TRANSMITTANCE
406	0.7799
415	0.8061
424	0.8425
433	0.8726
442	0.9005
451	0.9279
460	0.9446
469	0.9537
478	0.96
487	0.9565
496	0.9418
505	0.9223
514	0.9054
523	0.896
532	0.8898
541	0.9005
550	0.9126
559	0.9013
568	0.8523
577	0.7229
586	0.5937
595	0.622
604	0.6894
613	0.7408
622	0.7692
631	0.7708
640	0.7379
649	0.6504
658	0.5487
667	0.4471
676	0.2958
685	0.1677
694	0.1005
703	0.0583
712	0.0375
721	0.0332
730	0.0415
739	0.1213
748	0.2199
757	0.3339
766	0.3638
775	0.3208
784	0.5068
793	0.6906
802	0.7805
811	0.8177
820	0.8225
829	0.739
838	0.6211
847	0.5066
856	0.2972
865	0.3945
874	0.2185
883	0.427
892	0.4017
901	0.5948
910	0.6683
919	0.7046
928	0.7443
937	0.7006
946	0.6861
955	0.6411
964	0.5549
973	0.5333
982	0.5846
991	0.6738
1000	0.597
1009	0.5485
1018	0.5761
1027	0.6435
1036	0.6556
1045	0.4329
1054	0.5313
1063	0.5383
1072	0.3448
1081	0.4561
1090	0.5124
1099	0.5661
1108	0.4666
1117	0.6305
1126	0.5925
1135	0.6604
1144	0.7258
1153	0.7579
1162	0.8086
1171	0.821
1180	0.7973
1189	0.743
1198	0.723
1207	0.7422
1216	0.6241
1225	0.6296
1234	0.6353
1243	0.6892
1252	0.585
1261	0.5212
1270	0.3846
1279	0.5245
1288	0.5678
1297	0.5807
1306	0.542
1315	0.4395
1324	0.4973
1333	0.415
1342	0.3338
1351	0.4525
1360	0.4981
1369	0.3332
1378	0.0213
1387	0.2439
1396	0.4149
1405	0.2107
1414	0.3958
1423	0.3185
1432	0.0879
1441	0.0395
1450	0.0102
1459	0.0063
1468	0.0037
1477	0.1783
1486	0.3828
1495	0.5018
1504	0.6037
1513	0.6469
1522	0.7144
1531	0.7473
1540	0.7694
1549	0.7918
1558	0.8054
1567	0.818
1576	0.8301
1585	0.8415
1594	0.8441
1603	0.8417
1612	0.8339
1621	0.8153
1630	0.788
1639	0.7174
1648	0.5981
1657	0.4915
1666	0.6634
1675	0.693
1684	0.6923
1693	0.7113
1702	0.7477
1711	0.788
1720	0.823
1729	0.8485
1738	0.8577
1747	0.8672
1756	0.8856
1765	0.899
1774	0.9043
1783	0.9083
1792	0.9122
1801	0.9021
1810	0.8841
1819	0.8722
1828	0.8654
1837	0.8639
1846	0.8785
1855	0.904
1864	0.9163
1873	0.919
1882	0.9213
1891	0.9228
1900	0.9219
1909	0.9189
1918	0.9152
1927	0.9117
1936	0.9082
1945	0.9074
1954	0.9095
1963	0.9125
1972	0.9159
1981	0.9198
1990	0.9247
1999	0.9184
2008	0.9089
2017	0.9002
2026	0.8901
2035	0.8793
2044	0.8727
2053	0.8849
2062	0.8885
2071	0.8965
2080	0.9038
2089	0.9103
2098	0.916
2107	0.9129
2116	0.9128
2125	0.9162
2134	0.9123
2143	0.9041
2152	0.9013
2161	0.8981
2170	0.8896
2179	0.8864
2188	0.8886
2197	0.8947
2206	0.8947
2215	0.8936
2224	0.8919
2233	0.8894
2242	0.8901
2251	0.8934
2260	0.8935
2269	0.8904
2278	0.8887
2287	0.887
2296	0.8754
2305	0.8703
2314	0.8698
2323	0.8681
2332	0.8656
2341	0.8646
2350	0.8648
2359	0.8636
2368	0.8619
2377	0.8644
2386	0.865
2395	0.8647
2404	0.8622
2413	0.8609
2422	0.8631
2431	0.8692
2440	0.8765
2449	0.8833
2458	0.8898
2467	0.8909
2476	0.8855
2485	0.8789
2494	0.8697
2503	0.8587
2512	0.8485
2521	0.8371
2530	0.8236
2539	0.8121
2548	0.8045
2557	0.7969
2566	0.7894
2575	0.7784
2584	0.7684
2593	0.7573
2602	0.7618
2611	0.7624
2620	0.7316
2629	0.7111
2638	0.7081
2647	0.6622
2656	0.6003
2665	0.5973
2674	0.642
2683	0.6725
2692	0.676
2701	0.6455
2710	0.6148
2719	0.5696
2728	0.495
2737	0.5551
2746	0.5919
2755	0.5904
2764	0.5392
2773	0.4804
2782	0.4007
2791	0.321
2800	0.245
2809	0.1853
2818	0.1113
2827	0.0411
2836	0.0128
2845	0.0094
2854	0.0091
2863	0.0089
2872	0.0081
2881	0.0074
2890	0.007
2899	0.0028
2908	0.0022
2917	0.0019
2926	0.0016
2935	0.0013
2944	0.0011
2953	0.0008
2962	0.0006
2971	0.0003
2980	0.0056
2989	0.0106
2998	0.005
3007	0.0017
3016	0.0798
3025	0.1921
3034	0.3045
3043	0.4169
3052	0.4869
3061	0.4818
3070	0.4875
3079	0.6395
3088	0.658
3097	0.6987
3106	0.7218
3115	0.7406
3124	0.7528
3133	0.76
3142	0.7641
3151	0.7668
3160	0.768
3169	0.769
3178	0.77
3187	0.7721
3196	0.7871
3205	0.8058
3214	0.8313
3223	0.8493
3232	0.8654
3241	0.8776
3250	0.8876
3259	0.8963
3268	0.8973
3277	0.8941
3286	0.885
3295	0.8814
3304	0.8882
3313	0.9012
3322	0.9075
3331	0.9074
3340	0.9066
3349	0.907
3358	0.9079
3367	0.9087
3376	0.9099
3385	0.9115
3394	0.9134
3403	0.9152
3412	0.9167
3421	0.918
3430	0.9195
3439	0.9206
3448	0.9217
3457	0.9227
3466	0.9235
3475	0.9243
3484	0.9249
3493	0.9252
3502	0.9255
3511	0.9259
3520	0.9286
3529	0.9285
3538	0.9281
3547	0.9283
3556	0.9285
3565	0.9272
3574	0.9217
3583	0.9176
3592	0.9137
3601	0.9088
3610	0.9034
3619	0.8981
3628	0.8954
3637	0.8952
3646	0.8959
3655	0.8967
3664	0.8962
3673	0.8941
3682	0.8947
3691	0.8939
3700	0.8925
3709	0.8951
3718	0.8985
3727	0.8965
3736	0.8923
3745	0.8866
3754	0.8829
3763	0.882
3772	0.8833
3781	0.8862
3790	0.8897
3799	0.8856
3808	0.8799
3817	0.8804
3826	0.884
3835	0.8862
3844	0.8815
3853	0.8851
3862	0.8873
3871	0.885
3880	0.8849
3889	0.8853
3898	0.8835
3907	0.8781
3916	0.8718
3925	0.8646
3934	0.8547
3943	0.8418
3952	0.8273
3961	0.8227
3970	0.8286
3979	0.8312
3988	0.8267
3997	0.8198
