Infrared Spectrum: 3-Decene, (Z)
Formula: C10 H20
CAS: 19398-86-8
State: LIQUID (NEAT)
Class: COBLENTZ III
Instrument: BECKMAN IR-12 (GRATING)
Instrument parameters: GRATING
Sampling: TRANSMISSION
Path length: 0.01056 CM
Resolution: 2
Origin: COLGATE-PALMOLIVE COMPANY (KELLENBACH)
1/CM	TRANSMITTANCE
403	0.7647
412	0.8032
421	0.8494
430	0.8955
439	0.9388
448	0.9546
457	0.9496
466	0.9462
475	0.9555
484	0.9494
493	0.9435
502	0.9364
511	0.9122
520	0.8975
529	0.8922
538	0.9063
547	0.9099
556	0.8956
565	0.8422
574	0.7415
583	0.6454
592	0.6345
601	0.6806
610	0.7254
619	0.7416
628	0.7302
637	0.7019
646	0.6357
655	0.5547
664	0.415
673	0.2571
682	0.1949
691	0.1432
700	0.0776
709	0.0369
718	0.0277
727	0.0251
736	0.0773
745	0.2328
754	0.335
763	0.424
772	0.5353
781	0.5059
790	0.364
799	0.5023
808	0.6001
817	0.6121
826	0.7292
835	0.7641
844	0.6835
853	0.5765
862	0.4332
871	0.5228
880	0.5456
889	0.4927
898	0.6379
907	0.7259
916	0.691
925	0.64
934	0.7255
943	0.7098
952	0.5828
961	0.4303
970	0.4596
979	0.6248
988	0.6262
997	0.6324
1006	0.6449
1015	0.5458
1024	0.4856
1033	0.6162
1042	0.6463
1051	0.5639
1060	0.4214
1069	0.1502
1078	0.3733
1087	0.5808
1096	0.6556
1105	0.5707
1114	0.6253
1123	0.7425
1132	0.7416
1141	0.7203
1150	0.7856
1159	0.8339
1168	0.8205
1177	0.7805
1186	0.7534
1195	0.7763
1204	0.7432
1213	0.7416
1222	0.7263
1231	0.744
1240	0.6789
1249	0.6332
1258	0.5662
1267	0.501
1276	0.5663
1285	0.4437
1294	0.2567
1303	0.2833
1312	0.5156
1321	0.5633
1330	0.5664
1339	0.4497
1348	0.4345
1357	0.4395
1366	0.1852
1375	0.0634
1384	0.3937
1393	0.3568
1402	0.236
1411	0.3997
1420	0.3094
1429	0.0864
1438	0.0367
1447	0.0153
1456	0.0093
1465	0.0113
1474	0.1921
1483	0.3765
1492	0.517
1501	0.6121
1510	0.6556
1519	0.7084
1528	0.7547
1537	0.7732
1546	0.8023
1555	0.8148
1564	0.8243
1573	0.8306
1582	0.8385
1591	0.8407
1600	0.837
1609	0.8315
1618	0.8065
1627	0.7851
1636	0.7298
1645	0.5331
1654	0.4861
1663	0.6771
1672	0.6935
1681	0.6935
1690	0.7099
1699	0.7374
1708	0.7321
1717	0.7503
1726	0.8132
1735	0.8289
1744	0.8348
1753	0.829
1762	0.8352
1771	0.8581
1780	0.8809
1789	0.8993
1798	0.9056
1807	0.9058
1816	0.904
1825	0.9014
1834	0.9026
1843	0.9064
1852	0.9117
1861	0.9139
1870	0.9119
1879	0.9168
1888	0.9206
1897	0.9215
1906	0.9134
1915	0.9109
1924	0.9102
1933	0.9093
1942	0.9121
1951	0.9183
1960	0.9204
1969	0.9207
1978	0.9209
1987	0.9223
1996	0.9173
2005	0.9041
2014	0.8793
2023	0.854
2032	0.8488
2041	0.8739
2050	0.8971
2059	0.902
2068	0.9038
2077	0.9075
2086	0.918
2095	0.9202
2104	0.9198
2113	0.918
2122	0.9135
2131	0.9087
2140	0.9039
2149	0.8989
2158	0.8955
2167	0.8951
2176	0.8981
2185	0.8993
2194	0.8987
2203	0.8956
2212	0.8925
2221	0.889
2230	0.883
2239	0.8809
2248	0.882
2257	0.8838
2266	0.8848
2275	0.885
2284	0.8836
2293	0.8773
2302	0.8693
2311	0.8638
2320	0.8619
2329	0.8614
2338	0.8615
2347	0.8611
2356	0.8605
2365	0.8589
2374	0.8576
2383	0.8618
2392	0.8759
2401	0.8786
2410	0.8764
2419	0.8708
2428	0.8652
2437	0.8674
2446	0.8712
2455	0.8752
2464	0.8725
2473	0.8733
2482	0.8661
2491	0.8537
2500	0.8421
2509	0.8298
2518	0.8171
2527	0.804
2536	0.7947
2545	0.7884
2554	0.7825
2563	0.7761
2572	0.7705
2581	0.7628
2590	0.7505
2599	0.741
2608	0.7373
2617	0.7273
2626	0.7144
2635	0.6844
2644	0.6492
2653	0.6386
2662	0.6397
2671	0.6538
2680	0.6627
2689	0.6373
2698	0.595
2707	0.5527
2716	0.5174
2725	0.5396
2734	0.564
2743	0.5558
2752	0.5368
2761	0.5168
2770	0.488
2779	0.3999
2788	0.3531
2797	0.2515
2806	0.1695
2815	0.1192
2824	0.0232
2833	0.0098
2842	0.0035
2851	0.0021
2860	0.0026
2869	0.0044
2878	0.006
2887	0.0035
2896	0.0003
2905	0.0004
2914	0
2923	0.0006
2932	0.0014
2941	0.0046
2950	0.0032
2959	0.0021
2968	0.0024
2977	0.0051
2986	0.0093
2995	0.0077
3004	0.0104
3013	0.1733
3022	0.3336
3031	0.444
3040	0.4732
3049	0.48
3058	0.5834
3067	0.643
3076	0.6752
3085	0.697
3094	0.7134
3103	0.7273
3112	0.7386
3121	0.7444
3130	0.7459
3139	0.7463
3148	0.7457
3157	0.7461
3166	0.7511
3175	0.7637
3184	0.7852
3193	0.8073
3202	0.8292
3211	0.8464
3220	0.8599
3229	0.8741
3238	0.8825
3247	0.8919
3256	0.8953
3265	0.8897
3274	0.8799
3283	0.876
3292	0.8827
3301	0.8934
3310	0.9017
3319	0.9057
3328	0.907
3337	0.9072
3346	0.9071
3355	0.907
3364	0.9075
3373	0.9083
3382	0.9107
3391	0.9111
3400	0.9114
3409	0.9119
3418	0.9161
3427	0.9178
3436	0.9177
3445	0.9211
3454	0.9201
3463	0.9208
3472	0.9228
3481	0.924
3490	0.924
3499	0.9242
3508	0.9248
3517	0.9245
3526	0.9234
3535	0.9227
3544	0.9225
3553	0.9224
3562	0.9194
3571	0.9145
3580	0.9086
3589	0.9026
3598	0.8972
3607	0.8944
3616	0.8935
3625	0.893
3634	0.8928
3643	0.8923
3652	0.8917
3661	0.8913
3670	0.8913
3679	0.8913
3688	0.8911
3697	0.8909
3706	0.8888
3715	0.8862
3724	0.8824
3733	0.8806
3742	0.8817
3751	0.8838
3760	0.8845
3769	0.8827
3778	0.8839
3787	0.8873
3796	0.8898
3805	0.8922
3814	0.8938
3823	0.8918
3832	0.8868
3841	0.8821
3850	0.877
3859	0.8712
3868	0.8683
3877	0.8702
3886	0.8748
3895	0.8715
3904	0.8637
3913	0.8556
3922	0.8477
3931	0.8404
3940	0.8336
3949	0.8279
3958	0.8236
3967	0.8215
3976	0.8186
3985	0.8154
3994	0.8131
