Infrared Spectrum: 2,8-Decadiene, (E,E)
Formula: C10 H18
CAS: 19398-85-7
State: LIQUID (NEAT)
Class: COBLENTZ III
Instrument: BECKMAN IR-12 (GRATING)
Instrument parameters: GRATING
Sampling: TRANSMISSION
Path length: 0.0104 CM
Resolution: 2
Origin: COLGATE-PALMOLIVE COMPANY (KELLENBACH)
1/CM	TRANSMITTANCE
400	0.5477
410	0.5945
420	0.6864
430	0.7551
440	0.7833
450	0.8912
460	0.9147
470	0.9245
480	0.9442
490	0.9547
500	0.9643
510	0.982
520	0.981
530	0.9702
540	0.9744
550	0.9832
560	0.9871
570	1.0004
580	1.007
590	1.004
600	1.0023
610	1.0007
620	0.9884
630	0.9763
640	0.979
650	0.9925
660	1.0097
670	1.0031
680	0.993
690	0.9707
700	0.8991
710	0.8834
720	0.7919
730	0.4616
740	0.5596
750	0.6716
760	0.7375
770	0.7122
780	0.7969
790	0.8414
800	0.8417
810	0.8407
820	0.8363
830	0.8205
840	0.812
850	0.8028
860	0.7613
870	0.7307
880	0.6872
890	0.5984
900	0.4866
910	0.3819
920	0.2468
930	0.1443
940	0.1351
950	0.0847
960	0.0055
970	0.0038
980	0.028
990	0.1627
1000	0.2504
1010	0.2764
1020	0.2404
1030	0.2764
1040	0.2815
1050	0.357
1060	0.3513
1070	0.2493
1080	0.2722
1090	0.513
1100	0.6083
1110	0.6676
1120	0.7061
1130	0.7333
1140	0.7555
1150	0.7708
1160	0.763
1170	0.7271
1180	0.7546
1190	0.7266
1200	0.6986
1210	0.6835
1220	0.6623
1230	0.6549
1240	0.6076
1250	0.5715
1260	0.5397
1270	0.5358
1280	0.51
1290	0.3884
1300	0.316
1310	0.2841
1320	0.4384
1330	0.5023
1340	0.4207
1350	0.339
1360	0.3693
1370	0.2249
1380	0.0372
1390	0.3463
1400	0.4028
1410	0.3282
1420	0.2368
1430	0.0329
1440	0.0042
1450	0.0058
1460	0.012
1470	0.1437
1480	0.3836
1490	0.4939
1500	0.5584
1510	0.5994
1520	0.6517
1530	0.6953
1540	0.7255
1550	0.7565
1560	0.7737
1570	0.7992
1580	0.816
1590	0.8303
1600	0.8383
1610	0.8441
1620	0.8479
1630	0.8493
1640	0.8469
1650	0.8421
1660	0.8069
1670	0.6754
1680	0.7554
1690	0.7688
1700	0.7331
1710	0.6759
1720	0.6276
1730	0.622
1740	0.7053
1750	0.7612
1760	0.7907
1770	0.801
1780	0.8023
1790	0.7899
1800	0.7893
1810	0.8047
1820	0.8282
1830	0.8457
1840	0.8604
1850	0.8741
1860	0.8865
1870	0.8981
1880	0.9082
1890	0.9163
1900	0.914
1910	0.9141
1920	0.9113
1930	0.9082
1940	0.9083
1950	0.907
1960	0.9013
1970	0.9034
1980	0.8876
1990	0.8543
2000	0.7157
2010	0.7893
2020	0.8758
2030	0.892
2040	0.9015
2050	0.908
2060	0.9113
2070	0.909
2080	0.9093
2090	0.9137
2100	0.9165
2110	0.9172
2120	0.9174
2130	0.9167
2140	0.9145
2150	0.9145
2160	0.9127
2170	0.9107
2180	0.9095
2190	0.9094
2200	0.9098
2210	0.9103
2220	0.9117
2230	0.913
2240	0.9134
2250	0.9104
2260	0.9071
2270	0.904
2280	0.9029
2290	0.9035
2300	0.9028
2310	0.9018
2320	0.9017
2330	0.9015
2340	0.8996
2350	0.8962
2360	0.8989
2370	0.8987
2380	0.8704
2390	0.8465
2400	0.8539
2410	0.8643
2420	0.8741
2430	0.8853
2440	0.8827
2450	0.8673
2460	0.86
2470	0.8462
2480	0.86
2490	0.8754
2500	0.8699
2510	0.8592
2520	0.8521
2530	0.8489
2540	0.8513
2550	0.8551
2560	0.8551
2570	0.8459
2580	0.8399
2590	0.8356
2600	0.8148
2610	0.7976
2620	0.7861
2630	0.7745
2640	0.7605
2650	0.7469
2660	0.7257
2670	0.7035
2680	0.6887
2690	0.6897
2700	0.6949
2710	0.6883
2720	0.5613
2730	0.3403
2740	0.5976
2750	0.6292
2760	0.6084
2770	0.5619
2780	0.5155
2790	0.4773
2800	0.3765
2810	0.2581
2820	0.1397
2830	0.0427
2840	0.0114
2850	0.0065
2860	0.0067
2870	0.007
2880	0.0072
2890	0.0072
2900	0.007
2910	0.0063
2920	0.0048
2930	0.0039
2940	0.0047
2950	0.0071
2960	0.008
2970	0.0084
2980	0.0088
2990	0.0095
3000	0.01
3010	0.0094
3020	0.0083
3030	0.0136
3040	0.1271
3050	0.2182
3060	0.4222
3070	0.4782
3080	0.5175
3090	0.5534
3100	0.6049
3110	0.6206
3120	0.6331
3130	0.6477
3140	0.6654
3150	0.724
3160	0.7556
3170	0.7803
3180	0.802
3190	0.8174
3200	0.8304
3210	0.8433
3220	0.8604
3230	0.8754
3240	0.8859
3250	0.8952
3260	0.904
3270	0.9131
3280	0.9161
3290	0.9178
3300	0.9177
3310	0.9103
3320	0.9099
3330	0.9146
3340	0.9181
3350	0.9226
3360	0.9245
3370	0.9211
3380	0.9187
3390	0.9169
3400	0.9151
3410	0.9158
3420	0.9175
3430	0.913
3440	0.9081
3450	0.9039
3460	0.9022
3470	0.9014
3480	0.9034
3490	0.9064
3500	0.9113
3510	0.9162
3520	0.9215
3530	0.9267
3540	0.9315
3550	0.9335
3560	0.9348
3570	0.9359
3580	0.9363
3590	0.9364
3600	0.9358
3610	0.9345
3620	0.9305
3630	0.9253
3640	0.9221
3650	0.9228
3660	0.9218
3670	0.9184
3680	0.914
3690	0.9158
3700	0.9184
3710	0.9211
3720	0.9207
3730	0.9177
3740	0.9169
3750	0.9168
3760	0.9135
3770	0.9062
3780	0.903
3790	0.9009
3800	0.8994
3810	0.8988
3820	0.8986
3830	0.898
3840	0.8967
3850	0.899
3860	0.8949
3870	0.885
3880	0.8735
3890	0.864
3900	0.8593
3910	0.857
3920	0.8555
3930	0.8533
3940	0.8464
3950	0.8391
3960	0.8431
3970	0.853
3980	0.8581
3990	0.8593
4000	0.8596
