Infrared Spectrum: 2-Butanol 1,4-dibromo-
Formula: C4 H8 Br2 O
CAS: 19398-47-1
State: SOLUTION (10% CCl4 FOR 3800-1330, 10% CS2 FOR 1330-400 CM^-^1)
Boiling point: 112 C AT 0.5 mmHg
Class: COBLENTZ III
Instrument: DOW KBr FOREPRISM-GRATING
Instrument parameters: BLAZED AT 3.5, 12.0, 20.0 MICRON AND CHANGED AT 5.0, 7.5, 14.9 MICRON
Sampling: TRANSMISSION
Path length: 0.012 CM, 0.011 CM
Resolution: 2
Origin: DOW CHEMICAL COMPANY
1/CM	TRANSMITTANCE
3800	0.93
3791	0.9312
3782	0.9292
3773	0.9301
3764	0.9292
3755	0.9285
3746	0.9277
3737	0.9286
3728	0.9277
3719	0.924
3710	0.9244
3701	0.921
3692	0.9125
3683	0.9021
3674	0.8959
3665	0.8921
3656	0.8859
3647	0.8517
3638	0.769
3629	0.7315
3620	0.7381
3611	0.7426
3602	0.6997
3593	0.6862
3584	0.6895
3575	0.6917
3566	0.6834
3557	0.6783
3548	0.6674
3539	0.6364
3530	0.6048
3521	0.5727
3512	0.5312
3503	0.4913
3494	0.4554
3485	0.4256
3476	0.3969
3467	0.3771
3458	0.3606
3449	0.3455
3440	0.3317
3431	0.3243
3422	0.3209
3413	0.3193
3404	0.32
3395	0.3218
3386	0.3241
3377	0.3309
3368	0.3387
3359	0.3492
3350	0.3613
3341	0.3747
3332	0.3889
3323	0.4052
3314	0.4225
3305	0.4428
3296	0.4617
3287	0.4814
3278	0.5022
3269	0.5246
3260	0.5466
3251	0.5645
3242	0.5823
3233	0.599
3224	0.6174
3215	0.6358
3206	0.6525
3197	0.6691
3188	0.6851
3179	0.6989
3170	0.7139
3161	0.73
3152	0.7448
3143	0.7566
3134	0.7686
3125	0.7786
3116	0.7855
3107	0.7919
3098	0.7977
3089	0.8024
3080	0.8036
3071	0.8089
3062	0.8078
3053	0.8091
3044	0.8106
3035	0.806
3026	0.7859
3017	0.7624
3008	0.7128
2999	0.5036
2990	0.4084
2981	0.3917
2972	0.384
2963	0.3549
2954	0.3559
2945	0.3871
2936	0.4257
2927	0.4445
2918	0.4574
2909	0.4685
2900	0.4687
2891	0.4243
2882	0.4027
2873	0.3984
2864	0.4417
2855	0.5356
2846	0.6346
2837	0.6909
2828	0.7195
2819	0.739
2810	0.7577
2801	0.779
2792	0.798
2783	0.8108
2774	0.8184
2765	0.8221
2756	0.8238
2747	0.8253
2738	0.8264
2729	0.827
2720	0.8274
2711	0.8281
2702	0.8306
2693	0.8326
2684	0.8331
2675	0.834
2666	0.835
2657	0.8379
2648	0.8401
2639	0.8422
2630	0.845
2621	0.8485
2612	0.8511
2603	0.8535
2594	0.8561
2585	0.8585
2576	0.8607
2567	0.8624
2558	0.8642
2549	0.866
2540	0.8675
2531	0.8682
2522	0.869
2513	0.8697
2504	0.8711
2495	0.8726
2486	0.874
2477	0.8769
2468	0.8782
2459	0.8792
2450	0.8792
2441	0.8818
2432	0.8836
2423	0.8847
2414	0.8852
2405	0.8865
2396	0.8857
2387	0.8872
2378	0.8929
2369	0.8958
2360	0.8981
2351	0.9029
2342	0.9034
2333	0.9022
2324	0.9076
2315	0.9066
2306	0.8944
2297	0.8911
2288	0.8871
2279	0.885
2270	0.8832
2261	0.882
2252	0.8813
2243	0.8809
2234	0.8803
2225	0.8809
2216	0.88
2207	0.8806
2198	0.8814
2189	0.8803
2180	0.8811
2171	0.8834
2162	0.8826
2153	0.8834
2144	0.8837
2135	0.8839
2126	0.8843
2117	0.8846
2108	0.8849
2099	0.8851
2090	0.8851
2081	0.8853
2072	0.8847
2063	0.8841
2054	0.8851
2045	0.8831
2036	0.8833
2027	0.884
2018	0.8832
2009	0.8805
2000	0.8727
1991	0.8559
1982	0.8567
1973	0.8561
1964	0.8623
1955	0.8657
1946	0.8626
1937	0.8628
1928	0.8637
1919	0.8636
1910	0.8635
1901	0.8651
1892	0.8656
1883	0.866
1874	0.8675
1865	0.8622
1856	0.8599
1847	0.8594
1838	0.8594
1829	0.8578
1820	0.8576
1811	0.858
1802	0.8539
1793	0.8528
1784	0.8499
1775	0.8436
1766	0.8381
1757	0.8307
1748	0.8183
1739	0.8102
1730	0.8039
1721	0.7996
1712	0.8095
1703	0.82
1694	0.8269
1685	0.8305
1676	0.83
1667	0.8299
1658	0.8279
1649	0.8271
1640	0.8276
1631	0.8293
1622	0.8308
1613	0.8427
1604	0.8292
1595	0.7905
1586	0.7948
1577	0.8004
1568	0.7608
1559	0.73
1550	0.7661
1541	0.7943
1532	0.8028
1523	0.7989
1514	0.8074
1505	0.8044
1496	0.8073
1487	0.7825
1478	0.7724
1469	0.7306
1460	0.7102
1451	0.6108
1442	0.5194
1433	0.5405
1424	0.511
1415	0.6018
1406	0.6274
1397	0.6434
1388	0.656
1379	0.66
1370	0.654
1361	0.6319
1352	0.6456
1343	0.6273
1334	0.5924
1325	0.5718
1316	0.5639
1307	0.5782
1298	0.5854
1289	0.5708
1280	0.5823
1271	0.5541
1262	0.4625
1253	0.4478
1244	0.553
1235	0.5347
1226	0.5017
1217	0.5393
1208	0.5447
1199	0.588
1190	0.6247
1181	0.6338
1172	0.6513
1163	0.6665
1154	0.6868
1145	0.686
1136	0.6579
1127	0.4373
1118	0.4711
1109	0.5723
1100	0.5811
1091	0.4668
1082	0.3218
1073	0.2663
1064	0.3335
1055	0.3661
1046	0.345
1037	0.4874
1028	0.5909
1019	0.6617
1010	0.6421
1001	0.5706
992	0.5804
983	0.6502
974	0.5828
965	0.5834
956	0.7231
947	0.7847
938	0.7803
929	0.7394
920	0.5981
911	0.5017
902	0.5181
893	0.6229
884	0.718
875	0.7612
866	0.7243
857	0.7041
848	0.7449
839	0.7672
830	0.8229
821	0.8551
812	0.8756
803	0.8845
794	0.8804
785	0.8615
776	0.8495
767	0.8233
758	0.8262
749	0.8459
740	0.851
731	0.854
722	0.8626
713	0.8583
704	0.8493
695	0.8378
686	0.8159
677	0.7368
668	0.7273
659	0.6551
650	0.6939
641	0.7756
632	0.7968
623	0.8
614	0.8021
605	0.7994
596	0.7964
587	0.7828
578	0.6969
569	0.681
560	0.758
551	0.776
542	0.7761
533	0.7764
524	0.7814
515	0.7866
506	0.7897
497	0.7901
488	0.7837
479	0.7483
470	0.7517
461	0.7442
452	0.7385
443	0.7277
434	0.7126
425	0.6823
416	0.5757
407	0.3914
398	0.2669
389	0.2299
