Infrared Spectrum: Beta-CHLOROBUTYRIC ACID
Formula: C4 H7 Cl O2
CAS: 1951-12-8
State: SOLUTION (10% CCl4 FOR 5000-1330, 10% CS2 FOR 1330-625 CM^-^1)
Class: COBLENTZ
Instrument: Not specified, most likely a prism, grating, or hybrid spectrometer.
Sampling: TRANSMISSION
Path length: 0.0130 CM, 0.0123 CM
Resolution: 4
Origin: DOW CHEMICAL COMPANY
MICROMETERS	TRANSMITTANCE
2.028	0.851
2.06932	0.855
2.11063	0.86
2.15195	0.863
2.19327	0.867
2.23458	0.865
2.2759	0.85
2.31722	0.853
2.35853	0.858
2.39985	0.862
2.44116	0.863
2.48248	0.863
2.5238	0.868
2.56511	0.867
2.60643	0.877
2.64775	0.875
2.68906	0.873
2.73038	0.873
2.7717	0.873
2.81301	0.865
2.85433	0.827
2.89565	0.809
2.93696	0.752
2.97828	0.678
3.01959	0.584
3.06091	0.48
3.10223	0.369
3.14354	0.27
3.18486	0.199
3.22618	0.144
3.26749	0.107
3.30881	0.097
3.35013	0.08
3.39144	0.068
3.43276	0.073
3.47408	0.08
3.51539	0.12
3.55671	0.182
3.59803	0.238
3.63934	0.274
3.68066	0.287
3.72197	0.287
3.76329	0.275
3.80461	0.269
3.84592	0.306
3.88724	0.333
3.92856	0.335
3.96987	0.395
4.01119	0.48
4.05251	0.56
4.09382	0.626
4.13514	0.666
4.17646	0.7
4.21777	0.708
4.25909	0.712
4.3004	0.722
4.34172	0.749
4.38304	0.764
4.42435	0.778
4.46567	0.788
4.50699	0.8
4.5483	0.809
4.58962	0.816
4.63094	0.812
4.67225	0.814
4.71357	0.824
4.75489	0.836
4.7962	0.844
4.83752	0.844
4.87884	0.838
4.92015	0.836
4.96147	0.833
5.00278	0.826
5.0441	0.819
5.08542	0.821
5.12673	0.821
5.16805	0.81
5.20937	0.797
5.25068	0.79
5.292	0.778
5.33332	0.759
5.37463	0.751
5.41595	0.741
5.45727	0.73
5.49858	0.696
5.5399	0.676
5.58121	0.652
5.62253	0.601
5.66385	0.507
5.70516	0.395
5.74648	0.303
5.7878	0.161
5.82911	0.032
5.87043	0.02
5.91175	0.034
5.95306	0.26
5.99438	0.417
6.0357	0.516
6.07701	0.575
6.11833	0.667
6.15965	0.703
6.20096	0.713
6.24228	0.686
6.28359	0.606
6.32491	0.55
6.36623	0.531
6.40754	0.477
6.44886	0.424
6.49018	0.403
6.53149	0.494
6.57281	0.543
6.61413	0.584
6.65544	0.643
6.69676	0.689
6.73808	0.705
6.77939	0.698
6.82071	0.592
6.86202	0.446
6.90334	0.219
6.94466	0.144
6.98597	0.085
7.02729	0.064
7.06861	0.078
7.10992	0.103
7.15124	0.235
7.19256	0.434
7.23387	0.396
7.27519	0.396
7.31651	0.632
7.35782	0.613
7.39914	0.562
7.44046	0.599
7.48177	0.604
7.52309	0.459
7.5644	0.318
7.60572	0.219
7.64704	0.153
7.68835	0.068
7.72967	0.064
7.77099	0.127
7.8123	0.163
7.85362	0.161
7.89494	0.155
7.93625	0.18
7.97757	0.18
8.01889	0.187
8.0602	0.206
8.10152	0.17
8.14283	0.211
8.18415	0.327
8.22547	0.432
8.26678	0.488
8.3081	0.49
8.34942	0.395
8.39073	0.245
8.43205	0.207
8.47337	0.293
8.51468	0.419
8.556	0.522
8.59732	0.596
8.63863	0.645
8.67995	0.686
8.72127	0.712
8.76258	0.72
8.8039	0.724
8.84521	0.703
8.88653	0.625
8.92785	0.526
8.96916	0.502
9.01048	0.555
9.0518	0.652
9.09311	0.735
9.13443	0.764
9.17575	0.739
9.21706	0.608
9.25838	0.54
9.2997	0.587
9.34101	0.678
9.38233	0.746
9.42364	0.783
9.46496	0.797
9.50628	0.797
9.54759	0.793
9.58891	0.785
9.63023	0.766
9.67154	0.729
9.71286	0.655
9.75418	0.485
9.79549	0.223
9.83681	0.209
9.87813	0.47
9.91944	0.643
9.96076	0.71
10.0021	0.739
10.0434	0.749
10.0847	0.747
10.126	0.739
10.1673	0.727
10.2087	0.705
10.25	0.684
10.2913	0.652
10.3326	0.603
10.3739	0.555
10.4152	0.522
10.4566	0.471
10.4979	0.431
10.5392	0.361
10.5805	0.291
10.6218	0.238
10.6631	0.199
10.7045	0.173
10.7458	0.158
10.7871	0.149
10.8284	0.151
10.8697	0.17
10.911	0.189
10.9524	0.206
10.9937	0.221
11.035	0.257
11.0763	0.296
11.1176	0.313
11.1589	0.328
11.2003	0.337
11.2416	0.344
11.2829	0.347
11.3242	0.354
11.3655	0.364
11.4068	0.386
11.4482	0.417
11.4895	0.446
11.5308	0.461
11.5721	0.471
11.6134	0.482
11.6547	0.488
11.696	0.497
11.7374	0.509
11.7787	0.531
11.82	0.565
11.8613	0.594
11.9026	0.625
11.9439	0.654
11.9853	0.672
12.0266	0.689
12.0679	0.698
12.1092	0.706
12.1505	0.712
12.1918	0.717
12.2332	0.722
12.2745	0.727
12.3158	0.73
12.3571	0.732
12.3984	0.737
12.4397	0.739
12.4811	0.739
12.5224	0.741
12.5637	0.744
12.605	0.749
12.6463	0.751
12.6876	0.754
12.729	0.756
12.7703	0.758
12.8116	0.759
12.8529	0.768
12.8942	0.771
12.9355	0.775
12.9769	0.776
13.0182	0.778
13.0595	0.778
13.1008	0.776
13.1421	0.773
13.1834	0.77
13.2248	0.764
13.2661	0.763
13.3074	0.759
13.3487	0.758
13.39	0.756
13.4313	0.751
13.4727	0.744
13.514	0.735
13.5553	0.729
13.5966	0.718
13.6379	0.706
13.6792	0.7
13.7206	0.684
13.7619	0.676
13.8032	0.667
13.8445	0.66
13.8858	0.652
13.9271	0.64
13.9685	0.63
14.0098	0.62
14.0511	0.608
14.0924	0.596
14.1337	0.582
14.175	0.57
14.2164	0.562
14.2577	0.55
14.299	0.541
14.3403	0.529
14.3816	0.521
14.4229	0.512
14.4643	0.507
14.5056	0.504
14.5469	0.499
14.5882	0.497
14.6295	0.49
14.6708	0.495
14.7122	0.499
14.7535	0.5
14.7948	0.5
14.8361	0.5
14.8774	0.499
14.9187	0.499
14.96	0.494
15.0014	0.485
15.0427	0.48
15.084	0.468
15.1253	0.459
15.1666	0.446
15.2079	0.432
15.2493	0.417
15.2906	0.396
15.3319	0.381
15.3732	0.357
15.4145	0.33
15.4558	0.287
15.4972	0.233
15.5385	0.185
15.5798	0.146
15.6211	0.115
15.6624	0.105
15.7037	0.102
15.7451	0.105
15.7864	0.114
15.8277	0.129
15.869	0.141
15.9103	0.144
