Infrared Spectrum: Indol-5-ol
Formula: C8 H7 N O
CAS: 1953-54-4
State: SOLID (SPLIT MULL), FLUOROLUBE FOR 3800-1330 CM^-^1, NUJOL FOR 1330-400 CM^-^1
Melting point: 107 C
Class: COBLENTZ III
Instrument: DOW KBr FOREPRISM-GRATING
Instrument parameters: BLAZED AT 3.5, 12.0, 20.0 MICRON AND CHANGED AT 5.0, 7.5, 14.9 MICRON
Sampling: TRANSMISSION
Resolution: 2
Origin: DOW CHEMICAL COMPANY
1/CM	TRANSMITTANCE
380	0.7635
389	0.7606
398	0.7546
407	0.7471
416	0.7051
425	0.6741
434	0.778
443	0.7601
452	0.6386
461	0.6776
470	0.6122
479	0.5834
488	0.569
497	0.5632
506	0.5467
515	0.6822
524	0.8198
533	0.8583
542	0.8705
551	0.8727
560	0.8747
569	0.8757
578	0.8712
587	0.8505
596	0.6675
605	0.5825
614	0.6595
623	0.8405
632	0.8172
641	0.8548
650	0.8488
659	0.8154
668	0.8158
677	0.8146
686	0.8081
695	0.7945
704	0.7712
713	0.7108
722	0.6195
731	0.3266
740	0.4667
749	0.5502
758	0.2809
767	0.6824
776	0.6778
785	0.613
794	0.4855
803	0.5384
812	0.5552
821	0.7972
830	0.8119
839	0.7887
848	0.4203
857	0.5383
866	0.6632
875	0.8202
884	0.8215
893	0.5901
902	0.8275
911	0.8254
920	0.794
929	0.7851
938	0.744
947	0.4966
956	0.7542
965	0.7524
974	0.7467
983	0.7368
992	0.7171
1001	0.7042
1010	0.7011
1019	0.7096
1028	0.728
1037	0.7406
1046	0.7387
1055	0.7141
1064	0.6202
1073	0.7118
1082	0.651
1091	0.5091
1100	0.6301
1109	0.6651
1118	0.6461
1127	0.5036
1136	0.5191
1145	0.1039
1154	0.3927
1163	0.6965
1172	0.698
1181	0.654
1190	0.5906
1199	0.4908
1208	0.2594
1217	0.087
1226	0.3834
1235	0.4328
1244	0.5122
1253	0.431
1262	0.6119
1271	0.7022
1280	0.7061
1289	0.6474
1298	0.5297
1307	0.6217
1316	0.7195
1325	0.6072
1334	0.4764
1343	0.4759
1352	0.5801
1361	0.5109
1370	0.4087
1379	0.375
1388	0.438
1397	0.5801
1406	0.6023
1415	0.5301
1424	0.5921
1433	0.6352
1442	0.6035
1451	0.3928
1460	0.1792
1469	0.5015
1478	0.4806
1487	0.2235
1496	0.3823
1505	0.6012
1514	0.789
1523	0.7964
1532	0.7925
1541	0.7818
1550	0.7618
1559	0.7192
1568	0.7014
1577	0.5241
1586	0.5067
1595	0.7425
1604	0.7408
1613	0.6714
1622	0.461
1631	0.5812
1640	0.8087
1649	0.8095
1658	0.8071
1667	0.8017
1676	0.7914
1685	0.7794
1694	0.7638
1703	0.7621
1712	0.7553
1721	0.7484
1730	0.7399
1739	0.768
1748	0.7854
1757	0.7867
1766	0.7862
1775	0.7848
1784	0.783
1793	0.7808
1802	0.778
1811	0.7749
1820	0.7712
1829	0.7641
1838	0.7536
1847	0.7458
1856	0.7508
1865	0.7469
1874	0.7593
1883	0.761
1892	0.7575
1901	0.756
1910	0.7598
1919	0.7588
1928	0.7569
1937	0.7536
1946	0.7507
1955	0.7483
1964	0.7482
1973	0.7411
1982	0.7378
1991	0.7343
2000	0.7317
2009	0.7312
2018	0.7289
2027	0.7254
2036	0.7221
2045	0.7189
2054	0.7155
2063	0.7122
2072	0.7096
2081	0.7065
2090	0.7037
2099	0.7008
2108	0.6978
2117	0.6951
2126	0.6925
2135	0.6898
2144	0.6871
2153	0.6838
2162	0.6807
2171	0.6774
2180	0.6742
2189	0.6708
2198	0.6675
2207	0.6632
2216	0.6588
2225	0.6548
2234	0.6501
2243	0.6447
2252	0.6397
2261	0.6355
2270	0.6317
2279	0.6281
2288	0.6254
2297	0.6233
2306	0.6223
2315	0.6225
2324	0.6162
2333	0.611
2342	0.6077
2351	0.6046
2360	0.6029
2369	0.6012
2378	0.6003
2387	0.6002
2396	0.5989
2405	0.5972
2414	0.5937
2423	0.5894
2432	0.5851
2441	0.5806
2450	0.5779
2459	0.5766
2468	0.5752
2477	0.5728
2486	0.5705
2495	0.5683
2504	0.5665
2513	0.5646
2522	0.5627
2531	0.5606
2540	0.5568
2549	0.5514
2558	0.546
2567	0.5401
2576	0.5335
2585	0.5271
2594	0.5233
2603	0.5205
2612	0.5189
2621	0.5184
2630	0.5181
2639	0.5203
2648	0.5245
2657	0.5282
2666	0.526
2675	0.5225
2684	0.5191
2693	0.5151
2702	0.5086
2711	0.5009
2720	0.4928
2729	0.4899
2738	0.4884
2747	0.4877
2756	0.4879
2765	0.4883
2774	0.4875
2783	0.4846
2792	0.4783
2801	0.4739
2810	0.4698
2819	0.4625
2828	0.4534
2837	0.4437
2846	0.4337
2855	0.4276
2864	0.4232
2873	0.4238
2882	0.4267
2891	0.4319
2900	0.4287
2909	0.424
2918	0.4187
2927	0.4127
2936	0.4042
2945	0.3948
2954	0.3849
2963	0.3744
2972	0.3671
2981	0.3605
2990	0.3544
2999	0.3486
3008	0.3407
3017	0.3309
3026	0.3179
3035	0.3041
3044	0.3003
3053	0.293
3062	0.2739
3071	0.2589
3080	0.2445
3089	0.2318
3098	0.2231
3107	0.2183
3116	0.2084
3125	0.2037
3134	0.2042
3143	0.1986
3152	0.1895
3161	0.1799
3170	0.1704
3179	0.1609
3188	0.1528
3197	0.1474
3206	0.1454
3215	0.1452
3224	0.1473
3233	0.1519
3242	0.1578
3251	0.1657
3260	0.1764
3269	0.1894
3278	0.2056
3287	0.2257
3296	0.2441
3305	0.2601
3314	0.2764
3323	0.2916
3332	0.2998
3341	0.3022
3350	0.3006
3359	0.2935
3368	0.267
3377	0.2214
3386	0.1652
3395	0.0949
3404	0.0664
3413	0.152
3422	0.3134
3431	0.373
3440	0.3647
3449	0.3468
3458	0.3409
3467	0.3909
3476	0.49
3485	0.5657
3494	0.5687
3503	0.5666
3512	0.5616
3521	0.556
3530	0.5507
3539	0.5457
3548	0.5408
3557	0.5359
3566	0.5318
3575	0.5276
3584	0.523
3593	0.5183
3602	0.5137
3611	0.5091
3620	0.5047
3629	0.5004
3638	0.496
3647	0.4918
3656	0.4877
3665	0.4839
3674	0.4802
3683	0.4765
3692	0.4729
3701	0.4696
3710	0.4662
3719	0.4629
3728	0.4594
3737	0.4559
3746	0.4524
3755	0.4474
3764	0.4422
3773	0.4384
3782	0.4395
3791	0.4424
3800	0.4438
