Infrared Spectrum: Benzene, 1-bromo-2-ethyl
Formula: C8 H9 Br
CAS: 1973-22-4
State: SOLUTION (10% CCl4 FOR 3800-1330, 10% CS2 FOR 1330-400 CM^-^1)
Class: COBLENTZ III
Instrument: DOW KBr FOREPRISM-GRATING
Instrument parameters: BLAZED AT 3.5, 12.0, 20.0 MICRON AND CHANGED AT 5.0, 7.5, 14.9 MICRON
Sampling: TRANSMISSION
Path length: 0.010 CM, 0.010 CM
Resolution: 2
Origin: DOW CHEMICAL COMPANY
1/CM	TRANSMITTANCE
387	0.505
396	0.524
405	0.6372
414	0.782
423	0.8205
432	0.817
441	0.7822
450	0.7543
459	0.9288
468	0.9525
477	0.9641
486	0.971
495	0.9702
504	0.9682
513	0.9336
522	0.9537
531	0.9667
540	0.9745
549	0.9751
558	0.9626
567	0.8829
576	0.9474
585	0.9889
594	0.9749
603	0.9724
612	0.9667
621	0.9581
630	0.9452
639	0.9243
648	0.8674
657	0.3823
666	0.8806
675	0.9531
684	0.9503
693	0.9494
702	0.9549
711	0.9386
720	0.7895
729	0.8647
738	0.7415
747	0.1062
756	0.456
765	0.8454
774	0.8431
783	0.7611
792	0.6785
801	0.8769
810	0.9273
819	0.9329
828	0.9087
837	0.9211
846	0.8723
855	0.7716
864	0.7964
873	0.845
882	0.8771
891	0.9156
900	0.9435
909	0.95
918	0.946
927	0.9322
936	0.7579
945	0.9253
954	0.9277
963	0.8752
972	0.9005
981	0.9066
990	0.9088
999	0.8821
1008	0.7748
1017	0.262
1026	0.4916
1035	0.7291
1044	0.5369
1053	0.6155
1062	0.6884
1071	0.8706
1080	0.9068
1089	0.9191
1098	0.9236
1107	0.9311
1116	0.9203
1125	0.894
1134	0.8695
1143	0.9146
1152	0.9088
1161	0.9011
1170	0.9128
1179	0.9236
1188	0.9174
1197	0.9098
1206	0.8987
1215	0.9182
1224	0.9064
1233	0.8752
1242	0.8908
1251	0.9148
1260	0.9068
1269	0.8942
1278	0.8911
1287	0.9005
1296	0.8817
1305	0.8798
1314	0.8929
1323	0.8708
1332	0.8673
1341	0.8616
1350	0.8867
1359	0.8742
1368	0.8473
1377	0.7894
1386	0.8674
1395	0.8878
1404	0.8793
1413	0.8483
1422	0.7907
1431	0.7196
1440	0.3359
1449	0.6171
1458	0.5492
1467	0.429
1476	0.366
1485	0.755
1494	0.7569
1503	0.7646
1512	0.7318
1521	0.6909
1530	0.6473
1539	0.5583
1548	0.4821
1557	0.5018
1566	0.4752
1575	0.6232
1584	0.641
1593	0.6512
1602	0.7613
1611	0.826
1620	0.8757
1629	0.8943
1638	0.9
1647	0.9024
1656	0.9029
1665	0.9008
1674	0.8965
1683	0.8892
1692	0.8921
1701	0.897
1710	0.8958
1719	0.8961
1728	0.9064
1737	0.9112
1746	0.9111
1755	0.909
1764	0.907
1773	0.9047
1782	0.8964
1791	0.868
1800	0.8782
1809	0.8994
1818	0.8965
1827	0.8869
1836	0.8916
1845	0.9003
1854	0.9001
1863	0.8963
1872	0.8899
1881	0.8929
1890	0.9004
1899	0.8922
1908	0.8617
1917	0.8653
1926	0.8998
1935	0.8966
1944	0.8706
1953	0.8972
1962	0.9635
1971	0.9038
1980	0.9001
1989	0.8931
1998	0.8849
2007	0.8872
2016	0.886
2025	0.8995
2034	0.9095
2043	0.8843
2052	0.8861
2061	0.8872
2070	0.8884
2079	0.8895
2088	0.8902
2097	0.8906
2106	0.891
2115	0.891
2124	0.891
2133	0.8905
2142	0.8897
2151	0.8889
2160	0.8884
2169	0.8877
2178	0.8871
2187	0.8869
2196	0.8867
2205	0.8864
2214	0.8851
2223	0.8838
2232	0.8816
2241	0.8793
2250	0.8768
2259	0.8742
2268	0.8716
2277	0.8688
2286	0.8661
2295	0.8659
2304	0.8696
2313	0.8691
2322	0.8658
2331	0.8646
2340	0.8689
2349	0.8745
2358	0.8795
2367	0.8832
2376	0.886
2385	0.8883
2394	0.8897
2403	0.8905
2412	0.8906
2421	0.8906
2430	0.8906
2439	0.8904
2448	0.8902
2457	0.8899
2466	0.8894
2475	0.8887
2484	0.8882
2493	0.8877
2502	0.8875
2511	0.8872
2520	0.887
2529	0.8866
2538	0.8862
2547	0.8857
2556	0.8853
2565	0.8849
2574	0.8845
2583	0.8842
2592	0.8841
2601	0.8839
2610	0.8838
2619	0.8842
2628	0.8849
2637	0.8854
2646	0.8867
2655	0.8882
2664	0.8889
2673	0.8887
2682	0.888
2691	0.8864
2700	0.8848
2709	0.8813
2718	0.8778
2727	0.878
2736	0.8785
2745	0.8792
2754	0.8796
2763	0.8791
2772	0.8776
2781	0.8753
2790	0.8729
2799	0.8702
2808	0.8661
2817	0.8613
2826	0.8535
2835	0.8491
2844	0.849
2853	0.842
2862	0.7971
2871	0.6163
2880	0.597
2889	0.7187
2898	0.7087
2907	0.7412
2916	0.7264
2925	0.6853
2934	0.4795
2943	0.5253
2952	0.6328
2961	0.5394
2970	0.3383
2979	0.2786
2988	0.5362
2997	0.7681
3006	0.7797
3015	0.754
3024	0.7774
3033	0.8072
3042	0.8052
3051	0.7795
3060	0.6788
3069	0.6708
3078	0.685
3087	0.8033
3096	0.8525
3105	0.8671
3114	0.8704
3123	0.8701
3132	0.8682
3141	0.866
3150	0.8713
3159	0.8756
3168	0.8772
3177	0.8776
3186	0.8784
3195	0.8795
3204	0.8806
3213	0.881
3222	0.8814
3231	0.8817
3240	0.8817
3249	0.8813
3258	0.8809
3267	0.8804
3276	0.88
3285	0.8796
3294	0.8792
3303	0.8788
3312	0.8785
3321	0.878
3330	0.8777
3339	0.8775
3348	0.8773
3357	0.8771
3366	0.8769
3375	0.8767
3384	0.8761
3393	0.8755
3402	0.8749
3411	0.8743
3420	0.8737
3429	0.8732
3438	0.8728
3447	0.8723
3456	0.8718
3465	0.8713
3474	0.8709
3483	0.8708
3492	0.8708
3501	0.8708
3510	0.8709
3519	0.8709
3528	0.8709
3537	0.871
3546	0.8711
3555	0.8712
3564	0.8714
3573	0.8715
3582	0.8716
3591	0.8717
3600	0.8716
3609	0.8714
3618	0.8713
3627	0.8711
3636	0.8709
3645	0.8707
3654	0.8705
3663	0.8701
3672	0.8695
3681	0.8689
3690	0.8683
3699	0.8677
3708	0.8677
3717	0.8677
3726	0.8677
3735	0.8677
3744	0.8681
3753	0.8684
3762	0.869
3771	0.87
3780	0.871
3789	0.8717
3798	0.8722
