Infrared Spectrum: Aniline, 4-nitro-3-phenylsulfonyl-
Formula: C12 H10 N2 O4 S
CAS: 19770-94-6
State: SOLID (1.5%, KBr DISC)
Melting point: 234 C
Class: COBLENTZ II
Instrument: BECKMAN IR-12 (GRATING)
Instrument parameters: GRATING CHANGE: 300, 650, 2000 CM^-^1
Sampling: TRANSMISSION
Resolution: 2
Origin: EASTMAN KODAK COMPANY
1/CM	TRANSMITTANCE
399	0.7173
409	0.7544
419	0.7177
429	0.6511
439	0.6494
449	0.6134
459	0.6502
469	0.6862
479	0.7035
489	0.7436
499	0.7592
509	0.7771
519	0.7453
529	0.4731
539	0.6071
549	0.7379
559	0.7127
569	0.4674
579	0.6227
589	0.5257
599	0.3405
609	0.7104
619	0.577
629	0.8492
639	0.7733
649	0.873
659	0.8709
669	0.796
679	0.4185
689	0.4975
699	0.7973
709	0.8467
719	0.7419
729	0.1708
739	0.8481
749	0.4567
759	0.8432
769	0.8831
779	0.89
789	0.8848
799	0.8798
809	0.8698
819	0.8529
829	0.8108
839	0.4756
849	0.767
859	0.7851
869	0.7685
879	0.6273
889	0.7359
899	0.7362
909	0.6531
919	0.7164
929	0.739
939	0.7562
949	0.7628
959	0.7647
969	0.7615
979	0.7776
989	0.7617
999	0.6529
1009	0.7685
1019	0.674
1029	0.7401
1039	0.7328
1049	0.7217
1059	0.7874
1069	0.7196
1079	0.4665
1089	0.6378
1099	0.5884
1109	0.689
1119	0.6144
1129	0.2984
1139	0.3565
1149	0.453
1159	0.2483
1169	0.573
1179	0.6476
1189	0.813
1199	0.825
1209	0.8179
1219	0.8204
1229	0.8006
1239	0.7392
1249	0.5621
1259	0.7255
1269	0.6536
1279	0.4778
1289	0.1265
1299	0.1976
1309	0.4358
1319	0.2881
1329	0.0369
1339	0.0551
1349	0.4102
1359	0.6303
1369	0.7546
1379	0.822
1389	0.8488
1399	0.8493
1409	0.8372
1419	0.8457
1429	0.7753
1439	0.7328
1449	0.66
1459	0.816
1469	0.7647
1479	0.5727
1489	0.5723
1499	0.523
1509	0.1638
1519	0.5451
1529	0.7648
1539	0.764
1549	0.7927
1559	0.7092
1569	0.5282
1579	0.4545
1589	0.241
1599	0.073
1609	0.6725
1619	0.7228
1629	0.5198
1639	0.2391
1649	0.609
1659	0.8121
1669	0.8477
1679	0.872
1689	0.8897
1699	0.8996
1709	0.9009
1719	0.902
1729	0.9024
1739	0.9024
1749	0.8967
1759	0.8993
1769	0.91
1779	0.9106
1789	0.9171
1799	0.9069
1809	0.8986
1819	0.9078
1829	0.9115
1839	0.9155
1849	0.9132
1859	0.9105
1869	0.9091
1879	0.9042
1889	0.896
1899	0.9035
1909	0.9046
1919	0.8995
1929	0.892
1939	0.8944
1949	0.8961
1959	0.8875
1969	0.8923
1979	0.8949
1989	0.8953
1999	0.8999
2009	0.8998
2019	0.8976
2029	0.8946
2039	0.892
2049	0.8909
2059	0.8901
2069	0.8895
2079	0.8894
2089	0.891
2099	0.8934
2109	0.8922
2119	0.8906
2129	0.8895
2139	0.8885
2149	0.8876
2159	0.8819
2169	0.8779
2179	0.8762
2189	0.8769
2199	0.8785
2209	0.8783
2219	0.8767
2229	0.8726
2239	0.8735
2249	0.8756
2259	0.8754
2269	0.8782
2279	0.8818
2289	0.8825
2299	0.8805
2309	0.8751
2319	0.8673
2329	0.8597
2339	0.8506
2349	0.8433
2359	0.8277
2369	0.826
2379	0.8705
2389	0.8725
2399	0.871
2409	0.8687
2419	0.8667
2429	0.8648
2439	0.863
2449	0.8612
2459	0.8594
2469	0.8582
2479	0.8575
2489	0.8575
2499	0.8593
2509	0.8617
2519	0.8652
2529	0.8631
2539	0.8605
2549	0.861
2559	0.8629
2569	0.8594
2579	0.8538
2589	0.8584
2599	0.8557
2609	0.8514
2619	0.8493
2629	0.8471
2639	0.8445
2649	0.8407
2659	0.8363
2669	0.8309
2679	0.824
2689	0.8175
2699	0.7994
2709	0.8011
2719	0.8131
2729	0.818
2739	0.8254
2749	0.8289
2759	0.8288
2769	0.8289
2779	0.8294
2789	0.8359
2799	0.8297
2809	0.8209
2819	0.8153
2829	0.8104
2839	0.807
2849	0.802
2859	0.8013
2869	0.8087
2879	0.8101
2889	0.8051
2899	0.7954
2909	0.778
2919	0.7665
2929	0.7644
2939	0.7812
2949	0.7946
2959	0.7953
2969	0.7996
2979	0.8023
2989	0.7977
2999	0.7926
3009	0.7926
3019	0.787
3029	0.7876
3039	0.7702
3049	0.7668
3059	0.7507
3069	0.739
3079	0.749
3089	0.7469
3099	0.7251
3109	0.765
3119	0.7729
3129	0.7711
3139	0.7675
3149	0.7617
3159	0.7573
3169	0.7554
3179	0.7482
3189	0.7346
3199	0.7088
3209	0.6687
3219	0.5909
3229	0.5386
3239	0.5325
3249	0.4514
3259	0.492
3269	0.6328
3279	0.6706
3289	0.6796
3299	0.6685
3309	0.6477
3319	0.6164
3329	0.5858
3339	0.5142
3349	0.3897
3359	0.1236
3369	0.1846
3379	0.5562
3389	0.6607
3399	0.6972
3409	0.6763
3419	0.6177
3429	0.5693
3439	0.507
3449	0.3733
3459	0.1456
3469	0.3867
3479	0.5736
3489	0.6915
3499	0.7271
3509	0.7635
3519	0.7764
3529	0.7798
3539	0.7812
3549	0.7858
3559	0.7924
3569	0.7929
3579	0.7938
3589	0.7969
3599	0.8007
3609	0.803
3619	0.8033
3629	0.803
3639	0.8012
3649	0.8017
3659	0.8048
3669	0.8058
3679	0.8028
3689	0.7984
3699	0.798
3709	0.7983
3719	0.7992
3729	0.8009
3739	0.7955
3749	0.791
3759	0.7943
3769	0.7953
3779	0.7951
3789	0.7966
3799	0.7924
3809	0.7907
3819	0.7939
3829	0.794
3839	0.7922
3849	0.7884
3859	0.7846
3869	0.7846
3879	0.7856
3889	0.7824
3899	0.7849
3909	0.7863
3919	0.7821
3929	0.7821
3939	0.7852
3949	0.7851
3959	0.7831
3969	0.7809
3979	0.7819
3989	0.7823
3999	0.7821
