Infrared Spectrum: ANILINE, N-BENZOYL-4-NITRO-3-PHENYLSULFONYL-
Formula: C19 H14 N2 O5 S
CAS: 19770-93-5
State: SOLID (1.5% , KBr DISC)
Melting point: 255 C
Class: COBLENTZ II
Instrument: BECKMAN IR-12 (GRATING)
Instrument parameters: GRATING CHANGE: 300, 650, 2000 CM^-^1
Sampling: TRANSMISSION
Resolution: 2
Origin: EASTMAN KODAK COMPANY
1/CM	TRANSMITTANCE
297	0.7212
307	0.6674
317	0.6801
327	0.6891
337	0.7006
347	0.6644
357	0.7103
367	0.7133
377	0.7102
387	0.7099
397	0.6975
407	0.723
417	0.7114
427	0.7235
437	0.6994
447	0.761
457	0.8159
467	0.8417
477	0.8268
487	0.8762
497	0.8296
507	0.8323
517	0.8639
527	0.6049
537	0.7491
547	0.8642
557	0.6763
567	0.694
577	0.7488
587	0.4015
597	0.6866
607	0.5948
617	0.6947
627	0.8124
637	0.7852
647	0.8409
657	0.7979
667	0.74
677	0.4999
687	0.4125
697	0.4003
707	0.6948
717	0.8474
727	0.5337
737	0.7423
747	0.4972
757	0.8795
767	0.9525
777	0.9636
787	0.9362
797	0.9338
807	0.962
817	0.9492
827	0.8289
837	0.3884
847	0.4621
857	0.9419
867	0.961
877	0.9373
887	0.8403
897	0.6581
907	0.8861
917	0.9263
927	0.8501
937	0.9629
947	0.972
957	0.9637
967	0.9206
977	0.9491
987	0.9142
997	0.851
1007	0.9232
1017	0.8346
1027	0.73
1037	0.7834
1047	0.7597
1057	0.8737
1067	0.6755
1077	0.7016
1087	0.5068
1097	0.6833
1107	0.8059
1117	0.8
1127	0.6986
1137	0.2643
1147	0.4489
1157	0.128
1167	0.7219
1177	0.7451
1187	0.7938
1197	0.8361
1207	0.8132
1217	0.7566
1227	0.5483
1237	0.289
1247	0.15
1257	0.3395
1267	0.6306
1277	0.5092
1287	0.1465
1297	0.3748
1307	0.1731
1317	0.3334
1327	0.24
1337	0.0289
1347	0.2693
1357	0.4787
1367	0.6762
1377	0.6118
1387	0.6028
1397	0.7265
1407	0.79
1417	0.8433
1427	0.86
1437	0.851
1447	0.4186
1457	0.8322
1467	0.7585
1477	0.5369
1487	0.4833
1497	0.4122
1507	0.3355
1517	0.0428
1527	0.1431
1537	0.1146
1547	0.0808
1557	0.6056
1567	0.7375
1577	0.6005
1587	0.2297
1597	0.4882
1607	0.6691
1617	0.838
1627	0.8894
1637	0.9003
1647	0.8845
1657	0.8791
1667	0.8373
1677	0.6439
1687	0.1416
1697	0.6335
1707	0.8213
1717	0.8724
1727	0.8976
1737	0.9147
1747	0.9417
1757	0.9442
1767	0.9479
1777	0.9599
1787	0.9632
1797	0.9584
1807	0.951
1817	0.9522
1827	0.9631
1837	0.9694
1847	0.9752
1857	0.98
1867	0.9787
1877	0.9728
1887	0.965
1897	0.9566
1907	0.9647
1917	0.9626
1927	0.9708
1937	0.9658
1947	0.9545
1957	0.9504
1967	0.9536
1977	0.9596
1987	0.9642
1997	0.9668
2007	0.9679
2017	0.9684
2027	0.9686
2037	0.9686
2047	0.9683
2057	0.9677
2067	0.9671
2077	0.9664
2087	0.9658
2097	0.9653
2107	0.9646
2117	0.9637
2127	0.9627
2137	0.9609
2147	0.9589
2157	0.9582
2167	0.9587
2177	0.9586
2187	0.9584
2197	0.9579
2207	0.9559
2217	0.9536
2227	0.9532
2237	0.9542
2247	0.956
2257	0.9604
2267	0.9592
2277	0.9584
2287	0.9591
2297	0.9611
2307	0.9602
2317	0.9559
2327	0.9522
2337	0.9527
2347	0.9526
2357	0.9513
2367	0.95
2377	0.9494
2387	0.9489
2397	0.9488
2407	0.9486
2417	0.9483
2427	0.948
2437	0.9475
2447	0.9486
2457	0.9508
2467	0.9506
2477	0.9495
2487	0.9477
2497	0.9464
2507	0.9449
2517	0.9469
2527	0.948
2537	0.9476
2547	0.9465
2557	0.9433
2567	0.9315
2577	0.9205
2587	0.9297
2597	0.9379
2607	0.9348
2617	0.9284
2627	0.9226
2637	0.9298
2647	0.9359
2657	0.936
2667	0.9356
2677	0.9354
2687	0.935
2697	0.9352
2707	0.9383
2717	0.9402
2727	0.9382
2737	0.9354
2747	0.932
2757	0.9288
2767	0.9276
2777	0.9271
2787	0.9262
2797	0.9244
2807	0.9233
2817	0.9179
2827	0.9107
2837	0.9027
2847	0.8939
2857	0.8905
2867	0.8913
2877	0.8931
2887	0.8915
2897	0.8832
2907	0.8689
2917	0.852
2927	0.848
2937	0.8629
2947	0.8737
2957	0.8745
2967	0.8737
2977	0.8708
2987	0.8671
2997	0.8509
3007	0.8387
3017	0.8345
3027	0.7988
3037	0.7633
3047	0.7277
3057	0.754
3067	0.7457
3077	0.7498
3087	0.7549
3097	0.7464
3107	0.6925
3117	0.6683
3127	0.7191
3137	0.7428
3147	0.7701
3157	0.7844
3167	0.7844
3177	0.7856
3187	0.7828
3197	0.7886
3207	0.7986
3217	0.8058
3227	0.8083
3237	0.8107
3247	0.812
3257	0.811
3267	0.8094
3277	0.8064
3287	0.8041
3297	0.8026
3307	0.7924
3317	0.7845
3327	0.7818
3337	0.7767
3347	0.7486
3357	0.7173
3367	0.7
3377	0.5159
3387	0.4129
3397	0.5859
3407	0.7878
3417	0.8152
3427	0.8349
3437	0.8428
3447	0.8486
3457	0.8522
3467	0.8556
3477	0.8582
3487	0.8607
3497	0.863
3507	0.865
3517	0.8663
3527	0.8671
3537	0.8694
3547	0.8717
3557	0.875
3567	0.8784
3577	0.8813
3587	0.8839
3597	0.8864
3607	0.8882
3617	0.8901
3627	0.8915
3637	0.8927
3647	0.8939
3657	0.8952
3667	0.8973
3677	0.9015
3687	0.9017
3697	0.8962
3707	0.8923
3717	0.8987
3727	0.9004
3737	0.8965
3747	0.8965
3757	0.8964
3767	0.8954
3777	0.8943
3787	0.8938
3797	0.8936
3807	0.8933
3817	0.8927
3827	0.8922
3837	0.8917
3847	0.8953
3857	0.8932
3867	0.8906
3877	0.8892
3887	0.8883
3897	0.8876
3907	0.8873
3917	0.887
3927	0.8865
3937	0.8859
3947	0.8854
3957	0.8849
3967	0.8845
3977	0.884
3987	0.8834
3997	0.8832
