Infrared Spectrum: 1-Octene, 2-hexyl-
Formula: C14 H28
CAS: 19780-80-4
State: LIQUID (NEAT)
Class: COBLENTZ III
Instrument: BECKMAN IR-12 (GRATING)
Instrument parameters: GRATING
Sampling: TRANSMISSION
Path length: CAPILLARY
Resolution: 2
Origin: COLGATE-PALMOLIVE COMPANY (KELLENBACH)
1/CM	TRANSMITTANCE
403	0.7361
412	0.759
421	0.7862
430	0.804
439	0.8375
448	0.8588
457	0.871
466	0.885
475	0.9084
484	0.9285
493	0.9504
502	0.9484
511	0.9455
520	0.9489
529	0.9581
538	0.969
547	0.9657
556	0.9484
565	0.9344
574	0.9257
583	0.9172
592	0.9211
601	0.9263
610	0.9257
619	0.9264
628	0.9289
637	0.9393
646	0.9538
655	0.9094
664	0.9027
673	0.9007
682	0.8978
691	0.8788
700	0.8522
709	0.8165
718	0.7322
727	0.5869
736	0.7085
745	0.7932
754	0.8037
763	0.8085
772	0.8417
781	0.8572
790	0.8618
799	0.8727
808	0.888
817	0.8903
826	0.8917
835	0.8774
844	0.8498
853	0.8369
862	0.7996
871	0.6337
880	0.2921
889	0.2512
898	0.5496
907	0.7674
916	0.8318
925	0.8577
934	0.872
943	0.8858
952	0.884
961	0.8639
970	0.8482
979	0.8471
988	0.8447
997	0.8437
1006	0.8461
1015	0.8495
1024	0.8531
1033	0.8576
1042	0.8637
1051	0.8528
1060	0.8472
1069	0.8449
1078	0.8398
1087	0.8481
1096	0.8497
1105	0.8342
1114	0.7923
1123	0.7994
1132	0.858
1141	0.8857
1150	0.896
1159	0.8892
1168	0.8689
1177	0.851
1186	0.8435
1195	0.8514
1204	0.841
1213	0.8308
1222	0.8326
1231	0.8312
1240	0.8255
1249	0.8196
1258	0.8068
1267	0.7898
1276	0.7807
1285	0.779
1294	0.7521
1303	0.7479
1312	0.775
1321	0.7845
1330	0.7856
1339	0.7332
1348	0.7298
1357	0.7193
1366	0.6641
1375	0.4859
1384	0.61
1393	0.7416
1402	0.7446
1411	0.7161
1420	0.644
1429	0.527
1438	0.4315
1447	0.3912
1456	0.3027
1465	0.2828
1474	0.5544
1483	0.7443
1492	0.7901
1501	0.8183
1510	0.8123
1519	0.8382
1528	0.8463
1537	0.8575
1546	0.8694
1555	0.8805
1564	0.889
1573	0.892
1582	0.8929
1591	0.8911
1600	0.8852
1609	0.8665
1618	0.8395
1627	0.8062
1636	0.5402
1645	0.3908
1654	0.7395
1663	0.8373
1672	0.8563
1681	0.8572
1690	0.8795
1699	0.8575
1708	0.8165
1717	0.7008
1726	0.7752
1735	0.8626
1744	0.8885
1753	0.9016
1762	0.8977
1771	0.8618
1780	0.8423
1789	0.8578
1798	0.8969
1807	0.9133
1816	0.9186
1825	0.9224
1834	0.9255
1843	0.9222
1852	0.9317
1861	0.9312
1870	0.9281
1879	0.9298
1888	0.9304
1897	0.93
1906	0.9296
1915	0.9294
1924	0.9294
1933	0.9345
1942	0.9328
1951	0.9362
1960	0.9334
1969	0.9309
1978	0.9303
1987	0.9299
1996	0.925
2005	0.9137
2014	0.9093
2023	0.9071
2032	0.9055
2041	0.909
2050	0.9115
2059	0.9125
2068	0.9135
2077	0.9146
2086	0.9157
2095	0.9157
2104	0.9149
2113	0.9146
2122	0.9148
2131	0.9119
2140	0.909
2149	0.907
2158	0.906
2167	0.9056
2176	0.9055
2185	0.9054
2194	0.9054
2203	0.9053
2212	0.9051
2221	0.9048
2230	0.9036
2239	0.9024
2248	0.9017
2257	0.9008
2266	0.8999
2275	0.899
2284	0.8967
2293	0.8941
2302	0.8899
2311	0.8849
2320	0.8796
2329	0.8749
2338	0.8726
2347	0.8694
2356	0.8603
2365	0.8617
2374	0.8784
2383	0.8989
2392	0.9039
2401	0.9045
2410	0.9045
2419	0.9044
2428	0.9043
2437	0.9041
2446	0.9038
2455	0.9031
2464	0.9024
2473	0.9017
2482	0.9011
2491	0.9005
2500	0.9
2509	0.8988
2518	0.8976
2527	0.8948
2536	0.891
2545	0.8858
2554	0.8803
2563	0.8746
2572	0.8682
2581	0.8618
2590	0.8554
2599	0.8489
2608	0.8424
2617	0.8359
2626	0.8296
2635	0.8234
2644	0.8148
2653	0.8033
2662	0.7985
2671	0.7943
2680	0.7969
2689	0.8017
2698	0.8033
2707	0.7989
2716	0.7857
2725	0.7696
2734	0.773
2743	0.7867
2752	0.7886
2761	0.7801
2770	0.7614
2779	0.7391
2788	0.7125
2797	0.6625
2806	0.5735
2815	0.5331
2824	0.4195
2833	0.3127
2842	0.154
2851	0.1278
2860	0.1502
2869	0.1718
2878	0.2072
2887	0.1902
2896	0.1545
2905	0.1187
2914	0.083
2923	0.0509
2932	0.0892
2941	0.1319
2950	0.1188
2959	0.1702
2968	0.2889
2977	0.4076
2986	0.5117
2995	0.5897
3004	0.641
3013	0.6707
3022	0.7014
3031	0.7236
3040	0.7357
3049	0.7141
3058	0.6125
3067	0.55
3076	0.5662
3085	0.67
3094	0.7739
3103	0.8307
3112	0.8418
3121	0.8496
3130	0.8552
3139	0.8586
3148	0.862
3157	0.8627
3166	0.8633
3175	0.8639
3184	0.8647
3193	0.8662
3202	0.8696
3211	0.8735
3220	0.8783
3229	0.8866
3238	0.894
3247	0.8963
3256	0.8976
3265	0.8978
3274	0.8976
3283	0.897
3292	0.8965
3301	0.8961
3310	0.8958
3319	0.8955
3328	0.8953
3337	0.8959
3346	0.8966
3355	0.8952
3364	0.8928
3373	0.8912
3382	0.8901
3391	0.8897
3400	0.8904
3409	0.891
3418	0.8913
3427	0.8916
3436	0.8932
3445	0.8965
3454	0.8989
3463	0.9003
3472	0.9011
3481	0.9012
3490	0.9012
3499	0.901
3508	0.9004
3517	0.8997
3526	0.8991
3535	0.8985
3544	0.8982
3553	0.8978
3562	0.8975
3571	0.8972
3580	0.8953
3589	0.8921
3598	0.889
3607	0.8854
3616	0.8822
3625	0.883
3634	0.88
3643	0.8809
3652	0.892
3661	0.8922
3670	0.8847
3679	0.8885
3688	0.8924
3697	0.8924
3706	0.8895
3715	0.8861
3724	0.8822
3733	0.8785
3742	0.8763
3751	0.8828
3760	0.8884
3769	0.8887
3778	0.8887
3787	0.8876
3796	0.8865
3805	0.8848
3814	0.8831
3823	0.8813
3832	0.8787
3841	0.8758
3850	0.8758
3859	0.8774
3868	0.8788
3877	0.8798
3886	0.8823
3895	0.8854
3904	0.8872
3913	0.8856
3922	0.8832
3931	0.881
3940	0.8793
3949	0.8774
3958	0.8754
3967	0.8743
3976	0.8762
3985	0.8791
3994	0.8798
