Infrared Spectrum: DIDECYL KETONE
Formula: C21 H42 O
CAS: 19781-72-7
State: SOLID
Class: COBLENTZ
Instrument: PERKIN-ELMER
Sampling: TRANSMISSION
Path length: FILM FROM MELT
Resolution: 4
Origin: HORMEL INSTITUTE
MICROMETERS	TRANSMITTANCE
2.02	0.5
2.05391	0.504
2.08782	0.509
2.12173	0.51
2.15563	0.51
2.18954	0.514
2.22345	0.512
2.25736	0.51
2.29127	0.49
2.32518	0.456
2.35909	0.47
2.39299	0.468
2.4269	0.468
2.46081	0.487
2.49472	0.499
2.52863	0.51
2.56254	0.51
2.59645	0.519
2.63036	0.522
2.66426	0.524
2.69817	0.527
2.73208	0.526
2.76599	0.524
2.7999	0.527
2.83381	0.536
2.86772	0.539
2.90162	0.538
2.93553	0.529
2.96944	0.516
3.00335	0.538
3.03726	0.541
3.07117	0.548
3.10508	0.546
3.13898	0.541
3.17289	0.538
3.2068	0.529
3.24071	0.502
3.27462	0.47
3.30853	0.438
3.34244	0.392
3.37635	0.209
3.41025	0.055
3.44416	0.042
3.47807	0.049
3.51198	0.047
3.54589	0.182
3.5798	0.346
3.61371	0.443
3.64761	0.472
3.68152	0.483
3.71543	0.522
3.74934	0.521
3.78325	0.516
3.81716	0.517
3.85107	0.536
3.88497	0.56
3.91888	0.565
3.95279	0.578
3.9867	0.58
4.02061	0.582
4.05452	0.585
4.08843	0.588
4.12234	0.59
4.15624	0.592
4.19015	0.592
4.22406	0.605
4.25797	0.605
4.29188	0.595
4.32579	0.582
4.3597	0.58
4.3936	0.59
4.42751	0.593
4.46142	0.597
4.49533	0.6
4.52924	0.602
4.56315	0.604
4.59706	0.607
4.63096	0.605
4.66487	0.609
4.69878	0.61
4.73269	0.612
4.7666	0.61
4.80051	0.614
4.83442	0.61
4.86832	0.612
4.90223	0.612
4.93614	0.605
4.97005	0.614
5.00396	0.622
5.03787	0.624
5.07178	0.62
5.10569	0.622
5.13959	0.624
5.1735	0.619
5.20741	0.62
5.24132	0.622
5.27523	0.614
5.30914	0.622
5.34305	0.624
5.37695	0.624
5.41086	0.626
5.44477	0.632
5.47868	0.632
5.51259	0.624
5.5465	0.624
5.58041	0.617
5.61431	0.612
5.64822	0.604
5.68213	0.588
5.71604	0.553
5.74995	0.517
5.78386	0.492
5.81777	0.401
5.85168	0.145
5.88558	0.101
5.91949	0.384
5.9534	0.497
5.98731	0.475
6.02122	0.57
6.05513	0.597
6.08904	0.615
6.12294	0.62
6.15685	0.626
6.19076	0.62
6.22467	0.612
6.25858	0.627
6.29249	0.636
6.3264	0.641
6.3603	0.632
6.39421	0.636
6.42812	0.624
6.46203	0.632
6.49594	0.632
6.52985	0.632
6.56376	0.632
6.59766	0.624
6.63157	0.622
6.66548	0.607
6.69939	0.578
6.7333	0.514
6.76721	0.324
6.80112	0.153
6.83503	0.159
6.86893	0.333
6.90284	0.431
6.93675	0.502
6.97066	0.514
7.00457	0.421
7.03848	0.311
7.07239	0.328
7.10629	0.467
7.1402	0.495
7.17411	0.441
7.20802	0.382
7.24193	0.321
7.27584	0.351
7.30975	0.395
7.34365	0.451
7.37756	0.509
7.41147	0.473
7.44538	0.527
7.47929	0.582
7.5132	0.597
7.54711	0.558
7.58102	0.592
7.61492	0.614
7.64883	0.602
7.68274	0.59
7.71665	0.502
7.75056	0.558
7.78447	0.61
7.81838	0.636
7.85228	0.648
7.88619	0.615
7.9201	0.565
7.95401	0.62
7.98792	0.651
8.02183	0.661
8.05574	0.656
8.08964	0.592
8.12355	0.551
8.15746	0.626
8.19137	0.653
8.22528	0.664
8.25919	0.661
8.2931	0.642
8.32701	0.58
8.36091	0.607
8.39482	0.656
8.42873	0.668
8.46264	0.668
8.49655	0.67
8.53046	0.67
8.56437	0.671
8.59827	0.671
8.63218	0.671
8.66609	0.67
8.7	0.666
8.73391	0.649
8.76782	0.617
8.80173	0.582
8.83563	0.495
8.86954	0.573
8.90345	0.622
8.93736	0.639
8.97127	0.637
9.00518	0.609
9.03909	0.524
9.07299	0.48
9.1069	0.565
9.14081	0.582
9.17472	0.521
9.20863	0.573
9.24254	0.648
9.27645	0.666
9.31036	0.67
9.34426	0.653
9.37817	0.593
9.41208	0.566
9.44599	0.556
9.4799	0.51
9.51381	0.554
9.54772	0.62
9.58162	0.651
9.61553	0.668
9.64944	0.676
9.68335	0.68
9.71726	0.681
9.75117	0.678
9.78508	0.673
9.81898	0.666
9.85289	0.68
9.8868	0.681
9.92071	0.663
9.95462	0.583
9.98853	0.612
10.0224	0.661
10.0563	0.666
10.0903	0.664
10.1242	0.634
10.1581	0.607
10.192	0.636
10.2259	0.68
10.2598	0.692
10.2937	0.666
10.3276	0.598
10.3615	0.536
10.3954	0.575
10.4293	0.642
10.4632	0.678
10.4972	0.692
10.5311	0.705
10.565	0.71
10.5989	0.714
10.6328	0.717
10.6667	0.72
10.7006	0.719
10.7345	0.717
10.7684	0.714
10.8023	0.715
10.8362	0.724
10.8702	0.725
10.9041	0.727
10.938	0.727
10.9719	0.727
11.0058	0.725
11.0397	0.727
11.0736	0.727
11.1075	0.725
11.1414	0.717
11.1753	0.697
11.2092	0.642
11.2431	0.642
11.2771	0.678
11.311	0.698
11.3449	0.7
11.3788	0.692
11.4127	0.637
11.4466	0.539
11.4805	0.607
11.5144	0.683
11.5483	0.705
11.5822	0.712
11.6161	0.725
11.6501	0.725
11.684	0.73
11.7179	0.736
11.7518	0.737
11.7857	0.739
11.8196	0.741
11.8535	0.741
11.8874	0.741
11.9213	0.741
11.9552	0.742
11.9891	0.742
12.023	0.742
12.057	0.741
12.0909	0.739
12.1248	0.734
12.1587	0.715
12.1926	0.725
12.2265	0.734
12.2604	0.736
12.2943	0.736
12.3282	0.739
12.3621	0.736
12.396	0.734
12.4299	0.732
12.4639	0.734
12.4978	0.732
12.5317	0.734
12.5656	0.73
12.5995	0.729
12.6334	0.734
12.6673	0.734
12.7012	0.734
12.7351	0.729
12.769	0.712
12.8029	0.68
12.8369	0.57
12.8708	0.516
12.9047	0.585
12.9386	0.68
12.9725	0.724
13.0064	0.742
13.0403	0.747
13.0742	0.751
13.1081	0.752
13.142	0.752
13.1759	0.752
13.2098	0.752
13.2438	0.752
13.2777	0.749
13.3116	0.741
13.3455	0.732
13.3794	0.725
13.4133	0.725
13.4472	0.717
13.4811	0.702
13.515	0.676
13.5489	0.637
13.5828	0.57
13.6168	0.467
13.6507	0.417
13.6846	0.372
13.7185	0.267
13.7524	0.203
13.7863	0.208
13.8202	0.319
13.8541	0.372
13.888	0.343
13.9219	0.291
13.9558	0.329
13.9897	0.485
14.0237	0.598
14.0576	0.651
14.0915	0.68
14.1254	0.707
14.1593	0.724
14.1932	0.736
14.2271	0.747
14.261	0.756
14.2949	0.759
14.3288	0.761
14.3627	0.768
14.3966	0.771
14.4306	0.771
14.4645	0.766
14.4984	0.756
14.5323	0.736
14.5662	0.708
14.6001	0.681
14.634	0.67
14.6679	0.688
14.7018	0.712
14.7357	0.741
14.7696	0.764
14.8036	0.78
14.8375	0.791
14.8714	0.8
14.9053	0.808
14.9392	0.812
14.9731	0.802
15.007	0.808
15.0409	0.834
15.0748	0.835
15.1087	0.837
15.1426	0.837
15.1765	0.84
15.2105	0.847
15.2444	0.851
15.2783	0.852
15.3122	0.851
15.3461	0.859
15.38	0.864
