Infrared Spectrum: 2,3-Dimethyl-4-penten-2-ol
Formula: C7 H14 O
CAS: 19781-52-3
State: SOLUTION (10% CCl4 FOR 3800-1330, 10% CS2 FOR 1330-450 CM^-^1)
Class: COBLENTZ III
Instrument: DOW KBr FOREPRISM-GRATING
Instrument parameters: BLAZED AT 3.5, 12.0, 20.0 MICRON AND CHANGED AT 5.0, 7.5, 14.9 MICRON
Sampling: TRANSMISSION
Path length: 0.012 CM, 0.011 CM
Resolution: 2
Origin: DOW CHEMICAL COMPANY
1/CM	TRANSMITTANCE
455	0.6801
464	0.6561
473	0.6615
482	0.6718
491	0.6828
500	0.6948
509	0.7017
518	0.7058
527	0.7061
536	0.6958
545	0.6714
554	0.6678
563	0.6764
572	0.6971
581	0.7022
590	0.7167
599	0.7345
608	0.7433
617	0.7461
626	0.7407
635	0.7122
644	0.6672
653	0.5739
662	0.5478
671	0.7448
680	0.7975
689	0.8188
698	0.8349
707	0.8477
716	0.8533
725	0.8544
734	0.8374
743	0.6995
752	0.7167
761	0.8447
770	0.8742
779	0.8833
788	0.8848
797	0.8838
806	0.8817
815	0.8748
824	0.8514
833	0.7458
842	0.7042
851	0.6586
860	0.8175
869	0.7922
878	0.6918
887	0.4359
896	0.3532
905	0.0945
914	0.2218
923	0.4153
932	0.3354
941	0.1976
950	0.4584
959	0.7151
968	0.6924
977	0.6691
986	0.5685
995	0.3237
1004	0.5699
1013	0.6808
1022	0.6098
1031	0.4688
1040	0.5371
1049	0.6272
1058	0.5924
1067	0.6586
1076	0.6897
1085	0.6558
1094	0.5283
1103	0.3657
1112	0.2432
1121	0.2262
1130	0.2535
1139	0.3033
1148	0.328
1157	0.3074
1166	0.2155
1175	0.2334
1184	0.3234
1193	0.4815
1202	0.479
1211	0.5312
1220	0.6142
1229	0.6971
1238	0.7284
1247	0.7188
1256	0.6755
1265	0.6112
1274	0.5336
1283	0.5379
1292	0.5542
1301	0.5787
1310	0.599
1319	0.5426
1328	0.4602
1337	0.4076
1346	0.4964
1355	0.4589
1364	0.0831
1373	0.1671
1382	0.2592
1391	0.5641
1400	0.6107
1409	0.4895
1418	0.5129
1427	0.6633
1436	0.6212
1445	0.4739
1454	0.2829
1463	0.3699
1472	0.5824
1481	0.7535
1490	0.8028
1499	0.8327
1508	0.8514
1517	0.8658
1526	0.878
1535	0.8971
1544	0.9028
1553	0.8968
1562	0.884
1571	0.8687
1580	0.8661
1589	0.8565
1598	0.8442
1607	0.8304
1616	0.8108
1625	0.7414
1634	0.4385
1643	0.7239
1652	0.7994
1661	0.8187
1670	0.8315
1679	0.8359
1688	0.844
1697	0.8483
1706	0.8475
1715	0.8477
1724	0.8537
1733	0.8574
1742	0.8571
1751	0.8618
1760	0.8684
1769	0.8713
1778	0.8693
1787	0.8711
1796	0.8736
1805	0.8694
1814	0.8609
1823	0.8406
1832	0.8112
1841	0.8242
1850	0.8462
1859	0.8586
1868	0.8699
1877	0.8783
1886	0.8821
1895	0.8834
1904	0.883
1913	0.8825
1922	0.884
1931	0.8855
1940	0.8867
1949	0.8882
1958	0.8963
1967	0.8859
1976	0.8859
1985	0.8852
1994	0.9011
2003	0.9351
2012	0.9362
2021	0.9362
2030	0.9351
2039	0.9352
2048	0.936
2057	0.9352
2066	0.9354
2075	0.9358
2084	0.9361
2093	0.9351
2102	0.9325
2111	0.933
2120	0.9338
2129	0.9344
2138	0.9347
2147	0.9346
2156	0.9341
2165	0.9336
2174	0.933
2183	0.9313
2192	0.9285
2201	0.9256
2210	0.9217
2219	0.9175
2228	0.918
2237	0.9189
2246	0.9191
2255	0.9163
2264	0.9125
2273	0.9089
2282	0.9073
2291	0.9078
2300	0.9101
2309	0.9125
2318	0.9162
2327	0.9183
2336	0.9191
2345	0.9177
2354	0.9159
2363	0.9133
2372	0.9108
2381	0.9083
2390	0.9044
2399	0.9021
2408	0.9015
2417	0.9012
2426	0.9005
2435	0.8989
2444	0.898
2453	0.8984
2462	0.8989
2471	0.8993
2480	0.8997
2489	0.9003
2498	0.901
2507	0.9013
2516	0.8995
2525	0.8977
2534	0.8964
2543	0.8953
2552	0.8941
2561	0.8935
2570	0.8931
2579	0.8927
2588	0.8928
2597	0.893
2606	0.8933
2615	0.8931
2624	0.8928
2633	0.8925
2642	0.8925
2651	0.8925
2660	0.8927
2669	0.8928
2678	0.8928
2687	0.8917
2696	0.8896
2705	0.8843
2714	0.8764
2723	0.8715
2732	0.8718
2741	0.8735
2750	0.8752
2759	0.8758
2768	0.8749
2777	0.8734
2786	0.8687
2795	0.8567
2804	0.8431
2813	0.8262
2822	0.8051
2831	0.7781
2840	0.7475
2849	0.6969
2858	0.5964
2867	0.4432
2876	0.3024
2885	0.3309
2894	0.3964
2903	0.4242
2912	0.3954
2921	0.2965
2930	0.2304
2939	0.2219
2948	0.3158
2957	0.2068
2966	0.0864
2975	0.0271
2984	0.0127
2993	0.1954
3002	0.4255
3011	0.5485
3020	0.6212
3029	0.7469
3038	0.7947
3047	0.7955
3056	0.7168
3065	0.6159
3074	0.5149
3083	0.5559
3092	0.7533
3101	0.8292
3110	0.8455
3119	0.8521
3128	0.8538
3137	0.8528
3146	0.8507
3155	0.8456
3164	0.8378
3173	0.8299
3182	0.822
3191	0.8158
3200	0.8105
3209	0.8058
3218	0.8018
3227	0.7971
3236	0.7915
3245	0.7831
3254	0.7744
3263	0.7648
3272	0.751
3281	0.7349
3290	0.7178
3299	0.7024
3308	0.683
3317	0.6605
3326	0.6343
3335	0.6095
3344	0.5843
3353	0.5602
3362	0.5364
3371	0.5176
3380	0.5028
3389	0.4903
3398	0.4794
3407	0.4699
3416	0.4605
3425	0.4498
3434	0.4392
3443	0.4295
3452	0.4197
3461	0.411
3470	0.4034
3479	0.4048
3488	0.4212
3497	0.4482
3506	0.4823
3515	0.5177
3524	0.5654
3533	0.5985
3542	0.6444
3551	0.6476
3560	0.6335
3569	0.6064
3578	0.5852
3587	0.6647
3596	0.676
3605	0.5578
3614	0.595
3623	0.6834
3632	0.8058
3641	0.8375
3650	0.851
3659	0.8541
3668	0.8525
3677	0.8474
3686	0.8586
3695	0.8703
3704	0.8785
3713	0.8849
3722	0.8903
3731	0.8925
3740	0.894
3749	0.8925
3758	0.891
3767	0.8899
3776	0.8891
3785	0.8894
3794	0.8901
