Infrared Spectrum: 2,7-Octanediol, 2,7-dimethyl-
Formula: C10 H22 O2
CAS: 19781-07-8
State: SOLID (SPLIT MULL), FLUOROLUBE FOR 3800-1330 CM^-^1, NUJOL FOR 1330-400 CM^-^1
Class: COBLENTZ III
Instrument: DOW KBr FOREPRISM-GRATING
Instrument parameters: BLAZED AT 3.5, 12.0, 20.0 MICRON AND CHANGED AT 5.0, 7.5, 14.9 MICRON
Sampling: TRANSMISSION
Resolution: 2
Origin: DOW CHEMICAL COMPANY
1/CM	TRANSMITTANCE
383	0.6198
392	0.6277
401	0.636
410	0.639
419	0.6365
428	0.7394
437	0.7587
446	0.6632
455	0.7488
464	0.7368
473	0.7762
482	0.7783
491	0.8058
500	0.8132
509	0.7984
518	0.7488
527	0.4847
536	0.7295
545	0.6938
554	0.6382
563	0.6592
572	0.6678
581	0.6164
590	0.5514
599	0.4785
608	0.4249
617	0.4381
626	0.4595
635	0.4666
644	0.4634
653	0.4467
662	0.4326
671	0.4391
680	0.4708
689	0.5517
698	0.615
707	0.6399
716	0.5975
725	0.5853
734	0.5852
743	0.7492
752	0.6389
761	0.4728
770	0.5109
779	0.793
788	0.8316
797	0.8618
806	0.8721
815	0.8746
824	0.8728
833	0.8685
842	0.8587
851	0.8438
860	0.8169
869	0.6754
878	0.7033
887	0.5955
896	0.0237
905	0.1421
914	0.6462
923	0.6428
932	0.7526
941	0.7375
950	0.4351
959	0.1931
968	0.6438
977	0.4185
986	0.6299
995	0.6741
1004	0.7922
1013	0.7934
1022	0.7314
1031	0.7565
1040	0.7475
1049	0.771
1058	0.7538
1067	0.6965
1076	0.471
1085	0.467
1094	0.2988
1103	0.6159
1112	0.6038
1121	0.5018
1130	0.3397
1139	0.0552
1148	0.0264
1157	0.2449
1166	0.4274
1175	0.469
1184	0.4332
1193	0.3462
1202	0.0471
1211	0.0555
1220	0.0905
1229	0.0679
1238	0.1194
1247	0.2853
1256	0.5587
1265	0.5923
1274	0.5979
1283	0.5883
1292	0.5381
1301	0.2042
1310	0.531
1319	0.6045
1328	0.5222
1337	0.4484
1346	0.3655
1355	0.1226
1364	0.2298
1373	0.0521
1382	0.1885
1391	0.2904
1400	0.2923
1409	0.2156
1418	0.2251
1427	0.5116
1436	0.4743
1445	0.4124
1454	0.3372
1463	0.2611
1472	0.2251
1481	0.5815
1490	0.7681
1499	0.7953
1508	0.8204
1517	0.8374
1526	0.8418
1535	0.8404
1544	0.8378
1553	0.8291
1562	0.8224
1571	0.8448
1580	0.8549
1589	0.8591
1598	0.8597
1607	0.8598
1616	0.8551
1625	0.8564
1634	0.8575
1643	0.8554
1652	0.8534
1661	0.8552
1670	0.8578
1679	0.8582
1688	0.858
1697	0.8492
1706	0.8411
1715	0.8416
1724	0.849
1733	0.8517
1742	0.8601
1751	0.8681
1760	0.8694
1769	0.8663
1778	0.8659
1787	0.8598
1796	0.8525
1805	0.8561
1814	0.8675
1823	0.8656
1832	0.8617
1841	0.8616
1850	0.8621
1859	0.8557
1868	0.8484
1877	0.8502
1886	0.8536
1895	0.8563
1904	0.8587
1913	0.861
1922	0.8631
1931	0.8642
1940	0.8633
1949	0.8615
1958	0.8634
1967	0.8658
1976	0.8638
1985	0.8618
1994	0.8527
2003	0.859
2012	0.8566
2021	0.8541
2030	0.8511
2039	0.8484
2048	0.8468
2057	0.8454
2066	0.8432
2075	0.841
2084	0.8383
2093	0.8352
2102	0.8328
2111	0.8258
2120	0.8213
2129	0.8205
2138	0.8197
2147	0.819
2156	0.8185
2165	0.8171
2174	0.815
2183	0.8125
2192	0.81
2201	0.8068
2210	0.803
2219	0.7991
2228	0.7953
2237	0.7908
2246	0.7854
2255	0.78
2264	0.7755
2273	0.7676
2282	0.7642
2291	0.763
2300	0.7618
2309	0.7648
2318	0.7728
2327	0.7596
2336	0.7576
2345	0.7561
2354	0.755
2363	0.7534
2372	0.7517
2381	0.7499
2390	0.7494
2399	0.75
2408	0.7519
2417	0.7514
2426	0.7476
2435	0.7418
2444	0.7386
2453	0.7368
2462	0.7342
2471	0.7307
2480	0.7262
2489	0.7214
2498	0.7139
2507	0.7065
2516	0.6995
2525	0.6928
2534	0.6865
2543	0.6804
2552	0.6738
2561	0.6668
2570	0.6608
2579	0.658
2588	0.6571
2597	0.6555
2606	0.654
2615	0.6534
2624	0.653
2633	0.6504
2642	0.6432
2651	0.6401
2660	0.6401
2669	0.64
2678	0.6374
2687	0.6303
2696	0.6199
2705	0.6196
2714	0.622
2723	0.6129
2732	0.6012
2741	0.591
2750	0.5776
2759	0.5646
2768	0.5588
2777	0.5483
2786	0.5066
2795	0.4702
2804	0.4447
2813	0.4214
2822	0.3655
2831	0.2763
2840	0.2412
2849	0.1854
2858	0.1079
2867	0.2034
2876	0.1907
2885	0.1596
2894	0.0952
2903	0.0856
2912	0.0828
2921	0.0805
2930	0.0184
2939	0.0155
2948	0.1464
2957	0.0941
2966	0.0054
2975	0.0338
2984	0.3892
2993	0.7088
3002	0.72
3011	0.7172
3020	0.7106
3029	0.7003
3038	0.6874
3047	0.6706
3056	0.6539
3065	0.6339
3074	0.6169
3083	0.5999
3092	0.5855
3101	0.5696
3110	0.5525
3119	0.5343
3128	0.5128
3137	0.4827
3146	0.4544
3155	0.4255
3164	0.3939
3173	0.3564
3182	0.3207
3191	0.2788
3200	0.2352
3209	0.2034
3218	0.1752
3227	0.1454
3236	0.1158
3245	0.0891
3254	0.0656
3263	0.0411
3272	0.0215
3281	0.0133
3290	0.0108
3299	0.0095
3308	0.0093
3317	0.0096
3326	0.0098
3335	0.0103
3344	0.0109
3353	0.0117
3362	0.0122
3371	0.0152
3380	0.0227
3389	0.0388
3398	0.0697
3407	0.1222
3416	0.1913
3425	0.2374
3434	0.2743
3443	0.3158
3452	0.3691
3461	0.4507
3470	0.4923
3479	0.5619
3488	0.6186
3497	0.6647
3506	0.7115
3515	0.7494
3524	0.7734
3533	0.7841
3542	0.7918
3551	0.7955
3560	0.7972
3569	0.7915
3578	0.7825
3587	0.7917
3596	0.7895
3605	0.7849
3614	0.7839
3623	0.7815
3632	0.7781
3641	0.7744
3650	0.7708
3659	0.7674
3668	0.7646
3677	0.7618
3686	0.7589
3695	0.7557
3704	0.7525
3713	0.7498
3722	0.7468
3731	0.7439
3740	0.7408
3749	0.7375
3758	0.7348
3767	0.7322
3776	0.7294
3785	0.7262
3794	0.7224
