Infrared Spectrum: Alpha-Cyclopentylmandelic acid, methyl ester
Formula: C14 H18 O3
CAS: 19833-96-6
State: SOLUTION (10% CCl4 FOR 3800-1330, 10% CS2 FOR 1330-460 CM^-^1)
Class: COBLENTZ III
Instrument: DOW KBr FOREPRISM-GRATING
Instrument parameters: BLAZED AT 3.5, 12.0, 20.0 MICRON AND CHANGED AT 5.0, 7.5, 14.9 MICRON
Sampling: TRANSMISSION
Path length: 0.011 CM, 0.011 CM
Resolution: 2
Origin: DOW CHEMICAL COMPANY
1/CM	TRANSMITTANCE
3801	0.9181
3792.02	0.919
3783.05	0.92
3774.07	0.9193
3765.1	0.9205
3756.12	0.9209
3747.15	0.9212
3738.17	0.9219
3729.19	0.9238
3720.22	0.9219
3711.24	0.9169
3702.27	0.9156
3693.29	0.9143
3684.31	0.9136
3675.34	0.912
3666.36	0.9118
3657.39	0.9111
3648.41	0.91
3639.44	0.9086
3630.46	0.9066
3621.48	0.9009
3612.51	0.8857
3603.53	0.8145
3594.56	0.7262
3585.58	0.7745
3576.6	0.8289
3567.63	0.8411
3558.65	0.8297
3549.68	0.7798
3540.7	0.6882
3531.73	0.4536
3522.75	0.3574
3513.77	0.2903
3504.8	0.3694
3495.82	0.5127
3486.85	0.6617
3477.87	0.7463
3468.89	0.798
3459.92	0.8267
3450.94	0.8418
3441.97	0.8494
3432.99	0.8517
3424.02	0.854
3415.04	0.8714
3406.06	0.8811
3397.09	0.8864
3388.11	0.8901
3379.14	0.8929
3370.16	0.8947
3361.18	0.8962
3352.21	0.8974
3343.23	0.8987
3334.26	0.9
3325.28	0.9003
3316.31	0.901
3307.33	0.9015
3298.35	0.9032
3289.38	0.9021
3280.4	0.9018
3271.43	0.9026
3262.45	0.9024
3253.47	0.902
3244.5	0.901
3235.52	0.9001
3226.55	0.8989
3217.57	0.8967
3208.6	0.8957
3199.62	0.893
3190.64	0.8923
3181.67	0.8905
3172.69	0.8855
3163.72	0.8733
3154.74	0.8677
3145.76	0.8685
3136.79	0.8672
3127.81	0.8677
3118.84	0.8644
3109.86	0.8526
3100.89	0.806
3091.91	0.7187
3082.93	0.7476
3073.96	0.7005
3064.98	0.6339
3056.01	0.6658
3047.03	0.7319
3038.05	0.6828
3029.08	0.633
3020.1	0.6432
3011.13	0.6837
3002.15	0.6389
2993.18	0.6377
2984.2	0.5909
2975.22	0.4035
2966.25	0.1837
2957.27	0.0824
2948.3	0.0608
2939.32	0.1607
2930.34	0.3679
2921.37	0.471
2912.39	0.4676
2903.42	0.4662
2894.44	0.6553
2885.47	0.6471
2876.49	0.5044
2867.51	0.2649
2858.54	0.5484
2849.56	0.6795
2840.59	0.7515
2831.61	0.8008
2822.63	0.8283
2813.66	0.847
2804.68	0.8574
2795.71	0.8653
2786.73	0.8697
2777.76	0.8704
2768.78	0.8714
2759.8	0.8717
2750.83	0.8734
2741.85	0.8752
2732.88	0.8782
2723.9	0.8814
2714.92	0.884
2705.95	0.8862
2696.97	0.888
2688	0.8898
2679.02	0.8906
2670.05	0.891
2661.07	0.8903
2652.09	0.8888
2643.12	0.8869
2634.14	0.8849
2625.17	0.8843
2616.19	0.8859
2607.21	0.888
2598.24	0.8872
2589.26	0.8863
2580.29	0.8873
2571.31	0.8895
2562.34	0.8924
2553.36	0.8951
2544.38	0.8957
2535.41	0.8964
2526.43	0.8962
2517.46	0.8959
2508.48	0.8953
2499.5	0.8944
2490.53	0.8939
2481.55	0.8946
2472.58	0.8967
2463.6	0.8973
2454.63	0.8982
2445.65	0.8986
2436.67	0.8989
2427.7	0.8989
2418.72	0.8987
2409.75	0.8986
2400.77	0.9
2391.79	0.9009
2382.82	0.9017
2373.84	0.9058
2364.87	0.91
2355.89	0.9079
2346.92	0.912
2337.94	0.9125
2328.96	0.9161
2319.99	0.9203
2311.01	0.9103
2302.04	0.9075
2293.06	0.9052
2284.08	0.9057
2275.11	0.908
2266.13	0.9093
2257.16	0.9043
2248.18	0.9027
2239.21	0.9033
2230.23	0.9066
2221.25	0.9085
2212.28	0.9076
2203.3	0.9045
2194.33	0.9008
2185.35	0.9001
2176.37	0.902
2167.4	0.9042
2158.42	0.9037
2149.45	0.9026
2140.47	0.9006
2131.5	0.9029
2122.52	0.9038
2113.54	0.9015
2104.57	0.8977
2095.59	0.8938
2086.62	0.8902
2077.64	0.8896
2068.67	0.8894
2059.69	0.8893
2050.71	0.8895
2041.74	0.891
2032.76	0.8918
2023.79	0.8925
2014.81	0.8941
2005.83	0.8945
1996.86	0.8926
1987.88	0.888
1978.91	0.8887
1969.93	0.8808
1960.96	0.8586
1951.98	0.8447
1943	0.8669
1934.03	0.8856
1925.05	0.8869
1916.08	0.8861
1907.1	0.8756
1898.12	0.8671
1889.15	0.8599
1880.17	0.8671
1871.2	0.8754
1862.22	0.8799
1853.25	0.8812
1844.27	0.8804
1835.29	0.8776
1826.32	0.8662
1817.34	0.8419
1808.37	0.8202
1799.39	0.828
1790.41	0.84
1781.44	0.8289
1772.46	0.7795
1763.49	0.6918
1754.51	0.4867
1745.54	0.2846
1736.56	0.1426
1727.58	0.0031
1718.61	0.0491
1709.63	0.5547
1700.66	0.6908
1691.68	0.7468
1682.7	0.7678
1673.73	0.8178
1664.75	0.831
1655.78	0.8346
1646.8	0.8371
1637.83	0.8409
1628.85	0.8441
1619.87	0.8441
1610.9	0.8487
1601.92	0.7422
1592.95	0.765
1583.97	0.7599
1574.99	0.7726
1566.02	0.7446
1557.04	0.7191
1548.07	0.7384
1539.09	0.7717
1530.12	0.8039
1521.14	0.8066
1512.16	0.7964
1503.19	0.6418
1494.21	0.5375
1485.24	0.627
1476.26	0.7099
1467.28	0.7108
1458.31	0.5766
1449.33	0.1865
1440.36	0.3435
1431.38	0.6812
1422.41	0.7794
1413.43	0.8114
1404.45	0.8137
1395.48	0.7996
1386.5	0.7563
1377.53	0.6914
1368.55	0.6374
1359.57	0.6645
1350.6	0.6917
1341.62	0.6871
1332.65	0.6623
1323.67	0.6534
1314.7	0.6119
1305.72	0.6339
1296.74	0.6293
1287.77	0.6024
1278.79	0.5242
1269.82	0.3213
1260.84	0.1121
1251.86	0.0172
1242.89	0.0625
1233.91	0.1373
1224.94	0.2395
1215.96	0.4072
1206.99	0.4706
1198.01	0.2018
1189.03	0.1131
1180.06	0.2157
1171.08	0.0996
1162.11	0.3472
1153.13	0.5933
1144.15	0.6701
1135.18	0.6491
1126.2	0.488
1117.23	0.3844
1108.25	0.4663
1099.28	0.4084
1090.3	0.5623
1081.32	0.688
1072.35	0.3972
1063.37	0.5393
1054.4	0.7025
1045.42	0.6554
1036.44	0.4991
1027.47	0.5993
1018.49	0.6875
1009.52	0.783
1000.54	0.7732
991.566	0.7896
982.59	0.6275
973.614	0.6645
964.638	0.7529
955.662	0.6523
946.686	0.6681
937.711	0.7465
928.735	0.7827
919.759	0.7546
910.783	0.8061
901.807	0.8201
892.831	0.8296
883.856	0.8203
874.88	0.8296
865.904	0.7914
856.928	0.8259
847.952	0.8495
838.976	0.8471
830.001	0.8583
821.025	0.8646
812.049	0.8736
803.073	0.8548
794.097	0.7218
785.121	0.7795
776.146	0.8075
767.17	0.7608
758.194	0.6222
749.218	0.5165
740.242	0.5137
731.266	0.2114
722.291	0.6114
713.315	0.5246
704.339	0.1685
695.363	0.453
686.387	0.7435
677.412	0.8314
668.436	0.8389
659.46	0.8469
650.484	0.8413
641.508	0.8478
632.532	0.8281
623.557	0.7461
614.581	0.7087
605.605	0.7795
596.629	0.8449
587.653	0.8769
578.677	0.8803
569.702	0.872
560.726	0.8535
551.75	0.84
542.774	0.8404
533.798	0.8413
524.822	0.8279
515.847	0.7584
506.871	0.7013
497.895	0.7547
488.919	0.7662
479.943	0.762
470.967	0.7515
461.992	0.7399
