Infrared Spectrum: Pipecolamide
Formula: C6 H12 N2 O
CAS: 19889-77-1
State: SOLID (SPLIT MULL)
Class: COBLENTZ II
Instrument: BECKMAN IR-9 (GRATING)
Instrument parameters: ORDER CHANGES: 670, 1200, 2000 CM^-^1
Sampling: TRANSMISSION
Resolution: 2
Origin: DOW CHEMICAL COMPANY
1/CM	TRANSMITTANCE
3800	0.7312
3791	0.7324
3782	0.7338
3773	0.7351
3764	0.7365
3755	0.738
3746	0.7395
3737	0.741
3728	0.7425
3719	0.744
3710	0.7455
3701	0.7469
3692	0.7495
3683	0.7521
3674	0.7548
3665	0.7571
3656	0.7591
3647	0.761
3638	0.7628
3629	0.7645
3620	0.7661
3611	0.7668
3602	0.7675
3593	0.7686
3584	0.7707
3575	0.7722
3566	0.774
3557	0.7756
3548	0.7778
3539	0.7803
3530	0.7826
3521	0.7854
3512	0.7881
3503	0.7903
3494	0.7921
3485	0.7926
3476	0.7928
3467	0.7924
3458	0.7921
3449	0.7905
3440	0.7851
3431	0.7751
3422	0.7624
3413	0.7468
3404	0.7264
3395	0.6925
3386	0.6528
3377	0.6215
3368	0.5792
3359	0.5227
3350	0.463
3341	0.3907
3332	0.3075
3323	0.3147
3314	0.3272
3305	0.322
3296	0.2992
3287	0.3679
3278	0.4009
3269	0.4146
3260	0.4251
3251	0.4312
3242	0.4357
3233	0.4378
3224	0.4338
3215	0.4252
3206	0.413
3197	0.4029
3188	0.3968
3179	0.3946
3170	0.3946
3161	0.4016
3152	0.4143
3143	0.429
3134	0.4473
3125	0.466
3116	0.4854
3107	0.5025
3098	0.5172
3089	0.532
3080	0.5542
3071	0.5732
3062	0.5893
3053	0.6053
3044	0.6212
3035	0.6335
3026	0.6458
3017	0.6597
3008	0.6738
2999	0.6875
2990	0.7003
2981	0.7048
2972	0.7093
2963	0.6457
2954	0.4806
2945	0.6068
2936	0.2006
2927	0.262
2918	0.3856
2909	0.4675
2900	0.4859
2891	0.5968
2882	0.6143
2873	0.6256
2864	0.6225
2855	0.5156
2846	0.4793
2837	0.5107
2828	0.5236
2819	0.4915
2810	0.5008
2801	0.5896
2792	0.6139
2783	0.6295
2774	0.6369
2765	0.6419
2756	0.6488
2747	0.6554
2738	0.6561
2729	0.6432
2720	0.6531
2711	0.6671
2702	0.6791
2693	0.6899
2684	0.6975
2675	0.6941
2666	0.6972
2657	0.7069
2648	0.7146
2639	0.7218
2630	0.7289
2621	0.7324
2612	0.7268
2603	0.728
2594	0.73
2585	0.7321
2576	0.7343
2567	0.7365
2558	0.7383
2549	0.7394
2540	0.7406
2531	0.7417
2522	0.7428
2513	0.7441
2504	0.7454
2495	0.7471
2486	0.749
2477	0.7508
2468	0.7525
2459	0.7542
2450	0.7553
2441	0.7562
2432	0.7571
2423	0.7575
2414	0.7581
2405	0.7584
2396	0.7601
2387	0.7639
2378	0.7703
2369	0.7701
2360	0.7678
2351	0.7661
2342	0.7646
2333	0.7641
2324	0.7637
2315	0.7633
2306	0.7643
2297	0.7654
2288	0.7671
2279	0.7694
2270	0.7718
2261	0.7753
2252	0.7789
2243	0.7826
2234	0.7867
2225	0.7906
2216	0.7944
2207	0.7981
2198	0.8018
2189	0.8057
2180	0.8096
2171	0.8136
2162	0.8176
2153	0.8217
2144	0.8253
2135	0.8289
2126	0.8325
2117	0.835
2108	0.8375
2099	0.84
2090	0.8428
2081	0.8457
2072	0.8487
2063	0.8516
2054	0.8545
2045	0.8567
2036	0.8582
2027	0.8596
2018	0.8605
2009	0.8617
2000	0.8636
1991	0.8671
1982	0.8697
1973	0.8723
1964	0.8743
1955	0.8767
1946	0.8786
1937	0.881
1928	0.8835
1919	0.886
1910	0.8884
1901	0.8907
1892	0.8918
1883	0.8927
1874	0.8939
1865	0.895
1856	0.8958
1847	0.8964
1838	0.8965
1829	0.8963
1820	0.8958
1811	0.8951
1802	0.8942
1793	0.8934
1784	0.8927
1775	0.8911
1766	0.8893
1757	0.8875
1748	0.8858
1739	0.8809
1730	0.8623
1721	0.8393
1712	0.8202
1703	0.7818
1694	0.6974
1685	0.6128
1676	0.4716
1667	0.0878
1658	0.0473
1649	0.1979
1640	0.335
1631	0.4476
1622	0.5053
1613	0.5584
1604	0.5875
1595	0.604
1586	0.61
1577	0.6134
1568	0.6344
1559	0.6681
1550	0.6946
1541	0.7119
1532	0.7245
1523	0.7345
1514	0.7428
1505	0.7496
1496	0.7549
1487	0.7567
1478	0.753
1469	0.6139
1460	0.5064
1451	0.451
1442	0.4622
1433	0.4867
1424	0.3798
1415	0.4419
1406	0.4828
1397	0.5454
1388	0.5868
1379	0.5992
1370	0.5892
1361	0.6312
1352	0.6264
1343	0.5926
1334	0.5979
1325	0.6026
1316	0.4625
1307	0.0462
1298	0.3825
1289	0.5592
1280	0.6041
1271	0.6284
1262	0.5831
1253	0.6571
1244	0.6408
1235	0.6947
1226	0.7075
1217	0.7037
1208	0.6435
1199	0.7131
1190	0.7276
1181	0.7314
1172	0.7287
1163	0.7214
1154	0.5923
1145	0.7061
1136	0.6965
1127	0.2819
1118	0.5704
1109	0.3192
1100	0.6004
1091	0.7025
1082	0.7069
1073	0.7074
1064	0.7125
1055	0.686
1046	0.4892
1037	0.6617
1028	0.7139
1019	0.7328
1010	0.7391
1001	0.7403
992	0.7394
983	0.7365
974	0.7111
965	0.6987
956	0.6515
947	0.6189
938	0.7122
929	0.7078
920	0.6958
911	0.641
902	0.6474
893	0.4895
884	0.3143
875	0.452
866	0.5847
857	0.6419
848	0.5923
839	0.5266
830	0.455
821	0.5877
812	0.6926
803	0.5623
794	0.653
785	0.6639
776	0.6503
767	0.6329
758	0.6062
749	0.521
740	0.4076
731	0.2479
722	0.2581
713	0.4029
704	0.586
695	0.3712
686	0.3019
677	0.5476
668	0.6442
659	0.6611
650	0.6078
641	0.6028
632	0.705
623	0.7358
614	0.7518
605	0.7592
596	0.7625
587	0.7634
578	0.7642
569	0.7622
560	0.7458
551	0.5571
542	0.6801
533	0.7372
524	0.7361
515	0.7171
506	0.736
497	0.6518
488	0.7467
479	0.7418
470	0.7305
461	0.7098
452	0.6545
443	0.6443
434	0.6076
425	0.5253
416	0.5254
407	0.591
398	0.7172
