Infrared Spectrum: SURINAMINE
Formula: C10 H13 N O3
CAS: 19897-63-3
State: SOLID (2 mg / 100 mg KBr DISC) VS. KBr
Class: COBLENTZ III
Instrument: BECKMAN IR-4 (HYBRID PRISM-GRATING)
Sampling: TRANSMISSION
Resolution: 4
Origin: UNIVERSITY OF FLORIDA
MICROMETERS	TRANSMITTANCE
1.004	0.504
1.04051	0.509
1.07703	0.522
1.11354	0.529
1.15006	0.539
1.18657	0.548
1.22309	0.55
1.2596	0.559
1.29612	0.569
1.33263	0.578
1.36915	0.586
1.40566	0.591
1.44218	0.599
1.47869	0.604
1.51521	0.61
1.55172	0.618
1.58824	0.627
1.62475	0.635
1.66127	0.642
1.69778	0.65
1.7343	0.652
1.77081	0.653
1.80733	0.657
1.84384	0.661
1.88036	0.667
1.91687	0.671
1.95339	0.671
1.9899	0.674
2.02642	0.68
2.06293	0.683
2.09945	0.69
2.13596	0.695
2.17248	0.695
2.20899	0.699
2.24551	0.7
2.28202	0.708
2.31854	0.712
2.35505	0.719
2.39157	0.721
2.42808	0.723
2.4646	0.73
2.50111	0.738
2.53763	0.74
2.57414	0.738
2.61066	0.73
2.64717	0.726
2.68369	0.711
2.7202	0.687
2.75672	0.67
2.79323	0.657
2.82975	0.637
2.86626	0.62
2.90278	0.617
2.93929	0.623
2.97581	0.623
3.01232	0.602
3.04884	0.543
3.08535	0.435
3.12187	0.347
3.15838	0.413
3.1949	0.397
3.23141	0.366
3.26793	0.328
3.30444	0.315
3.34096	0.311
3.37747	0.313
3.41399	0.331
3.4505	0.357
3.48702	0.37
3.52353	0.32
3.56005	0.333
3.59656	0.327
3.63307	0.31
3.66959	0.294
3.7061	0.29
3.74262	0.313
3.77913	0.289
3.81565	0.286
3.85216	0.312
3.88868	0.337
3.92519	0.357
3.96171	0.366
3.99822	0.377
4.03474	0.39
4.07125	0.397
4.10777	0.397
4.14428	0.397
4.1808	0.402
4.21731	0.437
4.25383	0.438
4.29034	0.447
4.32686	0.449
4.36337	0.457
4.39989	0.471
4.4364	0.493
4.47292	0.509
4.50943	0.531
4.54595	0.549
4.58246	0.577
4.61898	0.595
4.65549	0.609
4.69201	0.629
4.72852	0.646
4.76504	0.65
4.80155	0.659
4.83807	0.669
4.87458	0.676
4.9111	0.677
4.94761	0.677
4.98413	0.679
5.02064	0.684
5.05716	0.688
5.09367	0.694
5.13019	0.697
5.1667	0.701
5.20322	0.701
5.23973	0.697
5.27625	0.699
5.31276	0.715
5.34928	0.716
5.38579	0.711
5.42231	0.71
5.45882	0.708
5.49534	0.707
5.53185	0.697
5.56837	0.689
5.60488	0.685
5.6414	0.677
5.67791	0.646
5.71443	0.598
5.75094	0.571
5.78746	0.558
5.82397	0.561
5.86049	0.56
5.897	0.557
5.93352	0.547
5.97003	0.528
6.00655	0.5
6.04306	0.418
6.07958	0.371
6.11609	0.3
6.15261	0.225
6.18912	0.141
6.22563	0.104
6.26215	0.072
6.29866	0.09
6.33518	0.172
6.37169	0.293
6.40821	0.381
6.44472	0.401
6.48124	0.39
6.51775	0.318
6.55427	0.236
6.59078	0.228
6.6273	0.266
6.66381	0.298
6.70033	0.298
6.73684	0.279
6.77336	0.307
6.80987	0.316
6.84639	0.318
6.8829	0.311
6.91942	0.278
6.95593	0.347
6.99245	0.397
7.02896	0.348
7.06548	0.326
7.10199	0.31
7.13851	0.203
7.17502	0.13
7.21154	0.157
7.24805	0.238
7.28457	0.316
7.32108	0.387
7.3576	0.431
7.39411	0.494
7.43063	0.527
7.46714	0.476
7.50366	0.412
7.54017	0.263
7.57669	0.236
7.6132	0.343
7.64972	0.447
7.68623	0.49
7.72275	0.515
7.75926	0.517
7.79578	0.47
7.83229	0.367
7.86881	0.316
7.90532	0.203
7.94184	0.177
7.97835	0.156
8.01487	0.188
8.05138	0.298
8.0879	0.369
8.12441	0.436
8.16093	0.478
8.19744	0.495
8.23396	0.482
8.27047	0.502
8.30699	0.522
8.3435	0.545
8.38002	0.568
8.41653	0.587
8.45305	0.579
8.48956	0.51
8.52608	0.575
8.56259	0.628
8.59911	0.647
8.63562	0.637
8.67214	0.608
8.70865	0.544
8.74517	0.494
8.78168	0.531
8.81819	0.599
8.85471	0.638
8.89122	0.66
8.92774	0.669
8.96425	0.668
9.00077	0.62
9.03728	0.448
9.0738	0.327
9.11031	0.481
9.14683	0.598
9.18334	0.641
9.21986	0.667
9.25637	0.679
9.29289	0.687
9.3294	0.694
9.36592	0.697
9.40243	0.686
9.43895	0.637
9.47546	0.58
9.51198	0.614
9.54849	0.659
9.58501	0.681
9.62152	0.703
9.65804	0.712
9.69455	0.716
9.73107	0.717
9.76758	0.718
9.8041	0.714
9.84061	0.687
9.87713	0.677
9.91364	0.592
9.95016	0.569
9.98667	0.627
10.0232	0.626
10.0597	0.587
10.0962	0.606
10.1327	0.655
10.1692	0.684
10.2058	0.696
10.2423	0.705
10.2788	0.708
10.3153	0.7
10.3518	0.698
10.3883	0.711
10.4249	0.717
10.4614	0.711
10.4979	0.703
10.5344	0.66
10.5709	0.607
10.6074	0.589
10.6439	0.639
10.6805	0.622
10.717	0.623
10.7535	0.65
10.79	0.667
10.8265	0.668
10.863	0.663
10.8995	0.654
10.9361	0.629
10.9726	0.61
11.0091	0.59
11.0456	0.574
11.0821	0.555
11.1186	0.546
11.1552	0.541
11.1917	0.546
11.2282	0.549
11.2647	0.556
11.3012	0.56
11.3377	0.564
11.3742	0.562
11.4108	0.549
11.4473	0.538
11.4838	0.532
11.5203	0.524
11.5568	0.52
11.5933	0.529
11.6298	0.55
11.6664	0.581
11.7029	0.617
11.7394	0.642
11.7759	0.65
11.8124	0.645
11.8489	0.613
11.8854	0.57
11.922	0.509
11.9585	0.418
11.995	0.3
12.0315	0.275
12.068	0.299
12.1045	0.329
12.1411	0.39
12.1776	0.479
12.2141	0.539
12.2506	0.578
12.2871	0.603
12.3236	0.638
12.3601	0.649
12.3967	0.658
12.4332	0.664
12.4697	0.668
12.5062	0.67
12.5427	0.67
12.5792	0.678
12.6157	0.683
12.6523	0.681
12.6888	0.676
12.7253	0.655
12.7618	0.656
12.7983	0.671
12.8348	0.693
12.8714	0.7
12.9079	0.706
12.9444	0.709
12.9809	0.709
13.0174	0.709
13.0539	0.71
13.0904	0.711
13.127	0.716
13.1635	0.717
13.2	0.717
13.2365	0.713
13.273	0.71
13.3095	0.704
13.346	0.698
13.3826	0.69
13.4191	0.679
13.4556	0.656
13.4921	0.614
13.5286	0.572
13.5651	0.568
13.6017	0.607
13.6382	0.652
13.6747	0.68
13.7112	0.699
13.7477	0.711
13.7842	0.714
13.8207	0.716
13.8573	0.708
13.8938	0.689
13.9303	0.647
13.9668	0.629
14.0033	0.65
14.0398	0.684
14.0763	0.7
14.1129	0.711
14.1494	0.715
14.1859	0.716
14.2224	0.716
14.2589	0.715
14.2954	0.713
14.3319	0.712
14.3685	0.709
14.405	0.707
14.4415	0.703
14.478	0.698
14.5145	0.693
14.551	0.686
14.5876	0.681
14.6241	0.684
14.6606	0.684
14.6971	0.683
14.7336	0.683
14.7701	0.682
14.8066	0.681
14.8432	0.678
14.8797	0.679
14.9162	0.68
14.9527	0.683
14.9892	0.685
