Infrared Spectrum: (p-Aminobenzyl)phosphonic acid, diethyl ester
Formula: C11 H18 N O3 P
CAS: 20074-79-7
State: SOLID (SPLIT MULL)
Melting point: 90 C
Class: COBLENTZ III
Instrument: DOW KBr FOREPRISM-GRATING
Instrument parameters: BLAZED AT 3.5, 12.0, 20.0 MICRON AND CHANGED AT 5.0, 7.5, 14.9 MICRON
Sampling: TRANSMISSION
Resolution: 2
Origin: DOW CHEMICAL COMPANY
1/CM	TRANSMITTANCE
383	0.6682
392	0.6699
401	0.6672
410	0.6618
419	0.6617
428	0.6689
437	0.679
446	0.6828
455	0.6621
464	0.6137
473	0.632
482	0.6607
491	0.5588
500	0.3809
509	0.411
518	0.5633
527	0.6808
536	0.6815
545	0.6542
554	0.5114
563	0.2379
572	0.3034
581	0.581
590	0.6151
599	0.6332
608	0.6451
617	0.6533
626	0.6584
635	0.6604
644	0.6667
653	0.6919
662	0.7121
671	0.7289
680	0.7437
689	0.7533
698	0.7153
707	0.6671
716	0.6571
725	0.6425
734	0.6486
743	0.6912
752	0.655
761	0.6898
770	0.6817
779	0.6326
788	0.511
797	0.3564
806	0.5112
815	0.5901
824	0.6137
833	0.3157
842	0.5056
851	0.1505
860	0.6517
869	0.7222
878	0.7188
887	0.7017
896	0.6974
905	0.6847
914	0.6587
923	0.59
932	0.5345
941	0.377
950	0.261
959	0.0903
968	0.0884
977	0.1496
986	0.4851
995	0.4881
1004	0.294
1013	0.1225
1022	0.0261
1031	0.0419
1040	0.0657
1049	0.0276
1058	0.0699
1067	0.2367
1076	0.3566
1085	0.465
1094	0.4653
1103	0.4665
1112	0.551
1121	0.4615
1130	0.4264
1139	0.5938
1148	0.5652
1157	0.458
1166	0.5205
1175	0.5042
1184	0.5512
1193	0.4243
1202	0.4834
1211	0.2644
1220	0.0684
1229	0.1306
1238	0.2575
1247	0.211
1256	0.4942
1265	0.5832
1274	0.5495
1283	0.4619
1292	0.2647
1301	0.4409
1310	0.5392
1319	0.6721
1328	0.6886
1337	0.6928
1346	0.7501
1355	0.7801
1364	0.7061
1373	0.7845
1382	0.7197
1391	0.5931
1400	0.6978
1409	0.7589
1418	0.816
1427	0.7895
1436	0.7089
1445	0.7474
1454	0.7787
1463	0.7764
1472	0.7183
1481	0.7269
1490	0.7071
1499	0.6469
1508	0.4837
1517	0.1012
1526	0.6414
1535	0.8818
1544	0.8855
1553	0.8802
1562	0.8714
1571	0.847
1580	0.8075
1589	0.7949
1598	0.7008
1607	0.3389
1616	0.4314
1625	0.3693
1634	0.4026
1643	0.7158
1652	0.8568
1661	0.8897
1670	0.9032
1679	0.9078
1688	0.9075
1697	0.9052
1706	0.8988
1715	0.8938
1724	0.8925
1733	0.8914
1742	0.8815
1751	0.8707
1760	0.8681
1769	0.8731
1778	0.8783
1787	0.8818
1796	0.8828
1805	0.8825
1814	0.8803
1823	0.8791
1832	0.8768
1841	0.8736
1850	0.867
1859	0.8581
1868	0.8455
1877	0.8474
1886	0.8738
1895	0.8771
1904	0.879
1913	0.8794
1922	0.8786
1931	0.8777
1940	0.8755
1949	0.8741
1958	0.8818
1967	0.8703
1976	0.8689
1985	0.8675
1994	0.8566
2003	0.8482
2012	0.8474
2021	0.8456
2030	0.842
2039	0.8388
2048	0.8357
2057	0.8324
2066	0.8291
2075	0.8258
2084	0.8228
2093	0.8198
2102	0.8171
2111	0.8142
2120	0.8111
2129	0.808
2138	0.8046
2147	0.8011
2156	0.7978
2165	0.7947
2174	0.7915
2183	0.7875
2192	0.7836
2201	0.7793
2210	0.7745
2219	0.7697
2228	0.7651
2237	0.7608
2246	0.7565
2255	0.7517
2264	0.7468
2273	0.7435
2282	0.741
2291	0.7393
2300	0.7358
2309	0.7255
2318	0.7164
2327	0.7317
2336	0.7334
2345	0.7321
2354	0.7307
2363	0.7304
2372	0.7319
2381	0.7341
2390	0.7334
2399	0.7311
2408	0.7293
2417	0.7275
2426	0.7251
2435	0.7226
2444	0.7211
2453	0.7205
2462	0.7203
2471	0.72
2480	0.7199
2489	0.719
2498	0.7185
2507	0.718
2516	0.7171
2525	0.7156
2534	0.7133
2543	0.7108
2552	0.7086
2561	0.7061
2570	0.7021
2579	0.6982
2588	0.6945
2597	0.6925
2606	0.6907
2615	0.6893
2624	0.6881
2633	0.6864
2642	0.6847
2651	0.6828
2660	0.6808
2669	0.6786
2678	0.6756
2687	0.6721
2696	0.6683
2705	0.6639
2714	0.6595
2723	0.6561
2732	0.6531
2741	0.6518
2750	0.6508
2759	0.6483
2768	0.6446
2777	0.6404
2786	0.6354
2795	0.63
2804	0.6239
2813	0.6173
2822	0.6088
2831	0.5989
2840	0.5882
2849	0.5757
2858	0.5612
2867	0.557
2876	0.5546
2885	0.5066
2894	0.4577
2903	0.395
2912	0.4315
2921	0.489
2930	0.479
2939	0.4966
2948	0.4964
2957	0.4646
2966	0.4265
2975	0.3664
2984	0.3138
2993	0.4032
3002	0.532
3011	0.5553
3020	0.5565
3029	0.5471
3038	0.5462
3047	0.5846
3056	0.5919
3065	0.5859
3074	0.5935
3083	0.5969
3092	0.5915
3101	0.5899
3110	0.59
3119	0.5877
3128	0.5825
3137	0.5767
3146	0.5692
3155	0.5604
3164	0.5507
3173	0.5396
3182	0.5269
3191	0.5123
3200	0.4962
3209	0.4779
3218	0.4433
3227	0.4016
3236	0.3558
3245	0.3312
3254	0.3977
3263	0.4556
3272	0.4846
3281	0.4879
3290	0.4815
3299	0.4702
3308	0.4535
3317	0.4286
3326	0.3925
3335	0.3338
3344	0.2402
3353	0.2109
3362	0.3784
3371	0.4838
3380	0.4773
3389	0.4478
3398	0.3903
3407	0.3357
3416	0.2744
3425	0.2162
3434	0.2179
3443	0.3723
3452	0.5028
3461	0.5649
3470	0.5815
3479	0.5843
3488	0.5835
3497	0.5821
3506	0.582
3515	0.5842
3524	0.5859
3533	0.5855
3542	0.5838
3551	0.5802
3560	0.5764
3569	0.5724
3578	0.566
3587	0.5655
3596	0.5683
3605	0.5673
3614	0.5644
3623	0.5608
3632	0.5576
3641	0.5543
3650	0.5507
3659	0.5472
3668	0.5441
3677	0.5409
3686	0.5381
3695	0.5355
3704	0.533
3713	0.5308
3722	0.5286
3731	0.5264
3740	0.5242
3749	0.522
3758	0.5198
3767	0.5176
3776	0.5154
