Infrared Spectrum: 2-PROPANOL, 1-CHLORO-3-(1-NAPHTHYLOXY)-
Formula: C13 H13 Cl O2
CAS: 20133-93-1
State: SOLUTION (10% CS2 FOR 3800-460 CM^-^1)
Class: COBLENTZ
Instrument: DOW KBr FOREPRISM-GRATING
Instrument parameters: BLAZED AT 3.5, 12.0, 20.0 MICRON AND CHANGED AT 5.0, 7.5, 14.9 MICRON
Sampling: TRANSMISSION
Path length: 0.011 CM
Resolution: 2
Origin: DOW CHEMICAL COMPANY
1/CM	TRANSMITTANCE
460	0.6293
469	0.6295
478	0.6317
487	0.6167
496	0.661
505	0.6711
514	0.664
523	0.6615
532	0.6775
541	0.6756
550	0.6686
559	0.6754
568	0.5469
577	0.6097
586	0.6735
595	0.6746
604	0.6768
613	0.6478
622	0.6761
631	0.6528
640	0.6703
649	0.6788
658	0.7137
667	0.7443
676	0.7547
685	0.76
694	0.7498
703	0.7088
712	0.6542
721	0.7186
730	0.5249
739	0.5668
748	0.5706
757	0.4869
766	0.1277
775	0.2301
784	0.5299
793	0.1911
802	0.6375
811	0.7562
820	0.781
829	0.7678
838	0.7221
847	0.6119
856	0.5734
865	0.61
874	0.6028
883	0.7091
892	0.7357
901	0.7104
910	0.7085
919	0.689
928	0.7092
937	0.7018
946	0.6841
955	0.6431
964	0.6968
973	0.7468
982	0.7372
991	0.7028
1000	0.6376
1009	0.6001
1018	0.5222
1027	0.4184
1036	0.596
1045	0.5106
1054	0.4856
1063	0.4016
1072	0.2896
1081	0.3689
1090	0.3916
1099	0.1904
1108	0.0577
1117	0.2998
1126	0.5019
1135	0.6664
1144	0.6693
1153	0.5208
1162	0.6167
1171	0.6243
1180	0.3991
1189	0.5735
1198	0.6475
1207	0.6153
1216	0.4747
1225	0.4538
1234	0.3239
1243	0.0735
1252	0.4931
1261	0.3092
1270	0.0614
1279	0.2789
1288	0.5231
1297	0.5839
1306	0.6454
1315	0.6596
1324	0.6878
1333	0.6749
1342	0.6626
1351	0.6045
1360	0.5762
1369	0.5366
1378	0.4438
1387	0.3275
1396	0.1505
1405	0.1103
1414	0.3126
1423	0.1984
1432	0.1183
1441	0.0452
1450	0.0045
1459	0
1468	0
1477	0
1486	0
1495	0
1504	0
1513	0
1522	0.0001
1531	0.0001
1540	0.0001
1549	0.0001
1558	0.0002
1567	0.0002
1576	0.0069
1585	0.0244
1594	0.1358
1603	0.262
1612	0.4897
1621	0.5862
1630	0.5734
1639	0.6801
1648	0.7601
1657	0.791
1666	0.8124
1675	0.826
1684	0.8114
1693	0.8283
1702	0.8384
1711	0.8321
1720	0.7997
1729	0.8303
1738	0.836
1747	0.8527
1756	0.8598
1765	0.8567
1774	0.8664
1783	0.8674
1792	0.858
1801	0.8468
1810	0.8566
1819	0.8447
1828	0.8212
1837	0.8496
1846	0.8598
1855	0.868
1864	0.8735
1873	0.8749
1882	0.8735
1891	0.8687
1900	0.8452
1909	0.8216
1918	0.8443
1927	0.8434
1936	0.8552
1945	0.8543
1954	0.8549
1963	0.8681
1972	0.8721
1981	0.8732
1990	0.8766
1999	0.8781
2008	0.8866
2017	0.8907
2026	0.8914
2035	0.8901
2044	0.8875
2053	0.882
2062	0.875
2071	0.8653
2080	0.8505
2089	0.8288
2098	0.7875
2107	0.7265
2116	0.5849
2125	0.4256
2134	0.1996
2143	0.049
2152	0.0075
2161	0.0043
2170	0.0146
2179	0.0626
2188	0.1407
2197	0.2528
2206	0.5012
2215	0.71
2224	0.7714
2233	0.8004
2242	0.8275
2251	0.8318
2260	0.8258
2269	0.7967
2278	0.7239
2287	0.4674
2296	0.2631
2305	0.3671
2314	0.5712
2323	0.7437
2332	0.7921
2341	0.8277
2350	0.8575
2359	0.8708
2368	0.8698
2377	0.8661
2386	0.8684
2395	0.8723
2404	0.8699
2413	0.8655
2422	0.8668
2431	0.8721
2440	0.8725
2449	0.8715
2458	0.8704
2467	0.869
2476	0.8683
2485	0.8682
2494	0.8673
2503	0.8637
2512	0.8643
2521	0.8681
2530	0.8664
2539	0.8666
2548	0.8688
2557	0.8701
2566	0.8695
2575	0.8684
2584	0.8675
2593	0.8663
2602	0.8652
2611	0.8646
2620	0.8646
2629	0.8649
2638	0.8644
2647	0.8632
2656	0.8618
2665	0.8607
2674	0.8602
2683	0.8597
2692	0.8589
2701	0.8577
2710	0.8562
2719	0.8518
2728	0.8455
2737	0.8462
2746	0.8484
2755	0.844
2764	0.8378
2773	0.8287
2782	0.8083
2791	0.8017
2800	0.7661
2809	0.7778
2818	0.8025
2827	0.8075
2836	0.7978
2845	0.7801
2854	0.7589
2863	0.7274
2872	0.6497
2881	0.6481
2890	0.6836
2899	0.6885
2908	0.6862
2917	0.6596
2926	0.5587
2935	0.5527
2944	0.5907
2953	0.58
2962	0.6068
2971	0.7491
2980	0.7864
2989	0.7976
2998	0.7897
3007	0.7686
3016	0.7575
3025	0.7767
3034	0.7383
3043	0.6953
3052	0.4914
3061	0.5377
3070	0.6229
3079	0.7207
3088	0.7471
3097	0.7604
3106	0.7907
3115	0.7996
3124	0.8011
3133	0.7982
3142	0.7931
3151	0.7894
3160	0.7845
3169	0.779
3178	0.7734
3187	0.7675
3196	0.7618
3205	0.7558
3214	0.7497
3223	0.7433
3232	0.7369
3241	0.7301
3250	0.7233
3259	0.7165
3268	0.7107
3277	0.705
3286	0.6996
3295	0.6944
3304	0.6908
3313	0.6874
3322	0.684
3331	0.6807
3340	0.678
3349	0.6758
3358	0.6741
3367	0.6728
3376	0.6715
3385	0.6708
3394	0.6701
3403	0.6701
3412	0.6706
3421	0.6718
3430	0.6735
3439	0.6755
3448	0.6782
3457	0.681
3466	0.6844
3475	0.6889
3484	0.6957
3493	0.7043
3502	0.7131
3511	0.7221
3520	0.7298
3529	0.728
3538	0.7136
3547	0.6904
3556	0.6534
3565	0.6348
3574	0.6015
3583	0.5855
3592	0.6204
3601	0.7046
3610	0.7832
3619	0.8241
3628	0.8389
3637	0.8483
3646	0.8547
3655	0.8592
3664	0.8624
3673	0.8652
3682	0.8673
3691	0.8686
3700	0.8694
3709	0.871
3718	0.8718
3727	0.8723
3736	0.8727
3745	0.8728
3754	0.8728
3763	0.8725
