Infrared Spectrum: Aniline, 2-tert-butyl-N-cyclohexyl-
Formula: C16 H25 N
CAS: 202276-37-7
State: LIQUID (NEAT)
Class: COBLENTZ III
Instrument: BECKMAN IR-4 (HYBRID PRISM-GRATING)
Instrument parameters: NaCl PRISM
Sampling: TRANSMISSION
Path length: CAPILLARY
Resolution: 2
Origin: MONSANTO (J. FREEMAN)
1/CM	TRANSMITTANCE
626	0.8465
635	0.8762
644	0.9033
653	0.9026
662	0.9203
671	0.924
680	0.9222
689	0.9055
698	0.8636
707	0.872
716	0.8468
725	0.7551
734	0.3204
743	0.0229
752	0.3
761	0.7751
770	0.8686
779	0.8885
788	0.8712
797	0.861
806	0.8783
815	0.8545
824	0.9445
833	0.907
842	0.8245
851	0.8724
860	0.6713
869	0.9356
878	0.9279
887	0.5866
896	0.7834
905	0.9212
914	0.9466
923	0.8061
932	0.7882
941	0.9492
950	0.9531
959	0.938
968	0.9492
977	0.9014
986	0.938
995	0.9343
1004	0.8598
1013	0.9052
1022	0.8377
1031	0.8102
1040	0.8568
1049	0.6797
1058	0.2977
1067	0.8589
1076	0.7526
1085	0.7882
1094	0.7882
1103	0.642
1112	0.425
1121	0.7024
1130	0.7526
1139	0.5891
1148	0.5838
1157	0.2662
1166	0.4315
1175	0.6157
1184	0.7617
1193	0.5592
1202	0.5575
1211	0.8286
1220	0.8642
1229	0.7004
1238	0.4779
1247	0.506
1256	0.2649
1265	0.1351
1274	0.3236
1283	0.4729
1292	0.3315
1301	0.5028
1310	0.1221
1319	0.0937
1328	0.3225
1337	0.5553
1346	0.637
1355	0.5362
1364	0.6646
1373	0.3147
1382	0.5235
1391	0.7513
1400	0.5465
1409	0.5312
1418	0.6914
1427	0.6755
1436	0.4269
1445	0.1809
1454	0.0383
1463	0.1307
1472	0.2678
1481	0.3907
1490	0.3008
1499	0.3179
1508	0.1472
1517	0.0648
1526	0.0967
1535	0.2564
1544	0.3757
1553	0.6376
1562	0.7845
1571	0.7875
1580	0.6259
1589	0.1761
1598	0.3671
1607	0.2092
1616	0.2758
1625	0.5851
1634	0.7647
1643	0.868
1652	0.8965
1661	0.8958
1670	0.8859
1679	0.8838
1688	0.9014
1697	0.9248
1706	0.9439
1715	0.953
1724	0.9605
1733	0.9705
1742	0.978
1751	0.9819
1760	0.9798
1769	0.9615
1778	0.942
1787	0.9378
1796	0.9523
1805	0.9541
1814	0.9498
1823	0.9523
1832	0.9601
1841	0.9625
1850	0.9618
1859	0.9556
1868	0.9485
1877	0.9519
1886	0.949
1895	0.93
1904	0.909
1913	0.9279
1922	0.9445
1931	0.9314
1940	0.9403
1949	0.9579
1958	0.9672
1967	0.9759
1976	0.9807
1985	0.9836
1994	0.9853
2003	0.9863
2012	0.9872
2021	0.9881
2030	0.9889
2039	0.9889
2048	0.9888
2057	0.988
2066	0.9872
2075	0.9868
2084	0.9873
2093	0.9881
2102	0.9889
2111	0.9892
2120	0.9878
2129	0.9837
2138	0.9788
2147	0.975
2156	0.9756
2165	0.9799
2174	0.9798
2183	0.9782
2192	0.9762
2201	0.976
2210	0.9768
2219	0.9784
2228	0.9806
2237	0.9835
2246	0.9859
2255	0.984
2264	0.9826
2273	0.9815
2282	0.9808
2291	0.9806
2300	0.9804
2309	0.9803
2318	0.9805
2327	0.9806
2336	0.9807
2345	0.9812
2354	0.9817
2363	0.9824
2372	0.9834
2381	0.9848
2390	0.9858
2399	0.9857
2408	0.9843
2417	0.9791
2426	0.974
2435	0.9693
2444	0.9661
2453	0.9664
2462	0.9685
2471	0.9686
2480	0.968
2489	0.9669
2498	0.9655
2507	0.964
2516	0.9617
2525	0.9593
2534	0.9564
2543	0.9535
2552	0.9504
2561	0.9483
2570	0.9466
2579	0.9411
2588	0.9338
2597	0.9261
2606	0.9191
2615	0.9188
2624	0.9174
2633	0.911
2642	0.9094
2651	0.9088
2660	0.9084
2669	0.9082
2678	0.908
2687	0.8992
2696	0.8824
2705	0.8691
2714	0.8674
2723	0.8849
2732	0.8988
2741	0.9107
2750	0.911
2759	0.9093
2768	0.905
2777	0.901
2786	0.8969
2795	0.8938
2804	0.89
2813	0.8847
2822	0.8742
2831	0.8586
2840	0.8403
2849	0.8063
2858	0.781
2867	0.7528
2876	0.7304
2885	0.4388
2894	0.1253
2903	0.1288
2912	0.1432
2921	0.157
2930	0.1567
2939	0.1248
2948	0.0902
2957	0.0557
2966	0.0341
2975	0.034
2984	0.0358
2993	0.058
3002	0.0851
3011	0.1636
3020	0.2434
3029	0.3229
3038	0.4018
3047	0.4803
3056	0.5582
3065	0.6127
3074	0.6054
3083	0.5931
3092	0.5911
3101	0.5781
3110	0.5627
3119	0.5772
3128	0.6305
3137	0.6835
3146	0.7362
3155	0.7886
3164	0.8407
3173	0.8791
3182	0.8878
3191	0.8952
3200	0.9011
3209	0.9075
3218	0.9133
3227	0.9169
3236	0.9218
3245	0.9272
3254	0.932
3263	0.9364
3272	0.9404
3281	0.9426
3290	0.9439
3299	0.9439
3308	0.9438
3317	0.9434
3326	0.943
3335	0.9423
3344	0.9415
3353	0.9407
3362	0.9398
3371	0.9389
3380	0.9379
3389	0.937
3398	0.9358
3407	0.9343
3416	0.9328
3425	0.9313
3434	0.9296
3443	0.9272
3452	0.9248
3461	0.9208
3470	0.9163
3479	0.9089
3488	0.8983
3497	0.848
3506	0.7826
3515	0.7175
3524	0.6528
3533	0.5919
3542	0.5817
3551	0.6435
3560	0.7082
3569	0.7728
3578	0.8415
3587	0.8856
3596	0.8929
3605	0.9011
3614	0.9059
3623	0.9095
3632	0.9121
3641	0.9144
3650	0.9164
3659	0.9178
3668	0.9192
3677	0.9205
3686	0.921
3695	0.9215
3704	0.922
3713	0.922
3722	0.9219
3731	0.9218
3740	0.9218
3749	0.9224
3758	0.9215
3767	0.9213
3776	0.9211
3785	0.9209
3794	0.9206
3803	0.92
3812	0.9193
3821	0.9186
3830	0.9179
3839	0.9172
3848	0.9164
3857	0.9152
3866	0.9139
3875	0.9126
3884	0.9117
3893	0.9111
3902	0.9104
3911	0.91
3920	0.9101
3929	0.9102
3938	0.9102
3947	0.9099
3956	0.9096
3965	0.9093
3974	0.9083
3983	0.9072
3992	0.906
