Infrared Spectrum: 4,5-METHYLENE-PHENANTHRENE
Formula: C15 H10
CAS: 203-64-5
State: SOLUTION (SATURATED IN BENZENE)
Class: COBLENTZ
Instrument: Not specified, most likely a prism, grating, or hybrid spectrometer.
Sampling: TRANSMISSION
Path length: 0.05 CM
Resolution: 4
Origin: CENTRE D'ETUDES NUCLEAIRES DE GRENOBLE
MICROMETERS	TRANSMITTANCE
15.955	0.694
16.0108	0.695
16.0666	0.7
16.1225	0.709
16.1783	0.712
16.2341	0.712
16.2899	0.707
16.3457	0.699
16.4015	0.699
16.4574	0.704
16.5132	0.712
16.569	0.729
16.6248	0.736
16.6806	0.729
16.7364	0.687
16.7923	0.601
16.8481	0.507
16.9039	0.445
16.9597	0.448
17.0155	0.534
17.0714	0.628
17.1272	0.699
17.183	0.741
17.2388	0.761
17.2946	0.774
17.3504	0.791
17.4063	0.805
17.4621	0.821
17.5179	0.83
17.5737	0.833
17.6295	0.836
17.6853	0.845
17.7412	0.85
17.797	0.852
17.8528	0.855
17.9086	0.855
17.9644	0.855
18.0203	0.86
18.0761	0.862
18.1319	0.863
18.1877	0.863
18.2435	0.855
18.2993	0.845
18.3552	0.825
18.411	0.815
18.4668	0.823
18.5226	0.831
18.5784	0.845
18.6342	0.852
18.6901	0.858
18.7459	0.862
18.8017	0.865
18.8575	0.857
18.9133	0.862
18.9692	0.863
19.025	0.848
19.0808	0.836
19.1366	0.801
19.1924	0.788
19.2482	0.788
19.3041	0.798
19.3599	0.82
19.4157	0.843
19.4715	0.847
19.5273	0.848
19.5831	0.84
19.639	0.835
19.6948	0.825
19.7506	0.805
19.8064	0.779
19.8622	0.732
19.9181	0.662
19.9739	0.554
20.0297	0.447
20.0855	0.329
20.1413	0.242
20.1971	0.191
20.253	0.184
20.3088	0.236
20.3646	0.317
20.4204	0.381
20.4762	0.406
20.532	0.411
20.5879	0.401
20.6437	0.4
20.6995	0.442
20.7553	0.517
20.8111	0.606
20.867	0.655
20.9228	0.697
20.9786	0.719
21.0344	0.719
21.0902	0.694
21.146	0.665
21.2019	0.64
21.2577	0.588
21.3135	0.583
21.3693	0.593
21.4251	0.633
21.4809	0.682
21.5368	0.736
21.5926	0.764
21.6484	0.806
21.7042	0.811
21.76	0.828
21.8159	0.843
21.8717	0.847
21.9275	0.852
21.9833	0.857
22.0391	0.858
22.0949	0.858
22.1508	0.86
22.2066	0.862
22.2624	0.862
22.3182	0.863
22.374	0.862
22.4298	0.862
22.4857	0.86
22.5415	0.855
22.5973	0.853
22.6531	0.852
22.7089	0.847
22.7647	0.84
22.8206	0.836
22.8764	0.836
22.9322	0.836
22.988	0.84
23.0438	0.84
23.0997	0.842
23.1555	0.842
23.2113	0.845
23.2671	0.847
23.3229	0.847
23.3787	0.843
23.4346	0.838
23.4904	0.84
23.5462	0.843
23.602	0.843
23.6578	0.842
23.7136	0.836
23.7695	0.838
23.8253	0.84
23.8811	0.842
23.9369	0.845
23.9927	0.848
24.0486	0.848
24.1044	0.845
24.1602	0.845
24.216	0.847
24.2718	0.843
24.3276	0.838
24.3835	0.831
24.4393	0.823
24.4951	0.82
24.5509	0.82
24.6067	0.816
24.6625	0.813
24.7184	0.815
24.7742	0.816
24.83	0.818
24.8858	0.82
24.9416	0.821
24.9975	0.821
25.0533	0.821
25.1091	0.823
25.1649	0.826
25.2207	0.835
25.2765	0.84
25.3324	0.842
25.3882	0.847
25.444	0.857
25.4998	0.858
25.5556	0.86
25.6114	0.86
25.6673	0.862
25.7231	0.862
25.7789	0.862
25.8347	0.862
25.8905	0.865
25.9464	0.867
26.0022	0.872
26.058	0.873
26.1138	0.873
26.1696	0.878
26.2254	0.878
26.2813	0.88
26.3371	0.882
26.3929	0.884
26.4487	0.882
26.5045	0.882
26.5603	0.882
26.6162	0.88
26.672	0.88
26.7278	0.88
26.7836	0.882
26.8394	0.889
26.8953	0.892
26.9511	0.895
27.0069	0.897
27.0627	0.899
27.1185	0.902
27.1743	0.9
27.2302	0.897
27.286	0.895
27.3418	0.894
27.3976	0.89
27.4534	0.89
27.5092	0.897
27.5651	0.892
27.6209	0.892
27.6767	0.897
27.7325	0.899
27.7883	0.895
27.8442	0.895
27.9	0.897
27.9558	0.9
28.0116	0.899
28.0674	0.895
28.1232	0.89
28.1791	0.889
28.2349	0.878
28.2907	0.875
28.3465	0.875
28.4023	0.873
28.4581	0.873
28.514	0.872
28.5698	0.872
28.6256	0.87
28.6814	0.867
28.7372	0.865
28.7931	0.862
28.8489	0.857
28.9047	0.845
28.9605	0.835
29.0163	0.83
29.0721	0.811
29.128	0.806
29.1838	0.786
29.2396	0.759
29.2954	0.736
29.3512	0.663
29.407	0.6
29.4629	0.526
29.5187	0.44
29.5745	0.393
29.6303	0.322
29.6861	0.31
29.742	0.319
29.7978	0.366
29.8536	0.393
29.9094	0.463
29.9652	0.541
30.021	0.596
30.0769	0.64
30.1327	0.685
30.1885	0.726
30.2443	0.747
30.3001	0.784
30.3559	0.801
30.4118	0.806
30.4676	0.81
30.5234	0.826
30.5792	0.838
30.635	0.84
30.6909	0.843
30.7467	0.843
30.8025	0.843
30.8583	0.842
30.9141	0.838
30.9699	0.84
31.0258	0.842
31.0816	0.842
31.1374	0.84
31.1932	0.84
31.249	0.842
31.3048	0.843
31.3607	0.847
31.4165	0.852
31.4723	0.858
31.5281	0.862
31.5839	0.862
31.6398	0.862
31.6956	0.86
31.7514	0.86
31.8072	0.86
31.863	0.857
31.9188	0.855
31.9747	0.85
32.0305	0.845
32.0863	0.843
32.1421	0.84
32.1979	0.836
32.2537	0.84
32.3096	0.84
32.3654	0.84
32.4212	0.84
32.477	0.842
32.5328	0.842
32.5887	0.842
32.6445	0.84
32.7003	0.838
32.7561	0.833
32.8119	0.838
32.8677	0.836
32.9236	0.836
32.9794	0.831
33.0352	0.83
33.091	0.816
33.1468	0.815
33.2026	0.811
33.2585	0.808
33.3143	0.806
33.3701	0.801
33.4259	0.798
33.4817	0.806
33.5376	0.805
33.5934	0.794
33.6492	0.793
33.705	0.796
33.7608	0.796
33.8166	0.796
33.8725	0.798
33.9283	0.8
33.9841	0.798
34.0399	0.791
34.0957	0.781
34.1515	0.783
34.2074	0.778
34.2632	0.764
34.319	0.739
34.3748	0.737
34.4306	0.736
34.4865	0.731
34.5423	0.726
34.5981	0.722
34.6539	0.715
34.7097	0.705
34.7655	0.689
34.8214	0.672
34.8772	0.677
34.933	0.675
34.9888	0.667
