Infrared Spectrum: Acetaldehyde, bromo-, diethyl acetal
Formula: C6 H13 Br O2
CAS: 2032-35-1
State: SOLUTION (10% CCl4 FOR 3800-1335, 10% CS2 FOR 1335-450 CM^-^1)
Class: COBLENTZ III
Instrument: DOW KBr FOREPRISM-GRATING
Instrument parameters: BLAZED AT 3.5, 12.0, 20.0 MICRON AND CHANGED AT 5.0, 7.5, 14.9 MICRON
Sampling: TRANSMISSION
Path length: 0.011 CM, 0.010 CM
Resolution: 2
Origin: DOW CHEMICAL COMPANY
1/CM	TRANSMITTANCE
3820	0.9042
3811	0.9036
3802	0.9027
3793	0.9038
3784	0.9029
3775	0.9026
3766	0.9047
3757	0.9054
3748	0.9049
3739	0.9044
3730	0.9037
3721	0.9061
3712	0.9083
3703	0.9083
3694	0.906
3685	0.9046
3676	0.9047
3667	0.9049
3658	0.9053
3649	0.9057
3640	0.9061
3631	0.9085
3622	0.9106
3613	0.9116
3604	0.9107
3595	0.9097
3586	0.9092
3577	0.909
3568	0.9075
3559	0.9072
3550	0.9083
3541	0.9091
3532	0.9097
3523	0.909
3514	0.9099
3505	0.9109
3496	0.912
3487	0.9129
3478	0.9139
3469	0.9153
3460	0.9167
3451	0.9181
3442	0.9191
3433	0.92
3424	0.9208
3415	0.9218
3406	0.9232
3397	0.9226
3388	0.9224
3379	0.9221
3370	0.923
3361	0.9213
3352	0.9207
3343	0.9203
3334	0.9202
3325	0.9205
3316	0.9207
3307	0.9206
3298	0.9201
3289	0.9185
3280	0.9164
3271	0.9155
3262	0.9136
3253	0.9116
3244	0.9091
3235	0.9078
3226	0.905
3217	0.906
3208	0.9049
3199	0.9056
3190	0.9047
3181	0.9036
3172	0.9032
3163	0.9029
3154	0.901
3145	0.8978
3136	0.897
3127	0.8948
3118	0.8922
3109	0.8889
3100	0.888
3091	0.886
3082	0.8776
3073	0.8754
3064	0.8649
3055	0.8554
3046	0.8438
3037	0.8236
3028	0.7874
3019	0.7176
3010	0.5374
3001	0.2817
2992	0.0636
2983	0.2504
2974	0.4433
2965	0.5338
2956	0.5455
2947	0.371
2938	0.3231
2929	0.3767
2920	0.3436
2911	0.3097
2902	0.3266
2893	0.2991
2884	0.3207
2875	0.4671
2866	0.5413
2857	0.6589
2848	0.7107
2839	0.7263
2830	0.7552
2821	0.7776
2812	0.7858
2803	0.7929
2794	0.8012
2785	0.813
2776	0.8262
2767	0.8275
2758	0.8285
2749	0.8298
2740	0.8345
2731	0.8467
2722	0.8612
2713	0.8687
2704	0.8708
2695	0.8721
2686	0.8723
2677	0.8724
2668	0.8724
2659	0.872
2650	0.8728
2641	0.8742
2632	0.8773
2623	0.8798
2614	0.8824
2605	0.8853
2596	0.8884
2587	0.8913
2578	0.8937
2569	0.8959
2560	0.8973
2551	0.8973
2542	0.8975
2533	0.8976
2524	0.8973
2515	0.8972
2506	0.8968
2497	0.8965
2488	0.8961
2479	0.8967
2470	0.8963
2461	0.8956
2452	0.8951
2443	0.8943
2434	0.8938
2425	0.8935
2416	0.8934
2407	0.8939
2398	0.8949
2389	0.8959
2380	0.8981
2371	0.9017
2362	0.8997
2353	0.9029
2344	0.897
2335	0.89
2326	0.8959
2317	0.8995
2308	0.8956
2299	0.8912
2290	0.8887
2281	0.8889
2272	0.8894
2263	0.8893
2254	0.8886
2245	0.8898
2236	0.8904
2227	0.89
2218	0.8897
2209	0.8894
2200	0.8889
2191	0.8871
2182	0.8866
2173	0.8881
2164	0.8873
2155	0.8877
2146	0.8883
2137	0.8893
2128	0.8903
2119	0.8911
2110	0.8921
2101	0.8929
2092	0.8935
2083	0.8918
2074	0.8862
2065	0.8914
2056	0.8944
2047	0.8923
2038	0.8909
2029	0.8892
2020	0.8891
2011	0.8877
2002	0.8863
1993	0.8696
1984	0.8625
1975	0.8612
1966	0.8702
1957	0.8625
1948	0.8581
1939	0.8605
1930	0.8641
1921	0.866
1912	0.8677
1903	0.8697
1894	0.87
1885	0.868
1876	0.868
1867	0.8684
1858	0.8697
1849	0.8713
1840	0.873
1831	0.873
1822	0.8739
1813	0.8755
1804	0.8737
1795	0.8735
1786	0.8751
1777	0.8778
1768	0.8774
1759	0.8764
1750	0.8757
1741	0.8741
1732	0.8766
1723	0.8799
1714	0.881
1705	0.8809
1696	0.8797
1687	0.8799
1678	0.8817
1669	0.8847
1660	0.8898
1651	0.9011
1642	0.9077
1633	0.8968
1624	0.8859
1615	0.8844
1606	0.8643
1597	0.8471
1588	0.8313
1579	0.819
1570	0.7787
1561	0.7604
1552	0.7525
1543	0.7927
1534	0.8003
1525	0.8224
1516	0.8296
1507	0.8253
1498	0.8147
1489	0.7868
1480	0.6897
1471	0.7465
1462	0.7288
1453	0.6533
1444	0.4713
1435	0.6102
1426	0.4707
1417	0.7228
1408	0.7159
1399	0.6385
1390	0.5646
1381	0.565
1372	0.4791
1363	0.6757
1354	0.5595
1345	0.5009
1336	0.5665
1327	0.7329
1318	0.7946
1309	0.7902
1300	0.7501
1291	0.7651
1282	0.7833
1273	0.7895
1264	0.813
1255	0.8037
1246	0.81
1237	0.7898
1228	0.7134
1219	0.6116
1210	0.5878
1201	0.4743
1192	0.441
1183	0.4988
1174	0.4927
1165	0.3352
1156	0.306
1147	0.2187
1138	0.0756
1129	0.0471
1120	0.0736
1111	0.1042
1102	0.1456
1093	0.1884
1084	0.1875
1075	0.0433
1066	0.0122
1057	0.0231
1048	0.12
1039	0.2447
1030	0.3576
1021	0.2593
1012	0.2325
1003	0.3599
994	0.3275
985	0.5785
976	0.6927
967	0.7693
958	0.7904
949	0.8307
940	0.847
931	0.8429
922	0.7978
913	0.8058
904	0.8218
895	0.7816
886	0.7718
877	0.7825
868	0.8247
859	0.8332
850	0.8505
841	0.8108
832	0.8511
823	0.8374
814	0.7625
805	0.8036
796	0.8312
787	0.8441
778	0.8615
769	0.8697
760	0.8717
751	0.8728
742	0.8589
733	0.8272
724	0.8078
715	0.7966
706	0.802
697	0.7644
688	0.4257
679	0.6536
670	0.8046
661	0.8663
652	0.8582
643	0.8442
634	0.8285
625	0.8529
616	0.8847
607	0.8994
598	0.8929
589	0.8873
580	0.8884
571	0.8815
562	0.8785
553	0.8783
544	0.8687
535	0.8823
526	0.8861
517	0.8836
508	0.8741
499	0.8641
490	0.8714
481	0.8609
472	0.8558
463	0.8525
454	0.8139
