Infrared Spectrum: ACETAMIDE, N-[4-(1,1-DIMETHYLETHYL)PHENYL-]
Formula: C12 H17 N O
CAS: 20330-45-4
State: SOLID (SPLIT MULL, FLUOROLUBE FOR 3800-1340 AND NUJOL FOR 1340-450 CM ^-^1)
Class: COBLENTZ III
Instrument: DOW KBr FOREPRISM-GRATING
Instrument parameters: BLAZED AT 3.5, 12.0, 20.0 MICRON, CHANGED AT 5.0, 7.5, 14.9 MICRON
Sampling: TRANSMISSION
Resolution: 4
Origin: DOW CHEMICAL COMPANY
1/CM	TRANSMITTANCE
450.348	0.964
459.059	0.971
467.77	0.965
476.481	0.97
485.191	0.975
493.902	0.974
502.613	0.975
511.324	0.967
520.035	0.9
528.746	0.967
537.456	0.97
546.167	0.956
554.878	0.741
563.589	0.916
572.3	0.99
581.011	1.002
589.721	1.004
598.432	0.99
607.143	0.866
615.854	1.008
624.565	1.014
633.276	1.019
641.986	1.009
650.697	1.019
659.408	1.023
668.119	1.009
676.83	0.963
685.541	0.957
694.251	0.94
702.962	0.901
711.673	0.839
720.384	0.701
729.095	0.738
737.806	0.769
746.516	0.742
755.227	0.644
763.938	0.618
772.649	0.752
781.36	0.856
790.071	0.903
798.781	0.916
807.492	0.923
816.203	0.907
824.914	0.76
833.625	0.483
842.336	0.7261
851.046	0.871
859.757	0.923
868.468	0.944
877.179	0.944
885.89	0.927
894.601	0.933
903.311	0.937
912.022	0.927
920.733	0.923
929.444	0.916
938.155	0.899
946.866	0.918
955.576	0.888
964.287	0.858
972.998	0.855
981.709	0.916
990.42	0.914
999.131	0.893
1007.84	0.809
1016.55	0.797
1025.26	0.862
1033.97	0.854
1042.68	0.874
1051.4	0.914
1060.11	0.919
1068.82	0.915
1077.53	0.912
1086.24	0.919
1094.95	0.922
1103.66	0.897
1112.37	0.852
1121.08	0.88
1129.79	0.918
1138.5	0.904
1147.21	0.892
1155.93	0.892
1164.64	0.896
1173.35	0.897
1182.06	0.885
1190.77	0.7381
1199.48	0.855
1208.19	0.88
1216.9	0.892
1225.61	0.888
1234.32	0.877
1243.03	0.851
1251.74	0.836
1260.46	0.788
1269.17	0.5399
1277.88	0.742
1286.59	0.798
1295.3	0.776
1304.01	0.693
1312.72	0.719
1321.43	0.3849
1330.14	0.4181
1338.85	0.707
1347.56	0.693
1356.27	0.727
1364.99	0.686
1373.7	0.649
1382.41	0.598
1391.12	0.663
1399.83	0.5699
1408.54	0.527
1417.25	0.7261
1425.96	0.777
1434.67	0.757
1443.38	0.76
1452.09	0.76
1460.8	0.7089
1469.52	0.692
1478.23	0.727
1486.94	0.719
1495.65	0.632
1504.36	0.66
1513.07	0.538
1521.78	0.5421
1530.49	0.529
1539.2	0.553
1547.91	0.2149
1556.62	0.6171
1565.33	0.839
1574.05	0.856
1582.76	0.828
1591.47	0.7229
1600.18	0.48
1608.89	0.3349
1617.6	0.5941
1626.31	0.811
1635.02	0.795
1643.73	0.743
1652.44	0.6149
1661.15	0.3368
1669.87	0.217
1678.58	0.3621
1687.29	0.7109
1696	0.8142
1704.71	0.97
1713.42	0.993
1722.13	0.987
1730.84	1.002
1739.55	1.001
1748.26	0.993
1756.97	0.993
1765.68	0.989
1774.4	0.986
1783.11	0.976
1791.82	0.979
1800.53	0.983
1809.24	0.987
1817.95	0.986
1826.66	0.985
1835.37	0.983
1844.08	0.983
1852.79	0.979
1861.5	0.978
1870.21	0.976
1878.93	0.971
1887.64	0.968
1896.35	0.967
1905.06	0.96
1913.77	0.976
1922.48	0.975
1931.19	0.976
1939.9	0.976
1948.61	0.978
1957.32	0.978
1966.03	0.974
1974.74	0.975
1983.46	0.975
1992.17	0.976
2000.88	0.976
2009.59	0.9755
2018.3	0.978
2027.01	0.979
2035.72	0.98
2044.43	0.98
2053.14	0.976
2061.85	0.976
2070.56	0.976
2079.27	0.972
2087.99	0.9705
2096.7	0.967
2105.41	0.965
2114.12	0.961
2122.83	0.9599
2131.54	0.957
2140.25	0.9565
2148.96	0.9509
2157.67	0.9495
2166.38	0.948
2175.09	0.942
2183.8	0.9359
2192.52	0.934
2201.23	0.933
2209.94	0.9334
2218.65	0.9304
2227.36	0.9239
2236.07	0.914
2244.78	0.9104
2253.49	0.9004
2262.2	0.896
2270.91	0.8924
2279.62	0.889
2288.33	0.885
2297.05	0.884
2305.76	0.881
2314.47	0.877
2323.18	0.878
2331.89	0.8774
2340.6	0.8792
2349.31	0.8832
2358.02	0.88
2366.73	0.889
2375.44	0.882
2384.15	0.8872
2392.86	0.889
2401.58	0.891
2410.29	0.891
2419	0.891
2427.71	0.892
2436.42	0.892
2445.13	0.8922
2453.84	0.8931
2462.55	0.892
2471.26	0.892
2479.97	0.892
2488.68	0.893
2497.39	0.892
2506.11	0.892
2514.82	0.8956
2523.53	0.897
2532.24	0.8914
2540.95	0.891
2549.66	0.8913
2558.37	0.891
2567.08	0.891
2575.79	0.891
2584.5	0.892
2593.21	0.892
2601.92	0.892
2610.64	0.891
2619.35	0.8853
2628.06	0.881
2636.77	0.88
2645.48	0.88
2654.19	0.88
2662.9	0.8786
2671.61	0.878
2680.32	0.876
2689.03	0.876
2697.74	0.871
2706.45	0.869
2715.17	0.863
2723.88	0.863
2732.59	0.8583
2741.3	0.8553
2750.01	0.856
2758.72	0.8513
2767.43	0.848
2776.14	0.8376
2784.85	0.831
2793.56	0.8206
2802.27	0.8055
2810.98	0.8107
2819.7	0.8163
2828.41	0.8103
2837.12	0.7943
2845.83	0.7706
2854.54	0.7315
2863.25	0.6517
2871.96	0.647
2880.67	0.6935
2889.38	0.7082
2898.09	0.6802
2906.8	0.618
2915.51	0.6491
2924.23	0.6389
2932.94	0.6042
2941.65	0.579
2950.36	0.4296
2959.07	0.409
2967.78	0.4033
2976.49	0.5767
2985.2	0.7938
2993.91	0.806
3002.62	0.7956
3011.33	0.7862
3020.04	0.7762
3028.76	0.7682
3037.47	0.7414
3046.18	0.7138
3054.89	0.6742
3063.6	0.6466
3072.31	0.6818
3081.02	0.7281
3089.73	0.738
3098.44	0.7173
3107.15	0.651
3115.86	0.6074
3124.57	0.5935
3133.29	0.658
3142	0.7218
3150.71	0.7263
3159.42	0.716
3168.13	0.6825
3176.84	0.6237
3185.55	0.5735
3194.26	0.5899
3202.97	0.6518
3211.68	0.662
3220.39	0.6583
3229.1	0.6432
3237.82	0.5859
3246.53	0.4776
3255.24	0.4365
3263.95	0.4853
3272.66	0.5019
3281.37	0.4898
3290.08	0.4645
3298.79	0.4978
3307.5	0.6262
3316.21	0.7266
3324.92	0.7751
3333.63	0.804
3342.35	0.8244
3351.06	0.8428
3359.77	0.8549
3368.48	0.858
3377.19	0.8589
3385.9	0.859
3394.61	0.856
3403.32	0.8522
3412.03	0.851
3420.74	0.85
3429.45	0.85
3438.16	0.846
3446.88	0.8431
3455.59	0.839
3464.3	0.839
3473.01	0.8351
3481.72	0.832
3490.43	0.831
3499.14	0.829
3507.85	0.826
3516.56	0.826
3525.27	0.825
3533.98	0.822
3542.69	0.8221
3551.41	0.82
3560.12	0.82
3568.83	0.8181
3577.54	0.813
3586.25	0.813
3594.96	0.811
3603.67	0.806
3612.38	0.806
3621.09	0.803
3629.8	0.802
3638.51	0.802
3647.22	0.801
3655.94	0.799
3664.65	0.799
3673.36	0.798
3682.07	0.795
3690.78	0.795
3699.49	0.794
3708.2	0.797
3716.91	0.795
3725.62	0.794
3734.33	0.792
3743.04	0.792
3751.75	0.79
3760.47	0.79
3769.18	0.787
3777.89	0.787
3786.6	0.786
3795.31	0.783
