Infrared Spectrum: 2-Decene, (Z)
Formula: C10 H20
CAS: 20348-51-0
State: LIQUID (NEAT)
Class: COBLENTZ III
Instrument: BECKMAN IR-12 (GRATING)
Instrument parameters: GRATING
Sampling: TRANSMISSION
Path length: 0.01056 CM
Resolution: 2
Origin: COLGATE-PALMOLIVE COMPANY (KELLENBACH)
1/CM	TRANSMITTANCE
403	0.6391
412	0.6751
421	0.7137
430	0.7508
439	0.7814
448	0.7913
457	0.789
466	0.7907
475	0.8014
484	0.8055
493	0.7998
502	0.7849
511	0.7664
520	0.7642
529	0.7798
538	0.8048
547	0.8168
556	0.8049
565	0.7677
574	0.5926
583	0.4234
592	0.5019
601	0.6426
610	0.6967
619	0.7146
628	0.6946
637	0.6105
646	0.4653
655	0.2576
664	0.1371
673	0.1156
682	0.0735
691	0.0299
700	0.0128
709	0.0201
718	0.0795
727	0.057
736	0.2502
745	0.3772
754	0.4927
763	0.555
772	0.5484
781	0.5624
790	0.6177
799	0.6885
808	0.7217
817	0.7065
826	0.5909
835	0.5534
844	0.6059
853	0.6523
862	0.692
871	0.6707
880	0.6273
889	0.5641
898	0.5292
907	0.5778
916	0.5236
925	0.4947
934	0.4617
943	0.4418
952	0.4807
961	0.372
970	0.304
979	0.4848
988	0.4717
997	0.4368
1006	0.4624
1015	0.4339
1024	0.3679
1033	0.3321
1042	0.5291
1051	0.6036
1060	0.5882
1069	0.5822
1078	0.5925
1087	0.6389
1096	0.6899
1105	0.6271
1114	0.56
1123	0.6389
1132	0.6816
1141	0.7045
1150	0.7451
1159	0.7468
1168	0.7157
1177	0.6729
1186	0.6918
1195	0.694
1204	0.6496
1213	0.6614
1222	0.708
1231	0.687
1240	0.6411
1249	0.587
1258	0.5484
1267	0.5786
1276	0.57
1285	0.5167
1294	0.4732
1303	0.4365
1312	0.4258
1321	0.4472
1330	0.4943
1339	0.3573
1348	0.332
1357	0.3059
1366	0.1392
1375	0.0984
1384	0.1715
1393	0.3136
1402	0.0449
1411	0.2186
1420	0.2151
1429	0.0829
1438	0.0261
1447	0.0122
1456	0.0071
1465	0.0079
1474	0.1018
1483	0.3291
1492	0.4324
1501	0.4811
1510	0.5199
1519	0.5584
1528	0.584
1537	0.6076
1546	0.623
1555	0.6636
1564	0.6917
1573	0.7158
1582	0.7323
1591	0.7376
1600	0.7373
1609	0.7306
1618	0.7192
1627	0.7003
1636	0.6458
1645	0.605
1654	0.346
1663	0.3146
1672	0.5649
1681	0.6552
1690	0.7145
1699	0.7344
1708	0.7545
1717	0.7578
1726	0.765
1735	0.7666
1744	0.7857
1753	0.8053
1762	0.8162
1771	0.818
1780	0.8218
1789	0.8266
1798	0.8233
1807	0.8242
1816	0.8279
1825	0.8294
1834	0.8282
1843	0.8282
1852	0.8301
1861	0.8316
1870	0.8299
1879	0.8322
1888	0.838
1897	0.8324
1906	0.8252
1915	0.8189
1924	0.8143
1933	0.814
1942	0.8233
1951	0.8266
1960	0.8236
1969	0.8163
1978	0.8022
1987	0.7791
1996	0.751
2005	0.7756
2014	0.7917
2023	0.796
2032	0.799
2041	0.801
2050	0.8103
2059	0.8149
2068	0.8156
2077	0.8206
2086	0.8343
2095	0.8339
2104	0.8305
2113	0.8309
2122	0.8319
2131	0.8293
2140	0.824
2149	0.8194
2158	0.8178
2167	0.8171
2176	0.8168
2185	0.817
2194	0.8174
2203	0.8182
2212	0.8191
2221	0.8198
2230	0.8189
2239	0.8156
2248	0.8118
2257	0.8074
2266	0.8026
2275	0.7975
2284	0.7959
2293	0.795
2302	0.7926
2311	0.7908
2320	0.7892
2329	0.7865
2338	0.7862
2347	0.7865
2356	0.7862
2365	0.7853
2374	0.7872
2383	0.7921
2392	0.7908
2401	0.7902
2410	0.7928
2419	0.7938
2428	0.7936
2437	0.7931
2446	0.7926
2455	0.791
2464	0.7891
2473	0.7893
2482	0.7895
2491	0.7884
2500	0.7828
2509	0.7763
2518	0.7698
2527	0.7625
2536	0.7531
2545	0.7434
2554	0.7333
2563	0.7231
2572	0.7134
2581	0.7037
2590	0.6923
2599	0.6789
2608	0.6644
2617	0.6458
2626	0.6282
2635	0.6106
2644	0.5899
2653	0.5672
2662	0.5541
2671	0.559
2680	0.5747
2689	0.5815
2698	0.5606
2707	0.5174
2716	0.4742
2725	0.4663
2734	0.5131
2743	0.519
2752	0.4929
2761	0.4758
2770	0.4509
2779	0.3787
2788	0.34
2797	0.2135
2806	0.1646
2815	0.0869
2824	0.0495
2833	0.0133
2842	0.008
2851	0.0049
2860	0.0015
2869	0.0015
2878	0.0015
2887	0.0015
2896	0.0015
2905	0.0015
2914	0.0014
2923	0.0015
2932	0.0015
2941	0.0014
2950	0.0014
2959	0.0014
2968	0.0014
2977	0.0056
2986	0.0151
2995	0.0178
3004	0.0108
3013	0.0059
3022	0.0139
3031	0.0742
3040	0.1895
3049	0.3048
3058	0.3722
3067	0.3773
3076	0.4929
3085	0.5588
3094	0.6098
3103	0.6374
3112	0.6577
3121	0.6801
3130	0.6984
3139	0.7106
3148	0.7211
3157	0.7293
3166	0.7365
3175	0.7416
3184	0.7443
3193	0.7549
3202	0.7686
3211	0.7827
3220	0.7939
3229	0.8039
3238	0.8105
3247	0.815
3256	0.819
3265	0.8223
3274	0.8215
3283	0.8149
3292	0.8078
3301	0.8077
3310	0.814
3319	0.8252
3328	0.8317
3337	0.8319
3346	0.8312
3355	0.8304
3364	0.83
3373	0.8297
3382	0.8305
3391	0.8314
3400	0.8324
3409	0.8335
3418	0.8354
3427	0.8377
3436	0.8407
3445	0.8438
3454	0.8445
3463	0.8446
3472	0.8448
3481	0.8452
3490	0.8456
3499	0.8459
3508	0.8462
3517	0.8458
3526	0.8452
3535	0.8446
3544	0.8448
3553	0.844
3562	0.8374
3571	0.8301
3580	0.8225
3589	0.814
3598	0.8087
3607	0.8054
3616	0.8042
3625	0.804
3634	0.8046
3643	0.8056
3652	0.8067
3661	0.8081
3670	0.8097
3679	0.8114
3688	0.8133
3697	0.8155
3706	0.8173
3715	0.8181
3724	0.817
3733	0.8135
3742	0.8109
3751	0.8097
3760	0.8091
3769	0.8083
3778	0.8073
3787	0.8057
3796	0.803
3805	0.8023
3814	0.8046
3823	0.8047
3832	0.7992
3841	0.7953
3850	0.7941
3859	0.7909
3868	0.7861
3877	0.7853
3886	0.7877
3895	0.791
3904	0.7903
3913	0.7865
3922	0.7822
3931	0.7777
3940	0.775
3949	0.7717
3958	0.7698
3967	0.7675
3976	0.7651
3985	0.7632
3994	0.7613
