Infrared Spectrum: DI-IODOQUINONE
Formula: C6 H2 I2 O2
CAS: 20389-01-9
State: SOLID (1.0% IN KBr PELLET)
Class: COBLENTZ
Instrument: Not specified, most likely a prism, grating, or hybrid spectrometer.
Sampling: TRANSMISSION
Path length: 0.0355 CM THICK
Resolution: 4
Origin: ANDERSON PHYSICAL LABORATORY
1/CM	TRANSMITTANCE
670.093	0.864
678.504	0.865
686.915	0.867
695.327	0.901
703.738	0.912
712.149	0.932
720.56	0.939
728.972	0.939
737.383	0.938
745.794	0.935
754.205	0.927
762.617	0.917
771.028	0.7014
779.439	0.5455
787.85	0.957
796.261	0.951
804.673	0.945
813.084	0.945
821.495	0.95
829.906	0.947
838.318	0.939
846.729	0.927
855.14	0.917
863.551	0.912
871.962	0.911
880.374	0.888
888.785	0.84
897.196	0.6011
905.607	0.1189
914.019	0.87
922.43	0.903
930.841	0.926
939.252	0.926
947.664	0.904
956.075	0.856
964.486	0.6331
972.897	0.2332
981.308	0.4938
989.72	0.898
998.131	0.933
1006.54	0.962
1014.95	0.96
1023.36	0.95
1031.78	0.957
1040.19	0.948
1048.6	0.926
1057.01	0.904
1065.42	0.927
1073.83	0.926
1082.24	0.927
1090.65	0.926
1099.07	0.915
1107.48	0.904
1115.89	0.88
1124.3	0.681
1132.71	0.88
1141.12	0.895
1149.53	0.891
1157.94	0.882
1166.36	0.858
1174.77	0.788
1183.18	0.76
1191.59	0.79
1200	0.796
1208.41	0.784
1216.82	0.743
1225.23	0.726
1233.65	0.665
1242.06	0.625
1250.47	0.527
1258.88	0.273
1267.29	0.051
1275.7	0.019
1284.11	0.4257
1292.52	0.659
1300.94	0.675
1309.35	0.726
1317.76	0.751
1326.17	0.751
1334.58	0.746
1342.99	0.734
1351.4	0.723
1359.81	0.716
1368.22	0.716
1376.64	0.708
1385.05	0.699
1393.46	0.675
1401.87	0.651
1410.28	0.592
1418.69	0.573
1427.1	0.636
1435.51	0.656
1443.93	0.671
1452.34	0.671
1460.75	0.677
1469.16	0.678
1477.57	0.681
1485.98	0.674
1494.39	0.671
1502.8	0.657
1511.22	0.642
1519.63	0.619
1528.04	0.603
1536.45	0.567
1544.86	0.493
1553.27	0.429
1561.68	0.208
1570.09	0.467
1578.51	0.346
1586.92	0.177
1595.33	0.429
1603.74	0.4469
1612.15	0.438
1620.56	0.414
1628.97	0.318
1637.38	0.043
1645.8	0.012
1654.21	0.107
1662.62	0.036
1671.03	0.021
1679.44	0.087
1687.85	0.3459
1696.26	0.4899
1704.67	0.547
1713.09	0.615
1721.5	0.651
1729.91	0.716
1738.32	0.745
1746.73	0.748
1755.14	0.749
1763.55	0.74
1771.96	0.734
1780.38	0.705
1788.79	0.702
1797.2	0.701
1805.61	0.719
1814.02	0.749
1822.43	0.748
1830.84	0.746
1839.25	0.743
1847.67	0.74
1856.08	0.73
1864.49	0.733
1872.9	0.73
1881.31	0.728
1889.72	0.723
1898.13	0.717
1906.54	0.713
1914.95	0.707
1923.37	0.702
1931.78	0.702
1940.19	0.702
1948.6	0.702
1957.01	0.702
1965.42	0.698
1973.83	0.696
1982.24	0.696
1990.66	0.695
1999.07	0.692
2007.48	0.681
2015.89	0.6778
2024.3	0.6745
2032.71	0.674
2041.12	0.672
2049.53	0.671
2057.95	0.6695
2066.36	0.6653
2074.77	0.66
2083.18	0.6583
2091.59	0.655
2100	0.654
2108.41	0.654
2116.82	0.654
2125.24	0.654
2133.65	0.6533
2142.06	0.651
2150.47	0.65
2158.88	0.648
2167.29	0.648
2175.7	0.647
2184.11	0.6448
2192.53	0.6405
2200.94	0.6315
2209.35	0.628
2217.76	0.6243
2226.17	0.6215
2234.58	0.619
2242.99	0.616
2251.4	0.613
2259.82	0.611
2268.23	0.6093
2276.64	0.609
2285.05	0.6068
2293.46	0.605
2301.87	0.5988
2310.28	0.595
2318.69	0.5905
2327.11	0.5885
2335.52	0.586
2343.93	0.585
2352.34	0.585
2360.75	0.585
2369.16	0.585
2377.57	0.583
2385.98	0.58
2394.39	0.578
2402.81	0.576
2411.22	0.576
2419.63	0.576
2428.04	0.574
2436.45	0.5733
2444.86	0.57
2453.27	0.5665
2461.68	0.5605
2470.1	0.5583
2478.51	0.555
2486.92	0.5527
2495.33	0.55
2503.74	0.5475
2512.15	0.546
2520.56	0.5435
2528.97	0.542
2537.39	0.5413
2545.8	0.541
2554.21	0.541
2562.62	0.541
2571.03	0.541
2579.44	0.541
2587.85	0.5405
2596.26	0.537
2604.68	0.5353
2613.09	0.533
2621.5	0.5293
2629.91	0.5235
2638.32	0.5203
2646.73	0.52
2655.14	0.518
2663.55	0.5175
2671.97	0.517
2680.38	0.514
2688.79	0.5088
2697.2	0.507
2705.61	0.506
2714.02	0.502
2722.43	0.4985
2730.84	0.4965
2739.26	0.4945
2747.67	0.493
2756.08	0.4895
2764.49	0.486
2772.9	0.4843
2781.31	0.481
2789.72	0.4788
2798.13	0.477
2806.55	0.4708
2814.96	0.466
2823.37	0.464
2831.78	0.465
2840.19	0.466
2848.6	0.464
2857.01	0.463
2865.42	0.4575
2873.83	0.455
2882.25	0.453
2890.66	0.452
2899.07	0.451
2907.48	0.4493
2915.89	0.446
2924.3	0.444
2932.71	0.4435
2941.12	0.443
2949.54	0.44
2957.95	0.4378
2966.36	0.436
2974.77	0.434
2983.18	0.431
2991.59	0.4275
3000	0.424
3008.41	0.4198
3016.83	0.414
3025.24	0.4078
3033.65	0.4075
3042.06	0.4137
3050.47	0.414
3058.88	0.4138
3067.29	0.4105
3075.7	0.4055
3084.12	0.404
3092.53	0.402
3100.94	0.401
3109.35	0.3983
3117.76	0.396
3126.17	0.3945
3134.58	0.392
3142.99	0.39
3151.41	0.387
3159.82	0.3855
3168.23	0.384
3176.64	0.384
3185.05	0.38
3193.46	0.377
3201.87	0.37
3210.28	0.3653
3218.7	0.36
3227.11	0.3566
3235.52	0.3475
3243.93	0.3405
3252.34	0.337
3260.75	0.337
3269.16	0.337
3277.57	0.3363
3285.99	0.334
3294.4	0.3325
3302.81	0.329
3311.22	0.3258
3319.63	0.324
3328.04	0.322
3336.45	0.32
3344.86	0.319
3353.27	0.318
3361.69	0.315
3370.1	0.312
3378.51	0.31
3386.92	0.309
3395.33	0.307
3403.74	0.307
3412.15	0.307
3420.56	0.307
3428.98	0.309
3437.39	0.309
3445.8	0.31
3454.21	0.31
3462.62	0.31
3471.03	0.31
3479.44	0.3115
3487.85	0.313
3496.27	0.3165
3504.68	0.318
3513.09	0.319
3521.5	0.319
3529.91	0.3212
3538.32	0.324
3546.73	0.3265
3555.14	0.328
3563.56	0.33
3571.97	0.33
3580.38	0.331
3588.79	0.331
3597.2	0.331
3605.61	0.331
3614.02	0.3303
3622.43	0.33
3630.85	0.327
3639.26	0.327
3647.67	0.327
3656.08	0.325
3664.49	0.324
3672.9	0.323
3681.31	0.3213
3689.72	0.321
3698.14	0.318
3706.55	0.316
3714.96	0.3135
3723.37	0.313
3731.78	0.313
3740.19	0.3125
3748.6	0.3105
3757.01	0.309
3765.43	0.309
3773.84	0.307
3782.25	0.307
3790.66	0.306
3799.07	0.3055
3807.48	0.3035
3815.89	0.303
3824.3	0.301
3832.71	0.3007
3841.13	0.3
3849.54	0.3
3857.95	0.298
3866.36	0.297
3874.77	0.296
3883.18	0.295
3891.59	0.292
3900	0.2918
3908.42	0.291
3916.83	0.291
3925.24	0.289
3933.65	0.288
3942.06	0.288
3950.47	0.286
3958.88	0.286
3967.29	0.2845
3975.71	0.283
3984.12	0.2823
