Infrared Spectrum: Cyclopentane, n-propyl-
Formula: C8 H16
CAS: 2040-96-2
State: SOLUTION (10% CCl4 FOR 3800-1330, 10% CS2 FOR 1330-400 CM^-^1)
Class: COBLENTZ III
Instrument: BECKMAN IR-9 (GRATING)
Instrument parameters: ORDER CHANGES: 670, 1200, 2000 CM^-^1
Sampling: TRANSMISSION
Path length: 0.011 CM, 0.011 CM
Resolution: 2
Origin: DOW CHEMICAL COMPANY
1/CM	TRANSMITTANCE
3800	0.8773
3791	0.8783
3782	0.878
3773	0.8791
3764	0.8795
3755	0.8795
3746	0.8792
3737	0.8796
3728	0.8796
3719	0.8788
3710	0.8801
3701	0.8808
3692	0.8813
3683	0.8819
3674	0.883
3665	0.8839
3656	0.8843
3647	0.8845
3638	0.8844
3629	0.8825
3620	0.8804
3611	0.8756
3602	0.8788
3593	0.8819
3584	0.8739
3575	0.8733
3566	0.8764
3557	0.8761
3548	0.8762
3539	0.8754
3530	0.8756
3521	0.8746
3512	0.8745
3503	0.8743
3494	0.8744
3485	0.8746
3476	0.8748
3467	0.875
3458	0.8751
3449	0.875
3440	0.8749
3431	0.8748
3422	0.8747
3413	0.8746
3404	0.8746
3395	0.8746
3386	0.8747
3377	0.8747
3368	0.8748
3359	0.8748
3350	0.8748
3341	0.8747
3332	0.8747
3323	0.8746
3314	0.8745
3305	0.8752
3296	0.8745
3287	0.8744
3278	0.8747
3269	0.8745
3260	0.8742
3251	0.8737
3242	0.8734
3233	0.8731
3224	0.8715
3215	0.8685
3206	0.8664
3197	0.8657
3188	0.8658
3179	0.865
3170	0.8644
3161	0.8642
3152	0.8643
3143	0.8631
3134	0.8628
3125	0.8611
3116	0.8591
3107	0.8569
3098	0.8547
3089	0.8506
3080	0.8428
3071	0.8345
3062	0.8224
3053	0.8109
3044	0.799
3035	0.7844
3026	0.7623
3017	0.7329
3008	0.6816
2999	0.5819
2990	0.5166
2981	0.3354
2972	0.163
2963	0.0167
2954	0.0083
2945	0.0087
2936	0.0106
2927	0.0139
2918	0.0179
2909	0.0266
2900	0.0585
2891	0.0923
2882	0.1027
2873	0.0299
2864	0.0274
2855	0.0642
2846	0.1368
2837	0.2338
2828	0.4617
2819	0.5926
2810	0.7061
2801	0.7499
2792	0.7765
2783	0.7957
2774	0.8123
2765	0.8244
2756	0.8286
2747	0.8271
2738	0.824
2729	0.8247
2720	0.8344
2711	0.844
2702	0.8469
2693	0.8488
2684	0.8518
2675	0.8544
2666	0.8563
2657	0.8577
2648	0.8575
2639	0.8562
2630	0.8552
2621	0.8543
2612	0.8547
2603	0.8552
2594	0.8577
2585	0.862
2576	0.867
2567	0.8726
2558	0.8782
2549	0.8828
2540	0.8846
2531	0.8856
2522	0.8866
2513	0.888
2504	0.8894
2495	0.8909
2486	0.8924
2477	0.8945
2468	0.8955
2459	0.8959
2450	0.8951
2441	0.8949
2432	0.8945
2423	0.8939
2414	0.8933
2405	0.8925
2396	0.891
2387	0.8901
2378	0.8903
2369	0.8892
2360	0.8868
2351	0.8864
2342	0.8851
2333	0.8845
2324	0.8859
2315	0.8851
2306	0.8849
2297	0.8861
2288	0.8872
2279	0.8891
2270	0.8907
2261	0.8926
2252	0.894
2243	0.8949
2234	0.8965
2225	0.8985
2216	0.898
2207	0.8983
2198	0.8986
2189	0.8984
2180	0.9002
2171	0.9028
2162	0.9037
2153	0.9056
2144	0.908
2135	0.9093
2126	0.9101
2117	0.9108
2108	0.9111
2099	0.9114
2090	0.9115
2081	0.9116
2072	0.9117
2063	0.9117
2054	0.9124
2045	0.9119
2036	0.9118
2027	0.9117
2018	0.9113
2009	0.91
2000	0.9064
1991	0.9052
1982	0.91
1973	0.9103
1964	0.9109
1955	0.9122
1946	0.9107
1937	0.9109
1928	0.9111
1919	0.9113
1910	0.9112
1901	0.9115
1892	0.9108
1883	0.91
1874	0.9098
1865	0.9095
1856	0.9095
1847	0.9099
1838	0.9107
1829	0.9104
1820	0.9099
1811	0.9102
1802	0.9083
1793	0.9087
1784	0.9093
1775	0.9092
1766	0.9097
1757	0.9108
1748	0.9111
1739	0.9116
1730	0.9122
1721	0.9126
1712	0.9127
1703	0.9128
1694	0.9124
1685	0.9111
1676	0.9089
1667	0.9075
1658	0.9025
1649	0.8973
1640	0.8925
1631	0.8881
1622	0.8819
1613	0.877
1604	0.862
1595	0.8206
1586	0.7552
1577	0.7354
1568	0.71
1559	0.6478
1550	0.627
1541	0.6535
1532	0.7142
1523	0.7516
1514	0.7814
1505	0.7914
1496	0.7892
1487	0.7782
1478	0.6827
1469	0.499
1460	0.3913
1451	0.2847
1442	0.5799
1433	0.7389
1424	0.8103
1415	0.8474
1406	0.8598
1397	0.8587
1388	0.8384
1379	0.7138
1370	0.821
1361	0.8421
1352	0.8489
1343	0.8319
1334	0.7673
1325	0.8039
1316	0.7865
1307	0.7714
1298	0.7745
1289	0.7951
1280	0.8201
1271	0.8393
1262	0.853
1253	0.8595
1244	0.8594
1235	0.86
1226	0.8651
1217	0.8741
1208	0.8796
1199	0.8795
1190	0.8759
1181	0.8777
1172	0.8801
1163	0.9027
1154	0.9169
1145	0.9204
1136	0.9099
1127	0.9072
1118	0.9275
1109	0.9334
1100	0.9327
1091	0.9323
1082	0.9258
1073	0.8991
1064	0.9007
1055	0.9097
1046	0.9057
1037	0.899
1028	0.8986
1019	0.9061
1010	0.9157
1001	0.9188
992	0.9223
983	0.9256
974	0.9264
965	0.9249
956	0.9175
947	0.8862
938	0.8694
929	0.9059
920	0.9166
911	0.914
902	0.8882
893	0.7908
884	0.8104
875	0.8404
866	0.8329
857	0.8469
848	0.8883
839	0.9093
830	0.9277
821	0.9367
812	0.9444
803	0.9468
794	0.9455
785	0.9478
776	0.9471
767	0.9433
758	0.9352
749	0.9197
740	0.8109
731	0.9262
722	0.9571
713	0.965
704	0.9681
695	0.9701
686	0.9684
677	0.9653
668	0.9592
659	0.9403
650	0.9462
641	0.9536
632	0.9588
623	0.9652
614	0.9654
605	0.9629
596	0.9619
587	0.9611
578	0.9585
569	0.9557
560	0.9535
551	0.9531
542	0.9545
533	0.9562
524	0.955
515	0.9479
506	0.9376
497	0.9262
488	0.9126
479	0.8899
470	0.8619
461	0.8221
452	0.7793
443	0.7057
434	0.65
425	0.5377
