Infrared Spectrum: 2-PHENYL-2-METHYL BUTANE
Formula: C11 H16
CAS: 2049-95-8
State: LIQUID
Class: COBLENTZ
Instrument: PERKIN-ELMER
Sampling: TRANSMISSION
Path length: 0.0025 CM
Resolution: 4
Origin: STANDARD OIL OF OHIO
1/CM	TRANSMITTANCE
589.126	0.614
597.534	0.619
605.942	0.609
614.351	0.603
622.759	0.614
631.167	0.628
639.575	0.65
647.983	0.668
656.391	0.679
664.8	0.672
673.208	0.606
681.616	0.559
690.024	0.3138
698.432	0.03
706.84	0.3691
715.249	0.6819
723.657	0.75
732.065	0.771
740.473	0.755
748.881	0.5945
757.29	0.1409
765.698	0.1526
774.106	0.638
782.514	0.4473
790.922	0.7501
799.33	0.827
807.739	0.832
816.147	0.837
824.555	0.853
832.963	0.846
841.371	0.844
849.779	0.871
858.188	0.878
866.596	0.876
875.004	0.873
883.412	0.871
891.82	0.854
900.229	0.787
908.637	0.836
917.045	0.7361
925.453	0.844
933.861	0.819
942.269	0.863
950.678	0.868
959.086	0.856
967.494	0.853
975.902	0.841
984.31	0.814
992.718	0.766
1001.13	0.6282
1009.53	0.5741
1017.94	0.716
1026.35	0.6297
1034.76	0.4516
1043.17	0.67
1051.58	0.7281
1059.98	0.7501
1068.39	0.814
1076.8	0.7138
1085.21	0.7388
1093.62	0.824
1102.02	0.7411
1110.43	0.768
1118.84	0.829
1127.25	0.859
1135.66	0.856
1144.07	0.841
1152.47	0.78
1160.88	0.7379
1169.29	0.701
1177.7	0.815
1186.11	0.797
1194.51	0.785
1202.92	0.82
1211.33	0.844
1219.74	0.812
1228.15	0.7139
1236.56	0.726
1244.96	0.77
1253.37	0.809
1261.78	0.841
1270.19	0.831
1278.6	0.802
1287	0.77
1295.41	0.6528
1303.82	0.57
1312.23	0.7601
1320.64	0.771
1329.05	0.7551
1337.45	0.81
1345.86	0.797
1354.27	0.641
1362.68	0.3007
1371.09	0.388
1379.49	0.319
1387.9	0.633
1396.31	0.7261
1404.72	0.768
1413.13	0.751
1421.54	0.694
1429.94	0.6649
1438.35	0.366
1446.76	0.2188
1455.17	0.261
1463.58	0.184
1471.98	0.304
1480.39	0.4423
1488.8	0.5419
1497.21	0.087
1505.62	0.733
1514.03	0.814
1522.43	0.817
1530.84	0.819
1539.25	0.809
1547.66	0.8581
1556.07	0.873
1564.47	0.873
1572.88	0.846
1581.29	0.7437
1589.7	0.771
1598.11	0.5883
1606.52	0.3961
1614.92	0.7983
1623.33	0.868
1631.74	0.883
1640.15	0.886
1648.56	0.885
1656.96	0.869
1665.37	0.858
1673.78	0.875
1682.19	0.871
1690.6	0.888
1699.01	0.886
1707.41	0.89
1715.82	0.883
1724.23	0.868
1732.64	0.8539
1741.05	0.842
1749.45	0.873
1757.86	0.875
1766.27	0.89
1774.68	0.895
1783.09	0.89
1791.5	0.875
1799.9	0.8089
1808.31	0.836
1816.72	0.868
1825.13	0.888
1833.54	0.902
1841.94	0.902
1850.35	0.8959
1858.76	0.8679
1867.17	0.8221
1875.58	0.856
1883.99	0.839
1892.39	0.878
1900.8	0.885
1909.21	0.9
1917.62	0.902
1926.03	0.893
1934.43	0.8629
1942.84	0.768
1951.25	0.8291
1959.66	0.842
1968.07	0.8801
1976.48	0.903
1984.88	0.902
1993.29	0.91
2001.7	0.91
2010.11	0.912
2018.52	0.915
2026.92	0.915
2035.33	0.915
2043.74	0.917
2052.15	0.917
2060.56	0.915
2068.97	0.9131
2077.37	0.917
2085.78	0.915
2094.19	0.9169
2102.6	0.917
2111.01	0.917
2119.41	0.917
2127.82	0.917
2136.23	0.915
2144.64	0.9148
2153.05	0.913
2161.45	0.9121
2169.86	0.912
2178.27	0.913
2186.68	0.915
2195.09	0.913
2203.5	0.913
2211.9	0.913
2220.31	0.913
2228.72	0.912
2237.13	0.9103
2245.54	0.9103
2253.94	0.912
2262.35	0.91
2270.76	0.9053
2279.17	0.903
2287.58	0.902
2295.99	0.902
2304.39	0.902
2312.8	0.9022
2321.21	0.899
2329.62	0.903
2338.03	0.903
2346.43	0.8984
2354.84	0.8941
2363.25	0.9
2371.66	0.902
2380.07	0.898
2388.48	0.8958
2396.88	0.902
2405.29	0.902
2413.7	0.903
2422.11	0.902
2430.52	0.898
2438.92	0.898
2447.33	0.902
2455.74	0.903
2464.15	0.903
2472.56	0.905
2480.97	0.9036
2489.37	0.9023
2497.78	0.905
2506.19	0.902
2514.6	0.902
2523.01	0.8987
2531.41	0.9006
2539.82	0.9
2548.23	0.902
2556.64	0.9
2565.05	0.898
2573.46	0.896
2581.86	0.8938
2590.27	0.8954
2598.68	0.8956
2607.09	0.891
2615.5	0.8904
2623.9	0.8826
2632.31	0.878
2640.72	0.8727
2649.13	0.869
2657.54	0.8767
2665.95	0.883
2674.35	0.8856
2682.76	0.891
2691.17	0.8869
2699.58	0.885
2707.99	0.8805
2716.39	0.8755
2724.8	0.8685
2733.21	0.8534
2741.62	0.8566
2750.03	0.871
2758.44	0.8655
2766.84	0.851
2775.25	0.849
2783.66	0.847
2792.07	0.834
2800.48	0.8315
2808.88	0.8216
2817.29	0.7916
2825.7	0.7582
2834.11	0.7208
2842.52	0.6756
2850.93	0.5537
2859.33	0.3609
2867.74	0.2107
2876.15	0.1907
2884.56	0.0907
2892.97	0.1673
2901.37	0.1919
2909.78	0.1541
2918.19	0.085
2926.6	0.0632
2935.01	0.059
2943.42	0.0558
2951.82	0.0609
2960.23	0.0289
2968.64	0.015
2977.05	0.0154
2985.46	0.0268
2993.86	0.235
3002.27	0.4713
3010.68	0.5721
3019.09	0.542
3027.5	0.3514
3035.91	0.354
3044.31	0.4004
3052.72	0.4734
3061.13	0.3571
3069.54	0.2899
3077.95	0.5471
3086.35	0.5605
3094.76	0.3617
3103.17	0.5954
3111.58	0.6991
3119.99	0.7819
3128.4	0.8363
3136.8	0.854
3145.21	0.858
3153.62	0.8555
3162.03	0.8505
3170.44	0.8567
3178.84	0.861
3187.25	0.861
3195.66	0.8588
3204.07	0.8582
3212.48	0.8614
3220.89	0.8682
3229.29	0.871
3237.7	0.875
3246.11	0.878
3254.52	0.88
3262.93	0.881
3271.33	0.881
3279.74	0.881
3288.15	0.885
3296.56	0.886
3304.97	0.8863
3313.38	0.89
3321.78	0.89
3330.19	0.89
3338.6	0.89
3347.01	0.8912
3355.42	0.893
3363.82	0.891
3372.23	0.891
3380.64	0.891
3389.05	0.891
3397.46	0.891
3405.87	0.891
3414.27	0.891
3422.68	0.891
3431.09	0.8911
3439.5	0.893
3447.91	0.891
3456.31	0.891
3464.72	0.893
3473.13	0.8929
3481.54	0.8929
3489.95	0.891
3498.36	0.891
3506.76	0.893
3515.17	0.893
3523.58	0.891
3531.99	0.893
3540.4	0.895
3548.8	0.898
3557.21	0.9
3565.62	0.9
3574.03	0.896
3582.44	0.893
3590.84	0.8929
3599.25	0.9
3607.66	0.8951
3616.07	0.8929
3624.48	0.893
3632.89	0.893
3641.29	0.89
3649.7	0.8862
3658.11	0.885
3666.52	0.888
3674.93	0.89
3683.33	0.888
3691.74	0.888
3700.15	0.888
3708.56	0.8862
3716.97	0.888
3725.38	0.8897
3733.78	0.8897
3742.19	0.89
3750.6	0.888
3759.01	0.885
3767.42	0.886
3775.82	0.888
3784.23	0.888
3792.64	0.886
3801.05	0.888
3809.46	0.886
3817.87	0.89
3826.27	0.888
3834.68	0.89
3843.09	0.886
3851.5	0.888
3859.91	0.881
3868.31	0.881
3876.72	0.883
3885.13	0.881
3893.54	0.88
3901.95	0.878
3910.36	0.876
3918.76	0.876
3927.17	0.8775
3935.58	0.878
3943.99	0.8807
