Infrared Spectrum: BENZ[e]ACEPHENANTHRYLENE
Formula: C20 H12
CAS: 205-99-2
State: SOLUTION (1% IN CCl4 FOR 3800-1340, 1% IN CS2 FOR 1340-400 CM^-^1)
Class: COBLENTZ III
Instrument: BECKMAN IR-9 (GRATING)
Instrument parameters: ORDER CHANGES AT 670, 1200, 2000 CM^-^1
Sampling: TRANSMISSION
Path length: 0.11, 0.11 CM
Resolution: 4
Origin: DOW CHEMICAL COMPANY
1/CM	TRANSMITTANCE
403.318	0
411.933	0
420.548	0.0319
429.164	0.2019
437.779	0.355
446.394	0.4989
455.009	0.588
463.625	0.5549
472.24	0.733
480.855	0.794
489.47	0.814
498.085	0.85
506.701	0.7013
515.316	0.903
523.931	0.937
532.546	0.955
541.162	0.9141
549.777	0.921
558.392	0.937
567.007	0.928
575.622	0.968
584.238	0.957
592.853	0.8542
601.468	0.915
610.083	0.894
618.699	0.429
627.314	0.6961
635.929	0.742
644.544	0.608
653.16	0.468
661.775	0.546
670.39	0.663
679.005	0.754
687.62	0.8
696.236	0.813
704.851	0.823
713.466	0.817
722.081	0.811
730.697	0.605
739.312	0.325
747.927	0.441
756.542	0.6499
765.157	0.749
773.773	0.0202
782.388	0.6449
791.003	0.761
799.618	0.81
808.234	0.817
816.849	0.826
825.464	0.823
834.079	0.697
842.694	0.3711
851.31	0.096
859.925	0.069
868.54	0.1729
877.155	0.275
885.771	0.364
894.386	0.527
903.001	0.832
911.616	0.894
920.231	0.933
928.847	0.946
937.462	0.8529
946.077	0.6472
954.692	0.96
963.308	0.914
971.923	0.945
980.538	0.961
989.153	0.983
997.769	0.986
1006.38	0.933
1015	0.869
1023.61	0.905
1032.23	0.942
1040.84	0.8219
1049.46	0.933
1058.08	0.965
1066.69	0.988
1075.31	0.991
1083.92	0.988
1092.54	0.992
1101.15	0.98
1109.77	0.955
1118.38	0.988
1127	0.991
1135.61	0.934
1144.23	0.899
1152.84	0.734
1161.46	0.841
1170.07	0.931
1178.69	0.872
1187.3	0.946
1195.92	0.94
1204.53	0.958
1213.15	0.949
1221.76	0.924
1230.38	0.958
1238.99	0.878
1247.61	0.921
1256.23	0.976
1264.84	0.995
1273.46	0.9541
1282.07	0.967
1290.69	0.971
1299.3	0.927
1307.92	0.925
1316.53	0.893
1325.15	0.917
1333.76	0.891
1342.38	0.914
1350.99	0.931
1359.61	0.912
1368.22	0.832
1376.84	0.527
1385.45	0.859
1394.07	0.877
1402.68	0.893
1411.3	0.893
1419.91	0.672
1428.53	0.7
1437.14	0.4628
1445.76	0.6449
1454.38	0.205
1462.99	0.4469
1471.61	0.567
1480.22	0.564
1488.84	0.36
1497.45	0.277
1506.07	0.096
1514.68	0.037
1523.3	0.004
1531.91	0.001
1540.53	0
1549.14	0
1557.76	0
1566.37	0
1574.99	0
1583.6	0.001
1592.22	0.019
1600.83	0.088
1609.45	0.3181
1618.06	0.567
1626.68	0.709
1635.3	0.78
1643.91	0.828
1652.53	0.859
1661.14	0.9
1669.76	0.902
1678.37	0.909
1686.99	0.909
1695.6	0.909
1704.22	0.92
1712.83	0.903
1721.45	0.906
1730.06	0.917
1738.68	0.915
1747.29	0.924
1755.91	0.934
1764.52	0.942
1773.14	0.934
1781.75	0.899
1790.37	0.872
1798.98	0.835
1807.6	0.851
1816.21	0.891
1824.83	0.881
1833.45	0.844
1842.06	0.84
1850.68	0.86
1859.29	0.84
1867.91	0.835
1876.52	0.859
1885.14	0.911
1893.75	0.891
1902.37	0.891
1910.98	0.854
1919.6	0.881
1928.21	0.851
1936.83	0.903
1945.44	0.831
1954.06	0.865
1962.67	0.915
1971.29	0.915
1979.9	0.915
1988.52	0.911
1997.13	0.897
2005.75	0.891
2014.37	0.8921
2022.98	0.9022
2031.6	0.9137
2040.21	0.927
2048.83	0.9319
2057.44	0.934
2066.06	0.9464
2074.67	0.9578
2083.29	0.9677
2091.9	0.973
2100.52	0.973
2109.13	0.977
2117.75	0.979
2126.36	0.979
2134.98	0.9799
2143.59	0.9824
2152.21	0.982
2160.82	0.9811
2169.44	0.98
2178.05	0.9765
2186.67	0.976
2195.28	0.977
2203.9	0.9729
2212.52	0.971
2221.13	0.9679
2229.75	0.9608
2238.36	0.9529
2246.98	0.9347
2255.59	0.9072
2264.21	0.8626
2272.82	0.8214
2281.44	0.777
2290.05	0.7464
2298.67	0.7416
2307.28	0.7539
2315.9	0.7708
2324.51	0.781
2333.13	0.8157
2341.74	0.828
2350.36	0.8503
2358.97	0.8734
2367.59	0.891
2376.2	0.9085
2384.82	0.9241
2393.43	0.9382
2402.05	0.9512
2410.67	0.9624
2419.28	0.9701
2427.9	0.9723
2436.51	0.974
2445.13	0.9767
2453.74	0.9768
2462.36	0.9733
2470.97	0.971
2479.59	0.97
2488.2	0.971
2496.82	0.973
2505.43	0.976
2514.05	0.976
2522.66	0.974
2531.28	0.9739
2539.89	0.976
2548.51	0.9741
2557.12	0.973
2565.74	0.973
2574.35	0.971
2582.97	0.9699
2591.59	0.9688
2600.2	0.9668
2608.82	0.964
2617.43	0.958
2626.05	0.967
2634.66	0.971
2643.28	0.968
2651.89	0.965
2660.51	0.967
2669.12	0.971
2677.74	0.9702
2686.35	0.968
2694.97	0.967
2703.58	0.968
2712.2	0.97
2720.81	0.968
2729.43	0.968
2738.04	0.968
2746.66	0.967
2755.27	0.964
2763.89	0.965
2772.5	0.965
2781.12	0.965
2789.74	0.965
2798.35	0.965
2806.97	0.9677
2815.58	0.9702
2824.2	0.971
2832.81	0.971
2841.43	0.971
2850.04	0.968
2858.66	0.967
2867.27	0.967
2875.89	0.9623
2884.5	0.9614
2893.12	0.964
2901.73	0.9628
2910.35	0.955
2918.96	0.949
2927.58	0.9461
2936.19	0.946
2944.81	0.943
2953.42	0.942
2962.04	0.943
2970.65	0.942
2979.27	0.9298
2987.89	0.9231
2996.5	0.9137
3005.12	0.8889
3013.73	0.8051
3022.35	0.73
3030.96	0.6772
3039.58	0.644
3048.19	0.6366
3056.81	0.5425
3065.42	0.4952
3074.04	0.471
3082.65	0.4835
3091.27	0.5914
3099.88	0.8019
3108.5	0.8731
3117.11	0.9203
3125.73	0.933
3134.34	0.9376
3142.96	0.9401
3151.57	0.945
3160.19	0.942
3168.81	0.948
3177.42	0.9541
3186.04	0.958
3194.65	0.958
3203.27	0.957
3211.88	0.955
3220.5	0.9578
3229.11	0.957
3237.73	0.957
3246.34	0.957
3254.96	0.9597
3263.57	0.957
3272.19	0.957
3280.8	0.955
3289.42	0.9569
3298.03	0.957
3306.65	0.957
3315.26	0.955
3323.88	0.954
3332.49	0.954
3341.11	0.952
3349.72	0.951
3358.34	0.9508
3366.96	0.949
3375.57	0.949
3384.19	0.9453
3392.8	0.9446
3401.42	0.9423
3410.03	0.9355
3418.65	0.933
3427.26	0.93
3435.88	0.928
3444.49	0.9247
3453.11	0.921
3461.72	0.917
3470.34	0.9141
3478.95	0.912
3487.57	0.912
3496.18	0.9145
3504.8	0.927
3513.41	0.9335
3522.03	0.9421
3530.64	0.9472
3539.26	0.949
3547.88	0.949
3556.49	0.949
3565.11	0.951
3573.72	0.951
3582.34	0.951
3590.95	0.9453
3599.57	0.9443
3608.18	0.951
3616.8	0.949
3625.41	0.945
3634.03	0.945
3642.64	0.9468
3651.26	0.949
3659.87	0.949
3668.49	0.949
3677.1	0.9485
3685.72	0.946
3694.33	0.945
3702.95	0.937
3711.56	0.933
3720.18	0.931
3728.79	0.9352
3737.41	0.942
3746.03	0.943
3754.64	0.946
3763.26	0.949
3771.87	0.949
3780.49	0.951
3789.1	0.9517
3797.72	0.951
