Infrared Spectrum: BIS-(4-BROMOPHENYL)ETHER
Formula: C12 H8 Br2 O
CAS: 2050-47-7
State: SOLUTION (10% CCl4 FOR 3800-1330, 10% CS2 FOR 1330-450 CM^-^1)
Class: COBLENTZ
Instrument: Not specified, most likely a prism, grating, or hybrid spectrometer.
Sampling: TRANSMISSION
Path length: 0.0105 CM, 0.0111 CM
Resolution: 4
Origin: DOW CHEMICAL COMPANY
1/CM	TRANSMITTANCE
425.414	0.912
434.885	0.924
444.356	0.929
453.828	0.933
463.299	0.933
472.77	0.933
482.241	0.909
491.712	0.5852
501.184	0.2637
510.655	0.9
520.126	0.981
529.597	1.003
539.068	1.014
548.539	1.022
558.011	1.027
567.482	1.027
576.953	1.027
586.424	1.031
595.895	1.031
605.367	1.014
614.838	0.961
624.309	0.8289
633.78	0.888
643.251	0.6881
652.723	0.8829
662.194	0.994
671.665	1.014
681.136	1
690.607	0.974
700.079	0.994
709.55	0.977
719.021	1.007
728.492	1.016
737.963	1.016
747.434	1.012
756.906	1.012
766.377	1.001
775.848	0.9291
785.319	0.9219
794.79	0.933
804.262	0.79
813.733	0.5313
823.204	0.038
832.675	0.562
842.146	0.3661
851.618	0.596
861.089	0.72
870.56	0.479
880.031	0.901
889.502	0.972
898.974	1.003
908.445	1.007
917.916	1.003
927.387	0.99
936.858	0.977
946.329	0.975
955.801	0.994
965.272	1.009
974.743	1.011
984.214	1.005
993.685	0.968
1003.16	0.6774
1012.63	0.632
1022.1	1.001
1031.57	1.001
1041.04	0.979
1050.51	0.9201
1059.98	0.5836
1069.45	0.203
1078.93	0.7399
1088.4	0.866
1097.87	0.7478
1107.34	0.89
1116.81	0.979
1126.28	0.998
1135.75	0.998
1145.22	0.99
1154.7	0.9381
1164.17	0.285
1173.64	0.94
1183.11	0.916
1192.58	0.8182
1202.05	0.7479
1211.52	0.7661
1220.99	0.4111
1230.47	0.027
1239.94	0.009
1249.41	0.1605
1258.88	0.4849
1268.35	0.505
1277.82	0.47
1287.29	0.651
1296.76	0.7199
1306.23	0.872
1315.71	0.948
1325.18	0.987
1334.65	0.994
1344.12	0.992
1353.59	0.988
1363.06	0.99
1372.53	1.007
1382	1.014
1391.48	0.983
1400.95	0.887
1410.42	0.9549
1419.89	0.937
1429.36	0.785
1438.83	0.8419
1448.3	0.927
1457.77	0.9
1467.24	0.666
1476.72	0.0662
1486.19	0.009
1495.66	0.2549
1505.13	0.659
1514.6	0.698
1524.07	0.701
1533.54	0.6481
1543.01	0.55
1552.49	0.514
1561.96	0.564
1571.43	0.4921
1580.9	0.227
1590.37	0.6349
1599.84	0.8
1609.31	0.911
1618.78	0.94
1628.26	0.95
1637.73	0.961
1647.2	0.961
1656.67	0.959
1666.14	0.972
1675.61	1.001
1685.08	1.007
1694.55	1.001
1704.02	1.009
1713.5	1.001
1722.97	1
1732.44	0.992
1741.91	0.985
1751.38	0.985
1760.85	0.977
1770.32	0.992
1779.79	1.009
1789.27	1.009
1798.74	1.009
1808.21	1.009
1817.68	1.009
1827.15	1.007
1836.62	1.003
1846.09	0.998
1855.56	0.987
1865.03	0.985
1874.51	0.935
1883.98	0.881
1893.45	0.957
1902.92	0.994
1912.39	1.007
1921.86	1.012
1931.33	1.012
1940.8	0.998
1950.28	1.007
1959.75	1.011
1969.22	1.011
1978.69	1.009
1988.16	1.005
1997.63	0.998
2007.1	0.9721
2016.57	0.9532
2026.05	0.9585
2035.52	0.9806
2044.99	0.9957
2054.46	0.9943
2063.93	0.9872
2073.4	0.9826
2082.87	0.9895
2092.34	0.9969
2101.81	1.0064
2111.29	1.007
2120.76	1.007
2130.23	1.0082
2139.7	1.009
2149.17	1.011
2158.64	1.011
2168.11	1.011
2177.58	1.011
2187.06	1.011
2196.53	1.011
2206	1.009
2215.47	1.007
2224.94	1.007
2234.41	1.007
2243.88	1.0045
2253.35	0.9961
2262.82	0.9727
2272.3	0.985
2281.77	0.985
2291.24	0.985
2300.71	0.987
2310.18	0.988
2319.65	0.9881
2329.12	0.99
2338.59	0.992
2348.07	0.992
2357.54	0.992
2367.01	0.992
2376.48	0.992
2385.95	0.992
2395.42	0.9781
2404.89	0.9736
2414.36	0.987
2423.84	0.9681
2433.31	0.9544
2442.78	0.9825
2452.25	0.9893
2461.72	0.9893
2471.19	0.9972
2480.66	1
2490.13	0.998
2499.6	1.002
2509.08	1.003
2518.55	1.0039
2528.02	1.005
2537.49	1.0006
2546.96	0.9993
2556.43	0.9933
2565.9	0.9982
2575.37	1.007
2584.85	1.009
2594.32	1.011
2603.79	1.012
2613.26	1.012
2622.73	1.0107
2632.2	1.007
2641.67	1.005
2651.14	1.005
2660.61	1.007
2670.09	1.005
2679.56	1.005
2689.03	1.005
2698.5	1.005
2707.97	1.005
2717.44	1.007
2726.91	1.007
2736.38	1.009
2745.86	1.009
2755.33	1.007
2764.8	1.005
2774.27	1.009
2783.74	1.009
2793.21	1.0077
2802.68	1.003
2812.15	1.0004
2821.63	0.998
2831.1	0.996
2840.57	0.99
2850.04	0.986
2859.51	0.998
2868.98	1.001
2878.45	1.0038
2887.92	1.005
2897.39	1.007
2906.87	1.0044
2916.34	1.001
2925.81	1.007
2935.28	1.0085
2944.75	1.0066
2954.22	1.0074
2963.69	1.0093
2973.16	1.0111
2982.64	1.012
2992.11	1.014
3001.58	1.011
3011.05	1.007
3020.52	1.0011
3029.99	0.9798
3039.46	0.9738
3048.93	0.9902
3058.4	0.9758
3067.88	0.957
3077.35	0.9709
3086.82	0.981
3096.29	0.9835
3105.76	1.009
3115.23	1.012
3124.7	1.016
3134.17	1.02
3143.65	1.018
3153.12	1.0212
3162.59	1.022
3172.06	1.022
3181.53	1.022
3191	1.025
3200.47	1.025
3209.94	1.025
3219.42	1.025
3228.89	1.025
3238.36	1.025
3247.83	1.025
3257.3	1.024
3266.77	1.024
3276.24	1.024
3285.71	1.024
3295.18	1.024
3304.66	1.024
3314.13	1.024
3323.6	1.024
3333.07	1.024
3342.54	1.022
3352.01	1.022
3361.48	1.022
3370.95	1.02
3380.43	1.02
3389.9	1.02
3399.37	1.02
3408.84	1.0217
3418.31	1.024
3427.78	1.024
3437.25	1.02
3446.72	1.018
3456.19	1.018
3465.67	1.018
3475.14	1.02
3484.61	1.02
3494.08	1.018
3503.55	1.018
3513.02	1.016
3522.49	1.016
3531.96	1.016
3541.44	1.016
3550.91	1.018
3560.38	1.018
3569.85	1.016
3579.32	1.0154
3588.79	1.014
3598.26	1.014
3607.73	1.014
3617.21	1.014
3626.68	1.012
3636.15	1.012
3645.62	1.012
3655.09	1.012
3664.56	1.012
3674.03	1.012
3683.5	1.011
3692.97	1.009
3702.45	1.0109
3711.92	1.012
3721.39	1.012
3730.86	1.012
3740.33	1.012
3749.8	1.014
3759.27	1.014
3768.74	1.014
3778.22	1.014
3787.69	1.014
