Infrared Spectrum: 2,4-DIMETHYLACETANILIDE
Formula: C10 H13 N O
CAS: 2050-43-3
State: SOLID (MINERAL OIL MULL)
Melting point: 129-131 C
Class: COBLENTZ
Instrument: Not specified, most likely a prism, grating, or hybrid spectrometer.
Sampling: TRANSMISSION
Resolution: 4
Origin: WYANDOTTE CHEMICALS CORP., WYANDOTTE, MICHIGAN, USA
MICROMETERS	TRANSMITTANCE
2.033	0.654
2.07283	0.659
2.11266	0.671
2.15249	0.671
2.19231	0.662
2.23214	0.649
2.27197	0.657
2.3118	0.679
2.35163	0.684
2.39146	0.692
2.43129	0.697
2.47112	0.699
2.51094	0.707
2.55077	0.712
2.5906	0.722
2.63043	0.724
2.67026	0.729
2.71009	0.72
2.74992	0.715
2.78974	0.714
2.82957	0.702
2.8694	0.699
2.90923	0.696
2.94906	0.691
2.98889	0.664
3.02872	0.46
3.06854	0.116
3.10837	0.295
3.1482	0.375
3.18803	0.506
3.22786	0.511
3.26769	0.549
3.30752	0.382
3.34735	0.244
3.38717	0.073
3.427	0.078
3.46683	0.159
3.50666	0.149
3.54649	0.475
3.58632	0.662
3.62615	0.714
3.66597	0.737
3.7058	0.765
3.74563	0.799
3.78546	0.803
3.82529	0.81
3.86512	0.827
3.90495	0.837
3.94477	0.848
3.9846	0.85
4.02443	0.858
4.06426	0.858
4.10409	0.857
4.14392	0.86
4.18375	0.865
4.22358	0.863
4.2634	0.857
4.30323	0.857
4.34306	0.867
4.38289	0.895
4.42272	0.901
4.46255	0.9
4.50238	0.897
4.5422	0.9
4.58203	0.9
4.62186	0.9
4.66169	0.91
4.70152	0.911
4.74135	0.92
4.78118	0.916
4.821	0.918
4.86083	0.921
4.90066	0.925
4.94049	0.928
4.98032	0.93
5.02015	0.93
5.05998	0.921
5.09981	0.921
5.13963	0.928
5.17946	0.93
5.21929	0.918
5.25912	0.92
5.29895	0.898
5.33878	0.908
5.37861	0.918
5.41843	0.928
5.45826	0.923
5.49809	0.923
5.53792	0.916
5.57775	0.888
5.61758	0.901
5.65741	0.898
5.69723	0.867
5.73706	0.818
5.77689	0.828
5.81672	0.787
5.85655	0.719
5.89638	0.629
5.93621	0.465
5.97604	0.299
6.01586	0.081
6.05569	0.068
6.09552	0.169
6.13535	0.302
6.17518	0.245
6.21501	0.24
6.25484	0.272
6.29466	0.448
6.33449	0.508
6.37432	0.453
6.41415	0.3
6.45398	0.124
6.49381	0.071
6.53364	0.111
6.57346	0.2
6.61329	0.194
6.65312	0.232
6.69295	0.299
6.73278	0.313
6.77261	0.249
6.81244	0.162
6.85227	0.167
6.89209	0.189
6.93192	0.232
6.97175	0.279
7.01158	0.33
7.05141	0.338
7.09124	0.294
7.13107	0.28
7.17089	0.318
7.21072	0.338
7.25055	0.272
7.29038	0.229
7.33021	0.22
7.37004	0.421
7.40987	0.533
7.44969	0.559
7.48952	0.578
7.52935	0.619
7.56918	0.602
7.60901	0.504
7.64884	0.368
7.68867	0.149
7.7285	0.275
7.76832	0.27
7.80815	0.234
7.84798	0.338
7.88781	0.485
7.92764	0.573
7.96747	0.607
8.0073	0.461
8.04712	0.584
8.08695	0.654
8.12678	0.687
8.16661	0.589
8.20644	0.612
8.24627	0.702
8.2861	0.75
8.32593	0.777
8.36575	0.787
8.40558	0.799
8.44541	0.8
8.48524	0.81
8.52507	0.81
8.5649	0.8
8.60473	0.79
8.64455	0.795
8.68438	0.83
8.72421	0.848
8.76404	0.858
8.80387	0.86
8.8437	0.843
8.88353	0.747
8.92335	0.838
8.96318	0.863
9.00301	0.87
9.04284	0.867
9.08267	0.865
9.1225	0.86
9.16233	0.857
9.20216	0.852
9.24198	0.84
9.28181	0.832
9.32164	0.827
9.36147	0.823
9.4013	0.818
9.44113	0.807
9.48096	0.785
9.52078	0.74
9.56061	0.676
9.60044	0.586
9.64027	0.496
9.6801	0.546
9.71993	0.614
9.75976	0.584
9.79958	0.504
9.83941	0.503
9.87924	0.549
9.91907	0.626
9.9589	0.696
9.99873	0.749
10.0386	0.779
10.0784	0.794
10.1182	0.8
10.158	0.795
10.1979	0.775
10.2377	0.681
10.2775	0.513
10.3174	0.619
10.3572	0.745
10.397	0.8
10.4368	0.82
10.4767	0.828
10.5165	0.832
10.5563	0.789
10.5962	0.807
10.636	0.847
10.6758	0.855
10.7156	0.858
10.7555	0.853
10.7953	0.843
10.8351	0.759
10.875	0.719
10.9148	0.812
10.9546	0.842
10.9944	0.86
11.0343	0.867
11.0741	0.872
11.1139	0.875
11.1538	0.877
11.1936	0.877
11.2334	0.877
11.2732	0.877
11.3131	0.875
11.3529	0.87
11.3927	0.853
11.4326	0.734
11.4724	0.539
11.5122	0.8
11.552	0.848
11.5919	0.862
11.6317	0.87
11.6715	0.87
11.7114	0.865
11.7512	0.86
11.791	0.853
11.8308	0.848
11.8707	0.84
11.9105	0.82
11.9503	0.787
11.9902	0.697
12.03	0.578
12.0698	0.596
12.1096	0.681
12.1495	0.717
12.1893	0.702
12.2291	0.636
12.269	0.473
12.3088	0.315
12.3486	0.209
12.3884	0.328
12.4283	0.519
12.4681	0.666
12.5079	0.745
12.5478	0.794
12.5876	0.815
12.6274	0.83
12.6672	0.84
12.7071	0.85
12.7469	0.852
12.7867	0.852
12.8266	0.85
12.8664	0.842
12.9062	0.84
12.946	0.833
12.9859	0.822
13.0257	0.813
13.0655	0.812
13.1054	0.802
13.1452	0.794
13.185	0.78
13.2248	0.77
13.2647	0.757
13.3045	0.747
13.3443	0.73
13.3842	0.717
13.424	0.696
13.4638	0.671
13.5036	0.642
13.5435	0.617
13.5833	0.586
13.6231	0.549
13.663	0.514
13.7028	0.481
13.7426	0.465
13.7824	0.473
13.8223	0.526
13.8621	0.569
13.9019	0.534
13.9418	0.511
13.9816	0.551
14.0214	0.602
14.0612	0.533
14.1011	0.418
14.1409	0.367
14.1807	0.362
14.2206	0.401
14.2604	0.455
14.3002	0.503
14.34	0.549
14.3799	0.588
14.4197	0.624
14.4595	0.651
14.4994	0.674
14.5392	0.697
14.579	0.719
14.6189	0.744
14.6587	0.752
14.6985	0.764
14.7383	0.777
14.7782	0.78
14.818	0.787
14.8578	0.799
14.8977	0.808
14.9375	0.812
14.9773	0.817
15.0171	0.805
15.057	0.78
15.0968	0.77
15.1366	0.803
15.1765	0.82
15.2163	0.823
15.2561	0.818
15.2959	0.812
15.3358	0.808
15.3756	0.799
15.4154	0.795
15.4553	0.792
15.4951	0.78
15.5349	0.779
15.5747	0.769
15.6146	0.759
15.6544	0.754
15.6942	0.749
15.7341	0.744
15.7739	0.73
15.8137	0.71
15.8535	0.691
15.8934	0.664
15.9332	0.641
15.973	0.612
