Infrared Spectrum: 3,5-DIETHYLTOLUENE
Formula: C11 H16
CAS: 2050-24-0
State: SOLUTION (10% CCl4 FOR 3800-1330, 10% CS2 FOR 1330-450 CM^-^1)
Class: COBLENTZ III
Instrument: DOW KBr FOREPRISM-GRATING
Instrument parameters: BLAZED AT 3.5, 12.0, 20.0 MICRON AND CHANGED AT 5.0, 7.5, 14.9 MICRON
Sampling: TRANSMISSION
Path length: 0.011 CM, 0.011 CM
Resolution: 2
Origin: DOW CHEMICAL COMPANY
1/CM	TRANSMITTANCE
443.599	0.96
452.377	0.965
461.156	0.98
469.934	0.994
478.712	0.998
487.491	1.001
496.269	1.008
505.047	0.998
513.826	1.008
522.604	1.016
531.383	1.015
540.161	1.013
548.939	1
557.718	1.034
566.496	1.039
575.274	1.047
584.053	1.049
592.831	1.043
601.609	1.047
610.388	1.047
619.166	1.047
627.944	1.043
636.723	1.03
645.501	0.986
654.28	0.958
663.058	1.01
671.836	1.012
680.615	0.986
689.393	0.884
698.171	0.365
706.95	0.653
715.728	0.939
724.506	0.982
733.285	1.004
742.063	1.013
750.841	0.99
759.62	1.005
768.398	0.978
777.176	0.85
785.955	0.936
794.733	0.967
803.512	0.956
812.29	0.872
821.068	0.926
829.847	0.945
838.625	0.873
847.403	0.356
856.182	0.3391
864.96	0.752
873.738	0.694
882.517	0.686
891.295	0.924
900.073	0.961
908.852	0.917
917.63	0.968
926.409	1.015
935.187	1.017
943.965	1.024
952.744	1.013
961.522	1.009
970.3	1.002
979.079	0.989
987.857	0.991
996.635	0.984
1005.41	0.983
1014.19	0.965
1022.97	0.935
1031.75	0.872
1040.53	0.886
1049.31	0.906
1058.08	0.797
1066.86	0.735
1075.64	0.906
1084.42	0.964
1093.2	0.982
1101.98	0.995
1110.75	1.01
1119.53	1.021
1128.31	1.027
1137.09	1.023
1145.87	1.023
1154.65	1.008
1163.42	0.986
1172.2	1.013
1180.98	1.02
1189.76	1.034
1198.54	1.026
1207.32	1.024
1216.09	1.027
1224.87	1.023
1233.65	1.009
1242.43	0.979
1251.21	0.956
1259.99	0.961
1268.76	0.952
1277.54	0.941
1286.32	0.921
1295.1	0.898
1303.88	0.905
1312.66	0.867
1321.43	0.794
1330.21	0.834
1338.99	0.826
1347.77	0.868
1356.55	0.876
1365.33	0.871
1374.1	0.676
1382.88	0.691
1391.66	0.82
1400.44	0.843
1409.22	0.83
1418	0.797
1426.77	0.76
1435.55	0.694
1444.33	0.571
1453.11	0.358
1461.89	0.178
1470.67	0.409
1479.44	0.615
1488.22	0.657
1497	0.665
1505.78	0.628
1514.56	0.591
1523.34	0.62
1532.11	0.586
1540.89	0.515
1549.67	0.456
1558.45	0.493
1567.23	0.557
1576.01	0.586
1584.79	0.556
1593.56	0.516
1602.34	0.224
1611.12	0.3951
1619.9	0.786
1628.68	0.858
1637.46	0.905
1646.23	0.917
1655.01	0.926
1663.79	0.93
1672.57	0.928
1681.35	0.919
1690.13	0.893
1698.9	0.924
1707.68	0.924
1716.46	0.943
1725.24	0.939
1734.02	0.901
1742.8	0.865
1751.57	0.915
1760.35	0.905
1769.13	0.871
1777.91	0.894
1786.69	0.928
1795.47	0.941
1804.24	0.945
1813.02	0.947
1821.8	0.943
1830.58	0.943
1839.36	0.942
1848.14	0.938
1856.91	0.935
1865.69	0.939
1874.47	0.941
1883.25	0.938
1892.03	0.934
1900.81	0.938
1909.58	0.942
1918.36	0.941
1927.14	0.936
1935.92	0.942
1944.7	0.943
1953.48	0.945
1962.25	0.946
1971.03	0.949
1979.81	0.949
1988.59	0.949
1997.37	0.949
2006.15	0.955
2014.92	0.957
2023.7	0.957
2032.48	0.957
2041.26	0.958
2050.04	0.96
2058.82	0.9623
2067.59	0.964
2076.37	0.9633
2085.15	0.963
2093.93	0.964
2102.71	0.968
2111.49	0.967
2120.26	0.967
2129.04	0.967
2137.82	0.968
2146.6	0.9653
2155.38	0.965
2164.16	0.9641
2172.93	0.964
2181.71	0.964
2190.49	0.964
2199.27	0.963
2208.05	0.963
2216.83	0.963
2225.61	0.961
2234.38	0.96
2243.16	0.958
2251.94	0.958
2260.72	0.958
2269.5	0.9568
2278.28	0.9498
2287.05	0.939
2295.83	0.939
2304.61	0.942
2313.39	0.9493
2322.17	0.9527
2330.95	0.949
2339.72	0.9604
2348.5	0.964
2357.28	0.963
2366.06	0.9634
2374.84	0.967
2383.62	0.967
2392.39	0.966
2401.17	0.957
2409.95	0.9605
2418.73	0.963
2427.51	0.9564
2436.29	0.9592
2445.06	0.961
2453.84	0.961
2462.62	0.958
2471.4	0.9594
2480.18	0.9625
2488.96	0.965
2497.73	0.965
2506.51	0.9642
2515.29	0.964
2524.07	0.963
2532.85	0.961
2541.63	0.961
2550.4	0.965
2559.18	0.9679
2567.96	0.969
2576.74	0.968
2585.52	0.964
2594.3	0.963
2603.07	0.961
2611.85	0.961
2620.63	0.9609
2629.41	0.9579
2638.19	0.956
2646.97	0.9557
2655.74	0.954
2664.52	0.9572
2673.3	0.96
2682.08	0.9578
2690.86	0.9567
2699.64	0.954
2708.41	0.95
2717.19	0.9393
2725.97	0.9073
2734.75	0.8845
2743.53	0.934
2752.31	0.9316
2761.08	0.928
2769.86	0.926
2778.64	0.914
2787.42	0.9045
2796.2	0.9
2804.98	0.8944
2813.75	0.8817
2822.53	0.8563
2831.31	0.8025
2840.09	0.7078
2848.87	0.584
2857.65	0.3618
2866.42	0.3019
2875.2	0.2155
2883.98	0.3411
2892.76	0.3175
2901.54	0.31
2910.32	0.2977
2919.1	0.1733
2927.87	0.0947
2936.65	0.1004
2945.43	0.242
2954.21	0.15
2962.99	0.014
2971.77	0.0378
2980.54	0.1984
2989.32	0.3938
2998.1	0.5012
3006.88	0.4576
3015.66	0.332
3024.44	0.397
3033.21	0.5952
3041.99	0.69
3050.77	0.7268
3059.55	0.7667
3068.33	0.818
3077.11	0.8873
3085.88	0.9043
3094.66	0.9153
3103.44	0.929
3112.22	0.9397
3121	0.9437
3129.78	0.9456
3138.55	0.945
3147.33	0.9454
3156.11	0.947
3164.89	0.947
3173.67	0.946
3182.45	0.948
3191.22	0.9551
3200	0.9576
3208.78	0.9618
3217.56	0.9606
3226.34	0.965
3235.12	0.965
3243.89	0.967
3252.67	0.967
3261.45	0.9687
3270.23	0.9695
3279.01	0.9688
3287.79	0.9756
3296.56	0.969
3305.34	0.972
3314.12	0.973
3322.9	0.978
3331.68	0.9692
3340.46	0.9748
3349.23	0.978
3358.01	0.975
3366.79	0.973
3375.57	0.978
3384.35	0.978
3393.13	0.975
3401.9	0.978
3410.68	0.9756
3419.46	0.975
3428.24	0.9777
3437.02	0.976
3445.8	0.975
3454.57	0.9746
3463.35	0.971
3472.13	0.9713
3480.91	0.9753
3489.69	0.976
3498.47	0.9743
3507.24	0.9697
3516.02	0.968
3524.8	0.9684
3533.58	0.972
3542.36	0.969
3551.14	0.972
3559.91	0.974
3568.69	0.9625
3577.47	0.9696
3586.25	0.9786
3595.03	0.9661
3603.81	0.954
3612.59	0.9695
3621.36	0.9773
3630.14	0.979
3638.92	0.9793
3647.7	0.976
3656.48	0.9795
3665.26	0.9765
3674.03	0.982
3682.81	0.9734
3691.59	0.976
3700.37	0.979
3709.15	0.98
3717.93	0.98
3726.7	0.98
3735.48	0.98
3744.26	0.982
3753.04	0.983
3761.82	0.983
3770.6	0.983
3779.37	0.986
3788.15	0.987
