Infrared Spectrum: Carbonic acid, di-n-amyl ester
Formula: C11 H22 O3
CAS: 2050-94-4
State: SOLUTION (10% CCl4 FOR 3800-1330, 10% CS2 FOR 1330-400)
Class: COBLENTZ III
Instrument: BECKMAN IR-9 (GRATING)
Instrument parameters: ORDER CHANGES: 670, 1200, 2000 CM^-^1
Sampling: TRANSMISSION
Path length: 0.011 CM, 0.011 CM
Resolution: 2
Origin: DOW CHEMICAL COMPANY
1/CM	TRANSMITTANCE
3818	0.9151
3809	0.9136
3800	0.9125
3791	0.913
3782	0.9121
3773	0.9134
3764	0.9145
3755	0.9154
3746	0.9161
3737	0.9178
3728	0.9185
3719	0.9173
3710	0.9187
3701	0.9207
3692	0.9199
3683	0.918
3674	0.914
3665	0.9049
3656	0.8996
3647	0.8963
3638	0.8995
3629	0.9031
3620	0.9077
3611	0.9082
3602	0.9058
3593	0.9039
3584	0.9011
3575	0.8976
3566	0.8978
3557	0.901
3548	0.9053
3539	0.9075
3530	0.9097
3521	0.9103
3512	0.9117
3503	0.9084
3494	0.9031
3485	0.8983
3476	0.9001
3467	0.9058
3458	0.9122
3449	0.9167
3440	0.921
3431	0.9243
3422	0.9263
3413	0.9281
3404	0.9283
3395	0.9278
3386	0.9274
3377	0.9265
3368	0.9259
3359	0.9252
3350	0.9247
3341	0.9243
3332	0.9238
3323	0.9233
3314	0.9227
3305	0.9233
3296	0.9217
3287	0.9213
3278	0.9217
3269	0.9217
3260	0.9216
3251	0.9215
3242	0.9211
3233	0.9194
3224	0.9169
3215	0.9144
3206	0.9128
3197	0.9129
3188	0.9128
3179	0.9113
3170	0.9112
3161	0.9117
3152	0.9126
3143	0.9118
3134	0.9124
3125	0.9113
3116	0.9102
3107	0.9092
3098	0.9095
3089	0.9088
3080	0.9054
3071	0.9021
3062	0.894
3053	0.8848
3044	0.8739
3035	0.8506
3026	0.8086
3017	0.7466
3008	0.6977
2999	0.5315
2990	0.4364
2981	0.2902
2972	0.0716
2963	0.0074
2954	0.035
2945	0.0527
2936	0.0335
2927	0.0633
2918	0.1283
2909	0.1933
2900	0.2478
2891	0.328
2882	0.3111
2873	0.1425
2864	0.1601
2855	0.2689
2846	0.5376
2837	0.6635
2828	0.7872
2819	0.8192
2810	0.8403
2801	0.8577
2792	0.8724
2783	0.8845
2774	0.8924
2765	0.8973
2756	0.8982
2747	0.8952
2738	0.8895
2729	0.8941
2720	0.9047
2711	0.9121
2702	0.9126
2693	0.9114
2684	0.9091
2675	0.91
2666	0.915
2657	0.9209
2648	0.9244
2639	0.9276
2630	0.9298
2621	0.9328
2612	0.9344
2603	0.9357
2594	0.9384
2585	0.9419
2576	0.9461
2567	0.9478
2558	0.9487
2549	0.9493
2540	0.9479
2531	0.9437
2522	0.9413
2513	0.9415
2504	0.9423
2495	0.9447
2486	0.9474
2477	0.951
2468	0.9531
2459	0.9552
2450	0.9561
2441	0.9546
2432	0.9508
2423	0.9475
2414	0.9467
2405	0.947
2396	0.9449
2387	0.9425
2378	0.9415
2369	0.9384
2360	0.9385
2351	0.943
2342	0.9448
2333	0.9456
2324	0.9498
2315	0.95
2306	0.9495
2297	0.9501
2288	0.9493
2279	0.9513
2270	0.9512
2261	0.9492
2252	0.9462
2243	0.9434
2234	0.942
2225	0.9422
2216	0.9414
2207	0.9427
2198	0.9439
2189	0.9442
2180	0.947
2171	0.951
2162	0.9528
2153	0.9554
2144	0.958
2135	0.9604
2126	0.963
2117	0.9655
2108	0.9667
2099	0.9661
2090	0.9639
2081	0.9595
2072	0.9545
2063	0.9517
2054	0.9502
2045	0.9466
2036	0.9484
2027	0.9524
2018	0.954
2009	0.9548
2000	0.9525
1991	0.9433
1982	0.951
1973	0.9571
1964	0.9596
1955	0.9625
1946	0.9622
1937	0.964
1928	0.9647
1919	0.962
1910	0.9583
1901	0.9551
1892	0.9506
1883	0.9448
1874	0.9397
1865	0.9334
1856	0.9268
1847	0.9178
1838	0.9057
1829	0.8897
1820	0.8662
1811	0.8573
1802	0.8451
1793	0.8238
1784	0.7879
1775	0.7243
1766	0.5548
1757	0.1735
1748	0.0069
1739	0.0036
1730	0.0895
1721	0.2673
1712	0.6316
1703	0.6969
1694	0.7491
1685	0.8175
1676	0.8424
1667	0.8636
1658	0.8783
1649	0.8875
1640	0.894
1631	0.8977
1622	0.8937
1613	0.8852
1604	0.8722
1595	0.8479
1586	0.8056
1577	0.7836
1568	0.7827
1559	0.7726
1550	0.7509
1541	0.7821
1532	0.7856
1523	0.8045
1514	0.8199
1505	0.8163
1496	0.8071
1487	0.7799
1478	0.6538
1469	0.2558
1460	0.2106
1451	0.3072
1442	0.5683
1433	0.6485
1424	0.7518
1415	0.7126
1406	0.4596
1397	0.2212
1388	0.5532
1379	0.3886
1370	0.5303
1361	0.621
1352	0.6712
1343	0.6443
1334	0.6538
1325	0.4484
1316	0.3853
1307	0.3676
1298	0.2465
1289	0.1836
1280	0.0769
1271	0.0174
1262	0.0035
1253	0.0026
1244	0.0035
1235	0.0471
1226	0.2258
1217	0.3193
1208	0.4437
1199	0.5385
1190	0.6576
1181	0.7019
1172	0.6887
1163	0.6902
1154	0.684
1145	0.7121
1136	0.7132
1127	0.6809
1118	0.6552
1109	0.6737
1100	0.6954
1091	0.6784
1082	0.665
1073	0.5708
1064	0.5713
1055	0.5612
1046	0.434
1037	0.4031
1028	0.502
1019	0.5226
1010	0.5641
1001	0.6118
992	0.5989
983	0.5447
974	0.3578
965	0.1816
956	0.2354
947	0.4077
938	0.5289
929	0.6462
920	0.7015
911	0.721
902	0.724
893	0.6795
884	0.585
875	0.5731
866	0.6633
857	0.7065
848	0.735
839	0.7483
830	0.7625
821	0.7756
812	0.7599
803	0.6744
794	0.25
785	0.553
776	0.6834
767	0.745
758	0.778
749	0.7717
740	0.7355
731	0.6831
722	0.7571
713	0.7892
704	0.8075
695	0.8269
686	0.8382
677	0.8419
668	0.8316
659	0.8129
650	0.8019
641	0.806
632	0.8156
623	0.8215
614	0.8309
605	0.8294
596	0.8281
587	0.8264
578	0.8243
569	0.8237
560	0.8243
551	0.8231
542	0.8209
533	0.8185
524	0.8074
515	0.7862
506	0.7747
497	0.766
488	0.7533
479	0.7503
470	0.7216
461	0.6966
452	0.6898
443	0.6581
434	0.6206
425	0.5255
416	0.3813
407	0.3678
398	0.4403
