Infrared Spectrum: Toluene-2,5-diamine, N^5,N^5-diethyl-, hydrochloride
Formula: C11 H19 Cl N2
CAS: 2051-79-8
State: SOLID (SPLIT MULL), FLUOROLUBE FOR 3800-1330 CM^-^1, NUJOL FOR 1330-460 CM^-^1
Class: COBLENTZ II
Instrument: DOW KBr FOREPRISM-GRATING
Instrument parameters: BLAZED AT 3.5, 12.0, 20.0 MICRON AND CHANGED AT 5.0, 7.5, 14.9 MICRON
Sampling: TRANSMISSION
Resolution: 2
Origin: DOW CHEMICAL COMPANY
1/CM	TRANSMITTANCE
3784	0.5875
3775	0.5893
3766	0.5912
3757	0.5935
3748	0.5962
3739	0.5989
3730	0.6012
3721	0.6037
3712	0.6062
3703	0.6085
3694	0.6116
3685	0.6149
3676	0.6184
3667	0.6224
3658	0.6255
3649	0.6245
3640	0.6258
3631	0.6278
3622	0.6299
3613	0.6321
3604	0.6345
3595	0.6368
3586	0.6392
3577	0.6419
3568	0.6451
3559	0.6482
3550	0.6512
3541	0.6544
3532	0.6574
3523	0.6599
3514	0.6624
3505	0.6649
3496	0.6674
3487	0.6704
3478	0.6736
3469	0.6768
3460	0.6804
3451	0.684
3442	0.6855
3433	0.6786
3424	0.6485
3415	0.5584
3406	0.4625
3397	0.2907
3388	0.194
3379	0.2402
3370	0.3216
3361	0.4032
3352	0.4848
3343	0.5062
3334	0.4352
3325	0.2997
3316	0.1994
3307	0.2812
3298	0.3693
3289	0.4543
3280	0.4869
3271	0.491
3262	0.4891
3253	0.4768
3244	0.4637
3235	0.4181
3226	0.2854
3217	0.1824
3208	0.2648
3199	0.3986
3190	0.4924
3181	0.5286
3172	0.5516
3163	0.571
3154	0.5866
3145	0.6006
3136	0.6131
3127	0.6248
3118	0.6354
3109	0.6451
3100	0.6547
3091	0.6633
3082	0.6712
3073	0.6755
3064	0.6657
3055	0.6451
3046	0.6421
3037	0.6604
3028	0.6733
3019	0.6547
3010	0.6088
3001	0.573
2992	0.4696
2983	0.5279
2974	0.58
2965	0.5912
2956	0.5581
2947	0.5754
2938	0.5614
2929	0.5427
2920	0.4518
2911	0.4753
2902	0.5146
2893	0.5169
2884	0.5144
2875	0.5332
2866	0.541
2857	0.5044
2848	0.5209
2839	0.5825
2830	0.6421
2821	0.6697
2812	0.6768
2803	0.6645
2794	0.6241
2785	0.5977
2776	0.6288
2767	0.6557
2758	0.626
2749	0.6353
2740	0.638
2731	0.6371
2722	0.6155
2713	0.5724
2704	0.5449
2695	0.5458
2686	0.5986
2677	0.6021
2668	0.5366
2659	0.4837
2650	0.4974
2641	0.4826
2632	0.3564
2623	0.2691
2614	0.2267
2605	0.1494
2596	0.1327
2587	0.153
2578	0.1752
2569	0.1829
2560	0.1962
2551	0.2212
2542	0.2187
2533	0.1864
2524	0.2463
2515	0.2845
2506	0.2874
2497	0.3618
2488	0.3589
2479	0.311
2470	0.2859
2461	0.3584
2452	0.3856
2443	0.4073
2434	0.4289
2425	0.4544
2416	0.489
2407	0.5159
2398	0.5337
2389	0.5362
2380	0.5623
2371	0.5764
2362	0.5862
2353	0.5976
2344	0.6088
2335	0.6197
2326	0.6306
2317	0.6415
2308	0.6533
2299	0.6655
2290	0.6765
2281	0.6874
2272	0.6975
2263	0.7074
2254	0.7172
2245	0.7262
2236	0.7354
2227	0.7444
2218	0.7528
2209	0.7595
2200	0.7657
2191	0.7737
2182	0.7818
2173	0.789
2164	0.7958
2155	0.8024
2146	0.8091
2137	0.815
2128	0.8202
2119	0.8251
2110	0.8297
2101	0.8338
2092	0.838
2083	0.8421
2074	0.8458
2065	0.8498
2056	0.8541
2047	0.8584
2038	0.8627
2029	0.8663
2020	0.8699
2011	0.8724
2002	0.8737
1993	0.8749
1984	0.8764
1975	0.8781
1966	0.8794
1957	0.8811
1948	0.882
1939	0.881
1930	0.8862
1921	0.8897
1912	0.8794
1903	0.8735
1894	0.8874
1885	0.894
1876	0.8965
1867	0.899
1858	0.9003
1849	0.9015
1840	0.9063
1831	0.9061
1822	0.9013
1813	0.903
1804	0.9046
1795	0.899
1786	0.8907
1777	0.9031
1768	0.9127
1759	0.92
1750	0.9255
1741	0.9304
1732	0.9342
1723	0.934
1714	0.9344
1705	0.9351
1696	0.9378
1687	0.9342
1678	0.9296
1669	0.9186
1660	0.9078
1651	0.8449
1642	0.5355
1633	0.3193
1624	0.5408
1615	0.6561
1606	0.7784
1597	0.7301
1588	0.8465
1579	0.8989
1570	0.9125
1561	0.9087
1552	0.9075
1543	0.9101
1534	0.8871
1525	0.7511
1516	0.0484
1507	0.1403
1498	0.3493
1489	0.5989
1480	0.7246
1471	0.5471
1462	0.5912
1453	0.5838
1444	0.6411
1435	0.7508
1426	0.7115
1417	0.6632
1408	0.6861
1399	0.7101
1390	0.5517
1381	0.5596
1372	0.6382
1363	0.7185
1354	0.716
1345	0.6358
1336	0.5712
1327	0.5522
1318	0.2268
1309	0.3506
1300	0.4169
1291	0.5493
1282	0.5943
1273	0.6362
1264	0.6883
1255	0.7143
1246	0.7395
1237	0.7572
1228	0.7268
1219	0.7508
1210	0.7486
1201	0.7474
1192	0.7594
1183	0.7453
1174	0.6238
1165	0.4265
1156	0.3163
1147	0.6638
1138	0.7085
1129	0.6406
1120	0.6514
1111	0.6286
1102	0.6889
1093	0.7512
1084	0.7636
1075	0.7543
1066	0.7315
1057	0.716
1048	0.6817
1039	0.5956
1030	0.5247
1021	0.4021
1012	0.4425
1003	0.6746
994	0.7268
985	0.7442
976	0.7396
967	0.7401
958	0.7465
949	0.7511
940	0.7315
931	0.6908
922	0.6089
913	0.7597
904	0.7826
895	0.7654
886	0.7957
877	0.8086
868	0.7407
859	0.7601
850	0.7017
841	0.1744
832	0.3746
823	0.6825
814	0.8341
805	0.848
796	0.7656
787	0.8185
778	0.828
769	0.796
760	0.811
751	0.7951
742	0.7581
733	0.6882
724	0.6339
715	0.7232
706	0.7595
697	0.7725
688	0.7538
679	0.7234
670	0.7075
661	0.7257
652	0.7103
643	0.6925
634	0.6705
625	0.6547
616	0.6341
607	0.393
598	0.5295
589	0.6612
580	0.6861
571	0.7328
562	0.7718
553	0.7767
544	0.7669
535	0.7508
526	0.6832
517	0.5855
508	0.6515
499	0.6846
490	0.7184
481	0.703
472	0.6649
463	0.6753
454	0.6901
