Infrared Spectrum: BIPHENYL, 4-CHLORO-
Formula: C12 H9 Cl
CAS: 2051-62-9
State: SOLUTION (10% IN CCl4 FOR 3800-1340 AND 10% IN CS2 FOR 1340-450 CM^-^1)
Class: COBLENTZ III
Instrument: DOW KBr FOREPRISM-GRATING
Instrument parameters: BLAZED AT 3.5, 12.0, 20.0 MICRON, CHANGED AT 5.0, 7.5, 14.9 MICRON
Sampling: TRANSMISSION
Path length: 0.011, 0.011 CM
Resolution: 4
Origin: DOW CHEMICAL COMPANY
1/CM	TRANSMITTANCE
450.38	0.881
459.066	0.876
467.752	0.865
476.439	0.761
485.125	0.549
493.811	0.661
502.497	0.576
511.184	0.795
519.87	0.896
528.556	0.927
537.242	0.915
545.929	0.56
554.615	0.949
563.301	0.982
571.987	0.99
580.674	1
589.36	1.001
598.046	1.001
606.732	1.002
615.418	0.99
624.105	0.99
632.791	0.978
641.477	0.961
650.163	0.94
658.85	0.918
667.536	0.926
676.222	0.882
684.908	0.823
693.595	0.031
702.281	0.529
710.967	0.5751
719.653	0.895
728.339	0.899
737.026	0.702
745.712	0.785
754.398	0
763.084	0.274
771.771	0.824
780.457	0.892
789.143	0.915
797.829	0.91
806.516	0.887
815.202	0.851
823.888	0.5649
832.574	0.2351
841.261	0.776
849.947	0.768
858.633	0.779
867.319	0.813
876.005	0.855
884.692	0.895
893.378	0.904
902.064	0.896
910.75	0.836
919.437	0.934
928.123	0.937
936.809	0.919
945.495	0.918
954.182	0.902
962.868	0.921
971.554	0.933
980.24	0.929
988.927	0.912
997.613	0.88
1006.3	0.2022
1014.99	0.62
1023.67	0.896
1032.36	0.893
1041.04	0.835
1049.73	0.934
1058.42	0.923
1067.1	0.859
1075.79	0.703
1084.48	0.638
1093.16	0.07
1101.85	0.623
1110.53	0.857
1119.22	0.882
1127.91	0.911
1136.59	0.861
1145.28	0.9
1153.96	0.876
1162.65	0.882
1171.34	0.873
1180.02	0.876
1188.71	0.903
1197.4	0.934
1206.08	0.952
1214.77	0.959
1223.45	0.946
1232.14	0.944
1240.83	0.94
1249.51	0.94
1258.2	0.936
1266.89	0.944
1275.57	0.936
1284.26	0.891
1292.94	0.936
1301.63	0.904
1310.32	0.908
1319	0.934
1327.69	0.907
1336.38	0.933
1345.06	0.934
1353.75	0.929
1362.43	0.919
1371.12	0.933
1379.81	0.904
1388.49	0.881
1397.18	0.7588
1405.87	0.893
1414.55	0.933
1423.24	0.93
1431.92	0.896
1440.61	0.873
1449.3	0.6038
1457.98	0.843
1466.67	0.809
1475.36	0.2318
1484.04	0.1081
1492.73	0.5331
1501.41	0.6949
1510.1	0.636
1518.79	0.684
1527.47	0.655
1536.16	0.567
1544.85	0.478
1553.53	0.481
1562.22	0.541
1570.9	0.616
1579.59	0.64
1588.28	0.65
1596.96	0.67
1605.65	0.5381
1614.34	0.87
1623.02	0.911
1631.71	0.931
1640.39	0.926
1649.08	0.8909
1657.77	0.87
1666.45	0.907
1675.14	0.922
1683.83	0.94
1692.51	0.944
1701.2	0.949
1709.88	0.955
1718.57	0.955
1727.26	0.948
1735.94	0.931
1744.63	0.912
1753.32	0.897
1762	0.934
1770.69	0.914
1779.37	0.917
1788.06	0.94
1796.75	0.911
1805.43	0.911
1814.12	0.926
1822.8	0.926
1831.49	0.946
1840.18	0.946
1848.86	0.942
1857.55	0.938
1866.24	0.929
1874.92	0.881
1883.61	0.914
1892.29	0.85
1900.98	0.8171
1909.67	0.938
1918.35	0.946
1927.04	0.944
1935.73	0.927
1944.41	0.876
1953.1	0.926
1961.78	0.907
1970.47	0.952
1979.16	0.955
1987.84	0.953
1996.53	0.944
2005.22	0.956
2013.9	0.957
2022.59	0.956
2031.27	0.957
2039.96	0.961
2048.65	0.963
2057.33	0.963
2066.02	0.963
2074.71	0.961
2083.39	0.965
2092.08	0.967
2100.76	0.967
2109.45	0.968
2118.14	0.965
2126.82	0.967
2135.51	0.967
2144.2	0.968
2152.88	0.967
2161.57	0.967
2170.25	0.968
2178.94	0.967
2187.63	0.967
2196.31	0.967
2205	0.967
2213.69	0.968
2222.37	0.965
2231.06	0.964
2239.74	0.963
2248.43	0.961
2257.12	0.956
2265.8	0.952
2274.49	0.945
2283.18	0.934
2291.86	0.937
2300.55	0.941
2309.23	0.945
2317.92	0.941
2326.61	0.949
2335.29	0.953
2343.98	0.9589
2352.67	0.9609
2361.35	0.968
2370.04	0.9681
2378.72	0.968
2387.41	0.968
2396.1	0.967
2404.78	0.971
2413.47	0.9739
2422.16	0.975
2430.84	0.974
2439.53	0.975
2448.21	0.976
2456.9	0.9779
2465.59	0.978
2474.27	0.978
2482.96	0.9761
2491.65	0.975
2500.33	0.976
2509.02	0.976
2517.7	0.976
2526.39	0.975
2535.08	0.975
2543.76	0.975
2552.45	0.974
2561.13	0.974
2569.82	0.971
2578.51	0.97
2587.19	0.971
2595.88	0.9739
2604.57	0.9641
2613.25	0.968
2621.94	0.976
2630.62	0.978
2639.31	0.978
2648	0.978
2656.68	0.976
2665.37	0.978
2674.06	0.978
2682.74	0.9751
2691.43	0.976
2700.11	0.978
2708.8	0.978
2717.49	0.979
2726.17	0.9791
2734.86	0.9791
2743.55	0.978
2752.23	0.979
2760.92	0.978
2769.6	0.976
2778.29	0.976
2786.98	0.9781
2795.66	0.978
2804.35	0.9761
2813.04	0.976
2821.72	0.9759
2830.41	0.978
2839.09	0.978
2847.78	0.9741
2856.47	0.971
2865.15	0.968
2873.84	0.9611
2882.53	0.9638
2891.21	0.9719
2899.9	0.974
2908.58	0.974
2917.27	0.974
2925.96	0.972
2934.64	0.972
2943.33	0.9652
2952.02	0.9649
2960.7	0.967
2969.39	0.9631
2978.07	0.9551
2986.76	0.9521
2995.45	0.9363
3004.13	0.922
3012.82	0.9106
3021.51	0.844
3030.19	0.6179
3038.88	0.5899
3047.56	0.7949
3056.25	0.7122
3064.94	0.6516
3073.62	0.6917
3082.31	0.7351
3091	0.7622
3099.68	0.8796
3108.37	0.8689
3117.05	0.9395
3125.74	0.9627
3134.43	0.97
3143.11	0.968
3151.8	0.9749
3160.49	0.9778
3169.17	0.982
3177.86	0.9859
3186.54	0.987
3195.23	0.9899
3203.92	0.99
3212.6	0.993
3221.29	0.993
3229.97	0.993
3238.66	0.995
3247.35	0.9952
3256.03	0.9968
3264.72	0.997
3273.41	0.9998
3282.09	1
3290.78	1
3299.46	1
3308.15	1.001
3316.84	1.0001
3325.52	1
3334.21	1.001
3342.9	1.001
3351.58	1.001
3360.27	1.001
3368.95	1.001
3377.64	1.001
3386.33	1.001
3395.01	1.0022
3403.7	1.0022
3412.39	1.002
3421.07	1.001
3429.76	1.001
3438.44	1.001
3447.13	1.001
3455.82	1.0011
3464.5	1.001
3473.19	1.001
3481.88	1.001
3490.56	1.002
3499.25	1.001
3507.93	1.001
3516.62	1.002
3525.31	1.0011
3533.99	1.001
3542.68	1.001
3551.37	1.0022
3560.05	1.002
3568.74	1.001
3577.42	1.0009
3586.11	1.001
3594.8	0.9982
3603.48	1.002
3612.17	0.9931
3620.86	0.9973
3629.54	0.993
3638.23	0.99
3646.91	0.991
3655.6	0.989
3664.29	0.9941
3672.97	0.993
3681.66	0.99
3690.35	0.9899
3699.03	0.995
3707.72	0.991
3716.4	0.9928
3725.09	1.0009
3733.78	1.004
3742.46	1.004
