Infrared Spectrum: 4-DECANOL
Formula: C10 H22 O
CAS: 2051-31-2
State: LIQUID (NEAT)
Class: COBLENTZ III
Instrument: PERKIN-ELMER 621 (GRATING)
Instrument parameters: GRATING CHANGE AT 623; ORDER CHANGE AT 2000. FILTERS AT 3146, 2494, 2000, 1146, 698, 497 CM^-^1
Sampling: TRANSMISSION
Path length: 0.0015 CM (CsBr WINDOWS VS CsBr WINDOW; DEMOUNTABLE WINDOWS)
Resolution: 2
Origin: PERKIN-ELMER CORP. (R. HANNAH)
1/CM	TRANSMITTANCE
4000	0.8948
3990	0.8962
3980	0.8995
3970	0.9038
3960	0.9065
3950	0.9091
3940	0.9116
3930	0.9132
3920	0.9144
3910	0.9155
3900	0.9159
3890	0.9156
3880	0.9152
3870	0.9147
3860	0.9145
3850	0.9153
3840	0.9161
3830	0.9168
3820	0.9174
3810	0.9178
3800	0.9181
3790	0.9181
3780	0.9178
3770	0.9175
3760	0.9174
3750	0.918
3740	0.9201
3730	0.9225
3720	0.9225
3710	0.9214
3700	0.9198
3690	0.9178
3680	0.9159
3670	0.9142
3660	0.9106
3650	0.8848
3640	0.8354
3630	0.8201
3620	0.8193
3610	0.8202
3600	0.8307
3590	0.8228
3580	0.7974
3570	0.7621
3560	0.7045
3550	0.606
3540	0.5484
3530	0.5023
3520	0.4585
3510	0.3996
3500	0.3514
3490	0.3163
3480	0.2782
3470	0.224
3460	0.1843
3450	0.158
3440	0.1329
3430	0.1146
3420	0.0919
3410	0.0776
3400	0.0659
3390	0.0569
3380	0.0483
3370	0.043
3360	0.0407
3350	0.04
3340	0.0396
3330	0.0413
3320	0.046
3310	0.0526
3300	0.0623
3290	0.0763
3280	0.097
3270	0.1249
3260	0.1666
3250	0.2091
3240	0.2444
3230	0.2863
3220	0.3326
3210	0.3912
3200	0.4495
3190	0.4779
3180	0.5049
3170	0.5408
3160	0.5736
3150	0.6125
3140	0.6425
3130	0.6641
3120	0.6848
3110	0.7006
3100	0.7122
3090	0.7188
3080	0.7212
3070	0.7241
3060	0.7158
3050	0.7028
3040	0.6828
3030	0.6515
3020	0.5981
3010	0.5501
3000	0.5062
2990	0.3345
2980	0.1754
2970	0.044
2960	0.0024
2950	0
2940	0
2930	0
2920	0
2910	0
2900	0.0063
2890	0.0291
2880	0.0283
2870	0.0128
2860	0.0108
2850	0.013
2840	0.0972
2830	0.2455
2820	0.4116
2810	0.4673
2800	0.5544
2790	0.6126
2780	0.6628
2770	0.6921
2760	0.6989
2750	0.6997
2740	0.6783
2730	0.6691
2720	0.6992
2710	0.7208
2700	0.7271
2690	0.7261
2680	0.724
2670	0.7222
2660	0.7356
2650	0.7547
2640	0.7664
2630	0.7757
2620	0.7851
2610	0.7944
2600	0.8026
2590	0.8106
2580	0.8188
2570	0.8271
2560	0.8359
2550	0.8438
2540	0.8507
2530	0.8565
2520	0.8637
2510	0.8736
2500	0.8827
2490	0.8905
2480	0.8921
2470	0.8932
2460	0.8946
2450	0.896
2440	0.8975
2430	0.8989
2420	0.9004
2410	0.9018
2400	0.9033
2390	0.9047
2380	0.9062
2370	0.9075
2360	0.9092
2350	0.9113
2340	0.9134
2330	0.9156
2320	0.918
2310	0.9203
2300	0.9227
2290	0.9245
2280	0.9263
2270	0.928
2260	0.9297
2250	0.9316
2240	0.9338
2230	0.9359
2220	0.9367
2210	0.9373
2200	0.9374
2190	0.9366
2180	0.9359
2170	0.9352
2160	0.9365
2150	0.9378
2140	0.9391
2130	0.9403
2120	0.9414
2110	0.9425
2100	0.9433
2090	0.9442
2080	0.9444
2070	0.9443
2060	0.9442
2050	0.9432
2040	0.941
2030	0.9416
2020	0.9451
2010	0.9468
2000	0.9442
1990	0.939
1980	0.9385
1970	0.9381
1960	0.9378
1950	0.9351
1940	0.9341
1930	0.9347
1920	0.9352
1910	0.936
1900	0.9367
1890	0.9371
1880	0.9371
1870	0.9368
1860	0.9368
1850	0.9363
1840	0.9359
1830	0.9363
1820	0.9366
1810	0.9362
1800	0.9345
1790	0.9327
1780	0.931
1770	0.9311
1760	0.9315
1750	0.9311
1740	0.93
1730	0.926
1720	0.9128
1710	0.8996
1700	0.9055
1690	0.9151
1680	0.9149
1670	0.914
1660	0.9108
1650	0.8808
1640	0.8851
1630	0.9011
1620	0.9036
1610	0.9028
1600	0.9025
1590	0.8994
1580	0.8965
1570	0.8909
1560	0.8832
1550	0.8743
1540	0.8633
1530	0.8483
1520	0.8278
1510	0.7995
1500	0.7667
1490	0.7197
1480	0.5556
1470	0.2093
1460	0.0625
1450	0.1679
1440	0.3135
1430	0.3562
1420	0.392
1410	0.3884
1400	0.4208
1390	0.4693
1380	0.2419
1370	0.3529
1360	0.4392
1350	0.4603
1340	0.4233
1330	0.4197
1320	0.4174
1310	0.4355
1300	0.4604
1290	0.4559
1280	0.4747
1270	0.4884
1260	0.5302
1250	0.5438
1240	0.5854
1230	0.5514
1220	0.5431
1210	0.6187
1200	0.6826
1190	0.6595
1180	0.6512
1170	0.7184
1160	0.7278
1150	0.5845
1140	0.2562
1130	0.2533
1120	0.234
1110	0.36
1100	0.5285
1090	0.4523
1080	0.4079
1070	0.3293
1060	0.3394
1050	0.4627
1040	0.5085
1030	0.3157
1020	0.1949
1010	0.3058
1000	0.3378
990	0.3199
980	0.3826
970	0.4908
960	0.5397
950	0.6797
940	0.7204
930	0.6182
920	0.6718
910	0.6392
900	0.5942
890	0.6983
880	0.7221
870	0.6811
860	0.6668
850	0.547
840	0.4889
830	0.6667
820	0.7981
810	0.825
800	0.8071
790	0.7905
780	0.7896
770	0.7754
760	0.7158
750	0.6504
740	0.574
730	0.6236
720	0.5312
710	0.6515
700	0.6634
690	0.6475
680	0.6244
670	0.6054
660	0.5899
650	0.5784
640	0.5701
630	0.5667
620	0.567
610	0.5716
600	0.5829
590	0.5972
580	0.6084
570	0.6154
560	0.6225
550	0.6299
540	0.6408
530	0.6532
520	0.6615
510	0.6631
500	0.6672
490	0.6775
480	0.691
470	0.7017
460	0.7138
450	0.7254
440	0.7444
430	0.749
420	0.7521
410	0.7578
400	0.7754
390	0.7922
380	0.8031
370	0.8071
360	0.8085
350	0.8056
340	0.8022
330	0.7978
320	0.791
310	0.7818
