Infrared Spectrum: ISOPENTYL DISULFIDE
Formula: C10 H22 S2
CAS: 2051-04-9
State: SOLUTION (10% CCl4 FOR 3800-1340, 10% CS2 FOR 1340-450 CM^-^1)
Class: COBLENTZ III
Instrument: DOW KBr FOREPRISM-GRATING
Instrument parameters: BLAZED AT 3.5, 12.0, 20.0 MICRON AND CHANGED AT 5.0, 7.5, 14.9 MICRON
Sampling: TRANSMISSION
Path length: 0.011 CM, 0.010 CM
Resolution: 2
Origin: DOW CHEMICAL COMPANY
1/CM	TRANSMITTANCE
3798	0.9199
3789	0.9214
3780	0.9222
3771	0.9231
3762	0.9235
3753	0.9234
3744	0.9231
3735	0.9243
3726	0.9252
3717	0.9267
3708	0.928
3699	0.9244
3690	0.923
3681	0.926
3672	0.9235
3663	0.9197
3654	0.9201
3645	0.9235
3636	0.9249
3627	0.9263
3618	0.9271
3609	0.93
3600	0.9313
3591	0.9317
3582	0.9317
3573	0.9313
3564	0.93
3555	0.9305
3546	0.9301
3537	0.9303
3528	0.9303
3519	0.9312
3510	0.9303
3501	0.9277
3492	0.9255
3483	0.9243
3474	0.9231
3465	0.9223
3456	0.9218
3447	0.9213
3438	0.9208
3429	0.9208
3420	0.9209
3411	0.921
3402	0.921
3393	0.921
3384	0.921
3375	0.9205
3366	0.9201
3357	0.9159
3348	0.9155
3339	0.9155
3330	0.9154
3321	0.9152
3312	0.916
3303	0.915
3294	0.9149
3285	0.9147
3276	0.9149
3267	0.9152
3258	0.9142
3249	0.9131
3240	0.9123
3231	0.9107
3222	0.9082
3213	0.9044
3204	0.8962
3195	0.8912
3186	0.889
3177	0.8902
3168	0.892
3159	0.8939
3150	0.8947
3141	0.8945
3132	0.8951
3123	0.8948
3114	0.8944
3105	0.8947
3096	0.8967
3087	0.8936
3078	0.8914
3069	0.889
3060	0.8843
3051	0.8793
3042	0.8772
3033	0.8668
3024	0.8531
3015	0.8313
3006	0.8067
2997	0.7501
2988	0.5071
2979	0.3349
2970	0.0622
2961	0.0093
2952	0.0196
2943	0.0862
2934	0.0876
2925	0.0617
2916	0.0999
2907	0.1311
2898	0.2102
2889	0.329
2880	0.3185
2871	0.1361
2862	0.4202
2853	0.4735
2844	0.5808
2835	0.7322
2826	0.7623
2817	0.7672
2808	0.8032
2799	0.8294
2790	0.8471
2781	0.8662
2772	0.8792
2763	0.8748
2754	0.8777
2745	0.8809
2736	0.8739
2727	0.8662
2718	0.8669
2709	0.8783
2700	0.8868
2691	0.8914
2682	0.8941
2673	0.8952
2664	0.8935
2655	0.8912
2646	0.887
2637	0.8821
2628	0.8833
2619	0.8874
2610	0.8933
2601	0.8987
2592	0.8965
2583	0.8985
2574	0.9019
2565	0.9052
2556	0.9076
2547	0.9093
2538	0.9111
2529	0.9127
2520	0.9132
2511	0.9134
2502	0.9136
2493	0.9136
2484	0.9135
2475	0.9136
2466	0.9129
2457	0.9121
2448	0.9127
2439	0.9128
2430	0.9118
2421	0.911
2412	0.9112
2403	0.9124
2394	0.9125
2385	0.9079
2376	0.9106
2367	0.9099
2358	0.9125
2349	0.9153
2340	0.9181
2331	0.9175
2322	0.9182
2313	0.9156
2304	0.9131
2295	0.9119
2286	0.911
2277	0.9104
2268	0.9104
2259	0.9119
2250	0.9129
2241	0.9159
2232	0.9187
2223	0.9221
2214	0.9223
2205	0.9217
2196	0.9209
2187	0.9202
2178	0.9214
2169	0.9229
2160	0.9227
2151	0.9235
2142	0.9247
2133	0.925
2124	0.925
2115	0.9253
2106	0.9272
2097	0.9284
2088	0.9288
2079	0.9255
2070	0.9272
2061	0.9247
2052	0.9244
2043	0.9246
2034	0.9254
2025	0.9261
2016	0.9264
2007	0.9248
1998	0.9115
1989	0.9013
1980	0.9037
1971	0.9024
1962	0.9139
1953	0.9052
1944	0.9013
1935	0.8973
1926	0.9037
1917	0.9023
1908	0.9021
1899	0.9035
1890	0.9037
1881	0.9027
1872	0.8986
1863	0.8977
1854	0.8932
1845	0.8961
1836	0.8965
1827	0.8971
1818	0.8991
1809	0.8999
1800	0.8993
1791	0.9003
1782	0.9003
1773	0.899
1764	0.8981
1755	0.898
1746	0.8958
1737	0.8935
1728	0.8923
1719	0.8915
1710	0.8909
1701	0.8903
1692	0.8903
1683	0.8904
1674	0.8908
1665	0.8923
1656	0.8934
1647	0.8933
1638	0.8955
1629	0.8957
1620	0.8864
1611	0.8764
1602	0.8459
1593	0.7847
1584	0.7855
1575	0.7764
1566	0.7332
1557	0.6932
1548	0.6999
1539	0.7422
1530	0.7852
1521	0.7949
1512	0.8071
1503	0.8122
1494	0.809
1485	0.782
1476	0.6063
1467	0.2174
1458	0.4208
1449	0.5901
1440	0.6406
1431	0.6626
1422	0.7384
1413	0.6941
1404	0.788
1395	0.7768
1386	0.3893
1377	0.687
1368	0.3819
1359	0.7612
1350	0.6674
1341	0.7525
1332	0.7953
1323	0.8562
1314	0.8362
1305	0.7582
1296	0.8139
1287	0.7409
1278	0.6891
1269	0.7138
1260	0.8281
1251	0.8613
1242	0.8634
1233	0.83
1224	0.6369
1215	0.7279
1206	0.8483
1197	0.7912
1188	0.8076
1179	0.831
1170	0.7178
1161	0.8445
1152	0.8836
1143	0.9042
1134	0.9198
1125	0.9056
1116	0.8854
1107	0.8906
1098	0.9002
1089	0.9001
1080	0.8907
1071	0.8967
1062	0.9125
1053	0.9171
1044	0.9178
1035	0.9086
1026	0.8936
1017	0.8976
1008	0.9159
999	0.9203
990	0.9139
981	0.9145
972	0.9024
963	0.8795
954	0.8775
945	0.8687
936	0.8939
927	0.8793
918	0.7938
909	0.8934
900	0.9023
891	0.8868
882	0.8598
873	0.8375
864	0.805
855	0.8927
846	0.9341
837	0.909
828	0.9007
819	0.9152
810	0.9263
801	0.9285
792	0.9264
783	0.9208
774	0.9071
765	0.887
756	0.8596
747	0.806
738	0.8691
729	0.8977
720	0.9077
711	0.8938
702	0.8981
693	0.9196
684	0.9254
675	0.933
666	0.9615
657	0.9475
648	0.9461
639	0.9501
630	0.955
621	0.9644
612	0.9743
603	0.9755
594	0.97
585	0.9765
576	0.977
567	0.9772
558	0.9767
549	0.9738
540	0.9691
531	0.966
522	0.9628
513	0.9589
504	0.9559
495	0.9532
486	0.9516
477	0.9527
468	0.9559
459	0.9596
