Infrared Spectrum: 2,6-DIMETHYL OCTANE
Formula: C10 H22
CAS: 2051-30-1
Class: COBLENTZ
Instrument: Not specified, most likely a prism, grating, or hybrid spectrometer.
Sampling: TRANSMISSION
Resolution: 4
Origin: INTERNATIONAL FLAVORS & FRAGRANCES, INC.
MICROMETERS	TRANSMITTANCE
2.019	0.92
2.05156	0.922
2.08411	0.923
2.11667	0.925
2.14923	0.925
2.18178	0.925
2.21434	0.923
2.24689	0.913
2.27945	0.887
2.31201	0.861
2.34456	0.867
2.37712	0.877
2.40968	0.882
2.44223	0.887
2.47479	0.9
2.50734	0.915
2.5399	0.925
2.57246	0.926
2.60501	0.921
2.63757	0.927
2.67013	0.934
2.70268	0.935
2.73524	0.933
2.76779	0.929
2.80035	0.927
2.83291	0.918
2.86546	0.91
2.89802	0.904
2.93058	0.897
2.96313	0.897
2.99569	0.896
3.02824	0.903
3.0608	0.898
3.09336	0.883
3.12591	0.869
3.15847	0.872
3.19103	0.873
3.22358	0.859
3.25614	0.831
3.28869	0.725
3.32125	0.538
3.35381	0.188
3.38636	0.155
3.41892	0.155
3.45148	0.158
3.48403	0.193
3.51659	0.277
3.54914	0.667
3.5817	0.763
3.61426	0.83
3.64681	0.834
3.67937	0.834
3.71193	0.862
3.74448	0.875
3.77704	0.881
3.80959	0.885
3.84215	0.888
3.87471	0.894
3.90726	0.908
3.93982	0.929
3.97238	0.935
4.00493	0.94
4.03749	0.943
4.07005	0.947
4.1026	0.949
4.13516	0.951
4.16771	0.953
4.20027	0.953
4.23283	0.956
4.26538	0.953
4.29794	0.952
4.3305	0.952
4.36305	0.952
4.39561	0.955
4.42816	0.956
4.46072	0.956
4.49328	0.957
4.52583	0.957
4.55839	0.958
4.59095	0.959
4.6235	0.959
4.65606	0.96
4.68861	0.961
4.72117	0.963
4.75373	0.964
4.78628	0.966
4.81884	0.966
4.8514	0.966
4.88395	0.967
4.91651	0.968
4.94906	0.968
4.98162	0.968
5.01418	0.966
5.04673	0.966
5.07929	0.966
5.11185	0.968
5.1444	0.97
5.17696	0.97
5.20951	0.97
5.24207	0.97
5.27463	0.971
5.30718	0.971
5.33974	0.972
5.3723	0.971
5.40485	0.973
5.43741	0.97
5.46996	0.967
5.50252	0.965
5.53508	0.966
5.56763	0.966
5.60019	0.967
5.63275	0.966
5.6653	0.965
5.69786	0.964
5.73042	0.961
5.76297	0.953
5.79553	0.951
5.82808	0.953
5.86064	0.953
5.8932	0.955
5.92575	0.957
5.95831	0.96
5.99087	0.963
6.02342	0.96
6.05598	0.955
6.08853	0.948
6.12109	0.945
6.15365	0.947
6.1862	0.947
6.21876	0.947
6.25132	0.948
6.28387	0.947
6.31643	0.947
6.34898	0.947
6.38154	0.948
6.4141	0.947
6.44665	0.945
6.47921	0.947
6.51177	0.935
6.54432	0.929
6.57688	0.918
6.60943	0.903
6.64199	0.881
6.67455	0.857
6.7071	0.808
6.73966	0.7
6.77222	0.5
6.80477	0.228
6.83733	0.241
6.86988	0.329
6.90244	0.441
6.935	0.608
6.96755	0.676
7.00011	0.744
7.03267	0.788
7.06522	0.798
7.09778	0.798
7.13033	0.792
7.16289	0.705
7.19545	0.463
7.228	0.336
7.26056	0.368
7.29312	0.428
7.32567	0.396
7.35823	0.599
7.39078	0.721
7.42334	0.752
7.4559	0.776
7.48845	0.793
7.52101	0.815
7.55357	0.839
7.58612	0.859
7.61868	0.87
7.65124	0.87
7.68379	0.865
7.71635	0.866
7.7489	0.872
7.78146	0.879
7.81402	0.883
7.84657	0.889
7.87913	0.89
7.91169	0.882
7.94424	0.877
7.9768	0.882
8.00935	0.885
8.04191	0.88
8.07447	0.879
8.10702	0.881
8.13958	0.884
8.17214	0.887
8.20469	0.888
8.23725	0.888
8.2698	0.887
8.30236	0.889
8.33492	0.892
8.36747	0.896
8.40003	0.897
8.43259	0.891
8.46514	0.87
8.4977	0.8
8.53025	0.732
8.56281	0.701
8.59537	0.743
8.62792	0.789
8.66048	0.796
8.69304	0.802
8.72559	0.814
8.75815	0.837
8.7907	0.86
8.82326	0.881
8.85582	0.892
8.88837	0.899
8.92093	0.906
8.95349	0.91
8.98604	0.914
9.0186	0.915
9.05115	0.912
9.08371	0.905
9.11627	0.898
9.14882	0.89
9.18138	0.885
9.21394	0.883
9.24649	0.883
9.27905	0.882
9.31161	0.883
9.34416	0.889
9.37672	0.894
9.40927	0.894
9.44183	0.897
9.47439	0.898
9.50694	0.9
9.5395	0.904
9.57206	0.912
9.60461	0.917
9.63717	0.917
9.66972	0.917
9.70228	0.917
9.73484	0.918
9.76739	0.918
9.79995	0.917
9.83251	0.912
9.86506	0.91
9.89762	0.91
9.93017	0.913
9.96273	0.915
9.99529	0.92
10.0278	0.921
10.0604	0.922
10.093	0.922
10.1255	0.918
10.1581	0.91
10.1906	0.898
10.2232	0.887
10.2557	0.87
10.2883	0.855
10.3208	0.855
10.3534	0.88
10.386	0.884
10.4185	0.89
10.4511	0.896
10.4836	0.9
10.5162	0.913
10.5487	0.922
10.5813	0.928
10.6139	0.93
10.6464	0.932
10.679	0.932
10.7115	0.93
10.7441	0.926
10.7766	0.919
10.8092	0.906
10.8417	0.883
10.8743	0.855
10.9069	0.846
10.9394	0.858
10.972	0.87
11.0045	0.874
11.0371	0.879
11.0696	0.882
11.1022	0.892
11.1348	0.895
11.1673	0.884
11.1999	0.879
11.2324	0.887
11.265	0.908
11.2975	0.92
11.3301	0.927
11.3627	0.929
11.3952	0.929
11.4278	0.926
11.4603	0.926
11.4929	0.929
11.5254	0.934
11.558	0.937
11.5905	0.942
11.6231	0.945
11.6557	0.949
11.6882	0.948
11.7208	0.948
11.7533	0.948
11.7859	0.945
11.8184	0.943
11.851	0.942
11.8836	0.938
11.9161	0.936
11.9487	0.934
11.9812	0.935
12.0138	0.929
12.0463	0.917
12.0789	0.908
12.1114	0.904
12.144	0.902
12.1766	0.899
12.2091	0.892
12.2417	0.888
12.2742	0.881
12.3068	0.875
12.3393	0.873
12.3719	0.88
12.4045	0.89
12.437	0.897
12.4696	0.904
12.5021	0.907
12.5347	0.907
12.5672	0.908
12.5998	0.911
12.6323	0.911
12.6649	0.907
12.6975	0.905
12.73	0.903
12.7626	0.9
12.7951	0.898
12.8277	0.894
12.8602	0.89
12.8928	0.889
12.9254	0.887
12.9579	0.889
12.9905	0.894
13.023	0.897
13.0556	0.899
13.0881	0.9
13.1207	0.899
13.1532	0.898
13.1858	0.897
13.2184	0.895
13.2509	0.888
13.2835	0.883
13.316	0.879
13.3486	0.872
13.3811	0.86
13.4137	0.849
13.4463	0.836
13.4788	0.824
13.5114	0.816
13.5439	0.809
13.5765	0.798
13.609	0.791
13.6416	0.778
13.6741	0.758
13.7067	0.729
13.7393	0.707
13.7718	0.685
13.8044	0.694
13.8369	0.732
13.8695	0.762
13.902	0.785
13.9346	0.793
13.9672	0.799
13.9997	0.801
14.0323	0.801
14.0648	0.8
14.0974	0.798
14.1299	0.797
14.1625	0.793
14.195	0.79
14.2276	0.79
14.2602	0.79
14.2927	0.788
14.3253	0.785
14.3578	0.778
14.3904	0.773
14.4229	0.769
14.4555	0.766
14.4881	0.761
14.5206	0.756
14.5532	0.752
14.5857	0.747
14.6183	0.741
14.6508	0.737
14.6834	0.731
14.7159	0.728
14.7485	0.724
14.7811	0.72
14.8136	0.718
14.8462	0.717
14.8787	0.714
14.9113	0.71
14.9438	0.708
14.9764	0.705
