Infrared Spectrum: 2-AMINO-P-CYMENE
Formula: C10 H15 N
CAS: 2051-53-8
State: SOLUTION (10% CCl4 FOR 2.5-7.5, 10% CS2 FOR 7.5-16 MICRON)
Class: COBLENTZ
Instrument: Not specified, most likely a prism, grating, or hybrid spectrometer.
Sampling: TRANSMISSION
Path length: 0.01 CM, 0.01 CM
Resolution: 4
Origin: DOW CHEMICAL COMPANY
MICROMETERS	TRANSMITTANCE
2.122	0.907
2.16221	0.902
2.20243	0.899
2.24264	0.899
2.28286	0.895
2.32307	0.879
2.36329	0.875
2.4035	0.885
2.44372	0.89
2.48393	0.879
2.52415	0.88
2.56436	0.887
2.60458	0.887
2.64479	0.894
2.68501	0.9
2.72522	0.9
2.76543	0.9
2.80565	0.9
2.84586	0.894
2.88608	0.817
2.92629	0.672
2.96651	0.723
3.00672	0.66
3.04694	0.864
3.08715	0.879
3.12737	0.867
3.16758	0.852
3.2078	0.872
3.24801	0.865
3.28822	0.827
3.32844	0.71
3.36865	0.543
3.40887	0.215
3.44908	0.205
3.4893	0.355
3.52951	0.412
3.56973	0.768
3.60994	0.846
3.65016	0.879
3.69037	0.864
3.73059	0.877
3.7708	0.9
3.81102	0.9
3.85123	0.899
3.89144	0.89
3.93166	0.899
3.97187	0.907
4.01209	0.912
4.0523	0.91
4.09252	0.908
4.13273	0.91
4.17295	0.91
4.21316	0.907
4.25338	0.897
4.29359	0.903
4.33381	0.903
4.37402	0.894
4.41423	0.89
4.45445	0.9
4.49466	0.902
4.53488	0.907
4.57509	0.91
4.61531	0.91
4.65552	0.91
4.69574	0.91
4.73595	0.91
4.77617	0.912
4.81638	0.91
4.8566	0.91
4.89681	0.91
4.93703	0.907
4.97724	0.908
5.01745	0.907
5.05767	0.907
5.09788	0.907
5.1381	0.899
5.17831	0.905
5.21853	0.907
5.25874	0.905
5.29896	0.9
5.33917	0.885
5.37939	0.859
5.4196	0.862
5.45982	0.887
5.50003	0.899
5.54025	0.89
5.58046	0.897
5.62067	0.899
5.66089	0.9
5.7011	0.899
5.74132	0.875
5.78153	0.869
5.82175	0.859
5.86196	0.85
5.90218	0.85
5.94239	0.847
5.98261	0.831
6.02282	0.804
6.06304	0.73
6.10325	0.546
6.14346	0.246
6.18368	0.089
6.22389	0.21
6.26411	0.412
6.30432	0.355
6.34454	0.241
6.38475	0.334
6.42497	0.4
6.46518	0.437
6.5054	0.466
6.54561	0.486
6.58583	0.321
6.62604	0.246
6.66626	0.413
6.70647	0.526
6.74668	0.663
6.7869	0.591
6.82711	0.405
6.86733	0.278
6.90754	0.44
6.94776	0.473
6.98797	0.355
7.02819	0.337
7.0684	0.67
7.10862	0.753
7.14883	0.773
7.18905	0.738
7.22926	0.65
7.26947	0.706
7.30969	0.726
7.3499	0.7
7.39012	0.781
7.43033	0.725
7.47055	0.685
7.51076	0.746
7.55098	0.731
7.59119	0.592
7.63141	0.455
7.67162	0.438
7.71184	0.451
7.75205	0.491
7.79227	0.551
7.83248	0.516
7.87269	0.548
7.91291	0.514
7.95312	0.615
7.99334	0.758
8.03355	0.809
8.07377	0.821
8.11398	0.827
8.1542	0.837
8.19441	0.806
8.23463	0.779
8.27484	0.819
8.31506	0.831
8.35527	0.831
8.39549	0.784
8.4357	0.72
8.47591	0.764
8.51613	0.806
8.55634	0.807
8.59656	0.786
8.63677	0.763
8.67699	0.703
8.7172	0.68
8.75742	0.73
8.79763	0.758
8.83785	0.783
8.87806	0.796
8.91828	0.802
8.95849	0.809
8.9987	0.809
9.03892	0.784
9.07913	0.769
9.11935	0.769
9.15956	0.799
9.19978	0.811
9.23999	0.816
9.28021	0.816
9.32042	0.793
9.36064	0.778
9.40085	0.776
9.44107	0.73
9.48128	0.65
9.5215	0.627
9.56171	0.726
9.60192	0.773
9.64214	0.779
9.68235	0.754
9.72257	0.756
9.76278	0.809
9.803	0.822
9.84321	0.826
9.88343	0.826
9.92364	0.811
9.96386	0.759
10.0041	0.599
10.0443	0.435
10.0845	0.466
10.1247	0.673
10.1649	0.754
10.2051	0.796
10.2454	0.811
10.2856	0.817
10.3258	0.819
10.366	0.821
10.4062	0.817
10.4464	0.811
10.4866	0.796
10.5269	0.774
10.5671	0.723
10.6073	0.701
10.6475	0.685
10.6877	0.683
10.7279	0.721
10.7681	0.746
10.8084	0.759
10.8486	0.758
10.8888	0.751
10.929	0.764
10.9692	0.788
11.0094	0.796
11.0497	0.796
11.0899	0.793
11.1301	0.788
11.1703	0.781
11.2105	0.768
11.2507	0.746
11.2909	0.718
11.3312	0.697
11.3714	0.655
11.4116	0.624
11.4518	0.571
11.492	0.534
11.5322	0.483
11.5724	0.38
11.6127	0.311
11.6529	0.211
11.6931	0.258
11.7333	0.399
11.7735	0.538
11.8137	0.62
11.8539	0.672
11.8942	0.708
11.9344	0.725
11.9746	0.733
12.0148	0.738
12.055	0.738
12.0952	0.735
12.1354	0.72
12.1757	0.705
12.2159	0.67
12.2561	0.622
12.2963	0.552
12.3365	0.417
12.3767	0.203
12.4169	0.122
12.4572	0.112
12.4974	0.259
12.5376	0.468
12.5778	0.571
12.618	0.64
12.6582	0.668
12.6985	0.678
12.7387	0.685
12.7789	0.69
12.8191	0.692
12.8593	0.692
12.8995	0.693
12.9397	0.695
12.98	0.695
13.0202	0.695
13.0604	0.69
13.1006	0.683
13.1408	0.682
13.181	0.68
13.2212	0.672
13.2615	0.67
13.3017	0.668
13.3419	0.657
13.3821	0.649
13.4223	0.64
13.4625	0.635
13.5027	0.634
13.543	0.627
13.5832	0.622
13.6234	0.617
13.6636	0.612
13.7038	0.604
13.744	0.599
13.7842	0.589
13.8245	0.566
13.8647	0.528
13.9049	0.485
13.9451	0.447
13.9853	0.447
14.0255	0.465
14.0658	0.481
14.106	0.49
14.1462	0.491
14.1864	0.491
14.2266	0.486
14.2668	0.483
14.307	0.478
14.3473	0.476
14.3875	0.473
14.4277	0.47
14.4679	0.463
14.5081	0.453
14.5483	0.447
14.5885	0.442
14.6288	0.432
14.669	0.427
14.7092	0.418
14.7494	0.41
14.7896	0.403
14.8298	0.399
14.87	0.392
14.9103	0.385
14.9505	0.382
14.9907	0.372
15.0309	0.364
15.0711	0.35
15.1113	0.341
15.1515	0.331
15.1918	0.324
15.232	0.312
15.2722	0.304
15.3124	0.299
15.3526	0.294
15.3928	0.289
15.433	0.283
15.4733	0.279
15.5135	0.274
15.5537	0.269
15.5939	0.263
15.6341	0.256
15.6743	0.254
15.7146	0.253
15.7548	0.253
15.795	0.258
15.8352	0.433
