Infrared Spectrum: SALICYLIC ACID, n-BUTYL ESTER
Formula: C11 H14 O3
CAS: 2052-14-4
State: SOLUTION (10% CCl4 FOR 3800-1333, 10% CS2 FOR 1333-420 CM^-^1)
Class: COBLENTZ III
Instrument: DOW KBr FOREPRISM-GRATING
Instrument parameters: BLAZED AT 3.5, 12.0, 20.0 MICRON AND CHANGED AT 5.0, 7.5, 14.9 MICRON
Sampling: TRANSMISSION
Path length: 0.011 CM, 0.011 CM
Resolution: 4
Origin: DOW CHEMICAL COMPANY
1/CM	TRANSMITTANCE
400.438	0.737
409.831	0.738
419.223	0.738
428.616	0.738
438.009	0.745
447.401	0.759
456.794	0.773
466.186	0.779
475.579	0.776
484.972	0.765
494.364	0.725
503.757	0.69
513.15	0.753
522.542	0.688
531.935	0.565
541.328	0.723
550.72	0.791
560.113	0.778
569.505	0.822
578.898	0.834
588.291	0.834
597.683	0.831
607.076	0.807
616.469	0.809
625.861	0.826
635.254	0.816
644.647	0.772
654.039	0.715
663.432	0.6029
672.824	0.635
682.217	0.643
691.61	0.521
701.002	0.133
710.395	0.218
719.788	0.145
729.18	0.198
738.573	0.324
747.965	0.412
757.358	0.001
766.751	0.469
776.143	0.706
785.536	0.744
794.929	0.697
804.321	0.59
813.714	0.676
823.107	0.615
832.499	0.722
841.892	0.7
851.284	0.582
860.677	0.446
870.07	0.603
879.462	0.637
888.855	0.74
898.248	0.779
907.64	0.778
917.033	0.782
926.426	0.734
935.818	0.604
945.211	0.558
954.603	0.582
963.996	0.562
973.389	0.723
982.781	0.747
992.174	0.704
1001.57	0.762
1010.96	0.719
1020.35	0.676
1029.74	0.597
1039.14	0.701
1048.53	0.748
1057.92	0.65
1067.32	0.638
1076.71	0.581
1086.1	0.14
1095.49	0.08
1104.89	0.616
1114.28	0.565
1123.67	0.458
1133.06	0.186
1142.46	0.205
1151.85	0.217
1161.24	0.032
1170.63	0.392
1180.03	0.142
1189.42	0.24
1198.81	0.187
1208.2	0.005
1217.6	0.023
1226.99	0.127
1236.38	0.12
1245.78	0.054
1255.17	0.016
1264.56	0.311
1273.95	0.4
1283.35	0.232
1292.74	0.057
1302.13	0.007
1311.52	0.155
1320.92	0.093
1330.31	0.091
1339.7	0.16
1349.09	0.28
1358.49	0.284
1367.88	0.502
1377.27	0.497
1386.66	0.3249
1396.06	0.158
1405.45	0.192
1414.84	0.251
1424.24	0.331
1433.63	0.425
1443.02	0.55
1452.41	0.346
1461.81	0.201
1471.2	0.121
1480.59	0.113
1489.98	0.0361
1499.38	0.519
1508.77	0.447
1518.16	0.578
1527.55	0.568
1536.95	0.508
1546.34	0.43
1555.73	0.447
1565.12	0.484
1574.52	0.444
1583.91	0.132
1593.3	0.397
1602.7	0.367
1612.09	0.041
1621.48	0.356
1630.87	0.701
1640.27	0.622
1649.66	0.461
1659.05	0.2329
1668.44	0.019
1677.84	0.011
1687.23	0.038
1696.62	0.333
1706.01	0.594
1715.41	0.762
1724.8	0.759
1734.19	0.813
1743.58	0.885
1752.98	0.889
1762.37	0.922
1771.76	0.935
1781.16	0.954
1790.55	0.963
1799.94	0.96
1809.33	0.925
1818.73	0.938
1828.12	0.963
1837.51	0.955
1846.9	0.969
1856.3	0.976
1865.69	0.973
1875.08	0.983
1884.47	0.979
1893.87	0.975
1903.26	0.961
1912.65	0.977
1922.04	0.947
1931.44	0.941
1940.83	0.976
1950.22	0.938
1959.62	0.98
1969.01	0.988
1978.4	0.989
1987.79	0.989
1997.19	0.979
2006.58	0.986
2015.97	0.981
2025.36	0.9844
2034.76	0.982
2044.15	0.985
2053.54	0.982
2062.93	0.9813
2072.33	0.9873
2081.72	0.9913
2091.11	0.9866
2100.5	0.986
2109.9	0.985
2119.29	0.982
2128.68	0.9858
2138.08	0.9858
2147.47	0.983
2156.86	0.985
2166.25	0.986
2175.65	0.985
2185.04	0.986
2194.43	0.9887
2203.82	0.991
2213.22	0.9861
2222.61	0.9848
2232	0.9829
2241.39	0.977
2250.79	0.975
2260.18	0.979
2269.57	0.9728
2278.97	0.9579
2288.36	0.9541
2297.75	0.9634
2307.14	0.9586
2316.54	0.957
2325.93	0.983
2335.32	0.9572
2344.71	0.983
2354.11	0.966
2363.5	0.9758
2372.89	0.97
2382.28	0.966
2391.68	0.9685
2401.07	0.9764
2410.46	0.973
2419.85	0.97
2429.25	0.97
2438.64	0.9748
2448.03	0.9754
2457.43	0.9694
2466.82	0.976
2476.21	0.973
2485.6	0.9675
2495	0.962
2504.39	0.9736
2513.78	0.977
2523.17	0.9739
2532.57	0.9588
2541.96	0.9546
2551.35	0.9636
2560.74	0.963
2570.14	0.961
2579.53	0.963
2588.92	0.961
2598.31	0.9578
2607.71	0.9543
2617.1	0.9464
2626.49	0.944
2635.89	0.9474
2645.28	0.9466
2654.67	0.9448
2664.06	0.9509
2673.46	0.948
2682.85	0.9353
2692.24	0.9348
2701.63	0.936
2711.03	0.936
2720.42	0.9291
2729.81	0.923
2739.2	0.923
2748.6	0.9129
2757.99	0.901
2767.38	0.9039
2776.77	0.8998
2786.17	0.897
2795.56	0.8949
2804.95	0.8906
2814.35	0.8755
2823.74	0.8551
2833.13	0.8138
2842.52	0.7283
2851.92	0.7069
2861.31	0.4853
2870.7	0.3428
2880.09	0.5669
2889.49	0.5548
2898.88	0.4893
2908.27	0.4455
2917.66	0.3848
2927.06	0.2284
2936.45	0.2682
2945.84	0.2632
2955.23	0.0485
2964.63	0.0837
2974.02	0.3343
2983.41	0.5401
2992.81	0.6529
3002.2	0.7163
3011.59	0.7224
3020.98	0.7173
3030.38	0.72
3039.77	0.7006
3049.16	0.6411
3058.55	0.633
3067.95	0.606
3077.34	0.64
3086.73	0.615
3096.12	0.624
3105.52	0.6062
3114.91	0.5747
3124.3	0.5372
3133.69	0.4783
3143.09	0.438
3152.48	0.3902
3161.87	0.3801
3171.27	0.3702
3180.66	0.3284
3190.05	0.3309
3199.44	0.3387
3208.84	0.3559
3218.23	0.3918
3227.62	0.434
3237.01	0.4916
3246.41	0.5526
3255.8	0.6068
3265.19	0.649
3274.58	0.6783
3283.98	0.7072
3293.37	0.7354
3302.76	0.7628
3312.15	0.7842
3321.55	0.8014
3330.94	0.8104
3340.33	0.8162
3349.73	0.822
3359.12	0.8443
3368.51	0.8619
3377.9	0.8759
3387.3	0.8853
3396.69	0.891
3406.08	0.895
3415.47	0.8932
3424.87	0.891
3434.26	0.892
3443.65	0.9004
3453.04	0.9149
3462.44	0.929
3471.83	0.9385
3481.22	0.946
3490.61	0.955
3500.01	0.9576
3509.4	0.9636
3518.79	0.967
3528.19	0.9696
3537.58	0.9756
3546.97	0.9797
3556.36	0.985
3565.76	0.9917
3575.15	0.992
3584.54	0.997
3593.93	0.997
3603.33	0.994
3612.72	0.991
3622.11	0.9964
3631.5	1
3640.9	0.9972
3650.29	0.9971
3659.68	0.9968
3669.08	1
3678.47	1.002
3687.86	1.005
3697.25	1.001
3706.65	1
3716.04	1
3725.43	1
3734.82	1.002
3744.22	1.002
3753.61	1.002
3763	1
3772.39	1.0022
3781.79	1.005
