Infrared Spectrum: HEPTANAL, (2,4-DINITROPHENYL)HYDRAZONE
Formula: C13 H18 N4 O4
CAS: 2074-05-7
State: SOLID (1.2 mg / 200 mg KBr DISC) VS. KBr
Class: COBLENTZ III
Instrument: BECKMAN IR-4 (HYBRID PRISM-GRATING)
Sampling: TRANSMISSION
Resolution: 4
Origin: UNIVERSITY OF FLORIDA
MICROMETERS	TRANSMITTANCE
0.994	0.382
1.03068	0.391
1.06736	0.401
1.10403	0.408
1.14071	0.418
1.17739	0.427
1.21407	0.435
1.25074	0.441
1.28742	0.453
1.3241	0.46
1.36078	0.469
1.39746	0.474
1.43413	0.483
1.47081	0.49
1.50749	0.501
1.54417	0.509
1.58084	0.518
1.61752	0.522
1.6542	0.527
1.69088	0.538
1.72756	0.546
1.76423	0.55
1.80091	0.562
1.83759	0.563
1.87427	0.569
1.91094	0.581
1.94762	0.586
1.9843	0.592
2.02098	0.6
2.05766	0.602
2.09433	0.609
2.13101	0.614
2.16769	0.617
2.20437	0.625
2.24105	0.628
2.27772	0.633
2.3144	0.641
2.35108	0.646
2.38776	0.65
2.42443	0.657
2.46111	0.662
2.49779	0.667
2.53447	0.669
2.57115	0.682
2.60782	0.687
2.6445	0.69
2.68118	0.697
2.71786	0.699
2.75453	0.704
2.79121	0.709
2.82789	0.719
2.86457	0.723
2.90125	0.727
2.93792	0.731
2.9746	0.736
3.01128	0.712
3.04796	0.349
3.08463	0.66
3.12131	0.697
3.15799	0.71
3.19467	0.728
3.23135	0.679
3.26802	0.712
3.3047	0.73
3.34138	0.739
3.37806	0.574
3.41473	0.367
3.45141	0.469
3.48809	0.531
3.52477	0.585
3.56145	0.662
3.59812	0.689
3.6348	0.699
3.67148	0.707
3.70816	0.717
3.74483	0.727
3.78151	0.726
3.81819	0.734
3.85487	0.739
3.89155	0.747
3.92822	0.751
3.9649	0.76
4.00158	0.763
4.03826	0.766
4.07494	0.758
4.11161	0.761
4.14829	0.767
4.18497	0.778
4.22165	0.793
4.25832	0.795
4.295	0.802
4.33168	0.805
4.36836	0.805
4.40504	0.792
4.44171	0.796
4.47839	0.806
4.51507	0.807
4.55175	0.81
4.58842	0.818
4.6251	0.825
4.66178	0.828
4.69846	0.831
4.73514	0.832
4.77181	0.835
4.80849	0.839
4.84517	0.835
4.88185	0.83
4.91852	0.834
4.9552	0.843
4.99188	0.848
5.02856	0.849
5.06524	0.847
5.10191	0.845
5.13859	0.843
5.17527	0.845
5.21195	0.85
5.24862	0.857
5.2853	0.86
5.32198	0.858
5.35866	0.855
5.39534	0.858
5.43201	0.868
5.46869	0.874
5.50537	0.873
5.54205	0.864
5.57872	0.86
5.6154	0.876
5.65208	0.881
5.68876	0.878
5.72544	0.875
5.76211	0.867
5.79879	0.864
5.83547	0.861
5.87215	0.85
5.90883	0.842
5.9455	0.81
5.98218	0.778
6.01886	0.72
6.05554	0.623
6.09221	0.517
6.12889	0.194
6.16557	0.06
6.20225	0.134
6.23893	0.279
6.2756	0.2
6.31228	0.312
6.34896	0.483
6.38564	0.648
6.42231	0.72
6.45899	0.709
6.49567	0.569
6.53235	0.416
6.56903	0.159
6.6057	0.265
6.64238	0.315
6.67906	0.474
6.71574	0.615
6.75241	0.67
6.78909	0.685
6.82577	0.625
6.86245	0.643
6.89913	0.651
6.9358	0.62
6.97248	0.503
7.00916	0.301
7.04584	0.409
7.08251	0.618
7.11919	0.707
7.15587	0.752
7.19255	0.748
7.22923	0.699
7.2659	0.628
7.30258	0.627
7.33926	0.587
7.37594	0.48
7.41261	0.267
7.44929	0.084
7.48597	0.035
7.52265	0.029
7.55933	0.075
7.596	0.075
7.63268	0.12
7.66936	0.159
7.70604	0.237
7.74271	0.263
7.77939	0.236
7.81607	0.261
7.85275	0.291
7.88943	0.321
7.9261	0.393
7.96278	0.448
7.99946	0.489
8.03614	0.552
8.07282	0.595
8.10949	0.607
8.14617	0.56
8.18285	0.386
8.21953	0.448
8.2562	0.565
8.29288	0.621
8.32956	0.64
8.36624	0.649
8.40292	0.654
8.43959	0.663
8.47627	0.678
8.51295	0.697
8.54963	0.715
8.5863	0.729
8.62298	0.756
8.65966	0.767
8.69634	0.763
8.73302	0.715
8.76969	0.507
8.80637	0.2
8.84305	0.201
8.87973	0.331
8.9164	0.4
8.95308	0.439
8.98976	0.501
9.02644	0.552
9.06312	0.594
9.09979	0.63
9.13647	0.649
9.17315	0.648
9.20983	0.609
9.2465	0.527
9.28318	0.369
9.31986	0.278
9.35654	0.375
9.39322	0.499
9.42989	0.573
9.46657	0.573
9.50325	0.544
9.53993	0.556
9.5766	0.6
9.61328	0.638
9.64996	0.653
9.68664	0.668
9.72332	0.682
9.75999	0.69
9.79667	0.696
9.83335	0.708
9.87003	0.714
9.90671	0.72
9.94338	0.724
9.98006	0.731
10.0167	0.735
10.0534	0.738
10.0901	0.738
10.1268	0.738
10.1634	0.739
10.2001	0.744
10.2368	0.747
10.2735	0.726
10.3102	0.69
10.3468	0.736
10.3835	0.743
10.4202	0.741
10.4569	0.735
10.4935	0.718
10.5302	0.685
10.5669	0.67
10.6036	0.699
10.6403	0.705
10.6769	0.682
10.7136	0.623
10.7503	0.578
10.787	0.535
10.8237	0.507
10.8603	0.592
10.897	0.664
10.9337	0.702
10.9704	0.726
11.007	0.741
11.0437	0.75
11.0804	0.757
11.1171	0.76
11.1538	0.762
11.1904	0.761
11.2271	0.75
11.2638	0.75
11.3005	0.761
11.3371	0.768
11.3738	0.772
11.4105	0.774
11.4472	0.776
11.4839	0.78
11.5205	0.781
11.5572	0.778
11.5939	0.768
11.6306	0.768
11.6672	0.774
11.7039	0.779
11.7406	0.781
11.7773	0.784
11.814	0.784
11.8506	0.775
11.8873	0.758
11.924	0.731
11.9607	0.723
11.9973	0.673
12.034	0.526
12.0707	0.521
12.1074	0.319
12.1441	0.474
12.1807	0.645
12.2174	0.704
12.2541	0.731
12.2908	0.741
12.3274	0.761
12.3641	0.765
12.4008	0.769
12.4375	0.773
12.4742	0.778
12.5108	0.779
12.5475	0.78
12.5842	0.78
12.6209	0.783
12.6575	0.781
12.6942	0.773
12.7309	0.776
12.7676	0.774
12.8043	0.769
12.8409	0.751
12.8776	0.739
12.9143	0.731
12.951	0.748
12.9876	0.761
13.0243	0.773
13.061	0.776
13.0977	0.766
13.1344	0.682
13.171	0.68
13.2077	0.747
13.2444	0.766
13.2811	0.764
13.3177	0.752
13.3544	0.724
13.3911	0.638
13.4278	0.446
13.4645	0.367
13.5011	0.382
13.5378	0.503
13.5745	0.611
13.6112	0.66
13.6478	0.672
13.6845	0.667
13.7212	0.627
13.7579	0.557
13.7946	0.46
13.8312	0.476
13.8679	0.534
13.9046	0.575
13.9413	0.574
13.9779	0.568
14.0146	0.586
14.0513	0.615
14.088	0.642
14.1247	0.663
14.1613	0.67
14.198	0.674
14.2347	0.674
14.2714	0.674
14.308	0.675
14.3447	0.673
14.3814	0.67
14.4181	0.66
14.4548	0.649
14.4914	0.631
14.5281	0.606
14.5648	0.571
14.6015	0.544
14.6381	0.544
14.6748	0.561
14.7115	0.585
14.7482	0.598
14.7849	0.606
14.8215	0.621
14.8582	0.618
14.8949	0.617
14.9316	0.612
14.9682	0.614
