Infrared Spectrum: Acenaphthylene
Formula: C12 H8
CAS: 208-96-8
State: SOLUTION (10% CCl4 FOR 3800-1330, 10% CS2 FOR 1330-400 CM^-^1)
Class: COBLENTZ III
Instrument: BECKMAN IR-9 (GRATING)
Instrument parameters: ORDER CHANGES: 670, 1200, 2000 CM^-^1
Sampling: TRANSMISSION
Path length: 0.011 CM, 0.010 CM
Resolution: 2
Origin: DOW CHEMICAL COMPANY
1/CM	TRANSMITTANCE
3800	0.8893
3791	0.8902
3782	0.8876
3773	0.8884
3764	0.8887
3755	0.8895
3746	0.8906
3737	0.8927
3728	0.8933
3719	0.8924
3710	0.8958
3701	0.8981
3692	0.8968
3683	0.8953
3674	0.8956
3665	0.896
3656	0.8966
3647	0.8957
3638	0.8941
3629	0.8921
3620	0.8925
3611	0.8918
3602	0.8891
3593	0.8861
3584	0.8782
3575	0.8843
3566	0.8882
3557	0.8888
3548	0.8906
3539	0.8902
3530	0.891
3521	0.8896
3512	0.8898
3503	0.8899
3494	0.89
3485	0.8899
3476	0.8899
3467	0.8897
3458	0.8897
3449	0.8897
3440	0.8899
3431	0.8901
3422	0.8903
3413	0.8908
3404	0.8914
3395	0.8919
3386	0.8924
3377	0.8932
3368	0.8938
3359	0.8944
3350	0.895
3341	0.8956
3332	0.8958
3323	0.8961
3314	0.8964
3305	0.8981
3296	0.8965
3287	0.8965
3278	0.8977
3269	0.8981
3260	0.8981
3251	0.8981
3242	0.898
3233	0.8982
3224	0.8987
3215	0.899
3206	0.8974
3197	0.8988
3188	0.8987
3179	0.8963
3170	0.8955
3161	0.8948
3152	0.8942
3143	0.889
3134	0.8831
3125	0.8675
3116	0.7819
3107	0.7334
3098	0.6884
3089	0.7378
3080	0.6298
3071	0.4728
3062	0.3803
3053	0.4497
3044	0.4216
3035	0.5187
3026	0.7018
3017	0.7677
3008	0.8083
2999	0.7959
2990	0.8567
2981	0.8155
2972	0.8435
2963	0.8645
2954	0.8554
2945	0.8417
2936	0.846
2927	0.8344
2918	0.8576
2909	0.8776
2900	0.8847
2891	0.8896
2882	0.8945
2873	0.8988
2864	0.9009
2855	0.8916
2846	0.8867
2837	0.9023
2828	0.9095
2819	0.9129
2810	0.9131
2801	0.916
2792	0.9169
2783	0.9176
2774	0.9197
2765	0.9209
2756	0.9222
2747	0.9229
2738	0.9236
2729	0.9244
2720	0.9252
2711	0.9252
2702	0.9252
2693	0.9251
2684	0.9251
2675	0.925
2666	0.9249
2657	0.9263
2648	0.9252
2639	0.9242
2630	0.9241
2621	0.9254
2612	0.9253
2603	0.9251
2594	0.9251
2585	0.9249
2576	0.9247
2567	0.9247
2558	0.9246
2549	0.9245
2540	0.9244
2531	0.9245
2522	0.9246
2513	0.9246
2504	0.9248
2495	0.9249
2486	0.9251
2477	0.9269
2468	0.9264
2459	0.9242
2450	0.919
2441	0.9207
2432	0.9223
2423	0.9238
2414	0.9247
2405	0.9254
2396	0.924
2387	0.9208
2378	0.9128
2369	0.9127
2360	0.9169
2351	0.919
2342	0.9171
2333	0.9185
2324	0.9305
2315	0.9331
2306	0.9302
2297	0.9314
2288	0.9283
2279	0.9288
2270	0.9327
2261	0.9321
2252	0.9264
2243	0.9219
2234	0.9241
2225	0.9274
2216	0.9256
2207	0.9215
2198	0.9251
2189	0.923
2180	0.9206
2171	0.9175
2162	0.9055
2153	0.9165
2144	0.9217
2135	0.9227
2126	0.9229
2117	0.923
2108	0.9227
2099	0.9227
2090	0.9224
2081	0.9219
2072	0.9216
2063	0.9211
2054	0.9227
2045	0.9209
2036	0.9201
2027	0.9199
2018	0.9191
2009	0.9171
2000	0.9111
1991	0.919
1982	0.9168
1973	0.9164
1964	0.9179
1955	0.913
1946	0.8997
1937	0.8438
1928	0.7817
1919	0.8727
1910	0.9092
1901	0.9142
1892	0.9119
1883	0.8644
1874	0.8426
1865	0.8701
1856	0.8981
1847	0.9095
1838	0.9055
1829	0.8606
1820	0.8395
1811	0.804
1802	0.8426
1793	0.9018
1784	0.9178
1775	0.9126
1766	0.9116
1757	0.9106
1748	0.8575
1739	0.8397
1730	0.8896
1721	0.8908
1712	0.9006
1703	0.9079
1694	0.8945
1685	0.8751
1676	0.8709
1667	0.8659
1658	0.8757
1649	0.8555
1640	0.8132
1631	0.8266
1622	0.6741
1613	0.8391
1604	0.8177
1595	0.8281
1586	0.8315
1577	0.8513
1568	0.795
1559	0.7694
1550	0.8513
1541	0.8688
1532	0.8868
1523	0.864
1514	0.8643
1505	0.8025
1496	0.4957
1487	0.7225
1478	0.3519
1469	0.7625
1460	0.7322
1451	0.7744
1442	0.8379
1433	0.7533
1424	0.222
1415	0.7799
1406	0.8544
1397	0.8761
1388	0.4133
1379	0.8205
1370	0.8301
1361	0.8844
1352	0.9043
1343	0.914
1334	0.897
1325	0.8922
1316	0.8962
1307	0.8495
1298	0.8889
1289	0.9116
1280	0.9074
1271	0.9104
1262	0.9074
1253	0.8872
1244	0.8951
1235	0.8982
1226	0.6086
1217	0.8818
1208	0.8519
1199	0.7499
1190	0.8514
1181	0.7416
1172	0.8522
1163	0.8826
1154	0.8155
1145	0.8223
1136	0.8596
1127	0.8906
1118	0.8969
1109	0.8341
1100	0.8786
1091	0.8501
1082	0.6184
1073	0.7612
1064	0.9016
1055	0.9057
1046	0.9023
1037	0.8807
1028	0.7115
1019	0.8775
1010	0.8064
1001	0.8794
992	0.8963
983	0.9003
974	0.8654
965	0.7346
956	0.8794
947	0.9019
938	0.8705
929	0.8791
920	0.8578
911	0.6064
902	0.85
893	0.8739
884	0.8899
875	0.8788
866	0.5231
857	0.7831
848	0.8673
839	0.7102
830	0.0003
821	0.7625
812	0.8663
803	0.8427
794	0.8016
785	0.4792
776	0.0001
767	0.4007
758	0.7675
749	0.7919
740	0.7735
731	0.3119
722	0.2284
713	0.8263
704	0.8823
695	0.9035
686	0.9087
677	0.9103
668	0.9205
659	0.8506
650	0.8528
641	0.8699
632	0.8893
623	0.8999
614	0.8984
605	0.886
596	0.8852
587	0.8941
578	0.8923
569	0.8899
560	0.883
551	0.6823
542	0.8636
533	0.8691
524	0.8648
515	0.8531
506	0.7499
497	0.8376
488	0.8293
479	0.817
470	0.7951
461	0.6945
452	0.7197
443	0.6747
434	0.6212
425	0.4761
416	0.2694
407	0.0859
398	0.0825
389	0.0783
