Infrared Spectrum: 3-Picoline, 4-ethyl-
Formula: C8 H11 N
CAS: 20815-29-6
State: SOLUTION (7% CCl4 FOR 3800-1330, 7% CS2 FOR 1330-440)
Class: COBLENTZ III
Instrument: BECKMAN IR-9 (GRATING)
Instrument parameters: ORDER CHANGES: 670, 1200, 2000 CM^-^1
Sampling: TRANSMISSION
Path length: 0.012 CM, 0.012 CM
Resolution: 2
Origin: DOW CHEMICAL COMPANY
1/CM	TRANSMITTANCE
450	0.8885
459	0.8893
468	0.9025
477	0.9062
486	0.8999
495	0.8688
504	0.846
513	0.8867
522	0.8637
531	0.8927
540	0.9051
549	0.9023
558	0.8878
567	0.8273
576	0.8042
585	0.9062
594	0.8964
603	0.7782
612	0.9134
621	0.9168
630	0.9163
639	0.9094
648	0.899
657	0.9083
666	0.9176
675	0.9182
684	0.9198
693	0.9187
702	0.9064
711	0.8691
720	0.9011
729	0.8791
738	0.8647
747	0.8876
756	0.9168
765	0.9228
774	0.9105
783	0.8727
792	0.8942
801	0.8934
810	0.8716
819	0.7562
828	0.2618
837	0.7067
846	0.8722
855	0.8977
864	0.9071
873	0.913
882	0.9172
891	0.9165
900	0.913
909	0.904
918	0.907
927	0.9172
936	0.9178
945	0.9142
954	0.9035
963	0.8898
972	0.8939
981	0.8853
990	0.853
999	0.8946
1008	0.9093
1017	0.8923
1026	0.8084
1035	0.8259
1044	0.8817
1053	0.8514
1062	0.8733
1071	0.8059
1080	0.8609
1089	0.9348
1098	0.9382
1107	0.9386
1116	0.9365
1125	0.9314
1134	0.927
1143	0.9205
1152	0.9142
1161	0.9112
1170	0.9098
1179	0.8864
1188	0.631
1197	0.8692
1206	0.8941
1215	0.8593
1224	0.8963
1233	0.8934
1242	0.9011
1251	0.8996
1260	0.8965
1269	0.9096
1278	0.9077
1287	0.902
1296	0.8687
1305	0.8152
1314	0.8686
1323	0.8699
1332	0.8681
1341	0.8743
1350	0.8734
1359	0.8706
1368	0.8606
1377	0.8273
1386	0.8566
1395	0.8302
1404	0.7464
1413	0.8483
1422	0.8331
1431	0.832
1440	0.8045
1449	0.7703
1458	0.7824
1467	0.8209
1476	0.842
1485	0.8127
1494	0.8133
1503	0.8587
1512	0.8546
1521	0.8465
1530	0.8356
1539	0.821
1548	0.8025
1557	0.7885
1566	0.8218
1575	0.8267
1584	0.7996
1593	0.626
1602	0.824
1611	0.8618
1620	0.8718
1629	0.8743
1638	0.8772
1647	0.8791
1656	0.8794
1665	0.8798
1674	0.8808
1683	0.8816
1692	0.8818
1701	0.8809
1710	0.8833
1719	0.8867
1728	0.8884
1737	0.8843
1746	0.8818
1755	0.8825
1764	0.8857
1773	0.883
1782	0.8846
1791	0.8864
1800	0.8883
1809	0.8867
1818	0.8862
1827	0.8852
1836	0.8851
1845	0.8851
1854	0.8853
1863	0.8856
1872	0.8857
1881	0.8858
1890	0.8858
1899	0.8862
1908	0.8866
1917	0.8866
1926	0.887
1935	0.8903
1944	0.8901
1953	0.89
1962	0.8898
1971	0.8897
1980	0.8891
1989	0.8861
1998	0.8793
2007	0.8804
2016	0.8806
2025	0.8808
2034	0.8806
2043	0.8803
2052	0.8799
2061	0.8799
2070	0.8802
2079	0.8804
2088	0.8807
2097	0.8807
2106	0.8808
2115	0.8808
2124	0.881
2133	0.8811
2142	0.8812
2151	0.8809
2160	0.8805
2169	0.8801
2178	0.8797
2187	0.8794
2196	0.8791
2205	0.8786
2214	0.8782
2223	0.8779
2232	0.8778
2241	0.8776
2250	0.8773
2259	0.877
2268	0.8768
2277	0.8763
2286	0.8759
2295	0.8754
2304	0.8752
2313	0.8752
2322	0.8753
2331	0.8769
2340	0.8899
2349	0.8809
2358	0.8794
2367	0.8789
2376	0.879
2385	0.879
2394	0.8792
2403	0.8795
2412	0.8798
2421	0.8801
2430	0.8804
2439	0.8805
2448	0.8807
2457	0.8808
2466	0.8813
2475	0.8816
2484	0.8812
2493	0.8806
2502	0.8803
2511	0.88
2520	0.8798
2529	0.8794
2538	0.8792
2547	0.879
2556	0.8789
2565	0.8793
2574	0.8798
2583	0.8801
2592	0.8805
2601	0.8808
2610	0.8808
2619	0.8805
2628	0.8802
2637	0.8799
2646	0.8796
2655	0.8793
2664	0.879
2673	0.8791
2682	0.8798
2691	0.8803
2700	0.8809
2709	0.8815
2718	0.8821
2727	0.8826
2736	0.8831
2745	0.8834
2754	0.8838
2763	0.8835
2772	0.883
2781	0.8815
2790	0.8798
2799	0.8766
2808	0.8732
2817	0.8697
2826	0.8651
2835	0.8601
2844	0.8547
2853	0.848
2862	0.8318
2871	0.7976
2880	0.7809
2889	0.8189
2898	0.8197
2907	0.8158
2916	0.8015
2925	0.777
2934	0.7583
2943	0.7754
2952	0.7774
2961	0.7392
2970	0.628
2979	0.6736
2988	0.7759
2997	0.826
3006	0.8215
3015	0.8215
3024	0.8247
3033	0.8401
3042	0.843
3051	0.8429
3060	0.8477
3069	0.8752
3078	0.8784
3087	0.88
3096	0.8811
3105	0.8808
3114	0.8804
3123	0.8798
3132	0.8794
3141	0.879
3150	0.8786
3159	0.8782
3168	0.8779
3177	0.8776
3186	0.8773
3195	0.8766
3204	0.8759
3213	0.875
3222	0.8739
3231	0.8727
3240	0.8715
3249	0.8704
3258	0.8694
3267	0.8683
3276	0.8673
3285	0.8663
3294	0.8659
3303	0.8655
3312	0.8652
3321	0.8647
3330	0.8642
3339	0.8637
3348	0.864
3357	0.8643
3366	0.8647
3375	0.865
3384	0.8652
3393	0.8653
3402	0.8656
3411	0.8661
3420	0.8667
3429	0.8672
3438	0.8678
3447	0.8684
3456	0.869
3465	0.8696
3474	0.8703
3483	0.871
3492	0.8717
3501	0.8724
3510	0.8733
3519	0.8748
3528	0.8763
3537	0.8778
3546	0.8796
3555	0.8816
3564	0.8836
3573	0.8856
3582	0.887
3591	0.887
3600	0.8866
3609	0.8857
3618	0.8849
3627	0.8839
3636	0.8829
3645	0.8818
3654	0.8806
3663	0.88
3672	0.8795
3681	0.8821
3690	0.8853
3699	0.8867
3708	0.8873
3717	0.8875
3726	0.8878
3735	0.888
3744	0.8882
3753	0.8884
3762	0.8886
3771	0.8889
3780	0.89
3789	0.8911
3798	0.8922
