Infrared Spectrum: 1-PENTEN-3-OL, 2-METHYL-
Formula: C6 H12 O
CAS: 2088-07-5
State: SOLUTION (10% CCl4 FOR 3800-1335, 10% CS2 FOR 1335-460 CM^-^1)
Class: COBLENTZ II
Instrument: DOW KBr FOREPRISM-GRATING
Instrument parameters: BLAZED AT 3.5, 12.0, 20.0 MICRON AND CHANGED AT 5.0, 7.5, 14.9 MICRON
Sampling: TRANSMISSION
Path length: 0.012 CM, 0.011 CM
Resolution: 2
Origin: DOW CHEMICAL COMPANY
1/CM	TRANSMITTANCE
459	0.7124
468	0.7132
477	0.6965
486	0.6717
495	0.6767
504	0.6718
513	0.6422
522	0.6262
531	0.5738
540	0.4895
549	0.59
558	0.6241
567	0.5938
576	0.5995
585	0.6314
594	0.665
603	0.6746
612	0.6741
621	0.6494
630	0.6576
639	0.6962
648	0.7133
657	0.7214
666	0.7417
675	0.7362
684	0.7449
693	0.7537
702	0.7611
711	0.7619
720	0.7455
729	0.795
738	0.8033
747	0.8136
756	0.8332
765	0.8385
774	0.8255
783	0.857
792	0.8663
801	0.8465
810	0.8368
819	0.7824
828	0.7151
837	0.735
846	0.7331
855	0.771
864	0.7884
873	0.7633
882	0.5844
891	0.2927
900	0.011
909	0.2983
918	0.632
927	0.7261
936	0.7393
945	0.6804
954	0.3489
963	0.2004
972	0.3394
981	0.143
990	0.2392
999	0.3586
1008	0.2782
1017	0.2343
1026	0.3952
1035	0.5404
1044	0.486
1053	0.2275
1062	0.4695
1071	0.6065
1080	0.5642
1089	0.4055
1098	0.2729
1107	0.3921
1116	0.4248
1125	0.4951
1134	0.674
1143	0.7896
1152	0.8125
1161	0.8133
1170	0.8068
1179	0.7933
1188	0.7641
1197	0.7206
1206	0.6708
1215	0.5931
1224	0.4934
1233	0.4594
1242	0.5025
1251	0.5348
1260	0.5187
1269	0.5542
1278	0.5724
1287	0.5682
1296	0.5292
1305	0.5473
1314	0.5391
1323	0.5186
1332	0.476
1341	0.5106
1350	0.6147
1359	0.5887
1368	0.5175
1377	0.3209
1386	0.4408
1395	0.5076
1404	0.5135
1413	0.5225
1422	0.5537
1431	0.5064
1440	0.2929
1449	0.2454
1458	0.142
1467	0.2467
1476	0.5474
1485	0.713
1494	0.7608
1503	0.801
1512	0.8275
1521	0.8447
1530	0.855
1539	0.8647
1548	0.8825
1557	0.8811
1566	0.8701
1575	0.8532
1584	0.8489
1593	0.8424
1602	0.8286
1611	0.8115
1620	0.7948
1629	0.7832
1638	0.7486
1647	0.5897
1656	0.4403
1665	0.7553
1674	0.8286
1683	0.8377
1692	0.8458
1701	0.8512
1710	0.8444
1719	0.8374
1728	0.8396
1737	0.8473
1746	0.8587
1755	0.868
1764	0.8728
1773	0.8732
1782	0.8683
1791	0.8505
1800	0.8285
1809	0.8028
1818	0.8118
1827	0.8508
1836	0.8697
1845	0.879
1854	0.8843
1863	0.887
1872	0.8885
1881	0.8892
1890	0.8897
1899	0.8889
1908	0.888
1917	0.8867
1926	0.8853
1935	0.8834
1944	0.8817
1953	0.8816
1962	0.8959
1971	0.8835
1980	0.8837
1989	0.8867
1998	0.8986
2007	0.9359
2016	0.9361
2025	0.9364
2034	0.9374
2043	0.9378
2052	0.9374
2061	0.9367
2070	0.9362
2079	0.9356
2088	0.9352
2097	0.9347
2106	0.9343
2115	0.9334
2124	0.9325
2133	0.9316
2142	0.9306
2151	0.9297
2160	0.9286
2169	0.9275
2178	0.9266
2187	0.9254
2196	0.9239
2205	0.9223
2214	0.9215
2223	0.9214
2232	0.9213
2241	0.9213
2250	0.9215
2259	0.9213
2268	0.9177
2277	0.9144
2286	0.9124
2295	0.9118
2304	0.9115
2313	0.911
2322	0.9105
2331	0.91
2340	0.9096
2349	0.9125
2358	0.914
2367	0.9092
2376	0.9045
2385	0.9001
2394	0.8965
2403	0.8954
2412	0.8945
2421	0.8939
2430	0.8934
2439	0.8934
2448	0.8935
2457	0.8943
2466	0.8952
2475	0.8956
2484	0.8956
2493	0.895
2502	0.8944
2511	0.8933
2520	0.8914
2529	0.8895
2538	0.8875
2547	0.8857
2556	0.8838
2565	0.8816
2574	0.8795
2583	0.8773
2592	0.8749
2601	0.8724
2610	0.87
2619	0.8675
2628	0.8655
2637	0.8634
2646	0.8617
2655	0.8602
2664	0.8565
2673	0.8517
2682	0.847
2691	0.8423
2700	0.8375
2709	0.8323
2718	0.8224
2727	0.8044
2736	0.8005
2745	0.8121
2754	0.8262
2763	0.8291
2772	0.822
2781	0.8125
2790	0.8011
2799	0.788
2808	0.7714
2817	0.7474
2826	0.7128
2835	0.5977
2844	0.5193
2853	0.4093
2862	0.3337
2871	0.266
2880	0.1658
2889	0.2148
2898	0.3574
2907	0.3566
2916	0.2634
2925	0.1564
2934	0.0922
2943	0.0662
2952	0.1142
2961	0.1479
2970	0.0441
2979	0.0457
2988	0.1426
2997	0.3216
3006	0.5391
3015	0.67
3024	0.7154
3033	0.7424
3042	0.7569
3051	0.7547
3060	0.7426
3069	0.6715
3078	0.4854
3087	0.5619
3096	0.6562
3105	0.7439
3114	0.7785
3123	0.7871
3132	0.79
3141	0.7887
3150	0.78
3159	0.768
3168	0.7561
3177	0.7437
3186	0.7289
3195	0.7122
3204	0.6922
3213	0.6706
3222	0.6486
3231	0.626
3240	0.5976
3249	0.569
3258	0.5369
3267	0.4945
3276	0.4437
3285	0.4119
3294	0.3834
3303	0.3544
3312	0.3302
3321	0.3055
3330	0.2809
3339	0.261
3348	0.2463
3357	0.2399
3366	0.2355
3375	0.2349
3384	0.2362
3393	0.2384
3402	0.2422
3411	0.2458
3420	0.2516
3429	0.2585
3438	0.2676
3447	0.2768
3456	0.2888
3465	0.3025
3474	0.3178
3483	0.3334
3492	0.3495
3501	0.3656
3510	0.3857
3519	0.4158
3528	0.4606
3537	0.5276
3546	0.595
3555	0.6302
3564	0.6687
3573	0.7035
3582	0.7155
3591	0.7146
3600	0.6842
3609	0.5393
3618	0.4137
3627	0.5421
3636	0.7168
3645	0.8022
3654	0.8318
3663	0.8364
3672	0.832
3681	0.8383
3690	0.8593
3699	0.8678
3708	0.877
3717	0.8825
3726	0.8849
3735	0.8861
3744	0.8867
3753	0.8866
3762	0.8868
3771	0.888
3780	0.8886
3789	0.8893
3798	0.8899
