Infrared Spectrum: BUTETHAMINE
Formula: C13 H20 N2 O2
CAS: 2090-89-3
Class: COBLENTZ III
Instrument: PERKIN-ELMER 21 (GRATING)
Instrument parameters: FILTER AT ABOUT 10 MICRONS
Sampling: TRANSMISSION
Resolution: 2
1/CM	TRANSMITTANCE
4000	0.8925
3991	0.8923
3982	0.8921
3973	0.8921
3964	0.8925
3955	0.8931
3946	0.8936
3937	0.8942
3928	0.8947
3919	0.8953
3910	0.896
3901	0.8966
3892	0.8971
3883	0.8977
3874	0.8982
3865	0.8986
3856	0.8989
3847	0.8992
3838	0.8995
3829	0.8997
3820	0.9
3811	0.9003
3802	0.9007
3793	0.9009
3784	0.901
3775	0.9012
3766	0.9013
3757	0.9015
3748	0.9017
3739	0.9017
3730	0.9018
3721	0.9018
3712	0.9018
3703	0.9018
3694	0.9018
3685	0.9018
3676	0.9016
3667	0.9016
3658	0.9013
3649	0.9007
3640	0.8994
3631	0.8953
3622	0.8887
3613	0.8834
3604	0.8821
3595	0.8812
3586	0.8791
3577	0.8728
3568	0.8673
3559	0.8605
3550	0.8521
3541	0.8389
3532	0.8178
3523	0.7958
3514	0.7824
3505	0.7682
3496	0.7515
3487	0.7253
3478	0.6991
3469	0.6684
3460	0.6231
3451	0.576
3442	0.5288
3433	0.4853
3424	0.4762
3415	0.4752
3406	0.4742
3397	0.4733
3388	0.4674
3379	0.431
3370	0.393
3361	0.3549
3352	0.3182
3343	0.3118
3334	0.3112
3325	0.3153
3316	0.3737
3307	0.4356
3298	0.4732
3289	0.4925
3280	0.5118
3271	0.5312
3262	0.5419
3253	0.5412
3244	0.5208
3235	0.4949
3226	0.4688
3217	0.4505
3208	0.4497
3199	0.4569
3190	0.4834
3181	0.5101
3172	0.537
3163	0.5641
3154	0.5841
3145	0.5947
3136	0.6056
3127	0.6236
3118	0.6417
3109	0.66
3100	0.6732
3091	0.6785
3082	0.6818
3073	0.6851
3064	0.6889
3055	0.6928
3046	0.6962
3037	0.6993
3028	0.7021
3019	0.7051
3010	0.7078
3001	0.71
2992	0.7098
2983	0.6801
2974	0.5953
2965	0.5099
2956	0.424
2947	0.3434
2938	0.3336
2929	0.3614
2920	0.3903
2911	0.4194
2902	0.4472
2893	0.463
2884	0.4698
2875	0.4724
2866	0.4732
2857	0.4734
2848	0.4958
2839	0.5465
2830	0.577
2821	0.5871
2812	0.5967
2803	0.6144
2794	0.6415
2785	0.6612
2776	0.6878
2767	0.7203
2758	0.7451
2749	0.7612
2740	0.7754
2731	0.7864
2722	0.7926
2713	0.7964
2704	0.8005
2695	0.8046
2686	0.8093
2677	0.8146
2668	0.8199
2659	0.8242
2650	0.8286
2641	0.8327
2632	0.837
2623	0.8412
2614	0.8459
2605	0.8497
2596	0.8536
2587	0.8583
2578	0.8632
2569	0.868
2560	0.8714
2551	0.8744
2542	0.8773
2533	0.8802
2524	0.8832
2515	0.8861
2506	0.8882
2497	0.8904
2488	0.8928
2479	0.8954
2470	0.8968
2461	0.8977
2452	0.8975
2443	0.8963
2434	0.8949
2425	0.8938
2416	0.8944
2407	0.8954
2398	0.8966
2389	0.8971
2380	0.898
2371	0.8983
2362	0.8986
2353	0.8984
2344	0.898
2335	0.8967
2326	0.8951
2317	0.895
2308	0.8968
2299	0.9001
2290	0.9035
2281	0.907
2272	0.9092
2263	0.9103
2254	0.9062
2245	0.9043
2236	0.9039
2227	0.9042
2218	0.9049
2209	0.9055
2200	0.9061
2191	0.9067
2182	0.9065
2173	0.9061
2164	0.9058
2155	0.9036
2146	0.9014
2137	0.8989
2128	0.8965
2119	0.8944
2110	0.8931
2101	0.8942
2092	0.8971
2083	0.8991
2074	0.9012
2065	0.9021
2056	0.9028
2047	0.903
2038	0.9002
2029	0.8959
2020	0.8946
2011	0.8942
2002	0.894
1993	0.8959
1984	0.8975
1975	0.8983
1966	0.8985
1957	0.8982
1948	0.8955
1939	0.8918
1930	0.8867
1921	0.8817
1912	0.8765
1903	0.8733
1894	0.8793
1885	0.8859
1876	0.8918
1867	0.893
1858	0.8947
1849	0.8953
1840	0.8936
1831	0.8914
1822	0.8891
1813	0.8871
1804	0.8857
1795	0.8851
1786	0.8812
1777	0.8737
1768	0.8728
1759	0.8663
1750	0.8527
1741	0.8334
1732	0.7928
1723	0.7075
1714	0.4008
1705	0.2753
1696	0.2288
1687	0.2761
1678	0.4093
1669	0.544
1660	0.542
1651	0.4642
1642	0.3234
1633	0.2392
1624	0.2158
1615	0.18
1606	0.0869
1597	0.1763
1588	0.3912
1579	0.5292
1570	0.5492
1561	0.6053
1552	0.7318
1543	0.7405
1534	0.7372
1525	0.4903
1516	0.5304
1507	0.7162
1498	0.7547
1489	0.7149
1480	0.5888
1471	0.41
1462	0.3916
1453	0.457
1444	0.4512
1435	0.4901
1426	0.5138
1417	0.5346
1408	0.6114
1399	0.65
1390	0.5665
1381	0.58
1372	0.5635
1363	0.5647
1354	0.6367
1345	0.6121
1336	0.5859
1327	0.5442
1318	0.4657
1309	0.3293
1300	0.4254
1291	0.338
1282	0.1586
1273	0.0891
1264	0.1969
1255	0.4603
1246	0.5723
1237	0.6224
1228	0.6768
1219	0.736
1210	0.7624
1201	0.763
1192	0.7692
1183	0.6901
1174	0.2178
1165	0.344
1156	0.6371
1147	0.6682
1138	0.6165
1129	0.5124
1120	0.3924
1111	0.2956
1102	0.3784
1093	0.4955
1084	0.5437
1075	0.5623
1066	0.5822
1057	0.5927
1048	0.6184
1039	0.7003
1030	0.7086
1021	0.7091
1012	0.7125
1003	0.7612
994	0.7738
985	0.7843
976	0.7795
967	0.7608
958	0.753
949	0.7598
940	0.7619
931	0.7778
922	0.7651
913	0.7758
904	0.7811
895	0.7749
886	0.7653
877	0.7375
868	0.719
859	0.6951
850	0.5902
841	0.5019
832	0.6254
823	0.6741
814	0.6958
805	0.7248
796	0.7181
787	0.7012
778	0.6249
769	0.4422
760	0.6415
751	0.683
742	0.6794
733	0.671
724	0.6601
715	0.6562
706	0.634
697	0.5499
688	0.6175
679	0.6154
