Infrared Spectrum: Biphenyl, 3-nitro-
Formula: C12 H9 N O2
CAS: 2113-58-8
State: SOLUTION (2% CCl4 FOR 3800-1330, 2% CS2 FOR 1330-440 CM^-^1)
Class: COBLENTZ III
Instrument: DOW KBr FOREPRISM-GRATING
Instrument parameters: BLAZED AT 3.5, 12.0, 20.0 MICRON AND CHANGED AT 5.0, 7.5, 14.9 MICRON
Sampling: TRANSMISSION
Path length: 0.011 CM, 0.011 CM
Resolution: 2
Origin: DOW CHEMICAL COMPANY
1/CM	TRANSMITTANCE
3796	0.929
3787	0.9291
3778	0.9287
3769	0.9288
3760	0.9294
3751	0.9286
3742	0.9285
3733	0.9284
3724	0.9302
3715	0.9305
3706	0.9322
3697	0.9323
3688	0.9309
3679	0.9297
3670	0.9314
3661	0.9306
3652	0.9308
3643	0.9306
3634	0.9304
3625	0.9313
3616	0.9309
3607	0.9301
3598	0.928
3589	0.9265
3580	0.9177
3571	0.9232
3562	0.9246
3553	0.9255
3544	0.9263
3535	0.9274
3526	0.9262
3517	0.9265
3508	0.9269
3499	0.9272
3490	0.9276
3481	0.9279
3472	0.9282
3463	0.9285
3454	0.9289
3445	0.9291
3436	0.9295
3427	0.9299
3418	0.9304
3409	0.9308
3400	0.9312
3391	0.9315
3382	0.9319
3373	0.9321
3364	0.9322
3355	0.9325
3346	0.9328
3337	0.9344
3328	0.9333
3319	0.9336
3310	0.9354
3301	0.9341
3292	0.9344
3283	0.9362
3274	0.9365
3265	0.9368
3256	0.9359
3247	0.9374
3238	0.9376
3229	0.9376
3220	0.9378
3211	0.9378
3202	0.936
3193	0.9367
3184	0.9337
3175	0.9324
3166	0.9324
3157	0.933
3148	0.9309
3139	0.9302
3130	0.928
3121	0.9238
3112	0.9172
3103	0.9078
3094	0.9007
3085	0.8814
3076	0.8619
3067	0.8663
3058	0.8941
3049	0.9036
3040	0.8912
3031	0.865
3022	0.8973
3013	0.9088
3004	0.9179
2995	0.9219
2986	0.9264
2977	0.9287
2968	0.9358
2959	0.9341
2950	0.9335
2941	0.9295
2932	0.9217
2923	0.9069
2914	0.9002
2905	0.9107
2896	0.918
2887	0.9215
2878	0.9136
2869	0.9038
2860	0.9121
2851	0.9085
2842	0.9143
2833	0.9262
2824	0.9289
2815	0.9298
2806	0.9314
2797	0.9305
2788	0.9278
2779	0.9284
2770	0.9284
2761	0.9286
2752	0.9287
2743	0.9288
2734	0.9287
2725	0.9284
2716	0.9282
2707	0.928
2698	0.9278
2689	0.9278
2680	0.9277
2671	0.9277
2662	0.9278
2653	0.9292
2644	0.9276
2635	0.9271
2626	0.9281
2617	0.9275
2608	0.9273
2599	0.9267
2590	0.9264
2581	0.9262
2572	0.9261
2563	0.9258
2554	0.9256
2545	0.9254
2536	0.9257
2527	0.9262
2518	0.9266
2509	0.9272
2500	0.9279
2491	0.9284
2482	0.929
2473	0.9309
2464	0.9316
2455	0.9311
2446	0.9332
2437	0.9339
2428	0.9344
2419	0.9342
2410	0.9338
2401	0.9346
2392	0.9362
2383	0.9414
2374	0.9506
2365	0.9547
2356	0.9654
2347	0.9721
2338	0.9747
2329	0.9776
2320	0.9681
2311	0.948
2302	0.9419
2293	0.9414
2284	0.9394
2275	0.9377
2266	0.9388
2257	0.9383
2248	0.9374
2239	0.9368
2230	0.9368
2221	0.9368
2212	0.9384
2203	0.9396
2194	0.9408
2185	0.9403
2176	0.9427
2167	0.9419
2158	0.9425
2149	0.9429
2140	0.9435
2131	0.944
2122	0.9441
2113	0.947
2104	0.9418
2095	0.9455
2086	0.9469
2077	0.9469
2068	0.9495
2059	0.9525
2050	0.9562
2041	0.9582
2032	0.9533
2023	0.949
2014	0.9539
2005	0.9573
1996	0.954
1987	0.9157
1978	0.9051
1969	0.8977
1960	0.9177
1951	0.8983
1942	0.9086
1933	0.9076
1924	0.9095
1915	0.9079
1906	0.893
1897	0.9033
1888	0.8981
1879	0.9022
1870	0.9037
1861	0.9023
1852	0.9027
1843	0.9043
1834	0.9048
1825	0.897
1816	0.9026
1807	0.8978
1798	0.9011
1789	0.9065
1780	0.9101
1771	0.9099
1762	0.9069
1753	0.9085
1744	0.9058
1735	0.9037
1726	0.9106
1717	0.9174
1708	0.9159
1699	0.9201
1690	0.9153
1681	0.916
1672	0.9188
1663	0.9128
1654	0.92
1645	0.9269
1636	0.9225
1627	0.9081
1618	0.8954
1609	0.8786
1600	0.8392
1591	0.7948
1582	0.8019
1573	0.7404
1564	0.7358
1555	0.7477
1546	0.6773
1537	0.0602
1528	0.6841
1519	0.7964
1510	0.7979
1501	0.785
1492	0.8778
1483	0.8622
1474	0.8028
1465	0.8738
1456	0.8629
1447	0.9023
1438	0.9191
1429	0.9156
1420	0.9073
1411	0.919
1402	0.9223
1393	0.9247
1384	0.9415
1375	0.9127
1366	0.8771
1357	0.3622
1348	0.4552
1339	0.7882
1330	0.8513
1321	0.8613
1312	0.8786
1303	0.8426
1294	0.8604
1285	0.8708
1276	0.8917
1267	0.8798
1258	0.8933
1249	0.9156
1240	0.9265
1231	0.9359
1222	0.9374
1213	0.9366
1204	0.9352
1195	0.9309
1186	0.9254
1177	0.916
1168	0.9137
1159	0.9198
1150	0.9245
1141	0.9291
1132	0.9393
1123	0.9423
1114	0.9231
1105	0.8621
1096	0.8921
1087	0.8887
1078	0.8704
1069	0.9058
1060	0.9188
1051	0.9147
1042	0.9061
1033	0.9206
1024	0.8908
1015	0.916
1006	0.9207
997	0.9163
988	0.914
979	0.9143
970	0.9163
961	0.918
952	0.9177
943	0.9166
934	0.9135
925	0.8752
916	0.8773
907	0.8987
898	0.7187
889	0.8898
880	0.8122
871	0.8488
862	0.8578
853	0.8627
844	0.8781
835	0.8886
826	0.9031
817	0.8996
808	0.7622
799	0.8974
790	0.9084
781	0.9029
772	0.8109
763	0.4837
754	0.873
745	0.8862
736	0.8045
727	0.7451
718	0.8712
709	0.8734
700	0.6049
691	0.715
682	0.7594
673	0.6949
664	0.909
655	0.9275
646	0.9092
637	0.9143
628	0.9277
619	0.9298
610	0.8644
601	0.942
592	0.9422
583	0.9454
574	0.9456
565	0.9445
556	0.9412
547	0.9393
538	0.9409
529	0.9415
520	0.9424
511	0.9417
502	0.9376
493	0.9283
484	0.9143
475	0.9098
466	0.9097
457	0.9103
448	0.9106
