Infrared Spectrum: 2114-00-3
Formula: C9 H9 Br O
CAS: 2114-00-3
State: SOLUTION (10% CCl4 FOR 3800-1330, 10% CS2 FOR 1330-400 CM^-^1)
Boiling point: 138 C AT 13 mmHg
Class: COBLENTZ II
Instrument: BECKMAN IR-9 (GRATING)
Instrument parameters: ORDER CHANGES: 670, 1200, 2000 CM^-^1
Sampling: TRANSMISSION
Path length: 0.011 CM, 0.011 CM
Resolution: 2
Origin: DOW CHEMICAL COMPANY
1/CM	TRANSMITTANCE
3800	0.8858
3791	0.8852
3782	0.8845
3773	0.8838
3764	0.8828
3755	0.8816
3746	0.8805
3737	0.8794
3728	0.8798
3719	0.8804
3710	0.8811
3701	0.8813
3692	0.8816
3683	0.8814
3674	0.8812
3665	0.881
3656	0.8808
3647	0.8807
3638	0.881
3629	0.8813
3620	0.8817
3611	0.8818
3602	0.8816
3593	0.8813
3584	0.881
3575	0.8801
3566	0.8793
3557	0.8784
3548	0.8774
3539	0.8764
3530	0.8754
3521	0.8746
3512	0.8737
3503	0.8725
3494	0.8715
3485	0.8706
3476	0.8701
3467	0.8704
3458	0.8717
3449	0.8724
3440	0.8731
3431	0.8731
3422	0.8728
3413	0.8725
3404	0.8717
3395	0.8695
3386	0.8592
3377	0.8342
3368	0.8161
3359	0.8315
3350	0.8471
3341	0.8596
3332	0.8655
3323	0.8671
3314	0.8684
3305	0.8671
3296	0.8637
3287	0.8627
3278	0.8624
3269	0.8614
3260	0.8598
3251	0.8583
3242	0.8571
3233	0.8561
3224	0.8549
3215	0.8536
3206	0.8523
3197	0.85
3188	0.8474
3179	0.8425
3170	0.8382
3161	0.836
3152	0.835
3143	0.8339
3134	0.8325
3125	0.8308
3116	0.8172
3107	0.7968
3098	0.7178
3089	0.7467
3080	0.7448
3071	0.6641
3062	0.6854
3053	0.7458
3044	0.7392
3035	0.7446
3026	0.7724
3017	0.7782
3008	0.7107
2999	0.7372
2990	0.6643
2981	0.6778
2972	0.7893
2963	0.8114
2954	0.814
2945	0.7751
2936	0.7024
2927	0.6497
2918	0.7584
2909	0.8282
2900	0.8352
2891	0.8304
2882	0.8237
2873	0.8007
2864	0.79
2855	0.8313
2846	0.8435
2837	0.8428
2828	0.8416
2819	0.8439
2810	0.8485
2801	0.8521
2792	0.8538
2783	0.8547
2774	0.8552
2765	0.8557
2756	0.8561
2747	0.8555
2738	0.8554
2729	0.8575
2720	0.8597
2711	0.8611
2702	0.8625
2693	0.8625
2684	0.8625
2675	0.8625
2666	0.8632
2657	0.8637
2648	0.8642
2639	0.8646
2630	0.8668
2621	0.8666
2612	0.8639
2603	0.8624
2594	0.8624
2585	0.8644
2576	0.8664
2567	0.8675
2558	0.8685
2549	0.8691
2540	0.8695
2531	0.8697
2522	0.8691
2513	0.8685
2504	0.868
2495	0.8663
2486	0.8627
2477	0.8571
2468	0.8582
2459	0.8608
2450	0.8613
2441	0.86
2432	0.8587
2423	0.8573
2414	0.8555
2405	0.8537
2396	0.8521
2387	0.8568
2378	0.8623
2369	0.8649
2360	0.8649
2351	0.8649
2342	0.8652
2333	0.8654
2324	0.8666
2315	0.8677
2306	0.8689
2297	0.8697
2288	0.8703
2279	0.8708
2270	0.8714
2261	0.8711
2252	0.8712
2243	0.8718
2234	0.8725
2225	0.8732
2216	0.8739
2207	0.8746
2198	0.8747
2189	0.8747
2180	0.8746
2171	0.8746
2162	0.8746
2153	0.8747
2144	0.8751
2135	0.8755
2126	0.8759
2117	0.8759
2108	0.876
2099	0.8761
2090	0.8764
2081	0.8766
2072	0.8768
2063	0.8768
2054	0.8766
2045	0.8765
2036	0.8765
2027	0.8765
2018	0.8766
2009	0.876
2000	0.8718
1991	0.8571
1982	0.8413
1973	0.8468
1964	0.8252
1955	0.8475
1946	0.8565
1937	0.8591
1928	0.8559
1919	0.8416
1910	0.8462
1901	0.8356
1892	0.8497
1883	0.8654
1874	0.8675
1865	0.8673
1856	0.8668
1847	0.8654
1838	0.8609
1829	0.8516
1820	0.8343
1811	0.8213
1802	0.8483
1793	0.8558
1784	0.8483
1775	0.8302
1766	0.8268
1757	0.8305
1748	0.8217
1739	0.8075
1730	0.7799
1721	0.7457
1712	0.6551
1703	0.2813
1694	0.0067
1685	0.236
1676	0.6451
1667	0.7392
1658	0.7401
1649	0.7724
1640	0.794
1631	0.8058
1622	0.8035
1613	0.7758
1604	0.6888
1595	0.5381
1586	0.535
1577	0.776
1568	0.8308
1559	0.8534
1550	0.8604
1541	0.8574
1532	0.8508
1523	0.854
1514	0.8542
1505	0.8468
1496	0.8232
1487	0.8321
1478	0.8295
1469	0.8115
1460	0.7712
1451	0.0872
1442	0.4123
1433	0.7481
1424	0.8021
1415	0.8001
1406	0.7914
1397	0.7821
1388	0.7685
1379	0.3676
1370	0.7397
1361	0.6817
1352	0.4176
1343	0.2405
1334	0.4281
1325	0.5728
1316	0.7071
1307	0.6961
1298	0.7091
1289	0.7786
1280	0.7857
1271	0.7058
1262	0.7105
1253	0.5804
1244	0.1376
1235	0.1196
1226	0.298
1217	0.5462
1208	0.6871
1199	0.6738
1190	0.6531
1181	0.6264
1172	0.6162
1163	0.2905
1154	0.6062
1145	0.7953
1136	0.814
1127	0.8135
1118	0.8068
1109	0.7821
1100	0.661
1091	0.6704
1082	0.7638
1073	0.6758
1064	0.7749
1055	0.6771
1046	0.8312
1037	0.8365
1028	0.7883
1019	0.8205
1010	0.7826
1001	0.5222
992	0.3857
983	0.6775
974	0.7008
965	0.6885
956	0.434
947	0.3059
938	0.6518
929	0.7472
920	0.8175
911	0.8397
902	0.8475
893	0.8623
884	0.8682
875	0.8681
866	0.8665
857	0.8646
848	0.8552
839	0.8295
830	0.848
821	0.8532
812	0.8492
803	0.8122
794	0.4323
785	0.8015
776	0.8462
767	0.8462
758	0.8249
749	0.6305
740	0.8174
731	0.8218
722	0.7682
713	0.6243
704	0.1324
695	0.614
686	0.1607
677	0.7224
668	0.8182
659	0.8038
650	0.4696
641	0.7887
632	0.8392
623	0.8397
614	0.8137
605	0.8261
596	0.8444
587	0.8343
578	0.8198
569	0.8024
560	0.726
551	0.6215
542	0.6596
533	0.7998
524	0.8433
515	0.8573
506	0.863
497	0.8394
488	0.7871
479	0.7419
470	0.814
461	0.8597
452	0.8877
443	0.9085
434	0.9245
425	0.938
416	0.944
407	0.8897
