Infrared Spectrum: PHTHALIMIDE,N-(p-METHOXYBENZYL)-
Formula: C16 H13 N O3
CAS: 21244-24-6
State: SOLID (NUJOL MULL)
Melting point: 129.5-130 C
Class: COBLENTZ III
Instrument: PERKIN-ELMER 21 (GRATING)
Instrument parameters: FILTER AT ABOUT 10 MICRONS
Resolution: 2
Origin: ABBOTT LABORATORIES
1/CM	TRANSMITTANCE
650	0.6425
659	0.6712
668	0.6915
677	0.6885
686	0.6422
695	0.6929
704	0.6223
713	0.2783
722	0.2394
731	0.6688
740	0.6927
749	0.5571
758	0.7266
767	0.7377
776	0.7372
785	0.7222
794	0.6194
803	0.5531
812	0.6662
821	0.5802
830	0.6953
839	0.658
848	0.705
857	0.7634
866	0.7653
875	0.7538
884	0.7447
893	0.742
902	0.7358
911	0.7176
920	0.5381
929	0.7178
938	0.7071
947	0.6371
956	0.4045
965	0.6662
974	0.6618
983	0.7181
992	0.6924
1001	0.6881
1010	0.6449
1019	0.5835
1028	0.399
1037	0.6192
1046	0.6723
1055	0.678
1064	0.6219
1073	0.647
1082	0.5687
1091	0.6187
1100	0.5283
1109	0.4531
1118	0.5386
1127	0.6697
1136	0.6601
1145	0.6116
1154	0.5761
1163	0.5692
1172	0.396
1181	0.5336
1190	0.5949
1199	0.6101
1208	0.6285
1217	0.6104
1226	0.5352
1235	0.3982
1244	0.1678
1253	0.4546
1262	0.5887
1271	0.5752
1280	0.5005
1289	0.3808
1298	0.4877
1307	0.5462
1316	0.4497
1325	0.3903
1334	0.4852
1343	0.4862
1352	0.3406
1361	0.4377
1370	0.2931
1379	0.2686
1388	0.1415
1397	0.3152
1406	0.5389
1415	0.5644
1424	0.4442
1433	0.3554
1442	0.3215
1451	0.2532
1460	0.1884
1469	0.3088
1478	0.5972
1487	0.6035
1496	0.5801
1505	0.4056
1514	0.3448
1523	0.6783
1532	0.704
1541	0.7038
1550	0.6954
1559	0.6881
1568	0.6758
1577	0.6518
1586	0.6311
1595	0.6221
1604	0.5206
1613	0.4084
1622	0.6254
1631	0.6315
1640	0.6192
1649	0.6036
1658	0.5829
1667	0.555
1676	0.5303
1685	0.4923
1694	0.4081
1703	0.2798
1712	0.131
1721	0.0995
1730	0.2271
1739	0.4155
1748	0.5798
1757	0.5715
1766	0.4384
1775	0.379
1784	0.6752
1793	0.7372
1802	0.7413
1811	0.7451
1820	0.7492
1829	0.7526
1838	0.7557
1847	0.7545
1856	0.7472
1865	0.7368
1874	0.7343
1883	0.7398
1892	0.7437
1901	0.7412
1910	0.7388
1919	0.7374
1928	0.7371
1937	0.7377
1946	0.7364
1955	0.7299
1964	0.7329
1973	0.7341
1982	0.7293
1991	0.7276
2000	0.7293
2009	0.7321
2018	0.7306
2027	0.7262
2036	0.723
2045	0.7209
2054	0.72
2063	0.7199
2072	0.7197
2081	0.7192
2090	0.7178
2099	0.7163
2108	0.7148
2117	0.7133
2126	0.7121
2135	0.711
2144	0.71
2153	0.7089
2162	0.7079
2171	0.7066
2180	0.7049
2189	0.7032
2198	0.7015
2207	0.6998
2216	0.6981
2225	0.6965
2234	0.6947
2243	0.6925
2252	0.6904
2261	0.6883
2270	0.6861
2279	0.6837
2288	0.6811
2297	0.6786
2306	0.676
2315	0.6738
2324	0.672
2333	0.6726
2342	0.6736
2351	0.6756
2360	0.6772
2369	0.6787
2378	0.6784
2387	0.6772
2396	0.6743
2405	0.6713
2414	0.6677
2423	0.6652
2432	0.6632
2441	0.6612
2450	0.6595
2459	0.6576
2468	0.6559
2477	0.6544
2486	0.653
2495	0.6523
2504	0.6516
2513	0.6517
2522	0.6519
2531	0.6516
2540	0.6503
2549	0.6481
2558	0.6456
2567	0.643
2576	0.6399
2585	0.6362
2594	0.6326
2603	0.6287
2612	0.6247
2621	0.6213
2630	0.6186
2639	0.616
2648	0.614
2657	0.6122
2666	0.6107
2675	0.6098
2684	0.609
2693	0.6088
2702	0.6093
2711	0.61
2720	0.6109
2729	0.6118
2738	0.612
2747	0.611
2756	0.6089
2765	0.6032
2774	0.5946
2783	0.5813
2792	0.5604
2801	0.541
2810	0.5165
2819	0.4509
2828	0.3378
2837	0.236
2846	0.1359
2855	0.0971
2864	0.0966
2873	0.0957
2882	0.0911
2891	0.0678
2900	0.0537
2909	0.0503
2918	0.0502
2927	0.0516
2936	0.0537
2945	0.0569
2954	0.0619
2963	0.0701
2972	0.1147
2981	0.1762
2990	0.2374
2999	0.2983
3008	0.3587
3017	0.4158
3026	0.4426
3035	0.4568
3044	0.4674
3053	0.476
3062	0.4825
3071	0.4891
3080	0.4953
3089	0.5012
3098	0.5069
3107	0.5115
3116	0.5151
3125	0.5169
3134	0.5184
3143	0.519
3152	0.5193
3161	0.5198
3170	0.5201
3179	0.5201
3188	0.5201
3197	0.5202
3206	0.5201
3215	0.5201
3224	0.52
3233	0.52
3242	0.52
3251	0.5196
3260	0.5193
3269	0.519
3278	0.5186
3287	0.5183
3296	0.518
3305	0.5172
3314	0.5163
3323	0.5155
3332	0.5143
3341	0.5125
3350	0.5106
3359	0.5088
3368	0.5071
3377	0.5059
3386	0.5046
3395	0.5033
3404	0.5023
3413	0.5021
3422	0.5018
3431	0.5025
3440	0.5042
3449	0.5059
3458	0.5078
3467	0.5092
3476	0.5098
3485	0.5104
3494	0.511
3503	0.5116
3512	0.5122
3521	0.5124
3530	0.5123
3539	0.5122
3548	0.5122
3557	0.5121
3566	0.5115
3575	0.5109
3584	0.5102
3593	0.5096
3602	0.5089
3611	0.5083
3620	0.5075
3629	0.5068
3638	0.5061
3647	0.5054
3656	0.5046
3665	0.5037
3674	0.5029
3683	0.502
3692	0.5011
3701	0.4995
3710	0.4978
3719	0.4961
3728	0.4939
3737	0.4911
3746	0.4884
3755	0.4858
3764	0.4835
3773	0.4812
3782	0.4788
3791	0.4771
3800	0.4758
3809	0.4744
3818	0.4731
3827	0.4725
3836	0.4721
3845	0.4717
3854	0.4713
3863	0.4708
3872	0.4702
3881	0.4698
3890	0.4693
3899	0.4689
3908	0.4685
3917	0.468
3926	0.4676
3935	0.4673
3944	0.467
3953	0.4667
3962	0.4664
3971	0.4662
3980	0.4659
3989	0.4656
3998	0.4653
