Infrared Spectrum: BENZOPHENONE, 4-PHENYL-
Formula: C19 H14 O
CAS: 2128-93-0
State: SOLUTION (5% CCl4 FOR 3800-1330, 5% CS2 FOR 1330-400 CM^-^1)
Class: COBLENTZ III
Instrument: BECKMAN IR-9 (GRATING)
Instrument parameters: ORDER CHANGES: 670, 1200, 2000 CM^-^1
Sampling: TRANSMISSION
Path length: 0.011 CM, 0.011 CM
Resolution: 2
Origin: DOW CHEMICAL COMPANY
1/CM	TRANSMITTANCE
401.179	0.269
410.022	0.227
418.865	0.446
427.708	0.576
436.551	0.671
445.394	0.719
454.237	0.754
463.08	0.779
471.924	0.812
480.767	0.834
489.61	0.828
498.453	0.855
507.296	0.902
516.139	0.929
524.982	0.948
533.825	0.936
542.668	0.9
551.511	0.968
560.354	0.98
569.197	0.981
578.04	0.958
586.883	0.981
595.726	0.983
604.569	0.983
613.413	0.983
622.256	0.968
631.099	0.552
639.942	0.79
648.785	0.901
657.628	0.884
666.471	0.909
675.314	0.857
684.157	0.578
693	0.213
701.843	0.0411
710.686	0.6081
719.529	0.801
728.372	0.6849
737.215	0.1759
746.059	0.762
754.902	0.83
763.745	0.496
772.588	0.757
781.431	0.915
790.274	0.926
799.117	0.755
807.96	0.923
816.803	0.934
825.646	0.943
834.489	0.927
843.332	0.796
852.175	0.409
861.018	0.656
869.861	0.782
878.704	0.833
887.548	0.875
896.391	0.916
905.234	0.923
914.077	0.7779
922.92	0.502
931.763	0.732
940.606	0.4044
949.449	0.887
958.292	0.92
967.135	0.902
975.978	0.891
984.821	0.943
993.664	0.934
1002.51	0.778
1011.35	0.6872
1020.19	0.947
1029.04	0.9149
1037.88	0.936
1046.72	0.95
1055.57	0.958
1064.41	0.954
1073.25	0.866
1082.09	0.902
1090.94	0.938
1099.78	0.945
1108.62	0.926
1117.47	0.9
1126.31	0.925
1135.15	0.933
1144	0.905
1152.84	0.743
1161.68	0.85
1170.53	0.872
1179.37	0.572
1188.21	0.837
1197.05	0.825
1205.9	0.894
1214.74	0.932
1223.58	0.937
1232.43	0.927
1241.27	0.89
1250.11	0.743
1258.96	0.723
1267.8	0.5129
1276.64	0.2659
1285.49	0.2301
1294.33	0.407
1303.17	0.6761
1312.01	0.4877
1320.86	0.4572
1329.7	0.798
1338.54	0.882
1347.39	0.936
1356.23	0.959
1365.07	0.941
1373.92	0.919
1382.76	0.916
1391.6	0.919
1400.45	0.6308
1409.29	0.866
1418.13	0.95
1426.97	0.963
1435.82	0.962
1444.66	0.8186
1453.5	0.8731
1462.35	0.94
1471.19	0.937
1480.03	0.898
1488.88	0.6871
1497.72	0.848
1506.56	0.794
1515.41	0.722
1524.25	0.674
1533.09	0.622
1541.93	0.511
1550.78	0.46
1559.62	0.459
1568.46	0.576
1577.31	0.6
1586.15	0.601
1594.99	0.5178
1603.84	0.281
1612.68	0.6222
1621.52	0.803
1630.36	0.841
1639.21	0.834
1648.05	0.6509
1656.89	0.2127
1665.74	0.0611
1674.58	0.5632
1683.42	0.811
1692.27	0.89
1701.11	0.918
1709.95	0.944
1718.8	0.963
1727.64	0.966
1736.48	0.969
1745.32	0.973
1754.17	0.969
1763.01	0.973
1771.85	0.976
1780.7	0.976
1789.54	0.979
1798.38	0.979
1807.23	0.955
1816.07	0.954
1824.91	0.957
1833.76	0.97
1842.6	0.981
1851.44	0.986
1860.28	0.984
1869.13	0.991
1877.97	0.976
1886.81	0.976
1895.66	0.976
1904.5	0.977
1913.34	0.975
1922.19	0.979
1931.03	0.963
1939.87	0.975
1948.72	0.959
1957.56	0.966
1966.4	0.959
1975.24	0.976
1984.09	0.986
1992.93	0.997
2001.77	0.993
2010.62	0.997
2019.46	1.004
2028.3	1.008
2037.15	1.008
2045.99	1.009
2054.83	1.009
2063.68	1.011
2072.52	1.011
2081.36	1.012
2090.2	1.0149
2099.05	1.016
2107.89	1.018
2116.73	1.019
2125.58	1.019
2134.42	1.018
2143.26	1.018
2152.11	1.018
2160.95	1.018
2169.79	1.018
2178.63	1.018
2187.48	1.018
2196.32	1.018
2205.16	1.018
2214.01	1.018
2222.85	1.018
2231.69	1.0189
2240.54	1.02
2249.38	1.0181
2258.22	1.0111
2267.07	1.0081
2275.91	1.0022
2284.75	0.9952
2293.59	0.9901
2302.44	0.986
2311.28	0.9869
2320.12	0.99
2328.97	0.994
2337.81	1.0019
2346.65	1.0089
2355.5	1.0119
2364.34	1.0177
2373.18	1.023
2382.03	1.024
2390.87	1.024
2399.71	1.022
2408.55	1.018
2417.4	1.0134
2426.24	1.011
2435.08	1.0082
2443.93	1.011
2452.77	1.0128
2461.61	1.015
2470.46	1.015
2479.3	1.016
2488.14	1.018
2496.99	1.018
2505.83	1.018
2514.67	1.016
2523.51	1.015
2532.36	1.0122
2541.2	1.012
2550.04	1.011
2558.89	1.011
2567.73	1.011
2576.57	1.009
2585.42	1.009
2594.26	1.008
2603.1	1.008
2611.95	1.008
2620.79	1.008
2629.63	1.009
2638.47	1.009
2647.32	1.0105
2656.16	1.011
2665	1.012
2673.85	1.013
2682.69	1.013
2691.53	1.013
2700.38	1.013
2709.22	1.0123
2718.06	1.012
2726.9	1.012
2735.75	1.012
2744.59	1.011
2753.43	1.008
2762.28	1.005
2771.12	1.004
2779.96	1.005
2788.81	1.006
2797.65	1.006
2806.49	1.006
2815.34	1.006
2824.18	1.006
2833.02	1.006
2841.86	1.006
2850.71	1.005
2859.55	1.002
2868.39	0.998
2877.24	0.9934
2886.08	0.9864
2894.92	0.981
2903.77	0.983
2912.61	0.984
2921.45	0.984
2930.3	0.984
2939.14	0.984
2947.98	0.984
2956.82	0.986
2965.67	0.986
2974.51	0.986
2983.35	0.9848
2992.2	0.983
3001.04	0.979
3009.88	0.9638
3018.73	0.958
3027.57	0.9035
3036.41	0.7241
3045.26	0.86
3054.1	0.851
3062.94	0.7642
3071.78	0.7662
3080.63	0.8214
3089.47	0.8016
3098.31	0.8916
3107.16	0.9188
3116	0.9561
3124.84	0.9641
3133.69	0.9706
3142.53	0.9776
3151.37	0.984
3160.22	0.982
3169.06	0.9835
3177.9	0.986
3186.74	0.986
3195.59	0.986
3204.43	0.984
3213.27	0.984
3222.12	0.986
3230.96	0.986
3239.8	0.986
3248.65	0.986
3257.49	0.984
3266.33	0.984
3275.17	0.984
3284.02	0.984
3292.86	0.9795
3301.7	0.9685
3310.55	0.9641
3319.39	0.963
3328.23	0.9685
3337.08	0.9739
3345.92	0.977
3354.76	0.9794
3363.61	0.98
3372.45	0.98
3381.29	0.9781
3390.13	0.977
3398.98	0.9766
3407.82	0.976
3416.66	0.976
3425.51	0.976
3434.35	0.976
3443.19	0.977
3452.04	0.977
3460.88	0.977
3469.72	0.977
3478.57	0.977
3487.41	0.977
3496.25	0.9782
3505.09	0.977
3513.94	0.977
3522.78	0.979
3531.62	0.979
3540.47	0.979
3549.31	0.979
3558.15	0.9804
3567	0.983
3575.84	0.983
3584.68	0.981
3593.53	0.98
3602.37	0.9833
3611.21	0.986
3620.05	0.986
3628.9	0.984
3637.74	0.986
3646.58	0.9854
3655.43	0.983
3664.27	0.983
3673.11	0.983
3681.96	0.983
3690.8	0.9824
3699.64	0.98
3708.49	0.9803
3717.33	0.983
3726.17	0.9833
3735.01	0.986
3743.86	0.986
3752.7	0.986
3761.54	0.983
3770.39	0.983
3779.23	0.983
3788.07	0.984
3796.92	0.984
