Infrared Spectrum: 4-DIMETHYLAMINOPHENYL ISOTHIOCYANATE
Formula: C9 H10 N2 S
CAS: 2131-64-8
State: SOLUTION (10% CCl4 FOR 5000-1330, 10% CS2 FOR 1330-625 CM^-^1)
Class: COBLENTZ
Instrument: Not specified, most likely a prism, grating, or hybrid spectrometer.
Sampling: TRANSMISSION
Path length: 0.0116 CM, 0.0116 CM
Resolution: 4
Origin: DOW CHEMICAL COMPANY
MICROMETERS	TRANSMITTANCE
2.027	0.892
2.06806	0.893
2.10911	0.886
2.15017	0.892
2.19122	0.888
2.23228	0.875
2.27333	0.871
2.31439	0.871
2.35544	0.875
2.3965	0.875
2.43755	0.876
2.47861	0.886
2.51967	0.897
2.56072	0.898
2.60178	0.898
2.64283	0.9
2.68389	0.897
2.72494	0.9
2.766	0.895
2.80705	0.897
2.84811	0.898
2.88916	0.895
2.93022	0.898
2.97128	0.902
3.01233	0.902
3.05339	0.89
3.09444	0.876
3.1355	0.88
3.17655	0.849
3.21761	0.799
3.25866	0.753
3.29972	0.702
3.34077	0.577
3.38183	0.493
3.42289	0.4
3.46394	0.419
3.505	0.489
3.54605	0.472
3.58711	0.587
3.62816	0.804
3.66922	0.797
3.71027	0.811
3.75133	0.833
3.79238	0.839
3.83344	0.835
3.8745	0.84
3.91555	0.842
3.95661	0.849
3.99766	0.869
4.03872	0.869
4.07977	0.859
4.12083	0.871
4.16188	0.875
4.20294	0.875
4.24399	0.871
4.28505	0.869
4.32611	0.859
4.36716	0.804
4.40822	0.785
4.44927	0.755
4.49033	0.606
4.53138	0.386
4.57244	0.15
4.61349	0.109
4.65455	0.066
4.6956	0.029
4.73666	0.027
4.77772	0.025
4.81877	0.027
4.85983	0.029
4.90088	0.041
4.94194	0.087
4.98299	0.222
5.02405	0.491
5.0651	0.647
5.10616	0.75
5.14721	0.78
5.18827	0.835
5.22933	0.856
5.27038	0.854
5.31144	0.818
5.35249	0.755
5.39355	0.835
5.4346	0.878
5.47566	0.883
5.51671	0.888
5.55777	0.886
5.59882	0.888
5.63988	0.875
5.68094	0.88
5.72199	0.876
5.76305	0.871
5.8041	0.875
5.84516	0.871
5.88621	0.861
5.92727	0.832
5.96832	0.82
6.00938	0.808
6.05043	0.77
6.09149	0.681
6.13255	0.532
6.1736	0.261
6.21466	0.042
6.25571	0.292
6.29677	0.419
6.33782	0.404
6.37888	0.342
6.41993	0.26
6.46099	0.238
6.50204	0.167
6.5431	0.071
6.58416	0.032
6.62521	0.097
6.66627	0.352
6.70732	0.416
6.74838	0.41
6.78943	0.547
6.83049	0.515
6.87154	0.33
6.9126	0.297
6.95365	0.565
6.99471	0.671
7.03577	0.7
7.07682	0.729
7.11788	0.75
7.15893	0.708
7.19999	0.597
7.24104	0.457
7.2821	0.212
7.32315	0.053
7.36421	0.042
7.40526	0.145
7.44632	0.342
7.48738	0.515
7.52843	0.58
7.56949	0.621
7.61054	0.662
7.6516	0.684
7.69265	0.705
7.73371	0.72
7.77476	0.731
7.81582	0.736
7.85687	0.727
7.89793	0.71
7.93899	0.683
7.98004	0.652
8.0211	0.577
8.06215	0.465
8.10321	0.342
8.14426	0.316
8.18532	0.426
8.22637	0.58
8.26743	0.648
8.30848	0.669
8.34954	0.648
8.39059	0.546
8.43165	0.261
8.47271	0.085
8.51376	0.178
8.55482	0.183
8.59587	0.34
8.63693	0.496
8.67798	0.558
8.71904	0.578
8.76009	0.58
8.80115	0.559
8.8422	0.53
8.88326	0.53
8.92432	0.59
8.96537	0.648
9.00643	0.698
9.04748	0.732
9.08854	0.758
9.12959	0.77
9.17065	0.773
9.2117	0.773
9.25276	0.758
9.29381	0.724
9.33487	0.65
9.37593	0.532
9.41698	0.477
9.45804	0.609
9.49909	0.75
9.54015	0.799
9.5812	0.828
9.62226	0.839
9.66331	0.851
9.70437	0.861
9.74542	0.866
9.78648	0.868
9.82754	0.861
9.86859	0.828
9.90965	0.715
9.9507	0.785
9.99176	0.866
10.0328	0.878
10.0739	0.88
10.1149	0.883
10.156	0.878
10.197	0.878
10.2381	0.873
10.2791	0.869
10.3202	0.863
10.3613	0.847
10.4023	0.816
10.4434	0.773
10.4844	0.664
10.5255	0.522
10.5665	0.481
10.6076	0.549
10.6486	0.547
10.6897	0.481
10.7308	0.371
10.7718	0.246
10.8129	0.19
10.8539	0.273
10.895	0.46
10.936	0.595
10.9771	0.679
11.0181	0.731
11.0592	0.756
11.1003	0.77
11.1413	0.779
11.1824	0.78
11.2234	0.775
11.2645	0.763
11.3055	0.75
11.3466	0.739
11.3876	0.729
11.4287	0.717
11.4698	0.71
11.5108	0.705
11.5519	0.698
11.5929	0.691
11.634	0.678
11.675	0.672
11.7161	0.676
11.7571	0.69
11.7982	0.714
11.8393	0.732
11.8803	0.748
11.9214	0.748
11.9624	0.739
12.0035	0.72
12.0445	0.69
12.0856	0.642
12.1266	0.578
12.1677	0.474
12.2088	0.323
12.2498	0.145
12.2909	0.02
12.3319	0
12.373	0.056
12.414	0.25
12.4551	0.424
12.4961	0.544
12.5372	0.599
12.5783	0.64
12.6193	0.676
12.6604	0.702
12.7014	0.729
12.7425	0.75
12.7835	0.763
12.8246	0.773
12.8656	0.78
12.9067	0.784
12.9478	0.787
12.9888	0.784
13.0299	0.767
13.0709	0.748
13.112	0.702
13.153	0.623
13.1941	0.525
13.2351	0.417
13.2762	0.39
13.3172	0.498
13.3583	0.621
13.3994	0.707
13.4404	0.746
13.4815	0.763
13.5225	0.768
13.5636	0.775
13.6046	0.775
13.6457	0.77
13.6867	0.768
13.7278	0.763
13.7689	0.76
13.8099	0.756
13.851	0.755
13.892	0.75
13.9331	0.746
13.9741	0.738
14.0152	0.729
14.0562	0.717
14.0973	0.696
14.1384	0.676
14.1794	0.66
14.2205	0.659
14.2615	0.666
14.3026	0.671
14.3436	0.671
14.3847	0.671
14.4257	0.667
14.4668	0.659
14.5079	0.654
14.5489	0.645
14.59	0.638
14.631	0.63
14.6721	0.619
14.7131	0.609
14.7542	0.597
14.7952	0.587
14.8363	0.578
14.8774	0.57
14.9184	0.558
14.9595	0.554
15.0005	0.551
15.0416	0.539
15.0826	0.529
15.1237	0.518
15.1647	0.505
15.2058	0.489
15.2469	0.476
15.2879	0.462
15.329	0.448
15.37	0.44
15.4111	0.429
15.4521	0.422
15.4932	0.416
15.5342	0.41
15.5753	0.407
15.6164	0.405
15.6574	0.402
15.6985	0.402
15.7395	0.397
15.7806	0.395
15.8216	0.388
15.8627	0.385
