Infrared Spectrum: Acetophenone, 2',3',5',6'-tetramethyl-
Formula: C12 H16 O
CAS: 2142-79-2
State: SOLUTION (10% CCl4 FOR 3800-1330, 10% CS2 FOR 1330-460 CM^-^1)
Class: COBLENTZ III
Instrument: DOW KBr FOREPRISM-GRATING
Instrument parameters: BLAZED AT 3.5, 12.0, 20.0 MICRON AND CHANGED AT 5.0, 7.5, 14.9 MICRON
Sampling: TRANSMISSION
Path length: 0.011 CM, 0.011 CM
Resolution: 2
Origin: DOW CHEMICAL COMPANY
1/CM	TRANSMITTANCE
3800	0.9182
3791	0.9193
3782	0.917
3773	0.9186
3764	0.918
3755	0.917
3746	0.9165
3737	0.9205
3728	0.9304
3719	0.9253
3710	0.9225
3701	0.9212
3692	0.9179
3683	0.9139
3674	0.9125
3665	0.9128
3656	0.9231
3647	0.9204
3638	0.9159
3629	0.9173
3620	0.9171
3611	0.9155
3602	0.9128
3593	0.9118
3584	0.9096
3575	0.9063
3566	0.9044
3557	0.9031
3548	0.9028
3539	0.9
3530	0.8985
3521	0.8954
3512	0.894
3503	0.8925
3494	0.8912
3485	0.8899
3476	0.8888
3467	0.8876
3458	0.8865
3449	0.886
3440	0.8854
3431	0.8841
3422	0.8829
3413	0.8809
3404	0.8767
3395	0.8647
3386	0.846
3377	0.8338
3368	0.8422
3359	0.8587
3350	0.8722
3341	0.8812
3332	0.8835
3323	0.8844
3314	0.8851
3305	0.887
3296	0.8858
3287	0.8859
3278	0.8869
3269	0.8872
3260	0.887
3251	0.8861
3242	0.8854
3233	0.8841
3224	0.8825
3215	0.8813
3206	0.8785
3197	0.8782
3188	0.8762
3179	0.8719
3170	0.8683
3161	0.8656
3152	0.8632
3143	0.8584
3134	0.8568
3125	0.8541
3116	0.8518
3107	0.8502
3098	0.8495
3089	0.8409
3080	0.8247
3071	0.809
3062	0.792
3053	0.7822
3044	0.7724
3035	0.7555
3026	0.7162
3017	0.6378
3008	0.5729
2999	0.441
2990	0.4455
2981	0.4343
2972	0.3483
2963	0.3474
2954	0.3905
2945	0.3167
2936	0.2663
2927	0.2832
2918	0.2762
2909	0.339
2900	0.4529
2891	0.478
2882	0.4894
2873	0.4981
2864	0.4398
2855	0.5592
2846	0.7077
2837	0.7561
2828	0.7885
2819	0.8183
2810	0.8474
2801	0.8757
2792	0.8947
2783	0.9063
2774	0.9092
2765	0.9009
2756	0.8862
2747	0.904
2738	0.8614
2729	0.8481
2720	0.8999
2711	0.9205
2702	0.9285
2693	0.9335
2684	0.9365
2675	0.938
2666	0.9391
2657	0.9418
2648	0.9424
2639	0.9427
2630	0.9445
2621	0.9475
2612	0.9489
2603	0.95
2594	0.9513
2585	0.9529
2576	0.9547
2567	0.9563
2558	0.9576
2549	0.9589
2540	0.9604
2531	0.9617
2522	0.9627
2513	0.9631
2504	0.9628
2495	0.9623
2486	0.9588
2477	0.9541
2468	0.9546
2459	0.955
2450	0.9534
2441	0.955
2432	0.9555
2423	0.9565
2414	0.9593
2405	0.9639
2396	0.9602
2387	0.9617
2378	0.969
2369	0.9734
2360	0.9758
2351	0.9803
2342	0.9805
2333	0.9807
2324	0.986
2315	0.9814
2306	0.9759
2297	0.9756
2288	0.9749
2279	0.9742
2270	0.971
2261	0.9701
2252	0.9705
2243	0.9698
2234	0.9704
2225	0.9714
2216	0.9689
2207	0.966
2198	0.9635
2189	0.9652
2180	0.9684
2171	0.9715
2162	0.9688
2153	0.9679
2144	0.9672
2135	0.9661
2126	0.9608
2117	0.9591
2108	0.9621
2099	0.9611
2090	0.9597
2081	0.9587
2072	0.9583
2063	0.9578
2054	0.9591
2045	0.957
2036	0.9576
2027	0.9593
2018	0.9599
2009	0.9593
2000	0.9576
1991	0.9347
1982	0.9307
1973	0.9283
1964	0.9281
1955	0.9398
1946	0.9302
1937	0.9306
1928	0.9324
1919	0.9278
1910	0.9201
1901	0.9205
1892	0.9208
1883	0.92
1874	0.9222
1865	0.9218
1856	0.9238
1847	0.925
1838	0.9265
1829	0.9265
1820	0.9231
1811	0.914
1802	0.9003
1793	0.8974
1784	0.8921
1775	0.8856
1766	0.8708
1757	0.8535
1748	0.8302
1739	0.7761
1730	0.5401
1721	0.4238
1712	0.3029
1703	0.0078
1694	0.0176
1685	0.2975
1676	0.6548
1667	0.7216
1658	0.7452
1649	0.8166
1640	0.838
1631	0.8484
1622	0.853
1613	0.8556
1604	0.7762
1595	0.829
1586	0.8322
1577	0.8204
1568	0.8094
1559	0.8225
1550	0.8304
1541	0.7732
1532	0.784
1523	0.7883
1514	0.79
1505	0.7834
1496	0.7602
1487	0.7291
1478	0.625
1469	0.2046
1460	0.3539
1451	0.4206
1442	0.4207
1433	0.518
1424	0.4122
1415	0.3712
1406	0.5665
1397	0.5151
1388	0.5291
1379	0.3971
1370	0.4468
1361	0.5545
1352	0.2061
1343	0.5268
1334	0.6828
1325	0.7418
1316	0.7537
1307	0.4126
1298	0.5823
1289	0.7653
1280	0.8115
1271	0.8353
1262	0.8466
1253	0.8169
1244	0.5505
1235	0.3936
1226	0.6962
1217	0.8591
1208	0.8886
1199	0.8849
1190	0.84
1181	0.7789
1172	0.8012
1163	0.4013
1154	0.2251
1145	0.7155
1136	0.8275
1127	0.8517
1118	0.8665
1109	0.8853
1100	0.8917
1091	0.8926
1082	0.8844
1073	0.8568
1064	0.8777
1055	0.8765
1046	0.8619
1037	0.8144
1028	0.7477
1019	0.5189
1010	0.6659
1001	0.7148
992	0.5578
983	0.7553
974	0.8
965	0.6738
956	0.6091
947	0.8209
938	0.8793
929	0.8931
920	0.893
911	0.9012
902	0.9021
893	0.8941
884	0.8637
875	0.7291
866	0.6687
857	0.8613
848	0.8432
839	0.8814
830	0.9082
821	0.9132
812	0.9127
803	0.9195
794	0.9214
785	0.925
776	0.9214
767	0.92
758	0.9177
749	0.9142
740	0.8952
731	0.9149
722	0.9147
713	0.9128
704	0.9125
695	0.9183
686	0.9169
677	0.8182
668	0.8937
659	0.8743
650	0.8471
641	0.8528
632	0.8273
623	0.5503
614	0.7835
605	0.8401
596	0.8481
587	0.8405
578	0.7963
569	0.5803
560	0.792
551	0.8186
542	0.8251
533	0.8299
524	0.8247
515	0.7667
506	0.7099
497	0.785
488	0.8068
479	0.8027
470	0.797
461	0.7912
