Infrared Spectrum: BENZENE, 1,4-DICHLORO-2,5-BIS(TRICHLOROMETHYL)-
Formula: C8 H2 Cl8
CAS: 2142-29-2
State: SOLUTION (10% IN CCl4 FOR 3800-1333 AND 10% IN CS2 FOR 1333-400 CM^-^1)
Class: COBLENTZ III
Instrument: DOW KBr FOREPRISM-GRATING
Instrument parameters: BLAZED AT 3.5, 12.0, 20.0 MICRON, CHANGED AT 5.0, 7.5, 14.9 MICRON
Sampling: TRANSMISSION
Path length: 0.011, 0.010CM
Resolution: 4
Origin: DOW CHEMICAL COMPANY
1/CM	TRANSMITTANCE
401.74	0.279
410.44	0.519
419.141	0.765
427.841	0.855
436.542	0.882
445.242	0.858
453.942	0.923
462.643	0.979
471.343	1.004
480.044	1.016
488.744	1.027
497.445	1.029
506.145	1.035
514.845	1.032
523.546	1.034
532.246	1.034
540.947	1.04
549.647	1.04
558.347	1.039
567.048	1.038
575.748	1.027
584.449	0.976
593.149	0.309
601.849	1.008
610.55	1.035
619.25	1.014
627.951	0.6149
636.651	1.019
645.351	1.017
654.052	1.008
662.752	1.029
671.453	1.051
680.153	1.051
688.854	1.043
697.554	1.028
706.254	1.043
714.955	1.049
723.655	1.036
732.356	1.004
741.056	1.012
749.756	1.012
758.457	0.956
767.157	0.874
775.858	0.2918
784.558	0.128
793.258	0.3629
801.959	0.273
810.659	0.937
819.36	0.983
828.06	0.959
836.761	1.001
845.461	0.934
854.161	0.824
862.862	0.3618
871.562	0.799
880.263	0.897
888.963	0.95
897.663	0.979
906.364	1.014
915.064	1.027
923.765	1.036
932.465	1.042
941.165	1.038
949.866	1.042
958.566	1.047
967.267	1.039
975.967	1.042
984.667	1.038
993.368	1.032
1002.07	1.034
1010.77	1.036
1019.47	1.031
1028.17	1.027
1036.87	1.035
1045.57	1.038
1054.27	1.039
1062.97	1.035
1071.67	1.025
1080.37	0.991
1089.07	0.8579
1097.77	0.4292
1106.47	1.031
1115.17	1.032
1123.87	1.036
1132.57	1.036
1141.27	1.031
1149.98	0.985
1158.68	1.029
1167.38	1.038
1176.08	1.002
1184.78	0.888
1193.48	0.359
1202.18	1.006
1210.88	1.013
1219.58	1.02
1228.28	1.023
1236.98	1.019
1245.68	1.016
1254.38	1.002
1263.08	0.979
1271.78	1.01
1280.48	1.014
1289.18	1.017
1297.88	1.019
1306.58	1.008
1315.28	0.986
1323.98	0.8439
1332.68	0.553
1341.38	0.754
1350.08	0.551
1358.79	0.978
1367.49	1.006
1376.19	1.009
1384.89	1.005
1393.59	0.994
1402.29	0.991
1410.99	0.99
1419.69	0.986
1428.39	0.971
1437.09	0.967
1445.79	0.963
1454.49	0.935
1463.19	0.7489
1471.89	0.644
1480.59	0.933
1489.29	0.934
1497.99	0.901
1506.69	0.855
1515.39	0.794
1524.09	0.724
1532.79	0.679
1541.49	0.596
1550.19	0.501
1558.89	0.504
1567.59	0.584
1576.3	0.662
1585	0.685
1593.7	0.726
1602.4	0.831
1611.1	0.897
1619.8	0.94
1628.5	0.965
1637.2	0.979
1645.9	0.982
1654.6	0.987
1663.3	0.991
1672	0.99
1680.7	0.995
1689.4	0.995
1698.1	0.994
1706.8	0.994
1715.5	0.994
1724.2	0.993
1732.9	0.991
1741.6	0.993
1750.3	0.994
1759	0.995
1767.7	0.991
1776.4	0.985
1785.11	0.972
1793.81	0.986
1802.51	0.99
1811.21	0.989
1819.91	0.986
1828.61	0.986
1837.31	0.98
1846.01	0.98
1854.71	0.979
1863.41	0.98
1872.11	0.985
1880.81	0.983
1889.51	0.986
1898.21	0.985
1906.91	0.983
1915.61	0.985
1924.31	0.985
1933.01	0.985
1941.71	0.985
1950.41	0.983
1959.11	0.982
1967.81	0.979
1976.51	0.976
1985.21	0.976
1993.92	0.97
2002.62	0.967
2011.32	0.967
2020.02	0.965
2028.72	0.965
2037.42	0.964
2046.12	0.963
2054.82	0.962
2063.52	0.963
2072.22	0.9645
2080.92	0.967
2089.62	0.965
2098.32	0.967
2107.02	0.967
2115.72	0.967
2124.42	0.968
2133.12	0.965
2141.82	0.963
2150.52	0.963
2159.22	0.963
2167.92	0.964
2176.62	0.964
2185.32	0.964
2194.02	0.963
2202.72	0.963
2211.43	0.963
2220.13	0.963
2228.83	0.9596
2237.53	0.957
2246.23	0.957
2254.93	0.9566
2263.63	0.956
2272.33	0.956
2281.03	0.9416
2289.73	0.935
2298.43	0.937
2307.13	0.9416
2315.83	0.9501
2324.53	0.9771
2333.23	0.9922
2341.93	0.9838
2350.63	0.9786
2359.33	0.9716
2368.03	0.967
2376.73	0.9636
2385.43	0.957
2394.13	0.9578
2402.83	0.9596
2411.53	0.959
2420.24	0.959
2428.94	0.959
2437.64	0.959
2446.34	0.96
2455.04	0.96
2463.74	0.9604
2472.44	0.963
2481.14	0.964
2489.84	0.9634
2498.54	0.9618
2507.24	0.961
2515.94	0.961
2524.64	0.963
2533.34	0.963
2542.04	0.9623
2550.74	0.961
2559.44	0.961
2568.14	0.9634
2576.84	0.9634
2585.54	0.9636
2594.24	0.964
2602.94	0.964
2611.64	0.9623
2620.34	0.961
2629.04	0.961
2637.75	0.961
2646.45	0.961
2655.15	0.961
2663.85	0.9617
2672.55	0.964
2681.25	0.9657
2689.95	0.967
2698.65	0.965
2707.35	0.965
2716.05	0.9647
2724.75	0.964
2733.45	0.964
2742.15	0.9647
2750.85	0.9637
2759.55	0.963
2768.25	0.963
2776.95	0.964
2785.65	0.965
2794.35	0.965
2803.05	0.964
2811.75	0.963
2820.45	0.963
2829.15	0.961
2837.85	0.957
2846.56	0.957
2855.26	0.959
2863.96	0.961
2872.66	0.961
2881.36	0.96
2890.06	0.96
2898.76	0.959
2907.46	0.956
2916.16	0.952
2924.86	0.9553
2933.56	0.957
2942.26	0.9603
2950.96	0.964
2959.66	0.965
2968.36	0.968
2977.06	0.968
2985.76	0.97
2994.46	0.97
3003.16	0.9707
3011.86	0.97
3020.56	0.9678
3029.26	0.9585
3037.96	0.9595
3046.66	0.9685
3055.37	0.971
3064.07	0.971
3072.77	0.971
3081.47	0.9708
3090.17	0.968
3098.87	0.9631
3107.57	0.9458
3116.27	0.908
3124.97	0.9559
3133.67	0.9742
3142.37	0.978
3151.07	0.976
3159.77	0.976
3168.47	0.976
3177.17	0.975
3185.87	0.975
3194.57	0.9764
3203.27	0.978
3211.97	0.975
3220.67	0.974
3229.37	0.974
3238.07	0.974
3246.77	0.974
3255.47	0.972
3264.17	0.9718
3272.88	0.971
3281.58	0.9712
3290.28	0.971
3298.98	0.971
3307.68	0.971
3316.38	0.97
3325.08	0.971
3333.78	0.972
3342.48	0.971
3351.18	0.971
3359.88	0.971
3368.58	0.971
3377.28	0.972
3385.98	0.972
3394.68	0.972
3403.38	0.974
3412.08	0.974
3420.78	0.974
3429.48	0.974
3438.18	0.972
3446.88	0.9723
3455.58	0.975
3464.28	0.9763
3472.98	0.978
3481.69	0.976
3490.39	0.978
3499.09	0.9791
3507.79	0.98
3516.49	0.9803
3525.19	0.982
3533.89	0.98
3542.59	0.98
3551.29	0.9821
3559.99	0.985
3568.69	0.9851
3577.39	0.986
3586.09	0.987
3594.79	0.989
3603.49	0.989
3612.19	0.99
3620.89	0.993
3629.59	0.9901
3638.29	0.9912
3646.99	0.994
3655.69	0.995
3664.39	0.995
3673.09	0.995
3681.79	0.995
3690.5	0.997
3699.2	0.998
3707.9	0.998
3716.6	0.997
3725.3	0.997
3734	1.0011
3742.7	1.001
3751.4	1.0009
3760.1	1
3768.8	1
3777.5	1
3786.2	1.001
3794.9	1.0009
