Infrared Spectrum: Dibutyl itaconate
Formula: C13 H22 O4
CAS: 2155-60-4
State: SOLUTION (10% CCl4 FOR 2.7-7.5, 10% CS2 FOR 7.5-26 MICRON) VS SOLVENT
Class: COBLENTZ III
Instrument: DOW KBr FOREPRISM-GRATING
Instrument parameters: BLAZED AT 3.5, 12.0, 20.0 MICRON AND CHANGED AT 5.0, 7.5, 14.9 MICRON
Sampling: TRANSMISSION
Path length: 0.011 CM, 0.011 CM
Resolution: 2
Origin: DOW CHEMICAL COMPANY
1/CM	TRANSMITTANCE
3792	0.8628
3783	0.8625
3774	0.8624
3765	0.8621
3756	0.8621
3747	0.8621
3738	0.862
3729	0.8618
3720	0.8617
3711	0.8617
3702	0.8617
3693	0.8609
3684	0.8593
3675	0.8578
3666	0.859
3657	0.8616
3648	0.8647
3639	0.8642
3630	0.8638
3621	0.8636
3612	0.8635
3603	0.8637
3594	0.8644
3585	0.8645
3576	0.8645
3567	0.8639
3558	0.863
3549	0.8616
3540	0.8604
3531	0.8592
3522	0.8595
3513	0.8601
3504	0.8625
3495	0.8643
3486	0.8653
3477	0.8634
3468	0.8577
3459	0.8511
3450	0.8466
3441	0.846
3432	0.8467
3423	0.8475
3414	0.85
3405	0.8543
3396	0.861
3387	0.8668
3378	0.8671
3369	0.8674
3360	0.8675
3351	0.8673
3342	0.8671
3333	0.8668
3324	0.8666
3315	0.8664
3306	0.8662
3297	0.8663
3288	0.8664
3279	0.8665
3270	0.8667
3261	0.8668
3252	0.867
3243	0.8671
3234	0.8673
3225	0.8674
3216	0.8675
3207	0.8673
3198	0.8671
3189	0.8668
3180	0.8665
3171	0.8661
3162	0.8659
3153	0.8656
3144	0.8653
3135	0.865
3126	0.8632
3117	0.8573
3108	0.8501
3099	0.8435
3090	0.8475
3081	0.8492
3072	0.8461
3063	0.8423
3054	0.8373
3045	0.8288
3036	0.8128
3027	0.7851
3018	0.7578
3009	0.7242
3000	0.6892
2991	0.5016
2982	0.2934
2973	0.0887
2964	0.0314
2955	0.0916
2946	0.1768
2937	0.1241
2928	0.1876
2919	0.2975
2910	0.337
2901	0.3703
2892	0.4547
2883	0.2081
2874	0.2915
2865	0.4339
2856	0.5728
2847	0.6004
2838	0.6939
2829	0.7588
2820	0.7819
2811	0.7992
2802	0.8128
2793	0.8231
2784	0.8299
2775	0.8354
2766	0.839
2757	0.8413
2748	0.8418
2739	0.8387
2730	0.836
2721	0.8394
2712	0.8459
2703	0.8494
2694	0.85
2685	0.8505
2676	0.851
2667	0.8518
2658	0.853
2649	0.8559
2640	0.8573
2631	0.8578
2622	0.8584
2613	0.8592
2604	0.8601
2595	0.861
2586	0.8618
2577	0.8627
2568	0.8635
2559	0.8644
2550	0.8653
2541	0.8663
2532	0.8674
2523	0.8685
2514	0.8695
2505	0.8706
2496	0.8717
2487	0.8728
2478	0.8739
2469	0.8748
2460	0.8751
2451	0.8753
2442	0.8756
2433	0.8751
2424	0.8739
2415	0.8721
2406	0.8693
2397	0.8668
2388	0.8653
2379	0.8673
2370	0.87
2361	0.8706
2352	0.8712
2343	0.8705
2334	0.8686
2325	0.8661
2316	0.8656
2307	0.865
2298	0.8671
2289	0.8697
2280	0.8721
2271	0.8741
2262	0.8758
2253	0.8773
2244	0.8783
2235	0.8784
2226	0.8785
2217	0.8783
2208	0.8782
2199	0.8775
2190	0.8768
2181	0.8786
2172	0.8803
2163	0.8771
2154	0.8753
2145	0.8753
2136	0.8753
2127	0.8752
2118	0.875
2109	0.8747
2100	0.8745
2091	0.8739
2082	0.8734
2073	0.8725
2064	0.8716
2055	0.8707
2046	0.8705
2037	0.8703
2028	0.8704
2019	0.8705
2010	0.869
2001	0.8651
1992	0.8634
1983	0.8638
1974	0.8647
1965	0.8652
1956	0.8652
1947	0.865
1938	0.8642
1929	0.8615
1920	0.8568
1911	0.8496
1902	0.8389
1893	0.8333
1884	0.8362
1875	0.8445
1866	0.8482
1857	0.8491
1848	0.848
1839	0.8436
1830	0.8302
1821	0.8071
1812	0.7728
1803	0.7246
1794	0.6915
1785	0.6908
1776	0.6899
1767	0.5571
1758	0.382
1749	0.0879
1740	0.0091
1731	0.0027
1722	0.005
1713	0.0131
1704	0.2999
1695	0.5441
1686	0.6257
1677	0.6745
1668	0.7199
1659	0.7403
1650	0.6819
1641	0.4615
1632	0.568
1623	0.6994
1614	0.7601
1605	0.7961
1596	0.8194
1587	0.8309
1578	0.835
1569	0.8374
1560	0.8384
1551	0.8413
1542	0.8446
1533	0.8425
1524	0.837
1515	0.8298
1506	0.8197
1497	0.7975
1488	0.759
1479	0.4662
1470	0.2876
1461	0.3278
1452	0.4689
1443	0.6044
1434	0.5437
1425	0.395
1416	0.4594
1407	0.4595
1398	0.4229
1389	0.389
1380	0.4653
1371	0.5185
1362	0.4482
1353	0.3799
1344	0.2617
1335	0.21
1326	0.2308
1317	0.1238
1308	0.134
1299	0.1996
1290	0.2156
1281	0.2326
1272	0.2674
1263	0.22
1254	0.1681
1245	0.1629
1236	0.2011
1227	0.2544
1218	0.2561
1209	0.1413
1200	0.081
1191	0.0396
1182	0.0293
1173	0.0431
1164	0.0772
1155	0.07
1146	0.0498
1137	0.0517
1128	0.1787
1119	0.3259
1110	0.4621
1101	0.5478
1092	0.5721
1083	0.5746
1074	0.5475
1065	0.3834
1056	0.3975
1047	0.6175
1038	0.6298
1029	0.4591
1020	0.353
1011	0.4553
1002	0.476
993	0.5249
984	0.5876
975	0.5367
966	0.4546
957	0.4262
948	0.245
939	0.3834
930	0.5062
921	0.6488
912	0.7197
903	0.7337
894	0.7405
885	0.7378
876	0.7508
867	0.7606
858	0.7587
849	0.7399
840	0.6736
831	0.6991
822	0.6489
813	0.462
804	0.7081
795	0.7607
786	0.7636
777	0.7558
768	0.7475
759	0.7275
750	0.7175
741	0.705
732	0.6408
723	0.7406
714	0.7871
705	0.805
696	0.8151
687	0.8185
678	0.8186
669	0.7391
660	0.8001
651	0.7741
642	0.7688
633	0.7661
624	0.7664
615	0.7701
606	0.7749
597	0.7794
588	0.7775
579	0.7595
570	0.7558
561	0.754
552	0.754
543	0.7591
534	0.7646
525	0.7649
516	0.7651
507	0.7564
498	0.7648
489	0.7712
480	0.7748
471	0.775
462	0.7744
453	0.7732
444	0.7667
435	0.7611
426	0.7601
417	0.7598
408	0.7599
399	0.7615
