Infrared Spectrum: FULVENE, 6,6-DIMETHYL
Formula: C8 H10
CAS: 2175-91-9
Boiling point: 44 C AT 7 mmHg
Class: COBLENTZ
Instrument: Not specified, most likely a prism, grating, or hybrid spectrometer.
Sampling: TRANSMISSION
Path length: SMEAR
Resolution: 4
Origin: TENNESSEE EASTMAN COMPANY, RESEARCH LABORATORIES
MICROMETERS	TRANSMITTANCE
2.053	0.85
2.09302	0.85
2.13305	0.85
2.17307	0.852
2.2131	0.852
2.25312	0.852
2.29315	0.852
2.33317	0.852
2.3732	0.85
2.41322	0.852
2.45325	0.857
2.49327	0.857
2.5333	0.857
2.57332	0.858
2.61335	0.858
2.65337	0.863
2.6934	0.867
2.73342	0.868
2.77345	0.867
2.81347	0.867
2.8535	0.868
2.89352	0.87
2.93355	0.872
2.97357	0.872
3.0136	0.872
3.05362	0.87
3.09365	0.87
3.13367	0.87
3.1737	0.867
3.21372	0.792
3.25375	0.696
3.29377	0.808
3.3338	0.662
3.37382	0.772
3.41385	0.591
3.45387	0.77
3.4939	0.725
3.53392	0.83
3.57395	0.853
3.61397	0.865
3.654	0.865
3.69402	0.858
3.73405	0.873
3.77407	0.883
3.8141	0.882
3.85412	0.878
3.89415	0.883
3.93417	0.888
3.9742	0.888
4.01422	0.885
4.05425	0.887
4.09427	0.888
4.1343	0.89
4.17432	0.893
4.21435	0.897
4.25437	0.918
4.2944	0.916
4.33442	0.901
4.37445	0.89
4.41447	0.892
4.4545	0.9
4.49452	0.892
4.53455	0.892
4.57457	0.895
4.6146	0.898
4.65462	0.9
4.69465	0.901
4.73467	0.9
4.7747	0.9
4.81472	0.9
4.85475	0.901
4.89477	0.901
4.9348	0.901
4.97482	0.903
5.01485	0.903
5.05487	0.903
5.0949	0.903
5.13492	0.903
5.17495	0.903
5.21497	0.903
5.255	0.905
5.29502	0.903
5.33505	0.903
5.37507	0.903
5.4151	0.901
5.45512	0.9
5.49515	0.895
5.53517	0.878
5.5752	0.875
5.61522	0.9
5.65525	0.905
5.69527	0.91
5.7353	0.91
5.77532	0.898
5.81535	0.892
5.85537	0.88
5.8954	0.89
5.93542	0.887
5.97545	0.835
6.01547	0.686
6.0555	0.43
6.09552	0.26
6.13555	0.636
6.17557	0.682
6.2156	0.727
6.25562	0.808
6.29565	0.863
6.33567	0.88
6.3757	0.88
6.41572	0.882
6.45575	0.88
6.49577	0.872
6.5358	0.86
6.57582	0.85
6.61585	0.857
6.65587	0.852
6.6959	0.817
6.73592	0.749
6.77595	0.362
6.81597	0.496
6.856	0.571
6.89602	0.46
6.93605	0.483
6.97607	0.627
7.0161	0.692
7.05612	0.782
7.09615	0.818
7.13617	0.84
7.1762	0.827
7.21622	0.732
7.25625	0.5
7.29627	0.199
7.3363	0.299
7.37632	0.725
7.41635	0.808
7.45637	0.852
7.4964	0.852
7.53642	0.858
7.57645	0.868
7.61647	0.878
7.6565	0.897
7.69652	0.905
7.73655	0.908
7.77657	0.915
7.8166	0.916
7.85662	0.92
7.89665	0.92
7.93667	0.916
7.9767	0.855
8.01672	0.87
8.05675	0.908
8.09677	0.915
8.1368	0.916
8.17682	0.921
8.21685	0.921
8.25687	0.923
8.2969	0.92
8.33692	0.923
8.37695	0.925
8.41697	0.926
8.457	0.928
8.49702	0.926
8.53705	0.925
8.57707	0.923
8.6171	0.901
8.65712	0.82
8.69715	0.785
8.73717	0.875
8.7772	0.875
8.81722	0.877
8.85725	0.877
8.89727	0.873
8.9373	0.857
8.97732	0.852
9.01735	0.852
9.05737	0.852
9.0974	0.822
9.13742	0.722
9.17745	0.546
9.21747	0.691
9.2575	0.769
9.29752	0.803
9.33755	0.813
9.37757	0.82
9.4176	0.855
9.45762	0.863
9.49765	0.885
9.53767	0.887
9.5777	0.887
9.61772	0.887
9.65775	0.887
9.69777	0.888
9.7378	0.888
9.77782	0.888
9.81785	0.888
9.85787	0.89
9.8979	0.888
9.93792	0.873
9.97795	0.794
10.018	0.727
10.058	0.832
10.098	0.867
10.138	0.882
10.1781	0.89
10.2181	0.892
10.2581	0.898
10.2981	0.9
10.3382	0.9
10.3782	0.9
10.4182	0.898
10.4582	0.898
10.4983	0.898
10.5383	0.897
10.5783	0.895
10.6183	0.892
10.6584	0.89
10.6984	0.88
10.7384	0.873
10.7784	0.835
10.8185	0.779
10.8585	0.699
10.8985	0.769
10.9385	0.83
10.9786	0.857
11.0186	0.86
11.0586	0.86
11.0986	0.857
11.1387	0.85
11.1787	0.85
11.2187	0.855
11.2587	0.853
11.2988	0.847
11.3388	0.84
11.3788	0.82
11.4188	0.81
11.4589	0.81
11.4989	0.808
11.5389	0.802
11.5789	0.737
11.619	0.558
11.659	0.476
11.699	0.609
11.739	0.722
11.7791	0.782
11.8191	0.81
11.8591	0.827
11.8991	0.843
11.9392	0.85
11.9792	0.852
12.0192	0.858
12.0592	0.86
12.0993	0.863
12.1393	0.865
12.1793	0.867
12.2193	0.863
12.2594	0.857
12.2994	0.803
12.3394	0.749
12.3794	0.799
12.4195	0.84
12.4595	0.853
12.4995	0.855
12.5395	0.855
12.5796	0.857
12.6196	0.857
12.6596	0.857
12.6996	0.853
12.7397	0.84
12.7797	0.823
12.8197	0.79
12.8597	0.734
12.8998	0.596
12.9398	0.38
12.9798	0.181
13.0198	0.099
13.0599	0.089
13.0999	0.164
13.1399	0.373
13.1799	0.541
13.22	0.679
13.26	0.744
13.3	0.795
13.34	0.817
13.3801	0.835
13.4201	0.853
13.4601	0.86
13.5001	0.863
13.5402	0.86
13.5802	0.867
13.6202	0.87
13.6602	0.873
13.7003	0.877
13.7403	0.877
13.7803	0.882
13.8203	0.885
13.8604	0.888
13.9004	0.887
13.9404	0.888
13.9804	0.888
14.0205	0.888
14.0605	0.887
14.1005	0.888
14.1405	0.887
14.1806	0.885
14.2206	0.887
14.2606	0.89
14.3006	0.892
14.3407	0.895
14.3807	0.898
14.4207	0.905
14.4607	0.906
14.5008	0.908
14.5408	0.908
14.5808	0.91
14.6208	0.911
14.6609	0.918
14.7009	0.918
14.7409	0.918
14.7809	0.926
14.821	0.93
14.861	0.931
14.901	0.931
14.941	0.935
14.9811	0.945
15.0211	0.951
15.0611	0.951
15.1011	0.948
15.1412	0.955
15.1812	0.961
15.2212	0.966
15.2612	0.971
15.3013	0.975
15.3413	0.975
15.3813	0.976
15.4213	0.978
15.4614	0.978
15.5014	0.978
15.5414	0.98
15.5814	0.98
15.6215	0.981
15.6615	0.981
15.7015	0.978
15.7415	0.978
15.7816	0.978
15.8216	0.976
15.8616	0.968
15.9016	0.95
15.9417	0.921
15.9817	0.908
16.0217	0.921
