Infrared Spectrum: 1,2-BENZOPHENANTHRENE
Formula: C18 H12
CAS: 218-01-9
State: SOLID (1.0% IN KBr PELLET)
Class: COBLENTZ
Instrument: Not specified, most likely a prism, grating, or hybrid spectrometer.
Sampling: TRANSMISSION
Path length: 0.0355 CM THICK
Resolution: 4
Origin: ANDERSON PHYSICAL LABORATORY
1/CM	TRANSMITTANCE
671.241	0.75
679.663	0.6654
688.084	0.7728
696.506	0.804
704.928	0.786
713.35	0.722
721.771	0.678
730.193	0.439
738.615	0.5421
747.036	0.246
755.458	0.085
763.88	0.027
772.302	0.4858
780.723	0.7707
789.145	0.887
797.567	0.896
805.989	0.824
814.41	0.5851
822.832	0.061
831.254	0.7229
839.675	0.881
848.097	0.893
856.519	0.878
864.941	0.7492
873.362	0.554
881.784	0.612
890.206	0.837
898.627	0.891
907.049	0.905
915.471	0.929
923.893	0.936
932.314	0.93
940.736	0.899
949.158	0.7372
957.579	0.7609
966.001	0.803
974.423	0.878
982.845	0.861
991.266	0.876
999.688	0.891
1008.11	0.893
1016.53	0.876
1024.95	0.804
1033.37	0.737
1041.8	0.744
1050.22	0.869
1058.64	0.884
1067.06	0.881
1075.48	0.876
1083.91	0.857
1092.33	0.836
1100.75	0.848
1109.17	0.851
1117.59	0.846
1126.01	0.834
1134.44	0.819
1142.86	0.812
1151.28	0.716
1159.7	0.714
1168.12	0.797
1176.54	0.798
1184.97	0.801
1193.39	0.78
1201.81	0.693
1210.23	0.761
1218.65	0.786
1227.07	0.783
1235.5	0.722
1243.92	0.62
1252.34	0.651
1260.76	0.648
1269.18	0.3454
1277.6	0.6473
1286.03	0.795
1294.45	0.801
1302.87	0.7011
1311.29	0.644
1319.71	0.779
1328.14	0.75
1336.56	0.755
1344.98	0.75
1353.4	0.705
1361.82	0.731
1370.24	0.707
1378.67	0.743
1387.09	0.74
1395.51	0.738
1403.93	0.713
1412.35	0.632
1420.77	0.618
1429.2	0.666
1437.62	0.555
1446.04	0.415
1454.46	0.633
1462.88	0.674
1471.3	0.677
1479.73	0.641
1488.15	0.642
1496.57	0.527
1504.99	0.696
1513.41	0.696
1521.83	0.6391
1530.26	0.6259
1538.68	0.711
1547.1	0.729
1555.52	0.728
1563.94	0.72
1572.37	0.71
1580.79	0.704
1589.21	0.693
1597.63	0.606
1606.05	0.5669
1614.47	0.614
1622.9	0.588
1631.32	0.618
1639.74	0.636
1648.16	0.645
1656.58	0.65
1665	0.684
1673.43	0.687
1681.85	0.687
1690.27	0.677
1698.69	0.662
1707.11	0.654
1715.53	0.672
1723.96	0.672
1732.38	0.674
1740.8	0.674
1749.22	0.674
1757.64	0.666
1766.06	0.653
1774.49	0.656
1782.91	0.656
1791.33	0.647
1799.75	0.636
1808.17	0.624
1816.59	0.633
1825.02	0.633
1833.44	0.632
1841.86	0.63
1850.28	0.639
1858.7	0.644
1867.13	0.639
1875.55	0.638
1883.97	0.627
1892.39	0.611
1900.81	0.609
1909.23	0.596
1917.66	0.579
1926.08	0.557
1934.5	0.581
1942.92	0.593
1951.34	0.581
1959.76	0.582
1968.19	0.608
1976.61	0.617
1985.03	0.617
1993.45	0.614
2001.87	0.611
2010.29	0.6095
2018.72	0.608
2027.14	0.6075
2035.56	0.604
2043.98	0.6005
2052.4	0.597
2060.82	0.5946
2069.25	0.5866
2077.67	0.5843
2086.09	0.584
2094.51	0.5788
2102.93	0.578
2111.36	0.578
2119.78	0.576
2128.2	0.5728
2136.62	0.5681
2145.04	0.5663
2153.46	0.564
2161.89	0.5626
2170.31	0.5596
2178.73	0.5526
2187.15	0.552
2195.57	0.5484
2203.99	0.5441
2212.42	0.543
2220.84	0.5421
2229.26	0.5416
2237.68	0.5381
2246.1	0.537
2254.52	0.5341
2262.95	0.527
2271.37	0.5236
2279.79	0.5189
2288.21	0.5161
2296.63	0.515
2305.05	0.5141
2313.48	0.5123
2321.9	0.5071
2330.32	0.506
2338.74	0.506
2347.16	0.5033
2355.59	0.4952
2364.01	0.49
2372.43	0.489
2380.85	0.486
2389.27	0.486
2397.69	0.486
2406.12	0.486
2414.54	0.486
2422.96	0.4831
2431.38	0.478
2439.8	0.478
2448.22	0.477
2456.65	0.4752
2465.07	0.4685
2473.49	0.4656
2481.91	0.4623
2490.33	0.462
2498.75	0.4598
2507.18	0.459
2515.6	0.457
2524.02	0.456
2532.44	0.454
2540.86	0.4536
2549.28	0.453
2557.71	0.4539
2566.13	0.4538
2574.55	0.4506
2582.97	0.4487
2591.39	0.4441
2599.81	0.4389
2608.24	0.4348
2616.66	0.432
2625.08	0.43
2633.5	0.4299
2641.92	0.429
2650.35	0.429
2658.77	0.4244
2667.19	0.4226
2675.61	0.42
2684.03	0.42
2692.45	0.42
2700.88	0.42
2709.3	0.4176
2717.72	0.4157
2726.14	0.4093
2734.56	0.4078
2742.98	0.4056
2751.41	0.4038
2759.83	0.4021
2768.25	0.3999
2776.67	0.3966
2785.09	0.394
2793.51	0.393
2801.94	0.3909
2810.36	0.3876
2818.78	0.3858
2827.2	0.3814
2835.62	0.3786
2844.04	0.3697
2852.47	0.3678
2860.89	0.3661
2869.31	0.3628
2877.73	0.3593
2886.15	0.358
2894.58	0.3555
2903	0.3537
2911.42	0.3503
2919.84	0.3468
2928.26	0.3425
2936.68	0.339
2945.11	0.337
2953.53	0.336
2961.95	0.3315
2970.37	0.3279
2978.79	0.325
2987.21	0.324
2995.64	0.3212
3004.06	0.3117
3012.48	0.2983
3020.9	0.2876
3029.32	0.2745
3037.74	0.2605
3046.17	0.2497
3054.59	0.2409
3063.01	0.2296
3071.43	0.2281
3079.85	0.2335
3088.27	0.2498
3096.7	0.2691
3105.12	0.2884
3113.54	0.3009
3121.96	0.3093
3130.38	0.3158
3138.8	0.3161
3147.23	0.319
3155.65	0.319
3164.07	0.3164
3172.49	0.313
3180.91	0.31
3189.34	0.3079
3197.76	0.307
3206.18	0.306
3214.6	0.306
3223.02	0.3035
3231.44	0.303
3239.87	0.301
3248.29	0.3
3256.71	0.298
3265.13	0.297
3273.55	0.295
3281.97	0.292
3290.4	0.2899
3298.82	0.2882
3307.24	0.285
3315.66	0.2814
3324.08	0.276
3332.5	0.2732
3340.93	0.273
3349.35	0.2707
3357.77	0.2675
3366.19	0.2642
3374.61	0.262
3383.03	0.255
3391.46	0.2494
3399.88	0.2417
3408.3	0.24
3416.72	0.2343
3425.14	0.2295
3433.57	0.2197
3441.99	0.214
3450.41	0.2162
3458.83	0.221
3467.25	0.2253
3475.67	0.231
3484.1	0.2355
3492.52	0.2375
3500.94	0.238
3509.36	0.238
3517.78	0.2378
3526.2	0.236
3534.63	0.234
3543.05	0.232
3551.47	0.231
3559.89	0.2315
3568.31	0.232
3576.73	0.232
3585.16	0.232
3593.58	0.2329
3602	0.2347
3610.42	0.235
3618.84	0.235
3627.26	0.235
3635.69	0.2364
3644.11	0.237
3652.53	0.2372
3660.95	0.238
3669.37	0.238
3677.8	0.238
3686.22	0.238
3694.64	0.24
3703.06	0.24
3711.48	0.238
3719.9	0.238
3728.33	0.237
3736.75	0.237
3745.17	0.2341
3753.59	0.232
3762.01	0.232
3770.43	0.232
3778.86	0.232
3787.28	0.232
3795.7	0.2316
3804.12	0.231
3812.54	0.229
3820.96	0.2288
3829.39	0.226
3837.81	0.226
3846.23	0.226
3854.65	0.226
3863.07	0.225
3871.49	0.223
3879.92	0.2172
3888.34	0.216
3896.76	0.2152
3905.18	0.213
3913.6	0.213
3922.02	0.213
3930.45	0.213
3938.87	0.213
3947.29	0.213
3955.71	0.211
3964.13	0.211
3972.56	0.2103
3980.98	0.21
