Infrared Spectrum: 1-Phenyloctane
Formula: C14 H22
CAS: 2189-60-8
State: SOLUTION (10% CCl4 FOR 3800-1330, 10% CS2 FOR 1330-450 CM^-^1)
Boiling point: 138 C AT 8 mmHg
Class: COBLENTZ III
Instrument: DOW KBr FOREPRISM-GRATING
Instrument parameters: BLAZED AT 3.5, 12.0, 20.0 MICRON AND CHANGED AT 5.0, 7.5, 14.9 MICRON
Sampling: TRANSMISSION
Path length: 0.011 CM, 0.011 CM
Resolution: 2
Origin: DOW CHEMICAL COMPANY
1/CM	TRANSMITTANCE
3796	0.892
3787	0.8932
3778	0.8942
3769	0.896
3760	0.898
3751	0.8984
3742	0.8994
3733	0.9001
3724	0.9009
3715	0.8999
3706	0.8991
3697	0.8971
3688	0.8942
3679	0.8934
3670	0.8965
3661	0.8967
3652	0.8952
3643	0.8937
3634	0.8928
3625	0.8935
3616	0.8931
3607	0.8932
3598	0.8929
3589	0.8938
3580	0.8941
3571	0.8931
3562	0.8934
3553	0.8927
3544	0.8917
3535	0.8907
3526	0.8881
3517	0.8865
3508	0.8849
3499	0.8842
3490	0.8834
3481	0.8826
3472	0.8818
3463	0.8811
3454	0.8804
3445	0.8797
3436	0.8792
3427	0.8787
3418	0.879
3409	0.8793
3400	0.8796
3391	0.88
3382	0.8807
3373	0.8812
3364	0.8813
3355	0.881
3346	0.8807
3337	0.8817
3328	0.8803
3319	0.88
3310	0.881
3301	0.8795
3292	0.8795
3283	0.8799
3274	0.8791
3265	0.8784
3256	0.8762
3247	0.8762
3238	0.8749
3229	0.874
3220	0.8729
3211	0.8713
3202	0.8687
3193	0.8683
3184	0.8655
3175	0.8638
3166	0.8564
3157	0.8541
3148	0.8522
3139	0.8523
3130	0.8496
3121	0.8393
3112	0.797
3103	0.7943
3094	0.7204
3085	0.6037
3076	0.701
3067	0.5449
3058	0.6635
3049	0.7053
3040	0.634
3031	0.4136
3022	0.4112
3013	0.6315
3004	0.6865
2995	0.6765
2986	0.5936
2977	0.4207
2968	0.2482
2959	0.0843
2950	0.0779
2941	0.0913
2932	0.0075
2923	0.0023
2914	0.0166
2905	0.0982
2896	0.1784
2887	0.2995
2878	0.3448
2869	0.196
2860	0.059
2851	0.0937
2842	0.4559
2833	0.6415
2824	0.7148
2815	0.7615
2806	0.7942
2797	0.8227
2788	0.8437
2779	0.8635
2770	0.8784
2761	0.886
2752	0.8869
2743	0.8863
2734	0.8796
2725	0.884
2716	0.8921
2707	0.8951
2698	0.8952
2689	0.8907
2680	0.8869
2671	0.8875
2662	0.8896
2653	0.8941
2644	0.8963
2635	0.9001
2626	0.9086
2617	0.9128
2608	0.9127
2599	0.9153
2590	0.9183
2581	0.9214
2572	0.9243
2563	0.9266
2554	0.9292
2545	0.9318
2536	0.9339
2527	0.9355
2518	0.9371
2509	0.9385
2500	0.9398
2491	0.9412
2482	0.9429
2473	0.9459
2464	0.9478
2455	0.9463
2446	0.9477
2437	0.9483
2428	0.9493
2419	0.9497
2410	0.9495
2401	0.9505
2392	0.9501
2383	0.9519
2374	0.9551
2365	0.9532
2356	0.9565
2347	0.958
2338	0.9569
2329	0.9578
2320	0.955
2311	0.9458
2302	0.9417
2293	0.9474
2284	0.9458
2275	0.9433
2266	0.9439
2257	0.9435
2248	0.9447
2239	0.9478
2230	0.9488
2221	0.9488
2212	0.9502
2203	0.9516
2194	0.9526
2185	0.9516
2176	0.9532
2167	0.9521
2158	0.9523
2149	0.9523
2140	0.9523
2131	0.9522
2122	0.9508
2113	0.9516
2104	0.9508
2095	0.9497
2086	0.9491
2077	0.9486
2068	0.9487
2059	0.9485
2050	0.9483
2041	0.9457
2032	0.9443
2023	0.9438
2014	0.9415
2005	0.9386
1996	0.9306
1987	0.9204
1978	0.9157
1969	0.914
1960	0.904
1951	0.8819
1942	0.8878
1933	0.8743
1924	0.9099
1915	0.9179
1906	0.9206
1897	0.9185
1888	0.9073
1879	0.8894
1870	0.8871
1861	0.883
1852	0.9011
1843	0.9106
1834	0.9092
1825	0.9092
1816	0.9016
1807	0.8962
1798	0.8628
1789	0.9022
1780	0.911
1771	0.9075
1762	0.9095
1753	0.9024
1744	0.8775
1735	0.8877
1726	0.9004
1717	0.9033
1708	0.8929
1699	0.8844
1690	0.8662
1681	0.8788
1672	0.8944
1663	0.8894
1654	0.8824
1645	0.8796
1636	0.8837
1627	0.8866
1618	0.8822
1609	0.8154
1600	0.7262
1591	0.7924
1582	0.7518
1573	0.8002
1564	0.782
1555	0.759
1546	0.7516
1537	0.8215
1528	0.8183
1519	0.826
1510	0.8181
1501	0.5797
1492	0.4968
1483	0.7887
1474	0.7218
1465	0.3534
1456	0.2877
1447	0.5412
1438	0.6798
1429	0.7765
1420	0.8286
1411	0.8306
1402	0.8579
1393	0.867
1384	0.8333
1375	0.7826
1366	0.7847
1357	0.7942
1348	0.8076
1339	0.8317
1330	0.8478
1321	0.8468
1312	0.8407
1303	0.834
1294	0.8507
1285	0.8704
1276	0.8862
1267	0.8991
1258	0.9136
1249	0.9204
1240	0.9177
1231	0.94
1222	0.9443
1213	0.9443
1204	0.9345
1195	0.924
1186	0.9174
1177	0.8536
1168	0.9103
1159	0.9185
1150	0.8937
1141	0.8962
1132	0.9167
1123	0.8972
1114	0.8721
1105	0.871
1096	0.9047
1087	0.9061
1078	0.8549
1069	0.7803
1060	0.8429
1051	0.8912
1042	0.8977
1033	0.8562
1024	0.8225
1015	0.8933
1006	0.9068
997	0.9065
988	0.9119
979	0.9049
970	0.901
961	0.9019
952	0.9023
943	0.9027
934	0.9039
925	0.8999
916	0.8925
907	0.8573
898	0.8134
889	0.8817
880	0.8904
871	0.8802
862	0.8595
853	0.8436
844	0.8494
835	0.8688
826	0.8818
817	0.8873
808	0.896
799	0.8922
790	0.8754
781	0.8727
772	0.8691
763	0.7995
754	0.652
745	0.3286
736	0.3317
727	0.5135
718	0.4691
709	0.6109
700	0.5408
691	0.2754
682	0.8189
673	0.8802
664	0.864
655	0.8609
646	0.8629
637	0.8688
628	0.8707
619	0.8708
610	0.8706
601	0.8647
592	0.8232
583	0.8149
574	0.7598
565	0.8055
556	0.8429
547	0.8452
538	0.8396
529	0.8193
520	0.7915
511	0.788
502	0.7829
493	0.7503
484	0.7371
475	0.7393
466	0.7403
457	0.7408
