Infrared Spectrum: 1, 2, 3, 4-TETRACHLORO-5, 5-DIMETHOXY-1, 3-CYCLOPENTADIENE
Formula: C7 H6 Cl4 O2
CAS: 2207-27-4
State: LIQUID
Class: COBLENTZ
Instrument: Not specified, most likely a grating spectrometer.
Sampling: TRANSMISSION
Path length: 0.001 CM (NaCl PLATES)
Resolution: 4
Origin: STANDARD OIL OF OHIO
1/CM	TRANSMITTANCE
333.884	0.589
343.351	0.582
352.817	0.57
362.284	0.572
371.75	0.575
381.217	0.568
390.684	0.57
400.15	0.585
409.617	0.584
419.083	0.592
428.55	0.604
438.016	0.609
447.483	0.606
456.95	0.619
466.416	0.634
475.883	0.641
485.349	0.651
494.816	0.638
504.283	0.65
513.749	0.65
523.216	0.648
532.682	0.645
542.149	0.651
551.615	0.646
561.082	0.626
570.549	0.623
580.015	0.626
589.482	0.624
598.948	0.628
608.415	0.631
617.882	0.645
627.348	0.724
636.815	0.853
646.281	0.853
655.748	0.7528
665.214	0.6855
674.681	0.887
684.148	0.901
693.614	0.893
703.081	0.896
712.547	0.881
722.014	0.884
731.481	0.842
740.947	0.67
750.414	0.2034
759.88	0.1269
769.347	0.2251
778.814	0.0369
788.28	0.5218
797.747	0.7529
807.213	0.835
816.68	0.83
826.146	0.835
835.613	0.801
845.08	0.7229
854.546	0.8159
864.013	0.904
873.479	0.923
882.946	0.926
892.413	0.926
901.879	0.925
911.346	0.915
920.812	0.899
930.279	0.867
939.745	0.7921
949.212	0.595
958.679	0.653
968.145	0.4712
977.612	0.1132
987.078	0.2019
996.545	0.553
1006.01	0.7109
1015.48	0.748
1024.94	0.719
1034.41	0.7021
1043.88	0.619
1053.34	0.354
1062.81	0.1011
1072.28	0.129
1081.74	0.098
1091.21	0.011
1100.68	0.008
1110.14	0.044
1119.61	0.015
1129.08	0.02
1138.54	0.057
1148.01	0.073
1157.48	0.1029
1166.94	0.203
1176.41	0.149
1185.88	0.129
1195.34	0.066
1204.81	0.015
1214.28	0.011
1223.74	0.2027
1233.21	0.2931
1242.68	0.159
1252.14	0.3526
1261.61	0.5699
1271.08	0.629
1280.54	0.687
1290.01	0.713
1299.48	0.636
1308.94	0.665
1318.41	0.838
1327.88	0.86
1337.34	0.891
1346.81	0.891
1356.28	0.899
1365.74	0.904
1375.21	0.906
1384.67	0.903
1394.14	0.908
1403.61	0.893
1413.07	0.869
1422.54	0.837
1432.01	0.68
1441.47	0.348
1450.94	0.2932
1460.41	0.2849
1469.87	0.665
1479.34	0.809
1488.81	0.869
1498.27	0.891
1507.74	0.903
1517.21	0.908
1526.67	0.91
1536.14	0.899
1545.61	0.891
1555.07	0.85
1564.54	0.852
1574.01	0.7522
1583.47	0.5898
1592.94	0.784
1602.41	0.4534
1611.87	0.015
1621.34	0.7379
1630.81	0.7262
1640.27	0.67
1649.74	0.6159
1659.21	0.87
1668.67	0.918
1678.14	0.935
1687.61	0.935
1697.07	0.938
1706.54	0.935
1716.01	0.933
1725.47	0.923
1734.94	0.913
1744.41	0.891
1753.87	0.87
1763.34	0.91
1772.8	0.918
1782.27	0.918
1791.74	0.93
1801.2	0.947
1810.67	0.947
1820.14	0.942
1829.6	0.95
1839.07	0.949
1848.54	0.952
1858	0.954
1867.47	0.947
1876.94	0.949
1886.4	0.954
1895.87	0.955
1905.34	0.957
1914.8	0.959
1924.27	0.962
1933.74	0.957
1943.2	0.96
1952.67	0.955
1962.14	0.954
1971.6	0.954
1981.07	0.954
1990.54	0.955
2000	0.954
2009.47	0.9495
2018.94	0.945
2028.4	0.934
2037.87	0.926
2047.34	0.926
2056.8	0.923
2066.27	0.9333
2075.74	0.9448
2085.2	0.949
2094.67	0.95
2104.14	0.954
2113.6	0.952
2123.07	0.9496
2132.54	0.949
2142	0.95
2151.47	0.952
2160.93	0.955
2170.4	0.954
2179.87	0.9527
2189.33	0.957
2198.8	0.959
2208.27	0.957
2217.73	0.954
2227.2	0.9523
2236.67	0.95
2246.13	0.9548
2255.6	0.959
2265.07	0.9616
2274.53	0.96
2284	0.9574
2293.47	0.955
2302.93	0.9586
2312.4	0.9625
2321.87	0.9547
2331.33	0.949
2340.8	0.9535
2350.27	0.954
2359.73	0.95
2369.2	0.9445
2378.67	0.9444
2388.13	0.9524
2397.6	0.9597
2407.07	0.959
2416.53	0.9614
2426	0.962
2435.47	0.96
2444.93	0.9629
2454.4	0.969
2463.87	0.969
2473.33	0.967
2482.8	0.962
2492.27	0.9666
2501.73	0.969
2511.2	0.9664
2520.67	0.962
2530.13	0.9666
2539.6	0.9692
2549.06	0.971
2558.53	0.971
2568	0.971
2577.46	0.9657
2586.93	0.9594
2596.4	0.959
2605.86	0.9611
2615.33	0.9641
2624.8	0.966
2634.26	0.966
2643.73	0.967
2653.2	0.9691
2662.66	0.971
2672.13	0.969
2681.6	0.966
2691.06	0.966
2700.53	0.969
2710	0.971
2719.46	0.9715
2728.93	0.9671
2738.4	0.964
2747.86	0.964
2757.33	0.964
2766.8	0.962
2776.26	0.9546
2785.73	0.9472
2795.2	0.9403
2804.66	0.9207
2814.13	0.898
2823.6	0.7739
2833.06	0.3786
2842.53	0.6005
2852	0.8434
2861.46	0.8769
2870.93	0.8594
2880.4	0.8007
2889.86	0.691
2899.33	0.6785
2908.8	0.7117
2918.26	0.6834
2927.73	0.476
2937.19	0.3011
2946.66	0.256
2956.13	0.3488
2965.59	0.5384
2975.06	0.581
2984.53	0.5551
2993.99	0.4981
3003.46	0.5109
3012.93	0.5702
3022.39	0.7901
3031.86	0.8575
3041.33	0.8914
3050.79	0.9091
3060.26	0.9202
3069.73	0.9294
3079.19	0.9322
3088.66	0.9377
3098.13	0.9438
3107.59	0.9534
3117.06	0.957
3126.53	0.961
3135.99	0.9587
3145.46	0.9583
3154.93	0.9623
3164.39	0.9653
3173.86	0.9643
3183.33	0.966
3192.79	0.969
3202.26	0.971
3211.73	0.971
3221.19	0.972
3230.66	0.976
3240.13	0.974
3249.59	0.979
3259.06	0.981
3268.53	0.979
3277.99	0.979
3287.46	0.9761
3296.93	0.9801
3306.39	0.981
3315.86	0.981
3325.32	0.9789
3334.79	0.974
3344.26	0.977
3353.72	0.979
3363.19	0.981
3372.66	0.98
3382.12	0.977
3391.59	0.976
3401.06	0.981
3410.52	0.981
3419.99	0.981
3429.46	0.981
3438.92	0.979
3448.39	0.9799
3457.86	0.981
3467.32	0.981
3476.79	0.981
3486.26	0.981
3495.72	0.979
3505.19	0.981
3514.66	0.981
3524.12	0.981
3533.59	0.983
3543.06	0.981
3552.52	0.981
3561.99	0.9803
3571.46	0.981
3580.92	0.9797
3590.39	0.9793
3599.86	0.9804
3609.32	0.984
3618.79	0.984
3628.26	0.984
3637.72	0.983
3647.19	0.981
3656.66	0.9816
3666.12	0.9838
3675.59	0.9866
3685.06	0.986
3694.52	0.984
3703.99	0.984
3713.45	0.984
3722.92	0.989
3732.39	0.991
3741.85	0.9883
3751.32	0.986
3760.79	0.986
3770.25	0.986
3779.72	0.988
3789.19	0.988
3798.65	0.988
3808.12	0.986
3817.59	0.9854
3827.05	0.986
3836.52	0.9873
3845.99	0.9907
3855.45	0.9847
3864.92	0.983
3874.39	0.983
3883.85	0.984
3893.32	0.984
