Infrared Spectrum: CYCLOHEXANE, 1,CIS-2-DIMETHYL-
Formula: C8 H16
CAS: 2207-01-4
State: LIQUID (NEAT)
Class: COBLENTZ II
Instrument: PERKIN-ELMER 621 (GRATING)
Instrument parameters: GRATING CHANGE AT 623; ORDER CHANGE AT 2000. FILTERS AT 3146, 2494, 2000, 1146, 698, 497 CM^-^1
Sampling: TRANSMISSION
Path length: 0.0015 CM (CsBr WINDOWS VS CsBr WINDOW; DEMOUNTABLE WINDOWS)
Resolution: 2
Origin: PERKIN-ELMER CORP. (R. HANNAH)
1/CM	TRANSMITTANCE
4000	0.9024
3990	0.9028
3980	0.9034
3970	0.9044
3960	0.9051
3950	0.9047
3940	0.9042
3930	0.9038
3920	0.9035
3910	0.9032
3900	0.9028
3890	0.9024
3880	0.9021
3870	0.9016
3860	0.9012
3850	0.9009
3840	0.9009
3830	0.901
3820	0.9011
3810	0.9012
3800	0.9013
3790	0.9013
3780	0.9014
3770	0.9014
3760	0.9014
3750	0.9015
3740	0.9015
3730	0.9015
3720	0.902
3710	0.9027
3700	0.9033
3690	0.9039
3680	0.9044
3670	0.9049
3660	0.9054
3650	0.9059
3640	0.9064
3630	0.9068
3620	0.9068
3610	0.9067
3600	0.9065
3590	0.9063
3580	0.9061
3570	0.9059
3560	0.9056
3550	0.9052
3540	0.9048
3530	0.9043
3520	0.9038
3510	0.9032
3500	0.9025
3490	0.902
3480	0.9014
3470	0.9008
3460	0.9002
3450	0.8996
3440	0.8987
3430	0.8978
3420	0.8968
3410	0.8959
3400	0.895
3390	0.8939
3380	0.8936
3370	0.8945
3360	0.8954
3350	0.896
3340	0.8963
3330	0.8966
3320	0.8968
3310	0.8971
3300	0.8974
3290	0.8977
3280	0.898
3270	0.8982
3260	0.8985
3250	0.8977
3240	0.8965
3230	0.8958
3220	0.8956
3210	0.8949
3200	0.8925
3190	0.8899
3180	0.8878
3170	0.8862
3160	0.8853
3150	0.8851
3140	0.8825
3130	0.8825
3120	0.8824
3110	0.8821
3100	0.8821
3090	0.8823
3080	0.8824
3070	0.8821
3060	0.8817
3050	0.8806
3040	0.8777
3030	0.8738
3020	0.868
3010	0.8549
3000	0.8158
2990	0.7397
2980	0.6248
2970	0.2415
2960	0.1178
2950	0.1235
2940	0.1578
2930	0.0431
2920	0.0242
2910	0.0493
2900	0.1274
2890	0.2288
2880	0.2184
2870	0.1699
2860	0.1578
2850	0.2119
2840	0.6131
2830	0.724
2820	0.7739
2810	0.8035
2800	0.8238
2790	0.8323
2780	0.8398
2770	0.8518
2760	0.8578
2750	0.861
2740	0.8624
2730	0.8613
2720	0.8538
2710	0.8541
2700	0.8568
2690	0.8571
2680	0.8564
2670	0.8366
2660	0.8228
2650	0.8367
2640	0.8503
2630	0.8568
2620	0.862
2610	0.8636
2600	0.8627
2590	0.8644
2580	0.8702
2570	0.8768
2560	0.8814
2550	0.8823
2540	0.8838
2530	0.885
2520	0.8859
2510	0.8867
2500	0.8873
2490	0.8875
2480	0.8878
2470	0.8881
2460	0.8878
2450	0.8875
2440	0.8873
2430	0.8875
2420	0.8878
2410	0.888
2400	0.8881
2390	0.8882
2380	0.8887
2370	0.8912
2360	0.8937
2350	0.8957
2340	0.8971
2330	0.8989
2320	0.8978
2310	0.8951
2300	0.893
2290	0.8899
2280	0.8885
2270	0.8883
2260	0.8882
2250	0.8892
2240	0.8904
2230	0.8916
2220	0.8921
2210	0.8925
2200	0.8928
2190	0.8932
2180	0.8934
2170	0.8933
2160	0.8933
2150	0.8933
2140	0.8932
2130	0.8932
2120	0.8933
2110	0.8933
2100	0.8933
2090	0.8933
2080	0.8934
2070	0.8933
2060	0.8932
2050	0.8931
2040	0.893
2030	0.8928
2020	0.8928
2010	0.8925
2000	0.8923
1990	0.8921
1980	0.892
1970	0.8915
1960	0.8912
1950	0.8914
1940	0.8909
1930	0.8906
1920	0.8911
1910	0.8913
1900	0.8903
1890	0.8896
1880	0.8897
1870	0.8898
1860	0.8896
1850	0.8893
1840	0.889
1830	0.8885
1820	0.8881
1810	0.8875
1800	0.8871
1790	0.8866
1780	0.8852
1770	0.8838
1760	0.8827
1750	0.8821
1740	0.8815
1730	0.881
1720	0.8804
1710	0.8802
1700	0.8808
1690	0.8813
1680	0.8818
1670	0.8825
1660	0.8824
1650	0.882
1640	0.8814
1630	0.8814
1620	0.8817
1610	0.881
1600	0.88
1590	0.8796
1580	0.8795
1570	0.8818
1560	0.8821
1550	0.8828
1540	0.8736
1530	0.8725
1520	0.8688
1510	0.8642
1500	0.8545
1490	0.8398
1480	0.7825
1470	0.6212
1460	0.4706
1450	0.4519
1440	0.6057
1430	0.8051
1420	0.8311
1410	0.8433
1400	0.8409
1390	0.7793
1380	0.521
1370	0.7818
1360	0.8091
1350	0.8451
1340	0.8492
1330	0.8521
1320	0.8518
1310	0.8502
1300	0.8448
1290	0.8538
1280	0.859
1270	0.8594
1260	0.8552
1250	0.8468
1240	0.8473
1230	0.8566
1220	0.8588
1210	0.8606
1200	0.8623
1190	0.8637
1180	0.8635
1170	0.8504
1160	0.7941
1150	0.8392
1140	0.8646
1130	0.8692
1120	0.8717
1110	0.8711
1100	0.841
1090	0.8039
1080	0.8573
1070	0.8683
1060	0.8707
1050	0.8608
1040	0.8708
1030	0.8728
1020	0.82
1010	0.8033
1000	0.8328
990	0.8571
980	0.7865
970	0.849
960	0.8715
950	0.8664
940	0.8368
930	0.8702
920	0.8678
910	0.877
900	0.8796
890	0.8799
880	0.8293
870	0.8803
860	0.8833
850	0.8817
840	0.8125
830	0.8625
820	0.8735
810	0.8825
800	0.8792
790	0.8883
780	0.892
770	0.8938
760	0.8938
750	0.894
740	0.8934
730	0.884
720	0.8885
710	0.8915
700	0.8934
690	0.8944
680	0.8951
670	0.8958
660	0.896
650	0.8952
640	0.8938
630	0.8918
620	0.8944
610	0.894
600	0.8495
590	0.8648
580	0.8894
570	0.892
560	0.8925
550	0.8927
540	0.8916
530	0.8927
520	0.894
510	0.8952
500	0.8963
490	0.8957
480	0.895
470	0.8894
460	0.8913
450	0.8931
440	0.8939
430	0.8946
420	0.8951
410	0.8966
400	0.8993
390	0.8992
380	0.899
370	0.8985
360	0.8985
350	0.8986
340	0.8986
330	0.8971
320	0.8968
310	0.8987
