Infrared Spectrum: p-METHYL BENZYL ACETATE
Formula: C10 H12 O2
CAS: 2216-45-7
State: SOLUTION (11% IN CCl4 FOR 3800-1330, 11% IN CS2 FOR 1330-400 CM^-^1)
Class: COBLENTZ III
Instrument: BECKMAN IR-9 (GRATING)
Instrument parameters: ORDER CHANGES: 670, 1200, 2000 CM^-^1
Sampling: TRANSMISSION
Path length: 0.011 CM, 0.011 CM
Resolution: 2
Origin: DOW CHEMICAL COMPANY
1/CM	TRANSMITTANCE
404.609	0.035
413.36	0.391
422.112	0.572
430.863	0.663
439.615	0.699
448.366	0.721
457.118	0.722
465.869	0.68
474.621	0.508
483.372	0.495
492.124	0.811
500.875	0.87
509.627	0.888
518.378	0.9
527.129	0.903
535.881	0.873
544.632	0.638
553.384	0.586
562.135	0.866
570.887	0.923
579.638	0.936
588.39	0.932
597.141	0.841
605.893	0.652
614.644	0.868
623.396	0.887
632.147	0.849
640.898	0.866
649.65	0.824
658.401	0.836
667.153	0.881
675.904	0.881
684.656	0.872
693.407	0.873
702.159	0.853
710.91	0.864
719.662	0.872
728.413	0.87
737.165	0.87
745.916	0.767
754.668	0.532
763.419	0.802
772.17	0.85
780.922	0.838
789.673	0.627
798.425	0.279
807.176	0.103
815.928	0.558
824.679	0.76
833.431	0.677
842.182	0.554
850.934	0.6
859.685	0.698
868.437	0.76
877.188	0.808
885.939	0.849
894.691	0.876
903.442	0.877
912.194	0.794
920.945	0.75
929.697	0.834
938.448	0.691
947.2	0.726
955.951	0.633
964.703	0.533
973.454	0.547
982.206	0.661
990.957	0.711
999.708	0.635
1008.46	0.422
1017.21	0.186
1025.96	0.167
1034.71	0.179
1043.47	0.236
1052.22	0.453
1060.97	0.622
1069.72	0.703
1078.47	0.756
1087.22	0.793
1095.97	0.813
1104.73	0.805
1113.48	0.774
1122.23	0.754
1130.98	0.864
1139.73	0.872
1148.48	0.873
1157.23	0.865
1165.99	0.834
1174.74	0.7769
1183.49	0.5171
1192.24	0.631
1200.99	0.398
1209.74	0.099
1218.5	0.024
1227.25	0.006
1236	0.008
1244.75	0.033
1253.5	0.08
1262.25	0.225
1271	0.485
1279.76	0.582
1288.51	0.652
1297.26	0.736
1306.01	0.785
1314.76	0.789
1323.51	0.798
1332.26	0.831
1341.02	0.824
1349.77	0.68
1358.52	0.167
1367.27	0.453
1376.02	0.15
1384.77	0.3721
1393.52	0.644
1402.28	0.709
1411.03	0.711
1419.78	0.656
1428.53	0.605
1437.28	0.57
1446.03	0.497
1454.78	0.463
1463.54	0.5
1472.29	0.679
1481.04	0.729
1489.79	0.736
1498.54	0.713
1507.29	0.65
1516.04	0.258
1524.8	0.546
1533.55	0.58
1542.3	0.508
1551.05	0.486
1559.8	0.5
1568.55	0.588
1577.31	0.622
1586.06	0.639
1594.81	0.698
1603.56	0.75
1612.31	0.748
1621.06	0.735
1629.81	0.843
1638.57	0.845
1647.32	0.82
1656.07	0.817
1664.82	0.827
1673.57	0.823
1682.32	0.796
1691.07	0.755
1699.83	0.668
1708.58	0.603
1717.33	0.47
1726.08	0.2259
1734.83	0.032
1743.58	0
1752.33	0.038
1761.09	0.3511
1769.84	0.554
1778.59	0.66
1787.34	0.73
1796.09	0.764
1804.84	0.816
1813.59	0.851
1822.35	0.872
1831.1	0.888
1839.85	0.9
1848.6	0.906
1857.35	0.915
1866.1	0.918
1874.85	0.922
1883.61	0.922
1892.36	0.911
1901.11	0.876
1909.86	0.891
1918.61	0.929
1927.36	0.934
1936.12	0.937
1944.87	0.937
1953.62	0.938
1962.37	0.938
1971.12	0.938
1979.87	0.938
1988.62	0.938
1997.38	0.938
2006.13	0.937
2014.88	0.937
2023.63	0.937
2032.38	0.936
2041.13	0.9333
2049.88	0.933
2058.64	0.9322
2067.39	0.932
2076.14	0.9329
2084.89	0.936
2093.64	0.941
2102.39	0.9451
2111.14	0.9492
2119.9	0.952
2128.65	0.952
2137.4	0.952
2146.15	0.952
2154.9	0.952
2163.65	0.951
2172.4	0.9539
2181.16	0.958
2189.91	0.96
2198.66	0.961
2207.41	0.961
2216.16	0.961
2224.91	0.961
2233.66	0.9626
2242.42	0.963
2251.17	0.964
2259.92	0.966
2268.67	0.964
2277.42	0.961
2286.17	0.9588
2294.92	0.9547
2303.68	0.953
2312.43	0.952
2321.18	0.9563
2329.93	0.957
2338.68	0.9577
2347.43	0.959
2356.19	0.96
2364.94	0.966
2373.69	0.9716
2382.44	0.9786
2391.19	0.98
2399.94	0.98
2408.69	0.9792
2417.45	0.98
2426.2	0.98
2434.95	0.98
2443.7	0.98
2452.45	0.978
2461.2	0.975
2469.95	0.9738
2478.71	0.974
2487.46	0.9764
2496.21	0.9835
2504.96	0.989
2513.71	0.991
2522.46	0.993
2531.21	0.994
2539.97	0.994
2548.72	0.994
2557.47	0.994
2566.22	0.994
2574.97	0.9903
2583.72	0.9853
2592.47	0.9792
2601.23	0.9788
2609.98	0.9859
2618.73	0.987
2627.48	0.987
2636.23	0.987
2644.98	0.987
2653.73	0.987
2662.49	0.987
2671.24	0.987
2679.99	0.987
2688.74	0.987
2697.49	0.9856
2706.24	0.9796
2715	0.9755
2723.75	0.969
2732.5	0.9564
2741.25	0.9516
2750	0.9637
2758.75	0.9741
2767.5	0.978
2776.26	0.978
2785.01	0.978
2793.76	0.9751
2802.51	0.9681
2811.26	0.959
2820.01	0.9509
2828.76	0.9437
2837.52	0.9262
2846.27	0.8866
2855.02	0.7974
2863.77	0.7627
2872.52	0.7573
2881.27	0.7419
2890.02	0.729
2898.78	0.7302
2907.53	0.7288
2916.28	0.6201
2925.03	0.5559
2933.78	0.5957
2942.53	0.547
2951.28	0.5175
2960.04	0.5848
2968.79	0.6254
2977.54	0.6367
2986.29	0.6569
2995.04	0.676
3003.79	0.6384
3012.54	0.6257
3021.3	0.5945
3030.05	0.6263
3038.8	0.6988
3047.55	0.6893
3056.3	0.7065
3065.05	0.8304
3073.81	0.8775
3082.56	0.8875
3091.31	0.889
3100.06	0.8788
3108.81	0.912
3117.56	0.9334
3126.31	0.937
3135.07	0.937
3143.82	0.936
3152.57	0.9479
3161.32	0.952
3170.07	0.956
3178.82	0.956
3187.57	0.956
3196.33	0.956
3205.08	0.957
3213.83	0.957
3222.58	0.957
3231.33	0.957
3240.08	0.957
3248.83	0.956
3257.59	0.956
3266.34	0.955
3275.09	0.953
3283.84	0.953
3292.59	0.952
3301.34	0.951
3310.09	0.949
3318.85	0.948
3327.6	0.948
3336.35	0.948
3345.1	0.947
3353.85	0.947
3362.6	0.947
3371.35	0.945
3380.11	0.9437
3388.86	0.942
3397.61	0.942
3406.36	0.941
3415.11	0.94
3423.86	0.937
3432.62	0.9351
3441.37	0.933
3450.12	0.9284
3458.87	0.9152
3467.62	0.9064
3476.37	0.8953
3485.12	0.8987
3493.88	0.9148
3502.63	0.9228
3511.38	0.9269
3520.13	0.927
3528.88	0.926
3537.63	0.925
3546.38	0.923
3555.14	0.923
3563.89	0.9233
3572.64	0.927
3581.39	0.9305
3590.14	0.9333
3598.89	0.936
3607.64	0.938
3616.4	0.937
3625.15	0.937
3633.9	0.937
3642.65	0.9392
3651.4	0.941
3660.15	0.94
3668.9	0.9403
3677.66	0.938
3686.41	0.9343
3695.16	0.933
3703.91	0.934
3712.66	0.936
3721.41	0.938
3730.16	0.94
3738.92	0.94
3747.67	0.941
3756.42	0.941
3765.17	0.942
3773.92	0.942
3782.67	0.942
