Infrared Spectrum: 2-Bromononane
Formula: C9 H19 Br
CAS: 2216-35-5
State: SOLUTION (10% CCl4 FOR 3800-1330, 10% CS2 FOR 1330-400 CM^-^1) VS SOLVENT
Class: COBLENTZ III
Instrument: DOW KBr FOREPRISM-GRATING
Instrument parameters: BLAZED AT 3.5, 12.0, 20.0 MICRON AND CHANGED AT 5.0, 7.5, 14.9 MICRON
Sampling: TRANSMISSION
Path length: 0.011 CM, 0.011 CM
Resolution: 2
Origin: DOW CHEMICAL COMPANY
1/CM	TRANSMITTANCE
382	1.0261
391	1.0347
400	1.0409
409	1.0411
418	1.0365
427	1.0296
436	1.018
445	1.0028
454	0.9839
463	0.9684
472	0.9642
481	0.9491
490	0.9398
499	0.9337
508	0.9099
517	0.8734
526	0.8334
535	0.78
544	0.7781
553	0.8937
562	0.9143
571	0.9181
580	0.9138
589	0.9128
598	0.9125
607	0.8675
616	0.8057
625	0.9149
634	0.9578
643	0.9681
652	0.9691
661	0.9794
670	0.9807
679	0.9806
688	0.9871
697	0.9966
706	0.986
715	0.9318
724	0.8058
733	0.9178
742	0.9136
751	0.9235
760	0.9268
769	0.917
778	0.917
787	0.928
796	0.9356
805	0.9352
814	0.9397
823	0.9497
832	0.9638
841	0.9737
850	0.9911
859	0.9871
868	0.9684
877	0.9547
886	0.9395
895	0.9006
904	0.9427
913	0.9801
922	0.9759
931	0.9654
940	0.9659
949	0.9428
958	0.9142
967	0.8938
976	0.8918
985	0.8796
994	0.8954
1003	0.8946
1012	0.9011
1021	0.9224
1030	0.9418
1039	0.9413
1048	0.9338
1057	0.9194
1066	0.9101
1075	0.9087
1084	0.9081
1093	0.8992
1102	0.9066
1111	0.9041
1120	0.8771
1129	0.8298
1138	0.7683
1147	0.7661
1156	0.8471
1165	0.801
1174	0.7712
1183	0.7958
1192	0.7721
1201	0.7015
1210	0.6842
1219	0.7112
1228	0.7083
1237	0.8086
1246	0.7305
1255	0.7897
1264	0.8121
1273	0.8281
1282	0.7949
1291	0.8064
1300	0.8169
1309	0.8375
1318	0.8654
1327	0.8699
1336	0.8615
1345	0.8545
1354	0.8223
1363	0.7875
1372	0.7031
1381	0.3991
1390	0.8586
1399	0.8825
1408	0.8809
1417	0.862
1426	0.7696
1435	0.7221
1444	0.5324
1453	0.4234
1462	0.4273
1471	0.6228
1480	0.8685
1489	0.9028
1498	0.9233
1507	0.9384
1516	0.9425
1525	0.9628
1534	0.98
1543	0.9839
1552	0.9765
1561	0.969
1570	0.9633
1579	0.9625
1588	0.9614
1597	0.9495
1606	0.9418
1615	0.9388
1624	0.9349
1633	0.9273
1642	0.9282
1651	0.9327
1660	0.938
1669	0.9427
1678	0.9459
1687	0.946
1696	0.9442
1705	0.9425
1714	0.9409
1723	0.9391
1732	0.9398
1741	0.9467
1750	0.952
1759	0.9577
1768	0.9641
1777	0.9702
1786	0.975
1795	0.9778
1804	0.9804
1813	0.9825
1822	0.983
1831	0.9834
1840	0.9836
1849	0.9839
1858	0.9839
1867	0.984
1876	0.984
1885	0.9841
1894	0.984
1903	0.9834
1912	0.9828
1921	0.9825
1930	0.9823
1939	0.9821
1948	0.9818
1957	0.9809
1966	0.9834
1975	0.9828
1984	0.9823
1993	0.9837
2002	0.968
2011	0.9683
2020	0.97
2029	0.971
2038	0.9717
2047	0.972
2056	0.9721
2065	0.9721
2074	0.9721
2083	0.972
2092	0.972
2101	0.972
2110	0.972
2119	0.972
2128	0.972
2137	0.972
2146	0.9718
2155	0.9718
2164	0.9718
2173	0.9718
2182	0.9718
2191	0.9718
2200	0.9718
2209	0.9718
2218	0.9718
2227	0.9718
2236	0.9718
2245	0.9721
2254	0.9727
2263	0.9728
2272	0.973
2281	0.9714
2290	0.9681
2299	0.9707
2308	0.9758
2317	0.9761
2326	0.9756
2335	0.9746
2344	0.9737
2353	0.9728
2362	0.9721
2371	0.9713
2380	0.9706
2389	0.9699
2398	0.9694
2407	0.969
2416	0.9688
2425	0.9693
2434	0.9702
2443	0.971
2452	0.9709
2461	0.9704
2470	0.9692
2479	0.9678
2488	0.9665
2497	0.965
2506	0.9639
2515	0.9627
2524	0.9617
2533	0.9604
2542	0.9591
2551	0.9575
2560	0.9563
2569	0.9548
2578	0.9534
2587	0.9518
2596	0.9506
2605	0.9493
2614	0.948
2623	0.9461
2632	0.9442
2641	0.9404
2650	0.9368
2659	0.936
2668	0.9356
2677	0.9348
2686	0.9336
2695	0.9321
2704	0.9296
2713	0.9198
2722	0.9095
2731	0.9287
2740	0.9323
2749	0.9309
2758	0.9277
2767	0.9198
2776	0.911
2785	0.9004
2794	0.8858
2803	0.8627
2812	0.8189
2821	0.7007
2830	0.6101
2839	0.4587
2848	0.2381
2857	0.1566
2866	0.2779
2875	0.3705
2884	0.4098
2893	0.3076
2902	0.2068
2911	0.106
2920	0.0322
2929	0.0329
2938	0.0618
2947	0.1487
2956	0.1034
2965	0.1202
2974	0.3702
2983	0.466
2992	0.6138
3001	0.8293
3010	0.8721
3019	0.8908
3028	0.905
3037	0.9153
3046	0.9217
3055	0.927
3064	0.9308
3073	0.9331
3082	0.9362
3091	0.9394
3100	0.9412
3109	0.9424
3118	0.9435
3127	0.9442
3136	0.9439
3145	0.9436
3154	0.9432
3163	0.9425
3172	0.9423
3181	0.9421
3190	0.9421
3199	0.9418
3208	0.9427
3217	0.9437
3226	0.9447
3235	0.9458
3244	0.9468
3253	0.948
3262	0.9492
3271	0.9505
3280	0.9518
3289	0.953
3298	0.9537
3307	0.9544
3316	0.9552
3325	0.9558
3334	0.9565
3343	0.9571
3352	0.9575
3361	0.9575
3370	0.9577
3379	0.9578
3388	0.9578
3397	0.9578
3406	0.9578
3415	0.9596
3424	0.9615
3433	0.963
3442	0.9645
3451	0.966
3460	0.9678
3469	0.9699
3478	0.9718
3487	0.9738
3496	0.9754
3505	0.9771
3514	0.9778
3523	0.978
3532	0.9783
3541	0.9784
3550	0.9785
3559	0.978
3568	0.9771
3577	0.9754
3586	0.9768
3595	0.9778
3604	0.9687
3613	0.975
3622	0.9768
3631	0.9774
3640	0.9773
3649	0.9778
3658	0.9781
3667	0.9778
3676	0.9775
3685	0.977
3694	0.9771
3703	0.9827
3712	0.9845
3721	0.9857
3730	0.9857
3739	0.9852
3748	0.9848
3757	0.9843
3766	0.9836
3775	0.983
3784	0.983
3793	0.983
