Infrared Spectrum: ETHER, 2-NITRODIPHENYL,
Formula: C12 H9 N O3
CAS: 2216-12-8
State: SOLUTION (10% CCl4 FOR 3800-1330, 10% CS2 FOR 1330-400 CM^-^1)
Class: COBLENTZ II
Instrument: DOW KBr FOREPRISM-GRATING
Instrument parameters: BLAZED AT 3.5, 12.0, 20.0 MICRON AND CHANGED AT 5.0, 7.5, 14.9 MICRON
Sampling: TRANSMISSION
Path length: 0.011 CM, 0.011 CM
Resolution: 2
Origin: DOW CHEMICAL COMPANY
1/CM	TRANSMITTANCE
391	0.4519
400	0.5158
409	0.7028
418	0.8608
427	0.878
436	0.8882
445	0.8992
454	0.8977
463	0.8766
472	0.8218
481	0.7201
490	0.5962
499	0.7411
508	0.8353
517	0.8916
526	0.9151
535	0.9205
544	0.9218
553	0.9203
562	0.913
571	0.8975
580	0.9175
589	0.9203
598	0.9064
607	0.9007
616	0.8663
625	0.8609
634	0.872
643	0.8341
652	0.6924
661	0.3786
670	0.7988
679	0.7815
688	0.1726
697	0.4921
706	0.6483
715	0.7951
724	0.775
733	0.631
742	0.0477
751	0.0702
760	0.583
769	0.4566
778	0.3643
787	0.5758
796	0.4334
805	0.6654
814	0.7926
823	0.7762
832	0.6874
841	0.1457
850	0.6675
859	0.6749
868	0.6686
877	0.475
886	0.3442
895	0.74
904	0.7046
913	0.8295
922	0.8749
931	0.8749
940	0.8225
949	0.8306
958	0.8604
967	0.8625
976	0.8549
985	0.8718
994	0.8685
1003	0.8549
1012	0.8423
1021	0.5284
1030	0.804
1039	0.7822
1048	0.8712
1057	0.8628
1066	0.6981
1075	0.7771
1084	0.6253
1093	0.7801
1102	0.8468
1111	0.8733
1120	0.8697
1129	0.8485
1138	0.781
1147	0.6993
1156	0.3829
1165	0.5821
1174	0.7071
1183	0.6469
1192	0.2961
1201	0.4207
1210	0.6265
1219	0.6147
1228	0.3975
1237	0.1035
1246	0.0111
1255	0.0391
1264	0.0685
1273	0.2287
1282	0.5118
1291	0.5641
1300	0.5433
1309	0.4496
1318	0.6112
1327	0.5686
1336	0.4638
1345	0.2051
1354	0.0417
1363	0.1549
1372	0.4375
1381	0.6846
1390	0.7362
1399	0.776
1408	0.8137
1417	0.8288
1426	0.8285
1435	0.8043
1444	0.7311
1453	0.5008
1462	0.526
1471	0.2605
1480	0.0285
1489	0.0167
1498	0.2248
1507	0.3612
1516	0.2951
1525	0.0417
1534	0.0081
1543	0.0501
1552	0.2324
1561	0.3368
1570	0.3624
1579	0.242
1588	0.0341
1597	0.0604
1606	0.2872
1615	0.2906
1624	0.6689
1633	0.7537
1642	0.8075
1651	0.8396
1660	0.8547
1669	0.8587
1678	0.8571
1687	0.8664
1696	0.8654
1705	0.8615
1714	0.8589
1723	0.8614
1732	0.86
1741	0.8753
1750	0.8802
1759	0.8825
1768	0.8791
1777	0.8718
1786	0.8714
1795	0.8685
1804	0.8689
1813	0.8762
1822	0.8761
1831	0.8721
1840	0.869
1849	0.8678
1858	0.8634
1867	0.8648
1876	0.8744
1885	0.8735
1894	0.8782
1903	0.8773
1912	0.8655
1921	0.848
1930	0.833
1939	0.835
1948	0.844
1957	0.8431
1966	0.8649
1975	0.8768
1984	0.8741
1993	0.8691
2002	0.8947
2011	0.9001
2020	0.901
2029	0.8921
2038	0.8716
2047	0.8794
2056	0.8921
2065	0.8997
2074	0.9001
2083	0.9052
2092	0.9135
2101	0.9159
2110	0.9162
2119	0.9161
2128	0.916
2137	0.9147
2146	0.9134
2155	0.9118
2164	0.913
2173	0.9138
2182	0.9139
2191	0.914
2200	0.9155
2209	0.9154
2218	0.9135
2227	0.9114
2236	0.9058
2245	0.9034
2254	0.903
2263	0.9009
2272	0.8965
2281	0.8918
2290	0.8912
2299	0.8918
2308	0.8886
2317	0.8824
2326	0.8784
2335	0.8818
2344	0.8871
2353	0.8833
2362	0.8801
2371	0.8799
2380	0.8814
2389	0.8825
2398	0.884
2407	0.8871
2416	0.8896
2425	0.8867
2434	0.8785
2443	0.8708
2452	0.8768
2461	0.8871
2470	0.8878
2479	0.885
2488	0.8798
2497	0.8813
2506	0.8912
2515	0.8955
2524	0.8974
2533	0.8978
2542	0.8974
2551	0.8961
2560	0.8924
2569	0.8861
2578	0.8875
2587	0.8938
2596	0.8946
2605	0.8923
2614	0.8911
2623	0.8927
2632	0.8961
2641	0.8978
2650	0.8986
2659	0.8975
2668	0.8946
2677	0.8917
2686	0.891
2695	0.8911
2704	0.8913
2713	0.8906
2722	0.8873
2731	0.8838
2740	0.8813
2749	0.8833
2758	0.8905
2767	0.8944
2776	0.894
2785	0.8914
2794	0.8902
2803	0.89
2812	0.8914
2821	0.8881
2830	0.8807
2839	0.8743
2848	0.8693
2857	0.8513
2866	0.8359
2875	0.8273
2884	0.8428
2893	0.8635
2902	0.875
2911	0.8834
2920	0.8847
2929	0.8809
2938	0.8767
2947	0.8777
2956	0.8811
2965	0.8846
2974	0.8873
2983	0.8882
2992	0.8862
3001	0.8771
3010	0.8592
3019	0.8264
3028	0.7894
3037	0.7661
3046	0.6988
3055	0.7421
3064	0.7114
3073	0.6868
3082	0.6843
3091	0.7634
3100	0.7976
3109	0.8347
3118	0.862
3127	0.8748
3136	0.8808
3145	0.8833
3154	0.8846
3163	0.8856
3172	0.8867
3181	0.8878
3190	0.8891
3199	0.8904
3208	0.8928
3217	0.8953
3226	0.8971
3235	0.8988
3244	0.9003
3253	0.9017
3262	0.9032
3271	0.9046
3280	0.9053
3289	0.9056
3298	0.906
3307	0.9063
3316	0.9067
3325	0.9068
3334	0.9074
3343	0.9086
3352	0.9105
3361	0.9123
3370	0.9137
3379	0.9147
3388	0.915
3397	0.9152
3406	0.9142
3415	0.9132
3424	0.9121
3433	0.91
3442	0.9078
3451	0.9064
3460	0.9062
3469	0.906
3478	0.9047
3487	0.9033
3496	0.902
3505	0.901
3514	0.9002
3523	0.8993
3532	0.8986
3541	0.8978
3550	0.897
3559	0.8964
3568	0.8958
3577	0.8952
3586	0.8946
3595	0.8942
3604	0.8939
3613	0.8935
3622	0.8928
3631	0.8921
3640	0.8916
3649	0.8913
3658	0.891
3667	0.8906
3676	0.8904
3685	0.8902
3694	0.89
3703	0.8897
3712	0.8896
3721	0.8894
3730	0.8892
3739	0.8889
3748	0.8887
3757	0.8884
3766	0.8882
