Infrared Spectrum: ACETOPHENONE: 2',4',6'-TRIISOPROPYL
Formula: C17 H26 O
CAS: 2234-14-2
State: SOLUTION (10% IN CCl4 FOR 3800-1333, 10% IN CS2 FOR 1333-430 CM^-^1)
Class: COBLENTZ
Instrument: Not specified, most likely a prism, grating, or hybrid spectrometer.
Sampling: TRANSMISSION
Path length: 0.010 AND 0.010 CM
Resolution: 4
Origin: DOW CHEMICAL COMPANY
1/CM	TRANSMITTANCE
449.133	1.042
458.597	1.047
468.06	1.062
477.524	1.073
486.988	1.082
496.452	1.093
505.915	1.093
515.379	1.097
524.843	1.097
534.307	1.084
543.77	1.055
553.234	1.0121
562.698	0.954
572.161	0.6822
581.625	0.8929
591.089	1
600.553	1.053
610.016	1.06
619.48	1.051
628.944	1.036
638.407	1.009
647.871	0.8691
657.335	0.8307
666.799	1.005
676.262	0.965
685.726	1.001
695.19	1.031
704.654	1.029
714.117	1.029
723.581	1.031
733.045	1.034
742.508	1.036
751.972	1.034
761.436	1.025
770.9	0.961
780.363	0.948
789.827	1.023
799.291	1.027
808.754	1.023
818.218	0.992
827.682	1.022
837.146	0.9771
846.609	0.913
856.073	0.838
865.537	0.838
875.001	0.271
884.464	0.7629
893.928	0.9649
903.392	1.001
912.855	0.994
922.319	0.902
931.783	0.8952
941.247	0.675
950.71	0.853
960.174	0.5681
969.638	0.842
979.101	0.976
988.565	1.001
998.029	1.007
1007.49	0.988
1016.96	0.996
1026.42	0.996
1035.88	0.976
1045.35	0.8511
1054.81	0.856
1064.27	0.6491
1073.74	0.8793
1083.2	0.941
1092.67	0.8201
1102.13	0.611
1111.59	0.849
1121.06	0.932
1130.52	0.851
1139.98	0.979
1149.45	0.917
1158.91	0.974
1168.38	0.8691
1177.84	0.977
1187.3	0.95
1196.77	1.007
1206.23	0.994
1215.69	0.974
1225.16	0.8711
1234.62	0.2421
1244.09	0.249
1253.55	0.699
1263.01	0.6771
1272.48	0.6971
1281.94	0.697
1291.4	0.895
1300.87	0.882
1310.33	0.878
1319.8	0.807
1329.26	0.847
1338.72	0.803
1348.19	0.563
1357.65	0.2708
1367.11	0.1397
1376.58	0.776
1386.04	0.3651
1395.51	0.792
1404.97	0.7651
1414.43	0.6031
1423.9	0.477
1433.36	0.642
1442.82	0.693
1452.29	0.526
1461.75	0.1261
1471.22	0.3879
1480.68	0.728
1490.14	0.823
1499.61	0.811
1509.07	0.766
1518.53	0.722
1528	0.671
1537.46	0.585
1546.92	0.482
1556.39	0.488
1565.85	0.521
1575.32	0.466
1584.78	0.666
1594.24	0.675
1603.71	0.5192
1613.17	0.6138
1622.63	0.855
1632.1	0.924
1641.56	0.946
1651.03	0.939
1660.49	0.891
1669.95	0.882
1679.42	0.851
1688.88	0.6311
1698.34	0.022
1707.81	0.2138
1717.27	0.704
1726.74	0.827
1736.2	0.831
1745.66	0.878
1755.13	0.911
1764.59	0.891
1774.05	0.932
1783.52	0.943
1792.98	0.968
1802.45	0.972
1811.91	0.976
1821.37	0.974
1830.84	0.976
1840.3	0.977
1849.76	0.977
1859.23	0.981
1868.69	0.985
1878.16	0.985
1887.62	0.987
1897.08	0.985
1906.55	0.985
1916.01	0.983
1925.47	0.987
1934.94	0.988
1944.4	0.992
1953.86	0.992
1963.33	0.99
1972.79	0.99
1982.26	0.985
1991.72	0.987
2001.18	0.979
2010.65	0.994
2020.11	0.997
2029.57	0.997
2039.04	1.0005
2048.5	1.004
2057.97	1.001
2067.43	1
2076.89	1.005
2086.36	1.003
2095.82	1.001
2105.28	1.001
2114.75	1.001
2124.21	1
2133.68	1.0006
2143.14	1.001
2152.6	1.0004
2162.07	1.001
2171.53	1
2180.99	0.998
2190.46	0.998
2199.92	0.996
2209.39	0.996
2218.85	0.994
2228.31	0.992
2237.78	0.99
2247.24	0.9888
2256.7	0.9858
2266.17	0.979
2275.63	0.976
2285.1	0.9687
2294.56	0.966
2304.02	0.9693
2313.49	0.976
2322.95	0.9823
2332.41	0.9817
2341.88	0.9863
2351.34	0.9933
2360.8	0.996
2370.27	0.9907
2379.73	0.9857
2389.2	0.987
2398.66	0.985
2408.12	0.987
2417.59	0.988
2427.05	0.988
2436.51	0.99
2445.98	0.988
2455.44	0.9856
2464.91	0.979
2474.37	0.9824
2483.83	0.9776
2493.3	0.9844
2502.76	0.987
2512.22	0.988
2521.69	0.987
2531.15	0.985
2540.62	0.985
2550.08	0.9795
2559.54	0.9763
2569.01	0.9725
2578.47	0.968
2587.93	0.9675
2597.4	0.97
2606.86	0.9735
2616.33	0.974
2625.79	0.974
2635.25	0.976
2644.72	0.972
2654.18	0.9684
2663.64	0.968
2673.11	0.97
2682.57	0.97
2692.04	0.968
2701.5	0.9581
2710.96	0.9447
2720.43	0.9374
2729.89	0.9444
2739.35	0.9553
2748.82	0.947
2758.28	0.9367
2767.75	0.946
2777.21	0.9443
2786.67	0.9373
2796.14	0.9223
2805.6	0.8825
2815.06	0.891
2824.53	0.884
2833.99	0.8754
2843.45	0.8138
2852.92	0.7529
2862.38	0.496
2871.85	0.2586
2881.31	0.3712
2890.77	0.3852
2900.24	0.3212
2909.7	0.3098
2919.16	0.2684
2928.63	0.122
2938.09	0.181
2947.56	0.1696
2957.02	0.0132
2966.48	0.011
2975.95	0.05
2985.41	0.3537
2994.87	0.5725
3004.34	0.6879
3013.8	0.7607
3023.27	0.7956
3032.73	0.8333
3042.19	0.855
3051.66	0.8235
3061.12	0.8486
3070.58	0.8949
3080.05	0.9169
3089.51	0.948
3098.98	0.957
3108.44	0.965
3117.9	0.966
3127.37	0.968
3136.83	0.968
3146.29	0.97
3155.76	0.97
3165.22	0.966
3174.69	0.963
3184.15	0.963
3193.61	0.9631
3203.08	0.965
3212.54	0.968
3222	0.9741
3231.47	0.9811
3240.93	0.9871
3250.39	0.9921
3259.86	0.9941
3269.32	0.9981
3278.79	1
3288.25	1.0001
3297.71	1.001
3307.18	1.001
3316.64	1.001
3326.1	1.001
3335.57	1.001
3345.03	1.001
3354.5	1.001
3363.96	0.9975
3373.42	0.9805
3382.89	0.9605
3392.35	0.9864
3401.81	1.0016
3411.28	1.009
3420.74	1.009
3430.21	1.0067
3439.67	1.003
3449.13	1.003
3458.6	1.001
3468.06	1.001
3477.52	1.001
3486.99	1.0008
3496.45	1
3505.92	1
3515.38	0.9996
3524.84	0.998
3534.31	0.996
3543.77	0.994
3553.23	0.994
3562.7	0.992
3572.16	0.99
3581.63	0.99
3591.09	0.99
3600.55	0.992
3610.02	0.988
3619.48	0.988
3628.94	0.99
3638.41	0.99
3647.87	0.992
3657.33	0.9915
3666.8	0.988
3676.26	0.99
3685.73	0.9905
3695.19	0.994
3704.65	0.992
3714.12	0.99
3723.58	0.9926
3733.04	0.998
3742.51	0.9934
3751.97	0.9926
3761.44	0.996
3770.9	0.9954
3780.36	0.9934
3789.83	0.988
