Infrared Spectrum: 2',4'-DICHLOROACETOPHENONE
Formula: C8 H6 Cl2 O
CAS: 2234-16-4
State: SOLUTION (10% IN CCl4 FOR 3800-1340 CM^-^1, 5% IN CS2 FOR 1340-400 CM^-^1)
Melting point: 30 C
Class: COBLENTZ III
Instrument: DOW KBr FOREPRISM-GRATING
Instrument parameters: GRATING BLAZED AT 3.5, 12.0, 20.0 MICRONS AND CHANGED AT 5.0, 7.5, 14.9 MICRONS
Sampling: TRANSMISSION
Path length: 0.011 CM, 0.022 CM
Resolution: 4
Origin: DOW CHEMICAL COMPANY
1/CM	TRANSMITTANCE
378.046	0.455
386.828	0.447
395.609	0.454
404.391	0.505
413.172	0.604
421.954	0.664
430.735	0.733
439.517	0.783
448.299	0.795
457.08	0.774
465.862	0.725
474.643	0.759
483.425	0.81
492.207	0.824
500.988	0.795
509.77	0.703
518.551	0.682
527.333	0.767
536.114	0.846
544.896	0.871
553.678	0.866
562.459	0.831
571.241	0.745
580.022	0.802
588.804	0.75
597.586	0.704
606.367	0.849
615.149	0.868
623.93	0.796
632.712	0.776
641.493	0.832
650.275	0.806
659.057	0.835
667.838	0.872
676.62	0.794
685.401	0.888
694.183	0.926
702.965	0.935
711.746	0.926
720.528	0.926
729.309	0.948
738.091	0.957
746.872	0.965
755.654	0.969
764.436	0.966
773.217	0.954
781.999	0.937
790.78	0.91
799.562	0.82
808.343	0.3999
817.125	0.085
825.907	0.133
834.688	0.719
843.47	0.744
852.251	0.625
861.033	0.537
869.815	0.3201
878.596	0.755
887.378	0.87
896.159	0.937
904.941	0.962
913.722	0.968
922.504	0.968
931.286	0.954
940.067	0.914
948.849	0.792
957.63	0.66
966.412	0.617
975.194	0.842
983.975	0.924
992.757	0.93
1001.54	0.901
1010.32	0.832
1019.1	0.857
1027.88	0.838
1036.66	0.473
1045.45	0.831
1054.23	0.908
1063.01	0.912
1071.79	0.889
1080.57	0.785
1089.35	0.2609
1098.14	0.343
1106.92	0.39
1115.7	0.737
1124.48	0.867
1133.26	0.7719
1142.04	0.701
1150.83	0.897
1159.61	0.944
1168.39	0.946
1177.17	0.94
1185.95	0.925
1194.73	0.901
1203.51	0.896
1212.3	0.866
1221.08	0.7009
1229.86	0.107
1238.64	0.3631
1247.42	0.686
1256.2	0.545
1264.99	0.0979
1273.77	0.4331
1282.55	0.7191
1291.33	0.872
1300.11	0.912
1308.89	0.91
1317.68	0.907
1326.46	0.872
1335.24	0.812
1344.02	0.719
1352.8	0.2629
1361.58	0.418
1370.36	0.1419
1379.15	0.3541
1387.93	0.624
1396.71	0.722
1405.49	0.758
1414.27	0.69
1423.05	0.606
1431.84	0.628
1440.62	0.691
1449.4	0.725
1458.18	0.5909
1466.96	0.3591
1475.74	0.6741
1484.53	0.812
1493.31	0.798
1502.09	0.755
1510.87	0.72
1519.65	0.672
1528.43	0.603
1537.21	0.488
1546	0.3019
1554.78	0.215
1563.56	0.374
1572.34	0.2729
1581.12	0.038
1589.9	0.2302
1598.69	0.6451
1607.47	0.784
1616.25	0.831
1625.03	0.848
1633.81	0.842
1642.59	0.843
1651.38	0.802
1660.16	0.784
1668.94	0.6849
1677.72	0.3208
1686.5	0.049
1695.28	0.052
1704.06	0.066
1712.85	0.2881
1721.63	0.6291
1730.41	0.762
1739.19	0.827
1747.97	0.878
1756.75	0.895
1765.54	0.91
1774.32	0.921
1783.1	0.932
1791.88	0.943
1800.66	0.954
1809.44	0.953
1818.23	0.951
1827.01	0.953
1835.79	0.957
1844.57	0.957
1853.35	0.951
1862.13	0.951
1870.91	0.957
1879.7	0.953
1888.48	0.936
1897.26	0.932
1906.04	0.936
1914.82	0.94
1923.6	0.947
1932.39	0.954
1941.17	0.958
1949.95	0.962
1958.73	0.964
1967.51	0.959
1976.29	0.958
1985.08	0.953
1993.86	0.955
2002.64	0.96
2011.42	0.962
2020.2	0.964
2028.98	0.964
2037.76	0.96
2046.55	0.957
2055.33	0.955
2064.11	0.955
2072.89	0.957
2081.67	0.958
2090.45	0.9616
2099.24	0.965
2108.02	0.968
2116.8	0.968
2125.58	0.966
2134.36	0.966
2143.14	0.966
2151.93	0.966
2160.71	0.966
2169.49	0.966
2178.27	0.965
2187.05	0.965
2195.83	0.964
2204.61	0.964
2213.4	0.964
2222.18	0.9646
2230.96	0.964
2239.74	0.962
2248.52	0.959
2257.3	0.957
2266.09	0.9533
2274.87	0.948
2283.65	0.943
2292.43	0.9403
2301.21	0.937
2309.99	0.9363
2318.78	0.936
2327.56	0.9397
2336.34	0.9437
2345.12	0.951
2353.9	0.954
2362.68	0.954
2371.46	0.954
2380.25	0.955
2389.03	0.9587
2397.81	0.959
2406.59	0.959
2415.37	0.962
2424.15	0.965
2432.94	0.966
2441.72	0.966
2450.5	0.968
2459.28	0.968
2468.06	0.97
2476.84	0.969
2485.63	0.968
2494.41	0.965
2503.19	0.964
2511.97	0.965
2520.75	0.968
2529.53	0.968
2538.31	0.964
2547.1	0.9593
2555.88	0.9658
2564.66	0.9699
2573.44	0.9759
2582.22	0.976
2591	0.975
2599.79	0.975
2608.57	0.976
2617.35	0.9751
2626.13	0.9721
2634.91	0.972
2643.69	0.97
2652.48	0.969
2661.26	0.9729
2670.04	0.9769
2678.82	0.975
2687.6	0.9681
2696.38	0.9729
2705.16	0.977
2713.95	0.982
2722.73	0.982
2731.51	0.982
2740.29	0.984
2749.07	0.987
2757.85	0.987
2766.64	0.986
2775.42	0.984
2784.2	0.983
2792.98	0.98
2801.76	0.98
2810.54	0.979
2819.33	0.979
2828.11	0.98
2836.89	0.98
2845.67	0.98
2854.45	0.982
2863.23	0.984
2872.02	0.986
2880.8	0.986
2889.58	0.986
2898.36	0.984
2907.14	0.982
2915.92	0.9758
2924.7	0.9689
2933.49	0.9691
2942.27	0.969
2951.05	0.968
2959.83	0.9638
2968.61	0.9536
2977.39	0.9369
2986.18	0.9318
2994.96	0.9185
3003.74	0.8944
3012.52	0.8938
3021.3	0.9321
3030.08	0.9417
3038.87	0.9553
3047.65	0.959
3056.43	0.9567
3065.21	0.9425
3073.99	0.935
3082.77	0.9345
3091.55	0.9089
3100.34	0.9106
3109.12	0.947
3117.9	0.9656
3126.68	0.975
3135.46	0.979
3144.24	0.98
3153.03	0.982
3161.81	0.982
3170.59	0.9845
3179.37	0.988
3188.15	0.9932
3196.93	0.997
3205.72	0.998
3214.5	0.998
3223.28	1
3232.06	1.0003
3240.84	1.001
3249.62	1.001
3258.4	1.001
3267.19	1.001
3275.97	1
3284.75	0.998
3293.53	1
3302.31	1
3311.09	1
3319.88	0.997
3328.66	0.994
3337.44	0.9907
3346.22	0.9853
3355	0.98
3363.78	0.9727
3372.57	0.969
3381.35	0.969
3390.13	0.97
3398.91	0.973
3407.69	0.979
3416.47	0.9824
3425.25	0.9888
3434.04	0.9918
3442.82	0.993
3451.6	0.993
3460.38	0.993
3469.16	0.991
3477.94	0.991
3486.73	0.991
3495.51	0.991
3504.29	0.99
3513.07	0.988
3521.85	0.987
3530.63	0.9865
3539.42	0.984
3548.2	0.984
3556.98	0.984
3565.76	0.984
3574.54	0.983
3583.32	0.983
3592.1	0.982
3600.89	0.982
3609.67	0.982
3618.45	0.982
3627.23	0.982
3636.01	0.98
3644.79	0.978
3653.58	0.976
3662.36	0.977
3671.14	0.976
3679.92	0.975
3688.7	0.973
3697.48	0.9709
3706.27	0.972
3715.05	0.975
3723.83	0.975
3732.61	0.973
3741.39	0.973
3750.17	0.972
3758.95	0.975
3767.74	0.9708
3776.52	0.968
3785.3	0.9694
3794.08	0.968
