Infrared Spectrum: 1-Methyl-3-phenylpropylamine
Formula: C10 H15 N
CAS: 22374-89-6
State: LIQUID (NEAT)
Class: COBLENTZ III
Instrument: DOW KBr FOREPRISM-GRATING
Instrument parameters: BLAZED AT 3.5, 12.0, 20.0 MICRON AND CHANGED AT 5.0, 7.5, 14.9 MICRON
Sampling: TRANSMISSION
Path length: CAPILLARY
Resolution: 2
Origin: DOW CHEMICAL COMPANY
1/CM	TRANSMITTANCE
3800	0.8749
3791	0.875
3782	0.8814
3773	0.883
3764	0.8828
3755	0.8825
3746	0.8821
3737	0.8818
3728	0.8814
3719	0.8809
3710	0.88
3701	0.8774
3692	0.8693
3683	0.8611
3674	0.8528
3665	0.8451
3656	0.8395
3647	0.8383
3638	0.8502
3629	0.8517
3620	0.8516
3611	0.8513
3602	0.8488
3593	0.8443
3584	0.8392
3575	0.8339
3566	0.8282
3557	0.8213
3548	0.8145
3539	0.8075
3530	0.8006
3521	0.7936
3512	0.7865
3503	0.7794
3494	0.7725
3485	0.7671
3476	0.7618
3467	0.7564
3458	0.7504
3449	0.7446
3440	0.7393
3431	0.734
3422	0.7286
3413	0.7215
3404	0.7085
3395	0.6514
3386	0.6122
3377	0.5856
3368	0.5779
3359	0.5927
3350	0.6172
3341	0.6418
3332	0.6498
3323	0.6474
3314	0.6362
3305	0.6235
3296	0.6152
3287	0.6154
3278	0.624
3269	0.6408
3260	0.6571
3251	0.6705
3242	0.6801
3233	0.6876
3224	0.69
3215	0.6912
3206	0.6921
3197	0.6928
3188	0.6943
3179	0.6987
3170	0.7096
3161	0.7218
3152	0.7312
3143	0.7393
3134	0.7468
3125	0.7465
3116	0.7275
3107	0.7064
3098	0.5955
3089	0.5686
3080	0.6119
3071	0.4617
3062	0.5201
3053	0.5892
3044	0.397
3035	0.2766
3026	0.4348
3017	0.6009
3008	0.5924
2999	0.6204
2990	0.5397
2981	0.3668
2972	0.1939
2963	0.1374
2954	0.1806
2945	0.1826
2936	0.1322
2927	0.1258
2918	0.1442
2909	0.2229
2900	0.3575
2891	0.3886
2882	0.3758
2873	0.3208
2864	0.2952
2855	0.3259
2846	0.4198
2837	0.5236
2828	0.5707
2819	0.654
2810	0.7061
2801	0.7365
2792	0.7571
2783	0.7749
2774	0.7868
2765	0.791
2756	0.7921
2747	0.7932
2738	0.7944
2729	0.7987
2720	0.8055
2711	0.8133
2702	0.8188
2693	0.8223
2684	0.8221
2675	0.8193
2666	0.8143
2657	0.8083
2648	0.8078
2639	0.8101
2630	0.8128
2621	0.814
2612	0.8151
2603	0.8172
2594	0.8238
2585	0.8299
2576	0.8337
2567	0.8397
2558	0.8432
2549	0.8462
2540	0.8493
2531	0.8515
2522	0.8527
2513	0.8538
2504	0.855
2495	0.856
2486	0.8568
2477	0.8575
2468	0.8583
2459	0.8589
2450	0.8592
2441	0.8595
2432	0.8599
2423	0.8598
2414	0.8597
2405	0.8589
2396	0.8578
2387	0.8575
2378	0.859
2369	0.8605
2360	0.8625
2351	0.8644
2342	0.867
2333	0.8698
2324	0.8725
2315	0.8716
2306	0.8552
2297	0.8577
2288	0.8586
2279	0.8594
2270	0.8595
2261	0.8595
2252	0.8593
2243	0.8591
2234	0.859
2225	0.8588
2216	0.8591
2207	0.8594
2198	0.8597
2189	0.86
2180	0.8603
2171	0.8599
2162	0.8585
2153	0.8571
2144	0.8557
2135	0.8555
2126	0.8553
2117	0.8551
2108	0.8551
2099	0.8553
2090	0.8557
2081	0.8559
2072	0.856
2063	0.8559
2054	0.8558
2045	0.8561
2036	0.8564
2027	0.8568
2018	0.8554
2009	0.851
2000	0.845
1991	0.8386
1982	0.8339
1973	0.8212
1964	0.8103
1955	0.7897
1946	0.7856
1937	0.8202
1928	0.8349
1919	0.8414
1910	0.8408
1901	0.8318
1892	0.8197
1883	0.8114
1874	0.8026
1865	0.8126
1856	0.8265
1847	0.8342
1838	0.8355
1829	0.8307
1820	0.8201
1811	0.8051
1802	0.7993
1793	0.8316
1784	0.8378
1775	0.8389
1766	0.8402
1757	0.8317
1748	0.8261
1739	0.8283
1730	0.8336
1721	0.8299
1712	0.8221
1703	0.8107
1694	0.7983
1685	0.7848
1676	0.7683
1667	0.7519
1658	0.7305
1649	0.709
1640	0.6748
1631	0.6335
1622	0.591
1613	0.5268
1604	0.3788
1595	0.5022
1586	0.4692
1577	0.5781
1568	0.6326
1559	0.6756
1550	0.6968
1541	0.7167
1532	0.7415
1523	0.7501
1514	0.7403
1505	0.5792
1496	0.3559
1487	0.6832
1478	0.7103
1469	0.5101
1460	0.161
1451	0.4071
1442	0.583
1433	0.6818
1424	0.7467
1415	0.7635
1406	0.7661
1397	0.7021
1388	0.4792
1379	0.4262
1370	0.553
1361	0.6112
1352	0.5888
1343	0.6062
1334	0.6451
1325	0.6754
1316	0.7165
1307	0.7384
1298	0.7478
1289	0.7492
1280	0.7472
1271	0.7474
1262	0.7474
1253	0.7398
1244	0.7319
1235	0.7361
1226	0.7499
1217	0.7536
1208	0.7421
1199	0.7262
1190	0.6984
1181	0.6351
1172	0.6651
1163	0.6625
1154	0.5947
1145	0.6351
1136	0.632
1127	0.6746
1118	0.6503
1109	0.6593
1100	0.6439
1091	0.6328
1082	0.7118
1073	0.6093
1064	0.5309
1055	0.639
1046	0.7225
1037	0.678
1028	0.5904
1019	0.7007
1010	0.7269
1001	0.7297
992	0.7381
983	0.7233
974	0.714
965	0.6851
956	0.6768
947	0.6672
938	0.64
929	0.5857
920	0.5424
911	0.486
902	0.4647
893	0.4417
884	0.4117
875	0.3834
866	0.3805
857	0.3836
848	0.3223
839	0.2977
830	0.3145
821	0.3595
812	0.4052
803	0.4435
794	0.4786
785	0.4902
776	0.5278
767	0.46
758	0.3384
749	0.1591
740	0.2985
731	0.4155
722	0.4507
713	0.506
704	0.1144
695	0.3059
686	0.7012
677	0.7528
668	0.7821
659	0.7985
650	0.8098
641	0.8158
632	0.8192
623	0.8054
614	0.7911
605	0.8024
596	0.8012
587	0.7246
578	0.6179
569	0.7491
560	0.7817
551	0.7861
542	0.774
533	0.7091
524	0.5747
515	0.6189
506	0.7174
497	0.7485
488	0.7393
479	0.6765
470	0.6192
461	0.6768
452	0.6905
443	0.6839
434	0.6901
425	0.6908
416	0.6871
407	0.6821
398	0.6786
389	0.6767
