Infrared Spectrum: ETHER, BENZYL 4-NITRO-m-TOLYL-
Formula: C14 H13 N O3
CAS: 22424-58-4
State: SOLID (SPLIT MULL)
Melting point: 71 C
Class: COBLENTZ III
Instrument: DOW KBr FOREPRISM-GRATING
Instrument parameters: BLAZED AT 3.5, 12.0, 20.0 MICRON AND CHANGED AT 5.0, 7.5, 14.9 MICRON
Sampling: TRANSMISSION
Resolution: 2
Origin: DOW CHEMICAL COMPANY
1/CM	TRANSMITTANCE
388	0.7893
397	0.7907
406	0.7928
415	0.7974
424	0.7974
433	0.7995
442	0.8114
451	0.8274
460	0.8404
469	0.8453
478	0.8458
487	0.8375
496	0.8296
505	0.8653
514	0.8582
523	0.8498
532	0.8391
541	0.8677
550	0.8654
559	0.8611
568	0.8521
577	0.848
586	0.8335
595	0.8741
604	0.8744
613	0.8708
622	0.8647
631	0.8675
640	0.8636
649	0.7244
658	0.61
667	0.8733
676	0.8562
685	0.7364
694	0.7285
703	0.6611
712	0.8071
721	0.6283
730	0.5016
739	0.8151
748	0.8121
757	0.5289
766	0.5662
775	0.8313
784	0.864
793	0.8603
802	0.8418
811	0.8026
820	0.8138
829	0.7068
838	0.6404
847	0.5864
856	0.8282
865	0.8241
874	0.8214
883	0.7965
892	0.7857
901	0.7787
910	0.7328
919	0.5481
928	0.7711
937	0.7626
946	0.7358
955	0.6751
964	0.7071
973	0.6592
982	0.5074
991	0.4014
1000	0.6501
1009	0.7319
1018	0.6334
1027	0.7082
1036	0.7347
1045	0.7311
1054	0.7115
1063	0.6549
1072	0.4722
1081	0.6458
1090	0.7106
1099	0.7199
1108	0.7225
1117	0.7178
1126	0.7054
1135	0.6908
1144	0.6774
1153	0.664
1162	0.6508
1171	0.5192
1180	0.6372
1189	0.6474
1198	0.6198
1207	0.5962
1216	0.563
1225	0.4878
1234	0.4282
1243	0.3239
1252	0.1566
1261	0.3158
1270	0.5341
1279	0.5018
1288	0.611
1297	0.6089
1306	0.5572
1315	0.4575
1324	0.2354
1333	0.1045
1342	0.4421
1351	0.78
1360	0.7941
1369	0.6758
1378	0.3671
1387	0.8203
1396	0.7118
1405	0.7975
1414	0.7811
1423	0.7755
1432	0.7057
1441	0.6968
1450	0.5749
1459	0.6325
1468	0.4174
1477	0.4984
1486	0.3064
1495	0.4852
1504	0.251
1513	0.6749
1522	0.8305
1531	0.8436
1540	0.8182
1549	0.7972
1558	0.719
1567	0.6551
1576	0.5715
1585	0.2461
1594	0.5199
1603	0.3549
1612	0.7965
1621	0.9243
1630	0.9238
1639	0.9145
1648	0.9008
1657	0.8911
1666	0.8773
1675	0.8824
1684	0.8811
1693	0.876
1702	0.8718
1711	0.8667
1720	0.8647
1729	0.8652
1738	0.8625
1747	0.8577
1756	0.8517
1765	0.8457
1774	0.8432
1783	0.8455
1792	0.8421
1801	0.8353
1810	0.8321
1819	0.8302
1828	0.8338
1837	0.8356
1846	0.8327
1855	0.8275
1864	0.8202
1873	0.8125
1882	0.8061
1891	0.8045
1900	0.8028
1909	0.7915
1918	0.7818
1927	0.8026
1936	0.8065
1945	0.7996
1954	0.7911
1963	0.7834
1972	0.7796
1981	0.7822
1990	0.7888
1999	0.76
2008	0.7542
2017	0.7499
2026	0.746
2035	0.7421
2044	0.7382
2053	0.7346
2062	0.7312
2071	0.7284
2080	0.7255
2089	0.7224
2098	0.7194
2107	0.7161
2116	0.7131
2125	0.71
2134	0.708
2143	0.7061
2152	0.7049
2161	0.701
2170	0.6968
2179	0.6925
2188	0.6885
2197	0.6844
2206	0.6803
2215	0.6761
2224	0.6718
2233	0.6675
2242	0.6634
2251	0.6591
2260	0.6549
2269	0.6507
2278	0.6465
2287	0.643
2296	0.6397
2305	0.6362
2314	0.6352
2323	0.6343
2332	0.6343
2341	0.6339
2350	0.6337
2359	0.6328
2368	0.6312
2377	0.6284
2386	0.624
2395	0.6239
2404	0.6273
2413	0.6284
2422	0.6278
2431	0.627
2440	0.625
2449	0.6224
2458	0.6206
2467	0.6204
2476	0.6212
2485	0.6225
2494	0.6231
2503	0.6218
2512	0.6189
2521	0.6156
2530	0.6123
2539	0.6089
2548	0.6065
2557	0.6041
2566	0.6037
2575	0.6042
2584	0.6041
2593	0.6025
2602	0.6005
2611	0.598
2620	0.5951
2629	0.5925
2638	0.591
2647	0.5902
2656	0.5895
2665	0.5892
2674	0.589
2683	0.5873
2692	0.5855
2701	0.581
2710	0.5762
2719	0.5718
2728	0.569
2737	0.5676
2746	0.5678
2755	0.5686
2764	0.5666
2773	0.5619
2782	0.5554
2791	0.5472
2800	0.541
2809	0.5393
2818	0.5394
2827	0.5371
2836	0.5329
2845	0.527
2854	0.5204
2863	0.5106
2872	0.5027
2881	0.5027
2890	0.5146
2899	0.5143
2908	0.5064
2917	0.4951
2926	0.4851
2935	0.4786
2944	0.4899
2953	0.5002
2962	0.4986
2971	0.4932
2980	0.4885
2989	0.4886
2998	0.5087
3007	0.514
3016	0.513
3025	0.5033
3034	0.4924
3043	0.4918
3052	0.4899
3061	0.4862
3070	0.4783
3079	0.4339
3088	0.5018
3097	0.5031
3106	0.5041
3115	0.5042
3124	0.5035
3133	0.5021
3142	0.5003
3151	0.4986
3160	0.4969
3169	0.4954
3178	0.4939
3187	0.4927
3196	0.4916
3205	0.4905
3214	0.4893
3223	0.4877
3232	0.4862
3241	0.4846
3250	0.4829
3259	0.4809
3268	0.4789
3277	0.4769
3286	0.475
3295	0.473
3304	0.4712
3313	0.4696
3322	0.4679
3331	0.4662
3340	0.4649
3349	0.4636
3358	0.4623
3367	0.461
3376	0.4598
3385	0.4583
3394	0.4566
3403	0.4548
3412	0.4531
3421	0.4512
3430	0.4495
3439	0.448
3448	0.4468
3457	0.4455
3466	0.4443
3475	0.443
3484	0.4418
3493	0.4403
3502	0.4389
3511	0.4373
3520	0.436
3529	0.435
3538	0.4341
3547	0.4332
3556	0.4322
3565	0.4312
3574	0.4303
3583	0.4291
3592	0.428
3601	0.4269
3610	0.426
3619	0.4251
3628	0.4242
3637	0.4234
3646	0.4224
3655	0.4212
3664	0.4203
3673	0.419
3682	0.4178
3691	0.4166
3700	0.4158
3709	0.415
3718	0.4141
3727	0.4131
3736	0.412
3745	0.4108
3754	0.4096
3763	0.4078
3772	0.406
3781	0.4043
3790	0.4026
3799	0.4008
