Infrared Spectrum: d- Carvone
Formula: C10 H14 O
CAS: 2244-16-8
State: SOLUTION (10% CCl4 FOR 4000-1330, 10% CS2 FOR 1330-450 CM^-^1) VS SOLVENT
Class: COBLENTZ III
Instrument: CARY 90 (GRATING)
Instrument parameters: ORDER CHANGES: 3000, 2000, 1200 CM^-^1
Path length: 0.011 CM, AND 0.010 CM
Resolution: 2
Origin: WESTERN REGIONAL RES. USDA
1/CM	TRANSMITTANCE
472	0.7607
481	0.6857
490	0.7297
499	0.8151
508	0.7068
517	0.7879
526	0.7913
535	0.8774
544	0.9107
553	0.8665
562	0.7556
571	0.8671
580	0.9229
589	0.9341
598	0.9395
607	0.932
616	0.9218
625	0.9063
634	0.895
643	0.8732
652	0.8293
661	0.901
670	0.8651
679	0.8504
688	0.8636
697	0.7682
706	0.8263
715	0.8791
724	0.9085
733	0.9411
742	0.9506
751	0.9596
760	0.9601
769	0.9573
778	0.9438
787	0.9014
796	0.681
805	0.8741
814	0.9285
823	0.9355
832	0.9018
841	0.8441
850	0.7524
859	0.7512
868	0.7435
877	0.6015
886	0.2519
895	0.0566
904	0.6613
913	0.8043
922	0.8553
931	0.9005
940	0.9152
949	0.8969
958	0.8195
967	0.9056
976	0.8782
985	0.8248
994	0.7928
1003	0.8126
1012	0.8185
1021	0.754
1030	0.7541
1039	0.6802
1048	0.7177
1057	0.6326
1066	0.7791
1075	0.867
1084	0.8067
1093	0.6198
1102	0.3431
1111	0.379
1120	0.7442
1129	0.805
1138	0.6293
1147	0.8113
1156	0.8722
1165	0.9064
1174	0.9188
1183	0.9103
1192	0.8963
1201	0.8027
1210	0.8386
1219	0.8488
1228	0.7271
1237	0.5532
1246	0.5108
1255	0.7362
1264	0.7235
1273	0.8432
1282	0.8032
1291	0.8046
1300	0.8107
1309	0.8144
1318	0.7548
1327	0.7483
1336	0.7274
1345	0.6256
1354	0.4236
1363	0.2204
1372	0.325
1381	0.4174
1390	0.6309
1399	0.6968
1408	0.6462
1417	0.5421
1426	0.4207
1435	0.2548
1444	0.3264
1453	0.3525
1462	0.688
1471	0.7752
1480	0.8105
1489	0.8002
1498	0.7623
1507	0.7202
1516	0.6711
1525	0.615
1534	0.531
1543	0.4715
1552	0.4917
1561	0.5546
1570	0.6151
1579	0.628
1588	0.6609
1597	0.7145
1606	0.7763
1615	0.7765
1624	0.7525
1633	0.553
1642	0.2744
1651	0.4438
1660	0.249
1669	0.0086
1678	0.0021
1687	0.0264
1696	0.4161
1705	0.6649
1714	0.7012
1723	0.7678
1732	0.797
1741	0.8318
1750	0.8574
1759	0.8798
1768	0.8937
1777	0.8908
1786	0.8741
1795	0.8567
1804	0.8631
1813	0.9013
1822	0.922
1831	0.9255
1840	0.9259
1849	0.9236
1858	0.9268
1867	0.9317
1876	0.9319
1885	0.933
1894	0.9332
1903	0.9315
1912	0.9296
1921	0.9325
1930	0.9279
1939	0.9198
1948	0.9196
1957	0.9284
1966	0.9346
1975	0.9352
1984	0.935
1993	0.9346
2002	0.9341
2011	0.934
2020	0.9339
2029	0.9337
2038	0.9336
2047	0.9322
2056	0.9304
2065	0.9294
2074	0.9318
2083	0.9357
2092	0.9367
2101	0.9375
2110	0.9383
2119	0.9391
2128	0.9409
2137	0.941
2146	0.9422
2155	0.9425
2164	0.943
2173	0.9434
2182	0.9438
2191	0.9417
2200	0.9396
2209	0.9377
2218	0.9362
2227	0.9339
2236	0.9344
2245	0.9341
2254	0.9317
2263	0.9289
2272	0.9254
2281	0.922
2290	0.9206
2299	0.9197
2308	0.9227
2317	0.926
2326	0.9294
2335	0.9323
2344	0.9341
2353	0.9346
2362	0.9351
2371	0.935
2380	0.9346
2389	0.9341
2398	0.9338
2407	0.9331
2416	0.9325
2425	0.9318
2434	0.9309
2443	0.9299
2452	0.9288
2461	0.9281
2470	0.9282
2479	0.9279
2488	0.9276
2497	0.9281
2506	0.9291
2515	0.9351
2524	0.9355
2533	0.9342
2542	0.9333
2551	0.9325
2560	0.9316
2569	0.9305
2578	0.9293
2587	0.9281
2596	0.927
2605	0.9262
2614	0.9256
2623	0.925
2632	0.926
2641	0.9275
2650	0.9282
2659	0.9274
2668	0.9263
2677	0.9251
2686	0.9239
2695	0.9225
2704	0.9204
2713	0.9108
2722	0.8948
2731	0.8857
2740	0.8906
2749	0.9065
2758	0.9087
2767	0.9087
2776	0.903
2785	0.8927
2794	0.8778
2803	0.8494
2812	0.8123
2821	0.7462
2830	0.6528
2839	0.6695
2848	0.5621
2857	0.592
2866	0.5608
2875	0.396
2884	0.3823
2893	0.4467
2902	0.4024
2911	0.29
2920	0.2383
2929	0.3662
2938	0.399
2947	0.3718
2956	0.3533
2965	0.3036
2974	0.4082
2983	0.5352
2992	0.6266
3001	0.7111
3010	0.6941
3019	0.688
3028	0.7372
3037	0.7863
3046	0.8258
3055	0.82
3064	0.7314
3073	0.6767
3082	0.6494
3091	0.7457
3100	0.842
3109	0.8715
3118	0.8831
3127	0.8904
3136	0.8961
3145	0.8993
3154	0.9025
3163	0.9038
3172	0.9051
3181	0.9061
3190	0.9064
3199	0.9066
3208	0.9063
3217	0.9058
3226	0.9054
3235	0.9046
3244	0.903
3253	0.9004
3262	0.8977
3271	0.8955
3280	0.8965
3289	0.8976
3298	0.8934
3307	0.8789
3316	0.8606
3325	0.846
3334	0.8359
3343	0.8392
3352	0.8638
3361	0.8855
3370	0.8943
3379	0.8981
3388	0.8989
3397	0.8992
3406	0.8997
3415	0.8993
3424	0.8989
3433	0.8986
3442	0.8986
3451	0.8986
3460	0.8984
3469	0.8981
3478	0.8978
3487	0.8974
3496	0.8973
3505	0.8972
3514	0.8971
3523	0.8976
3532	0.8992
3541	0.9006
3550	0.9026
3559	0.9052
3568	0.9078
3577	0.9102
3586	0.9119
3595	0.9129
3604	0.9131
3613	0.9133
3622	0.9134
3631	0.9129
3640	0.9148
3649	0.9162
3658	0.9144
3667	0.9127
3676	0.9079
3685	0.903
3694	0.9057
3703	0.9134
3712	0.9187
3721	0.9198
3730	0.9209
3739	0.92
3748	0.9188
3757	0.9175
3766	0.9163
3775	0.9152
3784	0.914
3793	0.9133
3802	0.9141
3811	0.9149
3820	0.9158
3829	0.9166
3838	0.9173
3847	0.9171
3856	0.9161
3865	0.9152
3874	0.9149
3883	0.9146
3892	0.914
3901	0.9131
3910	0.9123
3919	0.9099
3928	0.9072
3937	0.905
3946	0.9049
3955	0.9051
3964	0.9098
3973	0.9099
3982	0.9105
3991	0.9111
