Infrared Spectrum: Undecanenitrile
Formula: C11 H21 N
CAS: 2244-07-7
State: SOLUTION (10% CCl4 FOR 3800-1330, 10% CS2 FOR 1330-400 CM^-^1)
Class: COBLENTZ III
Instrument: DOW KBr FOREPRISM-GRATING
Instrument parameters: BLAZED AT 3.5, 12.0, 20.0 MICRON AND CHANGED AT 5.0, 7.5, 14.9 MICRON
Sampling: TRANSMISSION
Path length: 0.011 CM, 0.011 CM
Resolution: 2
Origin: DOW CHEMICAL COMPANY
1/CM	TRANSMITTANCE
3804	0.917
3795	0.9156
3786	0.9164
3777	0.9161
3768	0.9169
3759	0.9186
3750	0.9185
3741	0.9176
3732	0.9162
3723	0.9118
3714	0.9043
3705	0.8977
3696	0.8946
3687	0.8974
3678	0.9064
3669	0.9013
3660	0.8932
3651	0.882
3642	0.8765
3633	0.882
3624	0.8877
3615	0.8909
3606	0.892
3597	0.8882
3588	0.8806
3579	0.8724
3570	0.8632
3561	0.8592
3552	0.8599
3543	0.8629
3534	0.8669
3525	0.8695
3516	0.8732
3507	0.8762
3498	0.8781
3489	0.8792
3480	0.8803
3471	0.8813
3462	0.8824
3453	0.8833
3444	0.8838
3435	0.8841
3426	0.8845
3417	0.8848
3408	0.8848
3399	0.8846
3390	0.8845
3381	0.8843
3372	0.8848
3363	0.8851
3354	0.8855
3345	0.8869
3336	0.8875
3327	0.8867
3318	0.8871
3309	0.8891
3300	0.8883
3291	0.8886
3282	0.8901
3273	0.8901
3264	0.8896
3255	0.8891
3246	0.8885
3237	0.8873
3228	0.8855
3219	0.8824
3210	0.8779
3201	0.8727
3192	0.8726
3183	0.8711
3174	0.8718
3165	0.8722
3156	0.8729
3147	0.8727
3138	0.8741
3129	0.8741
3120	0.874
3111	0.8732
3102	0.8724
3093	0.8754
3084	0.8662
3075	0.8641
3066	0.8559
3057	0.8463
3048	0.8332
3039	0.8248
3030	0.8002
3021	0.7758
3012	0.7336
3003	0.6146
2994	0.4794
2985	0.3298
2976	0.1942
2967	0.0475
2958	0.0419
2949	0.0234
2940	0.011
2931	0.0106
2922	0.0346
2913	0.0989
2904	0.1874
2895	0.2805
2886	0.2183
2877	0.1261
2868	0.0376
2859	0.0486
2850	0.4235
2841	0.619
2832	0.7186
2823	0.7624
2814	0.7889
2805	0.8076
2796	0.8226
2787	0.836
2778	0.8462
2769	0.8503
2760	0.8508
2751	0.8496
2742	0.849
2733	0.852
2724	0.858
2715	0.8615
2706	0.8621
2697	0.857
2688	0.8532
2679	0.8542
2670	0.8575
2661	0.8616
2652	0.8666
2643	0.869
2634	0.874
2625	0.8778
2616	0.8816
2607	0.8851
2598	0.8886
2589	0.8913
2580	0.894
2571	0.8965
2562	0.8991
2553	0.9014
2544	0.9031
2535	0.9049
2526	0.9066
2517	0.9079
2508	0.9095
2499	0.9108
2490	0.9118
2481	0.9137
2472	0.9149
2463	0.9154
2454	0.9141
2445	0.9146
2436	0.9128
2427	0.9107
2418	0.9091
2409	0.9092
2400	0.9107
2391	0.9125
2382	0.9164
2373	0.9206
2364	0.9169
2355	0.9229
2346	0.925
2337	0.9192
2328	0.9089
2319	0.9072
2310	0.9049
2301	0.9031
2292	0.9038
2283	0.8975
2274	0.879
2265	0.7148
2256	0.7476
2247	0.8579
2238	0.8944
2229	0.9051
2220	0.9056
2211	0.9063
2202	0.9069
2193	0.9069
2184	0.9069
2175	0.9077
2166	0.9078
2157	0.9097
2148	0.9128
2139	0.9143
2130	0.9147
2121	0.9148
2112	0.9148
2103	0.9143
2094	0.9128
2085	0.9131
2076	0.9123
2067	0.9107
2058	0.9087
2049	0.9075
2040	0.9064
2031	0.9055
2022	0.9065
2013	0.9066
2004	0.8806
1995	0.8865
1986	0.9093
1977	0.9142
1968	0.9191
1959	0.9217
1950	0.9217
1941	0.9217
1932	0.9225
1923	0.9225
1914	0.9217
1905	0.9205
1896	0.9204
1887	0.9206
1878	0.9239
1869	0.9269
1860	0.9257
1851	0.9247
1842	0.9245
1833	0.9234
1824	0.9245
1815	0.9273
1806	0.927
1797	0.9269
1788	0.928
1779	0.929
1770	0.9287
1761	0.9287
1752	0.9282
1743	0.9246
1734	0.9206
1725	0.9193
1716	0.9177
1707	0.9169
1698	0.9169
1689	0.9172
1680	0.9176
1671	0.9196
1662	0.9202
1653	0.921
1644	0.9214
1635	0.9214
1626	0.9149
1617	0.8999
1608	0.8992
1599	0.8951
1590	0.8819
1581	0.8469
1572	0.8473
1563	0.83
1554	0.8121
1545	0.7981
1536	0.8096
1527	0.8353
1518	0.8451
1509	0.855
1500	0.8547
1491	0.8516
1482	0.8425
1473	0.7176
1464	0.254
1455	0.3963
1446	0.588
1437	0.6654
1428	0.5166
1419	0.7571
1410	0.8361
1401	0.8479
1392	0.8478
1383	0.7916
1374	0.6697
1365	0.7667
1356	0.776
1347	0.8009
1338	0.8223
1329	0.8259
1320	0.8463
1311	0.8438
1302	0.8418
1293	0.8631
1284	0.8797
1275	0.8983
1266	0.9121
1257	0.9259
1248	0.9371
1239	0.9482
1230	0.9568
1221	0.9582
1212	0.9644
1203	0.9707
1194	0.9753
1185	0.9811
1176	0.9853
1167	0.9891
1158	0.9852
1149	0.9705
1140	0.9527
1131	0.9405
1122	0.8763
1113	0.8662
1104	0.8952
1095	0.9023
1086	0.8958
1077	0.8644
1068	0.8528
1059	0.8462
1050	0.8462
1041	0.8523
1032	0.8649
1023	0.878
1014	0.8904
1005	0.8933
996	0.8929
987	0.8979
978	0.8993
969	0.9013
960	0.9074
951	0.916
942	0.9197
933	0.9181
924	0.9143
915	0.9121
906	0.9089
897	0.907
888	0.9103
879	0.9009
870	0.8872
861	0.8958
852	0.9041
843	0.8967
834	0.9022
825	0.9245
816	0.9276
807	0.9248
798	0.9256
789	0.9231
780	0.9122
771	0.8989
762	0.8927
753	0.8733
744	0.8452
735	0.8133
726	0.7183
717	0.7475
708	0.868
699	0.9057
690	0.9179
681	0.9267
672	0.9315
663	0.9317
654	0.9111
645	0.8992
636	0.9115
627	0.9227
618	0.9314
609	0.9311
600	0.9316
591	0.9323
582	0.9254
573	0.9169
564	0.9148
555	0.9101
546	0.9074
537	0.9064
528	0.905
519	0.9032
510	0.8977
501	0.8894
492	0.8804
483	0.87
474	0.8571
465	0.8443
456	0.8268
447	0.7994
438	0.7651
429	0.7152
420	0.6072
411	0.4448
402	0.1833
393	0.1198
