Infrared Spectrum: Alpha,Alpha,Alpha-Trifluoro-m-toluoyl chloride
Formula: C8 H4 Cl F3 O
CAS: 2251-65-2
State: SOLUTION (10% CCl4 FOR 3800-1330, 10% CS2 FOR 1330-460 CM^-^1)
Class: COBLENTZ III
Instrument: DOW KBr FOREPRISM-GRATING
Instrument parameters: BLAZED AT 3.5, 12.0, 20.0 MICRON AND CHANGED AT 5.0, 7.5, 14.9 MICRON
Sampling: TRANSMISSION
Path length: 0.010 CM, 0.010 CM
Resolution: 2
Origin: DOW CHEMICAL COMPANY
1/CM	TRANSMITTANCE
3796	0.9144
3787	0.9144
3778	0.9139
3769	0.9138
3760	0.9144
3751	0.9133
3742	0.9128
3733	0.9197
3724	0.9235
3715	0.922
3706	0.9213
3697	0.9177
3688	0.9125
3679	0.9111
3670	0.9182
3661	0.9182
3652	0.9184
3643	0.9178
3634	0.9172
3625	0.9184
3616	0.9184
3607	0.9184
3598	0.9175
3589	0.9179
3580	0.9173
3571	0.915
3562	0.9133
3553	0.9113
3544	0.9095
3535	0.9059
3526	0.8974
3517	0.887
3508	0.8742
3499	0.8675
3490	0.8844
3481	0.8974
3472	0.9001
3463	0.9008
3454	0.9027
3445	0.9045
3436	0.9059
3427	0.9074
3418	0.9084
3409	0.9094
3400	0.9102
3391	0.9111
3382	0.9121
3373	0.913
3364	0.9128
3355	0.9124
3346	0.9123
3337	0.9139
3328	0.9122
3319	0.9122
3310	0.9138
3301	0.9125
3292	0.9131
3283	0.9153
3274	0.9157
3265	0.9154
3256	0.9139
3247	0.9151
3238	0.9133
3229	0.9109
3220	0.9072
3211	0.9055
3202	0.904
3193	0.9056
3184	0.9041
3175	0.9027
3166	0.9015
3157	0.9008
3148	0.8978
3139	0.8974
3130	0.8943
3121	0.8891
3112	0.8836
3103	0.8782
3094	0.8605
3085	0.7855
3076	0.8016
3067	0.8568
3058	0.8709
3049	0.8764
3040	0.8889
3031	0.8859
3022	0.8848
3013	0.8866
3004	0.8879
2995	0.8874
2986	0.8899
2977	0.8901
2968	0.8909
2959	0.8893
2950	0.8845
2941	0.878
2932	0.8796
2923	0.8815
2914	0.8819
2905	0.8838
2896	0.886
2887	0.8882
2878	0.8903
2869	0.8926
2860	0.8945
2851	0.8948
2842	0.8979
2833	0.898
2824	0.8993
2815	0.9006
2806	0.9036
2797	0.9052
2788	0.9053
2779	0.9086
2770	0.9106
2761	0.9128
2752	0.915
2743	0.9175
2734	0.9201
2725	0.9228
2716	0.9242
2707	0.9252
2698	0.9254
2689	0.9242
2680	0.9202
2671	0.9157
2662	0.9124
2653	0.9167
2644	0.9175
2635	0.9176
2626	0.9197
2617	0.9209
2608	0.9232
2599	0.9257
2590	0.9283
2581	0.9318
2572	0.9337
2563	0.9334
2554	0.9334
2545	0.9334
2536	0.9333
2527	0.9332
2518	0.9326
2509	0.932
2500	0.9335
2491	0.9421
2482	0.9414
2473	0.9407
2464	0.9446
2455	0.9475
2446	0.9523
2437	0.9544
2428	0.9559
2419	0.9563
2410	0.9566
2401	0.9575
2392	0.9564
2383	0.9584
2374	0.963
2365	0.9604
2356	0.9642
2347	0.9647
2338	0.9614
2329	0.9611
2320	0.9615
2311	0.9584
2302	0.9553
2293	0.9539
2284	0.9505
2275	0.9469
2266	0.9478
2257	0.9472
2248	0.9492
2239	0.954
2230	0.9563
2221	0.9521
2212	0.9517
2203	0.9549
2194	0.9583
2185	0.959
2176	0.9621
2167	0.9615
2158	0.9626
2149	0.9612
2140	0.9572
2131	0.953
2122	0.9494
2113	0.951
2104	0.9471
2095	0.9485
2086	0.9515
2077	0.9536
2068	0.9541
2059	0.9543
2050	0.9554
2041	0.9532
2032	0.9523
2023	0.9527
2014	0.9511
2005	0.9499
1996	0.9316
1987	0.9123
1978	0.8996
1969	0.8861
1960	0.913
1951	0.9157
1942	0.9096
1933	0.902
1924	0.8697
1915	0.8885
1906	0.8948
1897	0.8955
1888	0.8871
1879	0.8623
1870	0.8586
1861	0.8633
1852	0.8638
1843	0.8469
1834	0.7824
1825	0.7062
1816	0.7576
1807	0.7456
1798	0.7018
1789	0.6777
1780	0.5742
1771	0.0791
1762	0.0014
1753	0.2999
1744	0.5778
1735	0.7034
1726	0.7261
1717	0.7361
1708	0.5659
1699	0.6093
1690	0.792
1681	0.8511
1672	0.8773
1663	0.8891
1654	0.886
1645	0.8745
1636	0.8526
1627	0.7919
1618	0.5452
1609	0.5896
1600	0.7911
1591	0.6542
1582	0.8476
1573	0.8743
1564	0.8319
1555	0.8518
1546	0.9056
1537	0.9238
1528	0.9156
1519	0.917
1510	0.909
1501	0.8943
1492	0.8125
1483	0.8936
1474	0.8952
1465	0.8863
1456	0.8724
1447	0.4149
1438	0.7313
1429	0.8252
1420	0.8184
1411	0.8438
1402	0.8683
1393	0.8717
1384	0.8924
1375	0.8759
1366	0.855
1357	0.7953
1348	0.6611
1339	0.112
1330	0.0047
1321	0.2239
1312	0.3426
1303	0.5517
1294	0.5518
1285	0.5173
1276	0.6075
1267	0.6786
1258	0.7155
1249	0.7543
1240	0.731
1231	0.6899
1222	0.6524
1213	0.5905
1204	0.4356
1195	0.2253
1186	0.0289
1177	0.0038
1168	0.0041
1159	0.1328
1150	0.1205
1141	0.0058
1132	0.004
1123	0.3283
1114	0.5354
1105	0.5204
1096	0.3764
1087	0.6108
1078	0.3446
1069	0.4098
1060	0.7694
1051	0.814
1042	0.8131
1033	0.8067
1024	0.8013
1015	0.8262
1006	0.8469
997	0.7851
988	0.8263
979	0.8446
970	0.8442
961	0.8318
952	0.7332
943	0.4941
934	0.3211
925	0.4386
916	0.1544
907	0.1027
898	0.6189
889	0.7295
880	0.7914
871	0.821
862	0.823
853	0.8446
844	0.8705
835	0.8481
826	0.7837
817	0.6631
808	0.2069
799	0.5125
790	0.0983
781	0.7353
772	0.249
763	0.7164
754	0.808
745	0.8575
736	0.841
727	0.8424
718	0.83
709	0.7769
700	0.0203
691	0.0481
682	0.0277
673	0.709
664	0.7801
655	0.6297
646	0.5836
637	0.8249
628	0.8359
619	0.8376
610	0.8283
601	0.7619
592	0.6889
583	0.7877
574	0.822
565	0.824
556	0.8153
547	0.8058
538	0.8102
529	0.8145
520	0.8079
511	0.7784
502	0.7893
493	0.7851
484	0.7794
475	0.7772
466	0.7693
