Infrared Spectrum: PROGESTERONE, 11Alpha-HYDROXY-, ACETATE
Formula: C23 H32 O4
CAS: 2268-98-6
State: SOLID (SPLIT MULL), FLUOROLUBE FOR 3800-1330 CM^-^1, NUJOL FOR 1330-400 CM^-^1
Melting point: 173 C
Class: COBLENTZ III
Instrument: DOW KBr FOREPRISM-GRATING
Instrument parameters: BLAZED AT 3.5, 12.0, 20.0 MICRON AND CHANGED AT 5.0, 7.5, 14.9 MICRON
Sampling: TRANSMISSION
Resolution: 2
Origin: DOW CHEMICAL COMPANY
1/CM	TRANSMITTANCE
387.418	0.793
396.196	0.797
404.975	0.809
413.753	0.812
422.531	0.823
431.31	0.828
440.088	0.823
448.867	0.853
457.645	0.864
466.423	0.894
475.202	0.897
483.98	0.894
492.758	0.858
501.537	0.904
510.315	0.876
519.093	0.813
527.872	0.921
536.65	0.912
545.429	0.923
554.207	0.924
562.985	0.921
571.764	0.916
580.542	0.894
589.32	0.9
598.099	0.83
606.877	0.91
615.655	0.812
624.434	0.906
633.212	0.91
641.99	0.928
650.769	0.931
659.547	0.921
668.326	0.912
677.104	0.909
685.882	0.812
694.661	0.926
703.439	0.912
712.217	0.891
720.996	0.852
729.774	0.876
738.552	0.891
747.331	0.904
756.109	0.916
764.888	0.919
773.666	0.919
782.444	0.909
791.223	0.909
800.001	0.931
808.779	0.931
817.558	0.92
826.336	0.924
835.114	0.886
843.893	0.9
852.671	0.898
861.45	0.912
870.228	0.91
879.006	0.88
887.785	0.743
896.563	0.889
905.341	0.895
914.12	0.873
922.898	0.834
931.676	0.835
940.455	0.827
949.233	0.673
958.011	0.769
966.79	0.66
975.568	0.831
984.347	0.856
993.125	0.858
1001.9	0.853
1010.68	0.821
1019.46	0.683
1028.24	0.49
1037.02	0.7201
1045.8	0.757
1054.57	0.757
1063.35	0.767
1072.13	0.846
1080.91	0.875
1089.69	0.871
1098.47	0.875
1107.24	0.873
1116.02	0.83
1124.8	0.85
1133.58	0.857
1142.36	0.812
1151.14	0.821
1159.91	0.661
1168.69	0.7081
1177.47	0.797
1186.25	0.675
1195.03	0.709
1203.81	0.747
1212.58	0.754
1221.36	0.641
1230.14	0.595
1238.92	0.428
1247.7	0.164
1256.48	0.083
1265.25	0.4161
1274.03	0.632
1282.81	0.68
1291.59	0.728
1300.37	0.81
1309.15	0.795
1317.92	0.826
1326.7	0.794
1335.48	0.669
1344.26	0.616
1353.04	0.483
1361.82	0.653
1370.59	0.734
1379.37	0.628
1388.15	0.661
1396.93	0.871
1405.71	0.891
1414.49	0.875
1423.26	0.836
1432.04	0.849
1440.82	0.716
1449.6	0.8021
1458.38	0.857
1467.16	0.832
1475.93	0.843
1484.71	0.942
1493.49	0.954
1502.27	0.956
1511.05	0.954
1519.83	0.952
1528.6	0.949
1537.38	0.946
1546.16	0.943
1554.94	0.939
1563.72	0.934
1572.5	0.926
1581.28	0.919
1590.05	0.913
1598.83	0.891
1607.61	0.8
1616.39	0.883
1625.17	0.869
1633.95	0.815
1642.72	0.816
1651.5	0.736
1660.28	0.484
1669.06	0.275
1677.84	0.2821
1686.62	0.723
1695.39	0.6409
1704.17	0.169
1712.95	0.652
1721.73	0.2899
1730.51	0.2916
1739.29	0.854
1748.06	0.927
1756.84	0.947
1765.62	0.964
1774.4	0.976
1783.18	0.984
1791.96	0.99
1800.73	0.991
1809.51	0.994
1818.29	0.991
1827.07	0.99
1835.85	0.99
1844.63	0.989
1853.4	0.986
1862.18	0.983
1870.96	0.982
1879.74	0.98
1888.52	0.978
1897.3	0.979
1906.07	0.975
1914.85	0.975
1923.63	0.975
1932.41	0.976
1941.19	0.976
1949.97	0.975
1958.74	0.972
1967.52	0.965
1976.3	0.964
1985.08	0.96
1993.86	0.953
2002.64	0.9575
2011.41	0.962
2020.19	0.963
2028.97	0.963
2037.75	0.957
2046.53	0.9575
2055.31	0.954
2064.08	0.954
2072.86	0.9481
2081.64	0.9535
2090.42	0.9504
2099.2	0.943
2107.98	0.941
2116.76	0.9369
2125.53	0.9314
2134.31	0.931
2143.09	0.932
2151.87	0.932
2160.65	0.9311
2169.43	0.9289
2178.2	0.924
2186.98	0.923
2195.76	0.92
2204.54	0.92
2213.32	0.9138
2222.1	0.912
2230.87	0.9142
2239.65	0.9088
2248.43	0.9028
2257.21	0.8962
2265.99	0.894
2274.77	0.8918
2283.54	0.89
2292.32	0.89
2301.1	0.889
2309.88	0.8851
2318.66	0.884
2327.44	0.886
2336.21	0.887
2344.99	0.8896
2353.77	0.891
2362.55	0.893
2371.33	0.893
2380.11	0.8917
2388.88	0.89
2397.66	0.89
2406.44	0.889
2415.22	0.889
2424	0.889
2432.78	0.889
2441.55	0.8846
2450.33	0.882
2459.11	0.8837
2467.89	0.882
2476.67	0.884
2485.45	0.8814
2494.22	0.883
2503	0.883
2511.78	0.883
2520.56	0.882
2529.34	0.882
2538.12	0.8806
2546.89	0.8797
2555.67	0.879
2564.45	0.876
2573.23	0.875
2582.01	0.873
2590.79	0.8713
2599.57	0.871
2608.34	0.8717
2617.12	0.876
2625.9	0.865
2634.68	0.8743
2643.46	0.8657
2652.24	0.8632
2661.01	0.861
2669.79	0.858
2678.57	0.8562
2687.35	0.8506
2696.13	0.852
2704.91	0.8532
2713.68	0.8504
2722.46	0.85
2731.24	0.8486
2740.02	0.846
2748.8	0.843
2757.58	0.8418
2766.35	0.836
2775.13	0.8352
2783.91	0.832
2792.69	0.8263
2801.47	0.8205
2810.25	0.8162
2819.02	0.81
2827.8	0.7933
2836.58	0.7823
2845.36	0.7644
2854.14	0.6983
2862.92	0.6019
2871.69	0.6609
2880.47	0.6381
2889.25	0.6427
2898.03	0.6831
2906.81	0.6724
2915.59	0.6459
2924.36	0.5802
2933.14	0.5321
2941.92	0.4961
2950.7	0.5
2959.48	0.5753
2968.26	0.6458
2977.03	0.5728
2985.81	0.5843
2994.59	0.6731
3003.37	0.7825
3012.15	0.8319
3020.93	0.835
3029.7	0.8281
3038.48	0.83
3047.26	0.8241
3056.04	0.835
3064.82	0.835
3073.6	0.8311
3082.37	0.8317
3091.15	0.83
3099.93	0.831
3108.71	0.8271
3117.49	0.826
3126.27	0.826
3135.05	0.824
3143.82	0.823
3152.6	0.823
3161.38	0.821
3170.16	0.823
3178.94	0.812
3187.72	0.816
3196.49	0.819
3205.27	0.806
3214.05	0.808
3222.83	0.809
3231.61	0.806
3240.39	0.805
3249.16	0.802
3257.94	0.798
3266.72	0.7969
3275.5	0.795
3284.28	0.794
3293.06	0.793
3301.83	0.797
3310.61	0.776
3319.39	0.7821
3328.17	0.794
3336.95	0.776
3345.73	0.783
3354.5	0.7789
3363.28	0.7788
3372.06	0.773
3380.84	0.7669
3389.62	0.7642
3398.4	0.776
3407.17	0.776
3415.95	0.769
3424.73	0.7639
3433.51	0.7605
3442.29	0.7671
3451.07	0.7681
3459.84	0.7693
3468.62	0.7668
3477.4	0.76
3486.18	0.76
3494.96	0.763
3503.74	0.7609
3512.51	0.76
3521.29	0.76
3530.07	0.76
3538.85	0.76
3547.63	0.76
3556.41	0.758
3565.18	0.764
3573.96	0.7565
3582.74	0.756
3591.52	0.7572
3600.3	0.7627
3609.08	0.756
3617.85	0.753
3626.63	0.75
3635.41	0.7468
3644.19	0.7418
3652.97	0.746
3661.75	0.746
3670.53	0.7458
3679.3	0.741
3688.08	0.741
3696.86	0.7428
3705.64	0.742
3714.42	0.743
3723.2	0.743
3731.97	0.742
3740.75	0.741
3749.53	0.741
3758.31	0.739
3767.09	0.738
3775.87	0.736
3784.64	0.736
3793.42	0.736
