Infrared Spectrum: D-GLUCOSE
Formula: C6 H12 O6
CAS: 2280-44-6
State: SOLID (SPLIT MULL, FLUOROLUBE FOR 3800-1300 AND NUJOL FOR 1300-400 CM ^-^1)
Class: COBLENTZ III
Instrument: DOW KBr FOREPRISM-GRATING
Instrument parameters: BLAZED AT 3.5, 12.0, 20.0 MICRON, CHANGED AT 5.0, 7.5, 14.9 MICRON
Sampling: TRANSMISSION
Resolution: 4
Origin: DOW CHEMICAL COMPANY
1/CM	TRANSMITTANCE
384.615	0.75
393.356	0.748
402.098	0.726
410.839	0.814
419.58	0.831
428.321	0.852
437.063	0.83
445.804	0.893
454.545	0.893
463.287	0.897
472.028	0.896
480.769	0.892
489.51	0.883
498.252	0.871
506.993	0.852
515.734	0.806
524.476	0.766
533.217	0.717
541.958	0.696
550.699	0.659
559.441	0.627
568.182	0.666
576.923	0.692
585.665	0.702
594.406	0.612
603.147	0.501
611.888	0.403
620.63	0.364
629.371	0.396
638.112	0.457
646.854	0.407
655.595	0.504
664.336	0.614
673.077	0.651
681.819	0.683
690.56	0.695
699.301	0.684
708.043	0.644
716.784	0.553
725.525	0.594
734.266	0.617
743.008	0.655
751.749	0.692
760.49	0.678
769.232	0.535
777.973	0.616
786.714	0.801
795.455	0.851
804.197	0.878
812.938	0.893
821.679	0.89
830.421	0.726
839.162	0.718
847.903	0.812
856.645	0.893
865.386	0.915
874.127	0.919
882.868	0.907
891.61	0.894
900.351	0.84
909.092	0.501
917.834	0.844
926.575	0.871
935.316	0.855
944.057	0.825
952.799	0.777
961.54	0.71
970.281	0.61
979.023	0.389
987.764	0.096
996.505	0.165
1005.25	0.073
1013.99	0.024
1022.73	0.113
1031.47	0.295
1040.21	0.088
1048.95	0.2651
1057.69	0.502
1066.44	0.437
1075.18	0.577
1083.92	0.512
1092.66	0.187
1101.4	0.103
1110.14	0.25
1118.88	0.489
1127.62	0.46
1136.37	0.122
1145.11	0.2631
1153.85	0.603
1162.59	0.713
1171.33	0.745
1180.07	0.726
1188.81	0.5609
1197.55	0.692
1206.3	0.6169
1215.04	0.5621
1223.78	0.758
1232.52	0.777
1241.26	0.758
1250	0.721
1258.74	0.677
1267.48	0.65
1276.23	0.659
1284.97	0.61
1293.71	0.707
1302.45	0.711
1311.19	0.632
1319.93	0.5
1328.67	0.457
1337.42	0.512
1346.16	0.621
1354.9	0.622
1363.64	0.551
1372.38	0.568
1381.12	0.677
1389.86	0.687
1398.6	0.647
1407.35	0.642
1416.09	0.618
1424.83	0.61
1433.57	0.584
1442.31	0.606
1451.05	0.556
1459.79	0.6581
1468.53	0.826
1477.28	0.878
1486.02	0.904
1494.76	0.923
1503.5	0.935
1512.24	0.945
1520.98	0.952
1529.72	0.956
1538.46	0.959
1547.21	0.961
1555.95	0.964
1564.69	0.969
1573.43	0.965
1582.17	0.968
1590.91	0.968
1599.65	0.968
1608.4	0.967
1617.14	0.965
1625.88	0.964
1634.62	0.963
1643.36	0.957
1652.1	0.959
1660.84	0.956
1669.58	0.96
1678.33	0.957
1687.07	0.959
1695.81	0.957
1704.55	0.949
1713.29	0.954
1722.03	0.954
1730.77	0.954
1739.51	0.956
1748.26	0.953
1757	0.95
1765.74	0.949
1774.48	0.948
1783.22	0.949
1791.96	0.95
1800.7	0.949
1809.44	0.949
1818.19	0.943
1826.93	0.941
1835.67	0.942
1844.41	0.937
1853.15	0.939
1861.89	0.938
1870.63	0.939
1879.38	0.942
1888.12	0.942
1896.86	0.939
1905.6	0.938
1914.34	0.935
1923.08	0.934
1931.82	0.933
1940.56	0.931
1949.31	0.931
1958.05	0.926
1966.79	0.918
1975.53	0.912
1984.27	0.912
1993.01	0.911
2001.75	0.911
2010.49	0.913
2019.24	0.912
2027.98	0.911
2036.72	0.908
2045.46	0.901
2054.2	0.898
2062.94	0.897
2071.68	0.896
2080.42	0.896
2089.17	0.894
2097.91	0.892
2106.65	0.8899
2115.39	0.886
2124.13	0.882
2132.87	0.883
2141.61	0.8818
2150.35	0.877
2159.1	0.8738
2167.84	0.871
2176.58	0.8658
2185.32	0.863
2194.06	0.862
2202.8	0.8627
2211.54	0.8599
2220.29	0.8588
2229.03	0.852
2237.77	0.8487
2246.51	0.8379
2255.25	0.834
2263.99	0.8286
2272.73	0.8207
2281.47	0.816
2290.22	0.814
2298.96	0.812
2307.7	0.8108
2316.44	0.8027
2325.18	0.8005
2333.92	0.811
2342.66	0.8008
2351.4	0.803
2360.15	0.801
2368.89	0.8
2377.63	0.7946
2386.37	0.795
2395.11	0.793
2403.85	0.79
2412.59	0.7888
2421.33	0.7858
2430.08	0.7836
2438.82	0.781
2447.56	0.777
2456.3	0.774
2465.04	0.7683
2473.78	0.7598
2482.52	0.7575
2491.27	0.755
2500.01	0.754
2508.75	0.752
2517.49	0.752
2526.23	0.751
2534.97	0.747
2543.71	0.745
2552.45	0.744
2561.2	0.744
2569.94	0.741
2578.68	0.734
2587.42	0.7274
2596.16	0.722
2604.9	0.717
2613.64	0.714
2622.38	0.7084
2631.13	0.7037
2639.87	0.695
2648.61	0.686
2657.35	0.676
2666.09	0.672
2674.83	0.665
2683.57	0.661
2692.31	0.661
2701.06	0.6603
2709.8	0.658
2718.54	0.658
2727.28	0.6536
2736.02	0.6466
2744.76	0.6402
2753.5	0.6299
2762.25	0.6192
2770.99	0.6132
2779.73	0.6042
2788.47	0.601
2797.21	0.599
2805.95	0.601
2814.69	0.5978
2823.43	0.5828
2832.18	0.5655
2840.92	0.5487
2849.66	0.5412
2858.4	0.534
2867.14	0.523
2875.88	0.5027
2884.62	0.505
2893.36	0.4595
2902.11	0.5311
2910.85	0.4863
2919.59	0.4906
2928.33	0.5361
2937.07	0.4947
2945.81	0.3662
2954.55	0.5973
2963.29	0.604
2972.04	0.5915
2980.78	0.5805
2989.52	0.5641
2998.26	0.55
3007	0.534
3015.74	0.5145
3024.48	0.5015
3033.22	0.4849
3041.97	0.4684
3050.71	0.4554
3059.45	0.4389
3068.19	0.4164
3076.93	0.3969
3085.67	0.3799
3094.41	0.3644
3103.16	0.3458
3111.9	0.3257
3120.64	0.3031
3129.38	0.2833
3138.12	0.2679
3146.86	0.2557
3155.6	0.2398
3164.34	0.2227
3173.09	0.2082
3181.83	0.1968
3190.57	0.1862
3199.31	0.1804
3208.05	0.178
3216.79	0.178
3225.53	0.1764
3234.27	0.173
3243.02	0.1708
3251.76	0.168
3260.5	0.165
3269.24	0.1656
3277.98	0.168
3286.72	0.169
3295.46	0.1637
3304.2	0.165
3312.95	0.1687
3321.69	0.185
3330.43	0.2017
3339.17	0.2107
3347.91	0.214
3356.65	0.2244
3365.39	0.2521
3374.14	0.2737
3382.88	0.2675
3391.62	0.2364
3400.36	0.2253
3409.1	0.2046
3417.84	0.267
3426.58	0.3842
3435.32	0.4628
3444.07	0.5058
3452.81	0.5792
3461.55	0.6328
3470.29	0.6861
3479.03	0.7434
3487.77	0.7902
3496.51	0.8205
3505.25	0.8518
3514	0.869
3522.74	0.8906
3531.48	0.9096
3540.22	0.9253
3548.96	0.9401
3557.7	0.9498
3566.44	0.96
3575.18	0.9632
3583.93	0.9678
3592.67	0.965
3601.41	0.967
3610.15	0.967
3618.89	0.967
3627.63	0.9642
3636.37	0.9614
3645.12	0.9543
3653.86	0.9522
3662.6	0.9492
3671.34	0.9452
3680.08	0.9395
3688.82	0.9342
3697.56	0.933
3706.3	0.931
3715.05	0.9283
3723.79	0.924
3732.53	0.922
3741.27	0.92
3750.01	0.918
3758.75	0.9151
3767.49	0.911
3776.23	0.908
3784.98	0.9049
3793.72	0.9003
