Infrared Spectrum: 2,4-THIAZOLIDINEDIONE
Formula: C3 H3 N O2 S
CAS: 2295-31-0
State: SOLID (KBr PELLET)
Melting point: 121-123.5 C
Class: COBLENTZ
Instrument: Not specified, most likely a prism, grating, or hybrid spectrometer.
Sampling: TRANSMISSION
Resolution: 4
Origin: TENNESSEE EASTMAN COMPANY, RESEARCH LABORATORIES
MICROMETERS	TRANSMITTANCE
2.041	0.899
2.08207	0.896
2.12315	0.894
2.16422	0.892
2.20529	0.892
2.24637	0.894
2.28744	0.892
2.32851	0.892
2.36959	0.894
2.41066	0.896
2.45174	0.896
2.49281	0.897
2.53388	0.899
2.57496	0.901
2.61603	0.904
2.6571	0.908
2.69818	0.908
2.73925	0.908
2.78032	0.902
2.8214	0.868
2.86247	0.836
2.90354	0.81
2.94462	0.802
2.98569	0.805
3.02676	0.805
3.06784	0.766
3.10891	0.666
3.14999	0.441
3.19106	0.347
3.23213	0.362
3.27321	0.361
3.31428	0.415
3.35535	0.558
3.39643	0.596
3.4375	0.659
3.47857	0.674
3.51965	0.557
3.56072	0.62
3.60179	0.754
3.64287	0.805
3.68394	0.839
3.72501	0.858
3.76609	0.872
3.80716	0.89
3.84824	0.899
3.88931	0.902
3.93038	0.906
3.97146	0.914
4.01253	0.918
4.0536	0.918
4.09468	0.923
4.13575	0.928
4.17682	0.933
4.2179	0.936
4.25897	0.943
4.30004	0.943
4.34112	0.943
4.38219	0.94
4.42326	0.94
4.46434	0.945
4.50541	0.948
4.54649	0.95
4.58756	0.952
4.62863	0.95
4.66971	0.95
4.71078	0.95
4.75185	0.955
4.79293	0.955
4.834	0.957
4.87507	0.957
4.91615	0.955
4.95722	0.955
4.99829	0.962
5.03937	0.964
5.08044	0.964
5.12151	0.959
5.16259	0.95
5.20366	0.943
5.24474	0.943
5.28581	0.942
5.32688	0.931
5.36796	0.894
5.40903	0.848
5.4501	0.86
5.49118	0.785
5.53225	0.759
5.57332	0.735
5.6144	0.681
5.65547	0.611
5.69654	0.182
5.73762	0.097
5.77869	0.332
5.81976	0.449
5.86084	0.308
5.90191	0.056
5.94299	0.037
5.98406	0.028
6.02513	0.027
6.06621	0.1
6.10728	0.282
6.14835	0.354
6.18943	0.465
6.2305	0.597
6.27157	0.679
6.31265	0.703
6.35372	0.713
6.39479	0.72
6.43587	0.73
6.47694	0.737
6.51801	0.768
6.55909	0.78
6.60016	0.802
6.64124	0.826
6.68231	0.839
6.72338	0.851
6.76446	0.86
6.80553	0.86
6.8466	0.855
6.88768	0.85
6.92875	0.858
6.96982	0.858
7.0109	0.853
7.05197	0.833
7.09304	0.788
7.13412	0.724
7.17519	0.698
7.21626	0.79
7.25734	0.819
7.29841	0.816
7.33949	0.744
7.38056	0.362
7.42163	0.1
7.46271	0.172
7.50378	0.427
7.54485	0.558
7.58593	0.448
7.627	0.57
7.66807	0.708
7.70915	0.764
7.75022	0.802
7.79129	0.827
7.83237	0.834
7.87344	0.841
7.91451	0.855
7.95559	0.863
7.99666	0.846
8.03774	0.691
8.07881	0.364
8.11988	0.383
8.16096	0.616
8.20203	0.787
8.2431	0.819
8.28418	0.817
8.32525	0.771
8.36632	0.749
8.4074	0.725
8.44847	0.613
8.48954	0.299
8.53062	0.102
8.57169	0.1
8.61276	0.26
8.65384	0.529
8.69491	0.698
8.73599	0.734
8.77706	0.773
8.81813	0.785
8.85921	0.802
8.90028	0.816
8.94135	0.827
8.98243	0.834
9.0235	0.834
9.06457	0.838
9.10565	0.841
9.14672	0.843
9.18779	0.848
9.22887	0.853
9.26994	0.855
9.31101	0.856
9.35209	0.862
9.39316	0.862
9.43424	0.862
9.47531	0.865
9.51638	0.865
9.55746	0.865
9.59853	0.867
9.6396	0.867
9.68068	0.865
9.72175	0.867
9.76282	0.87
9.8039	0.872
9.84497	0.873
9.88604	0.875
9.92712	0.877
9.96819	0.88
10.0093	0.882
10.0503	0.88
10.0914	0.882
10.1325	0.884
10.1736	0.884
10.2146	0.884
10.2557	0.884
10.2968	0.884
10.3379	0.884
10.3789	0.885
10.42	0.885
10.4611	0.885
10.5021	0.885
10.5432	0.887
10.5843	0.887
10.6254	0.884
10.6664	0.887
10.7075	0.889
10.7486	0.892
10.7897	0.89
10.8307	0.892
10.8718	0.894
10.9129	0.885
10.954	0.841
10.995	0.841
11.0361	0.85
11.0772	0.85
11.1182	0.798
11.1593	0.664
11.2004	0.609
11.2415	0.795
11.2825	0.846
11.3236	0.851
11.3647	0.867
11.4058	0.872
11.4468	0.87
11.4879	0.87
11.529	0.87
11.5701	0.862
11.6111	0.843
11.6522	0.841
11.6933	0.838
11.7344	0.822
11.7754	0.804
11.8165	0.792
11.8576	0.776
11.8986	0.742
11.9397	0.701
11.9808	0.688
12.0219	0.652
12.0629	0.614
12.104	0.587
12.1451	0.562
12.1862	0.528
12.2272	0.483
12.2683	0.434
12.3094	0.4
12.3505	0.386
12.3915	0.388
12.4326	0.402
12.4737	0.432
12.5147	0.444
12.5558	0.424
12.5969	0.395
12.638	0.42
12.679	0.512
12.7201	0.594
12.7612	0.633
12.8023	0.676
12.8433	0.701
12.8844	0.724
12.9255	0.741
12.9666	0.751
13.0076	0.78
13.0487	0.793
13.0898	0.802
13.1309	0.809
13.1719	0.817
13.213	0.827
13.2541	0.834
13.2951	0.838
13.3362	0.838
13.3773	0.839
13.4184	0.841
13.4594	0.841
13.5005	0.841
13.5416	0.833
13.5827	0.824
13.6237	0.81
13.6648	0.788
13.7059	0.722
13.747	0.637
13.788	0.509
13.8291	0.376
13.8702	0.318
13.9112	0.325
13.9523	0.41
13.9934	0.49
14.0345	0.558
14.0755	0.618
14.1166	0.679
14.1577	0.727
14.1988	0.773
14.2398	0.804
14.2809	0.827
14.322	0.844
14.3631	0.865
14.4041	0.89
14.4452	0.897
14.4863	0.904
14.5274	0.909
14.5684	0.919
14.6095	0.928
14.6506	0.931
14.6916	0.938
14.7327	0.94
14.7738	0.943
14.8149	0.95
14.8559	0.96
14.897	0.967
14.9381	0.969
14.9792	0.971
15.0202	0.971
15.0613	0.971
15.1024	0.972
15.1435	0.974
15.1845	0.974
15.2256	0.974
15.2667	0.974
15.3077	0.974
15.3488	0.974
15.3899	0.976
15.431	0.974
15.472	0.972
15.5131	0.965
15.5542	0.962
15.5953	0.954
15.6363	0.945
15.6774	0.93
15.7185	0.918
15.7596	0.906
15.8006	0.899
15.8417	0.882
15.8828	0.865
15.9239	0.853
15.9649	0.839
16.006	0.839
