Infrared Spectrum: Formamide, N-phenethyl-,
Formula: C9 H11 N O
CAS: 23069-99-0
State: LIQUID (NEAT)
Class: COBLENTZ III
Instrument: PERKIN-ELMER 421 (GRATING)
Instrument parameters: GRATING CHANGE AT 1999 CM^-^1
Path length: CAPILLARY
Resolution: 2
Origin: ABBOTT LABORATORIES
1/CM	TRANSMITTANCE
672	0.5869
681	0.4935
690	0.3285
699	0.4665
708	0.6011
717	0.565
726	0.5127
735	0.4625
744	0.486
753	0.6507
762	0.7001
771	0.7141
780	0.7259
789	0.7513
798	0.779
807	0.8139
816	0.8471
825	0.8644
834	0.8734
843	0.8836
852	0.8954
861	0.9011
870	0.9021
879	0.9008
888	0.8942
897	0.8777
906	0.879
915	0.9082
924	0.9081
933	0.9011
942	0.8914
951	0.8785
960	0.8612
969	0.8402
978	0.831
987	0.8239
996	0.8033
1005	0.773
1014	0.7388
1023	0.7105
1032	0.7805
1041	0.8059
1050	0.8183
1059	0.8249
1068	0.7983
1077	0.7688
1086	0.8175
1095	0.8299
1104	0.8332
1113	0.8374
1122	0.8377
1131	0.8324
1140	0.8216
1149	0.8083
1158	0.8117
1167	0.7867
1176	0.7037
1185	0.6752
1194	0.6812
1203	0.7097
1212	0.6275
1221	0.5378
1230	0.5175
1239	0.5766
1248	0.6299
1257	0.6614
1266	0.721
1275	0.7484
1284	0.7499
1293	0.7487
1302	0.7458
1311	0.7417
1320	0.7362
1329	0.7284
1338	0.711
1347	0.66
1356	0.5975
1365	0.5147
1374	0.3276
1383	0.3468
1392	0.7274
1401	0.7653
1410	0.765
1419	0.7436
1428	0.6046
1437	0.5956
1446	0.4464
1455	0.649
1464	0.6566
1473	0.649
1482	0.4617
1491	0.4607
1500	0.4585
1509	0.3863
1518	0.3718
1527	0.3881
1536	0.4388
1545	0.5851
1554	0.6221
1563	0.7045
1572	0.7098
1581	0.7034
1590	0.6498
1599	0.6864
1608	0.6622
1617	0.6081
1626	0.4767
1635	0.2303
1644	0.1318
1653	0.1215
1662	0.1475
1671	0.1586
1680	0.1721
1689	0.3941
1698	0.6467
1707	0.7414
1716	0.7951
1725	0.8402
1734	0.8549
1743	0.8669
1752	0.877
1761	0.8839
1770	0.8882
1779	0.8918
1788	0.892
1797	0.889
1806	0.8913
1815	0.8995
1824	0.9059
1833	0.9095
1842	0.9076
1851	0.9
1860	0.8969
1869	0.898
1878	0.9017
1887	0.9057
1896	0.91
1905	0.9107
1914	0.9083
1923	0.9023
1932	0.8972
1941	0.8938
1950	0.8939
1959	0.9016
1968	0.9038
1977	0.904
1986	0.9021
1995	0.9005
2004	0.9005
2013	0.9004
2022	0.9005
2031	0.9008
2040	0.901
2049	0.901
2058	0.9006
2067	0.9003
2076	0.9001
2085	0.9006
2094	0.9011
2103	0.9016
2112	0.9014
2121	0.9007
2130	0.9001
2139	0.8994
2148	0.8982
2157	0.8968
2166	0.8955
2175	0.8942
2184	0.8931
2193	0.8921
2202	0.8911
2211	0.8906
2220	0.8902
2229	0.8898
2238	0.8894
2247	0.889
2256	0.8882
2265	0.8875
2274	0.8864
2283	0.8854
2292	0.8846
2301	0.885
2310	0.8855
2319	0.8859
2328	0.8862
2337	0.8863
2346	0.8861
2355	0.8859
2364	0.8855
2373	0.8845
2382	0.8827
2391	0.8811
2400	0.8801
2409	0.8791
2418	0.8782
2427	0.8767
2436	0.8752
2445	0.8737
2454	0.8722
2463	0.8708
2472	0.8695
2481	0.8681
2490	0.867
2499	0.8661
2508	0.8652
2517	0.8642
2526	0.864
2535	0.864
2544	0.8635
2553	0.8627
2562	0.8616
2571	0.8602
2580	0.8587
2589	0.8574
2598	0.856
2607	0.8546
2616	0.8532
2625	0.8516
2634	0.8494
2643	0.8472
2652	0.845
2661	0.8432
2670	0.8414
2679	0.8369
2688	0.8341
2697	0.8245
2706	0.8157
2715	0.8067
2724	0.7968
2733	0.7809
2742	0.7768
2751	0.7791
2760	0.7816
2769	0.7826
2778	0.7787
2787	0.7695
2796	0.758
2805	0.7457
2814	0.7141
2823	0.6484
2832	0.5879
2841	0.5361
2850	0.5151
2859	0.518
2868	0.5391
2877	0.5825
2886	0.616
2895	0.6109
2904	0.5857
2913	0.5438
2922	0.5172
2931	0.5261
2940	0.5538
2949	0.6047
2958	0.6192
2967	0.6334
2976	0.6641
2985	0.6615
2994	0.6363
3003	0.5963
3012	0.5069
3021	0.4686
3030	0.5041
3039	0.5045
3048	0.4958
3057	0.4989
3066	0.5515
3075	0.5907
3084	0.6181
3093	0.648
3102	0.661
3111	0.6742
3120	0.6734
3129	0.671
3138	0.6675
3147	0.6624
3156	0.6533
3165	0.6332
3174	0.6131
3183	0.588
3192	0.5631
3201	0.5385
3210	0.5139
3219	0.488
3228	0.4617
3237	0.4346
3246	0.4062
3255	0.3838
3264	0.3737
3273	0.3722
3282	0.3783
3291	0.3902
3300	0.4046
3309	0.4198
3318	0.4413
3327	0.4617
3336	0.4872
3345	0.5184
3354	0.5567
3363	0.6056
3372	0.6353
3381	0.6542
3390	0.6629
3399	0.6783
3408	0.7072
3417	0.7389
3426	0.7708
3435	0.7917
3444	0.8036
3453	0.8132
3462	0.8151
3471	0.8234
3480	0.8278
3489	0.8294
3498	0.8312
3507	0.8329
3516	0.8337
3525	0.8344
3534	0.8357
3543	0.8369
3552	0.8382
3561	0.8392
3570	0.8401
3579	0.8411
3588	0.8415
3597	0.8415
3606	0.8416
3615	0.8416
3624	0.8416
3633	0.8418
3642	0.8421
3651	0.8423
3660	0.8422
3669	0.8422
3678	0.8425
3687	0.8433
3696	0.8445
3705	0.8457
3714	0.8458
3723	0.8459
3732	0.844
3741	0.8401
3750	0.8382
3759	0.8381
3768	0.8381
3777	0.838
3786	0.8378
3795	0.8373
3804	0.8369
3813	0.8365
3822	0.8365
3831	0.8364
3840	0.8364
3849	0.8363
3858	0.8362
3867	0.8356
3876	0.835
3885	0.8344
3894	0.8337
3903	0.8331
3912	0.8327
3921	0.8324
3930	0.8321
3939	0.8318
3948	0.8315
3957	0.8312
3966	0.8309
3975	0.8303
3984	0.8297
3993	0.829
