Infrared Spectrum: 4-Oxo-2-thioxo-3-thiazolidineacetic acid, ethyl ester
Formula: C7 H9 N O3 S2
CAS: 23176-01-4
State: SOLUTION (10% CCl4 FOR 3800-1330, 10% CS2 FOR 1330-400 CM^-^1) VA SOLVENT
Class: COBLENTZ III
Instrument: BECKMAN IR-9 (GRATING)
Instrument parameters: ORDER CHANGES: 670, 1200, 2000 CM^-^1
Sampling: TRANSMISSION
Path length: 0.011 CM, 0.011 CM
Resolution: 2
Origin: DOW CHEMICAL COMPANY
1/CM	TRANSMITTANCE
3810	0.8718
3801	0.8717
3792	0.8715
3783	0.8715
3774	0.8718
3765	0.8721
3756	0.8721
3747	0.8723
3738	0.8724
3729	0.8731
3720	0.874
3711	0.8749
3702	0.8754
3693	0.8756
3684	0.8759
3675	0.876
3666	0.8762
3657	0.8764
3648	0.8766
3639	0.8766
3630	0.8759
3621	0.8751
3612	0.8744
3603	0.8737
3594	0.8733
3585	0.8727
3576	0.8721
3567	0.8711
3558	0.8702
3549	0.8685
3540	0.8656
3531	0.8605
3522	0.8518
3513	0.8408
3504	0.8257
3495	0.8124
3486	0.8083
3477	0.8121
3468	0.8237
3459	0.8364
3450	0.8483
3441	0.8557
3432	0.8591
3423	0.8588
3414	0.8575
3405	0.8546
3396	0.8504
3387	0.8462
3378	0.8425
3369	0.8416
3360	0.8443
3351	0.8477
3342	0.8502
3333	0.8509
3324	0.8502
3315	0.8494
3306	0.8486
3297	0.8481
3288	0.8489
3279	0.8495
3270	0.8503
3261	0.851
3252	0.8517
3243	0.8518
3234	0.8523
3225	0.8525
3216	0.853
3207	0.8534
3198	0.853
3189	0.8493
3180	0.8462
3171	0.8449
3162	0.8436
3153	0.8417
3144	0.84
3135	0.841
3126	0.8417
3117	0.8423
3108	0.843
3099	0.8437
3090	0.8428
3081	0.8414
3072	0.8398
3063	0.8362
3054	0.8313
3045	0.82
3036	0.8044
3027	0.7693
3018	0.6821
3009	0.5473
3000	0.4319
2991	0.3752
2982	0.4762
2973	0.5932
2964	0.6374
2955	0.5906
2946	0.5252
2937	0.5656
2928	0.6765
2919	0.73
2910	0.7195
2901	0.794
2892	0.8134
2883	0.8101
2874	0.8011
2865	0.8289
2856	0.8387
2847	0.8465
2838	0.8525
2829	0.8566
2820	0.8598
2811	0.8609
2802	0.8575
2793	0.8549
2784	0.8595
2775	0.8624
2766	0.8641
2757	0.8653
2748	0.866
2739	0.8666
2730	0.8665
2721	0.8663
2712	0.8642
2703	0.8578
2694	0.8467
2685	0.8481
2676	0.8582
2667	0.8671
2658	0.8741
2649	0.8768
2640	0.8774
2631	0.8767
2622	0.876
2613	0.8752
2604	0.8744
2595	0.8737
2586	0.8728
2577	0.8717
2568	0.8709
2559	0.8589
2550	0.8627
2541	0.8753
2532	0.8791
2523	0.8805
2514	0.8812
2505	0.8812
2496	0.8802
2487	0.8781
2478	0.8691
2469	0.8668
2460	0.8706
2451	0.8733
2442	0.8707
2433	0.8656
2424	0.8593
2415	0.8543
2406	0.8574
2397	0.8638
2388	0.8675
2379	0.8774
2370	0.8828
2361	0.8821
2352	0.8756
2343	0.872
2334	0.8693
2325	0.8695
2316	0.8698
2307	0.8701
2298	0.8704
2289	0.8642
2280	0.8499
2271	0.8575
2262	0.8664
2253	0.8652
2244	0.8623
2235	0.8564
2226	0.8517
2217	0.853
2208	0.8593
2199	0.8668
2190	0.865
2181	0.8617
2172	0.8611
2163	0.8621
2154	0.8642
2145	0.8646
2136	0.8647
2127	0.8644
2118	0.8638
2109	0.8615
2100	0.8588
2091	0.8571
2082	0.8563
2073	0.8555
2064	0.8549
2055	0.8559
2046	0.8577
2037	0.8587
2028	0.8592
2019	0.8582
2010	0.8562
2001	0.8586
1992	0.8657
1983	0.8668
1974	0.869
1965	0.8675
1956	0.8641
1947	0.8635
1938	0.8633
1929	0.8637
1920	0.8628
1911	0.8563
1902	0.843
1893	0.8382
1884	0.8418
1875	0.8339
1866	0.8181
1857	0.8125
1848	0.8026
1839	0.7983
1830	0.7932
1821	0.7865
1812	0.7772
1803	0.765
1794	0.736
1785	0.6674
1776	0.4944
1767	0.1925
1758	0.0001
1749	0.0001
1740	0.0001
1731	0.0175
1722	0.2309
1713	0.4364
1704	0.4982
1695	0.5881
1686	0.7219
1677	0.7595
1668	0.7711
1659	0.7808
1650	0.7791
1641	0.7765
1632	0.7764
1623	0.7825
1614	0.7903
1605	0.8065
1596	0.8288
1587	0.8356
1578	0.8393
1569	0.8421
1560	0.8497
1551	0.8497
1542	0.8439
1533	0.8342
1524	0.8216
1515	0.8025
1506	0.8021
1497	0.8072
1488	0.8012
1479	0.7625
1470	0.6404
1461	0.6171
1452	0.6583
1443	0.5358
1434	0.6715
1425	0.6621
1416	0.5317
1407	0.2408
1398	0.0438
1389	0.2758
1380	0.3497
1371	0.1136
1362	0.0421
1353	0.024
1344	0.0846
1335	0.0003
1326	0.0003
1317	0.038
1308	0.1561
1299	0.2908
1290	0.3841
1281	0.4708
1272	0.4441
1263	0.3645
1254	0.2303
1245	0.2842
1236	0.2629
1227	0.0622
1218	0.0002
1209	0.0002
1200	0.0002
1191	0.0001
1182	0.0292
1173	0.2111
1164	0.3097
1155	0.4683
1146	0.5997
1137	0.6415
1128	0.6195
1119	0.5477
1110	0.4087
1101	0.57
1092	0.5827
1083	0.6964
1074	0.7165
1065	0.7081
1056	0.6326
1047	0.2119
1038	0.4343
1029	0.2328
1020	0.1748
1011	0.561
1002	0.7275
993	0.7418
984	0.7035
975	0.3578
966	0.4793
957	0.7495
948	0.8104
939	0.7743
930	0.6922
921	0.7742
912	0.8202
903	0.8431
894	0.8328
885	0.6079
876	0.6053
867	0.6197
858	0.7574
849	0.5934
840	0.6508
831	0.8542
822	0.8694
813	0.857
804	0.8555
795	0.8508
786	0.8252
777	0.5045
768	0.8468
759	0.8427
750	0.8074
741	0.6753
732	0.7011
723	0.6648
714	0.7722
705	0.815
696	0.8413
687	0.8496
678	0.839
669	0.7872
660	0.6079
651	0.4655
642	0.6926
633	0.8416
624	0.8539
615	0.8538
606	0.8499
597	0.8398
588	0.8003
579	0.7746
570	0.7161
561	0.7075
552	0.7121
543	0.452
534	0.6051
525	0.6608
516	0.4071
507	0.5709
498	0.7915
489	0.8462
480	0.8609
471	0.8649
462	0.8667
453	0.8483
444	0.8081
435	0.7975
426	0.8087
417	0.8423
408	0.8488
