Infrared Spectrum: Cyclohexanone, 3,5-dimethyl-
Formula: C8 H14 O
CAS: 2320-30-1
State: SOLUTION (10% CCl4 FOR 3800-1330, 10% CS2 FOR 1330-460 CM^-^1)
Class: COBLENTZ III
Instrument: DOW KBr FOREPRISM-GRATING
Instrument parameters: BLAZED AT 3.5, 12.0, 20.0 MICRON AND CHANGED AT 5.0, 7.5, 14.9 MICRON
Sampling: TRANSMISSION
Path length: 0.011 CM, 0.011 CM
Resolution: 2
Origin: DOW CHEMICAL COMPANY
1/CM	TRANSMITTANCE
459	0.7228
468	0.7355
477	0.7444
486	0.7552
495	0.7601
504	0.7462
513	0.661
522	0.7036
531	0.3464
540	0.6569
549	0.7796
558	0.7971
567	0.8026
576	0.8126
585	0.8319
594	0.8363
603	0.8386
612	0.829
621	0.798
630	0.7977
639	0.8158
648	0.7928
657	0.7699
666	0.8227
675	0.866
684	0.8714
693	0.8738
702	0.8758
711	0.881
720	0.8808
729	0.8811
738	0.8816
747	0.8813
756	0.8843
765	0.8838
774	0.8731
783	0.866
792	0.8606
801	0.8502
810	0.8321
819	0.8132
828	0.7569
837	0.8012
846	0.7761
855	0.6488
864	0.6938
873	0.6478
882	0.7171
891	0.8143
900	0.8617
909	0.8737
918	0.8793
927	0.8756
936	0.8636
945	0.8322
954	0.8436
963	0.8495
972	0.8636
981	0.8676
990	0.8628
999	0.8359
1008	0.8094
1017	0.8057
1026	0.7667
1035	0.7616
1044	0.6921
1053	0.6565
1062	0.67
1071	0.7972
1080	0.797
1089	0.7781
1098	0.669
1107	0.7648
1116	0.7574
1125	0.6823
1134	0.7698
1143	0.8046
1152	0.8149
1161	0.7878
1170	0.695
1179	0.7829
1188	0.814
1197	0.8027
1206	0.7349
1215	0.5417
1224	0.1492
1233	0.6298
1242	0.5698
1251	0.6292
1260	0.4922
1269	0.2554
1278	0.2897
1287	0.5231
1296	0.7081
1305	0.7264
1314	0.7221
1323	0.6882
1332	0.5935
1341	0.4204
1350	0.6613
1359	0.6315
1368	0.4203
1377	0.545
1386	0.6154
1395	0.7871
1404	0.7909
1413	0.7384
1422	0.3744
1431	0.5864
1440	0.6467
1449	0.3452
1458	0.1417
1467	0.5001
1476	0.7735
1485	0.7839
1494	0.7745
1503	0.7542
1512	0.7153
1521	0.6719
1530	0.6338
1539	0.5755
1548	0.4932
1557	0.5152
1566	0.5756
1575	0.6296
1584	0.6421
1593	0.6738
1602	0.7514
1611	0.7819
1620	0.8104
1629	0.826
1638	0.818
1647	0.7736
1656	0.7017
1665	0.6718
1674	0.641
1683	0.6244
1692	0.5101
1701	0.1371
1710	0.0037
1719	0.0056
1728	0.22
1737	0.4895
1746	0.5225
1755	0.5444
1764	0.7781
1773	0.8311
1782	0.8498
1791	0.8539
1800	0.8533
1809	0.8508
1818	0.8583
1827	0.8735
1836	0.8836
1845	0.8899
1854	0.89
1863	0.888
1872	0.8786
1881	0.883
1890	0.894
1899	0.9017
1908	0.9108
1917	0.905
1926	0.9033
1935	0.9128
1944	0.8957
1953	0.9074
1962	0.9085
1971	0.9081
1980	0.9058
1989	0.9028
1998	0.8887
2007	0.8901
2016	0.8906
2025	0.8903
2034	0.8899
2043	0.8892
2052	0.8893
2061	0.8891
2070	0.8881
2079	0.8872
2088	0.8852
2097	0.8842
2106	0.8841
2115	0.8854
2124	0.8895
2133	0.8918
2142	0.8922
2151	0.8922
2160	0.8916
2169	0.8909
2178	0.8906
2187	0.8897
2196	0.8885
2205	0.8887
2214	0.8889
2223	0.8891
2232	0.8893
2241	0.8897
2250	0.8899
2259	0.8895
2268	0.8882
2277	0.8828
2286	0.8787
2295	0.8795
2304	0.8802
2313	0.8806
2322	0.881
2331	0.8822
2340	0.8833
2349	0.8847
2358	0.8902
2367	0.89
2376	0.8903
2385	0.8913
2394	0.8913
2403	0.8909
2412	0.8905
2421	0.8906
2430	0.8939
2439	0.8943
2448	0.8942
2457	0.8941
2466	0.8949
2475	0.8949
2484	0.8946
2493	0.8937
2502	0.8933
2511	0.8959
2520	0.8961
2529	0.8921
2538	0.8866
2547	0.885
2556	0.8856
2565	0.8884
2574	0.8901
2583	0.8863
2592	0.8799
2601	0.8739
2610	0.8687
2619	0.8647
2628	0.8676
2637	0.8713
2646	0.8661
2655	0.8536
2664	0.8724
2673	0.8734
2682	0.8709
2691	0.8684
2700	0.8653
2709	0.8592
2718	0.8455
2727	0.8292
2736	0.8335
2745	0.8527
2754	0.8594
2763	0.8557
2772	0.8487
2781	0.834
2790	0.8075
2799	0.8004
2808	0.7962
2817	0.7431
2826	0.6633
2835	0.5704
2844	0.4045
2853	0.4956
2862	0.4891
2871	0.335
2880	0.1488
2889	0.2029
2898	0.1361
2907	0.078
2916	0.0842
2925	0.0804
2934	0.1468
2943	0.1874
2952	0.0221
2961	0.026
2970	0.0964
2979	0.5478
2988	0.6412
2997	0.7084
3006	0.7664
3015	0.8109
3024	0.8383
3033	0.8566
3042	0.8592
3051	0.8607
3060	0.8664
3069	0.8722
3078	0.8739
3087	0.8747
3096	0.8756
3105	0.8764
3114	0.8761
3123	0.8753
3132	0.8745
3141	0.8737
3150	0.8728
3159	0.872
3168	0.8704
3177	0.8687
3186	0.8677
3195	0.8674
3204	0.8689
3213	0.873
3222	0.877
3231	0.8797
3240	0.8815
3249	0.8824
3258	0.8828
3267	0.8812
3276	0.8795
3285	0.8786
3294	0.8792
3303	0.8814
3312	0.8817
3321	0.8805
3330	0.8783
3339	0.8755
3348	0.8721
3357	0.868
3366	0.863
3375	0.8571
3384	0.851
3393	0.8438
3402	0.8225
3411	0.8125
3420	0.8225
3429	0.843
3438	0.8511
3447	0.8517
3456	0.8501
3465	0.8473
3474	0.8437
3483	0.8409
3492	0.8393
3501	0.8407
3510	0.8425
3519	0.8459
3528	0.8497
3537	0.8533
3546	0.858
3555	0.8633
3564	0.8686
3573	0.8743
3582	0.88
3591	0.8775
3600	0.8732
3609	0.87
3618	0.8721
3627	0.8805
3636	0.8869
3645	0.8856
3654	0.8824
3663	0.8768
3672	0.8689
3681	0.8672
3690	0.8769
3699	0.8833
3708	0.8875
3717	0.8879
3726	0.888
3735	0.8881
3744	0.8885
3753	0.8884
3762	0.888
3771	0.8875
3780	0.8874
3789	0.8869
3798	0.8864
