Infrared Spectrum: 2-Thiophenecarboxylic acid, hydrazide
Formula: C5 H6 N2 O S
CAS: 2361-27-5
State: SOLID (SPLIT MULL)
Melting point: 135 C
Class: COBLENTZ III
Instrument: DOW KBr FOREPRISM-GRATING
Instrument parameters: BLAZED AT 3.5, 12.0, 20.0 MICRON AND CHANGED AT 5.0, 7.5, 14.9 MICRON
Sampling: TRANSMISSION
Resolution: 2
Origin: DOW CHEMICAL COMPANY
1/CM	TRANSMITTANCE
470	0.8561
479	0.8532
488	0.8493
497	0.8453
506	0.8446
515	0.8421
524	0.8391
533	0.8334
542	0.8227
551	0.805
560	0.7868
569	0.8264
578	0.8238
587	0.8207
596	0.8158
605	0.8096
614	0.8028
623	0.7926
632	0.7784
641	0.7524
650	0.6534
659	0.7108
668	0.6264
677	0.4943
686	0.3682
695	0.3153
704	0.3151
713	0.3686
722	0.4075
731	0.2879
740	0.5665
749	0.7828
758	0.8248
767	0.7884
776	0.7762
785	0.8221
794	0.8342
803	0.8281
812	0.8169
821	0.7825
830	0.6464
839	0.2045
848	0.5243
857	0.4926
866	0.7892
875	0.8115
884	0.8148
893	0.7971
902	0.7867
911	0.7499
920	0.7178
929	0.6143
938	0.3418
947	0.3947
956	0.7465
965	0.8004
974	0.8143
983	0.8347
992	0.8444
1001	0.8423
1010	0.8394
1019	0.8317
1028	0.8178
1037	0.7998
1046	0.7005
1055	0.4751
1064	0.7221
1073	0.6219
1082	0.8343
1091	0.8181
1100	0.7151
1109	0.7824
1118	0.8141
1127	0.8167
1136	0.8046
1145	0.7897
1154	0.7765
1163	0.7655
1172	0.6865
1181	0.7408
1190	0.7517
1199	0.7405
1208	0.7297
1217	0.7165
1226	0.6935
1235	0.6383
1244	0.3714
1253	0.6464
1262	0.6415
1271	0.5992
1280	0.561
1289	0.5169
1298	0.4526
1307	0.3702
1316	0.3318
1325	0.1759
1334	0.2461
1343	0.5595
1352	0.3503
1361	0.2956
1370	0.6957
1379	0.7065
1388	0.7008
1397	0.6737
1406	0.6196
1415	0.4709
1424	0.2356
1433	0.6053
1442	0.6324
1451	0.6287
1460	0.6207
1469	0.6077
1478	0.5862
1487	0.5569
1496	0.5162
1505	0.4468
1514	0.3144
1523	0.3529
1532	0.1908
1541	0.0803
1550	0.0919
1559	0.2622
1568	0.4691
1577	0.5521
1586	0.5735
1595	0.5352
1604	0.4625
1613	0.2738
1622	0.0739
1631	0.0728
1640	0.1821
1649	0.1707
1658	0.4756
1667	0.7511
1676	0.8512
1685	0.8738
1694	0.8685
1703	0.8628
1712	0.8763
1721	0.8805
1730	0.8837
1739	0.8918
1748	0.8973
1757	0.8985
1766	0.8914
1775	0.8851
1784	0.8887
1793	0.8863
1802	0.887
1811	0.8875
1820	0.884
1829	0.868
1838	0.8506
1847	0.8803
1856	0.8783
1865	0.8736
1874	0.8701
1883	0.868
1892	0.8665
1901	0.8643
1910	0.862
1919	0.8589
1928	0.8557
1937	0.8537
1946	0.8512
1955	0.8484
1964	0.8509
1973	0.8407
1982	0.8368
1991	0.8284
2000	0.8171
2009	0.8035
2018	0.7948
2027	0.7921
2036	0.7905
2045	0.7888
2054	0.7855
2063	0.7815
2072	0.7778
2081	0.7744
2090	0.7712
2099	0.7681
2108	0.765
2117	0.7618
2126	0.758
2135	0.7542
2144	0.7504
2153	0.7465
2162	0.7426
2171	0.739
2180	0.7355
2189	0.7324
2198	0.7298
2207	0.7271
2216	0.7224
2225	0.7175
2234	0.7124
2243	0.7051
2252	0.6978
2261	0.6915
2270	0.6867
2279	0.685
2288	0.6833
2297	0.6811
2306	0.6789
2315	0.6765
2324	0.6747
2333	0.6726
2342	0.6707
2351	0.6693
2360	0.6681
2369	0.6668
2378	0.6656
2387	0.6653
2396	0.6698
2405	0.6697
2414	0.6691
2423	0.6676
2432	0.666
2441	0.664
2450	0.6621
2459	0.6603
2468	0.6571
2477	0.6539
2486	0.6532
2495	0.6551
2504	0.6551
2513	0.6528
2522	0.6497
2531	0.6461
2540	0.6425
2549	0.639
2558	0.6358
2567	0.6326
2576	0.6294
2585	0.626
2594	0.6231
2603	0.6199
2612	0.6169
2621	0.6138
2630	0.6112
2639	0.6087
2648	0.6062
2657	0.6037
2666	0.601
2675	0.5976
2684	0.5942
2693	0.5908
2702	0.5873
2711	0.5832
2720	0.5788
2729	0.5744
2738	0.5689
2747	0.5627
2756	0.5594
2765	0.5576
2774	0.5531
2783	0.5487
2792	0.5428
2801	0.5368
2810	0.5293
2819	0.5214
2828	0.5112
2837	0.5
2846	0.4907
2855	0.4826
2864	0.4739
2873	0.4688
2882	0.4725
2891	0.4679
2900	0.4583
2909	0.4473
2918	0.4387
2927	0.4338
2936	0.4307
2945	0.4219
2954	0.4123
2963	0.405
2972	0.3982
2981	0.3909
2990	0.38
2999	0.3641
3008	0.3471
3017	0.3332
3026	0.323
3035	0.3268
3044	0.3472
3053	0.3528
3062	0.336
3071	0.3134
3080	0.3117
3089	0.349
3098	0.3418
3107	0.2984
3116	0.2444
3125	0.3092
3134	0.2844
3143	0.2684
3152	0.2587
3161	0.2505
3170	0.2257
3179	0.2053
3188	0.1828
3197	0.1557
3206	0.1746
3215	0.2277
3224	0.2253
3233	0.2165
3242	0.2203
3251	0.2327
3260	0.2484
3269	0.2752
3278	0.314
3287	0.3409
3296	0.3572
3305	0.2859
3314	0.1694
3323	0.4548
3332	0.572
3341	0.5736
3350	0.5737
3359	0.5718
3368	0.5682
3377	0.5645
3386	0.5609
3395	0.5573
3404	0.5533
3413	0.5492
3422	0.5452
3431	0.541
3440	0.5371
3449	0.5333
3458	0.5296
3467	0.5258
3476	0.5217
3485	0.5168
3494	0.512
3503	0.5075
3512	0.5037
3521	0.4998
3530	0.496
3539	0.4925
3548	0.4896
3557	0.4867
3566	0.4838
3575	0.4809
3584	0.4782
3593	0.4759
3602	0.4736
3611	0.4712
3620	0.4691
3629	0.4664
3638	0.4636
3647	0.4608
3656	0.4581
3665	0.4553
3674	0.4525
3683	0.4498
3692	0.447
3701	0.4443
3710	0.4415
3719	0.4385
3728	0.4355
3737	0.4325
3746	0.4299
3755	0.4274
3764	0.425
3773	0.4232
3782	0.4218
3791	0.4203
3800	0.4189
