Infrared Spectrum: 5-METHYL-4-NITROSO-2-ISOPROPYL PHENOL
Formula: C10 H13 N O2
CAS: 2364-54-7
State: SOLID (MINERAL OIL MULL)
Melting point: 164-166 C
Class: COBLENTZ
Instrument: Not specified, most likely a prism, grating, or hybrid spectrometer.
Sampling: TRANSMISSION
Resolution: 4
Origin: WYANDOTTE CHEMICALS CORP., WYANDOTTE, MICHIGAN, USA
MICROMETERS	TRANSMITTANCE
2.007	0.587
2.04791	0.594
2.08883	0.611
2.12974	0.621
2.17066	0.628
2.21157	0.607
2.25248	0.609
2.2934	0.635
2.33431	0.652
2.37523	0.664
2.41614	0.683
2.45705	0.7
2.49797	0.714
2.53888	0.727
2.5798	0.758
2.62071	0.761
2.66163	0.789
2.70254	0.794
2.74345	0.797
2.78437	0.789
2.82528	0.779
2.8662	0.767
2.90711	0.753
2.94802	0.734
2.98894	0.684
3.02985	0.565
3.07077	0.309
3.11168	0.138
3.15259	0.047
3.19351	0.08
3.23442	0.049
3.27534	0.023
3.31625	0.044
3.35716	0.022
3.39808	0.018
3.43899	0.017
3.47991	0.015
3.52082	0.015
3.56174	0.017
3.60265	0.018
3.64356	0.034
3.68448	0.058
3.72539	0.114
3.76631	0.179
3.80722	0.239
3.84813	0.291
3.88905	0.345
3.92996	0.419
3.97088	0.506
4.01179	0.582
4.0527	0.607
4.09362	0.648
4.13453	0.667
4.17545	0.679
4.21636	0.734
4.25727	0.719
4.29819	0.741
4.3391	0.779
4.38002	0.816
4.42093	0.794
4.46185	0.792
4.50276	0.832
4.54367	0.839
4.58459	0.859
4.6255	0.88
4.66642	0.892
4.70733	0.88
4.74824	0.89
4.78916	0.852
4.83007	0.88
4.87099	0.888
4.9119	0.842
4.95281	0.854
4.99373	0.852
5.03464	0.833
5.07556	0.909
5.11647	0.931
5.15738	0.931
5.1983	0.926
5.23921	0.928
5.28013	0.916
5.32104	0.933
5.36196	0.929
5.40287	0.936
5.44378	0.928
5.4847	0.933
5.52561	0.921
5.56653	0.902
5.60744	0.839
5.64835	0.825
5.68927	0.851
5.73018	0.825
5.7711	0.813
5.81201	0.777
5.85292	0.756
5.89384	0.719
5.93475	0.684
5.97567	0.691
6.01658	0.604
6.05749	0.195
6.09841	0.032
6.13932	0.2
6.18024	0.013
6.22115	0.011
6.26207	0.032
6.30298	0.035
6.34389	0.032
6.38481	0.066
6.42572	0.154
6.46664	0.325
6.50755	0.441
6.54846	0.479
6.58938	0.481
6.63029	0.52
6.67121	0.501
6.71212	0.412
6.75303	0.256
6.79395	0.042
6.83486	0.037
6.87578	0.025
6.91669	0.018
6.9576	0.022
6.99852	0.029
7.03943	0.164
7.08035	0.388
7.12126	0.482
7.16218	0.422
7.20309	0.179
7.244	0.029
7.28492	0.118
7.32583	0.179
7.36675	0.453
7.40766	0.525
7.44857	0.577
7.48949	0.602
7.5304	0.613
7.57132	0.606
7.61223	0.422
7.65314	0.554
7.69406	0.58
7.73497	0.611
7.77589	0.638
7.8168	0.549
7.85771	0.297
7.89863	0.52
7.93954	0.642
7.98046	0.515
8.02137	0.125
8.06229	0.049
8.1032	0.296
8.14411	0.611
8.18503	0.753
8.22594	0.801
8.26686	0.818
8.30777	0.825
8.34868	0.83
8.3896	0.823
8.43051	0.806
8.47143	0.808
8.51234	0.828
8.55325	0.816
8.59417	0.801
8.63508	0.746
8.676	0.542
8.71691	0.412
8.75782	0.667
8.79874	0.739
8.83965	0.731
8.88057	0.669
8.92148	0.626
8.9624	0.547
9.00331	0.626
9.04422	0.662
9.08514	0.563
9.12605	0.566
9.16697	0.648
9.20788	0.655
9.24879	0.648
9.28971	0.625
9.33062	0.575
9.37154	0.405
9.41245	0.148
9.45336	0.022
9.49428	0.029
9.53519	0.128
9.57611	0.193
9.61702	0.272
9.65793	0.325
9.69885	0.419
9.73976	0.339
9.78068	0.138
9.82159	0.027
9.86251	0.018
9.90342	0.022
9.94433	0.023
9.98525	0.02
10.0262	0.059
10.0671	0.244
10.108	0.409
10.1489	0.5
10.1898	0.556
10.2307	0.597
10.2716	0.619
10.3126	0.636
10.3535	0.65
10.3944	0.659
10.4353	0.671
10.4762	0.679
10.5171	0.686
10.558	0.695
10.599	0.7
10.6399	0.702
10.6808	0.696
10.7217	0.674
10.7626	0.642
10.8035	0.595
10.8444	0.561
10.8854	0.534
10.9263	0.446
10.9672	0.255
11.0081	0.066
11.049	0.023
11.0899	0.172
11.1308	0.496
11.1718	0.542
11.2127	0.477
11.2536	0.363
11.2945	0.183
11.3354	0.15
11.3763	0.292
11.4172	0.452
11.4582	0.544
11.4991	0.532
11.54	0.455
11.5809	0.376
11.6218	0.267
11.6627	0.178
11.7036	0.082
11.7446	0.032
11.7855	0.023
11.8264	0.034
11.8673	0.056
11.9082	0.08
11.9491	0.104
11.99	0.119
12.031	0.131
12.0719	0.183
12.1128	0.224
12.1537	0.27
12.1946	0.32
12.2355	0.371
12.2764	0.412
12.3174	0.462
12.3583	0.503
12.3992	0.539
12.4401	0.58
12.481	0.607
12.5219	0.638
12.5628	0.667
12.6037	0.691
12.6447	0.71
12.6856	0.727
12.7265	0.741
12.7674	0.734
12.8083	0.648
12.8492	0.407
12.8901	0.299
12.9311	0.41
12.972	0.52
13.0129	0.604
13.0538	0.642
13.0947	0.674
13.1356	0.702
13.1765	0.724
13.2175	0.743
13.2584	0.75
13.2993	0.761
13.3402	0.763
13.3811	0.772
13.422	0.777
13.4629	0.784
13.5039	0.779
13.5448	0.779
13.5857	0.779
13.6266	0.784
13.6675	0.779
13.7084	0.78
13.7493	0.78
13.7903	0.763
13.8312	0.739
13.8721	0.707
13.913	0.666
13.9539	0.623
13.9948	0.64
14.0357	0.702
14.0767	0.77
14.1176	0.827
14.1585	0.854
14.1994	0.883
14.2403	0.9
14.2812	0.917
14.3221	0.922
14.3631	0.924
14.404	0.921
14.4449	0.917
14.4858	0.902
14.5267	0.888
14.5676	0.854
14.6085	0.811
14.6495	0.767
14.6904	0.71
14.7313	0.657
14.7722	0.607
14.8131	0.585
14.854	0.571
14.8949	0.558
14.9359	0.559
14.9768	0.565
15.0177	0.571
15.0586	0.565
15.0995	0.582
15.1404	0.63
15.1813	0.688
15.2223	0.729
15.2632	0.75
15.3041	0.751
15.345	0.744
15.3859	0.732
15.4268	0.714
15.4677	0.695
15.5086	0.679
15.5496	0.679
15.5905	0.69
15.6314	0.69
15.6723	0.686
15.7132	0.669
15.7541	0.635
15.795	0.585
15.836	0.544
15.8769	0.515
15.9178	0.498
15.9587	0.498
