Infrared Spectrum: 2,2-DIMETHYL HEXANOL
Formula: C8 H18 O
CAS: 2370-13-0
Boiling point: 172-173 C
Class: COBLENTZ
Instrument: Not specified, most likely a prism, grating, or hybrid spectrometer.
Sampling: TRANSMISSION
Path length: 0.0030 CM
Resolution: 4
Origin: TENNESSEE EASTMAN COMPANY, RESEARCH LABORATORIES
MICROMETERS	TRANSMITTANCE
2.053	0.956
2.0928	0.958
2.1326	0.963
2.1724	0.968
2.2122	0.97
2.252	0.928
2.2918	0.878
2.3316	0.888
2.3714	0.903
2.4112	0.906
2.451	0.916
2.4908	0.936
2.5306	0.943
2.5704	0.951
2.6102	0.955
2.65	0.958
2.6898	0.961
2.7296	0.853
2.7694	0.783
2.8092	0.515
2.849	0.293
2.8888	0.11
2.9286	0.05
2.9684	0.038
3.0082	0.038
3.048	0.043
3.0878	0.101
3.1276	0.231
3.1674	0.4
3.2072	0.548
3.247	0.63
3.2868	0.64
3.3266	0.33
3.3664	0
3.4062	0.03
3.446	0.03
3.4858	0.106
3.5256	0.351
3.5654	0.543
3.6052	0.621
3.645	0.633
3.6848	0.636
3.7246	0.725
3.7644	0.753
3.8042	0.783
3.844	0.803
3.8838	0.835
3.9236	0.86
3.9634	0.895
4.0032	0.916
4.043	0.928
4.0828	0.931
4.1226	0.935
4.16239	0.943
4.20219	0.953
4.24199	0.963
4.28179	0.951
4.32159	0.953
4.36139	0.97
4.40119	0.985
4.44099	0.985
4.48079	0.991
4.52059	1.001
4.56039	1.001
4.60019	1.001
4.63999	1.001
4.67979	0.998
4.71959	0.99
4.75939	0.98
4.79919	0.976
4.83899	0.978
4.87879	0.98
4.91859	0.981
4.95839	0.991
4.99819	1.003
5.03799	1.003
5.07779	1.003
5.11759	1.003
5.15739	1.001
5.19719	1.001
5.23699	1.003
5.27679	1.003
5.31659	1.003
5.35639	1.003
5.39619	1.003
5.43599	1.003
5.47579	1.003
5.51559	1
5.55539	0.998
5.59519	0.995
5.63499	0.996
5.67479	0.99
5.71459	0.965
5.75439	0.936
5.79419	0.928
5.83399	0.913
5.87379	0.948
5.91359	0.95
5.95339	0.953
5.99319	0.951
6.03299	0.953
6.07279	0.94
6.11259	0.945
6.15239	0.943
6.19219	0.941
6.23199	0.938
6.27179	0.933
6.31159	0.93
6.35139	0.92
6.39119	0.91
6.43099	0.893
6.47079	0.871
6.51059	0.856
6.55039	0.826
6.59019	0.796
6.62999	0.73
6.66979	0.588
6.70959	0.32
6.74939	0.076
6.78919	0.066
6.82899	0.1
6.86879	0.196
6.90859	0.306
6.94839	0.366
6.98819	0.401
7.02799	0.403
7.06779	0.39
7.10759	0.353
7.14739	0.26
7.18719	0.186
7.22699	0.151
7.26679	0.251
7.30659	0.223
7.34639	0.196
7.38619	0.396
7.42599	0.48
7.46579	0.451
7.50559	0.518
7.54539	0.55
7.58519	0.541
7.62499	0.526
7.66479	0.568
7.70459	0.585
7.74439	0.598
7.78419	0.513
7.82399	0.485
7.86379	0.501
7.90359	0.505
7.94339	0.583
7.98319	0.638
8.02299	0.638
8.06279	0.611
8.10259	0.608
8.14239	0.633
8.18219	0.606
8.22199	0.553
8.26179	0.551
8.30159	0.548
8.34138	0.561
8.38118	0.556
8.42098	0.566
8.46078	0.56
8.50058	0.538
8.54038	0.523
8.58018	0.55
8.61998	0.603
8.65978	0.66
8.69958	0.696
8.73938	0.73
8.77918	0.758
8.81898	0.781
8.85878	0.801
8.89858	0.803
8.93838	0.803
8.97818	0.795
9.01798	0.693
9.05778	0.518
9.09758	0.591
9.13738	0.621
9.17718	0.515
9.21698	0.481
9.25678	0.475
9.29658	0.398
9.33638	0.285
9.37618	0.196
9.41598	0.143
9.45578	0.075
9.49558	0.04
9.53538	0.033
9.57518	0.033
9.61498	0.033
9.65478	0.033
9.69458	0.043
9.73438	0.086
9.77418	0.163
9.81398	0.233
9.85378	0.235
9.89358	0.24
9.93338	0.338
9.97318	0.46
10.013	0.528
10.0528	0.526
10.0926	0.475
10.1324	0.453
10.1722	0.473
10.212	0.486
10.2518	0.49
10.2916	0.535
10.3314	0.63
10.3712	0.723
10.411	0.781
10.4508	0.816
10.4906	0.828
10.5304	0.833
10.5702	0.815
10.61	0.778
10.6498	0.753
10.6896	0.786
10.7294	0.828
10.7692	0.83
10.809	0.793
10.8488	0.741
10.8886	0.678
10.9284	0.635
10.9682	0.63
11.008	0.616
11.0478	0.575
11.0876	0.518
11.1274	0.498
11.1672	0.49
11.207	0.518
11.2468	0.628
11.2866	0.728
11.3264	0.785
11.3662	0.81
11.406	0.821
11.4458	0.83
11.4856	0.851
11.5254	0.868
11.5652	0.883
11.605	0.89
11.6448	0.891
11.6846	0.893
11.7244	0.893
11.7642	0.891
11.804	0.893
11.8438	0.891
11.8836	0.891
11.9234	0.888
11.9632	0.885
12.003	0.878
12.0428	0.875
12.0826	0.868
12.1224	0.865
12.1622	0.855
12.202	0.855
12.2418	0.848
12.2816	0.843
12.3214	0.835
12.3612	0.823
12.401	0.816
12.4408	0.806
12.4806	0.798
12.5204	0.778
12.5602	0.758
12.6	0.725
12.6398	0.701
12.6796	0.685
12.7194	0.686
12.7592	0.686
12.799	0.693
12.8388	0.693
12.8786	0.691
12.9184	0.678
12.9582	0.665
12.998	0.643
13.0378	0.621
13.0776	0.611
13.1174	0.601
13.1572	0.59
13.197	0.581
13.2368	0.576
13.2766	0.575
13.3164	0.575
13.3562	0.575
13.396	0.575
13.4358	0.558
13.4756	0.54
13.5154	0.518
13.5552	0.498
13.595	0.465
13.6348	0.408
13.6746	0.366
13.7144	0.366
13.7542	0.413
13.794	0.465
13.8338	0.486
13.8736	0.503
13.9134	0.51
13.9532	0.511
13.993	0.513
14.0328	0.515
14.0726	0.515
14.1124	0.51
14.1522	0.503
14.192	0.503
14.2318	0.5
14.2716	0.493
14.3114	0.49
14.3512	0.486
14.391	0.48
14.4308	0.475
14.4706	0.471
14.5104	0.466
14.5502	0.461
14.59	0.456
14.6298	0.453
14.6696	0.45
14.7094	0.441
14.7492	0.438
14.789	0.435
14.8288	0.431
14.8686	0.428
14.9084	0.426
14.9482	0.423
14.988	0.423
15.0278	0.425
15.0676	0.425
15.1074	0.423
15.1472	0.418
15.187	0.416
15.2268	0.416
15.2666	0.416
15.3064	0.416
15.3462	0.416
15.386	0.42
15.4258	0.42
15.4656	0.421
15.5054	0.423
15.5452	0.425
15.585	0.426
15.6248	0.428
15.6646	0.43
15.7044	0.433
15.7442	0.436
15.784	0.443
15.8238	0.446
15.8636	0.456
15.9034	0.465
15.9432	0.465
15.983	0.471
