Infrared Spectrum: 1,3,4-Metheno-2H-cyclobuta[c,d]pentalene, dodecachlorooctahydro-
Formula: C10 Cl12
CAS: 2385-85-5
State: SOLUTION (10% CCl4 FOR 3800-1330, 10% CS2 FOR 1330-400 CM^-^1)
Class: COBLENTZ III
Instrument: DOW KBr FOREPRISM-GRATING
Instrument parameters: BLAZED AT 3.5, 12.0, 20.0 MICRON AND CHANGED AT 5.0, 7.5, 14.9 MICRON
Sampling: TRANSMISSION
Path length: 0.011 CM, 0.010 CM
Resolution: 2
Origin: DOW CHEMICAL COMPANY
1/CM	TRANSMITTANCE
3800	0.8885
3791	0.8884
3782	0.8884
3773	0.8882
3764	0.8883
3755	0.8885
3746	0.8886
3737	0.8887
3728	0.8888
3719	0.8888
3710	0.8889
3701	0.8889
3692	0.8888
3683	0.8887
3674	0.8886
3665	0.8885
3656	0.8885
3647	0.8884
3638	0.8885
3629	0.8885
3620	0.8885
3611	0.8886
3602	0.8886
3593	0.889
3584	0.8894
3575	0.8897
3566	0.8901
3557	0.8905
3548	0.891
3539	0.8914
3530	0.892
3521	0.8924
3512	0.8933
3503	0.8947
3494	0.8962
3485	0.8975
3476	0.8988
3467	0.8998
3458	0.9007
3449	0.9017
3440	0.9027
3431	0.9034
3422	0.9042
3413	0.905
3404	0.9058
3395	0.9065
3386	0.9068
3377	0.9068
3368	0.9071
3359	0.9073
3350	0.9074
3341	0.9075
3332	0.9077
3323	0.9078
3314	0.9078
3305	0.908
3296	0.908
3287	0.9081
3278	0.9081
3269	0.9081
3260	0.9075
3251	0.9068
3242	0.9063
3233	0.9056
3224	0.9051
3215	0.9044
3206	0.9039
3197	0.9033
3188	0.9027
3179	0.9025
3170	0.9027
3161	0.9028
3152	0.9031
3143	0.9028
3134	0.9023
3125	0.9016
3116	0.901
3107	0.9004
3098	0.8998
3089	0.8992
3080	0.8988
3071	0.8983
3062	0.8978
3053	0.8978
3044	0.8982
3035	0.8985
3026	0.8988
3017	0.8987
3008	0.8985
2999	0.8982
2990	0.898
2981	0.8977
2972	0.8977
2963	0.8978
2954	0.8978
2945	0.898
2936	0.8982
2927	0.8982
2918	0.8982
2909	0.8981
2900	0.8981
2891	0.8981
2882	0.898
2873	0.8981
2864	0.8984
2855	0.8986
2846	0.8988
2837	0.899
2828	0.8993
2819	0.8994
2810	0.8997
2801	0.8995
2792	0.899
2783	0.8985
2774	0.898
2765	0.8974
2756	0.8968
2747	0.8965
2738	0.8964
2729	0.8962
2720	0.8961
2711	0.8959
2702	0.8957
2693	0.8954
2684	0.8952
2675	0.8949
2666	0.8946
2657	0.8943
2648	0.8941
2639	0.8941
2630	0.8941
2621	0.8941
2612	0.8941
2603	0.8942
2594	0.8942
2585	0.8943
2576	0.8946
2567	0.8947
2558	0.8949
2549	0.8947
2540	0.8945
2531	0.8943
2522	0.8941
2513	0.8936
2504	0.8932
2495	0.8927
2486	0.8923
2477	0.8928
2468	0.8936
2459	0.8943
2450	0.895
2441	0.8953
2432	0.8958
2423	0.8962
2414	0.8968
2405	0.8971
2396	0.8975
2387	0.9002
2378	0.9024
2369	0.9037
2360	0.9053
2351	0.9068
2342	0.9082
2333	0.9095
2324	0.9099
2315	0.9074
2306	0.9032
2297	0.9016
2288	0.9015
2279	0.9014
2270	0.9014
2261	0.9012
2252	0.9012
2243	0.9008
2234	0.9005
2225	0.9001
2216	0.8996
2207	0.8984
2198	0.8956
2189	0.8944
2180	0.8934
2171	0.8931
2162	0.8928
2153	0.8925
2144	0.8924
2135	0.8921
2126	0.8917
2117	0.8913
2108	0.8908
2099	0.8903
2090	0.8902
2081	0.8901
2072	0.8902
2063	0.8901
2054	0.8898
2045	0.8899
2036	0.8897
2027	0.8893
2018	0.8891
2009	0.8893
2000	0.889
1991	0.871
1982	0.8905
1973	0.8928
1964	0.8949
1955	0.8914
1946	0.8968
1937	0.8995
1928	0.9007
1919	0.9007
1910	0.9007
1901	0.9011
1892	0.9016
1883	0.9021
1874	0.9018
1865	0.8992
1856	0.8973
1847	0.8974
1838	0.8992
1829	0.9009
1820	0.9025
1811	0.904
1802	0.9057
1793	0.9071
1784	0.9078
1775	0.9085
1766	0.9092
1757	0.9101
1748	0.9104
1739	0.91
1730	0.9082
1721	0.9064
1712	0.9046
1703	0.9041
1694	0.9032
1685	0.9011
1676	0.8986
1667	0.8967
1658	0.897
1649	0.8978
1640	0.8973
1631	0.896
1622	0.8968
1613	0.8974
1604	0.8978
1595	0.8987
1586	0.8991
1577	0.8991
1568	0.8989
1559	0.9
1550	0.9014
1541	0.9007
1532	0.8995
1523	0.8971
1514	0.8965
1505	0.8954
1496	0.8939
1487	0.8928
1478	0.8914
1469	0.8898
1460	0.888
1451	0.887
1442	0.8859
1433	0.8844
1424	0.8818
1415	0.8784
1406	0.8739
1397	0.8675
1388	0.8456
1379	0.8421
1370	0.8471
1361	0.8466
1352	0.8602
1343	0.8768
1334	0.8831
1325	0.8823
1316	0.8765
1307	0.8777
1298	0.8786
1289	0.8765
1280	0.8725
1271	0.8711
1262	0.8718
1253	0.8758
1244	0.8796
1235	0.8809
1226	0.8797
1217	0.8733
1208	0.8505
1199	0.8325
1190	0.8311
1181	0.8338
1172	0.8383
1163	0.8295
1154	0.7412
1145	0.2522
1136	0.4937
1127	0.5541
1118	0.7391
1109	0.7643
1100	0.784
1091	0.7925
1082	0.7151
1073	0.6234
1064	0.2524
1055	0.1996
1046	0.565
1037	0.7061
1028	0.7875
1019	0.7996
1010	0.8069
1001	0.8097
992	0.8126
983	0.8359
974	0.8098
965	0.6018
956	0.8208
947	0.88
938	0.8847
929	0.8849
920	0.8902
911	0.8867
902	0.8608
893	0.8809
884	0.8418
875	0.8862
866	0.9014
857	0.9033
848	0.8908
839	0.8701
830	0.5527
821	0.556
812	0.7891
803	0.8717
794	0.884
785	0.8935
776	0.8801
767	0.9068
758	0.8967
749	0.8963
740	0.8977
731	0.8921
722	0.8864
713	0.8671
704	0.8715
695	0.8661
686	0.8703
677	0.8601
668	0.4314
659	0.2766
650	0.428
641	0.8058
632	0.8556
623	0.8718
614	0.868
605	0.8875
596	0.898
587	0.8982
578	0.8925
569	0.8934
560	0.8932
551	0.8912
542	0.8866
533	0.8675
524	0.3821
515	0.8474
506	0.8895
497	0.9027
488	0.9075
479	0.9066
470	0.9012
461	0.8997
452	0.8932
443	0.8897
434	0.8875
425	0.8859
416	0.8871
407	0.8887
398	0.8893
