Infrared Spectrum: 3-BENZOYLOXYESTRA-1,3,5(10)-TRIEN-17-ONE
Formula: C25 H26 O3
CAS: 2393-53-5
State: SOLID (KBr DISC)
Class: COBLENTZ III
Instrument: BECKMAN IR-7
Sampling: TRANSMISSION
Resolution: 4
Origin: THE WORCESTER FOUNDATION FOR EXPERIMENTAL BIOLOGY, Neal L. McNiven
1/CM	TRANSMITTANCE
598.542	0.563
607.287	0.574
616.033	0.582
624.778	0.62
633.524	0.728
642.269	0.777
651.015	0.8
659.76	0.833
668.506	0.832
677.251	0.7541
685.997	0.67
694.742	0.756
703.487	0.3252
712.233	0.2807
720.978	0.8049
729.724	0.921
738.469	0.935
747.215	0.93
755.96	0.934
764.706	0.935
773.451	0.9
782.197	0.63
790.942	0.888
799.687	0.794
808.433	0.8421
817.178	0.546
825.924	0.802
834.669	0.804
843.415	0.871
852.16	0.875
860.906	0.889
869.651	0.882
878.396	0.825
887.142	0.5931
895.887	0.649
904.633	0.743
913.378	0.6419
922.124	0.825
930.869	0.809
939.615	0.778
948.36	0.817
957.106	0.822
965.851	0.769
974.596	0.743
983.342	0.722
992.087	0.651
1000.83	0.469
1009.58	0.5059
1018.32	0.3251
1027.07	0.6299
1035.81	0.571
1044.56	0.509
1053.31	0.345
1062.05	0.129
1070.8	0.416
1079.54	0.184
1088.29	0.47
1097.03	0.526
1105.78	0.545
1114.52	0.603
1123.27	0.636
1132.01	0.571
1140.76	0.51
1149.51	0.268
1158.25	0.3939
1167	0.467
1175.74	0.311
1184.49	0.55
1193.23	0.562
1201.98	0.2821
1210.72	0.271
1219.47	0.195
1228.21	0.307
1236.96	0.391
1245.71	0.181
1254.45	0.171
1263.2	0.068
1271.94	0.252
1280.69	0.431
1289.43	0.556
1298.18	0.619
1306.92	0.704
1315.67	0.731
1324.41	0.836
1333.16	0.827
1341.91	0.846
1350.65	0.875
1359.4	0.841
1368.14	0.6011
1376.89	0.786
1385.63	0.812
1394.38	0.808
1403.12	0.696
1411.87	0.759
1420.61	0.752
1429.36	0.775
1438.11	0.721
1446.85	0.372
1455.6	0.752
1464.34	0.709
1473.09	0.772
1481.83	0.547
1490.58	0.3289
1499.32	0.734
1508.07	0.861
1516.81	0.92
1525.56	0.919
1534.31	0.913
1543.05	0.912
1551.8	0.885
1560.54	0.868
1569.29	0.831
1578.03	0.681
1586.78	0.761
1595.52	0.555
1604.27	0.728
1613.01	0.846
1621.76	0.857
1630.51	0.852
1639.25	0.836
1648	0.812
1656.74	0.828
1665.49	0.822
1674.23	0.788
1682.98	0.717
1691.72	0.657
1700.47	0.614
1709.21	0.482
1717.96	0.1941
1726.71	0.02
1735.45	0.096
1744.2	0.435
1752.94	0.689
1761.69	0.8
1770.43	0.872
1779.18	0.886
1787.92	0.892
1796.67	0.923
1805.41	0.944
1814.16	0.941
1822.91	0.939
1831.65	0.962
1840.4	0.97
1849.14	0.973
1857.89	0.972
1866.63	0.967
1875.38	0.955
1884.12	0.949
1892.87	0.949
1901.61	0.947
1910.36	0.944
1919.11	0.947
1927.85	0.952
1936.6	0.957
1945.34	0.961
1954.09	0.951
1962.83	0.941
1971.58	0.941
1980.32	0.946
1989.07	0.952
1997.81	0.955
2006.56	0.9553
2015.31	0.956
2024.05	0.956
2032.8	0.9557
2041.54	0.955
2050.29	0.954
2059.03	0.953
2067.78	0.952
2076.52	0.9516
2085.27	0.95
2094.01	0.9486
2102.76	0.947
2111.51	0.9445
2120.25	0.943
2129	0.941
2137.74	0.939
2146.49	0.9365
2155.23	0.9344
2163.98	0.9314
2172.72	0.9294
2181.47	0.9264
2190.21	0.9244
2198.96	0.9214
2207.71	0.918
2216.45	0.9163
2225.2	0.915
2233.94	0.9123
2242.69	0.91
2251.43	0.9073
2260.18	0.9055
2268.92	0.902
2277.67	0.8992
2286.41	0.8962
2295.16	0.8923
2303.91	0.8892
2312.65	0.8781
2321.4	0.8674
2330.14	0.8554
2338.89	0.8451
2347.63	0.8421
2356.38	0.842
2365.12	0.843
2373.87	0.8539
2382.61	0.862
2391.36	0.87
2400.11	0.875
2408.85	0.877
2417.6	0.875
2426.34	0.8729
2435.09	0.87
2443.83	0.869
2452.58	0.868
2461.32	0.867
2470.07	0.867
2478.81	0.866
2487.56	0.865
2496.31	0.865
2505.05	0.8648
2513.8	0.865
2522.54	0.864
2531.29	0.8627
2540.03	0.862
2548.78	0.8607
2557.52	0.8577
2566.27	0.8536
2575.01	0.8516
2583.76	0.849
2592.51	0.847
2601.25	0.8456
2610	0.844
2618.74	0.8425
2627.49	0.841
2636.23	0.84
2644.98	0.839
2653.72	0.838
2662.47	0.837
2671.21	0.8371
2679.96	0.837
2688.71	0.8354
2697.45	0.833
2706.2	0.832
2714.94	0.8304
2723.69	0.8257
2732.43	0.8203
2741.18	0.8173
2749.92	0.8156
2758.67	0.8135
2767.41	0.81
2776.16	0.8049
2784.91	0.7919
2793.65	0.7556
2802.4	0.7097
2811.14	0.6492
2819.89	0.6999
2828.63	0.6792
2837.38	0.6227
2846.12	0.5183
2854.87	0.5065
2863.61	0.4496
2872.36	0.5001
2881.11	0.5596
2889.85	0.576
2898.6	0.5217
2907.34	0.4552
2916.09	0.389
2924.83	0.32
2933.58	0.3626
2942.32	0.4229
2951.07	0.5292
2959.81	0.5728
2968.56	0.592
2977.31	0.6112
2986.05	0.6471
2994.8	0.6802
3003.54	0.7111
3012.29	0.7376
3021.03	0.7553
3029.78	0.7547
3038.52	0.7524
3047.27	0.7385
3056.01	0.7231
3064.76	0.69
3073.51	0.657
3082.25	0.696
3091	0.7372
3099.74	0.751
3108.49	0.751
3117.23	0.751
3125.98	0.751
3134.72	0.751
3143.47	0.752
3152.21	0.753
3160.96	0.752
3169.71	0.752
3178.45	0.752
3187.2	0.754
3195.94	0.754
3204.69	0.754
3213.43	0.754
3222.18	0.7557
3230.92	0.757
3239.67	0.757
3248.41	0.7563
3257.16	0.755
3265.91	0.757
3274.65	0.7588
3283.4	0.759
3292.14	0.759
3300.89	0.757
3309.63	0.7562
3318.38	0.7542
3327.12	0.751
3335.87	0.7491
3344.61	0.749
3353.36	0.748
3362.1	0.7441
3370.85	0.7381
3379.6	0.736
3388.34	0.734
3397.09	0.732
3405.83	0.73
3414.58	0.73
3423.32	0.7279
3432.07	0.7219
3440.81	0.7084
3449.56	0.6899
3458.3	0.6989
3467.05	0.7176
3475.8	0.728
3484.54	0.7363
3493.29	0.741
3502.03	0.7422
3510.78	0.744
3519.52	0.7442
3528.27	0.746
3537.01	0.747
3545.76	0.7483
3554.5	0.7493
3563.25	0.751
3572	0.7523
3580.74	0.754
3589.49	0.753
3598.23	0.753
3606.98	0.7558
3615.72	0.7598
3624.47	0.7654
3633.21	0.7685
3641.96	0.7709
3650.7	0.774
3659.45	0.775
3668.2	0.7775
3676.94	0.779
3685.69	0.7806
3694.43	0.7816
3703.18	0.7814
3711.92	0.7794
3720.67	0.7774
3729.41	0.775
3738.16	0.7763
3746.9	0.7794
3755.65	0.7793
3764.4	0.778
3773.14	0.7763
3781.89	0.775
3790.63	0.774
3799.38	0.773
3808.12	0.7758
3816.87	0.778
3825.61	0.779
3834.36	0.7772
3843.1	0.775
3851.85	0.7731
3860.6	0.772
3869.34	0.7701
3878.09	0.77
3886.83	0.768
3895.58	0.767
3904.32	0.766
3913.07	0.765
3921.81	0.765
3930.56	0.764
3939.3	0.762
3948.05	0.762
3956.8	0.761
3965.54	0.7609
3974.29	0.7589
3983.03	0.757
3991.78	0.756
4000.52	0.7548
4009.27	0.7548
