Infrared Spectrum: PHOSPHONIC ACID, METHYL-, o,o-DIBUTYL ESTER
Formula: C9 H21 O3 P
CAS: 2404-73-1
State: LIQUID
Class: COBLENTZ
Instrument: Not specified, most likely a prism, grating, or hybrid spectrometer.
Sampling: TRANSMISSION
Path length: LIQUID FILM BETWEEN KBr PLATES
Resolution: 4
Origin: G. A. M. S.
1/CM	TRANSMITTANCE
614.454	0.748
623.62	0.75
632.785	0.753
641.951	0.759
651.117	0.765
660.282	0.766
669.448	0.771
678.614	0.773
687.78	0.768
696.945	0.753
706.111	0.742
715.277	0.743
724.442	0.733
733.608	0.723
742.774	0.708
751.939	0.693
761.105	0.734
770.271	0.754
779.437	0.736
788.602	0.696
797.768	0.657
806.934	0.615
816.099	0.639
825.265	0.65
834.431	0.671
843.596	0.743
852.762	0.771
861.928	0.771
871.093	0.751
880.259	0.711
889.425	0.651
898.591	0.552
907.756	0.523
916.922	0.45
926.088	0.429
935.253	0.631
944.419	0.648
953.585	0.564
962.75	0.506
971.916	0.351
981.082	0.271
990.248	0.322
999.413	0.352
1008.58	0.342
1017.74	0.263
1026.91	0.231
1036.08	0.288
1045.24	0.335
1054.41	0.375
1063.57	0.329
1072.74	0.338
1081.9	0.51
1091.07	0.628
1100.24	0.693
1109.4	0.694
1118.57	0.679
1127.73	0.707
1136.9	0.717
1146.06	0.699
1155.23	0.722
1164.4	0.739
1173.56	0.76
1182.73	0.765
1191.89	0.762
1201.06	0.746
1210.22	0.722
1219.39	0.674
1228.56	0.527
1237.72	0.374
1246.89	0.259
1256.05	0.322
1265.22	0.481
1274.38	0.613
1283.55	0.717
1292.72	0.72
1301.88	0.657
1311.05	0.487
1320.21	0.628
1329.38	0.753
1338.54	0.777
1347.71	0.788
1356.88	0.785
1366.04	0.773
1375.21	0.739
1384.37	0.705
1393.54	0.723
1402.7	0.75
1411.87	0.754
1421.04	0.74
1430.2	0.745
1439.37	0.748
1448.53	0.731
1457.7	0.659
1466.86	0.631
1476.03	0.702
1485.2	0.759
1494.36	0.786
1503.53	0.799
1512.69	0.803
1521.86	0.806
1531.02	0.809
1540.19	0.809
1549.35	0.811
1558.52	0.812
1567.69	0.812
1576.85	0.814
1586.02	0.814
1595.18	0.812
1604.35	0.811
1613.51	0.811
1622.68	0.808
1631.85	0.806
1641.01	0.806
1650.18	0.806
1659.34	0.808
1668.51	0.809
1677.67	0.811
1686.84	0.812
1696.01	0.814
1705.17	0.815
1714.34	0.815
1723.5	0.819
1732.67	0.82
1741.83	0.823
1751	0.828
1760.17	0.829
1769.33	0.831
1778.5	0.832
1787.66	0.834
1796.83	0.834
1805.99	0.834
1815.16	0.834
1824.33	0.835
1833.49	0.837
1842.66	0.837
1851.82	0.837
1860.99	0.838
1870.15	0.84
1879.32	0.843
1888.49	0.848
1897.65	0.848
1906.82	0.848
1915.98	0.848
1925.15	0.849
1934.31	0.849
1943.48	0.849
1952.65	0.842
1961.81	0.84
1970.98	0.854
1980.14	0.857
1989.31	0.852
1998.47	0.851
2007.64	0.849
2016.81	0.849
2025.97	0.848
2035.14	0.847
2044.3	0.846
2053.47	0.846
2062.63	0.845
2071.8	0.8441
2080.97	0.843
2090.13	0.8425
2099.3	0.842
2108.46	0.842
2117.63	0.84
2126.79	0.8391
2135.96	0.838
2145.13	0.837
2154.29	0.837
2163.46	0.835
2172.62	0.835
2181.79	0.834
2190.95	0.834
2200.12	0.834
2209.29	0.834
2218.45	0.834
2227.62	0.834
2236.78	0.832
2245.95	0.832
2255.11	0.832
2264.28	0.831
2273.44	0.831
2282.61	0.831
2291.78	0.831
2300.94	0.831
2310.11	0.829
2319.27	0.829
2328.44	0.829
2337.6	0.828
2346.77	0.828
2355.94	0.826
2365.1	0.826
2374.27	0.826
2383.43	0.825
2392.6	0.825
2401.76	0.8243
2410.93	0.823
2420.1	0.823
2429.26	0.823
2438.43	0.823
2447.59	0.823
2456.76	0.823
2465.92	0.823
2475.09	0.823
2484.26	0.823
2493.42	0.823
2502.59	0.822
2511.75	0.822
2520.92	0.822
2530.08	0.822
2539.25	0.822
2548.42	0.82
2557.58	0.82
2566.75	0.82
2575.91	0.82
2585.08	0.82
2594.24	0.82
2603.41	0.819
2612.58	0.819
2621.74	0.8164
2630.91	0.8147
2640.07	0.8117
2649.24	0.809
2658.4	0.8057
2667.57	0.805
2676.74	0.803
2685.9	0.802
2695.07	0.802
2704.23	0.8
2713.4	0.8
2722.56	0.8
2731.73	0.799
2740.9	0.797
2750.06	0.797
2759.23	0.792
2768.39	0.789
2777.56	0.786
2786.72	0.782
2795.89	0.7782
2805.06	0.7703
2814.22	0.765
2823.39	0.7561
2832.55	0.7458
2841.72	0.7288
2850.88	0.7041
2860.05	0.6573
2869.22	0.6009
2878.38	0.5592
2887.55	0.5497
2896.71	0.553
2905.88	0.5447
2915.04	0.5254
2924.21	0.4804
2933.38	0.4501
2942.54	0.4084
2951.71	0.3832
2960.87	0.3666
2970.04	0.3584
2979.2	0.3818
2988.37	0.4543
2997.53	0.4952
3006.7	0.6181
3015.87	0.7037
3025.03	0.734
3034.2	0.7635
3043.36	0.7714
3052.53	0.7762
3061.69	0.7792
3070.86	0.782
3080.03	0.7825
3089.19	0.786
3098.36	0.786
3107.52	0.788
3116.69	0.7882
3125.85	0.789
3135.02	0.791
3144.19	0.791
3153.35	0.791
3162.52	0.7937
3171.68	0.792
3180.85	0.7923
3190.01	0.794
3199.18	0.796
3208.35	0.794
3217.51	0.794
3226.68	0.794
3235.84	0.7942
3245.01	0.794
3254.17	0.794
3263.34	0.794
3272.51	0.794
3281.67	0.796
3290.84	0.796
3300	0.797
3309.17	0.796
3318.33	0.796
3327.5	0.796
3336.67	0.796
3345.83	0.796
3355	0.796
3364.16	0.7939
3373.33	0.7919
3382.49	0.7909
3391.66	0.7889
3400.83	0.7859
3409.99	0.782
3419.16	0.78
3428.32	0.7769
3437.49	0.7758
3446.65	0.771
3455.82	0.769
3464.99	0.766
3474.15	0.765
3483.32	0.763
3492.48	0.762
3501.65	0.76
3510.81	0.76
3519.98	0.76
3529.15	0.762
3538.31	0.762
3547.48	0.766
3556.64	0.769
3565.81	0.771
3574.97	0.776
3584.14	0.779
3593.31	0.78
3602.47	0.783
3611.64	0.786
3620.8	0.789
3629.97	0.791
3639.13	0.796
3648.3	0.797
3657.46	0.799
3666.63	0.8
3675.8	0.802
3684.96	0.802
3694.13	0.803
3703.29	0.8031
3712.46	0.803
3721.62	0.803
3730.79	0.805
3739.96	0.805
3749.12	0.805
3758.29	0.805
3767.45	0.805
3776.62	0.805
3785.78	0.8059
3794.95	0.8059
3804.12	0.806
3813.28	0.806
3822.45	0.8061
3831.61	0.8032
3840.78	0.803
3849.94	0.803
3859.11	0.8021
3868.28	0.802
3877.44	0.802
3886.61	0.8
3895.77	0.8
3904.94	0.8
3914.1	0.8
3923.27	0.8
3932.44	0.8
3941.6	0.8
3950.77	0.8
3959.93	0.8
3969.1	0.8
3978.26	0.8
3987.43	0.8
