Infrared Spectrum: BICYCLO[2,2,2]OCT-5-ENE-2,3-DICARBOXYLIC ANHYDRIDE, ENDO-
Formula: C10 H10 O3
CAS: 24327-08-0
State: SOLUTION, SATURATED AT ABOUT 1% (CCl4 FOR 4000-1330, CS2 FOR 1330-480 CM^-^1) VS SOLVENT
Class: COBLENTZ III
Instrument: CARY 90 (GRATING)
Instrument parameters: ORDER CHANGES: 3000, 2000, 1200 CM^-^1
Sampling: TRANSMISSION
Path length: 0.010 CM, AND 0.010 CM
Resolution: 2
Origin: WESTERN REGIONAL RES. USDA
1/CM	TRANSMITTANCE
4030	0.9145
4021	0.9145
4012	0.9144
4003	0.9144
3994	0.9145
3985	0.9145
3976	0.9144
3967	0.914
3958	0.9136
3949	0.9132
3940	0.9131
3931	0.9133
3922	0.9137
3913	0.9139
3904	0.914
3895	0.9137
3886	0.9135
3877	0.9133
3868	0.9131
3859	0.9128
3850	0.9127
3841	0.9124
3832	0.9123
3823	0.9121
3814	0.9123
3805	0.9123
3796	0.9123
3787	0.9121
3778	0.9115
3769	0.9109
3760	0.9104
3751	0.9098
3742	0.9092
3733	0.9086
3724	0.9078
3715	0.9071
3706	0.9065
3697	0.9058
3688	0.9042
3679	0.9023
3670	0.9005
3661	0.8987
3652	0.8959
3643	0.893
3634	0.8925
3625	0.8921
3616	0.8918
3607	0.8915
3598	0.8912
3589	0.8908
3580	0.8904
3571	0.8909
3562	0.8918
3553	0.8927
3544	0.8936
3535	0.8945
3526	0.8954
3517	0.8963
3508	0.8971
3499	0.8981
3490	0.8985
3481	0.8987
3472	0.8989
3463	0.8991
3454	0.8993
3445	0.8995
3436	0.8997
3427	0.8999
3418	0.9001
3409	0.9004
3400	0.9009
3391	0.9012
3382	0.9016
3373	0.902
3364	0.9024
3355	0.9028
3346	0.9032
3337	0.9033
3328	0.9033
3319	0.9033
3310	0.9033
3301	0.9033
3292	0.9033
3283	0.9032
3274	0.903
3265	0.9025
3256	0.9023
3247	0.9018
3238	0.9015
3229	0.9011
3220	0.9009
3211	0.9011
3202	0.9014
3193	0.9015
3184	0.9017
3175	0.9018
3166	0.9013
3157	0.9005
3148	0.8998
3139	0.899
3130	0.8991
3121	0.8991
3112	0.8985
3103	0.8971
3094	0.8949
3085	0.888
3076	0.8734
3067	0.8728
3058	0.8823
3049	0.8868
3040	0.889
3031	0.89
3022	0.8899
3013	0.8874
3004	0.8798
2995	0.8537
2986	0.8048
2977	0.7424
2968	0.7744
2959	0.7908
2950	0.8012
2941	0.8506
2932	0.863
2923	0.8742
2914	0.8861
2905	0.8923
2896	0.8597
2887	0.7757
2878	0.8473
2869	0.8885
2860	0.894
2851	0.8954
2842	0.896
2833	0.8981
2824	0.8992
2815	0.8996
2806	0.8999
2797	0.9004
2788	0.901
2779	0.9014
2770	0.9012
2761	0.9007
2752	0.9004
2743	0.8999
2734	0.8996
2725	0.8992
2716	0.899
2707	0.8986
2698	0.8983
2689	0.898
2680	0.8978
2671	0.8978
2662	0.898
2653	0.898
2644	0.898
2635	0.8982
2626	0.8985
2617	0.8988
2608	0.8992
2599	0.8995
2590	0.8998
2581	0.9001
2572	0.9005
2563	0.9005
2554	0.9005
2545	0.9006
2536	0.9006
2527	0.9002
2518	0.8999
2509	0.8996
2500	0.8993
2491	0.8991
2482	0.899
2473	0.8988
2464	0.8986
2455	0.8984
2446	0.898
2437	0.8973
2428	0.8967
2419	0.8961
2410	0.8955
2401	0.8949
2392	0.8944
2383	0.894
2374	0.8937
2365	0.8933
2356	0.8931
2347	0.8941
2338	0.8951
2329	0.8957
2320	0.8963
2311	0.8968
2302	0.8975
2293	0.8981
2284	0.8988
2275	0.9002
2266	0.9016
2257	0.9028
2248	0.9039
2239	0.9044
2230	0.9045
2221	0.9044
2212	0.9044
2203	0.9043
2194	0.9043
2185	0.9041
2176	0.9032
2167	0.9021
2158	0.9015
2149	0.9025
2140	0.9034
2131	0.9044
2122	0.9053
2113	0.9059
2104	0.9056
2095	0.9052
2086	0.9049
2077	0.9045
2068	0.902
2059	0.8991
2050	0.8944
2041	0.891
2032	0.8892
2023	0.8887
2014	0.889
2005	0.8906
1996	0.8915
1987	0.8925
1978	0.893
1969	0.8932
1960	0.8925
1951	0.8925
1942	0.8936
1933	0.8937
1924	0.8925
1915	0.8909
1906	0.8852
1897	0.8733
1888	0.8402
1879	0.7289
1870	0.775
1861	0.7807
1852	0.7821
1843	0.7325
1834	0.7887
1825	0.7987
1816	0.7449
1807	0.7451
1798	0.6088
1789	0.2551
1780	0.1133
1771	0.5486
1762	0.7194
1753	0.7968
1744	0.8327
1735	0.8617
1726	0.8695
1717	0.8667
1708	0.8662
1699	0.8753
1690	0.8839
1681	0.8847
1672	0.882
1663	0.8807
1654	0.882
1645	0.8824
1636	0.8803
1627	0.8767
1618	0.8723
1609	0.8692
1600	0.8664
1591	0.8645
1582	0.8628
1573	0.8611
1564	0.856
1555	0.8492
1546	0.851
1537	0.8598
1528	0.8683
1519	0.8745
1510	0.8798
1501	0.8843
1492	0.8884
1483	0.8907
1474	0.889
1465	0.8588
1456	0.8785
1447	0.8783
1438	0.8845
1429	0.884
1420	0.8839
1411	0.8847
1402	0.884
1393	0.8833
1384	0.88
1375	0.8512
1366	0.8795
1357	0.8814
1348	0.8498
1339	0.8823
1330	0.8827
1321	0.8625
1312	0.8854
1303	0.8846
1294	0.8544
1285	0.8633
1276	0.8628
1267	0.8606
1258	0.7945
1249	0.7538
1240	0.6399
1231	0.6026
1222	0.5723
1213	0.7268
1204	0.751
1195	0.8486
1186	0.8595
1177	0.8595
1168	0.8111
1159	0.8525
1150	0.8592
1141	0.8602
1132	0.8588
1123	0.856
1114	0.8523
1105	0.8471
1096	0.8256
1087	0.6941
1078	0.5346
1069	0.7614
1060	0.8395
1051	0.8443
1042	0.8565
1033	0.854
1024	0.861
1015	0.8605
1006	0.8571
997	0.8562
988	0.8593
979	0.8234
970	0.853
961	0.8553
952	0.7893
943	0.5419
934	0.6686
925	0.8338
916	0.8318
907	0.7157
898	0.779
889	0.8501
880	0.8596
871	0.8604
862	0.8517
853	0.8393
844	0.7989
835	0.8577
826	0.8749
817	0.8791
808	0.8797
799	0.8799
790	0.878
781	0.7951
772	0.855
763	0.8783
754	0.8893
745	0.8908
736	0.889
727	0.8444
718	0.8633
709	0.8845
700	0.8863
691	0.8832
682	0.8438
673	0.8784
664	0.8873
655	0.8815
646	0.8816
637	0.8961
628	0.8946
619	0.8778
610	0.8971
601	0.896
592	0.8721
583	0.8273
574	0.8928
565	0.8962
556	0.9034
547	0.9047
538	0.9021
529	0.8977
520	0.8928
511	0.889
502	0.8893
493	0.8918
