Infrared Spectrum: 2-ANISAMIDE
Formula: C8 H9 N O2
CAS: 2439-77-2
State: SOLID (SPLIT MULL, FLUOROLUBE FOR 3800-1330 AND NUJOL FOR 1330-400 CM ^-^1)
Melting point: 127 C
Class: COBLENTZ III
Instrument: BECKMAN IR-9 (GRATING)
Instrument parameters: ORDER CHANGES AT 670, 1200, 2000 CM^-^1
Sampling: TRANSMISSION
Resolution: 4
Origin: DOW CHEMICAL COMPANY
1/CM	TRANSMITTANCE
407.195	0.577
416.189	0.612
425.183	0.681
434.176	0.765
443.17	0.802
452.164	0.816
461.158	0.876
470.152	0.908
479.146	0.931
488.139	0.949
497.133	0.955
506.127	0.95
515.121	0.928
524.115	0.734
533.108	0.817
542.102	0.904
551.096	0.837
560.09	0.879
569.084	0.948
578.077	0.939
587.071	0.904
596.065	0.782
605.059	0.816
614.053	0.523
623.047	0.45
632.04	0.384
641.034	0.338
650.028	0.608
659.022	0.791
668.016	0.87
677.009	0.908
686.003	0.917
694.997	0.896
703.991	0.89
712.985	0.901
721.978	0.827
730.972	0.734
739.966	0.496
748.96	0.741
757.954	0.21
766.948	0.441
775.941	0.516
784.935	0.708
793.929	0.862
802.923	0.68
811.917	0.382
820.91	0.709
829.904	0.868
838.898	0.913
847.892	0.931
856.886	0.934
865.879	0.858
874.873	0.962
883.867	0.973
892.861	0.97
901.855	0.97
910.849	0.973
919.842	0.971
928.836	0.971
937.83	0.964
946.824	0.955
955.818	0.741
964.811	0.948
973.805	0.948
982.799	0.928
991.793	0.945
1000.79	0.938
1009.78	0.91
1018.77	0.755
1027.77	0.4781
1036.76	0.862
1045.76	0.827
1054.75	0.826
1063.74	0.921
1072.74	0.908
1081.73	0.877
1090.72	0.788
1099.72	0.725
1108.71	0.253
1117.71	0.737
1126.7	0.861
1135.69	0.858
1144.69	0.803
1153.68	0.615
1162.68	0.82
1171.67	0.715
1180.66	0.29
1189.66	0.758
1198.65	0.802
1207.64	0.786
1216.64	0.741
1225.63	0.667
1234.63	0.503
1243.62	0.1
1252.61	0.27
1261.61	0.625
1270.6	0.6259
1279.59	0.2481
1288.59	0.577
1297.58	0.601
1306.58	0.652
1315.57	0.676
1324.56	0.698
1333.56	0.72
1342.55	0.716
1351.55	0.697
1360.54	0.66
1369.53	0.643
1378.53	0.603
1387.52	0.41
1396.51	0.248
1405.51	0.368
1414.5	0.654
1423.5	0.678
1432.49	0.171
1441.48	0.734
1450.48	0.633
1459.47	0.172
1468.46	0.2041
1477.46	0.586
1486.45	0.3399
1495.45	0.643
1504.44	0.723
1513.43	0.767
1522.43	0.753
1531.42	0.733
1540.42	0.702
1549.41	0.631
1558.4	0.575
1567.4	0.402
1576.39	0.286
1585.38	0.401
1594.38	0.096
1603.37	0.061
1612.37	0.043
1621.36	0.065
1630.35	0.023
1639.35	0.119
1648.34	0.416
1657.33	0.625
1666.33	0.73
1675.32	0.837
1684.32	0.892
1693.31	0.929
1702.3	0.95
1711.3	0.955
1720.29	0.952
1729.29	0.966
1738.28	0.98
1747.27	0.988
1756.27	0.994
1765.26	0.992
1774.25	0.988
1783.25	0.987
1792.24	0.992
1801.24	0.997
1810.23	0.99
1819.22	0.981
1828.22	0.99
1837.21	0.98
1846.21	0.984
1855.2	0.991
1864.19	0.988
1873.19	0.98
1882.18	0.981
1891.17	0.98
1900.17	0.973
1909.16	0.963
1918.16	0.974
1927.15	0.956
1936.14	0.957
1945.14	0.973
1954.13	0.955
1963.12	0.948
1972.12	0.963
1981.11	0.959
1990.11	0.96
1999.1	0.96
2008.09	0.956
2017.09	0.946
2026.08	0.945
2035.08	0.9327
2044.07	0.924
2053.06	0.925
2062.06	0.929
2071.05	0.9318
2080.04	0.934
2089.04	0.9254
2098.03	0.9209
2107.03	0.9239
2116.02	0.924
2125.01	0.918
2134.01	0.917
2143	0.915
2151.99	0.9128
2160.99	0.908
2169.98	0.9038
2178.98	0.8955
2187.97	0.8915
2196.96	0.889
2205.96	0.887
2214.95	0.884
2223.95	0.883
2232.94	0.876
2241.93	0.872
2250.93	0.869
2259.92	0.863
2268.91	0.858
2277.91	0.854
2286.9	0.851
2295.9	0.8496
2304.89	0.8455
2313.88	0.845
2322.88	0.845
2331.87	0.847
2340.86	0.847
2349.86	0.847
2358.85	0.848
2367.85	0.854
2376.84	0.856
2385.83	0.8469
2394.83	0.844
2403.82	0.842
2412.82	0.841
2421.81	0.841
2430.8	0.841
2439.8	0.841
2448.79	0.8417
2457.78	0.84
2466.78	0.838
2475.77	0.834
2484.77	0.8305
2493.76	0.826
2502.75	0.828
2511.75	0.827
2520.74	0.826
2529.73	0.827
2538.73	0.828
2547.72	0.827
2556.72	0.8262
2565.71	0.826
2574.7	0.826
2583.7	0.824
2592.69	0.821
2601.69	0.82
2610.68	0.819
2619.67	0.817
2628.67	0.814
2637.66	0.813
2646.65	0.8099
2655.65	0.806
2664.64	0.8028
2673.64	0.7988
2682.63	0.793
2691.62	0.7917
2700.62	0.786
2709.61	0.7832
2718.6	0.778
2727.6	0.7746
2736.59	0.767
2745.59	0.759
2754.58	0.75
2763.57	0.747
2772.57	0.75
2781.56	0.757
2790.56	0.758
2799.55	0.761
2808.54	0.76
2817.54	0.7554
2826.53	0.746
2835.52	0.7329
2844.52	0.6779
2853.51	0.7256
2862.51	0.732
2871.5	0.7289
2880.49	0.7218
2889.49	0.7019
2898.48	0.704
2907.47	0.6978
2916.47	0.6866
2925.46	0.6847
2934.46	0.678
2943.45	0.6494
2952.44	0.6128
2961.44	0.6562
2970.43	0.6577
2979.43	0.5787
2988.42	0.6272
2997.41	0.646
3006.41	0.6244
3015.4	0.5446
3024.39	0.6287
3033.39	0.6192
3042.38	0.6021
3051.38	0.5895
3060.37	0.5766
3069.36	0.5622
3078.36	0.5466
3087.35	0.5341
3096.35	0.5202
3105.34	0.4971
3114.33	0.4789
3123.33	0.4507
3132.32	0.4211
3141.31	0.3951
3150.31	0.3525
3159.3	0.312
3168.3	0.2605
3177.29	0.2215
3186.28	0.1991
3195.28	0.1866
3204.27	0.1959
3213.26	0.23
3222.26	0.321
3231.25	0.3915
3240.25	0.4275
3249.24	0.4459
3258.23	0.4638
3267.23	0.469
3276.22	0.4734
3285.22	0.4914
3294.21	0.4998
3303.2	0.517
3312.2	0.537
3321.19	0.548
3330.18	0.553
3339.18	0.5491
3348.17	0.5282
3357.17	0.509
3366.16	0.5101
3375.15	0.52
3384.15	0.4837
3393.14	0.4173
3402.13	0.2289
3411.13	0.0823
3420.12	0.1382
3429.12	0.5357
3438.11	0.6881
3447.1	0.7381
3456.1	0.7526
3465.09	0.767
3474.09	0.772
3483.08	0.7755
3492.07	0.776
3501.07	0.7744
3510.06	0.7697
3519.05	0.7657
3528.05	0.7603
3537.04	0.7543
3546.04	0.7484
3555.03	0.7444
3564.02	0.7413
3573.02	0.74
3582.01	0.7331
3591	0.73
3600	0.726
3608.99	0.722
3617.99	0.718
3626.98	0.715
3635.97	0.712
3644.97	0.709
3653.96	0.708
3662.96	0.706
3671.95	0.704
3680.94	0.7017
3689.94	0.6986
3698.93	0.697
3707.92	0.695
3716.92	0.6931
3725.91	0.6905
3734.91	0.687
3743.9	0.684
3752.89	0.6804
3761.89	0.678
3770.88	0.6763
3779.87	0.674
3788.87	0.673
3797.86	0.67
