Infrared Spectrum: Coumarin, 8-methoxy-
Formula: C10 H8 O3
CAS: 2445-81-0
State: SOLUTION (10% CCl4 FOR 4000-450 CM^-^1) VS SOLVENT
Class: COBLENTZ III
Instrument: CARY 90 (GRATING)
Instrument parameters: GRATING CHANGES: 3000, 2000, 1200 CM^-^1
Sampling: TRANSMISSION
Path length: 0.010 CM
Resolution: 2
Origin: WESTERN REGIONAL RES. USDA
1/CM	TRANSMITTANCE
454	0.4464
463	0.4657
472	0.4902
481	0.5251
490	0.5631
499	0.5886
508	0.6011
517	0.6009
526	0.6541
535	0.6675
544	0.675
553	0.7275
562	0.7671
571	0.7904
580	0.8096
589	0.8233
598	0.8301
607	0.8353
616	0.8378
625	0.839
634	0.8394
643	0.8394
652	0.8403
661	0.8479
670	0.8605
679	0.852
688	0.8472
697	0.7978
706	0.8567
715	0.8671
724	0.8665
733	0.8659
742	0.8652
751	0.8646
760	0.864
769	0.8633
778	0.8627
787	0.862
796	0.8614
805	0.8564
814	0.847
823	0.8028
832	0.5189
841	0.9054
850	0.8669
859	0.8952
868	0.9079
877	0.8691
886	0.9075
895	0.8764
904	0.8604
913	0.8059
922	0.7991
931	0.8963
940	0.8974
949	0.8946
958	0.9056
967	0.8885
976	0.8645
985	0.896
994	0.8949
1003	0.8929
1012	0.8925
1021	0.8793
1030	0.8739
1039	0.8873
1048	0.852
1057	0.8466
1066	0.8049
1075	0.499
1084	0.6398
1093	0.8211
1102	0.8678
1111	0.8674
1120	0.844
1129	0.8285
1138	0.886
1147	0.8911
1156	0.8789
1165	0.6713
1174	0.7115
1183	0.8719
1192	0.8631
1201	0.8224
1210	0.8744
1219	0.8813
1228	0.8639
1237	0.7658
1246	0.856
1255	0.6857
1264	0.7929
1273	0.3717
1282	0.785
1291	0.8729
1300	0.8796
1309	0.8867
1318	0.8892
1327	0.8844
1336	0.8723
1345	0.854
1354	0.886
1363	0.899
1372	0.8997
1381	0.8928
1390	0.86
1399	0.7269
1408	0.8923
1417	0.8937
1426	0.8764
1435	0.7431
1444	0.8472
1453	0.8092
1462	0.7066
1471	0.7351
1480	0.7845
1489	0.8683
1498	0.8844
1507	0.8944
1516	0.8875
1525	0.891
1534	0.8951
1543	0.893
1552	0.8897
1561	0.8637
1570	0.5608
1579	0.7855
1588	0.8674
1597	0.843
1606	0.7633
1615	0.7827
1624	0.8116
1633	0.8726
1642	0.8839
1651	0.8848
1660	0.881
1669	0.8757
1678	0.8747
1687	0.8762
1696	0.8592
1705	0.8251
1714	0.8066
1723	0.794
1732	0.4561
1741	0.2799
1750	0.2352
1759	0.4987
1768	0.7576
1777	0.8481
1786	0.8799
1795	0.8862
1804	0.8812
1813	0.8829
1822	0.8866
1831	0.8907
1840	0.8932
1849	0.8954
1858	0.8973
1867	0.898
1876	0.8992
1885	0.9012
1894	0.9019
1903	0.8989
1912	0.8998
1921	0.9014
1930	0.9009
1939	0.9
1948	0.899
1957	0.8985
1966	0.8981
1975	0.8985
1984	0.8992
1993	0.8984
2002	0.899
2011	0.9002
2020	0.9011
2029	0.9017
2038	0.9022
2047	0.9025
2056	0.9029
2065	0.9033
2074	0.9041
2083	0.9049
2092	0.9057
2101	0.9065
2110	0.9073
2119	0.908
2128	0.9087
2137	0.9093
2146	0.9101
2155	0.9107
2164	0.912
2173	0.9133
2182	0.9148
2191	0.9161
2200	0.9157
2209	0.9149
2218	0.9134
2227	0.9117
2236	0.9101
2245	0.9086
2254	0.9072
2263	0.9059
2272	0.9051
2281	0.9043
2290	0.9035
2299	0.9033
2308	0.9031
2317	0.903
2326	0.9028
2335	0.9029
2344	0.903
2353	0.9031
2362	0.9032
2371	0.9033
2380	0.9034
2389	0.9033
2398	0.9032
2407	0.9031
2416	0.903
2425	0.9029
2434	0.9029
2443	0.9031
2452	0.9033
2461	0.9034
2470	0.9036
2479	0.9039
2488	0.9049
2497	0.9058
2506	0.9068
2515	0.906
2524	0.9052
2533	0.9039
2542	0.9024
2551	0.9008
2560	0.9004
2569	0.9012
2578	0.902
2587	0.9036
2596	0.905
2605	0.9049
2614	0.9048
2623	0.9048
2632	0.9047
2641	0.9044
2650	0.9042
2659	0.904
2668	0.9038
2677	0.9038
2686	0.9039
2695	0.904
2704	0.904
2713	0.9037
2722	0.9034
2731	0.9033
2740	0.9037
2749	0.9036
2758	0.9035
2767	0.9026
2776	0.9019
2785	0.9011
2794	0.9008
2803	0.9005
2812	0.8996
2821	0.8959
2830	0.8857
2839	0.8703
2848	0.8698
2857	0.8966
2866	0.9004
2875	0.8991
2884	0.8944
2893	0.8868
2902	0.8837
2911	0.8836
2920	0.8824
2929	0.8692
2938	0.8533
2947	0.8568
2956	0.8612
2965	0.8631
2974	0.8776
2983	0.8908
2992	0.8913
3001	0.8847
3010	0.8737
3019	0.8796
3028	0.8932
3037	0.8941
3046	0.8918
3055	0.8891
3064	0.887
3073	0.8868
3082	0.8872
3091	0.8917
3100	0.896
3109	0.8991
3118	0.9015
3127	0.902
3136	0.9023
3145	0.902
3154	0.9017
3163	0.9017
3172	0.9017
3181	0.9017
3190	0.9017
3199	0.9016
3208	0.9016
3217	0.9015
3226	0.9014
3235	0.9013
3244	0.901
3253	0.9008
3262	0.9006
3271	0.9003
3280	0.9001
3289	0.8999
3298	0.9
3307	0.9001
3316	0.9002
3325	0.9003
3334	0.9004
3343	0.9004
3352	0.9004
3361	0.9004
3370	0.9005
3379	0.9005
3388	0.9006
3397	0.9007
3406	0.9008
3415	0.9006
3424	0.9004
3433	0.9001
3442	0.8993
3451	0.8984
3460	0.8974
3469	0.8952
3478	0.8929
3487	0.8917
3496	0.8944
3505	0.8976
3514	0.9006
3523	0.9006
3532	0.9006
3541	0.9006
3550	0.9006
3559	0.9006
3568	0.9006
3577	0.9006
3586	0.9006
3595	0.9007
3604	0.9008
3613	0.9009
3622	0.901
3631	0.9012
3640	0.9016
3649	0.9019
3658	0.9022
3667	0.9026
3676	0.9033
3685	0.9039
3694	0.9046
3703	0.9053
3712	0.9075
3721	0.9099
3730	0.9115
3739	0.9123
3748	0.9131
3757	0.9137
3766	0.9142
3775	0.9147
3784	0.9152
3793	0.9156
3802	0.9164
3811	0.9171
3820	0.9179
3829	0.9187
3838	0.9197
3847	0.9207
3856	0.9179
3865	0.9131
3874	0.9113
3883	0.9117
3892	0.9125
3901	0.9133
3910	0.9141
3919	0.914
3928	0.9139
3937	0.9127
3946	0.9105
3955	0.9087
3964	0.9074
3973	0.9067
3982	0.9064
3991	0.906
4000	0.9058
