Infrared Spectrum: 2,12-Dibromocyclododecanone
Formula: C12 H20 Br2 O
CAS: 24459-40-3
State: SOLUTION (5% CCl4 FOR 3800-1340, 5% CS2 FOR 1340-465 CM^-^1) VS SOLVENT
Class: COBLENTZ III
Instrument: DOW KBr FOREPRISM-GRATING
Instrument parameters: BLAZED AT 3.5, 12.0, 20.0 MICRON AND CHANGED AT 5.0, 7.5, 14.9 MICRON
Sampling: TRANSMISSION
Path length: 0.010 CM, 0.012 CM
Resolution: 2
Origin: DOW CHEMICAL COMPANY
1/CM	TRANSMITTANCE
3792	0.8224
3783	0.8227
3774	0.8228
3765	0.8224
3756	0.8223
3747	0.8221
3738	0.822
3729	0.8218
3720	0.8214
3711	0.8211
3702	0.8207
3693	0.8203
3684	0.82
3675	0.8199
3666	0.8199
3657	0.8198
3648	0.8198
3639	0.8199
3630	0.8204
3621	0.8208
3612	0.8212
3603	0.8216
3594	0.8217
3585	0.8218
3576	0.8218
3567	0.8218
3558	0.822
3549	0.8218
3540	0.8215
3531	0.8211
3522	0.8207
3513	0.8203
3504	0.8201
3495	0.8197
3486	0.8195
3477	0.8193
3468	0.8183
3459	0.8128
3450	0.8098
3441	0.8108
3432	0.8118
3423	0.8128
3414	0.8133
3405	0.8133
3396	0.8133
3387	0.8134
3378	0.8134
3369	0.8135
3360	0.8134
3351	0.8131
3342	0.813
3333	0.8126
3324	0.8125
3315	0.8122
3306	0.8122
3297	0.8122
3288	0.8121
3279	0.8119
3270	0.8118
3261	0.8115
3252	0.8114
3243	0.811
3234	0.8106
3225	0.8101
3216	0.8097
3207	0.8099
3198	0.8101
3189	0.8105
3180	0.8108
3171	0.8111
3162	0.8112
3153	0.8115
3144	0.8118
3135	0.8118
3126	0.8119
3117	0.8121
3108	0.8118
3099	0.8111
3090	0.8106
3081	0.8099
3072	0.8096
3063	0.8095
3054	0.8092
3045	0.8087
3036	0.8076
3027	0.8058
3018	0.8026
3009	0.7953
3000	0.7822
2991	0.7611
2982	0.7231
2973	0.6482
2964	0.5017
2955	0.3754
2946	0.2906
2937	0.2714
2928	0.3012
2919	0.3834
2910	0.4781
2901	0.5559
2892	0.6606
2883	0.6767
2874	0.5512
2865	0.5664
2856	0.525
2847	0.6736
2838	0.7495
2829	0.7835
2820	0.7935
2811	0.7994
2802	0.8031
2793	0.8061
2784	0.8082
2775	0.8101
2766	0.8111
2757	0.8118
2748	0.8126
2739	0.8136
2730	0.8145
2721	0.8151
2712	0.8157
2703	0.8153
2694	0.8134
2685	0.8112
2676	0.8099
2667	0.8119
2658	0.8142
2649	0.8151
2640	0.8161
2631	0.8168
2622	0.8178
2613	0.8186
2604	0.8194
2595	0.8202
2586	0.821
2577	0.8217
2568	0.8221
2559	0.8225
2550	0.8228
2541	0.8232
2532	0.8236
2523	0.8239
2514	0.8244
2505	0.825
2496	0.8257
2487	0.8263
2478	0.8268
2469	0.8275
2460	0.8283
2451	0.829
2442	0.8297
2433	0.8304
2424	0.8311
2415	0.8318
2406	0.833
2397	0.8342
2388	0.8353
2379	0.8365
2370	0.8377
2361	0.8389
2352	0.8402
2343	0.8412
2334	0.8417
2325	0.8421
2316	0.8428
2307	0.8437
2298	0.8447
2289	0.8457
2280	0.8467
2271	0.8477
2262	0.8487
2253	0.8496
2244	0.8505
2235	0.8514
2226	0.8525
2217	0.8539
2208	0.8553
2199	0.8566
2190	0.8581
2181	0.8589
2172	0.8595
2163	0.8597
2154	0.8602
2145	0.8606
2136	0.8611
2127	0.8615
2118	0.8621
2109	0.8625
2100	0.8631
2091	0.8637
2082	0.8644
2073	0.8647
2064	0.8651
2055	0.8659
2046	0.8663
2037	0.8666
2028	0.8675
2019	0.8682
2010	0.8689
2001	0.8721
1992	0.8732
1983	0.8698
1974	0.8695
1965	0.8696
1956	0.8702
1947	0.8708
1938	0.8712
1929	0.8714
1920	0.8707
1911	0.8704
1902	0.8705
1893	0.8702
1884	0.8697
1875	0.87
1866	0.8703
1857	0.8705
1848	0.8704
1839	0.8703
1830	0.8705
1821	0.8709
1812	0.8705
1803	0.8654
1794	0.8621
1785	0.8598
1776	0.8573
1767	0.8532
1758	0.8399
1749	0.7541
1740	0.3107
1731	0.5801
1722	0.7871
1713	0.8306
1704	0.8382
1695	0.8434
1686	0.8499
1677	0.8546
1668	0.8575
1659	0.8587
1650	0.8592
1641	0.8585
1632	0.8577
1623	0.8571
1614	0.8577
1605	0.8578
1596	0.8575
1587	0.8567
1578	0.8556
1569	0.8542
1560	0.853
1551	0.8511
1542	0.8583
1533	0.8598
1524	0.8645
1515	0.863
1506	0.8602
1497	0.8571
1488	0.853
1479	0.8302
1470	0.5083
1461	0.7718
1452	0.7686
1443	0.7176
1434	0.7953
1425	0.8501
1416	0.8648
1407	0.8689
1398	0.8663
1389	0.8678
1380	0.8583
1371	0.8228
1362	0.75
1353	0.8104
1344	0.8375
1335	0.8361
1326	0.8224
1317	0.8435
1308	0.8289
1299	0.8306
1290	0.8258
1281	0.8198
1272	0.7789
1263	0.8142
1254	0.7533
1245	0.8167
1236	0.7415
1227	0.8412
1218	0.8378
1209	0.8436
1200	0.8552
1191	0.8459
1182	0.8175
1173	0.7483
1164	0.7534
1155	0.8396
1146	0.809
1137	0.8187
1128	0.8534
1119	0.8311
1110	0.7283
1101	0.8182
1092	0.8214
1083	0.8398
1074	0.8161
1065	0.8069
1056	0.8324
1047	0.8509
1038	0.8268
1029	0.7571
1020	0.8468
1011	0.8512
1002	0.8075
993	0.8533
984	0.8637
975	0.8275
966	0.8158
957	0.8355
948	0.8485
939	0.8567
930	0.8678
921	0.8685
912	0.8452
903	0.8645
894	0.8673
885	0.8508
876	0.8618
867	0.875
858	0.8681
849	0.8558
840	0.8389
831	0.8593
822	0.8724
813	0.8788
804	0.8788
795	0.8746
786	0.8597
777	0.8732
768	0.8556
759	0.8594
750	0.8078
741	0.8001
732	0.6725
723	0.8414
714	0.8627
705	0.8435
696	0.8521
687	0.8477
678	0.8463
669	0.8663
660	0.8825
651	0.8723
642	0.8718
633	0.7101
624	0.7965
615	0.8606
606	0.8838
597	0.8883
588	0.8843
579	0.8744
570	0.8771
561	0.8891
552	0.8968
543	0.9011
534	0.9016
525	0.9028
516	0.8971
507	0.8883
498	0.8915
489	0.8994
480	0.9087
471	0.9184
