Infrared Spectrum: AZO, DIFORMIC ACID, DIMETHYL ESTER
Formula: C4 H6 N2 O4
CAS: 2446-84-6
State: SOLUTION (10% CCl4 FOR 3800-1335, ca. 10% CS2 FOR 1335-400 CM^-^1)
Class: COBLENTZ III
Instrument: DOW KBr FOREPRISM-GRATING
Instrument parameters: BLAZED AT 3.5, 12.0, 20.0 MICRON AND CHANGED AT 5.0, 7.5, 14.9 MICRON
Sampling: TRANSMISSION
Path length: 0.011 CM, 0.011 CM
Resolution: 2
Origin: DOW CHEMICAL COMPANY
1/CM	TRANSMITTANCE
382	0.3344
391	0.3562
400	0.4565
409	0.6874
418	0.7851
427	0.7791
436	0.7525
445	0.8251
454	0.8591
463	0.8708
472	0.8883
481	0.893
490	0.8918
499	0.8865
508	0.8805
517	0.8721
526	0.8631
535	0.8604
544	0.8587
553	0.8502
562	0.8474
571	0.8578
580	0.8633
589	0.8658
598	0.8558
607	0.845
616	0.8262
625	0.8039
634	0.7137
643	0.7803
652	0.7825
661	0.8324
670	0.8442
679	0.851
688	0.8475
697	0.8428
706	0.8375
715	0.8289
724	0.8191
733	0.8054
742	0.7584
751	0.6199
760	0.442
769	0.7204
778	0.7324
787	0.7041
796	0.5725
805	0.3795
814	0.5612
823	0.5731
832	0.6687
841	0.674
850	0.6103
859	0.5304
868	0.33
877	0.2792
886	0.6555
895	0.709
904	0.7471
913	0.7651
922	0.7683
931	0.7765
940	0.7791
949	0.7818
958	0.7905
967	0.7744
976	0.7368
985	0.7192
994	0.5984
1003	0.2947
1012	0.4205
1021	0.5927
1030	0.6975
1039	0.7501
1048	0.7574
1057	0.7496
1066	0.7332
1075	0.7332
1084	0.7343
1093	0.7334
1102	0.6836
1111	0.6618
1120	0.6841
1129	0.701
1138	0.6722
1147	0.6522
1156	0.6136
1165	0.5833
1174	0.5099
1183	0.3063
1192	0.2572
1201	0.266
1210	0.1691
1219	0.0264
1228	0.0123
1237	0.0142
1246	0.0189
1255	0.0246
1264	0.0437
1273	0.0818
1282	0.172
1291	0.3339
1300	0.4349
1309	0.4919
1318	0.5489
1327	0.601
1336	0.409
1345	0.4515
1354	0.4801
1363	0.4784
1372	0.5162
1381	0.6095
1390	0.6298
1399	0.6641
1408	0.6807
1417	0.6648
1426	0.5708
1435	0.2011
1444	0.0734
1453	0.1973
1462	0.2749
1471	0.4512
1480	0.4852
1489	0.451
1498	0.4367
1507	0.4443
1516	0.4586
1525	0.4662
1534	0.4566
1543	0.3892
1552	0.3623
1561	0.3503
1570	0.3609
1579	0.4076
1588	0.541
1597	0.606
1606	0.6585
1615	0.686
1624	0.7015
1633	0.6895
1642	0.7191
1651	0.7228
1660	0.7351
1669	0.7372
1678	0.7386
1687	0.7238
1696	0.6668
1705	0.5912
1714	0.4789
1723	0.2861
1732	0.1564
1741	0.1151
1750	0.0742
1759	0.0327
1768	0.0131
1777	0.0127
1786	0.0145
1795	0.0257
1804	0.1542
1813	0.2838
1822	0.366
1831	0.4043
1840	0.6177
1849	0.6911
1858	0.7265
1867	0.7422
1876	0.7625
1885	0.7871
1894	0.8083
1903	0.8257
1912	0.8371
1921	0.8415
1930	0.842
1939	0.8407
1948	0.8443
1957	0.8535
1966	0.8399
1975	0.8373
1984	0.8344
1993	0.8317
2002	0.837
2011	0.8351
2020	0.8339
2029	0.8346
2038	0.8374
2047	0.8403
2056	0.8382
2065	0.8318
2074	0.8368
2083	0.843
2092	0.8407
2101	0.8346
2110	0.8255
2119	0.8121
2128	0.7831
2137	0.7628
2146	0.7683
2155	0.7841
2164	0.7861
2173	0.7689
2182	0.7761
2191	0.7964
2200	0.8208
2209	0.8421
2218	0.8403
2227	0.844
2236	0.8541
2245	0.8548
2254	0.8544
2263	0.8535
2272	0.8524
2281	0.8513
2290	0.8496
2299	0.8475
2308	0.844
2317	0.8402
2326	0.8353
2335	0.8297
2344	0.8237
2353	0.8432
2362	0.8524
2371	0.858
2380	0.8615
2389	0.8633
2398	0.8618
2407	0.8594
2416	0.8567
2425	0.8543
2434	0.8516
2443	0.8491
2452	0.8468
2461	0.8446
2470	0.8425
2479	0.8408
2488	0.8415
2497	0.8443
2506	0.8475
2515	0.8512
2524	0.8544
2533	0.8567
2542	0.858
2551	0.859
2560	0.8582
2569	0.8567
2578	0.8548
2587	0.8525
2596	0.8506
2605	0.849
2614	0.853
2623	0.856
2632	0.8552
2641	0.8523
2650	0.8561
2659	0.8606
2668	0.8633
2677	0.8636
2686	0.8628
2695	0.8623
2704	0.8621
2713	0.8621
2722	0.8618
2731	0.8618
2740	0.863
2749	0.8634
2758	0.8628
2767	0.8606
2776	0.8596
2785	0.8588
2794	0.8583
2803	0.8574
2812	0.8558
2821	0.853
2830	0.8437
2839	0.8068
2848	0.6821
2857	0.7936
2866	0.8242
2875	0.8171
2884	0.791
2893	0.7742
2902	0.7853
2911	0.8015
2920	0.8005
2929	0.7934
2938	0.7636
2947	0.6705
2956	0.4428
2965	0.2122
2974	0.6443
2983	0.7365
2992	0.7245
3001	0.679
3010	0.6075
3019	0.6468
3028	0.68
3037	0.6946
3046	0.714
3055	0.7675
3064	0.7949
3073	0.8175
3082	0.8253
3091	0.8289
3100	0.8317
3109	0.8341
3118	0.8366
3127	0.8386
3136	0.8401
3145	0.8402
3154	0.8393
3163	0.8371
3172	0.8343
3181	0.831
3190	0.8277
3199	0.8241
3208	0.8213
3217	0.8174
3226	0.8153
3235	0.8154
3244	0.8143
3253	0.8061
3262	0.7987
3271	0.7918
3280	0.7856
3289	0.78
3298	0.7744
3307	0.7693
3316	0.765
3325	0.7617
3334	0.7591
3343	0.7571
3352	0.7564
3361	0.756
3370	0.7568
3379	0.7578
3388	0.7598
3397	0.7622
3406	0.7668
3415	0.7756
3424	0.7871
3433	0.801
3442	0.8147
3451	0.8249
3460	0.8285
3469	0.8298
3478	0.8287
3487	0.8253
3496	0.8209
3505	0.8118
3514	0.7988
3523	0.785
3532	0.7721
3541	0.7664
3550	0.7842
3559	0.8037
3568	0.8195
3577	0.8268
3586	0.8302
3595	0.8387
3604	0.8402
3613	0.8424
3622	0.8461
3631	0.8512
3640	0.8498
3649	0.8461
3658	0.8521
3667	0.8485
3676	0.8431
3685	0.8455
3694	0.8462
3703	0.854
3712	0.8557
3721	0.8621
3730	0.8606
3739	0.8574
3748	0.8558
3757	0.859
3766	0.866
3775	0.8668
3784	0.867
3793	0.8659
