Infrared Spectrum: 5,5'-THIODISALICYLIC ACID, DIMETHYL ESTER
Formula: C16 H14 O6 S
CAS: 24483-72-5
State: SOLID (KBr PELLET)
Class: COBLENTZ
Instrument: Not specified, most likely a prism, grating, or hybrid spectrometer.
Sampling: TRANSMISSION
Resolution: 4
Origin: TENNESSEE EASTMAN COMPANY, RESEARCH LABORATORIES
MICROMETERS	TRANSMITTANCE
2.02	0.89
2.05979	0.893
2.09958	0.895
2.13937	0.895
2.17917	0.888
2.21896	0.88
2.25875	0.878
2.29854	0.892
2.33833	0.902
2.37812	0.907
2.41792	0.912
2.45771	0.917
2.4975	0.923
2.53729	0.923
2.57708	0.917
2.61687	0.918
2.65666	0.917
2.69646	0.91
2.73625	0.865
2.77604	0.8
2.81583	0.776
2.85562	0.746
2.89541	0.713
2.93521	0.683
2.975	0.666
3.01479	0.582
3.05458	0.401
3.09437	0.24
3.13416	0.24
3.17396	0.47
3.21375	0.623
3.25354	0.709
3.29333	0.718
3.33312	0.751
3.37291	0.62
3.4127	0.81
3.4525	0.819
3.49229	0.825
3.53208	0.883
3.57187	0.903
3.61166	0.91
3.65145	0.917
3.69125	0.925
3.73104	0.927
3.77083	0.92
3.81062	0.918
3.85041	0.932
3.8902	0.923
3.92999	0.917
3.96979	0.922
4.00958	0.927
4.04937	0.93
4.08916	0.94
4.12895	0.95
4.16874	0.951
4.20854	0.955
4.24833	0.927
4.28812	0.918
4.32791	0.932
4.3677	0.948
4.40749	0.955
4.44728	0.966
4.48708	0.966
4.52687	0.961
4.56666	0.965
4.60645	0.968
4.64624	0.968
4.68603	0.966
4.72583	0.95
4.76562	0.963
4.80541	0.963
4.8452	0.961
4.88499	0.953
4.92478	0.963
4.96458	0.956
5.00437	0.961
5.04416	0.961
5.08395	0.966
5.12374	0.951
5.16353	0.943
5.20332	0.892
5.24312	0.963
5.28291	0.97
5.3227	0.968
5.36249	0.945
5.40228	0.943
5.44207	0.946
5.48187	0.936
5.52166	0.92
5.56145	0.832
5.60124	0.862
5.64103	0.85
5.68082	0.824
5.72061	0.706
5.76041	0.502
5.8002	0.278
5.83999	0.059
5.87978	0.023
5.91957	0.038
5.95936	0.182
5.99916	0.394
6.03895	0.553
6.07874	0.665
6.11853	0.719
6.15832	0.689
6.19811	0.515
6.2379	0.391
6.2777	0.6
6.31749	0.228
6.35728	0.373
6.39707	0.704
6.43686	0.776
6.47665	0.752
6.51645	0.713
6.55624	0.668
6.59603	0.656
6.63582	0.595
6.67561	0.441
6.7154	0.046
6.7552	0.114
6.79499	0.179
6.83478	0.149
6.87457	0.056
6.91436	0.043
6.95415	0.338
6.99394	0.494
7.03374	0.616
7.07353	0.648
7.11332	0.611
7.15311	0.587
7.1929	0.597
7.23269	0.588
7.27249	0.548
7.31228	0.5
7.35207	0.348
7.39186	0.167
7.43165	0.034
7.47144	0.033
7.51123	0.101
7.55103	0.132
7.59082	0.059
7.63061	0.091
7.6704	0.245
7.71019	0.207
7.74998	0.033
7.78978	0.076
7.82957	0.296
7.86936	0.416
7.90915	0.464
7.94894	0.295
7.98873	0.031
8.02852	0.106
8.06832	0.242
8.10811	0.281
8.1479	0.348
8.18769	0.291
8.22748	0.172
8.26727	0.046
8.30707	0.011
8.34686	0.011
8.38665	0.011
8.42644	0.058
8.46623	0.144
8.50602	0.247
8.54582	0.351
8.58561	0.432
8.6254	0.469
8.66519	0.48
8.70498	0.316
8.74477	0.139
8.78456	0.306
8.82436	0.482
8.86415	0.585
8.90394	0.63
8.94373	0.631
8.98352	0.514
9.02331	0.159
9.06311	0.134
9.1029	0.456
9.14269	0.588
9.18248	0.603
9.22227	0.495
9.26206	0.222
9.30185	0.343
9.34165	0.613
9.38144	0.721
9.42123	0.759
9.46102	0.784
9.50081	0.797
9.5406	0.807
9.5804	0.812
9.62019	0.819
9.65998	0.825
9.69977	0.83
9.73956	0.835
9.77935	0.84
9.81914	0.849
9.85894	0.855
9.89873	0.859
9.93852	0.86
9.97831	0.86
10.0181	0.86
10.0579	0.865
10.0977	0.867
10.1375	0.868
10.1773	0.852
10.2171	0.819
10.2569	0.724
10.2966	0.532
10.3364	0.499
10.3762	0.52
10.416	0.575
10.4558	0.746
10.4956	0.812
10.5354	0.855
10.5752	0.878
10.615	0.895
10.6548	0.905
10.6946	0.908
10.7344	0.908
10.7741	0.91
10.8139	0.91
10.8537	0.912
10.8935	0.913
10.9333	0.913
10.9731	0.912
11.0129	0.895
11.0527	0.814
11.0925	0.708
11.1323	0.784
11.1721	0.864
11.2118	0.892
11.2516	0.898
11.2914	0.88
11.3312	0.762
11.371	0.616
11.4108	0.684
11.4506	0.81
11.4904	0.855
11.5302	0.88
11.57	0.897
11.6098	0.902
11.6496	0.902
11.6893	0.902
11.7291	0.887
11.7689	0.859
11.8087	0.779
11.8485	0.522
11.8883	0.469
11.9281	0.636
11.9679	0.514
12.0077	0.507
12.0475	0.711
12.0873	0.779
12.1271	0.81
12.1668	0.827
12.2066	0.827
12.2464	0.799
12.2862	0.718
12.326	0.668
12.3658	0.719
12.4056	0.762
12.4454	0.771
12.4852	0.741
12.525	0.673
12.5648	0.517
12.6046	0.222
12.6443	0.051
12.6841	0.22
12.7239	0.522
12.7637	0.681
12.8035	0.726
12.8433	0.741
12.8831	0.771
12.9229	0.781
12.9627	0.776
13.0025	0.759
13.0423	0.731
13.0821	0.698
13.1218	0.651
13.1616	0.598
13.2014	0.542
13.2412	0.459
13.281	0.383
13.3208	0.308
13.3606	0.238
13.4004	0.175
13.4402	0.137
13.48	0.111
13.5198	0.099
13.5596	0.097
13.5993	0.106
13.6391	0.135
13.6789	0.172
13.7187	0.232
13.7585	0.283
13.7983	0.323
13.8381	0.341
13.8779	0.328
13.9177	0.281
13.9575	0.273
13.9973	0.323
14.037	0.386
14.0768	0.424
14.1166	0.414
14.1564	0.399
14.1962	0.452
14.236	0.543
14.2758	0.6
14.3156	0.638
14.3554	0.66
14.3952	0.678
14.435	0.689
14.4748	0.701
14.5145	0.709
14.5543	0.714
14.5941	0.724
14.6339	0.726
14.6737	0.731
14.7135	0.734
14.7533	0.736
14.7931	0.737
14.8329	0.737
14.8727	0.736
14.9125	0.726
14.9523	0.711
14.992	0.696
15.0318	0.696
15.0716	0.689
15.1114	0.668
15.1512	0.613
15.191	0.56
15.2308	0.538
15.2706	0.533
15.3104	0.555
15.3502	0.58
15.39	0.588
15.4298	0.59
15.4695	0.59
15.5093	0.593
15.5491	0.595
15.5889	0.597
15.6287	0.598
15.6685	0.6
15.7083	0.597
15.7481	0.588
15.7879	0.58
15.8277	0.572
15.8675	0.568
15.9073	0.562
15.947	0.553
15.9868	0.553
