Infrared Spectrum: p,p'-Sulfonyldibenzoic acid
Formula: C14 H10 O6 S
CAS: 2449-35-6
State: SOLID (SPLIT MULL)
Class: COBLENTZ II
Instrument: BECKMAN IR-9 (GRATING)
Instrument parameters: ORDER CHANGES: 670, 1200, 2000 CM^-^1
Sampling: TRANSMISSION
Resolution: 2
Origin: DOW CHEMICAL COMPANY
1/CM	TRANSMITTANCE
3800	0.7501
3791	0.7497
3782	0.7494
3773	0.7504
3764	0.7519
3755	0.7534
3746	0.7545
3737	0.7556
3728	0.7564
3719	0.7572
3710	0.7578
3701	0.7581
3692	0.7578
3683	0.7572
3674	0.7569
3665	0.7567
3656	0.7567
3647	0.7567
3638	0.7567
3629	0.7567
3620	0.7571
3611	0.758
3602	0.7585
3593	0.7561
3584	0.7436
3575	0.7438
3566	0.7601
3557	0.7536
3548	0.7515
3539	0.7518
3530	0.7528
3521	0.7558
3512	0.7583
3503	0.7603
3494	0.7621
3485	0.7636
3476	0.7651
3467	0.7665
3458	0.7675
3449	0.7684
3440	0.7693
3431	0.77
3422	0.7708
3413	0.7711
3404	0.7715
3395	0.7718
3386	0.7719
3377	0.7721
3368	0.7725
3359	0.7721
3350	0.7665
3341	0.7661
3332	0.7661
3323	0.7661
3314	0.7653
3305	0.7638
3296	0.7618
3287	0.7597
3278	0.7576
3269	0.755
3260	0.7505
3251	0.7455
3242	0.7399
3233	0.7341
3224	0.7284
3215	0.7224
3206	0.7151
3197	0.7078
3188	0.6995
3179	0.6907
3170	0.6785
3161	0.6665
3152	0.6555
3143	0.643
3134	0.6292
3125	0.614
3116	0.5979
3107	0.5675
3098	0.5497
3089	0.5553
3080	0.558
3071	0.5576
3062	0.5485
3053	0.5408
3044	0.536
3035	0.5293
3026	0.5228
3017	0.517
3008	0.5118
2999	0.5082
2990	0.5062
2981	0.5067
2972	0.5086
2963	0.5115
2954	0.5173
2945	0.5234
2936	0.5271
2927	0.5269
2918	0.5229
2909	0.5146
2900	0.5067
2891	0.5001
2882	0.4957
2873	0.4941
2864	0.495
2855	0.4993
2846	0.505
2837	0.5127
2828	0.5208
2819	0.5296
2810	0.5392
2801	0.5496
2792	0.56
2783	0.5695
2774	0.5797
2765	0.5933
2756	0.6056
2747	0.6155
2738	0.6259
2729	0.6333
2720	0.6372
2711	0.6377
2702	0.6295
2693	0.6095
2684	0.5862
2675	0.5767
2666	0.5725
2657	0.581
2648	0.5981
2639	0.6065
2630	0.6129
2621	0.6193
2612	0.6258
2603	0.6341
2594	0.6384
2585	0.6404
2576	0.6403
2567	0.6276
2558	0.6043
2549	0.5681
2540	0.5709
2531	0.5897
2522	0.6171
2513	0.6417
2504	0.659
2495	0.6748
2486	0.6883
2477	0.7031
2468	0.7168
2459	0.7276
2450	0.7368
2441	0.741
2432	0.7451
2423	0.7493
2414	0.754
2405	0.7587
2396	0.7632
2387	0.7757
2378	0.7935
2369	0.8036
2360	0.8048
2351	0.8033
2342	0.8018
2333	0.8003
2324	0.7992
2315	0.7993
2306	0.8011
2297	0.8042
2288	0.8099
2279	0.8158
2270	0.8217
2261	0.8277
2252	0.8339
2243	0.839
2234	0.8435
2225	0.8474
2216	0.8506
2207	0.8523
2198	0.8539
2189	0.8554
2180	0.8563
2171	0.8584
2162	0.864
2153	0.8704
2144	0.8738
2135	0.8751
2126	0.8756
2117	0.8758
2108	0.8761
2099	0.875
2090	0.8762
2081	0.8807
2072	0.8855
2063	0.8921
2054	0.8948
2045	0.8971
2036	0.8986
2027	0.9002
2018	0.9015
2009	0.8983
2000	0.895
1991	0.8953
1982	0.8942
1973	0.8903
1964	0.8756
1955	0.8746
1946	0.8825
1937	0.8828
1928	0.8821
1919	0.8818
1910	0.8814
1901	0.8817
1892	0.8828
1883	0.8809
1874	0.8818
1865	0.8832
1856	0.8813
1847	0.8761
1838	0.8724
1829	0.8695
1820	0.8675
1811	0.8678
1802	0.8714
1793	0.8758
1784	0.8807
1775	0.8839
1766	0.8843
1757	0.8718
1748	0.8425
1739	0.8528
1730	0.8361
1721	0.7532
1712	0.4807
1703	0.2688
1694	0.0671
1685	0.1829
1676	0.3877
1667	0.58
1658	0.7421
1649	0.7768
1640	0.8053
1631	0.8331
1622	0.8509
1613	0.8545
1604	0.7901
1595	0.8151
1586	0.8407
1577	0.716
1568	0.8382
1559	0.8668
1550	0.8728
1541	0.8817
1532	0.9015
1523	0.9035
1514	0.8966
1505	0.8836
1496	0.7924
1487	0.8348
1478	0.8991
1469	0.8755
1460	0.8568
1451	0.8465
1442	0.7755
1433	0.5568
1424	0.2609
1415	0.5174
1406	0.5054
1397	0.6437
1388	0.7615
1379	0.7676
1370	0.7939
1361	0.789
1352	0.7715
1343	0.6998
1334	0.5485
1325	0.493
1316	0.4738
1307	0.2476
1298	0.3039
1289	0.1784
1280	0.2671
1271	0.5138
1262	0.6701
1253	0.7578
1244	0.8075
1235	0.8368
1226	0.8512
1217	0.858
1208	0.8578
1199	0.831
1190	0.7675
1181	0.7648
1172	0.675
1163	0.1417
1154	0.4608
1145	0.8317
1136	0.829
1127	0.5088
1118	0.6658
1109	0.5753
1100	0.5314
1091	0.8184
1082	0.8456
1073	0.7472
1064	0.8644
1055	0.8825
1046	0.8689
1037	0.8651
1028	0.8582
1019	0.7508
1010	0.6808
1001	0.865
992	0.861
983	0.8456
974	0.8266
965	0.7655
956	0.6556
947	0.5968
938	0.5934
929	0.6489
920	0.7354
911	0.8263
902	0.8583
893	0.8697
884	0.8951
875	0.8515
866	0.553
857	0.8402
848	0.8725
839	0.8951
830	0.8674
821	0.851
812	0.881
803	0.8961
794	0.9182
785	0.9098
776	0.6475
767	0.9088
758	0.9091
749	0.8745
740	0.7475
731	0.3705
722	0.3853
713	0.6586
704	0.674
695	0.6868
686	0.788
677	0.924
668	0.9328
659	0.8792
650	0.9202
641	0.9263
632	0.8534
623	0.4635
614	0.8373
605	0.9128
596	0.8097
587	0.9018
578	0.7381
569	0.5476
560	0.7332
551	0.6037
542	0.7005
533	0.8728
524	0.9047
515	0.9159
506	0.9173
497	0.8864
488	0.8506
479	0.8449
470	0.8197
461	0.7924
452	0.7821
443	0.7748
434	0.7225
425	0.6703
416	0.6531
407	0.6517
