Infrared Spectrum: CIS 9,10-EPOXY STEARIC ACID
Formula: C18 H34 O3
CAS: 24560-98-3
State: SOLID
Class: COBLENTZ
Instrument: PERKIN-ELMER
Sampling: TRANSMISSION
Path length: FILM
Resolution: 4
Origin: HORMEL INSTITUTE
MICROMETERS	TRANSMITTANCE
2.02	0.464
2.05391	0.467
2.08782	0.471
2.12173	0.472
2.15564	0.474
2.18955	0.477
2.22346	0.477
2.25736	0.474
2.29127	0.447
2.32518	0.442
2.35909	0.44
2.393	0.43
2.42691	0.44
2.46082	0.457
2.49473	0.472
2.52864	0.477
2.56255	0.483
2.59646	0.489
2.63037	0.494
2.66427	0.5
2.69818	0.501
2.73209	0.501
2.766	0.503
2.79991	0.505
2.83382	0.503
2.86773	0.498
2.90164	0.488
2.93555	0.481
2.96946	0.455
3.00337	0.425
3.03728	0.379
3.07118	0.315
3.10509	0.254
3.139	0.191
3.17291	0.15
3.20682	0.127
3.24073	0.116
3.27464	0.1
3.30855	0.091
3.34246	0.076
3.37637	0.023
3.41028	0.018
3.44419	0.018
3.47809	0.016
3.512	0.016
3.54591	0.1
3.57982	0.171
3.61373	0.211
3.64764	0.233
3.68155	0.244
3.71546	0.252
3.74937	0.252
3.78328	0.25
3.81719	0.257
3.8511	0.279
3.88501	0.293
3.91891	0.31
3.95282	0.33
3.98673	0.35
4.02064	0.374
4.05455	0.403
4.08846	0.42
4.12237	0.432
4.15628	0.444
4.19019	0.454
4.2241	0.457
4.25801	0.461
4.29192	0.462
4.32582	0.464
4.35973	0.479
4.39364	0.484
4.42755	0.489
4.46146	0.5
4.49537	0.501
4.52928	0.506
4.56319	0.51
4.5971	0.513
4.63101	0.513
4.66492	0.518
4.69883	0.522
4.73273	0.525
4.76664	0.53
4.80055	0.533
4.83446	0.535
4.86837	0.533
4.90228	0.532
4.93619	0.53
4.9701	0.53
5.00401	0.532
5.03792	0.533
5.07183	0.532
5.10574	0.528
5.13964	0.527
5.17355	0.522
5.20746	0.523
5.24137	0.515
5.27528	0.513
5.30919	0.513
5.3431	0.511
5.37701	0.506
5.41092	0.501
5.44483	0.493
5.47874	0.483
5.51265	0.461
5.54655	0.423
5.58046	0.43
5.61437	0.425
5.64828	0.389
5.68219	0.35
5.7161	0.271
5.75001	0.188
5.78392	0.071
5.81783	0.022
5.85174	0.018
5.88565	0.016
5.91956	0.018
5.95347	0.042
5.98737	0.161
6.02128	0.261
6.05519	0.35
6.0891	0.403
6.12301	0.444
6.15692	0.471
6.19083	0.489
6.22474	0.508
6.25865	0.513
6.29256	0.518
6.32647	0.522
6.36038	0.523
6.39428	0.525
6.42819	0.53
6.4621	0.533
6.49601	0.528
6.52992	0.518
6.56383	0.515
6.59774	0.501
6.63165	0.481
6.66556	0.45
6.69947	0.354
6.73338	0.232
6.76729	0.074
6.80119	0.022
6.8351	0.042
6.86901	0.093
6.90292	0.081
6.93683	0.069
6.97074	0.089
7.00465	0.14
7.03856	0.093
7.07247	0.081
7.10638	0.252
7.14029	0.327
7.1742	0.288
7.2081	0.371
7.24201	0.328
7.27592	0.393
7.30983	0.415
7.34374	0.428
7.37765	0.42
7.41156	0.427
7.44547	0.381
7.47938	0.262
7.51329	0.21
7.5472	0.222
7.58111	0.323
7.61502	0.294
7.64892	0.154
7.68283	0.076
7.71674	0.084
7.75065	0.149
7.78456	0.171
7.81847	0.116
7.85238	0.205
7.88629	0.12
7.9202	0.052
7.95411	0.13
7.98802	0.155
8.02193	0.233
8.05583	0.344
8.08974	0.323
8.12365	0.122
8.15756	0.064
8.19147	0.179
8.22538	0.271
8.25929	0.289
8.2932	0.344
8.32711	0.279
8.36102	0.077
8.39493	0.152
8.42884	0.298
8.46274	0.372
8.49665	0.393
8.53056	0.415
8.56447	0.432
8.59838	0.433
8.63229	0.408
8.6662	0.289
8.70011	0.205
8.73402	0.389
8.76793	0.449
8.80184	0.462
8.83575	0.45
8.86965	0.422
8.90356	0.444
8.93747	0.435
8.97138	0.394
9.00529	0.398
9.0392	0.43
9.07311	0.433
9.10702	0.305
9.14093	0.303
9.17484	0.413
9.20875	0.34
9.24266	0.335
9.27657	0.455
9.31047	0.489
9.34438	0.501
9.37829	0.474
9.4122	0.438
9.44611	0.428
9.48002	0.442
9.51393	0.43
9.54784	0.444
9.58175	0.471
9.61566	0.489
9.64957	0.494
9.68348	0.452
9.71738	0.44
9.75129	0.479
9.7852	0.493
9.81911	0.481
9.85302	0.423
9.88693	0.388
9.92084	0.422
9.95475	0.433
9.98866	0.445
10.0226	0.45
10.0565	0.43
10.0904	0.406
10.1243	0.408
10.1582	0.416
10.1921	0.418
10.226	0.418
10.2599	0.405
10.2938	0.393
10.3277	0.379
10.3617	0.354
10.3956	0.337
10.4295	0.31
10.4634	0.289
10.4973	0.25
10.5312	0.189
10.5651	0.138
10.599	0.161
10.6329	0.176
10.6668	0.174
10.7008	0.162
10.7347	0.15
10.7686	0.133
10.8025	0.111
10.8364	0.066
10.8703	0.032
10.9042	0.03
10.9381	0.071
10.972	0.11
11.0059	0.137
11.0398	0.152
11.0738	0.15
11.1077	0.142
11.1416	0.133
11.1755	0.118
11.2094	0.079
11.2433	0.067
11.2772	0.081
11.3111	0.144
11.345	0.181
11.3789	0.211
11.4128	0.237
11.4468	0.255
11.4807	0.269
11.5146	0.281
11.5485	0.291
11.5824	0.289
11.6163	0.269
11.6502	0.196
11.6841	0.184
11.718	0.196
11.7519	0.174
11.7858	0.105
11.8198	0.04
11.8537	0.02
11.8876	0.015
11.9215	0.03
11.9554	0.101
11.9893	0.203
12.0232	0.274
12.0571	0.305
12.091	0.255
12.1249	0.247
12.1588	0.349
12.1928	0.418
12.2267	0.462
12.2606	0.483
12.2945	0.503
12.3284	0.511
12.3623	0.518
12.3962	0.52
12.4301	0.522
12.464	0.518
12.4979	0.5
12.5318	0.445
12.5658	0.381
12.5997	0.432
12.6336	0.508
12.6675	0.545
12.7014	0.567
12.7353	0.583
12.7692	0.588
12.8031	0.589
12.837	0.594
12.8709	0.594
12.9048	0.591
12.9388	0.584
12.9727	0.557
13.0066	0.528
13.0405	0.481
13.0744	0.438
13.1083	0.491
13.1422	0.559
13.1761	0.583
13.21	0.588
13.2439	0.567
13.2778	0.51
13.3118	0.455
13.3457	0.444
13.3796	0.527
13.4135	0.581
13.4474	0.598
13.4813	0.6
13.5152	0.593
13.5491	0.577
13.583	0.547
13.6169	0.489
13.6508	0.466
13.6848	0.433
13.7187	0.413
13.7526	0.401
13.7865	0.374
13.8204	0.311
13.8543	0.208
13.8882	0.11
13.9221	0.067
13.956	0.108
13.9899	0.223
14.0239	0.349
14.0578	0.444
14.0917	0.491
14.1256	0.52
14.1595	0.54
14.1934	0.557
14.2273	0.567
14.2612	0.574
14.2951	0.576
14.329	0.576
14.3629	0.574
14.3969	0.571
14.4308	0.566
14.4647	0.562
14.4986	0.557
14.5325	0.549
14.5664	0.54
14.6003	0.532
14.6342	0.518
14.6681	0.506
14.702	0.488
14.7359	0.476
14.7699	0.474
14.8038	0.481
14.8377	0.491
14.8716	0.516
14.9055	0.542
14.9394	0.557
14.9733	0.561
15.0072	0.577
15.0411	0.616
15.075	0.627
15.1089	0.64
15.1429	0.65
15.1768	0.657
15.2107	0.664
15.2446	0.672
15.2785	0.677
15.3124	0.683
15.3463	0.689
15.3802	0.696
15.4141	0.698
15.448	0.7
