Infrared Spectrum: FUMARIC ACID, MONOETHYL ESTER
Formula: C6 H8 O4
CAS: 2459-05-4
State: SOLUTION (10% CCl4 FOR 3800-1330, 10% CS2 FOR 1330-450 CM^-^1)
Class: COBLENTZ III
Instrument: DOW KBr FOREPRISM-GRATING
Instrument parameters: BLAZED AT 3.5, 12.0, 20.0 MICRON AND CHANGED AT 5.0, 7.5, 14.9 MICRON
Sampling: TRANSMISSION
Path length: 0.012 CM, 0.011 CM
Resolution: 2
Origin: DOW CHEMICAL COMPANY
1/CM	TRANSMITTANCE
456	0.7625
465	0.7632
474	0.7726
483	0.7838
492	0.7861
501	0.7861
510	0.7853
519	0.78
528	0.7691
537	0.7565
546	0.7322
555	0.7318
564	0.7625
573	0.7841
582	0.7933
591	0.7968
600	0.7982
609	0.7956
618	0.7876
627	0.7756
636	0.7495
645	0.6437
654	0.6345
663	0.7574
672	0.8025
681	0.8421
690	0.8478
699	0.8435
708	0.8399
717	0.8325
726	0.8328
735	0.8312
744	0.844
753	0.8454
762	0.8304
771	0.7557
780	0.7647
789	0.7925
798	0.8008
807	0.7936
816	0.8089
825	0.8042
834	0.7774
843	0.7134
852	0.6393
861	0.6072
870	0.6721
879	0.7056
888	0.7328
897	0.7392
906	0.7151
915	0.6922
924	0.6757
933	0.6769
942	0.7218
951	0.7678
960	0.7655
969	0.7101
978	0.3181
987	0.7661
996	0.8119
1005	0.8128
1014	0.7669
1023	0.6415
1032	0.5303
1041	0.561
1050	0.7788
1059	0.8146
1068	0.8158
1077	0.8182
1086	0.798
1095	0.7394
1104	0.7993
1113	0.7758
1122	0.7869
1131	0.7918
1140	0.7422
1149	0.6012
1158	0.3564
1167	0.3679
1176	0.373
1185	0.6156
1194	0.6768
1203	0.71
1212	0.7185
1221	0.6146
1230	0.6861
1239	0.6795
1248	0.5846
1257	0.2346
1266	0.2779
1275	0.3555
1284	0.3777
1293	0.267
1302	0.1795
1311	0.3722
1320	0.6514
1329	0.581
1338	0.5449
1347	0.601
1356	0.5828
1365	0.3065
1374	0.2171
1383	0.4453
1392	0.3405
1401	0.2823
1410	0.1133
1419	0.0506
1428	0.1126
1437	0.3518
1446	0.3753
1455	0.5374
1464	0.4623
1473	0.4884
1482	0.5965
1491	0.6828
1500	0.6628
1509	0.6262
1518	0.5837
1527	0.5409
1536	0.4859
1545	0.4044
1554	0.388
1563	0.46
1572	0.511
1581	0.5243
1590	0.5609
1599	0.6156
1608	0.6242
1617	0.5897
1626	0.4687
1635	0.3349
1644	0.1442
1653	0.3234
1662	0.2323
1671	0.2643
1680	0.2425
1689	0.0997
1698	0
1707	0.0001
1716	0
1725	0.0001
1734	0.0003
1743	0.1078
1752	0.3932
1761	0.5317
1770	0.586
1779	0.6232
1788	0.6425
1797	0.6605
1806	0.6817
1815	0.7004
1824	0.7167
1833	0.7325
1842	0.7419
1851	0.7419
1860	0.7322
1869	0.7121
1878	0.7161
1887	0.7328
1896	0.7468
1905	0.7575
1914	0.7657
1923	0.7749
1932	0.7834
1941	0.7897
1950	0.7951
1959	0.7991
1968	0.8011
1977	0.8033
1986	0.8035
1995	0.8104
2004	0.8168
2013	0.8151
2022	0.8122
2031	0.8104
2040	0.8096
2049	0.8118
2058	0.8153
2067	0.8174
2076	0.8167
2085	0.8146
2094	0.8154
2103	0.8187
2112	0.8199
2121	0.82
2130	0.8203
2139	0.821
2148	0.8204
2157	0.818
2166	0.8156
2175	0.8132
2184	0.8101
2193	0.8068
2202	0.8026
2211	0.7985
2220	0.794
2229	0.7888
2238	0.7836
2247	0.7784
2256	0.7732
2265	0.768
2274	0.7621
2283	0.7584
2292	0.7628
2301	0.7661
2310	0.7689
2319	0.7738
2328	0.7691
2337	0.7638
2346	0.7589
2355	0.7536
2364	0.748
2373	0.7422
2382	0.7348
2391	0.7257
2400	0.7161
2409	0.7055
2418	0.6915
2427	0.6775
2436	0.6657
2445	0.6498
2454	0.6322
2463	0.6134
2472	0.5874
2481	0.5634
2490	0.536
2499	0.4996
2508	0.4702
2517	0.4526
2526	0.4362
2535	0.4277
2544	0.4154
2553	0.4012
2562	0.3882
2571	0.3732
2580	0.3634
2589	0.3695
2598	0.3928
2607	0.4199
2616	0.4223
2625	0.4152
2634	0.3988
2643	0.3812
2652	0.3634
2661	0.3459
2670	0.3284
2679	0.3146
2688	0.3158
2697	0.3254
2706	0.3494
2715	0.3755
2724	0.3959
2733	0.4034
2742	0.3988
2751	0.3868
2760	0.3706
2769	0.3477
2778	0.326
2787	0.3083
2796	0.2904
2805	0.2711
2814	0.2505
2823	0.2284
2832	0.2175
2841	0.2114
2850	0.2043
2859	0.1831
2868	0.1612
2877	0.1507
2886	0.1425
2895	0.1333
2904	0.1209
2913	0.1479
2922	0.1463
2931	0.1319
2940	0.1265
2949	0.1388
2958	0.1321
2967	0.1165
2976	0.0865
2985	0.063
2994	0.0795
3003	0.0975
3012	0.1114
3021	0.1267
3030	0.134
3039	0.1383
3048	0.1412
3057	0.1423
3066	0.1462
3075	0.147
3084	0.1514
3093	0.1613
3102	0.1729
3111	0.1845
3120	0.1963
3129	0.208
3138	0.2197
3147	0.232
3156	0.2455
3165	0.2596
3174	0.2753
3183	0.2889
3192	0.3013
3201	0.3126
3210	0.3225
3219	0.3328
3228	0.3509
3237	0.3695
3246	0.3871
3255	0.4034
3264	0.4185
3273	0.4351
3282	0.4538
3291	0.4722
3300	0.4908
3309	0.5097
3318	0.5309
3327	0.5581
3336	0.5804
3345	0.6005
3354	0.6189
3363	0.6364
3372	0.6589
3381	0.6851
3390	0.7046
3399	0.7218
3408	0.7403
3417	0.748
3426	0.7472
3435	0.7457
3444	0.7514
3453	0.7744
3462	0.7936
3471	0.8134
3480	0.8251
3489	0.8285
3498	0.8289
3507	0.8242
3516	0.8161
3525	0.8148
3534	0.8261
3543	0.8397
3552	0.8521
3561	0.8603
3570	0.8518
3579	0.8648
3588	0.8678
3597	0.8662
3606	0.8742
3615	0.8755
3624	0.8775
3633	0.8795
3642	0.8782
3651	0.8752
3660	0.8736
3669	0.8748
3678	0.8778
3687	0.8811
3696	0.8844
3705	0.885
3714	0.8851
3723	0.8838
3732	0.8825
3741	0.8811
3750	0.88
3759	0.8788
3768	0.8775
3777	0.8778
3786	0.8791
3795	0.8806
