Infrared Spectrum: Aniline, 4,4'-(imidocarbonyl)-bis N,N-dimethyl-, monohydrochloride
Formula: C17 H22 Cl N3
CAS: 2465-27-2
State: SOLID (SPLIT MULL), HALOCARBON FOR 3800-1700 CM^-^1, NUJOL FOR 1700-400 CM^-^1
Melting point: 264 C
Class: COBLENTZ III
Instrument: PERKIN-ELMER 180 (GRATING)
Instrument parameters: GRATINGS: 2000, 1000, 500, 250 CM^-^1; FILTER CHANGE: 2970, 2000, 1485, 1000, 743, 500, 372, 250, 186 CM^-^1.
Sampling: TRANSMISSION
Resolution: 2
Origin: K. K. DEB-NCI FREDERICK CANCER RESEARCH CENTER
1/CM	TRANSMITTANCE
397	0.8091
406	0.8302
415	0.8048
424	0.8673
433	0.916
442	0.9228
451	0.9185
460	0.9223
469	0.9119
478	0.896
487	0.9255
496	0.9204
505	0.8683
514	0.9123
523	0.9331
532	0.9242
541	0.8724
550	0.7966
559	0.8141
568	0.8981
577	0.9105
586	0.8947
595	0.8645
604	0.7998
613	0.5806
622	0.7612
631	0.8028
640	0.7268
649	0.8834
658	0.9223
667	0.8761
676	0.7754
685	0.9241
694	0.9263
703	0.9032
712	0.843
721	0.7375
730	0.6924
739	0.8052
748	0.7644
757	0.6883
766	0.7678
775	0.7733
784	0.7932
793	0.7618
802	0.7162
811	0.6823
820	0.4974
829	0.607
838	0.7041
847	0.7692
856	0.8175
865	0.8344
874	0.8311
883	0.8268
892	0.8248
901	0.8269
910	0.8193
919	0.8003
928	0.7655
937	0.6837
946	0.6331
955	0.73
964	0.7423
973	0.728
982	0.7204
991	0.6898
1000	0.6608
1009	0.6822
1018	0.6484
1027	0.6195
1036	0.5918
1045	0.5449
1054	0.4834
1063	0.4468
1072	0.4308
1081	0.36
1090	0.2893
1099	0.2185
1108	0.1888
1117	0.1811
1126	0.1888
1135	0.2195
1144	0.2511
1153	0.2475
1162	0.3163
1171	0.4258
1180	0.4593
1189	0.4122
1198	0.3386
1207	0.6358
1216	0.6914
1225	0.634
1234	0.6738
1243	0.7736
1252	0.7705
1261	0.733
1270	0.6935
1279	0.654
1288	0.6145
1297	0.5723
1306	0.5331
1315	0.5268
1324	0.5039
1333	0.4573
1342	0.3645
1351	0.6159
1360	0.5221
1369	0.3677
1378	0.3109
1387	0.4434
1396	0.3581
1405	0.3972
1414	0.6222
1423	0.6695
1432	0.5787
1441	0.5765
1450	0.6559
1459	0.6457
1468	0.622
1477	0.5378
1486	0.5378
1495	0.6534
1504	0.7204
1513	0.7329
1522	0.7071
1531	0.613
1540	0.5387
1549	0.5136
1558	0.493
1567	0.4281
1576	0.3872
1585	0.2975
1594	0.1651
1603	0.1379
1612	0.5533
1621	0.6773
1630	0.7367
1639	0.7791
1648	0.7805
1657	0.7867
1666	0.7708
1675	0.7449
1684	0.7252
1693	0.7302
1702	0.7674
1711	0.8117
1720	0.8438
1729	0.873
1738	0.8972
1747	0.9111
1756	0.9181
1765	0.923
1774	0.9258
1783	0.9277
1792	0.9276
1801	0.9269
1810	0.9262
1819	0.925
1828	0.9238
1837	0.9218
1846	0.9196
1855	0.917
1864	0.9139
1873	0.9102
1882	0.906
1891	0.8999
1900	0.8939
1909	0.8992
1918	0.9045
1927	0.9041
1936	0.9024
1945	0.8997
1954	0.8971
1963	0.8947
1972	0.8925
1981	0.8899
1990	0.8841
1999	0.8837
2008	0.8901
2017	0.8873
2026	0.8793
2035	0.8641
2044	0.8332
2053	0.812
2062	0.847
2071	0.8814
2080	0.8759
2089	0.8675
2098	0.8644
2107	0.8636
2116	0.8631
2125	0.8615
2134	0.8598
2143	0.8564
2152	0.8528
2161	0.8486
2170	0.845
2179	0.8427
2188	0.8412
2197	0.8412
2206	0.8414
2215	0.8395
2224	0.8363
2233	0.8319
2242	0.8285
2251	0.8252
2260	0.8224
2269	0.8205
2278	0.8186
2287	0.8169
2296	0.8155
2305	0.8141
2314	0.8127
2323	0.8113
2332	0.81
2341	0.8085
2350	0.8072
2359	0.8069
2368	0.8066
2377	0.8062
2386	0.8057
2395	0.8052
2404	0.8041
2413	0.8023
2422	0.8004
2431	0.798
2440	0.7942
2449	0.7911
2458	0.7897
2467	0.7883
2476	0.7875
2485	0.7877
2494	0.7881
2503	0.7879
2512	0.7838
2521	0.7799
2530	0.7766
2539	0.7733
2548	0.7717
2557	0.7701
2566	0.7683
2575	0.7662
2584	0.7628
2593	0.7593
2602	0.7558
2611	0.7514
2620	0.7471
2629	0.7427
2638	0.7387
2647	0.7374
2656	0.7358
2665	0.7344
2674	0.7329
2683	0.7287
2692	0.7231
2701	0.7162
2710	0.7097
2719	0.7032
2728	0.6953
2737	0.6872
2746	0.6792
2755	0.6715
2764	0.664
2773	0.656
2782	0.6466
2791	0.637
2800	0.6265
2809	0.6107
2818	0.5985
2827	0.5941
2836	0.5894
2845	0.5734
2854	0.5534
2863	0.5382
2872	0.5229
2881	0.5047
2890	0.4814
2899	0.4544
2908	0.4343
2917	0.4153
2926	0.3953
2935	0.3741
2944	0.3572
2953	0.3421
2962	0.3278
2971	0.323
2980	0.3241
2989	0.3432
2998	0.3787
3007	0.4139
3016	0.4474
3025	0.4771
3034	0.5018
3043	0.521
3052	0.5398
3061	0.5545
3070	0.5659
3079	0.576
3088	0.5837
3097	0.5899
3106	0.5933
3115	0.5943
3124	0.5934
3133	0.592
3142	0.5905
3151	0.5874
3160	0.5844
3169	0.5828
3178	0.5831
3187	0.5834
3196	0.5868
3205	0.5904
3214	0.5941
3223	0.5976
3232	0.6011
3241	0.6043
3250	0.6048
3259	0.6051
3268	0.6054
3277	0.6045
3286	0.6036
3295	0.6027
3304	0.6025
3313	0.6037
3322	0.605
3331	0.6062
3340	0.6057
3349	0.6048
3358	0.6039
3367	0.6033
3376	0.6027
3385	0.6021
3394	0.6031
3403	0.6051
3412	0.6073
3421	0.6094
3430	0.6127
3439	0.6175
3448	0.6223
3457	0.627
3466	0.6313
3475	0.6344
3484	0.6377
3493	0.6408
3502	0.6441
3511	0.6458
3520	0.6475
3529	0.6491
3538	0.6508
3547	0.6524
3556	0.654
3565	0.6553
3574	0.6566
3583	0.6578
3592	0.6592
3601	0.6604
3610	0.6613
3619	0.6611
3628	0.6609
3637	0.6606
3646	0.6604
3655	0.6594
3664	0.6583
3673	0.657
3682	0.6559
3691	0.6546
3700	0.6528
3709	0.6507
3718	0.6486
3727	0.6465
3736	0.6444
3745	0.6423
3754	0.6402
3763	0.638
3772	0.6359
3781	0.6336
3790	0.6313
