Infrared Spectrum: 2,5-DICHLOROACETOPHENONE
Formula: C8 H6 Cl2 O
CAS: 2476-37-1
State: SOLUTION (10% CCl4 FOR 5000-1330, 10% CS2 FOR 1330-625 CM^-^1)
Class: COBLENTZ
Instrument: Not specified, most likely a prism, grating, or hybrid spectrometer.
Sampling: TRANSMISSION
Path length: 0.0119 CM, 0.0119 CM
Resolution: 4
Origin: DOW CHEMICAL COMPANY
MICROMETERS	TRANSMITTANCE
2.033	0.906
2.07304	0.903
2.11308	0.9
2.15312	0.901
2.19316	0.901
2.2332	0.9
2.27324	0.897
2.31329	0.903
2.35333	0.903
2.39337	0.901
2.43341	0.901
2.47345	0.905
2.51349	0.906
2.55353	0.908
2.59357	0.915
2.63361	0.911
2.67365	0.911
2.71369	0.913
2.75373	0.905
2.79377	0.892
2.83382	0.883
2.87386	0.878
2.9139	0.865
2.95394	0.848
2.99398	0.878
3.03402	0.88
3.07406	0.878
3.1141	0.882
3.15414	0.875
3.19418	0.863
3.23422	0.835
3.27426	0.848
3.3143	0.845
3.35434	0.857
3.39439	0.888
3.43443	0.906
3.47447	0.898
3.51451	0.898
3.55455	0.905
3.59459	0.911
3.63463	0.913
3.67467	0.913
3.71471	0.906
3.75475	0.911
3.79479	0.92
3.83483	0.915
3.87487	0.918
3.91492	0.92
3.95496	0.916
3.995	0.916
4.03504	0.916
4.07508	0.921
4.11512	0.923
4.15516	0.921
4.1952	0.918
4.23524	0.911
4.27528	0.908
4.31532	0.92
4.35536	0.923
4.3954	0.92
4.43545	0.923
4.47549	0.925
4.51553	0.925
4.55557	0.925
4.59561	0.925
4.63565	0.923
4.67569	0.928
4.71573	0.926
4.75577	0.931
4.79581	0.93
4.83585	0.928
4.87589	0.928
4.91593	0.925
4.95597	0.93
4.99602	0.936
5.03606	0.93
5.0761	0.923
5.11614	0.923
5.15618	0.928
5.19622	0.925
5.23626	0.91
5.2763	0.887
5.31634	0.92
5.35638	0.926
5.39642	0.921
5.43646	0.913
5.4765	0.916
5.51655	0.908
5.55659	0.888
5.59663	0.862
5.63667	0.852
5.67671	0.828
5.71675	0.817
5.75679	0.759
5.79683	0.564
5.83687	0.343
5.87691	0.079
5.91695	0.154
5.95699	0.538
5.99703	0.737
6.03708	0.78
6.07712	0.79
6.11716	0.807
6.1572	0.85
6.19724	0.86
6.23728	0.865
6.27732	0.774
6.31736	0.696
6.3574	0.82
6.39744	0.83
6.43748	0.838
6.47752	0.88
6.51756	0.91
6.5576	0.911
6.59765	0.908
6.63769	0.898
6.67773	0.873
6.71777	0.853
6.75781	0.77
6.79785	0.426
6.83789	0.22
6.87793	0.475
6.91797	0.599
6.95801	0.594
6.99805	0.568
7.03809	0.593
7.07813	0.707
7.11818	0.727
7.15822	0.662
7.19826	0.352
7.2383	0.187
7.27834	0.576
7.31838	0.591
7.35842	0.325
7.39846	0.508
7.4385	0.795
7.47854	0.857
7.51858	0.888
7.55862	0.905
7.59866	0.901
7.63871	0.888
7.67875	0.853
7.71879	0.769
7.75883	0.622
7.79887	0.338
7.83891	0.219
7.87895	0.483
7.91899	0.531
7.95903	0.312
7.99907	0.455
8.03911	0.588
8.07915	0.358
8.11919	0.127
8.15923	0.164
8.19928	0.478
8.23932	0.696
8.27936	0.769
8.3194	0.787
8.35944	0.789
8.39948	0.807
8.43952	0.828
8.47956	0.837
8.5196	0.838
8.55964	0.843
8.59968	0.845
8.63972	0.837
8.67976	0.817
8.71981	0.774
8.75985	0.7
8.79989	0.677
8.83993	0.732
8.87997	0.749
8.92001	0.715
8.96005	0.677
9.00009	0.649
9.04013	0.431
9.08017	0.225
9.12021	0.147
9.16025	0.397
9.20029	0.558
9.24034	0.679
9.28038	0.727
9.32042	0.759
9.36046	0.772
9.4005	0.777
9.44054	0.767
9.48058	0.707
9.52062	0.583
9.56066	0.363
9.6007	0.252
9.64074	0.382
9.68078	0.611
9.72082	0.725
9.76087	0.765
9.80091	0.77
9.84095	0.755
9.88099	0.759
9.92103	0.795
9.96107	0.828
10.0011	0.848
10.0412	0.86
10.0812	0.868
10.1212	0.86
10.1613	0.835
10.2013	0.799
10.2414	0.762
10.2814	0.775
10.3214	0.805
10.3615	0.803
10.4015	0.787
10.4416	0.772
10.4816	0.782
10.5216	0.808
10.5617	0.815
10.6017	0.847
10.6418	0.865
10.6818	0.88
10.7218	0.887
10.7619	0.89
10.8019	0.892
10.842	0.888
10.882	0.883
10.922	0.873
10.9621	0.865
11.0021	0.853
11.0422	0.83
11.0822	0.8
11.1223	0.752
11.1623	0.707
11.2023	0.667
11.2424	0.637
11.2824	0.626
11.3225	0.622
11.3625	0.611
11.4025	0.607
11.4426	0.774
11.4826	0.842
11.5227	0.868
11.5627	0.906
11.6027	0.918
11.6428	0.933
11.6828	0.94
11.7229	0.945
11.7629	0.945
11.8029	0.94
11.843	0.933
11.883	0.923
11.9231	0.905
11.9631	0.88
12.0031	0.853
12.0432	0.78
12.0832	0.682
12.1233	0.573
12.1633	0.401
12.2034	0.237
12.2434	0.098
12.2834	0.2
12.3235	0.528
12.3635	0.727
12.4036	0.815
12.4436	0.868
12.4836	0.895
12.5237	0.91
12.5637	0.923
12.6038	0.936
12.6438	0.945
12.6838	0.95
12.7239	0.956
12.7639	0.96
12.804	0.96
12.844	0.96
12.884	0.96
12.9241	0.96
12.9641	0.96
13.0042	0.963
13.0442	0.966
13.0842	0.966
13.1243	0.965
13.1643	0.965
13.2044	0.965
13.2444	0.965
13.2845	0.963
13.3245	0.963
13.3645	0.963
13.4046	0.966
13.4446	0.968
13.4847	0.971
13.5247	0.97
13.5647	0.966
13.6048	0.965
13.6448	0.963
13.6849	0.956
13.7249	0.955
13.7649	0.941
13.805	0.933
13.845	0.92
13.8851	0.895
13.9251	0.872
13.9651	0.853
14.0052	0.855
14.0452	0.877
14.0853	0.898
14.1253	0.921
14.1653	0.935
14.2054	0.943
14.2454	0.946
14.2855	0.946
14.3255	0.946
14.3656	0.946
14.4056	0.941
14.4456	0.935
14.4857	0.916
14.5257	0.893
14.5658	0.862
14.6058	0.85
14.6458	0.85
14.6859	0.862
14.7259	0.893
14.766	0.916
14.806	0.933
14.846	0.936
14.8861	0.936
14.9261	0.938
14.9662	0.94
15.0062	0.946
15.0462	0.946
15.0863	0.946
15.1263	0.946
15.1664	0.946
15.2064	0.943
15.2464	0.933
15.2865	0.93
15.3265	0.928
15.3666	0.926
15.4066	0.925
15.4467	0.923
15.4867	0.923
15.5267	0.923
15.5668	0.921
15.6068	0.921
15.6469	0.92
15.6869	0.918
15.7269	0.918
15.767	0.918
15.807	0.918
15.8471	0.918
15.8871	0.918
