Infrared Spectrum: XANTHINE, 2-THIO-
Formula: C5 H4 N4 O S
CAS: 2487-40-3
State: SOLID (0.8 mg / 650 KBr DISC)
Class: COBLENTZ III
Instrument: PERKIN-ELMER 21 (GRATING)
Instrument parameters: FILTER CHANGE AT ABOUT 1075 CM^-^1.
Sampling: TRANSMISSION
Resolution: 2
Origin: SOUTHERN RESEARCH INSTITUTE
1/CM	TRANSMITTANCE
632.416	0.958
640.933	0.8873
649.45	0.8075
657.967	0.743
666.484	0.9322
675.001	0.8405
683.519	0.9795
692.036	0.9503
700.553	0.9309
709.07	0.907
717.587	0.8828
726.104	0.8612
734.621	0.8251
743.138	0.7608
751.655	0.6777
760.172	0.4088
768.69	0.6184
777.207	0.6294
785.724	0.63
794.241	0.6165
802.758	0.5935
811.275	0.653
819.792	0.6431
828.309	0.6009
836.826	0.5359
845.343	0.4638
853.861	0.461
862.378	0.5009
870.895	0.5466
879.412	0.5687
887.929	0.6009
896.446	0.5886
904.963	0.5878
913.48	0.6101
921.997	0.6272
930.514	0.6229
939.032	0.5434
947.549	0.6315
956.066	0.7456
964.583	0.6907
973.1	0.7776
981.617	0.881
990.134	0.882
998.651	0.882
1007.17	0.882
1015.69	0.8807
1024.2	0.8711
1032.72	0.8605
1041.24	0.851
1049.75	0.8408
1058.27	0.8166
1066.79	0.786
1075.31	0.7717
1083.82	0.7439
1092.34	0.7081
1100.86	0.6358
1109.37	0.5412
1117.89	0.561
1126.41	0.4993
1134.92	0.4744
1143.44	0.3328
1151.96	0.1415
1160.48	0.3954
1168.99	0.67
1177.51	0.6301
1186.03	0.4434
1194.54	0.1543
1203.06	0.072
1211.58	0.2226
1220.1	0.3456
1228.61	0.7521
1237.13	0.7608
1245.65	0.6942
1254.16	0.5618
1262.68	0.5886
1271.2	0.801
1279.72	0.8107
1288.23	0.7907
1296.75	0.788
1305.27	0.7717
1313.78	0.7379
1322.3	0.6802
1330.82	0.561
1339.34	0.611
1347.85	0.564
1356.37	0.7293
1364.89	0.7171
1373.4	0.6882
1381.92	0.6534
1390.44	0.5987
1398.95	0.5176
1407.47	0.4261
1415.99	0.2839
1424.51	0.215
1433.02	0.4685
1441.54	0.2561
1450.06	0.3064
1458.57	0.3563
1467.09	0.5015
1475.61	0.55
1484.13	0.5111
1492.64	0.4466
1501.16	0.381
1509.68	0.4306
1518.19	0.514
1526.71	0.502
1535.23	0.4349
1543.75	0.407
1552.26	0.2849
1560.78	0.2239
1569.3	0.1232
1577.81	0.0786
1586.33	0.066
1594.85	0.0624
1603.37	0.055
1611.88	0.102
1620.4	0.169
1628.92	0.1528
1637.43	0.1026
1645.95	0.0461
1654.47	0.0224
1662.98	0.015
1671.5	0.0219
1680.02	0.023
1688.54	0.0446
1697.05	0.1094
1705.57	0.2103
1714.09	0.4403
1722.6	0.628
1731.12	0.7155
1739.64	0.733
1748.16	0.7247
1756.67	0.7251
1765.19	0.7562
1773.71	0.78
1782.22	0.8029
1790.74	0.8276
1799.26	0.8409
1807.78	0.846
1816.29	0.846
1824.81	0.843
1833.33	0.8427
1841.84	0.8707
1850.36	0.8793
1858.88	0.8866
1867.4	0.8916
1875.91	0.897
1884.43	0.897
1892.95	0.897
1901.46	0.898
1909.98	0.8962
1918.5	0.898
1927.01	0.906
1935.53	0.907
1944.05	0.907
1952.57	0.907
1961.08	0.907
1969.6	0.907
1978.12	0.9039
1986.63	0.903
1995.15	0.903
2003.67	0.901
2012.19	0.901
2020.7	0.901
2029.22	0.901
2037.74	0.898
2046.25	0.897
2054.77	0.895
2063.29	0.891
2071.81	0.884
2080.32	0.88
2088.84	0.874
2097.36	0.86
2105.87	0.86
2114.39	0.859
2122.91	0.855
2131.43	0.852
2139.94	0.851
2148.46	0.848
2156.98	0.834
2165.49	0.831
2174.01	0.829
2182.53	0.828
2191.04	0.818
2199.56	0.809
2208.08	0.797
2216.6	0.789
2225.11	0.78
2233.63	0.772
2242.15	0.762
2250.66	0.757
2259.18	0.754
2267.7	0.744
2276.22	0.734
2284.73	0.732
2293.25	0.719
2301.77	0.703
2310.28	0.688
2318.8	0.669
2327.32	0.661
2335.84	0.652
2344.35	0.642
2352.87	0.635
2361.39	0.628
2369.9	0.621
2378.42	0.615
2386.94	0.608
2395.46	0.601
2403.97	0.593
2412.49	0.576
2421.01	0.565
2429.52	0.553
2438.04	0.533
2446.56	0.513
2455.07	0.49
2463.59	0.48
2472.11	0.475
2480.63	0.461
2489.14	0.446
2497.66	0.435
2506.18	0.411
2514.69	0.389
2523.21	0.37
2531.73	0.353
2540.25	0.337
2548.76	0.3239
2557.28	0.314
2565.8	0.308
2574.31	0.303
2582.83	0.302
2591.35	0.302
2599.87	0.302
2608.38	0.302
2616.9	0.302
2625.42	0.292
2633.93	0.291
2642.45	0.28
2650.97	0.273
2659.49	0.263
2668	0.2599
2676.52	0.24
2685.04	0.223
2693.55	0.216
2702.07	0.215
2710.59	0.21
2719.1	0.2
2727.62	0.196
2736.14	0.19
2744.66	0.176
2753.17	0.168
2761.69	0.164
2770.21	0.161
2778.72	0.152
2787.24	0.146
2795.76	0.138
2804.28	0.138
2812.79	0.138
2821.31	0.138
2829.83	0.136
2838.34	0.136
2846.86	0.136
2855.38	0.135
2863.9	0.135
2872.41	0.133
2880.93	0.136
2889.45	0.142
2897.96	0.146
2906.48	0.161
2915	0.169
2923.52	0.171
2932.03	0.17
2940.55	0.162
2949.07	0.151
2957.58	0.144
2966.1	0.138
2974.62	0.136
2983.13	0.136
2991.65	0.133
3000.17	0.13
3008.69	0.121
3017.2	0.108
3025.72	0.1
3034.24	0.094
3042.75	0.088
3051.27	0.084
3059.79	0.083
3068.31	0.083
3076.82	0.085
3085.34	0.087
3093.86	0.1
3102.37	0.113
3110.89	0.1281
3119.41	0.1591
3127.93	0.184
3136.44	0.2111
3144.96	0.2381
3153.48	0.273
3161.99	0.299
3170.51	0.3301
3179.03	0.3581
3187.55	0.3881
3196.06	0.4261
3204.58	0.4671
3213.1	0.5061
3221.61	0.556
3230.13	0.5791
3238.65	0.598
3247.16	0.619
3255.68	0.63
3264.2	0.651
3272.72	0.659
3281.23	0.668
3289.75	0.673
3298.27	0.684
3306.78	0.69
3315.3	0.691
3323.82	0.688
3332.34	0.69
3340.85	0.69
3349.37	0.687
3357.89	0.685
3366.4	0.682
3374.92	0.681
3383.44	0.677
3391.96	0.679
3400.47	0.679
3408.99	0.679
3417.51	0.68
3426.02	0.681
3434.54	0.69
3443.06	0.693
3451.58	0.698
3460.09	0.708
3468.61	0.717
3477.13	0.725
3485.64	0.734
3494.16	0.738
3502.68	0.748
3511.19	0.751
3519.71	0.755
3528.23	0.753
3536.75	0.755
3545.26	0.7651
3553.78	0.776
3562.3	0.791
3570.81	0.807
3579.33	0.825
3587.85	0.837
3596.37	0.853
3604.88	0.861
3613.4	0.865
3621.92	0.865
3630.43	0.865
3638.95	0.864
3647.47	0.864
3655.99	0.864
3664.5	0.864
3673.02	0.864
3681.54	0.864
3690.05	0.864
3698.57	0.864
3707.09	0.864
3715.61	0.864
3724.12	0.863
3732.64	0.855
3741.16	0.855
3749.67	0.855
3758.19	0.854
3766.71	0.853
3775.22	0.851
3783.74	0.849
3792.26	0.847
3800.78	0.848
3809.29	0.848
