Infrared Spectrum: 2,6-DIMETHYL 2,6-OCTADIENE (CIS)
Formula: C10 H18
CAS: 2492-22-0
Class: COBLENTZ
Instrument: Not specified, most likely a prism, grating, or hybrid spectrometer.
Sampling: TRANSMISSION
Resolution: 4
Origin: INTERNATIONAL FLAVORS & FRAGRANCES, INC.
MICROMETERS	TRANSMITTANCE
2.024	0.912
2.05654	0.912
2.08909	0.911
2.12163	0.909
2.15418	0.907
2.18672	0.907
2.21926	0.904
2.25181	0.877
2.28435	0.845
2.31689	0.84
2.34944	0.853
2.38198	0.872
2.41453	0.886
2.44707	0.88
2.47961	0.891
2.51216	0.894
2.5447	0.894
2.57725	0.897
2.60979	0.903
2.64233	0.903
2.67488	0.907
2.70742	0.91
2.73997	0.907
2.77251	0.908
2.80505	0.908
2.8376	0.907
2.87014	0.904
2.90268	0.902
2.93523	0.899
2.96777	0.895
3.00032	0.9
3.03286	0.902
3.0654	0.902
3.09795	0.895
3.13049	0.885
3.16304	0.849
3.19558	0.822
3.22812	0.582
3.26067	0.498
3.29321	0.154
3.32575	0.066
3.3583	0.033
3.39084	0.081
3.42339	0.091
3.45593	0.208
3.48847	0.553
3.52102	0.683
3.55356	0.794
3.58611	0.831
3.61865	0.791
3.65119	0.814
3.68374	0.87
3.71628	0.881
3.74882	0.891
3.78137	0.901
3.81391	0.903
3.84646	0.907
3.879	0.907
3.91154	0.908
3.94409	0.905
3.97663	0.905
4.00918	0.907
4.04172	0.908
4.07426	0.909
4.10681	0.907
4.13935	0.908
4.1719	0.91
4.20444	0.909
4.23698	0.909
4.26953	0.915
4.30207	0.927
4.33461	0.931
4.36716	0.932
4.3997	0.932
4.43225	0.934
4.46479	0.933
4.49733	0.933
4.52988	0.933
4.56242	0.934
4.59497	0.935
4.62751	0.936
4.66005	0.939
4.6926	0.94
4.72514	0.939
4.75768	0.939
4.79023	0.94
4.82277	0.94
4.85532	0.938
4.88786	0.936
4.9204	0.936
4.95295	0.938
4.98549	0.934
5.01804	0.936
5.05058	0.934
5.08312	0.933
5.11567	0.935
5.14821	0.936
5.18075	0.936
5.2133	0.933
5.24584	0.932
5.27839	0.932
5.31093	0.928
5.34347	0.923
5.37602	0.907
5.40856	0.901
5.44111	0.905
5.47365	0.91
5.50619	0.916
5.53874	0.918
5.57128	0.92
5.60383	0.92
5.63637	0.926
5.66891	0.922
5.70146	0.92
5.734	0.92
5.76654	0.917
5.79909	0.918
5.83163	0.904
5.86418	0.894
5.89672	0.865
5.92926	0.768
5.96181	0.809
5.99435	0.852
6.0269	0.86
6.05944	0.856
6.09198	0.858
6.12453	0.85
6.15707	0.852
6.18961	0.857
6.22216	0.861
6.2547	0.863
6.28725	0.863
6.31979	0.863
6.35233	0.854
6.38488	0.853
6.41742	0.838
6.44997	0.834
6.48251	0.829
6.51505	0.819
6.5476	0.819
6.58014	0.807
6.61268	0.794
6.64523	0.763
6.67777	0.727
6.71032	0.665
6.74286	0.59
6.7754	0.319
6.80795	0.19
6.84049	0.143
6.87304	0.16
6.90558	0.253
6.93812	0.371
6.97067	0.47
7.00321	0.56
7.03576	0.653
7.0683	0.689
7.10084	0.7
7.13339	0.689
7.16593	0.553
7.19847	0.237
7.23102	0.284
7.26356	0.558
7.29611	0.643
7.32865	0.68
7.36119	0.651
7.39374	0.637
7.42628	0.741
7.45883	0.803
7.49137	0.818
7.52391	0.817
7.55646	0.793
7.589	0.737
7.62154	0.782
7.65409	0.83
7.68663	0.845
7.71918	0.848
7.75172	0.849
7.78426	0.86
7.81681	0.86
7.84935	0.861
7.8819	0.861
7.91444	0.86
7.94698	0.841
7.97953	0.836
8.01207	0.827
8.04461	0.811
8.07716	0.797
8.1097	0.779
8.14225	0.788
8.17479	0.81
8.20733	0.818
8.23988	0.807
8.27242	0.795
8.30497	0.815
8.33751	0.837
8.37005	0.845
8.4026	0.853
8.43514	0.861
8.46769	0.87
8.50023	0.872
8.53277	0.873
8.56532	0.871
8.59786	0.86
8.6304	0.844
8.66295	0.824
8.69549	0.801
8.72804	0.792
8.76058	0.825
8.79312	0.85
8.82567	0.86
8.85821	0.858
8.89076	0.84
8.9233	0.777
8.95584	0.636
8.98839	0.529
9.02093	0.615
9.05347	0.706
9.08602	0.754
9.11856	0.79
9.15111	0.797
9.18365	0.786
9.21619	0.725
9.24874	0.678
9.28128	0.69
9.31383	0.724
9.34637	0.753
9.37891	0.766
9.41146	0.761
9.444	0.731
9.47654	0.715
9.50909	0.724
9.54163	0.753
9.57418	0.754
9.60672	0.752
9.63926	0.759
9.67181	0.768
9.70435	0.775
9.7369	0.783
9.76944	0.788
9.80198	0.788
9.83453	0.786
9.86707	0.787
9.89962	0.798
9.93216	0.8
9.9647	0.801
9.99725	0.797
10.0298	0.784
10.0623	0.763
10.0949	0.745
10.1274	0.711
10.16	0.712
10.1925	0.738
10.2251	0.767
10.2576	0.783
10.2901	0.785
10.3227	0.777
10.3552	0.766
10.3878	0.78
10.4203	0.805
10.4529	0.814
10.4854	0.81
10.5179	0.811
10.5505	0.832
10.583	0.85
10.6156	0.863
10.6481	0.868
10.6807	0.87
10.7132	0.875
10.7458	0.876
10.7783	0.878
10.8108	0.873
10.8434	0.871
10.8759	0.868
10.9085	0.863
10.941	0.856
10.9736	0.85
11.0061	0.842
11.0387	0.838
11.0712	0.84
11.1037	0.847
11.1363	0.855
11.1688	0.858
11.2014	0.862
11.2339	0.861
11.2665	0.855
11.299	0.84
11.3315	0.827
11.3641	0.818
11.3966	0.818
11.4292	0.823
11.4617	0.838
11.4943	0.844
11.5268	0.85
11.5594	0.853
11.5919	0.858
11.6244	0.855
11.657	0.852
11.6895	0.842
11.7221	0.834
11.7546	0.817
11.7872	0.784
11.8197	0.732
11.8522	0.665
11.8848	0.594
11.9173	0.566
11.9499	0.569
11.9824	0.58
12.015	0.568
12.0475	0.54
12.0801	0.517
12.1126	0.475
12.1451	0.405
12.1777	0.353
12.2102	0.315
12.2428	0.301
12.2753	0.299
12.3079	0.31
12.3404	0.327
12.3729	0.352
12.4055	0.402
12.438	0.462
12.4706	0.526
12.5031	0.579
12.5357	0.625
12.5682	0.669
12.6008	0.701
12.6333	0.722
12.6658	0.739
12.6984	0.752
12.7309	0.759
12.7635	0.764
12.796	0.77
12.8286	0.777
12.8611	0.788
12.8937	0.797
12.9262	0.805
12.9587	0.817
12.9913	0.822
13.0238	0.831
13.0564	0.834
13.0889	0.837
13.1215	0.84
13.154	0.846
13.1865	0.852
13.2191	0.854
13.2516	0.854
13.2842	0.856
13.3167	0.854
13.3493	0.85
13.3818	0.847
13.4144	0.836
13.4469	0.821
13.4794	0.801
13.512	0.784
13.5445	0.776
13.5771	0.775
13.6096	0.784
13.6422	0.8
13.6747	0.808
13.7072	0.815
13.7398	0.817
13.7723	0.819
13.8049	0.817
13.8374	0.815
13.87	0.818
13.9025	0.821
13.9351	0.824
13.9676	0.83
14.0001	0.832
14.0327	0.832
14.0652	0.83
14.0978	0.83
14.1303	0.829
14.1629	0.823
14.1954	0.823
14.2279	0.821
14.2605	0.823
14.293	0.818
14.3256	0.816
14.3581	0.813
14.3907	0.809
14.4232	0.807
14.4558	0.803
14.4883	0.802
14.5208	0.801
14.5534	0.798
14.5859	0.795
14.6185	0.792
14.651	0.788
14.6836	0.786
14.7161	0.782
14.7487	0.777
14.7812	0.775
14.8137	0.771
14.8463	0.762
14.8788	0.762
14.9114	0.761
14.9439	0.755
14.9765	0.752
15.009	0.754
