Infrared Spectrum: N-CARBETHOXY-N-BENZYL-CYCLOPROPYLAMINE
Formula: C13 H17 O2 N
CAS: 2521-01-9
Class: COBLENTZ
Instrument: PERKIN-ELMER
Sampling: TRANSMISSION
Path length: CAPILLARY
Resolution: 4
Origin: ABBOTT LABORATORIES - WASHBURN
MICROMETERS	TRANSMITTANCE
2.514	0.9
2.54814	0.8991
2.58229	0.8997
2.61643	0.899
2.65058	0.904
2.68472	0.8975
2.71886	0.899
2.75301	0.8997
2.78715	0.8997
2.82129	0.9
2.85544	0.8977
2.88958	0.897
2.92373	0.895
2.95787	0.8911
2.99201	0.8928
3.02616	0.8994
3.0603	0.9
3.09444	0.8993
3.12859	0.8986
3.16273	0.8897
3.19688	0.8674
3.23102	0.8162
3.26516	0.8043
3.29931	0.7436
3.33345	0.6675
3.36759	0.7049
3.40174	0.7226
3.43588	0.7577
3.47003	0.8239
3.50417	0.8469
3.53831	0.8695
3.57246	0.8774
3.6066	0.885
3.64074	0.888
3.67489	0.89
3.70903	0.888
3.74318	0.89
3.77732	0.89
3.81146	0.8909
3.84561	0.8928
3.87975	0.895
3.91389	0.897
3.94804	0.895
3.98218	0.8944
4.01633	0.8942
4.05047	0.8968
4.08461	0.895
4.11876	0.897
4.1529	0.8991
4.18704	0.899
4.22119	0.899
4.25533	0.8942
4.28948	0.8965
4.32362	0.8998
4.35776	0.907
4.39191	0.9043
4.42605	0.8993
4.46019	0.9033
4.49434	0.9008
4.52848	0.899
4.56263	0.899
4.59677	0.9029
4.63091	0.902
4.66506	0.9043
4.6992	0.9033
4.73334	0.9042
4.76749	0.9067
4.80163	0.9049
4.83578	0.9
4.86992	0.8973
4.90406	0.8991
4.93821	0.902
4.97235	0.899
5.00649	0.892
5.04064	0.8899
5.07478	0.894
5.10893	0.887
5.14307	0.883
5.17721	0.8898
5.21136	0.8919
5.2455	0.8901
5.27964	0.894
5.31379	0.8901
5.34793	0.892
5.38208	0.894
5.41622	0.894
5.45036	0.8922
5.48451	0.8831
5.51865	0.875
5.55279	0.871
5.58694	0.871
5.62108	0.8631
5.65523	0.8542
5.68937	0.8461
5.72351	0.8185
5.75766	0.766
5.7918	0.5745
5.82594	0.1666
5.86009	0.1039
5.89423	0.1741
5.92838	0.397
5.96252	0.6574
5.99666	0.7288
6.03081	0.772
6.06495	0.8169
6.09909	0.8336
6.13324	0.851
6.16738	0.8539
6.20153	0.8511
6.23567	0.813
6.26981	0.8539
6.30396	0.846
6.3381	0.859
6.37224	0.866
6.40639	0.8612
6.44053	0.856
6.47468	0.842
6.50882	0.858
6.54296	0.861
6.57711	0.859
6.61125	0.8581
6.64539	0.8472
6.67954	0.6724
6.71368	0.7377
6.74783	0.7231
6.78197	0.7108
6.81611	0.5999
6.85026	0.5827
6.8844	0.5
6.91854	0.5139
6.95269	0.5288
6.98683	0.558
7.02098	0.552
7.05512	0.4582
7.08926	0.2852
7.12341	0.388
7.15755	0.509
7.19169	0.5383
7.22584	0.4013
7.25998	0.3506
7.29413	0.4913
7.32827	0.6493
7.36241	0.6162
7.39656	0.5652
7.4307	0.5781
7.46484	0.692
7.49899	0.709
7.53313	0.6894
7.56728	0.6347
7.60142	0.5962
7.63556	0.5673
7.66971	0.521
7.70385	0.4822
7.73799	0.464
7.77214	0.48
7.80628	0.4966
7.84043	0.469
7.87457	0.4471
7.90871	0.4965
7.94286	0.5641
7.977	0.598
8.01114	0.6005
8.04529	0.5497
8.07943	0.4785
8.11358	0.4302
8.14772	0.4299
8.18186	0.4778
8.21601	0.5813
8.25015	0.6951
8.28429	0.7138
8.31844	0.664
8.35258	0.6558
8.38673	0.7047
8.42087	0.711
8.45501	0.69
8.48916	0.7
8.5233	0.6708
8.55744	0.6289
8.59159	0.6742
8.62573	0.695
8.65988	0.692
8.69402	0.6517
8.72816	0.5904
8.76231	0.5009
8.79645	0.4244
8.8306	0.3999
8.86474	0.4345
8.89888	0.5552
8.93303	0.6592
8.96717	0.7104
9.00131	0.7353
9.03546	0.748
9.0696	0.7471
9.10375	0.7261
9.13789	0.7119
9.17203	0.7451
9.20618	0.7479
9.24032	0.7165
9.27446	0.7021
9.30861	0.6663
9.34275	0.6135
9.3769	0.6
9.41104	0.6411
9.44518	0.6873
9.47933	0.7137
9.51347	0.7409
9.54761	0.7518
9.58176	0.769
9.6159	0.7741
9.65005	0.7306
9.68419	0.6365
9.71833	0.5535
9.75248	0.5498
9.78662	0.5995
9.82076	0.6816
9.85491	0.7292
9.88905	0.7842
9.9232	0.8176
9.95734	0.8368
9.99148	0.8389
10.0256	0.8705
10.0598	0.888
10.0939	0.895
10.1281	0.8921
10.1622	0.895
10.1963	0.897
10.2305	0.895
10.2646	0.8951
10.2988	0.899
10.3329	0.8939
10.3671	0.88
10.4012	0.8682
10.4354	0.8581
10.4695	0.8579
10.5036	0.8708
10.5378	0.875
10.5719	0.873
10.6061	0.8679
10.6402	0.8641
10.6744	0.868
10.7085	0.8729
10.7426	0.878
10.7768	0.8849
10.8109	0.894
10.8451	0.894
10.8792	0.894
10.9134	0.8902
10.9475	0.8781
10.9817	0.8681
11.0158	0.849
11.0499	0.835
11.0841	0.8129
11.1182	0.803
11.1524	0.8108
11.1865	0.8365
11.2207	0.8658
11.2548	0.883
11.2889	0.8871
11.3231	0.894
11.3572	0.899
11.3914	0.8943
11.4255	0.8802
11.4597	0.8642
11.4938	0.858
11.528	0.861
11.5621	0.8762
11.5962	0.8881
11.6304	0.8919
11.6645	0.892
11.6987	0.894
11.7328	0.897
11.767	0.894
11.8011	0.89
11.8352	0.89
11.8694	0.8871
11.9035	0.875
11.9377	0.8612
11.9718	0.835
12.006	0.801
12.0401	0.7789
12.0743	0.7721
12.1084	0.7838
12.1425	0.8047
12.1767	0.818
12.2108	0.827
12.245	0.829
12.2791	0.825
12.3133	0.8268
12.3474	0.8299
12.3815	0.835
12.4157	0.8301
12.4498	0.83
12.484	0.834
12.5181	0.835
12.5523	0.8391
12.5864	0.842
12.6206	0.846
12.6547	0.841
12.6888	0.837
12.723	0.8319
12.7571	0.82
12.7913	0.8084
12.8254	0.7545
12.8596	0.6831
12.8937	0.6373
12.9278	0.611
12.962	0.646
12.9961	0.7046
13.0303	0.7431
13.0644	0.757
13.0986	0.7521
13.1327	0.745
13.1669	0.735
13.201	0.7381
13.2351	0.7411
13.2693	0.747
13.3034	0.75
13.3376	0.752
13.3717	0.753
13.4059	0.753
13.44	0.75
13.4741	0.74
13.5083	0.7429
13.5424	0.735
13.5766	0.7241
13.6107	0.717
13.6449	0.712
13.679	0.697
13.7132	0.692
13.7473	0.6999
13.7814	0.7105
13.8156	0.724
13.8497	0.7519
13.8839	0.769
13.918	0.793
13.9522	0.8001
13.9863	0.803
14.0204	0.8011
14.0546	0.7981
14.0887	0.776
14.1229	0.747
14.157	0.701
14.1912	0.638
14.2253	0.5414
14.2595	0.4929
14.2936	0.4581
14.3277	0.4559
14.3619	0.5051
14.396	0.5672
14.4302	0.6518
14.4643	0.7166
14.4985	0.7575
14.5326	0.777
14.5667	0.789
14.6009	0.7999
14.635	0.798
14.6692	0.801
14.7033	0.7999
14.7375	0.789
14.7716	0.788
14.8058	0.776
14.8399	0.779
14.874	0.777
14.9082	0.7759
14.9423	0.7701
14.9765	0.777
