Infrared Spectrum: o,o-DIPHENYLPHOSPHOROCHLORIDATE
Formula: C12 H10 Cl O3 P
CAS: 2524-64-3
State: SOLUTION (10% IN CCl4 FOR 3800-1300, 10% IN CS2 FOR 1300-650, AND 10% IN CCl4 FOR 650-250 CM^-^1) VERSUS SOLVENT
Class: COBLENTZ
Instrument: Not specified, most likely a prism, grating, or hybrid spectrometer.
Sampling: TRANSMISSION
Path length: 0.010, 0.010, AND 0.010 CM (CsBr CELL)
Resolution: 4
Origin: DOW CHEMICAL COMPANY
1/CM	TRANSMITTANCE
447.908	0.767
457.379	0.754
466.85	0.73
476.322	0.713
485.793	0.578
495.264	0.465
504.735	0.3378
514.206	0.7609
523.678	0.772
533.149	0.5242
542.62	0.264
552.091	0.304
561.562	0.288
571.034	0.214
580.505	0.201
589.976	0.227
599.447	0.4911
608.918	0.1512
618.39	0.227
627.861	0.5929
637.332	0.852
646.803	0.861
656.274	0.82
665.746	0.865
675.217	0.844
684.688	0.083
694.159	0.5467
703.63	0.8779
713.102	0.892
722.573	0.857
732.044	0.715
741.515	0.622
750.986	0.1794
760.458	0.049
769.929	0.035
779.4	0.164
788.871	0.6949
798.342	0.848
807.814	0.881
817.285	0.87
826.756	0.841
836.227	0.879
845.698	0.837
855.17	0.759
864.641	0.778
874.112	0.794
883.583	0.824
893.054	0.7921
902.526	0.425
911.997	0.757
921.468	0.678
930.939	0.3623
940.41	0.033
949.882	0.049
959.353	0.001
968.824	0.001
978.295	0.0569
987.766	0.2988
997.238	0.502
1006.71	0.4491
1016.18	0.482
1025.65	0.062
1035.12	0.7088
1044.59	0.839
1054.06	0.865
1063.54	0.818
1073.01	0.487
1082.48	0.883
1091.95	0.903
1101.42	0.876
1110.89	0.9
1120.36	0.892
1129.83	0.8501
1139.31	0.752
1148.78	0.4281
1158.25	0.009
1167.72	0.0769
1177.19	0.005
1186.66	0.014
1196.13	0.255
1205.6	0.073
1215.08	0.2877
1224.55	0.628
1234.02	0.606
1243.49	0.781
1252.96	0.813
1262.43	0.804
1271.9	0.77
1281.37	0.707
1290.84	0.502
1300.32	0.031
1309.79	0.025
1319.26	0.0569
1328.73	0.4038
1338.2	0.659
1347.67	0.841
1357.14	0.894
1366.61	0.924
1376.09	0.931
1385.56	0.922
1395.03	0.911
1404.5	0.927
1413.97	0.937
1423.44	0.939
1432.91	0.933
1442.38	0.903
1451.86	0.8281
1461.33	0.6946
1470.8	0.6672
1480.27	0.2901
1489.74	0.012
1499.21	0.3167
1508.68	0.624
1518.15	0.646
1527.62	0.624
1537.1	0.539
1546.57	0.473
1556.04	0.5149
1565.51	0.552
1574.98	0.48
1584.45	0.223
1593.92	0.1677
1603.39	0.5518
1612.87	0.8529
1622.34	0.914
1631.81	0.959
1641.28	0.983
1650.75	0.961
1660.22	0.951
1669.69	0.948
1679.16	0.944
1688.64	0.922
1698.11	0.903
1707.58	0.896
1717.05	0.887
1726.52	0.865
1735.99	0.905
1745.46	0.922
1754.93	0.929
1764.41	0.929
1773.88	0.9
1783.35	0.896
1792.82	0.933
1802.29	0.937
1811.76	0.95
1821.23	0.953
1830.7	0.95
1840.17	0.946
1849.65	0.924
1859.12	0.872
1868.59	0.914
1878.06	0.909
1887.53	0.911
1897	0.903
1906.47	0.898
1915.94	0.885
1925.42	0.879
1934.89	0.8281
1944.36	0.861
1953.83	0.885
1963.3	0.879
1972.77	0.905
1982.24	0.926
1991.71	0.939
2001.19	0.944
2010.66	0.948
2020.13	0.953
2029.6	0.955
2039.07	0.9539
2048.54	0.961
2058.01	0.957
2067.48	0.9608
2076.95	0.963
2086.43	0.963
2095.9	0.961
2105.37	0.963
2114.84	0.964
2124.31	0.964
2133.78	0.964
2143.25	0.966
2152.72	0.966
2162.2	0.964
2171.67	0.964
2181.14	0.964
2190.61	0.964
2200.08	0.964
2209.55	0.9636
2219.02	0.9582
2228.49	0.9542
2237.97	0.951
2247.44	0.948
2256.91	0.944
2266.38	0.944
2275.85	0.94
2285.32	0.94
2294.79	0.9407
2304.26	0.942
2313.73	0.9329
2323.21	0.9123
2332.68	0.9344
2342.15	0.9416
2351.62	0.942
2361.09	0.9383
2370.56	0.9253
2380.03	0.9413
2389.5	0.9486
2398.98	0.955
2408.45	0.9596
2417.92	0.964
2427.39	0.964
2436.86	0.964
2446.33	0.966
2455.8	0.966
2465.27	0.966
2474.75	0.966
2484.22	0.966
2493.69	0.966
2503.16	0.968
2512.63	0.9665
2522.1	0.968
2531.57	0.97
2541.04	0.9695
2550.51	0.968
2559.99	0.9621
2569.46	0.9605
2578.93	0.9615
2588.4	0.963
2597.87	0.963
2607.34	0.959
2616.81	0.9594
2626.28	0.968
2635.76	0.97
2645.23	0.97
2654.7	0.974
2664.17	0.977
2673.64	0.977
2683.11	0.975
2692.58	0.977
2702.05	0.977
2711.53	0.977
2721	0.977
2730.47	0.9748
2739.94	0.975
2749.41	0.977
2758.88	0.977
2768.35	0.977
2777.82	0.9767
2787.29	0.977
2796.77	0.979
2806.24	0.977
2815.71	0.981
2825.18	0.981
2834.65	0.981
2844.12	0.981
2853.59	0.981
2863.06	0.981
2872.54	0.977
2882.01	0.9772
2891.48	0.979
2900.95	0.977
2910.42	0.9793
2919.89	0.987
2929.36	0.9849
2938.83	0.981
2948.31	0.981
2957.78	0.981
2967.25	0.979
2976.72	0.9769
2986.19	0.9769
2995.66	0.9739
3005.13	0.9629
3014.6	0.948
3024.07	0.9179
3033.55	0.8652
3043.02	0.8472
3052.49	0.8421
3061.96	0.8038
3071.43	0.774
3080.9	0.75
3090.37	0.872
3099.84	0.889
3109.32	0.9475
3118.79	0.9739
3128.26	0.979
3137.73	0.985
3147.2	0.9899
3156.67	0.992
3166.14	0.994
3175.61	0.994
3185.09	0.994
3194.56	0.9999
3204.03	1.0029
3213.5	1.0049
3222.97	1.0087
3232.44	1.0119
3241.91	1.0139
3251.38	1.016
3260.85	1.018
3270.33	1.024
3279.8	1.0249
3289.27	1.024
3298.74	1.029
3308.21	1.031
3317.68	1.031
3327.15	1.027
3336.62	1.0328
3346.1	1.033
3355.57	1.035
3365.04	1.0377
3374.51	1.042
3383.98	1.044
3393.45	1.048
3402.92	1.048
3412.39	1.0443
3421.87	1.0403
3431.34	1.0363
3440.81	1.0333
3450.28	1.0293
3459.75	1.027
3469.22	1.025
3478.69	1.024
3488.16	1.0204
3497.63	1.0184
3507.11	1.012
3516.58	1.009
3526.05	1.007
3535.52	1.005
3544.99	1.005
3554.46	1.0034
3563.93	1.005
3573.4	1.0035
3582.88	0.9985
3592.35	1.0025
3601.82	1.0015
3611.29	1.003
3620.76	1.0003
3630.23	0.994
3639.7	0.998
3649.17	0.996
3658.65	0.9925
3668.12	0.9955
3677.59	0.9986
3687.06	0.9929
3696.53	0.998
3706	0.996
3715.47	0.9934
3724.94	0.998
3734.41	0.9994
3743.89	1.001
3753.36	1
3762.83	1
3772.3	1.0003
3781.77	1
3791.24	1
