Infrared Spectrum: 2-METHYL-PHENANTHRENE
Formula: C15 H12
CAS: 2531-84-2
State: SOLUTION (100 g/L IN HEPTANE)
Class: COBLENTZ
Instrument: Not specified, most likely a prism, grating, or hybrid spectrometer.
Sampling: TRANSMISSION
Path length: 0.01 CM
Resolution: 4
Origin: CENTRE D'ETUDES NUCLEAIRES DE GRENOBLE
MICROMETERS	TRANSMITTANCE
1.967	0.905
2.007	0.906
2.047	0.91
2.08699	0.911
2.12699	0.91
2.16699	0.906
2.20699	0.91
2.24699	0.913
2.28699	0.916
2.32698	0.92
2.36698	0.923
2.40698	0.925
2.44698	0.926
2.48698	0.926
2.52697	0.926
2.56697	0.926
2.60697	0.928
2.64697	0.931
2.68697	0.935
2.72697	0.938
2.76696	0.935
2.80696	0.933
2.84696	0.931
2.88696	0.933
2.92696	0.935
2.96695	0.935
3.00695	0.936
3.04695	0.943
3.08695	0.948
3.12695	0.946
3.16695	0.943
3.20694	0.946
3.24694	0.93
3.28694	0.818
3.32694	0.652
3.36694	0.663
3.40693	0.821
3.44693	0.861
3.48693	0.898
3.52693	0.951
3.56693	0.978
3.60693	0.991
3.64692	0.985
3.68692	0.978
3.72692	0.973
3.76692	0.97
3.80692	0.97
3.84691	0.968
3.88691	0.965
3.92691	0.966
3.96691	0.97
4.00691	0.966
4.04691	0.965
4.0869	0.965
4.1269	0.963
4.1669	0.963
4.2069	0.965
4.2469	0.97
4.28689	0.966
4.32689	0.965
4.36689	0.961
4.40689	0.961
4.44689	0.968
4.48688	0.97
4.52688	0.975
4.56688	0.968
4.60688	0.97
4.64688	0.976
4.68688	0.971
4.72687	0.976
4.76687	0.97
4.80687	0.963
4.84687	0.968
4.88687	0.965
4.92686	0.975
4.96686	0.978
5.00686	0.976
5.04686	0.978
5.08686	0.978
5.12686	0.97
5.16685	0.965
5.20685	0.928
5.24685	0.938
5.28685	0.911
5.32685	0.913
5.36684	0.938
5.40684	0.968
5.44684	0.971
5.48684	0.953
5.52684	0.931
5.56684	0.956
5.60683	0.94
5.64683	0.958
5.68683	0.96
5.72683	0.886
5.76683	0.9
5.80682	0.936
5.84682	0.958
5.88682	0.958
5.92682	0.961
5.96682	0.96
6.00682	0.951
6.04681	0.926
6.08681	0.941
6.12681	0.951
6.16681	0.906
6.20681	0.767
6.2468	0.815
6.2868	0.818
6.3268	0.908
6.3668	0.933
6.4068	0.948
6.4468	0.948
6.48679	0.938
6.52679	0.928
6.56679	0.933
6.60679	0.911
6.64679	0.975
6.68678	0.971
6.72678	0.888
6.76678	0.783
6.80678	0.88
6.84678	0.936
6.88678	0.96
6.92677	0.955
6.96677	0.948
7.00677	0.94
7.04677	0.898
7.08677	0.883
7.12676	0.921
7.16676	0.933
7.20676	0.945
7.24676	0.965
7.28676	0.998
7.32676	1.004
7.36675	0.973
7.40675	0.961
7.44675	0.96
7.48675	0.941
7.52675	0.963
7.56674	0.98
7.60674	0.978
7.64674	0.973
7.68674	0.931
7.72674	0.916
7.76674	0.941
7.80673	0.966
7.84673	0.985
7.88673	0.973
7.92673	0.965
7.96673	0.96
8.00672	0.87
8.04672	0.785
8.08672	0.806
8.12672	0.896
8.16672	0.891
8.20672	0.84
8.24671	0.945
8.28671	0.95
8.32671	0.936
8.36671	0.923
8.40671	0.89
8.4467	0.94
8.4867	0.953
8.5267	0.95
8.5667	0.903
8.6067	0.9
8.6467	0.9
8.68669	0.921
8.72669	0.936
8.76669	0.92
8.80669	0.921
8.84669	0.935
8.88668	0.946
8.92668	0.951
8.96668	0.953
9.00668	0.955
9.04668	0.958
9.08667	0.951
9.12667	0.926
9.16667	0.918
9.20667	0.945
9.24667	0.948
9.28667	0.956
9.32666	0.958
9.36666	0.956
9.40666	0.955
9.44666	0.95
9.48666	0.936
9.52665	0.933
9.56665	0.921
9.60665	0.898
9.64665	0.813
9.68665	0.838
9.72665	0.898
9.76664	0.903
9.80664	0.913
9.84664	0.928
9.88664	0.933
9.92664	0.925
9.96663	0.881
10.0066	0.861
10.0466	0.918
10.0866	0.941
10.1266	0.951
10.1666	0.958
10.2066	0.958
10.2466	0.958
10.2866	0.955
10.3266	0.958
10.3666	0.958
10.4066	0.95
10.4466	0.941
10.4866	0.936
10.5266	0.903
10.5666	0.868
10.6066	0.913
10.6466	0.868
10.6866	0.903
10.7266	0.94
10.7666	0.955
10.8066	0.941
10.8466	0.943
10.8866	0.956
10.9266	0.961
10.9666	0.961
11.0066	0.96
11.0466	0.958
11.0866	0.96
11.1266	0.96
11.1666	0.955
11.2066	0.945
11.2466	0.925
11.2866	0.883
11.3266	0.762
11.3666	0.397
11.4066	0.484
11.4466	0.715
11.4866	0.841
11.5266	0.896
11.5666	0.84
11.6066	0.723
11.6466	0.753
11.6866	0.886
11.7266	0.926
11.7666	0.943
11.8066	0.946
11.8465	0.946
11.8865	0.945
11.9265	0.943
11.9665	0.941
12.0065	0.935
12.0465	0.925
12.0865	0.918
12.1265	0.91
12.1665	0.868
12.2065	0.742
12.2465	0.387
12.2865	0.364
12.3265	0.482
12.3665	0.297
12.4065	0.089
12.4465	0.216
12.4865	0.499
12.5265	0.727
12.5665	0.826
12.6065	0.878
12.6465	0.903
12.6865	0.923
12.7265	0.936
12.7665	0.935
12.8065	0.933
12.8465	0.93
12.8865	0.913
12.9265	0.821
12.9665	0.647
13.0065	0.648
13.0465	0.79
13.0865	0.863
13.1265	0.901
13.1665	0.918
13.2065	0.923
13.2465	0.921
13.2865	0.906
13.3265	0.871
13.3665	0.825
13.4065	0.69
13.4465	0.339
13.4865	0.119
13.5265	0.164
13.5665	0.344
13.6065	0.567
13.6465	0.728
13.6865	0.81
13.7265	0.856
13.7665	0.881
13.8065	0.883
13.8465	0.883
13.8865	0.876
13.9265	0.865
13.9665	0.878
14.0065	0.9
14.0464	0.923
14.0864	0.92
14.1264	0.811
14.1664	0.524
14.2064	0.579
14.2464	0.737
14.2864	0.863
14.3264	0.92
14.3664	0.936
14.4064	0.948
14.4464	0.953
14.4864	0.96
14.5264	0.96
14.5664	0.96
14.6064	0.96
14.6464	0.961
14.6864	0.958
14.7264	0.956
14.7664	0.921
14.8064	0.84
14.8464	0.775
14.8864	0.797
14.9264	0.881
14.9664	0.926
15.0064	0.938
15.0464	0.94
15.0864	0.941
15.1264	0.948
15.1664	0.953
15.2064	0.958
15.2464	0.958
15.2864	0.956
15.3264	0.955
15.3664	0.953
15.4064	0.953
15.4464	0.958
15.4864	0.953
15.5264	0.958
15.5664	0.955
15.6064	0.946
15.6464	0.943
15.6864	0.95
15.7264	0.953
15.7664	0.956
15.8064	0.955
