Infrared Spectrum: NORBORNANE, 2-BROMO-,EXO
Formula: C7 H11 Br
CAS: 2534-77-2
State: SOLUTION (10% CCl4 FOR 4000-1280, 10% CS2 FOR 1280-450 CM^-^1) VS SOLVENT
Class: COBLENTZ III
Instrument: CARY 90 (GRATING)
Instrument parameters: ORDER CHANGES: 3000, 2000, 1200 CM^-^1
Sampling: TRANSMISSION
Path length: 0.011 CM, AND 0.010 CM
Resolution: 2
Origin: WESTERN REGIONAL RES. USDA
1/CM	TRANSMITTANCE
3998	0.9137
3989	0.9137
3980	0.9137
3971	0.9136
3962	0.9136
3953	0.913
3944	0.9118
3935	0.9106
3926	0.9094
3917	0.9082
3908	0.9073
3899	0.9071
3890	0.907
3881	0.9068
3872	0.9066
3863	0.9065
3854	0.9066
3845	0.9066
3836	0.9067
3827	0.9067
3818	0.9068
3809	0.9068
3800	0.9066
3791	0.9061
3782	0.9058
3773	0.9053
3764	0.905
3755	0.9044
3746	0.9035
3737	0.9025
3728	0.9017
3719	0.9008
3710	0.901
3701	0.9018
3692	0.9025
3683	0.9033
3674	0.9041
3665	0.9045
3656	0.9043
3647	0.904
3638	0.8988
3629	0.8947
3620	0.892
3611	0.8935
3602	0.8949
3593	0.8958
3584	0.8967
3575	0.8975
3566	0.8985
3557	0.8994
3548	0.901
3539	0.9025
3530	0.904
3521	0.9055
3512	0.9061
3503	0.9066
3494	0.9071
3485	0.9075
3476	0.908
3467	0.908
3458	0.9078
3449	0.9078
3440	0.9081
3431	0.9083
3422	0.9092
3413	0.9105
3404	0.9121
3395	0.913
3386	0.9099
3377	0.9071
3368	0.9066
3359	0.9061
3350	0.9056
3341	0.9074
3332	0.91
3323	0.9098
3314	0.9096
3305	0.9096
3296	0.9095
3287	0.9095
3278	0.9098
3269	0.9108
3260	0.9118
3251	0.9128
3242	0.9128
3233	0.9125
3224	0.9124
3215	0.9121
3206	0.9111
3197	0.9093
3188	0.9075
3179	0.9066
3170	0.906
3161	0.9057
3152	0.9056
3143	0.9061
3134	0.9068
3125	0.9071
3116	0.906
3107	0.9048
3098	0.904
3089	0.902
3080	0.8983
3071	0.8945
3062	0.8907
3053	0.8858
3044	0.8782
3035	0.8663
3026	0.8516
3017	0.8017
3008	0.7542
2999	0.6785
2990	0.5047
2981	0.3062
2972	0.1223
2963	0.0534
2954	0.0516
2945	0.0978
2936	0.1946
2927	0.3637
2918	0.5164
2909	0.449
2900	0.6272
2891	0.6858
2882	0.43
2873	0.1902
2864	0.5165
2855	0.8162
2846	0.8606
2837	0.8789
2828	0.8958
2819	0.9049
2810	0.908
2801	0.9085
2792	0.9078
2783	0.9058
2774	0.9049
2765	0.9061
2756	0.9074
2747	0.9086
2738	0.9095
2729	0.9098
2720	0.9102
2711	0.9105
2702	0.9109
2693	0.9113
2684	0.9117
2675	0.912
2666	0.9124
2657	0.9128
2648	0.9132
2639	0.9135
2630	0.9137
2621	0.9136
2612	0.9135
2603	0.9133
2594	0.9132
2585	0.913
2576	0.9128
2567	0.9128
2558	0.913
2549	0.9131
2540	0.9131
2531	0.9132
2522	0.9132
2513	0.9128
2504	0.9125
2495	0.9121
2486	0.9118
2477	0.9113
2468	0.9107
2459	0.9101
2450	0.9096
2441	0.909
2432	0.9085
2423	0.908
2414	0.9075
2405	0.907
2396	0.9066
2387	0.9065
2378	0.9071
2369	0.9075
2360	0.9081
2351	0.9086
2342	0.9093
2333	0.9107
2324	0.9121
2315	0.9133
2306	0.9142
2297	0.915
2288	0.9158
2279	0.916
2270	0.9166
2261	0.917
2252	0.9175
2243	0.918
2234	0.9185
2225	0.9178
2216	0.9171
2207	0.9162
2198	0.9154
2189	0.9145
2180	0.9137
2171	0.9137
2162	0.9143
2153	0.9149
2144	0.9155
2135	0.9168
2126	0.9181
2117	0.918
2108	0.9167
2099	0.9153
2090	0.914
2081	0.9128
2072	0.913
2063	0.913
2054	0.913
2045	0.9131
2036	0.9128
2027	0.9125
2018	0.9121
2009	0.9118
2000	0.9116
1991	0.9145
1982	0.9175
1973	0.9201
1964	0.9125
1955	0.9096
1946	0.9137
1937	0.9148
1928	0.9144
1919	0.9148
1910	0.9152
1901	0.9143
1892	0.9123
1883	0.9102
1874	0.9113
1865	0.9132
1856	0.9141
1847	0.9118
1838	0.9086
1829	0.9089
1820	0.9103
1811	0.909
1802	0.9068
1793	0.9023
1784	0.8982
1775	0.8952
1766	0.8925
1757	0.8921
1748	0.8916
1739	0.8933
1730	0.8951
1721	0.8968
1712	0.8987
1703	0.9003
1694	0.9018
1685	0.9041
1676	0.9067
1667	0.9101
1658	0.9107
1649	0.9075
1640	0.9045
1631	0.9016
1622	0.899
1613	0.8968
1604	0.8945
1595	0.8859
1586	0.8711
1577	0.8641
1568	0.8604
1559	0.8525
1550	0.8351
1541	0.8496
1532	0.8651
1523	0.8813
1514	0.8913
1505	0.8924
1496	0.8881
1487	0.8747
1478	0.8125
1469	0.8417
1460	0.8001
1451	0.4685
1442	0.5408
1433	0.8397
1424	0.8835
1415	0.8921
1406	0.8939
1397	0.8989
1388	0.9027
1379	0.9074
1370	0.9125
1361	0.9131
1352	0.9086
1343	0.8996
1334	0.887
1325	0.8635
1316	0.6241
1307	0.6668
1298	0.7643
1289	0.7451
1280	0.8682
1271	0.836
1262	0.7628
1253	0.7874
1244	0.535
1235	0.6254
1226	0.1679
1217	0.7239
1208	0.7753
1199	0.7651
1190	0.4115
1181	0.7882
1172	0.8347
1163	0.8539
1154	0.8546
1145	0.8391
1136	0.7211
1127	0.7628
1118	0.8025
1109	0.8352
1100	0.8847
1091	0.897
1082	0.8654
1073	0.899
1064	0.9044
1055	0.8889
1046	0.7682
1037	0.7818
1028	0.8718
1019	0.8966
1010	0.8896
1001	0.8575
992	0.9003
983	0.9053
974	0.904
965	0.8908
956	0.7711
947	0.2557
938	0.7605
929	0.8875
920	0.8067
911	0.8497
902	0.8665
893	0.6001
884	0.8644
875	0.7549
866	0.8647
857	0.9025
848	0.9153
839	0.8489
830	0.8291
821	0.9114
812	0.8274
803	0.853
794	0.8967
785	0.9221
776	0.9254
767	0.7189
758	0.7568
749	0.9182
740	0.9395
731	0.9415
722	0.9434
713	0.9448
704	0.9455
695	0.9455
686	0.9454
677	0.9455
668	0.9418
659	0.924
650	0.9197
641	0.9182
632	0.8831
623	0.4871
614	0.7535
605	0.9017
596	0.9418
587	0.9521
578	0.9075
569	0.8126
560	0.9513
551	0.9625
542	0.9646
533	0.9646
524	0.9642
515	0.9632
506	0.9635
497	0.9631
488	0.962
479	0.9595
