Infrared Spectrum: Sulfur hexafluoride
Formula: S F6
CAS: 2551-62-4
State: gas
Melting point: -50.5 C
Boiling point: -63.9 C (sublimes)
Class: IUPAC A
Instrument: IFS66V (Bruker)
Instrument parameters: KBr Beam Splitter; MCT Detector; Multipass cell
Sampling: 1 L/min Flow
Resolution: 1.9290
Temperature: 23 C
Pressure: 101.3 Pa
Origin: NIST, Analytical Chemistry Division, 301-975-3108
cm-1	(micromol/mol)-1m-1 (base 10)
575.652	1.35237e-05
584.33	-2.38369e-05
593.008	8.77648e-05
601.687	0.000256984
610.365	0.000315351
619.043	0.000375543
627.721	0.000359746
636.399	0.000122695
645.077	-2.76792e-05
653.756	2.39692e-05
662.434	-1.86585e-05
671.112	2.03011e-05
679.79	-1.5951e-05
688.468	1.49923e-05
697.146	-1.21149e-05
705.825	1.50196e-05
714.503	-1.25e-05
723.181	1.08305e-05
731.859	-1.13499e-05
740.537	1.07921e-05
749.216	-8.83925e-06
757.894	1.05933e-05
766.572	-1.04911e-05
775.25	1.07675e-05
783.928	-1.13143e-05
792.606	1.05127e-05
801.285	-1.0949e-05
809.963	1.03614e-05
818.641	-1.07166e-05
827.319	1.07406e-05
835.997	-1.0943e-05
844.675	1.39694e-05
853.354	-4.27436e-06
862.032	2.21582e-05
870.71	1.9043e-05
879.388	3.551e-05
888.066	5.68993e-06
896.744	2.01395e-05
905.423	-1.67233e-05
914.101	3.38754e-05
922.779	0.000262689
931.457	0.000829116
940.135	0.00589482
948.814	0.0144543
957.492	0.000126607
966.17	-5.59817e-06
974.848	5.89229e-05
983.526	0.00013235
992.204	0.000115074
1000.88	8.91608e-06
1009.56	7.47275e-06
1018.24	-4.85144e-06
1026.92	4.67126e-06
1035.6	-2.39011e-06
1044.27	2.94362e-06
1052.95	-1.92965e-06
1061.63	2.55376e-06
1070.31	-1.86509e-06
1078.99	1.6809e-06
1087.66	-6.76121e-07
1096.34	5.2301e-07
1105.02	-8.84469e-07
1113.7	-1.37395e-07
1122.38	1.79973e-07
1131.06	5.96146e-07
1139.73	7.26091e-07
1148.41	-6.09446e-07
1157.09	1.76335e-07
1165.77	-8.74574e-07
1174.45	3.77466e-07
1183.12	-5.64365e-07
1191.8	1.16374e-06
1200.48	-2.84511e-07
1209.16	1.46534e-06
1217.84	-5.56246e-07
1226.52	1.34686e-06
1235.19	-2.53225e-07
1243.87	6.32327e-06
1252.55	1.22693e-05
1261.23	1.1462e-05
1269.91	1.27815e-06
1278.58	2.66668e-06
1287.26	-1.60299e-07
1295.94	8.51641e-07
1304.62	-1.73829e-06
1313.3	1.23411e-06
1321.98	-1.30894e-06
1330.65	1.10455e-06
1339.33	-2.14902e-06
1348.01	-5.98067e-08
1356.69	6.91685e-06
1365.37	1.49162e-06
1374.04	4.40357e-07
1382.72	2.89554e-06
1391.4	-1.57628e-06
1400.08	2.69121e-06
1408.76	-1.44168e-06
1417.44	-4.39281e-07
1426.11	-2.28936e-06
1434.79	1.43169e-06
1443.47	-1.77263e-06
1452.15	1.06793e-06
1460.83	-2.48874e-06
1469.5	1.19712e-06
1478.18	-1.79417e-06
1486.86	4.56131e-07
1495.54	-4.91716e-06
1504.22	3.18189e-06
1512.89	-3.42941e-06
1521.57	-5.77904e-06
1530.25	-1.35946e-06
1538.93	-8.41577e-06
1547.61	-5.00455e-07
1556.29	6.77332e-06
1564.96	1.43232e-05
1573.64	3.33983e-05
1582.32	3.82831e-05
1591	3.16839e-05
1599.68	2.04997e-05
1608.35	8.6146e-06
1617.03	-9.8275e-06
1625.71	2.31986e-06
1634.39	-3.3419e-07
1643.07	2.56459e-06
1651.75	-5.69607e-06
1660.42	1.84312e-06
1669.1	-7.83534e-06
1677.78	6.44777e-07
1686.46	-2.11724e-07
1695.14	-3.51288e-06
1703.81	3.62711e-07
1712.49	3.55585e-05
1721.17	3.8041e-05
1729.85	1.06313e-07
1738.53	-2.70274e-06
1747.21	1.03132e-06
1755.88	-2.96673e-06
1764.56	1.4369e-06
1773.24	-6.46535e-06
1781.92	2.31791e-06
1790.6	-3.33136e-06
1799.27	6.10377e-07
1807.95	-2.73164e-06
1816.63	1.97135e-06
1825.31	-3.71319e-06
1833.99	1.78384e-06
1842.67	-1.54153e-06
1851.34	1.21165e-06
1860.02	-4.62624e-06
1868.7	-3.54882e-07
1877.38	-6.30639e-06
1886.06	-5.53251e-06
1894.73	-1.12184e-05
1903.41	-2.34203e-06
1912.09	-3.08934e-06
1920.77	8.2798e-07
1929.45	-3.18634e-06
1938.13	9.80218e-07
1946.8	-3.10369e-06
1955.48	1.62727e-06
1964.16	-2.86103e-06
1972.84	1.09506e-06
1981.52	-2.73839e-06
1990.19	1.66946e-06
1998.87	-2.25118e-06
2007.55	9.3505e-07
2016.23	-2.4035e-06
2024.91	1.55131e-06
2033.59	-2.61284e-06
2042.26	1.27614e-06
2050.94	-2.42859e-06
2059.62	1.31973e-06
2068.3	-2.22583e-06
2076.98	1.10417e-06
2085.65	-2.46761e-06
2094.33	2.28584e-06
2103.01	-8.84848e-07
2111.69	3.92044e-06
2120.37	-1.78058e-06
2129.05	1.06654e-06
2137.72	-2.3409e-06
2146.4	1.96239e-06
2155.08	-1.34255e-06
2163.76	1.34261e-06
2172.44	-5.27143e-07
2181.11	1.28865e-06
2189.79	-1.11857e-06
2198.47	1.58405e-06
2207.15	-1.69234e-06
2215.83	2.38648e-06
2224.51	-1.48565e-06
2233.18	1.84769e-06
2241.86	-2.29818e-06
2250.54	2.01174e-06
2259.22	-2.63723e-06
2267.9	1.03869e-06
2276.57	-2.85401e-06
2285.25	9.82023e-07
2293.93	-2.67614e-06
2302.61	3.04476e-07
2311.29	-4.7384e-06
2319.97	2.19262e-07
2328.64	-1.00238e-05
2337.32	-5.44485e-06
2346	-6.82233e-06
2354.68	-4.60526e-06
2363.36	-1.21668e-05
2372.03	-3.17371e-06
2380.71	-3.32906e-06
2389.39	1.05979e-06
2398.07	-3.32726e-06
2406.75	1.31345e-06
2415.43	-2.50184e-06
2424.1	9.45789e-07
2432.78	-2.88379e-06
2441.46	6.89101e-07
2450.14	-3.48081e-06
2458.82	1.02411e-06
2467.49	-3.09027e-06
2476.17	1.02189e-06
2484.85	-3.02427e-06
2493.53	1.48623e-06
2502.21	-2.19894e-06
2510.89	7.71346e-07
2519.56	-1.94047e-06
2528.24	1.45789e-06
2536.92	-3.1683e-06
2545.6	1.44074e-06
2554.28	-2.91792e-06
2562.95	1.35378e-06
2571.63	-3.15829e-06
2580.31	1.01735e-06
2588.99	-3.47653e-06
2597.67	8.22334e-07
2606.35	-3.51762e-06
2615.02	6.77954e-07
2623.7	-3.26224e-06
2632.38	4.4449e-07
2641.06	-3.20249e-06
2649.74	7.23559e-07
2658.41	-3.92605e-06
2667.09	6.83484e-07
2675.77	-3.83819e-06
2684.45	9.8048e-07
2693.13	-3.29175e-06
2701.8	1.67945e-06
2710.48	-3.01347e-06
2719.16	2.96007e-07
2727.84	-3.55321e-06
2736.52	1.38501e-07
2745.2	-3.45819e-06
2753.87	2.93911e-07
2762.55	-3.24752e-06
2771.23	1.00964e-06
2779.91	-3.90396e-06
2788.59	9.72011e-07
2797.26	-2.6578e-06
2805.94	3.22403e-07
2814.62	-3.12473e-06
2823.3	8.36711e-08
2831.98	-2.74616e-06
2840.66	-4.31161e-07
2849.33	-3.02194e-06
2858.01	-7.50043e-07
2866.69	-3.15619e-06
2875.37	1.39354e-06
2884.05	-3.10963e-06
2892.72	1.47899e-06
2901.4	-2.45792e-06
2910.08	4.57732e-07
2918.76	-3.36262e-06
2927.44	1.73815e-06
2936.12	-3.59643e-06
2944.79	8.15874e-07
2953.47	-2.91403e-06
2962.15	7.25218e-07
2970.83	-2.77226e-06
2979.51	1.794e-06
2988.18	-3.20351e-06
2996.86	9.9669e-07
3005.54	-2.89205e-06
3014.22	1.28274e-06
3022.9	-2.84656e-06
3031.58	1.27515e-06
3040.25	-1.78311e-06
3048.93	1.54543e-06
3057.61	-2.68501e-06
3066.29	1.89111e-07
3074.97	-2.85308e-06
3083.64	6.20883e-07
3092.32	-2.89339e-06
3101	8.15262e-07
3109.68	-2.59546e-06
3118.36	1.09398e-07
3127.04	-2.92636e-06
3135.71	9.77512e-07
3144.39	-1.47357e-06
3153.07	1.34654e-06
3161.75	-2.40548e-06
3170.43	1.6176e-06
3179.1	-1.6853e-06
3187.78	1.93424e-06
3196.46	-2.62361e-06
3205.14	1.66437e-06
3213.82	-2.80995e-06
3222.5	2.04128e-07
3231.17	-3.25924e-06
3239.85	2.07586e-06
3248.53	-3.50057e-06
3257.21	3.22144e-06
3265.89	-3.65021e-06
3274.56	1.95427e-06
3283.24	-1.40076e-06
3291.92	2.30854e-06
3300.6	-2.34052e-06
3309.28	2.69479e-06
3317.96	-1.32486e-06
3326.63	3.1788e-06
3335.31	-1.40451e-06
3343.99	2.38869e-06
3352.67	-2.06067e-06
3361.35	1.18781e-06
3370.02	-2.07609e-06
3378.7	1.05734e-06
3387.38	-3.63697e-06
3396.06	8.32637e-07
3404.74	-3.23553e-06
3413.42	9.19218e-07
3422.09	-3.12365e-06
3430.77	1.32288e-06
3439.45	-2.05528e-06
3448.13	1.28432e-06
3456.81	-2.13491e-06
3465.48	1.79097e-06
3474.16	-2.71045e-06
3482.84	2.18293e-06
3491.52	-1.81553e-06
3500.2	1.92641e-06
3508.88	-2.17257e-06
3517.55	8.267e-07
3526.23	-3.23739e-06
3534.91	1.755e-06
3543.59	-2.44957e-06
3552.27	7.10724e-07
3560.94	-2.43636e-06
3569.62	1.64371e-06
3578.3	-1.82889e-06
3586.98	5.8759e-08
3595.66	-2.75536e-06
3604.34	2.01314e-06
3613.01	-2.64479e-06
3621.69	8.07113e-07
3630.37	-3.00913e-06
3639.05	9.1884e-07
3647.73	-3.24842e-06
3656.4	-2.45851e-06
3665.08	-2.33848e-06
3673.76	7.68028e-07
3682.44	-3.0454e-06
3691.12	-2.27664e-06
3699.8	-2.2946e-06
3708.47	5.80838e-07
3717.15	-2.88e-06
3725.83	7.90961e-07
3734.51	-6.53514e-06
3743.19	1.53949e-06
3751.86	-1.32507e-05
3760.54	6.75306e-07
3769.22	-3.41643e-06
3777.9	1.19017e-06
3786.58	-2.14198e-06
3795.26	-2.0116e-07
3803.93	-4.09229e-06
3812.61	2.75902e-06
3821.29	-6.95227e-06
3829.97	1.10623e-06
3838.65	-6.05488e-06
3847.32	1.93506e-07
3856	-2.78568e-06
3864.68	-2.886e-06
3873.36	-3.91703e-06
3882.04	-1.86114e-07
3890.71	-5.69074e-06
3899.39	-4.65476e-06
3908.07	-3.6414e-06
3916.75	-2.33956e-06
3925.43	-4.73157e-06
3934.11	-1.1886e-06
3942.78	-4.58768e-06
3951.46	-3.33317e-07
3960.14	-2.90957e-06
3968.82	1.83058e-08
