Infrared Spectrum: HEPTANENITRILE, 3-ETHYL-
Formula: C9 H17 N
CAS: 2571-05-3
State: SOLUTION (10% CCl4 FOR 3800-1330, 10% CS2 FOR 1330-400 CM^-^1))
Boiling point: 87 C AT 10 mmHg
Class: COBLENTZ III
Instrument: BECKMAN IR-9 (GRATING)
Instrument parameters: ORDER CHANGES: 670, 1200, 2000 CM^-^1
Sampling: TRANSMISSION
Path length: 0.011 CM, 0.012 CM
Resolution: 2
Origin: DOW CHEMICAL COMPANY
1/CM	TRANSMITTANCE
402	0.2372
411	0.2167
420	0.449
429	0.6394
438	0.7026
447	0.7583
456	0.8022
465	0.8363
474	0.8681
483	0.898
492	0.9202
501	0.9382
510	0.9501
519	0.9549
528	0.9573
537	0.9699
546	0.9764
555	0.9774
564	0.9793
573	0.9812
582	0.9827
591	0.9832
600	0.9818
609	0.9798
618	0.976
627	0.9706
636	0.955
645	0.9281
654	0.8898
663	0.9223
672	0.9499
681	0.9596
690	0.9595
699	0.9542
708	0.9468
717	0.9296
726	0.8417
735	0.875
744	0.9166
753	0.9328
762	0.9034
771	0.8609
780	0.8711
789	0.9149
798	0.9364
807	0.939
816	0.9318
825	0.9435
834	0.9403
843	0.892
852	0.8158
861	0.7831
870	0.7921
879	0.836
888	0.8742
897	0.9215
906	0.9311
915	0.8994
924	0.9025
933	0.8912
942	0.9144
951	0.9399
960	0.9359
969	0.92
978	0.916
987	0.9275
996	0.9368
1005	0.9421
1014	0.9399
1023	0.9338
1032	0.9291
1041	0.9268
1050	0.93
1059	0.9291
1068	0.921
1077	0.9144
1086	0.9205
1095	0.9271
1104	0.9196
1113	0.9038
1122	0.9133
1131	0.9235
1140	0.9221
1149	0.9115
1158	0.9208
1167	0.9359
1176	0.9456
1185	0.9399
1194	0.9252
1203	0.9215
1212	0.919
1221	0.8927
1230	0.8912
1239	0.8982
1248	0.8992
1257	0.8886
1266	0.8789
1275	0.8699
1284	0.8728
1293	0.8617
1302	0.8331
1311	0.8058
1320	0.8028
1329	0.8157
1338	0.8678
1347	0.8528
1356	0.835
1365	0.8478
1374	0.8467
1383	0.5454
1392	0.8601
1401	0.8932
1410	0.8889
1419	0.8343
1428	0.5316
1437	0.7074
1446	0.6471
1455	0.5484
1464	0.2474
1473	0.482
1482	0.7878
1491	0.8202
1500	0.8065
1509	0.7658
1518	0.7172
1527	0.6617
1536	0.5951
1545	0.534
1554	0.4865
1563	0.5365
1572	0.6174
1581	0.6411
1590	0.6775
1599	0.7462
1608	0.8205
1617	0.8821
1626	0.9025
1635	0.9189
1644	0.9281
1653	0.9338
1662	0.9396
1671	0.9439
1680	0.9462
1689	0.9468
1698	0.9465
1707	0.953
1716	0.9602
1725	0.962
1734	0.9631
1743	0.9638
1752	0.9655
1761	0.9693
1770	0.9739
1779	0.9748
1788	0.9718
1797	0.9682
1806	0.965
1815	0.9631
1824	0.961
1833	0.961
1842	0.962
1851	0.9627
1860	0.9623
1869	0.9623
1878	0.9621
1887	0.9597
1896	0.9632
1905	0.9674
1914	0.9688
1923	0.9693
1932	0.9698
1941	0.9703
1950	0.9694
1959	0.968
1968	0.9656
1977	0.9651
1986	0.9648
1995	0.9624
2004	0.9638
2013	0.9678
2022	0.9656
2031	0.9613
2040	0.9627
2049	0.97
2058	0.9755
2067	0.975
2076	0.9735
2085	0.9715
2094	0.9724
2103	0.974
2112	0.9725
2121	0.9687
2130	0.9634
2139	0.9515
2148	0.9475
2157	0.9593
2166	0.9659
2175	0.9695
2184	0.9702
2193	0.967
2202	0.9628
2211	0.9589
2220	0.956
2229	0.9458
2238	0.9009
2247	0.6921
2256	0.8196
2265	0.8996
2274	0.9201
2283	0.9286
2292	0.9304
2301	0.9346
2310	0.9386
2319	0.9381
2328	0.9377
2337	0.9394
2346	0.9421
2355	0.9454
2364	0.9482
2373	0.9508
2382	0.9525
2391	0.9542
2400	0.9556
2409	0.9568
2418	0.9584
2427	0.9594
2436	0.9628
2445	0.9639
2454	0.9651
2463	0.9678
2472	0.9693
2481	0.9666
2490	0.9644
2499	0.9644
2508	0.9648
2517	0.9645
2526	0.9634
2535	0.9621
2544	0.9585
2553	0.9541
2562	0.9541
2571	0.9537
2580	0.9528
2589	0.9514
2598	0.9492
2607	0.9461
2616	0.9427
2625	0.9392
2634	0.9368
2643	0.9373
2652	0.9397
2661	0.9386
2670	0.9278
2679	0.9254
2688	0.9282
2697	0.9298
2706	0.93
2715	0.9287
2724	0.9216
2733	0.9098
2742	0.9049
2751	0.9178
2760	0.9268
2769	0.9265
2778	0.9236
2787	0.9162
2796	0.9071
2805	0.8906
2814	0.8663
2823	0.8287
2832	0.7746
2841	0.6678
2850	0.4383
2859	0.2481
2868	0.1743
2877	0.2096
2886	0.177
2895	0.346
2904	0.2573
2913	0.1537
2922	0.0682
2931	0.0279
2940	0.0218
2949	0.1092
2958	0.0498
2967	0.0321
2976	0.0398
2985	0.4525
2994	0.6519
3003	0.7388
3012	0.7986
3021	0.8311
3030	0.8575
3039	0.8806
3048	0.8953
3057	0.9015
3066	0.9107
3075	0.9175
3084	0.9191
3093	0.9263
3102	0.928
3111	0.9282
3120	0.9292
3129	0.9301
3138	0.931
3147	0.9311
3156	0.9309
3165	0.9297
3174	0.928
3183	0.9271
3192	0.9278
3201	0.9292
3210	0.9308
3219	0.933
3228	0.935
3237	0.937
3246	0.9389
3255	0.9399
3264	0.9409
3273	0.9404
3282	0.9398
3291	0.9385
3300	0.9371
3309	0.9358
3318	0.9344
3327	0.9328
3336	0.9317
3345	0.9305
3354	0.9294
3363	0.9285
3372	0.9277
3381	0.9277
3390	0.928
3399	0.9284
3408	0.929
3417	0.9294
3426	0.9303
3435	0.9313
3444	0.9324
3453	0.9347
3462	0.9371
3471	0.9418
3480	0.9432
3489	0.9424
3498	0.9416
3507	0.9405
3516	0.9395
3525	0.9384
3534	0.9371
3543	0.9358
3552	0.9345
3561	0.9332
3570	0.9316
3579	0.9294
3588	0.9333
3597	0.942
3606	0.9416
3615	0.9385
3624	0.9468
3633	0.9487
3642	0.9498
3651	0.9504
3660	0.9509
3669	0.9502
3678	0.9478
3687	0.9415
3696	0.9395
3705	0.943
3714	0.947
3723	0.95
3732	0.9511
3741	0.9513
3750	0.9518
3759	0.9525
3768	0.9535
3777	0.9539
3786	0.9547
3795	0.9554
