Infrared Spectrum: Benzophenone, 3,4-dimethyl-
Formula: C15 H14 O
CAS: 2571-39-3
State: SOLUTION (10% CCl4 FOR 3800-1330, 10% CS2 FOR 1330-400 CM^-^1)
Melting point: 130 C
Class: COBLENTZ III
Instrument: DOW KBr FOREPRISM-GRATING
Instrument parameters: BLAZED AT 3.5, 12.0, 20.0 MICRON AND CHANGED AT 5.0, 7.5, 14.9 MICRON
Sampling: TRANSMISSION
Path length: 0.011 CM, 0.011 CM
Resolution: 2
Origin: DOW CHEMICAL COMPANY
1/CM	TRANSMITTANCE
394	0.1993
403	0.3058
412	0.5934
421	0.6843
430	0.6583
439	0.5391
448	0.7615
457	0.7856
466	0.8524
475	0.8683
484	0.8751
493	0.8744
502	0.8629
511	0.8742
520	0.886
529	0.8201
538	0.8988
547	0.9211
556	0.9209
565	0.9082
574	0.8849
583	0.8964
592	0.9132
601	0.9086
610	0.8678
619	0.5495
628	0.6445
637	0.8569
646	0.8306
655	0.8467
664	0.8474
673	0.8262
682	0.5918
691	0.501
700	0.0093
709	0.5522
718	0.725
727	0.1305
736	0.3052
745	0.7054
754	0.8758
763	0.8904
772	0.8837
781	0.8328
790	0.4951
799	0.846
808	0.8627
817	0.8345
826	0.5873
835	0.5056
844	0.5897
853	0.4346
862	0.6557
871	0.2982
880	0.7746
889	0.8322
898	0.7237
907	0.7586
916	0.8637
925	0.7798
934	0.8509
943	0.8552
952	0.6589
961	0.3954
970	0.3761
979	0.6686
988	0.8047
997	0.7599
1006	0.7171
1015	0.7139
1024	0.6708
1033	0.8288
1042	0.8723
1051	0.8826
1060	0.8693
1069	0.7891
1078	0.8437
1087	0.8622
1096	0.8566
1105	0.8203
1114	0.4544
1123	0.7613
1132	0.8001
1141	0.7853
1150	0.6566
1159	0.7899
1168	0.802
1177	0.4644
1186	0.6773
1195	0.7644
1204	0.826
1213	0.7994
1222	0.4196
1231	0.7545
1240	0.7212
1249	0.6243
1258	0.4633
1267	0.1844
1276	0.1336
1285	0.2968
1294	0.2537
1303	0.1283
1312	0.1812
1321	0.2043
1330	0.711
1339	0.8254
1348	0.867
1357	0.8696
1366	0.8522
1375	0.7965
1384	0.671
1393	0.7185
1402	0.5923
1411	0.653
1420	0.8025
1429	0.7636
1438	0.5808
1447	0.2203
1456	0.4524
1465	0.7777
1474	0.8002
1483	0.772
1492	0.7339
1501	0.6921
1510	0.6836
1519	0.6415
1528	0.5773
1537	0.4841
1546	0.4285
1555	0.4322
1564	0.4158
1573	0.3534
1582	0.4788
1591	0.4265
1600	0.2471
1609	0.2748
1618	0.647
1627	0.6815
1636	0.6694
1645	0.3342
1654	0.0165
1663	0.0335
1672	0.4899
1681	0.7385
1690	0.7807
1699	0.8194
1708	0.8415
1717	0.8531
1726	0.8646
1735	0.8739
1744	0.8835
1753	0.8855
1762	0.8715
1771	0.8624
1780	0.8711
1789	0.8689
1798	0.8666
1807	0.8605
1816	0.8773
1825	0.8927
1834	0.8975
1843	0.8948
1852	0.895
1861	0.8972
1870	0.8961
1879	0.8882
1888	0.8702
1897	0.8474
1906	0.8543
1915	0.8727
1924	0.8938
1933	0.8957
1942	0.8822
1951	0.8607
1960	0.869
1969	0.8741
1978	0.8894
1987	0.8854
1996	0.8911
2005	0.9006
2014	0.9034
2023	0.9051
2032	0.9058
2041	0.906
2050	0.9062
2059	0.9064
2068	0.9066
2077	0.9068
2086	0.9065
2095	0.9063
2104	0.9061
2113	0.9059
2122	0.9058
2131	0.9059
2140	0.9061
2149	0.9063
2158	0.9067
2167	0.907
2176	0.9073
2185	0.9077
2194	0.9083
2203	0.9081
2212	0.9052
2221	0.9016
2230	0.8981
2239	0.8945
2248	0.8909
2257	0.8885
2266	0.886
2275	0.8828
2284	0.8803
2293	0.8793
2302	0.8793
2311	0.8812
2320	0.8795
2329	0.8862
2338	0.8879
2347	0.8888
2356	0.8893
2365	0.889
2374	0.889
2383	0.8888
2392	0.8886
2401	0.8884
2410	0.8884
2419	0.8885
2428	0.8898
2437	0.8905
2446	0.8892
2455	0.8895
2464	0.8905
2473	0.8915
2482	0.8918
2491	0.8916
2500	0.8913
2509	0.8908
2518	0.8901
2527	0.8892
2536	0.8875
2545	0.8854
2554	0.8814
2563	0.877
2572	0.8731
2581	0.8707
2590	0.8696
2599	0.8753
2608	0.8813
2617	0.8871
2626	0.8891
2635	0.8887
2644	0.8878
2653	0.8866
2662	0.8855
2671	0.8844
2680	0.8835
2689	0.884
2698	0.8807
2707	0.8728
2716	0.8629
2725	0.8537
2734	0.8628
2743	0.8693
2752	0.8695
2761	0.8693
2770	0.8687
2779	0.8664
2788	0.8634
2797	0.8594
2806	0.855
2815	0.8483
2824	0.8386
2833	0.8228
2842	0.7843
2851	0.7416
2860	0.7133
2869	0.7144
2878	0.7127
2887	0.7231
2896	0.7279
2905	0.656
2914	0.5373
2923	0.5638
2932	0.6022
2941	0.5661
2950	0.6364
2959	0.6615
2968	0.6015
2977	0.6492
2986	0.7174
2995	0.7639
3004	0.7661
3013	0.6985
3022	0.5938
3031	0.6969
3040	0.7117
3049	0.6472
3058	0.6217
3067	0.6782
3076	0.6856
3085	0.7816
3094	0.7982
3103	0.8252
3112	0.8504
3121	0.8562
3130	0.858
3139	0.858
3148	0.8584
3157	0.8602
3166	0.8657
3175	0.8693
3184	0.8704
3193	0.87
3202	0.8699
3211	0.8706
3220	0.8715
3229	0.8719
3238	0.8723
3247	0.8724
3256	0.872
3265	0.8714
3274	0.8652
3283	0.8505
3292	0.8462
3301	0.8517
3310	0.8669
3319	0.8763
3328	0.8791
3337	0.8804
3346	0.8812
3355	0.8815
3364	0.8819
3373	0.8822
3382	0.8824
3391	0.8824
3400	0.8825
3409	0.8824
3418	0.8823
3427	0.8821
3436	0.882
3445	0.8818
3454	0.8818
3463	0.8817
3472	0.8816
3481	0.8816
3490	0.8816
3499	0.882
3508	0.8824
3517	0.8827
3526	0.8829
3535	0.883
3544	0.8831
3553	0.8835
3562	0.8842
3571	0.8848
3580	0.8853
3589	0.8857
3598	0.8854
3607	0.8849
3616	0.883
3625	0.88
3634	0.8778
3643	0.882
3652	0.8836
3661	0.8816
3670	0.8805
3679	0.8802
3688	0.8807
3697	0.8822
3706	0.8837
3715	0.8846
3724	0.885
3733	0.8848
3742	0.8843
3751	0.8852
3760	0.8866
3769	0.8883
3778	0.89
3787	0.8909
3796	0.8914
