Infrared Spectrum: m-Cresol, 4-nitro-
Formula: C7 H7 N O3
CAS: 2581-34-2
State: SOLID (SPLIT MULL), FLUOROLUBE FOR 3800-1330 CM^-^1, NUJOL FOR 1330-400 CM^-^1
Class: COBLENTZ III
Instrument: DOW KBr FOREPRISM-GRATING
Instrument parameters: BLAZED AT 3.5, 12.0, 20.0 MICRON AND CHANGED AT 5.0, 7.5, 14.9 MICRON
Sampling: TRANSMISSION
Resolution: 2
Origin: DOW CHEMICAL COMPANY
1/CM	TRANSMITTANCE
430	0.9827
439	0.8652
448	0.8058
457	0.9447
466	0.9705
475	0.9732
484	0.9725
493	0.9675
502	0.9603
511	0.9471
520	0.889
529	0.9333
538	0.941
547	0.9351
556	0.9254
565	0.9071
574	0.898
583	0.8886
592	0.8312
601	0.8484
610	0.8186
619	0.7261
628	0.2882
637	0.7321
646	0.7374
655	0.7672
664	0.8343
673	0.8581
682	0.8889
691	0.8271
700	0.5968
709	0.8185
718	0.8209
727	0.8317
736	0.7425
745	0.8497
754	0.8435
763	0.4686
772	0.8478
781	0.8535
790	0.8549
799	0.8531
808	0.8483
817	0.8375
826	0.8115
835	0.75
844	0.3119
853	0.8347
862	0.4068
871	0.7383
880	0.7858
889	0.7885
898	0.785
907	0.7815
916	0.7769
925	0.7701
934	0.7618
943	0.7525
952	0.7269
961	0.7285
970	0.7291
979	0.7195
988	0.6904
997	0.6655
1006	0.6546
1015	0.64
1024	0.624
1033	0.4594
1042	0.6041
1051	0.5653
1060	0.4624
1069	0.3779
1078	0.0419
1087	0.6654
1096	0.6289
1105	0.5793
1114	0.5296
1123	0.4758
1132	0.4192
1141	0.3786
1150	0.3096
1159	0.3103
1168	0.2249
1177	0.1839
1186	0.1281
1195	0.0683
1204	0.0405
1213	0.0379
1222	0.0605
1231	0.1051
1240	0.1679
1249	0.1413
1258	0.0506
1267	0.0843
1276	0.4016
1285	0.5324
1294	0.3989
1303	0.2059
1312	0.096
1321	0.048
1330	0.0943
1339	0.1565
1348	0.3984
1357	0.5171
1366	0.6511
1375	0.6846
1384	0.418
1393	0.7656
1402	0.7132
1411	0.5575
1420	0.4027
1429	0.3475
1438	0.4665
1447	0.5652
1456	0.261
1465	0.2458
1474	0.2974
1483	0.1429
1492	0.5799
1501	0.3774
1510	0.127
1519	0.3402
1528	0.6385
1537	0.7237
1546	0.7075
1555	0.6765
1564	0.6112
1573	0.5241
1582	0.2592
1591	0.0792
1600	0.2435
1609	0.186
1618	0.5172
1627	0.8118
1636	0.8878
1645	0.9071
1654	0.8986
1663	0.8851
1672	0.8728
1681	0.8621
1690	0.8532
1699	0.7964
1708	0.8532
1717	0.8518
1726	0.8425
1735	0.8378
1744	0.8301
1753	0.8192
1762	0.8062
1771	0.793
1780	0.7815
1789	0.7737
1798	0.761
1807	0.7497
1816	0.7601
1825	0.7664
1834	0.7571
1843	0.7508
1852	0.7453
1861	0.7419
1870	0.7395
1879	0.7347
1888	0.7298
1897	0.7249
1906	0.7186
1915	0.7124
1924	0.7065
1933	0.6991
1942	0.6683
1951	0.6994
1960	0.7055
1969	0.7017
1978	0.6956
1987	0.6889
1996	0.6828
2005	0.6771
2014	0.6725
2023	0.6675
2032	0.6617
2041	0.6561
2050	0.6511
2059	0.6461
2068	0.6414
2077	0.6366
2086	0.631
2095	0.6254
2104	0.6199
2113	0.6155
2122	0.6115
2131	0.6073
2140	0.6038
2149	0.6006
2158	0.5991
2167	0.5994
2176	0.5954
2185	0.5901
2194	0.5844
2203	0.5789
2212	0.5735
2221	0.5678
2230	0.5621
2239	0.5565
2248	0.5518
2257	0.547
2266	0.5423
2275	0.5372
2284	0.5321
2293	0.5268
2302	0.5219
2311	0.5168
2320	0.511
2329	0.5044
2338	0.4998
2347	0.4948
2356	0.4893
2365	0.4879
2374	0.4884
2383	0.4891
2392	0.4973
2401	0.4974
2410	0.4928
2419	0.4875
2428	0.4841
2437	0.482
2446	0.4815
2455	0.4817
2464	0.4825
2473	0.4818
2482	0.478
2491	0.4727
2500	0.4681
2509	0.4637
2518	0.4595
2527	0.4551
2536	0.452
2545	0.4522
2554	0.4547
2563	0.4574
2572	0.4585
2581	0.4576
2590	0.4568
2599	0.4549
2608	0.4521
2617	0.4478
2626	0.4436
2635	0.4396
2644	0.4358
2653	0.432
2662	0.4285
2671	0.4254
2680	0.4235
2689	0.4215
2698	0.4197
2707	0.4177
2716	0.4154
2725	0.4128
2734	0.4099
2743	0.406
2752	0.4022
2761	0.399
2770	0.3994
2779	0.3999
2788	0.3999
2797	0.3999
2806	0.3991
2815	0.3964
2824	0.3914
2833	0.3862
2842	0.383
2851	0.3816
2860	0.3823
2869	0.3806
2878	0.3768
2887	0.3709
2896	0.3645
2905	0.3582
2914	0.3539
2923	0.346
2932	0.3445
2941	0.3508
2950	0.3512
2959	0.3468
2968	0.3302
2977	0.3182
2986	0.2971
2995	0.3373
3004	0.3412
3013	0.3349
3022	0.33
3031	0.3257
3040	0.3208
3049	0.3148
3058	0.3088
3067	0.2997
3076	0.2773
3085	0.2282
3094	0.2331
3103	0.2848
3112	0.2852
3121	0.2724
3130	0.26
3139	0.248
3148	0.2367
3157	0.226
3166	0.2156
3175	0.2049
3184	0.1945
3193	0.1864
3202	0.1824
3211	0.1784
3220	0.1732
3229	0.1657
3238	0.1562
3247	0.1459
3256	0.1351
3265	0.1234
3274	0.1116
3283	0.0989
3292	0.0865
3301	0.0794
3310	0.0842
3319	0.1034
3328	0.1334
3337	0.1663
3346	0.2072
3355	0.2326
3364	0.2557
3373	0.2832
3382	0.3124
3391	0.3336
3400	0.3526
3409	0.371
3418	0.3882
3427	0.4039
3436	0.4212
3445	0.4409
3454	0.461
3463	0.475
3472	0.4809
3481	0.482
3490	0.4816
3499	0.4789
3508	0.4736
3517	0.467
3526	0.4606
3535	0.4544
3544	0.4485
3553	0.4412
3562	0.4342
3571	0.428
3580	0.4218
3589	0.4162
3598	0.4107
3607	0.4053
3616	0.4006
3625	0.3959
3634	0.3914
3643	0.3877
3652	0.384
3661	0.3804
3670	0.3775
3679	0.3744
3688	0.3714
3697	0.3691
3706	0.3668
3715	0.3644
3724	0.362
3733	0.3596
3742	0.3573
3751	0.3549
3760	0.3526
3769	0.3503
3778	0.348
3787	0.345
3796	0.3426
3805	0.3408
