Infrared Spectrum: Alpha,Beta-DICHLOROPROPIONITRILE
Formula: C3 H3 Cl2 N
CAS: 2601-89-0
State: LIQUID
Class: COBLENTZ
Instrument: PERKIN-ELMER (GRATING)
Sampling: TRANSMISSION
Path length: 0.0022 CM
Resolution: 4
MICROMETERS	TRANSMITTANCE
2.027	0.965
2.06078	0.964
2.09457	0.964
2.12835	0.967
2.16213	0.967
2.19591	0.969
2.2297	0.969
2.26348	0.955
2.29726	0.938
2.33105	0.952
2.36483	0.947
2.39861	0.938
2.4324	0.938
2.46618	0.954
2.49996	0.96
2.53374	0.96
2.56753	0.962
2.60131	0.969
2.63509	0.971
2.66888	0.967
2.70266	0.969
2.73644	0.964
2.77022	0.954
2.80401	0.954
2.83779	0.95
2.87157	0.947
2.90536	0.947
2.93914	0.952
2.97292	0.947
3.00671	0.943
3.04049	0.945
3.07427	0.947
3.10805	0.948
3.14184	0.948
3.17562	0.947
3.2094	0.935
3.24319	0.909
3.27697	0.867
3.31075	0.65
3.34453	0.674
3.37832	0.4
3.4121	0.591
3.44588	0.795
3.47967	0.877
3.51345	0.906
3.54723	0.931
3.58102	0.945
3.6148	0.954
3.64858	0.962
3.68236	0.959
3.71615	0.962
3.74993	0.964
3.78371	0.964
3.8175	0.96
3.85128	0.959
3.88506	0.96
3.91884	0.952
3.95263	0.948
3.98641	0.948
4.02019	0.945
4.05398	0.935
4.08776	0.931
4.12154	0.933
4.15533	0.926
4.18911	0.921
4.22289	0.928
4.25667	0.933
4.29046	0.935
4.32424	0.936
4.35802	0.936
4.39181	0.935
4.42559	0.921
4.45937	0.836
4.49315	0.899
4.52694	0.94
4.56072	0.945
4.5945	0.952
4.62829	0.957
4.66207	0.96
4.69585	0.965
4.72964	0.965
4.76342	0.965
4.7972	0.962
4.83098	0.955
4.86477	0.95
4.89855	0.947
4.93233	0.948
4.96612	0.948
4.9999	0.947
5.03368	0.94
5.06746	0.947
5.10125	0.95
5.13503	0.959
5.16881	0.962
5.2026	0.96
5.23638	0.959
5.27016	0.952
5.30394	0.948
5.33773	0.945
5.37151	0.947
5.40529	0.948
5.43908	0.948
5.47286	0.948
5.50664	0.95
5.54043	0.952
5.57421	0.952
5.60799	0.952
5.64177	0.95
5.67556	0.948
5.70934	0.945
5.74312	0.943
5.77691	0.936
5.81069	0.919
5.84447	0.882
5.87825	0.843
5.91204	0.838
5.94582	0.875
5.9796	0.925
6.01339	0.935
6.04717	0.938
6.08095	0.943
6.11474	0.94
6.14852	0.935
6.1823	0.925
6.21608	0.904
6.24987	0.838
6.28365	0.899
6.31743	0.911
6.35122	0.916
6.385	0.928
6.41878	0.936
6.45256	0.94
6.48635	0.94
6.52013	0.938
6.55391	0.928
6.5877	0.923
6.62148	0.925
6.65526	0.923
6.68905	0.919
6.72283	0.913
6.75661	0.911
6.79039	0.908
6.82418	0.897
6.85796	0.873
6.89174	0.834
6.92553	0.551
6.95931	0.48
6.99309	0.454
7.02687	0.347
7.06066	0.529
7.09444	0.674
7.12822	0.783
7.16201	0.834
7.19579	0.865
7.22957	0.88
7.26336	0.89
7.29714	0.887
7.33092	0.887
7.3647	0.897
7.39849	0.902
7.43227	0.897
7.46605	0.877
7.49984	0.805
7.53362	0.686
7.5674	0.584
7.60118	0.586
7.63497	0.563
7.66875	0.613
7.70253	0.635
7.73632	0.715
7.7701	0.717
7.80388	0.54
7.83767	0.463
7.87145	0.575
7.90523	0.713
7.93901	0.742
7.9728	0.71
8.00658	0.701
8.04036	0.725
8.07415	0.768
8.10793	0.783
8.14171	0.766
8.17549	0.664
8.20928	0.553
8.24306	0.459
8.27684	0.431
8.31063	0.517
8.34441	0.693
8.37819	0.785
8.41198	0.821
8.44576	0.826
8.47954	0.822
8.51332	0.824
8.54711	0.829
8.58089	0.735
8.61467	0.642
8.64846	0.647
8.68224	0.771
8.71602	0.851
8.7498	0.889
8.78359	0.908
8.81737	0.913
8.85115	0.916
8.88494	0.925
8.91872	0.926
8.9525	0.921
8.98629	0.913
9.02007	0.889
9.05385	0.868
9.08763	0.862
9.12142	0.855
9.1552	0.834
9.18898	0.752
9.22277	0.72
9.25655	0.787
9.29033	0.853
9.32411	0.87
9.3579	0.872
9.39168	0.827
9.42546	0.792
9.45925	0.781
9.49303	0.797
9.52681	0.838
9.5606	0.85
9.59438	0.851
9.62816	0.793
9.66194	0.676
9.69573	0.545
9.72951	0.594
9.76329	0.681
9.79708	0.775
9.83086	0.795
9.86464	0.778
9.89842	0.73
9.93221	0.7
9.96599	0.623
9.99977	0.524
10.0336	0.528
10.0673	0.499
10.1011	0.362
10.1349	0.235
10.1687	0.224
10.2025	0.321
10.2363	0.422
10.27	0.463
10.3038	0.442
10.3376	0.345
10.3714	0.281
10.4052	0.248
10.439	0.275
10.4727	0.366
10.5065	0.408
10.5403	0.436
10.5741	0.505
10.6079	0.613
10.6416	0.681
10.6754	0.727
10.7092	0.742
10.743	0.749
10.7768	0.749
10.8106	0.749
10.8443	0.717
10.8781	0.683
10.9119	0.688
10.9457	0.724
10.9795	0.742
11.0133	0.725
11.047	0.732
11.0808	0.783
11.1146	0.836
11.1484	0.853
11.1822	0.858
11.216	0.85
11.2497	0.817
11.2835	0.78
11.3173	0.739
11.3511	0.688
11.3849	0.614
11.4187	0.572
11.4524	0.587
11.4862	0.633
11.52	0.683
11.5538	0.722
11.5876	0.756
11.6214	0.781
11.6551	0.798
11.6889	0.795
11.7227	0.764
11.7565	0.669
11.7903	0.58
11.8241	0.511
11.8578	0.49
11.8916	0.497
11.9254	0.536
11.9592	0.604
11.993	0.674
12.0267	0.727
12.0605	0.759
12.0943	0.773
12.1281	0.787
12.1619	0.795
12.1957	0.81
12.2294	0.819
12.2632	0.819
12.297	0.826
12.3308	0.819
12.3646	0.817
12.3984	0.814
12.4321	0.81
12.4659	0.797
12.4997	0.775
12.5335	0.741
12.5673	0.695
12.6011	0.599
12.6348	0.482
12.6686	0.34
12.7024	0.258
12.7362	0.253
12.77	0.269
12.8038	0.293
12.8375	0.299
12.8713	0.284
12.9051	0.252
12.9389	0.228
12.9727	0.211
13.0065	0.201
13.0402	0.204
13.074	0.224
13.1078	0.247
13.1416	0.269
13.1754	0.275
13.2092	0.257
13.2429	0.201
13.2767	0.144
13.3105	0.107
13.3443	0.085
13.3781	0.068
13.4119	0.069
13.4456	0.085
13.4794	0.126
13.5132	0.148
13.547	0.144
13.5808	0.11
13.6145	0.057
13.6483	0.025
13.6821	0.011
13.7159	0.01
13.7497	0.008
13.7835	0.02
13.8172	0.064
13.851	0.127
13.8848	0.209
13.9186	0.296
13.9524	0.388
13.9862	0.47
14.0199	0.529
14.0537	0.58
14.0875	0.62
14.1213	0.652
14.1551	0.674
14.1889	0.691
14.2226	0.706
14.2564	0.722
14.2902	0.734
14.324	0.742
14.3578	0.749
14.3916	0.749
14.4253	0.749
14.4591	0.735
14.4929	0.718
14.5267	0.676
14.5605	0.63
14.5943	0.587
14.628	0.546
14.6618	0.526
14.6956	0.512
14.7294	0.504
14.7632	0.509
14.797	0.517
14.8307	0.529
14.8645	0.533
14.8983	0.534
14.9321	0.531
14.9659	0.521
14.9996	0.5
15.0334	0.441
15.0672	0.352
15.101	0.287
15.1348	0.252
15.1686	0.24
15.2023	0.245
15.2361	0.293
15.2699	0.357
15.3037	0.436
15.3375	0.495
15.3713	0.543
15.405	0.591
