Infrared Spectrum: CARBAMIC ACID, PHENYL-, METHYL ESTER
Formula: C8 H9 N O2
CAS: 2603-10-3
State: SOLID (SPLIT MULL, FLUOROLUBE FOR 3800-1330 AND NUJOL FOR 1330-240 CM ^-^1)
Class: COBLENTZ II
Instrument: PERKIN-ELMER 521 (GRATING)
Instrument parameters: GRATING CHANGES AT 2000, 630 CM^-^1
Sampling: TRANSMISSION
Resolution: 4
Origin: DOW CORNING CORP.
1/CM	TRANSMITTANCE
232.588	0.675
241.534	0.712
250.479	0.741
259.425	0.776
268.371	0.809
277.317	0.83
286.262	0.848
295.208	0.848
304.154	0.849
313.099	0.872
322.045	0.904
330.991	0.9579
339.937	0.98
348.882	0.977
357.828	0.968
366.774	0.966
375.719	0.938
384.665	0.8111
393.611	0.795
402.556	0.931
411.502	0.945
420.448	0.952
429.394	0.944
438.339	0.942
447.285	0.933
456.231	0.926
465.176	0.924
474.122	0.916
483.068	0.905
492.014	0.884
500.959	0.799
509.905	0.6411
518.851	0.883
527.796	0.883
536.742	0.883
545.688	0.879
554.634	0.877
563.579	0.867
572.525	0.862
581.471	0.849
590.416	0.837
599.362	0.818
608.308	0.6782
617.253	0.755
626.199	0.722
635.145	0.673
644.091	0.631
653.036	0.568
661.982	0.579
670.928	0.598
679.873	0.572
688.819	0.3212
697.765	0.38
706.711	0.541
715.656	0.5411
724.602	0.3051
733.548	0.315
742.493	0.4899
751.439	0.3151
760.385	0.2841
769.331	0.361
778.276	0.7428
787.222	0.811
796.168	0.823
805.113	0.832
814.059	0.818
823.005	0.808
831.951	0.771
840.896	0.722
849.842	0.825
858.788	0.839
867.733	0.832
876.679	0.816
885.625	0.783
894.57	0.745
903.516	0.504
912.462	0.797
921.408	0.808
930.353	0.799
939.299	0.788
948.245	0.752
957.19	0.764
966.136	0.773
975.082	0.783
984.028	0.78
992.973	0.746
1001.92	0.776
1010.86	0.745
1019.81	0.677
1028.76	0.483
1037.7	0.717
1046.65	0.661
1055.59	0.5271
1064.54	0.171
1073.48	0.4174
1082.43	0.493
1091.38	0.687
1100.32	0.72
1109.27	0.72
1118.21	0.72
1127.16	0.713
1136.1	0.701
1145.05	0.668
1154	0.617
1162.94	0.626
1171.89	0.553
1180.83	0.422
1189.78	0.4038
1198.72	0.523
1207.67	0.453
1216.62	0.417
1225.56	0.2601
1234.51	0.076
1243.45	0.082
1252.4	0.1859
1261.34	0.3169
1270.29	0.563
1279.24	0.616
1288.18	0.603
1297.13	0.582
1306.07	0.4411
1315.02	0.3693
1323.96	0.4599
1332.91	0.4272
1341.86	0.828
1350.8	0.837
1359.75	0.827
1368.69	0.813
1377.64	0.802
1386.58	0.795
1395.53	0.804
1404.48	0.797
1413.42	0.762
1422.37	0.72
1431.31	0.678
1440.26	0.5541
1449.2	0.233
1458.15	0.6166
1467.1	0.706
1476.04	0.773
1484.99	0.719
1493.93	0.677
1502.88	0.3263
1511.82	0.713
1520.77	0.5912
1529.72	0.422
1538.66	0.258
1547.61	0.136
1556.55	0.4287
1565.5	0.738
1574.44	0.821
1583.39	0.802
1592.34	0.6
1601.28	0.307
1610.23	0.3778
1619.17	0.4079
1628.12	0.787
1637.06	0.809
1646.01	0.787
1654.96	0.788
1663.9	0.757
1672.85	0.6301
1681.79	0.582
1690.74	0.436
1699.68	0.2212
1708.63	0.106
1717.58	0.15
1726.52	0.4078
1735.47	0.6187
1744.41	0.741
1753.36	0.813
1762.3	0.921
1771.25	0.952
1780.2	0.937
1789.14	0.919
1798.09	0.89
1807.03	0.916
1815.98	0.958
1824.92	0.979
1833.87	0.982
1842.82	0.975
1851.76	0.966
1860.71	0.949
1869.65	0.942
1878.6	0.947
1887.54	0.954
1896.49	0.959
1905.44	0.965
1914.38	0.968
1923.33	0.956
1932.27	0.942
1941.22	0.944
1950.16	0.942
1959.11	0.952
1968.06	0.952
1977	0.956
1985.95	0.952
1994.89	0.952
2003.84	0.952
2012.78	0.949
2021.73	0.949
2030.68	0.951
2039.62	0.951
2048.57	0.949
2057.51	0.9445
2066.46	0.942
2075.4	0.938
2084.35	0.935
2093.3	0.935
2102.24	0.933
2111.19	0.9321
2120.13	0.9301
2129.08	0.926
2138.02	0.9233
2146.97	0.919
2155.92	0.9172
2164.86	0.914
2173.81	0.9102
2182.75	0.9046
2191.7	0.9
2200.64	0.9007
2209.59	0.904
2218.54	0.9057
2227.48	0.905
2236.43	0.902
2245.37	0.8955
2254.32	0.8923
2263.26	0.891
2272.21	0.89
2281.16	0.89
2290.1	0.89
2299.05	0.888
2307.99	0.886
2316.94	0.886
2325.88	0.886
2334.83	0.886
2343.78	0.886
2352.72	0.886
2361.67	0.8837
2370.61	0.8815
2379.56	0.8785
2388.5	0.8745
2397.45	0.874
2406.4	0.874
2415.34	0.874
2424.29	0.876
2433.23	0.8736
2442.18	0.87
2451.12	0.87
2460.07	0.8662
2469.02	0.8634
2477.96	0.8629
2486.91	0.851
2495.85	0.853
2504.8	0.853
2513.74	0.855
2522.69	0.855
2531.64	0.855
2540.58	0.8505
2549.53	0.848
2558.47	0.848
2567.42	0.848
2576.36	0.844
2585.31	0.844
2594.26	0.842
2603.2	0.8398
2612.15	0.839
2621.09	0.8378
2630.04	0.8349
2638.98	0.834
2647.93	0.832
2656.88	0.8247
2665.82	0.816
2674.77	0.818
2683.71	0.8211
2692.66	0.827
2701.6	0.8249
2710.55	0.8219
2719.5	0.816
2728.44	0.8155
2737.39	0.8129
2746.33	0.809
2755.28	0.801
2764.22	0.791
2773.17	0.788
2782.12	0.791
2791.06	0.795
2800.01	0.8015
2808.95	0.804
2817.9	0.7971
2826.84	0.7802
2835.79	0.7676
2844.74	0.7689
2853.68	0.778
2862.63	0.7741
2871.57	0.767
2880.52	0.767
2889.46	0.7611
2898.41	0.7501
2907.36	0.7456
2916.3	0.745
2925.25	0.741
2934.19	0.7265
2943.14	0.6884
2952.08	0.6493
2961.03	0.6808
2969.97	0.7056
2978.92	0.719
2987.87	0.7132
2996.81	0.71
3005.76	0.6998
3014.7	0.6718
3023.65	0.6456
3032.59	0.6494
3041.54	0.6506
3050.49	0.6363
3059.43	0.624
3068.38	0.6536
3077.32	0.6701
3086.27	0.6913
3095.21	0.707
3104.16	0.713
3113.11	0.71
3122.05	0.685
3131	0.6585
3139.94	0.6608
3148.89	0.7021
3157.83	0.7176
3166.78	0.72
3175.73	0.716
3184.67	0.7042
3193.62	0.6765
3202.56	0.6765
3211.51	0.675
3220.45	0.673
3229.4	0.6637
3238.35	0.6434
3247.29	0.6141
3256.24	0.5959
3265.18	0.5601
3274.13	0.5118
3283.07	0.452
3292.02	0.3579
3300.97	0.2833
3309.91	0.2707
3318.86	0.3713
3327.8	0.4419
3336.75	0.4801
3345.69	0.4804
3354.64	0.4138
3363.59	0.4084
3372.53	0.623
3381.48	0.7106
3390.42	0.7415
3399.37	0.7551
3408.31	0.76
3417.26	0.7682
3426.21	0.773
3435.15	0.771
3444.1	0.7597
3453.04	0.7562
3461.99	0.7644
3470.93	0.773
3479.88	0.769
3488.83	0.773
3497.77	0.7709
3506.72	0.7665
3515.66	0.764
3524.61	0.762
3533.55	0.762
3542.5	0.76
3551.45	0.76
3560.39	0.759
3569.34	0.759
3578.28	0.757
3587.23	0.755
3596.17	0.753
3605.12	0.75
3614.07	0.747
3623.01	0.745
3631.96	0.745
3640.9	0.743
3649.85	0.743
3658.79	0.741
3667.74	0.739
3676.69	0.738
3685.63	0.738
3694.58	0.7361
3703.52	0.7351
3712.47	0.734
3721.41	0.731
3730.36	0.729
3739.31	0.7266
3748.25	0.726
3757.2	0.7252
3766.14	0.724
3775.09	0.722
3784.03	0.72
3792.98	0.7196
