Infrared Spectrum: PHENOXATHIIN
Formula: C12 H8 O S
CAS: 262-20-4
State: SOLID (OIL MULL)
Melting point: 56-58 C
Class: COBLENTZ
Instrument: Not specified, most likely a prism, grating, or hybrid spectrometer.
Sampling: TRANSMISSION
Resolution: 4
Origin: WYANDOTTE CHEMICALS CORP., WYANDOTTE, MICHIGAN, USA
MICROMETERS	TRANSMITTANCE
2.063	0.434
2.10288	0.437
2.14276	0.449
2.18264	0.445
2.22251	0.422
2.26239	0.424
2.30227	0.429
2.34215	0.425
2.38203	0.405
2.42191	0.398
2.46178	0.398
2.50166	0.409
2.54154	0.419
2.58142	0.429
2.6213	0.417
2.66118	0.422
2.70105	0.42
2.74093	0.412
2.78081	0.427
2.82069	0.43
2.86057	0.417
2.90045	0.41
2.94033	0.405
2.9802	0.388
3.02008	0.392
3.05996	0.382
3.09984	0.388
3.13972	0.385
3.1796	0.375
3.21947	0.36
3.25935	0.257
3.29923	0.245
3.33911	0.153
3.37899	0.061
3.41887	0.033
3.45874	0.043
3.49862	0.043
3.5385	0.26
3.57838	0.372
3.61826	0.447
3.65814	0.459
3.69802	0.435
3.73789	0.44
3.77777	0.437
3.81765	0.464
3.85753	0.452
3.89741	0.445
3.93729	0.447
3.97716	0.46
4.01704	0.482
4.05692	0.47
4.0968	0.464
4.13668	0.439
4.17656	0.429
4.21643	0.447
4.25631	0.434
4.29619	0.464
4.33607	0.455
4.37595	0.484
4.41583	0.494
4.45571	0.484
4.49558	0.507
4.53546	0.5
4.57534	0.499
4.61522	0.502
4.6551	0.507
4.69498	0.519
4.73485	0.499
4.77473	0.522
4.81461	0.517
4.85449	0.489
4.89437	0.512
4.93425	0.509
4.97412	0.514
5.014	0.535
5.05388	0.549
5.09376	0.557
5.13364	0.555
5.17352	0.544
5.2134	0.515
5.25327	0.519
5.29315	0.487
5.33303	0.499
5.37291	0.515
5.41279	0.544
5.45267	0.564
5.49254	0.559
5.53242	0.56
5.5723	0.532
5.61218	0.49
5.65206	0.517
5.69194	0.539
5.73181	0.562
5.77169	0.589
5.81157	0.58
5.85145	0.554
5.89133	0.562
5.93121	0.575
5.97108	0.592
6.01096	0.597
6.05084	0.624
6.09072	0.649
6.1306	0.644
6.17048	0.656
6.21036	0.565
6.25023	0.375
6.29011	0.397
6.32999	0.422
6.36987	0.432
6.40975	0.537
6.44963	0.58
6.4895	0.679
6.52938	0.671
6.56926	0.651
6.60914	0.644
6.64902	0.601
6.6889	0.719
6.72877	0.439
6.76865	0.178
6.80853	0.056
6.84841	0.048
6.88829	0.058
6.92817	0.076
6.96805	0.143
7.00792	0.27
7.0478	0.335
7.08768	0.347
7.12756	0.347
7.16744	0.348
7.20732	0.225
7.24719	0.19
7.28707	0.332
7.32695	0.472
7.36683	0.542
7.40671	0.587
7.44659	0.614
7.48646	0.671
7.52634	0.689
7.56622	0.692
7.6061	0.676
7.64598	0.667
7.68586	0.661
7.72574	0.387
7.76561	0.385
7.80549	0.689
7.84537	0.495
7.88525	0.113
7.92513	0.18
7.96501	0.424
8.00488	0.427
8.04476	0.445
8.08464	0.272
8.12452	0.061
8.1644	0.083
8.20428	0.141
8.24415	0.195
8.28403	0.148
8.32391	0.248
8.36379	0.303
8.40367	0.347
8.44355	0.382
8.48343	0.424
8.5233	0.44
8.56318	0.454
8.60306	0.437
8.64294	0.47
8.68282	0.509
8.7227	0.559
8.76257	0.599
8.80245	0.574
8.84233	0.435
8.88221	0.347
8.92209	0.315
8.96197	0.429
9.00184	0.52
9.04172	0.579
9.0816	0.597
9.12148	0.639
9.16136	0.624
9.20124	0.385
9.24112	0.34
9.28099	0.487
9.32087	0.545
9.36075	0.579
9.40063	0.611
9.44051	0.629
9.48039	0.656
9.52026	0.691
9.56014	0.709
9.60002	0.697
9.6399	0.709
9.67978	0.595
9.71966	0.405
9.75953	0.434
9.79941	0.529
9.83929	0.619
9.87917	0.654
9.91905	0.684
9.95893	0.712
9.99881	0.734
10.0387	0.721
10.0786	0.737
10.1184	0.762
10.1583	0.776
10.1982	0.771
10.2381	0.739
10.278	0.711
10.3178	0.732
10.3577	0.709
10.3976	0.704
10.4375	0.759
10.4773	0.794
10.5172	0.828
10.5571	0.854
10.597	0.874
10.6369	0.888
10.6767	0.582
10.7166	0.35
10.7565	0.317
10.7964	0.539
10.8363	0.724
10.8761	0.826
10.916	0.851
10.9559	0.908
10.9958	0.936
11.0356	0.966
11.0755	0.973
11.1154	1.003
11.1553	1
11.1952	0.983
11.235	0.966
11.2749	0.929
11.3148	0.816
11.3547	0.686
11.3945	0.606
11.4344	0.58
11.4743	0.505
11.5142	0.422
11.5541	0.368
11.5939	0.38
11.6338	0.445
11.6737	0.549
11.7136	0.617
11.7535	0.692
11.7933	0.749
11.8332	0.794
11.8731	0.833
11.913	0.864
11.9528	0.881
11.9927	0.881
12.0326	0.868
12.0725	0.883
12.1124	0.901
12.1522	0.894
12.1921	0.894
12.232	0.879
12.2719	0.722
12.3118	0.439
12.3516	0.347
12.3915	0.434
12.4314	0.582
12.4713	0.704
12.5111	0.756
12.551	0.794
12.5909	0.811
12.6308	0.828
12.6707	0.836
12.7105	0.811
12.7504	0.799
12.7903	0.786
12.8302	0.746
12.8701	0.694
12.9099	0.671
12.9498	0.597
12.9897	0.539
13.0296	0.405
13.0694	0.272
13.1093	0.145
13.1492	0.068
13.1891	0.076
13.229	0.051
13.2688	0.031
13.3087	0.006
13.3486	0.02
13.3885	0.028
13.4283	0.028
13.4682	0.053
13.5081	0.103
13.548	0.18
13.5879	0.287
13.6277	0.36
13.6676	0.435
13.7075	0.485
13.7474	0.529
13.7873	0.564
13.8271	0.599
13.867	0.519
13.9069	0.342
13.9468	0.21
13.9866	0.222
14.0265	0.317
14.0664	0.47
14.1063	0.52
14.1462	0.574
14.186	0.669
14.2259	0.749
14.2658	0.818
14.3057	0.854
14.3456	0.894
14.3854	0.926
14.4253	0.928
14.4652	0.901
14.5051	0.789
14.5449	0.649
14.5848	0.535
14.6247	0.469
14.6646	0.5
14.7045	0.542
14.7443	0.585
14.7842	0.621
14.8241	0.652
14.864	0.702
14.9039	0.739
14.9437	0.757
14.9836	0.766
15.0235	0.752
15.0634	0.759
15.1032	0.771
15.1431	0.809
15.183	0.843
15.2229	0.863
15.2628	0.879
15.3026	0.881
15.3425	0.869
15.3824	0.878
15.4223	0.889
15.4621	0.873
15.502	0.858
15.5419	0.844
15.5818	0.843
15.6217	0.836
15.6615	0.803
15.7014	0.781
15.7413	0.701
15.7812	0.639
15.8211	0.604
15.8609	0.599
15.9008	0.611
15.9407	0.621
15.9806	0.626
