Infrared Spectrum: 2-Nonadecanol
Formula: C19 H40 O
CAS: 26533-36-8
State: SOLUTION (10% CCl4 FOR 3800-1330, 10% CS2 FOR 1330-460 CM^-^1)
Melting point: 42 C
Class: COBLENTZ III
Instrument: DOW KBr FOREPRISM-GRATING
Instrument parameters: BLAZED AT 3.5, 12.0, 20.0 MICRON AND CHANGED AT 5.0, 7.5, 14.9 MICRON
Sampling: TRANSMISSION
Path length: 0.010 CM, 0.011 CM
Resolution: 2
Origin: DOW CHEMICAL COMPANY
1/CM	TRANSMITTANCE
459	0.7006
468	0.708
477	0.7182
486	0.7278
495	0.7385
504	0.7464
513	0.7409
522	0.7345
531	0.7534
540	0.7584
549	0.762
558	0.7699
567	0.7742
576	0.775
585	0.7772
594	0.7797
603	0.7817
612	0.7834
621	0.7883
630	0.7851
639	0.7765
648	0.7723
657	0.7736
666	0.7943
675	0.8267
684	0.831
693	0.8239
702	0.8006
711	0.7308
720	0.6013
729	0.7446
738	0.7923
747	0.8187
756	0.8283
765	0.8353
774	0.8407
783	0.8443
792	0.8468
801	0.8414
810	0.8285
819	0.8277
828	0.7775
837	0.7707
846	0.7212
855	0.694
864	0.7249
873	0.7581
882	0.7859
891	0.8051
900	0.8046
909	0.7954
918	0.7764
927	0.7273
936	0.7007
945	0.7464
954	0.7877
963	0.7984
972	0.7886
981	0.7731
990	0.7537
999	0.7329
1008	0.7017
1017	0.6704
1026	0.6572
1035	0.6442
1044	0.6306
1053	0.6173
1062	0.6015
1071	0.5879
1080	0.585
1089	0.5777
1098	0.5686
1107	0.5608
1116	0.5587
1125	0.5615
1134	0.5622
1143	0.6234
1152	0.6654
1161	0.7074
1170	0.7399
1179	0.7282
1188	0.7677
1197	0.7733
1206	0.7725
1215	0.7665
1224	0.7499
1233	0.7214
1242	0.6779
1251	0.6819
1260	0.6968
1269	0.699
1278	0.6924
1287	0.675
1296	0.6516
1305	0.6428
1314	0.6634
1323	0.6872
1332	0.752
1341	0.7413
1350	0.6938
1359	0.6762
1368	0.6125
1377	0.5045
1386	0.6797
1395	0.7127
1404	0.7366
1413	0.7606
1422	0.7706
1431	0.7365
1440	0.6128
1449	0.5191
1458	0.3221
1467	0.2455
1476	0.5931
1485	0.7795
1494	0.7745
1503	0.7518
1512	0.72
1521	0.6781
1530	0.6238
1539	0.5603
1548	0.4912
1557	0.5222
1566	0.5831
1575	0.6419
1584	0.6619
1593	0.6998
1602	0.7893
1611	0.8385
1620	0.8619
1629	0.8745
1638	0.8807
1647	0.8841
1656	0.8872
1665	0.8894
1674	0.891
1683	0.8919
1692	0.8928
1701	0.8932
1710	0.894
1719	0.8957
1728	0.8961
1737	0.8963
1746	0.8976
1755	0.8978
1764	0.8978
1773	0.8977
1782	0.897
1791	0.8975
1800	0.8981
1809	0.8978
1818	0.8968
1827	0.8958
1836	0.8942
1845	0.8933
1854	0.8935
1863	0.8937
1872	0.8924
1881	0.8945
1890	0.8946
1899	0.8954
1908	0.8974
1917	0.898
1926	0.8976
1935	0.8972
1944	0.8975
1953	0.8964
1962	0.8923
1971	0.8904
1980	0.8897
1989	0.8877
1998	0.8918
2007	0.8943
2016	0.8949
2025	0.8957
2034	0.8961
2043	0.8964
2052	0.8969
2061	0.8973
2070	0.898
2079	0.899
2088	0.8997
2097	0.9
2106	0.9003
2115	0.9003
2124	0.8999
2133	0.8991
2142	0.8988
2151	0.8985
2160	0.8983
2169	0.8982
2178	0.8982
2187	0.898
2196	0.8978
2205	0.8971
2214	0.8964
2223	0.8957
2232	0.8946
2241	0.8934
2250	0.8923
2259	0.8898
2268	0.8871
2277	0.8844
2286	0.8815
2295	0.8786
2304	0.8752
2313	0.8808
2322	0.8896
2331	0.8947
2340	0.8977
2349	0.8991
2358	0.8993
2367	0.8993
2376	0.8991
2385	0.8975
2394	0.896
2403	0.8946
2412	0.8966
2421	0.8994
2430	0.9003
2439	0.8997
2448	0.8991
2457	0.8994
2466	0.8996
2475	0.8996
2484	0.8996
2493	0.8987
2502	0.8979
2511	0.8958
2520	0.8937
2529	0.8908
2538	0.8878
2547	0.8845
2556	0.8809
2565	0.8774
2574	0.8732
2583	0.8687
2592	0.8643
2601	0.8597
2610	0.855
2619	0.8502
2628	0.8454
2637	0.8395
2646	0.8337
2655	0.8281
2664	0.8226
2673	0.8174
2682	0.8152
2691	0.8218
2700	0.8298
2709	0.8315
2718	0.8275
2727	0.8206
2736	0.8164
2745	0.8228
2754	0.8226
2763	0.8176
2772	0.8075
2781	0.7925
2790	0.7736
2799	0.7501
2808	0.7185
2817	0.6668
2826	0.5767
2835	0.471
2844	0.3008
2853	0.0037
2862	0.0419
2871	0.1285
2880	0.1937
2889	0.1438
2898	0.0464
2907	0.0114
2916	0.0032
2925	0
2934	0
2943	0.0141
2952	0.0696
2961	0.0711
2970	0.1632
2979	0.3049
2988	0.4574
2997	0.6184
3006	0.6917
3015	0.7291
3024	0.7688
3033	0.7937
3042	0.8105
3051	0.8235
3060	0.834
3069	0.8392
3078	0.8436
3087	0.8475
3096	0.8507
3105	0.8523
3114	0.8527
3123	0.8527
3132	0.8526
3141	0.8522
3150	0.8508
3159	0.8485
3168	0.8443
3177	0.8397
3186	0.8347
3195	0.8289
3204	0.822
3213	0.8145
3222	0.8069
3231	0.7972
3240	0.7861
3249	0.7744
3258	0.7625
3267	0.7499
3276	0.737
3285	0.7191
3294	0.7053
3303	0.6896
3312	0.6743
3321	0.6619
3330	0.6525
3339	0.6449
3348	0.6419
3357	0.6416
3366	0.6427
3375	0.6457
3384	0.6493
3393	0.6539
3402	0.6598
3411	0.6665
3420	0.6732
3429	0.6794
3438	0.6857
3447	0.6927
3456	0.7001
3465	0.7066
3474	0.7128
3483	0.7198
3492	0.727
3501	0.7354
3510	0.7445
3519	0.7578
3528	0.7768
3537	0.7987
3546	0.8181
3555	0.8329
3564	0.8431
3573	0.8461
3582	0.8436
3591	0.8236
3600	0.7713
3609	0.7453
3618	0.6764
3627	0.6995
3636	0.8044
3645	0.8513
3654	0.8603
3663	0.8645
3672	0.8676
3681	0.8704
3690	0.8728
3699	0.875
3708	0.8771
3717	0.879
3726	0.8807
3735	0.8818
3744	0.8808
3753	0.8784
3762	0.8777
3771	0.8778
3780	0.878
3789	0.8785
3798	0.879
