Infrared Spectrum: PROPENAMIDE, N,N-DIMETHYL-
Formula: C5 H9 N O
CAS: 2680-03-7
State: LIQUID (NEAT)
Class: COBLENTZ III
Instrument: PERKIN-ELMER 521 (GRATING)
Instrument parameters: GRATING CHANGES AT 2000, 630 CM^-^1
Sampling: TRANSMISSION
Path length: SMEAR, KBr CRYSTALS
Resolution: 4
Origin: STANDARD OIL OF OHIO
1/CM	TRANSMITTANCE
312.537	0.195
322.044	0.25
331.551	0.285
341.058	0.347
350.564	0.423
360.071	0.447
369.578	0.521
379.085	0.572
388.592	0.615
398.099	0.666
407.606	0.684
417.112	0.718
426.619	0.762
436.126	0.786
445.633	0.805
455.14	0.814
464.647	0.817
474.154	0.816
483.66	0.814
493.167	0.814
502.674	0.82
512.181	0.837
521.688	0.847
531.195	0.853
540.702	0.856
550.208	0.862
559.715	0.861
569.222	0.863
578.729	0.867
588.236	0.866
597.743	0.841
607.25	0.81
616.757	0.862
626.263	0.873
635.77	0.881
645.277	0.884
654.784	0.884
664.291	0.886
673.798	0.887
683.305	0.887
692.811	0.889
702.318	0.888
711.825	0.885
721.332	0.891
730.839	0.892
740.346	0.889
749.853	0.882
759.359	0.821
768.866	0.878
778.373	0.865
787.88	0.746
797.387	0.654
806.894	0.866
816.401	0.882
825.907	0.889
835.414	0.891
844.921	0.892
854.428	0.893
863.935	0.892
873.442	0.891
882.949	0.886
892.455	0.885
901.962	0.881
911.469	0.879
920.976	0.874
930.483	0.859
939.99	0.824
949.497	0.731
959.003	0.681
968.51	0.701
978.017	0.626
987.524	0.673
997.031	0.778
1006.54	0.831
1016.04	0.837
1025.55	0.831
1035.06	0.803
1044.57	0.753
1054.07	0.7
1063.58	0.79
1073.09	0.835
1082.59	0.842
1092.1	0.84
1101.61	0.824
1111.11	0.801
1120.62	0.76
1130.13	0.669
1139.63	0.506
1149.14	0.472
1158.65	0.634
1168.15	0.739
1177.66	0.79
1187.17	0.814
1196.67	0.835
1206.18	0.842
1215.69	0.84
1225.2	0.833
1234.7	0.814
1244.21	0.773
1253.72	0.673
1263.22	0.674
1272.73	0.798
1282.24	0.815
1291.74	0.792
1301.25	0.802
1310.76	0.834
1320.26	0.83
1329.77	0.818
1339.28	0.807
1348.78	0.785
1358.29	0.734
1367.8	0.64
1377.31	0.653
1386.81	0.655
1396.32	0.4889
1405.83	0.461
1415.33	0.33
1424.84	0.4361
1434.35	0.65
1443.85	0.628
1453.36	0.591
1462.87	0.585
1472.37	0.572
1481.88	0.544
1491.39	0.505
1500.89	0.5461
1510.4	0.621
1519.91	0.699
1529.42	0.731
1538.92	0.758
1548.43	0.755
1557.94	0.746
1567.44	0.737
1576.95	0.682
1586.46	0.546
1595.96	0.478
1605.47	0.2499
1614.98	0.257
1624.48	0.53
1633.99	0.434
1643.5	0.124
1653	0.114
1662.51	0.4261
1672.02	0.7151
1681.52	0.801
1691.03	0.83
1700.54	0.85
1710.05	0.85
1719.55	0.849
1729.06	0.863
1738.57	0.868
1748.07	0.873
1757.58	0.876
1767.09	0.881
1776.59	0.882
1786.1	0.884
1795.61	0.887
1805.11	0.888
1814.62	0.888
1824.13	0.889
1833.63	0.889
1843.14	0.889
1852.65	0.888
1862.16	0.888
1871.66	0.887
1881.17	0.885
1890.68	0.882
1900.18	0.876
1909.69	0.873
1919.2	0.874
1928.7	0.876
1938.21	0.879
1947.72	0.881
1957.22	0.882
1966.73	0.882
1976.24	0.884
1985.74	0.884
1995.25	0.886
2004.76	0.884
2014.26	0.882
2023.77	0.884
2033.28	0.8845
2042.79	0.884
2052.29	0.884
2061.8	0.884
2071.31	0.884
2080.81	0.8831
2090.32	0.882
2099.83	0.882
2109.33	0.882
2118.84	0.882
2128.35	0.882
2137.85	0.8828
2147.36	0.884
2156.87	0.885
2166.37	0.884
2175.88	0.884
2185.39	0.884
2194.9	0.885
2204.4	0.884
2213.91	0.882
2223.42	0.885
2232.92	0.886
2242.43	0.886
2251.94	0.886
2261.44	0.886
2270.95	0.886
2280.46	0.886
2289.96	0.886
2299.47	0.886
2308.98	0.886
2318.48	0.886
2327.99	0.886
2337.5	0.8853
2347	0.8842
2356.51	0.884
2366.02	0.885
2375.53	0.885
2385.03	0.8842
2394.54	0.8848
2404.05	0.8824
2413.55	0.881
2423.06	0.884
2432.57	0.884
2442.07	0.885
2451.58	0.884
2461.09	0.885
2470.59	0.8842
2480.1	0.8848
2489.61	0.884
2499.11	0.881
2508.62	0.882
2518.13	0.881
2527.64	0.882
2537.14	0.882
2546.65	0.882
2556.16	0.882
2565.66	0.882
2575.17	0.881
2584.68	0.881
2594.18	0.881
2603.69	0.8801
2613.2	0.88
2622.7	0.88
2632.21	0.88
2641.72	0.879
2651.22	0.88
2660.73	0.88
2670.24	0.88
2679.75	0.879
2689.25	0.879
2698.76	0.878
2708.27	0.875
2717.77	0.876
2727.28	0.874
2736.79	0.874
2746.29	0.874
2755.8	0.873
2765.31	0.8718
2774.81	0.8669
2784.32	0.8589
2793.83	0.852
2803.33	0.8499
2812.84	0.8385
2822.35	0.8125
2831.85	0.803
2841.36	0.8019
2850.87	0.7884
2860.38	0.7634
2869.88	0.7461
2879.39	0.7309
2888.9	0.7236
2898.4	0.7117
2907.91	0.6998
2917.42	0.6802
2926.92	0.6488
2936.43	0.6362
2945.94	0.6533
2955.44	0.6822
2964.95	0.7224
2974.46	0.7545
2983.96	0.7771
2993.47	0.791
3002.98	0.794
3012.49	0.792
3021.99	0.789
3031.5	0.7913
3041.01	0.799
3050.51	0.8173
3060.02	0.818
3069.53	0.822
3079.03	0.8217
3088.54	0.82
3098.05	0.818
3107.55	0.8339
3117.06	0.8476
3126.57	0.853
3136.07	0.856
3145.58	0.856
3155.09	0.856
3164.59	0.856
3174.1	0.8566
3183.61	0.855
3193.12	0.855
3202.62	0.8526
3212.13	0.847
3221.64	0.846
3231.14	0.8448
3240.65	0.8432
3250.16	0.839
3259.66	0.839
3269.17	0.8394
3278.68	0.84
3288.18	0.836
3297.69	0.836
3307.2	0.835
3316.7	0.835
3326.21	0.8321
3335.72	0.824
3345.23	0.822
3354.73	0.8175
3364.24	0.815
3373.75	0.8035
3383.25	0.8
3392.76	0.7955
3402.27	0.787
3411.77	0.7794
3421.28	0.7725
3430.79	0.7629
3440.29	0.7579
3449.8	0.7439
3459.31	0.7384
3468.81	0.7319
3478.32	0.73
3487.83	0.727
3497.34	0.7288
3506.84	0.728
3516.35	0.7234
3525.86	0.723
3535.36	0.721
3544.87	0.7285
3554.38	0.7359
3563.88	0.7519
3573.39	0.7662
3582.9	0.7813
3592.4	0.796
3601.91	0.8097
3611.42	0.8257
3620.92	0.8364
3630.43	0.8447
3639.94	0.8487
3649.44	0.8617
3658.95	0.865
3668.46	0.865
3677.97	0.8667
3687.47	0.8705
3696.98	0.8733
3706.49	0.874
3715.99	0.874
3725.5	0.874
3735.01	0.875
3744.51	0.875
3754.02	0.8752
3763.53	0.874
3773.03	0.874
3782.54	0.874
3792.05	0.8732
3801.55	0.875
3811.06	0.874
3820.57	0.874
3830.08	0.8732
3839.58	0.873
3849.09	0.873
3858.6	0.8731
3868.1	0.8739
3877.61	0.873
3887.12	0.8739
3896.62	0.872
3906.13	0.872
