Infrared Spectrum: 2,4-Dichloro-6-nitroaniline
Formula: C6 H4 Cl2 N2 O2
CAS: 2683-43-4
State: SOLUTION (2% CCl4 FOR 3800-1330, 2% CS2 FOR 1330-400) VS SOLVENT
Class: COBLENTZ II
Instrument: BECKMAN IR-9 (GRATING)
Instrument parameters: ORDER CHANGES: 670, 1200, 2000 CM^-^1
Sampling: TRANSMISSION
Path length: 0.012 CM, 0.011 CM
Resolution: 2
Origin: DOW CHEMICAL COMPANY
1/CM	TRANSMITTANCE
3800	0.8989
3791	0.8984
3782	0.8978
3773	0.8971
3764	0.8965
3755	0.8959
3746	0.8955
3737	0.895
3728	0.8944
3719	0.8935
3710	0.8925
3701	0.8921
3692	0.8923
3683	0.8924
3674	0.8927
3665	0.893
3656	0.8933
3647	0.8935
3638	0.8934
3629	0.8933
3620	0.8932
3611	0.8928
3602	0.8927
3593	0.8923
3584	0.8908
3575	0.8893
3566	0.8878
3557	0.8862
3548	0.8815
3539	0.8731
3530	0.8539
3521	0.6557
3512	0.6204
3503	0.7461
3494	0.8137
3485	0.8454
3476	0.8686
3467	0.8785
3458	0.8823
3449	0.8838
3440	0.8846
3431	0.8818
3422	0.8768
3413	0.8637
3404	0.7484
3395	0.5479
3386	0.6614
3377	0.8181
3368	0.8671
3359	0.88
3350	0.8842
3341	0.8857
3332	0.8863
3323	0.8867
3314	0.887
3305	0.8868
3296	0.8865
3287	0.8861
3278	0.8849
3269	0.8835
3260	0.8821
3251	0.8805
3242	0.879
3233	0.8774
3224	0.8761
3215	0.8741
3206	0.8715
3197	0.8689
3188	0.8652
3179	0.8611
3170	0.8557
3161	0.8508
3152	0.8485
3143	0.848
3134	0.8468
3125	0.8448
3116	0.8395
3107	0.8186
3098	0.8194
3089	0.8428
3080	0.854
3071	0.8563
3062	0.8534
3053	0.8496
3044	0.8491
3035	0.8495
3026	0.851
3017	0.8525
3008	0.8549
2999	0.8573
2990	0.8585
2981	0.859
2972	0.8589
2963	0.8587
2954	0.8591
2945	0.8595
2936	0.86
2927	0.8609
2918	0.862
2909	0.863
2900	0.864
2891	0.8646
2882	0.8634
2873	0.8617
2864	0.8598
2855	0.8578
2846	0.8568
2837	0.8594
2828	0.8623
2819	0.8645
2810	0.8665
2801	0.8684
2792	0.8697
2783	0.8709
2774	0.8718
2765	0.8728
2756	0.8735
2747	0.8735
2738	0.8728
2729	0.8717
2720	0.8707
2711	0.8707
2702	0.871
2693	0.8713
2684	0.8721
2675	0.8732
2666	0.8742
2657	0.8751
2648	0.876
2639	0.8771
2630	0.8782
2621	0.8792
2612	0.88
2603	0.8807
2594	0.8815
2585	0.8824
2576	0.883
2567	0.8831
2558	0.8828
2549	0.8824
2540	0.8818
2531	0.8833
2522	0.8832
2513	0.8807
2504	0.8792
2495	0.8792
2486	0.8805
2477	0.8818
2468	0.8823
2459	0.8818
2450	0.8809
2441	0.8796
2432	0.8768
2423	0.8745
2414	0.8728
2405	0.872
2396	0.8738
2387	0.8767
2378	0.8798
2369	0.8825
2360	0.8843
2351	0.8852
2342	0.8853
2333	0.8854
2324	0.8852
2315	0.8848
2306	0.8845
2297	0.884
2288	0.8842
2279	0.8844
2270	0.8848
2261	0.885
2252	0.8852
2243	0.8854
2234	0.8856
2225	0.8858
2216	0.8864
2207	0.887
2198	0.8877
2189	0.8883
2180	0.889
2171	0.8897
2162	0.8903
2153	0.8908
2144	0.8907
2135	0.8907
2126	0.8907
2117	0.8909
2108	0.8914
2099	0.8912
2090	0.891
2081	0.891
2072	0.8908
2063	0.8906
2054	0.8903
2045	0.8905
2036	0.8909
2027	0.8908
2018	0.8902
2009	0.889
2000	0.886
1991	0.8858
1982	0.8866
1973	0.8877
1964	0.888
1955	0.8877
1946	0.8874
1937	0.8871
1928	0.887
1919	0.887
1910	0.887
1901	0.8864
1892	0.8857
1883	0.885
1874	0.8843
1865	0.8836
1856	0.8825
1847	0.8816
1838	0.8806
1829	0.8811
1820	0.8815
1811	0.8798
1802	0.8775
1793	0.8756
1784	0.8615
1775	0.8565
1766	0.8683
1757	0.871
1748	0.8718
1739	0.8721
1730	0.8721
1721	0.8711
1712	0.8706
1703	0.8635
1694	0.8615
1685	0.8608
1676	0.8581
1667	0.8552
1658	0.8494
1649	0.8416
1640	0.8297
1631	0.7797
1622	0.3337
1613	0.7588
1604	0.8401
1595	0.8364
1586	0.7287
1577	0.7551
1568	0.6987
1559	0.6628
1550	0.7604
1541	0.646
1532	0.5667
1523	0.3541
1514	0.1753
1505	0.6193
1496	0.7948
1487	0.8175
1478	0.8244
1469	0.8165
1460	0.7565
1451	0.7981
1442	0.8225
1433	0.8183
1424	0.8517
1415	0.8393
1406	0.8164
1397	0.8067
1388	0.8532
1379	0.8573
1370	0.8452
1361	0.7284
1352	0.531
1343	0.7562
1334	0.7999
1325	0.7803
1316	0.6838
1307	0.8425
1298	0.842
1289	0.8235
1280	0.6469
1271	0.5337
1262	0.508
1253	0.6341
1244	0.711
1235	0.7464
1226	0.6187
1217	0.8065
1208	0.8539
1199	0.8574
1190	0.8596
1181	0.8611
1172	0.8531
1163	0.8378
1154	0.7401
1145	0.6318
1136	0.7942
1127	0.8218
1118	0.7699
1109	0.8251
1100	0.8264
1091	0.8105
1082	0.7589
1073	0.8275
1064	0.8425
1055	0.8621
1046	0.87
1037	0.8742
1028	0.8753
1019	0.8753
1010	0.8756
1001	0.8746
992	0.8748
983	0.8746
974	0.8739
965	0.8728
956	0.8714
947	0.8704
938	0.8693
929	0.8675
920	0.86
911	0.83
902	0.7455
893	0.8363
884	0.8038
875	0.8061
866	0.8293
857	0.7961
848	0.8245
839	0.8598
830	0.8604
821	0.8603
812	0.8567
803	0.8507
794	0.8477
785	0.8442
776	0.8352
767	0.665
758	0.6625
749	0.8188
740	0.8108
731	0.7558
722	0.7717
713	0.795
704	0.805
695	0.8158
686	0.8258
677	0.834
668	0.8428
659	0.8516
650	0.8607
641	0.8715
632	0.8757
623	0.8783
614	0.8712
605	0.8775
596	0.8847
587	0.887
578	0.8864
569	0.8803
560	0.741
551	0.8491
542	0.8606
533	0.8658
524	0.8724
515	0.8791
506	0.8848
497	0.887
488	0.8855
479	0.8793
470	0.8496
461	0.8721
452	0.8986
443	0.8984
434	0.9018
425	0.9086
416	0.9136
