Infrared Spectrum: (3-CHLORO PROPENYL)-BENZENE
Formula: C9 H9 Cl
CAS: 2687-12-9
State: LIQUID
Melting point: 8-10 C
Class: COBLENTZ
Instrument: Not specified, most likely a prism, grating, or hybrid spectrometer.
Sampling: TRANSMISSION
Path length: 0.003 CM
Resolution: 4
Origin: WYANDOTTE CHEMICALS CORP., WYANDOTTE, MICHIGAN, USA
MICROMETERS	TRANSMITTANCE
2.033	0.927
2.07272	0.927
2.11243	0.94
2.15215	0.935
2.19187	0.915
2.23159	0.917
2.2713	0.92
2.31102	0.927
2.35074	0.903
2.39046	0.888
2.43017	0.933
2.46989	0.936
2.50961	0.936
2.54932	0.936
2.58904	0.94
2.62876	0.941
2.66848	0.927
2.70819	0.92
2.74791	0.9
2.78763	0.882
2.82735	0.893
2.86706	0.893
2.90678	0.89
2.9465	0.888
2.98621	0.888
3.02593	0.887
3.06565	0.887
3.10537	0.883
3.14508	0.867
3.1848	0.839
3.22452	0.582
3.26424	0.374
3.30395	0.517
3.34367	0.535
3.38339	0.51
3.4231	0.676
3.46282	0.729
3.50254	0.761
3.54226	0.857
3.58197	0.864
3.62169	0.877
3.66141	0.887
3.70113	0.887
3.74084	0.888
3.78056	0.89
3.82028	0.89
3.85999	0.89
3.89971	0.89
3.93943	0.89
3.97915	0.892
4.01886	0.895
4.05858	0.897
4.0983	0.897
4.13802	0.898
4.17773	0.898
4.21745	0.893
4.25717	0.893
4.29688	0.89
4.3366	0.88
4.37632	0.893
4.41604	0.898
4.45575	0.903
4.49547	0.9
4.53519	0.9
4.57491	0.905
4.61462	0.917
4.65434	0.92
4.69406	0.923
4.73377	0.923
4.77349	0.927
4.81321	0.928
4.85293	0.928
4.89264	0.928
4.93236	0.928
4.97208	0.927
5.0118	0.915
5.05151	0.913
5.09123	0.88
5.13095	0.82
5.17066	0.771
5.21038	0.868
5.2501	0.892
5.28982	0.844
5.32953	0.786
5.36925	0.82
5.40897	0.895
5.44869	0.888
5.4884	0.862
5.52812	0.786
5.56784	0.761
5.60755	0.837
5.64727	0.842
5.68699	0.805
5.72671	0.786
5.76642	0.791
5.80614	0.792
5.84586	0.814
5.88557	0.812
5.92529	0.807
5.96501	0.8
6.00473	0.724
6.04444	0.688
6.08416	0.777
6.12388	0.796
6.1636	0.752
6.20331	0.543
6.24303	0.711
6.28275	0.681
6.32246	0.81
6.36218	0.849
6.4019	0.839
6.44162	0.829
6.48133	0.799
6.52105	0.807
6.56077	0.799
6.60049	0.694
6.6402	0.306
6.67992	0.369
6.71964	0.651
6.75935	0.741
6.79907	0.691
6.83879	0.318
6.87851	0.242
6.91822	0.22
6.95794	0.495
6.99766	0.696
7.03738	0.767
7.07709	0.791
7.11681	0.797
7.15653	0.762
7.19624	0.744
7.23596	0.757
7.27568	0.759
7.3154	0.749
7.35511	0.734
7.39483	0.729
7.43455	0.683
7.47427	0.618
7.51398	0.572
7.5537	0.545
7.59342	0.515
7.63313	0.379
7.67285	0.338
7.71257	0.431
7.75229	0.373
7.792	0.424
7.83172	0.456
7.87144	0.507
7.91116	0.495
7.95087	0.283
7.99059	0.106
8.03031	0.275
8.07002	0.469
8.10974	0.578
8.14946	0.618
8.18918	0.631
8.22889	0.598
8.26861	0.577
8.30833	0.578
8.34805	0.583
8.38776	0.638
8.42748	0.643
8.4672	0.601
8.50691	0.665
8.54663	0.679
8.58635	0.578
8.62607	0.48
8.66578	0.54
8.7055	0.691
8.74522	0.766
8.78494	0.799
8.82465	0.804
8.86437	0.799
8.90409	0.779
8.9438	0.751
8.98352	0.699
9.02324	0.665
9.06296	0.648
9.10267	0.633
9.14239	0.593
9.18211	0.514
9.22183	0.442
9.26154	0.454
9.30126	0.47
9.34098	0.456
9.38069	0.509
9.42041	0.588
9.46013	0.626
9.49985	0.648
9.53956	0.668
9.57928	0.676
9.619	0.661
9.65872	0.565
9.69843	0.426
9.73815	0.535
9.77787	0.605
9.81758	0.628
9.8573	0.638
9.89702	0.628
9.93674	0.608
9.97645	0.573
10.0162	0.601
10.0559	0.598
10.0956	0.515
10.1353	0.409
10.175	0.368
10.2148	0.334
10.2545	0.223
10.2942	0.106
10.3339	0.049
10.3736	0.046
10.4133	0.061
10.4531	0.16
10.4928	0.353
10.5325	0.512
10.5722	0.606
10.6119	0.653
10.6516	0.679
10.6914	0.693
10.7311	0.698
10.7708	0.696
10.8105	0.689
10.8502	0.665
10.89	0.625
10.9297	0.598
10.9694	0.583
11.0091	0.611
11.0488	0.65
11.0885	0.679
11.1283	0.689
11.168	0.681
11.2077	0.645
11.2474	0.611
11.2871	0.608
11.3268	0.65
11.3666	0.688
11.4063	0.711
11.446	0.719
11.4857	0.718
11.5254	0.709
11.5651	0.701
11.6049	0.706
11.6446	0.704
11.6843	0.693
11.724	0.678
11.7637	0.638
11.8034	0.593
11.8432	0.552
11.8829	0.527
11.9226	0.517
11.9623	0.505
12.002	0.517
12.0418	0.545
12.0815	0.558
12.1212	0.545
12.1609	0.55
12.2006	0.588
12.2403	0.595
12.2801	0.603
12.3198	0.59
12.3595	0.585
12.3992	0.583
12.4389	0.58
12.4786	0.58
12.5184	0.592
12.5581	0.603
12.5978	0.613
12.6375	0.61
12.6772	0.6
12.7169	0.59
12.7567	0.577
12.7964	0.565
12.8361	0.533
12.8758	0.497
12.9155	0.454
12.9552	0.402
12.995	0.353
13.0347	0.32
13.0744	0.286
13.1141	0.247
13.1538	0.2
13.1936	0.142
13.2333	0.094
13.273	0.067
13.3127	0.056
13.3524	0.059
13.3921	0.059
13.4319	0.064
13.4716	0.077
13.5113	0.091
13.551	0.109
13.5907	0.122
13.6304	0.132
13.6702	0.139
13.7099	0.14
13.7496	0.159
13.7893	0.165
13.829	0.177
13.8687	0.19
13.9085	0.2
13.9482	0.203
13.9879	0.212
14.0276	0.21
14.0673	0.212
14.107	0.21
14.1468	0.199
14.1865	0.175
14.2262	0.162
14.2659	0.14
14.3056	0.131
14.3454	0.126
14.3851	0.131
14.4248	0.137
14.4645	0.144
14.5042	0.152
14.5439	0.177
14.5837	0.2
14.6234	0.23
14.6631	0.243
14.7028	0.258
14.7425	0.268
14.7822	0.276
14.822	0.29
14.8617	0.296
14.9014	0.313
14.9411	0.334
14.9808	0.359
15.0205	0.401
15.0603	0.441
15.1	0.447
15.1397	0.429
15.1794	0.449
15.2191	0.494
15.2589	0.529
15.2986	0.558
15.3383	0.583
15.378	0.608
15.4177	0.626
15.4574	0.638
15.4972	0.655
15.5369	0.663
15.5766	0.666
15.6163	0.669
15.656	0.681
15.6957	0.686
15.7355	0.691
15.7752	0.698
15.8149	0.694
15.8546	0.699
15.8943	0.701
15.934	0.699
15.9738	0.699
