Infrared Spectrum: ETHANOL, 2-(HEPTYLTHIO)-
Formula: C9 H20 O S
CAS: 26901-97-3
State: SOLUTION (10% CCl4 FOR 3800-1330, 10% CS2 FOR 1330-400 CM^-^1))
Class: COBLENTZ III
Instrument: BECKMAN IR-9 (GRATING)
Instrument parameters: ORDER CHANGES: 670, 1200, 2000 CM^-^1
Sampling: TRANSMISSION
Path length: 0.011 CM, 0.011 CM
Resolution: 2
Origin: DOW CHEMICAL COMPANY
1/CM	TRANSMITTANCE
404	0.214
413	0.2535
422	0.4442
431	0.6027
440	0.688
449	0.7299
458	0.7625
467	0.7918
476	0.8122
485	0.828
494	0.8421
503	0.8662
512	0.8967
521	0.9054
530	0.9111
539	0.9143
548	0.9174
557	0.9203
566	0.9216
575	0.9225
584	0.9247
593	0.9271
602	0.93
611	0.9316
620	0.9333
629	0.931
638	0.921
647	0.9005
656	0.8718
665	0.8883
674	0.9318
683	0.9491
692	0.952
701	0.9531
710	0.9434
719	0.8942
728	0.8151
737	0.8895
746	0.9142
755	0.9291
764	0.9318
773	0.9316
782	0.9471
791	0.9586
800	0.9789
809	0.9868
818	0.9864
827	0.9788
836	0.9621
845	0.9275
854	0.854
863	0.8286
872	0.8567
881	0.8918
890	0.9302
899	0.9485
908	0.9591
917	0.9706
926	0.8741
935	0.8068
944	0.903
953	0.9549
962	0.9691
971	0.9718
980	0.9335
989	0.8764
998	0.8209
1007	0.7541
1016	0.7057
1025	0.7012
1034	0.6407
1043	0.5353
1052	0.4616
1061	0.2627
1070	0.4238
1079	0.6511
1088	0.8054
1097	0.8648
1106	0.8936
1115	0.896
1124	0.9073
1133	0.9256
1142	0.9334
1151	0.92
1160	0.8925
1169	0.8501
1178	0.7725
1187	0.8484
1196	0.8834
1205	0.8866
1214	0.8923
1223	0.8734
1232	0.8442
1241	0.8449
1250	0.8324
1259	0.8366
1268	0.8262
1277	0.6901
1286	0.7184
1295	0.7584
1304	0.7792
1313	0.804
1322	0.8225
1331	0.8157
1340	0.8011
1349	0.8256
1358	0.8368
1367	0.8167
1376	0.7698
1385	0.6395
1394	0.6769
1403	0.7468
1412	0.6893
1421	0.7243
1430	0.763
1439	0.7339
1448	0.6908
1457	0.5694
1466	0.5248
1475	0.7391
1484	0.8399
1493	0.8417
1502	0.8103
1511	0.7658
1520	0.7215
1529	0.6739
1538	0.6126
1547	0.5205
1556	0.5154
1565	0.5893
1574	0.656
1583	0.6812
1592	0.7333
1601	0.8405
1610	0.8838
1619	0.9045
1628	0.9175
1637	0.9281
1646	0.9356
1655	0.9413
1664	0.9471
1673	0.9513
1682	0.9558
1691	0.9609
1700	0.9659
1709	0.9686
1718	0.9668
1727	0.9643
1736	0.9643
1745	0.9659
1754	0.9695
1763	0.9765
1772	0.98
1781	0.9818
1790	0.9831
1799	0.984
1808	0.984
1817	0.9838
1826	0.9827
1835	0.9815
1844	0.9816
1853	0.9823
1862	0.9838
1871	0.9858
1880	0.988
1889	0.9894
1898	0.9894
1907	0.9893
1916	0.9889
1925	0.9878
1934	0.9868
1943	0.9859
1952	0.9847
1961	0.9835
1970	0.9823
1979	0.9816
1988	0.9811
1997	0.9781
2006	0.9637
2015	0.9623
2024	0.9628
2033	0.9631
2042	0.9631
2051	0.9635
2060	0.9653
2069	0.9671
2078	0.9703
2087	0.9737
2096	0.975
2105	0.9757
2114	0.9762
2123	0.9759
2132	0.9755
2141	0.9751
2150	0.9747
2159	0.9742
2168	0.9739
2177	0.9736
2186	0.9734
2195	0.9737
2204	0.9744
2213	0.9751
2222	0.9752
2231	0.9746
2240	0.974
2249	0.9699
2258	0.9659
2267	0.9611
2276	0.957
2285	0.9558
2294	0.9578
2303	0.9586
2312	0.9594
2321	0.9613
2330	0.9648
2339	0.9675
2348	0.9673
2357	0.9723
2366	0.9789
2375	0.9818
2384	0.9777
2393	0.9752
2402	0.9743
2411	0.9746
2420	0.9752
2429	0.9757
2438	0.9756
2447	0.9754
2456	0.9753
2465	0.975
2474	0.9748
2483	0.9737
2492	0.9725
2501	0.9706
2510	0.9681
2519	0.966
2528	0.9646
2537	0.9636
2546	0.9631
2555	0.9627
2564	0.9625
2573	0.9625
2582	0.9618
2591	0.9602
2600	0.9587
2609	0.9571
2618	0.9552
2627	0.9532
2636	0.9512
2645	0.9491
2654	0.9468
2663	0.9444
2672	0.9421
2681	0.9405
2690	0.9408
2699	0.9413
2708	0.9394
2717	0.9344
2726	0.9277
2735	0.9209
2744	0.9246
2753	0.9275
2762	0.9245
2771	0.9181
2780	0.9094
2789	0.8985
2798	0.8853
2807	0.8652
2816	0.8203
2825	0.7704
2834	0.7318
2843	0.6054
2852	0.3364
2861	0.1792
2870	0.2922
2879	0.3209
2888	0.4471
2897	0.397
2906	0.2754
2915	0.1538
2924	0.0385
2933	0.0214
2942	0.0816
2951	0.1441
2960	0.1171
2969	0.3514
2978	0.7006
2987	0.7822
2996	0.818
3005	0.8417
3014	0.8585
3023	0.8752
3032	0.8895
3041	0.9003
3050	0.9062
3059	0.9093
3068	0.9127
3077	0.9144
3086	0.9147
3095	0.914
3104	0.9136
3113	0.9115
3122	0.9083
3131	0.9046
3140	0.9002
3149	0.8955
3158	0.8887
3167	0.8817
3176	0.875
3185	0.8681
3194	0.8603
3203	0.8525
3212	0.8447
3221	0.836
3230	0.8275
3239	0.8192
3248	0.8111
3257	0.8028
3266	0.7946
3275	0.7861
3284	0.7778
3293	0.7694
3302	0.7618
3311	0.7544
3320	0.748
3329	0.7426
3338	0.7403
3347	0.7384
3356	0.7375
3365	0.7369
3374	0.7368
3383	0.7375
3392	0.739
3401	0.741
3410	0.7434
3419	0.7457
3428	0.7484
3437	0.7508
3446	0.7532
3455	0.7553
3464	0.7575
3473	0.7606
3482	0.7636
3491	0.7668
3500	0.7703
3509	0.7745
3518	0.7798
3527	0.7875
3536	0.7975
3545	0.8107
3554	0.8273
3563	0.8447
3572	0.8653
3581	0.8647
3590	0.8796
3599	0.8971
3608	0.8956
3617	0.8849
3626	0.8712
3635	0.8561
3644	0.8682
3653	0.9274
3662	0.9432
3671	0.9456
3680	0.9471
3689	0.9487
3698	0.9516
3707	0.9542
3716	0.957
3725	0.9603
3734	0.9628
3743	0.9651
3752	0.9674
3761	0.9695
3770	0.9718
3779	0.974
3788	0.976
3797	0.9778
