Infrared Spectrum: 1,2-Diiodotetrafluorobenzene
Formula: C 6 F 4 I 2
CAS: 2708-97-6
State: solid
Instrument: Bruker Tensor 37 FTIR
Resolution: 0.96450084
Origin: Pacific Northwest National Laboratory Under IARPA Contract
1/cm	Reflectance
7498.99	0.86995
7481.63	0.864284
7464.27	0.862907
7446.91	0.865494
7429.55	0.863256
7412.19	0.862151
7394.84	0.86055
7377.48	0.861166
7360.12	0.858985
7342.76	0.857449
7325.4	0.857641
7308.04	0.852097
7290.68	0.851936
7273.32	0.849673
7255.96	0.852062
7238.6	0.847793
7221.24	0.850115
7203.88	0.848341
7186.52	0.850906
7169.16	0.848745
7151.8	0.850296
7134.44	0.850713
7117.08	0.847233
7099.72	0.847887
7082.36	0.849193
7065	0.849372
7047.64	0.84805
7030.28	0.847092
7012.92	0.850193
6995.56	0.848836
6978.2	0.848818
6960.84	0.849154
6943.48	0.848209
6926.12	0.84715
6908.76	0.846383
6891.4	0.846841
6874.04	0.848309
6856.68	0.847055
6839.32	0.847537
6821.96	0.845924
6804.6	0.846847
6787.24	0.84742
6769.88	0.842953
6752.52	0.841949
6735.16	0.841702
6717.8	0.839261
6700.44	0.836233
6683.08	0.832658
6665.72	0.832122
6648.36	0.830388
6631	0.828111
6613.64	0.827353
6596.28	0.826144
6578.92	0.826711
6561.56	0.825496
6544.2	0.820775
6526.85	0.821153
6509.49	0.820136
6492.13	0.818058
6474.77	0.814743
6457.41	0.813891
6440.05	0.812273
6422.69	0.808341
6405.33	0.804067
6387.97	0.794397
6370.61	0.781358
6353.25	0.773066
6335.89	0.772923
6318.53	0.768073
6301.17	0.766818
6283.81	0.767341
6266.45	0.770753
6249.09	0.768337
6231.73	0.768884
6214.37	0.768273
6197.01	0.766116
6179.65	0.757051
6162.29	0.734038
6144.93	0.736683
6127.57	0.747271
6110.21	0.737263
6092.85	0.720311
6075.49	0.728759
6058.13	0.742166
6040.77	0.743733
6023.41	0.735693
6006.05	0.726854
5988.69	0.70203
5971.33	0.706285
5953.97	0.710236
5936.61	0.686858
5919.25	0.626337
5901.89	0.651422
5884.53	0.687602
5867.17	0.65888
5849.81	0.645503
5832.45	0.641692
5815.09	0.606863
5797.73	0.624172
5780.37	0.642702
5763.01	0.610364
5745.65	0.547763
5728.29	0.544381
5710.93	0.605491
5693.57	0.577577
5676.21	0.537722
5658.86	0.554487
5641.5	0.595216
5624.14	0.545955
5606.78	0.538451
5589.42	0.522477
5572.06	0.456465
5554.7	0.410549
5537.34	0.362069
5519.98	0.33488
5502.62	0.316999
5485.26	0.307657
5467.9	0.296276
5450.54	0.280316
5433.18	0.266341
5415.82	0.266546
5398.46	0.261857
5381.1	0.250628
5363.74	0.23139
5346.38	0.239854
5329.02	0.245194
5311.66	0.222935
5294.3	0.148206
5276.94	0.193178
5259.58	0.202884
5242.22	0.140071
5224.86	0.171384
5207.5	0.158498
5190.14	0.140282
5172.78	0.152535
5155.42	0.199084
5138.06	0.225197
5120.7	0.166747
5103.34	0.116153
5085.98	0.221068
5068.62	0.140886
5051.26	0.112275
5033.9	0.101825
5016.54	0.10997
4999.18	0.109408
4981.82	0.131753
4964.46	0.14107
4947.1	0.201198
4929.74	0.107347
4912.38	0.202771
4895.02	0.192119
4877.66	0.115484
4860.3	0.103875
4842.94	0.229473
4825.58	0.243677
4808.22	0.177758
4790.86	0.211408
4773.51	0.198218
4756.15	0.213277
4738.79	0.268838
4721.43	0.250927
4704.07	0.183335
4686.71	0.160563
4669.35	0.158183
4651.99	0.158282
4634.63	0.140283
4617.27	0.150704
4599.91	0.173855
4582.55	0.126022
4565.19	0.0645839
4547.83	0.0329182
4530.47	0.0507266
4513.11	0.0297009
4495.75	0.0800104
4478.39	0.036062
4461.03	0.0502755
4443.67	0.0784056
4426.31	0.0692006
4408.95	0.043442
4391.59	0.0835593
4374.23	0.0445343
4356.87	0.0805833
4339.51	0.1175
4322.15	0.103343
4304.79	0.0369738
4287.43	0.0555864
4270.07	0.0440116
4252.71	0.0438925
4235.35	0.0737641
4217.99	0.153423
4200.63	0.179854
4183.27	0.164975
4165.91	0.0850836
4148.55	0.0573756
4131.19	0.035597
4113.83	0.110256
4096.47	0.129256
4079.11	0.198004
4061.75	0.138622
4044.39	0.864168
4027.03	0.86089
4009.67	0.854536
3992.31	0.85368
3974.95	0.854229
3957.59	0.850397
3940.23	0.849858
3922.87	0.848888
3905.52	0.849658
3888.16	0.849329
3870.8	0.843801
3853.44	0.847125
3836.08	0.840469
3818.72	0.836209
3801.36	0.839676
3784	0.836544
3766.64	0.834255
3749.28	0.834253
3731.92	0.838235
3714.56	0.834904
3697.2	0.838734
3679.84	0.836827
3662.48	0.839372
3645.12	0.83415
3627.76	0.835713
3610.4	0.837402
3593.04	0.837927
3575.68	0.838182
3558.32	0.8367
3540.96	0.835849
3523.6	0.837071
3506.24	0.83795
3488.88	0.834665
3471.52	0.835637
3454.16	0.832463
3436.8	0.834197
3419.44	0.835321
3402.08	0.835343
3384.72	0.830868
3367.36	0.835283
3350	0.831351
3332.64	0.834696
3315.28	0.830771
3297.92	0.827737
3280.56	0.826528
3263.2	0.824312
3245.84	0.82261
3228.48	0.818062
3211.12	0.818073
3193.76	0.814503
3176.4	0.814567
3159.04	0.813182
3141.68	0.812117
3124.32	0.811945
3106.96	0.811619
3089.6	0.807328
3072.24	0.806535
3054.88	0.806195
3037.53	0.799886
3020.17	0.79696
3002.81	0.798136
2985.45	0.796027
2968.09	0.790767
2950.73	0.783284
2933.37	0.769622
2916.01	0.753406
2898.65	0.746161
2881.29	0.745416
2863.93	0.742886
2846.57	0.742187
2829.21	0.745051
2811.85	0.747739
2794.49	0.746961
2777.13	0.74744
2759.77	0.74848
2742.41	0.745955
2725.05	0.732845
2707.69	0.706258
2690.33	0.725613
2672.97	0.729645
2655.61	0.707119
2638.25	0.711481
2620.89	0.71238
2603.53	0.726632
2586.17	0.724079
2568.81	0.712942
2551.45	0.706323
2534.09	0.674981
2516.73	0.690406
2499.37	0.689907
2482.01	0.644981
2464.65	0.616079
2447.29	0.643715
2429.93	0.666504
2412.57	0.64004
2395.21	0.603757
2377.85	0.627422
2360.49	0.590642
2343.13	0.59974
2325.77	0.608108
2308.41	0.590551
2291.05	0.544127
2273.69	0.544453
2256.33	0.574239
2238.97	0.54722
2221.61	0.518668
2204.25	0.533904
2186.89	0.565894
2169.53	0.532339
2152.18	0.492674
2134.82	0.467324
2117.46	0.39763
2100.1	0.350874
2082.74	0.310573
2065.38	0.281694
2048.02	0.268104
2030.66	0.261904
2013.3	0.252029
1995.94	0.239194
1978.58	0.238636
1961.22	0.234444
1943.86	0.228811
1926.5	0.228441
1909.14	0.211486
1891.78	0.223991
1874.42	0.226268
1857.06	0.169763
1839.7	0.156532
1822.34	0.18294
1804.98	0.200353
1787.62	0.148037
1770.26	0.12525
1752.9	0.164538
1735.54	0.117939
1718.18	0.170637
1700.82	0.16069
1683.46	0.21096
1666.1	0.130137
1648.74	0.136037
1631.38	0.199802
1614.02	0.126145
1596.66	0.116289
1579.3	0.0751379
1561.94	0.093904
1544.58	0.151639
1527.22	0.176132
1509.86	0.149314
1492.5	0.200496
1475.14	0.149143
1457.78	0.169025
1440.42	0.143251
1423.06	0.159641
1405.7	0.128542
1388.34	0.249453
1370.98	0.189505
1353.62	0.162816
1336.26	0.186088
1318.9	0.159358
1301.54	0.217795
1284.19	0.176299
1266.83	0.22838
1249.47	0.20844
1232.11	0.184467
1214.75	0.159758
1197.39	0.11678
1180.03	0.153411
1162.67	0.150156
1145.31	0.126382
1127.95	0.11716
1110.59	0.0409489
1093.23	0.038387
1075.87	0.0329836
1058.51	0.0249318
1041.15	0.040759
1023.79	0.0842412
1006.43	0.0595677
989.068	0.0804025
971.709	0.0470701
954.349	0.0352099
936.989	0.0926422
919.629	0.0735504
902.269	0.106777
884.91	0.103478
867.55	0.0691415
850.19	0.042067
832.83	0.055239
815.47	0.0418599
798.111	0.059435
780.751	0.0950983
763.391	0.135095
746.031	0.172763
728.671	0.154058
711.312	0.0478328
693.952	0.0482544
676.592	0.0415168
659.232	0.149623
641.872	0.1635
624.513	0.21231
607.153	0.222805
