Infrared Spectrum: BENZOFURAN
Formula: C8 H6 O
CAS: 271-89-6
State: SOLUTION (10% IN CCl4 FOR 3800-1335 CM^-^1, 10% IN CS2 FOR 1335-420 CM^-^1)
Boiling point: 168 C
Class: COBLENTZ III
Instrument: DOW KBr FOREPRISM-GRATING
Instrument parameters: GRATING BLAZED AT 3.5, 12.0, 20.0 MICRONS AND CHANGED AT 5.0, 7.5, 14.9 MICRONS
Sampling: TRANSMISSION
Path length: 0.012 CM, 0.011 CM
Resolution: 4
Origin: DOW CHEMICAL COMPANY
1/CM	TRANSMITTANCE
414.961	0.954
423.762	0.962
432.563	0.973
441.364	0.981
450.165	0.997
458.965	1.006
467.766	1.026
476.567	1.038
485.368	1.051
494.169	1.047
502.97	1.018
511.771	1.072
520.572	1.067
529.372	1.058
538.173	0.927
546.974	1.066
555.775	1.06
564.576	1.002
573.377	1.047
582.178	1.06
590.979	1.066
599.779	1.054
608.58	0.81
617.381	1.066
626.182	1.052
634.983	1.033
643.784	1.002
652.585	0.983
661.386	1.022
670.187	1.023
678.987	1.016
687.788	0.912
696.589	1.002
705.39	0.98
714.191	0.954
722.992	0.84
731.793	0.303
740.594	0.131
749.394	0
758.195	0.322
766.996	0.004
775.797	0.716
784.598	0.889
793.399	0.933
802.2	0.955
811.001	0.936
819.802	0.957
828.602	0.945
837.403	0.862
846.204	0.757
855.005	0.533
863.806	0.2861
872.607	0.843
881.408	0.896
890.209	0.948
899.009	0.551
907.81	0.975
916.611	0.976
925.412	0.767
934.213	0.926
943.014	1.004
951.815	0.998
960.616	1.001
969.416	1
978.217	1.006
987.018	0.984
995.819	0.961
1004.62	0.642
1013.42	0.724
1022.22	0.8
1031.02	0.144
1039.82	0.875
1048.62	0.986
1057.43	1.001
1066.23	0.975
1075.03	0.977
1083.83	0.975
1092.63	0.909
1101.43	0.319
1110.23	0.799
1119.03	0.778
1127.83	0.078
1136.63	0.822
1145.43	0.797
1154.23	0.699
1163.04	0.44
1171.84	0.336
1180.64	0.68
1189.44	0.867
1198.24	0.98
1207.04	1.005
1215.84	1.004
1224.64	1
1233.44	0.962
1242.24	0.639
1251.04	0.072
1259.85	0.567
1268.65	0.803
1277.45	0.976
1286.25	0.998
1295.05	1
1303.85	0.975
1312.65	0.957
1321.45	0.912
1330.25	0.807
1339.05	0.832
1347.85	0.678
1356.66	0.855
1365.46	0.954
1374.26	0.986
1383.06	1
1391.86	0.988
1400.66	0.98
1409.46	0.962
1418.26	0.85
1427.06	0.851
1435.86	0.721
1444.66	0.753
1453.46	0.054
1462.27	0.781
1471.07	0.699
1479.87	0.707
1488.67	0.821
1497.47	0.639
1506.27	0.721
1515.07	0.706
1523.87	0.641
1532.67	0.389
1541.47	0.3
1550.27	0.458
1559.08	0.531
1567.88	0.602
1576.68	0.545
1585.48	0.511
1594.28	0.541
1603.08	0.686
1611.88	0.772
1620.68	0.759
1629.48	0.889
1638.28	0.957
1647.08	0.97
1655.89	0.961
1664.69	0.941
1673.49	0.923
1682.29	0.962
1691.09	0.943
1699.89	0.872
1708.69	0.872
1717.49	0.943
1726.29	0.972
1735.09	0.981
1743.89	0.99
1752.69	0.979
1761.5	0.965
1770.3	0.886
1779.1	0.898
1787.9	0.948
1796.7	0.979
1805.5	0.973
1814.3	0.932
1823.1	0.977
1831.9	0.984
1840.7	0.984
1849.5	0.972
1858.31	0.95
1867.11	0.966
1875.91	0.972
1884.71	0.939
1893.51	0.855
1902.31	0.954
1911.11	0.98
1919.91	0.969
1928.71	0.894
1937.51	0.954
1946.31	0.991
1955.12	0.995
1963.92	0.994
1972.72	0.994
1981.52	0.986
1990.32	0.979
1999.12	0.993
2007.92	0.9865
2016.72	0.994
2025.52	0.988
2034.32	0.98
2043.12	0.997
2051.92	0.9908
2060.73	0.9589
2069.53	0.9866
2078.33	1.0071
2087.13	1.002
2095.93	1.0044
2104.73	0.9888
2113.53	0.9936
2122.33	1.002
2131.13	1
2139.93	1.002
2148.73	0.9946
2157.54	0.965
2166.34	1.003
2175.14	1.005
2183.94	0.998
2192.74	1.002
2201.54	1.0008
2210.34	0.9984
2219.14	1.002
2227.94	0.9904
2236.74	0.9936
2245.54	0.9873
2254.35	0.9587
2263.15	0.9786
2271.95	0.9703
2280.75	0.968
2289.55	0.969
2298.35	0.9693
2307.15	0.9617
2315.95	0.9776
2324.75	1.006
2333.55	1.002
2342.35	1.001
2351.15	1.001
2359.96	1.0013
2368.76	1
2377.56	0.997
2386.36	0.9885
2395.16	0.979
2403.96	0.9993
2412.76	0.9932
2421.56	0.986
2430.36	0.994
2439.16	0.994
2447.96	0.9792
2456.77	0.995
2465.57	0.9906
2474.37	0.972
2483.17	0.972
2491.97	0.9902
2500.77	0.9836
2509.57	0.9851
2518.37	0.988
2527.17	0.99
2535.97	0.9975
2544.77	0.9953
2553.57	0.9863
2562.38	0.972
2571.18	0.9864
2579.98	0.9949
2588.78	0.9953
2597.58	0.993
2606.38	0.99
2615.18	0.9869
2623.98	0.9835
2632.78	0.9932
2641.58	0.9831
2650.38	0.9773
2659.19	0.9662
2667.99	0.993
2676.79	0.9842
2685.59	0.9718
2694.39	0.983
2703.19	0.9802
2711.99	0.9761
2720.79	0.9908
2729.59	0.993
2738.39	0.9879
2747.19	0.995
2756	0.995
2764.8	0.9981
2773.6	0.994
2782.4	0.994
2791.2	0.991
2800	0.993
2808.8	0.998
2817.6	1.001
2826.4	1.001
2835.2	1
2844	0.9999
2852.8	0.991
2861.61	0.993
2870.41	0.995
2879.21	0.994
2888.01	0.9939
2896.81	0.9929
2905.61	0.9879
2914.41	0.994
2923.21	0.9867
2932.01	0.9727
2940.81	0.9754
2949.61	0.99
2958.42	0.988
2967.22	0.988
2976.02	0.987
2984.82	0.986
2993.62	0.9799
3002.42	0.9655
3011.22	0.9391
3020.02	0.9016
3028.82	0.8459
3037.62	0.6275
3046.42	0.7745
3055.23	0.65
3064.03	0.6541
3072.83	0.7027
3081.63	0.7405
3090.43	0.7526
3099.23	0.8997
3108.03	0.9339
3116.83	0.894
3125.63	0.925
3134.43	0.9423
3143.23	0.95
3152.03	0.9542
3160.84	0.9699
3169.64	0.98
3178.44	0.9795
3187.24	0.99
3196.04	0.991
3204.84	0.9932
3213.64	1
3222.44	0.9995
3231.24	1.002
3240.04	1.004
3248.84	1.0053
3257.65	1.006
3266.45	1.0066
3275.25	1.0047
3284.05	1.004
3292.85	1.005
3301.65	1.005
3310.45	1.0047
3319.25	1.0057
3328.05	1.006
3336.85	1.008
3345.65	1.006
3354.46	1.004
3363.26	1.0027
3372.06	1.006
3380.86	1.006
3389.66	1.005
3398.46	1.004
3407.26	1.002
3416.06	1.002
3424.86	1.004
3433.66	1.004
3442.46	1.004
3451.26	1.004
3460.07	1.004
3468.87	1.002
3477.67	1.001
3486.47	1.001
3495.27	1.0014
3504.07	1
3512.87	1
3521.67	0.9961
3530.47	0.9921
3539.27	0.9835
3548.07	0.9795
3556.88	0.977
3565.68	0.98
3574.48	0.98
3583.28	0.978
3592.08	0.9666
3600.88	0.9255
3609.68	0.9055
3618.48	0.9586
3627.28	0.989
3636.08	0.998
3644.88	1
3653.69	1
3662.49	1
3671.29	0.998
3680.09	0.997
3688.89	0.998
3697.69	1
3706.49	1.001
3715.29	1.0031
3724.09	1.0046
3732.89	1.005
3741.69	1.0044
3750.49	1.004
3759.3	1.002
3768.1	1.0014
3776.9	1.001
3785.7	1.001
3794.5	1.001
3803.3	1.002
