Infrared Spectrum: Benzonitrile, 3,5-bis(trifluoromethyl)-
Formula: C9 H3 F6 N
CAS: 27126-93-8
State: LIQUID (NEAT)
Class: COBLENTZ III
Instrument: DOW KBr FOREPRISM-GRATING
Instrument parameters: BLAZED AT 3.5, 12.0, 20.0 MICRON AND CHANGED AT 5.0, 7.5, 14.9 MICRON
Sampling: TRANSMISSION
Path length: CAPILLARY (BETWEEN KBr PLATES)
Resolution: 2
Origin: DOW CHEMICAL COMPANY
1/CM	TRANSMITTANCE
3798	0.8377
3789	0.8377
3780	0.8378
3771	0.8378
3762	0.8378
3753	0.8389
3744	0.8401
3735	0.8415
3726	0.8428
3717	0.8424
3708	0.8398
3699	0.8365
3690	0.8356
3681	0.8359
3672	0.8368
3663	0.8375
3654	0.8378
3645	0.8381
3636	0.8384
3627	0.8385
3618	0.8386
3609	0.8386
3600	0.8386
3591	0.8386
3582	0.8384
3573	0.8378
3564	0.8375
3555	0.837
3546	0.8367
3537	0.836
3528	0.8354
3519	0.8346
3510	0.8339
3501	0.8332
3492	0.8328
3483	0.8321
3474	0.8318
3465	0.8313
3456	0.831
3447	0.8307
3438	0.831
3429	0.8317
3420	0.8321
3411	0.8331
3402	0.8355
3393	0.8377
3384	0.8397
3375	0.8416
3366	0.8432
3357	0.8447
3348	0.8463
3339	0.8473
3330	0.8483
3321	0.8494
3312	0.8502
3303	0.8507
3294	0.8512
3285	0.8517
3276	0.8518
3267	0.8513
3258	0.8509
3249	0.8503
3240	0.85
3231	0.8497
3222	0.8494
3213	0.8491
3204	0.8489
3195	0.8486
3186	0.8482
3177	0.8475
3168	0.8467
3159	0.8445
3150	0.8399
3141	0.8324
3132	0.821
3123	0.7917
3114	0.7501
3105	0.7101
3096	0.6933
3087	0.7387
3078	0.7649
3069	0.7678
3060	0.7801
3051	0.8125
3042	0.8353
3033	0.8459
3024	0.8493
3015	0.8489
3006	0.8444
2997	0.8438
2988	0.8454
2979	0.8465
2970	0.8475
2961	0.8478
2952	0.8464
2943	0.8371
2934	0.8315
2925	0.833
2916	0.8383
2907	0.8424
2898	0.8465
2889	0.8501
2880	0.8524
2871	0.8542
2862	0.8533
2853	0.8533
2844	0.8541
2835	0.8559
2826	0.8573
2817	0.8582
2808	0.8589
2799	0.8589
2790	0.8585
2781	0.8577
2772	0.8575
2763	0.8581
2754	0.8591
2745	0.8601
2736	0.8611
2727	0.8621
2718	0.8635
2709	0.8648
2700	0.8661
2691	0.8673
2682	0.8664
2673	0.8627
2664	0.8585
2655	0.8577
2646	0.8599
2637	0.8621
2628	0.8642
2619	0.8653
2610	0.8665
2601	0.8675
2592	0.8671
2583	0.8654
2574	0.8638
2565	0.8624
2556	0.863
2547	0.8635
2538	0.8642
2529	0.865
2520	0.8659
2511	0.8663
2502	0.8665
2493	0.8667
2484	0.8665
2475	0.866
2466	0.8657
2457	0.8652
2448	0.865
2439	0.8647
2430	0.8645
2421	0.8639
2412	0.8632
2403	0.8625
2394	0.8625
2385	0.8634
2376	0.8642
2367	0.8651
2358	0.8659
2349	0.8666
2340	0.8671
2331	0.8667
2322	0.8571
2313	0.8543
2304	0.8528
2295	0.8509
2286	0.8455
2277	0.8402
2268	0.8424
2259	0.7464
2250	0.7426
2241	0.8478
2232	0.8547
2223	0.8606
2214	0.8659
2205	0.8671
2196	0.8682
2187	0.8681
2178	0.8678
2169	0.8675
2160	0.8674
2151	0.8671
2142	0.8668
2133	0.8667
2124	0.8665
2115	0.8668
2106	0.8671
2097	0.8673
2088	0.8675
2079	0.8678
2070	0.8678
2061	0.8675
2052	0.8673
2043	0.867
2034	0.8667
2025	0.8658
2016	0.8638
2007	0.8613
1998	0.852
1989	0.8432
1980	0.845
1971	0.8468
1962	0.8455
1953	0.8385
1944	0.8446
1935	0.8471
1926	0.8475
1917	0.8467
1908	0.8441
1899	0.8421
1890	0.8392
1881	0.8359
1872	0.8328
1863	0.8275
1854	0.8214
1845	0.8185
1836	0.8125
1827	0.8095
1818	0.8247
1809	0.8324
1800	0.8366
1791	0.841
1782	0.8441
1773	0.8464
1764	0.8464
1755	0.8475
1746	0.8478
1737	0.8478
1728	0.8432
1719	0.8325
1710	0.8344
1701	0.842
1692	0.8455
1683	0.8466
1674	0.8468
1665	0.8445
1656	0.8378
1647	0.8345
1638	0.8282
1629	0.7915
1620	0.6975
1611	0.8121
1602	0.8312
1593	0.8425
1584	0.847
1575	0.8418
1566	0.8431
1557	0.8449
1548	0.8471
1539	0.8482
1530	0.8488
1521	0.8398
1512	0.8416
1503	0.8443
1494	0.8448
1485	0.8273
1476	0.8082
1467	0.7318
1458	0.7505
1449	0.7728
1440	0.8167
1431	0.8247
1422	0.8257
1413	0.8118
1404	0.7999
1395	0.7401
1386	0.3694
1377	0.2584
1368	0.4512
1359	0.655
1350	0.7369
1341	0.7587
1332	0.7749
1323	0.6898
1314	0.7107
1305	0.4592
1296	0.1505
1287	0.0629
1278	0.1018
1269	0.4983
1260	0.6307
1251	0.7112
1242	0.7242
1233	0.6726
1224	0.6279
1215	0.5538
1206	0.3063
1197	0.1806
1188	0.108
1179	0.0908
1170	0.1267
1161	0.1232
1152	0.0918
1143	0.0757
1134	0.0863
1125	0.3183
1116	0.4174
1107	0.5791
1098	0.7032
1089	0.7831
1080	0.8126
1071	0.8283
1062	0.8378
1053	0.8439
1044	0.8482
1035	0.8521
1026	0.8545
1017	0.8562
1008	0.8435
999	0.8444
990	0.8563
981	0.8586
972	0.8571
963	0.853
954	0.8447
945	0.8283
936	0.7991
927	0.7701
918	0.6936
909	0.3357
900	0.7134
891	0.3404
882	0.7949
873	0.8332
864	0.8284
855	0.6224
846	0.7728
837	0.8296
828	0.8336
819	0.8467
810	0.8528
801	0.855
792	0.8542
783	0.8554
774	0.8568
765	0.8566
756	0.8557
747	0.8552
738	0.8524
729	0.8255
720	0.7575
711	0.8305
702	0.4698
693	0.7522
684	0.1556
675	0.7978
666	0.8061
657	0.8118
648	0.8133
639	0.7955
630	0.6701
621	0.7972
612	0.8044
603	0.8047
594	0.8011
585	0.7961
576	0.7911
567	0.7892
558	0.7861
549	0.7717
540	0.7395
531	0.7698
522	0.781
513	0.7851
504	0.7862
495	0.7821
486	0.7738
477	0.7591
468	0.7512
