Infrared Spectrum: 2,5-Dimethyl-1,3,4-thiadiazole
Formula: C4 H6 N2 S
CAS: 27464-82-0
State: SOLUTION (10% CCl4 FOR 3800-1335, 10% CS2 FOR 1335-400) VS SOLVENT
Class: COBLENTZ II
Instrument: BECKMAN IR-9 (GRATING)
Instrument parameters: ORDER CHANGES: 670, 1200, 2000 CM^-^1
Sampling: TRANSMISSION
Path length: 0.011 CM, 0.010 CM
Resolution: 2
Origin: DOW CHEMICAL COMPANY
1/CM	TRANSMITTANCE
3788	0.8784
3779	0.8778
3770	0.8774
3761	0.8778
3752	0.8784
3743	0.8785
3734	0.8785
3725	0.8784
3716	0.8774
3707	0.8763
3698	0.8741
3689	0.8721
3680	0.8709
3671	0.8706
3662	0.8709
3653	0.8711
3644	0.8714
3635	0.8714
3626	0.8712
3617	0.8708
3608	0.8705
3599	0.8702
3590	0.8699
3581	0.8697
3572	0.8696
3563	0.8694
3554	0.8693
3545	0.8691
3536	0.8687
3527	0.8677
3518	0.8668
3509	0.8658
3500	0.8648
3491	0.8636
3482	0.8625
3473	0.8614
3464	0.8603
3455	0.8591
3446	0.8587
3437	0.8585
3428	0.8583
3419	0.858
3410	0.8578
3401	0.8583
3392	0.8589
3383	0.8595
3374	0.8601
3365	0.8607
3356	0.8613
3347	0.8615
3338	0.8618
3329	0.8621
3320	0.8624
3311	0.8627
3302	0.8627
3293	0.8628
3284	0.8628
3275	0.863
3266	0.863
3257	0.8625
3248	0.8624
3239	0.862
3230	0.8618
3221	0.8613
3212	0.8607
3203	0.86
3194	0.8594
3185	0.8587
3176	0.858
3167	0.8573
3158	0.8566
3149	0.8559
3140	0.854
3131	0.8518
3122	0.8499
3113	0.8478
3104	0.8459
3095	0.8439
3086	0.8425
3077	0.8411
3068	0.8397
3059	0.8375
3050	0.8352
3041	0.8318
3032	0.8286
3023	0.8213
3014	0.8103
3005	0.7821
2996	0.7541
2987	0.7487
2978	0.7481
2969	0.6939
2960	0.6843
2951	0.7144
2942	0.7388
2933	0.7365
2924	0.5051
2915	0.6617
2906	0.7545
2897	0.7805
2888	0.8044
2879	0.8121
2870	0.8124
2861	0.8024
2852	0.7725
2843	0.7457
2834	0.8081
2825	0.835
2816	0.8374
2807	0.8375
2798	0.8401
2789	0.8454
2780	0.8504
2771	0.8545
2762	0.8537
2753	0.849
2744	0.8457
2735	0.8452
2726	0.8468
2717	0.8507
2708	0.8523
2699	0.852
2690	0.8517
2681	0.8514
2672	0.8514
2663	0.8521
2654	0.8539
2645	0.8557
2636	0.8562
2627	0.8565
2618	0.8555
2609	0.8542
2600	0.8528
2591	0.8513
2582	0.8499
2573	0.8482
2564	0.8401
2555	0.8345
2546	0.8417
2537	0.8471
2528	0.8487
2519	0.8492
2510	0.8492
2501	0.8491
2492	0.8488
2483	0.848
2474	0.8471
2465	0.8466
2456	0.8463
2447	0.846
2438	0.8457
2429	0.8452
2420	0.8448
2411	0.8446
2402	0.8437
2393	0.8418
2384	0.8398
2375	0.8431
2366	0.8533
2357	0.8621
2348	0.8636
2339	0.862
2330	0.8611
2321	0.8605
2312	0.8605
2303	0.8605
2294	0.8606
2285	0.8609
2276	0.8613
2267	0.8612
2258	0.8607
2249	0.8616
2240	0.8628
2231	0.8631
2222	0.8634
2213	0.863
2204	0.8618
2195	0.8607
2186	0.8598
2177	0.8589
2168	0.8578
2159	0.8554
2150	0.8528
2141	0.8521
2132	0.8521
2123	0.8545
2114	0.8599
2105	0.8652
2096	0.8681
2087	0.87
2078	0.8695
2069	0.8688
2060	0.868
2051	0.8671
2042	0.8661
2033	0.8641
2024	0.8618
2015	0.8593
2006	0.8565
1997	0.8528
1988	0.859
1979	0.8615
1970	0.8624
1961	0.8633
1952	0.8639
1943	0.8653
1934	0.866
1925	0.8658
1916	0.8655
1907	0.8662
1898	0.8613
1889	0.8678
1880	0.8744
1871	0.8713
1862	0.8696
1853	0.8675
1844	0.8671
1835	0.8668
1826	0.8663
1817	0.8655
1808	0.8652
1799	0.8655
1790	0.8659
1781	0.8662
1772	0.8665
1763	0.8668
1754	0.867
1745	0.8667
1736	0.8611
1727	0.8608
1718	0.8608
1709	0.8568
1700	0.8563
1691	0.8571
1682	0.8567
1673	0.8546
1664	0.8518
1655	0.8494
1646	0.847
1637	0.8449
1628	0.8418
1619	0.8394
1610	0.8378
1601	0.8417
1592	0.8456
1583	0.84
1574	0.8356
1565	0.8382
1556	0.8439
1547	0.831
1538	0.8186
1529	0.8076
1520	0.7994
1511	0.7874
1502	0.7625
1493	0.678
1484	0.3477
1475	0.4132
1466	0.5271
1457	0.5218
1448	0.4009
1439	0.2152
1430	0.2952
1421	0.3566
1412	0.5412
1403	0.6939
1394	0.7255
1385	0.7087
1376	0.3643
1367	0.7237
1358	0.7819
1349	0.8005
1340	0.8089
1331	0.8188
1322	0.8254
1313	0.8271
1304	0.8192
1295	0.809
1286	0.7951
1277	0.8056
1268	0.8275
1259	0.8371
1250	0.828
1241	0.804
1232	0.7158
1223	0.2206
1214	0.5208
1205	0.0484
1196	0.3594
1187	0.1778
1178	0.2895
1169	0.6528
1160	0.5417
1151	0.771
1142	0.832
1133	0.7486
1124	0.8712
1115	0.885
1106	0.8884
1097	0.8868
1088	0.8799
1079	0.8621
1070	0.8451
1061	0.8374
1052	0.8271
1043	0.8049
1034	0.7461
1025	0.8076
1016	0.844
1007	0.8428
998	0.8521
989	0.8551
980	0.8486
971	0.8194
962	0.6919
953	0.5302
944	0.7518
935	0.8303
926	0.8653
917	0.8823
908	0.8923
899	0.8975
890	0.903
881	0.9068
872	0.9108
863	0.9152
854	0.9136
845	0.9055
836	0.9012
827	0.898
818	0.8958
809	0.8916
800	0.8895
791	0.8913
782	0.8927
773	0.8936
764	0.8942
755	0.8938
746	0.8928
737	0.8898
728	0.885
719	0.8811
710	0.8798
701	0.8811
692	0.8817
683	0.8768
674	0.8675
665	0.8506
656	0.7825
647	0.5977
638	0.1205
629	0.6468
620	0.842
611	0.8659
602	0.8695
593	0.8714
584	0.8677
575	0.8658
566	0.8614
557	0.8567
548	0.85
539	0.8418
530	0.8281
521	0.7251
512	0.8264
503	0.837
494	0.8427
485	0.8518
476	0.8641
467	0.872
458	0.8775
449	0.8742
440	0.8741
431	0.8789
422	0.8809
413	0.8792
404	0.8765
