Infrared Spectrum: BICYCLO[2.2.1]HEPTANE, 7-OXA-
Formula: C6 H10 O
CAS: 279-49-2
State: SOLUTION (10% CCl4 FOR 4000-1200, 10% CS2 FOR 1200-450 CM^-^1) VS SOLVENT
Class: COBLENTZ III
Instrument: CARY 90 (GRATING)
Instrument parameters: ORDER CHANGES: 3000, 2000, 1200 CM^-^1
Sampling: TRANSMISSION
Path length: 0.010 CM, AND 0.011 CM
Resolution: 2
Origin: WESTERN REGIONAL RES. USDA
1/CM	TRANSMITTANCE
3994	0.9005
3985	0.9016
3976	0.9027
3967	0.9018
3958	0.9025
3949	0.9035
3940	0.9074
3931	0.9104
3922	0.912
3913	0.9132
3904	0.9137
3895	0.9125
3886	0.9099
3877	0.9125
3868	0.9152
3859	0.9173
3850	0.918
3841	0.9171
3832	0.9165
3823	0.9157
3814	0.9148
3805	0.9135
3796	0.9125
3787	0.9117
3778	0.9108
3769	0.91
3760	0.9098
3751	0.9095
3742	0.9115
3733	0.9136
3724	0.9156
3715	0.9138
3706	0.9067
3697	0.9001
3688	0.9003
3679	0.9023
3670	0.9052
3661	0.9091
3652	0.9125
3643	0.9136
3634	0.9146
3625	0.9156
3616	0.9165
3607	0.9153
3598	0.9139
3589	0.9124
3580	0.9109
3571	0.9091
3562	0.9073
3553	0.9052
3544	0.9028
3535	0.9006
3526	0.8989
3517	0.8973
3508	0.8958
3499	0.8949
3490	0.8945
3481	0.894
3472	0.8952
3463	0.8984
3454	0.901
3445	0.903
3436	0.9051
3427	0.907
3418	0.9087
3409	0.9103
3400	0.9104
3391	0.9082
3382	0.907
3373	0.9106
3364	0.9127
3355	0.9131
3346	0.9131
3337	0.912
3328	0.9106
3319	0.9092
3310	0.9086
3301	0.9095
3292	0.9105
3283	0.9118
3274	0.9135
3265	0.9151
3256	0.9164
3247	0.9175
3238	0.9178
3229	0.918
3220	0.9178
3211	0.9171
3202	0.9167
3193	0.9161
3184	0.915
3175	0.9138
3166	0.9125
3157	0.9102
3148	0.9073
3139	0.9038
3130	0.907
3121	0.8982
3112	0.897
3103	0.897
3094	0.895
3085	0.8911
3076	0.8862
3067	0.8799
3058	0.865
3049	0.8417
3040	0.8108
3031	0.7549
3022	0.6797
3013	0.5287
3004	0.3366
2995	0.107
2986	0.0202
2977	0.0055
2968	0.0194
2959	0.0441
2950	0.0211
2941	0.0437
2932	0.2283
2923	0.4764
2914	0.4409
2905	0.1585
2896	0.6312
2887	0.5806
2878	0.6094
2869	0.1164
2860	0.4316
2851	0.7858
2842	0.8632
2833	0.8895
2824	0.8999
2815	0.9058
2806	0.9098
2797	0.911
2788	0.9071
2779	0.9001
2770	0.9046
2761	0.9157
2752	0.9193
2743	0.9137
2734	0.9071
2725	0.9092
2716	0.9131
2707	0.9188
2698	0.9223
2689	0.9236
2680	0.9237
2671	0.9233
2662	0.9218
2653	0.9196
2644	0.9174
2635	0.9153
2626	0.9177
2617	0.9211
2608	0.9221
2599	0.9201
2590	0.915
2581	0.9135
2572	0.9137
2563	0.9139
2554	0.916
2545	0.9195
2536	0.9206
2527	0.9197
2518	0.9188
2509	0.9207
2500	0.9225
2491	0.9223
2482	0.9207
2473	0.9186
2464	0.9171
2455	0.9158
2446	0.9152
2437	0.9147
2428	0.916
2419	0.9174
2410	0.9188
2401	0.92
2392	0.9211
2383	0.9198
2374	0.9177
2365	0.9155
2356	0.9134
2347	0.9112
2338	0.9091
2329	0.9073
2320	0.9083
2311	0.9096
2302	0.911
2293	0.9115
2284	0.9118
2275	0.9118
2266	0.9118
2257	0.9117
2248	0.9118
2239	0.9125
2230	0.9133
2221	0.9135
2212	0.9137
2203	0.9127
2194	0.9101
2185	0.9121
2176	0.9162
2167	0.9184
2158	0.9182
2149	0.9185
2140	0.9189
2131	0.9175
2122	0.9147
2113	0.9128
2104	0.911
2095	0.9107
2086	0.9125
2077	0.9149
2068	0.9177
2059	0.9189
2050	0.9191
2041	0.9171
2032	0.9153
2023	0.9128
2014	0.9098
2005	0.9071
1996	0.9054
1987	0.9091
1978	0.9115
1969	0.9094
1960	0.9066
1951	0.9033
1942	0.8998
1933	0.8988
1924	0.8998
1915	0.901
1906	0.9039
1897	0.9028
1888	0.9001
1879	0.8984
1870	0.899
1861	0.9034
1852	0.9071
1843	0.9075
1834	0.9063
1825	0.9037
1816	0.8987
1807	0.8925
1798	0.8778
1789	0.8694
1780	0.8686
1771	0.8675
1762	0.8603
1753	0.86
1744	0.8648
1735	0.8664
1726	0.8606
1717	0.8628
1708	0.8817
1699	0.896
1690	0.902
1681	0.9055
1672	0.905
1663	0.9056
1654	0.9048
1645	0.9023
1636	0.8987
1627	0.8948
1618	0.8903
1609	0.8851
1600	0.8796
1591	0.8739
1582	0.868
1573	0.8631
1564	0.8588
1555	0.8573
1546	0.8591
1537	0.8641
1528	0.875
1519	0.8918
1510	0.8854
1501	0.8718
1492	0.8659
1483	0.8475
1474	0.462
1465	0.6038
1456	0.4184
1447	0.4614
1438	0.8121
1429	0.8544
1420	0.8736
1411	0.8918
1402	0.8964
1393	0.8966
1384	0.8963
1375	0.8957
1366	0.896
1357	0.8966
1348	0.8727
1339	0.8732
1330	0.8601
1321	0.5864
1312	0.7022
1303	0.5814
1294	0.8081
1285	0.8265
1276	0.8001
1267	0.3472
1258	0.621
1249	0.7921
1240	0.8088
1231	0.805
1222	0.7901
1213	0.7235
1204	0.5355
1195	0.087
1186	0.6155
1177	0.7849
1168	0.8244
1159	0.8387
1150	0.8414
1141	0.8493
1132	0.8566
1123	0.8568
1114	0.8401
1105	0.6737
1096	0.8218
1087	0.8298
1078	0.4776
1069	0.8003
1060	0.8485
1051	0.856
1042	0.8563
1033	0.8504
1024	0.8238
1015	0.7442
1006	0.377
997	0.0383
988	0.3853
979	0.3386
970	0.5499
961	0.7206
952	0.7008
943	0.5832
934	0.0195
925	0.5091
916	0.7467
907	0.5212
898	0.7403
889	0.7014
880	0.1773
871	0.5592
862	0.7547
853	0.8037
844	0.8061
835	0.728
826	0.452
817	0.3571
808	0.6918
799	0.6565
790	0.4698
781	0.5768
772	0.7528
763	0.6607
754	0.7869
745	0.8415
736	0.843
727	0.8505
718	0.8581
709	0.8573
700	0.8564
691	0.8578
682	0.8567
673	0.8405
664	0.8402
655	0.8225
646	0.8394
637	0.8507
628	0.8448
619	0.8411
610	0.8375
601	0.8356
592	0.8316
583	0.8249
574	0.8126
565	0.7711
556	0.6511
547	0.1851
538	0.6955
529	0.7798
520	0.7921
511	0.7937
502	0.7935
493	0.7908
484	0.7842
