Infrared Spectrum: Bicyclo[2.2.2]octane
Formula: C8 H14
CAS: 280-33-1
State: SOLUTION, (20% CCl4 FOR 4000-1330, 20% CS2 FOR 1330-450 CM^-^1) VS SOLVENT
Class: COBLENTZ III
Instrument: CARY 90 (GRATING)
Instrument parameters: ORDER CHANGES: 3000, 2000, 1200 CM^-^1
Sampling: TRANSMISSION
Path length: 0.010 CM, AND 0.010 CM
Resolution: 2
Origin: WESTERN REGIONAL RES. USDA
1/CM	TRANSMITTANCE
4000	0.9148
3991	0.9118
3982	0.9089
3973	0.907
3964	0.9082
3955	0.912
3946	0.9135
3937	0.9085
3928	0.9023
3919	0.8968
3910	0.8946
3901	0.8934
3892	0.8945
3883	0.8968
3874	0.9007
3865	0.9044
3856	0.9084
3847	0.9118
3838	0.9143
3829	0.9166
3820	0.9178
3811	0.919
3802	0.9198
3793	0.9202
3784	0.9205
3775	0.9178
3766	0.9149
3757	0.9114
3748	0.9078
3739	0.9057
3730	0.9036
3721	0.9036
3712	0.9042
3703	0.9051
3694	0.9091
3685	0.913
3676	0.9159
3667	0.9186
3658	0.9209
3649	0.9225
3640	0.9242
3631	0.9245
3622	0.9243
3613	0.9228
3604	0.9209
3595	0.9187
3586	0.9162
3577	0.9137
3568	0.9115
3559	0.9097
3550	0.9078
3541	0.9061
3532	0.9042
3523	0.9033
3514	0.9025
3505	0.9018
3496	0.9005
3487	0.8993
3478	0.8978
3469	0.8959
3460	0.8938
3451	0.8896
3442	0.8858
3433	0.8818
3424	0.8778
3415	0.8768
3406	0.8814
3397	0.8849
3388	0.8868
3379	0.8881
3370	0.8892
3361	0.8887
3352	0.8873
3343	0.8845
3334	0.8781
3325	0.8682
3316	0.8582
3307	0.86
3298	0.8662
3289	0.8717
3280	0.8765
3271	0.8803
3262	0.8828
3253	0.8828
3244	0.8794
3235	0.875
3226	0.8685
3217	0.8615
3208	0.853
3199	0.8471
3190	0.8535
3181	0.865
3172	0.8747
3163	0.8783
3154	0.8792
3145	0.8815
3136	0.8836
3127	0.8845
3118	0.8855
3109	0.8856
3100	0.8852
3091	0.8828
3082	0.8738
3073	0.8648
3064	0.8558
3055	0.8403
3046	0.8172
3037	0.786
3028	0.763
3019	0.7156
3010	0.6614
3001	0.5894
2992	0.5116
2983	0.4141
2974	0.2639
2965	0.1391
2956	0.0306
2947	0.0102
2938	0.0069
2929	0.0052
2920	0.0042
2911	0.0054
2902	0.0392
2893	0.0604
2884	0.1199
2875	0.0723
2866	0.007
2857	0.0075
2848	0.1325
2839	0.5034
2830	0.621
2821	0.6254
2812	0.7108
2803	0.7638
2794	0.7672
2785	0.7187
2776	0.7768
2767	0.8081
2758	0.8318
2749	0.8494
2740	0.8577
2731	0.8641
2722	0.8654
2713	0.8649
2704	0.8631
2695	0.8593
2686	0.8512
2677	0.7747
2668	0.7888
2659	0.683
2650	0.5787
2641	0.7375
2632	0.8265
2623	0.832
2614	0.8347
2605	0.8357
2596	0.8331
2587	0.818
2578	0.794
2569	0.8187
2560	0.8377
2551	0.846
2542	0.8509
2533	0.8536
2524	0.861
2515	0.8657
2506	0.864
2497	0.859
2488	0.8553
2479	0.8542
2470	0.8567
2461	0.8597
2452	0.8618
2443	0.8631
2434	0.864
2425	0.864
2416	0.8639
2407	0.8638
2398	0.8634
2389	0.8628
2380	0.8627
2371	0.8624
2362	0.8621
2353	0.8618
2344	0.8616
2335	0.8613
2326	0.8611
2317	0.8608
2308	0.8605
2299	0.8602
2290	0.8594
2281	0.8578
2272	0.8567
2263	0.8558
2254	0.8549
2245	0.8546
2236	0.8546
2227	0.8546
2218	0.854
2209	0.8533
2200	0.8525
2191	0.8492
2182	0.8389
2173	0.8383
2164	0.8416
2155	0.8434
2146	0.8436
2137	0.8438
2128	0.8428
2119	0.8421
2110	0.8412
2101	0.8435
2092	0.8475
2083	0.8497
2074	0.8502
2065	0.8492
2056	0.8483
2047	0.8464
2038	0.8442
2029	0.8423
2020	0.8408
2011	0.8399
2002	0.8507
1993	0.8618
1984	0.8618
1975	0.8613
1966	0.8606
1957	0.8607
1948	0.8611
1939	0.8617
1930	0.862
1921	0.8612
1912	0.8605
1903	0.8607
1894	0.8611
1885	0.8617
1876	0.8618
1867	0.8558
1858	0.8467
1849	0.8525
1840	0.8508
1831	0.8496
1822	0.8494
1813	0.8517
1804	0.8532
1795	0.8504
1786	0.8478
1777	0.8443
1768	0.8468
1759	0.8494
1750	0.8414
1741	0.8318
1732	0.8294
1723	0.8346
1714	0.8414
1705	0.8433
1696	0.8439
1687	0.8424
1678	0.8409
1669	0.8389
1660	0.8368
1651	0.8348
1642	0.8334
1633	0.8323
1624	0.833
1615	0.8382
1606	0.8435
1597	0.8409
1588	0.833
1579	0.8315
1570	0.8337
1561	0.8317
1552	0.827
1543	0.8247
1534	0.8235
1525	0.8231
1516	0.8181
1507	0.7972
1498	0.7645
1489	0.7415
1480	0.7219
1471	0.6711
1462	0.4076
1453	0.0982
1444	0.6433
1435	0.7311
1426	0.7695
1417	0.7885
1408	0.8018
1399	0.8125
1390	0.8207
1381	0.8234
1372	0.8238
1363	0.8142
1354	0.7598
1345	0.7571
1336	0.7478
1327	0.7761
1318	0.7811
1309	0.7925
1300	0.8078
1291	0.8048
1282	0.7665
1273	0.6585
1264	0.5549
1255	0.7025
1246	0.7522
1237	0.7424
1228	0.7671
1219	0.8075
1210	0.8428
1201	0.8641
1192	0.8782
1183	0.8816
1174	0.8784
1165	0.868
1156	0.853
1147	0.8296
1138	0.7751
1129	0.7658
1120	0.8093
1111	0.8268
1102	0.8364
1093	0.857
1084	0.8761
1075	0.884
1066	0.8871
1057	0.8901
1048	0.8928
1039	0.8954
1030	0.8974
1021	0.9
1012	0.9023
1003	0.9027
994	0.8875
985	0.8285
976	0.8925
967	0.9195
958	0.9267
949	0.9302
940	0.9318
931	0.9342
922	0.9344
913	0.9334
904	0.9328
895	0.9318
886	0.9288
877	0.8849
868	0.35
859	0.8563
850	0.9415
841	0.9373
832	0.9283
823	0.8388
814	0.831
805	0.8866
796	0.7776
787	0.8817
778	0.9202
769	0.9302
760	0.9361
751	0.9399
742	0.9428
733	0.9453
724	0.9477
715	0.95
706	0.9521
697	0.9551
688	0.9582
679	0.9634
670	0.969
661	0.9749
652	0.981
643	0.9759
634	0.9681
625	0.9635
616	0.9609
607	0.9592
598	0.9586
589	0.958
580	0.9602
571	0.9642
562	0.9681
553	0.9731
544	0.9783
535	0.9821
526	0.9833
517	0.982
508	0.9798
