Infrared Spectrum: 2-AMINO-4-(P-DIPHENYL)THIAZOLE
Formula: C15 H12 N2 S
CAS: 2834-79-9
State: SOLID (MINERAL OIL MULL)
Class: COBLENTZ
Instrument: Not specified, most likely a prism, grating, or hybrid spectrometer.
Sampling: TRANSMISSION
Resolution: 4
Origin: DOW CHEMICAL COMPANY
MICROMETERS	TRANSMITTANCE
2.034	0.468
2.0751	0.471
2.11619	0.485
2.15729	0.497
2.19839	0.511
2.23949	0.517
2.28058	0.519
2.32168	0.528
2.36278	0.538
2.40387	0.551
2.44497	0.558
2.48607	0.575
2.52717	0.58
2.56826	0.591
2.60936	0.601
2.65046	0.608
2.69156	0.62
2.73265	0.63
2.77375	0.64
2.81485	0.65
2.85594	0.608
2.89704	0.459
2.93814	0.54
2.97924	0.534
3.02033	0.465
3.06143	0.536
3.10253	0.54
3.14362	0.439
3.18472	0.369
3.22582	0.393
3.26692	0.478
3.30801	0.487
3.34911	0.393
3.39021	0.139
3.4313	0.045
3.4724	0.127
3.5135	0.441
3.5546	0.679
3.59569	0.712
3.63679	0.712
3.67789	0.724
3.71898	0.739
3.76008	0.739
3.80118	0.754
3.84228	0.766
3.88337	0.783
3.92447	0.788
3.96557	0.77
4.00667	0.814
4.04776	0.816
4.08886	0.819
4.12996	0.822
4.17105	0.821
4.21215	0.817
4.25325	0.821
4.29435	0.833
4.33544	0.836
4.37654	0.838
4.41764	0.841
4.45873	0.846
4.49983	0.85
4.54093	0.855
4.58203	0.856
4.62312	0.86
4.66422	0.865
4.70532	0.87
4.74641	0.87
4.78751	0.87
4.82861	0.872
4.86971	0.873
4.9108	0.875
4.9519	0.879
4.993	0.88
5.03409	0.875
5.07519	0.872
5.11629	0.872
5.15739	0.877
5.19848	0.872
5.23958	0.873
5.28068	0.879
5.32178	0.889
5.36287	0.894
5.40397	0.894
5.44507	0.894
5.48616	0.892
5.52726	0.89
5.56836	0.892
5.60946	0.892
5.65055	0.894
5.69165	0.89
5.73275	0.889
5.77384	0.89
5.81494	0.89
5.85604	0.89
5.89714	0.88
5.93823	0.872
5.97933	0.868
6.02043	0.85
6.06152	0.756
6.10262	0.466
6.14372	0.31
6.18482	0.499
6.22591	0.442
6.26701	0.603
6.30811	0.741
6.3492	0.78
6.3903	0.752
6.4314	0.652
6.4725	0.451
6.51359	0.299
6.55469	0.248
6.59579	0.373
6.63689	0.657
6.67798	0.696
6.71908	0.511
6.76018	0.373
6.80127	0.405
6.84237	0.357
6.88347	0.42
6.92457	0.609
6.96566	0.761
7.00676	0.783
7.04786	0.7
7.08895	0.567
7.13005	0.625
7.17115	0.686
7.21225	0.584
7.25334	0.517
7.29444	0.611
7.33554	0.671
7.37663	0.664
7.41773	0.586
7.45883	0.41
7.49993	0.32
7.54102	0.614
7.58212	0.616
7.62322	0.477
7.66431	0.586
7.70541	0.642
7.74651	0.628
7.78761	0.662
7.8287	0.718
7.8698	0.739
7.9109	0.758
7.952	0.78
7.99309	0.798
8.03419	0.81
8.07529	0.817
8.11638	0.817
8.15748	0.819
8.19858	0.809
8.23968	0.775
8.28077	0.734
8.32187	0.669
8.36297	0.73
8.40406	0.771
8.44516	0.771
8.48626	0.776
8.52736	0.778
8.56845	0.773
8.60955	0.764
8.65065	0.775
8.69174	0.787
8.73284	0.788
8.77394	0.787
8.81504	0.775
8.85613	0.754
8.89723	0.735
8.93833	0.725
8.97942	0.703
9.02052	0.713
9.06162	0.766
9.10272	0.797
9.14381	0.819
9.18491	0.824
9.22601	0.814
9.26711	0.775
9.3082	0.788
9.3493	0.822
9.3904	0.831
9.43149	0.827
9.47259	0.816
9.51369	0.759
9.55479	0.674
9.59588	0.637
9.63698	0.625
9.67808	0.625
9.71917	0.72
9.76027	0.775
9.80137	0.729
9.84247	0.722
9.88356	0.77
9.92466	0.715
9.96576	0.768
10.0069	0.831
10.048	0.839
10.089	0.844
10.1301	0.858
10.1712	0.867
10.2123	0.867
10.2534	0.839
10.2945	0.834
10.3356	0.839
10.3767	0.86
10.4178	0.868
10.4589	0.867
10.5	0.862
10.5411	0.867
10.5822	0.872
10.6233	0.872
10.6644	0.872
10.7055	0.87
10.7466	0.867
10.7877	0.863
10.8288	0.827
10.8699	0.814
10.911	0.831
10.9521	0.843
10.9932	0.836
11.0343	0.805
11.0754	0.822
11.1165	0.858
11.1576	0.867
11.1987	0.872
11.2398	0.877
11.2809	0.879
11.322	0.88
11.3631	0.882
11.4042	0.882
11.4453	0.88
11.4864	0.86
11.5275	0.873
11.5685	0.848
11.6096	0.766
11.6507	0.633
11.6918	0.505
11.7329	0.465
11.774	0.487
11.8151	0.575
11.8562	0.625
11.8973	0.679
11.9384	0.712
11.9795	0.686
12.0206	0.662
12.0617	0.724
12.1028	0.792
12.1439	0.821
12.185	0.841
12.2261	0.848
12.2672	0.855
12.3083	0.86
12.3494	0.863
12.3905	0.867
12.4316	0.867
12.4727	0.867
12.5138	0.865
12.5549	0.862
12.596	0.86
12.6371	0.855
12.6782	0.848
12.7193	0.839
12.7604	0.824
12.8015	0.787
12.8426	0.734
12.8837	0.614
12.9248	0.466
12.9659	0.303
13.0069	0.432
13.048	0.62
13.0891	0.737
13.1302	0.768
13.1713	0.776
13.2124	0.776
13.2535	0.768
13.2946	0.734
13.3357	0.657
13.3768	0.594
13.4179	0.574
13.459	0.55
13.5001	0.403
13.5412	0.245
13.5823	0.137
13.6234	0.194
13.6645	0.415
13.7056	0.577
13.7467	0.625
13.7878	0.638
13.8289	0.645
13.87	0.647
13.9111	0.647
13.9522	0.643
13.9933	0.618
14.0344	0.574
14.0755	0.507
14.1166	0.448
14.1577	0.383
14.1988	0.311
14.2399	0.252
14.281	0.233
14.3221	0.243
14.3632	0.294
14.4043	0.339
14.4454	0.39
14.4864	0.439
14.5275	0.478
14.5686	0.512
14.6097	0.533
14.6508	0.538
14.6919	0.538
14.733	0.533
14.7741	0.529
14.8152	0.533
14.8563	0.543
14.8974	0.546
14.9385	0.551
14.9796	0.562
15.0207	0.565
15.0618	0.562
15.1029	0.557
15.144	0.551
15.1851	0.546
15.2262	0.54
15.2673	0.533
15.3084	0.529
15.3495	0.524
15.3906	0.516
15.4317	0.509
15.4728	0.499
15.5139	0.492
15.555	0.485
15.5961	0.475
15.6372	0.465
15.6783	0.458
15.7194	0.451
15.7605	0.449
15.8016	0.446
15.8427	0.442
15.8838	0.437
