Infrared Spectrum: 2-AMINOBENZOPHENONE
Formula: C13 H11 N O
CAS: 2835-77-0
State: SOLID (KBr PELLET)
Class: COBLENTZ
Instrument: Not specified, most likely a prism, grating, or hybrid spectrometer.
Sampling: TRANSMISSION
Resolution: 4
Origin: TENNESSEE EASTMAN COMPANY, RESEARCH LABORATORIES
MICROMETERS	TRANSMITTANCE
2.034	0.59
2.07496	0.614
2.11591	0.629
2.15687	0.639
2.19783	0.651
2.23879	0.66
2.27974	0.677
2.3207	0.689
2.36166	0.697
2.40262	0.708
2.44357	0.716
2.48453	0.721
2.52549	0.73
2.56645	0.738
2.6074	0.744
2.64836	0.752
2.68932	0.762
2.73027	0.766
2.77123	0.762
2.81219	0.749
2.85315	0.728
2.8941	0.66
2.93506	0.327
2.97602	0.66
3.01698	0.472
3.05793	0.358
3.09889	0.624
3.13985	0.648
3.18081	0.668
3.22176	0.747
3.26272	0.767
3.30368	0.684
3.34463	0.8
3.38559	0.8
3.42655	0.79
3.46751	0.82
3.50846	0.829
3.54942	0.858
3.59038	0.861
3.63134	0.866
3.67229	0.872
3.71325	0.873
3.75421	0.873
3.79517	0.883
3.83612	0.885
3.87708	0.89
3.91804	0.902
3.95899	0.909
3.99995	0.918
4.04091	0.926
4.08187	0.928
4.12282	0.93
4.16378	0.931
4.20474	0.931
4.2457	0.931
4.28665	0.935
4.32761	0.938
4.36857	0.945
4.40953	0.948
4.45048	0.952
4.49144	0.955
4.5324	0.959
4.57335	0.959
4.61431	0.959
4.65527	0.964
4.69623	0.967
4.73718	0.969
4.77814	0.967
4.8191	0.969
4.86006	0.97
4.90101	0.97
4.94197	0.97
4.98293	0.974
5.02389	0.986
5.06484	0.967
5.1058	0.959
5.14676	0.97
5.18771	0.962
5.22867	0.957
5.26963	0.964
5.31059	0.962
5.35154	0.977
5.3925	0.982
5.43346	0.981
5.47442	0.976
5.51537	0.94
5.55633	0.962
5.59729	0.96
5.63825	0.969
5.6792	0.952
5.72016	0.95
5.76112	0.941
5.80207	0.931
5.84303	0.914
5.88399	0.885
5.92495	0.865
5.9659	0.851
6.00686	0.837
6.04782	0.8
6.08878	0.622
6.12973	0.269
6.17069	0.039
6.21165	0.295
6.25261	0.378
6.29356	0.284
6.33452	0.419
6.37548	0.66
6.41643	0.356
6.45739	0.368
6.49835	0.74
6.53931	0.813
6.58026	0.843
6.62122	0.841
6.66218	0.699
6.70314	0.665
6.74409	0.336
6.78505	0.755
6.82601	0.851
6.86697	0.556
6.90792	0.467
6.94888	0.819
6.98984	0.907
7.03079	0.924
7.07175	0.931
7.11271	0.931
7.15367	0.926
7.19462	0.916
7.23558	0.923
7.27654	0.921
7.3175	0.923
7.35845	0.921
7.39941	0.829
7.44037	0.841
7.48133	0.754
7.52228	0.315
7.56324	0.44
7.6042	0.622
7.64515	0.428
7.68611	0.257
7.72707	0.592
7.76803	0.711
7.80898	0.798
7.84994	0.773
7.8909	0.682
7.93186	0.344
7.97281	0.129
8.01377	0.071
8.05473	0.303
8.09569	0.585
8.13664	0.723
8.1776	0.79
8.21856	0.839
8.25951	0.861
8.30047	0.861
8.34143	0.841
8.38239	0.853
8.42334	0.807
8.4643	0.498
8.50526	0.627
8.54622	0.587
8.58717	0.703
8.62813	0.503
8.66909	0.37
8.71005	0.401
8.751	0.605
8.79196	0.72
8.83292	0.769
8.87387	0.788
8.91483	0.798
8.95579	0.8
8.99675	0.802
9.0377	0.802
9.07866	0.805
9.11962	0.812
9.16058	0.82
9.20153	0.822
9.24249	0.803
9.28345	0.75
9.32441	0.779
9.36536	0.802
9.40632	0.815
9.44728	0.815
9.48823	0.808
9.52919	0.807
9.57015	0.812
9.61111	0.795
9.65206	0.74
9.69302	0.634
9.73398	0.568
9.77494	0.653
9.81589	0.728
9.85685	0.761
9.89781	0.779
9.93877	0.788
9.97972	0.788
10.0207	0.791
10.0616	0.783
10.1026	0.732
10.1436	0.773
10.1845	0.783
10.2255	0.788
10.2664	0.774
10.3074	0.779
10.3483	0.788
10.3893	0.793
10.4303	0.793
10.4712	0.781
10.5122	0.762
10.5531	0.798
10.5941	0.745
10.635	0.532
10.676	0.281
10.717	0.643
10.7579	0.798
10.7989	0.831
10.8398	0.82
10.8808	0.808
10.9217	0.634
10.9627	0.421
11.0037	0.687
11.0446	0.819
11.0856	0.872
11.1265	0.902
11.1675	0.911
11.2084	0.918
11.2494	0.928
11.2904	0.943
11.3313	0.95
11.3723	0.959
11.4132	0.962
11.4542	0.962
11.4951	0.962
11.5361	0.962
11.5771	0.96
11.618	0.952
11.659	0.902
11.6999	0.721
11.7409	0.75
11.7818	0.836
11.8228	0.931
11.8638	0.969
11.9047	0.977
11.9457	0.982
11.9866	0.97
12.0276	0.897
12.0685	0.713
12.1095	0.784
12.1505	0.877
12.1914	0.93
12.2324	0.952
12.2733	0.96
12.3143	0.964
12.3552	0.959
12.3962	0.931
12.4372	0.868
12.4781	0.745
12.5191	0.786
12.56	0.887
12.601	0.941
12.6419	0.95
12.6829	0.953
12.7239	0.953
12.7648	0.94
12.8058	0.931
12.8467	0.921
12.8877	0.909
12.9287	0.885
12.9696	0.802
13.0106	0.575
13.0515	0.356
13.0925	0.385
13.1334	0.631
13.1744	0.747
13.2154	0.769
13.2563	0.74
13.2973	0.595
13.3382	0.303
13.3792	0.156
13.4201	0.288
13.4611	0.626
13.5021	0.762
13.543	0.829
13.584	0.853
13.6249	0.866
13.6659	0.875
13.7068	0.88
13.7478	0.889
13.7888	0.895
13.8297	0.899
13.8707	0.899
13.9116	0.878
13.9526	0.836
13.9935	0.749
14.0345	0.59
14.0755	0.467
14.1164	0.401
14.1574	0.317
14.1983	0.199
14.2393	0.172
14.2802	0.281
14.3212	0.419
14.3622	0.53
14.4031	0.571
14.4441	0.624
14.485	0.686
14.526	0.745
14.5669	0.781
14.6079	0.8
14.6489	0.812
14.6898	0.819
14.7308	0.822
14.7717	0.822
14.8127	0.822
14.8536	0.82
14.8946	0.808
14.9356	0.8
14.9765	0.781
15.0175	0.769
15.0584	0.766
15.0994	0.764
15.1403	0.757
15.1813	0.74
15.2223	0.725
15.2632	0.711
15.3042	0.684
15.3451	0.651
15.3861	0.592
15.427	0.51
15.468	0.428
15.509	0.378
15.5499	0.368
15.5909	0.409
15.6318	0.477
15.6728	0.539
15.7137	0.573
15.7547	0.59
15.7957	0.595
15.8366	0.595
