Infrared Spectrum: Benzophenone, 3-amino-
Formula: C13 H11 N O
CAS: 2835-78-1
State: SOLID (1.1 mg / 350 mg KBr DISC)
Class: COBLENTZ III
Instrument: PERKIN-ELMER 180 (GRATING)
Instrument parameters: GRATINGS: 2000, 1000, 500, 250 CM^-^1; FILTER CHANGE: 2970, 2000, 1485, 1000, 743, 500, 372, 250, 186 CM^-^1.
Sampling: TRANSMISSION
Path length: SCALE ATTENUATION INCREASED 30%
Resolution: 2
Origin: K. K. DEB-NCI FREDERICK CANCER RESEARCH CENTER
1/CM	TRANSMITTANCE
401	0.7719
410	0.7574
419	0.8129
428	0.8165
437	0.7867
446	0.7697
455	0.7948
464	0.8333
473	0.8295
482	0.8253
491	0.8173
500	0.7994
509	0.7649
518	0.725
527	0.7697
536	0.7758
545	0.7623
554	0.7616
563	0.7523
572	0.7366
581	0.7097
590	0.6675
599	0.6227
608	0.6705
617	0.6622
626	0.6525
635	0.5923
644	0.3996
653	0.6299
662	0.5879
671	0.5514
680	0.4581
689	0.4027
698	0.4433
707	0.1925
716	0.4281
725	0.2633
734	0.5208
743	0.6727
752	0.7168
761	0.7477
770	0.7362
779	0.5446
788	0.7332
797	0.8136
806	0.7478
815	0.8404
824	0.8473
833	0.8358
842	0.7493
851	0.7168
860	0.8741
869	0.878
878	0.817
887	0.6614
896	0.7262
905	0.772
914	0.8843
923	0.8898
932	0.839
941	0.8719
950	0.888
959	0.8792
968	0.8376
977	0.8046
986	0.5775
995	0.8217
1004	0.8501
1013	0.8994
1022	0.8861
1031	0.8431
1040	0.8898
1049	0.8855
1058	0.8798
1067	0.8661
1076	0.7896
1085	0.8509
1094	0.8718
1103	0.8634
1112	0.8597
1121	0.855
1130	0.7944
1139	0.7292
1148	0.8407
1157	0.8225
1166	0.8234
1175	0.804
1184	0.7734
1193	0.8432
1202	0.8371
1211	0.8247
1220	0.8063
1229	0.7771
1238	0.681
1247	0.5908
1256	0.5458
1265	0.5603
1274	0.651
1283	0.3953
1292	0.3243
1301	0.6811
1310	0.4864
1319	0.188
1328	0.1331
1337	0.5318
1346	0.747
1355	0.8482
1364	0.8701
1373	0.8634
1382	0.8513
1391	0.8477
1400	0.8381
1409	0.8358
1418	0.835
1427	0.8166
1436	0.7654
1445	0.5265
1454	0.2426
1463	0.5507
1472	0.8086
1481	0.7089
1490	0.6336
1499	0.7925
1508	0.8399
1517	0.835
1526	0.8224
1535	0.7966
1544	0.7874
1553	0.7492
1562	0.6979
1571	0.4628
1580	0.2687
1589	0.4763
1598	0.2104
1607	0.4188
1616	0.5367
1625	0.5274
1634	0.4842
1643	0.2948
1652	0.2153
1661	0.6785
1670	0.8036
1679	0.8536
1688	0.8641
1697	0.8694
1706	0.8814
1715	0.8858
1724	0.887
1733	0.8882
1742	0.8948
1751	0.9028
1760	0.9033
1769	0.8989
1778	0.8912
1787	0.8995
1796	0.9131
1805	0.9116
1814	0.9084
1823	0.9053
1832	0.9059
1841	0.8998
1850	0.8974
1859	0.8989
1868	0.8996
1877	0.9007
1886	0.8994
1895	0.895
1904	0.8879
1913	0.8864
1922	0.8835
1931	0.8894
1940	0.8937
1949	0.8938
1958	0.8936
1967	0.8931
1976	0.8918
1985	0.891
1994	0.8902
2003	0.8894
2012	0.8885
2021	0.8875
2030	0.8866
2039	0.8856
2048	0.8847
2057	0.8838
2066	0.8826
2075	0.8813
2084	0.88
2093	0.8788
2102	0.8779
2111	0.8771
2120	0.8763
2129	0.8754
2138	0.8747
2147	0.874
2156	0.8734
2165	0.8728
2174	0.8722
2183	0.8716
2192	0.871
2201	0.8704
2210	0.8693
2219	0.8681
2228	0.867
2237	0.8656
2246	0.864
2255	0.8624
2264	0.8608
2273	0.8596
2282	0.8584
2291	0.8572
2300	0.856
2309	0.8547
2318	0.854
2327	0.8533
2336	0.853
2345	0.8533
2354	0.8553
2363	0.8536
2372	0.8514
2381	0.8492
2390	0.8474
2399	0.8456
2408	0.8437
2417	0.8417
2426	0.8397
2435	0.8378
2444	0.8367
2453	0.8366
2462	0.8384
2471	0.84
2480	0.8408
2489	0.8403
2498	0.8384
2507	0.836
2516	0.8336
2525	0.831
2534	0.8284
2543	0.8259
2552	0.8235
2561	0.821
2570	0.8185
2579	0.8161
2588	0.8136
2597	0.812
2606	0.8113
2615	0.8102
2624	0.8089
2633	0.8073
2642	0.8057
2651	0.8048
2660	0.8039
2669	0.8054
2678	0.8059
2687	0.8054
2696	0.8041
2705	0.8013
2714	0.7982
2723	0.7949
2732	0.7916
2741	0.7882
2750	0.785
2759	0.7827
2768	0.7827
2777	0.7836
2786	0.7849
2795	0.787
2804	0.7883
2813	0.7873
2822	0.7847
2831	0.7799
2840	0.7732
2849	0.7664
2858	0.762
2867	0.7613
2876	0.7617
2885	0.7594
2894	0.7554
2903	0.7507
2912	0.7448
2921	0.7388
2930	0.7361
2939	0.737
2948	0.7387
2957	0.737
2966	0.7327
2975	0.7286
2984	0.7277
2993	0.7206
3002	0.7126
3011	0.7141
3020	0.6897
3029	0.6723
3038	0.6821
3047	0.6673
3056	0.6516
3065	0.6642
3074	0.6688
3083	0.6539
3092	0.6948
3101	0.6978
3110	0.6995
3119	0.6989
3128	0.6919
3137	0.6818
3146	0.6709
3155	0.659
3164	0.6413
3173	0.6205
3182	0.5958
3191	0.5532
3200	0.4957
3209	0.4895
3218	0.5167
3227	0.5499
3236	0.5842
3245	0.6039
3254	0.6074
3263	0.6035
3272	0.5932
3281	0.5791
3290	0.5612
3299	0.5349
3308	0.5119
3317	0.5081
3326	0.5385
3335	0.5555
3344	0.5595
3353	0.5495
3362	0.4999
3371	0.4476
3380	0.3952
3389	0.3457
3398	0.3848
3407	0.4737
3416	0.5627
3425	0.6279
3434	0.6512
3443	0.662
3452	0.6652
3461	0.6671
3470	0.6687
3479	0.6709
3488	0.6744
3497	0.6793
3506	0.6848
3515	0.6904
3524	0.6947
3533	0.6989
3542	0.7021
3551	0.7052
3560	0.7077
3569	0.71
3578	0.7124
3587	0.7146
3596	0.7163
3605	0.7179
3614	0.7196
3623	0.7208
3632	0.7218
3641	0.7227
3650	0.7231
3659	0.7227
3668	0.7215
3677	0.7197
3686	0.7187
3695	0.719
3704	0.7194
3713	0.7192
3722	0.7189
3731	0.7182
3740	0.7174
3749	0.7164
3758	0.7152
3767	0.7132
3776	0.7122
3785	0.7113
3794	0.7103
