Infrared Spectrum: ANISOLE, m-CHLORO-
Formula: C7 H7 Cl O
CAS: 2845-89-8
State: SOLUTION (10% CCl4 FOR 3800-1335, 10% CS2 FOR 1335-460 CM^-^1)
Class: COBLENTZ III
Instrument: DOW KBr FOREPRISM-GRATING
Instrument parameters: BLAZED AT 3.5, 12.0, 20.0 MICRON AND CHANGED AT 5.0, 7.5, 14.9 MICRON
Sampling: TRANSMISSION
Path length: 0.010 CM, 0.010 CM
Resolution: 2
Origin: DOW CHEMICAL COMPANY
1/CM	TRANSMITTANCE
458	0.7078
467	0.7188
476	0.7278
485	0.7358
494	0.7422
503	0.7499
512	0.7506
521	0.7489
530	0.7431
539	0.7328
548	0.701
557	0.6546
566	0.636
575	0.7105
584	0.7511
593	0.7633
602	0.7761
611	0.7736
620	0.7778
629	0.7728
638	0.7572
647	0.7367
656	0.7337
665	0.7175
674	0.3353
683	0.3241
692	0.7344
701	0.7742
710	0.7932
719	0.8
728	0.798
737	0.7869
746	0.7651
755	0.6099
764	0.1377
773	0.1072
782	0.624
791	0.7546
800	0.7581
809	0.7608
818	0.745
827	0.6968
836	0.22
845	0.1945
854	0.2076
863	0.0692
872	0.493
881	0.6533
890	0.7378
899	0.7849
908	0.803
917	0.8075
926	0.8082
935	0.8065
944	0.803
953	0.7906
962	0.7894
971	0.8057
980	0.7983
989	0.6451
998	0.763
1007	0.7637
1016	0.7054
1025	0.5312
1034	0.0759
1043	0.0367
1052	0.3632
1061	0.4941
1070	0.2284
1079	0.5219
1088	0.3895
1097	0.3768
1106	0.7168
1115	0.7715
1124	0.7705
1133	0.7451
1142	0.7226
1151	0.4395
1160	0.6997
1169	0.7201
1178	0.5327
1187	0.7411
1196	0.7699
1205	0.7465
1214	0.6581
1223	0.5098
1232	0.0797
1241	0.2623
1250	0.0171
1259	0.4232
1268	0.5927
1277	0.3528
1286	0.3459
1295	0.4538
1304	0.3282
1313	0.5533
1322	0.515
1331	0.5258
1340	0.7625
1349	0.7928
1358	0.8199
1367	0.8353
1376	0.8347
1385	0.8308
1394	0.7941
1403	0.7085
1412	0.6547
1421	0.4473
1430	0.424
1439	0.3837
1448	0.2173
1457	0.4005
1466	0.153
1475	0.1132
1484	0.0089
1493	0.2858
1502	0.6246
1511	0.6251
1520	0.5956
1529	0.5324
1538	0.4314
1547	0.3997
1556	0.404
1565	0.4057
1574	0.2348
1583	0.0528
1592	0.0002
1601	0.0815
1610	0.4152
1619	0.639
1628	0.731
1637	0.763
1646	0.7825
1655	0.8045
1664	0.8178
1673	0.806
1682	0.8158
1691	0.835
1700	0.8352
1709	0.8355
1718	0.8207
1727	0.824
1736	0.8432
1745	0.8425
1754	0.8439
1763	0.8588
1772	0.8592
1781	0.8571
1790	0.8613
1799	0.8582
1808	0.8531
1817	0.8418
1826	0.8418
1835	0.8268
1844	0.842
1853	0.847
1862	0.8496
1871	0.8606
1880	0.86
1889	0.8544
1898	0.8481
1907	0.8353
1916	0.8212
1925	0.823
1934	0.858
1943	0.8673
1952	0.8702
1961	0.8612
1970	0.8635
1979	0.8615
1988	0.8563
1997	0.8754
2006	0.8895
2015	0.89
2024	0.8892
2033	0.8868
2042	0.8858
2051	0.8846
2060	0.8809
2069	0.8666
2078	0.8489
2087	0.8392
2096	0.8704
2105	0.8723
2114	0.8518
2123	0.8751
2132	0.8823
2141	0.8843
2150	0.8925
2159	0.894
2168	0.8936
2177	0.8971
2186	0.9006
2195	0.9028
2204	0.9038
2213	0.9042
2222	0.9042
2231	0.903
2240	0.9011
2249	0.897
2258	0.8923
2267	0.8868
2276	0.88
2285	0.8738
2294	0.8766
2303	0.8817
2312	0.8792
2321	0.8784
2330	0.8888
2339	0.8949
2348	0.8961
2357	0.8955
2366	0.8944
2375	0.8941
2384	0.894
2393	0.8934
2402	0.8928
2411	0.8921
2420	0.8906
2429	0.889
2438	0.8875
2447	0.8861
2456	0.8845
2465	0.8831
2474	0.8863
2483	0.8833
2492	0.8657
2501	0.8641
2510	0.864
2519	0.8673
2528	0.8791
2537	0.8791
2546	0.8794
2555	0.878
2564	0.8745
2573	0.8745
2582	0.8758
2591	0.8775
2600	0.8801
2609	0.8818
2618	0.8832
2627	0.8827
2636	0.8804
2645	0.877
2654	0.8811
2663	0.8812
2672	0.8801
2681	0.8786
2690	0.8766
2699	0.8754
2708	0.8742
2717	0.8728
2726	0.8712
2735	0.8692
2744	0.8682
2753	0.8675
2762	0.8674
2771	0.8675
2780	0.868
2789	0.8671
2798	0.8642
2807	0.857
2816	0.8462
2825	0.8225
2834	0.6531
2843	0.481
2852	0.7348
2861	0.7958
2870	0.7828
2879	0.7739
2888	0.7708
2897	0.7242
2906	0.6071
2915	0.6073
2924	0.7043
2933	0.5865
2942	0.4328
2951	0.5386
2960	0.4729
2969	0.5252
2978	0.6636
2987	0.7685
2996	0.7597
3005	0.6508
3014	0.5576
3023	0.6783
3032	0.7772
3041	0.796
3050	0.8062
3059	0.8025
3068	0.778
3077	0.7383
3086	0.7825
3095	0.8256
3104	0.8453
3113	0.854
3122	0.8564
3131	0.8577
3140	0.8581
3149	0.8578
3158	0.8578
3167	0.8568
3176	0.8557
3185	0.8547
3194	0.8578
3203	0.8631
3212	0.8678
3221	0.8693
3230	0.8706
3239	0.871
3248	0.8709
3257	0.8708
3266	0.8706
3275	0.8698
3284	0.869
3293	0.8685
3302	0.8682
3311	0.8677
3320	0.8673
3329	0.8667
3338	0.8663
3347	0.8657
3356	0.8651
3365	0.8644
3374	0.8637
3383	0.8628
3392	0.8621
3401	0.8614
3410	0.8609
3419	0.8605
3428	0.8602
3437	0.8596
3446	0.8589
3455	0.8582
3464	0.8575
3473	0.8568
3482	0.8565
3491	0.856
3500	0.8557
3509	0.8553
3518	0.8542
3527	0.8518
3536	0.8495
3545	0.8525
3554	0.8566
3563	0.8597
3572	0.8608
3581	0.8601
3590	0.8578
3599	0.858
3608	0.861
3617	0.8607
3626	0.8596
3635	0.86
3644	0.8605
3653	0.8618
3662	0.8633
3671	0.8618
3680	0.8568
3689	0.8561
3698	0.8588
3707	0.8606
3716	0.8627
3725	0.864
3734	0.8649
3743	0.8623
3752	0.8591
3761	0.8577
3770	0.8581
3779	0.8614
3788	0.8625
3797	0.8607
