Infrared Spectrum: 1,3-DIMETHYL-2-ETHYL BENZENE
Formula: C10 H14
CAS: 2870-04-4
State: LIQUID
Class: COBLENTZ
Instrument: PERKIN-ELMER
Sampling: TRANSMISSION
Path length: 0.0024 CM
Resolution: 4
Origin: STANDARD OIL OF OHIO
1/CM	TRANSMITTANCE
619.663	0.551
628.088	0.554
636.512	0.56
644.937	0.556
653.361	0.5749
661.786	0.6369
670.211	0.6589
678.635	0.693
687.06	0.7189
695.484	0.7488
703.909	0.766
712.334	0.78
720.758	0.786
729.183	0.7741
737.607	0.7174
746.032	0.4013
754.457	0.629
762.881	0.3321
771.306	0.0132
779.73	0.1489
788.155	0.5388
796.58	0.7116
805.004	0.7554
813.429	0.8397
821.853	0.8639
830.278	0.8729
838.703	0.874
847.127	0.874
855.552	0.873
863.976	0.873
872.401	0.8711
880.826	0.866
889.25	0.8375
897.675	0.8074
906.099	0.631
914.524	0.8287
922.949	0.8659
931.373	0.866
939.798	0.8611
948.222	0.8443
956.647	0.7707
965.072	0.609
973.496	0.7657
981.921	0.8167
990.345	0.7755
998.77	0.7904
1007.19	0.798
1015.62	0.7806
1024.04	0.646
1032.47	0.6142
1040.89	0.7629
1049.32	0.7854
1057.74	0.6548
1066.17	0.328
1074.59	0.7659
1083.02	0.8002
1091.44	0.6953
1099.87	0.6228
1108.29	0.8108
1116.71	0.8436
1125.14	0.8588
1133.56	0.859
1141.99	0.857
1150.41	0.8492
1158.84	0.8088
1167.26	0.6875
1175.69	0.8361
1184.11	0.8393
1192.54	0.8338
1200.96	0.8588
1209.38	0.859
1217.81	0.857
1226.23	0.851
1234.66	0.8116
1243.08	0.798
1251.51	0.8159
1259.93	0.847
1268.36	0.849
1276.78	0.847
1285.21	0.847
1293.63	0.8396
1302.06	0.8291
1310.48	0.8185
1318.9	0.7725
1327.33	0.7983
1335.75	0.822
1344.18	0.8182
1352.6	0.8004
1361.03	0.7507
1369.45	0.513
1377.88	0.4164
1386.3	0.6524
1394.73	0.7403
1403.15	0.73
1411.58	0.6987
1420	0.6036
1428.42	0.55
1436.85	0.5031
1445.27	0.2858
1453.7	0.2134
1462.12	0.1586
1470.55	0.0817
1478.97	0.0861
1487.4	0.243
1495.82	0.6267
1504.25	0.725
1512.67	0.7825
1521.1	0.7858
1529.52	0.788
1537.94	0.7877
1546.37	0.8145
1554.79	0.817
1563.22	0.818
1571.64	0.8058
1580.07	0.7671
1588.49	0.7117
1596.92	0.531
1605.34	0.7872
1613.77	0.8727
1622.19	0.8877
1630.62	0.89
1639.04	0.89
1647.46	0.8835
1655.89	0.862
1664.31	0.862
1672.74	0.8984
1681.16	0.9196
1689.59	0.92
1698.01	0.918
1706.44	0.917
1714.86	0.918
1723.29	0.917
1731.71	0.918
1740.13	0.932
1748.56	0.934
1756.98	0.934
1765.41	0.9176
1773.83	0.8928
1782.26	0.876
1790.68	0.8986
1799.11	0.908
1807.53	0.91
1815.96	0.9268
1824.38	0.935
1832.81	0.9342
1841.23	0.914
1849.65	0.8777
1858.08	0.8706
1866.5	0.9065
1874.93	0.9394
1883.35	0.94
1891.78	0.939
1900.2	0.9304
1908.63	0.9141
1917.05	0.8686
1925.48	0.82
1933.9	0.8529
1942.33	0.9064
1950.75	0.9413
1959.17	0.947
1967.6	0.949
1976.02	0.95
1984.45	0.949
1992.87	0.944
2001.3	0.9405
2009.72	0.949
2018.15	0.9425
2026.57	0.94
2035	0.9435
2043.42	0.9485
2051.85	0.949
2060.27	0.949
2068.69	0.947
2077.12	0.949
2085.54	0.95
2093.97	0.95
2102.39	0.95
2110.82	0.949
2119.24	0.9447
2127.67	0.94
2136.09	0.947
2144.52	0.9475
2152.94	0.9425
2161.36	0.949
2169.79	0.95
2178.21	0.95
2186.64	0.95
2195.06	0.95
2203.49	0.95
2211.91	0.95
2220.34	0.95
2228.76	0.949
2237.19	0.947
2245.61	0.9455
2254.04	0.945
2262.46	0.9425
2270.88	0.942
2279.31	0.939
2287.73	0.937
2296.16	0.9465
2304.58	0.949
2313.01	0.947
2321.43	0.9425
2329.86	0.9325
2338.28	0.9335
2346.71	0.939
2355.13	0.939
2363.56	0.939
2371.98	0.9375
2380.4	0.937
2388.83	0.9342
2397.25	0.93
2405.68	0.93
2414.1	0.93
2422.53	0.9285
2430.95	0.918
2439.38	0.9211
2447.8	0.934
2456.23	0.934
2464.65	0.93
2473.07	0.925
2481.5	0.9265
2489.92	0.93
2498.35	0.934
2506.77	0.9335
2515.2	0.934
2523.62	0.934
2532.05	0.932
2540.47	0.9285
2548.9	0.923
2557.32	0.922
2565.75	0.922
2574.17	0.925
2582.59	0.934
2591.02	0.934
2599.44	0.932
2607.87	0.9277
2616.29	0.9172
2624.72	0.9057
2633.14	0.9045
2641.57	0.9123
2649.99	0.9245
2658.42	0.9255
2666.84	0.923
2675.27	0.9205
2683.69	0.9172
2692.11	0.9105
2700.54	0.91
2708.96	0.908
2717.39	0.9019
2725.81	0.8806
2734.24	0.8316
2742.66	0.7908
2751.09	0.872
2759.51	0.879
2767.94	0.8745
2776.36	0.8665
2784.79	0.8529
2793.21	0.849
2801.63	0.8462
2810.06	0.8342
2818.48	0.8069
2826.91	0.7678
2835.33	0.7374
2843.76	0.6912
2852.18	0.6067
2860.61	0.4622
2869.03	0.3608
2877.46	0.23
2885.88	0.1581
2894.3	0.2072
2902.73	0.1759
2911.15	0.14
2919.58	0.126
2928	0.0933
2936.43	0.0795
2944.85	0.055
2953.28	0.0642
2961.7	0.0446
2970.13	0.0137
2978.55	0.0125
2986.98	0.0292
2995.4	0.1948
3003.82	0.3768
3012.25	0.4112
3020.67	0.3632
3029.1	0.2415
3037.52	0.2868
3045.95	0.3525
3054.37	0.419
3062.8	0.465
3071.22	0.4354
3079.65	0.412
3088.07	0.5181
3096.5	0.7358
3104.92	0.8026
3113.34	0.8293
3121.77	0.8505
3130.19	0.8605
3138.62	0.866
3147.04	0.866
3155.47	0.868
3163.89	0.868
3172.32	0.868
3180.74	0.8725
3189.17	0.8805
3197.59	0.8923
3206.02	0.9045
3214.44	0.9128
3222.86	0.917
3231.29	0.917
3239.71	0.917
3248.14	0.917
3256.56	0.917
3264.99	0.917
3273.41	0.917
3281.84	0.917
3290.26	0.917
3298.69	0.917
3307.11	0.917
3315.53	0.917
3323.96	0.917
3332.38	0.918
3340.81	0.918
3349.23	0.918
3357.66	0.917
3366.08	0.917
3374.51	0.917
3382.93	0.915
3391.36	0.915
3399.78	0.915
3408.21	0.913
3416.63	0.913
3425.05	0.912
3433.48	0.91
3441.9	0.91
3450.33	0.908
3458.75	0.906
3467.18	0.906
3475.6	0.906
3484.03	0.906
3492.45	0.905
3500.88	0.905
3509.3	0.906
3517.73	0.906
3526.15	0.9075
3534.57	0.908
3543	0.9095
3551.42	0.908
3559.85	0.91
3568.27	0.908
3576.7	0.908
3585.12	0.9095
3593.55	0.9115
3601.97	0.912
3610.4	0.91
3618.82	0.91
3627.25	0.91
3635.67	0.91
3644.09	0.91
3652.52	0.9085
3660.94	0.906
3669.37	0.906
3677.79	0.905
3686.22	0.905
3694.64	0.905
3703.07	0.9035
3711.49	0.903
3719.92	0.903
3728.34	0.903
3736.76	0.901
3745.19	0.901
3753.61	0.901
3762.04	0.901
3770.46	0.901
3778.89	0.9
3787.31	0.896
3795.74	0.8915
3804.16	0.89
3812.59	0.89
3821.01	0.89
3829.44	0.89
3837.86	0.89
3846.28	0.888
3854.71	0.888
3863.13	0.888
3871.56	0.888
3879.98	0.888
3888.41	0.886
3896.83	0.886
3905.26	0.8845
3913.68	0.883
3922.11	0.881
3930.53	0.8805
3938.96	0.879
3947.38	0.879
