Infrared Spectrum: O-BENZYL PHENOL
Formula: C13 H12 O
CAS: 28994-41-4
State: SOLUTION (10% CCl4 FOR 5000-1330, 10% CS2 FOR 1330-625 CM^-^1)
Boiling point: 139-140 C AT 1 mmHg
Class: COBLENTZ
Instrument: Not specified, most likely a prism, grating, or hybrid spectrometer.
Sampling: TRANSMISSION
Path length: 0.0107 CM, 0.0105 CM
Resolution: 4
Origin: DOW CHEMICAL COMPANY
MICROMETERS	TRANSMITTANCE
2.041	0.865
2.08202	0.865
2.12303	0.863
2.16405	0.861
2.20506	0.861
2.24608	0.861
2.28709	0.861
2.32811	0.861
2.36913	0.861
2.41014	0.861
2.45116	0.86
2.49217	0.866
2.53319	0.872
2.5742	0.873
2.61522	0.878
2.65624	0.882
2.69725	0.873
2.73827	0.788
2.77928	0.612
2.8203	0.551
2.86132	0.619
2.90233	0.68
2.94335	0.725
2.98436	0.761
3.02538	0.803
3.06639	0.827
3.10741	0.843
3.14843	0.856
3.18944	0.843
3.23046	0.737
3.27147	0.643
3.31249	0.609
3.3535	0.858
3.39452	0.798
3.43554	0.774
3.47655	0.848
3.51757	0.86
3.55858	0.904
3.5996	0.907
3.64061	0.909
3.68163	0.909
3.72265	0.909
3.76366	0.909
3.80468	0.911
3.84569	0.907
3.88671	0.909
3.92773	0.911
3.96874	0.906
4.00976	0.906
4.05077	0.911
4.09179	0.911
4.1328	0.911
4.17382	0.907
4.21484	0.897
4.25585	0.895
4.29687	0.899
4.33788	0.912
4.3789	0.918
4.41991	0.924
4.46093	0.93
4.50195	0.938
4.54296	0.941
4.58398	0.941
4.62499	0.94
4.66601	0.94
4.70702	0.94
4.74804	0.938
4.78906	0.936
4.83007	0.936
4.87109	0.936
4.9121	0.936
4.95312	0.931
4.99413	0.93
5.03515	0.93
5.07617	0.928
5.11718	0.897
5.1582	0.883
5.19921	0.889
5.24023	0.894
5.28125	0.882
5.32226	0.89
5.36328	0.894
5.40429	0.899
5.44531	0.909
5.48632	0.902
5.52734	0.882
5.56836	0.883
5.60937	0.887
5.65039	0.895
5.6914	0.912
5.73242	0.909
5.77343	0.909
5.81445	0.918
5.85547	0.914
5.89648	0.906
5.9375	0.897
5.97851	0.897
6.01953	0.894
6.06054	0.887
6.10156	0.877
6.14258	0.817
6.18359	0.692
6.22461	0.503
6.26562	0.412
6.30664	0.414
6.34766	0.564
6.38867	0.568
6.42969	0.534
6.4707	0.539
6.51172	0.612
6.55273	0.631
6.59375	0.542
6.63477	0.433
6.67578	0.298
6.7168	0.288
6.75781	0.639
6.79883	0.638
6.83984	0.481
6.88086	0.286
6.92188	0.682
6.96289	0.708
7.00391	0.796
7.04492	0.843
7.08594	0.849
7.12695	0.851
7.16797	0.834
7.20899	0.824
7.25	0.813
7.29102	0.815
7.33203	0.793
7.37305	0.766
7.41407	0.732
7.45508	0.665
7.4961	0.523
7.53711	0.435
7.57813	0.663
7.61914	0.773
7.66016	0.784
7.70118	0.784
7.74219	0.776
7.78321	0.745
7.82422	0.668
7.86524	0.605
7.90625	0.505
7.94727	0.349
7.98829	0.327
8.0293	0.419
8.07032	0.479
8.11133	0.547
8.15235	0.547
8.19336	0.488
8.23438	0.337
8.2754	0.307
8.31641	0.428
8.35743	0.465
8.39844	0.465
8.43946	0.489
8.48047	0.503
8.52149	0.46
8.56251	0.344
8.60352	0.385
8.64454	0.489
8.68555	0.532
8.72657	0.658
8.76759	0.769
8.8086	0.817
8.84962	0.841
8.89063	0.854
8.93165	0.849
8.97266	0.796
9.01368	0.755
9.0547	0.713
9.09571	0.66
9.13673	0.513
9.17774	0.423
9.21876	0.573
9.25977	0.708
9.30079	0.721
9.34181	0.708
9.38282	0.803
9.42384	0.848
9.46485	0.856
9.50587	0.843
9.54688	0.795
9.5879	0.716
9.62892	0.645
9.66993	0.65
9.71095	0.663
9.75196	0.779
9.79298	0.854
9.834	0.883
9.87501	0.89
9.91603	0.899
9.95704	0.904
9.99806	0.909
10.0391	0.921
10.0801	0.936
10.1211	0.936
10.1621	0.926
10.2031	0.918
10.2442	0.907
10.2852	0.907
10.3262	0.906
10.3672	0.906
10.4082	0.906
10.4492	0.906
10.4902	0.904
10.5313	0.897
10.5723	0.877
10.6133	0.839
10.6543	0.802
10.6953	0.778
10.7363	0.764
10.7774	0.778
10.8184	0.829
10.8594	0.848
10.9004	0.858
10.9414	0.863
10.9824	0.866
11.0235	0.866
11.0645	0.863
11.1055	0.844
11.1465	0.832
11.1875	0.819
11.2285	0.813
11.2695	0.812
11.3106	0.812
11.3516	0.808
11.3926	0.803
11.4336	0.796
11.4746	0.778
11.5156	0.752
11.5567	0.708
11.5977	0.68
11.6387	0.65
11.6797	0.612
11.7207	0.573
11.7617	0.552
11.8028	0.6
11.8438	0.672
11.8848	0.728
11.9258	0.761
11.9668	0.784
12.0078	0.808
12.0488	0.827
12.0899	0.839
12.1309	0.841
12.1719	0.836
12.2129	0.827
12.2539	0.815
12.2949	0.808
12.336	0.803
12.377	0.796
12.418	0.791
12.459	0.788
12.5	0.784
12.541	0.773
12.5821	0.749
12.6231	0.72
12.6641	0.718
12.7051	0.72
12.7461	0.692
12.7871	0.672
12.8281	0.67
12.8692	0.674
12.9102	0.686
12.9512	0.701
12.9922	0.725
13.0332	0.718
13.0742	0.682
13.1153	0.617
13.1563	0.52
13.1973	0.411
13.2383	0.245
13.2793	0.088
13.3203	0.018
13.3614	0.025
13.4024	0.129
13.4434	0.279
13.4844	0.419
13.5254	0.486
13.5664	0.46
13.6074	0.385
13.6485	0.242
13.6895	0.131
13.7305	0.08
13.7715	0.08
13.8125	0.127
13.8535	0.238
13.8946	0.339
13.9356	0.421
13.9766	0.479
14.0176	0.513
14.0586	0.515
14.0996	0.493
14.1407	0.472
14.1817	0.428
14.2227	0.365
14.2637	0.262
14.3047	0.174
14.3457	0.129
14.3867	0.151
14.4278	0.271
14.4688	0.373
14.5098	0.459
14.5508	0.511
14.5918	0.53
14.6328	0.537
14.6739	0.539
14.7149	0.532
14.7559	0.53
14.7969	0.53
14.8379	0.523
14.8789	0.508
14.9199	0.5
14.961	0.503
15.002	0.513
15.043	0.51
15.084	0.5
15.125	0.489
15.166	0.479
15.2071	0.467
15.2481	0.455
15.2891	0.45
15.3301	0.452
15.3711	0.448
15.4121	0.445
15.4532	0.445
15.4942	0.443
15.5352	0.438
15.5762	0.435
15.6172	0.43
15.6582	0.426
15.6992	0.423
15.7403	0.423
15.7813	0.423
15.8223	0.423
15.8633	0.423
15.9043	0.426
