Infrared Spectrum: CYCLOOCTANE
Formula: C8 H16
CAS: 292-64-8
State: LIQUID
Boiling point: 68 C AT 50 mmHg
Class: COBLENTZ
Instrument: Not specified, most likely a prism, grating, or hybrid spectrometer.
Sampling: TRANSMISSION
Path length: SMEAR
Resolution: 4
Origin: TENNESSEE EASTMAN COMPANY, RESEARCH LABORATORIES
MICROMETERS	TRANSMITTANCE
2.026	0.891
2.06574	0.898
2.10547	0.9
2.14521	0.906
2.18495	0.91
2.22468	0.906
2.26442	0.881
2.30415	0.816
2.34389	0.816
2.38363	0.841
2.42336	0.848
2.4631	0.85
2.50284	0.861
2.54257	0.868
2.58231	0.868
2.62205	0.87
2.66178	0.878
2.70152	0.88
2.74126	0.881
2.78099	0.886
2.82073	0.896
2.86046	0.898
2.9002	0.891
2.93994	0.865
2.97967	0.858
3.01941	0.871
3.05915	0.878
3.09888	0.868
3.13862	0.868
3.17836	0.875
3.21809	0.86
3.25783	0.858
3.29757	0.815
3.3373	0.66
3.37704	0.061
3.41677	0.001
3.45651	0.006
3.49625	0.034
3.53598	0.394
3.57572	0.587
3.61546	0.79
3.65519	0.77
3.69493	0.662
3.73467	0.524
3.7744	0.705
3.81414	0.813
3.85388	0.831
3.89361	0.843
3.93335	0.851
3.97308	0.883
4.01282	0.905
4.05256	0.92
4.09229	0.915
4.13203	0.911
4.17177	0.908
4.2115	0.926
4.25124	0.931
4.29098	0.916
4.33071	0.898
4.37045	0.906
4.41019	0.923
4.44992	0.92
4.48966	0.916
4.52939	0.921
4.56913	0.933
4.60887	0.931
4.6486	0.918
4.68834	0.926
4.72808	0.935
4.76781	0.938
4.80755	0.95
4.84729	0.948
4.88702	0.948
4.92676	0.951
4.9665	0.953
5.00623	0.956
5.04597	0.948
5.0857	0.946
5.12544	0.946
5.16518	0.948
5.20491	0.95
5.24465	0.951
5.28439	0.953
5.32412	0.956
5.36386	0.958
5.4036	0.958
5.44333	0.95
5.48307	0.95
5.52281	0.953
5.56254	0.951
5.60228	0.951
5.64201	0.948
5.68175	0.946
5.72149	0.943
5.76122	0.94
5.80096	0.948
5.8407	0.926
5.88043	0.93
5.92017	0.921
5.95991	0.915
5.99964	0.911
6.03938	0.918
6.07912	0.901
6.11885	0.918
6.15859	0.918
6.19832	0.918
6.23806	0.923
6.2778	0.926
6.31753	0.93
6.35727	0.923
6.39701	0.901
6.43674	0.915
6.47648	0.891
6.51622	0.898
6.55595	0.861
6.59569	0.831
6.63543	0.787
6.67516	0.652
6.7149	0.297
6.75463	0.079
6.79437	0.086
6.83411	0.179
6.87384	0.059
6.91358	0.184
6.95332	0.565
6.99305	0.737
7.03279	0.797
7.07253	0.833
7.11226	0.85
7.152	0.853
7.19174	0.856
7.23147	0.85
7.27121	0.818
7.31094	0.685
7.35068	0.584
7.39042	0.733
7.43015	0.717
7.46989	0.763
7.50963	0.838
7.54936	0.845
7.5891	0.855
7.62884	0.863
7.66857	0.86
7.70831	0.808
7.74805	0.682
7.78778	0.782
7.82752	0.841
7.86725	0.841
7.90699	0.777
7.94673	0.693
7.98646	0.787
8.0262	0.82
8.06594	0.801
8.10567	0.753
8.14541	0.793
8.18515	0.806
8.22488	0.833
8.26462	0.863
8.30436	0.855
8.34409	0.866
8.38383	0.866
8.42356	0.866
8.4633	0.863
8.50304	0.855
8.54277	0.848
8.58251	0.848
8.62225	0.848
8.66198	0.848
8.70172	0.845
8.74146	0.8
8.78119	0.72
8.82093	0.778
8.86067	0.808
8.9004	0.813
8.94014	0.811
8.97987	0.803
9.01961	0.8
9.05935	0.797
9.09908	0.787
9.13882	0.768
9.17856	0.767
9.21829	0.792
9.25803	0.8
9.29777	0.803
9.3375	0.803
9.37724	0.797
9.41698	0.777
9.45671	0.735
9.49645	0.637
9.53618	0.477
9.57592	0.54
9.61566	0.687
9.65539	0.763
9.69513	0.798
9.73487	0.808
9.7746	0.818
9.81434	0.826
9.85408	0.833
9.89381	0.84
9.93355	0.848
9.97329	0.851
10.013	0.853
10.0528	0.855
10.0925	0.843
10.1322	0.81
10.172	0.808
10.2117	0.83
10.2514	0.841
10.2912	0.841
10.3309	0.823
10.3706	0.792
10.4104	0.703
10.4501	0.653
10.4899	0.723
10.5296	0.748
10.5693	0.803
10.6091	0.848
10.6488	0.87
10.6885	0.883
10.7283	0.893
10.768	0.901
10.8078	0.905
10.8475	0.906
10.8872	0.911
10.927	0.913
10.9667	0.916
11.0064	0.918
11.0462	0.918
11.0859	0.918
11.1256	0.92
11.1654	0.92
11.2051	0.913
11.2449	0.901
11.2846	0.896
11.3243	0.893
11.3641	0.891
11.4038	0.87
11.4435	0.828
11.4833	0.821
11.523	0.851
11.5627	0.856
11.6025	0.818
11.6422	0.678
11.682	0.584
11.7217	0.712
11.7614	0.815
11.8012	0.863
11.8409	0.883
11.8806	0.895
11.9204	0.905
11.9601	0.908
11.9998	0.91
12.0396	0.91
12.0793	0.905
12.1191	0.895
12.1588	0.89
12.1985	0.885
12.2383	0.876
12.278	0.868
12.3177	0.858
12.3575	0.848
12.3972	0.831
12.4369	0.82
12.4767	0.798
12.5164	0.733
12.5562	0.648
12.5959	0.647
12.6356	0.748
12.6754	0.793
12.7151	0.806
12.7548	0.808
12.7946	0.782
12.8343	0.732
12.874	0.65
12.9138	0.502
12.9535	0.382
12.9933	0.412
13.033	0.53
13.0727	0.627
13.1125	0.715
13.1522	0.76
13.1919	0.797
13.2317	0.81
13.2714	0.83
13.3111	0.84
13.3509	0.848
13.3906	0.853
13.4304	0.855
13.4701	0.856
13.5098	0.856
13.5496	0.856
13.5893	0.856
13.629	0.858
13.6688	0.858
13.7085	0.85
13.7482	0.846
13.788	0.848
13.8277	0.84
13.8675	0.841
13.9072	0.841
13.9469	0.845
13.9867	0.848
14.0264	0.85
14.0661	0.848
14.1059	0.846
14.1456	0.84
14.1853	0.826
14.2251	0.811
14.2648	0.797
14.3046	0.793
14.3443	0.797
14.384	0.808
14.4238	0.818
14.4635	0.825
14.5032	0.825
14.543	0.826
14.5827	0.828
14.6224	0.828
14.6622	0.828
14.7019	0.826
14.7417	0.82
14.7814	0.818
14.8211	0.818
14.8609	0.813
14.9006	0.806
14.9403	0.801
14.9801	0.8
15.0198	0.797
15.0595	0.795
15.0993	0.793
15.139	0.792
15.1788	0.788
15.2185	0.782
15.2582	0.778
15.298	0.775
15.3377	0.77
15.3774	0.768
15.4172	0.767
15.4569	0.763
15.4966	0.762
15.5364	0.762
15.5761	0.76
15.6159	0.753
15.6556	0.752
15.6953	0.752
15.7351	0.743
15.7748	0.743
15.8145	0.737
15.8543	0.737
15.894	0.735
15.9337	0.733
15.9735	0.733
