Infrared Spectrum: PHENYL-p-BROMOPHENYL METHANOL
Formula: C13 H11 Br O
CAS: 29334-16-5
State: SOLUTION (10% CCl4 FOR 5000-1330, 10% CS2 FOR 1330-625 CM^-^1)
Class: COBLENTZ
Instrument: Not specified, most likely a prism, grating, or hybrid spectrometer.
Sampling: TRANSMISSION
Path length: 0.0126 CM, 0.0121 CM
Resolution: 4
Origin: DOW CHEMICAL COMPANY
MICROMETERS	TRANSMITTANCE
2.027	0.897
2.06804	0.901
2.10907	0.89
2.15011	0.899
2.19114	0.897
2.23218	0.899
2.27322	0.899
2.31425	0.899
2.35529	0.897
2.39632	0.901
2.43736	0.887
2.4784	0.908
2.51943	0.899
2.56047	0.899
2.6015	0.902
2.64254	0.899
2.68358	0.896
2.72461	0.855
2.76565	0.701
2.80668	0.77
2.84772	0.724
2.88876	0.664
2.92979	0.647
2.97083	0.65
3.01186	0.696
3.0529	0.754
3.09394	0.809
3.13497	0.846
3.17601	0.851
3.21704	0.785
3.25808	0.737
3.29912	0.732
3.34015	0.86
3.38119	0.85
3.42222	0.802
3.46326	0.764
3.5043	0.86
3.54533	0.879
3.58637	0.887
3.6274	0.89
3.66844	0.894
3.70948	0.896
3.75051	0.894
3.79155	0.897
3.83258	0.89
3.87362	0.894
3.91466	0.899
3.95569	0.902
3.99673	0.904
4.03776	0.902
4.0788	0.904
4.11984	0.902
4.16087	0.902
4.20191	0.896
4.24294	0.896
4.28398	0.887
4.32502	0.882
4.36605	0.889
4.40709	0.901
4.44812	0.904
4.48916	0.906
4.5302	0.913
4.57123	0.911
4.61227	0.916
4.6533	0.913
4.69434	0.911
4.73538	0.909
4.77641	0.911
4.81745	0.906
4.85848	0.899
4.89952	0.899
4.94056	0.901
4.98159	0.899
5.02263	0.899
5.06366	0.889
5.1047	0.873
5.14574	0.889
5.18677	0.889
5.22781	0.851
5.26884	0.853
5.30988	0.875
5.35092	0.894
5.39195	0.897
5.43299	0.897
5.47403	0.882
5.51506	0.87
5.5561	0.875
5.59713	0.879
5.63817	0.882
5.67921	0.879
5.72024	0.882
5.76128	0.884
5.80231	0.887
5.84335	0.889
5.88439	0.885
5.92542	0.868
5.96646	0.848
6.00749	0.833
6.04853	0.85
6.08957	0.862
6.1306	0.844
6.17164	0.802
6.21267	0.674
6.25371	0.553
6.29475	0.558
6.33578	0.567
6.37682	0.534
6.41785	0.465
6.45889	0.466
6.49993	0.553
6.54096	0.608
6.582	0.657
6.62303	0.664
6.66407	0.507
6.70511	0.279
6.74614	0.635
6.78718	0.761
6.82821	0.654
6.86925	0.558
6.91029	0.78
6.95132	0.785
6.99236	0.766
7.03339	0.717
7.07443	0.623
7.11547	0.529
7.1565	0.633
7.19754	0.696
7.23857	0.693
7.27961	0.671
7.32065	0.667
7.36168	0.712
7.40272	0.732
7.44375	0.732
7.48479	0.73
7.52583	0.735
7.56686	0.741
7.6079	0.724
7.64893	0.735
7.68997	0.735
7.73101	0.725
7.77204	0.717
7.81308	0.73
7.85411	0.735
7.89515	0.747
7.93619	0.763
7.97722	0.763
8.01826	0.751
8.05929	0.737
8.10033	0.717
8.14137	0.7
8.1824	0.686
8.22344	0.676
8.26447	0.686
8.30551	0.695
8.34655	0.657
8.38758	0.587
8.42862	0.502
8.46965	0.487
8.51069	0.477
8.55173	0.536
8.59276	0.626
8.6338	0.688
8.67483	0.729
8.71587	0.756
8.75691	0.766
8.79794	0.775
8.83898	0.775
8.88001	0.775
8.92105	0.775
8.96209	0.761
9.00312	0.73
9.04416	0.695
9.08519	0.718
9.12623	0.759
9.16727	0.764
9.2083	0.742
9.24934	0.669
9.29037	0.534
9.33141	0.325
9.37245	0.49
9.41348	0.674
9.45452	0.695
9.49555	0.654
9.53659	0.565
9.57763	0.451
9.61866	0.374
9.6597	0.364
9.70073	0.41
9.74177	0.369
9.78281	0.332
9.82384	0.349
9.86488	0.214
9.90591	0.141
9.94695	0.422
9.98799	0.511
10.029	0.645
10.0701	0.706
10.1111	0.742
10.1521	0.758
10.1932	0.771
10.2342	0.787
10.2752	0.802
10.3163	0.804
10.3573	0.798
10.3983	0.804
10.4394	0.812
10.4804	0.816
10.5215	0.816
10.5625	0.81
10.6035	0.804
10.6446	0.807
10.6856	0.822
10.7266	0.829
10.7677	0.833
10.8087	0.821
10.8497	0.797
10.8908	0.756
10.9318	0.746
10.9729	0.783
11.0139	0.812
11.0549	0.819
11.096	0.821
11.137	0.817
11.178	0.812
11.2191	0.804
11.2601	0.788
11.3011	0.766
11.3422	0.749
11.3832	0.732
11.4242	0.713
11.4653	0.691
11.5063	0.657
11.5474	0.611
11.5884	0.567
11.6294	0.526
11.6705	0.473
11.7115	0.439
11.7525	0.42
11.7936	0.427
11.8346	0.461
11.8756	0.488
11.9167	0.519
11.9577	0.55
11.9988	0.577
12.0398	0.594
12.0808	0.604
12.1219	0.608
12.1629	0.608
12.2039	0.604
12.245	0.592
12.286	0.568
12.327	0.557
12.3681	0.545
12.4091	0.533
12.4501	0.516
12.4912	0.505
12.5322	0.478
12.5733	0.444
12.6143	0.408
12.6553	0.371
12.6964	0.385
12.7374	0.468
12.7784	0.541
12.8195	0.608
12.8605	0.662
12.9015	0.678
12.9426	0.686
12.9836	0.664
13.0247	0.623
13.0657	0.562
13.1067	0.48
13.1478	0.412
13.1888	0.381
13.2298	0.357
13.2709	0.35
13.3119	0.356
13.3529	0.357
13.394	0.371
13.435	0.381
13.476	0.4
13.5171	0.432
13.5581	0.485
13.5992	0.546
13.6402	0.601
13.6812	0.643
13.7223	0.654
13.7633	0.652
13.8043	0.64
13.8454	0.614
13.8864	0.575
13.9274	0.526
13.9685	0.463
14.0095	0.441
14.0506	0.454
14.0916	0.456
14.1326	0.413
14.1737	0.328
14.2147	0.221
14.2557	0.137
14.2968	0.107
14.3378	0.158
14.3788	0.286
14.4199	0.402
14.4609	0.483
14.5019	0.521
14.543	0.546
14.584	0.551
14.6251	0.55
14.6661	0.538
14.7071	0.526
14.7482	0.511
14.7892	0.497
14.8302	0.485
14.8713	0.48
14.9123	0.475
14.9533	0.475
14.9944	0.477
15.0354	0.471
15.0765	0.466
15.1175	0.463
15.1585	0.461
15.1996	0.459
15.2406	0.456
15.2816	0.451
15.3227	0.448
15.3637	0.442
15.4047	0.441
15.4458	0.439
15.4868	0.436
15.5278	0.427
15.5689	0.419
15.6099	0.408
15.651	0.398
15.692	0.371
15.733	0.366
15.7741	0.359
15.8151	0.349
