Infrared Spectrum: CYCLODODECANE
Formula: C12 H24
CAS: 294-62-2
State: SOLUTION (CCl4 (VS. CCl4) FOR 4000-1200, CS2 (VS. CS2) FOR 1200-450 CM^-^1)
Class: COBLENTZ III
Instrument: CARY 90 (GRATING)
Instrument parameters: GRATING CHANGES: 3000, 2000, 1200 CM^-^1
Path length: 0.010 CM, AND 0.010 CM
Resolution: 2
Origin: WESTERN REGIONAL RES. USDA
1/CM	TRANSMITTANCE
467.925	0.833
477.611	0.882
487.296	0.926
496.982	0.954
506.667	0.964
516.353	0.971
526.038	0.974
535.724	0.977
545.409	0.981
555.095	0.983
564.78	0.985
574.466	0.987
584.151	0.99
593.837	0.991
603.523	0.994
613.208	0.996
622.894	0.998
632.579	1.001
642.265	1.003
651.95	1
661.636	0.995
671.321	0.984
681.007	0.942
690.692	0.918
700.378	0.854
710.064	0.5781
719.749	0.2239
729.435	0.878
739.12	0.939
748.806	0.961
758.491	0.948
768.177	0.962
777.862	0.931
787.548	0.954
797.233	0.968
806.919	0.92
816.604	0.8
826.29	0.954
835.976	0.99
845.661	1.001
855.347	0.973
865.032	0.975
874.718	0.981
884.403	0.98
894.089	0.975
903.774	0.966
913.46	0.96
923.145	0.95
932.831	0.946
942.517	0.941
952.202	0.924
961.888	0.875
971.573	0.949
981.259	0.962
990.944	0.963
1000.63	0.963
1010.32	0.961
1020	0.942
1029.69	0.9161
1039.37	0.781
1049.06	0.906
1058.74	0.935
1068.43	0.91
1078.11	0.924
1087.8	0.941
1097.49	0.948
1107.17	0.952
1116.86	0.952
1126.54	0.951
1136.23	0.949
1145.91	0.943
1155.6	0.921
1165.28	0.909
1174.97	0.912
1184.66	0.926
1194.34	0.926
1204.03	0.91
1213.71	0.888
1223.4	0.849
1233.08	0.7851
1242.77	0.485
1252.45	0.762
1262.14	0.751
1271.82	0.754
1281.51	0.732
1291.2	0.703
1300.88	0.693
1310.57	0.6219
1320.25	0.741
1329.94	0.721
1339.62	0.522
1349.31	0.538
1358.99	0.665
1368.68	0.74
1378.37	0.792
1388.05	0.798
1397.74	0.791
1407.42	0.775
1417.11	0.744
1426.79	0.6871
1436.48	0.47
1446.16	0.062
1455.85	0.42
1465.54	0.306
1475.22	0.1698
1484.91	0.655
1494.59	0.754
1504.28	0.797
1513.96	0.813
1523.65	0.827
1533.33	0.84
1543.02	0.852
1552.71	0.866
1562.39	0.865
1572.08	0.853
1581.76	0.854
1591.45	0.853
1601.13	0.84
1610.82	0.834
1620.5	0.833
1630.19	0.834
1639.88	0.833
1649.56	0.833
1659.25	0.833
1668.93	0.834
1678.62	0.835
1688.3	0.834
1697.99	0.832
1707.67	0.824
1717.36	0.824
1727.05	0.816
1736.73	0.818
1746.42	0.827
1756.1	0.831
1765.79	0.829
1775.47	0.828
1785.16	0.833
1794.84	0.835
1804.53	0.839
1814.22	0.838
1823.9	0.837
1833.59	0.834
1843.27	0.838
1852.96	0.834
1862.64	0.832
1872.33	0.833
1882.01	0.835
1891.7	0.837
1901.39	0.839
1911.07	0.839
1920.76	0.839
1930.44	0.839
1940.13	0.839
1949.81	0.839
1959.5	0.837
1969.18	0.838
1978.87	0.833
1988.55	0.828
1998.24	0.842
2007.93	0.846
2017.61	0.846
2027.3	0.846
2036.98	0.845
2046.67	0.843
2056.35	0.841
2066.04	0.841
2075.72	0.844
2085.41	0.849
2095.1	0.849
2104.78	0.849
2114.47	0.849
2124.15	0.85
2133.84	0.849
2143.52	0.846
2153.21	0.845
2162.89	0.846
2172.58	0.848
2182.27	0.8515
2191.95	0.856
2201.64	0.857
2211.32	0.8549
2221.01	0.8504
2230.69	0.8439
2240.38	0.8404
2250.06	0.8371
2259.75	0.8406
2269.44	0.8461
2279.12	0.8506
2288.81	0.852
2298.49	0.8514
2308.18	0.851
2317.86	0.8468
2327.55	0.8431
2337.23	0.8472
2346.92	0.8561
2356.61	0.859
2366.29	0.8569
2375.98	0.853
2385.66	0.846
2395.35	0.846
2405.03	0.8429
2414.72	0.842
2424.4	0.844
2434.09	0.842
2443.78	0.8454
2453.46	0.8566
2463.15	0.86
2472.83	0.8578
2482.52	0.8519
2492.2	0.8454
2501.89	0.8397
2511.57	0.8291
2521.26	0.7951
2530.95	0.8049
2540.63	0.8173
2550.32	0.824
2560	0.816
2569.69	0.8236
2579.37	0.814
2589.06	0.8247
2598.74	0.819
2608.43	0.8003
2618.12	0.7937
2627.8	0.7843
2637.49	0.7532
2647.17	0.7663
2656.86	0.7177
2666.54	0.676
2676.23	0.6444
2685.91	0.7187
2695.6	0.7319
2705.28	0.7624
2714.97	0.7724
2724.66	0.774
2734.34	0.7754
2744.03	0.769
2753.71	0.778
2763.4	0.77
2773.08	0.7748
2782.77	0.7452
2792.45	0.7039
2802.14	0.6727
2811.83	0.602
2821.51	0.5479
2831.2	0.4822
2840.88	0.2989
2850.57	0.0087
2860.25	0.0088
2869.94	0.001
2879.62	0.0099
2889.31	0.0365
2899	0.0135
2908.68	0.0088
2918.37	0.007
2928.05	0.0018
2937.74	0
2947.42	0.0022
2957.11	0.0068
2966.79	0.0218
2976.48	0.1196
2986.17	0.3645
2995.85	0.5496
3005.54	0.664
3015.22	0.7279
3024.91	0.7686
3034.59	0.7911
3044.28	0.8091
3053.96	0.8278
3063.65	0.8343
3073.34	0.8408
3083.02	0.8466
3092.71	0.8508
3102.39	0.855
3112.08	0.855
3121.76	0.856
3131.45	0.857
3141.13	0.859
3150.82	0.859
3160.51	0.859
3170.19	0.859
3179.88	0.859
3189.56	0.8542
3199.25	0.8454
3208.93	0.844
3218.62	0.8596
3228.3	0.8628
3237.99	0.8643
3247.68	0.8708
3257.36	0.8763
3267.05	0.8828
3276.73	0.8867
3286.42	0.8823
3296.1	0.883
3305.79	0.885
3315.47	0.886
3325.16	0.887
3334.85	0.888
3344.53	0.889
3354.22	0.892
3363.9	0.893
3373.59	0.893
3383.27	0.893
3392.96	0.892
3402.64	0.889
3412.33	0.8876
3422.02	0.886
3431.7	0.8864
3441.39	0.889
3451.07	0.892
3460.76	0.8939
3470.44	0.895
3480.13	0.8969
3489.81	0.897
3499.5	0.897
3509.18	0.897
3518.87	0.8961
3528.56	0.895
3538.24	0.8921
3547.93	0.8886
3557.61	0.886
3567.3	0.884
3576.98	0.882
3586.67	0.878
3596.35	0.8761
3606.04	0.872
3615.73	0.872
3625.41	0.872
3635.1	0.8729
3644.78	0.874
3654.47	0.876
3664.15	0.876
3673.84	0.876
3683.52	0.876
3693.21	0.875
3702.9	0.874
3712.58	0.873
3722.27	0.872
3731.95	0.874
3741.64	0.8785
3751.32	0.882
3761.01	0.881
3770.69	0.879
3780.38	0.881
3790.07	0.883
3799.75	0.884
3809.44	0.883
3819.12	0.882
3828.81	0.879
3838.49	0.878
3848.18	0.877
3857.86	0.875
3867.55	0.874
3877.24	0.872
3886.92	0.871
3896.61	0.87
3906.29	0.868
3915.98	0.867
3925.66	0.868
3935.35	0.868
3945.03	0.868
3954.72	0.867
3964.41	0.866
3974.09	0.8615
3983.78	0.856
3993.46	0.8505
4003.15	0.85
