Infrared Spectrum: 2-Methyl-6-nitrobenzothiazole
Formula: C8 H6 N2 O2 S
CAS: 2941-63-1
State: SOLID (SPLIT MULL)
Class: COBLENTZ II
Instrument: DOW KBr FOREPRISM-GRATING
Instrument parameters: BLAZED AT 3.5, 12.0, 20.0 MICRON AND CHANGED AT 5.0, 7.5, 14.9 MICRON
Sampling: TRANSMISSION
Resolution: 2
Origin: DOW CHEMICAL COMPANY
1/CM	TRANSMITTANCE
3800	0.6615
3791	0.6617
3782	0.6619
3773	0.6621
3764	0.6624
3755	0.6624
3746	0.6628
3737	0.6643
3728	0.6678
3719	0.6721
3710	0.6743
3701	0.6754
3692	0.6765
3683	0.6778
3674	0.6793
3665	0.6808
3656	0.6824
3647	0.6841
3638	0.6853
3629	0.6862
3620	0.6871
3611	0.6878
3602	0.6884
3593	0.688
3584	0.686
3575	0.6849
3566	0.6868
3557	0.689
3548	0.6908
3539	0.6917
3530	0.6925
3521	0.6936
3512	0.6945
3503	0.6954
3494	0.6961
3485	0.6968
3476	0.6975
3467	0.6982
3458	0.6989
3449	0.6997
3440	0.7008
3431	0.7018
3422	0.703
3413	0.7039
3404	0.7048
3395	0.7056
3386	0.7064
3377	0.7081
3368	0.7098
3359	0.7117
3350	0.714
3341	0.7161
3332	0.7184
3323	0.7198
3314	0.721
3305	0.7221
3296	0.723
3287	0.7237
3278	0.7244
3269	0.7257
3260	0.7274
3251	0.729
3242	0.7307
3233	0.7322
3224	0.734
3215	0.7355
3206	0.7371
3197	0.738
3188	0.7387
3179	0.7394
3170	0.74
3161	0.7397
3152	0.7385
3143	0.7351
3134	0.7306
3125	0.7311
3116	0.7264
3107	0.6199
3098	0.6499
3089	0.6289
3080	0.5002
3071	0.558
3062	0.6268
3053	0.6678
3044	0.6965
3035	0.709
3026	0.716
3017	0.724
3008	0.7225
2999	0.7198
2990	0.7265
2981	0.7354
2972	0.7376
2963	0.7439
2954	0.7508
2945	0.7545
2936	0.7507
2927	0.7481
2918	0.7521
2909	0.7546
2900	0.7546
2891	0.7568
2882	0.7599
2873	0.7622
2864	0.763
2855	0.759
2846	0.7521
2837	0.7469
2828	0.7478
2819	0.755
2810	0.7626
2801	0.7671
2792	0.7684
2783	0.7665
2774	0.7669
2765	0.7693
2756	0.7715
2747	0.7739
2738	0.7757
2729	0.7775
2720	0.7792
2711	0.7808
2702	0.7824
2693	0.783
2684	0.7822
2675	0.7724
2666	0.769
2657	0.7754
2648	0.78
2639	0.7822
2630	0.7847
2621	0.7868
2612	0.7886
2603	0.7904
2594	0.7921
2585	0.7935
2576	0.7947
2567	0.7958
2558	0.796
2549	0.7958
2540	0.7962
2531	0.7965
2522	0.7957
2513	0.7915
2504	0.7934
2495	0.795
2486	0.7955
2477	0.7935
2468	0.7874
2459	0.7833
2450	0.7887
2441	0.7921
2432	0.7941
2423	0.7955
2414	0.7969
2405	0.7978
2396	0.7978
2387	0.7958
2378	0.7928
2369	0.79
2360	0.7871
2351	0.784
2342	0.7814
2333	0.7794
2324	0.7804
2315	0.7849
2306	0.7892
2297	0.7926
2288	0.7955
2279	0.7974
2270	0.7958
2261	0.7951
2252	0.7954
2243	0.8001
2234	0.8048
2225	0.8084
2216	0.8111
2207	0.8137
2198	0.8158
2189	0.8181
2180	0.8221
2171	0.822
2162	0.8246
2153	0.8266
2144	0.8285
2135	0.8304
2126	0.8321
2117	0.8339
2108	0.8356
2099	0.8374
2090	0.8393
2081	0.8412
2072	0.8428
2063	0.8445
2054	0.8459
2045	0.8471
2036	0.8482
2027	0.8485
2018	0.8494
2009	0.8512
2000	0.853
1991	0.8491
1982	0.8548
1973	0.8593
1964	0.863
1955	0.866
1946	0.8668
1937	0.8663
1928	0.8684
1919	0.8662
1910	0.8324
1901	0.8668
1892	0.8662
1883	0.8657
1874	0.8652
1865	0.8657
1856	0.8685
1847	0.869
1838	0.8671
1829	0.8541
1820	0.8517
1811	0.8632
1802	0.8695
1793	0.8668
1784	0.8468
1775	0.8678
1766	0.8767
1757	0.8788
1748	0.8777
1739	0.8788
1730	0.8825
1721	0.8844
1712	0.8862
1703	0.8868
1694	0.8857
1685	0.8792
1676	0.8762
1667	0.866
1658	0.8663
1649	0.877
1640	0.8803
1631	0.8775
1622	0.8735
1613	0.8657
1604	0.6241
1595	0.7919
1586	0.7908
1577	0.6102
1568	0.6317
1559	0.7483
1550	0.761
1541	0.7995
1532	0.4754
1523	0.2496
1514	0.2814
1505	0.3657
1496	0.6611
1487	0.7571
1478	0.7721
1469	0.7953
1460	0.7785
1451	0.58
1442	0.4409
1433	0.5951
1424	0.7001
1415	0.6668
1406	0.7848
1397	0.8134
1388	0.8101
1379	0.6209
1370	0.7365
1361	0.7035
1352	0.0566
1343	0.1212
1334	0.0617
1325	0.3399
1316	0.5665
1307	0.6366
1298	0.6822
1289	0.7387
1280	0.7319
1271	0.3555
1262	0.7053
1253	0.7538
1244	0.7069
1235	0.7647
1226	0.7872
1217	0.8137
1208	0.8275
1199	0.8299
1190	0.8144
1181	0.576
1172	0.6491
1163	0.7607
1154	0.756
1145	0.795
1136	0.8025
1127	0.7228
1118	0.6571
1109	0.7375
1100	0.7837
1091	0.8114
1082	0.8243
1073	0.8327
1064	0.8386
1055	0.8415
1046	0.8415
1037	0.7903
1028	0.8195
1019	0.7939
1010	0.8225
1001	0.7869
992	0.7644
983	0.83
974	0.8493
965	0.8558
956	0.858
947	0.8552
938	0.8578
929	0.8518
920	0.5596
911	0.7803
902	0.6984
893	0.8466
884	0.8635
875	0.8706
866	0.8728
857	0.8804
848	0.8788
839	0.8518
830	0.3855
821	0.8008
812	0.8756
803	0.8836
794	0.8837
785	0.8812
776	0.8795
767	0.8761
758	0.4948
749	0.7853
740	0.8553
731	0.854
722	0.3043
713	0.8347
704	0.8633
695	0.8671
686	0.8661
677	0.7232
668	0.8223
659	0.8521
650	0.6665
641	0.8346
632	0.8588
623	0.8646
614	0.8671
605	0.8673
596	0.8688
587	0.8701
578	0.8538
569	0.8594
560	0.805
551	0.7865
542	0.8118
533	0.8487
524	0.8655
515	0.8457
506	0.8637
497	0.8659
488	0.8611
479	0.8542
470	0.8448
461	0.8321
452	0.8218
443	0.8058
434	0.7467
425	0.7491
416	0.7568
407	0.7572
398	0.7561
389	0.7572
