Infrared Spectrum: 2-Butanol 3,3,4,4-tetrafluoro-2-methyl-,
Formula: C5 H8 F4 O
CAS: 29553-26-2
State: LIQUID (NEAT)
Boiling point: 117 C AT 760 mmHg
Class: COBLENTZ III
Instrument: DOW KBr FOREPRISM-GRATING
Instrument parameters: BLAZED AT 3.5, 12.0, 20.0 MICRON AND CHANGED AT 5.0, 7.5, 14.9 MICRON
Sampling: TRANSMISSION
Path length: 0.022 CM
Resolution: 2
Origin: DOW CHEMICAL COMPANY
1/CM	TRANSMITTANCE
424	0.4502
433	0.4685
442	0.4638
451	0.443
460	0.3984
469	0.3803
478	0.4638
487	0.5028
496	0.4999
505	0.4856
514	0.4278
523	0.3127
532	0.3834
541	0.4028
550	0.3927
559	0.1931
568	0.1287
577	0.2844
586	0.4117
595	0.5082
604	0.5212
613	0.5257
622	0.5087
631	0.4187
640	0.2197
649	0.3632
658	0.5595
667	0.5866
676	0.6143
685	0.6023
694	0.4604
703	0.362
712	0.6651
721	0.7114
730	0.7293
739	0.7394
748	0.7462
757	0.7455
766	0.7264
775	0.7258
784	0.6833
793	0.5452
802	0.0957
811	0.0034
820	0.2204
829	0.5748
838	0.5906
847	0.4555
856	0.0108
865	0.2824
874	0.5732
883	0.7151
892	0.7415
901	0.7453
910	0.7554
919	0.7521
928	0.7097
937	0.6515
946	0.5843
955	0.4236
964	0.0665
973	0.2245
982	0.4923
991	0.3762
1000	0.421
1009	0.5043
1018	0.4152
1027	0.1754
1036	0.0193
1045	0.0036
1054	0.0045
1063	0.0284
1072	0.071
1081	0.0248
1090	0.0022
1099	0.0009
1108	0.001
1117	0.0019
1126	0.0031
1135	0.008
1144	0.0148
1153	0.0213
1162	0.0271
1171	0.0208
1180	0.0056
1189	0.0065
1198	0.0143
1207	0.0943
1216	0.1941
1225	0.1979
1234	0.1375
1243	0.0541
1252	0.2363
1261	0.3254
1270	0.2565
1279	0.3766
1288	0.5488
1297	0.5942
1306	0.6057
1315	0.581
1324	0.5333
1333	0.3516
1342	0.2342
1351	0.1761
1360	0.1879
1369	0.1572
1378	0.0834
1387	0.1148
1396	0.0698
1405	0.1415
1414	0.3912
1423	0.5009
1432	0.5468
1441	0.5305
1450	0.418
1459	0.3754
1468	0.2885
1477	0.175
1486	0.4275
1495	0.6558
1504	0.7344
1513	0.763
1522	0.7733
1531	0.78
1540	0.7855
1549	0.7874
1558	0.7862
1567	0.7831
1576	0.7768
1585	0.7688
1594	0.7593
1603	0.7365
1612	0.7067
1621	0.6925
1630	0.6931
1639	0.7191
1648	0.7482
1657	0.7668
1666	0.7762
1675	0.7828
1684	0.7782
1693	0.7696
1702	0.7688
1711	0.7976
1720	0.8068
1729	0.8088
1738	0.8081
1747	0.8081
1756	0.8094
1765	0.8126
1774	0.8209
1783	0.8257
1792	0.8261
1801	0.8243
1810	0.8199
1819	0.8237
1828	0.8325
1837	0.8394
1846	0.842
1855	0.8453
1864	0.8488
1873	0.8508
1882	0.8498
1891	0.8471
1900	0.8418
1909	0.8334
1918	0.8291
1927	0.8289
1936	0.835
1945	0.8425
1954	0.8503
1963	0.8375
1972	0.8366
1981	0.8408
1990	0.8453
1999	0.848
2008	0.8494
2017	0.8488
2026	0.8467
2035	0.8441
2044	0.8435
2053	0.845
2062	0.8462
2071	0.8457
2080	0.8447
2089	0.8427
2098	0.8411
2107	0.8394
2116	0.8371
2125	0.8345
2134	0.8318
2143	0.8273
2152	0.8238
2161	0.8234
2170	0.8235
2179	0.8227
2188	0.8114
2197	0.8026
2206	0.7976
2215	0.7947
2224	0.7935
2233	0.7951
2242	0.7991
2251	0.8067
2260	0.8158
2269	0.8239
2278	0.8273
2287	0.8258
2296	0.8262
2305	0.8328
2314	0.8417
2323	0.8489
2332	0.8456
2341	0.8409
2350	0.8377
2359	0.8356
2368	0.8343
2377	0.8331
2386	0.8323
2395	0.8318
2404	0.8315
2413	0.8299
2422	0.8282
2431	0.8259
2440	0.8236
2449	0.8209
2458	0.8181
2467	0.8135
2476	0.8075
2485	0.8008
2494	0.7946
2503	0.7908
2512	0.7893
2521	0.7908
2530	0.7958
2539	0.8012
2548	0.8033
2557	0.8034
2566	0.8038
2575	0.8045
2584	0.8146
2593	0.8194
2602	0.8194
2611	0.8193
2620	0.8195
2629	0.8193
2638	0.8175
2647	0.8158
2656	0.8155
2665	0.8154
2674	0.8144
2683	0.8117
2692	0.8068
2701	0.8015
2710	0.7942
2719	0.7865
2728	0.7785
2737	0.7735
2746	0.7693
2755	0.7665
2764	0.7656
2773	0.7654
2782	0.7653
2791	0.7667
2800	0.7665
2809	0.7664
2818	0.7633
2827	0.7583
2836	0.7515
2845	0.7447
2854	0.7368
2863	0.7221
2872	0.6778
2881	0.6208
2890	0.6234
2899	0.6337
2908	0.6214
2917	0.601
2926	0.576
2935	0.5328
2944	0.4615
2953	0.4162
2962	0.4698
2971	0.4873
2980	0.3952
2989	0.2723
2998	0.1423
3007	0.1609
3016	0.3274
3025	0.4946
3034	0.6845
3043	0.7418
3052	0.7557
3061	0.7606
3070	0.7604
3079	0.7593
3088	0.7574
3097	0.7548
3106	0.7505
3115	0.7437
3124	0.736
3133	0.7241
3142	0.711
3151	0.6961
3160	0.6807
3169	0.6643
3178	0.6405
3187	0.611
3196	0.5842
3205	0.5597
3214	0.5345
3223	0.5072
3232	0.4775
3241	0.4374
3250	0.4004
3259	0.3768
3268	0.3562
3277	0.3353
3286	0.3141
3295	0.2905
3304	0.2647
3313	0.2223
3322	0.1967
3331	0.1762
3340	0.155
3349	0.1348
3358	0.1179
3367	0.1022
3376	0.0872
3385	0.0753
3394	0.068
3403	0.0621
3412	0.0593
3421	0.0585
3430	0.0597
3439	0.063
3448	0.0684
3457	0.0751
3466	0.0868
3475	0.0996
3484	0.116
3493	0.1367
3502	0.1629
3511	0.1929
3520	0.2354
3529	0.2888
3538	0.3346
3547	0.3787
3556	0.4387
3565	0.4904
3574	0.4897
3583	0.4626
3592	0.4279
3601	0.3316
3610	0.2315
3619	0.2598
3628	0.3278
3637	0.4983
3646	0.6845
3655	0.7153
3664	0.7088
3673	0.6844
3682	0.6871
3691	0.7272
3700	0.7801
3709	0.8168
3718	0.8377
3727	0.8508
3736	0.8587
3745	0.8618
3754	0.8631
3763	0.8642
3772	0.865
3781	0.8654
3790	0.8657
3799	0.8658
