Infrared Spectrum: Phosphorothioic acid, o,o-dimethyl-o-p-nitrophenyl ester
Formula: C8 H10 N O5 P S
CAS: 298-00-0
State: SOLID (MELT, COOLED RAPIDLY)
Melting point: 33 C
Boiling point: 213 C
Class: COBLENTZ III
Instrument: PERKIN-ELMER 180 (GRATING)
Instrument parameters: GRATINGS: 2000, 1000, 500, 250 CM^-^1
Sampling: TRANSMISSION
Path length: SCALE ATTENUATION INCREASED 1.75 x
Resolution: 2
Origin: K. K. DEB-NCI FREDERICK CANCER RESEARCH CENTER
1/CM	TRANSMITTANCE
399	0.6169
408	0.6366
417	0.6672
426	0.7282
435	0.7629
444	0.7704
453	0.7899
462	0.8213
471	0.8499
480	0.8839
489	0.8983
498	0.8767
507	0.8364
516	0.8766
525	0.9102
534	0.9211
543	0.9397
552	0.9459
561	0.9449
570	0.9416
579	0.9328
588	0.9035
597	0.9111
606	0.9262
615	0.9265
624	0.9204
633	0.8832
642	0.781
651	0.8148
660	0.7801
669	0.9161
678	0.858
687	0.7837
696	0.923
705	0.9311
714	0.9267
723	0.916
732	0.8929
741	0.7663
750	0.7036
759	0.5706
768	0.5353
777	0.8538
786	0.8663
795	0.7992
804	0.6654
813	0.5455
822	0.4235
831	0.3172
840	0.3747
849	0.4545
858	0.3541
867	0.5175
876	0.7796
885	0.8149
894	0.7561
903	0.5876
912	0.4191
921	0.2507
930	0.2804
939	0.4734
948	0.6605
957	0.7218
966	0.8067
975	0.8249
984	0.8205
993	0.7971
1002	0.704
1011	0.5403
1020	0.3197
1029	0.1583
1038	0.1895
1047	0.2638
1056	0.3076
1065	0.4209
1074	0.5626
1083	0.7044
1092	0.7243
1101	0.7256
1110	0.615
1119	0.8016
1128	0.8241
1137	0.8317
1146	0.8169
1155	0.6813
1164	0.6392
1173	0.6438
1182	0.6286
1191	0.7181
1200	0.6329
1209	0.5079
1218	0.3861
1227	0.3651
1236	0.4693
1245	0.6602
1254	0.7663
1263	0.827
1272	0.8462
1281	0.8385
1290	0.8015
1299	0.8506
1308	0.7806
1317	0.7934
1326	0.7892
1335	0.615
1344	0.2164
1353	0.3831
1362	0.712
1371	0.7583
1380	0.7943
1389	0.8499
1398	0.8622
1407	0.861
1416	0.8525
1425	0.834
1434	0.7828
1443	0.7202
1452	0.714
1461	0.7343
1470	0.7635
1479	0.6323
1488	0.3586
1497	0.5981
1506	0.6305
1515	0.3673
1524	0.2679
1533	0.5388
1542	0.7187
1551	0.7821
1560	0.8131
1569	0.8199
1578	0.7488
1587	0.4049
1596	0.577
1605	0.7148
1614	0.546
1623	0.8301
1632	0.8555
1641	0.8673
1650	0.8703
1659	0.8704
1668	0.8705
1677	0.871
1686	0.8729
1695	0.8757
1704	0.8804
1713	0.8854
1722	0.8898
1731	0.8921
1740	0.8925
1749	0.8919
1758	0.8909
1767	0.8891
1776	0.8873
1785	0.8862
1794	0.8851
1803	0.8844
1812	0.8836
1821	0.8835
1830	0.8838
1839	0.8814
1848	0.8785
1857	0.8751
1866	0.8726
1875	0.8715
1884	0.871
1893	0.8717
1902	0.8727
1911	0.8746
1920	0.8768
1929	0.8823
1938	0.8885
1947	0.8919
1956	0.8925
1965	0.8917
1974	0.8897
1983	0.8873
1992	0.8856
2001	0.8867
2010	0.8883
2019	0.8898
2028	0.8927
2037	0.896
2046	0.8975
2055	0.8966
2064	0.8957
2073	0.8949
2082	0.8947
2091	0.8944
2100	0.8942
2109	0.8937
2118	0.8931
2127	0.8925
2136	0.8919
2145	0.8912
2154	0.8907
2163	0.89
2172	0.8896
2181	0.8892
2190	0.8888
2199	0.8883
2208	0.888
2217	0.8875
2226	0.8872
2235	0.8869
2244	0.8866
2253	0.8863
2262	0.8861
2271	0.8855
2280	0.8851
2289	0.8845
2298	0.8841
2307	0.8835
2316	0.8828
2325	0.8816
2334	0.8805
2343	0.8794
2352	0.8783
2361	0.8772
2370	0.8761
2379	0.8749
2388	0.8737
2397	0.8725
2406	0.8714
2415	0.869
2424	0.8656
2433	0.863
2442	0.8607
2451	0.8603
2460	0.8647
2469	0.8701
2478	0.8698
2487	0.8694
2496	0.8688
2505	0.8681
2514	0.8675
2523	0.8666
2532	0.8654
2541	0.864
2550	0.8627
2559	0.8613
2568	0.8599
2577	0.8584
2586	0.857
2595	0.8562
2604	0.8561
2613	0.856
2622	0.8559
2631	0.858
2640	0.8602
2649	0.8615
2658	0.8632
2667	0.8642
2676	0.8635
2685	0.8618
2694	0.8601
2703	0.8585
2712	0.857
2721	0.8555
2730	0.855
2739	0.8544
2748	0.8539
2757	0.8534
2766	0.8536
2775	0.8538
2784	0.8541
2793	0.8535
2802	0.8526
2811	0.8485
2820	0.8421
2829	0.8222
2838	0.7895
2847	0.7755
2856	0.8008
2865	0.824
2874	0.8293
2883	0.8275
2892	0.8237
2901	0.8215
2910	0.823
2919	0.8204
2928	0.8112
2937	0.7685
2946	0.6964
2955	0.7083
2964	0.764
2973	0.7991
2982	0.8013
2991	0.7975
3000	0.7929
3009	0.7902
3018	0.7911
3027	0.7945
3036	0.8001
3045	0.8056
3054	0.8073
3063	0.8
3072	0.7795
3081	0.7769
3090	0.7958
3099	0.79
3108	0.7682
3117	0.7849
3126	0.8109
3135	0.8187
3144	0.8222
3153	0.8239
3162	0.8243
3171	0.8247
3180	0.8252
3189	0.8254
3198	0.8254
3207	0.8254
3216	0.8253
3225	0.8252
3234	0.8254
3243	0.8262
3252	0.8267
3261	0.8261
3270	0.8253
3279	0.8234
3288	0.8215
3297	0.8199
3306	0.8188
3315	0.8177
3324	0.8166
3333	0.8161
3342	0.8161
3351	0.816
3360	0.816
3369	0.8159
3378	0.816
3387	0.8163
3396	0.8166
3405	0.8169
3414	0.8172
3423	0.8178
3432	0.8188
3441	0.8197
3450	0.8207
3459	0.8217
3468	0.8226
3477	0.8235
3486	0.8245
3495	0.8254
3504	0.8263
3513	0.8272
3522	0.8281
3531	0.8286
3540	0.8292
3549	0.8296
3558	0.8302
3567	0.8307
3576	0.8313
3585	0.8317
3594	0.8323
3603	0.8323
3612	0.8323
3621	0.8323
3630	0.8323
3639	0.8323
3648	0.8323
3657	0.8323
3666	0.8322
3675	0.8322
3684	0.8322
3693	0.8321
3702	0.8321
3711	0.8321
3720	0.8322
3729	0.8322
3738	0.8323
3747	0.8323
3756	0.8322
3765	0.8322
3774	0.8323
3783	0.8325
3792	0.8326
