Infrared Spectrum: 1-Nonene, 2-methyl-
Formula: C10 H20
CAS: 2980-71-4
State: LIQUID (NEAT)
Class: COBLENTZ III
Instrument: BECKMAN IR-12 (GRATING)
Instrument parameters: GRATING
Sampling: TRANSMISSION
Path length: CAPILLARY
Resolution: 2
Origin: COLGATE-PALMOLIVE COMPANY (KELLENBACH)
1/CM	TRANSMITTANCE
406	0.7719
415	0.8267
424	0.8289
433	0.7859
442	0.8372
451	0.8698
460	0.8758
469	0.8801
478	0.9182
487	0.9313
496	0.9404
505	0.9461
514	0.9446
523	0.9362
532	0.8898
541	0.8391
550	0.8423
559	0.8363
568	0.8599
577	0.879
586	0.8753
595	0.8625
604	0.855
613	0.8523
622	0.8577
631	0.8734
640	0.8529
649	0.872
658	0.9019
667	0.8982
676	0.8907
685	0.8899
694	0.8854
703	0.8661
712	0.8407
721	0.6721
730	0.7547
739	0.8194
748	0.8529
757	0.8716
766	0.8581
775	0.8557
784	0.8767
793	0.8946
802	0.8918
811	0.8778
820	0.8681
829	0.8637
838	0.8625
847	0.8596
856	0.8515
865	0.8145
874	0.5749
883	0.0477
892	0.4117
901	0.7065
910	0.8085
919	0.841
928	0.8555
937	0.8619
946	0.8671
955	0.8704
964	0.8678
973	0.8618
982	0.8509
991	0.8438
1000	0.854
1009	0.8562
1018	0.8564
1027	0.855
1036	0.8522
1045	0.853
1054	0.8533
1063	0.8537
1072	0.8601
1081	0.8629
1090	0.862
1099	0.8509
1108	0.8147
1117	0.8201
1126	0.8501
1135	0.8753
1144	0.8782
1153	0.8745
1162	0.8643
1171	0.8545
1180	0.8561
1189	0.857
1198	0.8487
1207	0.8426
1216	0.8492
1225	0.8265
1234	0.8171
1243	0.8245
1252	0.8192
1261	0.8157
1270	0.7879
1279	0.7989
1288	0.7987
1297	0.7946
1306	0.7999
1315	0.814
1324	0.82
1333	0.8004
1342	0.78
1351	0.7687
1360	0.7016
1369	0.4214
1378	0.5893
1387	0.7445
1396	0.7685
1405	0.7501
1414	0.7004
1423	0.5643
1432	0.4079
1441	0.2814
1450	0.2292
1459	0.2289
1468	0.4712
1477	0.6933
1486	0.7707
1495	0.802
1504	0.8207
1513	0.834
1522	0.8418
1531	0.8455
1540	0.8483
1549	0.8496
1558	0.8509
1567	0.8512
1576	0.8498
1585	0.8474
1594	0.8472
1603	0.8416
1612	0.8243
1621	0.8031
1630	0.7668
1639	0.5066
1648	0.429
1657	0.7664
1666	0.8134
1675	0.8384
1684	0.8523
1693	0.8584
1702	0.8631
1711	0.8659
1720	0.8684
1729	0.8708
1738	0.871
1747	0.869
1756	0.864
1765	0.8448
1774	0.8025
1783	0.8374
1792	0.8611
1801	0.8731
1810	0.8792
1819	0.881
1828	0.8807
1837	0.8809
1846	0.8816
1855	0.8821
1864	0.8824
1873	0.8827
1882	0.8829
1891	0.8827
1900	0.8825
1909	0.8823
1918	0.8821
1927	0.8821
1936	0.8827
1945	0.8833
1954	0.8837
1963	0.8831
1972	0.8826
1981	0.8819
1990	0.8805
1999	0.879
2008	0.8775
2017	0.8764
2026	0.8754
2035	0.8751
2044	0.8759
2053	0.8766
2062	0.8772
2071	0.8777
2080	0.8782
2089	0.8786
2098	0.8786
2107	0.8786
2116	0.8786
2125	0.8782
2134	0.8779
2143	0.8775
2152	0.8772
2161	0.8766
2170	0.8757
2179	0.8748
2188	0.8739
2197	0.8729
2206	0.872
2215	0.8714
2224	0.8709
2233	0.8704
2242	0.8699
2251	0.8694
2260	0.8689
2269	0.8685
2278	0.8683
2287	0.868
2296	0.8678
2305	0.8676
2314	0.8666
2323	0.8649
2332	0.8632
2341	0.8608
2350	0.8582
2359	0.8575
2368	0.8596
2377	0.865
2386	0.8698
2395	0.8707
2404	0.871
2413	0.8707
2422	0.8704
2431	0.8698
2440	0.8692
2449	0.8686
2458	0.8681
2467	0.8675
2476	0.8665
2485	0.8656
2494	0.8644
2503	0.8632
2512	0.8628
2521	0.8629
2530	0.8627
2539	0.8609
2548	0.8582
2557	0.8555
2566	0.8526
2575	0.8493
2584	0.846
2593	0.8426
2602	0.8386
2611	0.8344
2620	0.8301
2629	0.8247
2638	0.8194
2647	0.8148
2656	0.8125
2665	0.8103
2674	0.8108
2683	0.812
2692	0.8133
2701	0.8001
2710	0.7813
2719	0.769
2728	0.7914
2737	0.8013
2746	0.8013
2755	0.7963
2764	0.7849
2773	0.7655
2782	0.7341
2791	0.7053
2800	0.6245
2809	0.5361
2818	0.4469
2827	0.2966
2836	0.1094
2845	0.0275
2854	0.0688
2863	0.1065
2872	0.1402
2881	0.107
2890	0.0634
2899	0.0278
2908	0.0091
2917	0.006
2926	0.0113
2935	0.0398
2944	0.0245
2953	0.0339
2962	0.1876
2971	0.3558
2980	0.5121
2989	0.5869
2998	0.6625
3007	0.6848
3016	0.7077
3025	0.7254
3034	0.7271
3043	0.6967
3052	0.6302
3061	0.4234
3070	0.5776
3079	0.7439
3088	0.7734
3097	0.791
3106	0.7999
3115	0.8051
3124	0.8099
3133	0.8139
3142	0.8178
3151	0.8212
3160	0.8238
3169	0.8259
3178	0.828
3187	0.8299
3196	0.8317
3205	0.8335
3214	0.8359
3223	0.8383
3232	0.8394
3241	0.8396
3250	0.8388
3259	0.8375
3268	0.8364
3277	0.8353
3286	0.8342
3295	0.833
3304	0.8318
3313	0.8313
3322	0.8309
3331	0.8305
3340	0.8301
3349	0.8302
3358	0.8305
3367	0.8306
3376	0.8308
3385	0.831
3394	0.8314
3403	0.8318
3412	0.8322
3421	0.8326
3430	0.8331
3439	0.8334
3448	0.8338
3457	0.8341
3466	0.8348
3475	0.836
3484	0.8373
3493	0.8386
3502	0.8399
3511	0.8409
3520	0.842
3529	0.8431
3538	0.8442
3547	0.8442
3556	0.8439
3565	0.8436
3574	0.843
3583	0.8417
3592	0.8406
3601	0.8393
3610	0.8385
3619	0.8396
3628	0.8417
3637	0.8443
3646	0.8457
3655	0.8464
3664	0.8467
3673	0.8462
3682	0.8458
3691	0.8442
3700	0.8425
3709	0.8401
3718	0.8378
3727	0.8377
3736	0.8381
3745	0.8381
3754	0.8379
3763	0.8378
3772	0.8376
3781	0.8374
3790	0.837
3799	0.8364
3808	0.8359
3817	0.8353
3826	0.8339
3835	0.8325
3844	0.8318
3853	0.8312
3862	0.8311
3871	0.8315
3880	0.8318
3889	0.832
3898	0.8321
3907	0.8309
3916	0.8293
3925	0.8261
3934	0.8228
3943	0.8193
3952	0.819
3961	0.82
3970	0.8222
3979	0.8243
3988	0.8257
3997	0.8268
