Infrared Spectrum: DIETHYLAMINOACETONITRILE
Formula: C6 H12 N2
CAS: 3010-02-4
State: LIQUID
Boiling point: 168-169 C
Class: COBLENTZ
Instrument: Not specified, most likely a prism, grating, or hybrid spectrometer.
Sampling: TRANSMISSION
Path length: 0.003 CM
Resolution: 4
Origin: WYANDOTTE CHEMICALS CORP., WYANDOTTE, MICHIGAN, USA
MICROMETERS	TRANSMITTANCE
2.067	0.973
2.10671	0.973
2.14642	0.971
2.18613	0.933
2.22583	0.901
2.26554	0.916
2.30525	0.936
2.34496	0.938
2.38467	0.933
2.42438	0.936
2.46409	0.941
2.5038	0.95
2.5435	0.963
2.58321	0.975
2.62292	0.973
2.66263	0.97
2.70234	0.941
2.74205	0.892
2.78176	0.885
2.82146	0.9
2.86117	0.91
2.90088	0.903
2.94059	0.892
2.9803	0.893
3.02001	0.897
3.05972	0.911
3.09943	0.893
3.13913	0.882
3.17884	0.895
3.21855	0.885
3.25826	0.847
3.29797	0.784
3.33768	0.107
3.37739	0.102
3.4171	0.167
3.4568	0.267
3.49651	0.327
3.53622	0.139
3.57593	0.184
3.61564	0.486
3.65535	0.632
3.69506	0.697
3.73476	0.795
3.77447	0.853
3.81418	0.893
3.85389	0.901
3.8936	0.915
3.93331	0.943
3.97302	0.961
4.01273	0.973
4.05243	0.98
4.09214	0.976
4.13185	0.958
4.17156	0.955
4.21127	0.96
4.25098	0.96
4.29069	0.978
4.33039	0.981
4.3701	0.981
4.40981	0.976
4.44952	0.971
4.48923	0.965
4.52894	0.938
4.56865	0.837
4.60836	0.978
4.64806	0.973
4.68777	0.98
4.72748	0.99
4.76719	0.99
4.8069	0.986
4.84661	0.976
4.88632	0.973
4.92602	0.981
4.96573	0.99
5.00544	0.995
5.04515	0.993
5.08486	0.981
5.12457	0.978
5.16428	0.975
5.20399	0.985
5.24369	0.988
5.2834	0.986
5.32311	0.986
5.36282	0.98
5.40253	0.976
5.44224	0.973
5.48195	0.975
5.52165	0.976
5.56136	0.983
5.60107	0.986
5.64078	0.988
5.68049	0.985
5.7202	0.976
5.75991	0.973
5.79962	0.965
5.83932	0.955
5.87903	0.941
5.91874	0.877
5.95845	0.732
5.99816	0.794
6.03787	0.873
6.07758	0.893
6.11729	0.9
6.15699	0.916
6.1967	0.931
6.23641	0.936
6.27612	0.938
6.31583	0.938
6.35554	0.935
6.39525	0.93
6.43495	0.928
6.47466	0.916
6.51437	0.906
6.55408	0.89
6.59379	0.873
6.6335	0.838
6.67321	0.779
6.71292	0.536
6.75262	0.254
6.79233	0.172
6.83204	0.149
6.87175	0.269
6.91146	0.401
6.95117	0.277
6.99088	0.166
7.03058	0.441
7.07029	0.554
7.11	0.495
7.14971	0.37
7.18942	0.149
7.22913	0.186
7.26884	0.35
7.30855	0.553
7.34825	0.408
7.38796	0.357
7.42767	0.523
7.46738	0.568
7.50709	0.395
7.5468	0.21
7.58651	0.264
7.62621	0.44
7.66592	0.493
7.70563	0.441
7.74534	0.558
7.78505	0.681
7.82476	0.601
7.86447	0.644
7.90418	0.644
7.94388	0.724
7.98359	0.789
8.0233	0.817
8.06301	0.802
8.10272	0.77
8.14243	0.672
8.18214	0.485
8.22184	0.282
8.26155	0.197
8.30126	0.179
8.34097	0.368
8.38068	0.622
8.42039	0.712
8.4601	0.715
8.49981	0.589
8.53951	0.426
8.57922	0.398
8.61893	0.317
8.65864	0.428
8.69835	0.471
8.73806	0.473
8.77777	0.486
8.81748	0.42
8.85718	0.247
8.89689	0.267
8.9366	0.466
8.97631	0.528
9.01602	0.526
9.05573	0.383
9.09544	0.172
9.13514	0.111
9.17485	0.274
9.21456	0.377
9.25427	0.307
9.29398	0.191
9.33369	0.192
9.3734	0.207
9.41311	0.327
9.45281	0.526
9.49252	0.636
9.53223	0.719
9.57194	0.784
9.61165	0.832
9.65136	0.85
9.69107	0.863
9.73077	0.868
9.77048	0.87
9.81019	0.87
9.8499	0.867
9.88961	0.848
9.92932	0.81
9.96903	0.75
10.0087	0.636
10.0484	0.559
10.0882	0.5
10.1279	0.408
10.1676	0.358
10.2073	0.486
10.247	0.647
10.2867	0.696
10.3264	0.724
10.3661	0.777
10.4058	0.843
10.4455	0.87
10.4852	0.888
10.5249	0.898
10.5647	0.9
10.6044	0.9
10.6441	0.895
10.6838	0.892
10.7235	0.885
10.7632	0.867
10.8029	0.845
10.8426	0.843
10.8823	0.845
10.922	0.847
10.9617	0.848
11.0015	0.847
11.0412	0.833
11.0809	0.797
11.1206	0.702
11.1603	0.546
11.2	0.455
11.2397	0.543
11.2794	0.666
11.3191	0.707
11.3588	0.722
11.3985	0.686
11.4382	0.622
11.478	0.554
11.5177	0.455
11.5574	0.382
11.5971	0.312
11.6368	0.265
11.6765	0.257
11.7162	0.295
11.7559	0.35
11.7956	0.438
11.8353	0.516
11.875	0.586
11.9148	0.646
11.9545	0.689
11.9942	0.719
12.0339	0.732
12.0736	0.724
12.1133	0.689
12.153	0.629
12.1927	0.591
12.2324	0.571
12.2721	0.599
12.3118	0.621
12.3515	0.624
12.3913	0.602
12.431	0.573
12.4707	0.598
12.5104	0.667
12.5501	0.696
12.5898	0.702
12.6295	0.696
12.6692	0.702
12.7089	0.705
12.7486	0.707
12.7883	0.7
12.8281	0.674
12.8678	0.616
12.9075	0.533
12.9472	0.411
12.9869	0.377
13.0266	0.466
13.0663	0.538
13.106	0.573
13.1457	0.574
13.1854	0.541
13.2251	0.495
13.2648	0.496
13.3046	0.566
13.3443	0.657
13.384	0.709
13.4237	0.757
13.4634	0.79
13.5031	0.82
13.5428	0.845
13.5825	0.858
13.6222	0.872
13.6619	0.88
13.7016	0.885
13.7414	0.887
13.7811	0.892
13.8208	0.893
13.8605	0.895
13.9002	0.892
13.9399	0.893
13.9796	0.897
14.0193	0.895
14.059	0.895
14.0987	0.897
14.1384	0.895
14.1781	0.895
14.2179	0.895
14.2576	0.898
14.2973	0.9
14.337	0.898
14.3767	0.897
14.4164	0.897
14.4561	0.895
14.4958	0.895
14.5355	0.888
14.5752	0.885
14.6149	0.882
14.6547	0.882
14.6944	0.877
14.7341	0.875
14.7738	0.87
14.8135	0.87
14.8532	0.865
14.8929	0.863
14.9326	0.862
14.9723	0.855
15.012	0.827
15.0517	0.802
15.0914	0.805
15.1312	0.832
15.1709	0.84
15.2106	0.837
15.2503	0.827
15.29	0.815
15.3297	0.808
15.3694	0.802
15.4091	0.797
15.4488	0.79
15.4885	0.78
15.5282	0.777
15.568	0.775
15.6077	0.769
15.6474	0.764
15.6871	0.76
15.7268	0.754
15.7665	0.745
15.8062	0.735
15.8459	0.729
15.8856	0.722
15.9253	0.719
15.965	0.715
16.0047	0.709
