Infrared Spectrum: Chloral hydrate
Formula: C2 H3 Cl3 O2
CAS: 302-17-0
State: SOLUTION SATURATED (CS2 FOR 2-15 microns)
Melting point: 57 C
Boiling point: 98 C
Class: COBLENTZ III
Instrument: PERKIN-ELMER 21 (GRATING)
Path length: 0.05 CM
Resolution: 2
Origin: THE SQUIBB INSTITUTE FOR MEDICAL RESEARCH
1/CM	TRANSMITTANCE
666	0.6359
675	0.5827
684	0.5247
693	0.4896
702	0.4114
711	0.3105
720	0.1601
729	0.1222
738	0.3322
747	0.4164
756	0.4263
765	0.4645
774	0.4953
783	0.4582
792	0.3431
801	0.138
810	0.0434
819	0.0571
828	0.1414
837	0.5687
846	0.7162
855	0.7219
864	0.7316
873	0.7254
882	0.7354
891	0.7427
900	0.7347
909	0.7255
918	0.7142
927	0.6999
936	0.6946
945	0.6584
954	0.6132
963	0.5302
972	0.3431
981	0.1746
990	0.5127
999	0.57
1008	0.4928
1017	0.2808
1026	0.3233
1035	0.3426
1044	0.1826
1053	0.0636
1062	0.0883
1071	0.1252
1080	0.097
1089	0.0266
1098	0.0054
1107	0.048
1116	0.1737
1125	0.2854
1134	0.3664
1143	0.3951
1152	0.4115
1161	0.4013
1170	0.3768
1179	0.347
1188	0.3098
1197	0.2972
1206	0.3025
1215	0.3158
1224	0.3459
1233	0.3794
1242	0.4051
1251	0.4071
1260	0.4143
1269	0.4366
1278	0.461
1287	0.4657
1296	0.4578
1305	0.4343
1314	0.4043
1323	0.3962
1332	0.3854
1341	0.3661
1350	0.4319
1359	0.6656
1368	0.7483
1377	0.7702
1386	0.7756
1395	0.7776
1404	0.7801
1413	0.7817
1422	0.7827
1431	0.7855
1440	0.7903
1449	0.7954
1458	0.7996
1467	0.8027
1476	0.8045
1485	0.8053
1494	0.8055
1503	0.8046
1512	0.804
1521	0.8038
1530	0.8043
1539	0.8051
1548	0.8062
1557	0.8079
1566	0.8106
1575	0.8144
1584	0.8168
1593	0.8149
1602	0.8145
1611	0.8139
1620	0.8143
1629	0.8168
1638	0.8213
1647	0.8247
1656	0.8252
1665	0.8244
1674	0.8226
1683	0.82
1692	0.8156
1701	0.8105
1710	0.8031
1719	0.797
1728	0.7927
1737	0.7878
1746	0.7602
1755	0.6294
1764	0.3197
1773	0.1877
1782	0.7478
1791	0.8219
1800	0.8426
1809	0.8534
1818	0.8609
1827	0.8665
1836	0.87
1845	0.8729
1854	0.8757
1863	0.8784
1872	0.8805
1881	0.8813
1890	0.8815
1899	0.881
1908	0.8805
1917	0.88
1926	0.879
1935	0.8773
1944	0.8742
1953	0.8711
1962	0.8705
1971	0.8711
1980	0.8726
1989	0.8742
1998	0.8759
2007	0.878
2016	0.8802
2025	0.8824
2034	0.8823
2043	0.8785
2052	0.8725
2061	0.8654
2070	0.8572
2079	0.8489
2088	0.8434
2097	0.8421
2106	0.8426
2115	0.8445
2124	0.8469
2133	0.8482
2142	0.8488
2151	0.8494
2160	0.8498
2169	0.8501
2178	0.8499
2187	0.8498
2196	0.8496
2205	0.8494
2214	0.8489
2223	0.8484
2232	0.8479
2241	0.8474
2250	0.8463
2259	0.8444
2268	0.8426
2277	0.8414
2286	0.8409
2295	0.8405
2304	0.8426
2313	0.8467
2322	0.8508
2331	0.8537
2340	0.8541
2349	0.8541
2358	0.8538
2367	0.8532
2376	0.8526
2385	0.8515
2394	0.8503
2403	0.8492
2412	0.848
2421	0.8466
2430	0.8451
2439	0.8436
2448	0.8427
2457	0.8421
2466	0.8414
2475	0.8411
2484	0.8407
2493	0.8403
2502	0.84
2511	0.8394
2520	0.8387
2529	0.838
2538	0.8373
2547	0.8367
2556	0.836
2565	0.8352
2574	0.8341
2583	0.8329
2592	0.8318
2601	0.8306
2610	0.8295
2619	0.8284
2628	0.8277
2637	0.8274
2646	0.827
2655	0.8268
2664	0.8265
2673	0.8263
2682	0.8269
2691	0.8276
2700	0.8283
2709	0.8279
2718	0.8274
2727	0.8252
2736	0.8213
2745	0.816
2754	0.8093
2763	0.8021
2772	0.7954
2781	0.7895
2790	0.7846
2799	0.7798
2808	0.7761
2817	0.7738
2826	0.772
2835	0.7709
2844	0.7726
2853	0.7767
2862	0.7783
2871	0.7763
2880	0.7681
2889	0.7579
2898	0.7515
2907	0.7498
2916	0.7505
2925	0.7535
2934	0.7592
2943	0.7713
2952	0.7878
2961	0.8021
2970	0.8058
2979	0.8068
2988	0.8064
2997	0.8054
3006	0.8044
3015	0.803
3024	0.8014
3033	0.7989
3042	0.7955
3051	0.792
3060	0.7884
3069	0.7841
3078	0.7797
3087	0.7751
3096	0.7704
3105	0.7657
3114	0.7594
3123	0.7524
3132	0.7453
3141	0.7372
3150	0.729
3159	0.7209
3168	0.7126
3177	0.7043
3186	0.6962
3195	0.688
3204	0.6799
3213	0.6718
3222	0.6637
3231	0.6557
3240	0.6476
3249	0.6395
3258	0.6305
3267	0.6198
3276	0.6092
3285	0.5986
3294	0.5883
3303	0.5781
3312	0.568
3321	0.5595
3330	0.5511
3339	0.5427
3348	0.5345
3357	0.5249
3366	0.5128
3375	0.5009
3384	0.4896
3393	0.4788
3402	0.4718
3411	0.4651
3420	0.4586
3429	0.4528
3438	0.447
3447	0.442
3456	0.4388
3465	0.4358
3474	0.4327
3483	0.4296
3492	0.4253
3501	0.4206
3510	0.4104
3519	0.395
3528	0.3645
3537	0.305
3546	0.2328
3555	0.1612
3564	0.1121
3573	0.1038
3582	0.1013
3591	0.1018
3600	0.1032
3609	0.1053
3618	0.1406
3627	0.2373
3636	0.3336
3645	0.4293
3654	0.5141
3663	0.5722
3672	0.6321
3681	0.6502
3690	0.6624
3699	0.6737
3708	0.682
3717	0.6908
3726	0.7012
3735	0.7107
3744	0.7179
3753	0.7251
3762	0.7289
3771	0.7322
3780	0.7353
3789	0.7378
3798	0.7402
3807	0.7422
3816	0.7439
3825	0.7457
3834	0.7474
3843	0.7491
3852	0.7511
3861	0.7533
3870	0.7556
3879	0.7582
3888	0.761
3897	0.7654
3906	0.771
3915	0.7765
3924	0.7813
3933	0.7857
3942	0.79
3951	0.7922
3960	0.7935
3969	0.7946
3978	0.7948
3987	0.795
3996	0.7957
