Infrared Spectrum: 4-Acetamidobutyric acid
Formula: C6 H11 N O3
CAS: 3025-96-5
State: SOLID (SPLIT MULL)
Melting point: 130 C
Class: COBLENTZ II
Instrument: DOW KBr FOREPRISM-GRATING
Instrument parameters: BLAZED AT 3.5, 12.0, 20.0 MICRON AND CHANGED AT 5.0, 7.5, 14.9 MICRON
Sampling: TRANSMISSION
Resolution: 2
Origin: DOW CHEMICAL COMPANY
1/CM	TRANSMITTANCE
3800	0.791
3791	0.7915
3782	0.7928
3773	0.7947
3764	0.7965
3755	0.7985
3746	0.8005
3737	0.8025
3728	0.8044
3719	0.8055
3710	0.8067
3701	0.8056
3692	0.8045
3683	0.8036
3674	0.8082
3665	0.8138
3656	0.8161
3647	0.8168
3638	0.8168
3629	0.8168
3620	0.8169
3611	0.8175
3602	0.8186
3593	0.8196
3584	0.8207
3575	0.8128
3566	0.8114
3557	0.8161
3548	0.8176
3539	0.8188
3530	0.8201
3521	0.8215
3512	0.823
3503	0.8246
3494	0.8263
3485	0.828
3476	0.8299
3467	0.8317
3458	0.8342
3449	0.837
3440	0.8397
3431	0.8425
3422	0.8449
3413	0.8457
3404	0.8431
3395	0.835
3386	0.821
3377	0.7847
3368	0.6993
3359	0.3089
3350	0.0457
3341	0.0633
3332	0.3739
3323	0.5732
3314	0.6207
3305	0.6481
3296	0.6737
3287	0.6911
3278	0.7046
3269	0.7158
3260	0.7261
3251	0.7361
3242	0.7456
3233	0.7532
3224	0.7593
3215	0.7638
3206	0.7664
3197	0.7675
3188	0.7669
3179	0.7646
3170	0.7619
3161	0.7601
3152	0.7612
3143	0.7639
3134	0.765
3125	0.7628
3116	0.7536
3107	0.725
3098	0.698
3089	0.708
3080	0.7253
3071	0.7382
3062	0.7434
3053	0.7451
3044	0.7434
3035	0.7385
3026	0.7328
3017	0.7265
3008	0.7199
2999	0.7114
2990	0.6974
2981	0.6625
2972	0.5847
2963	0.5175
2954	0.5809
2945	0.5831
2936	0.5616
2927	0.5688
2918	0.5805
2909	0.5945
2900	0.6006
2891	0.5438
2882	0.5476
2873	0.5683
2864	0.5812
2855	0.5864
2846	0.5909
2837	0.5956
2828	0.6002
2819	0.6041
2810	0.6104
2801	0.6197
2792	0.6312
2783	0.6351
2774	0.6367
2765	0.6318
2756	0.6318
2747	0.6334
2738	0.6349
2729	0.636
2720	0.6396
2711	0.6438
2702	0.6435
2693	0.6281
2684	0.616
2675	0.6109
2666	0.6112
2657	0.6173
2648	0.6297
2639	0.6353
2630	0.6291
2621	0.6166
2612	0.5972
2603	0.5815
2594	0.5681
2585	0.5606
2576	0.5578
2567	0.5565
2558	0.5552
2549	0.5438
2540	0.5277
2531	0.5164
2522	0.5081
2513	0.5052
2504	0.5042
2495	0.5036
2486	0.5045
2477	0.5066
2468	0.5082
2459	0.5026
2450	0.501
2441	0.5014
2432	0.5026
2423	0.5045
2414	0.5087
2405	0.5136
2396	0.5189
2387	0.5243
2378	0.5299
2369	0.5356
2360	0.5419
2351	0.5481
2342	0.5539
2333	0.5596
2324	0.5656
2315	0.5716
2306	0.5791
2297	0.5865
2288	0.5944
2279	0.6026
2270	0.6115
2261	0.621
2252	0.6308
2243	0.6404
2234	0.6497
2225	0.659
2216	0.6701
2207	0.683
2198	0.6982
2189	0.7118
2180	0.7233
2171	0.7351
2162	0.7478
2153	0.7568
2144	0.7648
2135	0.7695
2126	0.7718
2117	0.7731
2108	0.7736
2099	0.7737
2090	0.7738
2081	0.7726
2072	0.7645
2063	0.7558
2054	0.7451
2045	0.7347
2036	0.7251
2027	0.718
2018	0.7107
2009	0.7011
2000	0.6922
1991	0.6808
1982	0.6651
1973	0.6415
1964	0.6238
1955	0.6116
1946	0.6114
1937	0.6275
1928	0.6525
1919	0.6774
1910	0.7032
1901	0.7275
1892	0.7434
1883	0.758
1874	0.7834
1865	0.8051
1856	0.8183
1847	0.8277
1838	0.8392
1829	0.852
1820	0.861
1811	0.8583
1802	0.8707
1793	0.8821
1784	0.887
1775	0.8854
1766	0.8763
1757	0.8612
1748	0.8353
1739	0.7817
1730	0.6733
1721	0.463
1712	0.182
1703	0.1679
1694	0.5734
1685	0.7518
1676	0.8128
1667	0.7957
1658	0.7124
1649	0.6373
1640	0.5737
1631	0.3673
1622	0.1978
1613	0.0818
1604	0.0693
1595	0.0916
1586	0.1744
1577	0.2467
1568	0.1385
1559	0.0737
1550	0.1829
1541	0.3139
1532	0.3888
1523	0.4647
1514	0.519
1505	0.5797
1496	0.6436
1487	0.6837
1478	0.534
1469	0.4542
1460	0.6239
1451	0.6401
1442	0.5124
1433	0.5919
1424	0.6397
1415	0.5586
1406	0.614
1397	0.5162
1388	0.4991
1379	0.5105
1370	0.2837
1361	0.1834
1352	0.338
1343	0.461
1334	0.5232
1325	0.4169
1316	0.3159
1307	0.363
1298	0.3826
1289	0.3814
1280	0.3103
1271	0.4012
1262	0.6015
1253	0.6801
1244	0.725
1235	0.7422
1226	0.6626
1217	0.1792
1208	0.1164
1199	0.4258
1190	0.5492
1181	0.6553
1172	0.7114
1163	0.7421
1154	0.7471
1145	0.7564
1136	0.7708
1127	0.7728
1118	0.6693
1109	0.6223
1100	0.7549
1091	0.7458
1082	0.7393
1073	0.7625
1064	0.7578
1055	0.6618
1046	0.6939
1037	0.7367
1028	0.7198
1019	0.6583
1010	0.6536
1001	0.7051
992	0.7428
983	0.7664
974	0.7761
965	0.7236
956	0.6071
947	0.7797
938	0.7967
929	0.8061
920	0.8098
911	0.7007
902	0.718
893	0.7919
884	0.8121
875	0.8216
866	0.8218
857	0.8286
848	0.8312
839	0.8314
830	0.8317
821	0.8328
812	0.8345
803	0.8367
794	0.8391
785	0.84
776	0.8353
767	0.8245
758	0.7543
749	0.7924
740	0.8112
731	0.8015
722	0.7828
713	0.7878
704	0.7531
695	0.6605
686	0.6971
677	0.706
668	0.617
659	0.7151
650	0.7422
641	0.6568
632	0.7745
623	0.7837
614	0.7775
605	0.569
596	0.7241
587	0.7595
578	0.7697
569	0.7725
560	0.774
551	0.7748
542	0.774
533	0.7605
524	0.7446
515	0.7474
506	0.751
497	0.7535
488	0.7608
479	0.7607
470	0.7496
461	0.7468
