Infrared Spectrum: 2-ISOPROPYL-4,6-DINITRO-5-METHYL PHENOL
Formula: C10 H12 N2 O5
CAS: 303-21-9
State: SOLID (MINERAL OIL MULL)
Melting point: 53-54 C
Class: COBLENTZ
Instrument: Not specified, most likely a prism, grating, or hybrid spectrometer.
Sampling: TRANSMISSION
Resolution: 4
Origin: WYANDOTTE CHEMICALS CORP., WYANDOTTE, MICHIGAN, USA
MICROMETERS	TRANSMITTANCE
2.025	0.527
2.06212	0.531
2.09923	0.531
2.13635	0.527
2.17347	0.528
2.21059	0.53
2.2477	0.527
2.28482	0.528
2.32194	0.534
2.35906	0.536
2.39617	0.545
2.43329	0.545
2.47041	0.557
2.50753	0.568
2.54464	0.581
2.58176	0.612
2.61888	0.608
2.656	0.615
2.69311	0.638
2.73023	0.653
2.76735	0.655
2.80446	0.655
2.84158	0.581
2.8787	0.412
2.91582	0.275
2.95293	0.202
2.99005	0.214
3.02717	0.29
3.06429	0.366
3.1014	0.411
3.13852	0.429
3.17564	0.443
3.21276	0.463
3.24987	0.434
3.28699	0.417
3.32411	0.242
3.36122	0.015
3.39834	0.029
3.43546	0.034
3.47258	0.041
3.50969	0.071
3.54681	0.35
3.58393	0.525
3.62105	0.578
3.65816	0.567
3.69528	0.571
3.7324	0.593
3.76952	0.588
3.80663	0.599
3.84375	0.612
3.88087	0.624
3.91799	0.652
3.9551	0.661
3.99222	0.666
4.02934	0.653
4.06645	0.669
4.10357	0.672
4.14069	0.676
4.17781	0.683
4.21492	0.68
4.25204	0.675
4.28916	0.68
4.32628	0.7
4.36339	0.717
4.40051	0.732
4.43763	0.732
4.47475	0.738
4.51186	0.755
4.54898	0.754
4.5861	0.754
4.62322	0.765
4.66033	0.777
4.69745	0.78
4.73457	0.802
4.77168	0.816
4.8088	0.817
4.84592	0.826
4.88304	0.819
4.92015	0.823
4.95727	0.828
4.99439	0.839
5.03151	0.851
5.06862	0.877
5.10574	0.873
5.14286	0.884
5.17998	0.896
5.21709	0.902
5.25421	0.905
5.29133	0.907
5.32845	0.924
5.36556	0.921
5.40268	0.936
5.4398	0.925
5.47691	0.936
5.51403	0.948
5.55115	0.867
5.58827	0.907
5.62538	0.945
5.6625	0.939
5.69962	0.953
5.73674	0.947
5.77385	0.958
5.81097	0.939
5.84809	0.919
5.88521	0.959
5.92232	0.921
5.95944	0.913
5.99656	0.894
6.03367	0.834
6.07079	0.735
6.10791	0.4
6.14503	0.554
6.18214	0.578
6.21926	0.499
6.25638	0.381
6.2935	0.239
6.33061	0.089
6.36773	0.088
6.40485	0.061
6.44197	0.083
6.47908	0.123
6.5162	0.128
6.55332	0.102
6.59044	0.119
6.62755	0.156
6.66467	0.188
6.70179	0.12
6.7389	0.083
6.77602	0.03
6.81314	0.041
6.85026	0.035
6.88737	0.071
6.92449	0.165
6.96161	0.321
6.99873	0.366
7.03584	0.445
7.07296	0.499
7.11008	0.534
7.1472	0.4
7.18431	0.217
7.22143	0.066
7.25855	0.052
7.29567	0.077
7.33278	0.097
7.3699	0.097
7.40702	0.075
7.44413	0.081
7.48125	0.132
7.51837	0.239
7.55549	0.267
7.5926	0.202
7.62972	0.128
7.66684	0.132
7.70396	0.126
7.74107	0.091
7.77819	0.115
7.81531	0.187
7.85243	0.276
7.88954	0.364
7.92666	0.415
7.96378	0.452
8.0009	0.455
8.03801	0.446
8.07513	0.425
8.11225	0.335
8.14936	0.234
8.18648	0.233
8.2236	0.241
8.26072	0.304
8.29783	0.442
8.33495	0.497
8.37207	0.445
8.40919	0.344
8.4463	0.272
8.48342	0.207
8.52054	0.156
8.55766	0.126
8.59477	0.122
8.63189	0.149
8.66901	0.16
8.70612	0.199
8.74324	0.23
8.78036	0.262
8.81748	0.282
8.85459	0.296
8.89171	0.321
8.92883	0.336
8.96595	0.347
9.00306	0.327
9.04018	0.384
9.0773	0.412
9.11442	0.432
9.15153	0.364
9.18865	0.278
9.22577	0.34
9.26289	0.381
9.3	0.431
9.33712	0.465
9.37424	0.493
9.41135	0.46
9.44847	0.284
9.48559	0.219
9.52271	0.316
9.55982	0.369
9.59694	0.409
9.63406	0.428
9.67118	0.429
9.70829	0.372
9.74541	0.299
9.78253	0.312
9.81965	0.378
9.85676	0.431
9.89388	0.469
9.931	0.489
9.96812	0.505
10.0052	0.519
10.0423	0.534
10.0795	0.536
10.1166	0.564
10.1537	0.568
10.1908	0.571
10.2279	0.574
10.2651	0.59
10.3022	0.596
10.3393	0.596
10.3764	0.565
10.4135	0.525
10.4506	0.596
10.4878	0.642
10.5249	0.663
10.562	0.689
10.5991	0.712
10.6362	0.732
10.6733	0.74
10.7105	0.697
10.7476	0.505
10.7847	0.361
10.8218	0.256
10.8589	0.217
10.896	0.312
10.9332	0.394
10.9703	0.403
11.0074	0.296
11.0445	0.231
11.0816	0.443
11.1188	0.55
11.1559	0.571
11.193	0.505
11.2301	0.383
11.2672	0.367
11.3043	0.494
11.3415	0.578
11.3786	0.622
11.4157	0.661
11.4528	0.681
11.4899	0.701
11.527	0.72
11.5642	0.723
11.6013	0.726
11.6384	0.737
11.6755	0.717
11.7126	0.565
11.7497	0.514
11.7869	0.625
11.824	0.69
11.8611	0.731
11.8982	0.741
11.9353	0.755
11.9725	0.768
12.0096	0.791
12.0467	0.799
12.0838	0.812
12.1209	0.819
12.158	0.817
12.1952	0.826
12.2323	0.846
12.2694	0.85
12.3065	0.854
12.3436	0.868
12.3807	0.873
12.4179	0.884
12.455	0.897
12.4921	0.911
12.5292	0.922
12.5663	0.927
12.6034	0.938
12.6406	0.95
12.6777	0.962
12.7148	0.955
12.7519	0.839
12.789	0.465
12.8262	0.29
12.8633	0.409
12.9004	0.462
12.9375	0.48
12.9746	0.557
13.0117	0.579
13.0489	0.564
13.086	0.482
13.1231	0.338
13.1602	0.261
13.1973	0.377
13.2344	0.519
13.2716	0.537
13.3087	0.395
13.3458	0.255
13.3829	0.248
13.42	0.372
13.4571	0.496
13.4943	0.561
13.5314	0.608
13.5685	0.655
13.6056	0.684
13.6427	0.689
13.6799	0.697
13.717	0.686
13.7541	0.664
13.7912	0.618
13.8283	0.545
13.8654	0.491
13.9026	0.494
13.9397	0.531
13.9768	0.595
14.0139	0.659
14.051	0.703
14.0881	0.734
14.1253	0.76
14.1624	0.782
14.1995	0.8
14.2366	0.803
14.2737	0.816
14.3108	0.825
14.348	0.828
14.3851	0.834
14.4222	0.826
14.4593	0.826
14.4964	0.826
14.5336	0.816
14.5707	0.811
14.6078	0.797
14.6449	0.792
14.682	0.769
14.7191	0.754
14.7563	0.71
14.7934	0.664
14.8305	0.613
14.8676	0.537
14.9047	0.485
14.9418	0.474
14.979	0.485
15.0161	0.503
15.0532	0.513
15.0903	0.528
15.1274	0.548
15.1645	0.588
15.2017	0.608
15.2388	0.632
15.2759	0.635
15.313	0.629
15.3501	0.612
15.3872	0.593
15.4244	0.608
15.4615	0.596
15.4986	0.595
15.5357	0.595
15.5728	0.604
15.61	0.613
15.6471	0.624
15.6842	0.624
15.7213	0.627
15.7584	0.63
15.7955	0.63
15.8327	0.629
15.8698	0.618
15.9069	0.604
15.944	0.596
15.9811	0.598
