Infrared Spectrum: 3-Hexyne-2,5-diol
Formula: C6 H10 O2
CAS: 3031-66-1
State: SOLID (SPLIT MULL)
Class: COBLENTZ III
Instrument: DOW KBr FOREPRISM-GRATING
Instrument parameters: BLAZED AT 3.5, 12.0, 20.0 MICRON AND CHANGED AT 5.0, 7.5, 14.9 MICRON
Sampling: TRANSMISSION
Resolution: 2
Origin: DOW CHEMICAL COMPANY
1/CM	TRANSMITTANCE
3800	0.8405
3791	0.84
3782	0.8394
3773	0.8387
3764	0.8391
3755	0.8395
3746	0.8405
3737	0.8415
3728	0.8425
3719	0.8431
3710	0.8438
3701	0.845
3692	0.8462
3683	0.8468
3674	0.8474
3665	0.8478
3656	0.848
3647	0.8481
3638	0.8482
3629	0.8478
3620	0.8477
3611	0.8474
3602	0.8475
3593	0.8473
3584	0.8461
3575	0.8387
3566	0.8382
3557	0.8391
3548	0.8387
3539	0.8375
3530	0.8351
3521	0.8318
3512	0.8277
3503	0.8221
3494	0.8149
3485	0.8064
3476	0.7967
3467	0.7835
3458	0.7668
3449	0.7515
3440	0.7336
3431	0.7108
3422	0.6853
3413	0.6462
3404	0.607
3395	0.5599
3386	0.5238
3377	0.477
3368	0.4371
3359	0.399
3350	0.3609
3341	0.3228
3332	0.2847
3323	0.2466
3314	0.212
3305	0.1779
3296	0.1569
3287	0.1525
3278	0.1553
3269	0.1801
3260	0.2029
3251	0.2304
3242	0.2627
3233	0.2907
3224	0.3156
3215	0.3427
3206	0.3784
3197	0.4109
3188	0.4341
3179	0.4566
3170	0.4917
3161	0.516
3152	0.5458
3143	0.5679
3134	0.5892
3125	0.6103
3116	0.6302
3107	0.6515
3098	0.6706
3089	0.686
3080	0.6989
3071	0.7103
3062	0.7208
3053	0.7301
3044	0.7368
3035	0.7424
3026	0.7494
3017	0.7557
3008	0.7604
2999	0.7635
2990	0.759
2981	0.29
2972	0.551
2963	0.7336
2954	0.7538
2945	0.7575
2936	0.6892
2927	0.6754
2918	0.6986
2909	0.7288
2900	0.7424
2891	0.7411
2882	0.7394
2873	0.7355
2864	0.7117
2855	0.7155
2846	0.7207
2837	0.7187
2828	0.7154
2819	0.7187
2810	0.7341
2801	0.7522
2792	0.7646
2783	0.773
2774	0.7781
2765	0.7805
2756	0.7817
2747	0.7821
2738	0.7804
2729	0.7765
2720	0.7625
2711	0.7528
2702	0.7508
2693	0.7597
2684	0.771
2675	0.7824
2666	0.7932
2657	0.8015
2648	0.8068
2639	0.8121
2630	0.8171
2621	0.821
2612	0.8224
2603	0.821
2594	0.8168
2585	0.8126
2576	0.8156
2567	0.8197
2558	0.8233
2549	0.8256
2540	0.8275
2531	0.8268
2522	0.8234
2513	0.8189
2504	0.8151
2495	0.8108
2486	0.8096
2477	0.8118
2468	0.8146
2459	0.8172
2450	0.8201
2441	0.8228
2432	0.8254
2423	0.8267
2414	0.8282
2405	0.829
2396	0.8286
2387	0.8281
2378	0.8283
2369	0.8289
2360	0.8298
2351	0.8309
2342	0.8323
2333	0.8373
2324	0.8407
2315	0.8407
2306	0.8406
2297	0.8404
2288	0.8391
2279	0.8382
2270	0.8382
2261	0.839
2252	0.8402
2243	0.8397
2234	0.8392
2225	0.8411
2216	0.8432
2207	0.8452
2198	0.8471
2189	0.8481
2180	0.8487
2171	0.8493
2162	0.85
2153	0.8507
2144	0.8514
2135	0.8521
2126	0.8528
2117	0.8537
2108	0.8545
2099	0.8555
2090	0.8564
2081	0.8571
2072	0.8578
2063	0.8588
2054	0.8598
2045	0.8609
2036	0.8628
2027	0.8647
2018	0.8655
2009	0.866
2000	0.8609
1991	0.8491
1982	0.8606
1973	0.8602
1964	0.8609
1955	0.8612
1946	0.8621
1937	0.8634
1928	0.8649
1919	0.8667
1910	0.8691
1901	0.8706
1892	0.871
1883	0.8701
1874	0.8675
1865	0.8645
1856	0.8638
1847	0.8656
1838	0.8662
1829	0.8668
1820	0.868
1811	0.8689
1802	0.8692
1793	0.8699
1784	0.871
1775	0.873
1766	0.874
1757	0.8721
1748	0.8699
1739	0.8761
1730	0.878
1721	0.8789
1712	0.8788
1703	0.8712
1694	0.8637
1685	0.8564
1676	0.8495
1667	0.8439
1658	0.838
1649	0.8316
1640	0.8242
1631	0.8204
1622	0.8336
1613	0.8482
1604	0.8612
1595	0.8659
1586	0.8662
1577	0.8646
1568	0.8624
1559	0.8605
1550	0.859
1541	0.8573
1532	0.8539
1523	0.8494
1514	0.8451
1505	0.842
1496	0.8387
1487	0.8332
1478	0.8246
1469	0.8101
1460	0.7711
1451	0.6992
1442	0.6675
1433	0.6581
1424	0.6854
1415	0.7434
1406	0.7725
1397	0.7872
1388	0.7908
1379	0.7592
1370	0.6046
1361	0.7621
1352	0.7694
1343	0.7647
1334	0.6354
1325	0.4082
1316	0.5907
1307	0.4092
1298	0.4323
1289	0.6246
1280	0.7044
1271	0.734
1262	0.7475
1253	0.753
1244	0.7578
1235	0.7626
1226	0.7675
1217	0.7751
1208	0.7808
1199	0.7862
1190	0.7911
1181	0.786
1172	0.7186
1163	0.3918
1154	0.5186
1145	0.6917
1136	0.7464
1127	0.7656
1118	0.768
1109	0.7695
1100	0.7643
1091	0.5344
1082	0.345
1073	0.0702
1064	0.4215
1055	0.655
1046	0.7371
1037	0.7693
1028	0.7788
1019	0.7851
1010	0.7915
1001	0.7974
992	0.8017
983	0.7818
974	0.6758
965	0.3555
956	0.6831
947	0.7569
938	0.786
929	0.7996
920	0.8085
911	0.815
902	0.8192
893	0.8213
884	0.8225
875	0.8136
866	0.5407
857	0.7075
848	0.7761
839	0.7926
830	0.7967
821	0.7956
812	0.7904
803	0.7819
794	0.7715
785	0.7521
776	0.7203
767	0.69
758	0.6639
749	0.6495
740	0.6511
731	0.6601
722	0.6575
713	0.6984
704	0.7149
695	0.7168
686	0.7155
677	0.7122
668	0.7098
659	0.7107
650	0.7182
641	0.7287
632	0.7408
623	0.7554
614	0.7704
605	0.7821
596	0.7936
587	0.7883
578	0.7375
569	0.8185
560	0.8275
551	0.8315
542	0.8332
533	0.8345
524	0.8351
515	0.8328
506	0.8046
497	0.5471
488	0.7678
479	0.8078
470	0.8162
461	0.8175
452	0.8155
443	0.8108
434	0.8021
425	0.7892
416	0.7754
407	0.716
398	0.6989
389	0.6982
