Infrared Spectrum: VANILLAMIDE, N,N-DIETHYL-
Formula: C12 H17 N O3
CAS: 304-84-7
State: SOLID (KBr DISC) VS KBr
Class: COBLENTZ III
Instrument: PERKIN-ELMER 21 (GRATING)
Instrument parameters: FILTER AT ABOUT 10 MICRONS
Sampling: TRANSMISSION
Resolution: 2
1/CM	TRANSMITTANCE
4000	0.8984
3991	0.8991
3982	0.8998
3973	0.9005
3964	0.9012
3955	0.9018
3946	0.9025
3937	0.9034
3928	0.9041
3919	0.9049
3910	0.9056
3901	0.9064
3892	0.9071
3883	0.908
3874	0.9087
3865	0.9096
3856	0.9103
3847	0.9112
3838	0.9118
3829	0.9127
3820	0.9135
3811	0.9144
3802	0.9154
3793	0.9163
3784	0.9173
3775	0.9182
3766	0.9192
3757	0.9201
3748	0.9212
3739	0.9221
3730	0.9231
3721	0.9241
3712	0.9251
3703	0.9264
3694	0.9277
3685	0.9289
3676	0.9302
3667	0.9315
3658	0.9327
3649	0.934
3640	0.9353
3631	0.9366
3622	0.9383
3613	0.9399
3604	0.9416
3595	0.9433
3586	0.9449
3577	0.9467
3568	0.9488
3559	0.9508
3550	0.9528
3541	0.9551
3532	0.9575
3523	0.9607
3514	0.9638
3505	0.9668
3496	0.9692
3487	0.9713
3478	0.9721
3469	0.9727
3460	0.9728
3451	0.973
3442	0.9725
3433	0.9702
3424	0.9644
3415	0.956
3406	0.9437
3397	0.9309
3388	0.9144
3379	0.8978
3370	0.8813
3361	0.8631
3352	0.8448
3343	0.8311
3334	0.8176
3325	0.7982
3316	0.7757
3307	0.7465
3298	0.7144
3289	0.6856
3280	0.6561
3271	0.6379
3262	0.6167
3253	0.6029
3244	0.5914
3235	0.5798
3226	0.568
3217	0.5565
3208	0.5466
3199	0.536
3190	0.5217
3181	0.5059
3172	0.4934
3163	0.4852
3154	0.4776
3145	0.4699
3136	0.461
3127	0.4519
3118	0.443
3109	0.4362
3100	0.4305
3091	0.4255
3082	0.4222
3073	0.421
3064	0.42
3055	0.4196
3046	0.4192
3037	0.4193
3028	0.4196
3019	0.4199
3010	0.4194
3001	0.4175
2992	0.4151
2983	0.4118
2974	0.408
2965	0.4049
2956	0.4018
2947	0.4
2938	0.3987
2929	0.398
2920	0.3997
2911	0.4043
2902	0.4106
2893	0.4168
2884	0.4229
2875	0.4327
2866	0.4444
2857	0.4562
2848	0.4681
2839	0.48
2830	0.4914
2821	0.5007
2812	0.5101
2803	0.5196
2794	0.5291
2785	0.5386
2776	0.5482
2767	0.5577
2758	0.5681
2749	0.5786
2740	0.5892
2731	0.6002
2722	0.6114
2713	0.6225
2704	0.6325
2695	0.6425
2686	0.6505
2677	0.6585
2668	0.6628
2659	0.6669
2650	0.6711
2641	0.6753
2632	0.6797
2623	0.6843
2614	0.689
2605	0.6937
2596	0.6988
2587	0.7042
2578	0.7097
2569	0.7153
2560	0.7208
2551	0.7262
2542	0.7318
2533	0.7374
2524	0.7428
2515	0.7487
2506	0.7545
2497	0.7604
2488	0.7662
2479	0.7721
2470	0.7786
2461	0.7851
2452	0.7917
2443	0.7983
2434	0.8051
2425	0.8118
2416	0.8188
2407	0.8257
2398	0.8325
2389	0.8395
2380	0.8475
2371	0.8535
2362	0.8547
2353	0.8558
2344	0.8568
2335	0.8583
2326	0.86
2317	0.8628
2308	0.8675
2299	0.872
2290	0.8766
2281	0.8817
2272	0.8867
2263	0.8918
2254	0.8964
2245	0.8999
2236	0.9035
2227	0.9067
2218	0.9094
2209	0.9121
2200	0.9145
2191	0.9166
2182	0.9181
2173	0.9196
2164	0.9213
2155	0.9231
2146	0.9248
2137	0.9267
2128	0.9285
2119	0.9303
2110	0.9321
2101	0.9327
2092	0.9331
2083	0.9328
2074	0.9323
2065	0.9297
2056	0.9281
2047	0.9275
2038	0.9325
2029	0.9374
2020	0.9421
2011	0.9465
2002	0.9508
1993	0.9537
1984	0.9554
1975	0.9553
1966	0.9552
1957	0.9552
1948	0.9553
1939	0.9554
1930	0.9555
1921	0.9558
1912	0.956
1903	0.9563
1894	0.9561
1885	0.9558
1876	0.9554
1867	0.9507
1858	0.9368
1849	0.9228
1840	0.9251
1831	0.9285
1822	0.9323
1813	0.9338
1804	0.9308
1795	0.9259
1786	0.9171
1777	0.9037
1768	0.8928
1759	0.8846
1750	0.8775
1741	0.8713
1732	0.864
1723	0.8508
1714	0.834
1705	0.8164
1696	0.7908
1687	0.7632
1678	0.7288
1669	0.6846
1660	0.6407
1651	0.6172
1642	0.5326
1633	0.4397
1624	0.3328
1615	0.212
1606	0.1273
1597	0.1507
1588	0.1423
1579	0.1761
1570	0.3139
1561	0.3766
1552	0.487
1543	0.5584
1534	0.559
1525	0.458
1516	0.3658
1507	0.3759
1498	0.3944
1489	0.366
1480	0.2412
1471	0.2485
1462	0.2709
1453	0.2908
1444	0.2615
1435	0.2394
1426	0.2404
1417	0.2557
1408	0.3436
1399	0.4887
1390	0.5193
1381	0.3805
1372	0.4299
1363	0.4047
1354	0.4623
1345	0.5422
1336	0.6312
1327	0.6299
1318	0.423
1309	0.3782
1300	0.3192
1291	0.319
1282	0.3762
1273	0.2198
1264	0.1424
1255	0.2701
1246	0.2767
1237	0.2187
1228	0.2216
1219	0.2412
1210	0.2771
1201	0.3612
1192	0.4427
1183	0.4668
1174	0.5032
1165	0.3664
1156	0.4326
1147	0.5349
1138	0.6092
1129	0.6711
1120	0.4333
1111	0.4973
1102	0.485
1093	0.4305
1084	0.5273
1075	0.601
1066	0.5528
1057	0.661
1048	0.7214
1039	0.6647
1030	0.3586
1021	0.4387
1012	0.5444
1003	0.6096
994	0.6608
985	0.7085
976	0.746
967	0.7743
958	0.7915
949	0.7114
940	0.7351
931	0.7801
922	0.7748
913	0.7814
904	0.8187
895	0.8253
886	0.6314
877	0.6692
868	0.7692
859	0.7835
850	0.5743
841	0.7648
832	0.8151
823	0.3587
814	0.5391
805	0.6833
796	0.5834
787	0.5651
778	0.6081
769	0.6846
760	0.6751
751	0.5605
742	0.6305
733	0.5804
724	0.592
715	0.6194
706	0.6156
697	0.6059
688	0.608
679	0.6097
670	0.6267
