Infrared Spectrum: TOLUENE, 3,5-DIISOPROPYL-
Formula: C13 H20
CAS: 3055-14-9
State: SOLUTION (10% CCl4 FOR 3800-1340, 10% CS2 FOR 1340-450 CM^-^1)
Class: COBLENTZ III
Instrument: DOW KBr FOREPRISM-GRATING
Instrument parameters: BLAZED AT 3.5, 12.0, 20.0 MICRON AND CHANGED AT 5.0, 7.5, 14.9 MICRON
Sampling: TRANSMISSION
Path length: 0.011 CM, 0.011 CM
Resolution: 2
Origin: DOW CHEMICAL COMPANY
1/CM	TRANSMITTANCE
454	0.7975
463	0.8037
472	0.8065
481	0.8087
490	0.8125
499	0.8208
508	0.8264
517	0.828
526	0.8298
535	0.8321
544	0.837
553	0.8413
562	0.8451
571	0.8474
580	0.8494
589	0.8514
598	0.853
607	0.8533
616	0.8515
625	0.8481
634	0.843
643	0.829
652	0.8053
661	0.8025
670	0.8346
679	0.8352
688	0.8291
697	0.8172
706	0.7425
715	0.2276
724	0.7934
733	0.8337
742	0.8413
751	0.8452
760	0.8474
769	0.8477
778	0.8455
787	0.8393
796	0.834
805	0.8287
814	0.8035
823	0.7991
832	0.8065
841	0.7685
850	0.633
859	0.0626
868	0.6377
877	0.7148
886	0.5891
895	0.7964
904	0.8183
913	0.7971
922	0.7171
931	0.6967
940	0.7368
949	0.7911
958	0.8206
967	0.8354
976	0.8378
985	0.8288
994	0.8032
1003	0.7918
1012	0.821
1021	0.8194
1030	0.7847
1039	0.7656
1048	0.8001
1057	0.7969
1066	0.7615
1075	0.7514
1084	0.7076
1093	0.7522
1102	0.7261
1111	0.7698
1120	0.8249
1129	0.8333
1138	0.823
1147	0.8189
1156	0.8609
1165	0.8693
1174	0.8505
1183	0.7858
1192	0.8436
1201	0.9149
1210	0.9211
1219	0.9241
1228	0.9223
1237	0.9149
1246	0.8856
1255	0.8515
1264	0.8107
1273	0.8768
1282	0.8743
1291	0.851
1300	0.8157
1309	0.7575
1318	0.6893
1327	0.7861
1336	0.7389
1345	0.7144
1354	0.7775
1363	0.7036
1372	0.5385
1381	0.5682
1390	0.6275
1399	0.7703
1408	0.7658
1417	0.7441
1426	0.7168
1435	0.6695
1444	0.5274
1453	0.3491
1462	0.2738
1471	0.1913
1480	0.4924
1489	0.6223
1498	0.6521
1507	0.6425
1516	0.6193
1525	0.5786
1534	0.5346
1543	0.4712
1552	0.426
1561	0.4624
1570	0.5382
1579	0.5491
1588	0.5162
1597	0.4376
1606	0.1951
1615	0.6735
1624	0.7726
1633	0.8115
1642	0.8304
1651	0.8397
1660	0.8406
1669	0.8411
1678	0.8421
1687	0.8437
1696	0.8451
1705	0.8454
1714	0.845
1723	0.8471
1732	0.8344
1741	0.7771
1750	0.7987
1759	0.818
1768	0.7953
1777	0.804
1786	0.8324
1795	0.8416
1804	0.8406
1813	0.8406
1822	0.8402
1831	0.8399
1840	0.8408
1849	0.8415
1858	0.8409
1867	0.8428
1876	0.8431
1885	0.8428
1894	0.8432
1903	0.8438
1912	0.8434
1921	0.8428
1930	0.8428
1939	0.8428
1948	0.8431
1957	0.8433
1966	0.8431
1975	0.8424
1984	0.8416
1993	0.8277
2002	0.8425
2011	0.8368
2020	0.8542
2029	0.8558
2038	0.8568
2047	0.8571
2056	0.8573
2065	0.8574
2074	0.8574
2083	0.8574
2092	0.8574
2101	0.8575
2110	0.8578
2119	0.858
2128	0.8584
2137	0.859
2146	0.8596
2155	0.8602
2164	0.8598
2173	0.8589
2182	0.8583
2191	0.858
2200	0.8578
2209	0.8567
2218	0.8554
2227	0.8536
2236	0.8552
2245	0.8554
2254	0.8517
2263	0.8483
2272	0.8452
2281	0.8404
2290	0.8377
2299	0.838
2308	0.8408
2317	0.843
2326	0.8457
2335	0.8442
2344	0.8464
2353	0.8545
2362	0.8544
2371	0.849
2380	0.8477
2389	0.8528
2398	0.8554
2407	0.8562
2416	0.8563
2425	0.8561
2434	0.8558
2443	0.8555
2452	0.8538
2461	0.8542
2470	0.8555
2479	0.8547
2488	0.854
2497	0.8574
2506	0.8582
2515	0.8585
2524	0.8582
2533	0.8578
2542	0.8571
2551	0.8547
2560	0.8511
2569	0.8471
2578	0.8428
2587	0.838
2596	0.84
2605	0.8428
2614	0.8459
2623	0.8492
2632	0.8514
2641	0.8518
2650	0.8518
2659	0.8523
2668	0.8544
2677	0.8548
2686	0.8515
2695	0.846
2704	0.8386
2713	0.8262
2722	0.815
2731	0.8085
2740	0.8323
2749	0.8287
2758	0.8161
2767	0.8316
2776	0.8288
2785	0.824
2794	0.8162
2803	0.7987
2812	0.7841
2821	0.7839
2830	0.7692
2839	0.7439
2848	0.6989
2857	0.6129
2866	0.3347
2875	0.1852
2884	0.2848
2893	0.268
2902	0.2714
2911	0.2637
2920	0.1836
2929	0.1466
2938	0.1608
2947	0.1832
2956	0.087
2965	0.0039
2974	0.0241
2983	0.1517
2992	0.3756
3001	0.5347
3010	0.5237
3019	0.4738
3028	0.5437
3037	0.5819
3046	0.6605
3055	0.6965
3064	0.7236
3073	0.7583
3082	0.8015
3091	0.8251
3100	0.8335
3109	0.8411
3118	0.8453
3127	0.8489
3136	0.8514
3145	0.8535
3154	0.8516
3163	0.8491
3172	0.8467
3181	0.845
3190	0.8442
3199	0.844
3208	0.8446
3217	0.8481
3226	0.8532
3235	0.856
3244	0.8587
3253	0.8613
3262	0.8632
3271	0.8648
3280	0.8665
3289	0.8678
3298	0.8692
3307	0.8705
3316	0.8717
3325	0.8725
3334	0.8733
3343	0.8741
3352	0.8747
3361	0.8747
3370	0.8746
3379	0.8746
3388	0.8746
3397	0.8746
3406	0.8739
3415	0.8732
3424	0.8725
3433	0.8718
3442	0.8711
3451	0.8704
3460	0.8697
3469	0.8689
3478	0.8682
3487	0.8675
3496	0.8671
3505	0.8671
3514	0.8671
3523	0.867
3532	0.867
3541	0.8668
3550	0.8668
3559	0.8668
3568	0.8668
3577	0.8671
3586	0.8674
3595	0.8675
3604	0.8678
3613	0.868
3622	0.8685
3631	0.8689
3640	0.8694
3649	0.8699
3658	0.8701
3667	0.8701
3676	0.8701
3685	0.8691
3694	0.8682
3703	0.8704
3712	0.8734
3721	0.8768
3730	0.8827
3739	0.8818
3748	0.8709
3757	0.8691
3766	0.8683
3775	0.8691
3784	0.8704
3793	0.8717
