Infrared Spectrum: SULFOXIDE, BIS(4-CHLOROPHENYL)-
Formula: C12 H8 Cl2 O S
CAS: 3085-42-5
State: SOLID (SPLIT MULL, FLUOROLUBE FOR 3800-1345 AND NUJOL FOR 1345-470 CM ^-^1)
Class: COBLENTZ III
Instrument: DOW KBr FOREPRISM-GRATING
Instrument parameters: BLAZED AT 3.5, 12.0, 20.0 MICRON, CHANGED AT 5.0, 7.5, 14.9 MICRON
Sampling: TRANSMISSION
Resolution: 4
Origin: DOW CHEMICAL COMPANY
1/CM	TRANSMITTANCE
465.116	0.93
473.837	0.851
482.558	0.817
491.279	0.926
500	0.682
508.721	0.893
517.442	0.96
526.163	0.952
534.883	0.922
543.604	0.821
552.325	0.653
561.046	0.6609
569.767	0.95
578.488	0.975
587.209	0.986
595.93	0.986
604.651	0.99
613.372	0.993
622.093	0.987
630.814	0.859
639.535	1
648.256	1.004
656.977	1.008
665.697	1.005
674.418	1.002
683.139	1.002
691.86	0.997
700.581	0.989
709.302	0.927
718.023	0.937
726.744	0.879
735.465	0.492
744.186	0.622
752.907	0.969
761.628	0.986
770.349	0.983
779.07	0.983
787.79	0.98
796.511	0.974
805.232	0.954
813.953	0.923
822.674	0.837
831.395	0.122
840.116	0.784
848.837	0.848
857.558	0.964
866.279	0.965
875	0.96
883.721	0.959
892.442	0.95
901.163	0.948
909.884	0.942
918.604	0.944
927.325	0.942
936.046	0.942
944.767	0.934
953.488	0.916
962.209	0.896
970.93	0.912
979.651	0.916
988.372	0.893
997.093	0.878
1005.81	0.609
1014.53	0.257
1023.26	0.866
1031.98	0.727
1040.7	0.122
1049.42	0.13
1058.14	0.718
1066.86	0.701
1075.58	0.35
1084.3	0.139
1093.02	0.407
1101.74	0.758
1110.46	0.778
1119.19	0.923
1127.91	0.952
1136.63	0.941
1145.35	0.935
1154.07	0.907
1162.79	0.908
1171.51	0.633
1180.23	0.937
1188.95	0.933
1197.67	0.926
1206.4	0.927
1215.12	0.918
1223.84	0.924
1232.56	0.914
1241.28	0.904
1250	0.904
1258.72	0.899
1267.44	0.899
1276.16	0.837
1284.88	0.881
1293.6	0.843
1302.33	0.886
1311.05	0.881
1319.77	0.875
1328.49	0.871
1337.21	0.873
1345.93	0.856
1354.65	0.832
1363.37	0.809
1372.09	0.785
1380.81	0.74
1389.53	0.648
1398.26	0.646
1406.98	0.918
1415.7	0.911
1424.42	0.892
1433.14	0.864
1441.86	0.83
1450.58	0.809
1459.3	0.708
1468.02	0.603
1476.74	0.252
1485.47	1.046
1494.19	1.058
1502.91	1.036
1511.63	1.017
1520.35	1.008
1529.07	0.997
1537.79	0.978
1546.51	0.959
1555.23	0.924
1563.95	0.871
1572.67	0.778
1581.4	0.905
1590.12	0.956
1598.84	0.972
1607.56	0.964
1616.28	0.956
1625	0.941
1633.72	0.923
1642.44	0.923
1651.16	0.907
1659.88	0.885
1668.6	0.869
1677.33	0.879
1686.05	0.904
1694.77	0.905
1703.49	0.918
1712.21	0.905
1720.93	0.899
1729.65	0.89
1738.37	0.89
1747.09	0.884
1755.81	0.879
1764.53	0.874
1773.26	0.867
1781.98	0.849
1790.7	0.851
1799.42	0.845
1808.14	0.837
1816.86	0.832
1825.58	0.841
1834.3	0.849
1843.02	0.852
1851.74	0.848
1860.47	0.841
1869.19	0.836
1877.91	0.832
1886.63	0.826
1895.35	0.825
1904.07	0.813
1912.79	0.798
1921.51	0.781
1930.23	0.74
1938.95	0.776
1947.67	0.788
1956.4	0.796
1965.12	0.795
1973.84	0.8
1982.56	0.795
1991.28	0.792
2000	0.769
2008.72	0.753
2017.44	0.74
2026.16	0.7331
2034.88	0.7291
2043.6	0.724
2052.33	0.717
2061.05	0.7102
2069.77	0.709
2078.49	0.6991
2087.21	0.6818
2095.93	0.6949
2104.65	0.6912
2113.37	0.6831
2122.09	0.6791
2130.81	0.6693
2139.53	0.668
2148.26	0.667
2156.98	0.663
2165.7	0.6563
2174.42	0.652
2183.14	0.6452
2191.86	0.6382
2200.58	0.6353
2209.3	0.6332
2218.02	0.63
2226.74	0.624
2235.47	0.6152
2244.19	0.6056
2252.91	0.5979
2261.63	0.5924
2270.35	0.5835
2279.07	0.5782
2287.79	0.575
2296.51	0.574
2305.23	0.568
2313.95	0.566
2322.67	0.5633
2331.4	0.562
2340.12	0.559
2348.84	0.557
2357.56	0.555
2366.28	0.553
2375	0.552
2383.72	0.551
2392.44	0.551
2401.16	0.549
2409.88	0.551
2418.6	0.549
2427.33	0.548
2436.05	0.547
2444.77	0.542
2453.49	0.538
2462.21	0.5374
2470.93	0.536
2479.65	0.534
2488.37	0.533
2497.09	0.529
2505.81	0.526
2514.54	0.526
2523.26	0.525
2531.98	0.5224
2540.7	0.5145
2549.42	0.512
2558.14	0.511
2566.86	0.508
2575.58	0.507
2584.3	0.504
2593.02	0.5025
2601.74	0.4995
2610.47	0.497
2619.19	0.495
2627.91	0.489
2636.63	0.484
2645.35	0.48
2654.07	0.48
2662.79	0.478
2671.51	0.4776
2680.23	0.473
2688.95	0.47
2697.67	0.467
2706.4	0.466
2715.12	0.4608
2723.84	0.455
2732.56	0.452
2741.28	0.4476
2750	0.4453
2758.72	0.4396
2767.44	0.435
2776.16	0.439
2784.88	0.437
2793.6	0.435
2802.33	0.4277
2811.05	0.425
2819.77	0.4234
2828.49	0.417
2837.21	0.412
2845.93	0.41
2854.65	0.406
2863.37	0.402
2872.09	0.401
2880.81	0.3987
2889.54	0.3957
2898.26	0.3903
2906.98	0.383
2915.7	0.3798
2924.42	0.369
2933.14	0.362
2941.86	0.3568
2950.58	0.354
2959.3	0.354
2968.02	0.357
2976.74	0.354
2985.47	0.3468
2994.19	0.3317
3002.91	0.3062
3011.63	0.257
3020.35	0.3146
3029.07	0.3239
3037.79	0.316
3046.51	0.3115
3055.23	0.2767
3063.95	0.384
3072.67	0.3488
3081.4	0.3118
3090.12	0.3761
3098.84	0.3718
3107.56	0.362
3116.28	0.357
3125	0.354
3133.72	0.3529
3142.44	0.3489
3151.16	0.346
3159.88	0.346
3168.6	0.342
3177.33	0.338
3186.05	0.332
3194.77	0.33
3203.49	0.324
3212.21	0.323
3220.93	0.319
3229.65	0.317
3238.37	0.316
3247.09	0.312
3255.81	0.3081
3264.54	0.305
3273.26	0.305
3281.98	0.301
3290.7	0.3001
3299.42	0.297
3308.14	0.293
3316.86	0.291
3325.58	0.2891
3334.3	0.2872
3343.02	0.287
3351.74	0.2833
3360.47	0.282
3369.19	0.281
3377.91	0.278
3386.63	0.275
3395.35	0.274
3404.07	0.272
3412.79	0.271
3421.51	0.2684
3430.23	0.267
3438.95	0.267
3447.67	0.266
3456.4	0.264
3465.12	0.263
3473.84	0.259
3482.56	0.256
3491.28	0.256
3500	0.253
3508.72	0.252
3517.44	0.2513
3526.16	0.2496
3534.88	0.249
3543.61	0.248
3552.33	0.246
3561.05	0.246
3569.77	0.2443
3578.49	0.241
3587.21	0.238
3595.93	0.237
3604.65	0.237
3613.37	0.236
3622.09	0.234
3630.81	0.2334
3639.54	0.231
3648.26	0.231
3656.98	0.231
3665.7	0.229
3674.42	0.226
3683.14	0.2238
3691.86	0.222
3700.58	0.221
3709.3	0.2199
3718.02	0.219
3726.74	0.221
3735.47	0.219
3744.19	0.218
3752.91	0.215
3761.63	0.212
3770.35	0.212
3779.07	0.212
3787.79	0.21
