Infrared Spectrum: ALDRIN
Formula: C12 H8 Cl6
CAS: 309-00-2
State: SOLUTION (10% IN CCl4 FOR 3800-1330, 10% IN CS2 FOR 1330-450 CM^-^1)
Class: COBLENTZ III
Instrument: DOW KBr FOREPRISM-GRATING
Instrument parameters: BLAZED AT 3.5, 12.0, 20.0 MICRON, CHANGED AT 5.0, 7.5, 14.9 MICRON
Sampling: TRANSMISSION
Path length: 0.011, 0.011 CM
Resolution: 4
Origin: DOW CHEMICAL COMPANY
1/CM	TRANSMITTANCE
454.4	0.918
462.8	0.938
471.2	0.956
479.6	0.971
488	0.981
496.4	0.997
504.8	1.001
513.2	0.998
521.6	0.896
530	1.007
538.4	1.008
546.8	0.9321
555.2	1.01
563.6	1.012
572	1.01
580.4	0.995
588.8	0.981
597.2	0.6921
605.6	0.913
614	0.998
622.4	0.849
630.8	0.998
639.2	0.982
647.6	0.954
656	0.954
664.4	0.8791
672.8	0.906
681.2	0.6791
689.6	0.387
698	0.579
706.401	0.6449
714.801	0.5656
723.201	0.913
731.601	0.954
740.001	0.975
748.401	0.987
756.801	0.968
765.201	0.899
773.601	0.433
782.001	0.913
790.401	0.922
798.801	0.932
807.201	0.5372
815.601	0.8429
824.001	0.7651
832.401	0.5019
840.801	0.834
849.201	0.795
857.601	0.795
866.001	0.774
874.401	0.816
882.801	0.6891
891.201	0.593
899.601	0.5168
908.001	0.5242
916.401	0.892
924.801	0.932
933.201	0.88
941.601	0.978
950.001	0.984
958.401	0.989
966.801	0.972
975.201	0.954
983.601	0.912
992.001	0.8619
1000.4	0.7469
1008.8	0.811
1017.2	0.535
1025.6	0.527
1034	0.293
1042.4	0.708
1050.8	0.724
1059.2	0.692
1067.6	0.5738
1076	0.754
1084.4	0.567
1092.8	0.811
1101.2	0.795
1109.6	0.6561
1118	0.955
1126.4	0.969
1134.8	0.974
1143.2	0.964
1151.6	0.945
1160	0.893
1168.4	0.712
1176.8	0.435
1185.2	0.893
1193.6	0.964
1202	0.981
1210.4	0.987
1218.8	0.935
1227.2	0.912
1235.6	0.856
1244	0.8361
1252.4	0.5479
1260.8	0.85
1269.2	0.91
1277.6	0.925
1286	0.971
1294.4	0.971
1302.8	0.942
1311.2	0.7443
1319.6	0.8949
1328	0.912
1336.4	0.962
1344.8	0.977
1353.2	0.968
1361.6	0.979
1370	0.971
1378.4	0.978
1386.8	0.978
1395.2	0.982
1403.6	0.971
1412	0.977
1420.4	0.977
1428.8	0.971
1437.2	0.971
1445.6	0.969
1454	0.955
1462.4	0.941
1470.8	0.4913
1479.2	0.931
1487.6	0.905
1496	0.88
1504.4	0.811
1512.8	0.768
1521.2	0.715
1529.6	0.676
1538	0.537
1546.4	0.494
1554.8	0.524
1563.2	0.591
1571.6	0.66
1580	0.693
1588.4	0.695
1596.8	0.303
1605.2	0.724
1613.6	0.912
1622	0.905
1630.4	0.954
1638.8	0.985
1647.2	0.997
1655.6	0.998
1664	0.997
1672.4	0.994
1680.8	0.994
1689.2	0.989
1697.6	0.987
1706	0.988
1714.4	0.985
1722.8	0.985
1731.2	0.989
1739.6	0.984
1748	0.985
1756.4	0.984
1764.8	0.989
1773.2	0.992
1781.6	0.997
1790	0.992
1798.4	0.989
1806.8	0.992
1815.2	0.995
1823.6	0.991
1832	0.997
1840.4	0.998
1848.8	0.995
1857.2	0.995
1865.6	0.997
1874	0.998
1882.4	0.998
1890.8	0.998
1899.2	0.997
1907.6	0.997
1916	0.998
1924.4	0.998
1932.8	1.001
1941.2	1
1949.6	1
1958	1
1966.4	1
1974.8	1
1983.2	0.998
1991.6	0.995
2000	0.994
2008.4	1.001
2016.8	1.0009
2025.2	0.998
2033.6	0.9983
2042	1.002
2050.4	1.0017
2058.8	1.0002
2067.2	1.0003
2075.6	1.0019
2084	1.004
2092.4	1.002
2100.8	1.002
2109.2	1.002
2117.6	1.002
2126	1.002
2134.4	1.001
2142.8	1
2151.2	0.9995
2159.6	1.001
2168	1.0009
2176.4	1.002
2184.8	1.0011
2193.2	1.0005
2201.6	0.998
2210	0.9976
2218.4	1
2226.8	1
2235.2	0.9978
2243.6	0.995
2252	0.994
2260.4	0.9893
2268.8	0.9839
2277.2	0.9792
2285.6	0.977
2294	0.975
2302.4	0.9761
2310.8	0.977
2319.2	0.9786
2327.6	0.9793
2336	0.982
2344.4	0.984
2352.8	0.9866
2361.2	0.9897
2369.6	0.994
2378	0.998
2386.4	0.998
2394.8	1
2403.2	1
2411.6	1
2420	1
2428.4	1
2436.8	1
2445.2	1.0008
2453.6	1.002
2462	1.002
2470.4	1.0016
2478.8	1.0001
2487.2	0.998
2495.6	0.998
2504	0.998
2512.4	0.997
2520.8	0.998
2529.2	0.998
2537.6	0.998
2546	0.998
2554.4	0.998
2562.8	0.998
2571.2	0.998
2579.6	0.997
2588	0.997
2596.4	0.997
2604.8	0.997
2613.2	0.997
2621.6	0.997
2630	0.997
2638.4	0.994
2646.8	0.994
2655.2	0.995
2663.6	0.995
2672	0.997
2680.4	0.997
2688.8	0.997
2697.2	0.997
2705.6	0.995
2714	0.995
2722.4	0.997
2730.8	0.997
2739.2	0.997
2747.6	0.997
2756	0.997
2764.4	0.997
2772.8	0.995
2781.2	0.994
2789.6	0.994
2798	0.994
2806.4	0.994
2814.8	0.994
2823.2	0.9936
2831.6	0.992
2840	0.9887
2848.4	0.987
2856.8	0.985
2865.2	0.984
2873.6	0.982
2882	0.982
2890.4	0.9784
2898.8	0.957
2907.2	0.8554
2915.6	0.9138
2924	0.951
2932.4	0.961
2940.8	0.9556
2949.2	0.937
2957.6	0.8683
2966.01	0.7073
2974.41	0.7021
2982.81	0.6034
2991.21	0.768
2999.61	0.882
3008.01	0.9371
3016.41	0.9604
3024.81	0.9535
3033.21	0.8918
3041.61	0.808
3050.01	0.8254
3058.41	0.9059
3066.81	0.84
3075.21	0.912
3083.61	0.9684
3092.01	0.9786
3100.41	0.984
3108.81	0.985
3117.21	0.987
3125.61	0.9755
3134.01	0.9687
3142.41	0.9887
3150.81	0.9974
3159.21	0.998
3167.61	0.999
3176.01	1
3184.41	0.9991
3192.81	1.001
3201.21	1.0033
3209.61	1.005
3218.01	1.007
3226.41	1.007
3234.81	1.0054
3243.21	1.0087
3251.61	1.0082
3260.01	1.0089
3268.41	1.011
3276.81	1.012
3285.21	1.0119
3293.61	1.0106
3302.01	1.0137
3310.41	1.012
3318.81	1.0135
3327.21	1.011
3335.61	1.01
3344.01	1.011
3352.41	1.014
3360.81	1.011
3369.21	1.0105
3377.61	1.011
3386.01	1.012
3394.41	1.0137
3402.81	1.012
3411.21	1.011
3419.61	1.011
3428.01	1.01
3436.41	1.0083
3444.81	1.008
3453.21	1.008
3461.61	1.008
3470.01	1.007
3478.41	1.005
3486.81	1.004
3495.21	1.004
3503.61	1.0042
3512.01	1.007
3520.41	1.004
3528.81	1.004
3537.21	1.002
3545.61	1.002
3554.01	1.002
3562.41	1.002
3570.81	1.002
3579.21	1.001
3587.61	1.0004
3596.01	0.998
3604.41	0.997
3612.81	0.995
3621.21	0.995
3629.61	0.9973
3638.01	0.9998
3646.41	1
3654.81	1
3663.21	1.001
3671.61	1.002
3680.01	1.002
3688.41	1.001
3696.81	1.001
3705.21	1.001
3713.61	1.002
3722.01	1.001
3730.41	1.0001
3738.81	0.998
3747.21	0.997
3755.61	0.998
3764.01	0.998
3772.41	1.001
3780.81	1.001
3789.21	1
3797.61	1
