Infrared Spectrum: p-MENTHA-6,8-DIEN-2-ONE, 2,4-DINITRO-PHENYLHYDRAZONE
Formula: C16 H18 N4 O4
CAS: 3102-61-2
State: SOLID (1.0 mg / 200 mg KBr DISC) VS. KBr
Melting point: 193 C
Class: COBLENTZ III
Instrument: BECKMAN IR-4 (HYBRID PRISM-GRATING)
Sampling: TRANSMISSION
Resolution: 4
Origin: UNIVERSITY OF FLORIDA
MICROMETERS	TRANSMITTANCE
0.989	0.419
1.02566	0.428
1.06233	0.439
1.09899	0.443
1.13566	0.454
1.17232	0.459
1.20899	0.469
1.24565	0.474
1.28232	0.479
1.31898	0.483
1.35565	0.498
1.39231	0.508
1.42898	0.513
1.46564	0.514
1.50231	0.521
1.53897	0.526
1.57564	0.53
1.6123	0.54
1.64897	0.547
1.68563	0.553
1.7223	0.559
1.75896	0.565
1.79563	0.567
1.83229	0.573
1.86896	0.583
1.90562	0.588
1.94229	0.59
1.97895	0.597
2.01562	0.601
2.05228	0.608
2.08894	0.613
2.12561	0.615
2.16227	0.615
2.19894	0.619
2.2356	0.623
2.27227	0.631
2.30893	0.64
2.3456	0.64
2.38226	0.647
2.41893	0.65
2.45559	0.653
2.49226	0.657
2.52892	0.66
2.56559	0.667
2.60225	0.668
2.63892	0.669
2.67558	0.675
2.71225	0.677
2.74891	0.679
2.78558	0.687
2.82224	0.686
2.85891	0.684
2.89557	0.686
2.93224	0.689
2.9689	0.693
3.00557	0.696
3.04223	0.644
3.07889	0.69
3.11556	0.703
3.15222	0.71
3.18889	0.712
3.22555	0.671
3.26222	0.668
3.29888	0.702
3.33555	0.701
3.37221	0.649
3.40888	0.628
3.44554	0.655
3.48221	0.68
3.51887	0.688
3.55554	0.705
3.5922	0.717
3.62887	0.718
3.66553	0.724
3.7022	0.731
3.73886	0.732
3.77553	0.734
3.81219	0.737
3.84886	0.74
3.88552	0.743
3.92219	0.751
3.95885	0.75
3.99552	0.753
4.03218	0.758
4.06885	0.755
4.10551	0.758
4.14217	0.76
4.17884	0.76
4.2155	0.766
4.25217	0.78
4.28883	0.781
4.3255	0.787
4.36216	0.782
4.39883	0.778
4.43549	0.774
4.47216	0.783
4.50882	0.787
4.54549	0.788
4.58215	0.791
4.61882	0.792
4.65548	0.794
4.69215	0.797
4.72881	0.799
4.76548	0.797
4.80214	0.8
4.83881	0.801
4.87547	0.802
4.91214	0.802
4.9488	0.803
4.98547	0.805
5.02213	0.804
5.0588	0.8
5.09546	0.803
5.13212	0.804
5.16879	0.811
5.20545	0.814
5.24212	0.816
5.27878	0.82
5.31545	0.82
5.35211	0.824
5.38878	0.823
5.42544	0.819
5.46211	0.814
5.49877	0.815
5.53544	0.819
5.5721	0.82
5.60877	0.826
5.64543	0.828
5.6821	0.831
5.71876	0.828
5.75543	0.83
5.79209	0.835
5.82876	0.828
5.86542	0.824
5.90209	0.829
5.93875	0.823
5.97542	0.818
6.01208	0.822
6.04875	0.785
6.08541	0.71
6.12208	0.641
6.15874	0.434
6.1954	0.203
6.23207	0.303
6.26873	0.293
6.3054	0.226
6.34206	0.49
6.37873	0.625
6.41539	0.679
6.45206	0.71
6.48872	0.628
6.52539	0.648
6.56205	0.56
6.59872	0.378
6.63538	0.331
6.67205	0.311
6.70871	0.47
6.74538	0.619
6.78204	0.679
6.81871	0.717
6.85537	0.696
6.89204	0.658
6.9287	0.646
6.96537	0.574
7.00203	0.504
7.0387	0.42
7.07536	0.561
7.11203	0.667
7.14869	0.725
7.18535	0.672
7.22202	0.689
7.25868	0.66
7.29535	0.703
7.33201	0.682
7.36868	0.529
7.40534	0.197
7.44201	0.243
7.47867	0.1
7.51534	0.178
7.552	0.369
7.58867	0.358
7.62533	0.426
7.662	0.516
7.69866	0.53
7.73533	0.55
7.77199	0.594
7.80866	0.595
7.84532	0.57
7.88199	0.547
7.91865	0.59
7.95532	0.579
7.99198	0.493
8.02865	0.551
8.06531	0.636
8.10198	0.683
8.13864	0.685
8.17531	0.676
8.21197	0.64
8.24863	0.664
8.2853	0.702
8.32196	0.73
8.35863	0.726
8.39529	0.73
8.43196	0.749
8.46862	0.76
8.50529	0.765
8.54195	0.775
8.57862	0.78
8.61528	0.787
8.65195	0.779
8.68861	0.765
8.72528	0.729
8.76194	0.645
8.79861	0.55
8.83527	0.359
8.87194	0.286
8.9086	0.304
8.94527	0.37
8.98193	0.445
9.0186	0.517
9.05526	0.565
9.09193	0.588
9.12859	0.597
9.16526	0.593
9.20192	0.566
9.23859	0.566
9.27525	0.618
9.31191	0.676
9.34858	0.703
9.38524	0.687
9.42191	0.633
9.45857	0.639
9.49524	0.676
9.5319	0.637
9.56857	0.548
9.60523	0.585
9.6419	0.659
9.67856	0.685
9.71523	0.686
9.75189	0.704
9.78856	0.725
9.82522	0.735
9.86189	0.739
9.89855	0.74
9.93522	0.747
9.97188	0.753
10.0085	0.757
10.0452	0.762
10.0819	0.761
10.1185	0.751
10.1552	0.739
10.1919	0.751
10.2285	0.759
10.2652	0.76
10.3019	0.765
10.3385	0.78
10.3752	0.78
10.4119	0.775
10.4485	0.784
10.4852	0.792
10.5219	0.795
10.5585	0.796
10.5952	0.798
10.6318	0.8
10.6685	0.797
10.7052	0.803
10.7418	0.799
10.7785	0.789
10.8152	0.752
10.8518	0.729
10.8885	0.741
10.9252	0.734
10.9618	0.667
10.9985	0.68
11.0352	0.731
11.0718	0.748
11.1085	0.737
11.1452	0.718
11.1818	0.692
11.2185	0.625
11.2552	0.6
11.2918	0.66
11.3285	0.687
11.3651	0.687
11.4018	0.691
11.4385	0.714
11.4751	0.739
11.5118	0.752
11.5485	0.766
11.5851	0.774
11.6218	0.78
11.6585	0.786
11.6951	0.789
11.7318	0.779
11.7685	0.736
11.8051	0.635
11.8418	0.644
11.8785	0.71
11.9151	0.758
11.9518	0.778
11.9884	0.766
12.0251	0.68
12.0618	0.589
12.0984	0.677
12.1351	0.742
12.1718	0.773
12.2084	0.784
12.2451	0.793
12.2818	0.795
12.3184	0.798
12.3551	0.8
12.3918	0.797
12.4284	0.791
12.4651	0.787
12.5018	0.77
12.5384	0.74
12.5751	0.718
12.6117	0.736
12.6484	0.776
12.6851	0.785
12.7217	0.788
12.7584	0.795
12.7951	0.8
12.8317	0.801
12.8684	0.8
12.9051	0.799
12.9417	0.801
12.9784	0.802
13.0151	0.8
13.0517	0.8
13.0884	0.798
13.1251	0.773
13.1617	0.75
13.1984	0.776
13.2351	0.788
13.2717	0.792
13.3084	0.785
13.345	0.783
13.3817	0.774
13.4184	0.756
13.455	0.708
13.4917	0.622
13.5284	0.539
13.565	0.594
13.6017	0.684
13.6384	0.742
13.675	0.755
13.7117	0.766
13.7484	0.768
13.785	0.761
13.8217	0.75
13.8584	0.739
13.895	0.734
13.9317	0.716
13.9683	0.7
14.005	0.688
14.0417	0.682
14.0783	0.689
14.115	0.702
14.1517	0.722
14.1883	0.727
14.225	0.729
14.2617	0.73
14.2983	0.732
14.335	0.731
14.3717	0.729
14.4083	0.727
14.445	0.718
14.4817	0.707
14.5183	0.693
14.555	0.676
14.5916	0.669
14.6283	0.662
14.665	0.67
14.7016	0.681
14.7383	0.68
14.775	0.69
14.8116	0.689
14.8483	0.689
14.885	0.685
14.9216	0.688
14.9583	0.685
14.995	0.679
