Infrared Spectrum: Sulfone, methylphenyl-
Formula: C7 H8 O2 S
CAS: 3112-85-4
State: SOLID (SPLIT MULL), FLUOROLUBE FOR 3800-1330 CM^-^1, NUJOL FOR 1330-460 CM^-^1
Class: COBLENTZ III
Instrument: DOW KBr FOREPRISM-GRATING
Instrument parameters: BLAZED AT 3.5, 12.0, 20.0 MICRON AND CHANGED AT 5.0, 7.5, 14.9 MICRON
Sampling: TRANSMISSION
Resolution: 2
Origin: DOW CHEMICAL COMPANY
1/CM	TRANSMITTANCE
454	0.7921
463	0.8295
472	0.8394
481	0.8403
490	0.837
499	0.8292
508	0.8156
517	0.7915
526	0.7125
535	0.0653
544	0.0966
553	0.6818
562	0.8252
571	0.8568
580	0.8721
589	0.8778
598	0.8821
607	0.8862
616	0.8867
625	0.8866
634	0.8845
643	0.8823
652	0.8828
661	0.8786
670	0.8278
679	0.8325
688	0.7525
697	0.5316
706	0.7992
715	0.8135
724	0.7668
733	0.7515
742	0.6106
751	0.0904
760	0.5988
769	0.7721
778	0.7912
787	0.5981
796	0.4138
805	0.8096
814	0.845
823	0.8542
832	0.8574
841	0.8554
850	0.8156
859	0.8517
868	0.859
877	0.8571
886	0.8517
895	0.8443
904	0.8464
913	0.8413
922	0.8295
931	0.7393
940	0.8004
949	0.784
958	0.6248
967	0.3397
976	0.6465
985	0.8165
994	0.8242
1003	0.6912
1012	0.833
1021	0.8186
1030	0.7856
1039	0.8358
1048	0.8271
1057	0.811
1066	0.7753
1075	0.6071
1084	0.5653
1093	0.4514
1102	0.7067
1111	0.7256
1120	0.7046
1129	0.6411
1138	0.3327
1147	0.0438
1156	0.0949
1165	0.4459
1174	0.6691
1183	0.6655
1192	0.7832
1201	0.7875
1210	0.8004
1219	0.804
1228	0.7922
1237	0.7635
1246	0.7203
1255	0.6674
1264	0.6197
1273	0.4082
1282	0.1559
1291	0.1566
1300	0.1012
1309	0.3712
1318	0.3882
1327	0.4451
1336	0.371
1345	0.6575
1354	0.7472
1363	0.7938
1372	0.7938
1381	0.7876
1390	0.7825
1399	0.7176
1408	0.6237
1417	0.7072
1426	0.734
1435	0.7725
1444	0.6081
1453	0.6112
1462	0.8268
1471	0.7821
1480	0.6411
1489	0.8413
1498	0.8358
1507	0.8442
1516	0.8442
1525	0.8364
1534	0.8227
1543	0.8118
1552	0.814
1561	0.8088
1570	0.7965
1579	0.7697
1588	0.8014
1597	0.7851
1606	0.7789
1615	0.7797
1624	0.7658
1633	0.7533
1642	0.7598
1651	0.7799
1660	0.7721
1669	0.7585
1678	0.7403
1687	0.74
1696	0.7498
1705	0.7528
1714	0.7421
1723	0.7341
1732	0.7267
1741	0.7069
1750	0.7174
1759	0.7262
1768	0.7189
1777	0.6968
1786	0.711
1795	0.7188
1804	0.7147
1813	0.6998
1822	0.6741
1831	0.6718
1840	0.6978
1849	0.6951
1858	0.6907
1867	0.6939
1876	0.6911
1885	0.6911
1894	0.6843
1903	0.6662
1912	0.6537
1921	0.6733
1930	0.6584
1939	0.6693
1948	0.6718
1957	0.6669
1966	0.6584
1975	0.6434
1984	0.6234
1993	0.651
2002	0.6642
2011	0.6547
2020	0.6656
2029	0.6611
2038	0.6565
2047	0.6526
2056	0.6482
2065	0.643
2074	0.6384
2083	0.6342
2092	0.632
2101	0.6235
2110	0.6154
2119	0.6121
2128	0.6102
2137	0.6099
2146	0.6072
2155	0.6033
2164	0.5986
2173	0.5931
2182	0.5872
2191	0.5814
2200	0.5755
2209	0.5681
2218	0.5579
2227	0.5462
2236	0.5448
2245	0.5432
2254	0.5379
2263	0.53
2272	0.522
2281	0.5121
2290	0.5078
2299	0.5125
2308	0.5157
2317	0.5132
2326	0.5071
2335	0.5028
2344	0.5006
2353	0.4967
2362	0.4925
2371	0.4898
2380	0.4888
2389	0.4879
2398	0.4877
2407	0.4865
2416	0.4824
2425	0.4756
2434	0.476
2443	0.477
2452	0.4769
2461	0.4748
2470	0.4714
2479	0.4683
2488	0.4655
2497	0.4626
2506	0.4599
2515	0.4571
2524	0.4544
2533	0.4509
2542	0.4473
2551	0.4438
2560	0.4412
2569	0.4385
2578	0.436
2587	0.4343
2596	0.4322
2605	0.4271
2614	0.422
2623	0.4178
2632	0.414
2641	0.4112
2650	0.4084
2659	0.406
2668	0.4053
2677	0.4059
2686	0.4054
2695	0.4022
2704	0.3964
2713	0.3907
2722	0.3848
2731	0.3809
2740	0.3779
2749	0.3755
2758	0.3732
2767	0.3709
2776	0.3686
2785	0.3659
2794	0.3632
2803	0.3603
2812	0.3566
2821	0.353
2830	0.3489
2839	0.3437
2848	0.3386
2857	0.3336
2866	0.3286
2875	0.3242
2884	0.3195
2893	0.3131
2902	0.3071
2911	0.2961
2920	0.268
2929	0.2118
2938	0.3101
2947	0.3072
2956	0.3026
2965	0.2978
2974	0.2934
2983	0.2877
2992	0.2791
3001	0.253
3010	0.1934
3019	0.2269
3028	0.1999
3037	0.3071
3046	0.3032
3055	0.2887
3064	0.2815
3073	0.2928
3082	0.2812
3091	0.2799
3100	0.2873
3109	0.2868
3118	0.2848
3127	0.2824
3136	0.2802
3145	0.2783
3154	0.2767
3163	0.275
3172	0.2733
3181	0.2713
3190	0.2692
3199	0.267
3208	0.2649
3217	0.2628
3226	0.2607
3235	0.2585
3244	0.2565
3253	0.2545
3262	0.2528
3271	0.2512
3280	0.2495
3289	0.2479
3298	0.2462
3307	0.2445
3316	0.2427
3325	0.2409
3334	0.2391
3343	0.2373
3352	0.2355
3361	0.2337
3370	0.2323
3379	0.2309
3388	0.2295
3397	0.228
3406	0.2267
3415	0.2252
3424	0.2238
3433	0.2224
3442	0.221
3451	0.2196
3460	0.2183
3469	0.2169
3478	0.2155
3487	0.2141
3496	0.2128
3505	0.2114
3514	0.2103
3523	0.2092
3532	0.2081
3541	0.2069
3550	0.2059
3559	0.2046
3568	0.2035
3577	0.2024
3586	0.2012
3595	0.2
3604	0.1989
3613	0.1977
3622	0.1964
3631	0.1949
3640	0.1934
3649	0.1921
3658	0.1907
3667	0.1893
3676	0.1881
3685	0.1869
3694	0.1857
3703	0.1844
3712	0.1835
3721	0.1826
3730	0.1817
3739	0.1803
3748	0.1789
3757	0.1775
3766	0.1761
3775	0.1745
3784	0.1728
3793	0.171
