Infrared Spectrum: BENZIMIDAZOLE, 2-(TRIFLUOROMETHYL)-
Formula: C8 H5 F3 N2
CAS: 312-73-2
State: SOLID (KBr DISC)
Class: COBLENTZ III
Instrument: UNICAM SP-200
Sampling: TRANSMISSION
Resolution: 2
Origin: FISONS LTD., VIA S.D.C. (DR. G. T. NEWBOLD)
1/CM	TRANSMITTANCE
650.103	0.897
661.686	0.883
673.27	0.876
684.853	0.868
696.436	0.853
708.019	0.828
719.603	0.797
731.186	0.733
742.769	0.5281
754.352	0.091
765.936	0.212
777.519	0.7
789.102	0.8399
800.686	0.851
812.269	0.833
823.852	0.782
835.435	0.731
847.019	0.756
858.602	0.727
870.185	0.707
881.768	0.695
893.352	0.698
904.935	0.719
916.518	0.722
928.101	0.715
939.685	0.741
951.268	0.692
962.851	0.709
974.435	0.509
986.018	0.4891
997.601	0.213
1009.18	0.791
1020.77	0.5941
1032.35	0.777
1043.93	0.767
1055.52	0.737
1067.1	0.711
1078.68	0.678
1090.27	0.612
1101.85	0.535
1113.43	0.411
1125.02	0.228
1136.6	0.12
1148.18	0.063
1159.77	0.067
1171.35	0.052
1182.93	0.011
1194.52	0.041
1206.1	0.029
1217.68	0.1779
1229.27	0.399
1240.85	0.155
1252.43	0.5729
1264.02	0.662
1275.6	0.521
1287.18	0.5751
1298.77	0.157
1310.35	0.671
1321.93	0.5241
1333.52	0.161
1345.1	0.389
1356.68	0.726
1368.27	0.838
1379.85	0.823
1391.43	0.719
1403.02	0.6531
1414.6	0.2693
1426.18	0.619
1437.77	0.674
1449.35	0.621
1460.93	0.423
1472.52	0.3291
1484.1	0.4798
1495.68	0.787
1507.26	0.639
1518.85	0.459
1530.43	0.71
1542.01	0.754
1553.6	0.5951
1565.18	0.333
1576.76	0.744
1588.35	0.731
1599.93	0.6391
1611.51	0.7219
1623.1	0.769
1634.68	0.748
1646.26	0.794
1657.85	0.793
1669.43	0.782
1681.01	0.767
1692.6	0.756
1704.18	0.761
1715.76	0.757
1727.35	0.759
1738.93	0.757
1750.51	0.76
1762.1	0.758
1773.68	0.744
1785.26	0.759
1796.85	0.782
1808.43	0.786
1820.01	0.793
1831.6	0.809
1843.18	0.818
1854.76	0.81
1866.35	0.807
1877.93	0.82
1889.51	0.822
1901.1	0.82
1912.68	0.827
1924.26	0.843
1935.85	0.848
1947.43	0.851
1959.01	0.848
1970.6	0.859
1982.18	0.866
1993.76	0.8582
2005.35	0.86
2016.93	0.859
2028.51	0.861
2040.1	0.8613
2051.68	0.862
2063.26	0.861
2074.85	0.8598
2086.43	0.859
2098.01	0.858
2109.59	0.854
2121.18	0.8507
2132.76	0.85
2144.34	0.8482
2155.93	0.84
2167.51	0.84
2179.09	0.839
2190.68	0.8311
2202.26	0.8255
2213.84	0.82
2225.43	0.8184
2237.01	0.8128
2248.59	0.8029
2260.18	0.7905
2271.76	0.7794
2283.34	0.7744
2294.93	0.7691
2306.51	0.7588
2318.09	0.749
2329.68	0.7381
2341.26	0.731
2352.84	0.7273
2364.43	0.7186
2376.01	0.7124
2387.59	0.7056
2399.18	0.701
2410.76	0.6881
2422.34	0.6557
2433.93	0.6212
2445.51	0.5927
2457.09	0.5822
2468.68	0.5612
2480.26	0.5523
2491.84	0.5434
2503.43	0.5282
2515.01	0.5088
2526.59	0.4889
2538.18	0.4694
2549.76	0.4458
2561.34	0.4207
2572.93	0.3979
2584.51	0.3796
2596.09	0.3716
2607.68	0.369
2619.26	0.3653
2630.84	0.3519
2642.43	0.331
2654.01	0.3018
2665.59	0.2786
2677.18	0.2694
2688.76	0.2699
2700.34	0.2814
2711.93	0.2985
2723.51	0.2963
2735.09	0.28
2746.67	0.2704
2758.26	0.2674
2769.84	0.251
2781.42	0.2406
2793.01	0.231
2804.59	0.2531
2816.17	0.2957
2827.76	0.3208
2839.34	0.3185
2850.92	0.3092
2862.51	0.2985
2874.09	0.2855
2885.67	0.2784
2897.26	0.2672
2908.84	0.2664
2920.42	0.2799
2932.01	0.2898
2943.59	0.291
2955.17	0.309
2966.76	0.3496
2978.34	0.3503
2989.92	0.3308
3001.51	0.3037
3013.09	0.3024
3024.67	0.3198
3036.26	0.3335
3047.84	0.335
3059.42	0.3334
3071.01	0.331
3082.59	0.3269
3094.17	0.3266
3105.76	0.3473
3117.34	0.3666
3128.92	0.3824
3140.51	0.403
3152.09	0.4444
3163.67	0.4772
3175.26	0.499
3186.84	0.5212
3198.42	0.5604
3210.01	0.5893
3221.59	0.6063
3233.17	0.6349
3244.76	0.6621
3256.34	0.6857
3267.92	0.7041
3279.51	0.7212
3291.09	0.7305
3302.67	0.7439
3314.26	0.7576
3325.84	0.7624
3337.42	0.774
3349	0.7785
3360.59	0.7851
3372.17	0.792
3383.75	0.7976
3395.34	0.798
3406.92	0.7948
3418.5	0.7926
3430.09	0.791
3441.67	0.791
3453.25	0.791
3464.84	0.791
3476.42	0.791
3488	0.793
3499.59	0.7934
3511.17	0.7967
3522.75	0.7989
3534.34	0.8022
3545.92	0.8065
3557.5	0.8125
3569.09	0.8171
3580.67	0.8203
3592.25	0.829
3603.84	0.832
3615.42	0.8382
3627	0.8399
3638.59	0.8447
3650.17	0.848
3661.75	0.85
3673.34	0.8526
3684.92	0.858
3696.5	0.8612
3708.09	0.8664
3719.67	0.868
3731.25	0.868
3742.84	0.868
3754.42	0.868
3766	0.868
3777.59	0.869
3789.17	0.869
3800.75	0.869
3812.34	0.869
3823.92	0.869
3835.5	0.869
3847.09	0.867
3858.67	0.864
3870.25	0.861
3881.84	0.861
3893.42	0.861
3905	0.8651
3916.59	0.869
3928.17	0.8653
3939.75	0.8631
3951.33	0.861
3962.92	0.8605
3974.5	0.8582
3986.08	0.858
3997.67	0.8573
4009.25	0.8511
4020.83	0.85
4032.42	0.8512
4044	0.852
4055.58	0.851
4067.17	0.85
4078.75	0.8497
4090.33	0.8484
4101.92	0.8488
4113.5	0.849
4125.08	0.85
4136.67	0.85
4148.25	0.851
4159.83	0.852
4171.42	0.8515
4183	0.85
4194.58	0.847
4206.17	0.8447
4217.75	0.843
4229.33	0.842
4240.92	0.841
4252.5	0.841
4264.08	0.842
4275.67	0.843
4287.25	0.843
4298.83	0.844
4310.42	0.844
4322	0.843
4333.58	0.8408
4345.17	0.838
4356.75	0.838
4368.33	0.839
4379.92	0.838
4391.5	0.8362
4403.08	0.8339
4414.67	0.832
4426.25	0.832
4437.83	0.832
4449.42	0.832
4461	0.8295
4472.58	0.828
4484.17	0.823
4495.75	0.8207
4507.33	0.819
4518.92	0.819
4530.5	0.8191
4542.08	0.82
4553.66	0.82
4565.25	0.822
4576.83	0.824
4588.41	0.826
4600	0.827
4611.58	0.8259
4623.16	0.822
4634.75	0.821
4646.33	0.82
4657.91	0.82
4669.5	0.8185
4681.08	0.817
4692.66	0.817
4704.25	0.817
4715.83	0.817
4727.41	0.8151
4739	0.814
4750.58	0.811
4762.16	0.8093
4773.75	0.809
4785.33	0.8068
4796.91	0.805
4808.5	0.805
4820.08	0.808
4831.66	0.808
4843.25	0.808
4854.83	0.808
4866.41	0.8068
4878	0.805
4889.58	0.8043
4901.16	0.802
4912.75	0.802
4924.33	0.802
4935.91	0.802
4947.5	0.802
4959.08	0.802
4970.66	0.8013
4982.25	0.801
