Infrared Spectrum: Alpha,Alpha,Alpha-Trifluoro-o-toluoyl chloride
Formula: C8 H4 Cl F3 O
CAS: 312-94-7
State: SOLUTION (10% CCl4 FOR 3800-1330, 10% CS2 FOR 1330-400 CM^-^1)
Class: COBLENTZ III
Instrument: BECKMAN IR-9 (GRATING)
Instrument parameters: ORDER CHANGES: 670, 1200, 2000 CM^-^1
Sampling: TRANSMISSION
Path length: 0.011 CM, 0.011 CM
Resolution: 2
Origin: DOW CHEMICAL COMPANY
1/CM	TRANSMITTANCE
3800	0.889
3791	0.8908
3782	0.8903
3773	0.892
3764	0.892
3755	0.892
3746	0.892
3737	0.8932
3728	0.893
3719	0.8914
3710	0.8928
3701	0.8936
3692	0.8924
3683	0.8927
3674	0.8969
3665	0.9001
3656	0.8957
3647	0.8951
3638	0.8943
3629	0.8914
3620	0.8915
3611	0.8909
3602	0.8813
3593	0.8723
3584	0.8693
3575	0.8707
3566	0.8723
3557	0.871
3548	0.8661
3539	0.8586
3530	0.865
3521	0.8756
3512	0.8818
3503	0.8854
3494	0.8876
3485	0.8891
3476	0.8897
3467	0.8898
3458	0.8891
3449	0.8884
3440	0.8879
3431	0.8876
3422	0.8872
3413	0.8868
3404	0.8865
3395	0.8869
3386	0.8883
3377	0.8898
3368	0.8918
3359	0.8939
3350	0.8964
3341	0.8981
3332	0.8984
3323	0.8975
3314	0.8985
3305	0.9032
3296	0.9038
3287	0.9034
3278	0.9036
3269	0.9022
3260	0.9007
3251	0.899
3242	0.8974
3233	0.8957
3224	0.8941
3215	0.8921
3206	0.889
3197	0.8891
3188	0.8891
3179	0.8876
3170	0.8866
3161	0.8865
3152	0.886
3143	0.8828
3134	0.8822
3125	0.8799
3116	0.877
3107	0.8724
3098	0.8617
3089	0.8367
3080	0.8251
3071	0.8372
3062	0.8485
3053	0.8609
3044	0.8748
3035	0.8855
3026	0.8804
3017	0.8775
3008	0.8777
2999	0.8797
2990	0.883
2981	0.8845
2972	0.8868
2963	0.8884
2954	0.8876
2945	0.8852
2936	0.8843
2927	0.8804
2918	0.8764
2909	0.8813
2900	0.8862
2891	0.8882
2882	0.8903
2873	0.8922
2864	0.8936
2855	0.8947
2846	0.8957
2837	0.8966
2828	0.8964
2819	0.8975
2810	0.8961
2801	0.8971
2792	0.897
2783	0.8972
2774	0.8989
2765	0.9041
2756	0.9089
2747	0.9114
2738	0.9127
2729	0.9133
2720	0.9128
2711	0.9092
2702	0.9043
2693	0.9006
2684	0.8996
2675	0.8997
2666	0.8997
2657	0.9008
2648	0.8998
2639	0.8981
2630	0.9002
2621	0.9033
2612	0.9055
2603	0.9076
2594	0.9094
2585	0.9101
2576	0.9108
2567	0.9114
2558	0.9123
2549	0.9132
2540	0.914
2531	0.9144
2522	0.9146
2513	0.9145
2504	0.9141
2495	0.9119
2486	0.9122
2477	0.9145
2468	0.9164
2459	0.9181
2450	0.9192
2441	0.9224
2432	0.9223
2423	0.9199
2414	0.9173
2405	0.9174
2396	0.9168
2387	0.9169
2378	0.9188
2369	0.9162
2360	0.9104
2351	0.9106
2342	0.9101
2333	0.9091
2324	0.9113
2315	0.9097
2306	0.9095
2297	0.9106
2288	0.9096
2279	0.9087
2270	0.9062
2261	0.9083
2252	0.9118
2243	0.9121
2234	0.9131
2225	0.9141
2216	0.9139
2207	0.915
2198	0.9161
2189	0.9167
2180	0.9207
2171	0.9278
2162	0.9277
2153	0.9275
2144	0.9274
2135	0.9274
2126	0.9282
2117	0.9277
2108	0.9244
2099	0.9166
2090	0.9107
2081	0.906
2072	0.9014
2063	0.9068
2054	0.9137
2045	0.9136
2036	0.9145
2027	0.9156
2018	0.9158
2009	0.9146
2000	0.9002
1991	0.8833
1982	0.8823
1973	0.893
1964	0.8829
1955	0.8517
1946	0.871
1937	0.8739
1928	0.8713
1919	0.8815
1910	0.8858
1901	0.8883
1892	0.8865
1883	0.8634
1874	0.8577
1865	0.8413
1856	0.8103
1847	0.7646
1838	0.7219
1829	0.6225
1820	0.469
1811	0.2967
1802	0.0042
1793	0.0093
1784	0.1622
1775	0.3741
1766	0.4582
1757	0.4659
1748	0.472
1739	0.458
1730	0.5913
1721	0.6621
1712	0.7038
1703	0.7931
1694	0.8382
1685	0.8629
1676	0.8704
1667	0.859
1658	0.8399
1649	0.8392
1640	0.8421
1631	0.8581
1622	0.8518
1613	0.8123
1604	0.6343
1595	0.7266
1586	0.497
1577	0.7186
1568	0.7156
1559	0.6804
1550	0.7351
1541	0.8196
1532	0.8033
1523	0.8171
1514	0.8435
1505	0.8452
1496	0.8018
1487	0.8626
1478	0.8841
1469	0.8737
1460	0.8347
1451	0.494
1442	0.8036
1433	0.8713
1424	0.8618
1415	0.8381
1406	0.8468
1397	0.8648
1388	0.8647
1379	0.8559
1370	0.833
1361	0.8029
1352	0.7658
1343	0.7363
1334	0.5764
1325	0.2822
1316	0
1307	0.1038
1298	0.3062
1289	0.432
1280	0.0685
1271	0.2663
1262	0.7389
1253	0.8344
1244	0.8408
1235	0.804
1226	0.738
1217	0.6085
1208	0.3807
1199	0.1493
1190	0.1919
1181	0.011
1172	0
1163	0
1154	0.0001
1145	0.0244
1136	0.1873
1127	0.253
1118	0.2544
1109	0.6357
1100	0.7882
1091	0.8196
1082	0.7638
1073	0.6443
1064	0.1331
1055	0.5279
1046	0.3832
1037	0.3065
1028	0.7562
1019	0.8149
1010	0.821
1001	0.7942
992	0.744
983	0.7893
974	0.8263
965	0.7989
956	0.836
947	0.858
938	0.8234
929	0.7639
920	0.6984
911	0.6718
902	0.6488
893	0.469
884	0.1522
875	0.0505
866	0.0212
857	0.5441
848	0.7131
839	0.8355
830	0.8861
821	0.8916
812	0.8828
803	0.8696
794	0.8081
785	0.6428
776	0.1743
767	0.0187
758	0.6244
749	0.8355
740	0.8623
731	0.8595
722	0.8515
713	0.8342
704	0.782
695	0.6451
686	0.1862
677	0.349
668	0.3583
659	0.2439
650	0.4751
641	0.0682
632	0.8093
623	0.8712
614	0.9074
605	0.8979
596	0.6969
587	0.8967
578	0.8626
569	0.9221
560	0.9232
551	0.8819
542	0.8438
533	0.9077
524	0.9111
515	0.9032
506	0.8787
497	0.819
488	0.7832
479	0.786
470	0.6537
461	0.4578
452	0.5337
443	0.6439
434	0.5964
425	0.5198
416	0.2627
407	0.1758
