Infrared Spectrum: Naphthalene, octafluoro-
Formula: C10 F8
CAS: 313-72-4
State: SOLUTION (10% CCl4 FOR 3800-1330, 10% CS2 FOR 1330-400 CM^-^1)
Class: COBLENTZ III
Instrument: BECKMAN IR-9 (GRATING)
Instrument parameters: ORDER CHANGES: 670, 1200, 2000 CM^-^1
Sampling: TRANSMISSION
Path length: 0.010 CM, 0.010 CM, 0.010 CM, 0.010 CM
Resolution: 2
Origin: DOW CHEMICAL COMPANY
1/CM	TRANSMITTANCE
402	0.881
411	0.8821
420	0.8837
429	0.8802
438	0.8678
447	0.8566
456	0.85
465	0.8467
474	0.8455
483	0.8345
492	0.8258
501	0.8274
510	0.8305
519	0.8318
528	0.8249
537	0.8289
546	0.8428
555	0.8481
564	0.8533
573	0.8581
582	0.862
591	0.8629
600	0.8608
609	0.8701
618	0.8724
627	0.878
636	0.8769
645	0.8746
654	0.8733
663	0.8719
672	0.8169
681	0.8539
690	0.8522
699	0.8454
708	0.8347
717	0.8482
726	0.8523
735	0.8612
744	0.8529
753	0.8245
762	0.836
771	0.7881
780	0.0354
789	0.1583
798	0.0953
807	0.7527
816	0.8191
825	0.8419
834	0.8525
843	0.8527
852	0.8037
861	0.8664
870	0.8611
879	0.8775
888	0.8793
897	0.8752
906	0.8653
915	0.862
924	0.7576
933	0.791
942	0.6232
951	0.0055
960	0.5547
969	0.7059
978	0.8152
987	0.8368
996	0.8255
1005	0.8325
1014	0.8245
1023	0.7822
1032	0.8304
1041	0.7488
1050	0.8133
1059	0.8276
1068	0.8248
1077	0.8394
1086	0.8474
1095	0.849
1104	0.8477
1113	0.8214
1122	0.394
1131	0.4768
1140	0.7337
1149	0.7639
1158	0.7375
1167	0.7851
1176	0.7829
1185	0.7362
1194	0.2868
1203	0.0204
1212	0.7452
1221	0.8343
1230	0.8433
1239	0.8252
1248	0.7881
1257	0.7792
1266	0.8158
1275	0.8286
1284	0.7163
1293	0.8489
1302	0.8606
1311	0.8591
1320	0.8077
1329	0.7236
1338	0.8062
1347	0.81
1356	0.8261
1365	0.8128
1374	0.8077
1383	0.7543
1392	0.7048
1401	0.6053
1410	0.0984
1419	0.0033
1428	0.3096
1437	0.452
1446	0.7251
1455	0.6364
1464	0.2913
1473	0.0081
1482	0.0009
1491	0.3142
1500	0.6277
1509	0.5317
1518	0.2424
1527	0.3082
1536	0.5392
1545	0.4752
1554	0.5791
1563	0.7232
1572	0.7326
1581	0.6578
1590	0.7628
1599	0.8031
1608	0.8135
1617	0.8105
1626	0.8032
1635	0.7762
1644	0.5414
1653	0.1753
1662	0.0023
1671	0.6229
1680	0.7122
1689	0.7081
1698	0.746
1707	0.7302
1716	0.797
1725	0.8203
1734	0.8322
1743	0.8517
1752	0.8515
1761	0.846
1770	0.8454
1779	0.8494
1788	0.8511
1797	0.8514
1806	0.8405
1815	0.8221
1824	0.8389
1833	0.8403
1842	0.8444
1851	0.8396
1860	0.8373
1869	0.8303
1878	0.8363
1887	0.85
1896	0.8524
1905	0.8513
1914	0.8487
1923	0.8405
1932	0.8526
1941	0.8489
1950	0.8442
1959	0.8457
1968	0.849
1977	0.8492
1986	0.8378
1995	0.8353
2004	0.8399
2013	0.8549
2022	0.8583
2031	0.8581
2040	0.8546
2049	0.8514
2058	0.8496
2067	0.8552
2076	0.8606
2085	0.8614
2094	0.8621
2103	0.8621
2112	0.8617
2121	0.8614
2130	0.8611
2139	0.8601
2148	0.8585
2157	0.8558
2166	0.8507
2175	0.8472
2184	0.8468
2193	0.7982
2202	0.8351
2211	0.8489
2220	0.8527
2229	0.8503
2238	0.8366
2247	0.8223
2256	0.8508
2265	0.8518
2274	0.8481
2283	0.8423
2292	0.8358
2301	0.8355
2310	0.8397
2319	0.8441
2328	0.8468
2337	0.8492
2346	0.8514
2355	0.8533
2364	0.8546
2373	0.8551
2382	0.8539
2391	0.8474
2400	0.8264
2409	0.8205
2418	0.8487
2427	0.8519
2436	0.8523
2445	0.851
2454	0.8493
2463	0.8456
2472	0.8361
2481	0.8233
2490	0.8355
2499	0.8411
2508	0.844
2517	0.8209
2526	0.8325
2535	0.8389
2544	0.8389
2553	0.843
2562	0.842
2571	0.8398
2580	0.84
2589	0.8436
2598	0.8449
2607	0.8385
2616	0.8291
2625	0.8386
2634	0.8324
2643	0.8304
2652	0.8304
2661	0.835
2670	0.8435
2679	0.8404
2688	0.827
2697	0.8281
2706	0.8217
2715	0.8343
2724	0.8463
2733	0.8516
2742	0.8533
2751	0.8536
2760	0.8539
2769	0.854
2778	0.8543
2787	0.8548
2796	0.8565
2805	0.8605
2814	0.8603
2823	0.8588
2832	0.8593
2841	0.8649
2850	0.8674
2859	0.8648
2868	0.8604
2877	0.8602
2886	0.8654
2895	0.8671
2904	0.8643
2913	0.8625
2922	0.8637
2931	0.8641
2940	0.863
2949	0.8643
2958	0.8622
2967	0.8521
2976	0.8468
2985	0.8334
2994	0.8322
3003	0.8507
3012	0.8537
3021	0.8524
3030	0.8498
3039	0.8457
3048	0.8474
3057	0.8518
3066	0.8559
3075	0.8594
3084	0.8609
3093	0.8607
3102	0.8607
3111	0.8608
3120	0.8611
3129	0.8613
3138	0.8618
3147	0.8622
3156	0.8628
3165	0.863
3174	0.8633
3183	0.8635
3192	0.8637
3201	0.8638
3210	0.8639
3219	0.8639
3228	0.8637
3237	0.8634
3246	0.8632
3255	0.8629
3264	0.8626
3273	0.862
3282	0.8609
3291	0.8598
3300	0.8587
3309	0.8575
3318	0.8558
3327	0.8541
3336	0.8528
3345	0.8518
3354	0.8511
3363	0.8504
3372	0.8498
3381	0.8491
3390	0.8485
3399	0.8479
3408	0.8478
3417	0.8478
3426	0.8479
3435	0.848
3444	0.848
3453	0.8481
3462	0.8482
3471	0.8484
3480	0.8486
3489	0.8488
3498	0.849
3507	0.8492
3516	0.8494
3525	0.8496
3534	0.8499
3543	0.8501
3552	0.8504
3561	0.8506
3570	0.8509
3579	0.8511
3588	0.8514
3597	0.8513
3606	0.8513
3615	0.8512
3624	0.8511
3633	0.8511
3642	0.851
3651	0.851
3660	0.8511
3669	0.8511
3678	0.8512
3687	0.8513
3696	0.8513
3705	0.8515
3714	0.8517
3723	0.8519
3732	0.8521
3741	0.8523
3750	0.8525
3759	0.8524
3768	0.8524
3777	0.8524
3786	0.852
3795	0.8516
