Infrared Spectrum: BENZALDEHYDE, 3-BROMO-
Formula: C7 H5 Br O
CAS: 3132-99-8
State: SOLUTION (10% IN CCl4 FOR 3800-1333, 10% IN CS2 FOR 1333-450 CM^-^1)
Class: COBLENTZ III
Instrument: DOW KBr FOREPRISM-GRATING
Instrument parameters: BLAZED AT 3.5, 12.0, 20.0 MICRON, CHANGED AT 5.0, 7.5, 14.9 MICRON
Sampling: TRANSMISSION
Path length: 0.011, 0.011 CM
Resolution: 4
Origin: DOW CHEMICAL COMPANY
1/CM	TRANSMITTANCE
450.117	1.025
458.868	1.025
467.62	1.028
476.371	1.028
485.123	1.038
493.874	1.042
502.626	1.045
511.377	1.046
520.129	1.051
528.88	1.056
537.632	1.057
546.383	1.061
555.134	1.062
563.886	1.062
572.637	1.062
581.389	1.061
590.14	1.051
598.892	1.047
607.643	1.034
616.395	1.013
625.146	0.983
633.898	0.935
642.649	0.751
651.4	0.874
660.152	0.868
668.903	0.353
677.655	0.045
686.406	0.745
695.158	0.806
703.909	0.568
712.661	0.7481
721.412	0.938
730.164	0.949
738.915	0.95
747.666	0.924
756.418	0.924
765.169	0.898
773.921	0.745
782.672	0.157
791.424	0.565
800.175	0.881
808.927	0.942
817.678	0.957
826.43	0.943
835.181	0.912
843.932	0.748
852.684	0.525
861.435	0.718
870.187	0.734
878.938	0.501
887.69	0.792
896.441	0.674
905.193	0.933
913.944	0.961
922.696	0.976
931.447	0.99
940.198	1.001
948.95	1.001
957.701	1.004
966.453	0.994
975.204	0.98
983.956	0.969
992.707	0.912
1001.46	0.811
1010.21	0.916
1018.96	0.983
1027.71	0.983
1036.46	0.987
1045.22	0.978
1053.97	0.949
1062.72	0.58
1071.47	0.901
1080.22	0.945
1088.97	0.83
1097.72	0.976
1106.48	0.976
1115.23	0.986
1123.98	0.995
1132.73	0.987
1141.48	0.961
1150.23	0.913
1158.98	0.702
1167.74	0.786
1176.49	0.728
1185.24	0.183
1193.99	0.015
1202.74	0.534
1211.49	0.553
1220.24	0.881
1229	0.948
1237.75	0.953
1246.5	0.95
1255.25	0.957
1264	0.916
1272.75	0.81
1281.51	0.77
1290.26	0.826
1299.01	0.867
1307.76	0.878
1316.51	0.976
1325.26	0.983
1334.01	0.976
1342.77	0.96
1351.52	0.975
1360.27	0.971
1369.02	0.939
1377.77	0.454
1386.52	0.454
1395.27	0.904
1404.03	0.903
1412.78	0.893
1421.53	0.795
1430.28	0.612
1439.03	0.6681
1447.78	0.943
1456.53	0.918
1465.29	0.75
1474.04	0.707
1482.79	0.863
1491.54	0.887
1500.29	0.864
1509.04	0.83
1517.79	0.774
1526.55	0.724
1535.3	0.651
1544.05	0.538
1552.8	0.467
1561.55	0.461
1570.3	0.252
1579.05	0.258
1587.81	0.519
1596.56	0.584
1605.31	0.814
1614.06	0.889
1622.81	0.939
1631.56	0.952
1640.31	0.961
1649.07	0.975
1657.82	0.946
1666.57	0.874
1675.32	0.84
1684.07	0.737
1692.82	0.286
1701.57	0.049
1710.33	0.008
1719.08	0.031
1727.83	0.467
1736.58	0.765
1745.33	0.827
1754.08	0.833
1762.84	0.83
1771.59	0.948
1780.34	0.961
1789.09	0.949
1797.84	0.96
1806.59	0.964
1815.34	0.954
1824.1	0.959
1832.85	0.95
1841.6	0.967
1850.35	0.968
1859.1	0.969
1867.85	0.967
1876.6	0.961
1885.36	0.946
1894.11	0.963
1902.86	0.965
1911.61	0.986
1920.36	0.99
1929.11	0.993
1937.86	0.99
1946.62	0.971
1955.37	0.971
1964.12	0.98
1972.87	0.989
1981.62	0.994
1990.37	1
1999.12	1.006
2007.88	1.009
2016.63	1.012
2025.38	1.0155
2034.13	1.018
2042.88	1.022
2051.63	1.024
2060.38	1.025
2069.14	1.028
2077.89	1.031
2086.64	1.0355
2095.39	1.0369
2104.14	1.038
2112.89	1.038
2121.64	1.0356
2130.4	1.035
2139.15	1.034
2147.9	1.031
2156.65	1.0304
2165.4	1.0314
2174.15	1.0344
2182.9	1.035
2191.66	1.036
2200.41	1.035
2209.16	1.034
2217.91	1.032
2226.66	1.031
2235.41	1.0292
2244.17	1.027
2252.92	1.023
2261.67	1.0189
2270.42	1.013
2279.17	1.012
2287.92	1.009
2296.67	1.009
2305.43	1.01
2314.18	1.013
2322.93	1.016
2331.68	1.017
2340.43	1.019
2349.18	1.02
2357.93	1.025
2366.69	1.03
2375.44	1.0184
2384.19	1.0136
2392.94	1.021
2401.69	1.024
2410.44	1.0247
2419.19	1.023
2427.95	1.023
2436.7	1.023
2445.45	1.0225
2454.2	1.023
2462.95	1.0185
2471.7	1.0197
2480.45	1.0193
2489.21	1.021
2497.96	1.023
2506.71	1.023
2515.46	1.021
2524.21	1.0168
2532.96	1.012
2541.71	1.015
2550.47	1.015
2559.22	1.0128
2567.97	1.004
2576.72	1.0012
2585.47	1.0024
2594.22	1.0036
2602.97	1.0024
2611.73	1.006
2620.48	1.008
2629.23	1.008
2637.98	1.0058
2646.73	0.9927
2655.48	0.9942
2664.23	0.9983
2672.99	0.9997
2681.74	0.9925
2690.49	0.9815
2699.24	0.9551
2707.99	0.8942
2716.74	0.7644
2725.49	0.6174
2734.25	0.6171
2743	0.8608
2751.75	0.9548
2760.5	0.9648
2769.25	0.9325
2778	0.8248
2786.76	0.7824
2795.51	0.7961
2804.26	0.6944
2813.01	0.7432
2821.76	0.594
2830.51	0.5511
2839.26	0.6498
2848.02	0.7981
2856.77	0.8684
2865.52	0.9244
2874.27	0.9502
2883.02	0.9671
2891.77	0.9783
2900.52	0.99
2909.28	0.9971
2918.03	1.002
2926.78	1
2935.53	0.994
2944.28	0.991
2953.03	0.993
2961.78	0.991
2970.54	0.986
2979.29	0.983
2988.04	0.984
2996.79	0.98
3005.54	0.976
3014.29	0.972
3023.04	0.967
3031.8	0.964
3040.55	0.957
3049.3	0.9521
3058.05	0.9114
3066.8	0.8519
3075.55	0.8589
3084.3	0.915
3093.06	0.9117
3101.81	0.9596
3110.56	0.975
3119.31	0.979
3128.06	0.9859
3136.81	0.983
3145.56	0.982
3154.32	0.9858
3163.07	0.986
3171.82	0.9869
3180.57	0.993
3189.32	0.993
3198.07	0.9949
3206.82	0.997
3215.58	0.997
3224.33	1
3233.08	0.9952
3241.83	1.001
3250.58	0.995
3259.33	1.001
3268.09	1.0019
3276.84	1
3285.59	1.0002
3294.34	0.9997
3303.09	1.001
3311.84	1.001
3320.59	1.001
3329.35	1.001
3338.1	1.001
3346.85	0.998
3355.6	0.9978
3364.35	1
3373.1	0.9902
3381.85	0.9768
3390.61	0.9468
3399.36	0.9262
3408.11	0.9488
3416.86	0.9898
3425.61	0.998
3434.36	0.997
3443.11	0.998
3451.87	0.9972
3460.62	0.997
3469.37	1.001
3478.12	0.998
3486.87	0.998
3495.62	0.998
3504.37	0.997
3513.13	0.9943
3521.88	0.993
3530.63	0.993
3539.38	0.994
3548.13	0.993
3556.88	0.9921
3565.63	0.998
3574.39	0.9933
3583.14	0.9964
3591.89	0.9986
3600.64	0.995
3609.39	0.9994
3618.14	0.994
3626.89	1.0003
3635.65	0.995
3644.4	1.002
3653.15	0.9933
3661.9	0.9947
3670.65	0.998
3679.4	0.9893
3688.15	0.9903
3696.91	0.9906
3705.66	0.9936
3714.41	0.995
3723.16	1.0006
3731.91	1.005
3740.66	1.002
3749.42	1
3758.17	0.998
3766.92	0.997
3775.67	0.998
