Infrared Spectrum: BIPHENYL, 2-FLUORO-
Formula: C12 H9 F
CAS: 321-60-8
State: SOLUTION (10% CCl4 FOR 3800-1330, 10% CS2 FOR 1330-440 CM^-^1)
Class: COBLENTZ III
Instrument: DOW KBr FOREPRISM-GRATING
Instrument parameters: BLAZED AT 3.5, 12.0, 20.0 MICRON AND CHANGED AT 5.0, 7.5, 14.9 MICRON
Sampling: TRANSMISSION
Path length: 0.011 CM, 0.011 CM
Resolution: 2
Origin: DOW CHEMICAL COMPANY
1/CM	TRANSMITTANCE
440	0.9223
449	0.9087
458	0.8921
467	0.8673
476	0.8306
485	0.659
494	0.8745
503	0.8447
512	0.7725
521	0.8846
530	0.8917
539	0.8831
548	0.7786
557	0.7258
566	0.628
575	0.8832
584	0.894
593	0.8843
602	0.86
611	0.5077
620	0.8525
629	0.8692
638	0.855
647	0.826
656	0.8198
665	0.7838
674	0.7951
683	0.7695
692	0.4632
701	0.151
710	0.6604
719	0.0993
728	0.5026
737	0.6639
746	0.4824
755	0.0095
764	0.4333
773	0.3912
782	0.775
791	0.8096
800	0.8118
809	0.7933
818	0.6914
827	0.1791
836	0.7492
845	0.7174
854	0.6449
863	0.6845
872	0.7397
881	0.778
890	0.8217
899	0.8339
908	0.8025
917	0.793
926	0.8295
935	0.7572
944	0.8208
953	0.8388
962	0.8239
971	0.818
980	0.8241
989	0.8122
998	0.8241
1007	0.7334
1016	0.8308
1025	0.8288
1034	0.7936
1043	0.5433
1052	0.8265
1061	0.8274
1070	0.7276
1079	0.8221
1088	0.8347
1097	0.7776
1106	0.5122
1115	0.7903
1124	0.8492
1133	0.8459
1142	0.8278
1151	0.7631
1160	0.7911
1169	0.8055
1178	0.7688
1187	0.7642
1196	0.7434
1205	0.4278
1214	0.3046
1223	0.3805
1232	0.7062
1241	0.6285
1250	0.2441
1259	0.6826
1268	0.753
1277	0.7272
1286	0.7958
1295	0.7728
1304	0.823
1313	0.8325
1322	0.8371
1331	0.8128
1340	0.8233
1349	0.8525
1358	0.8689
1367	0.8718
1376	0.8637
1385	0.8512
1394	0.865
1403	0.8425
1412	0.793
1421	0.7518
1430	0.7086
1439	0.1041
1448	0.756
1457	0.6728
1466	0.6862
1475	0.2911
1484	0.0202
1493	0.5351
1502	0.4997
1511	0.5124
1520	0.5946
1529	0.5682
1538	0.5034
1547	0.441
1556	0.4724
1565	0.5131
1574	0.5201
1583	0.4312
1592	0.4816
1601	0.5962
1610	0.6968
1619	0.6962
1628	0.7921
1637	0.8403
1646	0.8705
1655	0.8665
1664	0.8565
1673	0.861
1682	0.8416
1691	0.8188
1700	0.859
1709	0.8571
1718	0.8603
1727	0.8586
1736	0.8601
1745	0.8536
1754	0.8289
1763	0.8528
1772	0.8568
1781	0.8534
1790	0.8414
1799	0.7741
1808	0.7939
1817	0.8445
1826	0.8267
1835	0.8351
1844	0.858
1853	0.8593
1862	0.8542
1871	0.8508
1880	0.7688
1889	0.8324
1898	0.813
1907	0.8108
1916	0.7865
1925	0.8567
1934	0.8389
1943	0.8004
1952	0.7617
1961	0.8621
1970	0.8399
1979	0.8625
1988	0.8642
1997	0.9084
2006	0.9059
2015	0.9037
2024	0.9007
2033	0.898
2042	0.8983
2051	0.8981
2060	0.8974
2069	0.8914
2078	0.8912
2087	0.8988
2096	0.899
2105	0.9011
2114	0.9036
2123	0.9034
2132	0.902
2141	0.9004
2150	0.8991
2159	0.898
2168	0.8968
2177	0.8956
2186	0.8945
2195	0.8937
2204	0.8925
2213	0.8907
2222	0.8893
2231	0.8881
2240	0.887
2249	0.8833
2258	0.8739
2267	0.8724
2276	0.8712
2285	0.8668
2294	0.8625
2303	0.8609
2312	0.8634
2321	0.8742
2330	0.8827
2339	0.8828
2348	0.8947
2357	0.8971
2366	0.8897
2375	0.8814
2384	0.8828
2393	0.8832
2402	0.8818
2411	0.8793
2420	0.8763
2429	0.8741
2438	0.8754
2447	0.8816
2456	0.8821
2465	0.8814
2474	0.8838
2483	0.8843
2492	0.8837
2501	0.8833
2510	0.8825
2519	0.8839
2528	0.8846
2537	0.8821
2546	0.883
2555	0.8832
2564	0.8806
2573	0.8786
2582	0.8762
2591	0.8789
2600	0.8809
2609	0.8809
2618	0.8812
2627	0.8838
2636	0.8862
2645	0.887
2654	0.8874
2663	0.8875
2672	0.8877
2681	0.8878
2690	0.8882
2699	0.8884
2708	0.8885
2717	0.8882
2726	0.888
2735	0.8878
2744	0.8873
2753	0.8868
2762	0.8863
2771	0.8862
2780	0.8863
2789	0.8864
2798	0.8864
2807	0.8861
2816	0.8859
2825	0.8839
2834	0.8821
2843	0.8683
2852	0.8724
2861	0.8789
2870	0.879
2879	0.876
2888	0.8714
2897	0.87
2906	0.8617
2915	0.8553
2924	0.8636
2933	0.8689
2942	0.8789
2951	0.8796
2960	0.8765
2969	0.8766
2978	0.8692
2987	0.8583
2996	0.8458
3005	0.8217
3014	0.7878
3023	0.6571
3032	0.5462
3041	0.5789
3050	0.6284
3059	0.5476
3068	0.4947
3077	0.6308
3086	0.6092
3095	0.7893
3104	0.8209
3113	0.8374
3122	0.8625
3131	0.876
3140	0.8789
3149	0.878
3158	0.8797
3167	0.8884
3176	0.8892
3185	0.8903
3194	0.8917
3203	0.8924
3212	0.8928
3221	0.8931
3230	0.8925
3239	0.8918
3248	0.8921
3257	0.8925
3266	0.8931
3275	0.8937
3284	0.8942
3293	0.8945
3302	0.8949
3311	0.8952
3320	0.8954
3329	0.8952
3338	0.8948
3347	0.8943
3356	0.8938
3365	0.8933
3374	0.8925
3383	0.8917
3392	0.8909
3401	0.8901
3410	0.8892
3419	0.8884
3428	0.8875
3437	0.8866
3446	0.886
3455	0.8856
3464	0.8852
3473	0.8848
3482	0.8846
3491	0.8845
3500	0.8843
3509	0.8845
3518	0.8852
3527	0.8858
3536	0.8799
3545	0.8693
3554	0.8582
3563	0.8636
3572	0.8685
3581	0.8695
3590	0.8825
3599	0.8795
3608	0.8815
3617	0.8832
3626	0.8821
3635	0.8841
3644	0.8852
3653	0.8832
3662	0.8867
3671	0.8854
3680	0.8878
3689	0.8847
3698	0.8828
3707	0.8846
3716	0.8875
3725	0.8893
3734	0.8904
3743	0.8892
3752	0.8875
3761	0.8854
3770	0.8841
3779	0.8851
3788	0.8857
3797	0.8845
