Infrared Spectrum: 5-CHLOROSALICYLIC ACID
Formula: C7 H5 Cl O3
CAS: 321-14-2
State: SOLID (MINERAL OIL MULL)
Class: COBLENTZ
Instrument: Not specified, most likely a prism, grating, or hybrid spectrometer.
Sampling: TRANSMISSION
Resolution: 4
Origin: DOW CHEMICAL COMPANY
MICROMETERS	TRANSMITTANCE
2.041	0.533
2.08014	0.546
2.11928	0.557
2.15842	0.567
2.19755	0.576
2.23669	0.581
2.27583	0.588
2.31497	0.596
2.35411	0.602
2.39325	0.612
2.43239	0.621
2.47153	0.626
2.51066	0.628
2.5498	0.63
2.58894	0.639
2.62808	0.675
2.66722	0.675
2.70636	0.707
2.7455	0.717
2.78464	0.728
2.82377	0.738
2.86291	0.754
2.90205	0.756
2.94119	0.733
2.98033	0.659
3.01947	0.537
3.05861	0.429
3.09774	0.289
3.13688	0.268
3.17602	0.245
3.21516	0.232
3.2543	0.226
3.29344	0.232
3.33258	0.242
3.37172	0.179
3.41085	0.103
3.44999	0.143
3.48913	0.174
3.52827	0.289
3.56741	0.387
3.60655	0.439
3.64569	0.474
3.68483	0.495
3.72396	0.526
3.7631	0.537
3.80224	0.536
3.84138	0.526
3.88052	0.531
3.91966	0.567
3.9588	0.576
3.99794	0.596
4.03707	0.66
4.07621	0.688
4.11535	0.71
4.15449	0.717
4.19363	0.696
4.23277	0.726
4.27191	0.768
4.31104	0.799
4.35018	0.801
4.38932	0.809
4.42846	0.82
4.4676	0.828
4.50674	0.833
4.54588	0.833
4.58502	0.838
4.62415	0.849
4.66329	0.867
4.70243	0.872
4.74157	0.869
4.78071	0.867
4.81985	0.877
4.85899	0.88
4.89813	0.893
4.93726	0.898
4.9764	0.899
5.01554	0.906
5.05468	0.912
5.09382	0.925
5.13296	0.927
5.1721	0.893
5.21123	0.911
5.25037	0.948
5.28951	0.959
5.32865	0.957
5.36779	0.961
5.40693	0.949
5.44607	0.953
5.48521	0.97
5.52434	0.951
5.56348	0.915
5.60262	0.867
5.64176	0.899
5.6809	0.87
5.72004	0.844
5.75918	0.825
5.79832	0.812
5.83745	0.739
5.87659	0.575
5.91573	0.337
5.95487	0.174
5.99401	0.171
6.03315	0.232
6.07229	0.369
6.11142	0.489
6.15056	0.515
6.1897	0.374
6.22884	0.378
6.26798	0.547
6.30712	0.494
6.34626	0.541
6.3854	0.665
6.42453	0.759
6.46367	0.743
6.50281	0.738
6.54195	0.751
6.58109	0.773
6.62023	0.751
6.65937	0.66
6.69851	0.529
6.73764	0.363
6.77678	0.2
6.81592	0.206
6.85506	0.211
6.8942	0.105
6.93334	0.114
6.97248	0.208
7.01161	0.315
7.05075	0.489
7.08989	0.604
7.12903	0.638
7.16817	0.654
7.20731	0.599
7.24645	0.52
7.28559	0.512
7.32472	0.525
7.36386	0.579
7.403	0.642
7.44214	0.678
7.48128	0.659
7.52042	0.584
7.55956	0.542
7.5987	0.61
7.63783	0.584
7.67697	0.45
7.71611	0.277
7.75525	0.366
7.79439	0.605
7.83353	0.702
7.87267	0.712
7.91181	0.672
7.95094	0.562
7.99008	0.389
8.02922	0.163
8.06836	0.121
8.1075	0.127
8.14664	0.135
8.18578	0.2
8.22491	0.245
8.26405	0.19
8.30319	0.153
8.34233	0.176
8.38147	0.308
8.42061	0.436
8.45975	0.518
8.49889	0.568
8.53802	0.612
8.57716	0.641
8.6163	0.579
8.65544	0.512
8.69458	0.576
8.73372	0.667
8.77286	0.697
8.812	0.675
8.85113	0.66
8.89027	0.726
8.92941	0.775
8.96855	0.765
9.00769	0.686
9.04683	0.676
9.08597	0.796
9.1251	0.833
9.16424	0.848
9.20338	0.827
9.24252	0.762
9.28166	0.817
9.3208	0.859
9.35994	0.864
9.39908	0.865
9.43821	0.88
9.47735	0.893
9.51649	0.906
9.55563	0.911
9.59477	0.914
9.63391	0.917
9.67305	0.919
9.71219	0.922
9.75132	0.922
9.79046	0.924
9.8296	0.93
9.86874	0.932
9.90788	0.933
9.94702	0.933
9.98616	0.935
10.0253	0.933
10.0644	0.933
10.1036	0.932
10.1427	0.928
10.1818	0.922
10.221	0.919
10.2601	0.914
10.2993	0.903
10.3384	0.89
10.3775	0.903
10.4167	0.906
10.4558	0.906
10.495	0.906
10.5341	0.906
10.5732	0.903
10.6124	0.903
10.6515	0.899
10.6907	0.896
10.7298	0.891
10.7689	0.888
10.8081	0.883
10.8472	0.88
10.8863	0.873
10.9255	0.869
10.9646	0.854
11.0038	0.841
11.0429	0.83
11.082	0.82
11.1212	0.801
11.1603	0.746
11.1995	0.676
11.2386	0.633
11.2777	0.62
11.3169	0.549
11.356	0.521
11.3951	0.547
11.4343	0.544
11.4734	0.534
11.5126	0.528
11.5517	0.521
11.5908	0.516
11.63	0.508
11.6691	0.5
11.7083	0.491
11.7474	0.481
11.7865	0.473
11.8257	0.465
11.8648	0.463
11.904	0.458
11.9431	0.432
11.9822	0.399
12.0214	0.387
12.0605	0.324
12.0996	0.271
12.1388	0.455
12.1779	0.665
12.2171	0.751
12.2562	0.772
12.2953	0.78
12.3345	0.789
12.3736	0.791
12.4128	0.793
12.4519	0.788
12.491	0.772
12.5302	0.747
12.5693	0.693
12.6084	0.568
12.6476	0.487
12.6867	0.434
12.7259	0.452
12.765	0.578
12.8041	0.697
12.8433	0.802
12.8824	0.851
12.9216	0.882
12.9607	0.901
12.9998	0.912
13.039	0.928
13.0781	0.941
13.1173	0.954
13.1564	0.962
13.1955	0.974
13.2347	0.98
13.2738	0.985
13.3129	0.987
13.3521	0.988
13.3912	0.988
13.4304	0.983
13.4695	0.977
13.5086	0.974
13.5478	0.972
13.5869	0.972
13.6261	0.972
13.6652	0.97
13.7043	0.961
13.7435	0.951
13.7826	0.94
13.8217	0.925
13.8609	0.909
13.9	0.893
13.9392	0.87
13.9783	0.823
14.0174	0.741
14.0566	0.657
14.0957	0.531
14.1349	0.429
14.174	0.361
14.2131	0.326
14.2523	0.352
14.2914	0.407
14.3306	0.471
14.3697	0.536
14.4088	0.57
14.448	0.57
14.4871	0.541
14.5262	0.5
14.5654	0.447
14.6045	0.39
14.6437	0.345
14.6828	0.311
14.7219	0.3
14.7611	0.298
14.8002	0.319
14.8394	0.352
14.8785	0.384
14.9176	0.42
14.9568	0.47
14.9959	0.544
15.035	0.599
15.0742	0.63
15.1133	0.652
15.1525	0.673
15.1916	0.681
15.2307	0.659
15.2699	0.612
15.309	0.56
15.3482	0.516
15.3873	0.492
15.4264	0.492
15.4656	0.536
15.5047	0.588
15.5439	0.631
15.583	0.668
15.6221	0.699
15.6613	0.73
15.7004	0.752
15.7395	0.77
15.7787	0.781
15.8178	0.789
15.857	0.798
15.8961	0.799
