Infrared Spectrum: 2-n-Propylpiperidine
Formula: C8 H17 N
CAS: 3238-60-6
State: SOLID (NEAT)
Class: COBLENTZ III
Instrument: DOW KBr FOREPRISM-GRATING
Instrument parameters: BLAZED AT 3.5, 12.0, 20.0 MICRON AND CHANGED AT 5.0, 7.5, 14.9 MICRON
Sampling: TRANSMISSION
Path length: CAPILLARY
Resolution: 2
Origin: DOW CHEMICAL COMPANY
1/CM	TRANSMITTANCE
3798	0.8738
3789	0.8728
3780	0.8718
3771	0.8711
3762	0.8706
3753	0.8709
3744	0.8723
3735	0.8747
3726	0.8747
3717	0.8739
3708	0.8725
3699	0.8708
3690	0.8658
3681	0.8604
3672	0.8452
3663	0.8444
3654	0.8533
3645	0.8574
3636	0.858
3627	0.8549
3618	0.8521
3609	0.8492
3600	0.8457
3591	0.8418
3582	0.8375
3573	0.8318
3564	0.8257
3555	0.8185
3546	0.8101
3537	0.8011
3528	0.7921
3519	0.7835
3510	0.7756
3501	0.7676
3492	0.76
3483	0.7533
3474	0.7471
3465	0.7415
3456	0.7358
3447	0.7307
3438	0.7256
3429	0.7207
3420	0.716
3411	0.7125
3402	0.7092
3393	0.7065
3384	0.7038
3375	0.7025
3366	0.7014
3357	0.7015
3348	0.7014
3339	0.6991
3330	0.6903
3321	0.6774
3312	0.665
3303	0.6528
3294	0.6417
3285	0.6312
3276	0.6264
3267	0.6295
3258	0.6393
3249	0.6539
3240	0.6731
3231	0.6897
3222	0.7021
3213	0.7112
3204	0.7149
3195	0.7149
3186	0.7119
3177	0.7075
3168	0.6901
3159	0.6711
3150	0.6825
3141	0.6998
3132	0.7146
3123	0.728
3114	0.7386
3105	0.7478
3096	0.7561
3087	0.7624
3078	0.7675
3069	0.7691
3060	0.7671
3051	0.7615
3042	0.7539
3033	0.7421
3024	0.7308
3015	0.7175
3006	0.6961
2997	0.6655
2988	0.6051
2979	0.4591
2970	0.2464
2961	0.062
2952	0.0493
2943	0.0438
2934	0.0165
2925	0.0129
2916	0.0204
2907	0.0447
2898	0.0908
2889	0.1524
2880	0.1912
2871	0.1224
2862	0.1246
2853	0.0852
2844	0.1411
2835	0.2265
2826	0.3119
2817	0.3042
2808	0.2513
2799	0.1994
2790	0.2344
2781	0.3178
2772	0.4131
2763	0.5085
2754	0.5303
2745	0.4541
2736	0.4284
2727	0.4727
2718	0.5173
2709	0.5549
2700	0.5756
2691	0.6435
2682	0.6838
2673	0.6801
2664	0.6642
2655	0.6804
2646	0.6988
2637	0.703
2628	0.7251
2619	0.7161
2610	0.7192
2601	0.7333
2592	0.745
2583	0.7621
2574	0.781
2565	0.7962
2556	0.8107
2547	0.8155
2538	0.8212
2529	0.8303
2520	0.839
2511	0.8466
2502	0.8467
2493	0.8438
2484	0.8428
2475	0.8451
2466	0.8495
2457	0.8538
2448	0.8568
2439	0.8596
2430	0.8616
2421	0.8618
2412	0.8615
2403	0.861
2394	0.8586
2385	0.8542
2376	0.8639
2367	0.8584
2358	0.8609
2349	0.8659
2340	0.8655
2331	0.8643
2322	0.8638
2313	0.8637
2304	0.8637
2295	0.8636
2286	0.863
2277	0.8611
2268	0.8593
2259	0.8582
2250	0.8584
2241	0.8601
2232	0.861
2223	0.8612
2214	0.8609
2205	0.8605
2196	0.8596
2187	0.8581
2178	0.8577
2169	0.8589
2160	0.8617
2151	0.8638
2142	0.8649
2133	0.8463
2124	0.8223
2115	0.864
2106	0.8677
2097	0.8696
2088	0.8703
2079	0.8707
2070	0.8707
2061	0.8689
2052	0.8633
2043	0.8648
2034	0.8678
2025	0.8694
2016	0.8688
2007	0.8688
1998	0.8478
1989	0.8481
1980	0.8471
1971	0.8454
1962	0.8437
1953	0.8423
1944	0.8412
1935	0.841
1926	0.8417
1917	0.841
1908	0.8416
1899	0.8425
1890	0.8433
1881	0.8447
1872	0.8459
1863	0.8455
1854	0.8451
1845	0.8444
1836	0.8428
1827	0.8418
1818	0.8414
1809	0.8406
1800	0.8399
1791	0.8398
1782	0.8405
1773	0.8404
1764	0.8391
1755	0.8359
1746	0.8232
1737	0.8146
1728	0.8241
1719	0.8247
1710	0.8218
1701	0.8181
1692	0.8138
1683	0.8071
1674	0.8011
1665	0.7987
1656	0.8012
1647	0.7998
1638	0.7968
1629	0.7984
1620	0.8007
1611	0.8038
1602	0.8078
1593	0.8128
1584	0.8198
1575	0.824
1566	0.8244
1557	0.823
1548	0.8205
1539	0.8165
1530	0.8121
1521	0.8071
1512	0.7996
1503	0.7878
1494	0.7624
1485	0.7033
1476	0.592
1467	0.3212
1458	0.2715
1449	0.2579
1440	0.2365
1431	0.4182
1422	0.6292
1413	0.7207
1404	0.7274
1395	0.7303
1386	0.6025
1377	0.547
1368	0.6521
1359	0.6595
1350	0.6434
1341	0.648
1332	0.3471
1323	0.4393
1314	0.4837
1305	0.651
1296	0.7321
1287	0.7631
1278	0.7654
1269	0.6965
1260	0.6714
1251	0.7568
1242	0.795
1233	0.7508
1224	0.7576
1215	0.7815
1206	0.6281
1197	0.7742
1188	0.8045
1179	0.7875
1170	0.7706
1161	0.7406
1152	0.635
1143	0.6749
1134	0.6817
1125	0.3464
1116	0.3141
1107	0.61
1098	0.6326
1089	0.4758
1080	0.7304
1071	0.7591
1062	0.7453
1053	0.4573
1044	0.7343
1035	0.7378
1026	0.7198
1017	0.761
1008	0.7683
999	0.8101
990	0.7892
981	0.7131
972	0.7764
963	0.754
954	0.7654
945	0.7811
936	0.7484
927	0.7139
918	0.7278
909	0.7854
900	0.7578
891	0.6988
882	0.6224
873	0.5317
864	0.6025
855	0.7258
846	0.6915
837	0.6024
828	0.5544
819	0.6794
810	0.6576
801	0.6222
792	0.6269
783	0.5723
774	0.5092
765	0.4273
756	0.3493
747	0.28
738	0.3809
729	0.3827
720	0.355
711	0.5343
702	0.6558
693	0.7221
684	0.7575
675	0.773
666	0.8215
657	0.8051
648	0.8225
639	0.83
630	0.832
621	0.8304
612	0.8175
603	0.8153
594	0.8084
585	0.716
576	0.6192
567	0.7398
558	0.7267
549	0.7762
540	0.7743
531	0.7411
522	0.7758
513	0.7622
504	0.6807
495	0.6468
486	0.6855
477	0.6815
468	0.723
459	0.7464
