Infrared Spectrum: Benzene, 1,3-difluoro-4,6-dinitro-
Formula: C6 H2 F2 N2 O4
CAS: 327-92-4
State: SOLID (OIL MULL)
Class: COBLENTZ III
Instrument: BAIRD (GRATING)
Instrument parameters: NaCl PRISM
Sampling: TRANSMISSION
Resolution: 2
Origin: WYANDOTTE CHEMICALS CORP..
1/CM	TRANSMITTANCE
626	0.5531
635	0.5358
644	0.6197
653	0.6525
662	0.4431
671	0.7662
680	0.777
689	0.7141
698	0.4985
707	0.249
716	0.4853
725	0.6872
734	0.6095
743	0.3601
752	0.7373
761	0.8582
770	0.8703
779	0.8396
788	0.8956
797	0.898
806	0.8768
815	0.8631
824	0.8649
833	0.7008
842	0.6559
851	0.8252
860	0.7681
869	0.4051
878	0.3807
887	0.8019
896	0.8202
905	0.7532
914	0.1458
923	0.7769
932	0.8145
941	0.8263
950	0.8251
959	0.8149
968	0.8084
977	0.8093
986	0.7978
995	0.7862
1004	0.7705
1013	0.7414
1022	0.7181
1031	0.6618
1040	0.5996
1049	0.4716
1058	0.0562
1067	0.6085
1076	0.6549
1085	0.654
1094	0.6804
1103	0.6827
1112	0.6845
1121	0.669
1130	0.6749
1139	0.6653
1148	0.5438
1157	0.5936
1166	0.4697
1175	0.0811
1184	0.527
1193	0.6311
1202	0.6295
1211	0.5771
1220	0.3789
1229	0.5405
1238	0.5361
1247	0.559
1256	0.5413
1265	0.5126
1274	0.4583
1283	0.3638
1292	0.2578
1301	0.1248
1310	0.0408
1319	0.1696
1328	0.0683
1337	0.2479
1346	0.077
1355	0.02
1364	0.0353
1373	0.1451
1382	0.2082
1391	0.3111
1400	0.5027
1409	0.6597
1418	0.7006
1427	0.6563
1436	0.5325
1445	0.5854
1454	0.4834
1463	0.3492
1472	0.2224
1481	0.2314
1490	0.3738
1499	0.4135
1508	0.4236
1517	0.4252
1526	0.2585
1535	0.1661
1544	0.0652
1553	0.0643
1562	0.0478
1571	0.19
1580	0.4491
1589	0.4708
1598	0.455
1607	0.5025
1616	0.2381
1625	0.0626
1634	0.0478
1643	0.0328
1652	0.1153
1661	0.2152
1670	0.3108
1679	0.4604
1688	0.6445
1697	0.717
1706	0.8182
1715	0.8597
1724	0.8638
1733	0.8777
1742	0.9037
1751	0.8918
1760	0.9013
1769	0.9259
1778	0.9258
1787	0.8974
1796	0.8981
1805	0.9402
1814	0.9351
1823	0.9268
1832	0.949
1841	0.9571
1850	0.9446
1859	0.9444
1868	0.9425
1877	0.9372
1886	0.9326
1895	0.9252
1904	0.9167
1913	0.9138
1922	0.9159
1931	0.9186
1940	0.9141
1949	0.9094
1958	0.9047
1967	0.9007
1976	0.8974
1985	0.8942
1994	0.8876
2003	0.8782
2012	0.8709
2021	0.8655
2030	0.8648
2039	0.8643
2048	0.8653
2057	0.8663
2066	0.8676
2075	0.8672
2084	0.8628
2093	0.8583
2102	0.8546
2111	0.8515
2120	0.8488
2129	0.8459
2138	0.8408
2147	0.8348
2156	0.8259
2165	0.8193
2174	0.8149
2183	0.8108
2192	0.8074
2201	0.8076
2210	0.8101
2219	0.8109
2228	0.8052
2237	0.7987
2246	0.7969
2255	0.7957
2264	0.79
2273	0.7844
2282	0.7787
2291	0.7758
2300	0.7757
2309	0.7746
2318	0.7706
2327	0.7593
2336	0.7444
2345	0.7348
2354	0.7294
2363	0.7269
2372	0.7259
2381	0.7248
2390	0.7239
2399	0.7257
2408	0.7281
2417	0.7304
2426	0.7317
2435	0.7267
2444	0.7145
2453	0.7038
2462	0.6959
2471	0.6971
2480	0.6992
2489	0.7016
2498	0.7053
2507	0.7088
2516	0.7098
2525	0.7106
2534	0.7097
2543	0.7056
2552	0.6999
2561	0.6921
2570	0.6859
2579	0.6805
2588	0.6786
2597	0.6771
2606	0.67
2615	0.6633
2624	0.6643
2633	0.6646
2642	0.6538
2651	0.6424
2660	0.6329
2669	0.6295
2678	0.6266
2687	0.6299
2696	0.6338
2705	0.6304
2714	0.6271
2723	0.6315
2732	0.6325
2741	0.6327
2750	0.6342
2759	0.6387
2768	0.6443
2777	0.6441
2786	0.6406
2795	0.6271
2804	0.6106
2813	0.6018
2822	0.5981
2831	0.5933
2840	0.5316
2849	0.1648
2858	0.0742
2867	0.0645
2876	0.0631
2885	0.0656
2894	0.066
2903	0.0565
2912	0.0398
2921	0.0311
2930	0.0277
2939	0.0247
2948	0.0223
2957	0.0207
2966	0.0211
2975	0.0259
2984	0.0389
2993	0.0629
3002	0.1105
3011	0.1578
3020	0.2047
3029	0.2514
3038	0.2972
3047	0.3125
3056	0.3159
3065	0.2863
3074	0.2403
3083	0.2104
3092	0.2233
3101	0.3038
3110	0.3844
3119	0.3886
3128	0.3707
3137	0.355
3146	0.374
3155	0.4029
3164	0.4317
3173	0.4602
3182	0.4852
3191	0.4933
3200	0.4966
3209	0.4955
3218	0.4935
3227	0.4914
3236	0.4897
3245	0.4881
3254	0.4871
3263	0.4863
3272	0.4856
3281	0.4849
3290	0.4843
3299	0.4837
3308	0.483
3317	0.4823
3326	0.4815
3335	0.4807
3344	0.4791
3353	0.4748
3362	0.4707
3371	0.4673
3380	0.4641
3389	0.4617
3398	0.4609
3407	0.4602
3416	0.4593
3425	0.4592
3434	0.4592
3443	0.4592
3452	0.4593
3461	0.4603
3470	0.4614
3479	0.4624
3488	0.463
3497	0.4632
3506	0.4634
3515	0.4636
3524	0.4635
3533	0.4632
3542	0.4629
3551	0.4627
3560	0.4639
3569	0.4651
3578	0.4663
3587	0.4665
3596	0.4664
3605	0.4661
3614	0.4653
3623	0.4633
3632	0.4612
3641	0.4585
3650	0.4556
3659	0.4532
3668	0.4518
3677	0.4506
3686	0.4493
3695	0.4484
3704	0.4476
3713	0.4468
3722	0.4461
3731	0.4453
3740	0.4446
3749	0.4439
3758	0.4431
3767	0.4424
3776	0.4417
3785	0.4409
3794	0.4402
3803	0.4398
3812	0.4394
3821	0.439
3830	0.4387
3839	0.4383
3848	0.4379
3857	0.4378
3866	0.4386
3875	0.4394
3884	0.4386
3893	0.4378
3902	0.4355
3911	0.4316
3920	0.4275
3929	0.4228
3938	0.4179
3947	0.4164
3956	0.4162
3965	0.416
3974	0.4157
3983	0.4153
3992	0.4148
