Infrared Spectrum: 6-Methyl-2-pyridinol
Formula: C6 H7 N O
CAS: 3279-76-3
State: SOLID (SPLIT MULL)
Melting point: 159 C
Class: COBLENTZ III
Instrument: DOW KBr FOREPRISM-GRATING
Instrument parameters: BLAZED AT 3.5, 12.0, 20.0 MICRON AND CHANGED AT 5.0, 7.5, 14.9 MICRON
Sampling: TRANSMISSION
Resolution: 2
Origin: DOW CHEMICAL COMPANY
1/CM	TRANSMITTANCE
3816	0.81
3807	0.8101
3798	0.8103
3789	0.8108
3780	0.8115
3771	0.8118
3762	0.8124
3753	0.8146
3744	0.8156
3735	0.8148
3726	0.8147
3717	0.8175
3708	0.8314
3699	0.8171
3690	0.8187
3681	0.8198
3672	0.8205
3663	0.8209
3654	0.8213
3645	0.8213
3636	0.821
3627	0.8209
3618	0.821
3609	0.8209
3600	0.8208
3591	0.821
3582	0.8211
3573	0.8213
3564	0.8213
3555	0.8211
3546	0.8212
3537	0.8216
3528	0.8221
3519	0.8231
3510	0.8243
3501	0.8255
3492	0.8268
3483	0.8283
3474	0.8298
3465	0.8314
3456	0.8327
3447	0.8338
3438	0.835
3429	0.8368
3420	0.8386
3411	0.8396
3402	0.8407
3393	0.842
3384	0.8421
3375	0.8421
3366	0.8414
3357	0.8408
3348	0.8405
3339	0.8402
3330	0.84
3321	0.8382
3312	0.8335
3303	0.8256
3294	0.8171
3285	0.8075
3276	0.7978
3267	0.7969
3258	0.7908
3249	0.7857
3240	0.7915
3231	0.7972
3222	0.8021
3213	0.805
3204	0.8068
3195	0.7941
3186	0.7828
3177	0.7658
3168	0.7494
3159	0.7249
3150	0.6945
3141	0.6528
3132	0.5922
3123	0.5404
3114	0.4927
3105	0.4702
3096	0.4796
3087	0.4927
3078	0.5053
3069	0.523
3060	0.5455
3051	0.5675
3042	0.5312
3033	0.4798
3024	0.4733
3015	0.4651
3006	0.4569
2997	0.4812
2988	0.4941
2979	0.4645
2970	0.3927
2961	0.3553
2952	0.3553
2943	0.3564
2934	0.357
2925	0.3773
2916	0.3982
2907	0.4018
2898	0.3736
2889	0.3614
2880	0.3745
2871	0.3796
2862	0.3734
2853	0.3747
2844	0.3766
2835	0.3658
2826	0.3509
2817	0.3468
2808	0.3347
2799	0.2968
2790	0.3161
2781	0.3595
2772	0.4098
2763	0.447
2754	0.461
2745	0.4757
2736	0.4953
2727	0.5188
2718	0.545
2709	0.5649
2700	0.5789
2691	0.5866
2682	0.588
2673	0.6022
2664	0.6151
2655	0.6251
2646	0.6359
2637	0.6524
2628	0.6671
2619	0.6811
2610	0.6961
2601	0.7115
2592	0.7172
2583	0.7208
2574	0.7383
2565	0.7511
2556	0.7618
2547	0.7701
2538	0.7774
2529	0.7811
2520	0.7812
2511	0.7747
2502	0.7742
2493	0.7834
2484	0.7892
2475	0.7894
2466	0.7911
2457	0.7995
2448	0.8071
2439	0.8137
2430	0.8164
2421	0.8165
2412	0.8175
2403	0.8191
2394	0.8232
2385	0.826
2376	0.8248
2367	0.8243
2358	0.8285
2349	0.8316
2340	0.8336
2331	0.8354
2322	0.8366
2313	0.8374
2304	0.837
2295	0.8365
2286	0.8394
2277	0.8428
2268	0.8464
2259	0.8494
2250	0.8506
2241	0.8547
2232	0.8597
2223	0.8642
2214	0.8663
2205	0.8667
2196	0.865
2187	0.8642
2178	0.8636
2169	0.8627
2160	0.8655
2151	0.8678
2142	0.8695
2133	0.8714
2124	0.8736
2115	0.8737
2106	0.8739
2097	0.8754
2088	0.8773
2079	0.8784
2070	0.8797
2061	0.8828
2052	0.8843
2043	0.8852
2034	0.885
2025	0.8833
2016	0.8812
2007	0.8783
1998	0.8618
1989	0.8403
1980	0.8398
1971	0.8402
1962	0.8568
1953	0.8499
1944	0.8508
1935	0.8527
1926	0.8528
1917	0.851
1908	0.84
1899	0.8393
1890	0.8338
1881	0.8186
1872	0.8017
1863	0.7834
1854	0.7806
1845	0.7957
1836	0.8037
1827	0.8086
1818	0.8195
1809	0.8324
1800	0.8368
1791	0.8064
1782	0.7965
1773	0.8171
1764	0.8293
1755	0.8353
1746	0.815
1737	0.7745
1728	0.7747
1719	0.7775
1710	0.7397
1701	0.4596
1692	0.0434
1683	0.0545
1674	0.0443
1665	0.1071
1656	0.1625
1647	0.4139
1638	0.3722
1629	0.3741
1620	0.0806
1611	0.1119
1602	0.4296
1593	0.5751
1584	0.6696
1575	0.7108
1566	0.7064
1557	0.5823
1548	0.6135
1539	0.6693
1530	0.7099
1521	0.744
1512	0.7618
1503	0.7625
1494	0.7622
1485	0.5517
1476	0.4249
1467	0.4379
1458	0.5406
1449	0.6064
1440	0.404
1431	0.3489
1422	0.6099
1413	0.7114
1404	0.7369
1395	0.7465
1386	0.7926
1377	0.6578
1368	0.7625
1359	0.7965
1350	0.7955
1341	0.7888
1332	0.7947
1323	0.7975
1314	0.799
1305	0.8015
1296	0.8043
1287	0.8094
1278	0.8115
1269	0.7838
1260	0.7517
1251	0.7512
1242	0.7993
1233	0.8015
1224	0.7695
1215	0.5177
1206	0.7181
1197	0.7808
1188	0.8061
1179	0.6985
1170	0.4428
1161	0.734
1152	0.8071
1143	0.8214
1134	0.8351
1125	0.8489
1116	0.8474
1107	0.8414
1098	0.836
1089	0.8206
1080	0.7847
1071	0.8068
1062	0.8065
1053	0.7708
1044	0.7071
1035	0.7118
1026	0.7761
1017	0.7761
1008	0.6454
999	0.5669
990	0.7255
981	0.7745
972	0.7785
963	0.7454
954	0.6847
945	0.5594
936	0.536
927	0.5046
918	0.5409
909	0.6506
900	0.7251
891	0.7546
882	0.7714
873	0.7475
864	0.7332
855	0.7934
846	0.8015
837	0.7915
828	0.714
819	0.5004
810	0.6256
801	0.501
792	0.5498
783	0.7648
774	0.8151
765	0.8323
756	0.834
747	0.8234
738	0.6331
729	0.7792
720	0.8005
711	0.8311
702	0.8373
693	0.8375
684	0.8385
675	0.8468
666	0.8568
657	0.8545
648	0.8545
639	0.8583
630	0.8635
621	0.8665
612	0.8683
603	0.8608
594	0.8578
585	0.8533
576	0.3044
567	0.816
558	0.8256
549	0.8565
540	0.826
531	0.6458
522	0.8189
513	0.7596
504	0.6076
495	0.8412
486	0.8491
477	0.8506
468	0.8495
459	0.8473
