Infrared Spectrum: Benzenemethanamine, hydrochloride
Formula: C7 H10 Cl N
CAS: 3287-99-8
State: SOLID (KBr DISC)
Class: COBLENTZ III
Instrument: PERKIN-ELMER 157
Sampling: TRANSMISSION
Resolution: 2
Origin: BRITISH PETROLEUM CO. LTD., ENGLAND
1/CM	TRANSMITTANCE
668	0.6879
677	0.5482
686	0.1917
695	0.0279
704	0.5116
713	0.784
722	0.7965
731	0.661
740	0.3041
749	0.0421
758	0.6798
767	0.8428
776	0.823
785	0.7041
794	0.6406
803	0.7904
812	0.7861
821	0.7725
830	0.762
839	0.746
848	0.6926
857	0.6316
866	0.5284
875	0.236
884	0.2662
893	0.627
902	0.6813
911	0.6258
920	0.2355
929	0.6452
938	0.6466
947	0.6083
956	0.5057
965	0.2598
974	0.4502
983	0.6966
992	0.7279
1001	0.7115
1010	0.6897
1019	0.6566
1028	0.5454
1037	0.6094
1046	0.491
1055	0.1402
1064	0.3837
1073	0.6692
1082	0.6547
1091	0.5776
1100	0.2626
1109	0.2248
1118	0.3863
1127	0.6933
1136	0.6977
1145	0.6741
1154	0.6703
1163	0.6756
1172	0.6699
1181	0.6431
1190	0.6026
1199	0.628
1208	0.5866
1217	0.2093
1226	0.6856
1235	0.6767
1244	0.6662
1253	0.6607
1262	0.6476
1271	0.6268
1280	0.6057
1289	0.6017
1298	0.6049
1307	0.5779
1316	0.5623
1325	0.5662
1334	0.5224
1343	0.5024
1352	0.5344
1361	0.479
1370	0.3614
1379	0.1426
1388	0.3032
1397	0.4741
1406	0.4707
1415	0.4453
1424	0.3999
1433	0.3598
1442	0.3157
1451	0.1537
1460	0.0515
1469	0.0438
1478	0.0499
1487	0.2115
1496	0.2561
1505	0.4298
1514	0.4671
1523	0.4399
1532	0.4345
1541	0.4092
1550	0.4062
1559	0.406
1568	0.3889
1577	0.3156
1586	0.2225
1595	0.113
1604	0.3018
1613	0.5334
1622	0.5768
1631	0.5778
1640	0.5765
1649	0.572
1658	0.5598
1667	0.5485
1676	0.555
1685	0.5788
1694	0.5871
1703	0.5885
1712	0.5883
1721	0.5898
1730	0.5836
1739	0.5705
1748	0.5517
1757	0.5376
1766	0.5336
1775	0.533
1784	0.534
1793	0.5264
1802	0.5125
1811	0.5027
1820	0.5107
1829	0.5178
1838	0.5215
1847	0.5209
1856	0.5181
1865	0.5146
1874	0.4899
1883	0.4521
1892	0.4459
1901	0.4621
1910	0.4704
1919	0.471
1928	0.4486
1937	0.427
1946	0.4051
1955	0.4033
1964	0.4103
1973	0.4016
1982	0.3871
1991	0.3647
2000	0.3398
2009	0.3152
2018	0.3014
2027	0.2953
2036	0.293
2045	0.2945
2054	0.3017
2063	0.3191
2072	0.3477
2081	0.3891
2090	0.4034
2099	0.4132
2108	0.4214
2117	0.4306
2126	0.4334
2135	0.4336
2144	0.4335
2153	0.4334
2162	0.4328
2171	0.4312
2180	0.4272
2189	0.4178
2198	0.4119
2207	0.4113
2216	0.4114
2225	0.415
2234	0.4195
2243	0.415
2252	0.4106
2261	0.409
2270	0.4085
2279	0.4062
2288	0.4001
2297	0.3875
2306	0.3631
2315	0.3475
2324	0.3344
2333	0.316
2342	0.3133
2351	0.3323
2360	0.3389
2369	0.3393
2378	0.3389
2387	0.338
2396	0.3338
2405	0.3277
2414	0.3202
2423	0.3117
2432	0.3
2441	0.2893
2450	0.2757
2459	0.2714
2468	0.269
2477	0.2647
2486	0.2515
2495	0.2368
2504	0.2222
2513	0.2027
2522	0.1912
2531	0.187
2540	0.1605
2549	0.1397
2558	0.1344
2567	0.1415
2576	0.1652
2585	0.1888
2594	0.1973
2603	0.1873
2612	0.174
2621	0.1603
2630	0.1469
2639	0.1344
2648	0.0906
2657	0.0893
2666	0.0888
2675	0.0884
2684	0.0879
2693	0.0874
2702	0.0867
2711	0.0852
2720	0.0767
2729	0.0695
2738	0.0638
2747	0.0594
2756	0.0565
2765	0.0536
2774	0.0515
2783	0.0495
2792	0.0461
2801	0.0406
2810	0.035
2819	0.0276
2828	0.0207
2837	0.0166
2846	0.0156
2855	0.015
2864	0.0147
2873	0.0147
2882	0.0147
2891	0.0147
2900	0.0147
2909	0.0148
2918	0.0148
2927	0.0148
2936	0.0155
2945	0.0163
2954	0.0172
2963	0.0187
2972	0.0207
2981	0.0225
2990	0.0239
2999	0.0251
3008	0.0255
3017	0.0259
3026	0.0264
3035	0.0271
3044	0.0279
3053	0.0287
3062	0.0323
3071	0.0366
3080	0.0439
3089	0.0518
3098	0.0616
3107	0.0811
3116	0.1396
3125	0.1594
3134	0.1787
3143	0.1948
3152	0.2081
3161	0.2207
3170	0.2394
3179	0.2561
3188	0.2962
3197	0.3389
3206	0.3813
3215	0.4236
3224	0.4655
3233	0.5072
3242	0.5528
3251	0.5651
3260	0.5696
3269	0.5738
3278	0.575
3287	0.5753
3296	0.5736
3305	0.5708
3314	0.5674
3323	0.5633
3332	0.5591
3341	0.5548
3350	0.55
3359	0.5446
3368	0.5384
3377	0.5324
3386	0.5281
3395	0.5239
3404	0.5205
3413	0.5184
3422	0.5163
3431	0.5119
3440	0.5067
3449	0.5018
3458	0.498
3467	0.4945
3476	0.491
3485	0.4896
3494	0.4884
3503	0.487
3512	0.4853
3521	0.4836
3530	0.4819
3539	0.4803
3548	0.4787
3557	0.4774
3566	0.4762
3575	0.475
3584	0.4738
3593	0.4726
3602	0.4715
3611	0.4703
3620	0.4688
3629	0.4657
3638	0.4624
3647	0.4581
3656	0.4546
3665	0.4531
3674	0.4517
3683	0.4501
3692	0.4477
3701	0.4449
3710	0.4424
3719	0.4402
3728	0.4379
3737	0.4357
3746	0.4352
3755	0.4346
3764	0.4341
3773	0.432
3782	0.4289
3791	0.4249
3800	0.421
3809	0.4178
3818	0.4156
3827	0.4139
3836	0.413
3845	0.4121
3854	0.4113
3863	0.4104
3872	0.4084
3881	0.4057
3890	0.403
3899	0.3998
3908	0.3972
3917	0.3954
3926	0.3937
3935	0.392
3944	0.3908
3953	0.3897
3962	0.3886
3971	0.3876
3980	0.3866
3989	0.3857
3998	0.3847
