Infrared Spectrum: BENZENE, (2-METHYLALLYL)-
Formula: C10 H12
CAS: 3290-53-7
State: SOLUTION (10% CCl4 FOR 3800-1330, 10% CS2 FOR 1330-400 CM^-^1)
Class: COBLENTZ III
Instrument: BECKMAN IR-9 (GRATING)
Instrument parameters: ORDER CHANGES: 670, 1200, 2000 CM^-^1
Sampling: TRANSMISSION
Path length: 0.010 CM, 0.011 CM
Resolution: 2
Origin: DOW CHEMICAL COMPANY
1/CM	TRANSMITTANCE
400.768	0.633
409.628	0.589
418.488	0.563
427.348	0.567
436.208	0.628
445.068	0.665
453.928	0.645
462.788	0.725
471.648	0.784
480.508	0.796
489.368	0.614
498.228	0.748
507.088	0.841
515.948	0.874
524.809	0.893
533.669	0.919
542.529	0.937
551.389	0.946
560.249	0.953
569.109	0.946
577.969	0.939
586.829	0.877
595.689	0.569
604.549	0.776
613.409	0.885
622.269	0.899
631.129	0.907
639.989	0.9
648.849	0.877
657.709	0.868
666.569	0.852
675.429	0.795
684.289	0.625
693.149	0.169
702.009	0.211
710.869	0.676
719.729	0.7
728.589	0.3079
737.449	0.0341
746.309	0.625
755.169	0.7721
764.029	0.89
772.89	0.912
781.75	0.918
790.61	0.919
799.47	0.91
808.33	0.859
817.19	0.817
826.05	0.814
834.91	0.839
843.77	0.812
852.63	0.751
861.49	0.73
870.35	0.73
879.21	0.5449
888.07	0.056
896.93	0.337
905.79	0.678
914.65	0.762
923.51	0.808
932.37	0.854
941.23	0.875
950.09	0.882
958.95	0.874
967.81	0.87
976.67	0.854
985.53	0.868
994.39	0.872
1003.25	0.85
1012.11	0.841
1020.97	0.75
1029.83	0.535
1038.69	0.838
1047.55	0.868
1056.41	0.868
1065.27	0.814
1074.13	0.555
1082.99	0.846
1091.85	0.877
1100.71	0.879
1109.57	0.872
1118.43	0.881
1127.29	0.882
1136.15	0.878
1145.01	0.856
1153.87	0.802
1162.73	0.816
1171.59	0.776
1180.45	0.712
1189.31	0.779
1198.17	0.825
1207.03	0.83
1215.89	0.852
1224.75	0.817
1233.61	0.843
1242.47	0.86
1251.33	0.819
1260.19	0.783
1269.05	0.777
1277.91	0.754
1286.77	0.817
1295.63	0.828
1304.49	0.849
1313.35	0.85
1322.21	0.838
1331.07	0.803
1339.93	0.794
1348.79	0.831
1357.65	0.838
1366.51	0.795
1375.37	0.4661
1384.23	0.75
1393.09	0.801
1401.95	0.803
1410.81	0.773
1419.67	0.734
1428.53	0.639
1437.39	0.448
1446.25	0.354
1455.11	0.2471
1463.97	0.618
1472.83	0.646
1481.69	0.736
1490.55	0.6507
1499.41	0.3502
1508.27	0.661
1517.13	0.679
1525.99	0.649
1534.85	0.602
1543.71	0.506
1552.57	0.472
1561.43	0.497
1570.29	0.562
1579.15	0.575
1588.01	0.546
1596.87	0.524
1605.73	0.526
1614.59	0.747
1623.45	0.784
1632.31	0.783
1641.17	0.613
1650.03	0.441
1658.89	0.66
1667.75	0.805
1676.61	0.828
1685.47	0.845
1694.33	0.859
1703.19	0.864
1712.05	0.87
1720.91	0.87
1729.77	0.867
1738.63	0.86
1747.49	0.854
1756.35	0.854
1765.21	0.861
1774.07	0.857
1782.93	0.838
1791.79	0.809
1800.65	0.794
1809.51	0.813
1818.37	0.846
1827.23	0.86
1836.09	0.874
1844.95	0.875
1853.81	0.875
1862.67	0.861
1871.53	0.852
1880.39	0.85
1889.25	0.857
1898.11	0.867
1906.97	0.877
1915.83	0.881
1924.69	0.881
1933.55	0.878
1942.41	0.817
1951.27	0.849
1960.13	0.853
1968.99	0.872
1977.85	0.881
1986.71	0.883
1995.57	0.864
2004.43	0.879
2013.29	0.88
2022.15	0.882
2031.01	0.885
2039.87	0.888
2048.73	0.89
2057.59	0.889
2066.45	0.886
2075.31	0.885
2084.17	0.885
2093.03	0.886
2101.9	0.886
2110.76	0.888
2119.62	0.888
2128.48	0.889
2137.34	0.889
2146.2	0.89
2155.06	0.89
2163.92	0.89
2172.78	0.89
2181.64	0.89
2190.5	0.89
2199.36	0.89
2208.22	0.8898
2217.08	0.889
2225.94	0.889
2234.8	0.889
2243.66	0.889
2252.52	0.886
2261.38	0.8828
2270.24	0.879
2279.1	0.8778
2287.96	0.877
2296.82	0.875
2305.68	0.874
2314.54	0.8738
2323.4	0.872
2332.26	0.872
2341.12	0.8722
2349.98	0.874
2358.84	0.875
2367.7	0.877
2376.56	0.879
2385.42	0.882
2394.28	0.885
2403.14	0.885
2412	0.885
2420.86	0.885
2429.72	0.885
2438.58	0.883
2447.44	0.883
2456.3	0.882
2465.16	0.882
2474.02	0.882
2482.88	0.883
2491.74	0.885
2500.6	0.8859
2509.46	0.886
2518.32	0.888
2527.18	0.888
2536.04	0.888
2544.9	0.888
2553.76	0.888
2562.62	0.888
2571.48	0.888
2580.34	0.888
2589.2	0.886
2598.06	0.886
2606.92	0.886
2615.78	0.883
2624.64	0.883
2633.5	0.883
2642.36	0.883
2651.22	0.882
2660.08	0.882
2668.94	0.8827
2677.8	0.883
2686.66	0.883
2695.52	0.883
2704.38	0.882
2713.24	0.882
2722.1	0.8798
2730.96	0.8605
2739.82	0.8618
2748.68	0.874
2757.54	0.875
2766.4	0.875
2775.26	0.875
2784.12	0.8729
2792.98	0.868
2801.84	0.8595
2810.7	0.8515
2819.56	0.8254
2828.42	0.7371
2837.28	0.677
2846.14	0.6701
2855	0.665
2863.86	0.6724
2872.72	0.679
2881.58	0.6412
2890.44	0.5515
2899.3	0.4539
2908.16	0.422
2917.02	0.4018
2925.88	0.4229
2934.74	0.4559
2943.6	0.4447
2952.46	0.5522
2961.32	0.6297
2970.18	0.4985
2979.04	0.4089
2987.9	0.4903
2996.76	0.6223
3005.62	0.6828
3014.48	0.693
3023.34	0.5013
3032.2	0.3265
3041.06	0.544
3049.92	0.6484
3058.78	0.6419
3067.64	0.4586
3076.5	0.447
3085.36	0.4354
3094.22	0.5667
3103.08	0.7245
3111.94	0.7557
3120.8	0.8066
3129.66	0.8315
3138.52	0.8433
3147.38	0.8481
3156.24	0.853
3165.1	0.8572
3173.96	0.8612
3182.82	0.8661
3191.68	0.87
3200.54	0.8721
3209.4	0.875
3218.26	0.877
3227.12	0.877
3235.98	0.879
3244.84	0.879
3253.7	0.879
3262.56	0.879
3271.42	0.881
3280.28	0.881
3289.14	0.882
3298	0.882
3306.86	0.882
3315.72	0.882
3324.58	0.882
3333.44	0.882
3342.3	0.882
3351.16	0.882
3360.02	0.883
3368.88	0.883
3377.74	0.8847
3386.6	0.8858
3395.46	0.8876
3404.32	0.8888
3413.18	0.8898
3422.04	0.89
3430.9	0.892
3439.76	0.893
3448.62	0.895
3457.48	0.895
3466.34	0.895
3475.2	0.895
3484.06	0.895
3492.92	0.895
3501.78	0.895
3510.64	0.895
3519.5	0.895
3528.36	0.895
3537.22	0.895
3546.08	0.895
3554.94	0.8924
3563.8	0.89
3572.66	0.889
3581.52	0.889
3590.38	0.889
3599.24	0.8863
3608.1	0.8571
3616.96	0.8218
3625.82	0.8519
3634.68	0.8787
3643.54	0.892
3652.4	0.896
3661.26	0.898
3670.12	0.9
3678.98	0.901
3687.84	0.903
3696.7	0.904
3705.56	0.906
3714.42	0.907
3723.28	0.907
3732.14	0.907
3741	0.907
3749.86	0.908
3758.72	0.91
3767.58	0.91
3776.44	0.91
3785.3	0.91
3794.16	0.91
