Infrared Spectrum: 3,5,5-Trimethylhexanoic acid
Formula: C9 H18 O2
CAS: 3302-10-1
State: SOLUTION (10% CCl4 FOR 3800-1330, 10% CS2 FOR 1330-450 CM^-^1)
Class: COBLENTZ III
Instrument: DOW KBr FOREPRISM-GRATING
Instrument parameters: BLAZED AT 3.5, 12.0, 20.0 MICRON AND CHANGED AT 5.0, 7.5, 14.9 MICRON
Sampling: TRANSMISSION
Path length: 0.010 CM, 0.011 CM
Resolution: 2
Origin: DOW CHEMICAL COMPANY
1/CM	TRANSMITTANCE
3800	0.9019
3791	0.9039
3782	0.9039
3773	0.9059
3764	0.9066
3755	0.9072
3746	0.9084
3737	0.9145
3728	0.916
3719	0.9117
3710	0.9103
3701	0.9079
3692	0.9035
3683	0.8992
3674	0.8963
3665	0.8968
3656	0.9002
3647	0.9035
3638	0.9061
3629	0.9045
3620	0.9048
3611	0.9015
3602	0.8944
3593	0.8906
3584	0.8938
3575	0.8889
3566	0.8836
3557	0.8849
3548	0.881
3539	0.8646
3530	0.8501
3521	0.8453
3512	0.849
3503	0.8541
3494	0.8594
3485	0.8595
3476	0.8564
3467	0.8533
3458	0.848
3449	0.8421
3440	0.8337
3431	0.8249
3422	0.8164
3413	0.8078
3404	0.7963
3395	0.7851
3386	0.7726
3377	0.7598
3368	0.7469
3359	0.7336
3350	0.7126
3341	0.6992
3332	0.6893
3323	0.6771
3314	0.6672
3305	0.6524
3296	0.6358
3287	0.6149
3278	0.5939
3269	0.5714
3260	0.5478
3251	0.5229
3242	0.4982
3233	0.4739
3224	0.455
3215	0.4335
3206	0.4084
3197	0.3829
3188	0.3592
3179	0.3388
3170	0.3197
3161	0.3014
3152	0.2866
3143	0.2733
3134	0.2624
3125	0.2512
3116	0.2339
3107	0.2222
3098	0.2115
3089	0.2031
3080	0.1963
3071	0.1926
3062	0.1873
3053	0.1799
3044	0.1716
3035	0.169
3026	0.1659
3017	0.1641
3008	0.1596
2999	0.1486
2990	0.1158
2981	0.0772
2972	0.0386
2963	0.0022
2954	0.0007
2945	0.0009
2936	0.0068
2927	0.0206
2918	0.0304
2909	0.03
2900	0.0295
2891	0.0453
2882	0.0561
2873	0.0532
2864	0.0755
2855	0.1345
2846	0.18
2837	0.2163
2828	0.2473
2819	0.2803
2810	0.3124
2801	0.3398
2792	0.3551
2783	0.3674
2774	0.3812
2765	0.3922
2756	0.3977
2747	0.3949
2738	0.3996
2729	0.4024
2720	0.4016
2711	0.3968
2702	0.3936
2693	0.3807
2684	0.367
2675	0.3637
2666	0.3707
2657	0.3803
2648	0.3894
2639	0.4003
2630	0.4107
2621	0.4204
2612	0.4297
2603	0.4391
2594	0.4478
2585	0.4522
2576	0.4528
2567	0.4533
2558	0.4641
2549	0.4806
2540	0.5064
2531	0.5285
2522	0.5471
2513	0.5704
2504	0.5927
2495	0.6136
2486	0.6339
2477	0.6537
2468	0.6715
2459	0.6879
2450	0.7028
2441	0.7182
2432	0.7321
2423	0.741
2414	0.75
2405	0.7592
2396	0.7674
2387	0.7764
2378	0.7853
2369	0.7912
2360	0.7967
2351	0.8036
2342	0.8088
2333	0.8134
2324	0.821
2315	0.8246
2306	0.8235
2297	0.8212
2288	0.8189
2279	0.8235
2270	0.8262
2261	0.829
2252	0.8313
2243	0.8339
2234	0.8372
2225	0.8407
2216	0.843
2207	0.8463
2198	0.8491
2189	0.8503
2180	0.8522
2171	0.8539
2162	0.8528
2153	0.8508
2144	0.8481
2135	0.8465
2126	0.8444
2117	0.842
2108	0.8471
2099	0.8529
2090	0.8549
2081	0.855
2072	0.8535
2063	0.8522
2054	0.8521
2045	0.8498
2036	0.848
2027	0.8469
2018	0.8456
2009	0.8446
2000	0.8436
1991	0.8378
1982	0.8339
1973	0.8317
1964	0.8299
1955	0.829
1946	0.8255
1937	0.8241
1928	0.821
1919	0.8172
1910	0.8126
1901	0.8054
1892	0.7986
1883	0.7901
1874	0.7833
1865	0.7742
1856	0.7651
1847	0.7571
1838	0.749
1829	0.7364
1820	0.7288
1811	0.7231
1802	0.715
1793	0.7053
1784	0.694
1775	0.6716
1766	0.6309
1757	0.5689
1748	0.5121
1739	0.4598
1730	0.2624
1721	0.0631
1712	0.0025
1703	0.0026
1694	0.0912
1685	0.2771
1676	0.4375
1667	0.5222
1658	0.6072
1649	0.6633
1640	0.7082
1631	0.7512
1622	0.7827
1613	0.8009
1604	0.8039
1595	0.7807
1586	0.7789
1577	0.7705
1568	0.7509
1559	0.7244
1550	0.7207
1541	0.7337
1532	0.7616
1523	0.7723
1514	0.7867
1505	0.7782
1496	0.75
1487	0.6409
1478	0.2511
1469	0.2167
1460	0.3638
1451	0.4082
1442	0.3458
1433	0.3323
1424	0.317
1415	0.1936
1406	0.2862
1397	0.3516
1388	0.5502
1379	0.4871
1370	0.2571
1361	0.5072
1352	0.5923
1343	0.6171
1334	0.5345
1325	0.382
1316	0.3545
1307	0.2923
1298	0.1356
1289	0.1268
1280	0.1481
1271	0.3335
1262	0.3897
1253	0.3932
1244	0.2604
1235	0.3239
1226	0.3045
1217	0.2267
1208	0.3797
1199	0.3957
1190	0.4988
1181	0.5214
1172	0.4712
1163	0.4969
1154	0.5632
1145	0.6191
1136	0.639
1127	0.6301
1118	0.634
1109	0.6848
1100	0.7197
1091	0.7038
1082	0.6233
1073	0.5661
1064	0.6843
1055	0.7219
1046	0.7393
1037	0.7493
1028	0.7549
1019	0.7436
1010	0.7377
1001	0.7397
992	0.7203
983	0.6713
974	0.5617
965	0.5123
956	0.4399
947	0.3361
938	0.2721
929	0.274
920	0.3146
911	0.3949
902	0.4609
893	0.5075
884	0.5525
875	0.5876
866	0.5962
857	0.6337
848	0.6862
839	0.7016
830	0.7095
821	0.7403
812	0.7805
803	0.8055
794	0.8183
785	0.8296
776	0.8341
767	0.8367
758	0.8329
749	0.7617
740	0.8392
731	0.8319
722	0.8231
713	0.8141
704	0.7974
695	0.7771
686	0.7453
677	0.7545
668	0.7801
659	0.7852
650	0.7835
641	0.7699
632	0.6857
623	0.6926
614	0.7374
605	0.7526
596	0.7825
587	0.7943
578	0.795
569	0.7932
560	0.7857
551	0.7745
542	0.7683
533	0.759
524	0.7457
515	0.7415
506	0.7568
497	0.7354
488	0.6952
479	0.6442
470	0.6008
461	0.5967
