Infrared Spectrum: m-Fluorophenylacetic acid
Formula: C8 H7 F O2
CAS: 331-25-9
State: SOLUTION (10% CCl4 FOR 3800-1330, 10% CS2 FOR 1330-400 CM^-^1)
Class: COBLENTZ III
Instrument: DOW KBr FOREPRISM-GRATING
Instrument parameters: BLAZED AT 3.5, 12.0, 20.0 MICRON AND CHANGED AT 5.0, 7.5, 14.9 MICRON
Sampling: TRANSMISSION
Path length: 0.011 CM, 0.011 CM
Resolution: 2
Origin: DOW CHEMICAL COMPANY
1/CM	TRANSMITTANCE
410	0.407
419	0.583
428	0.5964
437	0.557
446	0.5611
455	0.6048
464	0.7248
473	0.7689
482	0.8032
491	0.8256
500	0.8293
509	0.8168
518	0.7782
527	0.5182
536	0.8143
545	0.8408
554	0.8514
563	0.8581
572	0.8468
581	0.86
590	0.8387
599	0.8191
608	0.7232
617	0.6821
626	0.5233
635	0.6829
644	0.8294
653	0.825
662	0.8409
671	0.8201
680	0.7401
689	0.5036
698	0.5765
707	0.3658
716	0.3912
725	0.6312
734	0.8119
743	0.8092
752	0.7861
761	0.6235
770	0.1601
779	0.1047
788	0.4338
797	0.474
806	0.649
815	0.7196
824	0.7491
833	0.7382
842	0.7075
851	0.6203
860	0.479
869	0.2917
878	0.4475
887	0.4014
896	0.3635
905	0.371
914	0.3154
923	0.2441
932	0.2232
941	0.2314
950	0.2926
959	0.3168
968	0.2009
977	0.5099
986	0.6313
995	0.6793
1004	0.6891
1013	0.7206
1022	0.7351
1031	0.7485
1040	0.7577
1049	0.7605
1058	0.7575
1067	0.7486
1076	0.6588
1085	0.7523
1094	0.7549
1103	0.74
1112	0.7096
1121	0.6519
1130	0.5948
1139	0.516
1148	0.1486
1157	0.2983
1166	0.3864
1175	0.4805
1184	0.5216
1193	0.5311
1202	0.4943
1211	0.3981
1220	0.2197
1229	0.2342
1238	0.3044
1247	0.227
1256	0.0683
1265	0.0409
1274	0.1188
1283	0.1205
1292	0.1308
1301	0.1685
1310	0.237
1319	0.2973
1328	0.4055
1337	0.5019
1346	0.5995
1355	0.6556
1364	0.6601
1373	0.6449
1382	0.6116
1391	0.5703
1400	0.4678
1409	0.1741
1418	0.079
1427	0.221
1436	0.3248
1445	0.302
1454	0.0745
1463	0.4019
1472	0.5927
1481	0.5574
1490	0.2162
1499	0.2676
1508	0.5482
1517	0.5181
1526	0.5165
1535	0.4757
1544	0.4229
1553	0.383
1562	0.4014
1571	0.4199
1580	0.3798
1589	0.2584
1598	0.0435
1607	0.3211
1616	0.2103
1625	0.2392
1634	0.5926
1643	0.6107
1652	0.5757
1661	0.5353
1670	0.4939
1679	0.4558
1688	0.3617
1697	0.1765
1706	0.009
1715	0
1724	0.0045
1733	0.0918
1742	0.2963
1751	0.3568
1760	0.4338
1769	0.5093
1778	0.5746
1787	0.6209
1796	0.6481
1805	0.6701
1814	0.6856
1823	0.6992
1832	0.7117
1841	0.7238
1850	0.714
1859	0.7205
1868	0.7566
1877	0.7695
1886	0.7776
1895	0.782
1904	0.7835
1913	0.7841
1922	0.7782
1931	0.7565
1940	0.7569
1949	0.7921
1958	0.8067
1967	0.8058
1976	0.8114
1985	0.8148
1994	0.8135
2003	0.7864
2012	0.7752
2021	0.7756
2030	0.7767
2039	0.7768
2048	0.7763
2057	0.776
2066	0.7756
2075	0.7751
2084	0.7748
2093	0.7749
2102	0.7754
2111	0.7765
2120	0.7785
2129	0.7828
2138	0.7841
2147	0.7841
2156	0.7836
2165	0.7828
2174	0.7819
2183	0.7797
2192	0.7769
2201	0.7727
2210	0.7685
2219	0.7649
2228	0.7617
2237	0.7586
2246	0.7558
2255	0.7548
2264	0.7525
2273	0.7463
2282	0.7438
2291	0.7419
2300	0.7471
2309	0.748
2318	0.7324
2327	0.7217
2336	0.7142
2345	0.7086
2354	0.7053
2363	0.7027
2372	0.7006
2381	0.6982
2390	0.692
2399	0.6838
2408	0.6742
2417	0.6629
2426	0.6512
2435	0.639
2444	0.6289
2453	0.6195
2462	0.6104
2471	0.5959
2480	0.5797
2489	0.5672
2498	0.5542
2507	0.5389
2516	0.5173
2525	0.4836
2534	0.444
2543	0.4095
2552	0.4045
2561	0.4074
2570	0.4105
2579	0.408
2588	0.4061
2597	0.4079
2606	0.407
2615	0.4009
2624	0.3904
2633	0.3739
2642	0.3559
2651	0.3379
2660	0.3199
2669	0.3158
2678	0.3264
2687	0.3468
2696	0.3613
2705	0.3654
2714	0.3653
2723	0.3639
2732	0.3678
2741	0.3705
2750	0.3687
2759	0.3631
2768	0.3542
2777	0.3424
2786	0.3305
2795	0.3176
2804	0.3024
2813	0.2831
2822	0.2669
2831	0.2565
2840	0.2478
2849	0.2325
2858	0.2154
2867	0.2008
2876	0.1857
2885	0.1695
2894	0.1554
2903	0.146
2912	0.1455
2921	0.1454
2930	0.1517
2939	0.1614
2948	0.1674
2957	0.164
2966	0.163
2975	0.162
2984	0.1604
2993	0.1572
3002	0.1535
3011	0.1496
3020	0.1467
3029	0.1443
3038	0.1439
3047	0.1484
3056	0.1566
3065	0.1601
3074	0.162
3083	0.1627
3092	0.1654
3101	0.174
3110	0.1838
3119	0.1983
3128	0.2191
3137	0.2425
3146	0.2628
3155	0.2803
3164	0.2906
3173	0.2998
3182	0.3105
3191	0.3231
3200	0.3382
3209	0.3574
3218	0.3776
3227	0.3984
3236	0.4229
3245	0.4485
3254	0.4704
3263	0.4921
3272	0.5143
3281	0.5367
3290	0.559
3299	0.5842
3308	0.6032
3317	0.6182
3326	0.6325
3335	0.6462
3344	0.6607
3353	0.6757
3362	0.6916
3371	0.7103
3380	0.73
3389	0.7478
3398	0.7639
3407	0.778
3416	0.7909
3425	0.8032
3434	0.8148
3443	0.8224
3452	0.8284
3461	0.8336
3470	0.838
3479	0.8413
3488	0.8423
3497	0.8406
3506	0.8375
3515	0.8322
3524	0.8296
3533	0.8373
3542	0.8565
3551	0.8724
3560	0.8783
3569	0.881
3578	0.8832
3587	0.8845
3596	0.8859
3605	0.8869
3614	0.8877
3623	0.8884
3632	0.8889
3641	0.8894
3650	0.8895
3659	0.8895
3668	0.89
3677	0.8906
3686	0.8915
3695	0.8918
3704	0.8924
3713	0.8976
3722	0.9016
3731	0.9
3740	0.8992
3749	0.8997
3758	0.8994
3767	0.8988
3776	0.899
3785	0.8996
3794	0.8998
