Infrared Spectrum: n-Decanoic acid
Formula: C10 H20 O2
CAS: 334-48-5
State: SOLUTION (10% CCl4 FOR 3800-1330, 10% CS2 FOR 1330-400 CM^-^1)
Class: COBLENTZ III
Instrument: BECKMAN IR-9 (GRATING)
Instrument parameters: ORDER CHANGES: 670, 1200, 2000 CM^-^1
Sampling: TRANSMISSION
Path length: 0.011 CM, 0.011 CM
Resolution: 2
Origin: DOW CHEMICAL COMPANY
1/CM	TRANSMITTANCE
3800	0.7809
3791	0.7818
3782	0.7812
3773	0.7822
3764	0.7824
3755	0.7824
3746	0.7821
3737	0.7834
3728	0.7834
3719	0.7827
3710	0.784
3701	0.785
3692	0.7847
3683	0.7843
3674	0.7849
3665	0.7854
3656	0.7859
3647	0.7861
3638	0.7867
3629	0.7871
3620	0.7884
3611	0.7887
3602	0.7885
3593	0.7894
3584	0.7898
3575	0.7884
3566	0.7867
3557	0.7816
3548	0.7641
3539	0.751
3530	0.7541
3521	0.7643
3512	0.7694
3503	0.7714
3494	0.771
3485	0.7691
3476	0.7669
3467	0.7639
3458	0.7606
3449	0.7556
3440	0.7507
3431	0.744
3422	0.7367
3413	0.7289
3404	0.7207
3395	0.7117
3386	0.7014
3377	0.6884
3368	0.6739
3359	0.6592
3350	0.6468
3341	0.6391
3332	0.6275
3323	0.6127
3314	0.597
3305	0.5818
3296	0.5633
3287	0.5446
3278	0.5271
3269	0.5092
3260	0.4914
3251	0.475
3242	0.4585
3233	0.4408
3224	0.4244
3215	0.4095
3206	0.394
3197	0.3773
3188	0.3599
3179	0.3411
3170	0.3188
3161	0.303
3152	0.2871
3143	0.2714
3134	0.2562
3125	0.2405
3116	0.2269
3107	0.2151
3098	0.2083
3089	0.2052
3080	0.2015
3071	0.1993
3062	0.1884
3053	0.1796
3044	0.1792
3035	0.1804
3026	0.1788
3017	0.1764
3008	0.1682
2999	0.1529
2990	0.1281
2981	0.0924
2972	0.0464
2963	0.0173
2954	0.015
2945	0.0072
2936	0.0042
2927	0.0062
2918	0.0119
2909	0.0291
2900	0.0542
2891	0.0735
2882	0.0626
2873	0.0408
2864	0.0184
2855	0.026
2846	0.1862
2837	0.2406
2828	0.2693
2819	0.2924
2810	0.3117
2801	0.3325
2792	0.351
2783	0.3637
2774	0.3682
2765	0.369
2756	0.3688
2747	0.3685
2738	0.3712
2729	0.3755
2720	0.3781
2711	0.3749
2702	0.3652
2693	0.3552
2684	0.3442
2675	0.3409
2666	0.3474
2657	0.359
2648	0.3674
2639	0.3757
2630	0.3845
2621	0.3936
2612	0.4024
2603	0.4109
2594	0.4182
2585	0.4255
2576	0.4342
2567	0.4436
2558	0.4527
2549	0.4613
2540	0.4712
2531	0.4886
2522	0.5063
2513	0.5237
2504	0.5389
2495	0.554
2486	0.5687
2477	0.5839
2468	0.5975
2459	0.611
2450	0.6225
2441	0.6336
2432	0.6421
2423	0.6495
2414	0.657
2405	0.6652
2396	0.6712
2387	0.6772
2378	0.6836
2369	0.6874
2360	0.69
2351	0.6939
2342	0.6963
2333	0.6983
2324	0.7027
2315	0.7044
2306	0.7061
2297	0.7087
2288	0.7119
2279	0.7146
2270	0.7161
2261	0.7177
2252	0.7199
2243	0.7221
2234	0.7244
2225	0.7264
2216	0.7277
2207	0.7289
2198	0.7302
2189	0.7306
2180	0.732
2171	0.7339
2162	0.7341
2153	0.7354
2144	0.7365
2135	0.7369
2126	0.7373
2117	0.7377
2108	0.7381
2099	0.7384
2090	0.7385
2081	0.7389
2072	0.7383
2063	0.7373
2054	0.7368
2045	0.7333
2036	0.7309
2027	0.7289
2018	0.7276
2009	0.726
2000	0.7133
1991	0.7194
1982	0.7215
1973	0.72
1964	0.7186
1955	0.7181
1946	0.7147
1937	0.7131
1928	0.7113
1919	0.7096
1910	0.7036
1901	0.6984
1892	0.6924
1883	0.6874
1874	0.6831
1865	0.6778
1856	0.6714
1847	0.6651
1838	0.6595
1829	0.6526
1820	0.6451
1811	0.6384
1802	0.6298
1793	0.6219
1784	0.6136
1775	0.5947
1766	0.5313
1757	0.4843
1748	0.4383
1739	0.3631
1730	0.2179
1721	0.0045
1712	0
1703	0.003
1694	0.1244
1685	0.3212
1676	0.4299
1667	0.5223
1658	0.5815
1649	0.6225
1640	0.65
1631	0.6713
1622	0.6849
1613	0.6931
1604	0.6876
1595	0.6751
1586	0.6326
1577	0.6299
1568	0.6051
1559	0.5535
1550	0.5827
1541	0.6333
1532	0.6466
1523	0.6532
1514	0.6642
1505	0.6644
1496	0.6592
1487	0.643
1478	0.6145
1469	0.2442
1460	0.2279
1451	0.3155
1442	0.2944
1433	0.2721
1424	0.2448
1415	0.1596
1406	0.3123
1397	0.5331
1388	0.5916
1379	0.4845
1370	0.5845
1361	0.589
1352	0.5444
1343	0.4866
1334	0.4705
1325	0.4147
1316	0.3433
1307	0.283
1298	0.2222
1289	0.1854
1280	0.18
1271	0.2542
1262	0.2946
1253	0.2667
1244	0.2957
1235	0.2987
1226	0.3077
1217	0.3376
1208	0.4111
1199	0.4873
1190	0.5313
1181	0.585
1172	0.5999
1163	0.6094
1154	0.6483
1145	0.6965
1136	0.714
1127	0.6939
1118	0.5922
1109	0.5819
1100	0.6534
1091	0.7121
1082	0.7188
1073	0.7024
1064	0.6833
1055	0.6863
1046	0.7017
1037	0.711
1028	0.7153
1019	0.7194
1010	0.7181
1001	0.7046
992	0.6812
983	0.6409
974	0.5841
965	0.4813
956	0.3827
947	0.286
938	0.2684
929	0.2994
920	0.3507
911	0.4136
902	0.4699
893	0.4992
884	0.5426
875	0.5711
866	0.5952
857	0.6364
848	0.666
839	0.6754
830	0.7016
821	0.7285
812	0.7331
803	0.7335
794	0.7351
785	0.7423
776	0.7414
767	0.7265
758	0.7186
749	0.7283
740	0.7064
731	0.6786
722	0.583
713	0.7284
704	0.7698
695	0.7689
686	0.7571
677	0.7308
668	0.7376
659	0.7221
650	0.7296
641	0.7234
632	0.7128
623	0.7378
614	0.7453
605	0.7389
596	0.7673
587	0.791
578	0.8025
569	0.806
560	0.8023
551	0.794
542	0.7864
533	0.7793
524	0.7691
515	0.7559
506	0.7296
497	0.6958
488	0.6483
479	0.6551
470	0.6552
461	0.6513
452	0.6372
443	0.608
434	0.5567
425	0.4428
416	0.2319
407	0.147
398	0.1949
