Infrared Spectrum: FURAN, TETRAHYDRO-2,2,4,4-TETRAMETHYL-
Formula: C8 H16 O
CAS: 3358-28-9
Boiling point: 118 C AT 727 mmHg
Class: COBLENTZ
Instrument: Not specified, most likely a prism, grating, or hybrid spectrometer.
Sampling: TRANSMISSION
Path length: SMEAR
Resolution: 4
Origin: TENNESSEE EASTMAN COMPANY, RESEARCH LABORATORIES
MICROMETERS	TRANSMITTANCE
2.034	0.928
2.07491	0.929
2.11583	0.933
2.15674	0.936
2.19766	0.938
2.23857	0.926
2.27949	0.886
2.3204	0.881
2.36132	0.885
2.40223	0.886
2.44315	0.89
2.48406	0.904
2.52498	0.914
2.56589	0.917
2.60681	0.917
2.64772	0.917
2.68864	0.922
2.72955	0.914
2.77046	0.885
2.81138	0.861
2.85229	0.851
2.89321	0.844
2.93412	0.861
2.97504	0.869
3.01595	0.875
3.05687	0.881
3.09778	0.881
3.1387	0.863
3.17961	0.866
3.22053	0.892
3.26144	0.895
3.30236	0.859
3.34327	0.541
3.38419	0
3.4251	0.145
3.46601	0.203
3.50693	0.236
3.54784	0.419
3.58876	0.811
3.62967	0.864
3.67059	0.856
3.7115	0.852
3.75242	0.849
3.79333	0.883
3.83425	0.9
3.87516	0.916
3.91608	0.922
3.95699	0.934
3.99791	0.938
4.03882	0.941
4.07974	0.945
4.12065	0.945
4.16156	0.945
4.20248	0.94
4.24339	0.946
4.28431	0.945
4.32522	0.941
4.36614	0.938
4.40705	0.945
4.44797	0.943
4.48888	0.946
4.5298	0.95
4.57071	0.952
4.61163	0.95
4.65254	0.943
4.69346	0.943
4.73437	0.931
4.77529	0.943
4.8162	0.946
4.85711	0.948
4.89803	0.952
4.93894	0.95
4.97986	0.948
5.02077	0.957
5.06169	0.957
5.1026	0.953
5.14352	0.952
5.18443	0.941
5.22535	0.938
5.26626	0.953
5.30718	0.958
5.34809	0.962
5.38901	0.96
5.42992	0.953
5.47084	0.945
5.51175	0.955
5.55266	0.96
5.59358	0.953
5.63449	0.952
5.67541	0.94
5.71632	0.924
5.75724	0.902
5.79815	0.904
5.83907	0.909
5.87998	0.916
5.9209	0.902
5.96181	0.897
6.00273	0.897
6.04364	0.902
6.08456	0.881
6.12547	0.885
6.16639	0.902
6.2073	0.912
6.24821	0.933
6.28913	0.938
6.33004	0.946
6.37096	0.936
6.41187	0.926
6.45279	0.931
6.4937	0.914
6.53462	0.924
6.57553	0.897
6.61645	0.89
6.65736	0.861
6.69828	0.796
6.73919	0.597
6.78011	0.407
6.82102	0.351
6.86194	0.234
6.90285	0.508
6.94376	0.69
6.98468	0.775
7.02559	0.811
7.06651	0.845
7.10742	0.851
7.14834	0.815
7.18925	0.618
7.23017	0.407
7.27108	0.351
7.312	0.178
7.35291	0.327
7.39383	0.686
7.43474	0.727
7.47566	0.835
7.51657	0.88
7.55749	0.885
7.5984	0.864
7.63931	0.808
7.68023	0.671
7.72114	0.404
7.76206	0.339
7.80297	0.511
7.84389	0.625
7.8848	0.515
7.92572	0.636
7.96663	0.722
8.00755	0.714
8.04846	0.554
8.08938	0.369
8.13029	0.318
8.17121	0.392
8.21212	0.558
8.25304	0.549
8.29395	0.455
8.33486	0.635
8.37578	0.678
8.41669	0.674
8.45761	0.767
8.49852	0.801
8.53944	0.803
8.58035	0.785
8.62127	0.741
8.66218	0.642
8.7031	0.517
8.74401	0.378
8.78493	0.402
8.82584	0.59
8.86676	0.681
8.90767	0.736
8.94859	0.758
8.9895	0.768
9.03041	0.761
9.07133	0.731
9.11224	0.636
9.15316	0.481
9.19407	0.342
9.23499	0.395
9.2759	0.452
9.31682	0.424
9.35773	0.273
9.39865	0.109
9.43956	0.03
9.48048	0.029
9.52139	0.128
9.56231	0.325
9.60322	0.511
9.64414	0.619
9.68505	0.684
9.72596	0.729
9.76688	0.768
9.80779	0.797
9.84871	0.803
9.88962	0.794
9.93054	0.77
9.97145	0.773
10.0124	0.806
10.0533	0.823
10.0942	0.821
10.1351	0.803
10.176	0.804
10.2169	0.827
10.2579	0.837
10.2988	0.835
10.3397	0.803
10.3806	0.777
10.4215	0.791
10.4624	0.803
10.5033	0.775
10.5443	0.705
10.5852	0.691
10.6261	0.743
10.667	0.727
10.7079	0.772
10.7488	0.816
10.7897	0.825
10.8307	0.823
10.8716	0.815
10.9125	0.76
10.9534	0.599
10.9943	0.578
11.0352	0.719
11.0762	0.806
11.1171	0.844
11.158	0.854
11.1989	0.857
11.2398	0.84
11.2807	0.816
11.3216	0.782
11.3626	0.765
11.4035	0.739
11.4444	0.669
11.4853	0.513
11.5262	0.414
11.5671	0.518
11.608	0.674
11.649	0.767
11.6899	0.82
11.7308	0.851
11.7717	0.868
11.8126	0.881
11.8535	0.892
11.8944	0.895
11.9354	0.9
11.9763	0.902
12.0172	0.905
12.0581	0.909
12.099	0.909
12.1399	0.91
12.1808	0.91
12.2218	0.912
12.2627	0.912
12.3036	0.91
12.3445	0.907
12.3854	0.905
12.4263	0.902
12.4672	0.893
12.5082	0.886
12.5491	0.869
12.59	0.84
12.6309	0.785
12.6718	0.767
12.7127	0.785
12.7537	0.772
12.7946	0.708
12.8355	0.554
12.8764	0.357
12.9173	0.328
12.9582	0.503
12.9991	0.667
13.0401	0.756
13.081	0.803
13.1219	0.827
13.1628	0.842
13.2037	0.852
13.2446	0.859
13.2855	0.861
13.3265	0.866
13.3674	0.869
13.4083	0.869
13.4492	0.869
13.4901	0.869
13.531	0.869
13.5719	0.866
13.6129	0.864
13.6538	0.864
13.6947	0.863
13.7356	0.859
13.7765	0.856
13.8174	0.852
13.8584	0.851
13.8993	0.849
13.9402	0.845
13.9811	0.844
14.022	0.839
14.0629	0.839
14.1038	0.835
14.1448	0.83
14.1857	0.827
14.2266	0.823
14.2675	0.82
14.3084	0.813
14.3493	0.813
14.3902	0.809
14.4312	0.808
14.4721	0.801
14.513	0.799
14.5539	0.794
14.5948	0.794
14.6357	0.785
14.6766	0.78
14.7176	0.775
14.7585	0.772
14.7994	0.768
14.8403	0.765
14.8812	0.758
14.9221	0.755
14.963	0.751
15.004	0.743
15.0449	0.72
15.0858	0.354
15.1267	0.744
15.1676	0.717
15.2085	0.714
15.2495	0.707
15.2904	0.702
15.3313	0.7
15.3722	0.696
15.4131	0.693
15.454	0.69
15.4949	0.683
15.5359	0.679
15.5768	0.672
15.6177	0.669
15.6586	0.662
15.6995	0.652
15.7404	0.65
15.7813	0.635
15.8223	0.63
15.8632	0.63
15.9041	0.633
15.945	0.645
