Infrared Spectrum: LAEVO DESOXYEPHEDRINE BASE
Formula: C10 H15 N
CAS: 33817-09-3
State: LIQUID
Class: COBLENTZ
Instrument: Not specified, most likely a prism, grating, or hybrid spectrometer.
Sampling: TRANSMISSION
Path length: 0.00125 CM
Resolution: 4
MICROMETERS	TRANSMITTANCE
2.194	0.873
2.2274	0.88
2.2608	0.881
2.2942	0.871
2.32761	0.862
2.36101	0.871
2.39441	0.87
2.42781	0.873
2.46121	0.862
2.49461	0.852
2.52802	0.873
2.56142	0.876
2.59482	0.876
2.62822	0.876
2.66162	0.88
2.69502	0.88
2.72843	0.853
2.76183	0.847
2.79523	0.83
2.82863	0.793
2.86203	0.755
2.89543	0.724
2.92884	0.701
2.96224	0.684
2.99564	0.625
3.02904	0.612
3.06244	0.635
3.09584	0.678
3.12925	0.701
3.16265	0.709
3.19605	0.717
3.22945	0.638
3.26285	0.528
3.29625	0.4
3.32965	0.489
3.36306	0.183
3.39646	0.16
3.42986	0.18
3.46326	0.267
3.49666	0.282
3.53006	0.334
3.56347	0.408
3.59687	0.285
3.63027	0.559
3.66367	0.701
3.69707	0.76
3.73047	0.786
3.76388	0.783
3.79728	0.775
3.83068	0.768
3.86408	0.775
3.89748	0.806
3.93088	0.821
3.96429	0.83
3.99769	0.84
4.03109	0.848
4.06449	0.853
4.09789	0.86
4.13129	0.863
4.1647	0.866
4.1981	0.86
4.2315	0.866
4.2649	0.875
4.2983	0.871
4.3317	0.865
4.3651	0.862
4.39851	0.868
4.43191	0.868
4.46531	0.863
4.49871	0.86
4.53211	0.86
4.56551	0.862
4.59892	0.865
4.63232	0.866
4.66572	0.868
4.69912	0.868
4.73252	0.87
4.76592	0.87
4.79933	0.87
4.83273	0.87
4.86613	0.87
4.89953	0.871
4.93293	0.873
4.96633	0.873
4.99974	0.87
5.03314	0.865
5.06654	0.855
5.09994	0.832
5.13334	0.812
5.16674	0.814
5.20014	0.844
5.23355	0.858
5.26695	0.847
5.30035	0.83
5.33375	0.819
5.36715	0.824
5.40055	0.845
5.43396	0.858
5.46736	0.848
5.50076	0.829
5.53416	0.817
5.56756	0.821
5.60096	0.832
5.63437	0.845
5.66777	0.844
5.70117	0.829
5.73457	0.825
5.76797	0.839
5.80137	0.844
5.83478	0.835
5.86818	0.824
5.90158	0.822
5.93498	0.804
5.96838	0.783
6.00178	0.76
6.03519	0.742
6.06859	0.737
6.10199	0.729
6.13539	0.715
6.16879	0.729
6.20219	0.658
6.23559	0.535
6.269	0.602
6.3024	0.658
6.3358	0.665
6.3692	0.696
6.4026	0.717
6.436	0.732
6.46941	0.737
6.50281	0.747
6.53621	0.756
6.56961	0.758
6.60301	0.733
6.63641	0.669
6.66982	0.561
6.70322	0.262
6.73662	0.338
6.77002	0.374
6.80342	0.292
6.83682	0.397
6.87023	0.33
6.90363	0.154
6.93703	0.195
6.97043	0.303
7.00383	0.487
7.03723	0.605
7.07064	0.632
7.10404	0.673
7.13744	0.696
7.17084	0.709
7.20424	0.704
7.23764	0.656
7.27104	0.535
7.30445	0.392
7.33785	0.41
7.37125	0.615
7.40465	0.61
7.43805	0.525
7.47145	0.4
7.50486	0.446
7.53826	0.55
7.57166	0.643
7.60506	0.673
7.63846	0.719
7.67186	0.753
7.70527	0.76
7.73867	0.745
7.77207	0.714
7.80547	0.697
7.83887	0.709
7.87227	0.722
7.90568	0.743
7.93908	0.752
7.97248	0.775
8.00588	0.788
8.03928	0.791
8.07268	0.793
8.10609	0.784
8.13949	0.773
8.17289	0.74
8.20629	0.702
8.23969	0.665
8.27309	0.671
8.30649	0.696
8.3399	0.699
8.3733	0.697
8.4067	0.709
8.4401	0.696
8.4735	0.668
8.5069	0.605
8.54031	0.589
8.57371	0.568
8.60711	0.528
8.64051	0.436
8.67391	0.338
8.70731	0.297
8.74072	0.364
8.77412	0.415
8.80752	0.436
8.84092	0.443
8.87432	0.444
8.90772	0.444
8.94113	0.449
8.97453	0.469
9.00793	0.482
9.04133	0.535
9.07473	0.582
9.10813	0.627
9.14153	0.637
9.17494	0.628
9.20834	0.607
9.24174	0.566
9.27514	0.566
9.30854	0.568
9.34194	0.495
9.37535	0.433
9.40875	0.523
9.44215	0.633
9.47555	0.645
9.50895	0.623
9.54235	0.635
9.57576	0.64
9.60916	0.656
9.64256	0.669
9.67596	0.658
9.70936	0.589
9.74276	0.484
9.77617	0.62
9.80957	0.668
9.84297	0.719
9.87637	0.747
9.90977	0.765
9.94317	0.77
9.97658	0.778
10.01	0.783
10.0434	0.799
10.0768	0.806
10.1102	0.807
10.1436	0.807
10.177	0.806
10.2104	0.806
10.2438	0.812
10.2772	0.812
10.3106	0.816
10.344	0.812
10.3774	0.814
10.4108	0.816
10.4442	0.819
10.4776	0.825
10.511	0.825
10.5444	0.824
10.5778	0.817
10.6112	0.807
10.6446	0.804
10.678	0.798
10.7114	0.793
10.7448	0.789
10.7782	0.789
10.8116	0.793
10.845	0.793
10.8784	0.784
10.9118	0.768
10.9452	0.747
10.9786	0.724
11.012	0.707
11.0454	0.715
11.0788	0.742
11.1122	0.756
11.1456	0.768
11.179	0.773
11.2124	0.771
11.2458	0.766
11.2792	0.76
11.3126	0.755
11.346	0.76
11.3794	0.768
11.4128	0.771
11.4462	0.77
11.4796	0.768
11.513	0.765
11.5465	0.747
11.5799	0.743
11.6133	0.724
11.6467	0.717
11.6801	0.699
11.7135	0.684
11.7469	0.669
11.7803	0.651
11.8137	0.633
11.8471	0.617
11.8805	0.62
11.9139	0.627
11.9473	0.635
11.9807	0.645
12.0141	0.646
12.0475	0.655
12.0809	0.658
12.1143	0.661
12.1477	0.658
12.1811	0.673
12.2145	0.681
12.2479	0.688
12.2813	0.688
12.3147	0.681
12.3481	0.676
12.3815	0.671
12.4149	0.669
12.4483	0.661
12.4817	0.648
12.5151	0.64
12.5485	0.623
12.5819	0.596
12.6153	0.579
12.6487	0.548
12.6821	0.545
12.7155	0.553
12.7489	0.556
12.7823	0.556
12.8157	0.55
12.8491	0.53
12.8825	0.513
12.9159	0.497
12.9493	0.474
12.9827	0.448
13.0161	0.428
13.0495	0.407
13.0829	0.377
13.1163	0.353
13.1497	0.32
13.1831	0.3
13.2165	0.277
13.2499	0.256
13.2833	0.234
13.3167	0.215
13.3501	0.2
13.3835	0.177
13.4169	0.157
13.4503	0.147
13.4837	0.128
13.5171	0.113
13.5505	0.124
13.5839	0.144
13.6174	0.157
13.6508	0.17
13.6842	0.18
13.7176	0.211
13.751	0.231
13.7844	0.252
13.8178	0.274
13.8512	0.284
13.8846	0.298
13.918	0.315
13.9514	0.32
13.9848	0.325
14.0182	0.323
14.0516	0.315
14.085	0.297
14.1184	0.264
14.1518	0.22
14.1852	0.154
14.2186	0.082
14.252	0.041
14.2854	0.031
14.3188	0.032
14.3522	0.049
14.3856	0.123
14.419	0.203
14.4524	0.282
14.4858	0.331
14.5192	0.367
14.5526	0.397
14.586	0.407
14.6194	0.428
14.6528	0.441
14.6862	0.446
14.7196	0.463
14.753	0.467
14.7864	0.479
14.8198	0.494
14.8532	0.499
14.8866	0.509
14.92	0.51
14.9534	0.522
14.9868	0.528
15.0202	0.53
15.0536	0.533
15.087	0.533
15.1204	0.535
15.1538	0.536
15.1872	0.54
15.2206	0.54
15.254	0.54
15.2874	0.54
15.3208	0.538
15.3542	0.536
15.3876	0.538
15.421	0.535
15.4544	0.53
