Infrared Spectrum: 4-CHLORO-Alpha-METHYLBENZYL ALCOHOL
Formula: C8 H9 Cl O
CAS: 3391-10-4
State: SOLUTION (10% CCl4 FOR 2.5-7.5, 10% CS2 FOR 7.5-15 MICRON)
Class: COBLENTZ
Instrument: Not specified, most likely a prism, grating, or hybrid spectrometer.
Sampling: TRANSMISSION
Path length: 0.01 CM, 0.01 CM
Resolution: 4
Origin: DOW CHEMICAL COMPANY
MICROMETERS	TRANSMITTANCE
2.027	0.898
2.06617	0.898
2.10535	0.898
2.14452	0.898
2.18369	0.897
2.22286	0.898
2.26204	0.893
2.30121	0.893
2.34038	0.897
2.37955	0.897
2.41873	0.888
2.4579	0.888
2.49707	0.897
2.53624	0.897
2.57542	0.898
2.61459	0.901
2.65376	0.898
2.69293	0.872
2.73211	0.777
2.77128	0.697
2.81045	0.727
2.84962	0.616
2.8888	0.537
2.92797	0.473
2.96714	0.45
3.00631	0.486
3.04549	0.578
3.08466	0.669
3.12383	0.753
3.163	0.792
3.20218	0.82
3.24135	0.802
3.28052	0.795
3.31969	0.74
3.35887	0.532
3.39804	0.735
3.43721	0.673
3.47638	0.733
3.51556	0.833
3.55473	0.859
3.5939	0.875
3.63307	0.88
3.67225	0.88
3.71142	0.88
3.75059	0.887
3.78977	0.888
3.82894	0.89
3.86811	0.897
3.90728	0.898
3.94646	0.903
3.98563	0.9
4.0248	0.908
4.06397	0.908
4.10315	0.908
4.14232	0.906
4.18149	0.897
4.22066	0.898
4.25984	0.901
4.29901	0.905
4.33818	0.892
4.37735	0.898
4.41653	0.91
4.4557	0.919
4.49487	0.921
4.53404	0.921
4.57322	0.923
4.61239	0.923
4.65156	0.923
4.69073	0.923
4.72991	0.924
4.76908	0.923
4.80825	0.928
4.84742	0.923
4.8866	0.923
4.92577	0.921
4.96494	0.916
5.00411	0.911
5.04329	0.915
5.08246	0.913
5.12163	0.915
5.1608	0.915
5.19998	0.893
5.23915	0.856
5.27832	0.859
5.31749	0.901
5.35667	0.911
5.39584	0.918
5.43501	0.915
5.47418	0.921
5.51336	0.911
5.55253	0.905
5.5917	0.895
5.63088	0.9
5.67005	0.906
5.70922	0.908
5.74839	0.913
5.78757	0.91
5.82674	0.91
5.86591	0.905
5.90508	0.9
5.94426	0.89
5.98343	0.875
6.0226	0.843
6.06177	0.843
6.10095	0.854
6.14012	0.834
6.17929	0.767
6.21846	0.651
6.25764	0.599
6.29681	0.619
6.33598	0.606
6.37515	0.593
6.41433	0.531
6.4535	0.519
6.49267	0.591
6.53184	0.651
6.57102	0.676
6.61019	0.66
6.64936	0.455
6.68853	0.251
6.72771	0.473
6.76688	0.658
6.80605	0.709
6.84522	0.616
6.8844	0.609
6.92357	0.66
6.96274	0.7
7.00191	0.683
7.04109	0.576
7.08026	0.524
7.11943	0.57
7.1586	0.658
7.19778	0.651
7.23695	0.576
7.27612	0.514
7.3153	0.622
7.35447	0.651
7.39364	0.663
7.43281	0.653
7.47199	0.668
7.51116	0.715
7.55033	0.745
7.5895	0.756
7.62868	0.736
7.66785	0.684
7.70702	0.62
7.74619	0.638
7.78537	0.674
7.82454	0.668
7.86371	0.668
7.90288	0.674
7.94206	0.63
7.98123	0.607
8.0204	0.704
8.05957	0.764
8.09875	0.792
8.13792	0.807
8.17709	0.82
8.21626	0.8
8.25544	0.73
8.29461	0.65
8.33378	0.655
8.37295	0.736
8.41213	0.754
8.4513	0.759
8.49047	0.767
8.52964	0.792
8.56882	0.815
8.60799	0.834
8.64716	0.839
8.68633	0.849
8.72551	0.851
8.76468	0.831
8.80385	0.802
8.84302	0.781
8.8822	0.764
8.92137	0.699
8.96054	0.607
8.99972	0.537
9.03889	0.5
9.07806	0.406
9.11723	0.187
9.15641	0.104
9.19558	0.084
9.23475	0.114
9.27392	0.181
9.3131	0.258
9.35227	0.315
9.39144	0.39
9.43061	0.48
9.46979	0.549
9.50896	0.578
9.54813	0.637
9.5873	0.717
9.62648	0.733
9.66565	0.738
9.70482	0.763
9.74399	0.756
9.78317	0.65
9.82234	0.444
9.86151	0.215
9.90068	0.315
9.93986	0.431
9.97903	0.49
10.0182	0.562
10.0574	0.712
10.0965	0.787
10.1357	0.825
10.1749	0.854
10.2141	0.872
10.2532	0.88
10.2924	0.887
10.3316	0.887
10.3708	0.883
10.4099	0.877
10.4491	0.872
10.4883	0.869
10.5274	0.849
10.5666	0.831
10.6058	0.826
10.645	0.833
10.6841	0.856
10.7233	0.874
10.7625	0.877
10.8017	0.875
10.8408	0.869
10.88	0.852
10.9192	0.823
10.9583	0.777
10.9975	0.696
11.0367	0.602
11.0759	0.539
11.115	0.488
11.1542	0.468
11.1934	0.508
11.2326	0.553
11.2717	0.658
11.3109	0.728
11.3501	0.759
11.3892	0.779
11.4284	0.79
11.4676	0.792
11.5068	0.785
11.5459	0.777
11.5851	0.763
11.6243	0.751
11.6634	0.743
11.7026	0.74
11.7418	0.741
11.781	0.748
11.8201	0.754
11.8593	0.753
11.8985	0.722
11.9377	0.643
11.9768	0.514
12.016	0.282
12.0552	0.096
12.0943	0.068
12.1335	0.119
12.1727	0.196
12.2119	0.366
12.251	0.526
12.2902	0.669
12.3294	0.741
12.3686	0.774
12.4077	0.8
12.4469	0.821
12.4861	0.825
12.5252	0.826
12.5644	0.828
12.6036	0.825
12.6428	0.807
12.6819	0.782
12.7211	0.741
12.7603	0.681
12.7995	0.616
12.8386	0.576
12.8778	0.553
12.917	0.58
12.9561	0.637
12.9953	0.702
13.0345	0.735
13.0737	0.754
13.1128	0.756
13.152	0.733
13.1912	0.687
13.2304	0.604
13.2695	0.56
13.3087	0.563
13.3479	0.661
13.387	0.722
13.4262	0.745
13.4654	0.756
13.5046	0.758
13.5437	0.754
13.5829	0.753
13.6221	0.745
13.6612	0.733
13.7004	0.723
13.7396	0.704
13.7788	0.683
13.8179	0.658
13.8571	0.635
13.8963	0.604
13.9355	0.602
13.9746	0.622
14.0138	0.653
14.053	0.668
14.0921	0.676
14.1313	0.674
14.1705	0.669
14.2097	0.661
14.2488	0.65
14.288	0.64
14.3272	0.624
14.3664	0.612
14.4055	0.599
14.4447	0.593
14.4839	0.589
14.523	0.586
14.5622	0.589
14.6014	0.589
14.6406	0.584
14.6797	0.578
14.7189	0.568
14.7581	0.562
14.7973	0.552
14.8364	0.552
14.8756	0.544
14.9148	0.54
14.9539	0.534
14.9931	0.534
15.0323	0.516
15.0715	0.503
15.1106	0.488
15.1498	0.478
15.189	0.464
15.2282	0.46
15.2673	0.45
15.3065	0.444
15.3457	0.439
15.3848	0.429
15.424	0.434
15.4632	0.428
15.5024	0.423
15.5415	0.419
15.5807	0.418
15.6199	0.421
15.659	0.415
15.6982	0.413
15.7374	0.413
15.7766	0.415
15.8157	0.415
15.8549	0.413
15.8941	0.408
