Infrared Spectrum: BIPHENYL-4,4'-DI-SULFONYL-CHLORIDE
Formula: C12 H8 Cl2 S2 O4
CAS: 3406-84-6
State: SOLID (1.0% IN KBr PELLET)
Melting point: 209 C
Class: COBLENTZ
Instrument: Not specified, most likely a prism, grating, or hybrid spectrometer.
Sampling: TRANSMISSION
Path length: 0.0355 CM THICK
Resolution: 4
Origin: ANDERSON PHYSICAL LABORATORY
1/CM	TRANSMITTANCE
664.691	0.797
673.113	0.78
681.534	0.7311
689.956	0.6381
698.378	0.2743
706.8	0.1111
715.221	0.2379
723.643	0.6399
732.065	0.832
740.487	0.874
748.908	0.882
757.33	0.891
765.752	0.902
774.174	0.897
782.595	0.883
791.017	0.868
799.439	0.807
807.86	0.5921
816.282	0.161
824.704	0.741
833.126	0.928
841.547	0.931
849.969	0.928
858.391	0.955
866.813	0.967
875.234	0.953
883.656	0.952
892.078	0.952
900.5	0.953
908.921	0.962
917.343	0.967
925.765	0.958
934.187	0.949
942.608	0.937
951.03	0.92
959.452	0.892
967.873	0.9
976.295	0.882
984.717	0.84
993.139	0.716
1001.56	0.608
1009.98	0.826
1018.4	0.8639
1026.83	0.856
1035.25	0.811
1043.67	0.813
1052.09	0.797
1060.51	0.762
1068.93	0.691
1077.36	0.4559
1085.78	0.3551
1094.2	0.749
1102.62	0.702
1111.04	0.668
1119.46	0.643
1127.89	0.577
1136.31	0.502
1144.73	0.362
1153.15	0.267
1161.57	0.132
1170	0.059
1178.42	0.086
1186.84	0.2129
1195.26	0.167
1203.68	0.4049
1212.1	0.6
1220.53	0.705
1228.95	0.758
1237.37	0.785
1245.79	0.816
1254.21	0.825
1262.63	0.808
1271.06	0.726
1279.48	0.7969
1287.9	0.817
1296.32	0.801
1304.74	0.768
1313.16	0.725
1321.59	0.674
1330.01	0.62
1338.43	0.547
1346.85	0.446
1355.27	0.313
1363.69	0.247
1372.12	0.065
1380.54	0.089
1388.96	0.304
1397.38	0.447
1405.8	0.652
1414.23	0.779
1422.65	0.847
1431.07	0.882
1439.49	0.913
1447.91	0.919
1456.33	0.908
1464.76	0.901
1473.18	0.87
1481.6	0.774
1490.02	0.91
1498.44	0.902
1506.86	0.891
1515.29	0.885
1523.71	0.885
1532.13	0.88
1540.55	0.856
1548.97	0.843
1557.39	0.765
1565.82	0.689
1574.24	0.749
1582.66	0.6279
1591.08	0.292
1599.5	0.7979
1607.93	0.944
1616.35	0.941
1624.77	0.937
1633.19	0.919
1641.61	0.901
1650.03	0.897
1658.46	0.905
1666.88	0.905
1675.3	0.905
1683.72	0.91
1692.14	0.913
1700.56	0.907
1708.99	0.905
1717.41	0.905
1725.83	0.9
1734.25	0.897
1742.67	0.895
1751.09	0.894
1759.52	0.891
1767.94	0.88
1776.36	0.871
1784.78	0.853
1793.2	0.853
1801.63	0.879
1810.05	0.885
1818.47	0.885
1826.89	0.883
1835.31	0.877
1843.73	0.874
1852.16	0.87
1860.58	0.865
1869	0.864
1877.42	0.859
1885.84	0.855
1894.26	0.855
1902.69	0.849
1911.11	0.822
1919.53	0.807
1927.95	0.816
1936.37	0.819
1944.79	0.838
1953.22	0.847
1961.64	0.846
1970.06	0.841
1978.48	0.838
1986.9	0.838
1995.33	0.835
2003.75	0.832
2012.17	0.8275
2020.59	0.824
2029.01	0.8205
2037.43	0.8169
2045.86	0.8137
2054.28	0.8105
2062.7	0.8084
2071.12	0.8069
2079.54	0.8034
2087.96	0.8004
2096.39	0.7984
2104.81	0.7968
2113.23	0.793
2121.65	0.789
2130.07	0.7807
2138.49	0.7758
2146.92	0.7729
2155.34	0.7687
2163.76	0.768
2172.18	0.768
2180.6	0.768
2189.02	0.767
2197.45	0.7641
2205.87	0.7583
2214.29	0.7512
2222.71	0.747
2231.13	0.7431
2239.56	0.7408
2247.98	0.7376
2256.4	0.737
2264.82	0.7351
2273.24	0.7318
2281.66	0.7266
2290.09	0.723
2298.51	0.72
2306.93	0.719
2315.35	0.719
2323.77	0.719
2332.19	0.719
2340.62	0.7184
2349.04	0.717
2357.46	0.717
2365.88	0.717
2374.3	0.717
2382.72	0.717
2391.15	0.7162
2399.57	0.7138
2407.99	0.709
2416.41	0.7032
2424.83	0.7002
2433.26	0.6979
2441.68	0.695
2450.1	0.6927
2458.52	0.6884
2466.94	0.6847
2475.36	0.6788
2483.79	0.676
2492.21	0.6731
2500.63	0.6665
2509.05	0.661
2517.47	0.6583
2525.89	0.658
2534.32	0.656
2542.74	0.655
2551.16	0.6536
2559.58	0.653
2568	0.6516
2576.42	0.65
2584.85	0.65
2593.27	0.65
2601.69	0.65
2610.11	0.649
2618.53	0.6462
2626.96	0.641
2635.38	0.6377
2643.8	0.635
2652.22	0.634
2660.64	0.632
2669.06	0.632
2677.49	0.6299
2685.91	0.629
2694.33	0.6259
2702.75	0.6214
2711.17	0.6194
2719.59	0.6173
2728.02	0.616
2736.44	0.614
2744.86	0.6112
2753.28	0.607
2761.7	0.6049
2770.12	0.604
2778.55	0.604
2786.97	0.604
2795.39	0.602
2803.81	0.6006
2812.23	0.5957
2820.66	0.594
2829.08	0.592
2837.5	0.5901
2845.92	0.5883
2854.34	0.5861
2862.76	0.5846
2871.19	0.582
2879.61	0.58
2888.03	0.579
2896.45	0.5763
2904.87	0.572
2913.29	0.5657
2921.72	0.562
2930.14	0.5605
2938.56	0.559
2946.98	0.559
2955.4	0.559
2963.82	0.5574
2972.25	0.556
2980.67	0.555
2989.09	0.5529
2997.51	0.5478
3005.93	0.5383
3014.35	0.5325
3022.78	0.5259
3031.2	0.5243
3039.62	0.5208
3048.04	0.52
3056.46	0.519
3064.89	0.5166
3073.31	0.5117
3081.73	0.511
3090.15	0.5113
3098.57	0.5134
3106.99	0.517
3115.42	0.519
3123.84	0.52
3132.26	0.52
3140.68	0.52
3149.1	0.52
3157.52	0.52
3165.95	0.519
3174.37	0.519
3182.79	0.5171
3191.21	0.516
3199.63	0.5135
3208.05	0.513
3216.48	0.511
3224.9	0.511
3233.32	0.51
3241.74	0.5084
3250.16	0.505
3258.59	0.502
3267.01	0.501
3275.43	0.5002
3283.85	0.4969
3292.27	0.494
3300.69	0.4903
3309.12	0.4882
3317.54	0.4848
3325.96	0.4813
3334.38	0.4778
3342.8	0.4743
3351.22	0.47
3359.65	0.468
3368.07	0.467
3376.49	0.465
3384.91	0.465
3393.33	0.465
3401.75	0.4643
3410.18	0.464
3418.6	0.464
3427.02	0.464
3435.44	0.464
3443.86	0.464
3452.29	0.464
3460.71	0.464
3469.13	0.464
3477.55	0.464
3485.97	0.464
3494.39	0.464
3502.82	0.464
3511.24	0.464
3519.66	0.464
3528.08	0.464
3536.5	0.464
3544.92	0.464
3553.35	0.464
3561.77	0.464
3570.19	0.464
3578.61	0.464
3587.03	0.464
3595.45	0.464
3603.88	0.464
3612.3	0.462
3620.72	0.462
3629.14	0.4614
3637.56	0.4581
3645.99	0.4559
3654.41	0.4542
3662.83	0.453
3671.25	0.452
3679.67	0.45
3688.09	0.45
3696.52	0.4493
3704.94	0.447
3713.36	0.4457
3721.78	0.444
3730.2	0.443
3738.62	0.443
3747.05	0.443
3755.47	0.443
3763.89	0.443
3772.31	0.443
3780.73	0.443
3789.15	0.443
3797.58	0.443
3806	0.443
3814.42	0.443
3822.84	0.443
3831.26	0.444
3839.68	0.444
3848.11	0.443
3856.53	0.443
3864.95	0.443
3873.37	0.443
3881.79	0.443
3890.22	0.441
3898.64	0.441
3907.06	0.441
3915.48	0.441
3923.9	0.441
3932.32	0.441
3940.75	0.441
3949.17	0.441
3957.59	0.441
3966.01	0.441
3974.43	0.441
