Infrared Spectrum: PHENOL, o-(2-BENZOTHIAZOLYL)-
Formula: C13 H9 N O S
CAS: 3411-95-8
State: SOLID (SPLIT MULL)
Class: COBLENTZ II
Instrument: DOW KBr FOREPRISM-GRATING
Instrument parameters: BLAZED AT 3.5, 12.0, 20.0 MICRON AND CHANGED AT 5.0, 7.5, 14.9 MICRON
Sampling: TRANSMISSION
Resolution: 2
Origin: DOW CHEMICAL COMPANY
1/CM	TRANSMITTANCE
386	0.7915
395	0.7898
404	0.7883
413	0.7871
422	0.7878
431	0.8025
440	0.8141
449	0.8081
458	0.6768
467	0.8549
476	0.8671
485	0.8693
494	0.8467
503	0.7953
512	0.8831
521	0.7961
530	0.8902
539	0.8342
548	0.8961
557	0.8992
566	0.8975
575	0.883
584	0.8882
593	0.8983
602	0.8973
611	0.9037
620	0.8906
629	0.8934
638	0.8852
647	0.8834
656	0.8478
665	0.8707
674	0.8675
683	0.8491
692	0.769
701	0.6026
710	0.7712
719	0.5769
728	0.1649
737	0.2354
746	0.2408
755	0.389
764	0.3268
773	0.5388
782	0.7231
791	0.8325
800	0.8768
809	0.8394
818	0.2153
827	0.8797
836	0.8971
845	0.8968
854	0.7905
863	0.6782
872	0.704
881	0.8903
890	0.8902
899	0.9006
908	0.9048
917	0.9039
926	0.8701
935	0.7101
944	0.8925
953	0.8802
962	0.8048
971	0.4389
980	0.8441
989	0.8978
998	0.8912
1007	0.856
1016	0.8859
1025	0.85
1034	0.688
1043	0.8912
1052	0.8882
1061	0.8781
1070	0.8034
1079	0.8728
1088	0.869
1097	0.8625
1106	0.8585
1115	0.8486
1124	0.8101
1133	0.7955
1142	0.8389
1151	0.6462
1160	0.8118
1169	0.7694
1178	0.809
1187	0.7637
1196	0.6661
1205	0.5885
1214	0.3244
1223	0.2309
1232	0.7554
1241	0.626
1250	0.3977
1259	0.5107
1268	0.4433
1277	0.4476
1286	0.8141
1295	0.8082
1304	0.7525
1313	0.4815
1322	0.7934
1331	0.8662
1340	0.8698
1349	0.8546
1358	0.837
1367	0.8017
1376	0.7811
1385	0.7571
1394	0.7578
1403	0.6404
1412	0.6485
1421	0.7361
1430	0.6789
1439	0.4762
1448	0.8128
1457	0.5987
1466	0.6901
1475	0.3757
1484	0.142
1493	0.1694
1502	0.6993
1511	0.8234
1520	0.8245
1529	0.821
1538	0.8277
1547	0.8385
1556	0.7537
1565	0.8021
1574	0.5932
1583	0.4397
1592	0.3503
1601	0.7481
1610	0.6699
1619	0.5643
1628	0.6433
1637	0.8803
1646	0.8945
1655	0.8894
1664	0.8837
1673	0.877
1682	0.875
1691	0.8701
1700	0.874
1709	0.8842
1718	0.8912
1727	0.8917
1736	0.8914
1745	0.8908
1754	0.8878
1763	0.8821
1772	0.8616
1781	0.8528
1790	0.8777
1799	0.8797
1808	0.8689
1817	0.8699
1826	0.8744
1835	0.8783
1844	0.8717
1853	0.8628
1862	0.8638
1871	0.8685
1880	0.8651
1889	0.847
1898	0.8486
1907	0.8444
1916	0.8521
1925	0.843
1934	0.8463
1943	0.8502
1952	0.855
1961	0.8583
1970	0.8567
1979	0.8542
1988	0.8494
1997	0.855
2006	0.8555
2015	0.8553
2024	0.855
2033	0.8543
2042	0.8533
2051	0.8521
2060	0.8507
2069	0.8492
2078	0.8466
2087	0.8421
2096	0.8361
2105	0.8378
2114	0.8364
2123	0.8338
2132	0.831
2141	0.8287
2150	0.8265
2159	0.824
2168	0.8212
2177	0.818
2186	0.8143
2195	0.8105
2204	0.8071
2213	0.8038
2222	0.8012
2231	0.7983
2240	0.7939
2249	0.7886
2258	0.784
2267	0.7797
2276	0.7758
2285	0.7725
2294	0.7755
2303	0.7715
2312	0.7639
2321	0.7485
2330	0.7426
2339	0.7447
2348	0.7485
2357	0.7538
2366	0.7596
2375	0.7665
2384	0.7751
2393	0.7811
2402	0.7803
2411	0.7801
2420	0.7789
2429	0.7774
2438	0.776
2447	0.7746
2456	0.7732
2465	0.7726
2474	0.7722
2483	0.7717
2492	0.771
2501	0.7695
2510	0.7675
2519	0.7651
2528	0.7625
2537	0.7605
2546	0.7585
2555	0.7564
2564	0.7545
2573	0.7525
2582	0.7505
2591	0.7485
2600	0.7465
2609	0.7447
2618	0.7428
2627	0.741
2636	0.7394
2645	0.7378
2654	0.7365
2663	0.7351
2672	0.7336
2681	0.7294
2690	0.7248
2699	0.7201
2708	0.715
2717	0.7098
2726	0.7049
2735	0.6999
2744	0.695
2753	0.6888
2762	0.6838
2771	0.6849
2780	0.6872
2789	0.6883
2798	0.686
2807	0.6822
2816	0.6778
2825	0.6704
2834	0.6647
2843	0.664
2852	0.6651
2861	0.6668
2870	0.6708
2879	0.6746
2888	0.6741
2897	0.6669
2906	0.6636
2915	0.6619
2924	0.6614
2933	0.6611
2942	0.6611
2951	0.6614
2960	0.6618
2969	0.6618
2978	0.6581
2987	0.6478
2996	0.6367
3005	0.6364
3014	0.6395
3023	0.6358
3032	0.625
3041	0.6137
3050	0.5951
3059	0.5744
3068	0.5827
3077	0.6251
3086	0.658
3095	0.6612
3104	0.6631
3113	0.6639
3122	0.6645
3131	0.6653
3140	0.6656
3149	0.6651
3158	0.6645
3167	0.6632
3176	0.6645
3185	0.67
3194	0.671
3203	0.6705
3212	0.67
3221	0.669
3230	0.6682
3239	0.6672
3248	0.6661
3257	0.6646
3266	0.6628
3275	0.6614
3284	0.6598
3293	0.6586
3302	0.6574
3311	0.6561
3320	0.6547
3329	0.653
3338	0.6514
3347	0.6497
3356	0.6471
3365	0.6442
3374	0.6414
3383	0.6386
3392	0.6358
3401	0.6333
3410	0.6327
3419	0.632
3428	0.631
3437	0.63
3446	0.6289
3455	0.6272
3464	0.6254
3473	0.6236
3482	0.6215
3491	0.6193
3500	0.6172
3509	0.615
3518	0.613
3527	0.611
3536	0.6093
3545	0.6075
3554	0.6055
3563	0.6034
3572	0.6016
3581	0.6015
3590	0.6022
3599	0.6015
3608	0.6004
3617	0.5987
3626	0.597
3635	0.5953
3644	0.5935
3653	0.5919
3662	0.5904
3671	0.5888
3680	0.5873
3689	0.5858
3698	0.5843
3707	0.5827
3716	0.581
3725	0.5788
3734	0.5768
3743	0.575
3752	0.5728
3761	0.5702
3770	0.5677
3779	0.5651
3788	0.5625
3797	0.5599
