Infrared Spectrum: Alpha,Alpha,Alpha-Trifluoro-o-acetotoluidide
Formula: C9 H8 F3 N O
CAS: 344-62-7
State: SOLID (SPLIT MULL), FLUOROLUBE FOR 3800-1330 CM^-^1, NUJOL FOR 1330-400 CM^-^1
Class: COBLENTZ III
Instrument: BECKMAN IR-9 (GRATING)
Instrument parameters: ORDER CHANGES: 670, 1200, 2000 CM^-^1
Sampling: TRANSMISSION
Resolution: 2
Origin: DOW CHEMICAL COMPANY
1/CM	TRANSMITTANCE
3792	0.7054
3783	0.7056
3774	0.706
3765	0.7065
3756	0.7069
3747	0.7085
3738	0.7101
3729	0.7118
3720	0.7132
3711	0.7145
3702	0.7158
3693	0.7171
3684	0.7184
3675	0.7195
3666	0.7203
3657	0.7211
3648	0.7225
3639	0.7239
3630	0.7247
3621	0.7251
3612	0.72
3603	0.7184
3594	0.7258
3585	0.7201
3576	0.7085
3567	0.7236
3558	0.7294
3549	0.7312
3540	0.7331
3531	0.7347
3522	0.7365
3513	0.7382
3504	0.7394
3495	0.7388
3486	0.7361
3477	0.7334
3468	0.736
3459	0.739
3450	0.7415
3441	0.7426
3432	0.7428
3423	0.7425
3414	0.7412
3405	0.7367
3396	0.7304
3387	0.7211
3378	0.7103
3369	0.6985
3360	0.6851
3351	0.6667
3342	0.6346
3333	0.5916
3324	0.5671
3315	0.5047
3306	0.4279
3297	0.3337
3288	0.2638
3279	0.181
3270	0.1132
3261	0.0821
3252	0.0915
3243	0.1554
3234	0.2052
3225	0.2931
3216	0.338
3207	0.4018
3198	0.4153
3189	0.4175
3180	0.4426
3171	0.4892
3162	0.5209
3153	0.5507
3144	0.5682
3135	0.5705
3126	0.576
3117	0.5957
3108	0.6154
3099	0.6323
3090	0.6472
3081	0.6558
3072	0.658
3063	0.6525
3054	0.6398
3045	0.6195
3036	0.5986
3027	0.5966
3018	0.608
3009	0.591
3000	0.5806
2991	0.6126
2982	0.6468
2973	0.6501
2964	0.6596
2955	0.6734
2946	0.686
2937	0.6997
2928	0.709
2919	0.716
2910	0.7239
2901	0.7311
2892	0.7361
2883	0.741
2874	0.7444
2865	0.7475
2856	0.7494
2847	0.7511
2838	0.7528
2829	0.7512
2820	0.7458
2811	0.7418
2802	0.7408
2793	0.7371
2784	0.7271
2775	0.7234
2766	0.733
2757	0.7438
2748	0.7524
2739	0.7606
2730	0.7687
2721	0.7746
2712	0.7796
2703	0.7821
2694	0.7847
2685	0.7865
2676	0.7884
2667	0.7905
2658	0.7917
2649	0.7915
2640	0.7896
2631	0.7903
2622	0.7921
2613	0.7949
2604	0.7976
2595	0.7999
2586	0.8018
2577	0.8035
2568	0.804
2559	0.8043
2550	0.8043
2541	0.8043
2532	0.8045
2523	0.8048
2514	0.8047
2505	0.8045
2496	0.8041
2487	0.8036
2478	0.8022
2469	0.8012
2460	0.801
2451	0.8025
2442	0.8048
2433	0.8072
2424	0.8086
2415	0.8087
2406	0.8069
2397	0.806
2388	0.8067
2379	0.8143
2370	0.821
2361	0.8198
2352	0.8155
2343	0.8117
2334	0.8075
2325	0.8035
2316	0.8001
2307	0.7975
2298	0.7983
2289	0.8012
2280	0.8012
2271	0.8033
2262	0.8056
2253	0.8078
2244	0.8107
2235	0.8134
2226	0.8162
2217	0.8215
2208	0.8294
2199	0.8351
2190	0.8378
2181	0.8399
2172	0.8421
2163	0.8445
2154	0.8471
2145	0.8494
2136	0.8512
2127	0.8517
2118	0.8518
2109	0.8528
2100	0.8543
2091	0.8565
2082	0.8589
2073	0.861
2064	0.8641
2055	0.87
2046	0.8711
2037	0.8718
2028	0.8728
2019	0.8736
2010	0.8734
2001	0.8721
1992	0.8575
1983	0.8639
1974	0.8718
1965	0.874
1956	0.874
1947	0.8581
1938	0.8735
1929	0.8718
1920	0.8728
1911	0.8734
1902	0.8733
1893	0.8735
1884	0.8737
1875	0.8739
1866	0.8737
1857	0.8714
1848	0.8689
1839	0.8548
1830	0.8445
1821	0.8578
1812	0.8602
1803	0.8578
1794	0.8554
1785	0.8528
1776	0.8486
1767	0.8421
1758	0.8358
1749	0.8274
1740	0.8078
1731	0.7835
1722	0.7383
1713	0.721
1704	0.6868
1695	0.6093
1686	0.4368
1677	0.2495
1668	0.0166
1659	0.0278
1650	0.1318
1641	0.2143
1632	0.2622
1623	0.4353
1614	0.4032
1605	0.562
1596	0.4673
1587	0.347
1578	0.6481
1569	0.6776
1560	0.6398
1551	0.4792
1542	0.2863
1533	0.0774
1524	0.1517
1515	0.3954
1506	0.5472
1497	0.633
1488	0.5469
1479	0.6419
1470	0.6241
1461	0.4259
1452	0.342
1443	0.5005
1434	0.6058
1425	0.6474
1416	0.674
1407	0.6768
1398	0.666
1389	0.6255
1380	0.543
1371	0.318
1362	0.5612
1353	0.546
1344	0.4903
1335	0.3874
1326	0.0067
1317	0.0227
1308	0.2635
1299	0.2335
1290	0.0312
1281	0.1694
1272	0.3805
1263	0.3443
1254	0.5942
1245	0.695
1236	0.655
1227	0.7194
1218	0.7134
1209	0.7328
1200	0.74
1191	0.7044
1182	0.5973
1173	0.0421
1164	0.1629
1155	0.3845
1146	0.4657
1137	0.3308
1128	0.0727
1119	0.0018
1110	0.1562
1101	0.4366
1092	0.5212
1083	0.6541
1074	0.6521
1065	0.4845
1056	0.2939
1047	0.4689
1038	0.3262
1029	0.6074
1020	0.5217
1011	0.6044
1002	0.7651
993	0.7921
984	0.8058
975	0.7906
966	0.8141
957	0.7958
948	0.7818
939	0.8424
930	0.852
921	0.8571
912	0.8648
903	0.8661
894	0.8595
885	0.8724
876	0.8228
867	0.8709
858	0.7598
849	0.8681
840	0.8775
831	0.8782
822	0.875
813	0.8668
804	0.8467
795	0.8348
786	0.7945
777	0.5231
768	0.0949
759	0.7419
750	0.73
741	0.7565
732	0.7408
723	0.7003
714	0.7185
705	0.6124
696	0.45
687	0.6053
678	0.7
669	0.2778
660	0.6993
651	0.7536
642	0.7041
633	0.8478
624	0.849
615	0.7635
606	0.5112
597	0.6279
588	0.7971
579	0.8378
570	0.8742
561	0.8836
552	0.8785
543	0.7596
534	0.8597
525	0.8439
516	0.776
507	0.8682
498	0.8725
489	0.8627
480	0.8049
471	0.7689
462	0.6928
453	0.7664
444	0.7312
435	0.6808
426	0.6383
417	0.5527
408	0.4635
