Infrared Spectrum: 2-PYRROLIDINONE, 1-(2-HYDROXYETHYL)
Formula: C6 H11 N O2
CAS: 3445-11-2
State: LIQUID (NEAT)
Class: COBLENTZ III
Instrument: DOW KBr FOREPRISM-GRATING
Instrument parameters: BLAZED AT 3.5, 12.0, 20.0 MICRON AND CHANGED AT 5.0, 7.5, 14.9 MICRON
Sampling: TRANSMISSION
Path length: CAPILLARY
Resolution: 2
Origin: DOW CHEMICAL COMPANY
1/CM	TRANSMITTANCE
382	1.0277
391	1.0268
400	1.0189
409	1.0058
418	0.9963
427	0.9837
436	0.9298
445	0.8241
454	0.7458
463	0.9046
472	0.9639
481	0.9664
490	0.9552
499	0.9184
508	0.8659
517	0.823
526	0.843
535	0.847
544	0.8378
553	0.8217
562	0.7775
571	0.7305
580	0.7482
589	0.7505
598	0.7798
607	0.77
616	0.7557
625	0.7497
634	0.7331
643	0.7076
652	0.6642
661	0.6944
670	0.7068
679	0.7565
688	0.7991
697	0.8338
706	0.8511
715	0.8621
724	0.8718
733	0.8593
742	0.8251
751	0.8373
760	0.8783
769	0.9004
778	0.9231
787	0.923
796	0.9401
805	0.9618
814	0.9678
823	0.9652
832	0.9518
841	0.9139
850	0.8488
859	0.7832
868	0.7742
877	0.8857
886	0.9549
895	0.9402
904	0.9655
913	0.9781
922	0.9328
931	0.8793
940	0.9171
949	0.934
958	0.9713
967	0.9762
976	0.9661
985	0.9391
994	0.8199
1003	0.6805
1012	0.8155
1021	0.8214
1030	0.7251
1039	0.726
1048	0.6418
1057	0.4438
1066	0.3384
1075	0.4086
1084	0.4088
1093	0.5533
1102	0.6614
1111	0.7938
1120	0.8852
1129	0.9158
1138	0.91
1147	0.8902
1156	0.8392
1165	0.7634
1174	0.7493
1183	0.7658
1192	0.7699
1201	0.8032
1210	0.8235
1219	0.7814
1228	0.7278
1237	0.7228
1246	0.6961
1255	0.6296
1264	0.4999
1273	0.4009
1282	0.3722
1291	0.2391
1300	0.3342
1309	0.4053
1318	0.3946
1327	0.5172
1336	0.6325
1345	0.6969
1354	0.6961
1363	0.593
1372	0.6323
1381	0.6962
1390	0.7236
1399	0.7121
1408	0.6499
1417	0.5107
1426	0.2802
1435	0.3014
1444	0.3306
1453	0.3458
1462	0.4049
1471	0.265
1480	0.4601
1489	0.6231
1498	0.4134
1507	0.5844
1516	0.8053
1525	0.8471
1534	0.8682
1543	0.8745
1552	0.88
1561	0.883
1570	0.885
1579	0.8821
1588	0.871
1597	0.8474
1606	0.7961
1615	0.7276
1624	0.6358
1633	0.5169
1642	0.2943
1651	0.1283
1660	0.0243
1669	0.0208
1678	0.0283
1687	0.0417
1696	0.0728
1705	0.3106
1714	0.5728
1723	0.7531
1732	0.8171
1741	0.8557
1750	0.8835
1759	0.9018
1768	0.9155
1777	0.9253
1786	0.9393
1795	0.9497
1804	0.9536
1813	0.9553
1822	0.9568
1831	0.9589
1840	0.9589
1849	0.9592
1858	0.961
1867	0.9628
1876	0.9648
1885	0.9652
1894	0.9645
1903	0.9632
1912	0.9608
1921	0.9584
1930	0.9558
1939	0.9523
1948	0.9489
1957	0.948
1966	0.96
1975	0.965
1984	0.9677
1993	0.9733
2002	0.979
2011	0.9775
2020	0.9696
2029	0.9554
2038	0.9559
2047	0.968
2056	0.9703
2065	0.97
2074	0.9691
2083	0.9684
2092	0.9678
2101	0.967
2110	0.9663
2119	0.9657
2128	0.9646
2137	0.9633
2146	0.963
2155	0.9625
2164	0.9621
2173	0.9617
2182	0.9607
2191	0.9604
2200	0.9602
2209	0.9602
2218	0.9604
2227	0.9605
2236	0.9605
2245	0.9602
2254	0.96
2263	0.9593
2272	0.9585
2281	0.9575
2290	0.9567
2299	0.9564
2308	0.9565
2317	0.9566
2326	0.9568
2335	0.9567
2344	0.9566
2353	0.9558
2362	0.9538
2371	0.9516
2380	0.9493
2389	0.9467
2398	0.9443
2407	0.9418
2416	0.9405
2425	0.9393
2434	0.9386
2443	0.938
2452	0.9375
2461	0.9374
2470	0.9375
2479	0.9375
2488	0.9375
2497	0.9378
2506	0.938
2515	0.9382
2524	0.9384
2533	0.9386
2542	0.9388
2551	0.9389
2560	0.9386
2569	0.9371
2578	0.9359
2587	0.9342
2596	0.9314
2605	0.9286
2614	0.9258
2623	0.923
2632	0.9202
2641	0.9167
2650	0.9128
2659	0.9088
2668	0.9048
2677	0.9008
2686	0.8961
2695	0.8909
2704	0.8858
2713	0.8831
2722	0.8825
2731	0.8834
2740	0.8843
2749	0.8838
2758	0.8801
2767	0.8712
2776	0.8594
2785	0.8452
2794	0.829
2803	0.8024
2812	0.7705
2821	0.731
2830	0.6712
2839	0.6107
2848	0.5579
2857	0.5059
2866	0.4323
2875	0.401
2884	0.4057
2893	0.4273
2902	0.4337
2911	0.4256
2920	0.4066
2929	0.3955
2938	0.4068
2947	0.4197
2956	0.4338
2965	0.4514
2974	0.4783
2983	0.5215
2992	0.6997
3001	0.7676
3010	0.8037
3019	0.8268
3028	0.835
3037	0.8363
3046	0.8334
3055	0.8277
3064	0.8206
3073	0.8128
3082	0.8037
3091	0.7919
3100	0.7786
3109	0.7645
3118	0.7496
3127	0.7321
3136	0.7145
3145	0.6964
3154	0.678
3163	0.659
3172	0.6339
3181	0.6102
3190	0.5876
3199	0.5643
3208	0.5409
3217	0.5187
3226	0.4965
3235	0.4707
3244	0.4457
3253	0.422
3262	0.3995
3271	0.3793
3280	0.3637
3289	0.3471
3298	0.3312
3307	0.3159
3316	0.3014
3325	0.2897
3334	0.2797
3343	0.272
3352	0.2635
3361	0.2571
3370	0.2553
3379	0.2572
3388	0.2623
3397	0.2713
3406	0.2844
3415	0.3019
3424	0.3192
3433	0.3391
3442	0.363
3451	0.3893
3460	0.4259
3469	0.4656
3478	0.5099
3487	0.5524
3496	0.6106
3505	0.6521
3514	0.6954
3523	0.7265
3532	0.7491
3541	0.7691
3550	0.7895
3559	0.8096
3568	0.8289
3577	0.8449
3586	0.8612
3595	0.8781
3604	0.8943
3613	0.9098
3622	0.9224
3631	0.9335
3640	0.9438
3649	0.9495
3658	0.9536
3667	0.957
3676	0.9597
3685	0.9611
3694	0.9623
3703	0.9631
3712	0.9638
3721	0.9637
3730	0.9632
3739	0.9628
3748	0.9632
3757	0.9635
3766	0.9638
3775	0.9639
3784	0.9641
3793	0.9642
