Infrared Spectrum: BENZOPHENONE, 4-FLUORO-
Formula: C13 H9 F O
CAS: 345-83-5
State: SOLUTION (10% IN CCl4 FOR 3800-1333, 10% IN CS2 FOR 1333-460 CM^-^1)
Class: COBLENTZ III
Instrument: DOW KBr FOREPRISM-GRATING
Instrument parameters: BLAZED AT 3.5, 12.0, 20.0 MICRON, CHANGED AT 5.0, 7.5, 14.9 MICRON
Sampling: TRANSMISSION
Path length: 0.010, 0.010 CM
Resolution: 4
Origin: DOW CHEMICAL COMPANY
1/CM	TRANSMITTANCE
456.166	0.816
464.933	0.818
473.7	0.822
482.466	0.816
491.233	0.766
500	0.571
508.767	0.833
517.534	0.857
526.3	0.867
535.067	0.861
543.834	0.835
552.601	0.658
561.368	0.798
570.135	0.85
578.901	0.867
587.668	0.853
596.435	0.507
605.202	0.603
613.969	0.831
622.735	0.861
631.502	0.662
640.269	0.85
649.036	0.826
657.803	0.833
666.569	0.801
675.336	0.489
684.103	0.688
692.87	0.166
701.637	0.217
710.403	0.783
719.17	0.822
727.937	0.601
736.704	0.056
745.471	0.738
754.237	0.883
763.004	0.904
771.771	0.901
780.538	0.852
789.305	0.34
798.072	0.82
806.838	0.834
815.605	0.529
824.372	0.796
833.139	0.761
841.906	0.355
850.672	0.064
859.439	0.681
868.206	0.774
876.973	0.826
885.74	0.88
894.506	0.89
903.273	0.853
912.04	0.662
920.807	0.194
929.574	0.552
938.34	0.3251
947.107	0.682
955.874	0.861
964.641	0.805
973.408	0.891
982.175	0.911
990.941	0.901
999.708	0.703
1008.47	0.886
1017.24	0.894
1026.01	0.779
1034.78	0.931
1043.54	0.932
1052.31	0.932
1061.08	0.912
1069.84	0.781
1078.61	0.871
1087.38	0.852
1096.14	0.696
1104.91	0.872
1113.68	0.909
1122.44	0.913
1131.21	0.872
1139.98	0.782
1148.74	0.243
1157.51	0.269
1166.28	0.837
1175.04	0.785
1183.81	0.824
1192.58	0.859
1201.34	0.845
1210.11	0.822
1218.88	0.708
1227.65	0.127
1236.41	0.091
1245.18	0.228
1253.95	0.537
1262.71	0.452
1271.48	0.069
1280.25	0.017
1289.01	0.413
1297.78	0.145
1306.55	0.213
1315.31	0.222
1324.08	0.575
1332.85	0.757
1341.61	0.9
1350.38	0.93
1359.15	0.924
1367.91	0.894
1376.68	0.898
1385.45	0.949
1394.21	0.926
1402.98	0.875
1411.75	0.362
1420.51	0.863
1429.28	0.949
1438.05	0.932
1446.82	0.554
1455.58	0.767
1464.35	0.93
1473.12	0.926
1481.88	0.896
1490.65	0.785
1499.42	0.671
1508.18	0.079
1516.95	0.59
1525.72	0.667
1534.48	0.603
1543.25	0.517
1552.02	0.482
1560.78	0.529
1569.55	0.564
1578.32	0.518
1587.08	0.381
1595.85	0.106
1604.62	0.009
1613.38	0.596
1622.15	0.723
1630.92	0.737
1639.69	0.696
1648.45	0.612
1657.22	0.288
1665.99	0
1674.75	0.16
1683.52	0.659
1692.29	0.834
1701.05	0.87
1709.82	0.882
1718.59	0.913
1727.35	0.945
1736.12	0.952
1744.89	0.963
1753.65	0.965
1762.42	0.965
1771.19	0.953
1779.95	0.928
1788.72	0.946
1797.49	0.968
1806.25	0.963
1815.02	0.942
1823.79	0.953
1832.55	0.961
1841.32	0.971
1850.09	0.976
1858.86	0.972
1867.62	0.975
1876.39	0.972
1885.16	0.967
1893.92	0.953
1902.69	0.931
1911.46	0.885
1920.22	0.93
1928.99	0.957
1937.76	0.976
1946.52	0.972
1955.29	0.949
1964.06	0.931
1972.82	0.932
1981.59	0.961
1990.36	0.976
1999.12	0.978
2007.89	0.985
2016.66	0.9895
2025.42	0.9921
2034.19	0.9835
2042.96	0.982
2051.73	0.9763
2060.49	0.974
2069.26	0.9796
2078.03	0.9866
2086.79	0.9973
2095.56	0.9951
2104.33	1.002
2113.09	1.001
2121.86	1.002
2130.63	1.0057
2139.39	1.0117
2148.16	1.0074
2156.93	1.0083
2165.69	1.0093
2174.46	1.012
2183.23	1.008
2191.99	1.005
2200.76	1.005
2209.53	1.001
2218.29	1.002
2227.06	1.0082
2235.83	1.004
2244.59	1.0024
2253.36	0.9975
2262.13	0.9845
2270.9	0.9887
2279.66	0.9913
2288.43	0.9872
2297.2	0.984
2305.96	0.986
2314.73	0.9873
2323.5	1.0038
2332.26	1.0089
2341.03	1.013
2349.8	1.012
2358.56	1.012
2367.33	1.009
2376.1	1.006
2384.86	1
2393.63	0.997
2402.4	0.997
2411.16	0.9909
2419.93	0.9736
2428.7	0.958
2437.46	0.9913
2446.23	0.9979
2455	0.99
2463.77	0.986
2472.53	0.9874
2481.3	1.0001
2490.07	1.0052
2498.83	1.009
2507.6	1.008
2516.37	1.002
2525.13	0.9938
2533.9	1.0024
2542.67	1.004
2551.43	1.0035
2560.2	0.9995
2568.97	0.994
2577.73	0.9925
2586.5	0.986
2595.27	0.9757
2604.03	0.9753
2612.8	0.9826
2621.57	0.9846
2630.33	0.9957
2639.1	0.998
2647.87	1.001
2656.63	0.9993
2665.4	0.9974
2674.17	1.001
2682.94	1.002
2691.7	1.002
2700.47	1.0006
2709.24	1
2718	1
2726.77	0.998
2735.54	0.99
2744.3	0.9835
2753.07	0.977
2761.84	0.9866
2770.6	0.9921
2779.37	0.995
2788.14	0.9935
2796.9	0.987
2805.67	0.9906
2814.44	0.993
2823.2	0.995
2831.97	0.994
2840.74	0.99
2849.5	0.9871
2858.27	0.9794
2867.04	0.976
2875.81	0.963
2884.57	0.9683
2893.34	0.972
2902.11	0.975
2910.87	0.9774
2919.64	0.976
2928.41	0.9735
2937.17	0.9757
2945.94	0.9788
2954.71	0.978
2963.47	0.976
2972.24	0.976
2981.01	0.976
2989.77	0.975
2998.54	0.9657
3007.31	0.954
3016.07	0.9483
3024.84	0.9145
3033.61	0.827
3042.37	0.841
3051.14	0.8604
3059.91	0.8036
3068.67	0.7146
3077.44	0.7795
3086.21	0.7834
3094.98	0.8461
3103.74	0.8941
3112.51	0.9317
3121.28	0.953
3130.04	0.961
3138.81	0.967
3147.58	0.967
3156.34	0.96
3165.11	0.9611
3173.88	0.971
3182.64	0.9649
3191.41	0.9649
3200.18	0.9641
3208.94	0.974
3217.71	0.975
3226.48	0.972
3235.24	0.972
3244.01	0.969
3252.78	0.9678
3261.54	0.9648
3270.31	0.9614
3279.08	0.9672
3287.85	0.967
3296.61	0.9619
3305.38	0.9365
3314.15	0.93
3322.91	0.94
3331.68	0.9608
3340.45	0.9718
3349.21	0.975
3357.98	0.976
3366.75	0.974
3375.51	0.975
3384.28	0.9743
3393.05	0.975
3401.81	0.9754
3410.58	0.976
3419.35	0.9778
3428.11	0.9768
3436.88	0.978
3445.65	0.978
3454.41	0.976
3463.18	0.978
3471.95	0.978
3480.71	0.979
3489.48	0.98
3498.25	0.9795
3507.02	0.981
3515.78	0.978
3524.55	0.982
3533.32	0.983
3542.08	0.983
3550.85	0.984
3559.62	0.9866
3568.38	0.986
3577.15	0.9716
3585.92	0.9904
3594.68	0.9894
3603.45	0.9837
3612.22	0.9877
3620.98	0.993
3629.75	0.9893
3638.52	0.987
3647.28	0.9854
3656.05	0.987
3664.82	0.9893
3673.58	0.979
3682.35	0.9793
3691.12	0.9783
3699.89	0.991
3708.65	0.9861
3717.42	0.9906
3726.19	0.9924
3734.95	0.9996
3743.72	0.9905
3752.49	0.9895
3761.25	0.987
3770.02	0.9873
3778.79	0.9869
3787.55	0.9939
3796.32	0.99
