Infrared Spectrum: 1-HEXANOL, 3,5,5-TRIMETHYL-
Formula: C9 H20 O
CAS: 3452-97-9
State: SOLUTION (10% CCl4 FOR 3800-1340, 10% CS2 FOR 1340-450 CM^-^1)
Class: COBLENTZ III
Instrument: DOW KBr FOREPRISM-GRATING
Instrument parameters: BLAZED AT 3.5, 12.0, 20.0 MICRON AND CHANGED AT 5.0, 7.5, 14.9 MICRON
Sampling: TRANSMISSION
Path length: 0.011 CM, 0.011 CM
Resolution: 2
Origin: DOW CHEMICAL COMPANY
1/CM	TRANSMITTANCE
449	0.7393
458	0.7515
467	0.7611
476	0.77
485	0.7785
494	0.7822
503	0.7821
512	0.778
521	0.7721
530	0.7653
539	0.7607
548	0.7601
557	0.7612
566	0.7705
575	0.7745
584	0.7726
593	0.77
602	0.7686
611	0.7617
620	0.7537
629	0.7528
638	0.7455
647	0.7235
656	0.7099
665	0.7387
674	0.7147
683	0.7189
692	0.7235
701	0.7362
710	0.7444
719	0.754
728	0.7615
737	0.7661
746	0.7632
755	0.7825
764	0.7871
773	0.7892
782	0.7896
791	0.8014
800	0.8068
809	0.8075
818	0.8089
827	0.7792
836	0.7372
845	0.6981
854	0.6682
863	0.6833
872	0.7298
881	0.7565
890	0.7839
899	0.825
908	0.8268
917	0.8068
926	0.7861
935	0.7908
944	0.7555
953	0.6937
962	0.655
971	0.6116
980	0.6474
989	0.5903
998	0.5049
1007	0.4612
1016	0.3859
1025	0.4554
1034	0.4073
1043	0.3092
1052	0.151
1061	0.2172
1070	0.4139
1079	0.6154
1088	0.5712
1097	0.6847
1106	0.7031
1115	0.7157
1124	0.6821
1133	0.6767
1142	0.7317
1151	0.7621
1160	0.7201
1169	0.7046
1178	0.6811
1187	0.6669
1196	0.6294
1205	0.6419
1214	0.6501
1223	0.6758
1232	0.6444
1241	0.5634
1250	0.5827
1259	0.6874
1268	0.7056
1277	0.6928
1286	0.6656
1295	0.6687
1304	0.6767
1313	0.6655
1322	0.6456
1331	0.6248
1340	0.6197
1349	0.6295
1358	0.5473
1367	0.1585
1376	0.4372
1385	0.4939
1394	0.3642
1403	0.5997
1412	0.6225
1421	0.6209
1430	0.5656
1439	0.5771
1448	0.5408
1457	0.3838
1466	0.2201
1475	0.2481
1484	0.3916
1493	0.6359
1502	0.6667
1511	0.656
1520	0.6354
1529	0.596
1538	0.5378
1547	0.4544
1556	0.4618
1565	0.5243
1574	0.5883
1583	0.6135
1592	0.6639
1601	0.7351
1610	0.7799
1619	0.7984
1628	0.8101
1637	0.8181
1646	0.8309
1655	0.8349
1664	0.8392
1673	0.8418
1682	0.8468
1691	0.8473
1700	0.8442
1709	0.8414
1718	0.8496
1727	0.8489
1736	0.8465
1745	0.8489
1754	0.8541
1763	0.8594
1772	0.8601
1781	0.8593
1790	0.8586
1799	0.8582
1808	0.8575
1817	0.8568
1826	0.8563
1835	0.8565
1844	0.8567
1853	0.8568
1862	0.8571
1871	0.8575
1880	0.858
1889	0.8582
1898	0.8585
1907	0.8591
1916	0.8597
1925	0.8612
1934	0.8627
1943	0.8633
1952	0.8636
1961	0.863
1970	0.8605
1979	0.8575
1988	0.8543
1997	0.8318
2006	0.8571
2015	0.8571
2024	0.8568
2033	0.8565
2042	0.8571
2051	0.8575
2060	0.8575
2069	0.8553
2078	0.8592
2087	0.8627
2096	0.8635
2105	0.8616
2114	0.8611
2123	0.8628
2132	0.8642
2141	0.8647
2150	0.8652
2159	0.8655
2168	0.8655
2177	0.8653
2186	0.8655
2195	0.8653
2204	0.8647
2213	0.8641
2222	0.8631
2231	0.862
2240	0.8607
2249	0.8588
2258	0.857
2267	0.8541
2276	0.8502
2285	0.8465
2294	0.8431
2303	0.8418
2312	0.8441
2321	0.8453
2330	0.8457
2339	0.8525
2348	0.8591
2357	0.858
2366	0.8515
2375	0.8527
2384	0.8544
2393	0.8562
2402	0.8577
2411	0.8588
2420	0.86
2429	0.8612
2438	0.8625
2447	0.8621
2456	0.8618
2465	0.8613
2474	0.861
2483	0.8602
2492	0.8592
2501	0.8582
2510	0.8571
2519	0.8559
2528	0.8548
2537	0.8531
2546	0.8514
2555	0.8497
2564	0.8477
2573	0.8447
2582	0.8418
2591	0.8392
2600	0.8367
2609	0.834
2618	0.8309
2627	0.8277
2636	0.8234
2645	0.8191
2654	0.8141
2663	0.8089
2672	0.8035
2681	0.7981
2690	0.7915
2699	0.7815
2708	0.7654
2717	0.7565
2726	0.7615
2735	0.7671
2744	0.7555
2753	0.7565
2762	0.7607
2771	0.76
2780	0.7537
2789	0.7247
2798	0.7125
2807	0.683
2816	0.6331
2825	0.5282
2834	0.446
2843	0.3646
2852	0.2543
2861	0.0971
2870	0.0634
2879	0.0749
2888	0.0688
2897	0.0547
2906	0.0416
2915	0.0451
2924	0.0382
2933	0.0179
2942	0.0088
2951	0.002
2960	0.0014
2969	0.0193
2978	0.0661
2987	0.325
2996	0.4012
3005	0.6124
3014	0.7146
3023	0.7444
3032	0.7614
3041	0.77
3050	0.775
3059	0.7769
3068	0.7768
3077	0.7753
3086	0.7721
3095	0.7686
3104	0.7643
3113	0.7571
3122	0.7492
3131	0.7374
3140	0.7236
3149	0.708
3158	0.6895
3167	0.6638
3176	0.646
3185	0.6292
3194	0.6098
3203	0.5886
3212	0.5644
3221	0.5418
3230	0.5157
3239	0.4889
3248	0.4642
3257	0.437
3266	0.4072
3275	0.388
3284	0.3675
3293	0.3464
3302	0.328
3311	0.3106
3320	0.2955
3329	0.2909
3338	0.2904
3347	0.2939
3356	0.3014
3365	0.3115
3374	0.3227
3383	0.3366
3392	0.348
3401	0.3595
3410	0.3712
3419	0.3845
3428	0.3984
3437	0.4137
3446	0.4333
3455	0.4568
3464	0.4789
3473	0.4969
3482	0.5153
3491	0.5334
3500	0.5524
3509	0.5792
3518	0.6027
3527	0.6335
3536	0.6694
3545	0.6965
3554	0.7374
3563	0.7656
3572	0.7892
3581	0.8021
3590	0.8051
3599	0.7986
3608	0.7668
3617	0.6803
3626	0.6399
3635	0.6453
3644	0.7948
3653	0.8365
3662	0.8367
3671	0.8328
3680	0.8561
3689	0.8678
3698	0.8733
3707	0.8768
3716	0.8794
3725	0.8817
3734	0.8832
3743	0.8845
3752	0.8857
3761	0.8861
3770	0.8862
3779	0.8861
3788	0.8857
3797	0.8854
