Infrared Spectrum: 5H-4,1-BENOXAZEPINE-2,5-DIONE,1,2-DIHYDRO-1-METHYL
Formula: C10 H9 N O3
CAS: 3455-21-8
State: SOLID (NUJOL MULL)
Class: COBLENTZ III
Instrument: PERKIN-ELMER 21 (GRATING)
Instrument parameters: FILTER AT ABOUT 10 MICRONS
Resolution: 2
Origin: ABBOTT LABORATORIES
1/CM	TRANSMITTANCE
651	0.6246
660	0.6302
669	0.6252
678	0.679
687	0.6772
696	0.6488
705	0.4826
714	0.6722
723	0.6812
732	0.7006
741	0.7048
750	0.666
759	0.2643
768	0.6473
777	0.6481
786	0.6804
795	0.5305
804	0.7648
813	0.7615
822	0.764
831	0.7592
840	0.7548
849	0.7538
858	0.7502
867	0.7452
876	0.7346
885	0.7182
894	0.7328
903	0.7201
912	0.69
921	0.6202
930	0.7058
939	0.7065
948	0.6953
957	0.6616
966	0.6144
975	0.6763
984	0.6979
993	0.6302
1002	0.6646
1011	0.5124
1020	0.6787
1029	0.671
1038	0.6243
1047	0.4953
1056	0.6087
1065	0.5455
1074	0.6623
1083	0.6466
1092	0.6123
1101	0.5069
1110	0.4099
1119	0.5805
1128	0.5757
1137	0.4529
1146	0.4686
1155	0.6807
1164	0.6861
1173	0.6651
1182	0.6799
1191	0.657
1200	0.6346
1209	0.6127
1218	0.5571
1227	0.411
1236	0.6352
1245	0.6219
1254	0.5817
1263	0.5144
1272	0.435
1281	0.5319
1290	0.5858
1299	0.5728
1308	0.5135
1317	0.551
1326	0.5367
1335	0.4829
1344	0.4105
1353	0.3297
1362	0.2091
1371	0.3041
1380	0.3047
1389	0.5813
1398	0.6289
1407	0.6234
1416	0.5811
1425	0.4081
1434	0.274
1443	0.2138
1452	0.1302
1461	0.2503
1470	0.3379
1479	0.5001
1488	0.6159
1497	0.6665
1506	0.6748
1515	0.6717
1524	0.656
1533	0.6359
1542	0.6172
1551	0.5875
1560	0.5619
1569	0.5296
1578	0.4753
1587	0.3829
1596	0.3342
1605	0.5343
1614	0.5824
1623	0.5364
1632	0.4819
1641	0.4242
1650	0.2875
1659	0.1813
1668	0.1378
1677	0.2446
1686	0.3804
1695	0.3517
1704	0.2617
1713	0.1728
1722	0.3269
1731	0.592
1740	0.7004
1749	0.7401
1758	0.7625
1767	0.7722
1776	0.7841
1785	0.7879
1794	0.7888
1803	0.789
1812	0.7892
1821	0.7882
1830	0.7858
1839	0.7842
1848	0.7872
1857	0.7855
1866	0.7792
1875	0.7753
1884	0.7743
1893	0.7738
1902	0.7717
1911	0.768
1920	0.7654
1929	0.7631
1938	0.7616
1947	0.7605
1956	0.7594
1965	0.7553
1974	0.7486
1983	0.7513
1992	0.7581
2001	0.7563
2010	0.7509
2019	0.7471
2028	0.7475
2037	0.7478
2046	0.7475
2055	0.7471
2064	0.746
2073	0.7446
2082	0.7418
2091	0.7379
2100	0.7332
2109	0.7334
2118	0.734
2127	0.735
2136	0.7353
2145	0.7345
2154	0.7322
2163	0.7282
2172	0.7245
2181	0.7214
2190	0.7184
2199	0.7164
2208	0.7143
2217	0.7125
2226	0.7112
2235	0.7098
2244	0.7085
2253	0.7064
2262	0.7041
2271	0.7002
2280	0.6958
2289	0.6887
2298	0.683
2307	0.6806
2316	0.6807
2325	0.6809
2334	0.6825
2343	0.6853
2352	0.6887
2361	0.6884
2370	0.6858
2379	0.6834
2388	0.6817
2397	0.6806
2406	0.6801
2415	0.6799
2424	0.6798
2433	0.6798
2442	0.6798
2451	0.6791
2460	0.6779
2469	0.6767
2478	0.6744
2487	0.6719
2496	0.6692
2505	0.6659
2514	0.6625
2523	0.6592
2532	0.6561
2541	0.653
2550	0.6499
2559	0.6473
2568	0.6449
2577	0.6426
2586	0.6403
2595	0.638
2604	0.6358
2613	0.6336
2622	0.6313
2631	0.6291
2640	0.6272
2649	0.626
2658	0.6248
2667	0.6235
2676	0.6229
2685	0.6232
2694	0.6241
2703	0.6257
2712	0.6261
2721	0.6238
2730	0.6184
2739	0.6118
2748	0.6028
2757	0.5911
2766	0.5769
2775	0.5605
2784	0.5367
2793	0.5014
2802	0.3957
2811	0.2769
2820	0.1681
2829	0.1444
2838	0.1373
2847	0.132
2856	0.1196
2865	0.0981
2874	0.0714
2883	0.0527
2892	0.052
2901	0.0529
2910	0.0568
2919	0.0702
2928	0.0887
2937	0.1108
2946	0.2434
2955	0.3949
2964	0.4391
2973	0.4866
2982	0.504
2991	0.5177
3000	0.5266
3009	0.5313
3018	0.5354
3027	0.5387
3036	0.5414
3045	0.544
3054	0.5468
3063	0.5499
3072	0.5537
3081	0.5604
3090	0.5626
3099	0.563
3108	0.5633
3117	0.5632
3126	0.5631
3135	0.5631
3144	0.563
3153	0.5628
3162	0.5625
3171	0.5622
3180	0.5619
3189	0.5615
3198	0.5613
3207	0.5609
3216	0.5601
3225	0.5593
3234	0.5586
3243	0.5576
3252	0.5544
3261	0.5511
3270	0.5482
3279	0.5457
3288	0.5452
3297	0.5453
3306	0.5454
3315	0.5455
3324	0.5455
3333	0.5456
3342	0.5457
3351	0.5457
3360	0.5458
3369	0.5466
3378	0.5474
3387	0.5482
3396	0.5495
3405	0.5516
3414	0.5531
3423	0.5527
3432	0.5521
3441	0.5515
3450	0.5504
3459	0.5483
3468	0.5461
3477	0.5441
3486	0.542
3495	0.5401
3504	0.5387
3513	0.5381
3522	0.5376
3531	0.5372
3540	0.5369
3549	0.5367
3558	0.5365
3567	0.5363
3576	0.5361
3585	0.5359
3594	0.5355
3603	0.5351
3612	0.5348
3621	0.5344
3630	0.5341
3639	0.5338
3648	0.5327
3657	0.5318
3666	0.5308
3675	0.5299
3684	0.529
3693	0.528
3702	0.5271
3711	0.5262
3720	0.5253
3729	0.5246
3738	0.524
3747	0.5232
3756	0.5226
3765	0.522
3774	0.5212
3783	0.5206
3792	0.5199
3801	0.5192
3810	0.5186
3819	0.5179
3828	0.5173
3837	0.5166
3846	0.516
3855	0.5154
3864	0.5146
3873	0.514
3882	0.5133
3891	0.5126
3900	0.5119
3909	0.5111
3918	0.5103
3927	0.5096
3936	0.5088
3945	0.508
3954	0.5072
3963	0.5065
3972	0.5057
3981	0.5049
3990	0.5041
3999	0.5037
