Infrared Spectrum: o-Fluoroaniline
Formula: C6 H6 F N
CAS: 348-54-9
State: SOLUTION (2% CCl4 FOR 3800-1340, 2% CS2 FOR 1340-450 CM^-^1)
Class: COBLENTZ III
Instrument: DOW KBr FOREPRISM-GRATING
Instrument parameters: BLAZED AT 3.5, 12.0, 20.0 MICRON AND CHANGED AT 5.0, 7.5, 14.9 MICRON
Sampling: TRANSMISSION
Path length: 0.011 CM, 0.011 CM
Resolution: 2
Origin: DOW CHEMICAL COMPANY
1/CM	TRANSMITTANCE
3764	0.9312
3755	0.9322
3746	0.9335
3737	0.9371
3728	0.9382
3719	0.9351
3710	0.9349
3701	0.936
3692	0.9362
3683	0.9363
3674	0.9356
3665	0.9341
3656	0.9335
3647	0.933
3638	0.9332
3629	0.9329
3620	0.934
3611	0.9339
3602	0.9334
3593	0.9348
3584	0.9348
3575	0.9339
3566	0.9325
3557	0.9314
3548	0.9306
3539	0.9264
3530	0.9215
3521	0.9137
3512	0.9026
3503	0.8259
3494	0.7587
3485	0.7551
3476	0.7772
3467	0.8266
3458	0.8622
3449	0.8864
3440	0.8908
3431	0.8905
3422	0.8757
3413	0.7812
3404	0.6748
3395	0.6911
3386	0.7866
3377	0.8516
3368	0.8826
3359	0.8991
3350	0.9073
3341	0.9136
3332	0.9196
3323	0.9258
3314	0.9299
3305	0.9349
3296	0.9366
3287	0.9401
3278	0.9421
3269	0.9406
3260	0.9384
3251	0.9363
3242	0.9343
3233	0.9326
3224	0.9312
3215	0.93
3206	0.9274
3197	0.9286
3188	0.9292
3179	0.9296
3170	0.9316
3161	0.9344
3152	0.9367
3143	0.9351
3134	0.936
3125	0.9349
3116	0.9326
3107	0.9303
3098	0.9288
3089	0.9218
3080	0.9008
3071	0.8968
3062	0.8917
3053	0.8753
3044	0.8701
3035	0.888
3026	0.9037
3017	0.9194
3008	0.9272
2999	0.9316
2990	0.9349
2981	0.9357
2972	0.9374
2963	0.9391
2954	0.9395
2945	0.9388
2936	0.9397
2927	0.9362
2918	0.9265
2909	0.9274
2900	0.9284
2891	0.9307
2882	0.933
2873	0.9345
2864	0.9348
2855	0.935
2846	0.9356
2837	0.936
2828	0.9348
2819	0.9357
2810	0.9344
2801	0.9357
2792	0.9352
2783	0.9345
2774	0.9351
2765	0.9349
2756	0.9347
2747	0.9346
2738	0.9353
2729	0.936
2720	0.9363
2711	0.9365
2702	0.9367
2693	0.9369
2684	0.9369
2675	0.937
2666	0.9374
2657	0.9384
2648	0.935
2639	0.9312
2630	0.9265
2621	0.926
2612	0.9311
2603	0.9342
2594	0.9358
2585	0.9365
2576	0.9375
2567	0.939
2558	0.9401
2549	0.9408
2540	0.9406
2531	0.9405
2522	0.9404
2513	0.94
2504	0.9393
2495	0.9382
2486	0.937
2477	0.9375
2468	0.9366
2459	0.936
2450	0.9352
2441	0.9366
2432	0.937
2423	0.9375
2414	0.9381
2405	0.9398
2396	0.9401
2387	0.9418
2378	0.9463
2369	0.9483
2360	0.9493
2351	0.9523
2342	0.9514
2333	0.9498
2324	0.9504
2315	0.9458
2306	0.9423
2297	0.9406
2288	0.9386
2279	0.9394
2270	0.9385
2261	0.9383
2252	0.9392
2243	0.9404
2234	0.9407
2225	0.9421
2216	0.9419
2207	0.9421
2198	0.9421
2189	0.9413
2180	0.9419
2171	0.9441
2162	0.9434
2153	0.9441
2144	0.9451
2135	0.9467
2126	0.9487
2117	0.9499
2108	0.9457
2099	0.941
2090	0.942
2081	0.9431
2072	0.9372
2063	0.9277
2054	0.9308
2045	0.9365
2036	0.9381
2027	0.9355
2018	0.9334
2009	0.9333
2000	0.9351
1991	0.933
1982	0.9303
1973	0.9268
1964	0.9589
1955	0.9353
1946	0.9319
1937	0.9304
1928	0.9284
1919	0.9166
1910	0.9232
1901	0.9293
1892	0.9271
1883	0.9106
1874	0.9185
1865	0.9254
1856	0.927
1847	0.926
1838	0.9224
1829	0.9242
1820	0.9257
1811	0.9282
1802	0.9265
1793	0.9308
1784	0.9346
1775	0.9354
1766	0.9278
1757	0.9165
1748	0.9224
1739	0.9278
1730	0.9346
1721	0.9387
1712	0.9394
1703	0.9392
1694	0.9381
1685	0.9362
1676	0.9324
1667	0.9296
1658	0.9231
1649	0.894
1640	0.5777
1631	0.3419
1622	0.5939
1613	0.7976
1604	0.7736
1595	0.7158
1586	0.7185
1577	0.7746
1568	0.7565
1559	0.7276
1550	0.783
1541	0.8255
1532	0.7832
1523	0.5738
1514	0.297
1505	0.2916
1496	0.7943
1487	0.864
1478	0.9073
1469	0.8098
1460	0.8771
1451	0.9193
1442	0.9445
1433	0.9497
1424	0.953
1415	0.9533
1406	0.9508
1397	0.9453
1388	0.9687
1379	0.9713
1370	0.9731
1361	0.9726
1352	0.9574
1343	0.9372
1334	0.8809
1325	0.8462
1316	0.8848
1307	0.5928
1298	0.7085
1289	0.8605
1280	0.8699
1271	0.5528
1262	0.8336
1253	0.8988
1244	0.9165
1235	0.9292
1226	0.9161
1217	0.8506
1208	0.2445
1199	0.6825
1190	0.6901
1181	0.8939
1172	0.9376
1163	0.9471
1154	0.872
1145	0.9272
1136	0.8737
1127	0.9174
1118	0.9463
1109	0.9505
1100	0.9516
1091	0.9464
1082	0.9391
1073	0.916
1064	0.8959
1055	0.9114
1046	0.9334
1037	0.9345
1028	0.8953
1019	0.8753
1010	0.9471
1001	0.9496
992	0.9488
983	0.9491
974	0.9469
965	0.9447
956	0.943
947	0.941
938	0.9392
929	0.933
920	0.8595
911	0.9169
902	0.9355
893	0.9364
884	0.9307
875	0.9047
866	0.8564
857	0.8061
848	0.8737
839	0.9
830	0.9178
821	0.9295
812	0.9294
803	0.9341
794	0.9246
785	0.9072
776	0.8938
767	0.6826
758	0.7435
749	0.4386
740	0.1128
731	0.8258
722	0.8789
713	0.8894
704	0.8964
695	0.8977
686	0.8844
677	0.8909
668	0.912
659	0.8857
650	0.8834
641	0.8862
632	0.8886
623	0.8955
614	0.9002
605	0.8987
596	0.8998
587	0.8993
578	0.8884
569	0.8905
560	0.8933
551	0.874
542	0.863
533	0.867
524	0.8697
515	0.8655
506	0.8598
497	0.8571
488	0.8568
479	0.8578
470	0.8606
461	0.8669
452	0.8736
