Infrared Spectrum: Benzene, 1-chloro-2-fluoro-
Formula: C6 H4 Cl F
CAS: 348-51-6
State: SOLUTION (10% CCl4 FOR 3800-1330, 10% CS2 FOR 1330-430 CM^-^1) VS SOLVENT
Class: COBLENTZ III
Instrument: DOW KBr FOREPRISM-GRATING
Instrument parameters: BLAZED AT 3.5, 12.0, 20.0 MICRON AND CHANGED AT 5.0, 7.5, 14.9 MICRON
Path length: 0.012 CM, 0.011 CM
Resolution: 2
Origin: DOW CHEMICAL COMPANY
1/CM	TRANSMITTANCE
432	0.8248
441	0.8311
450	0.8444
459	0.8452
468	0.8455
477	0.8423
486	0.813
495	0.4826
504	0.8543
513	0.8513
522	0.8268
531	0.7792
540	0.8146
549	0.762
558	0.7851
567	0.88
576	0.8828
585	0.8916
594	0.8916
603	0.8909
612	0.8947
621	0.8939
630	0.8902
639	0.8854
648	0.8743
657	0.8662
666	0.7437
675	0.1025
684	0.7634
693	0.7958
702	0.8467
711	0.8504
720	0.8329
729	0.7777
738	0.5758
747	0.001
756	0.3719
765	0.7187
774	0.8273
783	0.8507
792	0.8037
801	0.7375
810	0.7704
819	0.6482
828	0.5142
837	0.8104
846	0.8035
855	0.8614
864	0.8674
873	0.8768
882	0.8521
891	0.8828
900	0.8824
909	0.8704
918	0.856
927	0.684
936	0.8261
945	0.8677
954	0.863
963	0.8571
972	0.848
981	0.8639
990	0.8562
999	0.8487
1008	0.8157
1017	0.7256
1026	0.2734
1035	0.8158
1044	0.7697
1053	0.6637
1062	0.4779
1071	0.3564
1080	0.7867
1089	0.8214
1098	0.8267
1107	0.8139
1116	0.7379
1125	0.3347
1134	0.8037
1143	0.8095
1152	0.7496
1161	0.8419
1170	0.8514
1179	0.8711
1188	0.8599
1197	0.832
1206	0.8549
1215	0.8021
1224	0.67
1233	0.084
1242	0.0466
1251	0.6801
1260	0.3267
1269	0.6927
1278	0.7818
1287	0.705
1296	0.83
1305	0.86
1314	0.8718
1323	0.8791
1332	0.8888
1341	0.8882
1350	0.8823
1359	0.8701
1368	0.8733
1377	0.8219
1386	0.7634
1395	0.8385
1404	0.84
1413	0.8037
1422	0.8503
1431	0.8253
1440	0.7485
1449	0.0589
1458	0.7527
1467	0.701
1476	0.3291
1485	0.0057
1494	0.4124
1503	0.5056
1512	0.4851
1521	0.8318
1530	0.8517
1539	0.8674
1548	0.8575
1557	0.8315
1566	0.7748
1575	0.6945
1584	0.3293
1593	0.598
1602	0.7832
1611	0.8253
1620	0.8446
1629	0.8639
1638	0.8556
1647	0.8551
1656	0.8629
1665	0.8708
1674	0.864
1683	0.856
1692	0.8695
1701	0.8761
1710	0.8812
1719	0.885
1728	0.8849
1737	0.8877
1746	0.8731
1755	0.8766
1764	0.8779
1773	0.8254
1782	0.7533
1791	0.8679
1800	0.875
1809	0.8751
1818	0.8542
1827	0.8814
1836	0.8903
1845	0.8906
1854	0.8891
1863	0.8744
1872	0.8664
1881	0.8913
1890	0.8733
1899	0.809
1908	0.834
1917	0.8738
1926	0.8811
1935	0.8368
1944	0.8541
1953	0.9082
1962	0.8885
1971	0.8877
1980	0.8872
1989	0.8897
1998	0.8847
2007	0.8813
2016	0.8841
2025	0.888
2034	0.884
2043	0.879
2052	0.8741
2061	0.8701
2070	0.8777
2079	0.8786
2088	0.8464
2097	0.8748
2106	0.8862
2115	0.886
2124	0.8866
2133	0.887
2142	0.8853
2151	0.8808
2160	0.8767
2169	0.8821
2178	0.8867
2187	0.8869
2196	0.8873
2205	0.8866
2214	0.8859
2223	0.8849
2232	0.883
2241	0.8812
2250	0.8793
2259	0.876
2268	0.8735
2277	0.8728
2286	0.8753
2295	0.8751
2304	0.8581
2313	0.8686
2322	0.8803
2331	0.8813
2340	0.8874
2349	0.888
2358	0.8875
2367	0.8866
2376	0.8824
2385	0.8784
2394	0.8755
2403	0.8728
2412	0.8737
2421	0.8802
2430	0.8836
2439	0.8842
2448	0.8839
2457	0.881
2466	0.8759
2475	0.8721
2484	0.8787
2493	0.8774
2502	0.878
2511	0.8762
2520	0.8652
2529	0.8804
2538	0.8827
2547	0.8796
2556	0.8733
2565	0.8587
2574	0.871
2583	0.8856
2592	0.8876
2601	0.8865
2610	0.8868
2619	0.8868
2628	0.8868
2637	0.8868
2646	0.8866
2655	0.8861
2664	0.8857
2673	0.8853
2682	0.8856
2691	0.8857
2700	0.8859
2709	0.8863
2718	0.887
2727	0.8857
2736	0.8777
2745	0.8829
2754	0.8898
2763	0.8902
2772	0.8903
2781	0.89
2790	0.8898
2799	0.8895
2808	0.8892
2817	0.8889
2826	0.8884
2835	0.8877
2844	0.887
2853	0.8867
2862	0.8869
2871	0.887
2880	0.8869
2889	0.8864
2898	0.886
2907	0.8855
2916	0.8855
2925	0.8869
2934	0.8873
2943	0.8847
2952	0.8811
2961	0.8825
2970	0.8832
2979	0.8824
2988	0.8793
2997	0.8729
3006	0.8587
3015	0.845
3024	0.8342
3033	0.8354
3042	0.8322
3051	0.8118
3060	0.7539
3069	0.7787
3078	0.7268
3087	0.8194
3096	0.8568
3105	0.865
3114	0.8695
3123	0.8729
3132	0.8764
3141	0.8788
3150	0.8795
3159	0.8791
3168	0.8777
3177	0.8786
3186	0.8809
3195	0.8827
3204	0.8825
3213	0.8824
3222	0.8824
3231	0.8824
3240	0.8822
3249	0.8819
3258	0.8817
3267	0.8814
3276	0.8811
3285	0.8805
3294	0.8799
3303	0.8789
3312	0.8778
3321	0.8769
3330	0.876
3339	0.8752
3348	0.8746
3357	0.8742
3366	0.8741
3375	0.8739
3384	0.8746
3393	0.8755
3402	0.8766
3411	0.8784
3420	0.881
3429	0.8824
3438	0.8838
3447	0.8851
3456	0.8863
3465	0.887
3474	0.8878
3483	0.8882
3492	0.8887
3501	0.889
3510	0.8893
3519	0.8894
3528	0.8895
3537	0.8896
3546	0.8897
3555	0.8898
3564	0.8899
3573	0.8901
3582	0.8903
3591	0.8906
3600	0.8907
3609	0.8908
3618	0.8909
3627	0.891
3636	0.8912
3645	0.8914
3654	0.8916
3663	0.8918
3672	0.8924
3681	0.8924
3690	0.892
3699	0.8918
3708	0.8922
3717	0.8925
3726	0.8928
3735	0.8925
3744	0.8923
3753	0.8921
3762	0.8925
3771	0.8928
3780	0.8933
