Infrared Spectrum: PHTHALIMIDE, N-CHLORO-
Formula: C8 H4 Cl N O2
CAS: 3481-09-2
State: SOLID (SPLIT MULL, FLUOROLUBE FOR 3800-1330 AND NUJOL FOR 1330-400 CM ^-^1)
Class: COBLENTZ III
Instrument: DOW KBr FOREPRISM-GRATING
Instrument parameters: BLAZED AT 3.5, 12.0, 20.0 MICRON, CHANGED AT 5.0, 7.5, 14.9 MICRON
Sampling: TRANSMISSION
Resolution: 4
Origin: DOW CHEMICAL COMPANY
1/CM	TRANSMITTANCE
381.488	0.955
390.139	0.955
398.789	0.952
407.44	0.952
416.09	0.952
424.741	0.948
433.391	0.947
442.042	0.946
450.692	0.941
459.343	0.943
467.993	0.944
476.644	0.944
485.294	0.944
493.945	0.946
502.595	0.932
511.246	0.914
519.896	0.751
528.547	0.798
537.197	0.924
545.848	0.92
554.498	0.946
563.149	0.952
571.799	0.95
580.45	0.936
589.1	0.978
597.751	0.987
606.401	0.993
615.052	0.997
623.702	0.998
632.353	0.997
641.003	0.99
649.654	0.997
658.305	0.967
666.955	0.973
675.606	0.929
684.256	0.515
692.907	0.618
701.557	0.097
710.208	0.897
718.858	0.87
727.509	0.943
736.159	0.948
744.81	0.954
753.46	0.97
762.111	0.97
770.761	0.967
779.412	0.956
788.062	0.873
796.713	0.719
805.363	0.929
814.014	0.947
822.664	0.952
831.315	0.94
839.965	0.917
848.616	0.829
857.266	0.4759
865.917	0.551
874.567	0.939
883.218	0.941
891.868	0.929
900.519	0.919
909.169	0.921
917.82	0.928
926.47	0.917
935.121	0.92
943.772	0.914
952.422	0.902
961.073	0.893
969.723	0.869
978.374	0.916
987.024	0.913
995.675	0.9
1004.33	0.84
1012.98	0.885
1021.63	0.875
1030.28	0.829
1038.93	0.815
1047.58	0.709
1056.23	0.456
1064.88	0.302
1073.53	0.182
1082.18	0.604
1090.83	0.5619
1099.48	0.73
1108.13	0.546
1116.78	0.689
1125.43	0.877
1134.08	0.885
1142.73	0.851
1151.38	0.828
1160.03	0.858
1168.68	0.674
1177.34	0.875
1185.99	0.867
1194.64	0.847
1203.29	0.859
1211.94	0.859
1220.59	0.867
1229.24	0.854
1237.89	0.828
1246.54	0.785
1255.19	0.762
1263.84	0.673
1272.49	0.665
1281.14	0.588
1289.79	0.46
1298.44	0.112
1307.09	0.228
1315.74	0.792
1324.39	0.839
1333.04	0.777
1341.7	0.423
1350.35	0.307
1359	0.619
1367.65	0.688
1376.3	0.658
1384.95	0.881
1393.6	0.879
1402.25	0.867
1410.9	0.863
1419.55	0.86
1428.2	0.862
1436.85	0.869
1445.5	0.851
1454.15	0.773
1462.8	0.689
1471.45	0.831
1480.1	0.89
1488.75	0.875
1497.4	0.875
1506.06	0.881
1514.71	0.879
1523.36	0.874
1532.01	0.869
1540.66	0.86
1549.31	0.85
1557.96	0.848
1566.61	0.848
1575.26	0.829
1583.91	0.812
1592.56	0.811
1601.21	0.739
1609.86	0.68
1618.51	0.807
1627.16	0.802
1635.81	0.784
1644.46	0.757
1653.11	0.728
1661.76	0.699
1670.41	0.642
1679.07	0.589
1687.72	0.473
1696.37	0.414
1705.02	0.198
1713.67	0.028
1722.32	0.21
1730.97	0.121
1739.62	0.021
1748.27	0.13
1756.92	0.425
1765.57	0.645
1774.22	0.703
1782.87	0.464
1791.52	0.824
1800.17	0.962
1808.82	0.955
1817.47	0.91
1826.12	0.978
1834.77	0.979
1843.43	0.971
1852.08	0.954
1860.73	0.932
1869.38	0.94
1878.03	0.956
1886.68	0.955
1895.33	0.95
1903.98	0.948
1912.63	0.947
1921.28	0.941
1929.93	0.932
1938.58	0.933
1947.23	0.94
1955.88	0.947
1964.53	0.924
1973.18	0.921
1981.83	0.917
1990.48	0.909
1999.13	0.902
2007.78	0.8935
2016.44	0.889
2025.09	0.8855
2033.74	0.8815
2042.39	0.877
2051.04	0.8734
2059.69	0.87
2068.34	0.8678
2076.99	0.8638
2085.64	0.862
2094.29	0.8594
2102.94	0.856
2111.59	0.855
2120.24	0.8503
2128.89	0.8473
2137.54	0.846
2146.19	0.8446
2154.84	0.84
2163.49	0.838
2172.14	0.838
2180.8	0.8365
2189.45	0.836
2198.1	0.8327
2206.75	0.829
2215.4	0.8215
2224.05	0.819
2232.7	0.811
2241.35	0.8042
2250	0.802
2258.65	0.802
2267.3	0.8
2275.95	0.798
2284.6	0.7943
2293.25	0.792
2301.9	0.7811
2310.55	0.7849
2319.2	0.7899
2327.85	0.793
2336.5	0.792
2345.16	0.7881
2353.81	0.786
2362.46	0.784
2371.11	0.784
2379.76	0.784
2388.41	0.782
2397.06	0.782
2405.71	0.782
2414.36	0.782
2423.01	0.782
2431.66	0.782
2440.31	0.782
2448.96	0.782
2457.61	0.782
2466.26	0.782
2474.91	0.784
2483.56	0.784
2492.21	0.784
2500.86	0.782
2509.51	0.7808
2518.17	0.78
2526.82	0.778
2535.47	0.777
2544.12	0.775
2552.77	0.775
2561.42	0.774
2570.07	0.7738
2578.72	0.77
2587.37	0.7685
2596.02	0.7645
2604.67	0.759
2613.32	0.757
2621.97	0.7547
2630.62	0.753
2639.27	0.751
2647.92	0.7503
2656.57	0.75
2665.22	0.7493
2673.87	0.748
2682.53	0.748
2691.18	0.747
2699.83	0.746
2708.48	0.746
2717.13	0.743
2725.78	0.74
2734.43	0.738
2743.08	0.734
2751.73	0.731
2760.38	0.729
2769.03	0.727
2777.68	0.727
2786.33	0.727
2794.98	0.726
2803.63	0.724
2812.28	0.721
2820.93	0.7179
2829.58	0.7139
2838.23	0.7084
2846.89	0.7076
2855.54	0.707
2864.19	0.7044
2872.84	0.7004
2881.49	0.6977
2890.14	0.696
2898.79	0.695
2907.44	0.69
2916.09	0.69
2924.74	0.692
2933.39	0.6914
2942.04	0.6906
2950.69	0.69
2959.34	0.689
2967.99	0.689
2976.64	0.689
2985.29	0.689
2993.94	0.684
3002.59	0.681
3011.24	0.6762
3019.9	0.6668
3028.55	0.651
3037.2	0.659
3045.85	0.6513
3054.5	0.642
3063.15	0.652
3071.8	0.658
3080.45	0.657
3089.1	0.6358
3097.75	0.6536
3106.4	0.668
3115.05	0.666
3123.7	0.6651
3132.35	0.665
3141	0.663
3149.65	0.662
3158.3	0.661
3166.95	0.659
3175.6	0.658
3184.26	0.655
3192.91	0.653
3201.56	0.65
3210.21	0.65
3218.86	0.653
3227.51	0.653
3236.16	0.651
3244.81	0.651
3253.46	0.651
3262.11	0.649
3270.76	0.6469
3279.41	0.646
3288.06	0.6458
3296.71	0.645
3305.36	0.645
3314.01	0.6428
3322.66	0.6406
3331.31	0.638
3339.96	0.6348
3348.61	0.6325
3357.27	0.634
3365.92	0.634
3374.57	0.631
3383.22	0.628
3391.87	0.626
3400.52	0.624
3409.17	0.62
3417.82	0.618
3426.47	0.618
3435.12	0.616
3443.77	0.6133
3452.42	0.6076
3461.07	0.601
3469.72	0.5898
3478.37	0.585
3487.02	0.5902
3495.67	0.603
3504.32	0.6034
3512.97	0.604
3521.63	0.603
3530.28	0.603
3538.93	0.6035
3547.58	0.603
3556.23	0.601
3564.88	0.5995
3573.53	0.588
3582.18	0.593
3590.83	0.5915
3599.48	0.591
3608.13	0.592
3616.78	0.5899
3625.43	0.589
3634.08	0.588
3642.73	0.588
3651.38	0.587
3660.03	0.5857
3668.68	0.582
3677.33	0.581
3685.99	0.58
3694.64	0.58
3703.29	0.58
3711.94	0.578
3720.59	0.5773
3729.24	0.576
3737.89	0.574
3746.54	0.573
3755.19	0.573
3763.84	0.569
