Infrared Spectrum: 3'-TRIFLUOROMETHYLACETOPHENONE
Formula: C9 H7 F3 O
CAS: 349-76-8
State: SOLUTION (10% CCl4 FOR 3800-1330, 10% CS2 FOR 1330-460 CM^-^1)
Class: COBLENTZ III
Instrument: DOW KBr FOREPRISM-GRATING
Instrument parameters: BLAZED AT 3.5, 12.0, 20.0 MICRON AND CHANGED AT 5.0, 7.5, 14.9 MICRON
Sampling: TRANSMISSION
Path length: 0.010 CM, 0.010 CM
Resolution: 2
Origin: DOW CHEMICAL COMPANY
1/CM	TRANSMITTANCE
433.309	0.798
441.998	0.798
450.688	0.798
459.377	0.8
468.066	0.802
476.756	0.805
485.445	0.812
494.135	0.824
502.824	0.832
511.513	0.85
520.203	0.858
528.892	0.858
537.581	0.857
546.271	0.855
554.96	0.851
563.65	0.82
572.339	0.685
581.028	0.647
589.718	0.681
598.407	0.48
607.096	0.712
615.786	0.817
624.475	0.876
633.164	0.881
641.854	0.861
650.543	0.688
659.233	0.521
667.922	0.843
676.611	0.87
685.301	0.808
693.99	0.1
702.679	0.655
711.369	0.861
720.058	0.779
728.747	0.666
737.437	0.908
746.126	0.923
754.816	0.925
763.505	0.921
772.194	0.914
780.884	0.914
789.573	0.873
798.262	0.589
806.952	0.34
815.641	0.643
824.331	0.812
833.02	0.76
841.709	0.839
850.399	0.742
859.088	0.761
867.777	0.805
876.467	0.838
885.156	0.862
893.845	0.835
902.535	0.571
911.224	0.836
919.914	0.61
928.603	0.602
937.292	0.854
945.982	0.855
954.671	0.623
963.36	0.779
972.05	0.859
980.739	0.893
989.429	0.884
998.118	0.908
1006.81	0.88
1015.5	0.857
1024.19	0.851
1032.88	0.888
1041.56	0.881
1050.25	0.853
1058.94	0.598
1067.63	0.092
1076.32	0.297
1085.01	0.579
1093.7	0.417
1102.39	0.429
1111.08	0.319
1119.77	0.255
1128.46	0.004
1137.15	0.002
1145.84	0.087
1154.53	0.257
1163.22	0.107
1171.91	0.006
1180.59	0.112
1189.28	0.455
1197.97	0.609
1206.66	0.614
1215.35	0.564
1224.04	0.443
1232.73	0.134
1241.42	0.008
1250.11	0.035
1258.8	0.427
1267.49	0.595
1276.18	0.764
1284.87	0.755
1293.56	0.648
1302.25	0.572
1310.94	0.417
1319.62	0.266
1328.31	0.042
1337	0
1345.69	0.292
1354.38	0.492
1363.07	0.106
1371.76	0.421
1380.45	0.717
1389.14	0.842
1397.83	0.868
1406.52	0.869
1415.21	0.756
1423.9	0.627
1432.59	0.605
1441.28	0.42
1449.97	0.731
1458.65	0.87
1467.34	0.899
1476.03	0.902
1484.72	0.877
1493.41	0.77
1502.1	0.823
1510.79	0.783
1519.48	0.751
1528.17	0.712
1536.86	0.647
1545.55	0.553
1554.24	0.518
1562.93	0.585
1571.62	0.65
1580.31	0.658
1588.99	0.636
1597.68	0.559
1606.37	0.704
1615.06	0.432
1623.75	0.661
1632.44	0.847
1641.13	0.88
1649.82	0.892
1658.51	0.855
1667.2	0.853
1675.89	0.816
1684.58	0.563
1693.27	0.013
1701.96	0.023
1710.65	0.4921
1719.34	0.744
1728.02	0.821
1736.71	0.885
1745.4	0.907
1754.09	0.93
1762.78	0.952
1771.47	0.957
1780.16	0.957
1788.85	0.951
1797.54	0.94
1806.23	0.963
1814.92	0.967
1823.61	0.961
1832.3	0.959
1840.99	0.948
1849.68	0.956
1858.37	0.968
1867.05	0.974
1875.74	0.972
1884.43	0.978
1893.12	0.971
1901.81	0.953
1910.5	0.956
1919.19	0.964
1927.88	0.964
1936.57	0.978
1945.26	0.978
1953.95	0.967
1962.64	0.956
1971.33	0.964
1980.02	0.971
1988.71	0.98
1997.4	0.997
2006.08	1.0095
2014.77	1.0165
2023.46	1.0205
2032.15	1.0245
2040.84	1.0245
2049.53	1.021
2058.22	1.0245
2066.91	1.0235
2075.6	1.0259
2084.29	1.025
2092.98	1.025
2101.67	1.0285
2110.36	1.031
2119.05	1.031
2127.74	1.031
2136.43	1.031
2145.11	1.0286
2153.8	1.0246
2162.49	1.0206
2171.18	1.019
2179.87	1.0244
2188.56	1.025
2197.25	1.025
2205.94	1.0196
2214.63	1.016
2223.32	1.0206
2232.01	1.0244
2240.7	1.0038
2249.39	1.006
2258.08	1.008
2266.77	1.0006
2275.45	0.991
2284.14	1.005
2292.83	1.0046
2301.52	0.998
2310.21	1.0021
2318.9	0.9896
2327.59	1.0107
2336.28	1.014
2344.97	1.017
2353.66	1.019
2362.35	1.0191
2371.04	1.021
2379.73	1.0197
2388.42	1.0177
2397.11	1.024
2405.8	1.025
2414.48	1.025
2423.17	1.025
2431.86	1.025
2440.55	1.024
2449.24	1.024
2457.93	1.024
2466.62	1.02
2475.31	1.0184
2484	1.017
2492.69	1.0176
2501.38	1.021
2510.07	1.016
2518.76	1.0218
2527.45	1.0207
2536.14	1.019
2544.83	1.02
2553.51	1.019
2562.2	1.019
2570.89	1.0155
2579.58	1.012
2588.27	1.0137
2596.96	1.0128
2605.65	1.012
2614.34	1.01
2623.03	1.01
2631.72	1.009
2640.41	1.01
2649.1	1.008
2657.79	1.005
2666.48	1.004
2675.17	1.009
2683.86	1.01
2692.54	1.0098
2701.23	1.0092
2709.92	1.01
2718.61	1.01
2727.3	1.0088
2735.99	1.006
2744.68	1.006
2753.37	1.006
2762.06	1.004
2770.75	1.001
2779.44	1.001
2788.13	1.001
2796.82	1.001
2805.51	1.001
2814.2	1.002
2822.89	1.0008
2831.57	0.994
2840.26	0.991
2848.95	0.99
2857.64	0.987
2866.33	0.9869
2875.02	0.985
2883.71	0.985
2892.4	0.983
2901.09	0.979
2909.78	0.9749
2918.47	0.964
2927.16	0.9437
2935.85	0.942
2944.54	0.9514
2953.23	0.956
2961.91	0.9526
2970.6	0.9138
2979.29	0.9261
2987.98	0.9532
2996.67	0.9649
3005.36	0.9484
3014.05	0.9034
3022.74	0.9049
3031.43	0.9494
3040.12	0.957
3048.81	0.956
3057.5	0.944
3066.19	0.9367
3074.88	0.9036
3083.57	0.8558
3092.26	0.9264
3100.94	0.9571
3109.63	0.965
3118.32	0.9651
3127.01	0.979
3135.7	0.982
3144.39	0.985
3153.08	0.989
3161.77	0.991
3170.46	0.993
3179.15	0.993
3187.84	0.991
3196.53	0.99
3205.22	0.987
3213.91	0.987
3222.6	0.99
3231.29	0.99
3239.97	0.993
3248.66	0.993
3257.35	0.993
3266.04	0.99
3274.73	0.99
3283.42	0.99
3292.11	0.989
3300.8	0.987
3309.49	0.987
3318.18	0.987
3326.87	0.986
3335.56	0.9831
3344.25	0.982
3352.94	0.9801
3361.63	0.9743
3370.32	0.9277
3379	0.9171
3387.69	0.929
3396.38	0.9674
3405.07	0.976
3413.76	0.9778
3422.45	0.978
3431.14	0.978
3439.83	0.978
3448.52	0.978
3457.21	0.976
3465.9	0.976
3474.59	0.9762
3483.28	0.976
3491.97	0.976
3500.66	0.975
3509.35	0.971
3518.03	0.971
3526.72	0.971
3535.41	0.971
3544.1	0.972
3552.79	0.974
3561.48	0.975
3570.17	0.976
3578.86	0.976
3587.55	0.978
3596.24	0.978
3604.93	0.978
3613.62	0.978
3622.31	0.978
3631	0.978
3639.69	0.978
3648.38	0.978
3657.06	0.978
3665.75	0.978
3674.44	0.9744
3683.13	0.97
3691.82	0.968
3700.51	0.974
3709.2	0.978
3717.89	0.979
3726.58	0.983
3735.27	0.9845
3743.96	0.985
3752.65	0.9822
3761.34	0.979
3770.03	0.979
3778.72	0.979
3787.4	0.979
3796.09	0.979
