Infrared Spectrum: 3,5-Xylenol, Aplha,Aplha,Aplha,Aplha',Aplha',Aplha'-hexafluoro-
Formula: C8 H4 F6 O
CAS: 349-58-6
State: SOLUTION (10% CCl4 FOR 3800-400 CM^-^1)
Class: COBLENTZ III
Instrument: BECKMAN IR-9 (GRATING)
Instrument parameters: ORDER CHANGES: 670, 1200, 2000 CM^-^1
Sampling: TRANSMISSION
Path length: 0.011 CM
Resolution: 2
Origin: DOW CHEMICAL COMPANY
1/CM	TRANSMITTANCE
402	0.4885
411	0.486
420	0.5216
429	0.571
438	0.6083
447	0.6134
456	0.6265
465	0.6556
474	0.6543
483	0.5915
492	0.7105
501	0.7804
510	0.8043
519	0.8104
528	0.7475
537	0.6987
546	0.7942
555	0.8182
564	0.8274
573	0.8297
582	0.8328
591	0.8443
600	0.8414
609	0.8365
618	0.6968
627	0.6568
636	0.7539
645	0.8048
654	0.8024
663	0.7847
672	0.7475
681	0.5427
690	0.5456
699	0.4165
708	0.309
717	0.4947
726	0.3177
735	0.0533
744	0
753	0
762	0
771	0
780	0
789	0
798	0
807	0
816	0.0181
825	0.2321
834	0.4587
843	0.5527
852	0.343
861	0.6065
870	0.5359
879	0.1417
888	0.1841
897	0.5452
906	0.7734
915	0.8275
924	0.8165
933	0.5794
942	0.0132
951	0.3823
960	0.7662
969	0.7304
978	0.6432
987	0.6465
996	0.6778
1005	0.4115
1014	0.6484
1023	0.7737
1032	0.8524
1041	0.8735
1050	0.8618
1059	0.8306
1068	0.8095
1077	0.7928
1086	0.7621
1095	0.6287
1104	0.091
1113	0.4357
1122	0.3475
1131	0.0597
1140	0
1149	0
1158	0.0402
1167	0.0441
1176	0
1185	0
1194	0.0469
1203	0.2475
1212	0.3169
1221	0.3799
1230	0.4312
1239	0.3849
1248	0.3504
1257	0.4049
1266	0.368
1275	0.1162
1284	0
1293	0.0246
1302	0.2029
1311	0.4889
1320	0.6438
1329	0.6154
1338	0.4787
1347	0.4993
1356	0.4857
1365	0.4518
1374	0.2628
1383	0.0102
1392	0.0657
1401	0.4431
1410	0.6319
1419	0.7335
1428	0.7634
1437	0.7735
1446	0.7618
1455	0.4662
1464	0.06
1473	0.436
1482	0.5418
1491	0.6316
1500	0.5403
1509	0.6344
1518	0.6116
1527	0.5755
1536	0.5012
1545	0.4381
1554	0.4154
1563	0.4483
1572	0.5268
1581	0.5297
1590	0.5449
1599	0.569
1608	0.4557
1617	0.3056
1626	0.5404
1635	0.5221
1644	0.6825
1653	0.7688
1662	0.8089
1671	0.8235
1680	0.8424
1689	0.8498
1698	0.847
1707	0.8328
1716	0.8421
1725	0.8521
1734	0.8494
1743	0.8274
1752	0.8183
1761	0.8108
1770	0.7791
1779	0.8017
1788	0.7998
1797	0.828
1806	0.8509
1815	0.8568
1824	0.8588
1833	0.8616
1842	0.8692
1851	0.8654
1860	0.8608
1869	0.8598
1878	0.8655
1887	0.8692
1896	0.8675
1905	0.8645
1914	0.8655
1923	0.8678
1932	0.8699
1941	0.8708
1950	0.8707
1959	0.8728
1968	0.8757
1977	0.8718
1986	0.8637
1995	0.8599
2004	0.8685
2013	0.8678
2022	0.869
2031	0.8741
2040	0.8797
2049	0.889
2058	0.8915
2067	0.8923
2076	0.8905
2085	0.8878
2094	0.887
2103	0.8891
2112	0.884
2121	0.8724
2130	0.874
2139	0.8806
2148	0.8841
2157	0.8843
2166	0.8806
2175	0.8687
2184	0.8587
2193	0.8688
2202	0.8796
2211	0.8828
2220	0.8777
2229	0.8668
2238	0.8568
2247	0.8605
2256	0.8612
2265	0.8542
2274	0.8463
2283	0.8392
2292	0.8444
2301	0.8502
2310	0.8536
2319	0.8518
2328	0.8515
2337	0.8528
2346	0.8532
2355	0.854
2364	0.8557
2373	0.8574
2382	0.8593
2391	0.8618
2400	0.8587
2409	0.8507
2418	0.842
2427	0.8508
2436	0.8624
2445	0.8675
2454	0.8667
2463	0.8611
2472	0.8633
2481	0.8655
2490	0.8694
2499	0.8725
2508	0.8728
2517	0.8716
2526	0.8701
2535	0.8685
2544	0.8667
2553	0.8577
2562	0.854
2571	0.8586
2580	0.8634
2589	0.8675
2598	0.8703
2607	0.8671
2616	0.8633
2625	0.8646
2634	0.8712
2643	0.8681
2652	0.8573
2661	0.839
2670	0.8478
2679	0.8558
2688	0.8588
2697	0.8615
2706	0.8635
2715	0.8645
2724	0.8655
2733	0.8667
2742	0.8678
2751	0.8692
2760	0.8703
2769	0.8665
2778	0.8614
2787	0.8628
2796	0.8634
2805	0.8633
2814	0.8627
2823	0.8614
2832	0.8596
2841	0.8571
2850	0.8525
2859	0.8527
2868	0.8544
2877	0.8553
2886	0.8553
2895	0.8547
2904	0.8538
2913	0.8525
2922	0.8513
2931	0.8499
2940	0.8486
2949	0.8473
2958	0.8462
2967	0.8451
2976	0.8441
2985	0.8431
2994	0.8421
3003	0.8411
3012	0.8385
3021	0.8366
3030	0.839
3039	0.8316
3048	0.8121
3057	0.8025
3066	0.7918
3075	0.7705
3084	0.7712
3093	0.775
3102	0.7892
3111	0.7987
3120	0.8042
3129	0.8088
3138	0.8112
3147	0.8125
3156	0.8118
3165	0.8088
3174	0.8046
3183	0.7998
3192	0.7949
3201	0.7899
3210	0.784
3219	0.778
3228	0.7715
3237	0.7651
3246	0.7604
3255	0.7565
3264	0.754
3273	0.7511
3282	0.7471
3291	0.7411
3300	0.7336
3309	0.7251
3318	0.7164
3327	0.7071
3336	0.6975
3345	0.6867
3354	0.6765
3363	0.668
3372	0.6621
3381	0.6582
3390	0.6586
3399	0.6622
3408	0.6688
3417	0.6807
3426	0.6872
3435	0.6967
3444	0.7053
3453	0.7103
3462	0.7133
3471	0.7171
3480	0.721
3489	0.7256
3498	0.7314
3507	0.7391
3516	0.7458
3525	0.7504
3534	0.7501
3543	0.7448
3552	0.7275
3561	0.6926
3570	0.6214
3579	0.3568
3588	0.127
3597	0.1522
3606	0.307
3615	0.4618
3624	0.6165
3633	0.7407
3642	0.7878
3651	0.8022
3660	0.8006
3669	0.7911
3678	0.7721
3687	0.7576
3696	0.7681
3705	0.7968
3714	0.8118
3723	0.8234
3732	0.8304
3741	0.8353
3750	0.8378
3759	0.8391
3768	0.8395
3777	0.8394
3786	0.839
