Infrared Spectrum: BENZENE, 1-FLUORO-4-NITRO-
Formula: C6 H4 F N O2
CAS: 350-46-9
State: SOLUTION (10% CCl4 FOR 3800-1340, 10% CS2 FOR 1340-440)
Class: COBLENTZ III
Instrument: DOW KBr FOREPRISM-GRATING
Instrument parameters: BLAZED AT 3.5, 12.0, 20.0 MICRON AND CHANGED AT 5.0, 7.5, 14.9 MICRON
Sampling: TRANSMISSION
Path length: 0.0113 CM, 0.0109 CM
Resolution: 2
Origin: DOW CHEMICAL COMPANY
1/CM	TRANSMITTANCE
3820	0.8836
3811	0.8837
3802	0.8838
3793	0.8834
3784	0.8828
3775	0.8811
3766	0.879
3757	0.8771
3748	0.8753
3739	0.8756
3730	0.8759
3721	0.8738
3712	0.8718
3703	0.8703
3694	0.8727
3685	0.8758
3676	0.8778
3667	0.8791
3658	0.8803
3649	0.8806
3640	0.8809
3631	0.8812
3622	0.8811
3613	0.8804
3604	0.8799
3595	0.8792
3586	0.8787
3577	0.8778
3568	0.877
3559	0.8761
3550	0.8753
3541	0.8744
3532	0.8733
3523	0.872
3514	0.8708
3505	0.8696
3496	0.8684
3487	0.8671
3478	0.8659
3469	0.8646
3460	0.8635
3451	0.8623
3442	0.8613
3433	0.8603
3424	0.8593
3415	0.8585
3406	0.8581
3397	0.8575
3388	0.8571
3379	0.8573
3370	0.858
3361	0.8586
3352	0.8592
3343	0.8598
3334	0.8616
3325	0.8633
3316	0.865
3307	0.8665
3298	0.868
3289	0.8694
3280	0.8709
3271	0.8715
3262	0.8721
3253	0.8701
3244	0.8607
3235	0.8634
3226	0.8655
3217	0.8664
3208	0.8671
3199	0.8678
3190	0.8686
3181	0.8686
3172	0.8683
3163	0.8675
3154	0.862
3145	0.8525
3136	0.8221
3127	0.7069
3118	0.7561
3109	0.7939
3100	0.6043
3091	0.6305
3082	0.7256
3073	0.8184
3064	0.8359
3055	0.8464
3046	0.8578
3037	0.8655
3028	0.871
3019	0.8738
3010	0.8738
3001	0.8689
2992	0.868
2983	0.8689
2974	0.8709
2965	0.8681
2956	0.8562
2947	0.8441
2938	0.8359
2929	0.8475
2920	0.8516
2911	0.8525
2902	0.8542
2893	0.8545
2884	0.8464
2875	0.8146
2866	0.6831
2857	0.7514
2848	0.832
2839	0.8528
2830	0.8634
2821	0.8697
2812	0.8715
2803	0.875
2794	0.8771
2785	0.8747
2776	0.8478
2767	0.8621
2758	0.862
2749	0.8688
2740	0.8683
2731	0.8616
2722	0.8682
2713	0.871
2704	0.8657
2695	0.8636
2686	0.8637
2677	0.8695
2668	0.8748
2659	0.8761
2650	0.8155
2641	0.8191
2632	0.8367
2623	0.852
2614	0.8608
2605	0.862
2596	0.8653
2587	0.8724
2578	0.8767
2569	0.8762
2560	0.8736
2551	0.8767
2542	0.8817
2533	0.8831
2524	0.8775
2515	0.8753
2506	0.872
2497	0.8662
2488	0.8591
2479	0.8512
2470	0.8425
2461	0.8304
2452	0.7746
2443	0.8644
2434	0.8709
2425	0.8738
2416	0.8761
2407	0.8733
2398	0.845
2389	0.842
2380	0.8611
2371	0.8677
2362	0.8702
2353	0.8716
2344	0.8718
2335	0.8586
2326	0.8592
2317	0.8641
2308	0.8584
2299	0.8521
2290	0.8534
2281	0.8573
2272	0.862
2263	0.8634
2254	0.8578
2245	0.8603
2236	0.8699
2227	0.8747
2218	0.8624
2209	0.8662
2200	0.8771
2191	0.8808
2182	0.8824
2173	0.8828
2164	0.8832
2155	0.8838
2146	0.8848
2137	0.8853
2128	0.8845
2119	0.873
2110	0.8656
2101	0.8706
2092	0.8777
2083	0.883
2074	0.8847
2065	0.8794
2056	0.8582
2047	0.8465
2038	0.8578
2029	0.8648
2020	0.8642
2011	0.8621
2002	0.8696
1993	0.8783
1984	0.882
1975	0.8703
1966	0.868
1957	0.8659
1948	0.8709
1939	0.8777
1930	0.8764
1921	0.8581
1912	0.7438
1903	0.7794
1894	0.8571
1885	0.8755
1876	0.8768
1867	0.8635
1858	0.8703
1849	0.873
1840	0.8742
1831	0.8765
1822	0.875
1813	0.8689
1804	0.8627
1795	0.8744
1786	0.877
1777	0.8497
1768	0.8039
1759	0.8518
1750	0.8668
1741	0.8692
1732	0.8492
1723	0.8548
1714	0.8584
1705	0.8537
1696	0.8416
1687	0.8568
1678	0.8425
1669	0.7818
1660	0.749
1651	0.7748
1642	0.7495
1633	0.7211
1624	0.0866
1615	0.2959
1606	0.1885
1597	0.0096
1588	0.2197
1579	0.3098
1570	0.3416
1561	0.3209
1552	0.2125
1543	0.0628
1534	0.0009
1525	0.0233
1516	0.2491
1507	0.2601
1498	0.0046
1489	0.4294
1480	0.5991
1471	0.4256
1462	0.6145
1453	0.7265
1444	0.731
1435	0.7547
1426	0.7639
1417	0.7628
1408	0.8278
1399	0.8348
1390	0.8085
1381	0.7811
1372	0.6476
1363	0.0291
1354	0.0098
1345	0.0052
1336	0.1883
1327	0.4658
1318	0.523
1309	0.6635
1300	0.6746
1291	0.6443
1282	0.6169
1273	0.7474
1264	0.728
1255	0.6093
1246	0.0121
1237	0.0933
1228	0.1603
1219	0.4854
1210	0.7661
1201	0.8174
1192	0.8343
1183	0.8348
1174	0.7994
1165	0.7665
1156	0.6937
1147	0.2866
1138	0.7608
1129	0.8028
1120	0.7993
1111	0.0649
1102	0.5328
1093	0.4842
1084	0.6846
1075	0.7765
1066	0.8165
1057	0.8274
1048	0.8303
1039	0.8334
1030	0.8382
1021	0.843
1012	0.4309
1003	0.7928
994	0.8241
985	0.8168
976	0.8108
967	0.8111
958	0.8114
949	0.7665
940	0.8143
931	0.8274
922	0.8361
913	0.839
904	0.8371
895	0.8217
886	0.7821
877	0.6924
868	0.1072
859	0.1106
850	0.0696
841	0.5189
832	0.7068
823	0.764
814	0.748
805	0.7368
796	0.7747
787	0.7982
778	0.8168
769	0.8225
760	0.7821
751	0.0064
742	0.7121
733	0.8041
724	0.8253
715	0.8311
706	0.8317
697	0.8294
688	0.8065
679	0.2598
670	0.6849
661	0.7625
652	0.7648
643	0.7736
634	0.7818
625	0.4429
616	0.2237
607	0.759
598	0.8191
589	0.8438
580	0.848
571	0.8487
562	0.8493
553	0.849
544	0.8483
535	0.8349
526	0.7925
517	0.7975
508	0.7967
499	0.6725
490	0.5043
481	0.6928
472	0.7351
463	0.7467
454	0.7478
445	0.7464
436	0.7449
