Infrared Spectrum: TOLUENE, m-FLUORO-
Formula: C7 H7 F
CAS: 352-70-5
State: SOLUTION (10% CCl4 FOR 3800-670, 10% CS2 FOR 670-450)
Class: COBLENTZ III
Instrument: DOW KBr FOREPRISM-GRATING
Instrument parameters: BLAZED AT 3.5, 12.0, 20.0 MICRON AND CHANGED AT 5.0, 7.5, 14.9 MICRON
Sampling: TRANSMISSION
Path length: 0.012 CM, 0.012 CM
Resolution: 2
Origin: DOW CHEMICAL COMPANY
1/CM	TRANSMITTANCE
3804	0.8927
3795	0.8923
3786	0.892
3777	0.8918
3768	0.8924
3759	0.893
3750	0.8947
3741	0.8965
3732	0.8974
3723	0.8977
3714	0.898
3705	0.8978
3696	0.8975
3687	0.8971
3678	0.897
3669	0.8968
3660	0.8967
3651	0.8966
3642	0.8966
3633	0.8967
3624	0.8958
3615	0.8945
3606	0.8928
3597	0.888
3588	0.8514
3579	0.8752
3570	0.8904
3561	0.8911
3552	0.8915
3543	0.8905
3534	0.8896
3525	0.8886
3516	0.8874
3507	0.8861
3498	0.886
3489	0.8861
3480	0.8863
3471	0.8859
3462	0.8854
3453	0.8842
3444	0.8813
3435	0.8793
3426	0.8778
3417	0.8768
3408	0.8763
3399	0.8757
3390	0.8752
3381	0.8749
3372	0.8747
3363	0.8745
3354	0.8745
3345	0.8749
3336	0.8753
3327	0.8764
3318	0.8778
3309	0.8785
3300	0.8792
3291	0.8797
3282	0.8802
3273	0.8805
3264	0.8814
3255	0.8821
3246	0.8821
3237	0.8821
3228	0.8814
3219	0.8816
3210	0.8824
3201	0.8828
3192	0.8832
3183	0.8821
3174	0.8813
3165	0.8809
3156	0.8804
3147	0.8787
3138	0.8766
3129	0.8735
3120	0.8617
3111	0.8371
3102	0.8348
3093	0.789
3084	0.6987
3075	0.7038
3066	0.7106
3057	0.6755
3048	0.6075
3039	0.5931
3030	0.6538
3021	0.6989
3012	0.7174
3003	0.7207
2994	0.6768
2985	0.6212
2976	0.5977
2967	0.6003
2958	0.603
2949	0.6097
2940	0.616
2931	0.5664
2922	0.4758
2913	0.5526
2904	0.6897
2895	0.7115
2886	0.7278
2877	0.7165
2868	0.6608
2859	0.6549
2850	0.7308
2841	0.7867
2832	0.8203
2823	0.8406
2814	0.8518
2805	0.8597
2796	0.8651
2787	0.8678
2778	0.8694
2769	0.8702
2760	0.8702
2751	0.8688
2742	0.8634
2733	0.8307
2724	0.8528
2715	0.8697
2706	0.876
2697	0.8797
2688	0.8812
2679	0.8821
2670	0.8825
2661	0.8828
2652	0.883
2643	0.8828
2634	0.8821
2625	0.8777
2616	0.8771
2607	0.878
2598	0.8768
2589	0.8755
2580	0.8743
2571	0.8744
2562	0.8797
2553	0.881
2544	0.8781
2535	0.8771
2526	0.8775
2517	0.8718
2508	0.8718
2499	0.8745
2490	0.8764
2481	0.8777
2472	0.8788
2463	0.8794
2454	0.8793
2445	0.8773
2436	0.8742
2427	0.8709
2418	0.866
2409	0.8582
2400	0.8493
2391	0.8554
2382	0.8594
2373	0.8628
2364	0.8668
2355	0.8713
2346	0.8774
2337	0.8818
2328	0.8832
2319	0.8721
2310	0.8641
2301	0.8587
2292	0.8557
2283	0.8553
2274	0.8586
2265	0.8638
2256	0.8694
2247	0.8733
2238	0.8751
2229	0.8763
2220	0.8763
2211	0.8799
2202	0.8849
2193	0.8771
2184	0.8698
2175	0.8724
2166	0.8771
2157	0.8815
2148	0.8802
2139	0.8818
2130	0.8844
2121	0.8856
2112	0.8827
2103	0.881
2094	0.884
2085	0.8828
2076	0.881
2067	0.8725
2058	0.8688
2049	0.8761
2040	0.8799
2031	0.8808
2022	0.8786
2013	0.8732
2004	0.8678
1995	0.8621
1986	0.8781
1977	0.8786
1968	0.8806
1959	0.8986
1950	0.8857
1941	0.8762
1932	0.8196
1923	0.8062
1914	0.8698
1905	0.8797
1896	0.881
1887	0.883
1878	0.8801
1869	0.8293
1860	0.858
1851	0.8078
1842	0.8651
1833	0.8734
1824	0.858
1815	0.8694
1806	0.8797
1797	0.8845
1788	0.8824
1779	0.8762
1770	0.8762
1761	0.8765
1752	0.8577
1743	0.783
1734	0.8155
1725	0.8615
1716	0.8567
1707	0.845
1698	0.8699
1689	0.8713
1680	0.8688
1671	0.827
1662	0.8132
1653	0.7938
1644	0.8095
1635	0.7444
1626	0.464
1617	0.1442
1608	0.3453
1599	0.2202
1590	0.054
1581	0.1634
1572	0.3177
1563	0.3364
1554	0.3466
1545	0.3472
1536	0.3859
1527	0.4
1518	0.3548
1509	0.4335
1500	0.3756
1491	0.0232
1482	0.3259
1473	0.4645
1464	0.2643
1455	0.2584
1446	0.3788
1437	0.4458
1428	0.5437
1419	0.6821
1410	0.7051
1401	0.7918
1392	0.8186
1383	0.7883
1374	0.7761
1365	0.827
1356	0.8413
1347	0.8352
1338	0.8464
1329	0.8378
1320	0.8474
1311	0.8424
1302	0.8236
1293	0.7954
1284	0.7855
1275	0.622
1266	0.0174
1257	0.3056
1248	0.2015
1239	0.6461
1230	0.7939
1221	0.8115
1212	0.8037
1203	0.8571
1194	0.8605
1185	0.8505
1176	0.831
1167	0.8067
1158	0.7721
1149	0.6897
1140	0.0175
1131	0.4912
1122	0.6754
1113	0.7464
1104	0.8258
1095	0.8406
1086	0.8356
1077	0.6206
1068	0.7878
1059	0.8184
1050	0.801
1041	0.7361
1032	0.7321
1023	0.7942
1014	0.8081
1005	0.7269
996	0.7201
987	0.7467
978	0.7974
969	0.8183
960	0.8096
951	0.8306
942	0.8338
933	0.7368
924	0.0854
915	0.4936
906	0.7924
897	0.8108
888	0.7385
879	0.3889
870	0.6928
861	0.5776
852	0.0996
843	0.663
834	0.8034
825	0.8517
816	0.8414
807	0.8336
798	0.8347
789	0.7968
780	0.3695
771	0.0087
762	0.6614
753	0.7611
744	0.8232
735	0.8343
726	0.2353
717	0.8151
708	0.8582
699	0.8585
690	0.8121
681	0.2975
672	0.5593
663	0.824
654	0.8344
645	0.8345
636	0.853
627	0.866
618	0.8799
609	0.8828
600	0.8837
591	0.8839
582	0.8798
573	0.883
564	0.8821
555	0.874
546	0.8701
537	0.8498
528	0.3453
519	0.7608
510	0.6401
501	0.8145
492	0.8265
483	0.8278
474	0.825
465	0.8212
456	0.8138
447	0.7957
