Infrared Spectrum: 1-Chloro-4-fluorobenzene
Formula: C6 H4 Cl F
CAS: 352-33-0
State: SOLUTION (10% CCl4 FOR 3800-1330, 10% CS2 FOR 1330-430 CM^-^1)
Boiling point: 130 C
Class: COBLENTZ III
Instrument: DOW KBr FOREPRISM-GRATING
Instrument parameters: BLAZED AT 3.5, 12.0, 20.0 MICRON AND CHANGED AT 5.0, 7.5, 14.9 MICRON
Sampling: TRANSMISSION
Path length: 0.012 CM, 0.011 CM
Resolution: 2
Origin: DOW CHEMICAL COMPANY
1/CM	TRANSMITTANCE
3764	0.8882
3755	0.8891
3746	0.8901
3737	0.8888
3728	0.8843
3719	0.8782
3710	0.8775
3701	0.8813
3692	0.8773
3683	0.8765
3674	0.8781
3665	0.8788
3656	0.881
3647	0.8861
3638	0.8875
3629	0.8882
3620	0.8888
3611	0.8893
3602	0.8891
3593	0.8889
3584	0.8888
3575	0.8886
3566	0.8882
3557	0.8874
3548	0.8868
3539	0.8859
3530	0.8849
3521	0.8839
3512	0.8831
3503	0.8821
3494	0.8813
3485	0.8807
3476	0.8803
3467	0.8799
3458	0.8792
3449	0.8781
3440	0.8762
3431	0.8739
3422	0.8718
3413	0.8693
3404	0.8691
3395	0.8692
3386	0.8694
3377	0.8695
3368	0.8696
3359	0.8697
3350	0.8699
3341	0.8701
3332	0.8707
3323	0.8713
3314	0.8718
3305	0.8728
3296	0.8738
3287	0.8747
3278	0.8757
3269	0.876
3260	0.8759
3251	0.8758
3242	0.8757
3233	0.8756
3224	0.8755
3215	0.8749
3206	0.8743
3197	0.8736
3188	0.8732
3179	0.8731
3170	0.8728
3161	0.8711
3152	0.8695
3143	0.8678
3134	0.8654
3125	0.8598
3116	0.8471
3107	0.834
3098	0.8314
3089	0.836
3080	0.8331
3071	0.825
3062	0.845
3053	0.8505
3044	0.8385
3035	0.8543
3026	0.8647
3017	0.8728
3008	0.8753
2999	0.8773
2990	0.8778
2981	0.8781
2972	0.8783
2963	0.8787
2954	0.8792
2945	0.8795
2936	0.8799
2927	0.8797
2918	0.8793
2909	0.8787
2900	0.8778
2891	0.8771
2882	0.8761
2873	0.8698
2864	0.8481
2855	0.8439
2846	0.8586
2837	0.8765
2828	0.879
2819	0.8787
2810	0.8806
2801	0.8828
2792	0.8843
2783	0.885
2774	0.8818
2765	0.8715
2756	0.8774
2747	0.8813
2738	0.8833
2729	0.8834
2720	0.8823
2711	0.8806
2702	0.8811
2693	0.8817
2684	0.8809
2675	0.8764
2666	0.8799
2657	0.8825
2648	0.8833
2639	0.8778
2630	0.8696
2621	0.8791
2612	0.881
2603	0.8815
2594	0.8803
2585	0.8781
2576	0.8768
2567	0.8791
2558	0.8718
2549	0.8432
2540	0.8789
2531	0.8815
2522	0.8806
2513	0.8787
2504	0.8754
2495	0.8744
2486	0.876
2477	0.8778
2468	0.8763
2459	0.8637
2450	0.8531
2441	0.8578
2432	0.8635
2423	0.8684
2414	0.8695
2405	0.8653
2396	0.8724
2387	0.8707
2378	0.8631
2369	0.8568
2360	0.866
2351	0.8714
2342	0.8746
2333	0.8754
2324	0.8753
2315	0.8734
2306	0.849
2297	0.8608
2288	0.8732
2279	0.8751
2270	0.8761
2261	0.8753
2252	0.8661
2243	0.8374
2234	0.8658
2225	0.8747
2216	0.878
2207	0.8805
2198	0.8821
2189	0.8821
2180	0.882
2171	0.8809
2162	0.8744
2153	0.8792
2144	0.8821
2135	0.8832
2126	0.8842
2117	0.8837
2108	0.8825
2099	0.8807
2090	0.8788
2081	0.877
2072	0.8752
2063	0.8736
2054	0.8542
2045	0.8295
2036	0.8478
2027	0.8621
2018	0.8663
2009	0.8704
2000	0.8756
1991	0.8815
1982	0.8868
1973	0.8883
1964	0.8811
1955	0.9175
1946	0.8883
1937	0.8868
1928	0.8878
1919	0.8868
1910	0.8811
1901	0.8786
1892	0.8711
1883	0.8452
1874	0.6189
1865	0.7644
1856	0.8488
1847	0.8736
1838	0.8801
1829	0.8748
1820	0.8814
1811	0.8836
1802	0.8835
1793	0.8798
1784	0.8711
1775	0.8844
1766	0.8842
1757	0.8567
1748	0.809
1739	0.8471
1730	0.8524
1721	0.8418
1712	0.8639
1703	0.8792
1694	0.8795
1685	0.8794
1676	0.8771
1667	0.8707
1658	0.8656
1649	0.8398
1640	0.8028
1631	0.7028
1622	0.8008
1613	0.8268
1604	0.8049
1595	0.1505
1586	0.7111
1577	0.8256
1568	0.8513
1559	0.8691
1550	0.8407
1541	0.8325
1532	0.7757
1523	0.7031
1514	0.6555
1505	0.6158
1496	0.1264
1487	0.0112
1478	0.3941
1469	0.5768
1460	0.786
1451	0.831
1442	0.8384
1433	0.7707
1424	0.6598
1415	0.8497
1406	0.8494
1397	0.8158
1388	0.8644
1379	0.8687
1370	0.862
1361	0.8585
1352	0.8608
1343	0.8736
1334	0.8744
1325	0.8683
1316	0.8686
1307	0.8596
1298	0.8501
1289	0.842
1280	0.7686
1271	0.7751
1262	0.7581
1253	0.7864
1244	0.6504
1235	0.0116
1226	0.0405
1217	0.2575
1208	0.6699
1199	0.7865
1190	0.7726
1181	0.8354
1172	0.8508
1163	0.8496
1154	0.7588
1145	0.6942
1136	0.8297
1127	0.8493
1118	0.8563
1109	0.7798
1100	0.7435
1091	0.0073
1082	0.3994
1073	0.758
1064	0.7825
1055	0.8349
1046	0.8467
1037	0.8562
1028	0.8562
1019	0.8126
1010	0.2637
1001	0.7328
992	0.8175
983	0.8615
974	0.8671
965	0.8655
956	0.8588
947	0.8495
938	0.8405
929	0.8444
920	0.8325
911	0.8616
902	0.8687
893	0.8665
884	0.8668
875	0.8624
866	0.8488
857	0.8349
848	0.8283
839	0.7275
830	0.1639
821	0.0688
812	0.4233
803	0.7108
794	0.7682
785	0.8375
776	0.872
767	0.8725
758	0.8871
749	0.8812
740	0.881
731	0.8856
722	0.8895
713	0.8916
704	0.891
695	0.8875
686	0.8644
677	0.8754
668	0.8771
659	0.8678
650	0.8567
641	0.7988
632	0.0023
623	0.6489
614	0.8065
605	0.8557
596	0.8654
587	0.8703
578	0.8714
569	0.8736
560	0.8781
551	0.8701
542	0.8653
533	0.8627
524	0.8534
515	0.8301
506	0.705
497	0.0346
488	0.6806
479	0.7796
470	0.8058
461	0.811
452	0.8126
443	0.8132
434	0.813
