Infrared Spectrum: FUMARIC ACID, BIS-(2,2,2-TRIFLUOROETHYL)ESTER-
Formula: C8 H6 F6 O4
CAS: 352-28-3
State: SOLID (OIL MULL)
Melting point: 40 C
Class: COBLENTZ III
Instrument: BAIRD (GRATING)
Instrument parameters: NaCl PRISM
Sampling: TRANSMISSION
Resolution: 2
Origin: WYANDOTTE CHEMICALS CORP.
1/CM	TRANSMITTANCE
4000	0.7318
3991	0.7321
3982	0.7321
3973	0.7325
3964	0.7325
3955	0.7328
3946	0.733
3937	0.7333
3928	0.7335
3919	0.7343
3910	0.7351
3901	0.7361
3892	0.7384
3883	0.7412
3874	0.7443
3865	0.7471
3856	0.7499
3847	0.7528
3838	0.7545
3829	0.7548
3820	0.7534
3811	0.7518
3802	0.7484
3793	0.7454
3784	0.7444
3775	0.7451
3766	0.7462
3757	0.7474
3748	0.7489
3739	0.7503
3730	0.7518
3721	0.7532
3712	0.7547
3703	0.7561
3694	0.7574
3685	0.7586
3676	0.7599
3667	0.7611
3658	0.7621
3649	0.7625
3640	0.763
3631	0.7635
3622	0.7639
3613	0.7643
3604	0.7644
3595	0.7644
3586	0.7644
3577	0.7644
3568	0.7643
3559	0.7643
3550	0.764
3541	0.7635
3532	0.7631
3523	0.7625
3514	0.7608
3505	0.7591
3496	0.7574
3487	0.7557
3478	0.7538
3469	0.7514
3460	0.749
3451	0.7465
3442	0.7442
3433	0.7415
3424	0.739
3415	0.7361
3406	0.7338
3397	0.7331
3388	0.7324
3379	0.7317
3370	0.7311
3361	0.7308
3352	0.7306
3343	0.7301
3334	0.7299
3325	0.7296
3316	0.7295
3307	0.7297
3298	0.7301
3289	0.7305
3280	0.7314
3271	0.7334
3262	0.7356
3253	0.7376
3244	0.74
3235	0.7414
3226	0.7418
3217	0.7424
3208	0.7419
3199	0.7415
3190	0.7408
3181	0.7406
3172	0.7404
3163	0.7403
3154	0.7401
3145	0.74
3136	0.7396
3127	0.7394
3118	0.739
3109	0.7385
3100	0.7339
3091	0.7239
3082	0.7061
3073	0.6818
3064	0.658
3055	0.6461
3046	0.6625
3037	0.6811
3028	0.6965
3019	0.694
3010	0.6881
3001	0.6815
2992	0.6611
2983	0.5775
2974	0.3847
2965	0.3253
2956	0.2655
2947	0.2052
2938	0.1446
2929	0.0837
2920	0.0483
2911	0.043
2902	0.0427
2893	0.0469
2884	0.0601
2875	0.0813
2866	0.0987
2857	0.1074
2848	0.1113
2839	0.1098
2830	0.1045
2821	0.109
2812	0.2172
2803	0.3274
2794	0.4383
2785	0.55
2776	0.5976
2767	0.6239
2758	0.6458
2749	0.6633
2740	0.6761
2731	0.6825
2722	0.6846
2713	0.6858
2704	0.6872
2695	0.6894
2686	0.6918
2677	0.6946
2668	0.6987
2659	0.7033
2650	0.7089
2641	0.7128
2632	0.7151
2623	0.7157
2614	0.7162
2605	0.7169
2596	0.7176
2587	0.7194
2578	0.7235
2569	0.7278
2560	0.7305
2551	0.7321
2542	0.7331
2533	0.7341
2524	0.7356
2515	0.7404
2506	0.745
2497	0.7455
2488	0.7458
2479	0.7461
2470	0.7468
2461	0.7475
2452	0.7485
2443	0.7493
2434	0.7504
2425	0.7514
2416	0.7525
2407	0.7536
2398	0.7546
2389	0.7554
2380	0.7561
2371	0.7568
2362	0.7547
2353	0.7522
2344	0.7503
2335	0.7497
2326	0.7521
2317	0.7572
2308	0.7615
2299	0.7676
2290	0.773
2281	0.7756
2272	0.7767
2263	0.7758
2254	0.7751
2245	0.7745
2236	0.7742
2227	0.7743
2218	0.7757
2209	0.7778
2200	0.7807
2191	0.7836
2182	0.7868
2173	0.7904
2164	0.7934
2155	0.7928
2146	0.7911
2137	0.7892
2128	0.7875
2119	0.7865
2110	0.7865
2101	0.7871
2092	0.789
2083	0.7922
2074	0.7954
2065	0.7978
2056	0.7989
2047	0.7998
2038	0.8004
2029	0.8011
2020	0.8017
2011	0.8026
2002	0.8038
1993	0.8044
1984	0.8051
1975	0.8056
1966	0.8061
1957	0.8065
1948	0.8068
1939	0.8074
1930	0.8078
1921	0.8076
1912	0.8068
1903	0.8053
1894	0.8008
1885	0.7908
1876	0.7882
1867	0.7845
1858	0.7781
1849	0.7695
1840	0.7615
1831	0.7537
1822	0.745
1813	0.7354
1804	0.7218
1795	0.6961
1786	0.6628
1777	0.6229
1768	0.5817
1759	0.5229
1750	0.4197
1741	0.368
1732	0.2934
1723	0.2984
1714	0.3994
1705	0.4933
1696	0.5418
1687	0.6112
1678	0.6504
1669	0.668
1660	0.71
1651	0.756
1642	0.7655
1633	0.7753
1624	0.7912
1615	0.8048
1606	0.8108
1597	0.8136
1588	0.8151
1579	0.8111
1570	0.8107
1561	0.8118
1552	0.811
1543	0.8064
1534	0.7962
1525	0.7725
1516	0.7585
1507	0.7391
1498	0.703
1489	0.6123
1480	0.4181
1471	0.2326
1462	0.191
1453	0.3494
1444	0.4421
1435	0.4401
1426	0.4244
1417	0.5093
1408	0.6142
1399	0.5962
1390	0.4337
1381	0.348
1372	0.4026
1363	0.4196
1354	0.3907
1345	0.3309
1336	0.2628
1327	0.312
1318	0.39
1309	0.4395
1300	0.3607
1291	0.3046
1282	0.3372
1273	0.2901
1264	0.2402
1255	0.3096
1246	0.3918
1237	0.4162
1228	0.4018
1219	0.3776
1210	0.3128
1201	0.2687
1192	0.2155
1183	0.1601
1174	0.1379
1165	0.1515
1156	0.1826
1147	0.2384
1138	0.3164
1129	0.4
1120	0.4692
1111	0.5232
1102	0.5687
1093	0.6038
1084	0.6454
1075	0.67
1066	0.6259
1057	0.4315
1048	0.5757
1039	0.6238
1030	0.6271
1021	0.6254
1012	0.6126
1003	0.4568
994	0.5214
985	0.534
976	0.3954
967	0.2877
958	0.4542
949	0.5199
940	0.4673
931	0.5492
922	0.6725
913	0.7371
904	0.7648
895	0.7762
886	0.7993
877	0.8169
868	0.8199
859	0.8104
850	0.6182
841	0.7551
832	0.8162
823	0.8383
814	0.8428
805	0.8498
796	0.8557
787	0.85
778	0.7942
769	0.6216
760	0.8108
751	0.8386
742	0.8337
733	0.8297
724	0.8188
715	0.8373
706	0.8499
697	0.7221
688	0.6188
679	0.7961
670	0.8006
661	0.7849
652	0.7728
643	0.7321
634	0.6112
