Infrared Spectrum: p-FLUOROTOLUENE
Formula: C7 H7 F
CAS: 352-32-9
State: SOLUTION (2% IN CCl4 FOR 3800-1330 CM^-^1, 2% IN CS2 FOR 1330-450 CM^-^1)
Class: COBLENTZ III
Instrument: DOW KBr FOREPRISM-GRATING
Instrument parameters: GRATING BLAZED AT 3.5, 12.0, 20.0 MICRONS AND CHANGED AT 5.0, 7.5, 14.9 MICRONS
Sampling: TRANSMISSION
Path length: 0.012 CM, 0.012 CM
Resolution: 4
Origin: DOW CHEMICAL COMPANY
1/CM	TRANSMITTANCE
444.786	0.911
453.568	0.91
462.349	0.918
471.131	0.917
479.912	0.912
488.694	0.893
497.475	0.701
506.257	0.86
515.038	0.941
523.82	0.951
532.602	0.958
541.383	0.969
550.165	0.973
558.946	0.977
567.728	0.979
576.509	0.976
585.291	0.977
594.072	0.979
602.854	0.979
611.636	0.973
620.417	0.979
629.199	0.975
637.98	0.957
646.762	0.94
655.543	0.937
664.325	0.958
673.106	0.962
681.888	0.968
690.67	0.955
699.451	0.976
708.233	0.977
717.014	0.964
725.796	0.698
734.577	0.962
743.359	0.988
752.14	0.987
760.922	0.991
769.704	0.988
778.485	0.98
787.267	0.97
796.048	0.947
804.83	0.87
813.611	0.0871
822.393	0.79
831.174	0.897
839.956	0.776
848.738	0.794
857.519	0.805
866.301	0.845
875.082	0.888
883.864	0.932
892.645	0.972
901.427	0.987
910.208	0.988
918.99	0.979
927.772	0.979
936.553	0.994
945.335	0.991
954.116	0.998
962.898	0.997
971.679	0.997
980.461	1.001
989.242	1
998.024	1
1006.81	0.998
1015.59	0.8721
1024.37	0.98
1033.15	0.959
1041.93	0.954
1050.71	0.968
1059.49	0.973
1068.28	0.972
1077.06	0.97
1085.84	0.961
1094.62	0.825
1103.4	0.968
1112.18	0.987
1120.97	0.994
1129.75	1.002
1138.53	0.991
1147.31	0.977
1156.09	0.716
1164.87	0.979
1173.66	0.977
1182.44	0.97
1191.22	0.977
1200	0.961
1208.78	0.929
1217.56	0.7849
1226.34	0.313
1235.13	0.5221
1243.91	0.936
1252.69	0.98
1261.47	0.986
1270.25	0.99
1279.03	0.988
1287.82	0.986
1296.6	0.972
1305.38	0.984
1314.16	0.979
1322.94	0.991
1331.72	0.984
1340.5	0.991
1349.29	0.987
1358.07	0.983
1366.85	0.982
1375.63	0.976
1384.41	0.941
1393.19	0.984
1401.98	0.99
1410.76	0.979
1419.54	0.965
1428.32	0.928
1437.1	0.937
1445.88	0.921
1454.66	0.908
1463.45	0.912
1472.23	0.917
1481.01	0.904
1489.79	0.87
1498.57	0.796
1507.35	0.283
1516.14	0.179
1524.92	0.574
1533.7	0.589
1542.48	0.482
1551.26	0.455
1560.04	0.54
1568.83	0.589
1577.61	0.662
1586.39	0.662
1595.17	0.715
1603.95	0.693
1612.73	0.802
1621.51	0.877
1630.3	0.915
1639.08	0.947
1647.86	0.968
1656.64	0.983
1665.42	0.988
1674.2	0.997
1682.99	1.004
1691.77	0.995
1700.55	1.004
1709.33	0.998
1718.11	1.004
1726.89	0.998
1735.67	0.997
1744.46	0.993
1753.24	1.001
1762.02	0.99
1770.8	0.997
1779.58	1.001
1788.36	1.002
1797.15	1
1805.93	1
1814.71	0.998
1823.49	0.997
1832.27	0.995
1841.05	0.993
1849.83	0.99
1858.62	0.986
1867.4	0.982
1876.18	0.94
1884.96	0.977
1893.74	0.995
1902.52	1
1911.31	0.998
1920.09	1.001
1928.87	1.001
1937.65	1
1946.43	0.993
1955.21	0.99
1964	1
1972.78	1
1981.56	0.997
1990.34	0.994
1999.12	0.979
2007.9	0.988
2016.68	0.984
2025.47	0.9835
2034.25	0.991
2043.03	0.995
2051.81	0.9894
2060.59	0.9851
2069.37	0.9875
2078.16	0.994
2086.94	0.9944
2095.72	0.9944
2104.5	0.994
2113.28	0.995
2122.06	0.997
2130.84	0.998
2139.63	0.998
2148.41	0.9934
2157.19	0.994
2165.97	0.995
2174.75	0.997
2183.53	0.997
2192.32	0.994
2201.1	0.994
2209.88	0.9934
2218.66	0.99
2227.44	0.9864
2236.22	0.9824
2245	0.979
2253.79	0.9753
2262.57	0.9693
2271.35	0.967
2280.13	0.9597
2288.91	0.957
2297.69	0.9611
2306.48	0.9674
2315.26	0.9697
2324.04	0.9767
2332.82	0.979
2341.6	0.98
2350.38	0.983
2359.16	0.993
2367.95	0.994
2376.73	0.9943
2385.51	0.99
2394.29	0.987
2403.07	0.9922
2411.85	0.9925
2420.64	0.993
2429.42	0.9925
2438.2	0.9872
2446.98	0.983
2455.76	0.988
2464.54	0.9908
2473.33	0.9938
2482.11	0.995
2490.89	0.9978
2499.67	1
2508.45	1
2517.23	1
2526.01	1
2534.8	1
2543.58	0.9972
2552.36	0.995
2561.14	0.991
2569.92	0.991
2578.7	0.9901
2587.49	0.9879
2596.27	0.991
2605.05	0.9883
2613.83	0.993
2622.61	0.9928
2631.39	0.99
2640.17	0.99
2648.96	0.993
2657.74	0.99
2666.52	0.99
2675.3	0.9901
2684.08	0.9881
2692.86	0.986
2701.65	0.9929
2710.43	0.9939
2719.21	0.99
2727.99	0.9881
2736.77	0.98
2745.55	0.988
2754.33	0.986
2763.12	0.987
2771.9	0.99
2780.68	0.99
2789.46	0.988
2798.24	0.988
2807.02	0.987
2815.81	0.984
2824.59	0.982
2833.37	0.979
2842.15	0.9768
2850.93	0.9498
2859.71	0.9257
2868.5	0.9121
2877.28	0.925
2886.06	0.9371
2894.84	0.9389
2903.62	0.9329
2912.4	0.9163
2921.18	0.8664
2929.97	0.8619
2938.75	0.9062
2947.53	0.911
2956.31	0.9122
2965.09	0.912
2973.87	0.911
2982.66	0.9211
2991.44	0.9249
3000.22	0.9245
3009	0.9378
3017.78	0.944
3026.56	0.9326
3035.34	0.8817
3044.13	0.8712
3052.91	0.9312
3061.69	0.9582
3070.47	0.9643
3079.25	0.977
3088.03	0.9804
3096.82	0.986
3105.6	0.988
3114.38	0.988
3123.16	0.9878
3131.94	0.987
3140.72	0.9932
3149.5	0.998
3158.29	0.997
3167.07	0.9965
3175.85	0.994
3184.63	0.994
3193.41	0.993
3202.19	0.993
3210.98	0.993
3219.76	0.991
3228.54	0.99
3237.32	0.99
3246.1	0.988
3254.88	0.987
3263.67	0.984
3272.45	0.9827
3281.23	0.982
3290.01	0.982
3298.79	0.983
3307.57	0.9833
3316.35	0.984
3325.14	0.984
3333.92	0.984
3342.7	0.983
3351.48	0.982
3360.26	0.98
3369.04	0.9777
3377.83	0.976
3386.61	0.973
3395.39	0.973
3404.17	0.975
3412.95	0.9764
3421.73	0.979
3430.51	0.98
3439.3	0.9824
3448.08	0.984
3456.86	0.986
3465.64	0.987
3474.42	0.988
3483.2	0.99
3491.99	0.99
3500.77	0.991
3509.55	0.993
3518.33	0.994
3527.11	0.997
3535.89	0.9989
3544.67	1.001
3553.46	1.001
3562.24	1.001
3571.02	0.996
3579.8	0.9687
3588.58	0.9899
3597.36	0.999
3606.15	0.999
3614.93	1.003
3623.71	1.0005
3632.49	1
3641.27	1
3650.05	1.001
3658.84	1.001
3667.62	1.001
3676.4	1
3685.18	0.998
3693.96	0.998
3702.74	1.002
3711.52	1.005
3720.31	1.006
3729.09	1.006
3737.87	1.005
3746.65	1.004
3755.43	1.004
3764.21	1.0028
3773	1.002
3781.78	1.002
3790.56	1.002
3799.34	1.0016
