Infrared Spectrum: HEXANE, 2,2,5-TRIMETHYL-
Formula: C9 H20
CAS: 3522-94-9
State: GAS (18 mmHg, N2 ADDED, TOTAL PRESSURE 600 mmHg)
Boiling point: 125 C
Class: COBLENTZ
Instrument: BECKMAN 4260
Sampling: TRANSMISSION
Path length: 10 CM
Resolution: 2
Origin: DOW CHEMICAL COMPANY
1/CM	TRANSMITTANCE
401.259	0.547
410.071	0.6239
418.883	0.673
427.695	0.721
436.507	0.764
445.319	0.796
454.131	0.824
462.943	0.847
471.755	0.863
480.567	0.883
489.379	0.895
498.19	0.893
507.002	0.924
515.814	0.95
524.626	0.946
533.438	0.938
542.25	0.944
551.062	0.962
559.874	0.964
568.686	0.956
577.498	0.954
586.31	0.962
595.122	0.968
603.934	0.97
612.746	0.968
621.558	0.966
630.37	0.966
639.182	0.974
647.994	0.974
656.806	0.976
665.618	0.986
674.429	0.98
683.241	0.986
692.053	0.988
700.865	0.988
709.677	0.988
718.489	0.994
727.301	0.996
736.113	0.99
744.925	0.98
753.737	0.97
762.549	0.966
771.361	0.978
780.173	0.99
788.985	0.992
797.797	0.992
806.609	0.992
815.421	0.99
824.233	0.982
833.045	0.988
841.857	0.996
850.668	0.998
859.48	0.99
868.292	0.986
877.104	0.976
885.916	0.976
894.728	0.978
903.54	0.9441
912.352	0.8692
921.164	0.871
929.976	0.928
938.788	0.96
947.6	0.954
956.412	0.962
965.224	0.976
974.036	0.968
982.848	0.96
991.66	0.958
1000.47	0.96
1009.28	0.952
1018.1	0.936
1026.91	0.944
1035.72	0.958
1044.53	0.966
1053.34	0.962
1062.16	0.96
1070.97	0.962
1079.78	0.958
1088.59	0.962
1097.4	0.95
1106.22	0.934
1115.03	0.911
1123.84	0.899
1132.65	0.924
1141.46	0.938
1150.27	0.934
1159.09	0.903
1167.9	0.833
1176.71	0.869
1185.52	0.924
1194.33	0.891
1203.15	0.833
1211.96	0.853
1220.77	0.924
1229.58	0.922
1238.39	0.867
1247.21	0.705
1256.02	0.7409
1264.83	0.911
1273.64	0.928
1282.45	0.922
1291.27	0.932
1300.08	0.938
1308.89	0.918
1317.7	0.8791
1326.51	0.792
1335.33	0.774
1344.14	0.847
1352.95	0.8301
1361.76	0.5153
1370.57	0.288
1379.39	0.4478
1388.2	0.559
1397.01	0.63
1405.82	0.8588
1414.63	0.915
1423.45	0.916
1432.26	0.893
1441.07	0.8551
1449.88	0.774
1458.69	0.588
1467.51	0.3711
1476.32	0.3349
1485.13	0.49
1493.94	0.8329
1502.75	0.909
1511.56	0.932
1520.38	0.94
1529.19	0.954
1538	0.944
1546.81	0.954
1555.62	0.948
1564.44	0.958
1573.25	0.956
1582.06	0.964
1590.87	0.96
1599.68	0.96
1608.5	0.964
1617.31	0.96
1626.12	0.96
1634.93	0.952
1643.74	0.954
1652.56	0.952
1661.37	0.96
1670.18	0.954
1678.99	0.954
1687.8	0.956
1696.62	0.948
1705.43	0.952
1714.24	0.948
1723.05	0.956
1731.86	0.952
1740.68	0.954
1749.49	0.952
1758.3	0.956
1767.11	0.96
1775.92	0.964
1784.74	0.964
1793.55	0.962
1802.36	0.96
1811.17	0.96
1819.98	0.966
1828.8	0.962
1837.61	0.966
1846.42	0.964
1855.23	0.964
1864.04	0.962
1872.85	0.96
1881.67	0.964
1890.48	0.96
1899.29	0.964
1908.1	0.964
1916.91	0.964
1925.73	0.966
1934.54	0.966
1943.35	0.96
1952.16	0.962
1960.97	0.96
1969.79	0.962
1978.6	0.958
1987.41	0.954
1996.22	0.964
2005.03	0.966
2013.85	0.966
2022.66	0.966
2031.47	0.968
2040.28	0.97
2049.09	0.97
2057.91	0.968
2066.72	0.966
2075.53	0.964
2084.34	0.966
2093.15	0.966
2101.97	0.9651
2110.78	0.962
2119.59	0.962
2128.4	0.966
2137.21	0.964
2146.03	0.966
2154.84	0.9648
2163.65	0.966
2172.46	0.966
2181.27	0.966
2190.08	0.9632
2198.9	0.962
2207.71	0.962
2216.52	0.9638
2225.33	0.966
2234.14	0.964
2242.96	0.962
2251.77	0.962
2260.58	0.9627
2269.39	0.964
2278.2	0.9586
2287.02	0.956
2295.83	0.958
2304.64	0.968
2313.45	0.978
2322.26	0.9909
2331.08	1
2339.89	0.998
2348.7	0.9946
2357.51	0.998
2366.32	0.9874
2375.14	0.9688
2383.95	0.9534
2392.76	0.948
2401.57	0.95
2410.38	0.952
2419.2	0.954
2428.01	0.9555
2436.82	0.956
2445.63	0.956
2454.44	0.958
2463.26	0.9595
2472.07	0.958
2480.88	0.956
2489.69	0.954
2498.5	0.952
2507.32	0.952
2516.13	0.952
2524.94	0.9544
2533.75	0.956
2542.56	0.956
2551.37	0.956
2560.19	0.9536
2569	0.9486
2577.81	0.9456
2586.62	0.9406
2595.43	0.934
2604.25	0.9374
2613.06	0.9356
2621.87	0.9307
2630.68	0.9217
2639.49	0.9153
2648.31	0.9133
2657.12	0.9173
2665.93	0.9243
2674.74	0.9273
2683.55	0.9277
2692.37	0.924
2701.18	0.918
2709.99	0.913
2718.8	0.8928
2727.61	0.8677
2736.43	0.8552
2745.24	0.8702
2754.05	0.8912
2762.86	0.8942
2771.67	0.897
2780.49	0.899
2789.3	0.8908
2798.11	0.8807
2806.92	0.8702
2815.73	0.8393
2824.55	0.8034
2833.36	0.7746
2842.17	0.73
2850.98	0.5838
2859.79	0.4508
2868.61	0.2822
2877.42	0.1645
2886.23	0.0759
2895.04	0.1204
2903.85	0.151
2912.66	0.1198
2921.48	0.0709
2930.29	0.047
2939.1	0.038
2947.91	0.029
2956.72	0.009
2965.54	0.001
2974.35	0.004
2983.16	0.013
2991.97	0.2884
3000.78	0.6598
3009.6	0.7752
3018.41	0.8482
3027.22	0.8766
3036.03	0.8888
3044.84	0.891
3053.66	0.9009
3062.47	0.9099
3071.28	0.913
3080.09	0.915
3088.9	0.913
3097.72	0.913
3106.53	0.9177
3115.34	0.922
3124.15	0.9222
3132.96	0.9192
3141.78	0.915
3150.59	0.9122
3159.4	0.9032
3168.21	0.893
3177.02	0.884
3185.84	0.875
3194.65	0.877
3203.46	0.8825
3212.27	0.8907
3221.08	0.893
3229.9	0.8987
3238.71	0.9084
3247.52	0.9175
3256.33	0.9227
3265.14	0.9257
3273.95	0.9307
3282.77	0.934
3291.58	0.9334
3300.39	0.93
3309.2	0.932
3318.01	0.932
3326.83	0.9288
3335.64	0.9204
3344.45	0.9226
3353.26	0.926
3362.07	0.9194
3370.89	0.9164
3379.7	0.9185
3388.51	0.922
3397.32	0.9245
3406.13	0.9315
3414.95	0.932
3423.76	0.932
3432.57	0.9295
3441.38	0.926
3450.19	0.9285
3459.01	0.93
3467.82	0.932
3476.63	0.934
3485.44	0.936
3494.25	0.936
3503.07	0.936
3511.88	0.938
3520.69	0.936
3529.5	0.9394
3538.31	0.94
3547.13	0.9366
3555.94	0.94
3564.75	0.934
3573.56	0.9403
3582.37	0.9373
3591.19	0.934
3600	0.9353
3608.81	0.9377
3617.62	0.9373
3626.43	0.9357
3635.24	0.9393
3644.06	0.9357
3652.87	0.932
3661.68	0.936
3670.49	0.9327
3679.3	0.9342
3688.12	0.934
3696.93	0.9382
3705.74	0.9368
3714.55	0.934
3723.36	0.9364
3732.18	0.9358
3740.99	0.934
3749.8	0.93
3758.61	0.932
3767.42	0.93
3776.24	0.93
3785.05	0.928
3793.86	0.9257
