Infrared Spectrum: Pentafluoroethane
Formula: C2 H F5
CAS: 354-33-6
State: gas
Melting point: -102.78 C
Boiling point: -48.55 C
Class: IUPAC A
Instrument: IFS66V (Bruker)
Instrument parameters: KBr Beam Splitter; MCT Detector; Multipass cell
Sampling: 1 L/min Flow
Resolution: 0.9640
Temperature: 23 C
Pressure: 101.3 Pa
Origin: NIST, Analytical Chemistry Division, 301-975-3108
cm-1	(micromol/mol)-1m-1 (base 10)
575.17	7.77251e-05
583.848	0.000108023
592.526	3.88364e-05
601.205	3.97701e-06
609.883	1.83399e-06
618.561	1.16691e-06
627.239	1.03722e-06
635.917	5.01321e-07
644.595	4.77292e-07
653.274	3.19251e-06
661.952	1.67587e-06
670.63	3.24603e-06
679.308	-1.0373e-06
687.986	7.23968e-07
696.664	2.59064e-06
705.343	3.04671e-05
714.021	0.000140537
722.699	0.000234822
731.377	0.00018205
740.055	7.91457e-05
748.733	7.45177e-06
757.412	2.51602e-06
766.09	2.82239e-06
774.768	3.43319e-06
783.446	4.06863e-06
792.124	4.57903e-06
800.802	2.51675e-06
809.481	3.00963e-06
818.159	3.04491e-06
826.837	2.59265e-06
835.515	5.20767e-06
844.193	2.54577e-05
852.872	0.000127651
861.55	0.000246589
870.228	0.000208333
878.906	0.000156704
887.584	2.66561e-05
896.262	1.47463e-05
904.941	1.06509e-05
913.619	3.91302e-06
922.297	5.02348e-06
930.975	6.68856e-06
939.653	8.10719e-06
948.331	4.1824e-06
957.01	1.75891e-06
965.688	1.6786e-06
974.366	2.10099e-06
983.044	2.38242e-06
991.722	1.486e-06
1000.4	1.41909e-06
1009.08	1.09264e-06
1017.76	3.41311e-07
1026.43	3.10786e-07
1035.11	-8.15908e-08
1043.79	1.3876e-06
1052.47	1.85827e-06
1061.15	7.35778e-06
1069.83	1.81089e-05
1078.5	2.41514e-05
1087.18	2.84787e-05
1095.86	5.40987e-05
1104.54	0.000113953
1113.22	0.000161804
1121.89	0.000182632
1130.57	0.00049065
1139.25	0.00168158
1147.93	0.00194292
1156.61	0.000470396
1165.29	9.12392e-05
1173.96	7.25437e-05
1182.64	0.000210867
1191.32	0.000628165
1200	0.00200524
1208.68	0.00293181
1217.35	0.00251025
1226.03	0.00185746
1234.71	0.000760247
1243.39	0.000129799
1252.07	5.92234e-05
1260.75	5.87573e-05
1269.42	6.79902e-05
1278.1	8.32263e-05
1286.78	0.000179793
1295.46	0.00067481
1304.14	0.0008184
1312.81	0.000561378
1321.49	0.000361167
1330.17	4.56208e-05
1338.85	1.67068e-05
1347.53	3.34804e-05
1356.21	5.03665e-05
1364.88	3.18916e-05
1373.56	1.80384e-05
1382.24	1.85066e-05
1390.92	2.64775e-05
1399.6	1.52028e-05
1408.27	8.78604e-06
1416.95	7.83457e-06
1425.63	1.28128e-05
1434.31	1.86254e-05
1442.99	2.69852e-05
1451.67	2.25702e-05
1460.34	1.22572e-05
1469.02	3.59236e-06
1477.7	2.12466e-06
1486.38	6.46819e-07
1495.06	1.04821e-06
1503.73	2.42322e-06
1512.41	-4.49943e-07
1521.09	-6.63263e-06
1529.77	2.2577e-06
1538.45	2.53583e-06
1547.13	2.99273e-06
1555.8	5.21108e-06
1564.48	2.95695e-06
1573.16	3.30471e-06
1581.84	4.14471e-06
1590.52	2.9302e-06
1599.19	1.44334e-06
1607.87	1.13712e-06
1616.55	-1.08218e-05
1625.23	1.98732e-06
1633.91	2.95912e-06
1642.59	2.47079e-06
1651.26	-1.98484e-07
1659.94	2.0234e-06
1668.62	1.99558e-06
1677.3	1.92783e-06
1685.98	-5.51924e-07
1694.65	-4.13073e-07
1703.33	2.75791e-06
1712.01	5.85636e-06
1720.69	7.20007e-06
1729.37	4.76514e-06
1738.05	2.86613e-06
1746.72	9.97352e-07
1755.4	1.1587e-06
1764.08	1.78316e-06
1772.76	-6.36854e-06
1781.44	2.8201e-06
1790.11	3.51572e-06
1798.79	3.35982e-06
1807.47	2.05248e-06
1816.15	1.54806e-06
1824.83	-3.62626e-08
1833.51	1.23081e-06
1842.18	3.54579e-07
1850.86	8.68261e-07
1859.54	1.39178e-06
1868.22	1.14019e-06
1876.9	1.41195e-06
1885.57	6.0885e-07
1894.25	6.33904e-07
1902.93	3.28946e-07
1911.61	1.33015e-06
1920.29	2.74217e-06
1928.96	5.71118e-06
1937.64	6.37385e-06
1946.32	4.31028e-06
1955	1.85276e-06
1963.68	5.57414e-07
1972.36	4.53355e-07
1981.03	3.98859e-08
1989.71	6.24446e-08
1998.39	5.04268e-07
2007.07	5.1919e-07
2015.75	5.17098e-07
2024.42	3.14638e-07
2033.1	5.71198e-07
2041.78	7.72235e-07
2050.46	2.15394e-06
2059.14	3.94893e-06
2067.82	3.14132e-06
2076.49	2.66752e-06
2085.17	1.48904e-06
2093.85	9.60624e-07
2102.53	5.13017e-08
2111.21	8.15646e-07
2119.88	1.12101e-06
2128.56	1.39131e-07
2137.24	4.7886e-07
2145.92	1.41913e-06
2154.6	3.75351e-06
2163.28	4.74461e-06
2171.95	2.94323e-06
2180.63	1.85064e-06
2189.31	2.56927e-07
2197.99	-1.0619e-07
2206.67	5.43833e-07
2215.34	2.39065e-07
2224.02	4.38043e-07
2232.7	6.46593e-07
2241.38	1.93937e-06
2250.06	4.20095e-06
2258.74	5.85939e-06
2267.41	7.06465e-06
2276.09	1.30993e-05
2284.77	1.2218e-05
2293.45	3.89822e-06
2302.13	2.44749e-06
2310.8	7.54337e-07
2319.48	-1.2426e-07
2328.16	-1.07585e-06
2336.84	2.72731e-06
2345.52	-5.86306e-07
2354.2	-3.81959e-06
2362.87	-9.39944e-06
2371.55	-4.01761e-06
2380.23	5.66912e-07
2388.91	2.38867e-06
2397.59	4.78283e-06
2406.26	6.40169e-06
2414.94	6.43785e-06
2423.62	2.67959e-06
2432.3	9.94413e-07
2440.98	1.21163e-06
2449.66	1.04754e-06
2458.33	-7.62504e-08
2467.01	-4.21516e-07
2475.69	-4.46694e-07
2484.37	1.43757e-06
2493.05	3.44804e-06
2501.72	6.15552e-06
2510.4	4.14226e-06
2519.08	1.19732e-06
2527.76	2.78991e-08
2536.44	3.41326e-07
2545.12	3.13754e-07
2553.79	-1.95992e-07
2562.47	1.17049e-06
2571.15	1.08615e-06
2579.83	5.19059e-07
2588.51	6.09221e-07
2597.18	2.19471e-06
2605.86	2.51122e-06
2614.54	-5.38256e-07
2623.22	-8.06148e-07
2631.9	-8.01673e-07
2640.58	-3.04609e-07
2649.25	8.42778e-07
2657.93	1.31478e-06
2666.61	9.65651e-07
2675.29	1.24023e-06
2683.97	8.389e-07
2692.64	1.41754e-07
2701.32	-2.58775e-07
2710	-1.00075e-07
2718.68	-6.64895e-07
2727.36	-1.3243e-07
2736.03	1.39899e-07
2744.71	4.75408e-07
2753.39	-4.478e-07
2762.07	-5.58581e-07
2770.75	6.04182e-08
2779.43	9.71927e-07
2788.1	8.96571e-07
2796.78	1.0313e-06
2805.46	-4.94871e-07
2814.14	1.05987e-06
2822.82	1.38342e-07
2831.49	1.12817e-06
2840.17	1.96379e-06
2848.85	2.60396e-06
2857.53	1.48837e-06
2866.21	7.6807e-07
2874.89	3.41286e-07
2883.56	9.88512e-07
2892.24	-3.45611e-07
2900.92	-6.92223e-07
2909.6	-7.13574e-08
2918.28	-8.63656e-07
2926.95	-5.48326e-07
2935.63	-8.23835e-07
2944.31	7.4594e-07
2952.99	1.08926e-07
2961.67	-9.55382e-07
2970.35	1.91154e-06
2979.02	9.93019e-06
2987.7	4.41252e-05
2996.38	6.92904e-05
3005.06	6.45942e-05
3013.74	4.39598e-05
3022.41	7.20918e-06
3031.09	1.33886e-07
3039.77	6.84973e-07
3048.45	-7.79227e-07
3057.13	-2.4291e-07
3065.81	7.66003e-07
3074.48	7.2599e-07
3083.16	-2.78958e-07
3091.84	-7.37213e-07
3100.52	-5.40927e-07
3109.2	-5.86448e-07
3117.87	-1.12253e-06
3126.55	-4.19213e-07
3135.23	-3.56365e-07
3143.91	-6.15769e-07
3152.59	-2.47377e-10
3161.27	-7.98679e-07
3169.94	-6.5703e-07
3178.62	-6.59468e-07
3187.3	-4.80494e-08
3195.98	-1.65106e-07
3204.66	-4.66961e-08
3213.33	-7.83214e-07
3222.01	4.07427e-07
3230.69	-3.79942e-07
3239.37	-4.64913e-07
3248.05	2.62478e-07
3256.73	2.8281e-08
3265.4	7.47879e-08
3274.08	-6.19898e-09
3282.76	-1.35069e-06
3291.44	-6.61698e-07
3300.12	-1.14362e-06
3308.79	-7.957e-07
3317.47	-3.24584e-07
3326.15	-8.35509e-07
3334.83	-3.20201e-07
3343.51	-1.09672e-06
3352.19	-4.89399e-07
3360.86	-1.01328e-06
3369.54	-1.79388e-07
3378.22	-5.53688e-08
3386.9	-1.42387e-06
3395.58	-1.33297e-06
3404.25	-1.80151e-06
3412.93	-2.23101e-07
3421.61	-1.55279e-06
3430.29	-1.21733e-06
3438.97	-8.99758e-07
3447.65	-1.9978e-06
3456.32	-6.89069e-07
3465	-1.06635e-06
3473.68	-8.06508e-07
3482.36	-1.50512e-06
3491.04	-1.9954e-06
3499.71	-6.16297e-07
3508.39	-5.70503e-07
3517.07	-1.33901e-06
3525.75	-1.3001e-06
3534.43	-3.44771e-07
3543.1	-1.91195e-06
3551.78	-2.46515e-06
3560.46	-1.54642e-06
3569.14	-8.37183e-07
3577.82	-1.69044e-06
3586.5	-4.76424e-06
3595.17	-2.44816e-06
3603.85	-9.40845e-07
3612.53	-4.73388e-06
3621.21	-2.17714e-06
3629.89	-6.02954e-06
3638.56	-2.13653e-06
3647.24	-5.14336e-06
3655.92	-4.0685e-06
3664.6	-9.67339e-07
3673.28	-2.94197e-08
3681.96	-1.85153e-06
3690.63	-2.91712e-06
3699.31	-2.0455e-06
3707.99	-1.85738e-06
3716.67	-1.20271e-06
3725.35	-1.93599e-06
3734.02	-1.44537e-06
3742.7	-1.42654e-06
3751.38	-2.29729e-06
3760.06	-3.59311e-06
3768.74	-2.32778e-06
3777.42	-2.3404e-06
3786.09	-2.00826e-06
3794.77	-2.37133e-06
3803.45	-2.67317e-06
3812.13	-2.09996e-06
3820.81	-5.52524e-06
3829.48	-2.13203e-06
3838.16	-9.11752e-06
3846.84	-1.63592e-06
3855.52	-1.38014e-06
3864.2	-1.32235e-06
3872.88	-2.11071e-06
3881.55	-3.09147e-06
3890.23	-2.32346e-06
3898.91	-3.19423e-06
3907.59	-1.90653e-06
3916.27	-2.95559e-06
3924.94	-2.65994e-06
3933.62	-3.47462e-06
3942.3	-1.94604e-06
3950.98	-1.13794e-06
3959.66	-2.34403e-06
3968.34	-1.80582e-06
