Infrared Spectrum: Cyclohexene, decafluoro-
Formula: C6 F10
CAS: 355-75-9
State: LIQUID (NEAT)
Boiling point: 53 C
Class: COBLENTZ III
Instrument: BECKMAN IR-9 (GRATING)
Instrument parameters: ORDER CHANGES: 670, 1200, 2000 CM^-^1
Sampling: TRANSMISSION
Path length: CAPILLARY
Resolution: 2
Origin: DOW CHEMICAL COMPANY
1/CM	TRANSMITTANCE
3800	0.8165
3791	0.816
3782	0.8156
3773	0.815
3764	0.8145
3755	0.814
3746	0.8136
3737	0.8131
3728	0.8128
3719	0.8124
3710	0.8119
3701	0.8117
3692	0.8115
3683	0.8111
3674	0.8108
3665	0.8101
3656	0.8094
3647	0.8087
3638	0.8078
3629	0.8068
3620	0.8058
3611	0.8049
3602	0.8041
3593	0.8032
3584	0.8024
3575	0.8021
3566	0.8019
3557	0.8018
3548	0.8017
3539	0.8012
3530	0.8005
3521	0.7993
3512	0.7982
3503	0.7975
3494	0.7971
3485	0.7968
3476	0.7965
3467	0.7961
3458	0.7958
3449	0.7954
3440	0.795
3431	0.7944
3422	0.794
3413	0.7934
3404	0.793
3395	0.7922
3386	0.7915
3377	0.7908
3368	0.7901
3359	0.7895
3350	0.7889
3341	0.7885
3332	0.7883
3323	0.7878
3314	0.7876
3305	0.7872
3296	0.7871
3287	0.7867
3278	0.7865
3269	0.7861
3260	0.7858
3251	0.7856
3242	0.7853
3233	0.7847
3224	0.7843
3215	0.7838
3206	0.7834
3197	0.7828
3188	0.7824
3179	0.7818
3170	0.7815
3161	0.7811
3152	0.7808
3143	0.7805
3134	0.7806
3125	0.7808
3116	0.7811
3107	0.7815
3098	0.7824
3089	0.7833
3080	0.7843
3071	0.7854
3062	0.7864
3053	0.7871
3044	0.7878
3035	0.7882
3026	0.7885
3017	0.7882
3008	0.7875
2999	0.7858
2990	0.7846
2981	0.783
2972	0.7812
2963	0.7836
2954	0.7851
2945	0.784
2936	0.7821
2927	0.7791
2918	0.7824
2909	0.7851
2900	0.7878
2891	0.7897
2882	0.7901
2873	0.7895
2864	0.7903
2855	0.7925
2846	0.7953
2837	0.7983
2828	0.8011
2819	0.8025
2810	0.8037
2801	0.8046
2792	0.8055
2783	0.8065
2774	0.8075
2765	0.8085
2756	0.8095
2747	0.8104
2738	0.8111
2729	0.8119
2720	0.8128
2711	0.8135
2702	0.8143
2693	0.815
2684	0.8157
2675	0.8164
2666	0.8171
2657	0.818
2648	0.8193
2639	0.8205
2630	0.8217
2621	0.8225
2612	0.8236
2603	0.8242
2594	0.8249
2585	0.8256
2576	0.8263
2567	0.827
2558	0.8277
2549	0.8284
2540	0.8291
2531	0.8301
2522	0.8313
2513	0.8325
2504	0.8341
2495	0.8347
2486	0.8353
2477	0.8358
2468	0.8364
2459	0.837
2450	0.8375
2441	0.8382
2432	0.8387
2423	0.8392
2414	0.8393
2405	0.8396
2396	0.8412
2387	0.8438
2378	0.8486
2369	0.8528
2360	0.853
2351	0.8525
2342	0.8518
2333	0.8513
2324	0.8511
2315	0.8507
2306	0.8496
2297	0.8487
2288	0.8484
2279	0.8484
2270	0.8505
2261	0.8513
2252	0.8521
2243	0.8524
2234	0.8525
2225	0.8528
2216	0.853
2207	0.853
2198	0.8531
2189	0.8531
2180	0.8535
2171	0.8538
2162	0.8543
2153	0.8548
2144	0.8556
2135	0.8563
2126	0.8568
2117	0.8571
2108	0.857
2099	0.8567
2090	0.8562
2081	0.8565
2072	0.8571
2063	0.8574
2054	0.8574
2045	0.8578
2036	0.8566
2027	0.8538
2018	0.8584
2009	0.8588
2000	0.8628
1991	0.8703
1982	0.8692
1973	0.8689
1964	0.8658
1955	0.8649
1946	0.8664
1937	0.8666
1928	0.8673
1919	0.8678
1910	0.8678
1901	0.8678
1892	0.868
1883	0.8682
1874	0.8685
1865	0.8696
1856	0.8707
1847	0.8697
1838	0.8687
1829	0.8677
1820	0.8675
1811	0.8671
1802	0.8649
1793	0.8634
1784	0.86
1775	0.8546
1766	0.8458
1757	0.8313
1748	0.7291
1739	0.8169
1730	0.8494
1721	0.849
1712	0.8477
1703	0.8478
1694	0.8484
1685	0.8474
1676	0.8461
1667	0.8477
1658	0.8504
1649	0.8515
1640	0.8515
1631	0.8514
1622	0.8504
1613	0.8494
1604	0.8487
1595	0.8487
1586	0.8489
1577	0.8493
1568	0.8497
1559	0.8485
1550	0.8468
1541	0.8441
1532	0.8412
1523	0.8394
1514	0.8384
1505	0.8371
1496	0.8361
1487	0.8352
1478	0.8331
1469	0.8286
1460	0.8265
1451	0.8249
1442	0.8215
1433	0.8171
1424	0.8125
1415	0.8075
1406	0.7965
1397	0.7875
1388	0.7708
1379	0.7239
1370	0.4997
1361	0.659
1352	0.725
1343	0.7221
1334	0.7251
1325	0.6682
1316	0.7337
1307	0.6303
1298	0.3754
1289	0.5803
1280	0.7357
1271	0.7755
1262	0.7548
1253	0.6371
1244	0.6842
1235	0.7715
1226	0.7399
1217	0.649
1208	0.6123
1199	0.4088
1190	0.2471
1181	0.2285
1172	0.6744
1163	0.7092
1154	0.4191
1145	0.2452
1136	0.551
1127	0.7731
1118	0.7919
1109	0.7938
1100	0.6876
1091	0.5348
1082	0.7378
1073	0.8183
1064	0.833
1055	0.8314
1046	0.8197
1037	0.7953
1028	0.7093
1019	0.6045
1010	0.3709
1001	0.0707
992	0.3904
983	0.3642
974	0.0502
965	0.4683
956	0.7897
947	0.8216
938	0.8649
929	0.8762
920	0.8783
911	0.8798
902	0.881
893	0.8828
884	0.8836
875	0.8837
866	0.883
857	0.8818
848	0.8803
839	0.8786
830	0.8785
821	0.8785
812	0.879
803	0.8792
794	0.8792
785	0.8796
776	0.8803
767	0.8807
758	0.881
749	0.8814
740	0.8798
731	0.8778
722	0.8801
713	0.8843
704	0.8763
695	0.8751
686	0.8725
677	0.8512
668	0.7824
659	0.8523
650	0.8653
641	0.8618
632	0.8382
623	0.7092
614	0.8233
605	0.8471
596	0.8428
587	0.8336
578	0.7841
569	0.7082
560	0.8208
551	0.8294
542	0.8267
533	0.8105
524	0.7558
515	0.8108
506	0.8146
497	0.8149
488	0.813
479	0.8025
470	0.7846
461	0.7304
452	0.7258
443	0.708
434	0.6645
425	0.6143
416	0.5641
407	0.5523
