Infrared Spectrum: 2-NORBORNANECARBOXYLIC ACID, METHYLESTER
Formula: C9 H14 O2
CAS: 35520-81-1
State: SOLUTION (10% CCl4 FOR 4000-1300, 10% CS2 FOR 1300-450 CM^-^1) VS SOLVENT
Class: COBLENTZ III
Instrument: CARY 90 (GRATING)
Instrument parameters: ORDER CHANGES: 3000, 2000, 1200 CM^-^1
Sampling: TRANSMISSION
Path length: 0.010 CM, AND 0.010 CM
Resolution: 2
Origin: WESTERN REGIONAL RES. USDA
1/CM	TRANSMITTANCE
3942	0.9395
3933	0.9378
3924	0.9361
3915	0.9342
3906	0.9337
3897	0.9351
3888	0.9366
3879	0.9384
3870	0.9404
3861	0.9421
3852	0.9423
3843	0.9423
3834	0.9423
3825	0.9421
3816	0.9425
3807	0.9425
3798	0.9408
3789	0.9391
3780	0.9374
3771	0.9357
3762	0.9338
3753	0.9318
3744	0.9317
3735	0.9318
3726	0.932
3717	0.9309
3708	0.9289
3699	0.9295
3690	0.9328
3681	0.9354
3672	0.9366
3663	0.9377
3654	0.9389
3645	0.9385
3636	0.9375
3627	0.9364
3618	0.9348
3609	0.9331
3600	0.9318
3591	0.9315
3582	0.9312
3573	0.9308
3564	0.9315
3555	0.9323
3546	0.9331
3537	0.9336
3528	0.934
3519	0.9345
3510	0.9349
3501	0.9344
3492	0.9336
3483	0.9317
3474	0.9195
3465	0.9056
3456	0.9011
3447	0.9178
3438	0.9321
3429	0.9341
3420	0.9354
3411	0.9347
3402	0.9341
3393	0.9334
3384	0.9346
3375	0.9357
3366	0.9352
3357	0.9347
3348	0.9342
3339	0.9336
3330	0.9331
3321	0.9334
3312	0.9335
3303	0.9336
3294	0.9338
3285	0.935
3276	0.9365
3267	0.9377
3258	0.9389
3249	0.9401
3240	0.941
3231	0.9407
3222	0.9402
3213	0.9393
3204	0.9385
3195	0.9382
3186	0.9381
3177	0.9378
3168	0.9374
3159	0.9366
3150	0.9357
3141	0.9339
3132	0.9312
3123	0.9284
3114	0.9245
3105	0.9204
3096	0.9165
3087	0.9091
3078	0.9
3069	0.8912
3060	0.882
3051	0.8651
3042	0.8293
3033	0.7343
3024	0.68
3015	0.6595
3006	0.5637
2997	0.4539
2988	0.323
2979	0.192
2970	0.061
2961	0.0215
2952	0.0199
2943	0.0285
2934	0.1478
2925	0.2726
2916	0.3242
2907	0.4501
2898	0.5616
2889	0.4348
2880	0.2189
2871	0.1704
2862	0.6262
2853	0.7501
2844	0.7028
2835	0.8758
2826	0.9039
2817	0.9135
2808	0.9173
2799	0.917
2790	0.912
2781	0.9109
2772	0.9168
2763	0.9255
2754	0.9293
2745	0.9325
2736	0.9318
2727	0.9305
2718	0.927
2709	0.9267
2700	0.9277
2691	0.9292
2682	0.9307
2673	0.9321
2664	0.9335
2655	0.9341
2646	0.9339
2637	0.9337
2628	0.9332
2619	0.9309
2610	0.9213
2601	0.9208
2592	0.9241
2583	0.9262
2574	0.9282
2565	0.9299
2556	0.9304
2547	0.9309
2538	0.9315
2529	0.9321
2520	0.9327
2511	0.9333
2502	0.934
2493	0.9341
2484	0.934
2475	0.9338
2466	0.9336
2457	0.9325
2448	0.9315
2439	0.9289
2430	0.9233
2421	0.9186
2412	0.914
2403	0.9118
2394	0.91
2385	0.9157
2376	0.9268
2367	0.9218
2358	0.912
2349	0.911
2340	0.918
2331	0.9247
2322	0.9291
2313	0.9298
2304	0.9302
2295	0.9304
2286	0.9307
2277	0.9301
2268	0.9265
2259	0.9175
2250	0.9193
2241	0.9245
2232	0.9178
2223	0.9148
2214	0.9144
2205	0.9142
2196	0.9139
2187	0.9115
2178	0.9094
2169	0.9078
2160	0.9067
2151	0.9055
2142	0.9044
2133	0.903
2124	0.9018
2115	0.8984
2106	0.8942
2097	0.8896
2088	0.8847
2079	0.8818
2070	0.8825
2061	0.8894
2052	0.8923
2043	0.8923
2034	0.8905
2025	0.8884
2016	0.8858
2007	0.8828
1998	0.8777
1989	0.8777
1980	0.8824
1971	0.879
1962	0.8775
1953	0.8771
1944	0.8775
1935	0.8777
1926	0.8784
1917	0.8841
1908	0.8906
1899	0.8857
1890	0.8852
1881	0.8821
1872	0.8789
1863	0.8789
1854	0.8784
1845	0.8758
1836	0.872
1827	0.8683
1818	0.8677
1809	0.8509
1800	0.8345
1791	0.8095
1782	0.7835
1773	0.7425
1764	0.6518
1755	0.4377
1746	0.0708
1737	0.0083
1728	0.0295
1719	0.2283
1710	0.6339
1701	0.6661
1692	0.6835
1683	0.771
1674	0.8122
1665	0.8353
1656	0.8514
1647	0.862
1638	0.8694
1629	0.874
1620	0.8767
1611	0.8742
1602	0.8782
1593	0.8783
1584	0.8741
1575	0.8718
1566	0.8736
1557	0.879
1548	0.8801
1539	0.8764
1530	0.8718
1521	0.8515
1512	0.8459
1503	0.8389
1494	0.8325
1485	0.8182
1476	0.7082
1467	0.605
1458	0.3634
1449	0.4256
1440	0.423
1431	0.4298
1422	0.7744
1413	0.8301
1404	0.8366
1395	0.8303
1386	0.7965
1377	0.7278
1368	0.6532
1359	0.4376
1350	0.264
1341	0.5002
1332	0.6671
1323	0.7328
1314	0.349
1305	0.3096
1296	0.4929
1287	0.6048
1278	0.669
1269	0.5394
1260	0.4764
1251	0.2515
1242	0.4526
1233	0.426
1224	0.4345
1215	0.3034
1206	0.2102
1197	0.0206
1188	0.0515
1179	0.0457
1170	0.0201
1161	0.1012
1152	0.2979
1143	0.4612
1134	0.5425
1125	0.5535
1116	0.1992
1107	0.6249
1098	0.7228
1089	0.744
1080	0.7351
1071	0.4781
1062	0.5129
1053	0.5812
1044	0.5728
1035	0.2819
1026	0.5449
1017	0.7283
1008	0.7676
999	0.7684
990	0.6943
981	0.8022
972	0.7871
963	0.7919
954	0.7612
945	0.7612
936	0.8056
927	0.7748
918	0.6549
909	0.6258
900	0.7693
891	0.8075
882	0.768
873	0.7064
864	0.8025
855	0.8032
846	0.7932
837	0.7121
828	0.771
819	0.6641
810	0.7724
801	0.7656
792	0.803
783	0.8084
774	0.7211
765	0.7351
756	0.7415
747	0.561
738	0.7431
729	0.8046
720	0.8076
711	0.8081
702	0.8087
693	0.8091
684	0.8038
675	0.791
666	0.7835
657	0.7719
648	0.7689
639	0.7651
630	0.7618
621	0.7689
612	0.7812
603	0.7957
594	0.8044
585	0.8133
576	0.8128
567	0.8198
558	0.8139
549	0.8161
540	0.8196
531	0.8236
522	0.8285
513	0.8303
504	0.8218
495	0.8022
486	0.7901
477	0.7869
