Infrared Spectrum: Ether, methyl phenethyl
Formula: C9 H12 O
CAS: 3558-60-9
State: LIQUID (NEAT)
Class: COBLENTZ III
Instrument: DOW KBr FOREPRISM-GRATING
Instrument parameters: BLAZED AT 3.5, 12.0, 20.0 MICRON AND CHANGED AT 5.0, 7.5, 14.9 MICRON
Sampling: TRANSMISSION
Path length: FILM BETWEEN KBr PLATES
Resolution: 2
Origin: DOW CHEMICAL COMPANY
1/CM	TRANSMITTANCE
381	0.7965
390	0.7998
399	0.8026
408	0.8059
417	0.8083
426	0.8105
435	0.8107
444	0.8054
453	0.7991
462	0.8084
471	0.8186
480	0.813
489	0.7847
498	0.7333
507	0.7743
516	0.7228
525	0.8203
534	0.8535
543	0.8534
552	0.8498
561	0.8411
570	0.7918
579	0.6836
588	0.7783
597	0.84
606	0.8707
615	0.8718
624	0.8834
633	0.8895
642	0.8898
651	0.8868
660	0.8814
669	0.8649
678	0.8192
687	0.7671
696	0.1793
705	0.3885
714	0.7683
723	0.707
732	0.6012
741	0.4465
750	0.3046
759	0.6513
768	0.7827
777	0.8701
786	0.8853
795	0.8908
804	0.8895
813	0.8785
822	0.8115
831	0.8493
840	0.8871
849	0.8833
858	0.8906
867	0.9099
876	0.9087
885	0.903
894	0.8782
903	0.8281
912	0.8671
921	0.8556
930	0.8098
939	0.8491
948	0.8196
957	0.7235
966	0.6155
975	0.759
984	0.7842
993	0.7
1002	0.718
1011	0.7382
1020	0.708
1029	0.5593
1038	0.6241
1047	0.5389
1056	0.5992
1065	0.6626
1074	0.6239
1083	0.4693
1092	0.4795
1101	0.2483
1110	0.1384
1119	0.077
1128	0.3903
1137	0.658
1146	0.7329
1155	0.7249
1164	0.7643
1173	0.6678
1182	0.6064
1191	0.5956
1200	0.6774
1209	0.7349
1218	0.7168
1227	0.7821
1236	0.8162
1245	0.8215
1254	0.7959
1263	0.816
1272	0.8279
1281	0.829
1290	0.832
1299	0.8346
1308	0.8301
1317	0.8225
1326	0.8203
1335	0.8183
1344	0.8281
1353	0.8237
1362	0.8057
1371	0.7419
1380	0.5837
1389	0.6414
1398	0.7682
1407	0.8082
1416	0.8049
1425	0.7812
1434	0.7275
1443	0.6864
1452	0.4437
1461	0.5966
1470	0.7231
1479	0.6872
1488	0.6602
1497	0.3993
1506	0.7676
1515	0.8637
1524	0.8815
1533	0.8822
1542	0.8712
1551	0.8827
1560	0.8864
1569	0.8864
1578	0.8718
1587	0.8384
1596	0.8193
1605	0.6772
1614	0.8679
1623	0.8749
1632	0.8795
1641	0.8848
1650	0.8831
1659	0.8899
1668	0.8943
1677	0.8953
1686	0.8999
1695	0.8959
1704	0.8962
1713	0.8917
1722	0.89
1731	0.888
1740	0.8841
1749	0.8899
1758	0.8993
1767	0.8998
1776	0.8961
1785	0.8942
1794	0.8803
1803	0.869
1812	0.8829
1821	0.8924
1830	0.897
1839	0.8993
1848	0.8982
1857	0.8918
1866	0.8707
1875	0.8739
1884	0.8798
1893	0.8878
1902	0.8942
1911	0.8955
1920	0.8925
1929	0.8852
1938	0.8706
1947	0.8613
1956	0.8765
1965	0.879
1974	0.887
1983	0.8914
1992	0.8959
2001	0.9034
2010	0.9034
2019	0.9036
2028	0.9027
2037	0.9019
2046	0.9012
2055	0.9003
2064	0.899
2073	0.8972
2082	0.8966
2091	0.8992
2100	0.9024
2109	0.9062
2118	0.9094
2127	0.9113
2136	0.9122
2145	0.9126
2154	0.9125
2163	0.9124
2172	0.9125
2181	0.9127
2190	0.9128
2199	0.9129
2208	0.913
2217	0.9131
2226	0.9143
2235	0.9133
2244	0.9136
2253	0.9137
2262	0.914
2271	0.9142
2280	0.9144
2289	0.9146
2298	0.9148
2307	0.915
2316	0.9153
2325	0.9155
2334	0.9158
2343	0.9161
2352	0.9164
2361	0.9167
2370	0.9171
2379	0.9174
2388	0.9177
2397	0.9179
2406	0.9182
2415	0.9184
2424	0.9186
2433	0.9187
2442	0.9189
2451	0.919
2460	0.9191
2469	0.9192
2478	0.9194
2487	0.9191
2496	0.9186
2505	0.918
2514	0.9175
2523	0.9167
2532	0.9159
2541	0.9151
2550	0.9133
2559	0.9115
2568	0.9089
2577	0.9057
2586	0.9059
2595	0.9065
2604	0.9074
2613	0.907
2622	0.9044
2631	0.9014
2640	0.9001
2649	0.8996
2658	0.8998
2667	0.8997
2676	0.8993
2685	0.8982
2694	0.8955
2703	0.8861
2712	0.8703
2721	0.8518
2730	0.8454
2739	0.8545
2748	0.8622
2757	0.8651
2766	0.8624
2775	0.8533
2784	0.8364
2793	0.811
2802	0.6585
2811	0.5948
2820	0.5768
2829	0.5138
2838	0.5483
2847	0.5038
2856	0.439
2865	0.3662
2874	0.3706
2883	0.4233
2892	0.4481
2901	0.4716
2910	0.4516
2919	0.4036
2928	0.3745
2937	0.3839
2946	0.4023
2955	0.455
2964	0.5517
2973	0.6381
2982	0.6112
2991	0.6469
3000	0.7274
3009	0.7417
3018	0.7366
3027	0.5846
3036	0.4805
3045	0.7409
3054	0.7537
3063	0.6825
3072	0.6908
3081	0.7672
3090	0.7363
3099	0.844
3108	0.851
3117	0.8772
3126	0.8851
3135	0.8875
3144	0.8875
3153	0.8862
3162	0.8841
3171	0.8814
3180	0.8783
3189	0.875
3198	0.8718
3207	0.8685
3216	0.8652
3225	0.8615
3234	0.8578
3243	0.8541
3252	0.8502
3261	0.845
3270	0.8397
3279	0.8342
3288	0.8287
3297	0.8228
3306	0.817
3315	0.8108
3324	0.8042
3333	0.7975
3342	0.7909
3351	0.7843
3360	0.7778
3369	0.7712
3378	0.7647
3387	0.7582
3396	0.7518
3405	0.7449
3414	0.7381
3423	0.7319
3432	0.7263
3441	0.7217
3450	0.7185
3459	0.7166
3468	0.7179
3477	0.7243
3486	0.7367
3495	0.7575
3504	0.7735
3513	0.7911
3522	0.8053
3531	0.817
3540	0.8268
3549	0.8351
3558	0.8417
3567	0.847
3576	0.851
3585	0.8552
3594	0.8607
3603	0.8752
3612	0.8848
3621	0.892
3630	0.8967
3639	0.8984
3648	0.8988
3657	0.9014
3666	0.906
3675	0.9119
3684	0.9173
3693	0.9224
3702	0.9261
3711	0.9297
3720	0.9315
3729	0.933
3738	0.934
3747	0.9349
3756	0.9356
3765	0.9361
3774	0.9365
3783	0.9367
3792	0.9374
3801	0.9385
