Infrared Spectrum: Butyric acid, heptafluoro-, ethyl ester
Formula: C6 H5 F7 O2
CAS: 356-27-4
State: LIQUID (NEAT)
Class: COBLENTZ III
Instrument: BAIRD (GRATING)
Instrument parameters: NaCl PRISM
Path length: 0.0013 CM
Resolution: 2
Origin: WYANDOTTE CHEMICALS CORP.
1/CM	TRANSMITTANCE
626	0.742
635	0.7034
644	0.6779
653	0.7028
662	0.7865
671	0.841
680	0.8785
689	0.9037
698	0.894
707	0.8356
716	0.4085
725	0.377
734	0.4813
743	0.2526
752	0.5877
761	0.5202
770	0.8281
779	0.8126
788	0.7074
797	0.822
806	0.8069
815	0.7466
824	0.691
833	0.391
842	0.5921
851	0.55
860	0.4978
869	0.7727
878	0.8745
887	0.9022
896	0.8992
905	0.8626
914	0.7378
923	0.4153
932	0.0906
941	0.2731
950	0.5054
959	0.2636
968	0.083
977	0.2587
986	0.5049
995	0.5204
1004	0.2289
1013	0.1408
1022	0.2949
1031	0.5216
1040	0.6143
1049	0.6795
1058	0.6948
1067	0.6167
1076	0.3851
1085	0.0689
1094	0.0835
1103	0.2542
1112	0.3782
1121	0.1741
1130	0.0679
1139	0.0648
1148	0.0289
1157	0.0381
1166	0.0593
1175	0.0406
1184	0.0265
1193	0.0252
1202	0.0251
1211	0.0236
1220	0.0181
1229	0.0174
1238	0.0186
1247	0.0197
1256	0.0277
1265	0.0274
1274	0.0246
1283	0.066
1292	0.0811
1301	0.0369
1310	0.0225
1319	0.0243
1328	0.0601
1337	0.2422
1346	0.3705
1355	0.2009
1364	0.1126
1373	0.4527
1382	0.2239
1391	0.4457
1400	0.6048
1409	0.6679
1418	0.7567
1427	0.8069
1436	0.808
1445	0.7763
1454	0.6794
1463	0.5242
1472	0.6356
1481	0.5746
1490	0.5708
1499	0.7839
1508	0.8542
1517	0.8762
1526	0.8944
1535	0.9051
1544	0.9114
1553	0.9151
1562	0.917
1571	0.9171
1580	0.9162
1589	0.9142
1598	0.9108
1607	0.908
1616	0.9058
1625	0.9034
1634	0.9007
1643	0.8979
1652	0.892
1661	0.8843
1670	0.8771
1679	0.8687
1688	0.8571
1697	0.837
1706	0.8267
1715	0.8218
1724	0.798
1733	0.7748
1742	0.748
1751	0.6543
1760	0.4662
1769	0.0498
1778	0.0229
1787	0.0302
1796	0.2284
1805	0.457
1814	0.7116
1823	0.7733
1832	0.8162
1841	0.8571
1850	0.8891
1859	0.9089
1868	0.927
1877	0.9395
1886	0.953
1895	0.9608
1904	0.9643
1913	0.967
1922	0.9688
1931	0.969
1940	0.9683
1949	0.967
1958	0.9682
1967	0.9718
1976	0.9799
1985	0.9846
1994	0.9864
2003	0.9867
2012	0.987
2021	0.9871
2030	0.9872
2039	0.9873
2048	0.9878
2057	0.9881
2066	0.9887
2075	0.9895
2084	0.9887
2093	0.986
2102	0.9819
2111	0.9793
2120	0.9784
2129	0.9793
2138	0.9817
2147	0.984
2156	0.9863
2165	0.9881
2174	0.9867
2183	0.9817
2192	0.9765
2201	0.972
2210	0.971
2219	0.9717
2228	0.9711
2237	0.9639
2246	0.9582
2255	0.9565
2264	0.957
2273	0.9579
2282	0.9588
2291	0.9596
2300	0.9592
2309	0.9565
2318	0.9508
2327	0.9439
2336	0.9378
2345	0.9334
2354	0.9288
2363	0.9243
2372	0.9199
2381	0.9156
2390	0.9115
2399	0.9078
2408	0.905
2417	0.9023
2426	0.9009
2435	0.8995
2444	0.8982
2453	0.8996
2462	0.9023
2471	0.9063
2480	0.9115
2489	0.9156
2498	0.918
2507	0.9195
2516	0.9202
2525	0.9207
2534	0.9213
2543	0.9222
2552	0.9234
2561	0.9254
2570	0.9277
2579	0.9294
2588	0.9308
2597	0.932
2606	0.9333
2615	0.9342
2624	0.9353
2633	0.9363
2642	0.9368
2651	0.9372
2660	0.9365
2669	0.9349
2678	0.9333
2687	0.9316
2696	0.9298
2705	0.9283
2714	0.9278
2723	0.9273
2732	0.9268
2741	0.9269
2750	0.9271
2759	0.9273
2768	0.9275
2777	0.9274
2786	0.927
2795	0.9258
2804	0.923
2813	0.918
2822	0.9108
2831	0.9019
2840	0.8915
2849	0.8773
2858	0.8662
2867	0.8549
2876	0.8416
2885	0.8278
2894	0.8137
2903	0.8004
2912	0.7872
2921	0.7758
2930	0.7648
2939	0.7564
2948	0.7536
2957	0.7463
2966	0.7231
2975	0.7002
2984	0.6856
2993	0.6237
3002	0.5403
3011	0.509
3020	0.5239
3029	0.6001
3038	0.6758
3047	0.7512
3056	0.8261
3065	0.8962
3074	0.9208
3083	0.9276
3092	0.9336
3101	0.9391
3110	0.9438
3119	0.947
3128	0.9494
3137	0.9509
3146	0.9523
3155	0.9533
3164	0.9541
3173	0.9548
3182	0.9549
3191	0.955
3200	0.9552
3209	0.9553
3218	0.9556
3227	0.9565
3236	0.9577
3245	0.9593
3254	0.9625
3263	0.9653
3272	0.9663
3281	0.9674
3290	0.968
3299	0.9683
3308	0.9686
3317	0.969
3326	0.9693
3335	0.9695
3344	0.9696
3353	0.9698
3362	0.9699
3371	0.9701
3380	0.9702
3389	0.9703
3398	0.9703
3407	0.9704
3416	0.9704
3425	0.9704
3434	0.9704
3443	0.9705
3452	0.9705
3461	0.9704
3470	0.9701
3479	0.9699
3488	0.9695
3497	0.9692
3506	0.969
3515	0.9681
3524	0.9667
3533	0.9653
3542	0.9633
3551	0.9609
3560	0.96
3569	0.9603
3578	0.961
3587	0.9631
3596	0.9709
3605	0.9806
3614	0.9882
3623	0.9936
3632	0.9971
3641	0.9983
3650	0.9993
3659	1.0003
3668	1.0012
3677	1.0017
3686	1.0019
3695	1.0022
3704	1.0025
3713	1.0027
3722	1.003
3731	1.0032
3740	1.0034
3749	1.0035
3758	1.0035
3767	1.0035
3776	1.0035
3785	1.0035
3794	1.0035
3803	1.0035
3812	1.0035
3821	1.0035
3830	1.0035
3839	1.0035
3848	1.0035
3857	1.0035
3866	1.0035
3875	1.0035
3884	1.0035
3893	1.0035
3902	1.0036
3911	1.0036
3920	1.0036
3929	1.0036
3938	1.0037
3947	1.0037
3956	1.0037
3965	1.0037
3974	1.0037
3983	1.0038
3992	1.0038
