Infrared Spectrum: 1,3,4,4-TETRACHLORO-1,2,3,4-TETRAFLUORO BUTENE-1
Formula: C4 Cl4 F4
CAS: 357-20-0
State: SOLUTION (10% CCl4 FOR 5000-1330, 10% CS2 FOR 1330-625 CM^-^1)
Class: COBLENTZ
Instrument: Not specified, most likely a prism, grating, or hybrid spectrometer.
Sampling: TRANSMISSION
Path length: 0.0119 CM, 0.0117 CM
Resolution: 4
Origin: DOW CHEMICAL COMPANY
MICROMETERS	TRANSMITTANCE
2.034	0.856
2.07518	0.858
2.11635	0.858
2.15753	0.858
2.19871	0.858
2.23989	0.858
2.28106	0.858
2.32224	0.858
2.36342	0.858
2.4046	0.86
2.44577	0.86
2.48695	0.863
2.52813	0.868
2.56931	0.872
2.61048	0.872
2.65166	0.872
2.69284	0.872
2.73401	0.872
2.77519	0.865
2.81637	0.863
2.85755	0.862
2.89872	0.862
2.9399	0.862
2.98108	0.862
3.02226	0.862
3.06343	0.862
3.10461	0.865
3.14579	0.867
3.18697	0.87
3.22814	0.873
3.26932	0.879
3.3105	0.872
3.35167	0.879
3.39285	0.889
3.43403	0.879
3.47521	0.884
3.51638	0.882
3.55756	0.88
3.59874	0.879
3.63992	0.884
3.68109	0.887
3.72227	0.885
3.76345	0.882
3.80463	0.882
3.8458	0.884
3.88698	0.88
3.92816	0.884
3.96933	0.882
4.01051	0.88
4.05169	0.884
4.09287	0.879
4.13404	0.875
4.17522	0.882
4.2164	0.88
4.25758	0.879
4.29875	0.88
4.33993	0.884
4.38111	0.877
4.42229	0.877
4.46346	0.887
4.50464	0.88
4.54582	0.879
4.58699	0.88
4.62817	0.884
4.66935	0.879
4.71053	0.879
4.7517	0.882
4.79288	0.887
4.83406	0.887
4.87524	0.889
4.91641	0.89
4.95759	0.89
4.99877	0.89
5.03995	0.892
5.08112	0.889
5.1223	0.887
5.16348	0.89
5.20466	0.89
5.24583	0.89
5.28701	0.89
5.32819	0.89
5.36936	0.889
5.41054	0.882
5.45172	0.887
5.4929	0.892
5.53407	0.887
5.57525	0.884
5.61643	0.885
5.65761	0.889
5.69878	0.89
5.73996	0.889
5.78114	0.879
5.82232	0.833
5.86349	0.686
5.90467	0.546
5.94585	0.684
5.98702	0.824
6.0282	0.838
6.06938	0.824
6.11056	0.817
6.15173	0.848
6.19291	0.889
6.23409	0.897
6.27527	0.908
6.31644	0.908
6.35762	0.902
6.3988	0.901
6.43998	0.904
6.48115	0.904
6.52233	0.902
6.56351	0.899
6.60468	0.894
6.64586	0.894
6.68704	0.897
6.72822	0.897
6.76939	0.896
6.81057	0.89
6.85175	0.89
6.89293	0.892
6.9341	0.894
6.97528	0.89
7.01646	0.889
7.05764	0.892
7.09881	0.892
7.13999	0.896
7.18117	0.892
7.22234	0.89
7.26352	0.887
7.3047	0.877
7.34588	0.87
7.38705	0.87
7.42823	0.87
7.46941	0.863
7.51059	0.85
7.55176	0.8
7.59294	0.717
7.63412	0.654
7.6753	0.54
7.71647	0.487
7.75765	0.545
7.79883	0.584
7.84	0.695
7.88118	0.761
7.92236	0.788
7.96354	0.787
8.00471	0.773
8.04589	0.749
8.08707	0.679
8.12825	0.582
8.16942	0.459
8.2106	0.199
8.25178	0.035
8.29296	0.139
8.33413	0.386
8.37531	0.408
8.41649	0.318
8.45766	0.364
8.49884	0.429
8.54002	0.42
8.5812	0.429
8.62237	0.458
8.66355	0.458
8.70473	0.424
8.74591	0.395
8.78708	0.352
8.82826	0.287
8.86944	0.178
8.91062	0.136
8.95179	0.165
8.99297	0.253
9.03415	0.373
9.07532	0.473
9.1165	0.524
9.15768	0.558
9.19886	0.551
9.24003	0.492
9.28121	0.395
9.32239	0.35
9.36357	0.383
9.40474	0.402
9.44592	0.432
9.4871	0.505
9.52828	0.586
9.56945	0.643
9.61063	0.655
9.65181	0.638
9.69298	0.628
9.73416	0.671
9.77534	0.696
9.81652	0.688
9.85769	0.637
9.89887	0.594
9.94005	0.533
9.98123	0.494
10.0224	0.475
10.0636	0.499
10.1048	0.56
10.1459	0.596
10.1871	0.597
10.2283	0.579
10.2695	0.609
10.3106	0.691
10.3518	0.746
10.393	0.77
10.4342	0.781
10.4754	0.787
10.5165	0.792
10.5577	0.795
10.5989	0.795
10.6401	0.795
10.6812	0.792
10.7224	0.776
10.7636	0.768
10.8048	0.759
10.846	0.742
10.8871	0.7
10.9283	0.642
10.9695	0.577
11.0107	0.482
11.0518	0.393
11.093	0.337
11.1342	0.332
11.1754	0.337
11.2165	0.318
11.2577	0.235
11.2989	0.189
11.3401	0.241
11.3813	0.35
11.4224	0.415
11.4636	0.449
11.5048	0.47
11.546	0.502
11.5871	0.538
11.6283	0.565
11.6695	0.577
11.7107	0.582
11.7519	0.562
11.793	0.519
11.8342	0.49
11.8754	0.509
11.9166	0.528
11.9577	0.505
11.9989	0.431
12.0401	0.339
12.0813	0.282
12.1224	0.277
12.1636	0.304
12.2048	0.344
12.246	0.385
12.2872	0.417
12.3283	0.393
12.3695	0.313
12.4107	0.236
12.4519	0.238
12.493	0.33
12.5342	0.383
12.5754	0.364
12.6166	0.264
12.6578	0.148
12.6989	0.066
12.7401	0.056
12.7813	0.143
12.8225	0.248
12.8636	0.356
12.9048	0.454
12.946	0.529
12.9872	0.568
13.0283	0.577
13.0695	0.57
13.1107	0.555
13.1519	0.521
13.1931	0.504
13.2342	0.488
13.2754	0.453
13.3166	0.383
13.3578	0.311
13.3989	0.274
13.4401	0.252
13.4813	0.306
13.5225	0.444
13.5637	0.534
13.6048	0.616
13.646	0.657
13.6872	0.683
13.7284	0.688
13.7695	0.681
13.8107	0.642
13.8519	0.574
13.8931	0.48
13.9343	0.403
13.9754	0.361
14.0166	0.337
14.0578	0.31
14.099	0.286
14.1401	0.284
14.1813	0.332
14.2225	0.413
14.2637	0.482
14.3048	0.543
14.346	0.597
14.3872	0.637
14.4284	0.676
14.4696	0.701
14.5107	0.725
14.5519	0.746
14.5931	0.761
14.6343	0.771
14.6754	0.78
14.7166	0.795
14.7578	0.798
14.799	0.802
14.8402	0.802
14.8813	0.798
14.9225	0.797
14.9637	0.8
15.0049	0.805
15.046	0.812
15.0872	0.816
15.1284	0.816
15.1696	0.816
15.2107	0.814
15.2519	0.814
15.2931	0.812
15.3343	0.807
15.3755	0.8
15.4166	0.795
15.4578	0.79
15.499	0.783
15.5402	0.771
15.5813	0.763
15.6225	0.758
15.6637	0.756
15.7049	0.749
15.7461	0.751
15.7872	0.749
15.8284	0.749
15.8696	0.747
