Infrared Spectrum: Methanesulfonic acid, 2-chloroethyl ester
Formula: C3 H7 Cl O3 S
CAS: 3570-58-9
State: LIQUID (NEAT)
Boiling point: 125 C AT 9 mmHg
Class: COBLENTZ III
Instrument: BECKMAN IR-9 (GRATING)
Instrument parameters: ORDER CHANGES: 670, 1200, 2000 CM^-^1
Sampling: TRANSMISSION
Path length: CAPILLARY
Resolution: 2
Origin: DOW CHEMICAL COMPANY
1/CM	TRANSMITTANCE
3800	0.9065
3791	0.907
3782	0.9075
3773	0.9082
3764	0.9088
3755	0.9089
3746	0.909
3737	0.9093
3728	0.9099
3719	0.9103
3710	0.9078
3701	0.9013
3692	0.8918
3683	0.8803
3674	0.8706
3665	0.8648
3656	0.8625
3647	0.8671
3638	0.8759
3629	0.8864
3620	0.8958
3611	0.9005
3602	0.8984
3593	0.8936
3584	0.8892
3575	0.8868
3566	0.8888
3557	0.8945
3548	0.9018
3539	0.9077
3530	0.9091
3521	0.9092
3512	0.9091
3503	0.9087
3494	0.9085
3485	0.9083
3476	0.9082
3467	0.908
3458	0.9075
3449	0.9068
3440	0.9064
3431	0.9058
3422	0.9055
3413	0.9052
3404	0.9054
3395	0.9057
3386	0.9061
3377	0.9064
3368	0.9065
3359	0.9066
3350	0.9067
3341	0.9073
3332	0.9078
3323	0.9084
3314	0.9087
3305	0.909
3296	0.9094
3287	0.9096
3278	0.9097
3269	0.9096
3260	0.9102
3251	0.9115
3242	0.9128
3233	0.9141
3224	0.9153
3215	0.9163
3206	0.9167
3197	0.9171
3188	0.9175
3179	0.9171
3170	0.9168
3161	0.9154
3152	0.9142
3143	0.913
3134	0.9116
3125	0.91
3116	0.9068
3107	0.9034
3098	0.9008
3089	0.8937
3080	0.8845
3071	0.8715
3062	0.8539
3053	0.8182
3044	0.7248
3035	0.7189
3026	0.7395
3017	0.8258
3008	0.8609
2999	0.8575
2990	0.8392
2981	0.8092
2972	0.8017
2963	0.8056
2954	0.774
2945	0.7522
2936	0.8903
2927	0.9096
2918	0.9165
2909	0.9182
2900	0.9204
2891	0.9282
2882	0.9368
2873	0.9368
2864	0.9346
2855	0.9352
2846	0.9401
2837	0.9483
2828	0.9546
2819	0.9566
2810	0.9581
2801	0.9588
2792	0.9588
2783	0.9588
2774	0.9587
2765	0.9588
2756	0.9588
2747	0.9589
2738	0.959
2729	0.959
2720	0.959
2711	0.9591
2702	0.9591
2693	0.9591
2684	0.9592
2675	0.9593
2666	0.9596
2657	0.9597
2648	0.96
2639	0.96
2630	0.9598
2621	0.9595
2612	0.9592
2603	0.9587
2594	0.9583
2585	0.9577
2576	0.9568
2567	0.9552
2558	0.9498
2549	0.942
2540	0.9363
2531	0.9327
2522	0.9347
2513	0.9387
2504	0.9438
2495	0.9491
2486	0.9523
2477	0.9545
2468	0.9553
2459	0.9558
2450	0.956
2441	0.9561
2432	0.9556
2423	0.9549
2414	0.9546
2405	0.9544
2396	0.9548
2387	0.9552
2378	0.9541
2369	0.951
2360	0.9475
2351	0.9438
2342	0.9412
2333	0.9399
2324	0.9418
2315	0.9471
2306	0.9515
2297	0.9555
2288	0.9581
2279	0.9602
2270	0.9612
2261	0.9621
2252	0.9627
2243	0.9631
2234	0.9636
2225	0.9639
2216	0.964
2207	0.9638
2198	0.963
2189	0.9621
2180	0.9606
2171	0.959
2162	0.9583
2153	0.9578
2144	0.9575
2135	0.9578
2126	0.958
2117	0.9582
2108	0.9584
2099	0.9586
2090	0.9588
2081	0.9589
2072	0.9591
2063	0.9592
2054	0.9594
2045	0.9595
2036	0.9595
2027	0.9586
2018	0.956
2009	0.9499
2000	0.9435
1991	0.9404
1982	0.9391
1973	0.9354
1964	0.9212
1955	0.932
1946	0.9315
1937	0.9311
1928	0.9314
1919	0.9316
1910	0.9317
1901	0.9318
1892	0.9321
1883	0.9328
1874	0.9335
1865	0.9338
1856	0.9338
1847	0.9331
1838	0.9321
1829	0.9296
1820	0.9191
1811	0.9166
1802	0.9191
1793	0.9225
1784	0.9267
1775	0.9289
1766	0.9261
1757	0.9212
1748	0.9183
1739	0.9152
1730	0.9117
1721	0.9036
1712	0.8983
1703	0.9045
1694	0.9071
1685	0.9084
1676	0.9088
1667	0.9085
1658	0.9055
1649	0.8959
1640	0.8866
1631	0.8787
1622	0.8824
1613	0.8935
1604	0.9025
1595	0.9095
1586	0.9136
1577	0.9157
1568	0.9168
1559	0.917
1550	0.9145
1541	0.9131
1532	0.912
1523	0.9093
1514	0.9066
1505	0.904
1496	0.8997
1487	0.8817
1478	0.8386
1469	0.7788
1460	0.7091
1451	0.7755
1442	0.7648
1433	0.6568
1424	0.7269
1415	0.7061
1406	0.7835
1397	0.7511
1388	0.5845
1379	0.4872
1370	0.228
1361	0.1489
1352	0.1449
1343	0.1723
1334	0.1936
1325	0.3921
1316	0.5395
1307	0.4317
1298	0.7393
1289	0.8171
1280	0.8415
1271	0.8275
1262	0.8164
1253	0.8357
1244	0.8585
1235	0.8554
1226	0.8383
1217	0.7934
1208	0.678
1199	0.5194
1190	0.5214
1181	0.1576
1172	0.129
1163	0.4068
1154	0.7419
1145	0.8231
1136	0.8475
1127	0.8566
1118	0.8531
1109	0.8445
1100	0.8318
1091	0.8096
1082	0.6953
1073	0.4598
1064	0.5464
1055	0.7638
1046	0.7931
1037	0.7839
1028	0.6768
1019	0.4098
1010	0.1932
1001	0.2439
992	0.3814
983	0.2671
974	0.2126
965	0.247
956	0.2104
947	0.2732
938	0.4962
929	0.6387
920	0.5882
911	0.3309
902	0.2173
893	0.2979
884	0.4596
875	0.6178
866	0.7725
857	0.7521
848	0.6799
839	0.6676
830	0.6508
821	0.6209
812	0.5562
803	0.2542
794	0.2977
785	0.656
776	0.7665
767	0.7932
758	0.8114
749	0.7865
740	0.7186
731	0.5541
722	0.5973
713	0.6553
704	0.7219
695	0.8281
686	0.7961
677	0.6005
668	0.5165
659	0.6601
650	0.8362
641	0.8685
632	0.882
623	0.8906
614	0.8962
605	0.8984
596	0.8988
587	0.8973
578	0.8953
569	0.872
560	0.8227
551	0.6692
542	0.4964
533	0.3723
524	0.2348
515	0.7032
506	0.7951
497	0.7984
488	0.6897
479	0.7199
470	0.6998
461	0.6946
452	0.7288
443	0.6941
434	0.6331
425	0.5125
416	0.4562
407	0.558
