Infrared Spectrum: Carbonic acid, cyclic 2,2-dimethyltrimethylene ester
Formula: C6 H10 O3
CAS: 3592-12-9
State: SOLID (SPLIT MULL)
Class: COBLENTZ III
Instrument: DOW KBr FOREPRISM-GRATING
Instrument parameters: BLAZED AT 3.5, 12.0, 20.0 MICRON AND CHANGED AT 5.0, 7.5, 14.9 MICRON
Sampling: TRANSMISSION
Resolution: 2
Origin: DOW CHEMICAL COMPANY
1/CM	TRANSMITTANCE
3800	0.928
3791	0.929
3782	0.9232
3773	0.9235
3764	0.9259
3755	0.9289
3746	0.9312
3737	0.9318
3728	0.9308
3719	0.9285
3710	0.9248
3701	0.9033
3692	0.9052
3683	0.9217
3674	0.9288
3665	0.9281
3656	0.9248
3647	0.9277
3638	0.9266
3629	0.925
3620	0.924
3611	0.9206
3602	0.9191
3593	0.9189
3584	0.9131
3575	0.9106
3566	0.9118
3557	0.9116
3548	0.9074
3539	0.9021
3530	0.8981
3521	0.8947
3512	0.8917
3503	0.8892
3494	0.8868
3485	0.884
3476	0.8802
3467	0.8694
3458	0.8583
3449	0.8609
3440	0.8701
3431	0.8771
3422	0.8789
3413	0.8792
3404	0.8809
3395	0.8832
3386	0.8864
3377	0.889
3368	0.8904
3359	0.8913
3350	0.8921
3341	0.8931
3332	0.894
3323	0.8949
3314	0.896
3305	0.8971
3296	0.8981
3287	0.8989
3278	0.8995
3269	0.9002
3260	0.9012
3251	0.9067
3242	0.9093
3233	0.9091
3224	0.9087
3215	0.9077
3206	0.9068
3197	0.907
3188	0.9108
3179	0.9137
3170	0.9149
3161	0.9159
3152	0.9168
3143	0.9177
3134	0.9184
3125	0.9193
3116	0.9202
3107	0.9209
3098	0.9212
3089	0.9213
3080	0.9209
3071	0.9207
3062	0.9207
3053	0.9208
3044	0.9207
3035	0.9206
3026	0.9186
3017	0.9101
3008	0.8937
2999	0.8733
2990	0.744
2981	0.6746
2972	0.6124
2963	0.7431
2954	0.7615
2945	0.7582
2936	0.7725
2927	0.7675
2918	0.7467
2909	0.7894
2900	0.8148
2891	0.8049
2882	0.8136
2873	0.8503
2864	0.8727
2855	0.8911
2846	0.9052
2837	0.914
2828	0.9148
2819	0.9143
2810	0.9212
2801	0.9282
2792	0.928
2783	0.9249
2774	0.9266
2765	0.9291
2756	0.9316
2747	0.9338
2738	0.9359
2729	0.9378
2720	0.9393
2711	0.9407
2702	0.9416
2693	0.9425
2684	0.9433
2675	0.9439
2666	0.9445
2657	0.945
2648	0.9454
2639	0.9459
2630	0.9465
2621	0.9464
2612	0.9433
2603	0.9387
2594	0.9383
2585	0.9396
2576	0.9407
2567	0.9412
2558	0.9415
2549	0.9406
2540	0.9386
2531	0.9403
2522	0.943
2513	0.9446
2504	0.9452
2495	0.9452
2486	0.9451
2477	0.9449
2468	0.945
2459	0.9441
2450	0.9412
2441	0.9378
2432	0.9362
2423	0.9365
2414	0.9368
2405	0.936
2396	0.9321
2387	0.9235
2378	0.9223
2369	0.9216
2360	0.9212
2351	0.9208
2342	0.9205
2333	0.921
2324	0.9218
2315	0.9237
2306	0.9257
2297	0.928
2288	0.9305
2279	0.9334
2270	0.9365
2261	0.9403
2252	0.9442
2243	0.9477
2234	0.9502
2225	0.9505
2216	0.9518
2207	0.9538
2198	0.9563
2189	0.9587
2180	0.961
2171	0.9632
2162	0.9657
2153	0.9681
2144	0.9708
2135	0.9735
2126	0.976
2117	0.9778
2108	0.9797
2099	0.9814
2090	0.983
2081	0.9847
2072	0.9862
2063	0.9881
2054	0.9898
2045	0.9909
2036	0.9907
2027	0.9882
2018	0.9825
2009	0.9909
2000	0.9898
1991	0.9918
1982	0.9968
1973	0.9998
1964	1.0148
1955	1.0046
1946	0.9955
1937	0.9875
1928	0.9889
1919	0.9778
1910	0.9691
1901	0.982
1892	0.9883
1883	0.9863
1874	0.9828
1865	0.9775
1856	0.9746
1847	0.9698
1838	0.9294
1829	0.8889
1820	0.8987
1811	0.925
1802	0.904
1793	0.8495
1784	0.7208
1775	0.4178
1766	0.1219
1757	0.0746
1748	0.0624
1739	0.137
1730	0.3497
1721	0.6488
1712	0.7497
1703	0.8253
1694	0.8212
1685	0.893
1676	0.896
1667	0.8836
1658	0.9055
1649	0.9396
1640	0.9536
1631	0.958
1622	0.9675
1613	0.9749
1604	0.9678
1595	0.9653
1586	0.971
1577	0.9709
1568	0.962
1559	0.9661
1550	0.9625
1541	0.8878
1532	0.9423
1523	0.9608
1514	0.9582
1505	0.9518
1496	0.8596
1487	0.8475
1478	0.3856
1469	0.6947
1460	0.8388
1451	0.862
1442	0.8853
1433	0.8803
1424	0.8068
1415	0.4027
1406	0.6439
1397	0.864
1388	0.902
1379	0.7469
1370	0.9001
1361	0.9347
1352	0.93
1343	0.9231
1334	0.9221
1325	0.8883
1316	0.8585
1307	0.8463
1298	0.6482
1289	0.79
1280	0.7805
1271	0.7556
1262	0.7471
1253	0.7541
1244	0.5482
1235	0.5741
1226	0.6134
1217	0.7411
1208	0.5747
1199	0.1409
1190	0.1203
1181	0.3537
1172	0.7331
1163	0.7851
1154	0.8313
1145	0.7706
1136	0.6201
1127	0.1817
1118	0.1021
1109	0.521
1100	0.7217
1091	0.7974
1082	0.8433
1073	0.8666
1064	0.8714
1055	0.8763
1046	0.8788
1037	0.8739
1028	0.8947
1019	0.8942
1010	0.8747
1001	0.8838
992	0.9145
983	0.9047
974	0.894
965	0.8893
956	0.8651
947	0.8743
938	0.9141
929	0.9149
920	0.907
911	0.9233
902	0.9268
893	0.9283
884	0.9291
875	0.9294
866	0.9303
857	0.9314
848	0.9323
839	0.9318
830	0.9071
821	0.9027
812	0.9083
803	0.6373
794	0.8051
785	0.8424
776	0.7737
767	0.4485
758	0.8637
749	0.8618
740	0.818
731	0.7908
722	0.8101
713	0.8752
704	0.9205
695	0.9368
686	0.9434
677	0.9716
668	0.9597
659	0.967
650	0.9635
641	0.9582
632	0.9521
623	0.9447
614	0.9362
605	0.9268
596	0.7411
587	0.8537
578	0.8967
569	0.9032
560	0.9078
551	0.9097
542	0.9106
533	0.9109
524	0.9113
515	0.9115
506	0.9082
497	0.8828
488	0.8292
479	0.8432
470	0.8545
