Infrared Spectrum: 2,5-DICHLORO-3-THIENYL METHYL KETONE
Formula: C6 H4 Cl2 O S
CAS: 36157-40-1
State: SOLID (NUJOL MULL)
Class: COBLENTZ
Instrument: Not specified, most likely a prism, grating, or hybrid spectrometer.
Sampling: TRANSMISSION
Resolution: 4
Origin: TENNESSEE EASTMAN COMPANY, RESEARCH LABORATORIES
MICROMETERS	TRANSMITTANCE
2.09	0.899
2.12987	0.898
2.16973	0.898
2.2096	0.898
2.24947	0.899
2.28934	0.896
2.3292	0.893
2.36907	0.891
2.40894	0.893
2.4488	0.891
2.48867	0.891
2.52854	0.891
2.5684	0.893
2.60827	0.901
2.64814	0.901
2.68801	0.904
2.72787	0.903
2.76774	0.903
2.80761	0.899
2.84747	0.898
2.88734	0.893
2.92721	0.889
2.96708	0.886
3.00694	0.874
3.04681	0.873
3.08668	0.874
3.12654	0.873
3.16641	0.873
3.20628	0.873
3.24615	0.854
3.28601	0.844
3.32588	0.849
3.36575	0.727
3.40561	0.392
3.44548	0.32
3.48535	0.487
3.52521	0.487
3.56508	0.787
3.60495	0.833
3.64482	0.843
3.68468	0.853
3.72455	0.853
3.76442	0.853
3.80428	0.853
3.84415	0.854
3.88402	0.859
3.92389	0.863
3.96375	0.866
4.00362	0.869
4.04349	0.869
4.08335	0.873
4.12322	0.873
4.16309	0.873
4.20296	0.874
4.24282	0.884
4.28269	0.921
4.32256	0.924
4.36242	0.906
4.40229	0.886
4.44216	0.884
4.48202	0.881
4.52189	0.879
4.56176	0.879
4.60163	0.878
4.64149	0.878
4.68136	0.879
4.72123	0.878
4.76109	0.879
4.80096	0.878
4.84083	0.878
4.8807	0.878
4.92056	0.876
4.96043	0.876
5.0003	0.876
5.04016	0.876
5.08003	0.876
5.1199	0.878
5.15977	0.878
5.19963	0.878
5.2395	0.874
5.27937	0.878
5.31923	0.874
5.3591	0.878
5.39897	0.874
5.43883	0.879
5.4787	0.878
5.51857	0.874
5.55844	0.874
5.5983	0.874
5.63817	0.874
5.67804	0.864
5.7179	0.868
5.75777	0.864
5.79764	0.844
5.83751	0.843
5.87737	0.762
5.91724	0.599
5.95711	0.425
5.99697	0.41
6.03684	0.699
6.07671	0.804
6.11658	0.814
6.15644	0.838
6.19631	0.848
6.23618	0.848
6.27604	0.849
6.31591	0.854
6.35578	0.866
6.39564	0.866
6.43551	0.858
6.47538	0.854
6.51525	0.818
6.55511	0.712
6.59498	0.757
6.63485	0.829
6.67471	0.839
6.71458	0.838
6.75445	0.823
6.79432	0.712
6.83418	0.639
6.87405	0.629
6.91392	0.609
6.95378	0.465
6.99365	0.42
7.03352	0.52
7.07339	0.676
7.11325	0.762
7.15312	0.801
7.19299	0.801
7.23285	0.702
7.27272	0.562
7.31259	0.4
7.35245	0.559
7.39232	0.674
7.43219	0.742
7.47206	0.689
7.51192	0.707
7.55179	0.799
7.59166	0.823
7.63152	0.833
7.67139	0.834
7.71126	0.836
7.75113	0.839
7.79099	0.843
7.83086	0.843
7.87073	0.843
7.91059	0.843
7.95046	0.843
7.99033	0.843
8.03019	0.841
8.07006	0.843
8.10993	0.836
8.1498	0.792
8.18966	0.604
8.22953	0.38
8.2694	0.362
8.30926	0.647
8.34913	0.742
8.389	0.782
8.42887	0.804
8.46873	0.823
8.5086	0.824
8.54847	0.826
8.58833	0.826
8.6282	0.826
8.66807	0.823
8.70794	0.801
8.7478	0.799
8.78767	0.823
8.82754	0.834
8.8674	0.834
8.90727	0.836
8.94714	0.836
8.987	0.836
9.02687	0.838
9.06674	0.841
9.10661	0.841
9.14647	0.843
9.18634	0.843
9.22621	0.843
9.26607	0.841
9.30594	0.841
9.34581	0.843
9.38568	0.841
9.42554	0.843
9.46541	0.843
9.50528	0.836
9.54514	0.736
9.58501	0.595
9.62488	0.517
9.66475	0.474
9.70461	0.649
9.74448	0.726
9.78435	0.736
9.82421	0.747
9.86408	0.767
9.90395	0.769
9.94381	0.751
9.98368	0.752
10.0235	0.782
10.0634	0.801
10.1033	0.811
10.1432	0.819
10.183	0.816
10.2229	0.808
10.2628	0.806
10.3026	0.811
10.3425	0.808
10.3824	0.789
10.4222	0.794
10.4621	0.813
10.502	0.834
10.5418	0.838
10.5817	0.841
10.6216	0.841
10.6614	0.841
10.7013	0.841
10.7412	0.843
10.781	0.843
10.8209	0.846
10.8608	0.846
10.9006	0.848
10.9405	0.849
10.9804	0.853
11.0202	0.853
11.0601	0.853
11.1	0.853
11.1398	0.853
11.1797	0.853
11.2196	0.853
11.2594	0.853
11.2993	0.853
11.3392	0.854
11.379	0.854
11.4189	0.853
11.4588	0.844
11.4986	0.823
11.5385	0.771
11.5784	0.767
11.6182	0.801
11.6581	0.808
11.698	0.806
11.7378	0.774
11.7777	0.719
11.8176	0.686
11.8574	0.687
11.8973	0.729
11.9372	0.774
11.977	0.794
12.0169	0.811
12.0568	0.818
12.0966	0.819
12.1365	0.811
12.1764	0.796
12.2162	0.803
12.2561	0.823
12.296	0.841
12.3358	0.844
12.3757	0.846
12.4156	0.848
12.4554	0.848
12.4953	0.848
12.5352	0.848
12.575	0.848
12.6149	0.849
12.6548	0.848
12.6946	0.848
12.7345	0.848
12.7744	0.846
12.8142	0.844
12.8541	0.844
12.894	0.844
12.9338	0.844
12.9737	0.846
13.0136	0.846
13.0534	0.846
13.0933	0.846
13.1332	0.844
13.173	0.844
13.2129	0.844
13.2528	0.844
13.2926	0.843
13.3325	0.839
13.3724	0.839
13.4123	0.838
13.4521	0.836
13.492	0.833
13.5319	0.829
13.5717	0.826
13.6116	0.823
13.6515	0.823
13.6913	0.816
13.7312	0.811
13.7711	0.808
13.8109	0.806
13.8508	0.804
13.8907	0.803
13.9305	0.801
13.9704	0.803
14.0103	0.803
14.0501	0.801
14.09	0.799
14.1299	0.797
14.1697	0.794
14.2096	0.791
14.2495	0.786
14.2893	0.782
14.3292	0.779
14.3691	0.777
14.4089	0.777
14.4488	0.771
14.4887	0.767
14.5285	0.766
14.5684	0.762
14.6083	0.761
14.6481	0.756
14.688	0.752
14.7279	0.751
14.7677	0.746
14.8076	0.742
14.8475	0.741
14.8873	0.736
14.9272	0.731
14.9671	0.731
15.0069	0.731
15.0468	0.729
15.0867	0.724
15.1265	0.711
15.1664	0.702
15.2063	0.697
15.2461	0.692
15.286	0.689
15.3259	0.684
15.3657	0.681
15.4056	0.671
15.4455	0.669
15.4853	0.667
15.5252	0.667
15.5651	0.667
15.6049	0.667
15.6448	0.667
15.6847	0.667
15.7245	0.667
15.7644	0.667
15.8043	0.667
15.8441	0.669
15.884	0.669
15.9239	0.671
15.9637	0.671
16.0036	0.671
