Infrared Spectrum: PHOSPHONIC ACID, DI-2-ETHYL HEXYL ESTER
Formula: C16 H35 O3 P
CAS: 3658-48-8
State: LIQUID
Class: COBLENTZ
Instrument: PERKIN-ELMER
Sampling: TRANSMISSION
Path length: 0.0024 CM
Resolution: 4
Origin: STANDARD OIL OF OHIO
MICROMETERS	TRANSMITTANCE
2.054	0.972
2.08787	0.972
2.12175	0.972
2.15562	0.971
2.18949	0.969
2.22337	0.962
2.25724	0.931
2.29111	0.908
2.32498	0.908
2.35886	0.918
2.39273	0.921
2.4266	0.925
2.46048	0.93
2.49435	0.938
2.52822	0.945
2.5621	0.95
2.59597	0.952
2.62984	0.955
2.66372	0.959
2.69759	0.96
2.73146	0.96
2.76534	0.957
2.79921	0.945
2.83308	0.885
2.86695	0.773
2.90083	0.807
2.9347	0.855
2.96857	0.904
3.00245	0.925
3.03632	0.931
3.07019	0.928
3.10407	0.913
3.13794	0.904
3.17181	0.896
3.20569	0.873
3.23956	0.838
3.27343	0.771
3.3073	0.531
3.34118	0.057
3.37505	0.011
3.40892	0.013
3.4428	0.039
3.47667	0.148
3.51054	0.47
3.54442	0.686
3.57829	0.759
3.61216	0.788
3.64604	0.79
3.67991	0.819
3.71378	0.839
3.74765	0.846
3.78153	0.863
3.8154	0.877
3.84927	0.882
3.88315	0.894
3.91702	0.904
3.95089	0.909
3.98477	0.906
4.01864	0.89
4.05251	0.805
4.08639	0.686
4.12026	0.591
4.15413	0.649
4.18801	0.724
4.22188	0.787
4.25575	0.848
4.28962	0.889
4.3235	0.908
4.35737	0.918
4.39124	0.919
4.42512	0.923
4.45899	0.928
4.49286	0.933
4.52674	0.938
4.56061	0.94
4.59448	0.94
4.62836	0.938
4.66223	0.938
4.6961	0.94
4.72997	0.943
4.76385	0.943
4.79772	0.943
4.83159	0.943
4.86547	0.945
4.89934	0.945
4.93321	0.948
4.96709	0.952
5.00096	0.952
5.03483	0.95
5.06871	0.947
5.10258	0.942
5.13645	0.935
5.17032	0.93
5.2042	0.928
5.23807	0.928
5.27194	0.923
5.30582	0.921
5.33969	0.923
5.37356	0.921
5.40744	0.918
5.44131	0.918
5.47518	0.918
5.50906	0.921
5.54293	0.923
5.5768	0.925
5.61068	0.926
5.64455	0.925
5.67842	0.925
5.71229	0.923
5.74617	0.923
5.78004	0.928
5.81391	0.93
5.84779	0.931
5.88166	0.931
5.91553	0.931
5.94941	0.93
5.98328	0.926
6.01715	0.926
6.05103	0.926
6.0849	0.921
6.11877	0.919
6.15264	0.918
6.18652	0.918
6.22039	0.918
6.25426	0.916
6.28814	0.914
6.32201	0.914
6.35588	0.911
6.38976	0.904
6.42363	0.901
6.4575	0.851
6.49138	0.827
6.52525	0.812
6.55912	0.814
6.59299	0.831
6.62687	0.833
6.66074	0.807
6.69461	0.768
6.72849	0.565
6.76236	0.32
6.79623	0.12
6.83011	0.112
6.86398	0.204
6.89785	0.395
6.93173	0.596
6.9656	0.718
6.99947	0.771
7.03335	0.788
7.06722	0.793
7.10109	0.776
7.13496	0.725
7.16884	0.603
7.20271	0.453
7.23658	0.373
7.27046	0.58
7.30433	0.713
7.3382	0.735
7.37208	0.752
7.40595	0.751
7.43982	0.739
7.4737	0.741
7.50757	0.752
7.54144	0.739
7.57531	0.7
7.60919	0.649
7.64306	0.606
7.67693	0.536
7.71081	0.442
7.74468	0.269
7.77855	0.137
7.81243	0.051
7.8463	0.02
7.88017	0.011
7.91405	0.01
7.94792	0.015
7.98179	0.032
8.01566	0.103
8.04954	0.192
8.08341	0.301
8.11728	0.434
8.15116	0.514
8.18503	0.56
8.2189	0.597
8.25278	0.625
8.28665	0.649
8.32052	0.686
8.3544	0.722
8.38827	0.742
8.42214	0.754
8.45602	0.758
8.48989	0.756
8.52376	0.734
8.55763	0.681
8.59151	0.611
8.62538	0.568
8.65925	0.543
8.69313	0.54
8.727	0.55
8.76087	0.58
8.79475	0.603
8.82862	0.609
8.86249	0.601
8.89637	0.567
8.93024	0.517
8.96411	0.475
8.99798	0.483
9.03186	0.521
9.06573	0.516
9.0996	0.47
9.13348	0.349
9.16735	0.247
9.20122	0.129
9.2351	0.105
9.26897	0.09
9.30284	0.083
9.33672	0.081
9.37059	0.08
9.40446	0.081
9.43834	0.078
9.47221	0.069
9.50608	0.049
9.53995	0.037
9.57383	0.03
9.6077	0.027
9.64157	0.028
9.67545	0.039
9.70932	0.056
9.74319	0.068
9.77707	0.076
9.81094	0.076
9.84481	0.069
9.87869	0.059
9.91256	0.044
9.94643	0.028
9.9803	0.015
10.0142	0.008
10.0481	0.006
10.0819	0.005
10.1158	0.001
10.1497	0.001
10.1835	0.003
10.2174	0.001
10.2513	0.001
10.2852	0.001
10.319	0.001
10.3529	0.001
10.3868	0.003
10.4207	0.003
10.4545	0.008
10.4884	0.013
10.5223	0.102
10.5561	0.165
10.59	0.262
10.6239	0.321
10.6578	0.357
10.6916	0.388
10.7255	0.42
10.7594	0.458
10.7933	0.505
10.8271	0.538
10.861	0.56
10.8949	0.574
10.9288	0.589
10.9626	0.599
10.9965	0.603
11.0304	0.608
11.0642	0.62
11.0981	0.64
11.132	0.645
11.1659	0.643
11.1997	0.649
11.2336	0.667
11.2675	0.676
11.3014	0.664
11.3352	0.638
11.3691	0.603
11.403	0.582
11.4368	0.565
11.4707	0.557
11.5046	0.548
11.5385	0.54
11.5723	0.538
11.6062	0.543
11.6401	0.551
11.674	0.563
11.7078	0.575
11.7417	0.586
11.7756	0.597
11.8095	0.604
11.8433	0.611
11.8772	0.62
11.9111	0.626
11.9449	0.632
11.9788	0.637
12.0127	0.64
12.0466	0.643
12.0804	0.649
12.1143	0.65
12.1482	0.649
12.1821	0.642
12.2159	0.635
12.2498	0.63
12.2837	0.621
12.3175	0.616
12.3514	0.613
12.3853	0.609
12.4192	0.606
12.453	0.604
12.4869	0.604
12.5208	0.604
12.5547	0.604
12.5885	0.604
12.6224	0.603
12.6563	0.594
12.6902	0.579
12.724	0.567
12.7579	0.56
12.7918	0.557
12.8256	0.555
12.8595	0.553
12.8934	0.551
12.9273	0.553
12.9611	0.557
12.995	0.558
13.0289	0.568
13.0628	0.589
13.0966	0.618
13.1305	0.655
13.1644	0.701
13.1982	0.724
13.2321	0.758
13.266	0.775
13.2999	0.787
13.3337	0.788
13.3676	0.788
13.4015	0.785
13.4354	0.778
13.4692	0.771
13.5031	0.761
13.537	0.754
13.5709	0.742
13.6047	0.727
13.6386	0.703
13.6725	0.671
13.7063	0.643
13.7402	0.623
13.7741	0.64
13.808	0.678
13.8418	0.718
13.8757	0.744
13.9096	0.771
13.9435	0.792
13.9773	0.807
14.0112	0.817
14.0451	0.824
14.0789	0.831
14.1128	0.838
14.1467	0.839
14.1806	0.841
14.2144	0.846
14.2483	0.846
14.2822	0.846
14.3161	0.846
14.3499	0.848
14.3838	0.848
14.4177	0.844
14.4516	0.843
14.4854	0.841
14.5193	0.839
14.5532	0.838
14.587	0.834
14.6209	0.831
14.6548	0.827
14.6887	0.824
14.7225	0.819
14.7564	0.819
14.7903	0.817
14.8242	0.817
14.858	0.817
14.8919	0.817
14.9258	0.817
14.9596	0.814
14.9935	0.812
15.0274	0.812
15.0613	0.81
15.0951	0.807
15.129	0.804
15.1629	0.802
15.1968	0.8
15.2306	0.798
15.2645	0.797
15.2984	0.797
15.3323	0.792
15.3661	0.787
15.4	0.785
