Infrared Spectrum: HEXADECANOL
Formula: C16 H34 O
CAS: 36653-82-4
State: SOLID (0.89% IN KBr DISC)
Melting point: 49 C
Boiling point: 344 C
Class: COBLENTZ III
Instrument: PERKIN-ELMER 421 (GRATING)
Sampling: TRANSMISSION
Path length: 0.030 CM
Resolution: 4
Origin: US INDUSTRIAL CHEMICALS COMPANY, CINCINNATI, OHIO
1/CM	TRANSMITTANCE
603.571	0.943
612.142	0.938
620.714	0.937
629.285	0.936
637.857	0.934
646.428	0.921
655	0.907
663.571	0.894
672.143	0.869
680.714	0.862
689.285	0.869
697.857	0.879
706.428	0.863
715	0.7641
723.571	0.6599
732.143	0.599
740.714	0.897
749.286	0.953
757.857	0.958
766.428	0.953
775	0.948
783.571	0.943
792.143	0.934
800.714	0.921
809.286	0.906
817.857	0.894
826.429	0.901
835	0.911
843.571	0.907
852.143	0.919
860.714	0.919
869.286	0.913
877.857	0.884
886.429	0.867
895	0.903
903.572	0.919
912.143	0.896
920.714	0.8519
929.286	0.917
937.857	0.911
946.429	0.803
955	0.86
963.572	0.853
972.143	0.8429
980.715	0.788
989.286	0.741
997.857	0.744
1006.43	0.725
1015	0.698
1023.57	0.6221
1032.14	0.669
1040.71	0.534
1049.29	0.657
1057.86	0.458
1066.43	0.21
1075	0.414
1083.57	0.738
1092.14	0.838
1100.71	0.835
1109.29	0.856
1117.86	0.832
1126.43	0.666
1135	0.85
1143.57	0.882
1152.14	0.884
1160.71	0.88
1169.29	0.879
1177.86	0.882
1186.43	0.866
1195	0.872
1203.57	0.876
1212.14	0.842
1220.71	0.876
1229.29	0.849
1237.86	0.856
1246.43	0.862
1255	0.848
1263.57	0.86
1272.14	0.845
1280.72	0.828
1289.29	0.826
1297.86	0.786
1306.43	0.818
1315	0.772
1323.57	0.802
1332.14	0.748
1340.72	0.764
1349.29	0.704
1357.86	0.717
1366.43	0.724
1375	0.703
1383.57	0.747
1392.14	0.774
1400.72	0.715
1409.29	0.677
1417.86	0.711
1426.43	0.742
1435	0.742
1443.57	0.725
1452.14	0.657
1460.72	0.4
1469.29	0.308
1477.86	0.325
1486.43	0.609
1495	0.802
1503.57	0.838
1512.14	0.838
1520.72	0.86
1529.29	0.867
1537.86	0.876
1546.43	0.877
1555	0.887
1563.57	0.889
1572.14	0.89
1580.72	0.893
1589.29	0.89
1597.86	0.889
1606.43	0.884
1615	0.882
1623.57	0.873
1632.14	0.877
1640.72	0.877
1649.29	0.883
1657.86	0.887
1666.43	0.896
1675	0.904
1683.57	0.906
1692.14	0.913
1700.72	0.916
1709.29	0.916
1717.86	0.914
1726.43	0.92
1735	0.914
1743.57	0.919
1752.14	0.917
1760.72	0.926
1769.29	0.927
1777.86	0.927
1786.43	0.927
1795	0.928
1803.57	0.928
1812.14	0.93
1820.72	0.933
1829.29	0.931
1837.86	0.933
1846.43	0.931
1855	0.934
1863.57	0.934
1872.14	0.93
1880.72	0.93
1889.29	0.928
1897.86	0.924
1906.43	0.928
1915	0.934
1923.57	0.933
1932.14	0.934
1940.72	0.934
1949.29	0.934
1957.86	0.933
1966.43	0.933
1975	0.936
1983.57	0.936
1992.14	0.933
2000.72	0.9425
2009.29	0.907
2017.86	0.9023
2026.43	0.8977
2035	0.907
2043.57	0.9086
2052.15	0.9102
2060.72	0.913
2069.29	0.914
2077.86	0.9156
2086.43	0.9162
2095	0.917
2103.57	0.919
2112.15	0.919
2120.72	0.919
2129.29	0.919
2137.86	0.919
2146.43	0.919
2155	0.9192
2163.57	0.9208
2172.15	0.919
2180.72	0.919
2189.29	0.919
2197.86	0.9201
2206.43	0.921
2215	0.92
2223.57	0.9191
2232.15	0.92
2240.72	0.9188
2249.29	0.9169
2257.86	0.917
2266.43	0.916
2275	0.9158
2283.57	0.9131
2292.15	0.9139
2300.72	0.9099
2309.29	0.907
2317.86	0.907
2326.43	0.9072
2335	0.91
2343.57	0.91
2352.15	0.911
2360.72	0.911
2369.29	0.911
2377.86	0.911
2386.43	0.911
2395	0.909
2403.57	0.909
2412.15	0.909
2420.72	0.91
2429.29	0.911
2437.86	0.911
2446.43	0.909
2455	0.909
2463.57	0.906
2472.15	0.899
2480.72	0.892
2489.29	0.8921
2497.86	0.897
2506.43	0.892
2515	0.89
2523.57	0.886
2532.15	0.886
2540.72	0.89
2549.29	0.8861
2557.86	0.879
2566.43	0.88
2575	0.8791
2583.57	0.8701
2592.15	0.8701
2600.72	0.8591
2609.29	0.8551
2617.86	0.8481
2626.43	0.8304
2635	0.826
2643.57	0.825
2652.15	0.8232
2660.72	0.8181
2669.29	0.818
2677.86	0.819
2686.43	0.825
2695	0.8212
2703.57	0.8112
2712.15	0.7986
2720.72	0.7787
2729.29	0.7654
2737.86	0.7623
2746.43	0.759
2755	0.7571
2763.57	0.7503
2772.15	0.7403
2780.72	0.724
2789.29	0.7046
2797.86	0.6779
2806.43	0.6436
2815	0.5796
2823.58	0.5167
2832.15	0.4046
2840.72	0.2282
2849.29	0.0688
2857.86	0.0218
2866.43	0.094
2875	0.1526
2883.58	0.13
2892.15	0.0826
2900.72	0.0585
2909.29	0.0277
2917.86	0.0194
2926.43	0.0188
2935	0.0251
2943.58	0.0545
2952.15	0.198
2960.72	0.1173
2969.29	0.1766
2977.86	0.4504
2986.43	0.6103
2995	0.6667
3003.58	0.7037
3012.15	0.7107
3020.72	0.7162
3029.29	0.7207
3037.86	0.7237
3046.43	0.724
3055	0.724
3063.58	0.7216
3072.15	0.7136
3080.72	0.7079
3089.29	0.7016
3097.86	0.6939
3106.43	0.6826
3115	0.6652
3123.58	0.6452
3132.15	0.6202
3140.72	0.5943
3149.29	0.5606
3157.86	0.5387
3166.43	0.4961
3175	0.4604
3183.58	0.4235
3192.15	0.3978
3200.72	0.3606
3209.29	0.3259
3217.86	0.3016
3226.43	0.2779
3235	0.2596
3243.58	0.2481
3252.15	0.2282
3260.72	0.2199
3269.29	0.2092
3277.86	0.2018
3286.43	0.1982
3295	0.1948
3303.58	0.1952
3312.15	0.2018
3320.72	0.2109
3329.29	0.2206
3337.86	0.2412
3346.43	0.2772
3355	0.3056
3363.58	0.3463
3372.15	0.386
3380.72	0.4342
3389.29	0.4629
3397.86	0.4904
3406.43	0.5245
3415	0.5553
3423.58	0.5854
3432.15	0.6084
3440.72	0.6332
3449.29	0.6557
3457.86	0.6736
3466.43	0.7002
3475	0.7186
3483.58	0.736
3492.15	0.7555
3500.72	0.7735
3509.29	0.785
3517.86	0.7965
3526.43	0.8075
3535	0.8194
3543.58	0.8328
3552.15	0.8434
3560.72	0.856
3569.29	0.8614
3577.86	0.8704
3586.43	0.876
3595	0.877
3603.58	0.8829
3612.15	0.8934
3620.72	0.9043
3629.29	0.9094
3637.86	0.9143
3646.43	0.919
3655.01	0.9204
3663.58	0.926
3672.15	0.928
3680.72	0.93
3689.29	0.931
3697.86	0.933
3706.43	0.934
3715.01	0.934
3723.58	0.934
3732.15	0.934
3740.72	0.931
3749.29	0.931
3757.86	0.931
3766.43	0.9329
3775.01	0.931
3783.58	0.9293
3792.15	0.928
3800.72	0.9317
3809.29	0.93
3817.86	0.93
3826.43	0.929
3835.01	0.931
3843.58	0.928
3852.15	0.9277
3860.72	0.9277
3869.29	0.928
3877.86	0.928
3886.43	0.93
3895.01	0.9316
3903.58	0.931
3912.15	0.9307
3920.72	0.93
3929.29	0.93
3937.86	0.93
3946.43	0.933
3955.01	0.933
3963.58	0.933
3972.15	0.93
3980.72	0.931
3989.29	0.9307
3997.86	0.931
