Infrared Spectrum: o-DIFLUOROBENZENE
Formula: C6 H4 F2
CAS: 367-11-3
State: SOLUTION (10% CCl4 FOR 3800-1330, 10% CS2 FOR 1330-400 CM^-^1) VS SOLVENT
Class: COBLENTZ III
Instrument: DOW KBr FOREPRISM-GRATING
Instrument parameters: BLAZED AT 3.5, 12.0, 20.0 MICRON AND CHANGED AT 5.0, 7.5, 14.9 MICRON
Path length: 0.011 CM, 0.011 CM
Resolution: 2
Origin: DOW CHEMICAL COMPANY
1/CM	TRANSMITTANCE
386	0.79
395	0.7871
404	0.7823
413	0.7731
422	0.7623
431	0.7462
440	0.705
449	0.5973
458	0.7158
467	0.7444
476	0.7417
485	0.7323
494	0.7231
503	0.7193
512	0.7187
521	0.7204
530	0.7169
539	0.6847
548	0.3824
557	0.6474
566	0.4506
575	0.6963
584	0.7061
593	0.7148
602	0.7392
611	0.7408
620	0.742
629	0.7413
638	0.7385
647	0.7349
656	0.7334
665	0.7366
674	0.7222
683	0.7197
692	0.7163
701	0.7086
710	0.6986
719	0.6806
728	0.5997
737	0.4115
746	0.1193
755	0.0286
764	0.019
773	0.5522
782	0.6806
791	0.7072
800	0.717
809	0.7199
818	0.7181
827	0.6861
836	0.5925
845	0.4604
854	0.2964
863	0.5815
872	0.7382
881	0.7488
890	0.742
899	0.7276
908	0.7264
917	0.7192
926	0.3009
935	0.7043
944	0.7277
953	0.732
962	0.7348
971	0.7327
980	0.7337
989	0.7355
998	0.728
1007	0.7176
1016	0.5992
1025	0.4543
1034	0.6848
1043	0.7338
1052	0.7359
1061	0.7351
1070	0.7275
1079	0.7281
1088	0.6931
1097	0.5036
1106	0.5276
1115	0.6692
1124	0.7145
1133	0.7139
1142	0.6751
1151	0.6189
1160	0.7017
1169	0.6983
1178	0.6634
1187	0.5045
1196	0.1402
1205	0.1554
1214	0.4716
1223	0.6331
1232	0.6594
1241	0.6354
1250	0.5225
1259	0.386
1268	0.0057
1277	0.0497
1286	0.3878
1295	0.342
1304	0.6621
1313	0.6865
1322	0.7126
1331	0.7265
1340	0.7364
1349	0.7445
1358	0.7491
1367	0.7522
1376	0.7501
1385	0.7404
1394	0.7216
1403	0.6053
1412	0.7193
1421	0.7202
1430	0.7389
1439	0.7366
1448	0.704
1457	0.3238
1466	0.4427
1475	0.6545
1484	0.6311
1493	0.5313
1502	0.1442
1511	0.0165
1520	0.1091
1529	0.2977
1538	0.699
1547	0.7182
1556	0.69
1565	0.7175
1574	0.6545
1583	0.5862
1592	0.4972
1601	0.5038
1610	0.4068
1619	0.1159
1628	0.6588
1637	0.7294
1646	0.7342
1655	0.7641
1664	0.769
1673	0.7667
1682	0.7755
1691	0.756
1700	0.7662
1709	0.7719
1718	0.7738
1727	0.7762
1736	0.7771
1745	0.7767
1754	0.7735
1763	0.7205
1772	0.7083
1781	0.7763
1790	0.784
1799	0.7773
1808	0.7758
1817	0.7872
1826	0.7907
1835	0.784
1844	0.79
1853	0.7765
1862	0.7859
1871	0.7945
1880	0.7878
1889	0.7593
1898	0.7057
1907	0.7853
1916	0.7917
1925	0.786
1934	0.7587
1943	0.7695
1952	0.7925
1961	0.7952
1970	0.805
1979	0.8076
1988	0.8117
1997	0.809
2006	0.8031
2015	0.7946
2024	0.7749
2033	0.7485
2042	0.7715
2051	0.7913
2060	0.7922
2069	0.7924
2078	0.8019
2087	0.808
2096	0.806
2105	0.8032
2114	0.7998
2123	0.7965
2132	0.7944
2141	0.8039
2150	0.8046
2159	0.8041
2168	0.8029
2177	0.8014
2186	0.7996
2195	0.8031
2204	0.8033
2213	0.8028
2222	0.8019
2231	0.7997
2240	0.7973
2249	0.7953
2258	0.7896
2267	0.7805
2276	0.7645
2285	0.7863
2294	0.789
2303	0.7905
2312	0.7961
2321	0.8039
2330	0.799
2339	0.8063
2348	0.8025
2357	0.8025
2366	0.8032
2375	0.8011
2384	0.7893
2393	0.7893
2402	0.7896
2411	0.7902
2420	0.7904
2429	0.7901
2438	0.7895
2447	0.779
2456	0.769
2465	0.7622
2474	0.7622
2483	0.7763
2492	0.7954
2501	0.7971
2510	0.7985
2519	0.793
2528	0.7764
2537	0.7731
2546	0.7829
2555	0.7927
2564	0.7975
2573	0.7967
2582	0.7886
2591	0.7672
2600	0.7728
2609	0.7913
2618	0.8025
2627	0.8098
2636	0.8159
2645	0.8152
2654	0.8152
2663	0.8146
2672	0.8143
2681	0.8153
2690	0.8164
2699	0.8172
2708	0.8179
2717	0.8184
2726	0.819
2735	0.8195
2744	0.8197
2753	0.82
2762	0.8168
2771	0.8097
2780	0.819
2789	0.8228
2798	0.8223
2807	0.8217
2816	0.8259
2825	0.8251
2834	0.8257
2843	0.8269
2852	0.8275
2861	0.8277
2870	0.828
2879	0.827
2888	0.8257
2897	0.8242
2906	0.8223
2915	0.8245
2924	0.8295
2933	0.8307
2942	0.8311
2951	0.8317
2960	0.8324
2969	0.8331
2978	0.8342
2987	0.8333
2996	0.8313
3005	0.826
3014	0.8182
3023	0.809
3032	0.7984
3041	0.7773
3050	0.7341
3059	0.7217
3068	0.7189
3077	0.7128
3086	0.7656
3095	0.8045
3104	0.8304
3113	0.8306
3122	0.83
3131	0.8331
3140	0.836
3149	0.8382
3158	0.8402
3167	0.8425
3176	0.8436
3185	0.8459
3194	0.8464
3203	0.847
3212	0.8477
3221	0.8484
3230	0.849
3239	0.8492
3248	0.8491
3257	0.849
3266	0.8488
3275	0.8486
3284	0.8484
3293	0.8485
3302	0.8493
3311	0.85
3320	0.8507
3329	0.8515
3338	0.8524
3347	0.8533
3356	0.8542
3365	0.8547
3374	0.8552
3383	0.8548
3392	0.8537
3401	0.8529
3410	0.8532
3419	0.8534
3428	0.8537
3437	0.8547
3446	0.8556
3455	0.8566
3464	0.857
3473	0.8556
3482	0.8561
3491	0.8576
3500	0.8593
3509	0.8611
3518	0.8628
3527	0.864
3536	0.8653
3545	0.8666
3554	0.8682
3563	0.8696
3572	0.8712
3581	0.8729
3590	0.8744
3599	0.8757
3608	0.8765
3617	0.8744
3626	0.8722
3635	0.8721
3644	0.875
3653	0.8787
3662	0.8834
3671	0.8807
3680	0.885
3689	0.884
3698	0.883
3707	0.8844
3716	0.8892
3725	0.8921
3734	0.8907
3743	0.8871
3752	0.885
3761	0.8848
3770	0.8867
3779	0.889
3788	0.8879
