Infrared Spectrum: 2,3,5-TRIMETHYL-PHENANTHRENE
Formula: C17 H16
CAS: 3674-73-5
State: SOLUTION (103 g/L IN HEPTANE)
Class: COBLENTZ
Instrument: Not specified, most likely a prism, grating, or hybrid spectrometer.
Sampling: TRANSMISSION
Path length: 0.05 CM
Resolution: 4
Origin: CENTRE D'ETUDES NUCLEAIRES DE GRENOBLE
MICROMETERS	TRANSMITTANCE
14.917	0.961
14.9728	0.958
15.0287	0.958
15.0845	0.956
15.1404	0.954
15.1962	0.954
15.2521	0.954
15.3079	0.956
15.3638	0.958
15.4196	0.961
15.4755	0.961
15.5313	0.961
15.5872	0.959
15.643	0.953
15.6989	0.926
15.7547	0.875
15.8106	0.842
15.8664	0.838
15.9223	0.86
15.9781	0.887
16.034	0.902
16.0898	0.899
16.1457	0.889
16.2015	0.88
16.2574	0.882
16.3132	0.895
16.3691	0.902
16.4249	0.929
16.4808	0.942
16.5366	0.949
16.5925	0.954
16.6483	0.953
16.7042	0.949
16.76	0.956
16.8159	0.954
16.8717	0.951
16.9276	0.941
16.9834	0.931
17.0393	0.922
17.0951	0.922
17.151	0.941
17.2068	0.951
17.2627	0.969
17.3185	0.979
17.3744	0.993
17.4302	1.001
17.4861	1.013
17.5419	1.023
17.5978	1.03
17.6536	1.03
17.7095	1.021
17.7653	1.01
17.8212	1.003
17.877	0.993
17.9329	0.986
17.9887	0.976
18.0446	0.956
18.1004	0.942
18.1563	0.924
18.2121	0.895
18.268	0.875
18.3238	0.86
18.3797	0.85
18.4355	0.855
18.4914	0.859
18.5472	0.855
18.6031	0.85
18.6589	0.835
18.7148	0.828
18.7706	0.795
18.8265	0.763
18.8823	0.736
18.9382	0.729
18.994	0.739
19.0499	0.775
19.1057	0.828
19.1616	0.862
19.2174	0.884
19.2733	0.895
19.3291	0.906
19.3849	0.909
19.4408	0.914
19.4966	0.917
19.5525	0.919
19.6083	0.922
19.6642	0.926
19.72	0.926
19.7759	0.926
19.8317	0.926
19.8876	0.926
19.9434	0.931
19.9993	0.929
20.0551	0.931
20.111	0.932
20.1668	0.932
20.2227	0.931
20.2785	0.931
20.3344	0.934
20.3902	0.934
20.4461	0.931
20.5019	0.931
20.5578	0.929
20.6136	0.929
20.6695	0.926
20.7253	0.922
20.7812	0.914
20.837	0.902
20.8929	0.889
20.9487	0.874
21.0046	0.865
21.0604	0.859
21.1163	0.852
21.1721	0.848
21.228	0.855
21.2838	0.864
21.3397	0.875
21.3955	0.884
21.4514	0.892
21.5072	0.899
21.5631	0.902
21.6189	0.907
21.6748	0.914
21.7306	0.919
21.7865	0.921
21.8423	0.919
21.8982	0.917
21.954	0.919
22.0099	0.917
22.0657	0.917
22.1216	0.917
22.1774	0.919
22.2333	0.917
22.2891	0.916
22.345	0.912
22.4008	0.909
22.4567	0.906
22.5125	0.901
22.5684	0.895
22.6242	0.889
22.6801	0.88
22.7359	0.867
22.7918	0.862
22.8476	0.847
22.9035	0.837
22.9593	0.822
23.0152	0.803
23.071	0.785
23.1269	0.76
23.1827	0.731
23.2386	0.682
23.2944	0.627
23.3503	0.609
23.4061	0.58
23.462	0.557
23.5178	0.552
23.5737	0.552
23.6295	0.567
23.6853	0.585
23.7412	0.622
23.797	0.656
23.8529	0.699
23.9087	0.728
23.9646	0.753
24.0204	0.793
24.0763	0.81
24.1321	0.83
24.188	0.845
24.2438	0.869
24.2997	0.88
24.3555	0.884
24.4114	0.889
24.4672	0.892
24.5231	0.894
24.5789	0.895
24.6348	0.897
24.6906	0.897
24.7465	0.899
24.8023	0.901
24.8582	0.901
24.914	0.902
24.9699	0.902
25.0257	0.902
25.0816	0.902
25.1374	0.899
25.1933	0.899
25.2491	0.899
25.305	0.897
25.3608	0.895
25.4167	0.895
25.4725	0.895
25.5284	0.894
25.5842	0.892
25.6401	0.892
25.6959	0.892
25.7518	0.894
25.8076	0.895
25.8635	0.895
25.9193	0.892
25.9752	0.89
26.031	0.892
26.0869	0.894
26.1427	0.895
26.1986	0.895
26.2544	0.889
26.3103	0.889
26.3661	0.894
26.422	0.894
26.4778	0.894
26.5337	0.894
26.5895	0.895
26.6454	0.901
26.7012	0.904
26.7571	0.907
26.8129	0.909
26.8688	0.911
26.9246	0.911
26.9805	0.909
27.0363	0.906
27.0922	0.906
27.148	0.907
27.2039	0.909
27.2597	0.912
27.3156	0.912
27.3714	0.912
27.4273	0.917
27.4831	0.917
27.539	0.916
27.5948	0.912
27.6507	0.916
27.7065	0.914
27.7624	0.911
27.8182	0.914
27.8741	0.911
27.9299	0.909
27.9858	0.906
28.0416	0.895
28.0974	0.899
28.1533	0.902
28.2091	0.906
28.265	0.895
28.3208	0.892
28.3767	0.894
28.4325	0.899
28.4884	0.902
28.5442	0.897
28.6001	0.894
28.6559	0.892
28.7118	0.889
28.7676	0.889
28.8235	0.885
28.8793	0.875
28.9352	0.864
28.991	0.865
29.0469	0.865
29.1027	0.859
29.1586	0.85
29.2144	0.848
29.2703	0.845
29.3261	0.84
29.382	0.838
29.4378	0.833
29.4937	0.827
29.5495	0.823
29.6054	0.823
29.6612	0.822
29.7171	0.82
29.7729	0.817
29.8288	0.823
29.8846	0.827
29.9405	0.825
29.9963	0.825
30.0522	0.825
30.108	0.823
30.1639	0.823
30.2197	0.823
30.2756	0.82
30.3314	0.815
30.3873	0.82
30.4431	0.82
30.499	0.817
30.5548	0.818
30.6107	0.815
30.6665	0.82
30.7224	0.82
30.7782	0.818
30.8341	0.818
30.8899	0.818
30.9458	0.815
31.0016	0.808
31.0575	0.802
31.1133	0.802
31.1692	0.798
31.225	0.802
31.2809	0.803
31.3367	0.8
31.3926	0.8
31.4484	0.8
31.5043	0.798
31.5601	0.795
31.616	0.795
31.6718	0.788
31.7277	0.788
31.7835	0.788
31.8394	0.788
31.8952	0.78
31.9511	0.786
32.0069	0.791
32.0628	0.791
32.1186	0.8
32.1745	0.803
32.2303	0.805
32.2862	0.808
32.342	0.812
32.3978	0.817
32.4537	0.82
32.5095	0.823
32.5654	0.827
32.6212	0.83
32.6771	0.837
32.7329	0.84
32.7888	0.835
32.8446	0.835
32.9005	0.84
32.9563	0.842
33.0122	0.845
33.068	0.843
33.1239	0.843
33.1797	0.84
33.2356	0.84
33.2914	0.843
33.3473	0.847
33.4031	0.845
33.459	0.842
33.5148	0.84
33.5707	0.837
33.6265	0.835
33.6824	0.838
33.7382	0.835
33.7941	0.828
33.8499	0.823
33.9058	0.817
33.9616	0.815
34.0175	0.813
34.0733	0.81
34.1292	0.81
34.185	0.807
34.2409	0.802
34.2967	0.8
34.3526	0.796
34.4084	0.781
34.4643	0.783
34.5201	0.785
34.576	0.765
34.6318	0.765
34.6877	0.766
34.7435	0.768
34.7994	0.766
34.8552	0.766
34.9111	0.77
34.9669	0.77
