Infrared Spectrum: 2,5-DIMETHYL-PHENANTHRENE
Formula: C16 H14
CAS: 3674-66-6
State: SOLUTION (50 g/L IN HEPTANE)
Class: COBLENTZ
Instrument: Not specified, most likely a prism, grating, or hybrid spectrometer.
Sampling: TRANSMISSION
Path length: 0.1 CM
Resolution: 4
Origin: CENTRE D'ETUDES NUCLEAIRES DE GRENOBLE
MICROMETERS	TRANSMITTANCE
15.075	0.932
15.1307	0.931
15.1865	0.931
15.2422	0.934
15.298	0.939
15.3537	0.939
15.4095	0.934
15.4652	0.932
15.521	0.937
15.5767	0.941
15.6325	0.942
15.6883	0.942
15.744	0.941
15.7997	0.937
15.8555	0.936
15.9112	0.932
15.967	0.927
16.0227	0.921
16.0785	0.895
16.1342	0.867
16.19	0.833
16.2458	0.81
16.3015	0.781
16.3573	0.765
16.413	0.76
16.4688	0.771
16.5245	0.82
16.5802	0.842
16.636	0.859
16.6917	0.875
16.7475	0.89
16.8032	0.895
16.859	0.902
16.9147	0.909
16.9705	0.911
17.0263	0.911
17.082	0.909
17.1378	0.906
17.1935	0.902
17.2492	0.899
17.305	0.895
17.3607	0.889
17.4165	0.872
17.4722	0.862
17.528	0.817
17.5837	0.795
17.6395	0.775
17.6953	0.77
17.751	0.788
17.8068	0.818
17.8625	0.845
17.9183	0.854
17.974	0.855
18.0297	0.855
18.0855	0.859
18.1412	0.86
18.197	0.865
18.2527	0.875
18.3085	0.884
18.3642	0.894
18.42	0.895
18.4757	0.895
18.5315	0.892
18.5873	0.884
18.643	0.869
18.6988	0.845
18.7545	0.8
18.8102	0.751
18.866	0.709
18.9217	0.686
18.9775	0.686
19.0332	0.708
19.089	0.721
19.1448	0.729
19.2005	0.738
19.2563	0.746
19.312	0.758
19.3678	0.773
19.4235	0.776
19.4793	0.766
19.535	0.748
19.5907	0.724
19.6465	0.697
19.7022	0.696
19.758	0.703
19.8137	0.721
19.8695	0.743
19.9252	0.773
19.981	0.798
20.0368	0.808
20.0925	0.82
20.1483	0.827
20.204	0.833
20.2598	0.84
20.3155	0.845
20.3712	0.852
20.427	0.855
20.4827	0.859
20.5385	0.864
20.5943	0.864
20.65	0.86
20.7058	0.857
20.7615	0.854
20.8173	0.85
20.873	0.848
20.9288	0.847
20.9845	0.84
21.0403	0.837
21.096	0.823
21.1517	0.817
21.2075	0.805
21.2632	0.798
21.319	0.788
21.3747	0.778
21.4305	0.768
21.4862	0.751
21.542	0.734
21.5978	0.716
21.6535	0.708
21.7093	0.706
21.765	0.713
21.8208	0.726
21.8765	0.734
21.9322	0.765
21.988	0.788
22.0437	0.813
22.0995	0.832
22.1553	0.848
22.211	0.862
22.2668	0.874
22.3225	0.885
22.3783	0.895
22.434	0.904
22.4898	0.907
22.5455	0.909
22.6013	0.909
22.657	0.909
22.7127	0.912
22.7685	0.914
22.8242	0.914
22.88	0.911
22.9357	0.906
22.9915	0.899
23.0473	0.887
23.103	0.879
23.1588	0.875
23.2145	0.874
23.2703	0.877
23.326	0.887
23.3818	0.897
23.4375	0.901
23.4933	0.902
23.549	0.901
23.6048	0.899
23.6605	0.894
23.7163	0.885
23.772	0.872
23.8278	0.848
23.8835	0.835
23.9393	0.807
23.995	0.773
24.0508	0.711
24.1065	0.681
24.1623	0.624
24.218	0.558
24.2737	0.515
24.3295	0.496
24.3852	0.468
24.441	0.471
24.4967	0.484
24.5525	0.555
24.6083	0.597
24.664	0.639
24.7198	0.696
24.7755	0.714
24.8313	0.781
24.887	0.8
24.9428	0.825
24.9985	0.842
25.0543	0.859
25.11	0.87
25.1658	0.88
25.2215	0.89
25.2773	0.897
25.333	0.907
25.3888	0.912
25.4445	0.914
25.5003	0.917
25.556	0.919
25.6118	0.921
25.6675	0.922
25.7233	0.927
25.779	0.931
25.8347	0.932
25.8905	0.932
25.9462	0.934
26.002	0.936
26.0577	0.937
26.1135	0.937
26.1693	0.941
26.225	0.941
26.2808	0.942
26.3365	0.944
26.3923	0.946
26.448	0.947
26.5038	0.949
26.5595	0.949
26.6153	0.949
26.671	0.949
26.7268	0.947
26.7825	0.947
26.8383	0.947
26.894	0.947
26.9498	0.951
27.0055	0.947
27.0613	0.947
27.117	0.946
27.1728	0.947
27.2285	0.951
27.2843	0.949
27.34	0.951
27.3957	0.953
27.4515	0.953
27.5072	0.953
27.563	0.953
27.6188	0.953
27.6745	0.954
27.7303	0.954
27.786	0.958
27.8418	0.959
27.8975	0.959
27.9533	0.958
28.009	0.958
28.0648	0.958
28.1205	0.958
28.1763	0.956
28.232	0.954
28.2878	0.951
28.3435	0.949
28.3993	0.947
28.455	0.946
28.5108	0.944
28.5665	0.941
28.6223	0.937
28.678	0.934
28.7338	0.929
28.7895	0.922
28.8453	0.917
28.901	0.912
28.9567	0.906
29.0125	0.901
29.0683	0.895
29.124	0.88
29.1798	0.869
29.2355	0.854
29.2913	0.842
29.347	0.803
29.4028	0.796
29.4585	0.781
29.5143	0.753
29.57	0.739
29.6258	0.711
29.6815	0.697
29.7373	0.687
29.793	0.672
29.8488	0.667
29.9045	0.667
29.9603	0.667
30.016	0.669
30.0718	0.671
30.1275	0.674
30.1833	0.681
30.239	0.686
30.2948	0.692
30.3505	0.699
30.4062	0.703
30.462	0.711
30.5177	0.724
30.5735	0.739
30.6293	0.744
30.685	0.75
30.7408	0.76
30.7965	0.766
30.8523	0.765
30.908	0.766
30.9638	0.771
31.0195	0.773
31.0753	0.778
31.131	0.78
31.1868	0.778
31.2425	0.776
31.2983	0.776
31.354	0.778
31.4098	0.778
31.4655	0.78
31.5213	0.783
31.577	0.78
31.6328	0.78
31.6885	0.78
31.7443	0.78
31.8	0.781
31.8558	0.768
31.9115	0.775
31.9673	0.781
32.023	0.78
32.0787	0.773
32.1345	0.768
32.1903	0.763
32.246	0.765
32.3017	0.761
32.3575	0.76
32.4133	0.76
32.469	0.761
32.5247	0.76
32.5805	0.758
32.6363	0.758
32.692	0.758
32.7478	0.758
32.8035	0.758
32.8593	0.756
32.915	0.755
32.9708	0.751
33.0265	0.751
33.0823	0.758
33.138	0.763
33.1938	0.761
33.2495	0.765
33.3053	0.766
33.361	0.765
33.4168	0.76
33.4725	0.763
33.5282	0.771
33.584	0.776
33.6398	0.78
33.6955	0.78
33.7512	0.785
33.807	0.795
33.8628	0.802
33.9185	0.798
33.9742	0.798
34.03	0.802
34.0858	0.808
34.1415	0.825
34.1973	0.825
34.253	0.827
34.3088	0.828
34.3645	0.835
34.4203	0.84
34.476	0.842
34.5318	0.84
34.5875	0.84
34.6433	0.843
34.699	0.857
34.7548	0.859
34.8105	0.857
34.8663	0.857
34.922	0.857
34.9778	0.862
