Infrared Spectrum: 9-ETHYL-PHENANTHRENE
Formula: C16 H14
CAS: 3674-75-7
State: SOLUTION (SATURATED IN BENZENE)
Class: COBLENTZ
Instrument: Not specified, most likely a prism, grating, or hybrid spectrometer.
Sampling: TRANSMISSION
Path length: 0.05 CM
Resolution: 4
Origin: CENTRE D'ETUDES NUCLEAIRES DE GRENOBLE
MICROMETERS	TRANSMITTANCE
15.778	0.762
15.8336	0.765
15.8891	0.763
15.9447	0.753
16.0002	0.698
16.0558	0.557
16.1113	0.49
16.1669	0.477
16.2224	0.519
16.278	0.673
16.3336	0.76
16.3891	0.804
16.4447	0.85
16.5002	0.871
16.5558	0.882
16.6113	0.899
16.6669	0.904
16.7224	0.901
16.778	0.896
16.8335	0.891
16.8891	0.876
16.9447	0.872
17.0002	0.871
17.0558	0.864
17.1113	0.855
17.1669	0.844
17.2224	0.834
17.278	0.825
17.3335	0.814
17.3891	0.807
17.4447	0.797
17.5002	0.767
17.5558	0.75
17.6113	0.743
17.6669	0.748
17.7224	0.765
17.778	0.78
17.8335	0.792
17.8891	0.798
17.9447	0.8
18.0002	0.793
18.0558	0.785
18.1113	0.783
18.1669	0.773
18.2224	0.76
18.278	0.757
18.3335	0.757
18.3891	0.763
18.4447	0.773
18.5002	0.785
18.5558	0.795
18.6113	0.8
18.6669	0.798
18.7224	0.793
18.778	0.79
18.8335	0.787
18.8891	0.778
18.9446	0.77
19.0002	0.763
19.0558	0.747
19.1113	0.718
19.1669	0.676
19.2224	0.604
19.278	0.512
19.3335	0.403
19.3891	0.303
19.4446	0.217
19.5002	0.202
19.5558	0.232
19.6113	0.278
19.6669	0.355
19.7224	0.371
19.778	0.402
19.8335	0.435
19.8891	0.46
19.9446	0.519
20.0002	0.571
20.0558	0.614
20.1113	0.656
20.1669	0.695
20.2224	0.71
20.278	0.743
20.3335	0.755
20.3891	0.765
20.4446	0.772
20.5002	0.78
20.5558	0.787
20.6113	0.792
20.6669	0.795
20.7224	0.797
20.778	0.8
20.8335	0.8
20.8891	0.802
20.9446	0.802
21.0002	0.804
21.0557	0.804
21.1113	0.805
21.1669	0.805
21.2224	0.804
21.278	0.802
21.3335	0.798
21.3891	0.792
21.4446	0.782
21.5002	0.77
21.5557	0.758
21.6113	0.75
21.6669	0.74
21.7224	0.735
21.778	0.737
21.8335	0.743
21.8891	0.753
21.9446	0.763
22.0002	0.765
22.0557	0.762
22.1113	0.753
22.1669	0.743
22.2224	0.726
22.278	0.71
22.3335	0.683
22.3891	0.661
22.4446	0.624
22.5002	0.599
22.5557	0.559
22.6113	0.509
22.6668	0.47
22.7224	0.408
22.778	0.373
22.8335	0.273
22.8891	0.221
22.9446	0.175
23.0002	0.142
23.0557	0.118
23.1113	0.12
23.1668	0.139
23.2224	0.201
23.278	0.242
23.3335	0.301
23.3891	0.331
23.4446	0.386
23.5002	0.398
23.5557	0.398
23.6113	0.388
23.6668	0.373
23.7224	0.35
23.778	0.336
23.8335	0.328
23.8891	0.338
23.9446	0.348
24.0002	0.351
24.0557	0.358
24.1113	0.36
24.1668	0.356
24.2224	0.351
24.278	0.351
24.3335	0.355
24.3891	0.361
24.4446	0.386
24.5002	0.412
24.5557	0.452
24.6113	0.539
24.6668	0.591
24.7224	0.626
24.7779	0.671
24.8335	0.711
24.8891	0.733
24.9446	0.752
25.0002	0.77
25.0557	0.787
25.1113	0.793
25.1668	0.798
25.2224	0.802
25.2779	0.807
25.3335	0.815
25.3891	0.824
25.4446	0.829
25.5002	0.83
25.5557	0.83
25.6113	0.834
25.6668	0.834
25.7224	0.834
25.7779	0.835
25.8335	0.837
25.8891	0.845
25.9446	0.847
26.0002	0.845
26.0557	0.845
26.1113	0.845
26.1668	0.844
26.2224	0.845
26.2779	0.842
26.3335	0.844
26.389	0.847
26.4446	0.852
26.5002	0.85
26.5557	0.849
26.6113	0.852
26.6668	0.85
26.7224	0.847
26.7779	0.85
26.8335	0.85
26.889	0.847
26.9446	0.852
27.0002	0.85
27.0557	0.844
27.1113	0.845
27.1668	0.844
27.2224	0.847
27.2779	0.845
27.3335	0.844
27.389	0.849
27.4446	0.847
27.5002	0.847
27.5557	0.845
27.6113	0.845
27.6668	0.847
27.7224	0.845
27.7779	0.844
27.8335	0.842
27.889	0.844
27.9446	0.844
28.0002	0.844
28.0557	0.84
28.1113	0.837
28.1668	0.842
28.2224	0.844
28.2779	0.839
28.3335	0.83
28.389	0.827
28.4446	0.825
28.5001	0.822
28.5557	0.815
28.6113	0.81
28.6668	0.81
28.7224	0.809
28.7779	0.8
28.8335	0.797
28.889	0.792
28.9446	0.787
29.0001	0.783
29.0557	0.782
29.1113	0.78
29.1668	0.778
29.2224	0.778
29.2779	0.782
29.3335	0.787
29.389	0.793
29.4446	0.798
29.5001	0.802
29.5557	0.805
29.6113	0.81
29.6668	0.817
29.7224	0.824
29.7779	0.82
29.8335	0.817
29.889	0.819
29.9446	0.824
30.0001	0.83
30.0557	0.834
30.1113	0.829
30.1668	0.83
30.2224	0.832
30.2779	0.832
30.3335	0.834
30.389	0.827
30.4446	0.832
30.5001	0.837
30.5557	0.837
30.6112	0.832
30.6668	0.83
30.7224	0.83
30.7779	0.829
30.8335	0.827
30.889	0.824
30.9446	0.819
31.0001	0.817
31.0557	0.812
31.1112	0.807
31.1668	0.804
31.2224	0.804
31.2779	0.809
31.3335	0.809
31.389	0.807
31.4446	0.804
31.5001	0.802
31.5557	0.798
31.6112	0.793
31.6668	0.79
31.7224	0.793
31.7779	0.795
31.8335	0.793
31.889	0.795
31.9446	0.793
32.0001	0.792
32.0557	0.793
32.1112	0.795
32.1668	0.798
32.2223	0.804
32.2779	0.805
32.3335	0.809
32.389	0.81
32.4446	0.814
32.5001	0.815
32.5557	0.819
32.6112	0.824
32.6668	0.825
32.7223	0.837
32.7779	0.834
32.8335	0.834
32.889	0.837
32.9446	0.837
33.0001	0.839
33.0557	0.839
33.1112	0.837
33.1668	0.839
33.2223	0.837
33.2779	0.837
33.3335	0.837
33.389	0.84
33.4446	0.839
33.5001	0.837
33.5557	0.839
33.6112	0.847
33.6668	0.844
33.7223	0.84
33.7779	0.839
33.8335	0.839
33.889	0.837
33.9446	0.837
34.0001	0.839
34.0557	0.834
34.1112	0.834
34.1668	0.839
34.2223	0.837
34.2779	0.837
34.3334	0.834
34.389	0.832
34.4446	0.832
34.5001	0.829
34.5557	0.819
34.6112	0.82
34.6668	0.812
34.7223	0.81
34.7779	0.81
34.8334	0.81
34.889	0.81
34.9446	0.809
