Infrared Spectrum: 4,5-DIMETHYL-PHENANTHRENE
Formula: C16 H14
CAS: 3674-69-9
State: SOLID (1% IN KI)
Class: COBLENTZ
Instrument: Not specified, most likely a prism, grating, or hybrid spectrometer.
Sampling: TRANSMISSION
Resolution: 4
Origin: CENTRE D'ETUDES NUCLEAIRES DE GRENOBLE
MICROMETERS	TRANSMITTANCE
2.036	0.132
2.07617	0.135
2.11633	0.137
2.1565	0.142
2.19666	0.147
2.23683	0.15
2.27699	0.155
2.31716	0.16
2.35732	0.167
2.39749	0.174
2.43765	0.179
2.47782	0.182
2.51798	0.19
2.55815	0.197
2.59831	0.201
2.63848	0.202
2.67865	0.209
2.71881	0.217
2.75898	0.219
2.79914	0.227
2.83931	0.229
2.87947	0.229
2.91964	0.234
2.9598	0.249
2.99997	0.264
3.04013	0.276
3.0803	0.286
3.12046	0.293
3.16063	0.298
3.20079	0.303
3.24096	0.306
3.28113	0.289
3.32129	0.206
3.36146	0.222
3.40162	0.226
3.44179	0.187
3.48195	0.237
3.52212	0.283
3.56228	0.314
3.60245	0.341
3.64261	0.353
3.68278	0.361
3.72294	0.37
3.76311	0.378
3.80327	0.385
3.84344	0.388
3.88361	0.391
3.92377	0.395
3.96394	0.4
4.0041	0.407
4.04427	0.413
4.08443	0.417
4.1246	0.422
4.16476	0.428
4.20493	0.44
4.24509	0.458
4.28526	0.447
4.32542	0.438
4.36559	0.44
4.40575	0.447
4.44592	0.46
4.48609	0.465
4.52625	0.472
4.56642	0.474
4.60658	0.48
4.64675	0.485
4.68691	0.49
4.72708	0.495
4.76724	0.5
4.80741	0.504
4.84757	0.509
4.88774	0.512
4.9279	0.519
4.96807	0.525
5.00823	0.529
5.0484	0.534
5.08857	0.541
5.12873	0.546
5.1689	0.551
5.20906	0.469
5.24923	0.512
5.28939	0.52
5.32956	0.546
5.36972	0.562
5.40989	0.524
5.45005	0.534
5.49022	0.562
5.53038	0.582
5.57055	0.591
5.61071	0.596
5.65088	0.509
5.69105	0.519
5.73121	0.569
5.77138	0.589
5.81154	0.603
5.85171	0.587
5.89187	0.552
5.93204	0.571
5.9722	0.608
6.01237	0.597
6.05253	0.574
6.0927	0.587
6.13286	0.562
6.17303	0.582
6.21319	0.603
6.25336	0.591
6.29353	0.574
6.33369	0.529
6.37386	0.552
6.41402	0.524
6.45419	0.597
6.49435	0.636
6.53452	0.671
6.57468	0.644
6.61485	0.646
6.65501	0.659
6.69518	0.654
6.73534	0.634
6.77551	0.581
6.81567	0.663
6.85584	0.51
6.89601	0.311
6.93617	0.343
6.97634	0.194
7.0165	0.251
7.05667	0.448
7.09683	0.487
7.137	0.524
7.17716	0.611
7.21733	0.641
7.25749	0.659
7.29766	0.524
7.33782	0.524
7.37799	0.664
7.41815	0.701
7.45832	0.715
7.49849	0.726
7.53865	0.735
7.57882	0.742
7.61898	0.725
7.65915	0.743
7.69931	0.737
7.73948	0.68
7.77964	0.743
7.81981	0.757
7.85997	0.631
7.90014	0.601
7.9403	0.7
7.98047	0.726
8.02063	0.706
8.0608	0.75
8.10097	0.731
8.14113	0.457
8.1813	0.584
8.22146	0.698
8.26163	0.74
8.30179	0.768
8.34196	0.782
8.38212	0.77
8.42229	0.785
8.46245	0.795
8.50262	0.809
8.54278	0.822
8.58295	0.822
8.62311	0.412
8.66328	0.515
8.70345	0.695
8.74361	0.733
8.78378	0.726
8.82394	0.765
8.86411	0.783
8.90427	0.792
8.94444	0.797
8.9846	0.797
9.02477	0.658
9.06493	0.661
9.1051	0.752
9.14526	0.783
9.18543	0.787
9.22559	0.725
9.26576	0.793
9.30593	0.809
9.34609	0.82
9.38626	0.824
9.42642	0.814
9.46659	0.731
9.50675	0.698
9.54692	0.777
9.58708	0.79
9.62725	0.768
9.66741	0.735
9.70758	0.706
9.74774	0.658
9.78791	0.793
9.82807	0.822
9.86824	0.829
9.90841	0.835
9.94857	0.845
9.98874	0.84
10.0289	0.798
10.0691	0.633
10.1092	0.725
10.1494	0.798
10.1896	0.835
10.2297	0.85
10.2699	0.849
10.3101	0.787
10.3502	0.725
10.3904	0.75
10.4306	0.835
10.4707	0.862
10.5109	0.824
10.5511	0.768
10.5912	0.847
10.6314	0.872
10.6715	0.886
10.7117	0.889
10.7519	0.894
10.792	0.891
10.8322	0.881
10.8724	0.837
10.9125	0.877
10.9527	0.889
10.9929	0.896
11.033	0.894
11.0732	0.887
11.1134	0.871
11.1535	0.772
11.1937	0.629
11.2339	0.797
11.274	0.628
11.3142	0.517
11.3544	0.787
11.3945	0.859
11.4347	0.891
11.4749	0.899
11.515	0.902
11.5552	0.906
11.5953	0.904
11.6355	0.901
11.6757	0.899
11.7158	0.897
11.756	0.896
11.7962	0.886
11.8363	0.876
11.8765	0.864
11.9167	0.854
11.9568	0.84
11.997	0.815
12.0372	0.782
12.0773	0.715
12.1175	0.552
12.1577	0.244
12.1978	0.067
12.238	0.056
12.2782	0.055
12.3183	0.067
12.3585	0.162
12.3987	0.316
12.4388	0.502
12.479	0.608
12.5192	0.716
12.5593	0.793
12.5995	0.81
12.6396	0.804
12.6798	0.867
12.72	0.901
12.7601	0.921
12.8003	0.904
12.8405	0.693
12.8806	0.619
12.9208	0.7
12.961	0.489
13.0011	0.53
13.0413	0.696
13.0815	0.795
13.1216	0.815
13.1618	0.757
13.202	0.443
13.2421	0.177
13.2823	0.326
13.3225	0.537
13.3626	0.487
13.4028	0.326
13.443	0.497
13.4831	0.67
13.5233	0.8
13.5635	0.867
13.6036	0.897
13.6438	0.929
13.6839	0.944
13.7241	0.953
13.7643	0.953
13.8044	0.927
13.8446	0.852
13.8848	0.592
13.9249	0.209
13.9651	0.117
14.0053	0.246
14.0454	0.519
14.0856	0.664
14.1258	0.793
14.1659	0.849
14.2061	0.881
14.2463	0.881
14.2864	0.768
14.3266	0.308
14.3668	0.155
14.4069	0.259
14.4471	0.457
14.4873	0.564
14.5274	0.703
14.5676	0.767
14.6077	0.802
14.6479	0.832
14.6881	0.85
14.7282	0.871
14.7684	0.881
14.8086	0.887
14.8487	0.897
14.8889	0.906
14.9291	0.912
14.9692	0.917
15.0094	0.911
15.0496	0.909
15.0897	0.917
15.1299	0.929
15.1701	0.936
15.2102	0.938
15.2504	0.941
15.2906	0.941
15.3307	0.936
15.3709	0.934
15.4111	0.941
15.4512	0.943
15.4914	0.941
15.5316	0.944
15.5717	0.941
15.6119	0.948
15.652	0.951
15.6922	0.953
15.7324	0.954
15.7725	0.951
15.8127	0.954
15.8529	0.954
15.893	0.951
15.9332	0.943
