Infrared Spectrum: 2,3-DIMETHYL-PHENANTHRENE
Formula: C16 H14
CAS: 3674-65-5
State: SOLUTION (100 g/L IN HEPTANE)
Class: COBLENTZ
Instrument: Not specified, most likely a prism, grating, or hybrid spectrometer.
Sampling: TRANSMISSION
Path length: 0.05 CM
Resolution: 4
Origin: CENTRE D'ETUDES NUCLEAIRES DE GRENOBLE
MICROMETERS	TRANSMITTANCE
14.989	0.933
15.0447	0.926
15.1004	0.908
15.156	0.851
15.2117	0.762
15.2674	0.632
15.3231	0.58
15.3787	0.62
15.4344	0.709
15.4901	0.802
15.5458	0.887
15.6015	0.904
15.6571	0.928
15.7128	0.931
15.7685	0.926
15.8242	0.914
15.8798	0.887
15.9355	0.851
15.9912	0.864
16.0469	0.881
16.1026	0.909
16.1582	0.939
16.2139	0.949
16.2696	0.958
16.3253	0.964
16.3809	0.968
16.4366	0.968
16.4923	0.964
16.548	0.961
16.6037	0.961
16.6593	0.963
16.715	0.963
16.7707	0.958
16.8264	0.948
16.882	0.923
16.9377	0.862
16.9934	0.795
17.0491	0.729
17.1048	0.709
17.1604	0.74
17.2161	0.819
17.2718	0.886
17.3275	0.918
17.3831	0.939
17.4388	0.949
17.4945	0.956
17.5502	0.958
17.6059	0.959
17.6615	0.956
17.7172	0.951
17.7729	0.939
17.8286	0.926
17.8842	0.903
17.9399	0.871
17.9956	0.792
18.0513	0.685
18.107	0.563
18.1626	0.438
18.2183	0.426
18.274	0.473
18.3297	0.553
18.3853	0.647
18.441	0.737
18.4967	0.799
18.5524	0.856
18.608	0.887
18.6637	0.901
18.7194	0.913
18.7751	0.914
18.8308	0.903
18.8864	0.881
18.9421	0.839
18.9978	0.797
19.0535	0.769
19.1091	0.767
19.1648	0.804
19.2205	0.842
19.2762	0.884
19.3319	0.918
19.3875	0.929
19.4432	0.934
19.4989	0.944
19.5546	0.949
19.6102	0.949
19.6659	0.948
19.7216	0.948
19.7773	0.943
19.833	0.931
19.8886	0.916
19.9443	0.904
20	0.906
20.0557	0.911
20.1113	0.923
20.167	0.936
20.2227	0.946
20.2784	0.951
20.3341	0.956
20.3897	0.956
20.4454	0.953
20.5011	0.953
20.5568	0.958
20.6124	0.958
20.6681	0.956
20.7238	0.954
20.7795	0.951
20.8352	0.949
20.8908	0.946
20.9465	0.946
21.0022	0.944
21.0579	0.941
21.1135	0.919
21.1692	0.899
21.2249	0.887
21.2806	0.881
21.3363	0.884
21.3919	0.891
21.4476	0.896
21.5033	0.899
21.559	0.892
21.6146	0.884
21.6703	0.837
21.726	0.809
21.7817	0.784
21.8374	0.735
21.893	0.714
21.9487	0.697
22.0044	0.715
22.0601	0.749
22.1157	0.767
22.1714	0.794
22.2271	0.806
22.2828	0.802
22.3385	0.797
22.3941	0.792
22.4498	0.775
22.5055	0.754
22.5612	0.722
22.6168	0.68
22.6725	0.622
22.7282	0.515
22.7839	0.429
22.8396	0.331
22.8952	0.24
22.9509	0.188
23.0066	0.143
23.0623	0.115
23.1179	0.125
23.1736	0.197
23.2293	0.245
23.285	0.329
23.3407	0.418
23.3963	0.516
23.452	0.573
23.5077	0.638
23.5634	0.697
23.619	0.729
23.6747	0.777
23.7304	0.801
23.7861	0.819
23.8418	0.849
23.8974	0.862
23.9531	0.876
24.0088	0.884
24.0645	0.892
24.1201	0.904
24.1758	0.916
24.2315	0.921
24.2872	0.928
24.3429	0.929
24.3985	0.929
24.4542	0.931
24.5099	0.933
24.5656	0.936
24.6212	0.934
24.6769	0.938
24.7326	0.943
24.7883	0.944
24.8439	0.946
24.8996	0.946
24.9553	0.946
25.011	0.948
25.0667	0.948
25.1223	0.943
25.178	0.939
25.2337	0.938
25.2894	0.936
25.345	0.934
25.4007	0.933
25.4564	0.926
25.5121	0.923
25.5678	0.918
25.6234	0.914
25.6791	0.908
25.7348	0.904
25.7905	0.904
25.8461	0.906
25.9018	0.911
25.9575	0.914
26.0132	0.921
26.0689	0.924
26.1245	0.931
26.1802	0.951
26.2359	0.953
26.2916	0.958
26.3472	0.961
26.4029	0.959
26.4586	0.959
26.5143	0.963
26.57	0.961
26.6256	0.958
26.6813	0.959
26.737	0.959
26.7927	0.959
26.8483	0.963
26.904	0.966
26.9597	0.974
27.0154	0.978
27.0711	0.976
27.1267	0.973
27.1824	0.969
27.2381	0.969
27.2938	0.968
27.3494	0.956
27.4051	0.949
27.4608	0.961
27.5165	0.966
27.5722	0.966
27.6278	0.964
27.6835	0.966
27.7392	0.964
27.7949	0.963
27.8505	0.963
27.9062	0.966
27.9619	0.973
28.0176	0.971
28.0733	0.971
28.1289	0.964
28.1846	0.963
28.2403	0.963
28.296	0.958
28.3516	0.956
28.4073	0.958
28.463	0.958
28.5187	0.956
28.5744	0.956
28.63	0.958
28.6857	0.963
28.7414	0.961
28.7971	0.958
28.8527	0.959
28.9084	0.956
28.9641	0.951
29.0198	0.943
29.0755	0.934
29.1311	0.923
29.1868	0.918
29.2425	0.918
29.2982	0.923
29.3538	0.918
29.4095	0.909
29.4652	0.916
29.5209	0.918
29.5766	0.913
29.6322	0.908
29.6879	0.901
29.7436	0.896
29.7993	0.884
29.8549	0.876
29.9106	0.859
29.9663	0.854
30.022	0.846
30.0777	0.839
30.1333	0.832
30.189	0.827
30.2447	0.821
30.3004	0.817
30.356	0.819
30.4117	0.824
30.4674	0.832
30.5231	0.841
30.5788	0.857
30.6344	0.864
30.6901	0.869
30.7458	0.877
30.8015	0.889
30.8571	0.894
30.9128	0.899
30.9685	0.903
31.0242	0.906
31.0798	0.908
31.1355	0.909
31.1912	0.909
31.2469	0.909
31.3026	0.913
31.3582	0.928
31.4139	0.931
31.4696	0.933
31.5253	0.954
31.5809	0.951
31.6366	0.954
31.6923	0.956
31.748	0.956
31.8037	0.956
31.8593	0.951
31.915	0.949
31.9707	0.948
32.0264	0.944
32.082	0.944
32.1377	0.943
32.1934	0.941
32.2491	0.941
32.3048	0.941
32.3604	0.944
32.4161	0.948
32.4718	0.948
32.5275	0.948
32.5831	0.949
32.6388	0.951
32.6945	0.953
32.7502	0.956
32.8059	0.956
32.8615	0.954
32.9172	0.954
32.9729	0.953
33.0286	0.953
33.0842	0.951
33.1399	0.949
33.1956	0.944
33.2513	0.943
33.307	0.941
33.3626	0.938
33.4183	0.936
33.474	0.938
33.5297	0.941
33.5853	0.941
33.641	0.939
33.6967	0.938
33.7524	0.936
33.8081	0.938
33.8637	0.941
33.9194	0.946
33.9751	0.946
34.0308	0.944
34.0864	0.941
34.1421	0.941
34.1978	0.934
34.2535	0.926
34.3092	0.923
34.3648	0.911
34.4205	0.908
34.4762	0.879
34.5319	0.884
34.5875	0.874
34.6432	0.869
34.6989	0.866
34.7546	0.859
34.8103	0.846
34.8659	0.842
34.9216	0.834
34.9773	0.824
35.033	0.826
