Infrared Spectrum: 2-n-DODECYL-PHENANTHRENE
Formula: C26 H34
CAS: 3674-72-4
State: SOLUTION (50 g/L IN HEPTANE)
Class: COBLENTZ
Instrument: Not specified, most likely a prism, grating, or hybrid spectrometer.
Sampling: TRANSMISSION
Path length: 0.05 CM
Resolution: 4
Origin: CENTRE D'ETUDES NUCLEAIRES DE GRENOBLE
MICROMETERS	TRANSMITTANCE
14.426	0.938
14.4818	0.933
14.5376	0.935
14.5935	0.945
14.6493	0.956
14.7051	0.961
14.7609	0.958
14.8167	0.946
14.8725	0.953
14.9284	0.965
14.9842	0.973
15.04	0.978
15.0958	0.985
15.1516	0.991
15.2075	0.993
15.2633	0.998
15.3191	0.996
15.3749	0.991
15.4307	0.988
15.4865	0.986
15.5424	0.976
15.5982	0.961
15.654	0.948
15.7098	0.925
15.7656	0.915
15.8215	0.915
15.8773	0.92
15.9331	0.936
15.9889	0.946
16.0447	0.961
16.1005	0.966
16.1564	0.97
16.2122	0.971
16.268	0.978
16.3238	0.98
16.3796	0.98
16.4354	0.981
16.4913	0.985
16.5471	0.98
16.6029	0.973
16.6587	0.966
16.7145	0.963
16.7704	0.958
16.8262	0.955
16.882	0.958
16.9378	0.966
16.9936	0.973
17.0494	0.978
17.1053	0.981
17.1611	0.981
17.2169	0.978
17.2727	0.975
17.3285	0.973
17.3844	0.973
17.4402	0.975
17.496	0.981
17.5518	0.985
17.6076	0.99
17.6634	0.993
17.7193	0.99
17.7751	0.986
17.8309	0.983
17.8867	0.983
17.9425	0.981
17.9984	0.975
18.0542	0.973
18.11	0.976
18.1658	0.978
18.2216	0.978
18.2774	0.985
18.3333	0.986
18.3891	0.988
18.4449	0.986
18.5007	0.985
18.5565	0.983
18.6124	0.983
18.6682	0.981
18.724	0.98
18.7798	0.978
18.8356	0.978
18.8914	0.978
18.9473	0.98
19.0031	0.981
19.0589	0.981
19.1147	0.981
19.1705	0.981
19.2263	0.985
19.2822	0.983
19.338	0.985
19.3938	0.981
19.4496	0.985
19.5054	0.985
19.5613	0.98
19.6171	0.98
19.6729	0.978
19.7287	0.975
19.7845	0.973
19.8403	0.97
19.8962	0.966
19.952	0.956
20.0078	0.946
20.0636	0.945
20.1194	0.946
20.1753	0.953
20.2311	0.963
20.2869	0.966
20.3427	0.97
20.3985	0.971
20.4543	0.976
20.5102	0.978
20.566	0.976
20.6218	0.975
20.6776	0.971
20.7334	0.975
20.7893	0.973
20.8451	0.968
20.9009	0.968
20.9567	0.965
21.0125	0.961
21.0683	0.96
21.1242	0.96
21.18	0.956
21.2358	0.95
21.2916	0.943
21.3474	0.94
21.4033	0.931
21.4591	0.928
21.5149	0.921
21.5707	0.918
21.6265	0.913
21.6823	0.906
21.7382	0.905
21.794	0.905
21.8498	0.905
21.9056	0.903
21.9614	0.901
22.0172	0.9
22.0731	0.895
22.1289	0.89
22.1847	0.881
22.2405	0.878
22.2963	0.871
22.3522	0.861
22.408	0.85
22.4638	0.835
22.5196	0.825
22.5754	0.815
22.6312	0.805
22.6871	0.795
22.7429	0.783
22.7987	0.772
22.8545	0.763
22.9103	0.757
22.9662	0.752
23.022	0.752
23.0778	0.755
23.1336	0.763
23.1894	0.775
23.2452	0.79
23.3011	0.801
23.3569	0.818
23.4127	0.833
23.4685	0.85
23.5243	0.858
23.5802	0.868
23.636	0.88
23.6918	0.885
23.7476	0.895
23.8034	0.9
23.8592	0.906
23.9151	0.916
23.9709	0.923
24.0267	0.928
24.0825	0.935
24.1383	0.936
24.1942	0.94
24.25	0.945
24.3058	0.946
24.3616	0.95
24.4174	0.96
24.4732	0.961
24.5291	0.96
24.5849	0.961
24.6407	0.961
24.6965	0.966
24.7523	0.968
24.8081	0.97
24.864	0.971
24.9198	0.971
24.9756	0.971
25.0314	0.971
25.0872	0.975
25.1431	0.973
25.1989	0.973
25.2547	0.973
25.3105	0.973
25.3663	0.975
25.4221	0.976
25.478	0.976
25.5338	0.971
25.5896	0.975
25.6454	0.973
25.7012	0.975
25.7571	0.973
25.8129	0.976
25.8687	0.976
25.9245	0.975
25.9803	0.976
26.0361	0.978
26.092	0.976
26.1478	0.973
26.2036	0.975
26.2594	0.975
26.3152	0.976
26.3711	0.976
26.4269	0.976
26.4827	0.976
26.5385	0.973
26.5943	0.975
26.6501	0.973
26.706	0.973
26.7618	0.971
26.8176	0.973
26.8734	0.976
26.9292	0.975
26.9851	0.978
27.0409	0.976
27.0967	0.976
27.1525	0.975
27.2083	0.976
27.2641	0.975
27.32	0.975
27.3758	0.975
27.4316	0.976
27.4874	0.976
27.5432	0.98
27.5991	0.98
27.6549	0.98
27.7107	0.976
27.7665	0.975
27.8223	0.975
27.8781	0.975
27.934	0.973
27.9898	0.975
28.0456	0.975
28.1014	0.976
28.1572	0.978
28.213	0.978
28.2689	0.98
28.3247	0.98
28.3805	0.976
28.4363	0.975
28.4921	0.975
28.548	0.98
28.6038	0.978
28.6596	0.978
28.7154	0.976
28.7712	0.978
28.827	0.978
28.8829	0.976
28.9387	0.975
28.9945	0.975
29.0503	0.978
29.1061	0.976
29.162	0.976
29.2178	0.976
29.2736	0.973
29.3294	0.975
29.3852	0.976
29.441	0.978
29.4969	0.981
29.5527	0.98
29.6085	0.978
29.6643	0.98
29.7201	0.978
29.776	0.975
29.8318	0.973
29.8876	0.971
29.9434	0.978
29.9992	0.975
30.055	0.973
30.1109	0.975
30.1667	0.976
30.2225	0.978
30.2783	0.976
30.3341	0.976
30.39	0.973
30.4458	0.973
30.5016	0.971
30.5574	0.976
30.6132	0.978
30.669	0.976
30.7249	0.971
30.7807	0.971
30.8365	0.973
30.8923	0.975
30.9481	0.975
31.0039	0.973
31.0598	0.976
31.1156	0.976
31.1714	0.975
31.2272	0.971
31.283	0.973
31.3389	0.973
31.3947	0.971
31.4505	0.971
31.5063	0.971
31.5621	0.97
31.6179	0.97
31.6738	0.971
31.7296	0.973
31.7854	0.971
31.8412	0.973
31.897	0.978
31.9529	0.975
32.0087	0.976
32.0645	0.973
32.1203	0.973
32.1761	0.973
32.2319	0.973
32.2878	0.973
32.3436	0.971
32.3994	0.975
32.4552	0.975
32.511	0.973
32.5669	0.976
32.6227	0.976
32.6785	0.981
32.7343	0.98
32.7901	0.978
32.8459	0.981
32.9018	0.981
32.9576	0.976
33.0134	0.976
33.0692	0.976
33.125	0.978
33.1809	0.98
33.2367	0.983
33.2925	0.976
33.3483	0.98
33.4041	0.981
33.4599	0.981
33.5158	0.981
33.5716	0.983
33.6274	0.983
33.6832	0.983
33.739	0.981
33.7948	0.981
33.8507	0.98
33.9065	0.981
33.9623	0.981
34.0181	0.983
34.0739	0.981
34.1298	0.983
34.1856	0.986
34.2414	0.988
34.2972	0.988
34.353	0.986
34.4088	0.981
34.4647	0.983
34.5205	0.985
34.5763	0.986
34.6321	0.983
34.6879	0.985
34.7438	0.985
34.7996	0.985
34.8554	0.983
34.9112	0.98
34.967	0.975
35.0228	0.973
