Infrared Spectrum: MALONIC ACID,(Alpha,Alpha,Alpha-TRIFLUORO-m-TOLUIDINE)METHYLENE-, DIETHYL ESTER
Formula: C15 H16 F3 N O4
CAS: 370-35-4
State: SOLUTION (2% CCl4 FOR 3800-1330, 2% CS2 FOR 1330-400 CM^-^1)
Class: COBLENTZ III
Instrument: BECKMAN IR-9 (GRATING)
Instrument parameters: ORDER CHANGES: 670, 1200, 2000 CM^-^1
Sampling: TRANSMISSION
Path length: 0.011 CM, 0.011 CM
Resolution: 2
Origin: DOW CHEMICAL COMPANY
1/CM	TRANSMITTANCE
400	0.2866
409	0.2529
418	0.4442
427	0.5468
436	0.6229
445	0.6911
454	0.7317
463	0.765
472	0.7922
481	0.8167
490	0.8296
499	0.8525
508	0.8665
517	0.8678
526	0.8682
535	0.8855
544	0.8896
553	0.8885
562	0.8584
571	0.8471
580	0.8602
589	0.8694
598	0.8928
607	0.8933
616	0.8918
625	0.8874
634	0.8715
643	0.849
652	0.781
661	0.8155
670	0.8402
679	0.848
688	0.8415
697	0.7733
706	0.8384
715	0.8428
724	0.8383
733	0.8256
742	0.8104
751	0.828
760	0.849
769	0.8474
778	0.8243
787	0.6428
796	0.6491
805	0.6326
814	0.7539
823	0.8192
832	0.844
841	0.8126
850	0.7156
859	0.6828
868	0.6768
877	0.6533
886	0.7906
895	0.8215
904	0.8407
913	0.8466
922	0.8145
931	0.8189
940	0.8771
949	0.8786
958	0.8636
967	0.8248
976	0.781
985	0.7985
994	0.825
1003	0.8195
1012	0.7918
1021	0.7208
1030	0.6322
1039	0.7546
1048	0.7808
1057	0.7461
1066	0.4465
1075	0.4612
1084	0.5735
1093	0.5252
1102	0.6285
1111	0.751
1120	0.7358
1129	0.4382
1138	0.1464
1147	0.6603
1156	0.708
1165	0.5336
1174	0.395
1183	0.5928
1192	0.6561
1201	0.4102
1210	0.5066
1219	0.2949
1228	0.2137
1237	0.1539
1246	0.197
1255	0.1233
1264	0.4235
1273	0.5239
1282	0.4038
1291	0.547
1300	0.512
1309	0.62
1318	0.5968
1327	0.3076
1336	0.496
1345	0.5459
1354	0.6352
1363	0.7033
1372	0.6689
1381	0.6637
1390	0.7042
1399	0.7161
1408	0.5643
1417	0.541
1426	0.6967
1435	0.716
1444	0.7428
1453	0.7485
1462	0.5916
1471	0.7312
1480	0.6956
1489	0.7593
1498	0.6911
1507	0.6737
1516	0.6567
1525	0.6386
1534	0.5957
1543	0.5582
1552	0.4136
1561	0.4362
1570	0.5025
1579	0.4864
1588	0.3291
1597	0.2526
1606	0.3304
1615	0.3044
1624	0.3968
1633	0.4705
1642	0.5291
1651	0.3532
1660	0.2934
1669	0.481
1678	0.6342
1687	0.591
1696	0.3777
1705	0.4698
1714	0.616
1723	0.5118
1732	0.5523
1741	0.7503
1750	0.7955
1759	0.8271
1768	0.8441
1777	0.8551
1786	0.86
1795	0.8616
1804	0.8618
1813	0.8612
1822	0.8628
1831	0.8649
1840	0.865
1849	0.8649
1858	0.864
1867	0.864
1876	0.8657
1885	0.8687
1894	0.869
1903	0.8695
1912	0.8708
1921	0.8725
1930	0.8737
1939	0.8723
1948	0.8701
1957	0.8705
1966	0.8713
1975	0.8728
1984	0.8741
1993	0.8725
2002	0.8793
2011	0.8784
2020	0.8778
2029	0.8778
2038	0.8781
2047	0.8784
2056	0.8786
2065	0.8783
2074	0.8782
2083	0.878
2092	0.8778
2101	0.8781
2110	0.8782
2119	0.8784
2128	0.8796
2137	0.8794
2146	0.8791
2155	0.8794
2164	0.8796
2173	0.8792
2182	0.879
2191	0.8788
2200	0.8785
2209	0.8775
2218	0.8768
2227	0.8755
2236	0.8738
2245	0.8714
2254	0.8687
2263	0.8655
2272	0.8618
2281	0.8585
2290	0.8561
2299	0.855
2308	0.8554
2317	0.8565
2326	0.8583
2335	0.8604
2344	0.8637
2353	0.8678
2362	0.8707
2371	0.8725
2380	0.8733
2389	0.8731
2398	0.873
2407	0.8728
2416	0.8727
2425	0.8725
2434	0.8725
2443	0.8725
2452	0.8723
2461	0.8721
2470	0.872
2479	0.8717
2488	0.8714
2497	0.871
2506	0.8707
2515	0.8702
2524	0.8698
2533	0.8693
2542	0.8689
2551	0.8684
2560	0.8682
2569	0.868
2578	0.8678
2587	0.8677
2596	0.8675
2605	0.8675
2614	0.8674
2623	0.8673
2632	0.8673
2641	0.8671
2650	0.8674
2659	0.8675
2668	0.8678
2677	0.8682
2686	0.8687
2695	0.8691
2704	0.8696
2713	0.87
2722	0.8703
2731	0.8707
2740	0.8711
2749	0.8704
2758	0.8699
2767	0.8695
2776	0.8692
2785	0.8683
2794	0.8674
2803	0.8658
2812	0.8643
2821	0.8625
2830	0.8608
2839	0.8595
2848	0.8596
2857	0.8588
2866	0.8524
2875	0.8408
2884	0.8417
2893	0.8455
2902	0.8323
2911	0.8087
2920	0.8182
2929	0.8228
2938	0.7921
2947	0.7881
2956	0.8038
2965	0.7818
2974	0.7714
2983	0.6907
2992	0.6925
3001	0.7368
3010	0.7943
3019	0.8151
3028	0.8321
3037	0.8367
3046	0.8366
3055	0.8362
3064	0.8336
3073	0.8304
3082	0.8303
3091	0.8314
3100	0.8311
3109	0.8305
3118	0.8297
3127	0.8278
3136	0.8255
3145	0.8224
3154	0.8187
3163	0.8118
3172	0.8058
3181	0.8022
3190	0.8021
3199	0.803
3208	0.8045
3217	0.8054
3226	0.8057
3235	0.8055
3244	0.8051
3253	0.8046
3262	0.8033
3271	0.8012
3280	0.8014
3289	0.8042
3298	0.808
3307	0.8121
3316	0.8161
3325	0.8192
3334	0.8223
3343	0.8248
3352	0.8271
3361	0.8281
3370	0.8288
3379	0.8295
3388	0.8302
3397	0.8308
3406	0.8318
3415	0.833
3424	0.8341
3433	0.8352
3442	0.8361
3451	0.8368
3460	0.8377
3469	0.8385
3478	0.8393
3487	0.84
3496	0.8409
3505	0.8418
3514	0.8428
3523	0.8438
3532	0.8445
3541	0.8451
3550	0.8458
3559	0.8463
3568	0.8467
3577	0.8466
3586	0.8389
3595	0.844
3604	0.8511
3613	0.8475
3622	0.8468
3631	0.8514
3640	0.8537
3649	0.8548
3658	0.8549
3667	0.8544
3676	0.8543
3685	0.8543
3694	0.8545
3703	0.8546
3712	0.8546
3721	0.8545
3730	0.8544
3739	0.854
3748	0.8536
3757	0.8533
3766	0.8533
3775	0.8533
3784	0.8533
3793	0.8533
