Infrared Spectrum: 2-Propanamine, 1-(4-methoxyphenyl)-, hydrochloride
Formula: C10 H16 Cl N O
CAS: 3706-26-1
State: SOLID (OIL MULL)
Class: COBLENTZ III
Instrument: PERKIN-ELMER 521 (GRATING)
Instrument parameters: FILTERS AT 3130, 2475, 2000, 1150, 700, 410. GRATING CHANGES: 1999, 690 CM^-^1
Sampling: TRANSMISSION
Resolution: 2
Origin: SMITH KLINE & FRENCH LABS.
1/CM	TRANSMITTANCE
202	0.3302
212	0.3177
222	0.3061
232	0.2937
242	0.2824
252	0.273
262	0.2692
272	0.2675
282	0.2634
292	0.2662
302	0.2712
312	0.2857
322	0.3184
332	0.3256
342	0.4066
352	0.4508
362	0.5752
372	0.6288
382	0.6529
392	0.6918
402	0.6759
412	0.6896
422	0.7219
432	0.6155
442	0.6823
452	0.7939
462	0.7619
472	0.7952
482	0.8289
492	0.8317
502	0.8138
512	0.6872
522	0.7323
532	0.8193
542	0.7988
552	0.5372
562	0.8067
572	0.8404
582	0.847
592	0.8478
602	0.8466
612	0.8449
622	0.8448
632	0.8672
642	0.8979
652	0.8866
662	0.8909
672	0.8788
682	0.8631
692	0.8521
702	0.8093
712	0.8068
722	0.817
732	0.8186
742	0.7886
752	0.5782
762	0.82
772	0.8198
782	0.8086
792	0.743
802	0.2414
812	0.6338
822	0.7536
832	0.6027
842	0.4229
852	0.7525
862	0.8038
872	0.7951
882	0.7357
892	0.8059
902	0.8067
912	0.807
922	0.8092
932	0.8135
942	0.8106
952	0.8063
962	0.802
972	0.7986
982	0.773
992	0.6413
1002	0.7154
1012	0.6034
1022	0.4835
1032	0.254
1042	0.7498
1052	0.7587
1062	0.7424
1072	0.6164
1082	0.7454
1092	0.7385
1102	0.5532
1112	0.6369
1122	0.6771
1132	0.6118
1142	0.7115
1152	0.723
1162	0.689
1172	0.4713
1182	0.6103
1192	0.7201
1202	0.5957
1212	0.5813
1222	0.6069
1232	0.5216
1242	0.3267
1252	0.1866
1262	0.5029
1272	0.639
1282	0.6499
1292	0.5402
1302	0.4485
1312	0.6381
1322	0.7443
1332	0.7401
1342	0.7215
1352	0.6929
1362	0.5476
1372	0.5125
1382	0.4049
1392	0.5637
1402	0.7265
1412	0.6942
1422	0.6373
1432	0.4986
1442	0.3657
1452	0.2677
1462	0.2477
1472	0.5628
1482	0.5547
1492	0.4323
1502	0.2627
1512	0.2418
1522	0.6311
1532	0.7386
1542	0.7565
1552	0.7532
1562	0.7444
1572	0.7013
1582	0.5887
1592	0.6681
1602	0.4851
1612	0.3542
1622	0.6428
1632	0.7452
1642	0.7767
1652	0.7667
1662	0.7541
1672	0.7745
1682	0.8015
1692	0.8173
1702	0.8251
1712	0.8267
1722	0.8263
1732	0.8267
1742	0.8247
1752	0.8219
1762	0.8118
1772	0.8095
1782	0.8095
1792	0.8096
1802	0.8029
1812	0.8022
1822	0.8017
1832	0.8055
1842	0.8021
1852	0.7958
1862	0.7881
1872	0.7808
1882	0.7692
1892	0.7923
1902	0.7982
1912	0.7908
1922	0.7804
1932	0.7761
1942	0.7644
1952	0.7629
1962	0.7771
1972	0.7703
1982	0.7526
1992	0.7385
2002	0.6293
2012	0.5978
2022	0.5663
2032	0.5367
2042	0.5035
2052	0.4572
2062	0.5277
2072	0.6572
2082	0.7558
2092	0.7819
2102	0.7929
2112	0.7964
2122	0.7969
2132	0.7966
2142	0.7962
2152	0.7957
2162	0.7947
2172	0.7927
2182	0.7903
2192	0.7867
2202	0.7826
2212	0.7799
2222	0.7805
2232	0.786
2242	0.7865
2252	0.7853
2262	0.7841
2272	0.785
2282	0.7885
2292	0.787
2302	0.7782
2312	0.7703
2322	0.7669
2332	0.7648
2342	0.7631
2352	0.76
2362	0.7569
2372	0.755
2382	0.7532
2392	0.7513
2402	0.7432
2412	0.7337
2422	0.7234
2432	0.7175
2442	0.7153
2452	0.7119
2462	0.698
2472	0.6612
2482	0.6031
2492	0.4417
2502	0.4163
2512	0.3951
2522	0.5284
2532	0.6369
2542	0.6419
2552	0.6398
2562	0.6211
2572	0.5571
2582	0.4618
2592	0.3575
2602	0.3431
2612	0.3894
2622	0.443
2632	0.4549
2642	0.5256
2652	0.5511
2662	0.5392
2672	0.486
2682	0.3992
2692	0.3143
2702	0.2814
2712	0.2969
2722	0.3526
2732	0.3528
2742	0.3592
2752	0.3855
2762	0.3804
2772	0.3479
2782	0.2464
2792	0.1944
2802	0.1809
2812	0.1784
2822	0.1724
2832	0.1561
2842	0.1414
2852	0.1376
2862	0.138
2872	0.1399
2882	0.1416
2892	0.1432
2902	0.144
2912	0.146
2922	0.1481
2932	0.1511
2942	0.1546
2952	0.1588
2962	0.1643
2972	0.1748
2982	0.1834
2992	0.1939
3002	0.2166
3012	0.2462
3022	0.2643
3032	0.2825
3042	0.3819
3052	0.4204
3062	0.4561
3072	0.4865
3082	0.5107
3092	0.5163
3102	0.5208
3112	0.5276
3122	0.565
3132	0.6114
3142	0.654
3152	0.6722
3162	0.6819
3172	0.6827
3182	0.6793
3192	0.6745
3202	0.6817
3212	0.6975
3222	0.7141
3232	0.7455
3242	0.7695
3252	0.7751
3262	0.7763
3272	0.7765
3282	0.7767
3292	0.7768
3302	0.777
3312	0.7775
3322	0.7782
3332	0.7783
3342	0.7779
3352	0.7775
3362	0.7772
3372	0.7767
3382	0.7763
3392	0.7759
3402	0.7754
3412	0.7758
3422	0.7764
3432	0.777
3442	0.7776
3452	0.7789
3462	0.7802
3472	0.7815
3482	0.7821
3492	0.7824
3502	0.7826
3512	0.7829
3522	0.783
3532	0.783
3542	0.7831
3552	0.7829
3562	0.7824
3572	0.7819
3582	0.7815
3592	0.7813
3602	0.7812
3612	0.781
3622	0.7806
3632	0.7796
3642	0.7786
3652	0.7773
3662	0.7754
3672	0.7734
3682	0.7719
3692	0.7704
3702	0.7692
3712	0.7682
3722	0.7671
3732	0.7661
3742	0.7653
3752	0.7644
3762	0.7636
3772	0.7628
3782	0.7618
3792	0.7606
3802	0.7595
3812	0.7583
3822	0.7572
3832	0.7561
3842	0.7551
3852	0.7541
3862	0.753
3872	0.7527
3882	0.7523
3892	0.752
3902	0.7521
3912	0.7522
3922	0.7522
3932	0.7505
3942	0.7519
3952	0.7523
3962	0.7531
3972	0.7543
3982	0.7554
3992	0.7566
