Infrared Spectrum: P-FLUOROPHENOL
Formula: C6 H5 F O
CAS: 371-41-5
State: SOLUTION (ETHYL ETHER)
Class: COBLENTZ
Instrument: Not specified, most likely a prism, grating, or hybrid spectrometer.
Sampling: TRANSMISSION
Path length: 0.0200 CM
Resolution: 4
Origin: BATTELLE MEMORIAL INSTITUTE (R. JAKOBSEN)
1/CM	TRANSMITTANCE
299.137	0.361
300.067	0.377
300.996	0.409
301.926	0.411
302.855	0.421
303.785	0.405
304.715	0.446
305.644	0.504
306.574	0.536
307.504	0.593
308.433	0.621
309.363	0.642
310.292	0.664
311.222	0.683
312.152	0.696
313.081	0.698
314.011	0.672
314.94	0.667
315.87	0.674
316.8	0.678
317.729	0.686
318.659	0.688
319.589	0.699
320.518	0.686
321.448	0.683
322.377	0.682
323.307	0.691
324.237	0.658
325.166	0.668
326.096	0.691
327.025	0.687
327.955	0.659
328.885	0.671
329.814	0.658
330.744	0.864
331.673	0.867
332.603	0.863
333.533	0.866
334.462	0.863
335.392	0.856
336.322	0.858
337.251	0.883
338.181	0.87
339.11	0.872
340.04	0.871
340.97	0.867
341.899	0.864
342.829	0.872
343.758	0.872
344.688	0.872
345.618	0.876
346.547	0.871
347.477	0.87
348.407	0.862
349.336	0.855
350.266	0.846
351.195	0.842
352.125	0.842
353.055	0.837
353.984	0.831
354.914	0.831
355.843	0.821
356.773	0.813
357.703	0.809
358.632	0.801
359.562	0.796
360.492	0.894
361.421	0.892
362.351	0.899
363.28	0.895
364.21	0.892
365.14	0.9
366.069	0.9
366.999	0.89
367.928	0.884
368.858	0.878
369.788	0.876
370.717	0.875
371.647	0.875
372.576	0.871
373.506	0.852
374.436	0.838
375.365	0.834
376.295	0.834
377.225	0.833
378.154	0.83
379.084	0.825
380.013	0.819
380.943	0.822
381.873	0.826
382.802	0.834
383.732	0.841
384.661	0.852
385.591	0.866
386.521	0.87
387.45	0.884
388.38	0.886
389.31	0.892
390.239	0.895
391.169	0.9
392.098	0.905
393.028	0.909
393.958	0.921
394.887	0.927
395.817	0.932
396.746	0.937
397.676	0.944
398.606	0.945
399.535	0.952
400.465	0.952
401.395	0.952
402.324	0.949
403.254	0.949
404.183	0.952
405.113	0.957
406.043	0.961
406.972	0.958
407.902	0.958
408.831	0.958
409.761	0.958
410.691	0.958
411.62	0.958
412.55	0.956
413.479	0.952
414.409	0.949
415.339	0.948
416.268	0.941
417.198	0.939
418.128	0.936
419.057	0.935
419.987	0.933
420.916	0.933
421.846	0.933
422.776	0.929
423.705	0.92
424.635	0.915
425.564	0.904
426.494	0.899
427.424	0.895
428.353	0.886
429.283	0.868
430.213	0.859
431.142	0.852
432.072	0.839
433.001	0.822
433.931	0.786
434.861	0.745
435.79	0.719
436.72	0.684
437.649	0.65
438.579	0.63
439.509	0.621
440.438	0.618
441.368	0.618
442.298	0.619
443.227	0.635
444.157	0.667
445.086	0.686
446.016	0.703
446.946	0.727
447.875	0.741
448.805	0.75
449.734	0.758
450.664	0.761
451.594	0.762
452.523	0.762
453.453	0.758
454.383	0.749
455.312	0.732
456.242	0.708
457.171	0.668
458.101	0.63
459.031	0.619
459.96	0.626
460.89	0.637
461.819	0.664
462.749	0.705
463.679	0.761
464.608	0.803
465.538	0.835
466.467	0.859
467.397	0.87
468.327	0.878
469.256	0.879
470.186	0.88
471.116	0.884
472.045	0.891
472.975	0.894
473.904	0.896
474.834	0.9
475.764	0.9
476.693	0.899
477.623	0.9
478.552	0.901
479.482	0.901
480.412	0.9
481.341	0.9
482.271	0.9
483.201	0.892
484.13	0.888
485.06	0.882
485.989	0.88
486.919	0.875
487.849	0.867
488.778	0.864
489.708	0.863
490.637	0.859
491.567	0.858
492.497	0.855
493.426	0.843
494.356	0.826
495.286	0.811
496.215	0.801
497.145	0.784
498.074	0.769
499.004	0.756
499.934	0.743
500.863	0.736
501.793	0.724
502.722	0.713
503.652	0.684
504.582	0.662
505.511	0.643
506.441	0.615
507.37	0.565
508.3	0.504
509.23	0.456
510.159	0.409
511.089	0.389
512.019	0.343
512.948	0.319
513.878	0.323
514.807	0.364
515.737	0.423
516.667	0.482
517.596	0.581
518.526	0.634
519.455	0.671
520.385	0.691
521.315	0.716
522.244	0.744
523.174	0.761
524.104	0.794
525.033	0.807
525.963	0.815
526.892	0.827
527.822	0.838
528.752	0.839
529.681	0.841
530.611	0.841
531.54	0.841
532.47	0.846
533.4	0.846
534.329	0.85
535.259	0.854
536.189	0.86
537.118	0.86
538.048	0.86
538.977	0.864
539.907	0.87
540.837	0.871
541.766	0.876
542.696	0.876
543.625	0.882
544.555	0.882
545.485	0.882
546.414	0.884
547.344	0.884
548.273	0.883
549.203	0.887
550.133	0.884
551.062	0.883
551.992	0.886
552.922	0.883
553.851	0.878
554.781	0.878
555.71	0.875
556.64	0.876
557.57	0.876
558.499	0.879
559.429	0.88
560.358	0.882
561.288	0.882
562.218	0.883
563.147	0.887
564.077	0.891
565.007	0.892
565.936	0.894
566.866	0.894
567.795	0.894
568.725	0.89
569.655	0.891
570.584	0.89
571.514	0.891
572.443	0.892
573.373	0.887
574.303	0.888
575.232	0.89
576.162	0.891
577.092	0.892
578.021	0.892
578.951	0.892
579.88	0.892
580.81	0.895
581.74	0.896
582.669	0.895
583.599	0.896
584.528	0.899
585.458	0.899
586.388	0.898
587.317	0.896
588.247	0.892
589.177	0.886
590.106	0.883
591.036	0.88
591.965	0.88
592.895	0.883
593.825	0.883
594.754	0.883
595.684	0.88
596.613	0.884
597.543	0.886
598.473	0.886
599.402	0.883
600.332	0.886
601.261	0.886
602.191	0.887
603.121	0.888
604.05	0.886
604.98	0.886
605.91	0.887
606.839	0.888
607.769	0.886
608.698	0.886
609.628	0.883
610.558	0.882
611.487	0.88
612.417	0.88
613.346	0.879
614.276	0.878
615.206	0.879
616.135	0.879
617.065	0.879
617.995	0.879
618.924	0.878
619.854	0.875
620.783	0.876
621.713	0.876
622.643	0.878
623.572	0.879
624.502	0.87
625.431	0.867
626.361	0.864
627.291	0.864
628.22	0.863
629.15	0.863
630.08	0.86
631.009	0.856
631.939	0.855
632.868	0.859
633.798	0.86
634.728	0.855
635.657	0.852
636.587	0.85
637.516	0.849
638.446	0.849
639.376	0.846
640.305	0.846
641.235	0.842
642.164	0.838
643.094	0.839
644.024	0.849
644.953	0.849
645.883	0.849
646.813	0.85
647.742	0.85
648.672	0.849
649.601	0.849
