Infrared Spectrum: Cyclobutane carboxylic acid
Formula: C5 H8 O2
CAS: 3721-95-7
State: LIQUID (NEAT)
Class: COBLENTZ III
Instrument: PERKIN-ELMER 21 (GRATING)
Instrument parameters: FILTER AT ABOUT 10 MICRONS
Path length: CAPILLARY
Resolution: 2
Origin: ABBOTT LABORATORIES
1/CM	TRANSMITTANCE
667	0.7197
676	0.7095
685	0.746
694	0.7867
703	0.8079
712	0.8203
721	0.8163
730	0.821
739	0.8276
748	0.8286
757	0.8208
766	0.8026
775	0.8079
784	0.8084
793	0.8038
802	0.7927
811	0.7874
820	0.7844
829	0.7875
838	0.7877
847	0.7818
856	0.7755
865	0.7668
874	0.7553
883	0.7387
892	0.7218
901	0.6956
910	0.6434
919	0.6277
928	0.6293
937	0.6492
946	0.6754
955	0.7101
964	0.7449
973	0.7783
982	0.8018
991	0.8038
1000	0.8067
1009	0.8057
1018	0.8015
1027	0.8103
1036	0.7954
1045	0.7833
1054	0.7992
1063	0.8121
1072	0.8112
1081	0.8026
1090	0.7817
1099	0.7543
1108	0.782
1117	0.8069
1126	0.8049
1135	0.7822
1144	0.7483
1153	0.7085
1162	0.6721
1171	0.6404
1180	0.607
1189	0.5796
1198	0.557
1207	0.534
1216	0.5126
1225	0.4925
1234	0.5447
1243	0.5315
1252	0.4354
1261	0.4858
1270	0.5855
1279	0.5998
1288	0.5996
1297	0.6276
1306	0.6866
1315	0.6894
1324	0.6565
1333	0.6641
1342	0.6874
1351	0.7394
1360	0.7568
1369	0.7521
1378	0.7282
1387	0.6853
1396	0.6342
1405	0.5706
1414	0.5111
1423	0.5159
1432	0.5819
1441	0.6423
1450	0.7176
1459	0.7573
1468	0.7825
1477	0.8013
1486	0.8176
1495	0.8257
1504	0.8262
1513	0.8271
1522	0.8292
1531	0.8309
1540	0.8303
1549	0.8298
1558	0.8309
1567	0.8308
1576	0.8263
1585	0.8191
1594	0.8091
1603	0.796
1612	0.7793
1621	0.7627
1630	0.742
1639	0.7174
1648	0.6899
1657	0.6535
1666	0.619
1675	0.5676
1684	0.416
1693	0.1568
1702	0.1005
1711	0.1099
1720	0.2348
1729	0.4233
1738	0.4966
1747	0.5989
1756	0.6986
1765	0.7585
1774	0.783
1783	0.7937
1792	0.802
1801	0.8065
1810	0.8097
1819	0.8125
1828	0.8146
1837	0.8198
1846	0.8265
1855	0.8276
1864	0.8282
1873	0.8287
1882	0.8292
1891	0.8297
1900	0.8302
1909	0.8307
1918	0.8312
1927	0.8316
1936	0.8318
1945	0.8321
1954	0.8324
1963	0.8327
1972	0.8328
1981	0.8326
1990	0.833
1999	0.8366
2008	0.8402
2017	0.8431
2026	0.8443
2035	0.8438
2044	0.8432
2053	0.8426
2062	0.8419
2071	0.8412
2080	0.8406
2089	0.8401
2098	0.8396
2107	0.8391
2116	0.8386
2125	0.8384
2134	0.8384
2143	0.8384
2152	0.8383
2161	0.8392
2170	0.8406
2179	0.8428
2188	0.8436
2197	0.8425
2206	0.8411
2215	0.84
2224	0.839
2233	0.8379
2242	0.8359
2251	0.8337
2260	0.8315
2269	0.8283
2278	0.8252
2287	0.822
2296	0.8189
2305	0.8158
2314	0.8127
2323	0.8095
2332	0.8064
2341	0.8032
2350	0.8
2359	0.7975
2368	0.7957
2377	0.7955
2386	0.7957
2395	0.7968
2404	0.7963
2413	0.7937
2422	0.7884
2431	0.7825
2440	0.7766
2449	0.7688
2458	0.7609
2467	0.7526
2476	0.7433
2485	0.7332
2494	0.7215
2503	0.7089
2512	0.6987
2521	0.6887
2530	0.6802
2539	0.6744
2548	0.67
2557	0.6695
2566	0.669
2575	0.6681
2584	0.6657
2593	0.6606
2602	0.6549
2611	0.6493
2620	0.6437
2629	0.6391
2638	0.6376
2647	0.6371
2656	0.6382
2665	0.641
2674	0.6449
2683	0.6521
2692	0.6581
2701	0.6596
2710	0.658
2719	0.6541
2728	0.6477
2737	0.6446
2746	0.6425
2755	0.6406
2764	0.6382
2773	0.6352
2782	0.6306
2791	0.6227
2800	0.6114
2809	0.5994
2818	0.5874
2827	0.5731
2836	0.5555
2845	0.5397
2854	0.5201
2863	0.4944
2872	0.4842
2881	0.4776
2890	0.4712
2899	0.4628
2908	0.4529
2917	0.4393
2926	0.4096
2935	0.3886
2944	0.3662
2953	0.3571
2962	0.3584
2971	0.3628
2980	0.3715
2989	0.3793
2998	0.3941
3007	0.4194
3016	0.4446
3025	0.4697
3034	0.489
3043	0.4925
3052	0.496
3061	0.4978
3070	0.4994
3079	0.5011
3088	0.5026
3097	0.5035
3106	0.5046
3115	0.5074
3124	0.5105
3133	0.5169
3142	0.5239
3151	0.5329
3160	0.5418
3169	0.552
3178	0.5626
3187	0.5745
3196	0.5882
3205	0.6018
3214	0.6115
3223	0.6207
3232	0.63
3241	0.6388
3250	0.6473
3259	0.6559
3268	0.6645
3277	0.6738
3286	0.6832
3295	0.6926
3304	0.702
3313	0.7125
3322	0.7232
3331	0.7328
3340	0.7388
3349	0.7446
3358	0.7504
3367	0.7562
3376	0.7617
3385	0.7664
3394	0.7711
3403	0.7759
3412	0.7805
3421	0.7851
3430	0.7891
3439	0.793
3448	0.7968
3457	0.8007
3466	0.8043
3475	0.8074
3484	0.8104
3493	0.8134
3502	0.8163
3511	0.8191
3520	0.8217
3529	0.8244
3538	0.827
3547	0.8297
3556	0.8323
3565	0.8351
3574	0.8378
3583	0.8405
3592	0.8433
3601	0.8459
3610	0.8487
3619	0.8516
3628	0.8545
3637	0.8575
3646	0.8604
3655	0.8629
3664	0.8646
3673	0.8663
3682	0.8678
3691	0.8684
3700	0.8691
3709	0.8697
3718	0.8704
3727	0.8707
3736	0.8708
3745	0.8709
3754	0.871
3763	0.871
3772	0.8711
3781	0.8712
3790	0.8712
3799	0.8712
3808	0.8712
3817	0.8713
3826	0.8713
3835	0.8713
3844	0.8713
3853	0.8713
3862	0.8712
3871	0.8711
3880	0.8711
3889	0.871
3898	0.8709
3907	0.8708
3916	0.8708
3925	0.8708
3934	0.8708
3943	0.8708
3952	0.8708
3961	0.8709
3970	0.8709
3979	0.8709
3988	0.8709
3997	0.8709
