Infrared Spectrum: 2-Hexanol, 2,5-dimethyl-
Formula: C8 H18 O
CAS: 3730-60-7
State: SOLUTION (10% CCl4 FOR 3800-1330, 10% CS2 FOR 1330-400 CM^-^1)
Class: COBLENTZ III
Instrument: BECKMAN IR-9 (GRATING)
Instrument parameters: ORDER CHANGES: 670, 1200, 2000 CM^-^1
Sampling: TRANSMISSION
Path length: 0.011 CM, 0.011 CM
Resolution: 2
Origin: DOW CHEMICAL COMPANY
1/CM	TRANSMITTANCE
406	0.2497
415	0.2575
424	0.4122
433	0.5138
442	0.5858
451	0.6289
460	0.6628
469	0.6966
478	0.7231
487	0.7453
496	0.7234
505	0.7111
514	0.7381
523	0.7632
532	0.7646
541	0.7527
550	0.7693
559	0.768
568	0.7724
577	0.7779
586	0.7766
595	0.7762
604	0.7757
613	0.7761
622	0.7766
631	0.7771
640	0.7764
649	0.7731
658	0.7639
667	0.7932
676	0.8209
685	0.8389
694	0.8526
703	0.8562
712	0.8728
721	0.8768
730	0.8784
739	0.8781
748	0.8629
757	0.7885
766	0.7555
775	0.7633
784	0.8327
793	0.8752
802	0.8967
811	0.9041
820	0.909
829	0.8651
838	0.8685
847	0.8558
856	0.7808
865	0.7661
874	0.7877
883	0.8064
892	0.7945
901	0.512
910	0.2219
919	0.4211
928	0.5808
937	0.7048
946	0.7049
955	0.7408
964	0.8071
973	0.735
982	0.6742
991	0.8286
1000	0.8545
1009	0.8728
1018	0.8913
1027	0.8923
1036	0.881
1045	0.854
1054	0.8177
1063	0.7981
1072	0.6941
1081	0.4654
1090	0.5743
1099	0.6085
1108	0.4363
1117	0.4572
1126	0.6646
1135	0.5576
1144	0.3982
1153	0.3227
1162	0.324
1171	0.3119
1180	0.3655
1189	0.5022
1198	0.5849
1207	0.5851
1216	0.5515
1225	0.4594
1234	0.4707
1243	0.563
1252	0.6451
1261	0.6793
1270	0.6003
1279	0.6932
1288	0.7039
1297	0.6504
1306	0.636
1315	0.6399
1324	0.5408
1333	0.5364
1342	0.5106
1351	0.5426
1360	0.4104
1369	0.0992
1378	0.2109
1387	0.2604
1396	0.5231
1405	0.5936
1414	0.65
1423	0.6824
1432	0.6884
1441	0.655
1450	0.4991
1459	0.3814
1468	0.1282
1477	0.47
1486	0.6454
1495	0.7034
1504	0.7002
1513	0.678
1522	0.6408
1531	0.588
1540	0.5171
1549	0.4712
1558	0.4782
1567	0.5773
1576	0.6089
1585	0.6232
1594	0.6649
1603	0.7381
1612	0.7914
1621	0.8118
1630	0.823
1639	0.8325
1648	0.8394
1657	0.843
1666	0.8445
1675	0.8453
1684	0.852
1693	0.8535
1702	0.8545
1711	0.8546
1720	0.8554
1729	0.8564
1738	0.8578
1747	0.8609
1756	0.8645
1765	0.8683
1774	0.8718
1783	0.8737
1792	0.8741
1801	0.8723
1810	0.8683
1819	0.8642
1828	0.8638
1837	0.8648
1846	0.8663
1855	0.868
1864	0.869
1873	0.87
1882	0.8716
1891	0.873
1900	0.874
1909	0.8746
1918	0.8752
1927	0.8759
1936	0.877
1945	0.8785
1954	0.8794
1963	0.8796
1972	0.8796
1981	0.8792
1990	0.8769
1999	0.874
2008	0.8712
2017	0.8698
2026	0.8694
2035	0.869
2044	0.8696
2053	0.8701
2062	0.8707
2071	0.8715
2080	0.8726
2089	0.8736
2098	0.8736
2107	0.8731
2116	0.8728
2125	0.8725
2134	0.8732
2143	0.874
2152	0.8748
2161	0.8756
2170	0.8765
2179	0.8759
2188	0.8749
2197	0.8739
2206	0.8734
2215	0.8729
2224	0.8724
2233	0.8719
2242	0.8711
2251	0.8699
2260	0.8665
2269	0.862
2278	0.8562
2287	0.8503
2296	0.8477
2305	0.8476
2314	0.8498
2323	0.8524
2332	0.8548
2341	0.8569
2350	0.8589
2359	0.8609
2368	0.8622
2377	0.8627
2386	0.8634
2395	0.8639
2404	0.8646
2413	0.8647
2422	0.8647
2431	0.8647
2440	0.8648
2449	0.8648
2458	0.865
2467	0.8651
2476	0.8646
2485	0.8639
2494	0.8633
2503	0.8621
2512	0.8604
2521	0.8587
2530	0.857
2539	0.855
2548	0.8529
2557	0.8507
2566	0.8485
2575	0.8453
2584	0.8423
2593	0.8389
2602	0.8353
2611	0.8323
2620	0.8298
2629	0.8275
2638	0.8293
2647	0.8313
2656	0.833
2665	0.8346
2674	0.8362
2683	0.8363
2692	0.8346
2701	0.8278
2710	0.8161
2719	0.8012
2728	0.7943
2737	0.8012
2746	0.8115
2755	0.8109
2764	0.8049
2773	0.8008
2782	0.7922
2791	0.7791
2800	0.7602
2809	0.7367
2818	0.7071
2827	0.6714
2836	0.6273
2845	0.4523
2854	0.3388
2863	0.1254
2872	0.1181
2881	0.1853
2890	0.2215
2899	0.168
2908	0.1159
2917	0.0664
2926	0.0261
2935	0.0218
2944	0.0324
2953	0.0184
2962	0.0047
2971	0.0076
2980	0.0962
2989	0.343
2998	0.5301
3007	0.6295
3016	0.6943
3025	0.741
3034	0.7746
3043	0.7933
3052	0.8036
3061	0.8098
3070	0.8137
3079	0.8166
3088	0.818
3097	0.8192
3106	0.82
3115	0.8194
3124	0.8169
3133	0.8121
3142	0.8063
3151	0.7988
3160	0.7898
3169	0.781
3178	0.7722
3187	0.7627
3196	0.7532
3205	0.7427
3214	0.7324
3223	0.7213
3232	0.7095
3241	0.6965
3250	0.6795
3259	0.661
3268	0.6413
3277	0.6197
3286	0.5955
3295	0.5678
3304	0.5381
3313	0.508
3322	0.4809
3331	0.4604
3340	0.4398
3349	0.4233
3358	0.4101
3367	0.4046
3376	0.399
3385	0.3977
3394	0.3998
3403	0.4045
3412	0.4105
3421	0.4187
3430	0.4256
3439	0.4327
3448	0.4421
3457	0.4499
3466	0.4585
3475	0.4684
3484	0.4812
3493	0.4965
3502	0.5153
3511	0.5426
3520	0.5899
3529	0.6276
3538	0.6683
3547	0.6994
3556	0.7286
3565	0.7628
3574	0.7862
3583	0.7813
3592	0.783
3601	0.7146
3610	0.6026
3619	0.5296
3628	0.6829
3637	0.802
3646	0.8221
3655	0.837
3664	0.8439
3673	0.8442
3682	0.8353
3691	0.8361
3700	0.8536
3709	0.8621
3718	0.8651
3727	0.8669
3736	0.8683
3745	0.8693
3754	0.87
3763	0.8704
3772	0.8706
3781	0.8703
3790	0.8701
3799	0.8696
