Infrared Spectrum: OCTANOIC ACID, PERFLUORO-, METHYL ESTER
Formula: C9 H3 F15 O2
CAS: 376-27-2
State: LIQUID (NEAT)
Class: COBLENTZ III
Instrument: PERKIN-ELMER 521 (GRATING)
Instrument parameters: FILTERS AT 3150, 2500, 2000, 1150, 700, 410 AND GRATING CHANGES AT 2000, 630 CM^-^1
Sampling: TRANSMISSION
Path length: SMEAR
Resolution: 4
Origin: STANDARD OIL OF OHIO
1/CM	TRANSMITTANCE
236.641	0
246.183	0
255.725	0
265.267	0
274.809	0
284.351	0
293.893	0
303.435	0
312.977	0
322.519	0
332.061	0
341.603	0
351.145	0
360.687	0
370.229	0
379.771	0
389.313	0.004
398.855	0.047
408.397	0.027
417.939	0.015
427.481	0.009
437.023	0.009
446.565	0.007
456.107	0.008
465.649	0.005
475.191	0.013
484.733	0.029
494.275	0.036
503.817	0.049
513.359	0.067
522.901	0.089
532.443	0.123
541.985	0.174
551.527	0.193
561.069	0.234
570.611	0.305
580.153	0.361
589.695	0.425
599.237	0.462
608.779	0.501
618.321	0.527
627.863	0.529
637.405	0.533
646.947	0.62
656.489	0.568
666.031	0.542
675.573	0.681
685.115	0.725
694.657	0.613
704.199	0.709
713.741	0.64
723.283	0.624
732.825	0.596
742.367	0.5611
751.909	0.796
761.451	0.814
770.993	0.757
780.535	0.777
790.077	0.781
799.619	0.708
809.161	0.663
818.703	0.791
828.245	0.845
837.787	0.81
847.329	0.889
856.871	0.884
866.413	0.871
875.955	0.801
885.497	0.804
895.039	0.856
904.581	0.868
914.123	0.881
923.665	0.872
933.207	0.866
942.749	0.831
952.291	0.793
961.833	0.838
971.375	0.844
980.917	0.737
990.459	0.775
1000	0.75
1009.54	0.608
1019.09	0.557
1028.63	0.671
1038.17	0.813
1047.71	0.807
1057.25	0.781
1066.8	0.719
1076.34	0.665
1085.88	0.633
1095.42	0.747
1104.96	0.706
1114.51	0.634
1124.05	0.3419
1133.59	0.181
1143.13	0.104
1152.67	0.202
1162.22	0.317
1171.76	0.21
1181.3	0.151
1190.84	0.08
1200.38	0.042
1209.93	0.047
1219.47	0.066
1229.01	0.064
1238.55	0.052
1248.09	0.076
1257.64	0.184
1267.18	0.309
1276.72	0.394
1286.26	0.454
1295.8	0.475
1305.35	0.483
1314.89	0.432
1324.43	0.354
1333.97	0.4071
1343.51	0.593
1353.06	0.667
1362.6	0.697
1372.14	0.794
1381.68	0.831
1391.22	0.845
1400.77	0.847
1410.31	0.846
1419.85	0.841
1429.39	0.821
1438.93	0.583
1448.48	0.756
1458.02	0.785
1467.56	0.838
1477.1	0.852
1486.64	0.862
1496.19	0.862
1505.73	0.864
1515.27	0.866
1524.81	0.866
1534.35	0.864
1543.9	0.865
1553.44	0.866
1562.98	0.866
1572.52	0.869
1582.06	0.872
1591.61	0.872
1601.15	0.873
1610.69	0.871
1620.23	0.872
1629.77	0.871
1639.32	0.872
1648.86	0.868
1658.4	0.87
1667.94	0.869
1677.48	0.866
1687.03	0.868
1696.57	0.866
1706.11	0.868
1715.65	0.864
1725.19	0.857
1734.74	0.833
1744.28	0.818
1753.82	0.797
1763.36	0.725
1772.9	0.4689
1782.45	0.161
1791.99	0.2311
1801.53	0.6361
1811.07	0.785
1820.61	0.819
1830.16	0.84
1839.7	0.85
1849.24	0.86
1858.78	0.864
1868.32	0.866
1877.87	0.868
1887.41	0.868
1896.95	0.869
1906.49	0.87
1916.03	0.872
1925.58	0.871
1935.12	0.872
1944.66	0.872
1954.2	0.873
1963.74	0.872
1973.29	0.873
1982.83	0.873
1992.37	0.873
2001.91	0.875
2011.45	0.875
2021	0.876
2030.54	0.876
2040.08	0.876
2049.62	0.876
2059.16	0.876
2068.71	0.876
2078.25	0.8751
2087.79	0.876
2097.33	0.876
2106.87	0.8761
2116.42	0.876
2125.96	0.8751
2135.5	0.876
2145.04	0.8761
2154.58	0.877
2164.13	0.876
2173.67	0.8771
2183.21	0.877
2192.75	0.876
2202.29	0.876
2211.84	0.877
2221.38	0.876
2230.92	0.876
2240.46	0.8752
2250	0.875
2259.55	0.8734
2269.09	0.875
2278.63	0.873
2288.17	0.8746
2297.71	0.869
2307.26	0.8682
2316.8	0.8642
2326.34	0.862
2335.88	0.862
2345.42	0.8642
2354.97	0.8588
2364.51	0.862
2374.05	0.866
2383.59	0.866
2393.13	0.868
2402.68	0.868
2412.22	0.869
2421.76	0.868
2431.3	0.869
2440.84	0.869
2450.39	0.87
2459.93	0.869
2469.47	0.8697
2479.01	0.87
2488.55	0.8643
2498.1	0.8647
2507.64	0.864
2517.18	0.8647
2526.72	0.865
2536.26	0.866
2545.81	0.866
2555.35	0.866
2564.89	0.8656
2574.43	0.865
2583.97	0.8644
2593.52	0.865
2603.06	0.866
2612.6	0.866
2622.14	0.869
2631.68	0.869
2641.23	0.87
2650.77	0.87
2660.31	0.87
2669.85	0.871
2679.39	0.871
2688.94	0.871
2698.48	0.871
2708.02	0.871
2717.56	0.871
2727.1	0.871
2736.65	0.871
2746.19	0.8705
2755.73	0.87
2765.27	0.8705
2774.81	0.871
2784.36	0.87
2793.9	0.869
2803.44	0.8705
2812.98	0.8695
2822.52	0.869
2832.07	0.868
2841.61	0.866
2851.15	0.8577
2860.69	0.8523
2870.23	0.864
2879.78	0.864
2889.32	0.8612
2898.86	0.859
2908.4	0.8594
2917.94	0.862
2927.49	0.86
2937.03	0.8586
2946.57	0.8526
2956.11	0.8407
2965.65	0.7779
2975.2	0.8192
2984.74	0.853
2994.28	0.854
3003.82	0.8523
3013.36	0.847
3022.91	0.846
3032.45	0.8506
3041.99	0.854
3051.53	0.856
3061.07	0.8606
3070.62	0.863
3080.16	0.864
3089.7	0.8637
3099.24	0.864
3108.78	0.864
3118.33	0.8647
3127.87	0.8658
3137.41	0.87
3146.95	0.872
3156.49	0.872
3166.04	0.871
3175.58	0.8702
3185.12	0.87
3194.66	0.87
3204.2	0.8702
3213.75	0.8698
3223.29	0.869
3232.83	0.8688
3242.37	0.8692
3251.91	0.87
3261.46	0.869
3271	0.869
3280.54	0.869
3290.08	0.869
3299.62	0.868
3309.17	0.868
3318.71	0.8678
3328.25	0.868
3337.79	0.868
3347.33	0.868
3356.88	0.868
3366.42	0.868
3375.96	0.868
3385.5	0.866
3395.04	0.865
3404.59	0.865
3414.13	0.8661
3423.67	0.866
3433.21	0.864
3442.75	0.868
3452.3	0.866
3461.84	0.868
3471.38	0.868
3480.92	0.865
3490.46	0.868
3500.01	0.869
3509.55	0.868
3519.09	0.868
3528.63	0.866
3538.17	0.863
3547.72	0.859
3557.26	0.858
3566.8	0.858
3576.34	0.859
3585.88	0.8618
3595.43	0.8679
3604.97	0.869
3614.51	0.866
3624.05	0.869
3633.59	0.8675
3643.14	0.8681
3652.68	0.866
3662.22	0.87
3671.76	0.8621
3681.3	0.8689
3690.85	0.8659
3700.39	0.8681
3709.93	0.8641
3719.47	0.8681
3729.01	0.868
3738.56	0.8638
3748.1	0.8617
3757.64	0.866
3767.18	0.868
3776.72	0.869
3786.27	0.869
3795.81	0.8664
3805.35	0.863
3814.89	0.864
3824.43	0.8638
3833.98	0.863
3843.52	0.8648
3853.06	0.8532
3862.6	0.8635
3872.14	0.8658
3881.69	0.868
3891.23	0.865
3900.77	0.8675
