Infrared Spectrum: Alpha-NONENOIC ACID
Formula: C9 H16 O2
CAS: 3760-11-0
State: LIQUID
Class: COBLENTZ
Instrument: PERKIN-ELMER
Sampling: TRANSMISSION
Path length: CAPILLARY
Resolution: 4
Origin: ABBOTT LABORATORIES - WASHBURN
MICROMETERS	TRANSMITTANCE
2.032	0.879
2.0721	0.884
2.11221	0.889
2.15231	0.8872
2.19242	0.889
2.23252	0.891
2.27262	0.8797
2.31273	0.864
2.35283	0.869
2.39294	0.869
2.43304	0.874
2.47314	0.877
2.51325	0.881
2.55335	0.8789
2.59345	0.891
2.63356	0.889
2.67366	0.8792
2.71377	0.8788
2.75387	0.8742
2.79397	0.8639
2.83408	0.854
2.87418	0.834
2.91429	0.8002
2.95439	0.7455
2.99449	0.6834
3.0346	0.6048
3.0747	0.5427
3.11481	0.4681
3.15491	0.4094
3.19501	0.3547
3.23512	0.3159
3.27522	0.283
3.31532	0.2412
3.35543	0.1394
3.39553	0.1276
3.43564	0.1648
3.47574	0.1961
3.51584	0.3081
3.55595	0.4049
3.59605	0.45
3.63616	0.457
3.67626	0.44
3.71636	0.425
3.75647	0.4369
3.79657	0.4469
3.83668	0.453
3.87678	0.46
3.91688	0.4744
3.95699	0.5141
3.99709	0.5655
4.03719	0.6141
4.0773	0.6511
4.1174	0.678
4.15751	0.7059
4.19761	0.7159
4.23771	0.738
4.27782	0.7469
4.31792	0.755
4.35803	0.7579
4.39813	0.772
4.43823	0.7779
4.47834	0.7879
4.51844	0.787
4.55855	0.793
4.59865	0.792
4.63875	0.795
4.67886	0.798
4.71896	0.8
4.75906	0.8041
4.79917	0.809
4.83927	0.812
4.87938	0.81
4.91948	0.807
4.95958	0.802
4.99969	0.797
5.03979	0.7882
5.0799	0.7871
5.12	0.7771
5.1601	0.777
5.20021	0.7673
5.24031	0.762
5.28042	0.7589
5.32052	0.757
5.36062	0.747
5.40073	0.7475
5.44083	0.743
5.48093	0.74
5.52104	0.733
5.56114	0.7251
5.60125	0.721
5.64135	0.7125
5.68145	0.6751
5.72156	0.5479
5.76166	0.3993
5.80177	0.1266
5.84187	0.0656
5.88197	0.0658
5.92208	0.2465
5.96218	0.3005
6.00229	0.1483
6.04239	0.1764
6.08249	0.3304
6.1226	0.4311
6.1627	0.5014
6.2028	0.5419
6.24291	0.5832
6.28301	0.6394
6.32312	0.7004
6.36322	0.73
6.40332	0.7476
6.44343	0.76
6.48353	0.775
6.52364	0.77
6.56374	0.775
6.60384	0.77
6.64395	0.765
6.68405	0.753
6.72416	0.7314
6.76426	0.667
6.80436	0.4607
6.84447	0.4623
6.88457	0.4947
6.92467	0.4583
6.96478	0.3812
7.00488	0.2378
7.04499	0.2276
7.08509	0.358
7.12519	0.5083
7.1653	0.6149
7.2054	0.6333
7.24551	0.579
7.28561	0.5886
7.32571	0.5587
7.36582	0.567
7.40592	0.5917
7.44603	0.5491
7.48613	0.5022
7.52623	0.4285
7.56634	0.3287
7.60644	0.2441
7.64654	0.222
7.68665	0.2384
7.72675	0.209
7.76686	0.187
7.80696	0.2307
7.84706	0.299
7.88717	0.3803
7.92727	0.444
7.96738	0.4594
8.00748	0.492
8.04758	0.5214
8.08769	0.4401
8.12779	0.3738
8.1679	0.3925
8.208	0.4502
8.2481	0.4725
8.28821	0.5051
8.32831	0.5663
8.36841	0.6234
8.40852	0.6407
8.44862	0.6539
8.48873	0.6532
8.52883	0.6587
8.56893	0.6784
8.60904	0.7068
8.64914	0.7286
8.68925	0.7568
8.72935	0.772
8.76945	0.7661
8.80956	0.7282
8.84966	0.6897
8.88977	0.6806
8.92987	0.697
8.96997	0.7152
9.01008	0.7301
9.05018	0.7603
9.09029	0.7831
9.13039	0.8
9.17049	0.8001
9.2106	0.793
9.2507	0.7772
9.2908	0.767
9.33091	0.7584
9.37101	0.7522
9.41112	0.7407
9.45122	0.7217
9.49132	0.72
9.53143	0.7284
9.57153	0.745
9.61164	0.75
9.65174	0.748
9.69184	0.7493
9.73195	0.7393
9.77205	0.7294
9.81216	0.7125
9.85226	0.7008
9.89236	0.6897
9.93247	0.6793
9.97257	0.6585
10.0127	0.6361
10.0528	0.5962
10.0929	0.5418
10.133	0.4768
10.1731	0.4136
10.2132	0.3558
10.2533	0.3687
10.2934	0.4411
10.3335	0.5022
10.3736	0.522
10.4137	0.5094
10.4538	0.487
10.4939	0.4551
10.534	0.429
10.5741	0.408
10.6142	0.403
10.6543	0.398
10.6944	0.402
10.7345	0.4035
10.7746	0.4172
10.8148	0.4471
10.8549	0.4581
10.895	0.4817
10.9351	0.5131
10.9752	0.5334
11.0153	0.5533
11.0554	0.5664
11.0955	0.5833
11.1356	0.587
11.1757	0.5821
11.2158	0.575
11.2559	0.5749
11.296	0.5731
11.3361	0.5899
11.3762	0.6134
11.4163	0.6294
11.4564	0.643
11.4965	0.6487
11.5366	0.653
11.5767	0.651
11.6168	0.6529
11.6569	0.649
11.697	0.646
11.7371	0.659
11.7772	0.6696
11.8173	0.6989
11.8575	0.7139
11.8976	0.7308
11.9377	0.7377
11.9778	0.7476
12.0179	0.752
12.058	0.7576
12.0981	0.76
12.1382	0.7584
12.1783	0.765
12.2184	0.7724
12.2585	0.7693
12.2986	0.7672
12.3387	0.7637
12.3788	0.77
12.4189	0.7778
12.459	0.782
12.4991	0.787
12.5392	0.788
12.5793	0.7869
12.6194	0.787
12.6595	0.7879
12.6996	0.7873
12.7397	0.792
12.7798	0.7923
12.8199	0.793
12.8601	0.7793
12.9002	0.7598
12.9403	0.761
12.9804	0.7885
13.0205	0.792
13.0606	0.788
13.1007	0.79
13.1408	0.787
13.1809	0.7806
13.221	0.7883
13.2611	0.79
13.3012	0.787
13.3413	0.792
13.3814	0.787
13.4215	0.785
13.4616	0.777
13.5017	0.778
13.5418	0.768
13.5819	0.7592
13.622	0.7423
13.6621	0.724
13.7022	0.7067
13.7423	0.685
13.7824	0.68
13.8225	0.6905
13.8626	0.7069
13.9028	0.7153
13.9429	0.721
13.983	0.7195
14.0231	0.708
14.0632	0.6953
14.1033	0.6658
14.1434	0.6488
14.1835	0.629
14.2236	0.614
14.2637	0.614
14.3038	0.613
14.3439	0.596
14.384	0.5749
14.4241	0.5562
14.4642	0.5464
14.5043	0.542
14.5444	0.542
14.5845	0.5582
14.6246	0.5716
14.6647	0.5964
14.7048	0.6151
14.7449	0.6299
14.785	0.6395
14.8251	0.643
14.8652	0.644
14.9053	0.6476
14.9455	0.6493
14.9856	0.6661
15.0257	0.666
15.0658	0.658
15.1059	0.664
15.146	0.666
15.1861	0.666
15.2262	0.663
15.2663	0.666
15.3064	0.6687
15.3465	0.6619
15.3866	0.6622
15.4267	0.6619
