Infrared Spectrum: 2-(t-BUTYL AMINO) ETHANOL, METHACRYLATE
Formula: C10 H19 N O2
CAS: 3775-90-4
State: SOLUTION (5.2% IN CCl4 FOR 3800-1300, 5.15% IN 2,2,4-TMP FOR 1300-600, AND 5.2% IN CCl4 FOR 600-250 CM^-^1) VERSUS SOLVENT
Class: COBLENTZ
Instrument: Not specified, most likely a grating or hybrid spectrometer.
Sampling: TRANSMISSION
Path length: 0.010, 0.010, AND 0.0194 CM (CsBr CELL)
Resolution: 4
Origin: DOW CORNING CORP.
1/CM	TRANSMITTANCE
228.48	0.795
237.44	0.796
246.4	0.802
255.36	0.803
264.32	0.796
273.28	0.795
282.24	0.795
291.2	0.791
300.16	0.788
309.12	0.786
318.08	0.81
327.04	0.809
336	0.793
344.96	0.746
353.92	0.741
362.88	0.76
371.84	0.767
380.8	0.756
389.76	0.774
398.72	0.779
407.681	0.777
416.641	0.76
425.601	0.786
434.561	0.767
443.521	0.7151
452.481	0.677
461.441	0.743
470.401	0.772
479.361	0.795
488.321	0.8
497.281	0.798
506.241	0.767
515.201	0.753
524.161	0.782
533.121	0.743
542.081	0.748
551.041	0.77
560.001	0.798
568.961	0.81
577.921	0.81
586.881	0.793
595.841	0.776
604.801	0.795
613.761	0.817
622.721	0.814
631.681	0.789
640.641	0.758
649.601	0.706
658.561	0.715
667.521	0.734
676.481	0.741
685.441	0.72
694.401	0.685
703.361	0.616
712.321	0.602
721.281	0.7149
730.241	0.776
739.201	0.821
748.161	0.809
757.121	0.76
766.082	0.767
775.042	0.814
784.002	0.824
792.962	0.815
801.922	0.7821
810.882	0.5931
819.842	0.743
828.802	0.814
837.762	0.815
846.722	0.822
855.682	0.829
864.642	0.835
873.602	0.828
882.562	0.829
891.522	0.796
900.482	0.805
909.442	0.822
918.402	0.798
927.362	0.7101
936.322	0.3971
945.282	0.5501
954.242	0.788
963.202	0.796
972.162	0.751
981.122	0.729
990.082	0.746
999.042	0.751
1008	0.6842
1016.96	0.501
1025.92	0.71
1034.88	0.769
1043.84	0.732
1052.8	0.772
1061.76	0.847
1070.72	0.852
1079.68	0.848
1088.64	0.817
1097.6	0.795
1106.56	0.777
1115.52	0.68
1124.48	0.619
1133.44	0.651
1142.4	0.5201
1151.36	0.256
1160.32	0.026
1169.28	0.071
1178.24	0.173
1187.2	0.3549
1196.16	0.482
1205.12	0.55
1214.08	0.538
1223.04	0.456
1232	0.442
1240.96	0.631
1249.92	0.701
1258.88	0.718
1267.84	0.734
1276.8	0.71
1285.76	0.631
1294.72	0.262
1303.68	0.517
1312.64	0.4701
1321.6	0.282
1330.56	0.541
1339.52	0.6679
1348.48	0.711
1357.44	0.579
1366.4	0.4346
1375.36	0.651
1384.32	0.661
1393.28	0.5971
1402.24	0.604
1411.2	0.678
1420.16	0.734
1429.12	0.713
1438.08	0.595
1447.04	0.505
1456	0.4509
1464.96	0.526
1473.92	0.59
1482.88	0.585
1491.84	0.7229
1500.8	0.815
1509.76	0.842
1518.72	0.852
1527.68	0.852
1536.64	0.859
1545.6	0.861
1554.56	0.855
1563.52	0.85
1572.48	0.847
1581.44	0.838
1590.4	0.838
1599.36	0.835
1608.32	0.817
1617.28	0.786
1626.24	0.715
1635.2	0.638
1644.16	0.5968
1653.12	0.815
1662.08	0.815
1671.04	0.798
1680	0.763
1688.96	0.744
1697.92	0.708
1706.88	0.576
1715.84	0.2179
1724.8	0.017
1733.76	0.1559
1742.72	0.605
1751.68	0.741
1760.64	0.782
1769.6	0.812
1778.56	0.828
1787.52	0.84
1796.48	0.845
1805.44	0.852
1814.4	0.855
1823.36	0.855
1832.32	0.861
1841.28	0.861
1850.24	0.859
1859.2	0.859
1868.16	0.854
1877.12	0.845
1886.08	0.845
1895.04	0.854
1904	0.859
1912.96	0.861
1921.92	0.861
1930.88	0.862
1939.84	0.861
1948.8	0.864
1957.76	0.862
1966.72	0.862
1975.68	0.861
1984.64	0.861
1993.6	0.859
2002.56	0.871
2011.53	0.87
2020.49	0.869
2029.45	0.869
2038.41	0.869
2047.37	0.869
2056.33	0.871
2065.29	0.871
2074.25	0.8709
2083.21	0.8685
2092.17	0.866
2101.13	0.866
2110.09	0.866
2119.05	0.866
2128.01	0.866
2136.97	0.866
2145.93	0.864
2154.89	0.864
2163.85	0.864
2172.81	0.864
2181.77	0.864
2190.73	0.8614
2199.69	0.8611
2208.65	0.862
2217.61	0.862
2226.57	0.862
2235.53	0.861
2244.49	0.861
2253.45	0.861
2262.41	0.861
2271.37	0.859
2280.33	0.859
2289.29	0.859
2298.25	0.859
2307.21	0.857
2316.17	0.859
2325.13	0.859
2334.09	0.859
2343.05	0.859
2352.01	0.8556
2360.97	0.855
2369.93	0.857
2378.89	0.854
2387.85	0.854
2396.81	0.855
2405.77	0.8525
2414.73	0.852
2423.69	0.852
2432.65	0.852
2441.61	0.85
2450.57	0.848
2459.53	0.848
2468.49	0.847
2477.45	0.847
2486.41	0.847
2495.37	0.847
2504.33	0.847
2513.29	0.848
2522.25	0.848
2531.21	0.847
2540.17	0.8443
2549.13	0.843
2558.09	0.842
2567.05	0.842
2576.01	0.84
2584.97	0.84
2593.93	0.838
2602.89	0.836
2611.85	0.835
2620.81	0.835
2629.77	0.833
2638.73	0.833
2647.69	0.8322
2656.65	0.828
2665.61	0.824
2674.57	0.824
2683.53	0.8146
2692.49	0.812
2701.45	0.814
2710.41	0.814
2719.37	0.8145
2728.33	0.814
2737.29	0.812
2746.25	0.814
2755.21	0.814
2764.17	0.814
2773.13	0.813
2782.09	0.8051
2791.05	0.796
2800.01	0.788
2808.97	0.7675
2817.93	0.7509
2826.89	0.7067
2835.85	0.675
2844.81	0.6279
2853.77	0.6047
2862.73	0.5717
2871.69	0.5653
2880.65	0.579
2889.61	0.5758
2898.57	0.5469
2907.53	0.5341
2916.49	0.5447
2925.45	0.5038
2934.41	0.457
2943.37	0.4569
2952.33	0.3564
2961.29	0.1961
2970.25	0.174
2979.21	0.2129
2988.17	0.4176
2997.13	0.6035
3006.09	0.7198
3015.05	0.7694
3024.01	0.786
3032.97	0.8156
3041.93	0.8216
3050.89	0.8291
3059.85	0.842
3068.81	0.848
3077.77	0.848
3086.73	0.8447
3095.69	0.84
3104.65	0.8272
3113.61	0.8399
3122.57	0.8508
3131.53	0.854
3140.49	0.852
3149.45	0.852
3158.41	0.854
3167.37	0.852
3176.33	0.8525
3185.29	0.855
3194.25	0.857
3203.21	0.859
3212.17	0.8595
3221.13	0.859
3230.09	0.861
3239.05	0.861
3248.01	0.862
3256.97	0.8656
3265.93	0.866
3274.89	0.868
3283.85	0.866
3292.81	0.8644
3301.77	0.8617
3310.73	0.859
3319.69	0.855
3328.65	0.854
3337.61	0.855
3346.57	0.857
3355.53	0.8583
3364.49	0.859
3373.45	0.862
3382.41	0.8637
3391.37	0.864
3400.33	0.861
3409.29	0.857
3418.25	0.8552
3427.21	0.8528
3436.17	0.8588
3445.13	0.8684
3454.09	0.871
3463.05	0.8718
3472.01	0.875
3480.97	0.8754
3489.93	0.876
3498.89	0.8754
3507.85	0.8761
3516.81	0.878
3525.77	0.8779
3534.73	0.878
3543.69	0.8779
3552.65	0.878
3561.61	0.878
3570.57	0.8805
3579.53	0.887
3588.49	0.8805
3597.45	0.88
3606.41	0.879
3615.37	0.88
3624.33	0.883
3633.29	0.881
3642.25	0.883
3651.21	0.881
3660.17	0.881
3669.13	0.88
3678.09	0.88
3687.05	0.88
3696.01	0.881
3704.97	0.885
3713.93	0.8841
3722.89	0.885
3731.85	0.885
3740.81	0.887
3749.77	0.885
3758.73	0.883
3767.69	0.883
3776.65	0.883
3785.61	0.883
