Infrared Spectrum: 9-n-DODECYL-PHENANTHRENE
Formula: C26 H34
CAS: 3788-61-2
State: SOLUTION (50 g/L IN HEPTANE)
Class: COBLENTZ
Instrument: Not specified, most likely a prism, grating, or hybrid spectrometer.
Sampling: TRANSMISSION
Path length: 0.05 CM
Resolution: 4
Origin: CENTRE D'ETUDES NUCLEAIRES DE GRENOBLE
MICROMETERS	TRANSMITTANCE
14.964	0.936
15.0197	0.936
15.0754	0.934
15.1311	0.932
15.1867	0.929
15.2424	0.927
15.2981	0.931
15.3538	0.936
15.4095	0.939
15.4652	0.941
15.5209	0.943
15.5765	0.943
15.6322	0.943
15.6879	0.939
15.7436	0.938
15.7993	0.932
15.855	0.921
15.9107	0.907
15.9664	0.891
16.022	0.837
16.0777	0.819
16.1334	0.777
16.1891	0.775
16.2448	0.809
16.3005	0.874
16.3562	0.907
16.4118	0.938
16.4675	0.943
16.5232	0.943
16.5789	0.943
16.6346	0.944
16.6903	0.946
16.746	0.948
16.8016	0.946
16.8573	0.944
16.913	0.948
16.9687	0.951
17.0244	0.948
17.0801	0.946
17.1358	0.944
17.1914	0.943
17.2471	0.944
17.3028	0.946
17.3585	0.946
17.4142	0.943
17.4699	0.938
17.5256	0.936
17.5812	0.931
17.6369	0.927
17.6926	0.927
17.7483	0.931
17.804	0.934
17.8597	0.934
17.9154	0.938
17.9711	0.938
18.0267	0.941
18.0824	0.939
18.1381	0.938
18.1938	0.932
18.2495	0.927
18.3052	0.926
18.3609	0.924
18.4165	0.922
18.4722	0.922
18.5279	0.922
18.5836	0.926
18.6393	0.927
18.695	0.927
18.7507	0.927
18.8063	0.927
18.862	0.926
18.9177	0.924
18.9734	0.926
19.0291	0.929
19.0848	0.931
19.1405	0.929
19.1961	0.922
19.2518	0.919
19.3075	0.904
19.3632	0.891
19.4189	0.86
19.4746	0.822
19.5303	0.805
19.5859	0.783
19.6416	0.78
19.6973	0.795
19.753	0.819
19.8087	0.857
19.8644	0.876
19.9201	0.896
19.9758	0.907
20.0314	0.916
20.0871	0.927
20.1428	0.931
20.1985	0.936
20.2542	0.939
20.3099	0.943
20.3656	0.944
20.4212	0.946
20.4769	0.948
20.5326	0.946
20.5883	0.946
20.644	0.944
20.6997	0.946
20.7554	0.949
20.811	0.948
20.8667	0.946
20.9224	0.944
20.9781	0.943
21.0338	0.944
21.0895	0.946
21.1452	0.944
21.2008	0.944
21.2565	0.941
21.3122	0.941
21.3679	0.944
21.4236	0.943
21.4793	0.941
21.535	0.938
21.5906	0.939
21.6463	0.938
21.702	0.938
21.7577	0.941
21.8134	0.939
21.8691	0.941
21.9248	0.943
21.9805	0.939
22.0361	0.941
22.0918	0.941
22.1475	0.941
22.2032	0.939
22.2589	0.939
22.3146	0.943
22.3703	0.934
22.4259	0.932
22.4816	0.929
22.5373	0.921
22.593	0.917
22.6487	0.909
22.7044	0.901
22.7601	0.896
22.8157	0.867
22.8714	0.852
22.9271	0.825
22.9828	0.815
23.0385	0.782
23.0942	0.768
23.1499	0.758
23.2055	0.75
23.2612	0.743
23.3169	0.745
23.3726	0.75
23.4283	0.757
23.484	0.762
23.5397	0.767
23.5953	0.778
23.651	0.792
23.7067	0.804
23.7624	0.812
23.8181	0.835
23.8738	0.85
23.9295	0.855
23.9852	0.872
24.0408	0.879
24.0965	0.881
24.1522	0.881
24.2079	0.877
24.2636	0.874
24.3193	0.871
24.375	0.865
24.4306	0.871
24.4863	0.874
24.542	0.877
24.5977	0.886
24.6534	0.896
24.7091	0.907
24.7648	0.917
24.8204	0.924
24.8761	0.936
24.9318	0.948
24.9875	0.948
25.0432	0.948
25.0989	0.948
25.1546	0.949
25.2102	0.951
25.2659	0.954
25.3216	0.956
25.3773	0.956
25.433	0.956
25.4887	0.958
25.5444	0.958
25.6	0.958
25.6557	0.958
25.7114	0.961
25.7671	0.964
25.8228	0.963
25.8785	0.963
25.9342	0.964
25.9899	0.963
26.0455	0.961
26.1012	0.959
26.1569	0.959
26.2126	0.961
26.2683	0.958
26.324	0.961
26.3797	0.964
26.4353	0.969
26.491	0.964
26.5467	0.964
26.6024	0.963
26.6581	0.958
26.7138	0.964
26.7695	0.963
26.8251	0.959
26.8808	0.959
26.9365	0.963
26.9922	0.961
27.0479	0.963
27.1036	0.968
27.1593	0.964
27.2149	0.964
27.2706	0.964
27.3263	0.959
27.382	0.961
27.4377	0.963
27.4934	0.963
27.5491	0.964
27.6047	0.966
27.6604	0.961
27.7161	0.961
27.7718	0.963
27.8275	0.961
27.8832	0.964
27.9389	0.964
27.9946	0.968
28.0502	0.971
28.1059	0.971
28.1616	0.971
28.2173	0.971
28.273	0.973
28.3287	0.969
28.3844	0.966
28.44	0.968
28.4957	0.961
28.5514	0.961
28.6071	0.959
28.6628	0.963
28.7185	0.964
28.7742	0.966
28.8298	0.968
28.8855	0.971
28.9412	0.971
28.9969	0.971
29.0526	0.971
29.1083	0.963
29.164	0.961
29.2196	0.961
29.2753	0.961
29.331	0.959
29.3867	0.964
29.4424	0.958
29.4981	0.964
29.5538	0.961
29.6094	0.964
29.6651	0.964
29.7208	0.968
29.7765	0.968
29.8322	0.966
29.8879	0.964
29.9436	0.966
29.9993	0.966
30.0549	0.964
30.1106	0.966
30.1663	0.966
30.222	0.966
30.2777	0.964
30.3334	0.964
30.3891	0.966
30.4447	0.966
30.5004	0.963
30.5561	0.963
30.6118	0.964
30.6675	0.964
30.7232	0.966
30.7789	0.964
30.8345	0.969
30.8902	0.969
30.9459	0.973
31.0016	0.971
31.0573	0.969
31.113	0.963
31.1687	0.964
31.2243	0.964
31.28	0.963
31.3357	0.961
31.3914	0.959
31.4471	0.959
31.5028	0.961
31.5585	0.964
31.6141	0.963
31.6698	0.966
31.7255	0.968
31.7812	0.968
31.8369	0.969
31.8926	0.966
31.9483	0.968
32.004	0.963
32.0596	0.963
32.1153	0.961
32.171	0.958
32.2267	0.951
32.2824	0.949
32.3381	0.951
32.3938	0.951
32.4494	0.953
32.5051	0.958
32.5608	0.958
32.6165	0.963
32.6722	0.961
32.7279	0.961
32.7836	0.961
32.8392	0.959
32.8949	0.958
32.9506	0.956
33.0063	0.961
33.062	0.963
33.1177	0.954
33.1734	0.959
33.229	0.959
33.2847	0.958
33.3404	0.958
33.3961	0.961
33.4518	0.963
33.5075	0.963
33.5632	0.963
33.6188	0.961
33.6745	0.961
33.7302	0.959
33.7859	0.954
33.8416	0.954
33.8973	0.958
33.953	0.958
34.0087	0.956
34.0643	0.958
34.12	0.959
34.1757	0.954
34.2314	0.956
34.2871	0.954
34.3428	0.953
34.3985	0.948
34.4541	0.951
34.5098	0.951
34.5655	0.943
34.6212	0.939
34.6769	0.939
34.7326	0.936
34.7883	0.932
34.8439	0.929
34.8996	0.924
34.9553	0.924
35.011	0.924
