Infrared Spectrum: 2-ETHYL BUTYL BROMIDE
Formula: C6 H13 Br
CAS: 3814-34-4
State: LIQUID
Class: COBLENTZ
Instrument: Not specified, most likely a prism, grating, or hybrid spectrometer.
Sampling: TRANSMISSION
Path length: 0.005 CM
Resolution: 4
Origin: WYANDOTTE CHEMICALS CORP., WYANDOTTE, MICHIGAN, USA
MICROMETERS	TRANSMITTANCE
2.034	0.991
2.07482	0.991
2.11564	0.988
2.15645	0.977
2.19727	0.909
2.23809	0.879
2.27891	0.889
2.31972	0.904
2.36054	0.918
2.40136	0.916
2.44218	0.943
2.48299	0.957
2.52381	0.964
2.56463	0.969
2.60545	0.974
2.64626	0.981
2.68708	0.977
2.7279	0.971
2.76872	0.959
2.80953	0.926
2.85035	0.923
2.89117	0.923
2.93199	0.914
2.9728	0.906
3.01362	0.909
3.05444	0.901
3.09526	0.897
3.13607	0.851
3.17689	0.836
3.21771	0.81
3.25853	0.773
3.29934	0.575
3.34016	0.119
3.38098	0.017
3.4218	0.02
3.46261	0.025
3.50343	0.047
3.54425	0.356
3.58507	0.659
3.62588	0.768
3.6667	0.741
3.70752	0.797
3.74834	0.817
3.78915	0.843
3.82997	0.872
3.87079	0.865
3.91161	0.897
3.95242	0.908
3.99324	0.911
4.03406	0.909
4.07488	0.908
4.1157	0.908
4.15651	0.909
4.19733	0.901
4.23815	0.902
4.27897	0.911
4.31978	0.914
4.3606	0.919
4.40142	0.918
4.44224	0.925
4.48305	0.926
4.52387	0.938
4.56469	0.935
4.60551	0.935
4.64632	0.938
4.68714	0.957
4.72796	0.964
4.76878	0.959
4.80959	0.957
4.85041	0.964
4.89123	0.967
4.93205	0.957
4.97286	0.96
5.01368	0.962
5.0545	0.96
5.09532	0.974
5.13613	0.969
5.17695	0.971
5.21777	0.965
5.25859	0.965
5.2994	0.969
5.34022	0.965
5.38104	0.96
5.42186	0.967
5.46267	0.96
5.50349	0.962
5.54431	0.959
5.58513	0.952
5.62594	0.947
5.66676	0.938
5.70758	0.918
5.7484	0.877
5.78921	0.807
5.83003	0.778
5.87085	0.848
5.91167	0.862
5.95249	0.853
5.9933	0.853
6.03412	0.848
6.07494	0.844
6.11576	0.848
6.15657	0.848
6.19739	0.853
6.23821	0.862
6.27903	0.87
6.31984	0.872
6.36066	0.87
6.40148	0.858
6.4423	0.858
6.48311	0.848
6.52393	0.827
6.56475	0.809
6.60557	0.785
6.64638	0.718
6.6872	0.604
6.72802	0.412
6.76884	0.081
6.80965	0.02
6.85047	0.049
6.89129	0.095
6.93211	0.097
6.97292	0.286
7.01374	0.562
7.05456	0.659
7.09538	0.674
7.13619	0.649
7.17701	0.47
7.21783	0.098
7.25865	0.269
7.29946	0.555
7.34028	0.55
7.3811	0.567
7.42192	0.488
7.46273	0.625
7.50355	0.698
7.54437	0.686
7.58519	0.604
7.626	0.555
7.66682	0.47
7.70764	0.567
7.74846	0.543
7.78927	0.386
7.83009	0.124
7.87091	0.039
7.91173	0.221
7.95255	0.293
7.99336	0.335
8.03418	0.434
8.075	0.396
8.11582	0.168
8.15663	0.037
8.19745	0.229
8.23827	0.505
8.27909	0.584
8.3199	0.616
8.36072	0.618
8.40154	0.543
8.44236	0.548
8.48317	0.614
8.52399	0.603
8.56481	0.603
8.60563	0.679
8.64644	0.696
8.68726	0.683
8.72808	0.678
8.7689	0.689
8.80971	0.703
8.85053	0.696
8.89135	0.688
8.93217	0.688
8.97298	0.686
9.0138	0.672
9.05462	0.678
9.09544	0.696
9.13625	0.672
9.17707	0.649
9.21789	0.618
9.25871	0.643
9.29952	0.655
9.34034	0.65
9.38116	0.678
9.42198	0.695
9.46279	0.681
9.50361	0.635
9.54443	0.56
9.58525	0.553
9.62606	0.606
9.66688	0.65
9.7077	0.667
9.74852	0.669
9.78933	0.65
9.83015	0.611
9.87097	0.608
9.91179	0.655
9.95261	0.706
9.99342	0.749
10.0342	0.756
10.0751	0.756
10.1159	0.746
10.1567	0.72
10.1975	0.691
10.2383	0.645
10.2791	0.555
10.32	0.5
10.3608	0.548
10.4016	0.534
10.4424	0.58
10.4832	0.657
10.5241	0.695
10.5649	0.705
10.6057	0.667
10.6465	0.557
10.6873	0.385
10.7281	0.35
10.769	0.514
10.8098	0.62
10.8506	0.621
10.8914	0.633
10.9322	0.647
10.973	0.71
11.0139	0.763
11.0547	0.788
11.0955	0.809
11.1363	0.816
11.1771	0.819
11.2179	0.817
11.2588	0.809
11.2996	0.793
11.3404	0.759
11.3812	0.734
11.422	0.741
11.4629	0.787
11.5037	0.819
11.5445	0.839
11.5853	0.851
11.6261	0.846
11.6669	0.846
11.7078	0.844
11.7486	0.839
11.7894	0.826
11.8302	0.807
11.871	0.77
11.9118	0.732
11.9527	0.706
11.9935	0.754
12.0343	0.792
12.0751	0.821
12.1159	0.836
12.1568	0.843
12.1976	0.833
12.2384	0.819
12.2792	0.809
12.32	0.787
12.3608	0.742
12.4017	0.698
12.4425	0.706
12.4833	0.729
12.5241	0.756
12.5649	0.768
12.6057	0.781
12.6466	0.77
12.6874	0.754
12.7282	0.72
12.769	0.657
12.8098	0.56
12.8507	0.427
12.8915	0.303
12.9323	0.281
12.9731	0.352
13.0139	0.398
13.0547	0.323
13.0956	0.229
13.1364	0.265
13.1772	0.388
13.218	0.49
13.2588	0.529
13.2996	0.524
13.3405	0.477
13.3813	0.431
13.4221	0.463
13.4629	0.567
13.5037	0.664
13.5445	0.727
13.5854	0.761
13.6262	0.783
13.667	0.792
13.7078	0.797
13.7486	0.793
13.7895	0.8
13.8303	0.812
13.8711	0.821
13.9119	0.836
13.9527	0.851
13.9935	0.858
14.0344	0.872
14.0752	0.875
14.116	0.877
14.1568	0.882
14.1976	0.887
14.2384	0.882
14.2793	0.887
14.3201	0.882
14.3609	0.879
14.4017	0.875
14.4425	0.877
14.4834	0.875
14.5242	0.873
14.565	0.867
14.6058	0.856
14.6466	0.844
14.6874	0.846
14.7283	0.839
14.7691	0.821
14.8099	0.814
14.8507	0.8
14.8915	0.78
14.9323	0.761
14.9732	0.739
15.014	0.705
15.0548	0.657
15.0956	0.597
15.1364	0.553
15.1773	0.528
15.2181	0.516
15.2589	0.519
15.2997	0.514
15.3405	0.494
15.3813	0.463
15.4222	0.441
15.463	0.432
15.5038	0.434
15.5446	0.461
15.5854	0.494
15.6262	0.533
15.6671	0.58
15.7079	0.625
15.7487	0.652
15.7895	0.676
15.8303	0.684
15.8712	0.691
15.912	0.698
15.9528	0.703
