Infrared Spectrum: ACETIC ACID, TRIFLUORO-, ETHYL ESTER
Formula: C4 H5 F3 O2
CAS: 383-63-1
State: GAS (30 mmHg, N2 ADDED, TOTAL PRESSURE 600 mmHg)
Class: COBLENTZ
Instrument: DOW KBr FOREPRISM-GRATING
Instrument parameters: GRATING CHANGED AT 5.0, 7.5, 15.0 MICRON
Sampling: TRANSMISSION
Path length: 5 CM
Resolution: 2
Origin: DOW CHEMICAL COMPANY
1/CM	TRANSMITTANCE
455.269	0.953
463.7	0.956
472.131	0.959
480.562	0.962
488.993	0.962
497.424	0.956
505.855	0.942
514.286	0.918
522.717	0.876
531.148	0.869
539.579	0.901
548.009	0.931
556.44	0.936
564.871	0.93
573.302	0.913
581.733	0.904
590.164	0.908
598.595	0.931
607.026	0.956
615.457	0.966
623.888	0.971
632.319	0.973
640.75	0.975
649.181	0.965
657.612	0.942
666.043	0.934
674.474	0.937
682.905	0.962
691.336	0.972
699.767	0.968
708.198	0.962
716.629	0.955
725.06	0.8392
733.49	0.5601
741.921	0.6967
750.352	0.923
758.783	0.93
767.214	0.874
775.645	0.755
784.076	0.733
792.507	0.823
800.938	0.895
809.369	0.934
817.8	0.947
826.231	0.943
834.662	0.918
843.093	0.881
851.524	0.762
859.955	0.667
868.386	0.756
876.817	0.901
885.248	0.947
893.679	0.962
902.11	0.966
910.541	0.971
918.971	0.975
927.402	0.975
935.833	0.976
944.264	0.976
952.695	0.975
961.126	0.972
969.557	0.969
977.988	0.965
986.419	0.958
994.85	0.931
1003.28	0.848
1011.71	0.725
1020.14	0.671
1028.57	0.755
1037	0.897
1045.44	0.916
1053.87	0.926
1062.3	0.936
1070.73	0.927
1079.16	0.914
1087.59	0.884
1096.02	0.781
1104.45	0.658
1112.88	0.471
1121.31	0.396
1129.75	0.2959
1138.18	0.026
1146.61	0.01
1155.04	0.013
1163.47	0.017
1171.9	0.018
1180.33	0.011
1188.76	0.01
1197.19	0.044
1205.62	0.121
1214.05	0.18
1222.49	0.0591
1230.92	0.015
1239.35	0.023
1247.78	0.0939
1256.21	0.429
1264.64	0.704
1273.07	0.807
1281.5	0.832
1289.93	0.824
1298.36	0.804
1306.8	0.8
1315.23	0.804
1323.66	0.777
1332.09	0.703
1340.52	0.486
1348.95	0.329
1357.38	0.373
1365.81	0.554
1374.24	0.526
1382.67	0.447
1391.1	0.4859
1399.54	0.681
1407.97	0.761
1416.4	0.837
1424.83	0.887
1433.26	0.885
1441.69	0.862
1450.12	0.832
1458.55	0.832
1466.98	0.835
1475.41	0.84
1483.85	0.875
1492.28	0.914
1500.71	0.94
1509.14	0.955
1517.57	0.958
1526	0.958
1534.43	0.959
1542.86	0.952
1551.29	0.933
1559.72	0.929
1568.15	0.946
1576.59	0.953
1585.02	0.959
1593.45	0.96
1601.88	0.96
1610.31	0.96
1618.74	0.956
1627.17	0.958
1635.6	0.96
1644.03	0.96
1652.46	0.955
1660.9	0.959
1669.33	0.952
1677.76	0.947
1686.19	0.943
1694.62	0.934
1703.05	0.94
1711.48	0.929
1719.91	0.917
1728.34	0.898
1736.77	0.875
1745.2	0.845
1753.64	0.817
1762.07	0.791
1770.5	0.727
1778.93	0.5449
1787.36	0.1918
1795.79	0.028
1804.22	0.033
1812.65	0.137
1821.08	0.562
1829.51	0.719
1837.95	0.836
1846.38	0.91
1854.81	0.936
1863.24	0.945
1871.67	0.949
1880.1	0.953
1888.53	0.958
1896.96	0.959
1905.39	0.96
1913.82	0.96
1922.25	0.96
1930.69	0.963
1939.12	0.966
1947.55	0.965
1955.98	0.962
1964.41	0.963
1972.84	0.968
1981.27	0.968
1989.7	0.969
1998.13	0.969
2006.56	0.968
2015	0.968
2023.43	0.968
2031.86	0.968
2040.29	0.969
2048.72	0.971
2057.15	0.973
2065.58	0.975
2074.01	0.976
2082.44	0.975
2090.87	0.973
2099.31	0.972
2107.74	0.975
2116.17	0.976
2124.6	0.976
2133.03	0.978
2141.46	0.978
2149.89	0.979
2158.32	0.979
2166.75	0.979
2175.18	0.979
2183.61	0.979
2192.05	0.979
2200.48	0.979
2208.91	0.978
2217.34	0.976
2225.77	0.976
2234.2	0.976
2242.63	0.976
2251.06	0.976
2259.49	0.976
2267.92	0.976
2276.36	0.978
2284.79	0.978
2293.22	0.978
2301.65	0.976
2310.08	0.9741
2318.51	0.972
2326.94	0.971
2335.37	0.971
2343.8	0.972
2352.23	0.9729
2360.66	0.976
2369.1	0.976
2377.53	0.978
2385.96	0.978
2394.39	0.976
2402.82	0.975
2411.25	0.973
2419.68	0.972
2428.11	0.9738
2436.54	0.975
2444.97	0.976
2453.41	0.9751
2461.84	0.975
2470.27	0.975
2478.7	0.973
2487.13	0.973
2495.56	0.972
2503.99	0.972
2512.42	0.973
2520.85	0.9721
2529.28	0.9716
2537.71	0.971
2546.15	0.973
2554.58	0.975
2563.01	0.975
2571.44	0.972
2579.87	0.972
2588.3	0.973
2596.73	0.976
2605.16	0.978
2613.59	0.979
2622.02	0.979
2630.46	0.979
2638.89	0.979
2647.32	0.979
2655.75	0.979
2664.18	0.981
2672.61	0.981
2681.04	0.981
2689.47	0.981
2697.9	0.982
2706.33	0.982
2714.76	0.982
2723.2	0.9811
2731.63	0.9803
2740.06	0.979
2748.49	0.978
2756.92	0.978
2765.35	0.9784
2773.78	0.979
2782.21	0.976
2790.64	0.9733
2799.07	0.9716
2807.51	0.9681
2815.94	0.968
2824.37	0.966
2832.8	0.966
2841.23	0.968
2849.66	0.964
2858.09	0.9525
2866.52	0.9397
2874.95	0.9265
2883.38	0.9123
2891.81	0.9053
2900.25	0.8977
2908.68	0.879
2917.11	0.8623
2925.54	0.8552
2933.97	0.847
2942.4	0.81
2950.83	0.795
2959.26	0.8105
2967.69	0.8261
2976.12	0.7859
2984.56	0.6719
2992.99	0.59
3001.42	0.5283
3009.85	0.6737
3018.28	0.7821
3026.71	0.8785
3035.14	0.935
3043.57	0.9486
3052	0.956
3060.43	0.9588
3068.86	0.96
3077.3	0.962
3085.73	0.963
3094.16	0.963
3102.59	0.963
3111.02	0.963
3119.45	0.963
3127.88	0.963
3136.31	0.962
3144.74	0.962
3153.17	0.965
3161.61	0.966
3170.04	0.968
3178.47	0.966
3186.9	0.968
3195.33	0.968
3203.76	0.9696
3212.19	0.971
3220.62	0.9736
3229.05	0.9776
3237.48	0.9783
3245.91	0.979
3254.35	0.9813
3262.78	0.982
3271.21	0.984
3279.64	0.985
3288.07	0.986
3296.5	0.988
3304.93	0.989
3313.36	0.989
3321.79	0.991
3330.22	0.991
3338.66	0.991
3347.09	0.991
3355.52	0.991
3363.95	0.992
3372.38	0.994
3380.81	0.995
3389.24	0.995
3397.67	0.995
3406.1	0.994
3414.53	0.994
3422.96	0.994
3431.4	0.994
3439.83	0.995
3448.26	0.995
3456.69	0.997
3465.12	0.997
3473.55	0.997
3481.98	0.997
3490.41	0.997
3498.84	0.998
3507.27	0.998
3515.71	0.998
3524.14	0.998
3532.57	0.995
3541	0.9875
3549.43	0.9791
3557.86	0.9376
3566.29	0.9111
3574.72	0.9139
3583.15	0.9499
3591.58	0.9842
3600.01	0.9874
3608.45	0.9882
3616.88	0.989
3625.31	0.991
3633.74	0.988
3642.17	0.991
3650.6	0.9899
3659.03	0.989
3667.46	0.9896
3675.89	0.9912
3684.32	0.995
3692.76	0.997
3701.19	0.997
3709.62	0.9966
3718.05	0.994
3726.48	0.992
3734.91	0.9964
3743.34	1.0002
3751.77	1.002
3760.2	1.0016
3768.63	1
3777.06	1
3785.5	1
