Infrared Spectrum: o-NITRO-Alpha,Alpha,Alpha-TRIFLUOROTOLUENE
Formula: C7 H4 F3 N O2
CAS: 384-22-5
State: SOLUTION (10% CCl4 FOR 3800-1330, 10% CS2 FOR 1330-400 CM^-^1)
Melting point: 29 C
Class: COBLENTZ III
Instrument: BECKMAN IR-9 (GRATING)
Instrument parameters: ORDER CHANGES: 670, 1200, 2000 CM^-^1
Sampling: TRANSMISSION
Path length: 0.010 CM, 0.012 CM
Resolution: 2
Origin: DOW CHEMICAL COMPANY
1/CM	TRANSMITTANCE
402.922	0.333
411.688	0.162
420.453	0.438
429.219	0.563
437.984	0.517
446.75	0.722
455.515	0.792
464.281	0.839
473.046	0.864
481.812	0.884
490.577	0.899
499.343	0.91
508.108	0.939
516.874	0.95
525.639	0.957
534.405	0.96
543.17	0.968
551.936	0.971
560.701	0.958
569.467	0.961
578.233	0.972
586.998	0.971
595.764	0.759
604.529	0.787
613.295	0.917
622.06	0.953
630.826	0.95
639.591	0.865
648.357	0.667
657.122	0.844
665.888	0.896
674.653	0.916
683.419	0.868
692.184	0.222
700.95	0.728
709.715	0.55
718.481	0.575
727.247	0.811
736.012	0.873
744.778	0.872
753.543	0.373
762.309	0.559
771.074	0.703
779.84	0.192
788.605	0.392
797.371	0.821
806.136	0.896
814.902	0.923
823.667	0.94
832.433	0.94
841.198	0.894
849.964	0.689
858.729	0.114
867.495	0.711
876.26	0.796
885.026	0.799
893.792	0.877
902.557	0.921
911.323	0.947
920.088	0.954
928.854	0.957
937.619	0.951
946.385	0.939
955.15	0.901
963.916	0.679
972.681	0.912
981.447	0.934
990.212	0.928
998.978	0.921
1007.74	0.934
1016.51	0.932
1025.27	0.894
1034.04	0.5229
1042.81	0.278
1051.57	0.1369
1060.34	0.528
1069.1	0.737
1077.87	0.804
1086.63	0.824
1095.4	0.798
1104.16	0.605
1112.93	0.179
1121.7	0.282
1130.46	0.225
1139.23	0.01
1147.99	0.048
1156.76	0
1165.52	0
1174.29	0.016
1183.05	0.001
1191.82	0.137
1200.58	0.457
1209.35	0.634
1218.12	0.73
1226.88	0.795
1235.65	0.818
1244.41	0.829
1253.18	0.811
1261.94	0.743
1270.71	0.3019
1279.47	0.0421
1288.24	0.365
1297.01	0.479
1305.77	0.16
1314.54	0
1323.3	0.13
1332.07	0.37
1340.83	0.388
1349.6	0.206
1358.36	0.017
1367.13	0.126
1375.9	0.431
1384.66	0.667
1393.43	0.818
1402.19	0.879
1410.96	0.901
1419.72	0.901
1428.49	0.887
1437.25	0.873
1446.02	0.57
1454.79	0.652
1463.55	0.85
1472.32	0.855
1481.08	0.815
1489.85	0.74
1498.61	0.693
1507.38	0.706
1516.14	0.57
1524.91	0.35
1533.68	0.134
1542.44	0.006
1551.21	0
1559.97	0.204
1568.74	0.414
1577.5	0.5
1586.27	0.51
1595.03	0.576
1603.8	0.64
1612.56	0.576
1621.33	0.6921
1630.1	0.848
1638.86	0.873
1647.63	0.912
1656.39	0.923
1665.16	0.929
1673.92	0.943
1682.69	0.957
1691.45	0.964
1700.22	0.975
1708.99	0.975
1717.75	0.96
1726.52	0.961
1735.28	0.964
1744.05	0.961
1752.81	0.961
1761.58	0.976
1770.34	0.979
1779.11	0.986
1787.88	0.989
1796.64	0.989
1805.41	0.99
1814.17	0.991
1822.94	0.987
1831.7	0.973
1840.47	0.935
1849.23	0.951
1858	0.968
1866.77	0.975
1875.53	0.969
1884.3	0.975
1893.06	0.982
1901.83	0.98
1910.59	0.98
1919.36	0.965
1928.12	0.964
1936.89	0.967
1945.65	0.953
1954.42	0.92
1963.19	0.953
1971.95	0.964
1980.72	0.953
1989.48	0.949
1998.25	0.961
2007.01	0.967
2015.78	0.969
2024.54	0.972
2033.31	0.973
2042.08	0.976
2050.84	0.98
2059.61	0.978
2068.37	0.98
2077.14	0.983
2085.9	0.982
2094.67	0.9781
2103.43	0.9778
2112.2	0.983
2120.97	0.9889
2129.73	0.989
2138.5	0.99
2147.26	0.99
2156.03	0.99
2164.79	0.99
2173.56	0.9899
2182.32	0.989
2191.09	0.989
2199.86	0.984
2208.62	0.9791
2217.39	0.9762
2226.15	0.9751
2234.92	0.9711
2243.68	0.965
2252.45	0.9708
2261.21	0.968
2269.98	0.9611
2278.74	0.9542
2287.51	0.9491
2296.28	0.9461
2305.04	0.945
2313.81	0.945
2322.57	0.945
2331.34	0.945
2340.1	0.946
2348.87	0.95
2357.63	0.9527
2366.4	0.954
2375.17	0.957
2383.93	0.958
2392.7	0.9515
2401.46	0.9282
2410.23	0.9495
2418.99	0.951
2427.76	0.953
2436.52	0.953
2445.29	0.9514
2454.06	0.9492
2462.82	0.9422
2471.59	0.9352
2480.35	0.935
2489.12	0.9342
2497.88	0.9294
2506.65	0.931
2515.41	0.934
2524.18	0.9348
2532.95	0.935
2541.71	0.935
2550.48	0.935
2559.24	0.9325
2568.01	0.931
2576.77	0.9282
2585.54	0.9242
2594.3	0.9165
2603.07	0.916
2611.83	0.914
2620.6	0.9075
2629.37	0.903
2638.13	0.905
2646.9	0.9084
2655.66	0.909
2664.43	0.9097
2673.19	0.9137
2681.96	0.918
2690.72	0.9146
2699.49	0.91
2708.26	0.909
2717.02	0.907
2725.79	0.9036
2734.55	0.901
2743.32	0.903
2752.08	0.9053
2760.85	0.901
2769.61	0.9027
2778.38	0.9097
2787.15	0.913
2795.91	0.9107
2804.68	0.9063
2813.44	0.905
2822.21	0.905
2830.97	0.8997
2839.74	0.9003
2848.5	0.9016
2857.27	0.8997
2866.04	0.898
2874.8	0.896
2883.57	0.8931
2892.33	0.8628
2901.1	0.828
2909.86	0.8373
2918.63	0.8778
2927.39	0.885
2936.16	0.885
2944.92	0.8906
2953.69	0.8956
2962.46	0.896
2971.22	0.896
2979.99	0.898
2988.75	0.9002
2997.52	0.9042
3006.28	0.9096
3015.05	0.916
3023.81	0.9113
3032.58	0.91
3041.35	0.913
3050.11	0.9103
3058.88	0.8779
3067.64	0.859
3076.41	0.865
3085.17	0.857
3093.94	0.854
3102.7	0.855
3111.47	0.8631
3120.24	0.868
3129	0.8629
3137.77	0.8695
3146.53	0.88
3155.3	0.8845
3164.06	0.897
3172.83	0.909
3181.59	0.9205
3190.36	0.9275
3199.13	0.932
3207.89	0.933
3216.66	0.937
3225.42	0.939
3234.19	0.941
3242.95	0.9425
3251.72	0.947
3260.48	0.95
3269.25	0.9505
3278.01	0.9535
3286.78	0.953
3295.55	0.953
3304.31	0.951
3313.08	0.953
3321.84	0.954
3330.61	0.9536
3339.37	0.953
3348.14	0.953
3356.9	0.953
3365.67	0.954
3374.44	0.954
3383.2	0.954
3391.97	0.954
3400.73	0.954
3409.5	0.954
3418.26	0.954
3427.03	0.954
3435.79	0.956
3444.56	0.957
3453.33	0.958
3462.09	0.958
3470.86	0.958
3479.62	0.961
3488.39	0.9644
3497.15	0.965
3505.92	0.967
3514.68	0.9686
3523.45	0.972
3532.22	0.973
3540.98	0.976
3549.75	0.9794
3558.51	0.982
3567.28	0.982
3576.04	0.982
3584.81	0.982
3593.57	0.983
3602.34	0.987
3611.1	0.99
3619.87	0.9903
3628.64	0.9956
3637.4	0.997
3646.17	0.997
3654.93	1
3663.7	1
3672.46	1
3681.23	1
3689.99	1
3698.76	1
3707.53	1
3716.29	1
3725.06	1
3733.82	1
3742.59	1
3751.35	1
3760.12	1
3768.88	1.0003
3777.65	1.001
3786.42	1.002
3795.18	1.002
