Infrared Spectrum: PHOSPHORIC ACID, TRIS(P-CHLOROPHENYL) ESTER
Formula: C18 H12 Cl3 O4 P
CAS: 3871-31-6
State: SOLID (NUJOL MULL)
Class: COBLENTZ
Instrument: Not specified, most likely a prism, grating, or hybrid spectrometer.
Sampling: TRANSMISSION
Resolution: 4
Origin: TENNESSEE EASTMAN COMPANY, RESEARCH LABORATORIES
MICROMETERS	TRANSMITTANCE
2.014	0.509
2.05294	0.511
2.09187	0.517
2.13081	0.527
2.16974	0.529
2.20868	0.532
2.24762	0.534
2.28655	0.534
2.32549	0.534
2.36442	0.535
2.40336	0.54
2.4423	0.547
2.48123	0.555
2.52017	0.569
2.5591	0.574
2.59804	0.576
2.63697	0.577
2.67591	0.586
2.71485	0.587
2.75378	0.589
2.79272	0.589
2.83165	0.592
2.87059	0.597
2.90953	0.599
2.94846	0.6
2.9874	0.602
3.02633	0.61
3.06527	0.612
3.10421	0.613
3.14314	0.615
3.18208	0.615
3.22101	0.613
3.25995	0.576
3.29889	0.558
3.33782	0.49
3.37676	0.172
3.41569	0.071
3.45463	0.131
3.49357	0.154
3.5325	0.386
3.57144	0.689
3.61037	0.704
3.64931	0.717
3.68825	0.714
3.72718	0.712
3.76612	0.712
3.80505	0.712
3.84399	0.715
3.88292	0.722
3.92186	0.73
3.9608	0.741
3.99973	0.75
4.03867	0.753
4.0776	0.759
4.11654	0.764
4.15548	0.766
4.19441	0.766
4.23335	0.775
4.27228	0.782
4.31122	0.78
4.35016	0.777
4.38909	0.779
4.42803	0.784
4.46696	0.785
4.5059	0.788
4.54484	0.8
4.58377	0.801
4.62271	0.808
4.66164	0.814
4.70058	0.818
4.73952	0.823
4.77845	0.824
4.81739	0.826
4.85632	0.826
4.89526	0.827
4.93419	0.827
4.97313	0.827
5.01207	0.834
5.051	0.837
5.08994	0.837
5.12887	0.837
5.16781	0.837
5.20675	0.837
5.24568	0.837
5.28462	0.827
5.32355	0.827
5.36249	0.837
5.40143	0.844
5.44036	0.853
5.4793	0.863
5.51823	0.863
5.55717	0.866
5.59611	0.866
5.63504	0.866
5.67398	0.855
5.71291	0.837
5.75185	0.842
5.79079	0.86
5.82972	0.879
5.86866	0.881
5.90759	0.879
5.94653	0.879
5.98547	0.881
6.0244	0.886
6.06334	0.892
6.10227	0.876
6.14121	0.868
6.18014	0.889
6.21908	0.909
6.25802	0.93
6.29695	0.863
6.33589	0.84
6.37482	0.9
6.41376	0.923
6.4527	0.933
6.49163	0.939
6.53057	0.939
6.5695	0.931
6.60844	0.894
6.64738	0.699
6.68631	0.37
6.72525	0.191
6.76418	0.266
6.80312	0.298
6.84206	0.303
6.88099	0.376
6.91993	0.47
6.95886	0.649
6.9978	0.762
7.03674	0.801
7.07567	0.823
7.11461	0.764
7.15354	0.758
7.19248	0.746
7.23142	0.553
7.27035	0.496
7.30929	0.603
7.34822	0.66
7.38716	0.751
7.42609	0.775
7.46503	0.785
7.50397	0.782
7.5429	0.771
7.58184	0.728
7.62077	0.612
7.65971	0.477
7.69865	0.287
7.73758	0.467
7.77652	0.594
7.81545	0.681
7.85439	0.702
7.89333	0.728
7.93226	0.746
7.9712	0.771
8.01013	0.793
8.04907	0.808
8.08801	0.701
8.12694	0.608
8.16588	0.603
8.20481	0.615
8.24375	0.618
8.28269	0.5
8.32162	0.279
8.36056	0.219
8.39949	0.245
8.43843	0.259
8.47736	0.409
8.5163	0.503
8.55524	0.48
8.59417	0.394
8.63311	0.443
8.67204	0.577
8.71098	0.634
8.74992	0.683
8.78885	0.706
8.82779	0.733
8.86672	0.759
8.90566	0.772
8.9446	0.774
8.98353	0.772
9.02247	0.779
9.0614	0.762
9.10034	0.555
9.13928	0.457
9.17821	0.449
9.21715	0.592
9.25608	0.685
9.29502	0.724
9.33396	0.762
9.37289	0.784
9.41183	0.806
9.45076	0.824
9.4897	0.829
9.52864	0.832
9.56757	0.836
9.60651	0.837
9.64544	0.837
9.68438	0.837
9.72331	0.836
9.76225	0.819
9.80119	0.711
9.84012	0.623
9.87906	0.657
9.91799	0.683
9.95693	0.673
9.99587	0.605
10.0348	0.503
10.0737	0.407
10.1127	0.272
10.1516	0.206
10.1905	0.193
10.2295	0.275
10.2684	0.303
10.3074	0.251
10.3463	0.258
10.3852	0.269
10.4242	0.238
10.4631	0.241
10.502	0.308
10.541	0.386
10.5799	0.452
10.6188	0.504
10.6578	0.482
10.6967	0.446
10.7356	0.5
10.7746	0.508
10.8135	0.48
10.8525	0.496
10.8914	0.561
10.9303	0.603
10.9693	0.634
11.0082	0.654
11.0471	0.673
11.0861	0.688
11.125	0.701
11.1639	0.714
11.2029	0.722
11.2418	0.732
11.2808	0.743
11.3197	0.75
11.3586	0.761
11.3976	0.766
11.4365	0.771
11.4754	0.777
11.5144	0.784
11.5533	0.788
11.5922	0.793
11.6312	0.793
11.6701	0.795
11.709	0.793
11.748	0.779
11.7869	0.719
11.8259	0.561
11.8648	0.566
11.9037	0.553
11.9427	0.42
11.9816	0.362
12.0205	0.282
12.0595	0.314
12.0984	0.448
12.1373	0.54
12.1763	0.592
12.2152	0.612
12.2542	0.646
12.2931	0.668
12.332	0.68
12.371	0.685
12.4099	0.707
12.4488	0.73
12.4878	0.748
12.5267	0.759
12.5656	0.766
12.6046	0.761
12.6435	0.678
12.6824	0.576
12.7214	0.527
12.7603	0.504
12.7993	0.529
12.8382	0.595
12.8771	0.636
12.9161	0.668
12.955	0.685
12.9939	0.702
13.0329	0.711
13.0718	0.719
13.1107	0.724
13.1497	0.73
13.1886	0.733
13.2275	0.735
13.2665	0.733
13.3054	0.735
13.3444	0.735
13.3833	0.735
13.4222	0.735
13.4612	0.735
13.5001	0.735
13.539	0.735
13.578	0.735
13.6169	0.733
13.6558	0.733
13.6948	0.733
13.7337	0.733
13.7727	0.735
13.8116	0.735
13.8505	0.733
13.8895	0.733
13.9284	0.735
13.9673	0.735
14.0063	0.743
14.0452	0.746
14.0841	0.751
14.1231	0.753
14.162	0.756
14.2009	0.756
14.2399	0.732
14.2788	0.701
14.3178	0.701
14.3567	0.709
14.3956	0.727
14.4346	0.733
14.4735	0.738
14.5124	0.743
14.5514	0.746
14.5903	0.746
14.6292	0.748
14.6682	0.751
14.7071	0.751
14.7461	0.751
14.785	0.751
14.8239	0.75
14.8629	0.751
14.9018	0.751
14.9407	0.751
14.9797	0.753
15.0186	0.751
15.0575	0.75
15.0965	0.748
15.1354	0.743
15.1743	0.735
15.2133	0.704
15.2522	0.673
15.2912	0.646
15.3301	0.634
15.369	0.636
15.408	0.634
15.4469	0.634
15.4858	0.633
15.5248	0.633
15.5637	0.628
15.6026	0.626
15.6416	0.626
15.6805	0.626
15.7194	0.631
15.7584	0.631
15.7973	0.631
15.8363	0.633
15.8752	0.633
15.9141	0.633
15.9531	0.633
15.992	0.633
