Infrared Spectrum: Sulfonyl chloride, 1-hexadecane-
Formula: C16 H33 Cl O2 S
CAS: 38775-38-1
State: SOLUTION (10% CCl4 FOR 3800-1330, 10% CS2 FOR 1330-400 CM^-^1) VS SOLVENT
Class: COBLENTZ III
Instrument: BECKMAN IR-9 (GRATING)
Instrument parameters: ORDER CHANGES: 670, 1200, 2000 CM^-^1
Sampling: TRANSMISSION
Path length: 0.011 CM, 0.010 CM
Resolution: 2
Origin: DOW CHEMICAL COMPANY
1/CM	TRANSMITTANCE
3800	0.8823
3791	0.882
3782	0.8817
3773	0.8812
3764	0.8804
3755	0.8795
3746	0.8786
3737	0.8775
3728	0.8766
3719	0.8749
3710	0.8732
3701	0.8714
3692	0.8695
3683	0.8673
3674	0.8652
3665	0.8618
3656	0.8584
3647	0.8543
3638	0.8503
3629	0.8463
3620	0.8431
3611	0.8397
3602	0.8367
3593	0.8339
3584	0.8309
3575	0.8275
3566	0.8244
3557	0.8211
3548	0.8178
3539	0.8143
3530	0.8108
3521	0.8075
3512	0.8042
3503	0.8008
3494	0.7975
3485	0.7943
3476	0.7904
3467	0.7875
3458	0.7847
3449	0.7825
3440	0.7811
3431	0.7806
3422	0.7807
3413	0.7803
3404	0.7798
3395	0.7795
3386	0.7793
3377	0.7789
3368	0.779
3359	0.7793
3350	0.7797
3341	0.78
3332	0.7804
3323	0.7805
3314	0.7803
3305	0.7801
3296	0.7799
3287	0.7797
3278	0.7795
3269	0.7793
3260	0.7792
3251	0.779
3242	0.7788
3233	0.7786
3224	0.7784
3215	0.7783
3206	0.7781
3197	0.7778
3188	0.7778
3179	0.7775
3170	0.7772
3161	0.7767
3152	0.7761
3143	0.7754
3134	0.7743
3125	0.7732
3116	0.7718
3107	0.7701
3098	0.7685
3089	0.7667
3080	0.7636
3071	0.7587
3062	0.753
3053	0.7446
3044	0.7356
3035	0.7258
3026	0.714
3017	0.6993
3008	0.6806
2999	0.6575
2990	0.6112
2981	0.51
2972	0.426
2963	0.1731
2954	0.1212
2945	0.0756
2936	0.0275
2927	0.0244
2918	0.0385
2909	0.0896
2900	0.1899
2891	0.2854
2882	0.3486
2873	0.2577
2864	0.2126
2855	0.0453
2846	0.2353
2837	0.5571
2828	0.6457
2819	0.6758
2810	0.6986
2801	0.7158
2792	0.7286
2783	0.7385
2774	0.7448
2765	0.7471
2756	0.7476
2747	0.7468
2738	0.7465
2729	0.7501
2720	0.7549
2711	0.754
2702	0.7512
2693	0.7476
2684	0.7493
2675	0.7515
2666	0.7556
2657	0.7596
2648	0.7628
2639	0.7656
2630	0.7684
2621	0.7711
2612	0.7737
2603	0.7761
2594	0.7785
2585	0.7807
2576	0.7821
2567	0.7826
2558	0.7831
2549	0.7818
2540	0.7799
2531	0.7796
2522	0.7811
2513	0.7861
2504	0.7888
2495	0.7906
2486	0.7921
2477	0.7938
2468	0.7956
2459	0.7971
2450	0.7965
2441	0.7958
2432	0.7951
2423	0.7949
2414	0.7948
2405	0.7945
2396	0.7944
2387	0.7942
2378	0.794
2369	0.7938
2360	0.7938
2351	0.794
2342	0.7942
2333	0.7947
2324	0.7951
2315	0.7956
2306	0.7954
2297	0.7948
2288	0.7944
2279	0.7941
2270	0.794
2261	0.7941
2252	0.7937
2243	0.7933
2234	0.7934
2225	0.7935
2216	0.7937
2207	0.7941
2198	0.7947
2189	0.7953
2180	0.7958
2171	0.7967
2162	0.7975
2153	0.7984
2144	0.7992
2135	0.8
2126	0.8007
2117	0.8015
2108	0.8021
2099	0.8021
2090	0.8021
2081	0.8021
2072	0.8021
2063	0.8028
2054	0.8037
2045	0.8044
2036	0.8051
2027	0.8051
2018	0.805
2009	0.8053
2000	0.8007
1991	0.799
1982	0.8015
1973	0.8018
1964	0.8011
1955	0.8006
1946	0.8004
1937	0.7997
1928	0.7987
1919	0.7978
1910	0.7965
1901	0.7954
1892	0.7944
1883	0.7926
1874	0.791
1865	0.7893
1856	0.7875
1847	0.7858
1838	0.7839
1829	0.7819
1820	0.7801
1811	0.7782
1802	0.7764
1793	0.7732
1784	0.7697
1775	0.766
1766	0.763
1757	0.7606
1748	0.7578
1739	0.755
1730	0.7522
1721	0.7511
1712	0.7521
1703	0.7522
1694	0.7546
1685	0.7583
1676	0.7615
1667	0.7647
1658	0.7681
1649	0.7719
1640	0.7761
1631	0.7815
1622	0.7865
1613	0.7914
1604	0.7971
1595	0.8075
1586	0.8142
1577	0.8156
1568	0.8192
1559	0.8231
1550	0.823
1541	0.8158
1532	0.8081
1523	0.7998
1514	0.7915
1505	0.7845
1496	0.7772
1487	0.7618
1478	0.721
1469	0.3676
1460	0.4018
1451	0.5579
1442	0.6226
1433	0.7005
1424	0.7436
1415	0.7356
1406	0.67
1397	0.621
1388	0.3234
1379	0.0511
1370	0.2909
1361	0.4518
1352	0.576
1343	0.6438
1334	0.7007
1325	0.7004
1316	0.6851
1307	0.6728
1298	0.6607
1289	0.6751
1280	0.6772
1271	0.6792
1262	0.6639
1253	0.6538
1244	0.6495
1235	0.6457
1226	0.6438
1217	0.6431
1208	0.639
1199	0.6189
1190	0.561
1181	0.4354
1172	0.3421
1163	0.0467
1154	0.4434
1145	0.617
1136	0.6747
1127	0.7017
1118	0.7194
1109	0.7361
1100	0.7401
1091	0.7374
1082	0.7392
1073	0.7449
1064	0.7443
1055	0.7233
1046	0.6736
1037	0.6725
1028	0.706
1019	0.7335
1010	0.7578
1001	0.7706
992	0.7837
983	0.7951
974	0.803
965	0.8071
956	0.81
947	0.8108
938	0.8095
929	0.8078
920	0.8054
911	0.804
902	0.805
893	0.8097
884	0.8172
875	0.8253
866	0.8318
857	0.8354
848	0.832
839	0.8162
830	0.8011
821	0.7986
812	0.7934
803	0.784
794	0.7698
785	0.7668
776	0.7308
767	0.6754
758	0.615
749	0.6631
740	0.6764
731	0.6485
722	0.5765
713	0.6504
704	0.7442
695	0.6924
686	0.6778
677	0.7887
668	0.8275
659	0.8228
650	0.8306
641	0.838
632	0.8341
623	0.815
614	0.7735
605	0.7314
596	0.4334
587	0.3526
578	0.6781
569	0.7401
560	0.7014
551	0.5937
542	0.3468
533	0.3968
524	0.2989
515	0.3703
506	0.5451
497	0.6182
488	0.6606
479	0.7132
470	0.7624
461	0.7944
452	0.7961
443	0.7961
434	0.8051
425	0.805
416	0.7768
407	0.7558
