Infrared Spectrum: Anisole, 2,3,4,5,6-pentafluoro-
Formula: C7 H3 F5 O
CAS: 389-40-2
State: SOLUTION (10% CCl4 FOR 3800-1350, 10% CS2 FOR 1350-400 CM^-^1)
Melting point: -37 C
Boiling point: 138 C
Class: COBLENTZ III
Instrument: DOW KBr FOREPRISM-GRATING
Instrument parameters: BLAZED AT 3.5, 12.0, 20.0 MICRON AND CHANGED AT 5.0, 7.5, 14.9 MICRON
Sampling: TRANSMISSION
Path length: 0.012 CM, 0.011 CM
Resolution: 2
Origin: DOW CHEMICAL COMPANY
1/CM	TRANSMITTANCE
386	0.2393
395	0.2509
404	0.3115
413	0.5324
422	0.7395
431	0.776
440	0.7978
449	0.8118
458	0.8203
467	0.8378
476	0.86
485	0.8715
494	0.8798
503	0.8844
512	0.8873
521	0.8878
530	0.8886
539	0.8889
548	0.8872
557	0.8871
566	0.9047
575	0.9064
584	0.9055
593	0.8985
602	0.9096
611	0.9179
620	0.9155
629	0.9092
638	0.8989
647	0.8841
656	0.8804
665	0.9107
674	0.9259
683	0.9302
692	0.9294
701	0.9272
710	0.9247
719	0.9216
728	0.9184
737	0.9188
746	0.9263
755	0.9277
764	0.9232
773	0.9159
782	0.9054
791	0.8984
800	0.8849
809	0.8992
818	0.8973
827	0.8909
836	0.8579
845	0.7586
854	0.7386
863	0.7542
872	0.7866
881	0.8323
890	0.8467
899	0.8308
908	0.7661
917	0.5367
926	0.1369
935	0.5239
944	0.7515
953	0.7617
962	0.7122
971	0.5594
980	0.3567
989	0.0211
998	0.0159
1007	0.2353
1016	0.3252
1025	0.1318
1034	0.0049
1043	0.0135
1052	0.2442
1061	0.3638
1070	0.4902
1079	0.7253
1088	0.7521
1097	0.7562
1106	0.7736
1115	0.7765
1124	0.7573
1133	0.7052
1142	0.6019
1151	0.4255
1160	0.68
1169	0.7241
1178	0.7345
1187	0.6585
1196	0.4224
1205	0.6932
1214	0.7932
1223	0.8089
1232	0.813
1241	0.8081
1250	0.796
1259	0.8016
1268	0.8046
1277	0.8047
1286	0.8041
1295	0.7959
1304	0.7482
1313	0.5493
1322	0.7758
1331	0.7859
1340	0.7912
1349	0.7803
1358	0.7833
1367	0.759
1376	0.74
1385	0.7663
1394	0.7587
1403	0.734
1412	0.7158
1421	0.6543
1430	0.1099
1439	0.2836
1448	0.4996
1457	0.3977
1466	0.4245
1475	0.2905
1484	0.357
1493	0.2008
1502	0.0144
1511	0.001
1520	0.001
1529	0.0685
1538	0.2296
1547	0.3075
1556	0.3384
1565	0.4574
1574	0.5146
1583	0.5333
1592	0.5643
1601	0.6581
1610	0.7485
1619	0.7884
1628	0.7706
1637	0.7115
1646	0.7906
1655	0.7973
1664	0.8127
1673	0.8221
1682	0.823
1691	0.8222
1700	0.8279
1709	0.8254
1718	0.8201
1727	0.8064
1736	0.7667
1745	0.7649
1754	0.799
1763	0.8264
1772	0.8248
1781	0.8203
1790	0.8103
1799	0.8241
1808	0.8436
1817	0.8486
1826	0.8487
1835	0.8472
1844	0.8429
1853	0.8384
1862	0.8398
1871	0.8478
1880	0.8534
1889	0.8561
1898	0.8585
1907	0.8599
1916	0.8584
1925	0.857
1934	0.8559
1943	0.8526
1952	0.8477
1961	0.8376
1970	0.8344
1979	0.8488
1988	0.8467
1997	0.8441
2006	0.8491
2015	0.8499
2024	0.8487
2033	0.8475
2042	0.8465
2051	0.8441
2060	0.8357
2069	0.806
2078	0.7852
2087	0.8211
2096	0.8489
2105	0.8546
2114	0.8536
2123	0.8502
2132	0.8473
2141	0.8466
2150	0.8506
2159	0.8557
2168	0.8556
2177	0.854
2186	0.8533
2195	0.8553
2204	0.8595
2213	0.863
2222	0.8618
2231	0.8566
2240	0.8513
2249	0.8492
2258	0.8501
2267	0.852
2276	0.8505
2285	0.8486
2294	0.848
2303	0.8481
2312	0.8491
2321	0.8561
2330	0.8649
2339	0.8678
2348	0.8674
2357	0.8664
2366	0.8655
2375	0.8634
2384	0.8497
2393	0.8346
2402	0.8154
2411	0.8088
2420	0.8471
2429	0.8439
2438	0.838
2447	0.8245
2456	0.7754
2465	0.7861
2474	0.8053
2483	0.8488
2492	0.8564
2501	0.8486
2510	0.8371
2519	0.8397
2528	0.8573
2537	0.8599
2546	0.8591
2555	0.8556
2564	0.8536
2573	0.8551
2582	0.8587
2591	0.861
2600	0.8599
2609	0.8557
2618	0.8508
2627	0.8455
2636	0.8397
2645	0.832
2654	0.8136
2663	0.7874
2672	0.7906
2681	0.822
2690	0.8551
2699	0.8545
2708	0.854
2717	0.8544
2726	0.8587
2735	0.8631
2744	0.8642
2753	0.864
2762	0.8629
2771	0.8613
2780	0.8597
2789	0.858
2798	0.8561
2807	0.852
2816	0.8468
2825	0.8282
2834	0.7327
2843	0.6497
2852	0.7374
2861	0.8193
2870	0.8131
2879	0.7976
2888	0.755
2897	0.758
2906	0.7794
2915	0.7779
2924	0.7709
2933	0.7479
2942	0.5617
2951	0.5362
2960	0.5942
2969	0.6414
2978	0.6899
2987	0.6757
2996	0.6755
3005	0.6801
3014	0.6751
3023	0.6739
3032	0.6984
3041	0.7717
3050	0.8272
3059	0.8383
3068	0.8447
3077	0.8488
3086	0.8518
3095	0.8542
3104	0.8555
3113	0.8566
3122	0.8582
3131	0.86
3140	0.8618
3149	0.863
3158	0.8643
3167	0.865
3176	0.8651
3185	0.8651
3194	0.8653
3203	0.8655
3212	0.8656
3221	0.8659
3230	0.8663
3239	0.8667
3248	0.8672
3257	0.8676
3266	0.868
3275	0.8685
3284	0.8692
3293	0.8698
3302	0.8705
3311	0.8711
3320	0.8718
3329	0.8724
3338	0.8731
3347	0.8736
3356	0.8742
3365	0.8747
3374	0.8753
3383	0.8758
3392	0.8764
3401	0.8769
3410	0.8774
3419	0.8778
3428	0.8782
3437	0.8785
3446	0.879
3455	0.8793
3464	0.8797
3473	0.8801
3482	0.8805
3491	0.8808
3500	0.8813
3509	0.8816
3518	0.8821
3527	0.8824
3536	0.883
3545	0.8841
3554	0.8853
3563	0.8864
3572	0.8875
3581	0.8885
3590	0.8893
3599	0.8902
3608	0.891
3617	0.8918
3626	0.8923
3635	0.8922
3644	0.8921
3653	0.892
3662	0.8919
3671	0.8919
3680	0.8918
3689	0.8917
3698	0.8917
3707	0.8916
3716	0.8916
3725	0.8915
3734	0.8915
3743	0.8915
3752	0.8915
3761	0.8914
3770	0.8914
3779	0.8912
3788	0.891
3797	0.8907
3806	0.8902
