Infrared Spectrum: N-2-HYDROXYETHYL PHTHALIMIDE
Formula: C10 H9 N O3
CAS: 3891-07-4
State: SOLID (MINERAL OIL MULL)
Melting point: 127-129 C
Class: COBLENTZ
Instrument: Not specified, most likely a prism, grating, or hybrid spectrometer.
Sampling: TRANSMISSION
Resolution: 4
Origin: WYANDOTTE CHEMICALS CORP., WYANDOTTE, MICHIGAN, USA
MICROMETERS	TRANSMITTANCE
2.019	0.363
2.05617	0.39
2.09334	0.405
2.1305	0.407
2.16767	0.401
2.20484	0.385
2.24201	0.393
2.27918	0.41
2.31634	0.424
2.35351	0.419
2.39068	0.429
2.42785	0.433
2.46502	0.438
2.50218	0.441
2.53935	0.46
2.57652	0.468
2.61369	0.469
2.65086	0.489
2.68803	0.5
2.72519	0.497
2.76236	0.493
2.79953	0.424
2.8367	0.276
2.87387	0.136
2.91103	0.071
2.9482	0.157
2.98537	0.276
3.02254	0.362
3.05971	0.401
3.09687	0.437
3.13404	0.441
3.17121	0.438
3.20838	0.423
3.24555	0.384
3.28271	0.343
3.31988	0.287
3.35705	0.062
3.39422	0.021
3.43139	0.026
3.46855	0.032
3.50572	0.032
3.54289	0.283
3.58006	0.496
3.61723	0.556
3.65439	0.601
3.69156	0.594
3.72873	0.594
3.7659	0.611
3.80307	0.6
3.84023	0.623
3.8774	0.653
3.91457	0.671
3.95174	0.69
3.98891	0.69
4.02608	0.698
4.06324	0.699
4.10041	0.698
4.13758	0.701
4.17475	0.693
4.21192	0.706
4.24908	0.709
4.28625	0.699
4.32342	0.734
4.36059	0.754
4.39776	0.774
4.43492	0.777
4.47209	0.779
4.50926	0.779
4.54643	0.808
4.5836	0.811
4.62076	0.818
4.65793	0.819
4.6951	0.836
4.73227	0.847
4.76944	0.85
4.8066	0.861
4.84377	0.869
4.88094	0.878
4.91811	0.884
4.95528	0.892
4.99244	0.906
5.02961	0.878
5.06678	0.903
5.10395	0.878
5.14112	0.898
5.17828	0.911
5.21545	0.9
5.25262	0.892
5.28979	0.942
5.32696	0.906
5.36413	0.877
5.40129	0.911
5.43846	0.961
5.47563	0.956
5.5128	0.937
5.54997	0.933
5.58713	0.805
5.6243	0.651
5.66147	0.267
5.69864	0.108
5.73581	0.25
5.77297	0.122
5.81014	0.06
5.84731	0.012
5.88448	0.021
5.92165	0.02
5.95881	0.037
5.99598	0.082
6.03315	0.149
6.07032	0.312
6.10749	0.346
6.14465	0.402
6.18182	0.195
6.21899	0.311
6.25616	0.454
6.29333	0.497
6.33049	0.559
6.36766	0.552
6.40483	0.622
6.442	0.618
6.47917	0.656
6.51633	0.646
6.5535	0.685
6.59067	0.721
6.62784	0.724
6.66501	0.715
6.70218	0.678
6.73934	0.545
6.77651	0.146
6.81368	0.069
6.85085	0.108
6.88802	0.152
6.92518	0.141
6.96235	0.055
6.99952	0.034
7.03669	0.227
7.07386	0.245
7.11102	0.096
7.14819	0.029
7.18536	0.02
7.22253	0.049
7.2597	0.023
7.29686	0.111
7.33403	0.209
7.3712	0.119
7.40837	0.264
7.44554	0.328
7.4827	0.284
7.51987	0.188
7.55704	0.08
7.59421	0.124
7.63138	0.309
7.66854	0.443
7.70571	0.466
7.74288	0.485
7.78005	0.553
7.81722	0.595
7.85438	0.617
7.89155	0.634
7.92872	0.629
7.96589	0.632
8.00306	0.659
8.04023	0.654
8.07739	0.566
8.11456	0.604
8.15173	0.685
8.1889	0.724
8.22607	0.678
8.26323	0.653
8.3004	0.724
8.33757	0.738
8.37474	0.595
8.41191	0.216
8.44907	0.415
8.48624	0.331
8.52341	0.51
8.56058	0.609
8.59775	0.622
8.63491	0.692
8.67208	0.69
8.70925	0.671
8.74642	0.603
8.78359	0.396
8.82075	0.239
8.85792	0.405
8.89509	0.575
8.93226	0.623
8.96943	0.678
9.00659	0.718
9.04376	0.724
9.08093	0.71
9.1181	0.531
9.15527	0.301
9.19243	0.5
9.2296	0.552
9.26677	0.471
9.30394	0.32
9.34111	0.337
9.37828	0.234
9.41544	0.069
9.45261	0.026
9.48978	0.062
9.52695	0.206
9.56412	0.335
9.60128	0.374
9.63845	0.345
9.67562	0.216
9.71279	0.111
9.74996	0.304
9.78712	0.441
9.82429	0.202
9.86146	0.069
9.89863	0.312
9.9358	0.505
9.97296	0.516
10.0101	0.278
10.0473	0.062
10.0845	0.052
10.1216	0.166
10.1588	0.317
10.196	0.418
10.2331	0.472
10.2703	0.412
10.3075	0.407
10.3446	0.519
10.3818	0.589
10.419	0.609
10.4561	0.634
10.4933	0.65
10.5305	0.673
10.5677	0.688
10.6048	0.701
10.642	0.715
10.6792	0.726
10.7163	0.738
10.7535	0.748
10.7907	0.757
10.8278	0.76
10.865	0.758
10.9022	0.757
10.9393	0.774
10.9765	0.774
11.0137	0.642
11.0508	0.438
11.088	0.423
11.1252	0.206
11.1623	0.379
11.1995	0.561
11.2367	0.67
11.2738	0.715
11.311	0.751
11.3482	0.768
11.3854	0.768
11.4225	0.706
11.4597	0.555
11.4969	0.631
11.534	0.749
11.5712	0.79
11.6084	0.814
11.6455	0.827
11.6827	0.827
11.7199	0.836
11.757	0.844
11.7942	0.847
11.8314	0.844
11.8685	0.836
11.9057	0.83
11.9429	0.796
11.98	0.67
12.0172	0.511
12.0544	0.668
12.0915	0.807
12.1287	0.839
12.1659	0.856
12.203	0.872
12.2402	0.869
12.2774	0.869
12.3146	0.869
12.3517	0.864
12.3889	0.839
12.4261	0.768
12.4632	0.545
12.5004	0.241
12.5376	0.174
12.5747	0.482
12.6119	0.695
12.6491	0.779
12.6862	0.872
12.7234	0.902
12.7606	0.914
12.7977	0.917
12.8349	0.919
12.8721	0.919
12.9092	0.912
12.9464	0.897
12.9836	0.88
13.0207	0.898
13.0579	0.889
13.0951	0.898
13.1322	0.891
13.1694	0.881
13.2066	0.856
13.2438	0.849
13.2809	0.827
13.3181	0.808
13.3553	0.783
13.3924	0.748
13.4296	0.709
13.4668	0.674
13.5039	0.625
13.5411	0.567
13.5783	0.477
13.6154	0.374
13.6526	0.267
13.6898	0.15
13.7269	0.059
13.7641	0.024
13.8013	0.02
13.8384	0.018
13.8756	0.032
13.9128	0.071
13.9499	0.161
13.9871	0.281
14.0243	0.376
14.0615	0.475
14.0986	0.51
14.1358	0.516
14.173	0.48
14.2101	0.528
14.2473	0.64
14.2845	0.709
14.3216	0.752
14.3588	0.78
14.396	0.785
14.4331	0.741
14.4703	0.699
14.5075	0.702
14.5446	0.743
14.5818	0.782
14.619	0.802
14.6561	0.81
14.6933	0.807
14.7305	0.81
14.7676	0.81
14.8048	0.813
14.842	0.808
14.8791	0.8
14.9163	0.794
14.9535	0.771
14.9907	0.73
15.0278	0.676
15.065	0.65
15.1022	0.671
15.1393	0.704
15.1765	0.724
15.2137	0.735
15.2508	0.738
15.288	0.734
15.3252	0.721
15.3623	0.72
15.3995	0.704
15.4367	0.688
15.4738	0.681
15.511	0.673
15.5482	0.662
15.5853	0.662
15.6225	0.648
15.6597	0.636
15.6968	0.628
15.734	0.609
15.7712	0.597
15.8083	0.586
15.8455	0.572
15.8827	0.558
15.9199	0.553
15.957	0.536
