Infrared Spectrum: Acetoacetic acid, 2,2-dimethyl-, methyl ester
Formula: C7 H12 O3
CAS: 38923-57-8
State: SOLUTION (10% CCl4 FOR 3800-1330, 10% CS2 FOR 1330-470, 2% CCl4 FOR 1850-1570 CM^-^1)
Class: COBLENTZ II
Instrument: DOW KBr FOREPRISM-GRATING
Instrument parameters: BLAZED AT 3.5, 12.0, 20.0 MICRON AND CHANGED AT 5.0, 7.5, 14.9 MICRON
Sampling: TRANSMISSION
Path length: 0.011 CM, 0.011 CM, 0.011 CM
Resolution: 2
Origin: DOW CHEMICAL COMPANY
1/CM	TRANSMITTANCE
3800	0.8686
3791	0.8692
3782	0.8702
3773	0.8711
3764	0.8718
3755	0.8724
3746	0.8725
3737	0.8725
3728	0.8718
3719	0.8709
3710	0.8693
3701	0.8641
3692	0.855
3683	0.8518
3674	0.8559
3665	0.8612
3656	0.864
3647	0.8661
3638	0.8668
3629	0.8673
3620	0.8675
3611	0.8664
3602	0.8642
3593	0.86
3584	0.8545
3575	0.8508
3566	0.8495
3557	0.8487
3548	0.8487
3539	0.8487
3530	0.8489
3521	0.849
3512	0.8489
3503	0.8452
3494	0.8373
3485	0.8336
3476	0.8317
3467	0.8241
3458	0.7998
3449	0.7969
3440	0.8012
3431	0.8001
3422	0.7982
3413	0.8096
3404	0.8243
3395	0.8341
3386	0.84
3377	0.8438
3368	0.8458
3359	0.8462
3350	0.8459
3341	0.8458
3332	0.8467
3323	0.8477
3314	0.8487
3305	0.8496
3296	0.85
3287	0.8501
3278	0.8501
3269	0.8501
3260	0.8501
3251	0.8498
3242	0.8489
3233	0.8461
3224	0.8425
3215	0.8406
3206	0.8406
3197	0.8406
3188	0.8406
3179	0.8408
3170	0.8411
3161	0.841
3152	0.8404
3143	0.8397
3134	0.8389
3125	0.8377
3116	0.8361
3107	0.8338
3098	0.8306
3089	0.827
3080	0.8225
3071	0.8158
3062	0.8012
3053	0.7634
3044	0.7001
3035	0.6611
3026	0.6212
3017	0.5494
3008	0.3721
2999	0.2391
2990	0.2531
2981	0.4481
2972	0.5149
2963	0.3573
2954	0.2964
2945	0.3589
2936	0.5012
2927	0.6003
2918	0.6332
2909	0.6381
2900	0.686
2891	0.6845
2882	0.6701
2873	0.6883
2864	0.7803
2855	0.7649
2846	0.7174
2837	0.8144
2828	0.8308
2819	0.8403
2810	0.8491
2801	0.856
2792	0.8604
2783	0.8601
2774	0.8593
2765	0.8618
2756	0.8655
2747	0.8655
2738	0.8636
2729	0.863
2720	0.8632
2711	0.8635
2702	0.8638
2693	0.8643
2684	0.8652
2675	0.866
2666	0.8666
2657	0.8671
2648	0.8678
2639	0.8685
2630	0.8693
2621	0.8699
2612	0.8685
2603	0.8631
2594	0.8627
2585	0.8648
2576	0.866
2567	0.8666
2558	0.8671
2549	0.8671
2540	0.8675
2531	0.8675
2522	0.868
2513	0.8685
2504	0.869
2495	0.8694
2486	0.8692
2477	0.8688
2468	0.8688
2459	0.8696
2450	0.8712
2441	0.8725
2432	0.8731
2423	0.8727
2414	0.8723
2405	0.8718
2396	0.8718
2387	0.8718
2378	0.8721
2369	0.8727
2360	0.8734
2351	0.874
2342	0.8742
2333	0.8751
2324	0.8766
2315	0.8788
2306	0.8842
2297	0.8884
2288	0.8907
2279	0.8888
2270	0.8875
2261	0.888
2252	0.8901
2243	0.8925
2234	0.8956
2225	0.8974
2216	0.8987
2207	0.8998
2198	0.9009
2189	0.9018
2180	0.9015
2171	0.901
2162	0.9004
2153	0.8997
2144	0.8967
2135	0.8933
2126	0.8877
2117	0.8833
2108	0.8828
2099	0.8854
2090	0.889
2081	0.8909
2072	0.8918
2063	0.8921
2054	0.8927
2045	0.8933
2036	0.8934
2027	0.8928
2018	0.8871
2009	0.8825
2000	0.8825
1991	0.8865
1982	0.8868
1973	0.8824
1964	0.8778
1955	0.8804
1946	0.8845
1937	0.8894
1928	0.8939
1919	0.8975
1910	0.8993
1901	0.9007
1892	0.8954
1883	0.8895
1874	0.8847
1865	0.8825
1856	0.8813
1847	0.879
1838	0.8728
1829	0.8592
1820	0.8416
1811	0.8207
1802	0.7918
1793	0.7543
1784	0.7039
1775	0.5877
1766	0.3538
1757	0.0459
1748	0.0117
1739	0.0197
1730	0.0153
1721	0.0086
1712	0.036
1703	0.2678
1694	0.4796
1685	0.5632
1676	0.6662
1667	0.7417
1658	0.7648
1649	0.7826
1640	0.7937
1631	0.7947
1622	0.794
1613	0.8021
1604	0.8208
1595	0.84
1586	0.85
1577	0.8568
1568	0.8642
1559	0.8711
1550	0.8724
1541	0.8581
1532	0.8492
1523	0.8408
1514	0.8068
1505	0.7851
1496	0.7631
1487	0.6862
1478	0.4628
1469	0.2072
1460	0.1932
1451	0.3025
1442	0.3119
1433	0.1758
1424	0.5101
1415	0.5901
1406	0.6683
1397	0.666
1388	0.26
1379	0.593
1370	0.302
1361	0.2947
1352	0.2432
1343	0.6229
1334	0.6116
1325	0.6588
1316	0.6644
1307	0.648
1298	0.5643
1289	0.4302
1280	0.1662
1271	0.0435
1262	0.0396
1253	0.1278
1244	0.1982
1235	0.2225
1226	0.283
1217	0.3603
1208	0.3684
1199	0.2233
1190	0.1601
1181	0.3236
1172	0.2932
1163	0.1196
1154	0.0208
1145	0.1028
1136	0.3082
1127	0.223
1118	0.0261
1109	0.1651
1100	0.4772
1091	0.6775
1082	0.6985
1073	0.6919
1064	0.7372
1055	0.7778
1046	0.7806
1037	0.7649
1028	0.6536
1019	0.6621
1010	0.6767
1001	0.739
992	0.7183
983	0.5198
974	0.6131
965	0.5308
956	0.6541
947	0.7487
938	0.8216
929	0.8384
920	0.8289
911	0.827
902	0.7821
893	0.8596
884	0.8706
875	0.8715
866	0.8511
857	0.7911
848	0.307
839	0.6235
830	0.7819
821	0.8496
812	0.8648
803	0.8766
794	0.8814
785	0.8783
776	0.8068
767	0.7922
758	0.8744
749	0.8765
740	0.8773
731	0.885
722	0.8892
713	0.8898
704	0.8895
695	0.8892
686	0.8827
677	0.8858
668	0.8895
659	0.8793
650	0.8645
641	0.8636
632	0.8136
623	0.7975
614	0.8293
605	0.7695
596	0.7584
587	0.7975
578	0.8307
569	0.8534
560	0.8675
551	0.8748
542	0.8777
533	0.8582
524	0.8471
515	0.8465
506	0.8468
497	0.8409
488	0.8168
479	0.8144
470	0.8188
