Infrared Spectrum: o,Alpha,Alpha,Alpha-Tetrafluorotoluene
Formula: C7 H4 F4
CAS: 392-85-8
State: SOLUTION (5% CCl4 FOR 3800-1330, 5% CS2 FOR 1330-400 CM^-^1)
Class: COBLENTZ III
Instrument: DOW KBr FOREPRISM-GRATING
Instrument parameters: BLAZED AT 3.5, 12.0, 20.0 MICRON AND CHANGED AT 5.0, 7.5, 14.9 MICRON
Sampling: TRANSMISSION
Path length: 0.010 CM, 0.010 CM
Resolution: 2
Origin: DOW CHEMICAL COMPANY
1/CM	TRANSMITTANCE
3800	0.8913
3791	0.8926
3782	0.8923
3773	0.8928
3764	0.8921
3755	0.8906
3746	0.8893
3737	0.8896
3728	0.89
3719	0.8903
3710	0.894
3701	0.8954
3692	0.8897
3683	0.8848
3674	0.8848
3665	0.8859
3656	0.8864
3647	0.8868
3638	0.8865
3629	0.8851
3620	0.8845
3611	0.8825
3602	0.8799
3593	0.8788
3584	0.8755
3575	0.873
3566	0.8716
3557	0.8706
3548	0.8707
3539	0.8698
3530	0.8694
3521	0.8681
3512	0.8675
3503	0.8669
3494	0.8667
3485	0.8667
3476	0.8666
3467	0.8666
3458	0.8664
3449	0.865
3440	0.8641
3431	0.8637
3422	0.8632
3413	0.8621
3404	0.8614
3395	0.8582
3386	0.858
3377	0.8594
3368	0.8599
3359	0.8592
3350	0.8587
3341	0.8584
3332	0.8585
3323	0.8585
3314	0.8585
3305	0.8587
3296	0.8575
3287	0.8565
3278	0.8559
3269	0.855
3260	0.8538
3251	0.8528
3242	0.8529
3233	0.8532
3224	0.8536
3215	0.854
3206	0.8537
3197	0.8546
3188	0.855
3179	0.8545
3170	0.8543
3161	0.8544
3152	0.8547
3143	0.8536
3134	0.8543
3125	0.8542
3116	0.8531
3107	0.8487
3098	0.8434
3089	0.8376
3080	0.8311
3071	0.8322
3062	0.8305
3053	0.8184
3044	0.8326
3035	0.8451
3026	0.8445
3017	0.8435
3008	0.8489
2999	0.854
2990	0.8571
2981	0.8571
2972	0.8561
2963	0.8538
2954	0.8507
2945	0.847
2936	0.8443
2927	0.84
2918	0.8355
2909	0.8332
2900	0.8407
2891	0.8452
2882	0.8467
2873	0.8469
2864	0.8472
2855	0.8473
2846	0.8475
2837	0.8512
2828	0.8546
2819	0.8566
2810	0.8555
2801	0.8566
2792	0.8594
2783	0.861
2774	0.8611
2765	0.8595
2756	0.8577
2747	0.8564
2738	0.8598
2729	0.8615
2720	0.8618
2711	0.8622
2702	0.8625
2693	0.8626
2684	0.8627
2675	0.8629
2666	0.8637
2657	0.8649
2648	0.8623
2639	0.8573
2630	0.8553
2621	0.8579
2612	0.8591
2603	0.8599
2594	0.8607
2585	0.8615
2576	0.862
2567	0.8622
2558	0.8625
2549	0.8632
2540	0.864
2531	0.864
2522	0.8639
2513	0.8644
2504	0.8649
2495	0.8646
2486	0.8635
2477	0.8588
2468	0.8496
2459	0.8515
2450	0.859
2441	0.8604
2432	0.8595
2423	0.8596
2414	0.8603
2405	0.8618
2396	0.8619
2387	0.8621
2378	0.8639
2369	0.8642
2360	0.8636
2351	0.8645
2342	0.8635
2333	0.8615
2324	0.8589
2315	0.849
2306	0.8496
2297	0.8596
2288	0.8466
2279	0.8482
2270	0.8485
2261	0.8505
2252	0.8541
2243	0.8574
2234	0.8574
2225	0.8561
2216	0.8533
2207	0.8544
2198	0.858
2189	0.8619
2180	0.8652
2171	0.8645
2162	0.8626
2153	0.8621
2144	0.8627
2135	0.8636
2126	0.8629
2117	0.8617
2108	0.8607
2099	0.8589
2090	0.862
2081	0.8582
2072	0.8505
2063	0.8494
2054	0.8532
2045	0.8549
2036	0.8562
2027	0.8579
2018	0.8593
2009	0.8596
2000	0.8482
1991	0.8617
1982	0.8693
1973	0.8643
1964	0.8523
1955	0.8639
1946	0.8674
1937	0.8594
1928	0.8273
1919	0.853
1910	0.863
1901	0.855
1892	0.8549
1883	0.8652
1874	0.864
1865	0.8616
1856	0.8619
1847	0.8557
1838	0.8583
1829	0.8663
1820	0.8569
1811	0.8248
1802	0.8318
1793	0.8522
1784	0.8588
1775	0.8571
1766	0.8532
1757	0.8432
1748	0.8399
1739	0.8432
1730	0.836
1721	0.8327
1712	0.8325
1703	0.8197
1694	0.8301
1685	0.8298
1676	0.8256
1667	0.8082
1658	0.8077
1649	0.7789
1640	0.7451
1631	0.5778
1622	0.2841
1613	0.5715
1604	0.5271
1595	0.3717
1586	0.5141
1577	0.6279
1568	0.5725
1559	0.5866
1550	0.5826
1541	0.6607
1532	0.6894
1523	0.682
1514	0.6062
1505	0.3907
1496	0.2946
1487	0.6929
1478	0.67
1469	0.0653
1460	0.5085
1451	0.6424
1442	0.7763
1433	0.7986
1424	0.7989
1415	0.8068
1406	0.7806
1397	0.81
1388	0.7947
1379	0.7891
1370	0.7677
1361	0.7456
1352	0.7223
1343	0.6094
1334	0.329
1325	0.0039
1316	0.2688
1307	0.3468
1298	0.6411
1289	0.6724
1280	0.554
1271	0.0876
1262	0.4638
1253	0.6345
1244	0.2233
1235	0.334
1226	0.6595
1217	0.6964
1208	0.6837
1199	0.675
1190	0.6185
1181	0.5041
1172	0.0624
1163	0.1533
1154	0.0599
1145	0.0001
1136	0.1007
1127	0.3209
1118	0.2301
1109	0.1166
1100	0.5273
1091	0.6705
1082	0.7001
1073	0.6702
1064	0.2973
1055	0.1969
1046	0.7087
1037	0.713
1028	0.3838
1019	0.7719
1010	0.7925
1001	0.7943
992	0.7971
983	0.7934
974	0.8038
965	0.8014
956	0.7951
947	0.5738
938	0.7874
929	0.8029
920	0.8128
911	0.8197
902	0.8194
893	0.8065
884	0.7956
875	0.7731
866	0.7482
857	0.7456
848	0.7941
839	0.3393
830	0.7895
821	0.8354
812	0.8407
803	0.847
794	0.8369
785	0.817
776	0.7577
767	0.2782
758	0.5842
749	0.8088
740	0.8089
731	0.8534
722	0.867
713	0.8698
704	0.8645
695	0.8624
686	0.864
677	0.8729
668	0.8892
659	0.8497
650	0.6188
641	0.7926
632	0.8491
623	0.8643
614	0.8616
605	0.8523
596	0.8041
587	0.8471
578	0.8515
569	0.8524
560	0.8481
551	0.836
542	0.6026
533	0.7942
524	0.7157
515	0.8131
506	0.8278
497	0.8268
488	0.8055
479	0.6614
470	0.7496
461	0.7839
452	0.782
443	0.7666
434	0.7385
425	0.69
416	0.5457
407	0.3082
398	0.128
