Infrared Spectrum: HEXAFLUORO BENZENE
Formula: C6 F6
CAS: 392-56-3
State: LIQUID
Class: COBLENTZ
Instrument: Not specified, most likely a prism, grating, or hybrid spectrometer.
Sampling: TRANSMISSION
Path length: 0.003 CM
Resolution: 4
Origin: WYANDOTTE CHEMICALS CORP., WYANDOTTE, MICHIGAN, USA
MICROMETERS	TRANSMITTANCE
2.034	0.982
2.0748	0.986
2.11559	0.988
2.15639	0.984
2.19719	0.982
2.23799	0.986
2.27878	0.989
2.31958	0.986
2.36038	0.982
2.40117	0.984
2.44197	0.982
2.48277	0.979
2.52356	0.977
2.56436	0.972
2.60516	0.971
2.64596	0.979
2.68675	0.979
2.72755	0.967
2.76835	0.974
2.80914	0.974
2.84994	0.972
2.89074	0.967
2.93154	0.962
2.97233	0.96
3.01313	0.948
3.05393	0.952
3.09472	0.947
3.13552	0.947
3.17632	0.948
3.21712	0.952
3.25791	0.935
3.29871	0.833
3.33951	0.833
3.3803	0.928
3.4211	0.918
3.4619	0.935
3.50269	0.952
3.54349	0.954
3.58429	0.965
3.62509	0.964
3.66588	0.955
3.70668	0.754
3.74748	0.744
3.78827	0.918
3.82907	0.947
3.86987	0.955
3.91067	0.962
3.95146	0.952
3.99226	0.89
4.03306	0.717
4.07385	0.488
4.11465	0.916
4.15545	0.926
4.19625	0.89
4.23704	0.923
4.27784	0.93
4.31864	0.94
4.35943	0.962
4.40023	0.976
4.44103	0.971
4.48182	0.896
4.52262	0.957
4.56342	0.971
4.60422	0.972
4.64501	0.936
4.68581	0.863
4.72661	0.872
4.7674	0.954
4.8082	0.836
4.849	0.778
4.8898	0.943
4.93059	0.964
4.97139	0.962
5.01219	0.972
5.05298	0.964
5.09378	0.962
5.13458	0.955
5.17538	0.965
5.21617	0.964
5.25697	0.955
5.29777	0.936
5.33856	0.96
5.37936	0.964
5.42016	0.971
5.46095	0.955
5.50175	0.947
5.54255	0.718
5.58335	0.826
5.62414	0.911
5.66494	0.63
5.70574	0.681
5.74653	0.899
5.78733	0.892
5.82813	0.793
5.86893	0.819
5.90972	0.795
5.95052	0.885
5.99132	0.873
6.03211	0.843
6.07291	0.85
6.11371	0.862
6.1545	0.85
6.1953	0.659
6.2361	0.679
6.2769	0.587
6.31769	0.412
6.35849	0.245
6.39929	0.034
6.44008	0.051
6.48088	0.034
6.52168	0.04
6.56248	0.044
6.60327	0.175
6.64407	0.354
6.68487	0.453
6.72566	0.543
6.76646	0.5
6.80726	0.55
6.84806	0.65
6.88885	0.662
6.92965	0.603
6.97045	0.787
7.01124	0.855
7.05204	0.899
7.09284	0.901
7.13363	0.899
7.17443	0.911
7.21523	0.877
7.25603	0.734
7.29682	0.437
7.33762	0.241
7.37842	0.497
7.41921	0.623
7.46001	0.744
7.50081	0.798
7.54161	0.844
7.5824	0.872
7.6232	0.846
7.664	0.798
7.70479	0.851
7.74559	0.892
7.78639	0.892
7.82719	0.879
7.86798	0.88
7.90878	0.877
7.94958	0.896
7.99037	0.894
8.03117	0.896
8.07197	0.906
8.11276	0.916
8.15356	0.923
8.19436	0.921
8.23516	0.926
8.27595	0.93
8.31675	0.93
8.35755	0.926
8.39834	0.93
8.43914	0.919
8.47994	0.911
8.52074	0.899
8.56153	0.846
8.60233	0.8
8.64313	0.816
8.68392	0.884
8.72472	0.919
8.76552	0.925
8.80632	0.93
8.84711	0.94
8.88791	0.935
8.92871	0.931
8.9695	0.925
9.0103	0.904
9.0511	0.865
9.09189	0.824
9.13269	0.768
9.17349	0.703
9.21429	0.749
9.25508	0.817
9.29588	0.836
9.33668	0.817
9.37747	0.749
9.41827	0.676
9.45907	0.586
9.49987	0.459
9.54066	0.233
9.58146	0.258
9.62226	0.103
9.66305	0.034
9.70385	0.034
9.74465	0.034
9.78544	0.034
9.82624	0.034
9.86704	0.035
9.90784	0.034
9.94863	0.034
9.98943	0.037
10.0302	0.032
10.071	0.032
10.1118	0.034
10.1526	0.034
10.1934	0.042
10.2342	0.085
10.275	0.224
10.3158	0.407
10.3566	0.599
10.3974	0.684
10.4382	0.752
10.479	0.795
10.5198	0.833
10.5606	0.86
10.6014	0.87
10.6422	0.89
10.683	0.899
10.7238	0.909
10.7646	0.916
10.8054	0.925
10.8462	0.93
10.887	0.936
10.9278	0.931
10.9686	0.933
11.0094	0.935
11.0502	0.933
11.091	0.938
11.1317	0.933
11.1725	0.933
11.2133	0.926
11.2541	0.902
11.2949	0.877
11.3357	0.887
11.3765	0.896
11.4173	0.885
11.4581	0.87
11.4989	0.877
11.5397	0.911
11.5805	0.925
11.6213	0.931
11.6621	0.935
11.7029	0.933
11.7437	0.935
11.7845	0.925
11.8253	0.906
11.8661	0.89
11.9069	0.885
11.9477	0.897
11.9885	0.914
12.0293	0.931
12.0701	0.933
12.1109	0.94
12.1517	0.94
12.1925	0.942
12.2333	0.938
12.2741	0.938
12.3149	0.935
12.3557	0.931
12.3965	0.93
12.4373	0.928
12.4781	0.923
12.5188	0.919
12.5596	0.918
12.6004	0.909
12.6412	0.909
12.682	0.913
12.7228	0.911
12.7636	0.901
12.8044	0.902
12.8452	0.899
12.886	0.889
12.9268	0.884
12.9676	0.873
13.0084	0.867
13.0492	0.858
13.09	0.844
13.1308	0.839
13.1716	0.822
13.2124	0.809
13.2532	0.805
13.294	0.798
13.3348	0.79
13.3756	0.78
13.4164	0.768
13.4572	0.754
13.498	0.744
13.5388	0.727
13.5796	0.717
13.6204	0.693
13.6612	0.662
13.702	0.626
13.7428	0.591
13.7836	0.54
13.8244	0.488
13.8652	0.461
13.9059	0.442
13.9467	0.442
13.9875	0.477
14.0283	0.541
14.0691	0.596
14.1099	0.64
14.1507	0.679
14.1915	0.706
14.2323	0.73
14.2731	0.749
14.3139	0.756
14.3547	0.763
14.3955	0.77
14.4363	0.771
14.4771	0.771
14.5179	0.77
14.5587	0.764
14.5995	0.764
14.6403	0.758
14.6811	0.754
14.7219	0.746
14.7627	0.739
14.8035	0.739
14.8443	0.734
14.8851	0.73
14.9259	0.715
14.9667	0.724
15.0075	0.708
15.0483	0.65
15.0891	0.637
15.1299	0.662
15.1707	0.686
15.2115	0.678
15.2523	0.667
15.2931	0.659
15.3338	0.654
15.3746	0.64
15.4154	0.63
15.4562	0.623
15.497	0.609
15.5378	0.608
15.5786	0.601
15.6194	0.592
15.6602	0.579
15.701	0.572
15.7418	0.558
15.7826	0.546
15.8234	0.534
15.8642	0.528
15.905	0.526
15.9458	0.517
15.9866	0.511
