Infrared Spectrum: 4-PHENOXY BIPHENYL
Formula: C18 H14 O
CAS: 3933-94-6
State: SOLUTION (10% CCl4 FOR 2.5-7.5, 10% CS2 FOR 7.5-16 MICRONS)
Class: COBLENTZ
Instrument: Not specified, most likely a prism, grating, or hybrid spectrometer.
Sampling: TRANSMISSION
Path length: 0.01 CM, 0.01 CM
Resolution: 4
Origin: DOW CHEMICAL COMPANY
MICROMETERS	TRANSMITTANCE
2.016	0.873
2.05615	0.876
2.0963	0.873
2.13645	0.871
2.1766	0.876
2.21675	0.883
2.25691	0.883
2.29706	0.881
2.33721	0.884
2.37736	0.888
2.41751	0.881
2.45766	0.873
2.49781	0.901
2.53796	0.898
2.57811	0.891
2.61826	0.891
2.65841	0.893
2.69857	0.883
2.73872	0.883
2.77887	0.879
2.81902	0.879
2.85917	0.873
2.89932	0.875
2.93947	0.873
2.97962	0.873
3.01977	0.873
3.05992	0.871
3.10007	0.871
3.14022	0.868
3.18038	0.853
3.22053	0.726
3.26068	0.593
3.30083	0.621
3.34098	0.87
3.38113	0.878
3.42128	0.881
3.46143	0.883
3.50158	0.898
3.54173	0.902
3.58188	0.914
3.62204	0.909
3.66219	0.922
3.70234	0.927
3.74249	0.93
3.78264	0.929
3.82279	0.927
3.86294	0.924
3.90309	0.924
3.94324	0.925
3.98339	0.922
4.02354	0.901
4.0637	0.881
4.10385	0.888
4.144	0.893
4.18415	0.899
4.2243	0.884
4.26445	0.883
4.3046	0.899
4.34475	0.901
4.3849	0.916
4.42505	0.935
4.4652	0.94
4.50535	0.942
4.54551	0.942
4.58566	0.942
4.62581	0.942
4.66596	0.944
4.70611	0.939
4.74626	0.934
4.78641	0.925
4.82656	0.902
4.86671	0.906
4.90686	0.871
4.94701	0.899
4.98717	0.909
5.02732	0.919
5.06747	0.873
5.10762	0.85
5.14777	0.85
5.18792	0.904
5.22807	0.873
5.26822	0.835
5.30837	0.871
5.34852	0.893
5.38867	0.898
5.42883	0.914
5.46898	0.902
5.50913	0.891
5.54928	0.891
5.58943	0.881
5.62958	0.891
5.66973	0.899
5.70988	0.883
5.75003	0.889
5.79018	0.883
5.83033	0.884
5.87049	0.888
5.91064	0.875
5.95079	0.842
5.99094	0.833
6.03109	0.822
6.07124	0.82
6.11139	0.759
6.15154	0.618
6.19169	0.409
6.23184	0.161
6.27199	0.2
6.31214	0.406
6.3523	0.5
6.39245	0.462
6.4326	0.444
6.47275	0.476
6.5129	0.47
6.55305	0.304
6.5932	0.202
6.63335	0.32
6.6735	0.082
6.71365	0.054
6.7538	0.376
6.79396	0.587
6.83411	0.601
6.87426	0.773
6.91441	0.84
6.95456	0.868
6.99471	0.856
7.03486	0.81
7.07501	0.794
7.11516	0.85
7.15531	0.845
7.19546	0.853
7.23562	0.875
7.27577	0.875
7.31592	0.871
7.35607	0.876
7.39622	0.848
7.43637	0.746
7.47652	0.763
7.51667	0.799
7.55682	0.748
7.59697	0.679
7.63712	0.644
7.67727	0.595
7.71743	0.476
7.75758	0.5
7.79773	0.55
7.83788	0.399
7.87803	0.302
7.91818	0.268
7.95833	0.098
7.99848	0.018
8.03863	0.018
8.07878	0.016
8.11893	0.067
8.15909	0.296
8.19924	0.483
8.23939	0.5
8.27954	0.473
8.31969	0.616
8.35984	0.654
8.39999	0.636
8.44014	0.629
8.48029	0.549
8.52044	0.292
8.56059	0.358
8.60075	0.575
8.6409	0.669
8.68105	0.779
8.7212	0.804
8.76135	0.824
8.8015	0.828
8.84165	0.83
8.8818	0.83
8.92195	0.814
8.9621	0.763
9.00225	0.68
9.0424	0.68
9.08256	0.809
9.12271	0.851
9.16286	0.865
9.20301	0.84
9.24316	0.753
9.28331	0.621
9.32346	0.62
9.36361	0.812
9.40376	0.865
9.44391	0.881
9.48406	0.883
9.52422	0.866
9.56437	0.817
9.60452	0.83
9.64467	0.861
9.68482	0.814
9.72497	0.685
9.76512	0.705
9.80527	0.824
9.84542	0.787
9.88557	0.592
9.92572	0.671
9.96588	0.863
10.006	0.85
10.0462	0.883
10.0863	0.896
10.1265	0.894
10.1666	0.889
10.2068	0.888
10.2469	0.891
10.2871	0.899
10.3272	0.896
10.3674	0.886
10.4075	0.881
10.4477	0.879
10.4878	0.891
10.528	0.896
10.5681	0.891
10.6083	0.886
10.6484	0.893
10.6886	0.893
10.7287	0.888
10.7689	0.881
10.809	0.875
10.8492	0.86
10.8893	0.824
10.9295	0.751
10.9696	0.69
11.0098	0.675
11.0499	0.7
11.0901	0.715
11.1303	0.726
11.1704	0.72
11.2106	0.708
11.2507	0.703
11.2909	0.69
11.331	0.634
11.3712	0.509
11.4113	0.291
11.4515	0.152
11.4916	0.233
11.5318	0.396
11.5719	0.483
11.6121	0.491
11.6522	0.45
11.6924	0.37
11.7325	0.3
11.7727	0.281
11.8128	0.276
11.853	0.264
11.8931	0.253
11.9333	0.259
11.9734	0.335
12.0136	0.473
12.0537	0.552
12.0939	0.6
12.134	0.629
12.1742	0.649
12.2143	0.674
12.2545	0.68
12.2946	0.684
12.3348	0.674
12.3749	0.652
12.4151	0.62
12.4552	0.587
12.4954	0.562
12.5355	0.564
12.5757	0.592
12.6158	0.611
12.656	0.638
12.6961	0.669
12.7363	0.689
12.7764	0.705
12.8166	0.707
12.8567	0.702
12.8969	0.677
12.937	0.628
12.9772	0.555
13.0173	0.386
13.0575	0.19
13.0976	0.049
13.1378	0.014
13.1779	0.032
13.2181	0.059
13.2582	0.082
13.2984	0.134
13.3385	0.23
13.3787	0.34
13.4189	0.463
13.459	0.529
13.4992	0.574
13.5393	0.588
13.5795	0.583
13.6196	0.567
13.6598	0.549
13.6999	0.529
13.7401	0.523
13.7802	0.529
13.8204	0.534
13.8605	0.549
13.9007	0.554
13.9408	0.564
13.981	0.562
14.0211	0.537
14.0613	0.49
14.1014	0.43
14.1416	0.388
14.1817	0.35
14.2219	0.289
14.262	0.2
14.3022	0.11
14.3423	0.05
14.3825	0.034
14.4226	0.044
14.4628	0.07
14.5029	0.148
14.5431	0.281
14.5832	0.391
14.6234	0.47
14.6635	0.514
14.7037	0.536
14.7438	0.549
14.784	0.549
14.8241	0.541
14.8643	0.531
14.9044	0.519
14.9446	0.516
14.9847	0.532
15.0249	0.532
15.065	0.521
15.1052	0.511
15.1453	0.503
15.1855	0.498
15.2256	0.481
15.2658	0.473
15.3059	0.47
15.3461	0.467
15.3862	0.462
15.4264	0.453
15.4665	0.445
15.5067	0.434
15.5468	0.417
15.587	0.412
15.6272	0.411
15.6673	0.411
15.7075	0.404
15.7476	0.402
15.7878	0.398
15.8279	0.389
15.8681	0.393
15.9082	0.401
15.9484	0.401
15.9885	0.401
