Infrared Spectrum: PROPANOIC ACID, 2,2-DIMETHYL-, ETHYL ESTER
Formula: C7 H14 O2
CAS: 3938-95-2
State: LIQUID (NEAT)
Class: COBLENTZ III
Instrument: PERKIN-ELMER 521 (GRATING)
Instrument parameters: FILTERS AT 3150, 2500, 2000, 1150, 700, 410 AND GRATING CHANGES AT 2000, 630 CM^-^1
Sampling: TRANSMISSION
Path length: SMEAR, KBr CRYSTALS
Resolution: 4
Origin: STANDARD OIL OF OHIO
1/CM	TRANSMITTANCE
244.484	0.048
254.025	0.051
263.566	0.059
273.107	0.071
282.647	0.08
292.188	0.091
301.729	0.125
311.27	0.147
320.811	0.178
330.352	0.21
339.893	0.264
349.433	0.335
358.974	0.392
368.515	0.42
378.056	0.497
387.597	0.56
397.138	0.592
406.679	0.657
416.219	0.698
425.76	0.736
435.301	0.753
444.842	0.76
454.383	0.796
463.924	0.823
473.465	0.839
483.005	0.846
492.546	0.85
502.087	0.845
511.628	0.802
521.169	0.859
530.71	0.869
540.251	0.872
549.791	0.873
559.332	0.873
568.873	0.873
578.414	0.87
587.955	0.848
597.496	0.842
607.037	0.873
616.577	0.877
626.118	0.876
635.659	0.871
645.2	0.87
654.741	0.872
664.282	0.872
673.823	0.873
683.363	0.87
692.904	0.872
702.445	0.872
711.986	0.871
721.527	0.872
731.068	0.87
740.609	0.87
750.149	0.863
759.69	0.851
769.231	0.77
778.772	0.726
788.313	0.844
797.854	0.851
807.395	0.85
816.935	0.842
826.476	0.855
836.017	0.857
845.558	0.847
855.099	0.81
864.64	0.665
874.18	0.803
883.721	0.847
893.262	0.84
902.803	0.83
912.344	0.846
921.885	0.853
931.426	0.85
940.966	0.785
950.507	0.841
960.048	0.851
969.589	0.855
979.13	0.854
988.671	0.85
998.212	0.832
1007.75	0.78
1017.29	0.702
1026.83	0.639
1036.38	0.51
1045.92	0.519
1055.46	0.726
1065	0.792
1074.54	0.791
1084.08	0.776
1093.62	0.701
1103.16	0.682
1112.7	0.663
1122.24	0.678
1131.78	0.613
1141.32	0.389
1150.87	0.119
1160.41	0.135
1169.95	0.164
1179.49	0.163
1189.03	0.379
1198.57	0.533
1208.11	0.608
1217.65	0.651
1227.19	0.67
1236.73	0.695
1246.27	0.744
1255.81	0.735
1265.36	0.685
1274.9	0.561
1284.44	0.24
1293.98	0.347
1303.52	0.53
1313.06	0.679
1322.6	0.772
1332.14	0.811
1341.68	0.817
1351.22	0.802
1360.76	0.715
1370.31	0.533
1379.85	0.707
1389.39	0.56
1398.93	0.548
1408.47	0.722
1418.01	0.778
1427.55	0.772
1437.09	0.751
1446.63	0.651
1456.17	0.591
1465.71	0.507
1475.25	0.564
1484.8	0.323
1494.34	0.685
1503.88	0.792
1513.42	0.833
1522.96	0.833
1532.5	0.834
1542.04	0.814
1551.58	0.838
1561.12	0.842
1570.66	0.853
1580.2	0.852
1589.74	0.851
1599.29	0.852
1608.83	0.845
1618.37	0.844
1627.91	0.844
1637.45	0.842
1646.99	0.84
1656.53	0.836
1666.07	0.825
1675.61	0.802
1685.15	0.759
1694.69	0.715
1704.23	0.672
1713.78	0.565
1723.32	0.277
1732.86	0.088
1742.4	0.213
1751.94	0.511
1761.48	0.658
1771.02	0.738
1780.56	0.78
1790.1	0.797
1799.64	0.815
1809.18	0.833
1818.73	0.844
1828.27	0.857
1837.81	0.86
1847.35	0.864
1856.89	0.863
1866.43	0.859
1875.97	0.855
1885.51	0.859
1895.05	0.859
1904.59	0.857
1914.13	0.86
1923.67	0.861
1933.22	0.864
1942.76	0.86
1952.3	0.865
1961.84	0.866
1971.38	0.866
1980.92	0.865
1990.46	0.865
2000	0.861
2009.54	0.855
2019.08	0.858
2028.62	0.86
2038.16	0.861
2047.71	0.865
2057.25	0.865
2066.79	0.867
2076.33	0.869
2085.87	0.8701
2095.41	0.87
2104.95	0.87
2114.49	0.87
2124.03	0.871
2133.57	0.8672
2143.11	0.864
2152.66	0.866
2162.2	0.866
2171.74	0.866
2181.28	0.867
2190.82	0.869
2200.36	0.8718
2209.9	0.871
2219.44	0.871
2228.98	0.871
2238.52	0.871
2248.06	0.872
2257.6	0.871
2267.15	0.87
2276.69	0.869
2286.23	0.864
2295.77	0.863
2305.31	0.861
2314.85	0.861
2324.39	0.8625
2333.93	0.863
2343.47	0.864
2353.01	0.864
2362.55	0.866
2372.09	0.8697
2381.64	0.871
2391.18	0.869
2400.72	0.8676
2410.26	0.869
2419.8	0.869
2429.34	0.869
2438.88	0.867
2448.42	0.869
2457.96	0.869
2467.5	0.866
2477.04	0.867
2486.59	0.866
2496.13	0.866
2505.67	0.867
2515.21	0.866
2524.75	0.866
2534.29	0.866
2543.83	0.865
2553.37	0.865
2562.91	0.864
2572.45	0.864
2581.99	0.8634
2591.53	0.8604
2601.08	0.861
2610.62	0.861
2620.16	0.863
2629.7	0.863
2639.24	0.861
2648.78	0.861
2658.32	0.864
2667.86	0.864
2677.4	0.863
2686.94	0.864
2696.48	0.862
2706.02	0.8595
2715.57	0.8566
2725.11	0.851
2734.65	0.852
2744.19	0.8515
2753.73	0.851
2763.27	0.851
2772.81	0.8504
2782.35	0.85
2791.89	0.8466
2801.43	0.8432
2810.97	0.835
2820.52	0.8312
2830.06	0.8226
2839.6	0.8171
2849.14	0.7925
2858.68	0.7543
2868.22	0.6588
2877.76	0.5401
2887.3	0.6071
2896.84	0.609
2906.38	0.5116
2915.92	0.5073
2925.46	0.5287
2935.01	0.4525
2944.55	0.4501
2954.09	0.4415
2963.63	0.3071
2973.17	0.2582
2982.71	0.2315
2992.25	0.3414
3001.79	0.497
3011.33	0.6714
3020.87	0.754
3030.41	0.8027
3039.95	0.8275
3049.5	0.8382
3059.04	0.842
3068.58	0.8452
3078.12	0.847
3087.66	0.8472
3097.2	0.846
3106.74	0.847
3116.28	0.8472
3125.82	0.848
3135.36	0.8528
3144.9	0.847
3154.45	0.8478
3163.99	0.8449
3173.53	0.844
3183.07	0.844
3192.61	0.844
3202.15	0.844
3211.69	0.8438
3221.23	0.844
3230.77	0.844
3240.31	0.845
3249.85	0.846
3259.39	0.848
3268.94	0.848
3278.48	0.8499
3288.02	0.85
3297.56	0.848
3307.1	0.847
3316.64	0.847
3326.18	0.846
3335.72	0.845
3345.26	0.846
3354.8	0.846
3364.34	0.845
3373.88	0.845
3383.43	0.845
3392.97	0.846
3402.51	0.847
3412.05	0.845
3421.59	0.845
3431.13	0.8391
3440.67	0.8281
3450.21	0.8258
3459.75	0.8388
3469.29	0.845
3478.83	0.848
3488.38	0.851
3497.92	0.851
3507.46	0.851
3517	0.8501
3526.54	0.847
3536.08	0.847
3545.62	0.8451
3555.16	0.8449
3564.7	0.845
3574.24	0.848
3583.78	0.85
3593.32	0.852
3602.87	0.852
3612.41	0.848
3621.95	0.848
3631.49	0.848
3641.03	0.8472
3650.57	0.8458
3660.11	0.8518
3669.65	0.8509
3679.19	0.85
3688.73	0.8489
3698.27	0.854
3707.81	0.853
3717.36	0.855
3726.9	0.8537
3736.44	0.8513
3745.98	0.8513
3755.52	0.8537
3765.06	0.855
3774.6	0.853
3784.14	0.854
3793.68	0.853
3803.22	0.851
3812.76	0.853
3822.3	0.848
3831.85	0.85
3841.39	0.85
3850.93	0.8504
3860.47	0.8493
3870.01	0.851
3879.55	0.851
3889.09	0.851
3898.63	0.851
