Infrared Spectrum: BENZOIC ACID, 3,4-DIHYDROXY-, ETHYL ESTER
Formula: C9 H10 O4
CAS: 3943-89-3
State: SOLID (SPLIT MULL, FLUOROLUBE FOR 3800-1330 AND NUJOL FOR 1330-400 CM ^-^1)
Melting point: 131 C
Class: COBLENTZ III
Instrument: DOW KBr FOREPRISM-GRATING
Instrument parameters: BLAZED AT 3.5, 12.0, 20.0 MICRON, CHANGED AT 5.0, 7.5, 14.9 MICRON
Sampling: TRANSMISSION
Resolution: 4
Origin: DOW CHEMICAL COMPANY
1/CM	TRANSMITTANCE
380.105	0.854
388.856	0.854
397.608	0.857
406.359	0.861
415.111	0.868
423.862	0.872
432.614	0.875
441.365	0.886
450.117	0.891
458.868	0.904
467.62	0.913
476.371	0.916
485.123	0.916
493.874	0.913
502.626	0.898
511.377	0.883
520.128	0.849
528.88	0.829
537.631	0.827
546.383	0.908
555.134	0.939
563.886	0.937
572.637	0.915
581.389	0.906
590.14	0.896
598.892	0.956
607.643	0.96
616.395	0.956
625.146	0.932
633.898	0.66
642.649	0.896
651.4	0.871
660.152	0.801
668.903	0.818
677.655	0.871
686.406	0.927
695.158	0.963
703.909	0.965
712.661	0.919
721.412	0.863
730.164	0.946
738.915	0.958
747.667	0.956
756.418	0.861
765.17	0.716
773.921	0.783
782.672	0.956
791.424	0.979
800.175	0.983
808.927	0.98
817.678	0.932
826.43	0.954
835.181	0.969
843.933	0.967
852.684	0.96
861.436	0.943
870.187	0.872
878.939	0.934
887.69	0.934
896.442	0.924
905.193	0.891
913.944	0.872
922.696	0.922
931.447	0.883
940.199	0.88
948.95	0.715
957.702	0.882
966.453	0.909
975.205	0.912
983.956	0.908
992.708	0.897
1001.46	0.871
1010.21	0.783
1018.96	0.564
1027.71	0.835
1036.46	0.904
1045.22	0.911
1053.97	0.908
1062.72	0.904
1071.47	0.894
1080.22	0.88
1088.97	0.838
1097.73	0.772
1106.48	0.76
1115.23	0.487
1123.98	0.488
1132.73	0.725
1141.48	0.846
1150.23	0.829
1158.99	0.777
1167.74	0.648
1176.49	0.589
1185.24	0.59
1193.99	0.737
1202.74	0.692
1211.49	0.692
1220.25	0.612
1229	0.395
1237.75	0.491
1246.5	0.538
1255.25	0.625
1264	0.577
1272.75	0.41
1281.51	0.268
1290.26	0.039
1299.01	0.127
1307.76	0.363
1316.51	0.615
1325.26	0.352
1334.01	0.355
1342.77	0.593
1351.52	0.701
1360.27	0.514
1369.02	0.381
1377.77	0.584
1386.52	0.603
1395.28	0.708
1404.03	0.816
1412.78	0.852
1421.53	0.849
1430.28	0.827
1439.03	0.727
1447.78	0.74
1456.54	0.764
1465.29	0.679
1474.04	0.625
1482.79	0.714
1491.54	0.686
1500.29	0.534
1509.04	0.448
1517.8	0.409
1526.55	0.805
1535.3	0.833
1544.05	0.807
1552.8	0.766
1561.55	0.741
1570.3	0.688
1579.06	0.619
1587.81	0.506
1596.56	0.373
1605.31	0.207
1614.06	0.325
1622.81	0.786
1631.56	0.8
1640.32	0.699
1649.07	0.604
1657.82	0.504
1666.57	0.272
1675.32	0.149
1684.07	0.202
1692.82	0.577
1701.58	0.79
1710.33	0.957
1719.08	1
1727.83	0.989
1736.58	0.982
1745.33	0.971
1754.09	0.961
1762.84	0.954
1771.59	0.941
1780.34	0.938
1789.09	0.934
1797.84	0.926
1806.59	0.906
1815.35	0.89
1824.1	0.902
1832.85	0.906
1841.6	0.901
1850.35	0.894
1859.1	0.885
1867.85	0.872
1876.61	0.885
1885.36	0.88
1894.11	0.875
1902.86	0.872
1911.61	0.867
1920.36	0.864
1929.11	0.863
1937.87	0.861
1946.62	0.859
1955.37	0.863
1964.12	0.846
1972.87	0.841
1981.62	0.838
1990.37	0.846
1999.13	0.852
2007.88	0.8485
2016.63	0.848
2025.38	0.846
2034.13	0.841
2042.88	0.832
2051.64	0.824
2060.39	0.8185
2069.14	0.816
2077.89	0.82
2086.64	0.819
2095.39	0.8139
2104.14	0.8059
2112.9	0.805
2121.65	0.803
2130.4	0.8
2139.15	0.7949
2147.9	0.7925
2156.65	0.787
2165.4	0.7839
2174.16	0.7774
2182.91	0.7714
2191.66	0.7664
2200.41	0.764
2209.16	0.7621
2217.91	0.7579
2226.66	0.752
2235.42	0.7444
2244.17	0.7404
2252.92	0.7344
2261.67	0.7278
2270.42	0.7254
2279.17	0.719
2287.92	0.7154
2296.68	0.7114
2305.43	0.709
2314.18	0.7084
2322.93	0.707
2331.68	0.704
2340.43	0.701
2349.18	0.699
2357.94	0.696
2366.69	0.693
2375.44	0.693
2384.19	0.69
2392.94	0.689
2401.69	0.6861
2410.45	0.6837
2419.2	0.683
2427.95	0.685
2436.7	0.685
2445.45	0.685
2454.2	0.682
2462.95	0.679
2471.71	0.678
2480.46	0.677
2489.21	0.675
2497.96	0.671
2506.71	0.67
2515.46	0.667
2524.21	0.664
2532.97	0.663
2541.72	0.663
2550.47	0.662
2559.22	0.66
2567.97	0.659
2576.72	0.659
2585.47	0.656
2594.23	0.653
2602.98	0.6496
2611.73	0.647
2620.48	0.647
2629.23	0.647
2637.98	0.6456
2646.73	0.644
2655.49	0.641
2664.24	0.64
2672.99	0.6363
2681.74	0.633
2690.49	0.632
2699.24	0.629
2708	0.626
2716.75	0.625
2725.5	0.6223
2734.25	0.6183
2743	0.612
2751.75	0.611
2760.5	0.61
2769.26	0.61
2778.01	0.6102
2786.76	0.61
2795.51	0.607
2804.26	0.606
2813.01	0.6045
2821.76	0.6015
2830.52	0.5927
2839.27	0.5857
2848.02	0.5812
2856.77	0.578
2865.52	0.575
2874.27	0.5754
2883.02	0.5674
2891.78	0.5516
2900.53	0.5314
2909.28	0.5606
2918.03	0.5606
2926.78	0.5446
2935.53	0.5448
2944.28	0.5576
2953.04	0.549
2961.79	0.5313
2970.54	0.517
2979.29	0.4824
2988.04	0.5145
2996.79	0.5577
3005.54	0.564
3014.3	0.563
3023.05	0.5512
3031.8	0.5472
3040.55	0.5335
3049.3	0.5225
3058.05	0.5032
3066.81	0.4927
3075.56	0.514
3084.31	0.5111
3093.06	0.5023
3101.81	0.4951
3110.56	0.4853
3119.31	0.4771
3128.07	0.4701
3136.82	0.4621
3145.57	0.4522
3154.32	0.4452
3163.07	0.4352
3171.82	0.4253
3180.57	0.4143
3189.33	0.404
3198.08	0.3893
3206.83	0.3721
3215.58	0.3612
3224.33	0.3482
3233.08	0.3325
3241.83	0.2931
3250.59	0.2617
3259.34	0.2279
3268.09	0.218
3276.84	0.2247
3285.59	0.2415
3294.34	0.2649
3303.09	0.3497
3311.85	0.4263
3320.6	0.4872
3329.35	0.5284
3338.1	0.5449
3346.85	0.5539
3355.6	0.5619
3364.36	0.564
3373.11	0.564
3381.86	0.5562
3390.61	0.5491
3399.36	0.5331
3408.11	0.5121
3416.86	0.499
3425.62	0.491
3434.37	0.4989
3443.12	0.5109
3451.87	0.507
3460.62	0.4891
3469.37	0.4581
3478.12	0.4101
3486.88	0.339
3495.63	0.2061
3504.38	0.2511
3513.13	0.584
3521.88	0.7742
3530.63	0.809
3539.38	0.7959
3548.14	0.761
3556.89	0.7409
3565.64	0.718
3574.39	0.718
3583.14	0.716
3591.89	0.7089
3600.64	0.694
3609.4	0.689
3618.15	0.682
3626.9	0.678
3635.65	0.671
3644.4	0.664
3653.15	0.66
3661.9	0.6559
3670.66	0.6519
3679.41	0.6479
3688.16	0.644
3696.91	0.6409
3705.66	0.638
3714.41	0.634
3723.17	0.6319
3731.92	0.6291
3740.67	0.627
3749.42	0.623
3758.17	0.621
3766.92	0.6177
3775.67	0.615
