Infrared Spectrum: 2,2-Dimethyl-3-pentanol
Formula: C7 H16 O
CAS: 3970-62-5
State: SOLUTION (10% CCl4 FOR 3800-1330, 10% CS2 FOR 1330-460 CM^-^1)
Class: COBLENTZ III
Instrument: DOW KBr FOREPRISM-GRATING
Instrument parameters: BLAZED AT 3.5, 12.0, 20.0 MICRON AND CHANGED AT 5.0, 7.5, 14.9 MICRON
Sampling: TRANSMISSION
Path length: 0.010 CM, 0.010 CM
Resolution: 2
Origin: DOW CHEMICAL COMPANY
1/CM	TRANSMITTANCE
3800	0.9008
3791	0.9017
3782	0.9006
3773	0.9021
3764	0.9032
3755	0.9047
3746	0.9071
3737	0.9098
3728	0.9085
3719	0.9033
3710	0.8991
3701	0.8926
3692	0.8851
3683	0.8767
3674	0.8462
3665	0.8454
3656	0.8285
3647	0.6753
3638	0.4988
3629	0.5118
3620	0.6494
3611	0.664
3602	0.7062
3593	0.7787
3584	0.7826
3575	0.7631
3566	0.7428
3557	0.7133
3548	0.6603
3539	0.6074
3530	0.5643
3521	0.5297
3512	0.5067
3503	0.4883
3494	0.4792
3485	0.476
3476	0.4789
3467	0.4826
3458	0.4839
3449	0.4849
3440	0.4866
3431	0.4886
3422	0.4912
3413	0.4956
3404	0.5001
3395	0.5069
3386	0.5125
3377	0.519
3368	0.5334
3359	0.551
3350	0.5678
3341	0.5891
3332	0.6171
3323	0.6466
3314	0.6723
3305	0.6955
3296	0.7138
3287	0.7303
3278	0.7464
3269	0.7607
3260	0.7733
3251	0.7819
3242	0.7879
3233	0.7919
3224	0.7952
3215	0.7986
3206	0.8015
3197	0.806
3188	0.8097
3179	0.8125
3170	0.8177
3161	0.8255
3152	0.8335
3143	0.8401
3134	0.8483
3125	0.8538
3116	0.8584
3107	0.8614
3098	0.8632
3089	0.8618
3080	0.8556
3071	0.8518
3062	0.8418
3053	0.8334
3044	0.8271
3035	0.8126
3026	0.7811
3017	0.7441
3008	0.6269
2999	0.4923
2990	0.2135
2981	0.0675
2972	0.0081
2963	0.0046
2954	0.0093
2945	0.0322
2936	0.0454
2927	0.1229
2918	0.1934
2909	0.1555
2900	0.2184
2891	0.2387
2882	0.0963
2873	0.0789
2864	0.1852
2855	0.2972
2846	0.4297
2837	0.5351
2828	0.6512
2819	0.7254
2810	0.7728
2801	0.7992
2792	0.8146
2783	0.823
2774	0.8296
2765	0.8323
2756	0.833
2747	0.8262
2738	0.8293
2729	0.8311
2720	0.8331
2711	0.8412
2702	0.8512
2693	0.8548
2684	0.8564
2675	0.858
2666	0.8601
2657	0.8665
2648	0.8715
2639	0.877
2630	0.8832
2621	0.8882
2612	0.8863
2603	0.8853
2594	0.89
2585	0.8948
2576	0.8999
2567	0.9037
2558	0.907
2549	0.9102
2540	0.913
2531	0.9156
2522	0.9182
2513	0.92
2504	0.9216
2495	0.9232
2486	0.9242
2477	0.9262
2468	0.9271
2459	0.9278
2450	0.9275
2441	0.9273
2432	0.924
2423	0.9206
2414	0.9187
2405	0.9206
2396	0.9226
2387	0.9259
2378	0.9316
2369	0.9352
2360	0.9389
2351	0.9445
2342	0.9479
2333	0.9479
2324	0.9439
2315	0.926
2306	0.9204
2297	0.9227
2288	0.9264
2279	0.9302
2270	0.9318
2261	0.9311
2252	0.9308
2243	0.9293
2234	0.929
2225	0.9303
2216	0.9304
2207	0.9317
2198	0.933
2189	0.9327
2180	0.933
2171	0.9343
2162	0.9329
2153	0.9327
2144	0.9327
2135	0.9323
2126	0.9309
2117	0.9298
2108	0.9292
2099	0.9288
2090	0.9284
2081	0.9281
2072	0.928
2063	0.9273
2054	0.9278
2045	0.9259
2036	0.9251
2027	0.9247
2018	0.9239
2009	0.9218
2000	0.8938
1991	0.9149
1982	0.9142
1973	0.9131
1964	0.917
1955	0.9201
1946	0.913
1937	0.9142
1928	0.9163
1919	0.9211
1910	0.9226
1901	0.9243
1892	0.9241
1883	0.9233
1874	0.9235
1865	0.9227
1856	0.9235
1847	0.9234
1838	0.9238
1829	0.9229
1820	0.9232
1811	0.9245
1802	0.9229
1793	0.9236
1784	0.924
1775	0.9233
1766	0.9226
1757	0.9223
1748	0.9188
1739	0.9124
1730	0.9024
1721	0.8831
1712	0.8496
1703	0.8775
1694	0.8917
1685	0.8894
1676	0.893
1667	0.8936
1658	0.891
1649	0.8882
1640	0.8861
1631	0.8829
1622	0.8792
1613	0.8728
1604	0.8429
1595	0.8242
1586	0.8039
1577	0.8092
1568	0.774
1559	0.7281
1550	0.7554
1541	0.8241
1532	0.8194
1523	0.7955
1514	0.814
1505	0.7949
1496	0.6861
1487	0.4181
1478	0.2897
1469	0.2179
1460	0.3224
1451	0.6228
1442	0.6558
1433	0.7585
1424	0.76
1415	0.7204
1406	0.6074
1397	0.4071
1388	0.5019
1379	0.4909
1370	0.1463
1361	0.6158
1352	0.7481
1343	0.7785
1334	0.7305
1325	0.6991
1316	0.6462
1307	0.553
1298	0.5702
1289	0.6326
1280	0.7151
1271	0.7358
1262	0.7322
1253	0.6479
1244	0.5954
1235	0.5802
1226	0.606
1217	0.6532
1208	0.6846
1199	0.5905
1190	0.6112
1181	0.6771
1172	0.7415
1163	0.7976
1154	0.8292
1145	0.8358
1136	0.8389
1127	0.8154
1118	0.6893
1109	0.3458
1100	0.1808
1091	0.3548
1082	0.541
1073	0.6869
1064	0.674
1055	0.389
1046	0.6716
1037	0.7903
1028	0.8165
1019	0.7002
1010	0.7954
1001	0.7998
992	0.7278
983	0.5597
974	0.0767
965	0.1007
956	0.47
947	0.5051
938	0.6122
929	0.5136
920	0.8063
911	0.8688
902	0.8919
893	0.8977
884	0.8905
875	0.867
866	0.7474
857	0.7786
848	0.8961
839	0.92
830	0.9284
821	0.9306
812	0.9194
803	0.9228
794	0.9055
785	0.8103
776	0.9104
767	0.9175
758	0.9019
749	0.8898
740	0.9063
731	0.9094
722	0.9103
713	0.9063
704	0.9016
695	0.8976
686	0.8916
677	0.8833
668	0.8544
659	0.83
650	0.8115
641	0.8065
632	0.7997
623	0.7931
614	0.7894
605	0.7831
596	0.7779
587	0.7704
578	0.7581
569	0.7224
560	0.652
551	0.7066
542	0.7318
533	0.7443
524	0.7467
515	0.7446
506	0.7342
497	0.7
488	0.6909
479	0.6984
470	0.6987
461	0.6961
