Infrared Spectrum: 2-ETHYL SUBERIC ACID
Formula: C10 H18 O4
CAS: 3971-33-3
State: SOLID (2.5% IN KBr PELLET)
Class: COBLENTZ
Instrument: Not specified, most likely a prism, grating, or hybrid spectrometer.
Sampling: TRANSMISSION
Path length: 0.00031 CM
Resolution: 4
MICROMETERS	TRANSMITTANCE
2.012	0.208
2.04927	0.203
2.08653	0.203
2.1238	0.208
2.16107	0.208
2.19834	0.204
2.2356	0.206
2.27287	0.211
2.31014	0.218
2.3474	0.231
2.38467	0.248
2.42194	0.257
2.4592	0.267
2.49647	0.276
2.53374	0.288
2.57101	0.305
2.60827	0.312
2.64554	0.321
2.68281	0.329
2.72007	0.335
2.75734	0.335
2.79461	0.33
2.83188	0.322
2.86914	0.31
2.90641	0.295
2.94368	0.274
2.98094	0.248
3.01821	0.204
3.05548	0.164
3.09274	0.113
3.13001	0.068
3.16728	0.054
3.20455	0.04
3.24181	0.026
3.27908	0.018
3.31635	0.013
3.35361	0.009
3.39088	0.007
3.42815	0.006
3.46542	0.009
3.50268	0.003
3.53995	0.009
3.57722	0.021
3.61448	0.027
3.65175	0.029
3.68902	0.029
3.72629	0.027
3.76355	0.024
3.80082	0.02
3.83809	0.021
3.87535	0.031
3.91262	0.035
3.94989	0.057
3.98715	0.085
4.02442	0.133
4.06169	0.18
4.09896	0.22
4.13622	0.27
4.17349	0.31
4.21076	0.346
4.24802	0.397
4.28529	0.434
4.32256	0.462
4.35983	0.493
4.39709	0.512
4.43436	0.543
4.47163	0.555
4.50889	0.566
4.54616	0.58
4.58343	0.594
4.62069	0.61
4.65796	0.619
4.69523	0.628
4.7325	0.633
4.76976	0.633
4.80703	0.636
4.8443	0.642
4.88156	0.644
4.91883	0.644
4.9561	0.641
4.99337	0.638
5.03063	0.631
5.0679	0.611
5.10517	0.605
5.14243	0.61
5.1797	0.605
5.21697	0.61
5.25423	0.602
5.2915	0.6
5.32877	0.59
5.36604	0.568
5.4033	0.523
5.44057	0.501
5.47784	0.464
5.5151	0.448
5.55237	0.428
5.58964	0.431
5.62691	0.425
5.66417	0.403
5.70144	0.318
5.73871	0.246
5.77597	0.147
5.81324	0.068
5.85051	0.018
5.88778	0.01
5.92504	0.01
5.96231	0.017
5.99958	0.035
6.03684	0.147
6.07411	0.267
6.11138	0.405
6.14864	0.526
6.18591	0.566
6.22318	0.639
6.26045	0.704
6.29771	0.734
6.33498	0.771
6.37225	0.793
6.40951	0.807
6.44678	0.815
6.48405	0.816
6.52132	0.847
6.55858	0.852
6.59585	0.857
6.63312	0.838
6.67038	0.804
6.70765	0.743
6.74492	0.667
6.78218	0.534
6.81945	0.267
6.85672	0.11
6.89399	0.141
6.93125	0.104
6.96852	0.091
7.00579	0.088
7.04305	0.076
7.08032	0.054
7.11759	0.135
7.15486	0.368
7.19212	0.489
7.22939	0.487
7.26666	0.549
7.30392	0.574
7.34119	0.498
7.37846	0.329
7.41572	0.214
7.45299	0.166
7.49026	0.201
7.52753	0.226
7.56479	0.209
7.60206	0.195
7.63933	0.149
7.67659	0.077
7.71386	0.051
7.75113	0.038
7.7884	0.035
7.82566	0.035
7.86293	0.035
7.9002	0.034
7.93746	0.027
7.97473	0.023
8.012	0.032
8.04927	0.037
8.08653	0.038
8.1238	0.029
8.16107	0.045
8.19833	0.051
8.2356	0.099
8.27287	0.212
8.31013	0.354
8.3474	0.408
8.38467	0.408
8.42194	0.4
8.4592	0.451
8.49647	0.543
8.53374	0.607
8.571	0.639
8.60827	0.644
8.64554	0.569
8.68281	0.419
8.72007	0.354
8.75734	0.38
8.79461	0.524
8.83187	0.619
8.86914	0.635
8.90641	0.571
8.94367	0.445
8.98094	0.409
9.01821	0.416
9.05548	0.45
9.09274	0.464
9.13001	0.482
9.16728	0.549
9.20454	0.627
9.24181	0.703
9.27908	0.751
9.31635	0.768
9.35361	0.756
9.39088	0.736
9.42815	0.736
9.46541	0.743
9.50268	0.756
9.53995	0.748
9.57721	0.737
9.61448	0.742
9.65175	0.739
9.68902	0.737
9.72628	0.756
9.76355	0.757
9.80082	0.75
9.83808	0.745
9.87535	0.728
9.91262	0.711
9.94989	0.698
9.98715	0.67
10.0244	0.641
10.0617	0.604
10.099	0.574
10.1362	0.501
10.1735	0.427
10.2108	0.381
10.248	0.324
10.2853	0.251
10.3226	0.195
10.3598	0.153
10.3971	0.125
10.4344	0.09
10.4716	0.069
10.5089	0.062
10.5462	0.054
10.5834	0.052
10.6207	0.052
10.658	0.052
10.6952	0.065
10.7325	0.088
10.7698	0.108
10.807	0.142
10.8443	0.201
10.8816	0.242
10.9188	0.287
10.9561	0.304
10.9934	0.352
11.0306	0.4
11.0679	0.451
11.1052	0.496
11.1424	0.552
11.1797	0.602
11.217	0.641
11.2542	0.666
11.2915	0.711
11.3288	0.731
11.366	0.745
11.4033	0.746
11.4406	0.726
11.4778	0.704
11.5151	0.718
11.5524	0.782
11.5896	0.83
11.6269	0.88
11.6642	0.908
11.7014	0.914
11.7387	0.911
11.776	0.909
11.8132	0.878
11.8505	0.799
11.8878	0.669
11.925	0.582
11.9623	0.579
11.9996	0.681
12.0368	0.776
12.0741	0.846
12.1114	0.894
12.1486	0.919
12.1859	0.939
12.2232	0.948
12.2604	0.956
12.2977	0.973
12.335	0.986
12.3722	0.989
12.4095	0.989
12.4468	0.989
12.484	0.982
12.5213	0.972
12.5586	0.944
12.5958	0.877
12.6331	0.795
12.6704	0.751
12.7076	0.75
12.7449	0.751
12.7822	0.722
12.8194	0.697
12.8567	0.717
12.894	0.785
12.9313	0.847
12.9685	0.9
13.0058	0.975
13.0431	1.004
13.0803	1.01
13.1176	1.013
13.1549	1.007
13.1921	0.979
13.2294	0.917
13.2667	0.833
13.3039	0.801
13.3412	0.796
13.3785	0.804
13.4157	0.816
13.453	0.774
13.4903	0.684
13.5275	0.618
13.5648	0.577
13.6021	0.574
13.6393	0.582
13.6766	0.644
13.7139	0.767
13.7511	0.864
13.7884	0.939
13.8257	1.01
13.8629	1.034
13.9002	1.035
13.9375	1.034
13.9747	1.04
14.012	1.041
14.0493	1.037
14.0865	1.031
14.1238	1.029
14.1611	1.031
14.1983	1.027
14.2356	1.024
14.2729	1.021
14.3101	1.018
14.3474	1.015
14.3847	1.018
14.4219	1.024
14.4592	1.021
14.4965	1.021
14.5337	1.017
14.571	1.009
14.6083	1.007
14.6455	1.004
14.6828	1.001
14.7201	0.993
14.7573	0.984
14.7946	0.947
14.8319	0.94
14.8691	0.93
14.9064	0.905
14.9437	0.886
14.9809	0.871
15.0182	0.852
15.0555	0.827
15.0927	0.793
15.13	0.782
15.1673	0.767
15.2045	0.75
15.2418	0.732
15.2791	0.714
15.3163	0.706
15.3536	0.7
15.3909	0.701
