Infrared Spectrum: PYRIDINE, 4(1,1-DIMETHYLETHYL)-
Formula: C9 H13 N
CAS: 3978-81-2
State: VAPOR (0.5 MICROLITER AT 150 C)
Class: COBLENTZ
Instrument: NICOLET FTIR
Instrument parameters: Hg-Cd-Te DETECTOR - TYPE A, DEAD BELOW 680 CM^-^1, LOW S/N 710 - 680
Sampling: TRANSMISSION
Path length: 0.2 CM x 30 CM GOLD-PLATED LIGHT PIPE. HELIUM CARRIER. INTERFEROGRAMS CO-ADDED FOR FULL TRANSIT TIME.
Resolution: 4 CM^-^1
Origin: MONSANTO (JOHN J. FREEMAN)
1/CM	TRANSMITTANCE
698.854	0.902
708.025	0.8211
717.196	0.8179
726.367	0.954
735.538	0.973
744.71	0.962
753.881	0.959
763.052	0.976
772.223	0.989
781.394	0.98
790.565	0.938
799.736	0.8271
808.907	0.6731
818.078	0.52
827.25	0.63
836.421	0.677
845.592	0.7499
854.763	0.9369
863.934	0.973
873.105	0.979
882.276	0.985
891.447	0.991
900.618	0.992
909.79	0.988
918.961	0.977
928.132	0.966
937.303	0.967
946.474	0.979
955.645	0.989
964.816	0.995
973.987	0.995
983.158	0.981
992.33	0.8391
1001.5	0.822
1010.67	0.954
1019.84	0.996
1029.01	0.996
1038.19	0.995
1047.36	0.993
1056.53	0.98
1065.7	0.946
1074.87	0.8561
1084.04	0.848
1093.21	0.948
1102.38	0.976
1111.55	0.98
1120.73	0.975
1129.9	0.973
1139.07	0.984
1148.24	0.989
1157.41	0.993
1166.58	0.99
1175.75	0.982
1184.92	0.965
1194.09	0.924
1203.27	0.893
1212.44	0.917
1221.61	0.92
1230.78	0.887
1239.95	0.909
1249.12	0.941
1258.29	0.8971
1267.46	0.7171
1276.63	0.583
1285.81	0.718
1294.98	0.949
1304.15	0.979
1313.32	0.982
1322.49	0.981
1331.66	0.981
1340.83	0.974
1350	0.9321
1359.17	0.824
1368.35	0.667
1377.52	0.665
1386.69	0.766
1395.86	0.6921
1405.03	0.595
1414.2	0.63
1423.37	0.758
1432.54	0.873
1441.71	0.893
1450.89	0.866
1460.06	0.794
1469.23	0.737
1478.4	0.712
1487.57	0.678
1496.74	0.691
1505.91	0.838
1515.08	0.942
1524.25	0.916
1533.43	0.87
1542.6	0.817
1551.77	0.757
1560.94	0.766
1570.11	0.793
1579.28	0.7471
1588.45	0.4271
1597.62	0.269
1606.79	0.375
1615.97	0.8182
1625.14	0.927
1634.31	0.925
1643.48	0.937
1652.65	0.953
1661.82	0.951
1670.99	0.949
1680.16	0.95
1689.33	0.957
1698.5	0.977
1707.68	0.977
1716.85	0.987
1726.02	0.989
1735.19	0.993
1744.36	0.996
1753.53	0.993
1762.7	0.985
1771.87	0.98
1781.04	0.989
1790.22	0.996
1799.39	0.995
1808.56	0.996
1817.73	0.993
1826.9	0.98
1836.07	0.971
1845.24	0.981
1854.41	0.997
1863.58	0.999
1872.76	0.998
1881.93	0.999
1891.1	0.996
1900.27	0.99
1909.44	0.973
1918.61	0.952
1927.78	0.937
1936.95	0.949
1946.12	0.973
1955.3	0.983
1964.47	0.992
1973.64	0.996
1982.81	0.996
1991.98	0.998
2001.15	1
2010.32	1
2019.49	0.998
2028.66	0.999
2037.84	0.9991
2047.01	1.001
2056.18	1.002
2065.35	1
2074.52	0.9992
2083.69	0.999
2092.86	1
2102.03	1
2111.2	1.0004
2120.38	1.0013
2129.55	1.002
2138.72	1.003
2147.89	1.002
2157.06	1.001
2166.23	1
2175.4	0.999
2184.57	0.998
2193.74	0.997
2202.92	0.9945
2212.09	0.994
2221.26	0.9974
2230.43	0.9993
2239.6	1.0002
2248.77	1.002
2257.94	1.004
2267.11	1.0011
2276.28	1
2285.46	0.999
2294.63	0.9953
2303.8	0.993
2312.97	0.9965
2322.14	1
2331.31	1.002
2340.48	1.005
2349.65	1.0041
2358.82	1.007
2368	1.004
2377.17	0.999
2386.34	0.9922
2395.51	0.99
2404.68	0.991
2413.85	0.991
2423.02	0.99
2432.19	0.99
2441.36	0.992
2450.54	0.9932
2459.71	0.9941
2468.88	0.995
2478.05	0.9969
2487.22	0.9998
2496.39	1
2505.56	1
2514.73	1
2523.9	1.001
2533.08	0.999
2542.25	0.998
2551.42	0.998
2560.59	0.996
2569.76	0.996
2578.93	0.996
2588.1	0.996
2597.27	0.995
2606.44	0.996
2615.62	0.997
2624.79	0.996
2633.96	0.995
2643.13	0.9917
2652.3	0.989
2661.47	0.987
2670.64	0.988
2679.81	0.99
2688.98	0.991
2698.16	0.9892
2707.33	0.9857
2716.5	0.9781
2725.67	0.9725
2734.84	0.9724
2744.01	0.9753
2753.18	0.975
2762.35	0.9771
2771.52	0.981
2780.7	0.9801
2789.87	0.9771
2799.04	0.9724
2808.21	0.9649
2817.38	0.9594
2826.55	0.9555
2835.72	0.9507
2844.89	0.9367
2854.06	0.9064
2863.24	0.7816
2872.41	0.6398
2881.58	0.555
2890.75	0.5771
2899.92	0.5968
2909.09	0.5425
2918.26	0.5147
2927.43	0.5297
2936.6	0.543
2945.78	0.5018
2954.95	0.3642
2964.12	0.1826
2973.29	0.1662
2982.46	0.2553
2991.63	0.4926
3000.8	0.6697
3009.97	0.7702
3019.14	0.6903
3028.32	0.5886
3037.49	0.5942
3046.66	0.7182
3055.83	0.7606
3065	0.7202
3074.17	0.6409
3083.34	0.597
3092.51	0.6283
3101.68	0.7627
3110.86	0.891
3120.03	0.9476
3129.2	0.9706
3138.37	0.9775
3147.54	0.982
3156.71	0.982
3165.88	0.98
3175.05	0.9788
3184.22	0.9729
3193.4	0.971
3202.57	0.971
3211.74	0.974
3220.91	0.9757
3230.08	0.9754
3239.25	0.9745
3248.42	0.9794
3257.59	0.9814
3266.76	0.9823
3275.94	0.983
3285.11	0.982
3294.28	0.985
3303.45	0.9889
3312.62	0.9917
3321.79	0.994
3330.96	0.9966
3340.13	0.998
3349.3	0.998
3358.48	0.997
3367.65	0.997
3376.82	0.998
3385.99	1
3395.16	0.999
3404.33	0.998
3413.5	0.998
3422.67	0.998
3431.84	0.998
3441.02	0.9986
3450.19	1.001
3459.36	1.003
3468.53	1.003
3477.7	1.003
3486.87	1.0009
3496.04	1
3505.21	1
3514.38	1
3523.56	1.0028
3532.73	1.002
3541.9	1.002
3551.07	1.0035
3560.24	1.004
3569.41	1.0047
3578.58	1.003
3587.75	1.003
3596.92	1.004
3606.1	1.003
3615.27	1.004
3624.44	1.0022
3633.61	1.002
3642.78	1.002
3651.95	1.0055
3661.12	1.0036
3670.29	1.0048
3679.46	1.0034
3688.64	1.0002
3697.81	1.0007
3706.98	0.997
3716.15	1
3725.32	1.003
3734.49	1.004
3743.66	1.0023
3752.83	1.0029
3762	0.9985
3771.18	0.9988
3780.35	1.0023
3789.52	1.003
3798.69	1.002
3807.86	1.0019
3817.03	1
3826.2	1.0011
3835.37	1.0018
3844.54	1.003
3853.72	1.0004
3862.89	1.001
3872.06	1.003
3881.23	1.0017
3890.4	0.9998
3899.57	0.996
3908.74	0.995
3917.91	0.996
3927.08	0.9979
3936.26	1
3945.43	1.001
3954.6	1
3963.77	0.999
3972.94	1
3982.11	1
3991.28	0.9992
4000.45	0.9972
