Infrared Spectrum: Thiophosphoryl chloride
Formula: P S Cl 3
CAS: 3982-91-0
State: liquid
Instrument: Bruker Tensor 27 FTIR
Resolution: 0.4821395
Origin: Pacific Northwest National Laboratory Under IARPA Contract
1/cm	dispersion index
7797.62	1.53083
7778.82	1.53084
7760.02	1.53083
7741.21	1.53083
7722.41	1.53083
7703.61	1.53083
7684.8	1.53083
7666	1.53082
7647.2	1.53082
7628.39	1.53082
7609.59	1.53082
7590.79	1.53082
7571.98	1.53081
7553.18	1.53081
7534.38	1.53081
7515.57	1.53081
7496.77	1.5308
7477.97	1.5308
7459.16	1.5308
7440.36	1.5308
7421.55	1.53079
7402.75	1.53079
7383.95	1.53079
7365.14	1.53079
7346.34	1.53078
7327.54	1.53078
7308.73	1.53078
7289.93	1.53078
7271.13	1.53077
7252.32	1.53077
7233.52	1.53077
7214.72	1.53077
7195.91	1.53076
7177.11	1.53076
7158.31	1.53076
7139.5	1.53075
7120.7	1.53075
7101.9	1.53075
7083.09	1.53075
7064.29	1.53074
7045.49	1.53074
7026.68	1.53074
7007.88	1.53073
6989.08	1.53073
6970.27	1.53073
6951.47	1.53072
6932.67	1.53072
6913.86	1.53072
6895.06	1.53072
6876.25	1.53071
6857.45	1.53071
6838.65	1.53071
6819.84	1.5307
6801.04	1.5307
6782.24	1.5307
6763.43	1.53069
6744.63	1.53069
6725.83	1.53069
6707.02	1.53068
6688.22	1.53068
6669.42	1.53068
6650.61	1.53067
6631.81	1.53067
6613.01	1.53066
6594.2	1.53066
6575.4	1.53066
6556.6	1.53065
6537.79	1.53065
6518.99	1.53065
6500.19	1.53064
6481.38	1.53064
6462.58	1.53063
6443.78	1.53063
6424.97	1.53063
6406.17	1.53062
6387.37	1.53062
6368.56	1.53061
6349.76	1.53061
6330.96	1.53061
6312.15	1.5306
6293.35	1.5306
6274.54	1.53059
6255.74	1.53059
6236.94	1.53059
6218.13	1.53058
6199.33	1.53058
6180.53	1.53057
6161.72	1.53057
6142.92	1.53056
6124.12	1.53056
6105.31	1.53055
6086.51	1.53055
6067.71	1.53054
6048.9	1.53054
6030.1	1.53054
6011.3	1.53053
5992.49	1.53053
5973.69	1.53052
5954.89	1.53052
5936.08	1.53051
5917.28	1.53051
5898.48	1.5305
5879.67	1.5305
5860.87	1.53049
5842.07	1.53049
5823.26	1.53048
5804.46	1.53047
5785.66	1.53047
5766.85	1.53046
5748.05	1.53046
5729.25	1.53045
5710.44	1.53045
5691.64	1.53044
5672.83	1.53044
5654.03	1.53043
5635.23	1.53042
5616.42	1.53042
5597.62	1.53041
5578.82	1.53041
5560.01	1.5304
5541.21	1.53039
5522.41	1.53039
5503.6	1.53038
5484.8	1.53037
5466	1.53037
5447.19	1.53036
5428.39	1.53036
5409.59	1.53035
5390.78	1.53034
5371.98	1.53034
5353.18	1.53033
5334.37	1.53032
5315.57	1.53031
5296.77	1.53031
5277.96	1.5303
5259.16	1.53029
5240.36	1.53029
5221.55	1.53028
5202.75	1.53027
5183.95	1.53026
5165.14	1.53026
5146.34	1.53025
5127.53	1.53024
5108.73	1.53023
5089.93	1.53022
5071.12	1.53022
5052.32	1.53021
5033.52	1.5302
5014.71	1.53019
4995.91	1.53018
4977.11	1.53017
4958.3	1.53017
4939.5	1.53016
4920.7	1.53015
4901.89	1.53014
4883.09	1.53013
4864.29	1.53012
4845.48	1.53011
4826.68	1.5301
4807.88	1.53009
4789.07	1.53008
4770.27	1.53007
4751.47	1.53006
4732.66	1.53005
4713.86	1.53004
4695.06	1.53003
4676.25	1.53002
4657.45	1.53001
4638.65	1.53
4619.84	1.52999
4601.04	1.52998
4582.24	1.52997
4563.43	1.52996
4544.63	1.52995
4525.82	1.52993
4507.02	1.52992
4488.22	1.52991
4469.41	1.5299
4450.61	1.52989
4431.81	1.52987
4413	1.52986
4394.2	1.52985
4375.4	1.52984
4356.59	1.52982
4337.79	1.52981
4318.99	1.5298
4300.18	1.52978
4281.38	1.52977
4262.58	1.52976
4243.77	1.52974
4224.97	1.52973
4206.17	1.52971
4187.36	1.5297
4168.56	1.52968
4149.76	1.52967
4130.95	1.52965
4112.15	1.52964
4093.35	1.52962
4074.54	1.52961
4055.74	1.52959
4036.94	1.52957
4018.13	1.52956
3999.33	1.52954
3980.53	1.52952
3961.72	1.52951
3942.92	1.52949
3924.11	1.52947
3905.31	1.52945
3886.51	1.52943
3867.7	1.52941
3848.9	1.5294
3830.1	1.52938
3811.29	1.52936
3792.49	1.52934
3773.69	1.52932
3754.88	1.52929
3736.08	1.52927
3717.28	1.52925
3698.47	1.52923
3679.67	1.52921
3660.87	1.52918
3642.06	1.52916
3623.26	1.52914
3604.46	1.52911
3585.65	1.52909
3566.85	1.52907
3548.05	1.52904
3529.24	1.52902
3510.44	1.52899
3491.64	1.52897
3472.83	1.52894
3454.03	1.52892
3435.23	1.52889
3416.42	1.52886
3397.62	1.52884
3378.81	1.52881
3360.01	1.52878
3341.21	1.52875
3322.4	1.52872
3303.6	1.52869
3284.8	1.52866
3265.99	1.52863
3247.19	1.5286
3228.39	1.52856
3209.58	1.52853
3190.78	1.5285
3171.98	1.52846
3153.17	1.52843
3134.37	1.52839
3115.57	1.52835
3096.76	1.52831
3077.96	1.52828
3059.16	1.52824
3040.35	1.52819
3021.55	1.52815
3002.75	1.52811
2983.94	1.52806
2965.14	1.52801
2946.34	1.52799
2927.53	1.52794
2908.73	1.52791
2889.93	1.52786
2871.12	1.52781
2852.32	1.52776
2833.52	1.52771
2814.71	1.52765
2795.91	1.5276
2777.1	1.52755
2758.3	1.5275
2739.5	1.52745
2720.69	1.5274
2701.89	1.52735
2683.09	1.52729
2664.28	1.52723
2645.48	1.52717
2626.68	1.52711
2607.87	1.52704
2589.07	1.52697
2570.27	1.5269
2551.46	1.52683
2532.66	1.52675
2513.86	1.52668
2495.05	1.5266
2476.25	1.52652
2457.45	1.52645
2438.64	1.52636
2419.84	1.52628
2401.04	1.52619
2382.23	1.5261
2363.43	1.526
2344.63	1.5259
2325.82	1.52585
2307.02	1.52575
2288.22	1.52564
2269.41	1.52553
2250.61	1.52543
2231.81	1.52532
2213	1.5252
2194.2	1.52509
2175.39	1.52497
2156.59	1.52485
2137.79	1.52472
2118.98	1.52459
2100.18	1.52445
2081.38	1.52432
2062.57	1.52417
2043.77	1.52403
2024.97	1.52387
2006.16	1.52372
1987.36	1.52355
1968.56	1.52338
1949.75	1.5232
1930.95	1.52303
1912.15	1.52285
1893.34	1.52265
1874.54	1.52245
1855.74	1.52224
1836.93	1.52202
1818.13	1.5218
1799.33	1.52157
1780.52	1.52132
1761.72	1.52107
1742.92	1.5208
1724.11	1.52052
1705.31	1.52023
1686.51	1.51992
1667.7	1.51965
1648.9	1.51931
1630.09	1.51899
1611.29	1.51862
1592.49	1.51823
1573.68	1.5178
1554.88	1.51731
1536.08	1.51671
1517.27	1.51608
1498.47	1.51653
1479.67	1.51638
1460.86	1.51565
1442.06	1.51501
1423.26	1.51441
1404.45	1.51375
1385.65	1.51306
1366.85	1.51239
1348.04	1.51168
1329.24	1.51081
1310.44	1.50985
1291.63	1.50932
1272.83	1.5084
1254.03	1.50733
1235.22	1.50612
1216.42	1.50478
1197.62	1.50266
1178.81	1.5037
1160.01	1.50209
1141.21	1.49997
1122.4	1.49781
1103.6	1.49573
1084.8	1.49466
1065.99	1.49409
1047.19	1.49183
1028.38	1.48833
1009.58	1.48457
990.778	1.48017
971.975	1.47728
953.171	1.47574
934.368	1.46879
915.564	1.46325
896.761	1.45473
877.957	1.44422
859.154	1.43134
840.35	1.41309
821.547	1.38481
802.744	1.33633
783.94	1.23056
765.137	0.833608
746.333	2.13726
727.53	1.75696
708.726	1.63525
689.923	1.56999
671.119	1.54157
652.316	1.49804
633.513	1.45722
614.709	1.40608
595.906	1.32446
577.102	1.17552
558.299	0.682621
539.495	1.50055
520.692	2.40862
501.889	1.93427
483.085	1.83298
464.282	1.7406
445.478	1.65623
426.675	1.8939
407.871	1.73022
