Infrared Spectrum: Formamide, N-cyclopentyl-N-(4-amino-6-chloro-5-pyrimidinyl)-
Formula: C10 H13 Cl N4 O
CAS: 40067-41-2
State: SOLID (1 mg / 650 mg KBr DISC)
Class: COBLENTZ III
Instrument: PERKIN-ELMER 221 (GRATING)
Instrument parameters: FILTER AT 2490, 980 CM^-^1. GRATING 4000-1428 CM^-^1, NaCl PRISM 1428-650 CM^-^1
Sampling: TRANSMISSION
Resolution: 2
Origin: SOUTHERN RESEARCH INSTITUTE
1/CM	TRANSMITTANCE
631	0.7677
640.033	0.7338
649.067	0.7429
658.1	0.8059
667.134	0.8161
676.167	0.8226
685.201	0.824
694.234	0.8219
703.268	0.8189
712.301	0.8138
721.335	0.8073
730.368	0.7978
739.402	0.7836
748.435	0.7551
757.469	0.7384
766.502	0.7789
775.536	0.787
784.569	0.7767
793.603	0.6407
802.636	0.7601
811.67	0.7908
820.703	0.7905
829.737	0.7911
838.77	0.7987
847.804	0.815
856.837	0.8273
865.871	0.8281
874.904	0.8248
883.938	0.8094
892.971	0.7814
902.005	0.7423
911.038	0.7727
920.072	0.8083
929.105	0.7848
938.139	0.7163
947.172	0.3616
956.206	0.6105
965.239	0.7923
974.273	0.7793
983.306	0.8479
992.34	0.7649
1001.37	0.7344
1010.41	0.7422
1019.44	0.7869
1028.47	0.7803
1037.51	0.7786
1046.54	0.7962
1055.57	0.7942
1064.61	0.7922
1073.64	0.7897
1082.67	0.7847
1091.71	0.7821
1100.74	0.7825
1109.78	0.7796
1118.81	0.7725
1127.84	0.7645
1136.88	0.7519
1145.91	0.731
1154.94	0.6877
1163.98	0.6395
1173.01	0.6704
1182.04	0.679
1191.08	0.6453
1200.11	0.6456
1209.14	0.6901
1218.18	0.695
1227.21	0.6685
1236.24	0.5896
1245.28	0.5101
1254.31	0.5496
1263.34	0.5787
1272.38	0.5496
1281.41	0.512
1290.45	0.512
1299.48	0.5487
1308.51	0.5819
1317.55	0.5665
1326.58	0.4439
1335.61	0.4849
1344.65	0.663
1353.68	0.6655
1362.71	0.6432
1371.75	0.608
1380.78	0.5914
1389.81	0.3985
1398.85	0.5699
1407.88	0.6643
1416.91	0.5639
1425.95	0.5758
1434.98	0.7089
1444.01	0.6815
1453.05	0.6365
1462.08	0.6943
1471.12	0.6515
1480.15	0.5595
1489.18	0.5487
1498.22	0.6814
1507.25	0.6842
1516.28	0.6581
1525.32	0.5989
1534.35	0.4204
1543.38	0.296
1552.42	0.3871
1561.45	0.2527
1570.48	0.5199
1579.52	0.7092
1588.55	0.7418
1597.58	0.7285
1606.62	0.6907
1615.65	0.6369
1624.68	0.5324
1633.72	0.4949
1642.75	0.3312
1651.79	0.2748
1660.82	0.2146
1669.85	0.0822
1678.89	0.2797
1687.92	0.4852
1696.95	0.625
1705.99	0.7001
1715.02	0.7617
1724.05	0.7959
1733.09	0.8031
1742.12	0.8121
1751.15	0.8227
1760.19	0.8289
1769.22	0.8348
1778.25	0.8422
1787.29	0.8467
1796.32	0.8479
1805.35	0.8487
1814.39	0.8493
1823.42	0.8496
1832.46	0.8507
1841.49	0.8527
1850.52	0.8538
1859.56	0.8537
1868.59	0.8535
1877.62	0.8534
1886.66	0.8534
1895.69	0.8535
1904.72	0.854
1913.76	0.8544
1922.79	0.8548
1931.82	0.8549
1940.86	0.855
1949.89	0.8547
1958.92	0.8541
1967.96	0.8535
1976.99	0.853
1986.02	0.8526
1995.06	0.8522
2004.09	0.8518
2013.13	0.8513
2022.16	0.8509
2031.19	0.8504
2040.23	0.8499
2049.26	0.8492
2058.29	0.8484
2067.33	0.8475
2076.36	0.8467
2085.39	0.8463
2094.43	0.8458
2103.46	0.8453
2112.49	0.8451
2121.53	0.8451
2130.56	0.845
2139.59	0.8449
2148.63	0.8453
2157.66	0.8457
2166.69	0.8462
2175.73	0.8466
2184.76	0.8471
2193.8	0.8471
2202.83	0.8472
2211.86	0.8472
2220.9	0.8472
2229.93	0.8475
2238.96	0.8479
2248	0.8482
2257.03	0.8486
2266.06	0.8487
2275.1	0.8485
2284.13	0.8482
2293.16	0.8478
2302.2	0.8473
2311.23	0.8468
2320.26	0.8462
2329.3	0.8454
2338.33	0.8445
2347.36	0.8436
2356.4	0.8428
2365.43	0.8422
2374.47	0.8415
2383.5	0.8428
2392.53	0.8388
2401.57	0.8365
2410.6	0.8353
2419.63	0.8347
2428.67	0.8345
2437.7	0.8345
2446.73	0.835
2455.77	0.8351
2464.8	0.8348
2473.83	0.8346
2482.87	0.8344
2491.9	0.8344
2500.93	0.8345
2509.97	0.834
2519	0.8327
2528.03	0.8315
2537.07	0.8303
2546.1	0.8288
2555.14	0.8273
2564.17	0.8257
2573.2	0.8248
2582.24	0.8243
2591.27	0.824
2600.3	0.8257
2609.34	0.8284
2618.37	0.8253
2627.4	0.8211
2636.44	0.8168
2645.47	0.8143
2654.5	0.8125
2663.54	0.8108
2672.57	0.809
2681.6	0.8071
2690.64	0.8056
2699.67	0.8051
2708.7	0.8059
2717.74	0.808
2726.77	0.8096
2735.81	0.8105
2744.84	0.8105
2753.87	0.8097
2762.91	0.8078
2771.94	0.8052
2780.97	0.8021
2790.01	0.7987
2799.04	0.795
2808.07	0.7907
2817.11	0.7831
2826.14	0.7711
2835.17	0.757
2844.21	0.7382
2853.24	0.7135
2862.27	0.6811
2871.31	0.6671
2880.34	0.6894
2889.37	0.6904
2898.41	0.6899
2907.44	0.6871
2916.48	0.6824
2925.51	0.673
2934.54	0.65
2943.58	0.6177
2952.61	0.5924
2961.64	0.5832
2970.68	0.6049
2979.71	0.6982
2988.74	0.7501
2997.78	0.7555
3006.81	0.7549
3015.84	0.7518
3024.88	0.7456
3033.91	0.7384
3042.94	0.7305
3051.98	0.715
3061.01	0.6996
3070.04	0.6851
3079.08	0.6711
3088.11	0.6563
3097.15	0.6406
3106.18	0.6241
3115.21	0.6045
3124.25	0.5821
3133.28	0.5555
3142.31	0.5264
3151.35	0.4824
3160.38	0.437
3169.41	0.4246
3178.45	0.4488
3187.48	0.4809
3196.51	0.5059
3205.55	0.5331
3214.58	0.5557
3223.61	0.6039
3232.65	0.6344
3241.68	0.6454
3250.71	0.6484
3259.75	0.6456
3268.78	0.6307
3277.82	0.6019
3286.85	0.5593
3295.88	0.5107
3304.92	0.4779
3313.95	0.4758
3322.98	0.4683
3332.02	0.4566
3341.05	0.445
3350.08	0.3534
3359.12	0.2908
3368.15	0.2965
3377.18	0.3429
3386.22	0.4674
3395.25	0.5486
3404.28	0.6008
3413.32	0.6405
3422.35	0.6706
3431.38	0.6945
3440.42	0.7102
3449.45	0.7231
3458.49	0.7322
3467.52	0.74
3476.55	0.7458
3485.59	0.7486
3494.62	0.7519
3503.65	0.7563
3512.69	0.7615
3521.72	0.7675
3530.75	0.7745
3539.79	0.7821
3548.82	0.7881
3557.85	0.7942
3566.89	0.8003
3575.92	0.8064
3584.95	0.8113
3593.99	0.8161
3603.02	0.8211
3612.05	0.8262
3621.09	0.8314
3630.12	0.8387
3639.16	0.8435
3648.19	0.8453
3657.22	0.8458
3666.26	0.8451
3675.29	0.8448
3684.32	0.8451
3693.36	0.8456
3702.39	0.8463
3711.42	0.8469
3720.46	0.8476
3729.49	0.8482
3738.52	0.8489
3747.56	0.8496
3756.59	0.85
3765.62	0.8502
3774.66	0.8504
3783.69	0.8506
3792.72	0.851
3801.76	0.8514
3810.79	0.8518
3819.83	0.8522
3828.86	0.8519
3837.89	0.8511
3846.93	0.8504
3855.96	0.8497
3864.99	0.8489
3874.03	0.8484
3883.06	0.8478
3892.09	0.8473
3901.13	0.8471
3910.16	0.8471
3919.19	0.8471
3928.23	0.8471
3937.26	0.8475
3946.29	0.8479
3955.33	0.8484
3964.36	0.8488
3973.39	0.8492
3982.43	0.8496
3991.46	0.8503
4000.5	0.8514
4009.53	0.8525
