Infrared Spectrum: m,Alpha,Alpha,Alpha-Tetrafluorotoluene
Formula: C7 H4 F4
CAS: 401-80-9
State: SOLUTION (10% CCl4 FOR 3800-1330, 10% CS2 FOR 1330-460 CM^-^1)
Class: COBLENTZ III
Instrument: DOW KBr FOREPRISM-GRATING
Instrument parameters: BLAZED AT 3.5, 12.0, 20.0 MICRON AND CHANGED AT 5.0, 7.5, 14.9 MICRON
Sampling: TRANSMISSION
Path length: 0.010 CM, 0.010 CM
Resolution: 2
Origin: DOW CHEMICAL COMPANY
1/CM	TRANSMITTANCE
3796	0.9185
3787	0.919
3778	0.9189
3769	0.9195
3760	0.9208
3751	0.9211
3742	0.9225
3733	0.9232
3724	0.9238
3715	0.9222
3706	0.9215
3697	0.9196
3688	0.9175
3679	0.9182
3670	0.9226
3661	0.9218
3652	0.9192
3643	0.9192
3634	0.9189
3625	0.9198
3616	0.9186
3607	0.9169
3598	0.9173
3589	0.9207
3580	0.9228
3571	0.9228
3562	0.9241
3553	0.9251
3544	0.9255
3535	0.9261
3526	0.9243
3517	0.9239
3508	0.9236
3499	0.9233
3490	0.923
3481	0.9229
3472	0.9229
3463	0.9228
3454	0.9228
3445	0.9227
3436	0.9226
3427	0.9225
3418	0.9224
3409	0.9224
3400	0.9223
3391	0.9222
3382	0.9221
3373	0.9223
3364	0.9228
3355	0.9231
3346	0.9235
3337	0.9255
3328	0.9246
3319	0.925
3310	0.9269
3301	0.9257
3292	0.9259
3283	0.9275
3274	0.9274
3265	0.9269
3256	0.925
3247	0.9259
3238	0.9234
3229	0.9197
3220	0.9205
3211	0.9215
3202	0.9214
3193	0.9236
3184	0.9225
3175	0.9228
3166	0.9227
3157	0.9236
3148	0.921
3139	0.9206
3130	0.9181
3121	0.9139
3112	0.9066
3103	0.8871
3094	0.8312
3085	0.8046
3076	0.885
3067	0.8968
3058	0.9062
3049	0.9128
3040	0.928
3031	0.927
3022	0.9284
3013	0.9326
3004	0.9352
2995	0.9318
2986	0.9263
2977	0.9244
2968	0.9268
2959	0.9221
2950	0.9144
2941	0.9144
2932	0.916
2923	0.9187
2914	0.9224
2905	0.9279
2896	0.9326
2887	0.9353
2878	0.9355
2869	0.9355
2860	0.9358
2851	0.9374
2842	0.9426
2833	0.9412
2824	0.9412
2815	0.9425
2806	0.9462
2797	0.947
2788	0.9449
2779	0.9466
2770	0.9473
2761	0.948
2752	0.9489
2743	0.9499
2734	0.9509
2725	0.9518
2716	0.9527
2707	0.9533
2698	0.9531
2689	0.9523
2680	0.9485
2671	0.941
2662	0.9362
2653	0.9438
2644	0.947
2635	0.9494
2626	0.9505
2617	0.9524
2608	0.9551
2599	0.9569
2590	0.96
2581	0.9622
2572	0.9632
2563	0.9633
2554	0.9602
2545	0.9584
2536	0.9595
2527	0.9572
2518	0.9555
2509	0.9556
2500	0.9332
2491	0.9386
2482	0.9573
2473	0.9628
2464	0.9665
2455	0.9678
2446	0.9712
2437	0.9657
2428	0.9613
2419	0.9629
2410	0.9626
2401	0.9596
2392	0.9579
2383	0.9628
2374	0.9706
2365	0.9686
2356	0.97
2347	0.9707
2338	0.9665
2329	0.9617
2320	0.9595
2311	0.9604
2302	0.9621
2293	0.9649
2284	0.963
2275	0.9563
2266	0.9586
2257	0.9623
2248	0.961
2239	0.957
2230	0.9602
2221	0.9667
2212	0.9648
2203	0.9651
2194	0.9685
2185	0.9693
2176	0.9719
2167	0.9712
2158	0.9716
2149	0.9712
2140	0.9679
2131	0.9593
2122	0.9438
2113	0.9387
2104	0.9549
2095	0.9599
2086	0.9399
2077	0.952
2068	0.9579
2059	0.9617
2050	0.9611
2041	0.9534
2032	0.9484
2023	0.9609
2014	0.9634
2005	0.9528
1996	0.9271
1987	0.9298
1978	0.927
1969	0.9307
1960	0.9298
1951	0.9002
1942	0.8845
1933	0.9204
1924	0.9226
1915	0.9182
1906	0.9236
1897	0.9245
1888	0.9099
1879	0.8604
1870	0.8911
1861	0.9165
1852	0.9212
1843	0.9282
1834	0.9267
1825	0.9248
1816	0.9217
1807	0.897
1798	0.8975
1789	0.9186
1780	0.9183
1771	0.8939
1762	0.8238
1753	0.8763
1744	0.9095
1735	0.9159
1726	0.9256
1717	0.9276
1708	0.9161
1699	0.87
1690	0.8831
1681	0.8946
1672	0.8866
1663	0.8759
1654	0.8612
1645	0.843
1636	0.8143
1627	0.7582
1618	0.6906
1609	0.2988
1600	0.387
1591	0.6814
1582	0.7412
1573	0.8274
1564	0.8035
1555	0.8232
1546	0.9328
1537	0.9162
1528	0.8559
1519	0.8522
1510	0.8048
1501	0.2828
1492	0.6389
1483	0.8007
1474	0.751
1465	0.3065
1456	0.1636
1447	0.5681
1438	0.705
1429	0.657
1420	0.8181
1411	0.8777
1402	0.8858
1393	0.8874
1384	0.8856
1375	0.8646
1366	0.7742
1357	0.6821
1348	0.366
1339	0
1330	0
1321	0.1185
1312	0.3789
1303	0.5308
1294	0.6685
1285	0.2452
1276	0.4604
1267	0.5929
1258	0.7054
1249	0.6222
1240	0.6909
1231	0.7129
1222	0.3958
1213	0.0957
1204	0.3801
1195	0.3925
1186	0.1849
1177	0.0002
1168	0
1159	0.0599
1150	0.0687
1141	0
1132	0.0001
1123	0.2347
1114	0.5383
1105	0.5855
1096	0.5943
1087	0.138
1078	0.6444
1069	0.5981
1060	0.0248
1051	0.7175
1042	0.8176
1033	0.8362
1024	0.855
1015	0.863
1006	0.8422
997	0.8846
988	0.8895
979	0.856
970	0.8609
961	0.8877
952	0.8886
943	0.8634
934	0.8456
925	0.8429
916	0.7353
907	0.5692
898	0.2189
889	0.1421
880	0.0267
871	0.5717
862	0.8101
853	0.8696
844	0.89
835	0.8805
826	0.8765
817	0.86
808	0.8096
799	0.3803
790	0.0102
781	0.7964
772	0.8553
763	0.855
754	0.741
745	0.649
736	0.8751
727	0.8838
718	0.8727
709	0.8
700	0.0658
691	0.741
682	0.8646
673	0.8411
664	0.7723
655	0.6855
646	0.8424
637	0.7648
628	0.8408
619	0.8476
610	0.8478
601	0.8428
592	0.8414
583	0.84
574	0.8386
565	0.8338
556	0.8263
547	0.8164
538	0.804
529	0.4086
520	0.7795
511	0.8107
502	0.8126
493	0.8071
484	0.7956
475	0.7838
466	0.7696
