Infrared Spectrum: Benzoic acid, o-acetylphenyl ester-
Formula: C15 H12 O3
CAS: 4010-33-7
State: SOLID (SPLIT MULL), FLUOROLUBE FOR 3800-1330 CM^-^1, NUJOL FOR 1330-400 CM^-^1
Class: COBLENTZ III
Instrument: DOW KBr FOREPRISM-GRATING
Instrument parameters: BLAZED AT 3.5, 12.0, 20.0 MICRON AND CHANGED AT 5.0, 7.5, 14.9 MICRON
Sampling: TRANSMISSION
Resolution: 2
Origin: DOW CHEMICAL COMPANY
1/CM	TRANSMITTANCE
400	0.4237
409	0.4362
418	0.497
427	0.5743
436	0.6386
445	0.6845
454	0.7099
463	0.6947
472	0.7635
481	0.754
490	0.7269
499	0.6601
508	0.758
517	0.7757
526	0.7904
535	0.804
544	0.8178
553	0.8343
562	0.8418
571	0.8408
580	0.8234
589	0.8315
598	0.7681
607	0.4006
616	0.7918
625	0.8618
634	0.8708
643	0.8727
652	0.8701
661	0.8627
670	0.8395
679	0.8134
688	0.8121
697	0.7414
706	0.1592
715	0.172
724	0.7244
733	0.7811
742	0.8065
751	0.8122
760	0.7765
769	0.4417
778	0.771
787	0.8458
796	0.8475
805	0.8451
814	0.8556
823	0.8451
832	0.6612
841	0.8003
850	0.6105
859	0.8317
868	0.8496
877	0.8502
886	0.8162
895	0.8125
904	0.8344
913	0.8296
922	0.8225
931	0.8135
940	0.7658
949	0.7725
958	0.6241
967	0.7434
976	0.7658
985	0.7862
994	0.7678
1003	0.7498
1012	0.7035
1021	0.6333
1030	0.5939
1039	0.6341
1048	0.6505
1057	0.4132
1066	0.202
1075	0.3192
1084	0.5338
1093	0.7361
1102	0.7444
1111	0.7361
1120	0.6975
1129	0.4377
1138	0.7019
1147	0.7083
1156	0.6876
1165	0.511
1174	0.4795
1183	0.4614
1192	0.3853
1201	0.0368
1210	0.5786
1219	0.6911
1228	0.6535
1237	0.4886
1246	0.2355
1255	0.1654
1264	0.1479
1273	0.0416
1282	0.4366
1291	0.4974
1300	0.5521
1309	0.6156
1318	0.6284
1327	0.7124
1336	0.653
1345	0.6175
1354	0.5974
1363	0.3629
1372	0.7124
1381	0.7358
1390	0.733
1399	0.7158
1408	0.6871
1417	0.631
1426	0.4956
1435	0.59
1444	0.6223
1453	0.4375
1462	0.7685
1471	0.7569
1480	0.6419
1489	0.6988
1498	0.7637
1507	0.7583
1516	0.7451
1525	0.7415
1534	0.7304
1543	0.7165
1552	0.6997
1561	0.6796
1570	0.6353
1579	0.6445
1588	0.5957
1597	0.4319
1606	0.5432
1615	0.7072
1624	0.6768
1633	0.655
1642	0.6026
1651	0.5653
1660	0.534
1669	0.4389
1678	0.2262
1687	0.0275
1696	0.4898
1705	0.6878
1714	0.6314
1723	0.4819
1732	0.1058
1741	0.176
1750	0.6551
1759	0.7549
1768	0.8721
1777	0.883
1786	0.8641
1795	0.8417
1804	0.8373
1813	0.8321
1822	0.8162
1831	0.8118
1840	0.8089
1849	0.7906
1858	0.7918
1867	0.7965
1876	0.7917
1885	0.7835
1894	0.7732
1903	0.7558
1912	0.7308
1921	0.7265
1930	0.7588
1939	0.751
1948	0.7403
1957	0.735
1966	0.7397
1975	0.7325
1984	0.7257
1993	0.7248
2002	0.724
2011	0.7239
2020	0.7207
2029	0.7062
2038	0.7065
2047	0.7121
2056	0.7082
2065	0.7031
2074	0.6981
2083	0.6931
2092	0.6889
2101	0.6839
2110	0.6791
2119	0.6751
2128	0.6711
2137	0.6669
2146	0.6634
2155	0.6608
2164	0.6582
2173	0.6549
2182	0.6511
2191	0.648
2200	0.6451
2209	0.6434
2218	0.6383
2227	0.6275
2236	0.6198
2245	0.6131
2254	0.6077
2263	0.6026
2272	0.5982
2281	0.5941
2290	0.5901
2299	0.5862
2308	0.5829
2317	0.5795
2326	0.576
2335	0.5724
2344	0.57
2353	0.5683
2362	0.5665
2371	0.5662
2380	0.5672
2389	0.5693
2398	0.5682
2407	0.567
2416	0.5702
2425	0.5692
2434	0.5672
2443	0.5656
2452	0.5639
2461	0.5621
2470	0.5603
2479	0.5583
2488	0.5562
2497	0.5541
2506	0.5521
2515	0.5502
2524	0.5485
2533	0.5469
2542	0.5447
2551	0.5422
2560	0.5397
2569	0.5373
2578	0.5351
2587	0.533
2596	0.5309
2605	0.5287
2614	0.5265
2623	0.5243
2632	0.5221
2641	0.5192
2650	0.5162
2659	0.5134
2668	0.5106
2677	0.5077
2686	0.5049
2695	0.5021
2704	0.4994
2713	0.4968
2722	0.4941
2731	0.4915
2740	0.4888
2749	0.4862
2758	0.4835
2767	0.4808
2776	0.4782
2785	0.4757
2794	0.4733
2803	0.4709
2812	0.4686
2821	0.466
2830	0.4633
2839	0.4604
2848	0.4576
2857	0.4546
2866	0.4509
2875	0.4473
2884	0.4437
2893	0.4402
2902	0.4367
2911	0.4335
2920	0.4273
2929	0.4269
2938	0.4318
2947	0.4288
2956	0.4248
2965	0.4187
2974	0.4118
2983	0.4115
2992	0.4024
3001	0.3677
3010	0.4185
3019	0.416
3028	0.4131
3037	0.4077
3046	0.3966
3055	0.3991
3064	0.3944
3073	0.3891
3082	0.3892
3091	0.3995
3100	0.4042
3109	0.398
3118	0.3941
3127	0.3953
3136	0.396
3145	0.3947
3154	0.3929
3163	0.3912
3172	0.3902
3181	0.389
3190	0.3878
3199	0.3864
3208	0.385
3217	0.3834
3226	0.3809
3235	0.3784
3244	0.376
3253	0.3734
3262	0.371
3271	0.3687
3280	0.3664
3289	0.3643
3298	0.362
3307	0.3595
3316	0.357
3325	0.3544
3334	0.3509
3343	0.3474
3352	0.3436
3361	0.3407
3370	0.3464
3379	0.3452
3388	0.3441
3397	0.3418
3406	0.3394
3415	0.3371
3424	0.335
3433	0.3328
3442	0.3302
3451	0.3264
3460	0.3254
3469	0.3309
3478	0.3309
3487	0.3296
3496	0.3274
3505	0.3247
3514	0.3224
3523	0.3205
3532	0.3185
3541	0.3169
3550	0.3151
3559	0.3134
3568	0.312
3577	0.3105
3586	0.309
3595	0.3075
3604	0.3059
3613	0.3044
3622	0.303
3631	0.3017
3640	0.3005
3649	0.2992
3658	0.2979
3667	0.2965
3676	0.2953
3685	0.2937
3694	0.292
3703	0.2902
3712	0.2884
3721	0.2868
3730	0.2852
3739	0.2834
3748	0.2819
3757	0.2802
3766	0.2784
3775	0.2774
3784	0.277
3793	0.2765
