Infrared Spectrum: Alpha,Alpha,Alpha-Trifluoro-p-cresol
Formula: C7 H5 F3 O
CAS: 402-45-9
State: SOLUTION (10% CCl4 FOR 3800-1330, 10% CS2 FOR 1330-460 CM^-^1)
Class: COBLENTZ III
Instrument: DOW KBr FOREPRISM-GRATING
Instrument parameters: BLAZED AT 3.5, 12.0, 20.0 MICRON AND CHANGED AT 5.0, 7.5, 14.9 MICRON
Sampling: TRANSMISSION
Path length: 0.011 CM, 0.011 CM
Resolution: 2
Origin: DOW CHEMICAL COMPANY
1/CM	TRANSMITTANCE
3800	0.9289
3791	0.93
3782	0.9285
3773	0.9301
3764	0.9304
3755	0.9306
3746	0.9309
3737	0.9324
3728	0.9325
3719	0.9294
3710	0.9287
3701	0.9243
3692	0.9136
3683	0.9074
3674	0.9055
3665	0.9039
3656	0.9026
3647	0.9004
3638	0.8955
3629	0.8694
3620	0.7053
3611	0.4726
3602	0.2397
3593	0.1181
3584	0.2737
3575	0.4602
3566	0.5797
3557	0.6923
3548	0.7417
3539	0.7551
3530	0.7577
3521	0.7494
3512	0.7278
3503	0.7014
3494	0.6735
3485	0.6542
3476	0.642
3467	0.6391
3458	0.6413
3449	0.6525
3440	0.6629
3431	0.673
3422	0.6821
3413	0.6907
3404	0.6991
3395	0.7075
3386	0.7156
3377	0.7236
3368	0.7313
3359	0.7385
3350	0.7457
3341	0.7528
3332	0.7598
3323	0.7669
3314	0.7739
3305	0.7818
3296	0.7876
3287	0.7948
3278	0.8035
3269	0.811
3260	0.8166
3251	0.8214
3242	0.8256
3233	0.8292
3224	0.8323
3215	0.8344
3206	0.8396
3197	0.8469
3188	0.8526
3179	0.8559
3170	0.8589
3161	0.8604
3152	0.86
3143	0.8572
3134	0.8597
3125	0.8639
3116	0.8677
3107	0.8697
3098	0.8713
3089	0.8562
3080	0.8415
3071	0.8471
3062	0.8438
3053	0.834
3044	0.8403
3035	0.8482
3026	0.8308
3017	0.8586
3008	0.8716
2999	0.8782
2990	0.8805
2981	0.8791
2972	0.8771
2963	0.8733
2954	0.8683
2945	0.8632
2936	0.8605
2927	0.8621
2918	0.8684
2909	0.877
2900	0.8826
2891	0.8847
2882	0.8854
2873	0.8848
2864	0.8828
2855	0.8764
2846	0.8741
2837	0.8784
2828	0.8821
2819	0.8859
2810	0.8855
2801	0.8863
2792	0.8833
2783	0.8818
2774	0.8845
2765	0.8871
2756	0.8883
2747	0.8891
2738	0.8894
2729	0.8896
2720	0.889
2711	0.8881
2702	0.8868
2693	0.8851
2684	0.882
2675	0.8785
2666	0.8746
2657	0.8704
2648	0.8612
2639	0.8613
2630	0.8681
2621	0.8727
2612	0.8743
2603	0.8787
2594	0.8825
2585	0.8856
2576	0.888
2567	0.8884
2558	0.8877
2549	0.8822
2540	0.8718
2531	0.8692
2522	0.8732
2513	0.8756
2504	0.876
2495	0.8754
2486	0.8753
2477	0.8766
2468	0.8752
2459	0.8641
2450	0.8572
2441	0.8584
2432	0.8626
2423	0.8695
2414	0.878
2405	0.8845
2396	0.8871
2387	0.8895
2378	0.894
2369	0.895
2360	0.8944
2351	0.8937
2342	0.8874
2333	0.879
2324	0.8785
2315	0.8785
2306	0.8789
2297	0.8756
2288	0.8705
2279	0.8692
2270	0.8686
2261	0.8691
2252	0.8713
2243	0.8741
2234	0.8781
2225	0.883
2216	0.8859
2207	0.8859
2198	0.8745
2189	0.8772
2180	0.8818
2171	0.8847
2162	0.885
2153	0.8863
2144	0.8855
2135	0.8836
2126	0.881
2117	0.8758
2108	0.8697
2099	0.8722
2090	0.8716
2081	0.8682
2072	0.8717
2063	0.8776
2054	0.8827
2045	0.8823
2036	0.8767
2027	0.8721
2018	0.8678
2009	0.8681
2000	0.8729
1991	0.8788
1982	0.8794
1973	0.8794
1964	0.8806
1955	0.8824
1946	0.8798
1937	0.8801
1928	0.8759
1919	0.8607
1910	0.8439
1901	0.8174
1892	0.7985
1883	0.841
1874	0.8397
1865	0.8526
1856	0.8662
1847	0.8698
1838	0.8725
1829	0.8727
1820	0.8739
1811	0.8761
1802	0.8734
1793	0.8675
1784	0.8701
1775	0.8538
1766	0.8288
1757	0.8506
1748	0.8532
1739	0.8546
1730	0.8588
1721	0.8604
1712	0.8581
1703	0.8562
1694	0.8614
1685	0.8456
1676	0.8168
1667	0.8007
1658	0.8065
1649	0.7687
1640	0.6147
1631	0.4591
1622	0.1313
1613	0.1028
1604	0.1338
1595	0.5881
1586	0.7081
1577	0.7555
1568	0.7328
1559	0.7074
1550	0.7316
1541	0.7049
1532	0.569
1523	0.1744
1514	0.7366
1505	0.8126
1496	0.8331
1487	0.8418
1478	0.8531
1469	0.8325
1460	0.7873
1451	0.6667
1442	0.5018
1433	0.6375
1424	0.7964
1415	0.7789
1406	0.8215
1397	0.8447
1388	0.834
1379	0.7587
1370	0.719
1361	0.4581
1352	0.4388
1343	0.3835
1334	0.0221
1325	0.0086
1316	0.0157
1307	0.3216
1298	0.5538
1289	0.6152
1280	0.377
1271	0.0373
1262	0.4036
1253	0.4647
1244	0.5306
1235	0.5628
1226	0.545
1217	0.4895
1208	0.421
1199	0.2786
1190	0.1152
1181	0.058
1172	0.0169
1163	0.0073
1154	0.0355
1145	0.1661
1136	0.092
1127	0.0092
1118	0.0279
1109	0.1265
1100	0.0227
1091	0.4661
1082	0.5908
1073	0.3135
1064	0.0234
1055	0.5883
1046	0.7761
1037	0.8139
1028	0.8277
1019	0.6337
1010	0.7966
1001	0.8419
992	0.855
983	0.8619
974	0.86
965	0.8493
956	0.8357
947	0.8254
938	0.7454
929	0.8403
920	0.8421
911	0.8448
902	0.8472
893	0.8428
884	0.8351
875	0.8105
866	0.7642
857	0.7239
848	0.522
839	0.0192
830	0.4819
821	0.6687
812	0.5253
803	0.7814
794	0.8227
785	0.8386
776	0.8412
767	0.8423
758	0.8375
749	0.834
740	0.8306
731	0.7989
722	0.8211
713	0.8259
704	0.8254
695	0.8268
686	0.8289
677	0.8237
668	0.8199
659	0.79
650	0.7796
641	0.7368
632	0.772
623	0.7467
614	0.7318
605	0.2251
596	0.4016
587	0.6138
578	0.7088
569	0.7449
560	0.7585
551	0.7637
542	0.7662
533	0.7643
524	0.746
515	0.6593
506	0.7046
497	0.7553
488	0.7645
479	0.7619
470	0.7529
461	0.7458
