Infrared Spectrum: Cyclopropanecarboxylic acid chloride
Formula: C4 H5 Cl O
CAS: 4023-34-1
State: SOLUTION (2% CCl4 FOR 3800-1340, 2% CS2 FOR 1340-450 CM^-^1)
Class: COBLENTZ III
Instrument: DOW KBr FOREPRISM-GRATING
Instrument parameters: BLAZED AT 3.5, 12.0, 20.0 MICRON AND CHANGED AT 5.0, 7.5, 14.9 MICRON
Sampling: TRANSMISSION
Path length: 0.011 CM, 0.011 CM
Resolution: 2
Origin: DOW CHEMICAL COMPANY
1/CM	TRANSMITTANCE
3802	0.9206
3793	0.9213
3784	0.9197
3775	0.9188
3766	0.9202
3757	0.9222
3748	0.9245
3739	0.9274
3730	0.93
3721	0.9289
3712	0.9274
3703	0.9266
3694	0.9214
3685	0.9115
3676	0.9152
3667	0.9181
3658	0.9187
3649	0.919
3640	0.9178
3631	0.9157
3622	0.9157
3613	0.9167
3604	0.9174
3595	0.9171
3586	0.9167
3577	0.9165
3568	0.9147
3559	0.9143
3550	0.9112
3541	0.9073
3532	0.9049
3523	0.9035
3514	0.9071
3505	0.9105
3496	0.9128
3487	0.9151
3478	0.9164
3469	0.9171
3460	0.918
3451	0.919
3442	0.9203
3433	0.9208
3424	0.9208
3415	0.9211
3406	0.9221
3397	0.9215
3388	0.922
3379	0.9224
3370	0.9243
3361	0.9229
3352	0.9232
3343	0.9226
3334	0.9216
3325	0.9216
3316	0.9216
3307	0.9218
3298	0.9214
3289	0.9213
3280	0.9216
3271	0.9228
3262	0.9222
3253	0.9215
3244	0.9192
3235	0.9187
3226	0.9168
3217	0.9182
3208	0.9162
3199	0.9166
3190	0.9155
3181	0.9145
3172	0.9143
3163	0.9157
3154	0.915
3145	0.9126
3136	0.9135
3127	0.9117
3118	0.91
3109	0.9067
3100	0.9045
3091	0.91
3082	0.9057
3073	0.9106
3064	0.9065
3055	0.906
3046	0.9067
3037	0.9099
3028	0.8591
3019	0.8487
3010	0.8863
3001	0.8984
2992	0.9047
2983	0.9052
2974	0.9074
2965	0.9096
2956	0.91
2947	0.9114
2938	0.9128
2929	0.9113
2920	0.9099
2911	0.9103
2902	0.9105
2893	0.9105
2884	0.9104
2875	0.9104
2866	0.9108
2857	0.9116
2848	0.9106
2839	0.912
2830	0.9118
2821	0.9141
2812	0.913
2803	0.9154
2794	0.916
2785	0.915
2776	0.9162
2767	0.9162
2758	0.9162
2749	0.916
2740	0.9158
2731	0.9152
2722	0.9148
2713	0.9148
2704	0.9147
2695	0.9146
2686	0.9142
2677	0.9138
2668	0.9133
2659	0.9135
2650	0.9139
2641	0.915
2632	0.9171
2623	0.9174
2614	0.9177
2605	0.918
2596	0.9185
2587	0.919
2578	0.9193
2569	0.9194
2560	0.9197
2551	0.92
2542	0.9205
2533	0.9217
2524	0.9224
2515	0.9226
2506	0.9209
2497	0.9169
2488	0.9164
2479	0.9198
2470	0.921
2461	0.9222
2452	0.9232
2443	0.9243
2434	0.9247
2425	0.9235
2416	0.9217
2407	0.9206
2398	0.9207
2389	0.9217
2380	0.9254
2371	0.9324
2362	0.932
2353	0.9356
2344	0.9311
2335	0.9235
2326	0.9266
2317	0.9235
2308	0.9221
2299	0.9195
2290	0.9219
2281	0.921
2272	0.9212
2263	0.9205
2254	0.9186
2245	0.9185
2236	0.9191
2227	0.9187
2218	0.9174
2209	0.9179
2200	0.9176
2191	0.915
2182	0.9145
2173	0.9161
2164	0.9146
2155	0.914
2146	0.9128
2137	0.9123
2128	0.9123
2119	0.9124
2110	0.9046
2101	0.9051
2092	0.9107
2083	0.913
2074	0.9079
2065	0.9109
2056	0.9127
2047	0.9106
2038	0.9099
2029	0.9077
2020	0.9069
2011	0.9027
2002	0.8951
1993	0.8685
1984	0.8937
1975	0.8911
1966	0.8924
1957	0.8946
1948	0.8911
1939	0.8837
1930	0.8705
1921	0.8653
1912	0.8664
1903	0.8693
1894	0.8712
1885	0.8701
1876	0.8698
1867	0.8692
1858	0.8648
1849	0.8541
1840	0.8284
1831	0.7711
1822	0.6876
1813	0.6278
1804	0.6601
1795	0.6089
1786	0.2505
1777	0.0651
1768	0.459
1759	0.6773
1750	0.7509
1741	0.7835
1732	0.8268
1723	0.8603
1714	0.8779
1705	0.868
1696	0.8545
1687	0.8802
1678	0.893
1669	0.8996
1660	0.9031
1651	0.9041
1642	0.9057
1633	0.9003
1624	0.9017
1615	0.9098
1606	0.9129
1597	0.9029
1588	0.8722
1579	0.8791
1570	0.8724
1561	0.854
1552	0.8709
1543	0.9137
1534	0.9312
1525	0.9062
1516	0.897
1507	0.8875
1498	0.8876
1489	0.8951
1480	0.9195
1471	0.9056
1462	0.8954
1453	0.8638
1444	0.8725
1435	0.8872
1426	0.7806
1417	0.8892
1408	0.9095
1399	0.9148
1390	0.9176
1381	0.9182
1372	0.9041
1363	0.5138
1354	0.7888
1345	0.8378
1336	0.8763
1327	0.919
1318	0.9287
1309	0.9372
1300	0.9375
1291	0.9409
1282	0.948
1273	0.9555
1264	0.9609
1255	0.9608
1246	0.958
1237	0.9448
1228	0.9589
1219	0.9629
1210	0.9613
1201	0.9164
1192	0.8783
1183	0.8966
1174	0.8938
1165	0.9006
1156	0.5711
1147	0.8608
1138	0.9191
1129	0.931
1120	0.9324
1111	0.9128
1102	0.8877
1093	0.9352
1084	0.9098
1075	0.9215
1066	0.8386
1057	0.8848
1048	0.8924
1039	0.3959
1030	0.8404
1021	0.9043
1012	0.9265
1003	0.928
994	0.9194
985	0.9023
976	0.8489
967	0.3245
958	0.1043
949	0.5376
940	0.6787
931	0.7785
922	0.8419
913	0.8748
904	0.8937
895	0.9071
886	0.903
877	0.8367
868	0.4441
859	0.7781
850	0.8195
841	0.821
832	0.8883
823	0.9027
814	0.8476
805	0.8977
796	0.8644
787	0.8626
778	0.9044
769	0.8827
760	0.9197
751	0.9324
742	0.932
733	0.932
724	0.9295
715	0.9214
706	0.8908
697	0.5959
688	0.5562
679	0.8517
670	0.892
661	0.8965
652	0.9227
643	0.9362
634	0.941
625	0.9449
616	0.9473
607	0.9423
598	0.9477
589	0.9487
580	0.9447
571	0.9399
562	0.9256
553	0.8876
544	0.6174
535	0.7742
526	0.8826
517	0.9085
508	0.9136
499	0.9136
490	0.9091
481	0.8971
472	0.85
463	0.863
454	0.8673
