Infrared Spectrum: Acetophenone, 2-bromo-4'-fluoro-
Formula: C8 H6 Br F O
CAS: 403-29-2
State: SOLUTION (10% CCl4 FOR 3800-1335, 10% CS2 FOR 1335-400 CM^-^1)
Class: COBLENTZ III
Instrument: DOW KBr FOREPRISM-GRATING
Instrument parameters: BLAZED AT 3.5, 12.0, 20.0 MICRON AND CHANGED AT 5.0, 7.5, 14.9 MICRON
Sampling: TRANSMISSION
Path length: 0.011 CM, 0.011 CM
Resolution: 2
Origin: DOW CHEMICAL COMPANY
1/CM	TRANSMITTANCE
387	0.1843
396	0.2
405	0.2588
414	0.551
423	0.7445
432	0.7734
441	0.7839
450	0.7884
459	0.7871
468	0.8068
477	0.8158
486	0.7876
495	0.7684
504	0.7968
513	0.772
522	0.661
531	0.4942
540	0.7189
549	0.7556
558	0.7674
567	0.8089
576	0.7493
585	0.4903
594	0.1493
603	0.7495
612	0.8472
621	0.8822
630	0.8719
639	0.8697
648	0.8514
657	0.8509
666	0.8654
675	0.8324
684	0.7792
693	0.7779
702	0.8485
711	0.8807
720	0.8871
729	0.8862
738	0.8796
747	0.8646
756	0.8081
765	0.5771
774	0.7881
783	0.8406
792	0.8381
801	0.8209
810	0.7607
819	0.6105
828	0.5653
837	0.3081
846	0.2475
855	0.326
864	0.6073
873	0.7166
882	0.7499
891	0.7729
900	0.802
909	0.8195
918	0.8188
927	0.8103
936	0.7981
945	0.7859
954	0.7838
963	0.7643
972	0.7485
981	0.6837
990	0.5133
999	0.6702
1008	0.6179
1017	0.446
1026	0.6263
1035	0.765
1044	0.7773
1053	0.7827
1062	0.7897
1071	0.7888
1080	0.7825
1089	0.7634
1098	0.6421
1107	0.6468
1116	0.4631
1125	0.7109
1134	0.7484
1143	0.7346
1152	0.5605
1161	0.1077
1170	0.7074
1179	0.7016
1188	0.4337
1197	0.3651
1206	0.4648
1215	0.5869
1224	0.5108
1233	0.2232
1242	0.0253
1251	0.4629
1260	0.4303
1269	0.1768
1278	0.0469
1287	0.1374
1296	0.3507
1305	0.5714
1314	0.57
1323	0.7329
1332	0.7768
1341	0.7779
1350	0.7651
1359	0.7568
1368	0.7793
1377	0.7819
1386	0.7739
1395	0.7371
1404	0.6787
1413	0.5666
1422	0.6221
1431	0.224
1440	0.7275
1449	0.7748
1458	0.7775
1467	0.7798
1476	0.7701
1485	0.7441
1494	0.6819
1503	0.4926
1512	0.0363
1521	0.5645
1530	0.5533
1539	0.5061
1548	0.4216
1557	0.434
1566	0.4939
1575	0.487
1584	0.3974
1593	0.1357
1602	0.0095
1611	0.3228
1620	0.5424
1629	0.7061
1638	0.7229
1647	0.6799
1656	0.6702
1665	0.6428
1674	0.552
1683	0.0255
1692	0.077
1701	0.3185
1710	0.3434
1719	0.7096
1728	0.7855
1737	0.8113
1746	0.8308
1755	0.8436
1764	0.8504
1773	0.8428
1782	0.8439
1791	0.8586
1800	0.8667
1809	0.8725
1818	0.8772
1827	0.8806
1836	0.8831
1845	0.8875
1854	0.8864
1863	0.8839
1872	0.8812
1881	0.8663
1890	0.8525
1899	0.8733
1908	0.8649
1917	0.8584
1926	0.8716
1935	0.8584
1944	0.8727
1953	0.8837
1962	0.8849
1971	0.8817
1980	0.885
1989	0.8791
1998	0.8751
2007	0.8415
2016	0.841
2025	0.8409
2034	0.8416
2043	0.8408
2052	0.8357
2061	0.834
2070	0.8386
2079	0.8449
2088	0.8475
2097	0.8493
2106	0.8505
2115	0.8511
2124	0.8517
2133	0.8521
2142	0.8525
2151	0.853
2160	0.8536
2169	0.854
2178	0.8539
2187	0.8536
2196	0.8533
2205	0.8523
2214	0.8514
2223	0.8503
2232	0.8492
2241	0.848
2250	0.8466
2259	0.8409
2268	0.8332
2277	0.8306
2286	0.8303
2295	0.8307
2304	0.8322
2313	0.8335
2322	0.8402
2331	0.8499
2340	0.8518
2349	0.8522
2358	0.8525
2367	0.8522
2376	0.8505
2385	0.8457
2394	0.8385
2403	0.8372
2412	0.8402
2421	0.841
2430	0.8409
2439	0.8409
2448	0.8422
2457	0.8414
2466	0.8375
2475	0.8358
2484	0.8387
2493	0.8446
2502	0.8481
2511	0.8476
2520	0.8468
2529	0.8459
2538	0.844
2547	0.8422
2556	0.8403
2565	0.8383
2574	0.8364
2583	0.833
2592	0.8298
2601	0.8272
2610	0.8269
2619	0.8306
2628	0.8346
2637	0.8406
2646	0.8404
2655	0.8398
2664	0.8392
2673	0.8385
2682	0.8383
2691	0.838
2700	0.8371
2709	0.836
2718	0.8349
2727	0.8342
2736	0.8336
2745	0.8324
2754	0.8307
2763	0.829
2772	0.8271
2781	0.8251
2790	0.8232
2799	0.821
2808	0.8188
2817	0.8164
2826	0.8142
2835	0.8119
2844	0.8089
2853	0.8056
2862	0.8029
2871	0.8002
2880	0.7976
2889	0.7949
2898	0.7923
2907	0.7903
2916	0.7886
2925	0.7863
2934	0.7817
2943	0.7589
2952	0.7522
2961	0.7736
2970	0.7686
2979	0.7563
2988	0.7656
2997	0.7846
3006	0.7907
3015	0.7941
3024	0.7949
3033	0.7926
3042	0.7879
3051	0.7815
3060	0.7739
3069	0.7673
3078	0.7645
3087	0.7692
3096	0.7874
3105	0.7958
3114	0.7972
3123	0.7994
3132	0.8078
3141	0.8137
3150	0.8148
3159	0.8158
3168	0.8164
3177	0.8169
3186	0.8178
3195	0.8187
3204	0.82
3213	0.8239
3222	0.8271
3231	0.8293
3240	0.8316
3249	0.8324
3258	0.8332
3267	0.8339
3276	0.8337
3285	0.8336
3294	0.8337
3303	0.8337
3312	0.8337
3321	0.8334
3330	0.8331
3339	0.827
3348	0.8167
3357	0.7895
3366	0.7906
3375	0.817
3384	0.8306
3393	0.8326
3402	0.8364
3411	0.8415
3420	0.8465
3429	0.8504
3438	0.8538
3447	0.8571
3456	0.8591
3465	0.8611
3474	0.8632
3483	0.8652
3492	0.8673
3501	0.8694
3510	0.8711
3519	0.8725
3528	0.8739
3537	0.8753
3546	0.8768
3555	0.8781
3564	0.8796
3573	0.8809
3582	0.8825
3591	0.884
3600	0.8856
3609	0.887
3618	0.888
3627	0.889
3636	0.8899
3645	0.8898
3654	0.8892
3663	0.8886
3672	0.889
3681	0.886
3690	0.8839
3699	0.883
3708	0.8833
3717	0.8875
3726	0.8909
3735	0.8937
3744	0.8937
3753	0.8929
3762	0.8919
3771	0.8942
3780	0.8949
3789	0.8925
