Infrared Spectrum: 2,5-Dimethylbenzophenone
Formula: C15 H14 O
CAS: 4044-60-4
State: SOLUTION (10% CCl4 FOR 3800-1330, 10% CS2 FOR 1330-400 CM^-^1)
Melting point: 34 C
Class: COBLENTZ III
Instrument: DOW KBr FOREPRISM-GRATING
Instrument parameters: BLAZED AT 3.5, 12.0, 20.0 MICRON AND CHANGED AT 5.0, 7.5, 14.9 MICRON
Sampling: TRANSMISSION
Path length: 0.011 CM, 0.011 CM
Resolution: 2
Origin: DOW CHEMICAL COMPANY
1/CM	TRANSMITTANCE
3798	0.9331
3789	0.9331
3780	0.9315
3771	0.9311
3762	0.9326
3753	0.9348
3744	0.9356
3735	0.9357
3726	0.9328
3717	0.9307
3708	0.9302
3699	0.9289
3690	0.9274
3681	0.929
3672	0.9314
3663	0.9302
3654	0.9282
3645	0.929
3636	0.9301
3627	0.9322
3618	0.932
3609	0.9319
3600	0.9311
3591	0.931
3582	0.9304
3573	0.9298
3564	0.9273
3555	0.927
3546	0.9255
3537	0.9233
3528	0.9206
3519	0.9193
3510	0.9182
3501	0.9169
3492	0.9156
3483	0.9147
3474	0.9142
3465	0.9138
3456	0.9134
3447	0.9127
3438	0.9119
3429	0.9111
3420	0.9103
3411	0.9092
3402	0.9078
3393	0.9062
3384	0.9047
3375	0.9029
3366	0.9012
3357	0.9005
3348	0.8972
3339	0.8885
3330	0.8814
3321	0.8706
3312	0.8774
3303	0.8831
3294	0.8877
3285	0.8922
3276	0.897
3267	0.9008
3258	0.9035
3249	0.9055
3240	0.9075
3231	0.9092
3222	0.91
3213	0.9105
3204	0.9091
3195	0.9091
3186	0.9076
3177	0.909
3168	0.9064
3159	0.9003
3150	0.9045
3141	0.9059
3132	0.907
3123	0.9024
3114	0.8856
3105	0.8569
3096	0.8387
3087	0.7701
3078	0.7603
3069	0.6292
3060	0.6483
3051	0.679
3042	0.6603
3033	0.6387
3024	0.5902
3015	0.6937
3006	0.7187
2997	0.7032
2988	0.6898
2979	0.6566
2970	0.6411
2961	0.6412
2952	0.6525
2943	0.6642
2934	0.5982
2925	0.503
2916	0.5972
2907	0.7382
2898	0.7635
2889	0.7722
2880	0.7715
2871	0.751
2862	0.7275
2853	0.8152
2844	0.8449
2835	0.87
2826	0.8901
2817	0.8985
2808	0.9091
2799	0.9173
2790	0.9221
2781	0.9251
2772	0.927
2763	0.9272
2754	0.9272
2745	0.9264
2736	0.908
2727	0.9047
2718	0.9229
2709	0.9272
2700	0.9301
2691	0.9328
2682	0.9356
2673	0.9375
2664	0.9386
2655	0.9411
2646	0.9418
2637	0.9408
2628	0.9429
2619	0.9428
2610	0.9422
2601	0.9399
2592	0.9364
2583	0.9329
2574	0.9373
2565	0.9405
2556	0.9431
2547	0.9449
2538	0.9467
2529	0.947
2520	0.9468
2511	0.9459
2502	0.9449
2493	0.9441
2484	0.9432
2475	0.9441
2466	0.945
2457	0.946
2448	0.948
2439	0.9484
2430	0.9484
2421	0.9469
2412	0.945
2403	0.9464
2394	0.9466
2385	0.949
2376	0.9562
2367	0.9593
2358	0.9641
2349	0.9598
2340	0.9504
2331	0.9587
2322	0.9499
2313	0.9547
2304	0.9549
2295	0.955
2286	0.9542
2277	0.9525
2268	0.9496
2259	0.9489
2250	0.9464
2241	0.9468
2232	0.9474
2223	0.9514
2214	0.9535
2205	0.9548
2196	0.9556
2187	0.9548
2178	0.9564
2169	0.9564
2160	0.9546
2151	0.9537
2142	0.9522
2133	0.9502
2124	0.9483
2115	0.949
2106	0.9502
2097	0.9498
2088	0.9529
2079	0.9533
2070	0.9486
2061	0.9446
2052	0.9473
2043	0.9491
2034	0.9475
2025	0.9476
2016	0.9463
2007	0.943
1998	0.935
1989	0.9209
1980	0.9076
1971	0.9018
1962	0.8968
1953	0.9232
1944	0.9346
1935	0.934
1926	0.9167
1917	0.8975
1908	0.8724
1899	0.8969
1890	0.9243
1881	0.9354
1872	0.9386
1863	0.9328
1854	0.9281
1845	0.925
1836	0.9232
1827	0.9232
1818	0.889
1809	0.9101
1800	0.9266
1791	0.9228
1782	0.9109
1773	0.8889
1764	0.9099
1755	0.9201
1746	0.9132
1737	0.9005
1728	0.8953
1719	0.8848
1710	0.84
1701	0.7854
1692	0.671
1683	0.4947
1674	0.0537
1665	0.01
1656	0.3247
1647	0.6443
1638	0.7391
1629	0.7608
1620	0.7723
1611	0.7093
1602	0.6306
1593	0.4532
1584	0.5785
1575	0.5804
1566	0.737
1557	0.7868
1548	0.8079
1539	0.8292
1530	0.8486
1521	0.8516
1512	0.8372
1503	0.6537
1494	0.6163
1485	0.7367
1476	0.7866
1467	0.7332
1458	0.6183
1449	0.0838
1440	0.6085
1431	0.7771
1422	0.8281
1413	0.8359
1404	0.752
1395	0.6248
1386	0.7372
1377	0.7181
1368	0.85
1359	0.8642
1350	0.8756
1341	0.8559
1332	0.8319
1323	0.5569
1314	0.1152
1305	0.4297
1296	0.0816
1287	0.423
1278	0.3735
1269	0.0612
1260	0.3445
1251	0.6234
1242	0.7345
1233	0.8297
1224	0.8031
1215	0.4104
1206	0.256
1197	0.69
1188	0.8178
1179	0.556
1170	0.5843
1161	0.8081
1152	0.72
1143	0.8245
1134	0.9052
1125	0.9054
1116	0.8611
1107	0.8643
1098	0.9141
1089	0.9262
1080	0.9224
1071	0.7467
1062	0.8841
1053	0.8875
1044	0.8359
1035	0.7771
1026	0.6185
1017	0.8805
1008	0.8899
999	0.5783
990	0.7652
981	0.8349
972	0.8176
963	0.7994
954	0.4805
945	0.3813
936	0.8119
927	0.7757
918	0.8925
909	0.9287
900	0.9253
891	0.8367
882	0.896
873	0.9273
864	0.8761
855	0.6151
846	0.3636
837	0.7435
828	0.8707
819	0.3505
810	0.4489
801	0.4523
792	0.8814
783	0.9338
774	0.9536
765	0.9441
756	0.8995
747	0.7895
738	0.2643
729	0.565
720	0.8182
711	0.7887
702	0.4639
693	0.0242
684	0.6523
675	0.8625
666	0.8806
657	0.8671
648	0.1117
639	0.857
630	0.9233
621	0.9331
612	0.9071
603	0.8731
594	0.8697
585	0.8447
576	0.8309
567	0.9025
558	0.9228
549	0.9281
540	0.9346
531	0.9208
522	0.9124
513	0.8928
504	0.8296
495	0.6208
486	0.6224
477	0.8097
468	0.8167
459	0.8154
450	0.793
441	0.7593
432	0.7285
423	0.6941
414	0.6438
405	0.5116
