Infrared Spectrum: Methane, chlorobis(p-methoxyphenyl)phenyl-
Formula: C21 H19 Cl O2
CAS: 40615-36-9
State: SOLUTION (10% CCl4 FOR 3800-470 CM^-^1)
Class: COBLENTZ III
Instrument: DOW KBr FOREPRISM-GRATING
Instrument parameters: BLAZED AT 3.5, 12.0, 20.0 MICRON AND CHANGED AT 5.0, 7.5, 14.9 MICRON
Sampling: TRANSMISSION
Path length: 0.011 CM
Resolution: 2
Origin: DOW CHEMICAL COMPANY
1/CM	TRANSMITTANCE
472	0.7658
481	0.7761
490	0.7762
499	0.7754
508	0.7708
517	0.7606
526	0.7299
535	0.6756
544	0.7587
553	0.7753
562	0.7636
571	0.6739
580	0.2766
589	0.4029
598	0.5321
607	0.7342
616	0.785
625	0.7745
634	0.481
643	0.7611
652	0.5855
661	0.7755
670	0.7965
679	0.7778
688	0.7825
697	0.4664
706	0.4285
715	0.5424
724	0.7268
733	0.7371
742	0.4971
751	0.3122
760	0.7461
769	0.7389
778	0.6133
787	0.4095
796	0.5318
805	0.2162
814	0.2046
823	0.2744
832	0.1618
841	0.5483
850	0.566
859	0.6544
868	0.7019
877	0.749
886	0.7608
895	0.6537
904	0.7683
913	0.826
922	0.8278
931	0.8184
940	0.7794
949	0.8314
958	0.816
967	0.8356
976	0.8434
985	0.8349
994	0.8211
1003	0.7499
1012	0.6674
1021	0.6764
1030	0.4332
1039	0.0444
1048	0.4876
1057	0.7344
1066	0.7951
1075	0.8135
1084	0.8182
1093	0.8451
1102	0.8393
1111	0.7856
1120	0.6732
1129	0.8142
1138	0.7904
1147	0.5654
1156	0.648
1165	0.6426
1174	0.1987
1183	0.21
1192	0.6337
1201	0.6388
1210	0.5276
1219	0.6062
1228	0.5904
1237	0.4556
1246	0.0794
1255	0.0233
1264	0.2748
1273	0.5945
1282	0.5737
1291	0.4387
1300	0.2445
1309	0.3743
1318	0.6118
1327	0.7514
1336	0.7647
1345	0.7975
1354	0.8125
1363	0.8065
1372	0.7951
1381	0.78
1390	0.7604
1399	0.6687
1408	0.5583
1417	0.3389
1426	0.264
1435	0.1372
1444	0.0088
1453	0.0001
1462	0.0001
1471	0.0001
1480	0.0001
1489	0.0001
1498	0.0001
1507	0.0001
1516	0.0001
1525	0.0001
1534	0.0001
1543	0.0001
1552	0.0001
1561	0.0001
1570	0.0038
1579	0.0243
1588	0.074
1597	0.1795
1606	0.1004
1615	0.0895
1624	0.4865
1633	0.6799
1642	0.7772
1651	0.8141
1660	0.8288
1669	0.8667
1678	0.8868
1687	0.8947
1696	0.8984
1705	0.8977
1714	0.8897
1723	0.8923
1732	0.8947
1741	0.8906
1750	0.89
1759	0.881
1768	0.8585
1777	0.8878
1786	0.904
1795	0.9032
1804	0.8815
1813	0.9038
1822	0.9046
1831	0.9036
1840	0.9067
1849	0.9095
1858	0.9048
1867	0.8974
1876	0.8923
1885	0.8798
1894	0.8542
1903	0.8561
1912	0.883
1921	0.9023
1930	0.9175
1939	0.912
1948	0.886
1957	0.905
1966	0.8949
1975	0.9085
1984	0.9159
1993	0.92
2002	0.9201
2011	0.9102
2020	0.9041
2029	0.8927
2038	0.8739
2047	0.8559
2056	0.8632
2065	0.8578
2074	0.8287
2083	0.8343
2092	0.8386
2101	0.7988
2110	0.7282
2119	0.6301
2128	0.5059
2137	0.26
2146	0.0425
2155	0.0093
2164	0.0063
2173	0.0292
2182	0.0639
2191	0.1991
2200	0.391
2209	0.583
2218	0.7226
2227	0.7841
2236	0.8168
2245	0.8315
2254	0.8348
2263	0.8283
2272	0.8041
2281	0.7221
2290	0.6561
2299	0.4071
2308	0.2919
2317	0.455
2326	0.6181
2335	0.7381
2344	0.7922
2353	0.8293
2362	0.8466
2371	0.8578
2380	0.8651
2389	0.8703
2398	0.871
2407	0.8711
2416	0.8706
2425	0.8671
2434	0.8625
2443	0.8654
2452	0.8717
2461	0.8712
2470	0.8691
2479	0.8656
2488	0.862
2497	0.8589
2506	0.8593
2515	0.8634
2524	0.8682
2533	0.8653
2542	0.8559
2551	0.8423
2560	0.8343
2569	0.8457
2578	0.863
2587	0.8614
2596	0.8607
2605	0.8668
2614	0.8674
2623	0.8664
2632	0.8653
2641	0.8647
2650	0.8692
2659	0.8724
2668	0.8714
2677	0.8699
2686	0.8686
2695	0.8674
2704	0.8663
2713	0.8639
2722	0.8606
2731	0.8571
2740	0.8535
2749	0.8493
2758	0.8451
2767	0.8377
2776	0.8292
2785	0.8165
2794	0.7964
2803	0.7736
2812	0.7788
2821	0.7832
2830	0.6853
2839	0.3555
2848	0.7204
2857	0.8118
2866	0.8207
2875	0.8115
2884	0.7932
2893	0.7105
2902	0.5831
2911	0.6047
2920	0.6815
2929	0.5857
2938	0.5122
2947	0.5318
2956	0.4101
2965	0.5752
2974	0.7368
2983	0.755
2992	0.7147
3001	0.5493
3010	0.611
3019	0.7168
3028	0.7084
3037	0.675
3046	0.6999
3055	0.699
3064	0.6159
3073	0.6665
3082	0.7398
3091	0.7511
3100	0.7817
3109	0.8131
3118	0.8347
3127	0.8384
3136	0.8486
3145	0.8508
3154	0.8517
3163	0.8518
3172	0.8605
3181	0.8631
3190	0.8632
3199	0.8641
3208	0.8655
3217	0.8663
3226	0.8666
3235	0.8675
3244	0.8687
3253	0.8699
3262	0.8708
3271	0.8717
3280	0.8725
3289	0.8727
3298	0.8728
3307	0.8728
3316	0.8728
3325	0.8727
3334	0.8725
3343	0.8724
3352	0.8721
3361	0.8718
3370	0.8714
3379	0.871
3388	0.8706
3397	0.8702
3406	0.8699
3415	0.8696
3424	0.8694
3433	0.8691
3442	0.8689
3451	0.8689
3460	0.8689
3469	0.8689
3478	0.8689
3487	0.8689
3496	0.869
3505	0.8691
3514	0.8692
3523	0.8693
3532	0.8692
3541	0.8691
3550	0.869
3559	0.8683
3568	0.867
3577	0.8628
3586	0.8567
3595	0.8556
3604	0.8658
3613	0.8751
3622	0.8777
3631	0.8781
3640	0.8771
3649	0.876
3658	0.8753
3667	0.8755
3676	0.8756
3685	0.8756
3694	0.8767
3703	0.8796
3712	0.8814
3721	0.8828
3730	0.8825
3739	0.8818
3748	0.8818
3757	0.8818
3766	0.8818
3775	0.8821
3784	0.883
