Infrared Spectrum: 2-PROPANONE, 1,1,1-TRIFLUORO
Formula: C3 H3 F3 O
CAS: 421-50-1
State: GAS (100 mmHg, N2 ADDED, TOTAL PRESSURE 600 mmHg)
Class: COBLENTZ
Instrument: DOW KBr FOREPRISM-GRATING
Instrument parameters: GRATING CHANGED AT 5.0, 7.5, 15.0 MICRON
Sampling: TRANSMISSION
Path length: 5 CM
Resolution: 2
Origin: DOW CHEMICAL COMPANY
1/CM	TRANSMITTANCE
472.813	0.92
481.251	0.901
489.688	0.861
498.126	0.802
506.563	0.7669
515.001	0.808
523.438	0.873
531.876	0.87
540.313	0.854
548.751	0.763
557.188	0.367
565.626	0.1704
574.063	0.306
582.501	0.6389
590.938	0.767
599.376	0.6092
607.813	0.175
616.251	0.1
624.688	0.139
633.126	0.591
641.563	0.89
650.001	0.933
658.438	0.952
666.876	0.968
675.313	0.976
683.751	0.978
692.188	0.978
700.626	0.97
709.063	0.965
717.501	0.956
725.939	0.941
734.376	0.938
742.814	0.944
751.251	0.94
759.689	0.896
768.126	0.867
776.564	0.88
785.001	0.949
793.439	0.966
801.876	0.973
810.314	0.975
818.751	0.975
827.189	0.966
835.626	0.956
844.064	0.957
852.501	0.96
860.939	0.966
869.376	0.97
877.814	0.97
886.251	0.968
894.689	0.965
903.126	0.957
911.564	0.947
920.001	0.937
928.439	0.918
936.876	0.877
945.314	0.779
953.752	0.427
962.189	0.172
970.627	0.135
979.064	0.197
987.502	0.45
995.939	0.527
1004.38	0.485
1012.81	0.295
1021.25	0.183
1029.69	0.183
1038.13	0.26
1046.56	0.514
1055	0.694
1063.44	0.739
1071.88	0.723
1080.31	0.659
1088.75	0.5141
1097.19	0.1001
1105.63	0.007
1114.06	0.007
1122.5	0.007
1130.94	0.018
1139.38	0.047
1147.81	0.008
1156.25	0.008
1164.69	0.007
1173.13	0.007
1181.56	0.008
1190	0.013
1198.44	0.011
1206.88	0.008
1215.31	0.008
1223.75	0.008
1232.19	0.008
1240.63	0.011
1249.06	0.046
1257.5	0.388
1265.94	0.584
1274.38	0.726
1282.81	0.776
1291.25	0.757
1299.69	0.563
1308.13	0.2029
1316.56	0.075
1325	0.03
1333.44	0.021
1341.88	0.049
1350.31	0.129
1358.75	0.334
1367.19	0.383
1375.63	0.334
1384.06	0.332
1392.5	0.427
1400.94	0.511
1409.38	0.498
1417.81	0.377
1426.25	0.226
1434.69	0.186
1443.13	0.273
1451.57	0.436
1460	0.5661
1468.44	0.645
1476.88	0.726
1485.32	0.781
1493.75	0.828
1502.19	0.838
1510.63	0.828
1519.07	0.806
1527.5	0.802
1535.94	0.797
1544.38	0.796
1552.82	0.818
1561.25	0.795
1569.69	0.841
1578.13	0.828
1586.57	0.861
1595	0.885
1603.44	0.912
1611.88	0.92
1620.32	0.911
1628.75	0.936
1637.19	0.901
1645.63	0.921
1654.07	0.8689
1662.5	0.914
1670.94	0.893
1679.38	0.911
1687.82	0.914
1696.25	0.906
1704.69	0.902
1713.13	0.867
1721.57	0.811
1730	0.6839
1738.44	0.4909
1746.88	0.39
1755.32	0.238
1763.75	0.034
1772.19	0.002
1780.63	0
1789.07	0.004
1797.5	0.0632
1805.94	0.4271
1814.38	0.6451
1822.82	0.783
1831.25	0.86
1839.69	0.902
1848.13	0.917
1856.57	0.937
1865	0.936
1873.44	0.94
1881.88	0.94
1890.32	0.941
1898.75	0.941
1907.19	0.924
1915.63	0.895
1924.07	0.869
1932.5	0.87
1940.94	0.892
1949.38	0.909
1957.82	0.924
1966.25	0.924
1974.69	0.912
1983.13	0.899
1991.57	0.902
2000	0.92
2008.44	0.9365
2016.88	0.949
2025.32	0.958
2033.75	0.965
2042.19	0.963
2050.63	0.962
2059.07	0.9611
2067.5	0.956
2075.94	0.9456
2084.38	0.941
2092.82	0.941
2101.25	0.944
2109.69	0.952
2118.13	0.9569
2126.57	0.957
2135	0.9541
2143.44	0.953
2151.88	0.954
2160.32	0.962
2168.75	0.966
2177.19	0.9626
2185.63	0.96
2194.07	0.963
2202.5	0.9659
2210.94	0.966
2219.38	0.966
2227.82	0.9656
2236.25	0.9632
2244.69	0.962
2253.13	0.9591
2261.57	0.9459
2270	0.9305
2278.44	0.9257
2286.88	0.9309
2295.32	0.933
2303.75	0.9249
2312.19	0.9163
2320.63	0.9093
2329.07	0.906
2337.5	0.906
2345.94	0.909
2354.38	0.9167
2362.82	0.9154
2371.25	0.8961
2379.69	0.8797
2388.13	0.8666
2396.57	0.8861
2405	0.9066
2413.44	0.9403
2421.88	0.944
2430.32	0.944
2438.75	0.946
2447.19	0.947
2455.63	0.95
2464.07	0.9484
2472.5	0.9379
2480.94	0.9272
2489.38	0.922
2497.82	0.9328
2506.25	0.9528
2514.69	0.9563
2523.13	0.956
2531.57	0.9425
2540	0.9363
2548.44	0.931
2556.88	0.9337
2565.32	0.9499
2573.75	0.9619
2582.19	0.9692
2590.63	0.9714
2599.07	0.975
2607.5	0.9774
2615.94	0.978
2624.38	0.978
2632.82	0.978
2641.26	0.976
2649.69	0.976
2658.13	0.976
2666.57	0.976
2675.01	0.976
2683.44	0.976
2691.88	0.975
2700.32	0.9733
2708.76	0.975
2717.19	0.9698
2725.63	0.9587
2734.07	0.9452
2742.51	0.9353
2750.94	0.9474
2759.38	0.9628
2767.82	0.975
2776.26	0.975
2784.69	0.972
2793.13	0.97
2801.57	0.97
2810.01	0.972
2818.44	0.969
2826.88	0.968
2835.32	0.965
2843.76	0.963
2852.19	0.9585
2860.63	0.949
2869.07	0.954
2877.51	0.954
2885.94	0.9499
2894.38	0.9464
2902.82	0.9429
2911.26	0.936
2919.69	0.9237
2928.13	0.904
2936.57	0.899
2945.01	0.8889
2953.44	0.893
2961.88	0.8925
2970.32	0.8849
2978.76	0.8627
2987.19	0.8632
2995.63	0.8925
3004.07	0.893
3012.51	0.8717
3020.94	0.7969
3029.38	0.7815
3037.82	0.812
3046.26	0.8925
3054.69	0.933
3063.13	0.938
3071.57	0.936
3080.01	0.9261
3088.44	0.912
3096.88	0.909
3105.32	0.9139
3113.76	0.9259
3122.19	0.9429
3130.63	0.9549
3139.07	0.957
3147.51	0.956
3155.94	0.957
3164.38	0.9655
3172.82	0.9719
3181.26	0.9754
3189.69	0.978
3198.13	0.976
3206.57	0.976
3215.01	0.976
3223.44	0.978
3231.88	0.979
3240.32	0.979
3248.76	0.979
3257.19	0.981
3265.63	0.982
3274.07	0.982
3282.51	0.984
3290.94	0.984
3299.38	0.985
3307.82	0.985
3316.26	0.985
3324.69	0.985
3333.13	0.985
3341.57	0.985
3350.01	0.986
3358.44	0.988
3366.88	0.988
3375.32	0.988
3383.76	0.988
3392.19	0.988
3400.63	0.988
3409.07	0.989
3417.51	0.988
3425.94	0.985
3434.38	0.9834
3442.82	0.982
3451.26	0.982
3459.69	0.981
3468.13	0.981
3476.57	0.979
3485.01	0.9774
3493.44	0.9692
3501.88	0.9611
3510.32	0.94
3518.76	0.8938
3527.19	0.7935
3535.63	0.7409
3544.07	0.7635
3552.51	0.8907
3560.94	0.9658
3569.38	0.979
3577.82	0.981
3586.26	0.979
3594.69	0.979
3603.13	0.978
3611.57	0.978
3620.01	0.978
3628.44	0.9766
3636.88	0.9667
3645.32	0.9781
3653.76	0.9805
3662.19	0.9697
3670.63	0.9799
3679.07	0.9771
3687.51	0.984
3695.94	0.9787
3704.38	0.986
3712.82	0.981
3721.26	0.9758
3729.69	0.9585
3738.13	0.9667
3746.57	0.988
3755.01	0.986
3763.44	0.9887
3771.88	0.992
3780.32	0.9808
3788.76	0.9735
3797.19	0.9873
