Infrared Spectrum: 2-Amino-3-nitropyridine
Formula: C5 H5 N3 O2
CAS: 4214-75-9
State: SOLID (SPLIT MULL)
Class: COBLENTZ III
Instrument: DOW KBr FOREPRISM-GRATING
Instrument parameters: BLAZED AT 3.5, 12.0, 20.0 MICRON AND CHANGED AT 5.0, 7.5, 14.9 MICRON
Sampling: TRANSMISSION
Resolution: 2
Origin: DOW CHEMICAL COMPANY
1/CM	TRANSMITTANCE
383	0.6118
392	0.614
401	0.6101
410	0.5801
419	0.6965
428	0.7942
437	0.9041
446	0.9127
455	0.9163
464	0.9061
473	0.8865
482	0.8849
491	0.8668
500	0.8497
509	0.8121
518	0.7636
527	0.6736
536	0.5199
545	0.4369
554	0.438
563	0.5674
572	0.7381
581	0.7948
590	0.8941
599	0.9349
608	0.9596
617	0.9743
626	0.9827
635	0.9811
644	0.9727
653	0.9698
662	0.9335
671	0.8837
680	0.9732
689	0.9732
698	0.9531
707	0.9086
716	0.7711
725	0.8901
734	0.9517
743	0.9098
752	0.7315
761	0.3514
770	0.7148
779	0.875
788	0.9425
797	0.8162
806	0.7117
815	0.7783
824	0.7114
833	0.956
842	0.9636
851	0.9733
860	0.9789
869	0.9761
878	0.9636
887	0.9334
896	0.7783
905	0.9728
914	0.9578
923	0.9428
932	0.9278
941	0.9128
950	0.8978
959	0.8804
968	0.8314
977	0.8508
986	0.8486
995	0.7833
1004	0.8058
1013	0.7888
1022	0.734
1031	0.6646
1040	0.5524
1049	0.4817
1058	0.5107
1067	0.4559
1076	0.4122
1085	0.6081
1094	0.6091
1103	0.6512
1112	0.7045
1121	0.7022
1130	0.6482
1139	0.5937
1148	0.5305
1157	0.5903
1166	0.5326
1175	0.3904
1184	0.4037
1193	0.3824
1202	0.2661
1211	0.0992
1220	0.0591
1229	0.0328
1238	0.0179
1247	0.0664
1256	0.2426
1265	0.4751
1274	0.6515
1283	0.6371
1292	0.637
1301	0.66
1310	0.6424
1319	0.5569
1328	0.3034
1337	0.1315
1346	0.385
1355	0.3112
1364	0.8549
1373	0.8124
1382	0.7244
1391	0.6635
1400	0.6121
1409	0.5694
1418	0.5082
1427	0.353
1436	0.1103
1445	0.4049
1454	0.5276
1463	0.4144
1472	0.4964
1481	0.5031
1490	0.5024
1499	0.393
1508	0.2455
1517	0.211
1526	0.5909
1535	0.5289
1544	0.4235
1553	0.2704
1562	0.0979
1571	0.1121
1580	0.6049
1589	0.5457
1598	0.64
1607	0.5902
1616	0.4389
1625	0.2709
1634	0.0963
1643	0.0785
1652	0.3879
1661	0.6714
1670	0.7972
1679	0.9114
1688	0.9409
1697	0.9538
1706	0.9335
1715	0.9047
1724	0.9035
1733	0.8971
1742	0.8878
1751	0.8854
1760	0.863
1769	0.8482
1778	0.8433
1787	0.835
1796	0.8274
1805	0.826
1814	0.8119
1823	0.7997
1832	0.7954
1841	0.789
1850	0.7826
1859	0.7721
1868	0.7574
1877	0.7492
1886	0.7501
1895	0.7428
1904	0.7276
1913	0.7165
1922	0.713
1931	0.6875
1940	0.6726
1949	0.6769
1958	0.6861
1967	0.6915
1976	0.6818
1985	0.6691
1994	0.6601
2003	0.6565
2012	0.6558
2021	0.6539
2030	0.6465
2039	0.6391
2048	0.6324
2057	0.6267
2066	0.6225
2075	0.6188
2084	0.6156
2093	0.613
2102	0.6089
2111	0.6015
2120	0.5929
2129	0.5853
2138	0.5782
2147	0.5725
2156	0.5682
2165	0.5606
2174	0.5539
2183	0.5488
2192	0.5458
2201	0.5431
2210	0.5385
2219	0.5322
2228	0.5248
2237	0.5194
2246	0.5153
2255	0.5135
2264	0.5136
2273	0.5126
2282	0.5066
2291	0.496
2300	0.4864
2309	0.4771
2318	0.4702
2327	0.4671
2336	0.466
2345	0.4657
2354	0.466
2363	0.4662
2372	0.4664
2381	0.4641
2390	0.4606
2399	0.4575
2408	0.4552
2417	0.4535
2426	0.4521
2435	0.4505
2444	0.4484
2453	0.4462
2462	0.4443
2471	0.4419
2480	0.4396
2489	0.436
2498	0.4322
2507	0.4281
2516	0.424
2525	0.4191
2534	0.414
2543	0.4089
2552	0.4032
2561	0.3973
2570	0.3928
2579	0.3892
2588	0.3875
2597	0.3864
2606	0.3834
2615	0.3824
2624	0.3834
2633	0.3836
2642	0.3829
2651	0.3798
2660	0.3725
2669	0.3656
2678	0.3629
2687	0.3607
2696	0.3584
2705	0.3559
2714	0.3536
2723	0.3512
2732	0.3489
2741	0.3462
2750	0.3434
2759	0.3405
2768	0.3375
2777	0.3343
2786	0.331
2795	0.3252
2804	0.3183
2813	0.3091
2822	0.2984
2831	0.2882
2840	0.2793
2849	0.2706
2858	0.2629
2867	0.2553
2876	0.2487
2885	0.2428
2894	0.2377
2903	0.2346
2912	0.2323
2921	0.2309
2930	0.2269
2939	0.2206
2948	0.2137
2957	0.2068
2966	0.2006
2975	0.1944
2984	0.1885
2993	0.1827
3002	0.1771
3011	0.1717
3020	0.1663
3029	0.162
3038	0.1599
3047	0.161
3056	0.1581
3065	0.1469
3074	0.1346
3083	0.1208
3092	0.1125
3101	0.1227
3110	0.1251
3119	0.1281
3128	0.1425
3137	0.1604
3146	0.1782
3155	0.1968
3164	0.2171
3173	0.2462
3182	0.2708
3191	0.2739
3200	0.2677
3209	0.2553
3218	0.2411
3227	0.2375
3236	0.253
3245	0.2681
3254	0.2478
3263	0.2131
3272	0.2043
3281	0.2393
3290	0.3073
3299	0.3757
3308	0.3968
3317	0.3968
3326	0.3952
3335	0.3914
3344	0.3866
3353	0.3798
3362	0.3718
3371	0.3628
3380	0.354
3389	0.345
3398	0.3334
3407	0.3199
3416	0.3033
3425	0.2825
3434	0.2564
3443	0.2211
3452	0.1763
3461	0.1077
3470	0.36
3479	0.4472
3488	0.4268
3497	0.4038
3506	0.3858
3515	0.3759
3524	0.3702
3533	0.3659
3542	0.3621
3551	0.3578
3560	0.3532
3569	0.349
3578	0.345
3587	0.3412
3596	0.3378
3605	0.3344
3614	0.331
3623	0.3278
3632	0.3246
3641	0.3216
3650	0.3185
3659	0.3161
3668	0.3139
3677	0.3116
3686	0.3095
3695	0.3073
3704	0.3051
3713	0.3024
3722	0.2998
3731	0.2973
3740	0.2953
3749	0.2933
3758	0.2926
3767	0.2917
3776	0.2898
3785	0.2871
3794	0.285
