Infrared Spectrum: Polyethylene glycol (600) monolaurate
Formula: C14 H28 O3
CAS: 4219-48-1
State: LIQUID (NEAT)
Class: COBLENTZ
Instrument: DOW KBr FOREPRISM-GRATING
Instrument parameters: BLAZED AT 3.5, 12.0, 20.0 MICRON AND CHANGED AT 5.0, 7.5, 14.9 MICRON
Sampling: TRANSMISSION
Path length: CAPILLARY
Resolution: 2
Origin: DOW CHEMICAL COMPANY
1/CM	TRANSMITTANCE
3796	0.8903
3787	0.8909
3778	0.8916
3769	0.8921
3760	0.8923
3751	0.892
3742	0.8917
3733	0.8915
3724	0.8915
3715	0.8914
3706	0.8913
3697	0.891
3688	0.8907
3679	0.8902
3670	0.8893
3661	0.8868
3652	0.8845
3643	0.8782
3634	0.8718
3625	0.8637
3616	0.8548
3607	0.8421
3598	0.8296
3589	0.8131
3580	0.7965
3571	0.7795
3562	0.7619
3553	0.7446
3544	0.7295
3535	0.7134
3526	0.6958
3517	0.6796
3508	0.6642
3499	0.6507
3490	0.6376
3481	0.6259
3472	0.6159
3463	0.6067
3454	0.5995
3445	0.5923
3436	0.5872
3427	0.5822
3418	0.5773
3409	0.5734
3400	0.5698
3391	0.566
3382	0.5628
3373	0.5595
3364	0.5562
3355	0.5554
3346	0.556
3337	0.5582
3328	0.5616
3319	0.567
3310	0.5724
3301	0.5793
3292	0.5862
3283	0.5957
3274	0.6051
3265	0.6193
3256	0.6337
3247	0.6494
3238	0.665
3229	0.6799
3220	0.6947
3211	0.7061
3202	0.7176
3193	0.7292
3184	0.7405
3175	0.7517
3166	0.7631
3157	0.7744
3148	0.7835
3139	0.7918
3130	0.7978
3121	0.8033
3112	0.8086
3103	0.8114
3094	0.8141
3085	0.8165
3076	0.8188
3067	0.82
3058	0.8205
3049	0.8191
3040	0.8165
3031	0.8134
3022	0.8083
3013	0.8008
3004	0.7882
2995	0.7635
2986	0.7108
2977	0.6223
2968	0.4494
2959	0.2806
2950	0.1868
2941	0.1469
2932	0.0972
2923	0.0821
2914	0.0999
2905	0.1255
2896	0.1464
2887	0.1542
2878	0.1471
2869	0.133
2860	0.1237
2851	0.1415
2842	0.3113
2833	0.4034
2824	0.5041
2815	0.5436
2806	0.575
2797	0.6152
2788	0.6485
2779	0.6769
2770	0.7071
2761	0.7293
2752	0.7485
2743	0.7565
2734	0.7604
2725	0.7646
2716	0.7711
2707	0.7812
2698	0.7941
2689	0.8085
2680	0.8216
2671	0.8335
2662	0.8438
2653	0.8509
2644	0.8575
2635	0.8628
2626	0.8647
2617	0.8665
2608	0.8688
2599	0.8712
2590	0.8736
2581	0.8765
2572	0.8798
2563	0.8828
2554	0.8856
2545	0.8883
2536	0.8899
2527	0.8915
2518	0.8932
2509	0.8948
2500	0.8966
2491	0.8983
2482	0.9001
2473	0.9021
2464	0.9041
2455	0.9061
2446	0.9078
2437	0.9089
2428	0.91
2419	0.9111
2410	0.9121
2401	0.9133
2392	0.9144
2383	0.9155
2374	0.9167
2365	0.9178
2356	0.9192
2347	0.9197
2338	0.9202
2329	0.9201
2320	0.9195
2311	0.9148
2302	0.9137
2293	0.9127
2284	0.9131
2275	0.9136
2266	0.9141
2257	0.9146
2248	0.9152
2239	0.9157
2230	0.9161
2221	0.9164
2212	0.9166
2203	0.9168
2194	0.9174
2185	0.9193
2176	0.9268
2167	0.925
2158	0.9227
2149	0.9214
2140	0.9203
2131	0.9204
2122	0.9206
2113	0.9208
2104	0.9211
2095	0.9212
2086	0.9216
2077	0.9221
2068	0.9228
2059	0.9231
2050	0.9225
2041	0.9204
2032	0.9171
2023	0.9171
2014	0.9174
2005	0.9175
1996	0.9181
1987	0.9185
1978	0.9138
1969	0.9078
1960	0.9046
1951	0.8581
1942	0.901
1933	0.903
1924	0.9073
1915	0.9118
1906	0.9162
1897	0.9204
1888	0.9243
1879	0.9273
1870	0.9303
1861	0.9325
1852	0.9344
1843	0.9355
1834	0.9362
1825	0.9353
1816	0.9323
1807	0.9278
1798	0.9234
1789	0.9181
1780	0.9081
1771	0.8857
1762	0.841
1753	0.7658
1744	0.4943
1735	0.2276
1726	0.2933
1717	0.5195
1708	0.6689
1699	0.7935
1690	0.8361
1681	0.862
1672	0.878
1663	0.8775
1654	0.869
1645	0.8595
1636	0.8551
1627	0.86
1618	0.8695
1609	0.8821
1600	0.8918
1591	0.8996
1582	0.9045
1573	0.9062
1564	0.9068
1555	0.9065
1546	0.9054
1537	0.9037
1528	0.8997
1519	0.8941
1510	0.887
1501	0.8793
1492	0.82
1483	0.7365
1474	0.5716
1465	0.4485
1456	0.464
1447	0.5529
1438	0.6273
1429	0.7149
1420	0.7244
1411	0.7278
1402	0.7286
1393	0.686
1384	0.625
1375	0.6073
1366	0.5812
1357	0.4475
1348	0.4424
1339	0.6393
1330	0.6399
1321	0.604
1312	0.5787
1303	0.4801
1294	0.4731
1285	0.4809
1276	0.5094
1267	0.5212
1258	0.4276
1249	0.3843
1240	0.4382
1231	0.517
1222	0.5498
1213	0.551
1204	0.5424
1195	0.4899
1186	0.4331
1177	0.4029
1168	0.3912
1159	0.2967
1150	0.1699
1141	0.1348
1132	0.1115
1123	0.0858
1114	0.0722
1105	0.0702
1096	0.0886
1087	0.1402
1078	0.1979
1069	0.2538
1060	0.3206
1051	0.3874
1042	0.4198
1033	0.4454
1024	0.5219
1015	0.6006
1006	0.6532
997	0.6701
988	0.6771
979	0.7019
970	0.7085
961	0.5956
952	0.4816
943	0.5032
934	0.5505
925	0.5981
916	0.6456
907	0.6932
898	0.7271
889	0.7125
880	0.6941
871	0.699
862	0.6892
853	0.6792
844	0.6736
835	0.6864
826	0.7392
817	0.7712
808	0.7946
799	0.8175
790	0.8378
781	0.8542
772	0.8654
763	0.8696
754	0.8652
745	0.8568
736	0.842
727	0.8161
718	0.8105
709	0.8346
700	0.8428
691	0.8475
682	0.8444
673	0.8213
664	0.8518
655	0.8535
646	0.8488
637	0.8353
628	0.8202
619	0.8035
610	0.791
601	0.7831
592	0.771
583	0.7575
574	0.7521
565	0.7496
556	0.745
547	0.7426
538	0.7399
529	0.7311
520	0.7249
511	0.7281
502	0.7354
493	0.7438
484	0.7494
475	0.7544
466	0.7565
457	0.7586
448	0.7593
439	0.7597
430	0.7601
421	0.7601
412	0.7601
403	0.7601
