Infrared Spectrum: 2-PROPENAMIDE, N-1,1,3,3-TETRAMETHYLBUTYL-
Formula: C11 H21 N O
CAS: 4223-03-4
State: LIQUID (NEAT)
Class: COBLENTZ III
Instrument: PERKIN-ELMER 521 (GRATING)
Instrument parameters: FILTERS AT 3150, 2500, 2000, 1150, 700, 410 AND GRATING CHANGES AT 2000, 630 CM^-^1
Sampling: TRANSMISSION
Path length: FILM FROM ACETONE
Resolution: 4
Origin: STANDARD OIL OF OHIO
1/CM	TRANSMITTANCE
455.074	0.996
464.57	0.994
474.065	0.994
483.561	0.994
493.056	0.994
502.552	0.995
512.048	0.995
521.543	0.995
531.039	0.995
540.534	0.992
550.03	0.983
559.525	0.963
569.021	0.946
578.517	0.92
588.012	0.847
597.508	0.923
607.003	0.92
616.499	0.912
625.995	0.902
635.49	0.89
644.986	0.845
654.481	0.8
663.977	0.7
673.472	0.76
682.968	0.678
692.464	0.741
701.959	0.826
711.455	0.864
720.95	0.874
730.446	0.879
739.942	0.866
749.437	0.883
758.933	0.881
768.428	0.877
777.924	0.873
787.419	0.85
796.915	0.811
806.411	0.7671
815.906	0.886
825.402	0.886
834.897	0.884
844.393	0.879
853.889	0.867
863.384	0.874
872.88	0.874
882.375	0.863
891.871	0.857
901.366	0.834
910.862	0.731
920.358	0.793
929.853	0.826
939.349	0.772
948.844	0.5781
958.34	0.722
967.836	0.825
977.331	0.6869
986.827	0.802
996.322	0.852
1005.82	0.846
1015.31	0.852
1024.81	0.844
1034.3	0.832
1043.8	0.834
1053.3	0.778
1062.79	0.706
1072.29	0.84
1081.78	0.846
1091.28	0.841
1100.77	0.839
1110.27	0.835
1119.76	0.824
1129.26	0.792
1138.76	0.82
1148.25	0.795
1157.75	0.802
1167.24	0.809
1176.74	0.799
1186.23	0.781
1195.73	0.747
1205.23	0.694
1214.72	0.597
1224.22	0.412
1233.71	0.58
1243.21	0.504
1252.7	0.3899
1262.2	0.65
1271.69	0.743
1281.19	0.756
1290.69	0.752
1300.18	0.703
1309.68	0.502
1319.17	0.567
1328.67	0.671
1338.16	0.65
1347.66	0.624
1357.15	0.4689
1366.65	0.557
1376.15	0.662
1385.64	0.463
1395.14	0.543
1404.63	0.426
1414.13	0.677
1423.62	0.63
1433.12	0.544
1442.61	0.553
1452.11	0.531
1461.61	0.513
1471.1	0.514
1480.6	0.475
1490.09	0.609
1499.59	0.661
1509.08	0.637
1518.58	0.583
1528.07	0.4779
1537.57	0.1679
1547.07	0.101
1556.56	0.355
1566.06	0.5341
1575.55	0.636
1585.05	0.678
1594.54	0.664
1604.04	0.533
1613.54	0.471
1623.03	0.354
1632.53	0.4451
1642.02	0.559
1651.52	0.315
1661.01	0.304
1670.51	0.347
1680	0.7541
1689.5	0.84
1699	0.87
1708.49	0.872
1717.99	0.883
1727.48	0.885
1736.98	0.887
1746.47	0.887
1755.97	0.891
1765.46	0.892
1774.96	0.892
1784.46	0.899
1793.95	0.9
1803.45	0.9
1812.94	0.902
1822.44	0.902
1831.93	0.902
1841.43	0.902
1850.92	0.902
1860.42	0.902
1869.92	0.9
1879.41	0.898
1888.91	0.887
1898.4	0.868
1907.9	0.883
1917.39	0.893
1926.89	0.904
1936.39	0.906
1945.88	0.911
1955.38	0.912
1964.87	0.913
1974.37	0.914
1983.86	0.916
1993.36	0.914
2002.85	0.929
2012.35	0.929
2021.85	0.929
2031.34	0.929
2040.84	0.929
2050.33	0.929
2059.83	0.929
2069.32	0.929
2078.82	0.93
2088.31	0.93
2097.81	0.929
2107.31	0.93
2116.8	0.932
2126.3	0.932
2135.79	0.932
2145.29	0.933
2154.78	0.9342
2164.28	0.935
2173.77	0.935
2183.27	0.936
2192.77	0.936
2202.26	0.936
2211.76	0.936
2221.25	0.936
2230.75	0.936
2240.24	0.936
2249.74	0.9367
2259.23	0.9363
2268.73	0.936
2278.23	0.936
2287.72	0.937
2297.22	0.937
2306.71	0.937
2316.21	0.938
2325.7	0.9372
2335.2	0.9362
2344.7	0.936
2354.19	0.936
2363.69	0.936
2373.18	0.936
2382.68	0.935
2392.17	0.936
2401.67	0.936
2411.16	0.936
2420.66	0.936
2430.16	0.936
2439.65	0.935
2449.15	0.935
2458.64	0.935
2468.14	0.9359
2477.63	0.9351
2487.13	0.933
2496.62	0.939
2506.12	0.938
2515.62	0.938
2525.11	0.938
2534.61	0.9371
2544.1	0.937
2553.6	0.936
2563.09	0.936
2572.59	0.9361
2582.08	0.9369
2591.58	0.937
2601.08	0.937
2610.57	0.937
2620.07	0.936
2629.56	0.936
2639.06	0.936
2648.55	0.933
2658.05	0.93
2667.55	0.927
2677.04	0.924
2686.54	0.923
2696.03	0.919
2705.53	0.918
2715.02	0.9201
2724.52	0.922
2734.01	0.9189
2743.51	0.911
2753.01	0.9028
2762.5	0.884
2772	0.886
2781.49	0.887
2790.99	0.8859
2800.48	0.8789
2809.98	0.8779
2819.47	0.8696
2828.97	0.8451
2838.47	0.808
2847.96	0.7669
2857.46	0.6011
2866.95	0.5335
2876.45	0.551
2885.94	0.5147
2895.44	0.4641
2904.93	0.4694
2914.43	0.4988
2923.93	0.4723
2933.42	0.3931
2942.92	0.2986
2952.41	0.2311
2961.91	0.2842
2971.4	0.3263
2980.9	0.4546
2990.39	0.5809
2999.89	0.6564
3009.39	0.7836
3018.88	0.8133
3028.38	0.8419
3037.87	0.8414
3047.37	0.8095
3056.86	0.7337
3066.36	0.6541
3075.86	0.6656
3085.35	0.7441
3094.85	0.7907
3104.34	0.8498
3113.84	0.8744
3123.33	0.881
3132.83	0.8836
3142.32	0.8646
3151.82	0.8516
3161.32	0.8274
3170.81	0.822
3180.31	0.8324
3189.8	0.8282
3199.3	0.808
3208.79	0.7893
3218.29	0.7691
3227.78	0.7463
3237.28	0.7124
3246.78	0.6599
3256.27	0.592
3265.77	0.5092
3275.26	0.4506
3284.76	0.4081
3294.25	0.3835
3303.75	0.3875
3313.24	0.4076
3322.74	0.4573
3332.24	0.5544
3341.73	0.6443
3351.23	0.7443
3360.72	0.817
3370.22	0.866
3379.71	0.8974
3389.21	0.9213
3398.7	0.9341
3408.2	0.9376
3417.7	0.943
3427.19	0.945
3436.69	0.9486
3446.18	0.952
3455.68	0.9562
3465.17	0.9616
3474.67	0.9646
3484.17	0.969
3493.66	0.9706
3503.16	0.971
3512.65	0.9733
3522.15	0.9787
3531.64	0.981
3541.14	0.982
3550.63	0.983
3560.13	0.9897
3569.63	0.991
3579.12	0.991
3588.62	0.992
3598.11	0.994
3607.61	0.995
3617.1	0.995
3626.6	0.995
3636.09	0.995
3645.59	0.995
3655.09	0.995
3664.58	0.9952
3674.08	0.996
3683.57	0.996
3693.07	0.997
3702.56	0.997
3712.06	0.997
3721.55	0.997
3731.05	0.997
3740.55	0.997
3750.04	0.997
3759.54	0.997
3769.03	0.997
3778.53	0.997
3788.02	0.997
3797.52	0.997
3807.02	0.997
3816.51	0.997
3826.01	0.997
3835.5	0.997
3845	0.997
3854.49	0.997
3863.99	0.997
3873.48	0.997
3882.98	0.997
3892.48	0.997
3901.97	0.997
