Infrared Spectrum: 1,3-propanediol, 2-methyl-2-propyl-N-butyldicarbamate
Formula: C13 H26 N2 O4
CAS: 4268-36-4
State: SOLID (OIL MULL)
Class: COBLENTZ III
Instrument: PERKIN-ELMER 21 (GRATING)
Instrument parameters: NaCl PRISM
Sampling: TRANSMISSION
Resolution: 2
Origin: SMITH KLINE & FRENCH LABS.
1/CM	TRANSMITTANCE
665	0.6968
674	0.7065
683	0.7402
692	0.7404
701	0.7314
710	0.762
719	0.7796
728	0.7071
737	0.8016
746	0.8226
755	0.8605
764	0.8662
773	0.8304
782	0.7122
791	0.8767
800	0.9088
809	0.8997
818	0.9211
827	0.9198
836	0.9263
845	0.9255
854	0.928
863	0.9242
872	0.928
881	0.9261
890	0.921
899	0.8821
908	0.9217
917	0.8992
926	0.8761
935	0.8799
944	0.859
953	0.8233
962	0.8716
971	0.8595
980	0.8523
989	0.8198
998	0.8911
1007	0.8842
1016	0.7996
1025	0.8447
1034	0.8784
1043	0.8541
1052	0.8197
1061	0.722
1070	0.4049
1079	0.6717
1088	0.5528
1097	0.5483
1106	0.7604
1115	0.7939
1124	0.7586
1133	0.7172
1142	0.634
1151	0.7553
1160	0.7972
1169	0.8097
1178	0.8072
1187	0.8045
1196	0.8029
1205	0.7879
1214	0.7585
1223	0.7106
1232	0.7064
1241	0.6877
1250	0.5901
1259	0.5377
1268	0.615
1277	0.4514
1286	0.5456
1295	0.5593
1304	0.6332
1313	0.623
1322	0.5959
1331	0.5103
1340	0.3488
1349	0.5533
1358	0.7251
1367	0.6872
1376	0.4614
1385	0.5495
1394	0.7511
1403	0.6606
1412	0.3809
1421	0.5526
1430	0.6887
1439	0.6389
1448	0.5592
1457	0.5146
1466	0.5057
1475	0.5809
1484	0.6687
1493	0.8198
1502	0.8307
1511	0.8029
1520	0.7664
1529	0.6494
1538	0.4435
1547	0.4519
1556	0.6943
1565	0.7297
1574	0.762
1583	0.8173
1592	0.8004
1601	0.7404
1610	0.5497
1619	0.753
1628	0.8223
1637	0.8198
1646	0.8034
1655	0.7122
1664	0.6202
1673	0.4005
1682	0.0437
1691	0.0025
1700	0.1423
1709	0.3036
1718	0.2424
1727	0.4727
1736	0.7145
1745	0.781
1754	0.8538
1763	0.8669
1772	0.8922
1781	0.92
1790	0.9217
1799	0.9223
1808	0.925
1817	0.9303
1826	0.9189
1835	0.9431
1844	0.947
1853	0.9537
1862	0.9532
1871	0.9525
1880	0.952
1889	0.9511
1898	0.9471
1907	0.942
1916	0.9365
1925	0.9375
1934	0.9402
1943	0.9384
1952	0.9375
1961	0.945
1970	0.9462
1979	0.9447
1988	0.9407
1997	0.938
2006	0.9396
2015	0.9415
2024	0.9416
2033	0.9398
2042	0.9443
2051	0.9439
2060	0.9442
2069	0.9475
2078	0.9473
2087	0.9456
2096	0.9512
2105	0.9537
2114	0.9542
2123	0.9542
2132	0.9542
2141	0.9543
2150	0.9561
2159	0.9583
2168	0.9588
2177	0.959
2186	0.9592
2195	0.9594
2204	0.9596
2213	0.9598
2222	0.9594
2231	0.9577
2240	0.9554
2249	0.9576
2258	0.9629
2267	0.9649
2276	0.965
2285	0.9644
2294	0.9638
2303	0.9645
2312	0.9683
2321	0.9723
2330	0.9728
2339	0.9733
2348	0.9758
2357	0.9813
2366	0.977
2375	0.9728
2384	0.9734
2393	0.975
2402	0.9745
2411	0.9713
2420	0.9678
2429	0.9648
2438	0.9622
2447	0.959
2456	0.9568
2465	0.9562
2474	0.9564
2483	0.9571
2492	0.9588
2501	0.9602
2510	0.9557
2519	0.9506
2528	0.9486
2537	0.9465
2546	0.9433
2555	0.9397
2564	0.9425
2573	0.9463
2582	0.9447
2591	0.9394
2600	0.9389
2609	0.9391
2618	0.9392
2627	0.9387
2636	0.9362
2645	0.9308
2654	0.9305
2663	0.9307
2672	0.9308
2681	0.93
2690	0.9275
2699	0.9189
2708	0.9085
2717	0.9021
2726	0.9013
2735	0.9039
2744	0.9072
2753	0.9075
2762	0.9061
2771	0.9004
2780	0.893
2789	0.8603
2798	0.7627
2807	0.6658
2816	0.5695
2825	0.4738
2834	0.3787
2843	0.2842
2852	0.2537
2861	0.2606
2870	0.2669
2879	0.2384
2888	0.1931
2897	0.1482
2906	0.1035
2915	0.0917
2924	0.1712
2933	0.263
2942	0.3543
2951	0.4449
2960	0.535
2969	0.6246
2978	0.7137
2987	0.8022
2996	0.8699
3005	0.8788
3014	0.884
3023	0.8882
3032	0.8944
3041	0.9022
3050	0.9095
3059	0.9121
3068	0.913
3077	0.913
3086	0.9126
3095	0.9116
3104	0.9106
3113	0.9094
3122	0.9077
3131	0.9038
3140	0.8956
3149	0.8743
3158	0.8509
3167	0.8276
3176	0.8044
3185	0.7988
3194	0.8009
3203	0.7879
3212	0.7556
3221	0.7235
3230	0.6915
3239	0.6597
3248	0.637
3257	0.6423
3266	0.6542
3275	0.6503
3284	0.5945
3293	0.5325
3302	0.4708
3311	0.4096
3320	0.3486
3329	0.3154
3338	0.3134
3347	0.3141
3356	0.3516
3365	0.3858
3374	0.3914
3383	0.397
3392	0.4418
3401	0.5041
3410	0.5659
3419	0.6276
3428	0.6888
3437	0.7321
3446	0.7448
3455	0.7763
3464	0.8198
3473	0.8484
3482	0.875
3491	0.8872
3500	0.9246
3509	0.9531
3518	0.9632
3527	0.9707
3536	0.9772
3545	0.9805
3554	0.9818
3563	0.9831
3572	0.9843
3581	0.9851
3590	0.9861
3599	0.9879
3608	0.99
3617	0.9922
3626	0.993
3635	0.9933
3644	0.9934
3653	0.9937
3662	0.994
3671	0.995
3680	0.9962
3689	0.9969
3698	0.9975
3707	0.9973
3716	0.997
3725	0.9967
3734	0.9964
3743	0.9961
3752	0.9958
3761	0.9951
3770	0.9944
3779	0.9937
3788	0.993
3797	0.9925
3806	0.9922
3815	0.9924
3824	0.9934
3833	0.9963
3842	0.9987
3851	1.0001
3860	1.0005
3869	1.0005
3878	1.0004
3887	1.0004
3896	1.0002
3905	0.9998
3914	0.9993
3923	0.9988
3932	0.9983
3941	0.9978
3950	0.9973
3959	0.9968
3968	0.9964
3977	0.9959
3986	0.9954
3995	0.995
