Infrared Spectrum: 4-Chloroquinaldine
Formula: C10 H8 Cl N
CAS: 4295-06-1
State: SOLUTION, ABOUT 10% SALTED (CCl4 FOR 3800-1330, CS2 FOR 1330-450 CM^-^1)
Boiling point: 107 C AT 2 mmHg
Class: COBLENTZ III
Instrument: DOW KBr FOREPRISM-GRATING
Instrument parameters: BLAZED AT 3.5, 12.0, 20.0 MICRON AND CHANGED AT 5.0, 7.5, 14.9 MICRON
Sampling: TRANSMISSION
Path length: 0.012 CM, 0.012 CM
Resolution: 2
Origin: DOW CHEMICAL COMPANY
1/CM	TRANSMITTANCE
3800	0.8713
3791	0.8707
3782	0.87
3773	0.8696
3764	0.8701
3755	0.8715
3746	0.8725
3737	0.8734
3728	0.8733
3719	0.8728
3710	0.8715
3701	0.8697
3692	0.8678
3683	0.8655
3674	0.8639
3665	0.8525
3656	0.856
3647	0.8678
3638	0.8694
3629	0.8698
3620	0.8702
3611	0.8705
3602	0.8709
3593	0.8712
3584	0.8716
3575	0.8717
3566	0.8718
3557	0.8721
3548	0.8723
3539	0.8721
3530	0.8721
3521	0.8721
3512	0.872
3503	0.872
3494	0.872
3485	0.872
3476	0.872
3467	0.8716
3458	0.8706
3449	0.8697
3440	0.8682
3431	0.8667
3422	0.8639
3413	0.8611
3404	0.8604
3395	0.8597
3386	0.8594
3377	0.8593
3368	0.8593
3359	0.8602
3350	0.8611
3341	0.8623
3332	0.8635
3323	0.8648
3314	0.8656
3305	0.8664
3296	0.8671
3287	0.8678
3278	0.8685
3269	0.869
3260	0.8701
3251	0.8712
3242	0.8725
3233	0.8737
3224	0.8747
3215	0.8746
3206	0.8741
3197	0.8731
3188	0.8718
3179	0.8706
3170	0.8685
3161	0.8675
3152	0.8691
3143	0.8706
3134	0.8705
3125	0.8697
3116	0.8671
3107	0.8575
3098	0.8502
3089	0.844
3080	0.7953
3071	0.7524
3062	0.6774
3053	0.7278
3044	0.7922
3035	0.8025
3026	0.7914
3017	0.8171
3008	0.8178
2999	0.8033
2990	0.8078
2981	0.8178
2972	0.8215
2963	0.8176
2954	0.7918
2945	0.7858
2936	0.7984
2927	0.795
2918	0.7389
2909	0.7551
2900	0.8061
2891	0.8281
2882	0.844
2873	0.8506
2864	0.8525
2855	0.8492
2846	0.8325
2837	0.8387
2828	0.8517
2819	0.8604
2810	0.867
2801	0.8704
2792	0.8718
2783	0.873
2774	0.8744
2765	0.8756
2756	0.8768
2747	0.8778
2738	0.8788
2729	0.8768
2720	0.8749
2711	0.8734
2702	0.873
2693	0.8742
2684	0.8756
2675	0.8768
2666	0.8778
2657	0.879
2648	0.8798
2639	0.8804
2630	0.8811
2621	0.8817
2612	0.8821
2603	0.8824
2594	0.8823
2585	0.8808
2576	0.8743
2567	0.8762
2558	0.8818
2549	0.8821
2540	0.8825
2531	0.8834
2522	0.8845
2513	0.8859
2504	0.8847
2495	0.8823
2486	0.8837
2477	0.8846
2468	0.8848
2459	0.8848
2450	0.8852
2441	0.8857
2432	0.8862
2423	0.8867
2414	0.8866
2405	0.8865
2396	0.8865
2387	0.8866
2378	0.8866
2369	0.8883
2360	0.8917
2351	0.8965
2342	0.9016
2333	0.9046
2324	0.9051
2315	0.9033
2306	0.893
2297	0.8924
2288	0.8875
2279	0.8873
2270	0.8882
2261	0.889
2252	0.8898
2243	0.8892
2234	0.8865
2225	0.88
2216	0.8798
2207	0.8803
2198	0.88
2189	0.8798
2180	0.88
2171	0.8802
2162	0.8799
2153	0.879
2144	0.878
2135	0.8765
2126	0.8747
2117	0.8737
2108	0.8743
2099	0.8748
2090	0.8753
2081	0.8757
2072	0.8763
2063	0.8771
2054	0.8771
2045	0.8755
2036	0.8754
2027	0.8782
2018	0.8787
2009	0.8755
2000	0.8764
1991	0.8759
1982	0.8735
1973	0.8721
1964	0.8547
1955	0.8325
1946	0.8606
1937	0.8644
1928	0.8397
1919	0.8659
1910	0.856
1901	0.8578
1892	0.8646
1883	0.8694
1874	0.8718
1865	0.8718
1856	0.8698
1847	0.8492
1838	0.8443
1829	0.8671
1820	0.8402
1811	0.8489
1802	0.8701
1793	0.8733
1784	0.8768
1775	0.8765
1766	0.8749
1757	0.8538
1748	0.8592
1739	0.8638
1730	0.8418
1721	0.8324
1712	0.8026
1703	0.8387
1694	0.8625
1685	0.8703
1676	0.8637
1667	0.8631
1658	0.842
1649	0.8424
1640	0.8083
1631	0.7748
1622	0.6918
1613	0.5147
1604	0.6411
1595	0.2233
1586	0.2552
1577	0.5364
1568	0.6778
1559	0.6029
1550	0.3476
1541	0.7303
1532	0.7771
1523	0.7797
1514	0.7293
1505	0.5421
1496	0.3104
1487	0.3412
1478	0.6846
1469	0.7684
1460	0.7278
1451	0.7628
1442	0.7357
1433	0.7024
1424	0.7621
1415	0.7667
1406	0.341
1397	0.3648
1388	0.6762
1379	0.6693
1370	0.6071
1361	0.7617
1352	0.8071
1343	0.8323
1334	0.8395
1325	0.726
1316	0.5857
1307	0.6372
1298	0.7035
1289	0.661
1280	0.7998
1271	0.848
1262	0.8641
1253	0.7915
1244	0.8509
1235	0.8057
1226	0.8287
1217	0.6984
1208	0.8604
1199	0.8725
1190	0.8639
1181	0.8223
1172	0.4867
1163	0.8328
1154	0.8161
1145	0.6238
1136	0.8378
1127	0.8418
1118	0.8193
1109	0.8497
1100	0.8561
1091	0.8644
1082	0.8646
1073	0.8688
1064	0.8589
1055	0.8556
1046	0.8551
1037	0.8145
1028	0.7462
1019	0.7121
1010	0.7748
1001	0.8224
992	0.8431
983	0.8407
974	0.683
965	0.8106
956	0.8293
947	0.7907
938	0.8046
929	0.829
920	0.7051
911	0.2558
902	0.7608
893	0.8396
884	0.8456
875	0.8184
866	0.7201
857	0.1937
848	0.7482
839	0.6127
830	0.3099
821	0.7861
812	0.8597
803	0.8593
794	0.8403
785	0.8401
776	0.7687
767	0.6407
758	0
749	0.513
740	0.6519
731	0.8425
722	0.8603
713	0.8662
704	0.8698
695	0.863
686	0.8511
677	0.8739
668	0.8498
659	0.8456
650	0.8315
641	0.8199
632	0.3222
623	0.8358
614	0.8336
605	0.8441
596	0.8471
587	0.8455
578	0.8392
569	0.7739
560	0.8347
551	0.8378
542	0.8306
533	0.7088
524	0.8295
515	0.8164
506	0.827
497	0.8305
488	0.8087
479	0.8415
470	0.8108
461	0.7796
