Infrared Spectrum: Alpha-NAPHTHOIC-HYDRAZIDE
Formula: C11 H10 N2 O
CAS: 43038-45-5
State: SOLID (0.75% IN KBr PELLET)
Class: COBLENTZ
Instrument: Not specified, most likely a prism, grating, or hybrid spectrometer.
Sampling: TRANSMISSION
Path length: 0.0355 CM THICK
Resolution: 4
Origin: ANDERSON PHYSICAL LABORATORY
1/CM	TRANSMITTANCE
670.306	0.581
678.728	0.4242
687.149	0.256
695.571	0.298
703.993	0.572
712.415	0.697
720.836	0.793
729.258	0.764
737.68	0.722
746.101	0.809
754.523	0.677
762.945	0.3833
771.366	0.1489
779.788	0.2091
788.21	0.3648
796.632	0.086
805.053	0.616
813.475	0.7749
821.897	0.923
830.318	0.937
838.74	0.94
847.162	0.94
855.583	0.926
864.005	0.827
872.427	0.923
880.849	0.91
889.27	0.875
897.692	0.7029
906.114	0.812
914.535	0.806
922.957	0.794
931.379	0.731
939.8	0.637
948.222	0.499
956.644	0.313
965.066	0.313
973.487	0.5739
981.909	0.835
990.331	0.868
998.752	0.874
1007.17	0.857
1015.6	0.7162
1024.02	0.7479
1032.44	0.7181
1040.86	0.3411
1049.28	0.7328
1057.7	0.86
1066.13	0.842
1074.55	0.5991
1082.97	0.812
1091.39	0.871
1099.81	0.871
1108.23	0.862
1116.66	0.847
1125.08	0.7911
1133.5	0.5951
1141.92	0.5709
1150.34	0.781
1158.76	0.8
1167.19	0.629
1175.61	0.733
1184.03	0.811
1192.45	0.814
1200.87	0.808
1209.29	0.763
1217.72	0.736
1226.14	0.754
1234.56	0.812
1242.98	0.794
1251.4	0.725
1259.83	0.574
1268.25	0.6066
1276.67	0.748
1285.09	0.725
1293.51	0.68
1301.93	0.623
1310.36	0.502
1318.78	0.347
1327.2	0.187
1335.62	0.194
1344.04	0.422
1352.46	0.515
1360.89	0.509
1369.31	0.512
1377.73	0.527
1386.15	0.566
1394.57	0.568
1402.99	0.592
1411.42	0.623
1419.84	0.596
1428.26	0.548
1436.68	0.4821
1445.1	0.472
1453.52	0.529
1461.95	0.532
1470.37	0.508
1478.79	0.488
1487.21	0.445
1495.63	0.377
1504.05	0.31
1512.48	0.203
1520.9	0.0861
1529.32	0.04
1537.74	0.1388
1546.16	0.3949
1554.58	0.469
1563.01	0.419
1571.43	0.302
1579.85	0.101
1588.27	0.047
1596.69	0.058
1605.11	0.0221
1613.54	0.026
1621.96	0.1329
1630.38	0.181
1638.8	0.151
1647.22	0.13
1655.64	0.4189
1664.07	0.596
1672.49	0.677
1680.91	0.749
1689.33	0.815
1697.75	0.844
1706.18	0.886
1714.6	0.899
1723.02	0.916
1731.44	0.925
1739.86	0.937
1748.28	0.946
1756.71	0.952
1765.13	0.955
1773.55	0.956
1781.97	0.956
1790.39	0.958
1798.81	0.956
1807.24	0.932
1815.66	0.919
1824.08	0.923
1832.5	0.94
1840.92	0.947
1849.34	0.95
1857.77	0.946
1866.19	0.929
1874.61	0.928
1883.03	0.946
1891.45	0.95
1899.87	0.943
1908.3	0.932
1916.72	0.91
1925.14	0.904
1933.56	0.905
1941.98	0.919
1950.4	0.92
1958.83	0.925
1967.25	0.929
1975.67	0.935
1984.09	0.937
1992.51	0.938
2000.93	0.9347
2009.36	0.933
2017.78	0.932
2026.2	0.931
2034.62	0.9305
2043.04	0.9285
2051.46	0.928
2059.89	0.928
2068.31	0.928
2076.73	0.9269
2085.15	0.9252
2093.57	0.9229
2102	0.9197
2110.42	0.9164
2118.84	0.916
2127.26	0.916
2135.68	0.9153
2144.1	0.913
2152.53	0.9101
2160.95	0.9079
2169.37	0.907
2177.79	0.904
2186.21	0.904
2194.63	0.9037
2203.06	0.902
2211.48	0.8997
2219.9	0.8951
2228.32	0.8928
2236.74	0.8911
2245.16	0.8893
2253.59	0.8861
2262.01	0.8838
2270.43	0.8805
2278.85	0.8773
2287.27	0.874
2295.69	0.872
2304.12	0.871
2312.54	0.8695
2320.96	0.866
2329.38	0.865
2337.8	0.865
2346.22	0.865
2354.65	0.865
2363.07	0.865
2371.49	0.865
2379.91	0.8634
2388.33	0.8629
2396.75	0.859
2405.18	0.8549
2413.6	0.854
2422.02	0.8528
2430.44	0.848
2438.86	0.8458
2447.28	0.8423
2455.71	0.841
2464.13	0.8402
2472.55	0.8384
2480.97	0.838
2489.39	0.8347
2497.81	0.8312
2506.24	0.8293
2514.66	0.8242
2523.08	0.8196
2531.5	0.8161
2539.92	0.8143
2548.35	0.814
2556.77	0.814
2565.19	0.8131
2573.61	0.8113
2582.03	0.8051
2590.45	0.8028
2598.88	0.8005
2607.3	0.7962
2615.72	0.793
2624.14	0.7877
2632.56	0.7845
2640.98	0.7812
2649.41	0.7779
2657.83	0.7757
2666.25	0.7739
2674.67	0.7722
2683.09	0.7699
2691.51	0.7667
2699.94	0.7634
2708.36	0.7602
2716.78	0.7568
2725.2	0.7533
2733.62	0.7484
2742.04	0.7434
2750.47	0.7388
2758.89	0.7329
2767.31	0.7261
2775.73	0.7155
2784.15	0.7031
2792.57	0.6904
2801	0.6787
2809.42	0.6704
2817.84	0.6648
2826.26	0.664
2834.68	0.6684
2843.1	0.6758
2851.53	0.6792
2859.95	0.68
2868.37	0.679
2876.79	0.6731
2885.21	0.6641
2893.63	0.6531
2902.06	0.6415
2910.48	0.629
2918.9	0.6177
2927.32	0.609
2935.74	0.6017
2944.17	0.5959
2952.59	0.5911
2961.01	0.5854
2969.43	0.5782
2977.85	0.5533
2986.27	0.5262
2994.7	0.5003
3003.12	0.4768
3011.54	0.4562
3019.96	0.4379
3028.38	0.427
3036.8	0.4139
3045.23	0.4145
3053.65	0.4434
3062.07	0.4788
3070.49	0.5179
3078.91	0.518
3087.33	0.5176
3095.76	0.5157
3104.18	0.5085
3112.6	0.4852
3121.02	0.4608
3129.44	0.4348
3137.86	0.4097
3146.29	0.3841
3154.71	0.3586
3163.13	0.3314
3171.55	0.3044
3179.97	0.2751
3188.39	0.2448
3196.82	0.2143
3205.24	0.182
3213.66	0.1415
3222.08	0.1044
3230.5	0.0712
3238.92	0.0458
3247.35	0.0309
3255.77	0.0271
3264.19	0.0407
3272.61	0.0647
3281.03	0.0934
3289.45	0.127
3297.88	0.1683
3306.3	0.2173
3314.72	0.2762
3323.14	0.3456
3331.56	0.4272
3339.99	0.5089
3348.41	0.5661
3356.83	0.6031
3365.25	0.6279
3373.67	0.6405
3382.09	0.6478
3390.52	0.6513
3398.94	0.6559
3407.36	0.6593
3415.78	0.6614
3424.2	0.6634
3432.62	0.665
3441.05	0.668
3449.47	0.67
3457.89	0.671
3466.31	0.673
3474.73	0.674
3483.15	0.674
3491.58	0.676
3500	0.677
3508.42	0.6775
3516.84	0.679
3525.26	0.6815
3533.68	0.6831
3542.11	0.6883
3550.53	0.6906
3558.95	0.6948
3567.37	0.6981
3575.79	0.701
3584.21	0.7021
3592.64	0.703
3601.06	0.704
3609.48	0.706
3617.9	0.7066
3626.32	0.707
3634.74	0.706
3643.17	0.706
3651.59	0.706
3660.01	0.706
3668.43	0.706
3676.85	0.704
3685.27	0.703
3693.7	0.703
3702.12	0.703
3710.54	0.703
3718.96	0.703
3727.38	0.701
3735.8	0.701
3744.23	0.701
3752.65	0.701
3761.07	0.7
3769.49	0.6973
3777.91	0.6901
3786.34	0.6823
3794.76	0.682
3803.18	0.68
3811.6	0.68
3820.02	0.68
3828.44	0.68
3836.87	0.679
3845.29	0.6779
3853.71	0.677
3862.13	0.676
3870.55	0.6763
3878.97	0.677
3887.4	0.6798
3895.82	0.6788
3904.24	0.672
3912.66	0.6674
3921.08	0.665
3929.5	0.664
3937.93	0.664
3946.35	0.664
3954.77	0.664
3963.19	0.6638
3971.61	0.6616
3980.03	0.661
