Infrared Spectrum: 2,3-BUTANEDIONE
Formula: C4 H6 O2
CAS: 431-03-8
State: LIQUID (NEAT)
Class: COBLENTZ III
Instrument: PERKIN-ELMER 521 (GRATING)
Sampling: TRANSMISSION
Path length: CAPILLARY
Resolution: 4
Origin: STANDARD OIL OF OHIO
1/CM	TRANSMITTANCE
631.349	0.861
640.543	0.87
649.738	0.874
658.932	0.879
668.127	0.887
677.321	0.894
686.515	0.899
695.71	0.901
704.904	0.904
714.099	0.901
723.293	0.905
732.487	0.907
741.682	0.905
750.876	0.905
760.071	0.907
769.265	0.904
778.459	0.907
787.654	0.907
796.848	0.904
806.043	0.904
815.237	0.903
824.431	0.904
833.626	0.903
842.82	0.9
852.015	0.898
861.209	0.89
870.403	0.882
879.598	0.874
888.792	0.853
897.986	0.734
907.181	0.656
916.375	0.78
925.57	0.781
934.764	0.722
943.958	0.7239
953.153	0.822
962.347	0.853
971.542	0.869
980.736	0.869
989.93	0.87
999.125	0.867
1008.32	0.869
1017.51	0.873
1026.71	0.869
1035.9	0.862
1045.1	0.857
1054.29	0.844
1063.49	0.828
1072.68	0.805
1081.87	0.775
1091.07	0.675
1100.26	0.4243
1109.46	0.271
1118.65	0.681
1127.85	0.8028
1137.04	0.823
1146.24	0.836
1155.43	0.843
1164.62	0.845
1173.82	0.858
1183.01	0.866
1192.21	0.87
1201.4	0.87
1210.6	0.881
1219.79	0.887
1228.98	0.887
1238.18	0.888
1247.37	0.884
1256.57	0.886
1265.76	0.883
1274.96	0.881
1284.15	0.879
1293.35	0.866
1302.54	0.852
1311.73	0.836
1320.93	0.801
1330.12	0.692
1339.32	0.4404
1348.51	0.2999
1357.71	0.641
1366.9	0.717
1376.1	0.722
1385.29	0.711
1394.48	0.66
1403.68	0.58
1412.87	0.521
1422.07	0.64
1431.26	0.7009
1440.46	0.783
1449.65	0.831
1458.84	0.858
1468.04	0.866
1477.23	0.874
1486.43	0.877
1495.62	0.877
1504.82	0.877
1514.01	0.874
1523.21	0.882
1532.4	0.888
1541.59	0.891
1550.79	0.891
1559.98	0.896
1569.18	0.895
1578.37	0.895
1587.57	0.892
1596.76	0.892
1605.96	0.89
1615.15	0.888
1624.34	0.886
1633.54	0.879
1642.73	0.867
1651.93	0.861
1661.12	0.844
1670.32	0.772
1679.51	0.752
1688.7	0.721
1697.9	0.504
1707.09	0.2064
1716.29	0.172
1725.48	0.288
1734.68	0.681
1743.87	0.769
1753.07	0.805
1762.26	0.822
1771.45	0.854
1780.65	0.878
1789.84	0.884
1799.04	0.875
1808.23	0.882
1817.43	0.913
1826.62	0.924
1835.81	0.928
1845.01	0.929
1854.2	0.93
1863.4	0.93
1872.59	0.93
1881.79	0.928
1890.98	0.926
1900.18	0.928
1909.37	0.929
1918.56	0.929
1927.76	0.929
1936.95	0.926
1946.15	0.926
1955.34	0.924
1964.54	0.921
1973.73	0.925
1982.93	0.925
1992.12	0.928
2001.31	0.93
2010.51	0.928
2019.7	0.925
2028.9	0.924
2038.09	0.926
2047.29	0.928
2056.48	0.929
2065.67	0.9293
2074.87	0.9284
2084.06	0.929
2093.26	0.9326
2102.45	0.93
2111.65	0.93
2120.84	0.935
2130.04	0.933
2139.23	0.9333
2148.42	0.935
2157.62	0.934
2166.81	0.934
2176.01	0.933
2185.2	0.933
2194.4	0.9352
2203.59	0.934
2212.79	0.939
2221.98	0.935
2231.17	0.937
2240.37	0.934
2249.56	0.9328
2258.76	0.929
2267.95	0.925
2277.15	0.925
2286.34	0.932
2295.53	0.9311
2304.73	0.9316
2313.92	0.9325
2323.12	0.929
2332.31	0.928
2341.51	0.928
2350.7	0.926
2359.9	0.9283
2369.09	0.93
2378.28	0.928
2387.48	0.9259
2396.67	0.9251
2405.87	0.93
2415.06	0.932
2424.26	0.932
2433.45	0.93
2442.65	0.932
2451.84	0.929
2461.03	0.928
2470.23	0.9253
2479.42	0.929
2488.62	0.934
2497.81	0.937
2507.01	0.937
2516.2	0.934
2525.39	0.9361
2534.59	0.935
2543.78	0.935
2552.98	0.935
2562.17	0.937
2571.37	0.937
2580.56	0.935
2589.76	0.9349
2598.95	0.9341
2608.14	0.9329
2617.34	0.928
2626.53	0.926
2635.73	0.932
2644.92	0.935
2654.12	0.935
2663.31	0.937
2672.5	0.935
2681.7	0.9306
2690.89	0.93
2700.09	0.928
2709.28	0.928
2718.48	0.929
2727.67	0.929
2736.87	0.93
2746.06	0.93
2755.25	0.93
2764.45	0.925
2773.64	0.9265
2782.84	0.928
2792.03	0.9258
2801.23	0.925
2810.42	0.9241
2819.62	0.922
2828.81	0.918
2838	0.922
2847.2	0.925
2856.39	0.9223
2865.59	0.9184
2874.78	0.916
2883.98	0.9123
2893.17	0.9056
2902.36	0.9011
2911.56	0.8914
2920.75	0.8739
2929.95	0.8655
2939.14	0.8695
2948.34	0.875
2957.53	0.8706
2966.73	0.8607
2975.92	0.8384
2985.11	0.8335
2994.31	0.837
3003.5	0.832
3012.7	0.8361
3021.89	0.8644
3031.09	0.886
3040.28	0.896
3049.48	0.8999
3058.67	0.901
3067.86	0.903
3077.06	0.903
3086.25	0.905
3095.45	0.9117
3104.64	0.9117
3113.84	0.916
3123.03	0.917
3132.22	0.9165
3141.42	0.918
3150.61	0.918
3159.81	0.92
3169	0.921
3178.2	0.921
3187.39	0.921
3196.59	0.9212
3205.78	0.922
3214.97	0.9211
3224.17	0.9201
3233.36	0.924
3242.56	0.921
3251.75	0.9201
3260.95	0.918
3270.14	0.918
3279.34	0.921
3288.53	0.918
3297.72	0.916
3306.92	0.917
3316.11	0.913
3325.31	0.912
3334.5	0.909
3343.7	0.909
3352.89	0.9075
3362.08	0.905
3371.28	0.903
3380.47	0.8997
3389.67	0.8947
3398.86	0.8799
3408.06	0.8481
3417.25	0.7949
3426.45	0.8239
3435.64	0.8772
3444.83	0.89
3454.03	0.89
3463.22	0.8901
3472.42	0.888
3481.61	0.888
3490.81	0.89
3500	0.89
3509.2	0.89
3518.39	0.891
3527.58	0.894
3536.78	0.8986
3545.97	0.903
3555.17	0.905
3564.36	0.905
3573.56	0.9098
3582.75	0.9113
3591.94	0.9136
3601.14	0.916
3610.33	0.92
3619.53	0.9197
3628.72	0.916
3637.92	0.9159
3647.11	0.912
3656.31	0.912
3665.5	0.915
3674.69	0.917
3683.89	0.922
3693.08	0.922
3702.28	0.925
3711.47	0.922
3720.67	0.9241
3729.86	0.9227
3739.05	0.924
3748.25	0.924
3757.44	0.925
3766.64	0.926
3775.83	0.9272
3785.03	0.924
3794.22	0.922
3803.42	0.925
3812.61	0.925
3821.8	0.922
3831	0.922
3840.19	0.922
3849.39	0.922
3858.58	0.922
3867.78	0.918
3876.97	0.9249
3886.17	0.9209
3895.36	0.922
3904.55	0.921
3913.75	0.922
3922.94	0.9213
3932.14	0.921
3941.33	0.921
3950.53	0.925
