Infrared Spectrum: Alpha,Alpha,Alpha-TRIFLUORO ACETOPHENONE
Formula: C8 H5 F3 O
CAS: 434-45-7
State: SOLUTION (10% CCl4 FOR 5000-1330, 10% CS2 FOR 1330-625 CM^-^1)
Class: COBLENTZ
Instrument: Not specified, most likely a prism, grating, or hybrid spectrometer.
Sampling: TRANSMISSION
Path length: 0.0116 CM, 0.0114 CM
Resolution: 4
Origin: DOW CHEMICAL COMPANY
MICROMETERS	TRANSMITTANCE
2.027	0.89
2.06694	0.892
2.10689	0.892
2.14683	0.889
2.18677	0.894
2.22672	0.889
2.26666	0.889
2.3066	0.889
2.34655	0.889
2.38649	0.89
2.42643	0.889
2.46638	0.89
2.50632	0.902
2.54626	0.903
2.58621	0.899
2.62615	0.905
2.66609	0.912
2.70603	0.899
2.74598	0.905
2.78592	0.902
2.82586	0.899
2.86581	0.895
2.90575	0.88
2.94569	0.855
2.98564	0.897
3.02558	0.889
3.06552	0.894
3.10547	0.895
3.14541	0.892
3.18535	0.894
3.2253	0.88
3.26524	0.804
3.30518	0.817
3.34513	0.885
3.38507	0.905
3.42501	0.908
3.46496	0.91
3.5049	0.92
3.54484	0.923
3.58479	0.915
3.62473	0.908
3.66467	0.923
3.70462	0.922
3.74456	0.923
3.7845	0.918
3.82445	0.917
3.86439	0.915
3.90433	0.92
3.94427	0.907
3.98422	0.902
4.02416	0.91
4.0641	0.922
4.10405	0.927
4.14399	0.92
4.18393	0.905
4.22388	0.899
4.26382	0.897
4.30376	0.895
4.34371	0.895
4.38365	0.882
4.42359	0.903
4.46354	0.918
4.50348	0.925
4.54342	0.927
4.58337	0.927
4.62331	0.928
4.66325	0.927
4.7032	0.928
4.74314	0.93
4.78308	0.927
4.82303	0.928
4.86297	0.928
4.90291	0.928
4.94286	0.93
4.9828	0.927
5.02274	0.91
5.06269	0.899
5.10263	0.88
5.14257	0.907
5.18251	0.9
5.22246	0.887
5.2624	0.882
5.30234	0.9
5.34229	0.905
5.38223	0.908
5.42217	0.913
5.46212	0.907
5.50206	0.875
5.542	0.864
5.58195	0.889
5.62189	0.855
5.66183	0.842
5.70178	0.842
5.74172	0.774
5.78166	0.548
5.82161	0.051
5.86155	0.395
5.90149	0.71
5.94144	0.816
5.98138	0.836
6.02132	0.875
6.06127	0.872
6.10121	0.867
6.14115	0.864
6.1811	0.798
6.22104	0.599
6.26098	0.299
6.30093	0.504
6.34087	0.498
6.38081	0.552
6.42076	0.534
6.4607	0.509
6.50064	0.531
6.54058	0.622
6.58053	0.667
6.62047	0.716
6.66041	0.781
6.70036	0.821
6.7403	0.846
6.78024	0.831
6.82019	0.852
6.86013	0.685
6.90007	0.605
6.94002	0.862
6.97996	0.885
7.0199	0.89
7.05985	0.9
7.09979	0.902
7.13973	0.894
7.17968	0.89
7.21962	0.89
7.25956	0.902
7.29951	0.902
7.33945	0.899
7.37939	0.855
7.41934	0.763
7.45928	0.614
7.49922	0.587
7.53917	0.639
7.57911	0.663
7.61905	0.726
7.659	0.71
7.69894	0.836
7.73888	0.862
7.77882	0.867
7.81877	0.849
7.85871	0.822
7.89865	0.819
7.9386	0.809
7.97854	0.773
8.01848	0.728
8.05843	0.652
8.09837	0.607
8.13831	0.586
8.17826	0.504
8.2182	0.276
8.25814	0.071
8.29809	0.023
8.33803	0.023
8.37797	0.029
8.41792	0.028
8.45786	0.024
8.4978	0.021
8.53775	0.062
8.57769	0.094
8.61763	0.071
8.65758	0.034
8.69752	0.021
8.73746	0.019
8.77741	0.056
8.81735	0.235
8.85729	0.461
8.89724	0.605
8.93718	0.658
8.97712	0.685
9.01706	0.75
9.05701	0.799
9.09695	0.802
9.13689	0.832
9.17684	0.872
9.21678	0.89
9.25672	0.897
9.29667	0.889
9.33661	0.85
9.37655	0.829
9.4165	0.869
9.45644	0.91
9.49638	0.923
9.53633	0.93
9.57627	0.932
9.61621	0.938
9.65616	0.938
9.6961	0.905
9.73604	0.892
9.77599	0.903
9.81593	0.899
9.85587	0.902
9.89582	0.922
9.93576	0.92
9.9757	0.824
10.0156	0.759
10.0556	0.897
10.0955	0.908
10.1355	0.9
10.1754	0.9
10.2154	0.897
10.2553	0.877
10.2952	0.869
10.3352	0.864
10.3751	0.842
10.4151	0.807
10.455	0.766
10.495	0.703
10.5349	0.592
10.5749	0.418
10.6148	0.167
10.6547	0.029
10.6947	0.072
10.7346	0.266
10.7746	0.531
10.8145	0.675
10.8545	0.758
10.8944	0.832
10.9343	0.862
10.9743	0.882
11.0142	0.899
11.0542	0.902
11.0941	0.899
11.1341	0.894
11.174	0.89
11.2139	0.889
11.2539	0.882
11.2938	0.874
11.3338	0.859
11.3737	0.841
11.4137	0.831
11.4536	0.811
11.4935	0.793
11.5335	0.776
11.5734	0.758
11.6134	0.753
11.6533	0.751
11.6933	0.75
11.7332	0.751
11.7731	0.769
11.8131	0.793
11.853	0.809
11.893	0.827
11.9329	0.859
11.9729	0.88
12.0128	0.895
12.0528	0.902
12.0927	0.905
12.1326	0.908
12.1726	0.912
12.2125	0.912
12.2525	0.913
12.2924	0.913
12.3324	0.91
12.3723	0.907
12.4122	0.899
12.4522	0.88
12.4921	0.852
12.5321	0.834
12.572	0.849
12.612	0.872
12.6519	0.875
12.6918	0.877
12.7318	0.88
12.7717	0.882
12.8117	0.885
12.8516	0.885
12.8916	0.884
12.9315	0.879
12.9714	0.872
13.0114	0.869
13.0513	0.859
13.0913	0.85
13.1312	0.842
13.1712	0.831
13.2111	0.812
13.251	0.751
13.291	0.61
13.3309	0.486
13.3709	0.511
13.4108	0.665
13.4508	0.736
13.4907	0.75
13.5306	0.731
13.5706	0.67
13.6105	0.62
13.6505	0.607
13.6904	0.629
13.7304	0.639
13.7703	0.6
13.8103	0.533
13.8502	0.43
13.8901	0.283
13.9301	0.135
13.97	0.046
14.01	0.026
14.0499	0.071
14.0899	0.187
14.1298	0.299
14.1697	0.392
14.2097	0.453
14.2496	0.483
14.2896	0.509
14.3295	0.519
14.3695	0.524
14.4094	0.518
14.4493	0.48
14.4893	0.428
14.5292	0.344
14.5692	0.24
14.6091	0.18
14.6491	0.168
14.689	0.21
14.7289	0.291
14.7689	0.321
14.8088	0.321
14.8488	0.274
14.8887	0.215
14.9287	0.172
14.9686	0.168
15.0085	0.241
15.0485	0.319
15.0884	0.385
15.1284	0.44
15.1683	0.468
15.2083	0.486
15.2482	0.488
15.2882	0.49
15.3281	0.491
15.368	0.491
15.408	0.491
15.4479	0.491
15.4879	0.491
15.5278	0.491
15.5678	0.488
15.6077	0.486
15.6476	0.485
15.6876	0.483
15.7275	0.483
15.7675	0.483
15.8074	0.48
15.8474	0.478
15.8873	0.478
