Infrared Spectrum: DECAFLUOROBIPHENYL
Formula: C12 F10
CAS: 434-90-2
State: SOLUTION (10% IN CCl4 FOR 3800-1330 CM^-^1, 10% IN CS2 FOR 1330-400 CM^-^1)
Melting point: 68 C
Class: COBLENTZ III
Instrument: BECKMAN IR-9 (GRATING)
Instrument parameters: ORDER CHANGES AT 670, 1200, 2000 CM^-^1
Sampling: TRANSMISSION
Path length: 0.01 CM, 0.011 CM
Resolution: 4
Origin: DOW CHEMICAL COMPANY
1/CM	TRANSMITTANCE
399.12	0.291
407.916	0.175
416.712	0.477
425.508	0.627
434.304	0.694
443.1	0.765
451.896	0.805
460.692	0.843
469.488	0.791
478.284	0.88
487.08	0.923
495.876	0.936
504.673	0.951
513.469	0.952
522.265	0.955
531.061	0.963
539.857	0.965
548.653	0.965
557.449	0.969
566.245	0.972
575.041	0.954
583.837	0.97
592.633	0.975
601.429	0.976
610.225	0.975
619.021	0.961
627.817	0.968
636.613	0.961
645.409	0.94
654.205	0.92
663.001	0.955
671.797	0.976
680.593	0.983
689.389	0.987
698.185	0.988
706.982	0.983
715.778	0.876
724.574	0.045
733.37	0.868
742.166	0.963
750.962	0.972
759.758	0.98
768.554	0.984
777.35	0.968
786.146	0.973
794.942	0.961
803.738	0.98
812.534	0.983
821.33	0.988
830.126	0.98
838.922	0.945
847.718	0.852
856.514	0.809
865.31	0.836
874.106	0.877
882.902	0.912
891.698	0.945
900.494	0.966
909.291	0.979
918.087	0.977
926.883	0.976
935.679	0.968
944.475	0.955
953.271	0.908
962.067	0.804
970.863	0.329
979.659	0
988.455	0.12
997.251	0.083
1006.05	0.068
1014.84	0.558
1023.64	0.734
1032.44	0.573
1041.23	0.677
1050.03	0.834
1058.82	0.679
1067.62	0.602
1076.42	0.001
1085.21	0.568
1094.01	0.797
1102.8	0.843
1111.6	0.913
1120.4	0.931
1129.19	0.854
1137.99	0.922
1146.78	0.877
1155.58	0.84
1164.38	0.927
1173.17	0.952
1181.97	0.968
1190.76	0.976
1199.56	0.972
1208.36	0.968
1217.15	0.968
1225.95	0.97
1234.74	0.962
1243.54	0.962
1252.34	0.948
1261.13	0.926
1269.93	0.877
1278.72	0.911
1287.52	0.4901
1296.32	0.865
1305.11	0.934
1313.91	0.948
1322.7	0.944
1331.5	0.919
1340.3	0.876
1349.09	0.915
1357.89	0.925
1366.68	0.781
1375.48	0.833
1384.28	0.913
1393.07	0.918
1401.87	0.891
1410.66	0.879
1419.46	0.908
1428.26	0.862
1437.05	0.856
1445.85	0.861
1454.65	0.794
1463.44	0.669
1472.24	0.337
1481.03	0.154
1489.83	0.001
1498.63	0.115
1507.42	0.095
1516.22	0.009
1525.01	0.23
1533.81	0.34
1542.61	0.409
1551.4	0.436
1560.2	0.506
1568.99	0.579
1577.79	0.619
1586.59	0.619
1595.38	0.65
1604.18	0.758
1612.97	0.798
1621.77	0.812
1630.57	0.77
1639.36	0.729
1648.16	0.458
1656.95	0.711
1665.75	0.784
1674.55	0.897
1683.34	0.912
1692.14	0.923
1700.93	0.934
1709.73	0.934
1718.53	0.93
1727.32	0.922
1736.12	0.898
1744.91	0.923
1753.71	0.944
1762.51	0.951
1771.3	0.954
1780.1	0.947
1788.89	0.948
1797.69	0.947
1806.49	0.948
1815.28	0.95
1824.08	0.955
1832.88	0.956
1841.67	0.954
1850.47	0.954
1859.26	0.952
1868.06	0.938
1876.86	0.922
1885.65	0.95
1894.45	0.955
1903.24	0.956
1912.04	0.958
1920.84	0.959
1929.63	0.958
1938.43	0.958
1947.22	0.958
1956.02	0.958
1964.82	0.959
1973.61	0.956
1982.41	0.956
1991.2	0.947
2000	0.938
2008.8	0.941
2017.59	0.94
2026.39	0.941
2035.18	0.944
2043.98	0.947
2052.78	0.948
2061.57	0.947
2070.37	0.945
2079.16	0.9469
2087.96	0.948
2096.76	0.9451
2105.55	0.936
2114.35	0.944
2123.14	0.947
2131.94	0.9499
2140.74	0.951
2149.53	0.951
2158.33	0.9539
2167.12	0.9559
2175.92	0.958
2184.72	0.9589
2193.51	0.956
2202.31	0.9549
2211.1	0.9551
2219.9	0.9454
2228.7	0.9372
2237.49	0.9324
2246.29	0.9508
2255.09	0.954
2263.88	0.9501
2272.68	0.9452
2281.47	0.9401
2290.27	0.936
2299.07	0.9379
2307.86	0.9449
2316.66	0.9498
2325.45	0.952
2334.25	0.954
2343.05	0.955
2351.84	0.954
2360.64	0.954
2369.43	0.9578
2378.23	0.9542
2387.03	0.9501
2395.82	0.95
2404.62	0.9343
2413.41	0.9313
2422.21	0.9377
2431.01	0.9376
2439.8	0.9221
2448.6	0.9189
2457.39	0.9307
2466.19	0.943
2474.99	0.9313
2483.78	0.931
2492.58	0.9325
2501.37	0.9545
2510.17	0.956
2518.97	0.954
2527.76	0.952
2536.56	0.95
2545.35	0.9337
2554.15	0.9393
2562.95	0.9508
2571.74	0.954
2580.54	0.952
2589.33	0.948
2598.13	0.951
2606.93	0.9302
2615.72	0.9456
2624.52	0.938
2633.32	0.936
2642.11	0.938
2650.91	0.9308
2659.7	0.915
2668.5	0.9254
2677.3	0.9408
2686.09	0.9474
2694.89	0.9576
2703.68	0.959
2712.48	0.959
2721.28	0.959
2730.07	0.959
2738.87	0.958
2747.66	0.956
2756.46	0.955
2765.26	0.955
2774.05	0.955
2782.85	0.955
2791.64	0.954
2800.44	0.9525
2809.24	0.952
2818.03	0.954
2826.83	0.954
2835.62	0.955
2844.42	0.955
2853.22	0.9543
2862.01	0.9525
2870.81	0.952
2879.6	0.952
2888.4	0.951
2897.2	0.947
2905.99	0.9433
2914.79	0.9333
2923.58	0.931
2932.38	0.9324
2941.18	0.9367
2949.97	0.943
2958.77	0.9386
2967.56	0.94
2976.36	0.943
2985.16	0.938
2993.95	0.9491
3002.75	0.9534
3011.54	0.954
3020.34	0.955
3029.14	0.955
3037.93	0.955
3046.73	0.955
3055.53	0.955
3064.32	0.955
3073.12	0.955
3081.91	0.955
3090.71	0.955
3099.51	0.955
3108.3	0.955
3117.1	0.955
3125.89	0.9544
3134.69	0.954
3143.49	0.954
3152.28	0.954
3161.08	0.954
3169.87	0.954
3178.67	0.954
3187.47	0.954
3196.26	0.954
3205.06	0.954
3213.85	0.954
3222.65	0.954
3231.45	0.954
3240.24	0.954
3249.04	0.954
3257.83	0.954
3266.63	0.954
3275.43	0.954
3284.22	0.954
3293.02	0.954
3301.81	0.954
3310.61	0.954
3319.41	0.954
3328.2	0.954
3337	0.954
3345.79	0.954
3354.59	0.954
3363.39	0.954
3372.18	0.954
3380.98	0.954
3389.77	0.954
3398.57	0.954
3407.37	0.955
3416.16	0.955
3424.96	0.955
3433.75	0.955
3442.55	0.956
3451.35	0.956
3460.14	0.956
3468.94	0.956
3477.74	0.956
3486.53	0.956
3495.33	0.956
3504.12	0.956
3512.92	0.956
3521.72	0.956
3530.51	0.956
3539.31	0.956
3548.1	0.956
3556.9	0.956
3565.7	0.956
3574.49	0.956
3583.29	0.956
3592.08	0.956
3600.88	0.956
3609.68	0.956
3618.47	0.958
3627.27	0.958
3636.06	0.959
3644.86	0.961
3653.66	0.962
3662.45	0.962
3671.25	0.961
3680.04	0.961
3688.84	0.961
3697.64	0.959
3706.43	0.959
3715.23	0.959
3724.02	0.961
3732.82	0.9615
3741.62	0.962
3750.41	0.962
3759.21	0.962
3768	0.962
3776.8	0.962
3785.6	0.962
3794.39	0.962
