Infrared Spectrum: Benzenamine, N-ethyl-, hydrochloride
Formula: C8 H12 Cl N
CAS: 4348-19-0
State: SOLID (KBr DISC)
Class: COBLENTZ III
Instrument: PERKIN-ELMER 157
Sampling: TRANSMISSION
Resolution: 2
Origin: BRITISH PETROLEUM CO. LTD., ENGLAND
1/CM	TRANSMITTANCE
667	0.7744
676	0.586
685	0.1262
694	0.0903
703	0.8584
712	0.9429
721	0.8836
730	0.7444
739	0.5759
748	0.0992
757	0.0614
766	0.7321
775	0.8206
784	0.8126
793	0.6974
802	0.4174
811	0.8081
820	0.8584
829	0.8648
838	0.8812
847	0.8769
856	0.8693
865	0.8243
874	0.7002
883	0.6221
892	0.8058
901	0.8006
910	0.7703
919	0.5216
928	0.8237
937	0.8614
946	0.8521
955	0.8465
964	0.8275
973	0.8001
982	0.7661
991	0.7024
1000	0.5662
1009	0.3084
1018	0.1815
1027	0.3528
1036	0.6206
1045	0.7619
1054	0.7672
1063	0.6511
1072	0.6674
1081	0.7617
1090	0.6126
1099	0.3193
1108	0.0712
1117	0.6343
1126	0.7285
1135	0.7649
1144	0.7105
1153	0.6809
1162	0.7455
1171	0.6464
1180	0.7338
1189	0.7271
1198	0.5695
1207	0.6491
1216	0.7343
1225	0.7617
1234	0.7526
1243	0.7335
1252	0.7082
1261	0.7185
1270	0.7285
1279	0.711
1288	0.6802
1297	0.647
1306	0.6128
1315	0.5684
1324	0.5417
1333	0.5411
1342	0.504
1351	0.4046
1360	0.5188
1369	0.5883
1378	0.5395
1387	0.4193
1396	0.4759
1405	0.4386
1414	0.3642
1423	0.1471
1432	0.0779
1441	0.214
1450	0.2377
1459	0.32
1468	0.2468
1477	0.1164
1486	0.0967
1495	0.0741
1504	0.3164
1513	0.4895
1522	0.5432
1531	0.5472
1540	0.5564
1549	0.5546
1558	0.5439
1567	0.4836
1576	0.3002
1585	0.2981
1594	0.3385
1603	0.2567
1612	0.3702
1621	0.5672
1630	0.5633
1639	0.556
1648	0.5473
1657	0.5461
1666	0.5445
1675	0.5424
1684	0.5448
1693	0.5474
1702	0.5482
1711	0.548
1720	0.5358
1729	0.5469
1738	0.5855
1747	0.6089
1756	0.6177
1765	0.6352
1774	0.6348
1783	0.6268
1792	0.6077
1801	0.5793
1810	0.5766
1819	0.5757
1828	0.5577
1837	0.5316
1846	0.567
1855	0.5708
1864	0.569
1873	0.5548
1882	0.5321
1891	0.541
1900	0.5603
1909	0.5607
1918	0.5592
1927	0.5537
1936	0.5412
1945	0.5243
1954	0.4985
1963	0.4549
1972	0.3568
1981	0.2612
1990	0.2676
1999	0.3803
2008	0.492
2017	0.5323
2026	0.5358
2035	0.5362
2044	0.5324
2053	0.5199
2062	0.4987
2071	0.4975
2080	0.4969
2089	0.4966
2098	0.4965
2107	0.4945
2116	0.4854
2125	0.4769
2134	0.4673
2143	0.4568
2152	0.4496
2161	0.4484
2170	0.4468
2179	0.4347
2188	0.4189
2197	0.4077
2206	0.4027
2215	0.3967
2224	0.3837
2233	0.3586
2242	0.3423
2251	0.3405
2260	0.3387
2269	0.3349
2278	0.3246
2287	0.3033
2296	0.2872
2305	0.2749
2314	0.2623
2323	0.2374
2332	0.2018
2341	0.1678
2350	0.1434
2359	0.1343
2368	0.1316
2377	0.1319
2386	0.1476
2395	0.1587
2404	0.1596
2413	0.1542
2422	0.1278
2431	0.1014
2440	0.0752
2449	0.0488
2458	0.0246
2467	0.0249
2476	0.0485
2485	0.0935
2494	0.1358
2503	0.1457
2512	0.1297
2521	0.1171
2530	0.112
2539	0.1031
2548	0.0911
2557	0.0744
2566	0.0578
2575	0.0489
2584	0.0456
2593	0.0407
2602	0.0306
2611	0.0219
2620	0.0147
2629	0.0119
2638	0.0112
2647	0.0111
2656	0.0111
2665	0.0112
2674	0.0113
2683	0.0115
2692	0.0116
2701	0.0117
2710	0.0118
2719	0.0119
2728	0.0123
2737	0.0127
2746	0.0131
2755	0.0134
2764	0.0138
2773	0.0142
2782	0.0146
2791	0.015
2800	0.0154
2809	0.016
2818	0.0165
2827	0.0172
2836	0.0177
2845	0.0184
2854	0.0194
2863	0.0206
2872	0.0219
2881	0.0231
2890	0.0243
2899	0.0261
2908	0.0285
2917	0.0305
2926	0.0318
2935	0.0333
2944	0.0374
2953	0.0548
2962	0.0727
2971	0.0904
2980	0.1084
2989	0.128
2998	0.1504
3007	0.163
3016	0.171
3025	0.1786
3034	0.1875
3043	0.1974
3052	0.2115
3061	0.2365
3070	0.2732
3079	0.2894
3088	0.2983
3097	0.3023
3106	0.3054
3115	0.3053
3124	0.3052
3133	0.3052
3142	0.3073
3151	0.3137
3160	0.3229
3169	0.3517
3178	0.3593
3187	0.3608
3196	0.3619
3205	0.3624
3214	0.3629
3223	0.3632
3232	0.363
3241	0.3629
3250	0.3627
3259	0.3617
3268	0.3602
3277	0.3587
3286	0.3557
3295	0.3525
3304	0.3488
3313	0.3451
3322	0.3415
3331	0.3377
3340	0.334
3349	0.3302
3358	0.3252
3367	0.3188
3376	0.3131
3385	0.3086
3394	0.3045
3403	0.302
3412	0.2998
3421	0.2986
3430	0.2974
3439	0.2953
3448	0.2976
3457	0.2977
3466	0.2979
3475	0.2983
3484	0.2988
3493	0.2993
3502	0.2999
3511	0.3003
3520	0.3009
3529	0.3013
3538	0.3018
3547	0.3023
3556	0.3027
3565	0.3032
3574	0.3038
3583	0.3049
3592	0.3061
3601	0.3067
3610	0.3069
3619	0.3071
3628	0.3072
3637	0.3074
3646	0.3073
3655	0.3072
3664	0.3072
3673	0.3071
3682	0.307
3691	0.3063
3700	0.3054
3709	0.3044
3718	0.3024
3727	0.3005
3736	0.2985
3745	0.2964
3754	0.2943
3763	0.2921
3772	0.2899
3781	0.2877
3790	0.2854
3799	0.283
3808	0.2806
3817	0.2782
3826	0.276
3835	0.2744
3844	0.2729
3853	0.2714
3862	0.27
3871	0.2685
3880	0.267
3889	0.2656
3898	0.2642
3907	0.2628
3916	0.2614
3925	0.2606
3934	0.2602
3943	0.2599
3952	0.2594
3961	0.2589
3970	0.2562
3979	0.2533
3988	0.2504
3997	0.2479
