Infrared Spectrum: 2H-1,4-BENZODIAZEPIN-2-ONE, 7-CHLORO-1,3-DIHYDRO-1-METHYL-5-PHENYL-
Formula: C16 H13 Cl N2 O
CAS: 439-14-5
State: SOLID (OIL MULL)
Class: COBLENTZ III
Instrument: PERKIN-ELMER 21 (GRATING)
Instrument parameters: NaCl PRISM
Sampling: TRANSMISSION
Resolution: 2
Origin: SMITH KLINE & FRENCH LABS.
MICROMETERS	TRANSMITTANCE
2.001	0.419
2.03527	0.429
2.06954	0.447
2.10381	0.452
2.13808	0.474
2.17236	0.474
2.20663	0.485
2.2409	0.492
2.27517	0.501
2.30944	0.504
2.34371	0.506
2.37798	0.514
2.41225	0.528
2.44653	0.535
2.4808	0.545
2.51507	0.551
2.54934	0.558
2.58361	0.564
2.61788	0.57
2.65215	0.579
2.68642	0.586
2.7207	0.58
2.75497	0.591
2.78924	0.6
2.82351	0.6
2.85778	0.607
2.89205	0.612
2.92632	0.619
2.96059	0.628
2.99486	0.625
3.02914	0.622
3.06341	0.625
3.09768	0.641
3.13195	0.646
3.16622	0.643
3.20049	0.643
3.23476	0.641
3.26903	0.635
3.30331	0.597
3.33758	0.58
3.37185	0.533
3.40612	0.304
3.44039	0.16
3.47466	0.129
3.50893	0.275
3.5432	0.246
3.57748	0.65
3.61175	0.698
3.64602	0.733
3.68029	0.733
3.71456	0.729
3.74883	0.743
3.7831	0.735
3.81737	0.737
3.85165	0.737
3.88592	0.753
3.92019	0.761
3.95446	0.765
3.98873	0.775
4.023	0.777
4.05727	0.781
4.09154	0.784
4.12581	0.789
4.16009	0.789
4.19436	0.79
4.22863	0.795
4.2629	0.795
4.29717	0.787
4.33144	0.786
4.36571	0.799
4.39998	0.808
4.43426	0.803
4.46853	0.808
4.5028	0.809
4.53707	0.814
4.57134	0.82
4.60561	0.823
4.63988	0.825
4.67415	0.828
4.70843	0.831
4.7427	0.836
4.77697	0.839
4.81124	0.841
4.84551	0.847
4.87978	0.849
4.91405	0.852
4.94832	0.852
4.98259	0.856
5.01687	0.858
5.05114	0.854
5.08541	0.856
5.11968	0.85
5.15395	0.861
5.18822	0.888
5.22249	0.876
5.25676	0.842
5.29104	0.858
5.32531	0.887
5.35958	0.892
5.39385	0.896
5.42812	0.898
5.46239	0.893
5.49666	0.881
5.53093	0.891
5.56521	0.902
5.59948	0.902
5.63375	0.889
5.66802	0.9
5.70229	0.91
5.73656	0.911
5.77083	0.913
5.8051	0.91
5.83937	0.867
5.87365	0.793
5.90792	0.649
5.94219	0.364
5.97646	0.1
6.01073	0.114
6.045	0.345
6.07927	0.486
6.11354	0.607
6.14782	0.668
6.18209	0.704
6.21636	0.424
6.25063	0.563
6.2849	0.627
6.31917	0.739
6.35344	0.66
6.38771	0.685
6.42199	0.59
6.45626	0.781
6.49053	0.79
6.5248	0.806
6.55907	0.827
6.59334	0.817
6.62761	0.788
6.66188	0.748
6.69615	0.625
6.73043	0.31
6.7647	0.278
6.79897	0.352
6.83324	0.405
6.86751	0.399
6.90178	0.334
6.93605	0.436
6.97032	0.572
7.0046	0.632
7.03887	0.701
7.07314	0.757
7.10741	0.64
7.14168	0.371
7.17595	0.643
7.21022	0.749
7.24449	0.663
7.27877	0.592
7.31304	0.662
7.34731	0.623
7.38158	0.431
7.41585	0.333
7.45012	0.474
7.48439	0.594
7.51866	0.622
7.55294	0.415
7.58721	0.242
7.62148	0.449
7.65575	0.606
7.69002	0.617
7.72429	0.694
7.75856	0.701
7.79283	0.748
7.8271	0.782
7.86138	0.694
7.89565	0.671
7.92992	0.789
7.96419	0.702
7.99846	0.663
8.03273	0.771
8.067	0.821
8.10127	0.852
8.13555	0.859
8.16982	0.865
8.20409	0.871
8.23836	0.871
8.27263	0.834
8.3069	0.751
8.34117	0.646
8.37544	0.698
8.40972	0.808
8.44399	0.849
8.47826	0.85
8.51253	0.834
8.5468	0.853
8.58107	0.77
8.61534	0.819
8.64961	0.833
8.68388	0.83
8.71816	0.861
8.75243	0.839
8.7867	0.809
8.82097	0.75
8.85524	0.419
8.88951	0.581
8.92378	0.742
8.95805	0.812
8.99233	0.821
9.0266	0.797
9.06087	0.784
9.09514	0.684
9.12941	0.694
9.16368	0.804
9.19795	0.834
9.23222	0.858
9.2665	0.855
9.30077	0.726
9.33504	0.44
9.36931	0.649
9.40358	0.779
9.43785	0.82
9.47212	0.853
9.50639	0.875
9.54066	0.899
9.57494	0.902
9.60921	0.903
9.64348	0.9
9.67775	0.896
9.71202	0.876
9.74629	0.732
9.78056	0.858
9.81483	0.838
9.84911	0.738
9.88338	0.76
9.91765	0.773
9.95192	0.852
9.98619	0.881
10.0205	0.847
10.0547	0.899
10.089	0.894
10.1233	0.867
10.1575	0.739
10.1918	0.754
10.2261	0.823
10.2604	0.849
10.2946	0.81
10.3289	0.882
10.3632	0.904
10.3974	0.91
10.4317	0.91
10.466	0.874
10.5003	0.869
10.5345	0.867
10.5688	0.833
10.6031	0.793
10.6373	0.754
10.6716	0.815
10.7059	0.855
10.7402	0.86
10.7744	0.844
10.8087	0.798
10.843	0.82
10.8772	0.825
10.9115	0.745
10.9458	0.803
10.9801	0.849
11.0143	0.893
11.0486	0.919
11.0829	0.911
11.1171	0.905
11.1514	0.788
11.1857	0.683
11.22	0.854
11.2542	0.907
11.2885	0.922
11.3228	0.926
11.357	0.894
11.3913	0.784
11.4256	0.706
11.4599	0.871
11.4941	0.93
11.5284	0.938
11.5627	0.944
11.5969	0.947
11.6312	0.948
11.6655	0.948
11.6998	0.948
11.734	0.947
11.7683	0.933
11.8026	0.902
11.8368	0.892
11.8711	0.921
11.9054	0.94
11.9396	0.938
11.9739	0.92
12.0082	0.839
12.0425	0.635
12.0767	0.469
12.111	0.476
12.1453	0.772
12.1795	0.816
12.2138	0.764
12.2481	0.585
12.2824	0.525
12.3166	0.589
12.3509	0.599
12.3852	0.636
12.4194	0.745
12.4537	0.81
12.488	0.863
12.5223	0.891
12.5565	0.903
12.5908	0.916
12.6251	0.927
12.6593	0.922
12.6936	0.931
12.7279	0.922
12.7622	0.887
12.7964	0.69
12.8307	0.644
12.865	0.63
12.8992	0.671
12.9335	0.85
12.9678	0.891
13.0021	0.914
13.0363	0.905
13.0706	0.876
13.1049	0.882
13.1391	0.909
13.1734	0.925
13.2077	0.926
13.242	0.929
13.2762	0.926
13.3105	0.921
13.3448	0.913
13.379	0.9
13.4133	0.855
13.4476	0.771
13.4819	0.566
13.5161	0.55
13.5504	0.414
13.5847	0.514
13.6189	0.685
13.6532	0.773
13.6875	0.811
13.7218	0.83
13.756	0.844
13.7903	0.849
13.8246	0.847
13.8588	0.854
13.8931	0.85
13.9274	0.854
13.9617	0.855
13.9959	0.86
14.0302	0.856
14.0645	0.858
14.0987	0.855
14.133	0.853
14.1673	0.837
14.2015	0.81
14.2358	0.777
14.2701	0.68
14.3044	0.515
14.3386	0.383
14.3729	0.374
14.4072	0.281
14.4414	0.418
14.4757	0.569
14.51	0.627
14.5443	0.646
14.5785	0.722
14.6128	0.77
14.6471	0.787
14.6813	0.799
14.7156	0.803
14.7499	0.8
14.7842	0.805
14.8184	0.799
14.8527	0.804
14.887	0.795
14.9212	0.79
14.9555	0.779
14.9898	0.748
15.0241	0.717
15.0583	0.764
15.0926	0.768
