Infrared Spectrum: N-FORMYLMORPHOLINE
Formula: C5 H9 N O2
CAS: 4394-85-8
State: LIQUID
Class: COBLENTZ
Instrument: PERKIN-ELMER
Sampling: TRANSMISSION
Path length: CAPILLARY
Resolution: 4
Origin: ABBOTT LABORATORIES - WASHBURN
MICROMETERS	TRANSMITTANCE
2.092	0.88
2.12597	0.886
2.15993	0.897
2.1939	0.89
2.22786	0.892
2.26183	0.89
2.29579	0.886
2.32976	0.8829
2.36372	0.888
2.39769	0.888
2.43165	0.88
2.46562	0.8878
2.49958	0.8831
2.53355	0.8917
2.56751	0.8981
2.60148	0.8924
2.63544	0.888
2.66941	0.8945
2.70337	0.8932
2.73734	0.8882
2.7713	0.8665
2.80527	0.8452
2.83923	0.8468
2.8732	0.8488
2.90716	0.8569
2.94113	0.8639
2.97509	0.8593
3.00906	0.8587
3.04302	0.873
3.07699	0.878
3.11095	0.886
3.14492	0.89
3.17888	0.883
3.21285	0.8711
3.24681	0.868
3.28078	0.8681
3.31474	0.7833
3.34871	0.6668
3.38267	0.6583
3.41664	0.6137
3.4506	0.6041
3.48457	0.5107
3.51853	0.6472
3.5525	0.7999
3.58646	0.83
3.62043	0.8248
3.65439	0.8569
3.68836	0.8639
3.72232	0.8594
3.75629	0.8754
3.79025	0.885
3.82422	0.8918
3.85818	0.886
3.89215	0.888
3.92611	0.886
3.96008	0.8877
3.99404	0.888
4.02801	0.883
4.06197	0.892
4.09594	0.8827
4.1299	0.8801
4.16387	0.8918
4.19783	0.8859
4.2318	0.888
4.26576	0.897
4.29973	0.9021
4.33369	0.8803
4.36766	0.883
4.40162	0.88
4.43559	0.88
4.46955	0.8797
4.50352	0.8848
4.53748	0.8882
4.57145	0.886
4.60541	0.893
4.63938	0.892
4.67334	0.8858
4.70731	0.883
4.74127	0.876
4.77524	0.8782
4.8092	0.8803
4.84317	0.8765
4.87713	0.8763
4.9111	0.871
4.94506	0.878
4.97903	0.876
5.01299	0.8762
5.04696	0.8714
5.08092	0.861
5.11489	0.8757
5.14885	0.8756
5.18282	0.871
5.21678	0.876
5.25075	0.8817
5.28471	0.8756
5.31868	0.8753
5.35264	0.879
5.38661	0.875
5.42057	0.878
5.45454	0.8729
5.48851	0.8709
5.52247	0.8734
5.55644	0.8718
5.5904	0.863
5.62437	0.852
5.65833	0.8499
5.6923	0.842
5.72626	0.8333
5.76023	0.8135
5.79419	0.7706
5.82816	0.6573
5.86212	0.4698
5.89609	0.2076
5.93005	0.1254
5.96402	0.147
5.99798	0.1781
6.03195	0.4233
6.06591	0.5634
6.09988	0.6344
6.13384	0.6689
6.16781	0.7422
6.20177	0.7947
6.23574	0.8216
6.2697	0.8409
6.30367	0.8489
6.33763	0.859
6.3716	0.8649
6.40556	0.875
6.43953	0.8631
6.47349	0.873
6.50746	0.8681
6.54142	0.863
6.57539	0.8628
6.60935	0.863
6.64332	0.8545
6.67728	0.8437
6.71125	0.8346
6.74521	0.8119
6.77918	0.7694
6.81314	0.6509
6.84711	0.5862
6.88107	0.456
6.91504	0.3786
6.949	0.3207
6.98297	0.3364
7.01693	0.5229
7.0509	0.5847
7.08486	0.5949
7.11883	0.4988
7.15279	0.4744
7.18676	0.5576
7.22072	0.6884
7.25469	0.746
7.28865	0.739
7.32262	0.6558
7.35658	0.6864
7.39055	0.785
7.42451	0.808
7.45848	0.8003
7.49244	0.763
7.52641	0.803
7.56037	0.8176
7.59434	0.825
7.6283	0.7935
7.66227	0.6844
7.69623	0.6243
7.7302	0.746
7.76416	0.7661
7.79813	0.7333
7.83209	0.5228
7.86606	0.332
7.90002	0.5386
7.93399	0.6844
7.96795	0.7209
8.00192	0.7464
8.03588	0.753
8.06985	0.6728
8.10381	0.5025
8.13778	0.4058
8.17174	0.5755
8.20571	0.662
8.23967	0.6126
8.27364	0.6743
8.3076	0.7584
8.34157	0.7518
8.37553	0.6647
8.4095	0.505
8.44346	0.5046
8.47743	0.6027
8.51139	0.7162
8.54536	0.7819
8.57932	0.8159
8.61329	0.8295
8.64725	0.833
8.68122	0.8306
8.71518	0.8273
8.74915	0.8223
8.78312	0.8084
8.81708	0.7859
8.85105	0.748
8.88501	0.655
8.91898	0.4413
8.95294	0.3078
8.98691	0.2359
9.02087	0.2974
9.05484	0.4841
9.0888	0.6046
9.12277	0.7123
9.15673	0.7493
9.1907	0.7558
9.22466	0.7379
9.25863	0.6904
9.29259	0.6603
9.32656	0.5815
9.36052	0.5507
9.39449	0.6795
9.42845	0.7653
9.46242	0.8036
9.49638	0.8212
9.53035	0.8301
9.56431	0.8347
9.59828	0.827
9.63224	0.8163
9.66621	0.7944
9.70017	0.732
9.73414	0.6153
9.7681	0.454
9.80207	0.4664
9.83603	0.5606
9.87	0.568
9.90396	0.446
9.93793	0.392
9.97189	0.482
10.0059	0.5733
10.0398	0.7159
10.0738	0.7831
10.1078	0.8229
10.1417	0.8389
10.1757	0.854
10.2096	0.857
10.2436	0.8624
10.2776	0.8702
10.3115	0.873
10.3455	0.8794
10.3795	0.875
10.4134	0.883
10.4474	0.8818
10.4814	0.878
10.5153	0.883
10.5493	0.881
10.5833	0.8801
10.6172	0.8751
10.6512	0.8687
10.6852	0.8382
10.7191	0.7998
10.7531	0.7924
10.7871	0.8247
10.821	0.86
10.855	0.8767
10.8889	0.884
10.9229	0.89
10.9569	0.89
10.9908	0.8799
11.0248	0.886
11.0588	0.8947
11.0927	0.886
11.1267	0.8863
11.1607	0.888
11.1946	0.888
11.2286	0.8915
11.2626	0.8905
11.2965	0.8923
11.3305	0.8924
11.3645	0.89
11.3984	0.885
11.4324	0.881
11.4664	0.8757
11.5003	0.8655
11.5343	0.8536
11.5682	0.8155
11.6022	0.7451
11.6362	0.6411
11.6701	0.5785
11.7041	0.5883
11.7381	0.6862
11.772	0.7449
11.806	0.7814
11.84	0.8161
11.8739	0.8411
11.9079	0.8649
11.9419	0.8698
11.9758	0.875
12.0098	0.8752
12.0438	0.8802
12.0777	0.881
12.1117	0.873
12.1457	0.8691
12.1796	0.863
12.2136	0.8403
12.2476	0.8058
12.2815	0.7442
12.3155	0.7213
12.3494	0.7213
12.3834	0.7555
12.4174	0.7974
12.4513	0.823
12.4853	0.8455
12.5193	0.859
12.5532	0.864
12.5872	0.8752
12.6212	0.8783
12.6551	0.886
12.6891	0.881
12.7231	0.89
12.757	0.8802
12.791	0.8832
12.825	0.88
12.8589	0.881
12.8929	0.8721
12.9269	0.873
12.9608	0.881
12.9948	0.8825
13.0287	0.8706
13.0627	0.875
13.0967	0.874
13.1306	0.8764
13.1646	0.869
13.1986	0.8691
13.2325	0.8645
13.2665	0.868
13.3005	0.869
13.3344	0.866
13.3684	0.868
13.4024	0.864
13.4363	0.8628
13.4703	0.861
13.5043	0.8602
13.5382	0.856
13.5722	0.852
13.6062	0.8493
13.6401	0.8543
13.6741	0.854
13.708	0.8451
13.742	0.8423
13.776	0.8436
13.8099	0.8476
13.8439	0.8394
13.8779	0.832
13.9118	0.835
13.9458	0.8318
13.9798	0.8289
14.0137	0.832
14.0477	0.8294
14.0817	0.8293
14.1156	0.823
14.1496	0.815
14.1836	0.827
14.2175	0.82
14.2515	0.8133
14.2855	0.8088
14.3194	0.8082
14.3534	0.8015
14.3873	0.797
14.4213	0.7978
14.4553	0.794
14.4892	0.801
14.5232	0.7863
14.5572	0.7797
14.5911	0.7899
14.6251	0.775
14.6591	0.7681
14.693	0.767
14.727	0.7632
14.761	0.756
14.7949	0.7501
14.8289	0.7414
14.8629	0.7313
14.8968	0.7227
14.9308	0.7194
14.9648	0.7064
14.9987	0.6689
15.0327	0.6452
15.0666	0.6295
15.1006	0.6034
15.1346	0.592
15.1685	0.5972
15.2025	0.6142
15.2365	0.6281
15.2704	0.638
15.3044	0.6549
15.3384	0.657
15.3723	0.6634
15.4063	0.6666
