Infrared Spectrum: 2,3,4,5,6-Pentafluorobenzyl alcohol
Formula: C7 H3 F5 O
CAS: 440-60-8
State: SOLUTION (10% CCl4 FOR 3800-1330, 10% CS2 FOR 1330-470 CM^-^1)
Class: COBLENTZ III
Instrument: DOW KBr FOREPRISM-GRATING
Instrument parameters: BLAZED AT 3.5, 12.0, 20.0 MICRON AND CHANGED AT 5.0, 7.5, 14.9 MICRON
Sampling: TRANSMISSION
Path length: 0.010 CM, 0.011 CM
Resolution: 2
Origin: DOW CHEMICAL COMPANY
1/CM	TRANSMITTANCE
3802	0.8556
3793	0.8547
3784	0.8537
3775	0.8525
3766	0.8515
3757	0.8514
3748	0.8514
3739	0.8509
3730	0.8503
3721	0.8487
3712	0.8465
3703	0.8437
3694	0.8401
3685	0.8363
3676	0.8318
3667	0.8253
3658	0.815
3649	0.7983
3640	0.7524
3631	0.542
3622	0.4241
3613	0.5327
3604	0.6451
3595	0.7354
3586	0.7628
3577	0.7683
3568	0.7693
3559	0.7628
3550	0.7511
3541	0.7348
3532	0.7154
3523	0.6808
3514	0.6418
3505	0.6181
3496	0.6021
3487	0.5901
3478	0.5799
3469	0.5681
3460	0.557
3451	0.5462
3442	0.5366
3433	0.527
3424	0.5177
3415	0.5084
3406	0.4993
3397	0.4902
3388	0.482
3379	0.4746
3370	0.4705
3361	0.4684
3352	0.4679
3343	0.4687
3334	0.4733
3325	0.4795
3316	0.4875
3307	0.4996
3298	0.5144
3289	0.5325
3280	0.5523
3271	0.5731
3262	0.591
3253	0.6076
3244	0.6239
3235	0.6449
3226	0.663
3217	0.6805
3208	0.6942
3199	0.7074
3190	0.7201
3181	0.7325
3172	0.744
3163	0.7549
3154	0.7646
3145	0.7724
3136	0.7803
3127	0.7881
3118	0.7944
3109	0.7988
3100	0.8022
3091	0.8055
3082	0.8088
3073	0.8125
3064	0.8146
3055	0.8146
3046	0.8138
3037	0.8128
3028	0.8125
3019	0.811
3010	0.8011
3001	0.7794
2992	0.7585
2983	0.7239
2974	0.6837
2965	0.6728
2956	0.6926
2947	0.7222
2938	0.73
2929	0.7254
2920	0.6643
2911	0.6675
2902	0.6925
2893	0.7165
2884	0.7387
2875	0.7558
2866	0.7714
2857	0.7821
2848	0.7907
2839	0.7987
2830	0.8061
2821	0.8126
2812	0.8169
2803	0.8194
2794	0.8198
2785	0.8199
2776	0.8204
2767	0.823
2758	0.8252
2749	0.8261
2740	0.8271
2731	0.8277
2722	0.8283
2713	0.8286
2704	0.8289
2695	0.8295
2686	0.8298
2677	0.8271
2668	0.8148
2659	0.8026
2650	0.7918
2641	0.7962
2632	0.8098
2623	0.8209
2614	0.8271
2605	0.8318
2596	0.8348
2587	0.8368
2578	0.8362
2569	0.8359
2560	0.8373
2551	0.8396
2542	0.8421
2533	0.8445
2524	0.8468
2515	0.8486
2506	0.8499
2497	0.8478
2488	0.8389
2479	0.8353
2470	0.8343
2461	0.8249
2452	0.8086
2443	0.8069
2434	0.8206
2425	0.8334
2416	0.8425
2407	0.8431
2398	0.8436
2389	0.8444
2380	0.8458
2371	0.8471
2362	0.8486
2353	0.8501
2344	0.8517
2335	0.8546
2326	0.8597
2317	0.8654
2308	0.8694
2299	0.8721
2290	0.8737
2281	0.8744
2272	0.8723
2263	0.8694
2254	0.8678
2245	0.8712
2236	0.8762
2227	0.8747
2218	0.8752
2209	0.8775
2200	0.8792
2191	0.8781
2182	0.8773
2173	0.8805
2164	0.8792
2155	0.8807
2146	0.883
2137	0.8845
2128	0.8863
2119	0.8834
2110	0.8768
2101	0.8675
2092	0.8633
2083	0.8603
2074	0.8516
2065	0.8618
2056	0.8682
2047	0.8734
2038	0.8786
2029	0.8825
2020	0.885
2011	0.886
2002	0.8848
1993	0.8859
1984	0.8856
1975	0.8798
1966	0.8798
1957	0.8854
1948	0.8881
1939	0.8905
1930	0.89
1921	0.8853
1912	0.8786
1903	0.8798
1894	0.8827
1885	0.8862
1876	0.8886
1867	0.8888
1858	0.8796
1849	0.8788
1840	0.8827
1831	0.8841
1822	0.884
1813	0.8834
1804	0.8786
1795	0.8747
1786	0.8708
1777	0.871
1768	0.8711
1759	0.8632
1750	0.8467
1741	0.8315
1732	0.8308
1723	0.8409
1714	0.8573
1705	0.859
1696	0.8581
1687	0.8582
1678	0.8543
1669	0.8243
1660	0.3135
1651	0.4997
1642	0.7465
1633	0.8018
1624	0.8156
1615	0.8074
1606	0.7815
1597	0.7971
1588	0.7775
1579	0.7765
1570	0.7872
1561	0.7665
1552	0.7412
1543	0.6732
1534	0.3643
1525	0.0076
1516	0
1507	0
1498	0.0096
1489	0.3395
1480	0.5671
1471	0.5802
1462	0.6662
1453	0.7093
1444	0.7042
1435	0.6603
1426	0.5699
1417	0.5821
1408	0.5809
1399	0.5525
1390	0.4855
1381	0.4448
1372	0.5009
1363	0.603
1354	0.6536
1345	0.6868
1336	0.7144
1327	0.7246
1318	0.7238
1309	0.6415
1300	0.4785
1291	0.6785
1282	0.6419
1273	0.6742
1264	0.7401
1255	0.7558
1246	0.759
1237	0.7344
1228	0.6843
1219	0.6674
1210	0.6742
1201	0.6614
1192	0.6465
1183	0.7185
1174	0.7556
1165	0.7605
1156	0.745
1147	0.6761
1138	0.543
1129	0.3321
1120	0.0419
1111	0.5109
1102	0.7032
1093	0.7418
1084	0.7438
1075	0.7299
1066	0.5908
1057	0.417
1048	0.2949
1039	0.1421
1030	0.1141
1021	0.1222
1012	0.1852
1003	0.4625
994	0.6461
985	0.7038
976	0.716
967	0.686
958	0.3121
949	0.1993
940	0.4186
931	0.1884
922	0.1581
913	0.6146
904	0.7483
895	0.785
886	0.7996
877	0.8097
868	0.8172
859	0.824
850	0.8314
841	0.831
832	0.8257
823	0.8267
814	0.8266
805	0.8235
796	0.8221
787	0.8178
778	0.8072
769	0.7845
760	0.7305
751	0.7169
742	0.7489
733	0.7705
724	0.7875
715	0.7941
706	0.7922
697	0.7861
688	0.7746
679	0.7472
670	0.6434
661	0.6714
652	0.7225
643	0.7688
634	0.7765
625	0.7793
616	0.7721
607	0.7365
598	0.6856
589	0.7739
580	0.7733
571	0.7642
562	0.649
553	0.7695
544	0.7861
535	0.7942
526	0.7989
517	0.8022
508	0.8051
499	0.8076
490	0.8037
481	0.7553
472	0.7918
