Infrared Spectrum: 1,3,5-BENZENETRICARBONYL TRICHLORIDE
Formula: C9 H3 Cl3 O3
CAS: 4422-95-1
State: LIQUID (NEAT)
Class: COBLENTZ III
Instrument: PERKIN-ELMER 521 (GRATING)
Instrument parameters: FILTERS AT 3150, 2500, 2000, 1150, 700, 410 AND GRATING CHANGES AT 2000, 630 CM^-^1
Sampling: TRANSMISSION
Path length: CAPILLARY, KBr CRYSTALS
Resolution: 4
Origin: STANDARD OIL OF OHIO
1/CM	TRANSMITTANCE
424.821	0.706
434.368	0.692
443.914	0.693
453.461	0.731
463.007	0.775
472.554	0.807
482.1	0.811
491.647	0.779
501.193	0.801
510.74	0.848
520.286	0.848
529.833	0.852
539.38	0.849
548.926	0.793
558.473	0.826
568.019	0.828
577.566	0.791
587.112	0.756
596.659	0.799
606.205	0.758
615.752	0.732
625.299	0.807
634.845	0.809
644.392	0.807
653.938	0.792
663.485	0.749
673.031	0.249
682.578	0.378
692.124	0.167
701.671	0.167
711.217	0.233
720.764	0.533
730.311	0.553
739.857	0.504
749.404	0.755
758.95	0.811
768.497	0.818
778.043	0.823
787.59	0.815
797.136	0.812
806.683	0.804
816.229	0.78
825.776	0.692
835.323	0.533
844.869	0.585
854.416	0.707
863.962	0.779
873.509	0.793
883.055	0.798
892.602	0.799
902.148	0.792
911.695	0.73
921.242	0.65
930.788	0.766
940.335	0.767
949.881	0.766
959.428	0.747
968.974	0.694
978.521	0.527
988.067	0.457
997.614	0.242
1007.16	0.31
1016.71	0.106
1026.25	0.142
1035.8	0.554
1045.35	0.714
1054.89	0.76
1064.44	0.766
1073.99	0.764
1083.53	0.756
1093.08	0.72
1102.63	0.656
1112.17	0.583
1121.72	0.508
1131.27	0.325
1140.81	0.161
1150.36	0.112
1159.91	0.272
1169.45	0.65
1179	0.737
1188.54	0.772
1198.09	0.787
1207.64	0.81
1217.18	0.813
1226.73	0.813
1236.28	0.807
1245.82	0.798
1255.37	0.775
1264.92	0.739
1274.46	0.634
1284.01	0.704
1293.56	0.769
1303.1	0.801
1312.65	0.768
1322.2	0.819
1331.74	0.831
1341.29	0.836
1350.84	0.837
1360.38	0.836
1369.93	0.834
1379.48	0.824
1389.02	0.834
1398.57	0.824
1408.12	0.812
1417.66	0.78
1427.21	0.632
1436.76	0.658
1446.3	0.825
1455.85	0.84
1465.39	0.847
1474.94	0.848
1484.49	0.848
1494.03	0.85
1503.58	0.848
1513.13	0.847
1522.67	0.847
1532.22	0.837
1541.77	0.832
1551.31	0.825
1560.86	0.825
1570.41	0.807
1579.95	0.764
1589.5	0.44
1599.05	0.706
1608.59	0.801
1618.14	0.821
1627.69	0.826
1637.23	0.823
1646.78	0.817
1656.33	0.809
1665.87	0.792
1675.42	0.769
1684.97	0.742
1694.51	0.715
1704.06	0.688
1713.61	0.645
1723.15	0.591
1732.7	0.531
1742.24	0.316
1751.79	0.072
1761.34	0.053
1770.88	0.07
1780.43	0.155
1789.98	0.447
1799.52	0.645
1809.07	0.696
1818.62	0.705
1828.16	0.717
1837.71	0.742
1847.26	0.752
1856.8	0.745
1866.35	0.76
1875.9	0.779
1885.44	0.797
1894.99	0.817
1904.54	0.83
1914.08	0.836
1923.63	0.842
1933.18	0.843
1942.72	0.847
1952.27	0.837
1961.82	0.834
1971.36	0.831
1980.91	0.83
1990.45	0.829
2000	0.83
2009.55	0.844
2019.09	0.844
2028.64	0.846
2038.19	0.846
2047.73	0.843
2057.28	0.846
2066.83	0.847
2076.37	0.846
2085.92	0.844
2095.47	0.844
2105.01	0.844
2114.56	0.844
2124.11	0.844
2133.65	0.844
2143.2	0.844
2152.75	0.844
2162.29	0.843
2171.84	0.846
2181.39	0.8458
2190.93	0.846
2200.48	0.8443
2210.03	0.846
2219.57	0.844
2229.12	0.846
2238.67	0.8442
2248.21	0.844
2257.76	0.844
2267.3	0.844
2276.85	0.8458
2286.4	0.843
2295.94	0.843
2305.49	0.8429
2315.04	0.8431
2324.58	0.843
2334.13	0.8439
2343.68	0.847
2353.22	0.846
2362.77	0.846
2372.32	0.8468
2381.86	0.849
2391.41	0.8462
2400.96	0.8457
2410.5	0.844
2420.05	0.843
2429.6	0.8456
2439.14	0.846
2448.69	0.8462
2458.24	0.8488
2467.78	0.847
2477.33	0.849
2486.88	0.849
2496.42	0.849
2505.97	0.848
2515.52	0.848
2525.06	0.85
2534.61	0.85
2544.15	0.849
2553.7	0.8472
2563.25	0.847
2572.79	0.847
2582.34	0.847
2591.89	0.8488
2601.43	0.85
2610.98	0.849
2620.53	0.8515
2630.07	0.8515
2639.62	0.8527
2649.17	0.853
2658.71	0.8527
2668.26	0.852
2677.81	0.8514
2687.35	0.85
2696.9	0.85
2706.45	0.85
2715.99	0.85
2725.54	0.849
2735.09	0.8487
2744.63	0.846
2754.18	0.846
2763.73	0.8487
2773.27	0.85
2782.82	0.85
2792.37	0.852
2801.91	0.8523
2811.46	0.8493
2821	0.849
2830.55	0.8496
2840.1	0.8494
2849.64	0.835
2859.19	0.8316
2868.74	0.8423
2878.28	0.847
2887.83	0.847
2897.38	0.849
2906.92	0.846
2916.47	0.847
2926.02	0.8466
2935.56	0.8486
2945.11	0.849
2954.66	0.852
2964.2	0.852
2973.75	0.852
2983.3	0.852
2992.84	0.848
3002.39	0.848
3011.94	0.849
3021.48	0.8466
3031.03	0.848
3040.58	0.849
3050.12	0.8448
3059.67	0.8309
3069.21	0.7721
3078.76	0.6813
3088.31	0.6595
3097.85	0.7634
3107.4	0.846
3116.95	0.849
3126.49	0.8556
3136.04	0.862
3145.59	0.862
3155.13	0.862
3164.68	0.863
3174.23	0.862
3183.77	0.863
3193.32	0.866
3202.87	0.866
3212.41	0.865
3221.96	0.8625
3231.51	0.862
3241.05	0.862
3250.6	0.862
3260.15	0.861
3269.69	0.861
3279.24	0.861
3288.79	0.86
3298.33	0.86
3307.88	0.861
3317.43	0.861
3326.97	0.861
3336.52	0.862
3346.06	0.863
3355.61	0.866
3365.16	0.8664
3374.7	0.867
3384.25	0.869
3393.8	0.871
3403.34	0.871
3412.89	0.869
3422.44	0.869
3431.98	0.868
3441.53	0.8656
3451.08	0.86
3460.62	0.8556
3470.17	0.8526
3479.72	0.8486
3489.26	0.85
3498.81	0.8476
3508.36	0.8494
3517.9	0.8534
3527.45	0.8634
3537	0.869
3546.54	0.875
3556.09	0.877
3565.64	0.8773
3575.18	0.878
3584.73	0.879
3594.28	0.879
3603.82	0.88
3613.37	0.879
3622.91	0.879
3632.46	0.881
3642.01	0.881
3651.55	0.883
3661.1	0.8833
3670.65	0.883
3680.19	0.8833
3689.74	0.883
3699.29	0.884
3708.83	0.88
3718.38	0.88
3727.93	0.88
3737.47	0.878
3747.02	0.88
3756.57	0.88
3766.11	0.88
3775.66	0.88
3785.21	0.881
3794.75	0.8788
3804.3	0.878
3813.85	0.878
3823.39	0.878
3832.94	0.878
3842.49	0.8798
3852.03	0.875
3861.58	0.875
3871.13	0.878
3880.67	0.878
3890.22	0.8748
