Infrared Spectrum: N-HEPTYLISOTHIOCYANATE
Formula: C8 H15 N S
CAS: 4426-83-9
State: LIQUID
Boiling point: 107-109 C AT 10 mmHg
Class: COBLENTZ
Instrument: Not specified, most likely a prism, grating, or hybrid spectrometer.
Sampling: TRANSMISSION
Path length: 0.005 CM
Resolution: 4
Origin: WYANDOTTE CHEMICALS CORP., WYANDOTTE, MICHIGAN, USA
MICROMETERS	TRANSMITTANCE
2.013	0.975
2.05287	0.975
2.09274	0.971
2.13261	0.968
2.17247	0.961
2.21234	0.943
2.25221	0.925
2.29208	0.921
2.33195	0.923
2.37182	0.923
2.41169	0.926
2.45155	0.931
2.49142	0.948
2.53129	0.956
2.57116	0.946
2.61103	0.958
2.6509	0.965
2.69076	0.96
2.73063	0.96
2.7705	0.96
2.81037	0.961
2.85024	0.961
2.89011	0.953
2.92998	0.946
2.96984	0.945
3.00971	0.945
3.04958	0.941
3.08945	0.928
3.12932	0.915
3.16919	0.903
3.20906	0.888
3.24892	0.866
3.28879	0.82
3.32866	0.572
3.36853	0.089
3.4084	0.063
3.44827	0.196
3.48813	0.103
3.528	0.234
3.56787	0.728
3.60774	0.787
3.64761	0.795
3.68748	0.82
3.72735	0.833
3.76721	0.85
3.80708	0.86
3.84695	0.865
3.88682	0.866
3.92669	0.871
3.96656	0.88
4.00643	0.883
4.04629	0.888
4.08616	0.893
4.12603	0.891
4.1659	0.891
4.20577	0.89
4.24564	0.888
4.2855	0.878
4.32537	0.866
4.36524	0.833
4.40511	0.783
4.44498	0.727
4.48485	0.618
4.52472	0.442
4.56458	0.229
4.60445	0.079
4.64432	0.031
4.68419	0.028
4.72406	0.024
4.76393	0.024
4.8038	0.023
4.84366	0.023
4.88353	0.028
4.9234	0.046
4.96327	0.202
5.00314	0.312
5.04301	0.465
5.08287	0.62
5.12274	0.69
5.16261	0.743
5.20248	0.792
5.24235	0.831
5.28222	0.853
5.32209	0.868
5.36195	0.875
5.40182	0.88
5.44169	0.88
5.48156	0.883
5.52143	0.885
5.5613	0.885
5.60117	0.881
5.64103	0.878
5.6809	0.878
5.72077	0.871
5.76064	0.853
5.80051	0.818
5.84038	0.856
5.88024	0.851
5.92011	0.868
5.95998	0.861
5.99985	0.871
6.03972	0.865
6.07959	0.863
6.11946	0.865
6.15932	0.861
6.19919	0.856
6.23906	0.856
6.27893	0.858
6.3188	0.85
6.35867	0.85
6.39854	0.846
6.4384	0.84
6.47827	0.831
6.51814	0.82
6.55801	0.815
6.59788	0.797
6.63775	0.775
6.67761	0.753
6.71748	0.672
6.75735	0.417
6.79722	0.201
6.83709	0.191
6.87696	0.276
6.91683	0.435
6.95669	0.605
6.99656	0.705
7.03643	0.738
7.0763	0.743
7.11617	0.74
7.15604	0.725
7.19591	0.592
7.23577	0.475
7.27564	0.424
7.31551	0.369
7.35538	0.299
7.39525	0.128
7.43512	0.247
7.47498	0.492
7.51485	0.58
7.55472	0.58
7.59459	0.595
7.63446	0.605
7.67433	0.632
7.7142	0.668
7.75406	0.687
7.79393	0.71
7.8338	0.725
7.87367	0.695
7.91354	0.715
7.95341	0.717
7.99328	0.728
8.03314	0.757
8.07301	0.775
8.11288	0.767
8.15275	0.733
8.19262	0.742
8.23249	0.76
8.27236	0.783
8.31222	0.788
8.35209	0.777
8.39196	0.782
8.43183	0.785
8.4717	0.803
8.51157	0.818
8.55143	0.813
8.5913	0.816
8.63117	0.825
8.67104	0.825
8.71091	0.821
8.75078	0.813
8.79065	0.805
8.83051	0.783
8.87038	0.762
8.91025	0.773
8.95012	0.793
8.98999	0.803
9.02986	0.795
9.06973	0.773
9.10959	0.743
9.14946	0.727
9.18933	0.722
9.2292	0.732
9.26907	0.743
9.30894	0.753
9.3488	0.75
9.38867	0.748
9.42854	0.745
9.46841	0.748
9.50828	0.76
9.54815	0.77
9.58802	0.763
9.62788	0.748
9.66775	0.762
9.70762	0.777
9.74749	0.778
9.78736	0.782
9.82723	0.778
9.8671	0.787
9.90696	0.797
9.94683	0.801
9.9867	0.81
10.0266	0.811
10.0664	0.8
10.1063	0.792
10.1462	0.788
10.186	0.787
10.2259	0.792
10.2658	0.798
10.3056	0.806
10.3455	0.803
10.3854	0.798
10.4253	0.797
10.4651	0.793
10.505	0.795
10.5449	0.795
10.5847	0.801
10.6246	0.808
10.6645	0.813
10.7043	0.82
10.7442	0.823
10.7841	0.825
10.8239	0.828
10.8638	0.828
10.9037	0.828
10.9435	0.823
10.9834	0.815
11.0233	0.801
11.0632	0.792
11.103	0.785
11.1429	0.783
11.1828	0.792
11.2226	0.795
11.2625	0.797
11.3024	0.798
11.3422	0.803
11.3821	0.815
11.422	0.823
11.4618	0.831
11.5017	0.831
11.5416	0.825
11.5814	0.83
11.6213	0.835
11.6612	0.841
11.701	0.845
11.7409	0.845
11.7808	0.843
11.8207	0.833
11.8605	0.83
11.9004	0.828
11.9403	0.825
11.9801	0.831
12.02	0.821
12.0599	0.82
12.0997	0.823
12.1396	0.83
12.1795	0.835
12.2193	0.836
12.2592	0.836
12.2991	0.831
12.3389	0.821
12.3788	0.808
12.4187	0.797
12.4585	0.783
12.4984	0.772
12.5383	0.758
12.5782	0.747
12.618	0.745
12.6579	0.757
12.6978	0.77
12.7376	0.783
12.7775	0.8
12.8174	0.803
12.8572	0.803
12.8971	0.798
12.937	0.79
12.9768	0.783
13.0167	0.778
13.0566	0.775
13.0964	0.772
13.1363	0.762
13.1762	0.752
13.216	0.742
13.2559	0.738
13.2958	0.74
13.3357	0.742
13.3755	0.74
13.4154	0.733
13.4553	0.732
13.4951	0.732
13.535	0.738
13.5749	0.738
13.6147	0.72
13.6546	0.692
13.6945	0.66
13.7343	0.617
13.7742	0.555
13.8141	0.552
13.8539	0.592
13.8938	0.637
13.9337	0.675
13.9736	0.702
14.0134	0.727
14.0533	0.735
14.0932	0.743
14.133	0.745
14.1729	0.745
14.2128	0.743
14.2526	0.738
14.2925	0.728
14.3324	0.715
14.3722	0.693
14.4121	0.678
14.452	0.663
14.4918	0.645
14.5317	0.63
14.5716	0.625
14.6114	0.627
14.6513	0.632
14.6912	0.64
14.7311	0.65
14.7709	0.66
14.8108	0.673
14.8507	0.687
14.8905	0.695
14.9304	0.702
14.9703	0.702
15.0101	0.705
15.05	0.713
15.0899	0.718
15.1297	0.718
15.1696	0.712
15.2095	0.705
15.2493	0.702
15.2892	0.695
15.3291	0.688
15.3689	0.68
15.4088	0.672
15.4487	0.665
15.4886	0.658
15.5284	0.652
15.5683	0.647
15.6082	0.648
15.648	0.652
15.6879	0.652
15.7278	0.652
15.7676	0.653
15.8075	0.653
15.8474	0.655
15.8872	0.657
15.9271	0.66
15.967	0.663
