Infrared Spectrum: Aniline, N-hexadecyl-
Formula: C22 H39 N
CAS: 4439-42-3
State: SOLID (OIL MULL)
Class: COBLENTZ III
Instrument: BECKMAN IR-4 (HYBRID PRISM-GRATING)
Instrument parameters: NaCl PRISM
Sampling: TRANSMISSION
Resolution: 2
Origin: MONSANTO (J. FREEMAN)
1/CM	TRANSMITTANCE
626.191	0.7681
635.023	0.7689
643.854	0.7651
652.686	0.7924
661.517	0.7587
670.349	0.7526
679.18	0.8428
688.012	0.4668
696.843	0.6108
705.675	0.8351
714.506	0.7635
723.338	0.445
732.169	0.6884
741.001	0.5355
749.832	0.1661
758.664	0.809
767.495	0.8802
776.327	0.9044
785.158	0.9162
793.99	0.9136
802.821	0.9303
811.653	0.9183
820.484	0.9016
829.316	0.9065
838.147	0.896
846.979	0.946
855.811	0.945
864.642	0.8962
873.474	0.6725
882.305	0.9183
891.137	0.9209
899.968	0.9451
908.8	0.9473
917.631	0.9459
926.463	0.9447
935.294	0.9433
944.126	0.9383
952.957	0.933
961.789	0.9368
970.62	0.9271
979.452	0.9245
988.283	0.833
997.115	0.8917
1005.95	0.9305
1014.78	0.9446
1023.61	0.9305
1032.44	0.9194
1041.27	0.9098
1050.1	0.936
1058.94	0.9291
1067.77	0.8779
1076.6	0.9063
1085.43	0.871
1094.26	0.8541
1103.09	0.9188
1111.92	0.9047
1120.76	0.874
1129.59	0.8497
1138.42	0.8964
1147.25	0.8874
1156.08	0.7469
1164.91	0.889
1173.75	0.8923
1182.58	0.7619
1191.41	0.9025
1200.24	0.9087
1209.07	0.9014
1217.9	0.8899
1226.73	0.8958
1235.57	0.7924
1244.4	0.808
1253.23	0.6256
1262.06	0.6112
1270.89	0.7129
1279.72	0.7661
1288.56	0.7811
1297.39	0.7656
1306.22	0.6541
1315.05	0.3638
1323.88	0.5002
1332.71	0.7068
1341.54	0.7932
1350.38	0.8224
1359.21	0.8354
1368.04	0.7611
1376.87	0.6102
1385.7	0.7001
1394.53	0.8687
1403.36	0.8892
1412.2	0.8862
1421.03	0.8178
1429.86	0.6182
1438.69	0.6034
1447.52	0.5439
1456.35	0.3686
1465.19	0.1694
1474.02	0.2381
1482.85	0.591
1491.68	0.6639
1500.51	0.4713
1509.34	0.2276
1518.17	0.3524
1527.01	0.5934
1535.84	0.8096
1544.67	0.8551
1553.5	0.8733
1562.33	0.8682
1571.16	0.8618
1580	0.7771
1588.83	0.6274
1597.66	0.3217
1606.49	0.2294
1615.32	0.5631
1624.15	0.7587
1632.98	0.878
1641.82	0.9108
1650.65	0.9151
1659.48	0.9366
1668.31	0.9412
1677.14	0.9292
1685.97	0.9271
1694.81	0.9274
1703.64	0.9337
1712.47	0.9475
1721.3	0.9554
1730.13	0.9577
1738.96	0.9565
1747.79	0.9518
1756.63	0.9458
1765.46	0.9366
1774.29	0.938
1783.12	0.9477
1791.95	0.9473
1800.78	0.9444
1809.61	0.9394
1818.45	0.9295
1827.28	0.9217
1836.11	0.925
1844.94	0.9333
1853.77	0.9418
1862.6	0.9445
1871.44	0.9435
1880.27	0.9417
1889.1	0.9384
1897.93	0.9324
1906.76	0.9226
1915.59	0.9008
1924.42	0.8975
1933.26	0.9241
1942.09	0.9321
1950.92	0.9383
1959.75	0.9414
1968.58	0.9415
1977.41	0.9408
1986.25	0.9399
1995.08	0.9386
2003.91	0.9354
2012.74	0.9307
2021.57	0.9287
2030.4	0.9281
2039.23	0.9275
2048.07	0.9286
2056.9	0.9299
2065.73	0.931
2074.56	0.932
2083.39	0.9325
2092.22	0.9321
2101.05	0.9317
2109.89	0.9308
2118.72	0.9296
2127.55	0.9285
2136.38	0.9274
2145.21	0.9263
2154.04	0.9252
2162.88	0.9243
2171.71	0.9238
2180.54	0.9232
2189.37	0.9228
2198.2	0.9225
2207.03	0.9221
2215.86	0.9218
2224.7	0.9213
2233.53	0.9208
2242.36	0.9201
2251.19	0.9194
2260.02	0.9176
2268.85	0.9159
2277.69	0.9142
2286.52	0.9125
2295.35	0.9101
2304.18	0.9074
2313.01	0.9047
2321.84	0.9011
2330.67	0.8954
2339.51	0.8901
2348.34	0.8856
2357.17	0.8811
2366	0.8767
2374.83	0.8742
2383.66	0.8764
2392.5	0.8884
2401.33	0.9042
2410.16	0.9067
2418.99	0.9079
2427.82	0.9079
2436.65	0.9076
2445.48	0.9069
2454.32	0.9061
2463.15	0.9045
2471.98	0.903
2480.81	0.9015
2489.64	0.8999
2498.47	0.8978
2507.3	0.8956
2516.14	0.8933
2524.97	0.8904
2533.8	0.8872
2542.63	0.884
2551.46	0.8797
2560.29	0.8743
2569.13	0.8673
2577.96	0.8602
2586.79	0.8536
2595.62	0.8471
2604.45	0.8408
2613.28	0.8352
2622.11	0.8297
2630.95	0.8258
2639.78	0.8229
2648.61	0.8213
2657.44	0.8198
2666.27	0.8187
2675.1	0.8185
2683.94	0.8183
2692.77	0.8174
2701.6	0.8157
2710.43	0.8118
2719.26	0.8069
2728.09	0.8018
2736.92	0.7969
2745.76	0.7939
2754.59	0.791
2763.42	0.7884
2772.25	0.7858
2781.08	0.7775
2789.91	0.7496
2798.75	0.7225
2807.58	0.6754
2816.41	0.5908
2825.24	0.3001
2834.07	0.0524
2842.9	0.0518
2851.73	0.0612
2860.57	0.0706
2869.4	0.0799
2878.23	0.0822
2887.06	0.0279
2895.89	0.0105
2904.72	0.0062
2913.55	0.0051
2922.39	0.0049
2931.22	0.0072
2940.05	0.0614
2948.88	0.117
2957.71	0.172
2966.54	0.2269
2975.38	0.2814
2984.21	0.3356
2993.04	0.3894
3001.87	0.443
3010.7	0.4963
3019.53	0.5492
3028.36	0.6018
3037.2	0.6351
3046.03	0.6364
3054.86	0.6379
3063.69	0.6482
3072.52	0.6679
3081.35	0.6875
3090.19	0.7068
3099.02	0.7261
3107.85	0.7453
3116.68	0.7644
3125.51	0.7835
3134.34	0.7981
3143.17	0.8024
3152.01	0.8041
3160.84	0.8051
3169.67	0.8053
3178.5	0.8055
3187.33	0.8056
3196.16	0.8054
3205	0.8049
3213.83	0.8045
3222.66	0.804
3231.49	0.8045
3240.32	0.8025
3249.15	0.8014
3257.98	0.8003
3266.82	0.7992
3275.65	0.7981
3284.48	0.7962
3293.31	0.7941
3302.14	0.7913
3310.97	0.7876
3319.8	0.784
3328.64	0.758
3337.47	0.6886
3346.3	0.6186
3355.13	0.549
3363.96	0.5309
3372.79	0.5541
3381.63	0.5965
3390.46	0.6385
3399.29	0.6805
3408.12	0.7163
3416.95	0.7302
3425.78	0.7404
3434.61	0.7501
3443.45	0.7582
3452.28	0.7645
3461.11	0.7687
3469.94	0.7723
3478.77	0.7749
3487.6	0.7763
3496.44	0.7776
3505.27	0.7783
3514.1	0.7787
3522.93	0.7788
3531.76	0.7782
3540.59	0.7776
3549.42	0.7769
3558.26	0.776
3567.09	0.7746
3575.92	0.7732
3584.75	0.7719
3593.58	0.7698
3602.41	0.7677
3611.25	0.7672
3620.08	0.767
3628.91	0.7677
3637.74	0.7687
3646.57	0.7696
3655.4	0.7702
3664.23	0.7707
3673.07	0.7712
3681.9	0.7717
3690.73	0.7721
3699.56	0.7725
3708.39	0.7729
3717.22	0.7732
3726.05	0.7735
3734.89	0.7733
3743.72	0.773
3752.55	0.7724
3761.38	0.7712
3770.21	0.7701
3779.04	0.7689
3787.88	0.7678
3796.71	0.7667
3805.54	0.7655
3814.37	0.7644
3823.2	0.7632
3832.03	0.7621
3840.86	0.761
3849.7	0.7599
3858.53	0.759
3867.36	0.7582
3876.19	0.7574
3885.02	0.7565
3893.85	0.7557
3902.69	0.7548
3911.52	0.754
3920.35	0.7532
3929.18	0.7524
