Infrared Spectrum: o-Iodo-Alpha,Alpha,Alpha-trifluorotoluene
Formula: C7 H4 F3 I
CAS: 444-29-1
State: SOLUTION (10% CCl4 FOR 3800-1330, 10% CS2 FOR 1330-460 CM^-^1)
Class: COBLENTZ III
Instrument: DOW KBr FOREPRISM-GRATING
Instrument parameters: BLAZED AT 3.5, 12.0, 20.0 MICRON AND CHANGED AT 5.0, 7.5, 14.9 MICRON
Sampling: TRANSMISSION
Path length: 0.010 CM, 0.010 CM
Resolution: 2
Origin: DOW CHEMICAL COMPANY
1/CM	TRANSMITTANCE
3800	0.9076
3791	0.9089
3782	0.9076
3773	0.9084
3764	0.9079
3755	0.9073
3746	0.907
3737	0.9085
3728	0.9091
3719	0.909
3710	0.9109
3701	0.9109
3692	0.9068
3683	0.9069
3674	0.9086
3665	0.9101
3656	0.9107
3647	0.9108
3638	0.9108
3629	0.9109
3620	0.9122
3611	0.9123
3602	0.9116
3593	0.9125
3584	0.9127
3575	0.9116
3566	0.9109
3557	0.9103
3548	0.9103
3539	0.9085
3530	0.9082
3521	0.9062
3512	0.9056
3503	0.9058
3494	0.9067
3485	0.9074
3476	0.9081
3467	0.9088
3458	0.9092
3449	0.9095
3440	0.9093
3431	0.9085
3422	0.9092
3413	0.91
3404	0.9106
3395	0.911
3386	0.9118
3377	0.9126
3368	0.9134
3359	0.9142
3350	0.915
3341	0.9157
3332	0.9159
3323	0.9161
3314	0.9164
3305	0.9181
3296	0.9175
3287	0.9179
3278	0.9192
3269	0.9196
3260	0.9198
3251	0.9199
3242	0.9202
3233	0.9204
3224	0.9207
3215	0.9209
3206	0.9199
3197	0.921
3188	0.9214
3179	0.9201
3170	0.9204
3161	0.9212
3152	0.9172
3143	0.9152
3134	0.9188
3125	0.9195
3116	0.9197
3107	0.9197
3098	0.919
3089	0.9015
3080	0.8712
3071	0.8653
3062	0.8721
3053	0.9036
3044	0.9091
3035	0.9142
3026	0.9198
3017	0.9252
3008	0.9215
2999	0.9191
2990	0.9193
2981	0.9216
2972	0.9229
2963	0.9229
2954	0.9221
2945	0.9209
2936	0.9214
2927	0.9195
2918	0.9174
2909	0.9175
2900	0.9184
2891	0.9216
2882	0.9238
2873	0.9255
2864	0.9268
2855	0.9285
2846	0.9308
2837	0.9328
2828	0.9339
2819	0.9348
2810	0.9337
2801	0.9349
2792	0.9346
2783	0.9341
2774	0.9348
2765	0.9353
2756	0.936
2747	0.9368
2738	0.938
2729	0.9401
2720	0.9413
2711	0.9422
2702	0.9427
2693	0.9429
2684	0.9428
2675	0.943
2666	0.9432
2657	0.9448
2648	0.944
2639	0.9399
2630	0.9376
2621	0.9399
2612	0.9387
2603	0.9379
2594	0.9406
2585	0.9431
2576	0.9454
2567	0.9472
2558	0.9493
2549	0.9505
2540	0.9502
2531	0.95
2522	0.9501
2513	0.9501
2504	0.9506
2495	0.9506
2486	0.9505
2477	0.9518
2468	0.9519
2459	0.9529
2450	0.9533
2441	0.955
2432	0.9562
2423	0.9579
2414	0.958
2405	0.9548
2396	0.9559
2387	0.9582
2378	0.9618
2369	0.9629
2360	0.9647
2351	0.9687
2342	0.9693
2333	0.9628
2324	0.9563
2315	0.9515
2306	0.9495
2297	0.9503
2288	0.95
2279	0.9501
2270	0.9495
2261	0.9473
2252	0.952
2243	0.9561
2234	0.9559
2225	0.9557
2216	0.957
2207	0.9573
2198	0.9574
2189	0.9563
2180	0.9574
2171	0.9605
2162	0.9601
2153	0.9608
2144	0.9618
2135	0.9619
2126	0.9616
2117	0.9608
2108	0.9539
2099	0.9423
2090	0.947
2081	0.9538
2072	0.9535
2063	0.9528
2054	0.9544
2045	0.9532
2036	0.9521
2027	0.9522
2018	0.952
2009	0.9511
2000	0.9498
1991	0.918
1982	0.9174
1973	0.9137
1964	0.8951
1955	0.9179
1946	0.9096
1937	0.8816
1928	0.9
1919	0.909
1910	0.909
1901	0.9085
1892	0.9143
1883	0.9175
1874	0.9203
1865	0.9174
1856	0.9041
1847	0.9029
1838	0.9114
1829	0.9089
1820	0.8761
1811	0.9075
1802	0.9124
1793	0.9175
1784	0.9194
1775	0.9205
1766	0.9202
1757	0.9175
1748	0.915
1739	0.9118
1730	0.9173
1721	0.9119
1712	0.903
1703	0.9081
1694	0.9067
1685	0.8897
1676	0.8912
1667	0.9059
1658	0.9042
1649	0.8987
1640	0.8863
1631	0.8655
1622	0.8891
1613	0.8918
1604	0.8365
1595	0.5074
1586	0.6862
1577	0.6509
1568	0.6879
1559	0.7323
1550	0.7602
1541	0.8275
1532	0.8567
1523	0.8494
1514	0.8679
1505	0.8793
1496	0.8817
1487	0.8421
1478	0.7
1469	0.7886
1460	0.8621
1451	0.8225
1442	0.2227
1433	0.8116
1424	0.6952
1415	0.8665
1406	0.9096
1397	0.9192
1388	0.9276
1379	0.8871
1370	0.891
1361	0.8538
1352	0.8731
1343	0.8609
1334	0.7472
1325	0.5814
1316	0.035
1307	0.0205
1298	0.5461
1289	0.5883
1280	0.6604
1271	0.6857
1262	0.1646
1253	0.7474
1244	0.8214
1235	0.8503
1226	0.8576
1217	0.8291
1208	0.8069
1199	0.5921
1190	0.5785
1181	0.3223
1172	0.0109
1163	0.264
1154	0.2445
1145	0.021
1136	0.0094
1127	0.2917
1118	0.5347
1109	0.0543
1100	0.4552
1091	0.4811
1082	0.4445
1073	0.8108
1064	0.8333
1055	0.8114
1046	0.8041
1037	0.3621
1028	0.7142
1019	0.6245
1010	0.2749
1001	0.785
992	0.8587
983	0.8654
974	0.8748
965	0.8755
956	0.8547
947	0.8131
938	0.8598
929	0.8722
920	0.8779
911	0.8793
902	0.8766
893	0.8607
884	0.8516
875	0.8319
866	0.7841
857	0.8123
848	0.8291
839	0.8592
830	0.8682
821	0.8713
812	0.8696
803	0.8683
794	0.8526
785	0.8481
776	0.7422
767	0.4016
758	0.3888
749	0.8107
740	0.8374
731	0.8344
722	0.2894
713	0.8358
704	0.8517
695	0.8448
686	0.8361
677	0.3406
668	0.7979
659	0.834
650	0.8155
641	0.6164
632	0.8057
623	0.8311
614	0.8317
605	0.8196
596	0.7151
587	0.8189
578	0.8171
569	0.8168
560	0.8136
551	0.809
542	0.8059
533	0.8045
524	0.8033
515	0.7995
506	0.7806
497	0.7771
488	0.7827
479	0.7784
470	0.7713
461	0.7649
