Infrared Spectrum: 2'-Fluoroacetophenone
Formula: C8 H7 F O
CAS: 445-27-2
State: SOLUTION (10% CCl4 FOR 3800-1330, 10% CS2 FOR 1330-460 CM^-^1)
Class: COBLENTZ III
Instrument: DOW KBr FOREPRISM-GRATING
Instrument parameters: BLAZED AT 3.5, 12.0, 20.0 MICRON AND CHANGED AT 5.0, 7.5, 14.9 MICRON
Sampling: TRANSMISSION
Path length: 0.010 CM, 0.010 CM
Resolution: 2
Origin: DOW CHEMICAL COMPANY
1/CM	TRANSMITTANCE
3798	0.8806
3789	0.8809
3780	0.8806
3771	0.8809
3762	0.8813
3753	0.8817
3744	0.8821
3735	0.8833
3726	0.8838
3717	0.8841
3708	0.8851
3699	0.885
3690	0.8808
3681	0.8714
3672	0.8707
3663	0.875
3654	0.8778
3645	0.8787
3636	0.8793
3627	0.8794
3618	0.8793
3609	0.8791
3600	0.8789
3591	0.8793
3582	0.8789
3573	0.8777
3564	0.8756
3555	0.8748
3546	0.8739
3537	0.8728
3528	0.8716
3519	0.8716
3510	0.8715
3501	0.8717
3492	0.8724
3483	0.873
3474	0.874
3465	0.875
3456	0.876
3447	0.8768
3438	0.8776
3429	0.8783
3420	0.8789
3411	0.8792
3402	0.878
3393	0.876
3384	0.8719
3375	0.8574
3366	0.8163
3357	0.8175
3348	0.8507
3339	0.8665
3330	0.8733
3321	0.8769
3312	0.8792
3303	0.8791
3294	0.88
3285	0.8811
3276	0.8825
3267	0.8847
3258	0.8863
3249	0.8878
3240	0.8878
3231	0.8859
3222	0.8827
3213	0.8824
3204	0.8837
3195	0.8861
3186	0.8857
3177	0.8826
3168	0.8784
3159	0.8763
3150	0.8764
3141	0.8764
3132	0.8764
3123	0.8741
3114	0.8687
3105	0.862
3096	0.8229
3087	0.7208
3078	0.7532
3069	0.8004
3060	0.8246
3051	0.8161
3042	0.8005
3033	0.8239
3024	0.8157
3015	0.72
3006	0.7625
2997	0.8164
2988	0.8148
2979	0.8035
2970	0.8326
2961	0.856
2952	0.8644
2943	0.8611
2934	0.8517
2925	0.8538
2916	0.8651
2907	0.8747
2898	0.8758
2889	0.8774
2880	0.8798
2871	0.8824
2862	0.8853
2853	0.8875
2844	0.8908
2835	0.8931
2826	0.8967
2817	0.8992
2808	0.9023
2799	0.9016
2790	0.8974
2781	0.8955
2772	0.8969
2763	0.8973
2754	0.8996
2745	0.9017
2736	0.9026
2727	0.9023
2718	0.9032
2709	0.9045
2700	0.9059
2691	0.9071
2682	0.9083
2673	0.9093
2664	0.91
2655	0.9062
2646	0.9081
2637	0.9099
2628	0.9116
2619	0.9104
2610	0.9094
2601	0.9091
2592	0.9099
2583	0.9112
2574	0.9127
2565	0.9138
2556	0.9154
2547	0.9163
2538	0.9165
2529	0.9162
2520	0.9176
2511	0.9191
2502	0.9202
2493	0.9209
2484	0.9216
2475	0.9228
2466	0.9233
2457	0.9217
2448	0.9157
2439	0.9113
2430	0.9042
2421	0.9055
2412	0.9134
2403	0.9208
2394	0.9216
2385	0.922
2376	0.9255
2367	0.9262
2358	0.9283
2349	0.9296
2340	0.9304
2331	0.9285
2322	0.9163
2313	0.8998
2304	0.9081
2295	0.9122
2286	0.913
2277	0.9182
2268	0.9226
2259	0.9235
2250	0.8963
2241	0.9061
2232	0.9238
2223	0.9273
2214	0.9263
2205	0.926
2196	0.9262
2187	0.9272
2178	0.9296
2169	0.9313
2160	0.9297
2151	0.9272
2142	0.9288
2133	0.9291
2124	0.9276
2115	0.9293
2106	0.9301
2097	0.927
2088	0.9219
2079	0.913
2070	0.9035
2061	0.9065
2052	0.9075
2043	0.8981
2034	0.9142
2025	0.9178
2016	0.9173
2007	0.9142
1998	0.8962
1989	0.8744
1980	0.8732
1971	0.8743
1962	0.8483
1953	0.86
1944	0.8486
1935	0.8092
1926	0.8304
1917	0.8569
1908	0.862
1899	0.8723
1890	0.8798
1881	0.8808
1872	0.8824
1863	0.8834
1854	0.8778
1845	0.8558
1836	0.858
1827	0.8561
1818	0.8217
1809	0.8263
1800	0.8513
1791	0.8617
1782	0.8583
1773	0.8439
1764	0.8415
1755	0.836
1746	0.8125
1737	0.7898
1728	0.7366
1719	0.6511
1710	0.4282
1701	0.1317
1692	0.0001
1683	0.0132
1674	0.5983
1665	0.663
1656	0.6762
1647	0.7203
1638	0.7172
1629	0.5934
1620	0.3657
1611	0.0086
1602	0.3809
1593	0.5821
1584	0.3131
1575	0.4764
1566	0.5386
1557	0.5655
1548	0.6007
1539	0.6776
1530	0.6996
1521	0.7183
1512	0.7116
1503	0.6195
1494	0.4605
1485	0.0935
1476	0.4029
1467	0.602
1458	0.1501
1449	0.3092
1440	0.5515
1431	0.4666
1422	0.4
1413	0.6704
1404	0.7448
1395	0.7739
1386	0.7629
1377	0.5547
1368	0.1705
1359	0.4348
1350	0.7631
1341	0.8022
1332	0.7909
1323	0.7294
1314	0.6923
1305	0.6441
1296	0.3338
1287	0.0114
1278	0.0602
1269	0.1962
1260	0.5806
1251	0.4724
1242	0.2161
1233	0.1205
1224	0.3134
1215	0.1758
1206	0.4554
1197	0.6597
1188	0.7075
1179	0.7103
1170	0.7083
1161	0.7078
1152	0.36
1143	0.6974
1134	0.6757
1125	0.6939
1116	0.3685
1107	0.4933
1098	0.738
1089	0.7702
1080	0.7665
1071	0.646
1062	0.769
1053	0.7761
1044	0.7683
1035	0.6519
1026	0.6607
1017	0.6924
1008	0.7407
999	0.7714
990	0.7729
981	0.7408
972	0.5864
963	0.2423
954	0.4922
945	0.6765
936	0.7579
927	0.7881
918	0.7998
909	0.8012
900	0.7948
891	0.7792
882	0.7554
873	0.7312
864	0.6863
855	0.6896
846	0.7006
837	0.5759
828	0.2148
819	0.7293
810	0.7488
801	0.772
792	0.7542
783	0.7132
774	0.516
765	0.1229
756	0.0551
747	0.6882
738	0.7535
729	0.7637
720	0.76
711	0.7806
702	0.7059
693	0.7736
684	0.7878
675	0.7863
666	0.7843
657	0.7492
648	0.7563
639	0.768
630	0.7684
621	0.7562
612	0.7381
603	0.5943
594	0.1627
585	0.6808
576	0.7108
567	0.7137
558	0.71
549	0.6021
540	0.2174
531	0.5933
522	0.6231
513	0.5052
504	0.6696
495	0.6934
486	0.6902
477	0.6905
