Infrared Spectrum: o-Tolunitrile, Alpha,Alpha,Alpha-trifluoro-
Formula: C8 H4 F3 N
CAS: 447-60-9
State: SOLUTION (10% CCl4 FOR 3800-1340, 10% CS2 FOR 1340-460 CM^-^1)
Class: COBLENTZ III
Instrument: DOW KBr FOREPRISM-GRATING
Instrument parameters: BLAZED AT 3.5, 12.0, 20.0 MICRON AND CHANGED AT 5.0, 7.5, 14.9 MICRON
Sampling: TRANSMISSION
Path length: 0.010 CM, 0.010 CM
Resolution: 2
Origin: DOW CHEMICAL COMPANY
1/CM	TRANSMITTANCE
460	0.6877
469	0.6868
478	0.6728
487	0.6514
496	0.6534
505	0.7623
514	0.7695
523	0.77
532	0.7639
541	0.7414
550	0.4863
559	0.6603
568	0.7749
577	0.7778
586	0.7605
595	0.5713
604	0.7611
613	0.7801
622	0.782
631	0.7762
640	0.74
649	0.1707
658	0.6502
667	0.7728
676	0.8226
685	0.8288
694	0.8132
703	0.8276
712	0.8285
721	0.8237
730	0.798
739	0.5228
748	0.4282
757	0.6207
766	0.0085
775	0.3837
784	0.7447
793	0.7778
802	0.714
811	0.8073
820	0.829
829	0.8274
838	0.8002
847	0.7455
856	0.7005
865	0.723
874	0.7419
883	0.7545
892	0.8177
901	0.8277
910	0.8299
919	0.8218
928	0.8159
937	0.8418
946	0.822
955	0.6363
964	0.7318
973	0.8346
982	0.8353
991	0.8272
1000	0.8295
1009	0.8158
1018	0.7399
1027	0.4595
1036	0.201
1045	0.6392
1054	0.0102
1063	0.4504
1072	0.6891
1081	0.6961
1090	0.6918
1099	0.5547
1108	0.1494
1117	0.2472
1126	0.1197
1135	0.0001
1144	0
1153	0.0423
1162	0.1564
1171	0
1180	0.0072
1189	0.2547
1198	0.3586
1207	0.6294
1216	0.7279
1225	0.7482
1234	0.7701
1243	0.7641
1252	0.7474
1261	0.6526
1270	0.0796
1279	0.3103
1288	0.4339
1297	0.2046
1306	0.1175
1315	0
1324	0.0843
1333	0.4988
1342	0.5861
1351	0.6935
1360	0.6716
1369	0.7875
1378	0.8236
1387	0.8412
1396	0.834
1405	0.8485
1414	0.8601
1423	0.8643
1432	0.8527
1441	0.8027
1450	0.3929
1459	0.7571
1468	0.8051
1477	0.7709
1486	0.7436
1495	0.5322
1504	0.6937
1513	0.7011
1522	0.6606
1531	0.6044
1540	0.5264
1549	0.4776
1558	0.5008
1567	0.5636
1576	0.5796
1585	0.2999
1594	0.6516
1603	0.5679
1612	0.7823
1621	0.8227
1630	0.8161
1639	0.7852
1648	0.7955
1657	0.8122
1666	0.8386
1675	0.8514
1684	0.8548
1693	0.8602
1702	0.8657
1711	0.8661
1720	0.8614
1729	0.8539
1738	0.8569
1747	0.865
1756	0.8702
1765	0.8695
1774	0.8699
1783	0.8724
1792	0.8707
1801	0.8684
1810	0.8664
1819	0.8652
1828	0.8625
1837	0.832
1846	0.8239
1855	0.8551
1864	0.8649
1873	0.8551
1882	0.8529
1891	0.8627
1900	0.8673
1909	0.8641
1918	0.8569
1927	0.8641
1936	0.8667
1945	0.8445
1954	0.8217
1963	0.8551
1972	0.8589
1981	0.8342
1990	0.848
1999	0.8746
2008	0.8928
2017	0.8991
2026	0.9012
2035	0.9024
2044	0.9029
2053	0.902
2062	0.9013
2071	0.9016
2080	0.9041
2089	0.9067
2098	0.9089
2107	0.9099
2116	0.9083
2125	0.9019
2134	0.8956
2143	0.9082
2152	0.9092
2161	0.9091
2170	0.9084
2179	0.9052
2188	0.8983
2197	0.8983
2206	0.904
2215	0.9012
2224	0.896
2233	0.8843
2242	0.741
2251	0.7201
2260	0.847
2269	0.8536
2278	0.8731
2287	0.8744
2296	0.872
2305	0.8737
2314	0.8771
2323	0.8809
2332	0.8851
2341	0.8882
2350	0.8907
2359	0.8927
2368	0.8943
2377	0.8955
2386	0.8967
2395	0.8974
2404	0.9022
2413	0.9074
2422	0.9081
2431	0.9079
2440	0.9062
2449	0.9042
2458	0.901
2467	0.8976
2476	0.8963
2485	0.8993
2494	0.9
2503	0.8979
2512	0.898
2521	0.9012
2530	0.904
2539	0.9038
2548	0.9021
2557	0.9005
2566	0.899
2575	0.8976
2584	0.8963
2593	0.8954
2602	0.8951
2611	0.8916
2620	0.8887
2629	0.8864
2638	0.8855
2647	0.8864
2656	0.89
2665	0.892
2674	0.8922
2683	0.8919
2692	0.8915
2701	0.8913
2710	0.8912
2719	0.8908
2728	0.8904
2737	0.89
2746	0.889
2755	0.8873
2764	0.8848
2773	0.8838
2782	0.8835
2791	0.8826
2800	0.8815
2809	0.8807
2818	0.8815
2827	0.8837
2836	0.8855
2845	0.8843
2854	0.882
2863	0.8801
2872	0.8785
2881	0.8771
2890	0.8759
2899	0.8746
2908	0.8724
2917	0.8706
2926	0.8699
2935	0.8698
2944	0.8703
2953	0.8712
2962	0.8716
2971	0.8715
2980	0.8713
2989	0.871
2998	0.8711
3007	0.8696
3016	0.8674
3025	0.8645
3034	0.8694
3043	0.865
3052	0.8511
3061	0.8399
3070	0.8384
3079	0.8315
3088	0.8212
3097	0.8222
3106	0.84
3115	0.8566
3124	0.8572
3133	0.8585
3142	0.862
3151	0.8682
3160	0.8701
3169	0.8695
3178	0.8681
3187	0.8659
3196	0.863
3205	0.8625
3214	0.8633
3223	0.8661
3232	0.8697
3241	0.8706
3250	0.8705
3259	0.8705
3268	0.8705
3277	0.8705
3286	0.8702
3295	0.87
3304	0.8697
3313	0.8694
3322	0.869
3331	0.8686
3340	0.8682
3349	0.8679
3358	0.8677
3367	0.8674
3376	0.8671
3385	0.8671
3394	0.8672
3403	0.8671
3412	0.8657
3421	0.8642
3430	0.8621
3439	0.8608
3448	0.862
3457	0.8636
3466	0.8669
3475	0.8704
3484	0.871
3493	0.8709
3502	0.8708
3511	0.8706
3520	0.8701
3529	0.8696
3538	0.8691
3547	0.8687
3556	0.8684
3565	0.868
3574	0.8678
3583	0.8674
3592	0.8671
3601	0.8666
3610	0.8663
3619	0.8659
3628	0.8655
3637	0.8653
3646	0.8652
3655	0.8652
3664	0.8652
3673	0.8649
3682	0.8631
3691	0.8612
3700	0.8598
3709	0.8639
3718	0.8688
3727	0.8712
3736	0.8721
3745	0.8728
3754	0.8732
3763	0.8732
3772	0.8731
3781	0.8724
3790	0.8718
3799	0.8708
3808	0.8692
