Infrared Spectrum: DEOXYBENZOIN
Formula: C14 H12 O
CAS: 451-40-1
State: SOLUTION (10% CCl4 FOR 3800-1330, 10% CS2 FOR 1330-450 CM^-^1)
Melting point: 55 C
Class: COBLENTZ III
Instrument: DOW KBr FOREPRISM-GRATING
Instrument parameters: BLAZED AT 3.5, 12.0, 20.0 MICRON AND CHANGED AT 5.0, 7.5, 14.9 MICRON
Sampling: TRANSMISSION
Path length: 0.011 CM, 0.011 CM
Resolution: 2
Origin: DOW CHEMICAL COMPANY
1/CM	TRANSMITTANCE
458	0.7305
467	0.7239
476	0.7074
485	0.7166
494	0.7791
503	0.7875
512	0.7854
521	0.7612
530	0.5976
539	0.7019
548	0.784
557	0.7653
566	0.5307
575	0.6639
584	0.7084
593	0.4226
602	0.4924
611	0.7871
620	0.7575
629	0.7496
638	0.7977
647	0.7631
656	0.7181
665	0.5617
674	0.6038
683	0.2843
692	0.023
701	0.2109
710	0.5549
719	0.2552
728	0.2128
737	0.6011
746	0.3296
755	0.1685
764	0.6639
773	0.6608
782	0.7436
791	0.7425
800	0.7756
809	0.7826
818	0.7885
827	0.7674
836	0.6902
845	0.665
854	0.6565
863	0.6842
872	0.7213
881	0.7512
890	0.7608
899	0.745
908	0.7182
917	0.7121
926	0.6948
935	0.6991
944	0.7617
953	0.7613
962	0.7369
971	0.6739
980	0.5496
989	0.3483
998	0.4831
1007	0.5921
1016	0.4985
1025	0.6085
1034	0.6863
1043	0.7162
1052	0.7747
1061	0.7183
1070	0.5887
1079	0.7264
1088	0.7519
1097	0.734
1106	0.7579
1115	0.7729
1124	0.7696
1133	0.7233
1142	0.5837
1151	0.5575
1160	0.5332
1169	0.5808
1178	0.3537
1187	0.5728
1196	0.3367
1205	0.5171
1214	0.3319
1223	0.5622
1232	0.5824
1241	0.5462
1250	0.5409
1259	0.4405
1268	0.1942
1277	0.2166
1286	0.3683
1295	0.5177
1304	0.4941
1313	0.432
1322	0.3732
1331	0.3487
1340	0.3937
1349	0.5957
1358	0.782
1367	0.8219
1376	0.8145
1385	0.7885
1394	0.8148
1403	0.8011
1412	0.6841
1421	0.7599
1430	0.7149
1439	0.6596
1448	0.0983
1457	0.395
1466	0.7963
1475	0.8142
1484	0.7679
1493	0.4576
1502	0.4105
1511	0.6623
1520	0.6346
1529	0.5869
1538	0.5026
1547	0.4415
1556	0.4455
1565	0.5091
1574	0.5103
1583	0.2834
1592	0.4103
1601	0.2744
1610	0.6007
1619	0.736
1628	0.7737
1637	0.7849
1646	0.7541
1655	0.7176
1664	0.5995
1673	0.2218
1682	0.0147
1691	0.0421
1700	0.1533
1709	0.5705
1718	0.7301
1727	0.7544
1736	0.7789
1745	0.7934
1754	0.8134
1763	0.8236
1772	0.8212
1781	0.8294
1790	0.8366
1799	0.8072
1808	0.7891
1817	0.8054
1826	0.8447
1835	0.8558
1844	0.86
1853	0.8516
1862	0.8423
1871	0.8298
1880	0.8337
1889	0.8342
1898	0.8336
1907	0.839
1916	0.8446
1925	0.848
1934	0.8356
1943	0.8103
1952	0.8153
1961	0.7917
1970	0.8397
1979	0.8437
1988	0.8526
1997	0.8416
2006	0.8644
2015	0.8664
2024	0.8679
2033	0.8695
2042	0.8712
2051	0.8714
2060	0.8718
2069	0.8725
2078	0.8745
2087	0.8759
2096	0.8769
2105	0.8772
2114	0.8776
2123	0.8777
2132	0.8777
2141	0.8777
2150	0.8777
2159	0.8776
2168	0.8775
2177	0.8774
2186	0.8773
2195	0.8772
2204	0.8773
2213	0.8773
2222	0.8773
2231	0.8776
2240	0.8765
2249	0.8726
2258	0.8683
2267	0.8637
2276	0.8591
2285	0.8539
2294	0.8532
2303	0.8537
2312	0.8534
2321	0.8519
2330	0.8529
2339	0.8593
2348	0.8707
2357	0.8766
2366	0.8778
2375	0.8758
2384	0.8738
2393	0.8736
2402	0.8745
2411	0.8755
2420	0.8764
2429	0.8774
2438	0.8794
2447	0.8806
2456	0.8812
2465	0.8819
2474	0.8825
2483	0.8815
2492	0.8805
2501	0.8787
2510	0.8759
2519	0.8733
2528	0.8731
2537	0.8735
2546	0.8741
2555	0.8745
2564	0.8747
2573	0.8724
2582	0.8695
2591	0.867
2600	0.8659
2609	0.8656
2618	0.8658
2627	0.8666
2636	0.8683
2645	0.8696
2654	0.8709
2663	0.872
2672	0.8717
2681	0.8714
2690	0.8712
2699	0.871
2708	0.8707
2717	0.8704
2726	0.8702
2735	0.8696
2744	0.8687
2753	0.8677
2762	0.8669
2771	0.866
2780	0.8645
2789	0.8627
2798	0.8602
2807	0.8592
2816	0.8593
2825	0.8596
2834	0.8551
2843	0.8472
2852	0.8379
2861	0.8275
2870	0.8156
2879	0.8024
2888	0.7859
2897	0.764
2906	0.7613
2915	0.7611
2924	0.7529
2933	0.7502
2942	0.7574
2951	0.7694
2960	0.7812
2969	0.7893
2978	0.793
2987	0.7955
2996	0.7992
3005	0.7644
3014	0.7398
3023	0.6812
3032	0.5162
3041	0.4078
3050	0.631
3059	0.5916
3068	0.4906
3077	0.4745
3086	0.6354
3095	0.5495
3104	0.7262
3113	0.7494
3122	0.8226
3131	0.848
3140	0.8539
3149	0.8524
3158	0.8518
3167	0.8507
3176	0.8563
3185	0.8656
3194	0.8693
3203	0.8712
3212	0.8732
3221	0.874
3230	0.8748
3239	0.8753
3248	0.8758
3257	0.876
3266	0.8762
3275	0.8765
3284	0.8769
3293	0.8772
3302	0.8775
3311	0.8775
3320	0.8771
3329	0.874
3338	0.8651
3347	0.8567
3356	0.8518
3365	0.8594
3374	0.8665
3383	0.8715
3392	0.8784
3401	0.8856
3410	0.8881
3419	0.889
3428	0.8892
3437	0.8891
3446	0.889
3455	0.8889
3464	0.8888
3473	0.8886
3482	0.8884
3491	0.8884
3500	0.8884
3509	0.8885
3518	0.8885
3527	0.8887
3536	0.8893
3545	0.8897
3554	0.8903
3563	0.8907
3572	0.8912
3581	0.8915
3590	0.8914
3599	0.8907
3608	0.8901
3617	0.8892
3626	0.8881
3635	0.8869
3644	0.8862
3653	0.8857
3662	0.8894
3671	0.8916
3680	0.8895
3689	0.8864
3698	0.8832
3707	0.8835
3716	0.8864
3725	0.8903
3734	0.8952
3743	0.9008
3752	0.8996
3761	0.8958
3770	0.8941
3779	0.8932
3788	0.8924
3797	0.8934
3806	0.8947
