Infrared Spectrum: 4-Fluoro-o-cresol
Formula: C7 H7 F O
CAS: 452-72-2
State: SOLUTION (10% CCl4 FOR 3800-1330, 10% CS2 FOR 1330-400 CM^-^1) VS SOLVENT
Class: COBLENTZ III
Instrument: BECKMAN IR-9 (GRATING)
Instrument parameters: ORDER CHANGES: 670, 1200, 2000 CM^-^1
Sampling: TRANSMISSION
Path length: 0.011 CM, 0.011 CM
Resolution: 2
Origin: DOW CHEMICAL COMPANY
1/CM	TRANSMITTANCE
3800	0.8883
3791	0.888
3782	0.8878
3773	0.8875
3764	0.8874
3755	0.8878
3746	0.8883
3737	0.8884
3728	0.8865
3719	0.8828
3710	0.8773
3701	0.872
3692	0.8623
3683	0.8521
3674	0.8455
3665	0.838
3656	0.8212
3647	0.7721
3638	0.7003
3629	0.3284
3620	0.1396
3611	0.2459
3602	0.3592
3593	0.4724
3584	0.5592
3575	0.5951
3566	0.6144
3557	0.6177
3548	0.6116
3539	0.592
3530	0.5706
3521	0.5482
3512	0.5195
3503	0.4955
3494	0.4759
3485	0.4709
3476	0.4722
3467	0.4758
3458	0.4804
3449	0.486
3440	0.4927
3431	0.4998
3422	0.507
3413	0.5142
3404	0.5215
3395	0.5307
3386	0.5402
3377	0.5504
3368	0.5569
3359	0.5619
3350	0.5736
3341	0.5859
3332	0.5983
3323	0.6129
3314	0.6301
3305	0.6446
3296	0.6584
3287	0.6715
3278	0.684
3269	0.6964
3260	0.7096
3251	0.7225
3242	0.7351
3233	0.7476
3224	0.7594
3215	0.7722
3206	0.7841
3197	0.7925
3188	0.8012
3179	0.8076
3170	0.8121
3161	0.8151
3152	0.8165
3143	0.8178
3134	0.8194
3125	0.8198
3116	0.8181
3107	0.8158
3098	0.8136
3089	0.8108
3080	0.8069
3071	0.8015
3062	0.7895
3053	0.7221
3044	0.7051
3035	0.7803
3026	0.8025
3017	0.7941
3008	0.7758
2999	0.7231
2990	0.6928
2981	0.6954
2972	0.6815
2963	0.6764
2954	0.6795
2945	0.6744
2936	0.6168
2927	0.6641
2918	0.6856
2909	0.7217
2900	0.7756
2891	0.7884
2882	0.7667
2873	0.7546
2864	0.7734
2855	0.814
2846	0.8323
2837	0.848
2828	0.8571
2819	0.8625
2810	0.866
2801	0.8677
2792	0.8692
2783	0.8705
2774	0.871
2765	0.8668
2756	0.8507
2747	0.8487
2738	0.8724
2729	0.873
2720	0.8731
2711	0.8734
2702	0.8737
2693	0.8737
2684	0.8727
2675	0.8721
2666	0.8724
2657	0.8751
2648	0.8792
2639	0.8812
2630	0.8804
2621	0.8762
2612	0.8742
2603	0.8754
2594	0.8775
2585	0.8782
2576	0.8771
2567	0.8745
2558	0.8728
2549	0.8718
2540	0.8688
2531	0.8632
2522	0.8621
2513	0.8664
2504	0.8678
2495	0.8688
2486	0.8692
2477	0.8689
2468	0.8643
2459	0.8617
2450	0.8606
2441	0.8625
2432	0.8674
2423	0.871
2414	0.8733
2405	0.8759
2396	0.8815
2387	0.8867
2378	0.8904
2369	0.8923
2360	0.8925
2351	0.8927
2342	0.893
2333	0.8932
2324	0.8932
2315	0.8932
2306	0.8934
2297	0.8928
2288	0.8924
2279	0.8918
2270	0.8927
2261	0.8932
2252	0.8934
2243	0.8937
2234	0.8943
2225	0.8953
2216	0.8967
2207	0.8971
2198	0.8942
2189	0.8962
2180	0.8984
2171	0.8988
2162	0.9002
2153	0.9023
2144	0.904
2135	0.9014
2126	0.9028
2117	0.9003
2108	0.899
2099	0.8989
2090	0.8991
2081	0.8978
2072	0.8931
2063	0.8821
2054	0.8732
2045	0.8807
2036	0.8938
2027	0.8985
2018	0.8937
2009	0.8821
2000	0.8745
1991	0.8925
1982	0.8967
1973	0.8967
1964	0.8952
1955	0.8933
1946	0.895
1937	0.8985
1928	0.8983
1919	0.8941
1910	0.891
1901	0.8899
1892	0.89
1883	0.8893
1874	0.8725
1865	0.8582
1856	0.861
1847	0.8593
1838	0.8518
1829	0.8481
1820	0.8836
1811	0.8958
1802	0.8965
1793	0.8927
1784	0.8928
1775	0.8938
1766	0.8895
1757	0.8838
1748	0.8591
1739	0.8161
1730	0.8081
1721	0.8328
1712	0.8516
1703	0.8598
1694	0.8628
1685	0.8525
1676	0.8427
1667	0.8441
1658	0.8421
1649	0.8265
1640	0.7808
1631	0.6194
1622	0.6815
1613	0.726
1604	0.7022
1595	0.7928
1586	0.8287
1577	0.8268
1568	0.8218
1559	0.8067
1550	0.7371
1541	0.7215
1532	0.5625
1523	0.216
1514	0.0159
1505	0.0177
1496	0.109
1487	0.2266
1478	0.5305
1469	0.3123
1460	0.3521
1451	0.4348
1442	0.4197
1433	0.3107
1424	0.1737
1415	0.5708
1406	0.6776
1397	0.7565
1388	0.7008
1379	0.6304
1370	0.6724
1361	0.6355
1352	0.6179
1343	0.5855
1334	0.4976
1325	0.3256
1316	0.5262
1307	0.7631
1298	0.754
1289	0.6632
1280	0.5536
1271	0.2864
1262	0.4968
1253	0.5067
1244	0.3286
1235	0.4746
1226	0.2265
1217	0.2371
1208	0.1457
1199	0.2275
1190	0.1315
1181	0.0766
1172	0.0266
1163	0.0645
1154	0.1874
1145	0.2382
1136	0.5538
1127	0.7706
1118	0.8685
1109	0.8615
1100	0.7391
1091	0.4499
1082	0.8421
1073	0.9216
1064	0.9485
1055	0.9498
1046	0.9156
1037	0.829
1028	0.9003
1019	0.8903
1010	0.8025
1001	0.438
992	0.6717
983	0.8882
974	0.9244
965	0.9043
956	0.6658
947	0.8136
938	0.8999
929	0.9431
920	0.9539
911	0.9653
902	0.964
893	0.9571
884	0.8843
875	0.6748
866	0.055
857	0.6817
848	0.939
839	0.9324
830	0.886
821	0.7395
812	0.2167
803	0.141
794	0.6245
785	0.794
776	0.3421
767	0.4316
758	0.7704
749	0.8999
740	0.9352
731	0.8591
722	0.0591
713	0.8411
704	0.8991
695	0.9496
686	0.9535
677	0.947
668	0.9188
659	0.8978
650	0.8967
641	0.8936
632	0.8913
623	0.8905
614	0.8653
605	0.8557
596	0.8443
587	0.8228
578	0.7753
569	0.5047
560	0.56
551	0.8218
542	0.8242
533	0.8265
524	0.8263
515	0.8253
506	0.8197
497	0.6649
488	0.7576
479	0.84
470	0.8396
461	0.8141
452	0.5946
443	0.6858
434	0.877
425	0.8968
416	0.9354
407	0.9433
