Infrared Spectrum: p-Fluorobenzoic acid
Formula: C7 H5 F O2
CAS: 456-22-4
State: SOLID (SPLIT MULL), FLUOROLUBE FOR 3800-1330 CM^-^1, NUJOL FOR 1330-450 CM^-^1
Class: COBLENTZ III
Instrument: DOW KBr FOREPRISM-GRATING
Instrument parameters: BLAZED AT 3.5, 12.0, 20.0 MICRON AND CHANGED AT 5.0, 7.5, 14.9 MICRON
Sampling: TRANSMISSION
Resolution: 2
Origin: DOW CHEMICAL COMPANY
1/CM	TRANSMITTANCE
3800	0.7869
3791	0.7872
3782	0.7878
3773	0.7881
3764	0.7882
3755	0.7889
3746	0.7894
3737	0.7899
3728	0.7908
3719	0.7932
3710	0.7954
3701	0.7939
3692	0.7945
3683	0.7961
3674	0.7974
3665	0.7969
3656	0.7917
3647	0.7907
3638	0.7901
3629	0.7884
3620	0.7874
3611	0.7862
3602	0.7851
3593	0.7842
3584	0.7842
3575	0.7857
3566	0.7856
3557	0.7815
3548	0.7796
3539	0.7775
3530	0.7768
3521	0.7761
3512	0.7756
3503	0.776
3494	0.7768
3485	0.7775
3476	0.7784
3467	0.7791
3458	0.7803
3449	0.7824
3440	0.7855
3431	0.7875
3422	0.7897
3413	0.7915
3404	0.7934
3395	0.7944
3386	0.7937
3377	0.7928
3368	0.7904
3359	0.7875
3350	0.7843
3341	0.7784
3332	0.7717
3323	0.7651
3314	0.7591
3305	0.7537
3296	0.7487
3287	0.7421
3278	0.7356
3269	0.7275
3260	0.7181
3251	0.7078
3242	0.6961
3233	0.6818
3224	0.6676
3215	0.6537
3206	0.636
3197	0.6219
3188	0.6169
3179	0.6134
3170	0.6058
3161	0.5916
3152	0.5731
3143	0.5535
3134	0.5249
3125	0.4887
3116	0.4616
3107	0.4537
3098	0.4412
3089	0.4101
3080	0.3632
3071	0.4034
3062	0.4138
3053	0.4181
3044	0.4164
3035	0.3982
3026	0.3925
3017	0.3848
3008	0.3684
2999	0.3584
2990	0.3592
2981	0.3668
2972	0.3725
2963	0.3756
2954	0.3786
2945	0.3836
2936	0.391
2927	0.4
2918	0.4053
2909	0.4053
2900	0.3999
2891	0.3934
2882	0.3952
2873	0.3971
2864	0.3943
2855	0.3754
2846	0.3741
2837	0.3834
2828	0.394
2819	0.4112
2810	0.431
2801	0.4554
2792	0.4778
2783	0.4914
2774	0.5029
2765	0.5114
2756	0.5192
2747	0.5262
2738	0.5234
2729	0.5019
2720	0.5022
2711	0.5191
2702	0.5108
2693	0.4449
2684	0.431
2675	0.4284
2666	0.4355
2657	0.4495
2648	0.464
2639	0.4785
2630	0.4943
2621	0.5014
2612	0.4985
2603	0.4895
2594	0.4773
2585	0.4975
2576	0.4714
2567	0.4399
2558	0.4395
2549	0.4592
2540	0.4848
2531	0.5093
2522	0.5348
2513	0.556
2504	0.5721
2495	0.5884
2486	0.6054
2477	0.6219
2468	0.6373
2459	0.6507
2450	0.6522
2441	0.6521
2432	0.6585
2423	0.6665
2414	0.676
2405	0.6872
2396	0.6976
2387	0.7068
2378	0.7156
2369	0.7228
2360	0.7297
2351	0.7358
2342	0.7418
2333	0.7465
2324	0.751
2315	0.7554
2306	0.7593
2297	0.7626
2288	0.7658
2279	0.7662
2270	0.7638
2261	0.7655
2252	0.7758
2243	0.7824
2234	0.7846
2225	0.7907
2216	0.8
2207	0.8075
2198	0.8098
2189	0.806
2180	0.804
2171	0.8089
2162	0.8145
2153	0.8195
2144	0.8218
2135	0.8266
2126	0.8351
2117	0.8383
2108	0.8425
2099	0.846
2090	0.8436
2081	0.8384
2072	0.8323
2063	0.8267
2054	0.8221
2045	0.8275
2036	0.8356
2027	0.8368
2018	0.8468
2009	0.8452
2000	0.8492
1991	0.8565
1982	0.8531
1973	0.8544
1964	0.8598
1955	0.8539
1946	0.8474
1937	0.8374
1928	0.7942
1919	0.8026
1910	0.8121
1901	0.8184
1892	0.8233
1883	0.8207
1874	0.8298
1865	0.8309
1856	0.8349
1847	0.8416
1838	0.84
1829	0.8389
1820	0.8309
1811	0.8241
1802	0.8195
1793	0.8182
1784	0.8124
1775	0.8268
1766	0.8297
1757	0.8257
1748	0.8169
1739	0.7353
1730	0.7448
1721	0.6154
1712	0.3429
1703	0.0847
1694	0.0466
1685	0.0278
1676	0.0274
1667	0.1072
1658	0.3273
1649	0.467
1640	0.6148
1631	0.6362
1622	0.6601
1613	0.6421
1604	0.0292
1595	0.5583
1586	0.7194
1577	0.7774
1568	0.7984
1559	0.8086
1550	0.779
1541	0.7783
1532	0.8115
1523	0.83
1514	0.299
1505	0.7035
1496	0.8072
1487	0.8318
1478	0.8467
1469	0.8406
1460	0.7485
1451	0.7522
1442	0.5207
1433	0.1027
1424	0.3653
1415	0.571
1406	0.6665
1397	0.7135
1388	0.7674
1379	0.796
1370	0.7671
1361	0.7924
1352	0.7308
1343	0.4334
1334	0.1983
1325	0.2772
1316	0.3062
1307	0.3043
1298	0.0706
1289	0.524
1280	0.6175
1271	0.6726
1262	0.7418
1253	0.754
1244	0.3364
1235	0.2461
1226	0.4967
1217	0.6636
1208	0.7582
1199	0.7818
1190	0.7765
1181	0.7844
1172	0.7562
1163	0.0719
1154	0.6968
1145	0.7755
1136	0.6202
1127	0.7748
1118	0.8042
1109	0.6771
1100	0.6868
1091	0.7657
1082	0.7934
1073	0.7968
1064	0.7982
1055	0.8007
1046	0.8021
1037	0.8014
1028	0.8021
1019	0.6956
1010	0.7941
1001	0.7991
992	0.7991
983	0.7978
974	0.761
965	0.769
956	0.7271
947	0.6895
938	0.5862
929	0.4954
920	0.5123
911	0.6578
902	0.7319
893	0.7655
884	0.7795
875	0.7865
866	0.7586
857	0.1704
848	0.4071
839	0.7089
830	0.7218
821	0.7594
812	0.8056
803	0.8224
794	0.8223
785	0.8132
776	0.3928
767	0.758
758	0.8267
749	0.8353
740	0.8356
731	0.8288
722	0.8148
713	0.8395
704	0.8542
695	0.8537
686	0.6486
677	0.8521
668	0.8673
659	0.8599
650	0.8675
641	0.8778
632	0.8575
623	0.8596
614	0.2341
605	0.8609
596	0.8904
587	0.8901
578	0.885
569	0.8658
560	0.6521
551	0.6767
542	0.8485
533	0.8799
524	0.889
515	0.8848
506	0.823
497	0.778
488	0.8487
479	0.8588
470	0.851
461	0.845
