Infrared Spectrum: 2-Amino-5-chloro-4-pyrimidinecarboxylic acid
Formula: C5 H4 Cl N3 O2
CAS: 45867-11-6
State: SOLID (SPLIT MULL), FLUOROLUBE FOR 3800-1330 CM^-^1, NUJOL FOR 1330-450 CM^-^1
Class: COBLENTZ II
Instrument: DOW KBr FOREPRISM-GRATING
Instrument parameters: BLAZED AT 3.5, 12.0, 20.0 MICRON AND CHANGED AT 5.0, 7.5, 14.9 MICRON
Sampling: TRANSMISSION
Resolution: 2
Origin: DOW CHEMICAL COMPANY
1/CM	TRANSMITTANCE
3810	0.8681
3801	0.8687
3792	0.8696
3783	0.8712
3774	0.873
3765	0.8763
3756	0.8799
3747	0.8836
3738	0.8855
3729	0.8868
3720	0.8883
3711	0.8893
3702	0.8898
3693	0.8904
3684	0.8907
3675	0.8908
3666	0.8908
3657	0.8908
3648	0.8907
3639	0.8905
3630	0.8903
3621	0.8897
3612	0.8892
3603	0.8887
3594	0.8897
3585	0.8907
3576	0.8918
3567	0.8937
3558	0.8958
3549	0.8982
3540	0.9
3531	0.8999
3522	0.8917
3513	0.8866
3504	0.884
3495	0.8801
3486	0.8749
3477	0.8671
3468	0.8571
3459	0.843
3450	0.8259
3441	0.7981
3432	0.7531
3423	0.701
3414	0.6461
3405	0.4812
3396	0.3849
3387	0.2905
3378	0.2738
3369	0.3092
3360	0.3618
3351	0.3962
3342	0.4118
3333	0.4159
3324	0.4062
3315	0.3794
3306	0.3723
3297	0.391
3288	0.431
3279	0.466
3270	0.5032
3261	0.5048
3252	0.4673
3243	0.443
3234	0.4384
3225	0.4016
3216	0.3362
3207	0.2833
3198	0.3395
3189	0.3866
3180	0.4278
3171	0.4697
3162	0.5373
3153	0.583
3144	0.6169
3135	0.6401
3126	0.6592
3117	0.6751
3108	0.6867
3099	0.6972
3090	0.708
3081	0.7175
3072	0.7258
3063	0.729
3054	0.735
3045	0.7425
3036	0.7489
3027	0.7547
3018	0.7592
3009	0.7611
3000	0.7614
2991	0.761
2982	0.763
2973	0.7667
2964	0.7704
2955	0.774
2946	0.7768
2937	0.7795
2928	0.7817
2919	0.7805
2910	0.7778
2901	0.7747
2892	0.771
2883	0.7692
2874	0.7692
2865	0.7699
2856	0.7683
2847	0.7618
2838	0.7578
2829	0.7562
2820	0.7553
2811	0.7553
2802	0.7568
2793	0.7585
2784	0.7615
2775	0.7649
2766	0.7689
2757	0.7724
2748	0.775
2739	0.7746
2730	0.7632
2721	0.7544
2712	0.7492
2703	0.7471
2694	0.75
2685	0.7539
2676	0.756
2667	0.7562
2658	0.7555
2649	0.7506
2640	0.7455
2631	0.74
2622	0.7332
2613	0.7258
2604	0.7181
2595	0.7071
2586	0.7021
2577	0.7014
2568	0.7001
2559	0.6935
2550	0.6865
2541	0.6799
2532	0.6725
2523	0.665
2514	0.6571
2505	0.6497
2496	0.6425
2487	0.6352
2478	0.6278
2469	0.6204
2460	0.6131
2451	0.6062
2442	0.6002
2433	0.5962
2424	0.5939
2415	0.5945
2406	0.5966
2397	0.6008
2388	0.6041
2379	0.6052
2370	0.6054
2361	0.61
2352	0.6176
2343	0.6279
2334	0.6379
2325	0.6476
2316	0.6567
2307	0.6645
2298	0.6717
2289	0.6786
2280	0.6849
2271	0.6885
2262	0.6893
2253	0.6921
2244	0.6993
2235	0.7096
2226	0.72
2217	0.7299
2208	0.7399
2199	0.7497
2190	0.7584
2181	0.7667
2172	0.7746
2163	0.7792
2154	0.7826
2145	0.7887
2136	0.7953
2127	0.8014
2118	0.8058
2109	0.8094
2100	0.8117
2091	0.8119
2082	0.8105
2073	0.8084
2064	0.8062
2055	0.8038
2046	0.7983
2037	0.7928
2028	0.7878
2019	0.7824
2010	0.7762
2001	0.7575
1992	0.7533
1983	0.7408
1974	0.7301
1965	0.7178
1956	0.7019
1947	0.6864
1938	0.6708
1929	0.6544
1920	0.6422
1911	0.6285
1902	0.6149
1893	0.5991
1884	0.6102
1875	0.6156
1866	0.6219
1857	0.6308
1848	0.6391
1839	0.6461
1830	0.6531
1821	0.6601
1812	0.6671
1803	0.6747
1794	0.6819
1785	0.6865
1776	0.6908
1767	0.6908
1758	0.6845
1749	0.6634
1740	0.6182
1731	0.536
1722	0.4608
1713	0.4055
1704	0.445
1695	0.5084
1686	0.5529
1677	0.4826
1668	0.3425
1659	0.2219
1650	0.0815
1641	0.0495
1632	0.1898
1623	0.346
1614	0.4362
1605	0.5005
1596	0.3695
1587	0.3624
1578	0.547
1569	0.6193
1560	0.653
1551	0.6604
1542	0.6231
1533	0.4537
1524	0.3398
1515	0.4582
1506	0.4551
1497	0.3958
1488	0.4354
1479	0.546
1470	0.6488
1461	0.7234
1452	0.7632
1443	0.779
1434	0.7918
1425	0.8051
1416	0.7742
1407	0.7098
1398	0.7137
1389	0.7217
1380	0.726
1371	0.7228
1362	0.685
1353	0.6191
1344	0.4003
1335	0.5124
1326	0.586
1317	0.5995
1308	0.5529
1299	0.4206
1290	0.2648
1281	0.2567
1272	0.3374
1263	0.4166
1254	0.4854
1245	0.5175
1236	0.4994
1227	0.4456
1218	0.4695
1209	0.5231
1200	0.5586
1191	0.5685
1182	0.4224
1173	0.3264
1164	0.46
1155	0.5733
1146	0.6086
1137	0.6336
1128	0.6594
1119	0.6691
1110	0.6741
1101	0.6758
1092	0.6717
1083	0.659
1074	0.6562
1065	0.6468
1056	0.5751
1047	0.6478
1038	0.669
1029	0.6715
1020	0.6784
1011	0.6915
1002	0.7064
993	0.7193
984	0.7318
975	0.7455
966	0.7565
957	0.7587
948	0.6335
939	0.7324
930	0.7605
921	0.7698
912	0.7753
903	0.7812
894	0.7878
885	0.7961
876	0.8062
867	0.8126
858	0.8216
849	0.8303
840	0.8404
831	0.8491
822	0.8561
813	0.8521
804	0.8594
795	0.8641
786	0.6389
777	0.5153
768	0.7328
759	0.7581
750	0.7575
741	0.7443
732	0.6444
723	0.4857
714	0.6918
705	0.7418
696	0.7491
687	0.714
678	0.6858
669	0.6734
660	0.6356
651	0.6283
642	0.6574
633	0.7006
624	0.7433
615	0.78
606	0.7951
597	0.7574
588	0.6978
579	0.6933
570	0.7162
561	0.6706
552	0.7343
543	0.8005
534	0.8225
525	0.8351
516	0.8445
507	0.8514
498	0.8518
489	0.8509
480	0.8483
471	0.8407
462	0.8247
