Infrared Spectrum: Anisole, p-fluoro-
Formula: C7 H7 F O
CAS: 459-60-9
State: LIQUID (NEAT)
Class: COBLENTZ III
Instrument: BAIRD (GRATING)
Instrument parameters: NaCl PRISM
Sampling: TRANSMISSION
Path length: 0.003 CM
Resolution: 2
Origin: WYANDOTTE CHEMICALS CORP..
1/CM	TRANSMITTANCE
627	0.7758
636	0.7789
645	0.8266
654	0.8537
663	0.8635
672	0.8851
681	0.8888
690	0.8667
699	0.7902
708	0.7427
717	0.334
726	0.0559
735	0.6676
744	0.8105
753	0.8503
762	0.8659
771	0.885
780	0.8608
789	0.752
798	0.6105
807	0.6322
816	0.3006
825	0.0195
834	0.032
843	0.4003
852	0.5922
861	0.7512
870	0.7913
879	0.8419
888	0.8393
897	0.8587
906	0.8778
915	0.8263
924	0.8402
933	0.8656
942	0.8461
951	0.8607
960	0.8686
969	0.8718
978	0.8692
987	0.8548
996	0.823
1005	0.7208
1014	0.608
1023	0.3693
1032	0.0872
1041	0.0231
1050	0.227
1059	0.6188
1068	0.731
1077	0.7568
1086	0.7331
1095	0.5656
1104	0.1468
1113	0.6178
1122	0.7509
1131	0.7759
1140	0.7894
1149	0.7291
1158	0.4131
1167	0.6774
1176	0.5495
1185	0.0903
1194	0.3106
1203	0.0611
1212	0.0198
1221	0.0165
1230	0.0166
1239	0.0997
1248	0.0702
1257	0.0187
1266	0.2276
1275	0.5532
1284	0.6168
1293	0.3805
1302	0.1485
1311	0.3306
1320	0.5446
1329	0.7742
1338	0.8607
1347	0.8808
1356	0.8967
1365	0.9029
1374	0.9035
1383	0.9028
1392	0.8993
1401	0.8841
1410	0.8669
1419	0.8276
1428	0.722
1437	0.6106
1446	0.3686
1455	0.1796
1464	0.2276
1473	0.1227
1482	0.1454
1491	0.467
1500	0.4724
1509	0.1545
1518	0.0301
1527	0.0703
1536	0.2519
1545	0.3754
1554	0.6572
1563	0.7481
1572	0.7735
1581	0.8149
1590	0.8447
1599	0.8466
1608	0.7998
1617	0.6031
1626	0.6293
1635	0.7268
1644	0.7179
1653	0.7673
1662	0.8284
1671	0.8439
1680	0.8582
1689	0.8828
1698	0.9121
1707	0.9204
1716	0.9236
1725	0.9207
1734	0.8886
1743	0.8806
1752	0.9109
1761	0.9489
1770	0.9664
1779	0.972
1788	0.9729
1797	0.9804
1806	0.9783
1815	0.9567
1824	0.9219
1833	0.8975
1842	0.8796
1851	0.8303
1860	0.8055
1869	0.8384
1878	0.865
1887	0.9241
1896	0.9583
1905	0.9719
1914	0.977
1923	0.9757
1932	0.9725
1941	0.9632
1950	0.8988
1959	0.8265
1968	0.8727
1977	0.9566
1986	0.9684
1995	0.961
2004	0.9282
2013	0.9059
2022	0.9013
2031	0.8824
2040	0.8637
2049	0.8593
2058	0.887
2067	0.9248
2076	0.9623
2085	0.9834
2094	0.9888
2103	0.9915
2112	0.9932
2121	0.9942
2130	0.9938
2139	0.9901
2148	0.9887
2157	0.9879
2166	0.9869
2175	0.986
2184	0.9853
2193	0.9842
2202	0.9829
2211	0.9795
2220	0.9699
2229	0.9631
2238	0.9759
2247	0.9768
2256	0.9732
2265	0.9692
2274	0.9658
2283	0.9619
2292	0.9612
2301	0.9589
2310	0.9546
2319	0.9559
2328	0.9608
2337	0.9648
2346	0.9672
2355	0.9648
2364	0.9627
2373	0.9617
2382	0.9617
2391	0.9604
2400	0.9529
2409	0.9395
2418	0.9294
2427	0.9269
2436	0.9203
2445	0.9048
2454	0.9038
2463	0.9115
2472	0.9191
2481	0.9152
2490	0.9122
2499	0.9172
2508	0.9298
2517	0.9388
2526	0.9337
2535	0.9267
2544	0.9178
2553	0.9126
2562	0.9159
2571	0.9257
2580	0.9338
2589	0.9388
2598	0.9421
2607	0.9445
2616	0.9448
2625	0.9452
2634	0.9453
2643	0.9443
2652	0.9435
2661	0.9425
2670	0.9413
2679	0.9396
2688	0.9379
2697	0.9361
2706	0.9354
2715	0.935
2724	0.9348
2733	0.9343
2742	0.9295
2751	0.9244
2760	0.9204
2769	0.9172
2778	0.9172
2787	0.9172
2796	0.905
2805	0.8923
2814	0.8858
2823	0.8256
2832	0.6981
2841	0.5715
2850	0.4512
2859	0.4594
2868	0.537
2877	0.6147
2886	0.6919
2895	0.7641
2904	0.7563
2913	0.6779
2922	0.6001
2931	0.5226
2940	0.4531
2949	0.4573
2958	0.4449
2967	0.394
2976	0.3434
2985	0.3248
2994	0.3977
3003	0.4813
3012	0.5644
3021	0.5849
3030	0.5339
3039	0.4841
3048	0.5894
3057	0.7231
3066	0.7401
3075	0.7227
3084	0.7036
3093	0.7008
3102	0.7365
3111	0.7742
3120	0.8041
3129	0.8145
3138	0.8242
3147	0.8348
3156	0.8763
3165	0.8974
3174	0.908
3183	0.9102
3192	0.9129
3201	0.9159
3210	0.9185
3219	0.921
3228	0.9239
3237	0.9274
3246	0.9311
3255	0.9361
3264	0.9424
3273	0.9488
3282	0.9537
3291	0.9566
3300	0.9581
3309	0.9593
3318	0.9602
3327	0.9609
3336	0.9611
3345	0.9613
3354	0.9615
3363	0.9617
3372	0.9617
3381	0.9617
3390	0.9617
3399	0.9617
3408	0.9618
3417	0.9618
3426	0.9618
3435	0.9619
3444	0.9642
3453	0.9666
3462	0.9691
3471	0.9715
3480	0.9737
3489	0.9752
3498	0.9766
3507	0.9778
3516	0.9783
3525	0.9789
3534	0.9794
3543	0.98
3552	0.9807
3561	0.9819
3570	0.9832
3579	0.9844
3588	0.9856
3597	0.9866
3606	0.9876
3615	0.9884
3624	0.9889
3633	0.9894
3642	0.9898
3651	0.9901
3660	0.9903
3669	0.9906
3678	0.9909
3687	0.991
3696	0.9923
3705	0.9943
3714	0.9954
3723	0.9952
3732	0.9947
3741	0.9929
3750	0.9913
3759	0.9902
3768	0.9891
3777	0.9888
3786	0.9908
3795	0.9933
3804	0.9953
3813	0.9958
3822	0.9954
3831	0.9948
3840	0.9935
3849	0.9921
3858	0.9893
3867	0.9867
3876	0.9849
3885	0.9846
3894	0.9862
3903	0.9884
3912	0.9915
3921	0.9943
3930	0.995
3939	0.994
3948	0.9928
3957	0.991
3966	0.9895
3975	0.9885
3984	0.9876
3993	0.9869
