Infrared Spectrum: PYRIMIDINE, 2-BROMO-
Formula: C4 H3 Br N2
CAS: 4595-60-2
State: SOLID (SPLIT MULL)
Class: COBLENTZ III
Instrument: DOW KBr FOREPRISM-GRATING
Instrument parameters: BLAZED AT 3.5, 12.0, 20.0 MICRON AND CHANGED AT 5.0, 7.5, 14.9 MICRON
Sampling: TRANSMISSION
Resolution: 2
Origin: DOW CHEMICAL COMPANY
1/CM	TRANSMITTANCE
474	0.9216
483	0.9293
492	0.9343
501	0.9368
510	0.9386
519	0.9393
528	0.9414
537	0.944
546	0.946
555	0.9523
564	0.9425
573	0.9528
582	0.9539
591	0.9462
600	0.945
609	0.9342
618	0.8637
627	0.5368
636	0.9765
645	0.976
654	0.9637
663	0.9721
672	0.9757
681	0.971
690	0.9632
699	0.9521
708	0.9159
717	0.8139
726	0.4846
735	0.9278
744	0.9308
753	0.8675
762	0.4876
771	0.9271
780	0.9268
789	0.9237
798	0.8934
807	0.8987
816	0.8341
825	0.5612
834	0.8103
843	0.8911
852	0.8994
861	0.8984
870	0.8971
879	0.9024
888	0.8952
897	0.8934
906	0.8897
915	0.8791
924	0.8782
933	0.8847
942	0.8835
951	0.8735
960	0.871
969	0.8618
978	0.8457
987	0.843
996	0.8575
1005	0.854
1014	0.853
1023	0.8432
1032	0.8356
1041	0.8125
1050	0.7819
1059	0.7665
1068	0.7654
1077	0.7619
1086	0.7595
1095	0.684
1104	0.7358
1113	0.6876
1122	0.5964
1131	0.4389
1140	0.2817
1149	0.1921
1158	0.4296
1167	0.8585
1176	0.8916
1185	0.883
1194	0.8708
1203	0.868
1212	0.8641
1221	0.8501
1230	0.8271
1239	0.8244
1248	0.7875
1257	0.7531
1266	0.5365
1275	0.7851
1284	0.7608
1293	0.7487
1302	0.7145
1311	0.6924
1320	0.6805
1329	0.7018
1338	0.679
1347	0.6245
1356	0.5157
1365	0.234
1374	0.14
1383	0.4605
1392	0.9459
1401	0.9574
1410	0.9517
1419	0.9333
1428	0.8968
1437	0.9334
1446	0.9323
1455	0.921
1464	0.9175
1473	0.9108
1482	0.907
1491	0.8925
1500	0.8738
1509	0.8528
1518	0.8153
1527	0.7569
1536	0.6767
1545	0.363
1554	0.2396
1563	0.5502
1572	0.977
1581	0.955
1590	0.9216
1599	0.946
1608	0.9416
1617	0.9661
1626	0.964
1635	0.9628
1644	0.9671
1653	0.9646
1662	0.9618
1671	0.9589
1680	0.9507
1689	0.9364
1698	0.9375
1707	0.9339
1716	0.9325
1725	0.9246
1734	0.9048
1743	0.9136
1752	0.9202
1761	0.9197
1770	0.9228
1779	0.925
1788	0.9288
1797	0.9294
1806	0.9245
1815	0.9199
1824	0.9203
1833	0.9254
1842	0.9256
1851	0.923
1860	0.9175
1869	0.9125
1878	0.9142
1887	0.9144
1896	0.9116
1905	0.9137
1914	0.913
1923	0.9117
1932	0.9109
1941	0.909
1950	0.9023
1959	0.893
1968	0.8884
1977	0.8849
1986	0.8837
1995	0.8906
2004	0.8958
2013	0.8998
2022	0.8988
2031	0.8965
2040	0.894
2049	0.8912
2058	0.89
2067	0.8886
2076	0.886
2085	0.8827
2094	0.8794
2103	0.8764
2112	0.8724
2121	0.8692
2130	0.8663
2139	0.8638
2148	0.8614
2157	0.8592
2166	0.857
2175	0.855
2184	0.8537
2193	0.8512
2202	0.8525
2211	0.8514
2220	0.8462
2229	0.8396
2238	0.8321
2247	0.8295
2256	0.8295
2265	0.8288
2274	0.8257
2283	0.8225
2292	0.8196
2301	0.8175
2310	0.818
2319	0.8138
2328	0.8076
2337	0.8085
2346	0.8097
2355	0.8098
2364	0.8075
2373	0.8047
2382	0.8017
2391	0.7985
2400	0.7953
2409	0.7919
2418	0.7896
2427	0.7878
2436	0.7861
2445	0.7846
2454	0.7831
2463	0.7815
2472	0.7805
2481	0.7788
2490	0.7741
2499	0.7674
2508	0.7664
2517	0.7675
2526	0.7697
2535	0.7724
2544	0.7704
2553	0.7676
2562	0.7647
2571	0.7618
2580	0.7586
2589	0.7553
2598	0.7518
2607	0.7471
2616	0.7453
2625	0.7446
2634	0.745
2643	0.7444
2652	0.7415
2661	0.7371
2670	0.7322
2679	0.7271
2688	0.7231
2697	0.7221
2706	0.7221
2715	0.7221
2724	0.7226
2733	0.7224
2742	0.7203
2751	0.7174
2760	0.7138
2769	0.7098
2778	0.7057
2787	0.7011
2796	0.6972
2805	0.6948
2814	0.6978
2823	0.6932
2832	0.689
2841	0.6865
2850	0.6858
2859	0.6871
2868	0.6849
2877	0.6806
2886	0.6753
2895	0.6694
2904	0.6645
2913	0.6648
2922	0.6626
2931	0.6585
2940	0.6524
2949	0.6418
2958	0.6319
2967	0.6487
2976	0.6586
2985	0.6543
2994	0.6469
3003	0.6401
3012	0.6345
3021	0.6267
3030	0.6181
3039	0.6079
3048	0.5741
3057	0.6052
3066	0.5802
3075	0.6639
3084	0.653
3093	0.6298
3102	0.6082
3111	0.6225
3120	0.6649
3129	0.6648
3138	0.6611
3147	0.6575
3156	0.6561
3165	0.6542
3174	0.6519
3183	0.6495
3192	0.6468
3201	0.6442
3210	0.6408
3219	0.6379
3228	0.6354
3237	0.6338
3246	0.6327
3255	0.6316
3264	0.6305
3273	0.6287
3282	0.6264
3291	0.6239
3300	0.6216
3309	0.6191
3318	0.6178
3327	0.6196
3336	0.6182
3345	0.6129
3354	0.6094
3363	0.6075
3372	0.6056
3381	0.6031
3390	0.6009
3399	0.5992
3408	0.5976
3417	0.5959
3426	0.5943
3435	0.5926
3444	0.591
3453	0.5893
3462	0.5878
3471	0.5862
3480	0.5847
3489	0.5832
3498	0.5817
3507	0.5798
3516	0.578
3525	0.5767
3534	0.5762
3543	0.5756
3552	0.5718
3561	0.5674
3570	0.5664
3579	0.5665
3588	0.5677
3597	0.5676
3606	0.5639
3615	0.561
3624	0.5585
3633	0.5562
3642	0.5552
3651	0.5576
3660	0.5541
3669	0.55
3678	0.5484
3687	0.5477
3696	0.5472
3705	0.5476
3714	0.5473
3723	0.5432
3732	0.5368
3741	0.5337
3750	0.5321
3759	0.5305
3768	0.5293
3777	0.5286
3786	0.5276
3795	0.5265
