Infrared Spectrum: BENZENE, 1-BROMO-4-FLUORO-
Formula: C6 H4 Br F
CAS: 460-00-4
State: SOLUTION (10% CCl4 FOR 3800-1340, 10% CS2 FOR 1340-450)
Class: COBLENTZ III
Instrument: DOW KBr FOREPRISM-GRATING
Instrument parameters: BLAZED AT 3.5, 12.0, 20.0 AND CHANGED AT 5.0, 7.5, 14.9 MICRON
Sampling: TRANSMISSION
Path length: 0.0118 CM, 0.0112 CM
Resolution: 2
Origin: DOW CHEMICAL COMPANY
1/CM	TRANSMITTANCE
3820	0.8903
3811	0.8887
3802	0.8873
3793	0.8871
3784	0.887
3775	0.8875
3766	0.8883
3757	0.8889
3748	0.8892
3739	0.8892
3730	0.8848
3721	0.882
3712	0.8831
3703	0.8866
3694	0.8771
3685	0.8816
3676	0.8827
3667	0.8809
3658	0.8828
3649	0.8859
3640	0.8875
3631	0.8889
3622	0.8898
3613	0.8897
3604	0.8896
3595	0.8895
3586	0.8894
3577	0.8893
3568	0.8892
3559	0.8891
3550	0.8889
3541	0.8887
3532	0.8886
3523	0.8884
3514	0.8882
3505	0.8878
3496	0.8877
3487	0.8875
3478	0.8871
3469	0.887
3460	0.886
3451	0.8846
3442	0.8832
3433	0.8818
3424	0.8803
3415	0.8788
3406	0.8774
3397	0.8753
3388	0.8736
3379	0.8731
3370	0.8727
3361	0.8721
3352	0.8721
3343	0.8723
3334	0.8725
3325	0.8727
3316	0.8728
3307	0.8731
3298	0.8733
3289	0.8736
3280	0.8738
3271	0.8741
3262	0.8743
3253	0.8743
3244	0.8737
3235	0.8731
3226	0.8725
3217	0.872
3208	0.8716
3199	0.8712
3190	0.8708
3181	0.8702
3172	0.8692
3163	0.8685
3154	0.8682
3145	0.8671
3136	0.8644
3127	0.8612
3118	0.8573
3109	0.8518
3100	0.8435
3091	0.8465
3082	0.8423
3073	0.828
3064	0.8421
3055	0.8586
3046	0.8646
3037	0.8566
3028	0.8654
3019	0.8724
3010	0.8738
3001	0.8747
2992	0.8755
2983	0.8764
2974	0.8771
2965	0.8775
2956	0.8774
2947	0.8784
2938	0.8799
2929	0.881
2920	0.8813
2911	0.8816
2902	0.8813
2893	0.8809
2884	0.8798
2875	0.8781
2866	0.8766
2857	0.8697
2848	0.8573
2839	0.8712
2830	0.8786
2821	0.8821
2812	0.8827
2803	0.8831
2794	0.8835
2785	0.8837
2776	0.8831
2767	0.8718
2758	0.8706
2749	0.876
2740	0.8775
2731	0.878
2722	0.878
2713	0.8781
2704	0.8789
2695	0.8796
2686	0.8798
2677	0.8798
2668	0.8798
2659	0.8799
2650	0.8801
2641	0.8796
2632	0.8765
2623	0.8793
2614	0.881
2605	0.8811
2596	0.8811
2587	0.8807
2578	0.8805
2569	0.8805
2560	0.8796
2551	0.8655
2542	0.8625
2533	0.8718
2524	0.8784
2515	0.8778
2506	0.8771
2497	0.877
2488	0.8768
2479	0.8766
2470	0.8762
2461	0.8671
2452	0.8578
2443	0.8554
2434	0.8618
2425	0.8733
2416	0.873
2407	0.87
2398	0.8673
2389	0.8663
2380	0.867
2371	0.8677
2362	0.8687
2353	0.8698
2344	0.8708
2335	0.8711
2326	0.8712
2317	0.8709
2308	0.8674
2299	0.8634
2290	0.8615
2281	0.8715
2272	0.8775
2263	0.8783
2254	0.8762
2245	0.866
2236	0.8558
2227	0.8707
2218	0.8748
2209	0.8751
2200	0.8755
2191	0.8756
2182	0.8754
2173	0.8753
2164	0.8753
2155	0.876
2146	0.8771
2137	0.8799
2128	0.8778
2119	0.8767
2110	0.8765
2101	0.8768
2092	0.8771
2083	0.8768
2074	0.8757
2065	0.874
2056	0.8697
2047	0.8574
2038	0.8425
2029	0.8506
2020	0.8621
2011	0.8696
2002	0.8754
1993	0.8801
1984	0.8862
1975	0.8881
1966	0.8823
1957	0.8845
1948	0.8901
1939	0.8899
1930	0.8896
1921	0.8889
1912	0.8871
1903	0.8839
1894	0.8774
1885	0.8656
1876	0.684
1867	0.8343
1858	0.8775
1849	0.8816
1840	0.8828
1831	0.8699
1822	0.8671
1813	0.8767
1804	0.8801
1795	0.8848
1786	0.8857
1777	0.8855
1768	0.8831
1759	0.8751
1750	0.8086
1741	0.8502
1732	0.8714
1723	0.8788
1714	0.8649
1705	0.8712
1696	0.8762
1687	0.8791
1678	0.8807
1669	0.8792
1660	0.8661
1651	0.863
1642	0.8421
1633	0.7886
1624	0.7664
1615	0.8258
1606	0.8384
1597	0.6341
1588	0.1442
1579	0.7408
1570	0.8397
1561	0.8673
1552	0.8681
1543	0.8683
1534	0.8658
1525	0.8137
1516	0.627
1507	0.6389
1498	0.4466
1489	0.0533
1480	0.2371
1471	0.6696
1462	0.7921
1453	0.8359
1444	0.8557
1435	0.851
1426	0.6422
1417	0.8201
1408	0.8582
1399	0.6642
1390	0.8361
1381	0.8575
1372	0.8539
1363	0.8625
1354	0.8621
1345	0.8673
1336	0.8757
1327	0.8736
1318	0.8593
1309	0.8563
1300	0.8478
1291	0.8234
1282	0.8307
1273	0.8375
1264	0.8438
1255	0.8025
1246	0.7884
1237	0.1541
1228	0.0317
1219	0.4004
1210	0.6703
1201	0.7914
1192	0.7925
1183	0.8632
1174	0.8454
1165	0.8589
1156	0.45
1147	0.8068
1138	0.8574
1129	0.8708
1120	0.8681
1111	0.853
1102	0.8036
1093	0.7988
1084	0.5421
1075	0.7734
1066	0.0215
1057	0.7331
1048	0.8167
1039	0.8471
1030	0.8541
1021	0.8414
1012	0.1895
1003	0.7432
994	0.8425
985	0.8589
976	0.871
967	0.8736
958	0.8707
949	0.8578
940	0.8497
931	0.8521
922	0.8341
913	0.8632
904	0.8704
895	0.8741
886	0.876
877	0.8773
868	0.8665
859	0.8571
850	0.8573
841	0.8318
832	0.704
823	0.0008
814	0.3766
805	0.6961
796	0.7961
787	0.8664
778	0.891
769	0.8906
760	0.8968
751	0.8931
742	0.8868
733	0.8873
724	0.894
715	0.8915
706	0.8899
697	0.8884
688	0.8825
679	0.8601
670	0.8856
661	0.8803
652	0.8784
643	0.8768
634	0.8742
625	0.8591
616	0.8574
607	0.8501
598	0.0257
589	0.5849
580	0.7501
571	0.766
562	0.8492
553	0.8542
544	0.8564
535	0.8603
526	0.8575
517	0.8489
508	0.8338
499	0.0665
490	0.4812
481	0.7898
472	0.8132
463	0.8169
454	0.8188
445	0.8198
436	0.8208
