Infrared Spectrum: Benzene, fluoro-
Formula: C6 H5 F
CAS: 462-06-6
State: GAS (50 mmHg, N2 ADDED, TOTAL PRESSURE 600 mmHg)
Class: COBLENTZ
Instrument: DOW KBr FOREPRISM-GRATING
Instrument parameters: GRATING CHANGED AT 5.0, 7.5, 15.0 MICRON
Sampling: TRANSMISSION
Path length: 10 CM
Resolution: 2
Origin: DOW CHEMICAL COMPANY
1/CM	TRANSMITTANCE
390	0.6441
399	0.6515
408	0.6721
417	0.7153
426	0.7351
435	0.7503
444	0.7561
453	0.7549
462	0.7638
471	0.7294
480	0.6057
489	0.5056
498	0.1791
507	0.3427
516	0.4279
525	0.5184
534	0.7953
543	0.8095
552	0.8129
561	0.81
570	0.8114
579	0.8162
588	0.8188
597	0.8226
606	0.819
615	0.8077
624	0.8133
633	0.817
642	0.8046
651	0.77
660	0.5364
669	0.3231
678	0.2717
687	0.1969
696	0.3505
705	0.6508
714	0.784
723	0.6682
732	0.2567
741	0.0554
750	0.0033
759	0.0357
768	0.0613
777	0.4575
786	0.7063
795	0.3446
804	0.1342
813	0.1449
822	0.4158
831	0.4829
840	0.7865
849	0.8024
858	0.7893
867	0.719
876	0.6044
885	0.5524
894	0.5754
903	0.5652
912	0.7369
921	0.8012
930	0.8055
939	0.8122
948	0.812
957	0.8006
966	0.7891
975	0.7385
984	0.7306
993	0.7053
1002	0.7034
1011	0.5705
1020	0.7024
1029	0.7787
1038	0.7803
1047	0.6586
1056	0.4614
1065	0.4747
1074	0.6323
1083	0.7722
1092	0.7857
1101	0.7817
1110	0.7689
1119	0.7599
1128	0.7607
1137	0.6235
1146	0.3047
1155	0.5038
1164	0.4114
1173	0.7401
1182	0.7526
1191	0.7171
1200	0.617
1209	0.3273
1218	0.0264
1227	0.0085
1236	0.0108
1245	0.0266
1254	0.3982
1263	0.6914
1272	0.7405
1281	0.75
1290	0.7459
1299	0.7485
1308	0.7357
1317	0.6587
1326	0.6713
1335	0.7335
1344	0.7745
1353	0.792
1362	0.7974
1371	0.7734
1380	0.731
1389	0.7325
1398	0.7666
1407	0.7989
1416	0.7955
1425	0.7753
1434	0.7455
1443	0.6697
1452	0.6111
1461	0.4152
1470	0.4619
1479	0.2887
1488	0.0087
1497	0.0149
1506	0.0132
1515	0.346
1524	0.5881
1533	0.6349
1542	0.7486
1551	0.7592
1560	0.6665
1569	0.6255
1578	0.5382
1587	0.0936
1596	0.0056
1605	0.0082
1614	0.2715
1623	0.6485
1632	0.748
1641	0.7706
1650	0.7935
1659	0.7959
1668	0.7847
1677	0.7591
1686	0.7373
1695	0.6676
1704	0.7047
1713	0.6979
1722	0.7656
1731	0.7786
1740	0.787
1749	0.7754
1758	0.7186
1767	0.7169
1776	0.7382
1785	0.8011
1794	0.8055
1803	0.8124
1812	0.808
1821	0.7878
1830	0.7507
1839	0.6996
1848	0.7531
1857	0.713
1866	0.7587
1875	0.785
1884	0.8204
1893	0.8207
1902	0.8069
1911	0.7734
1920	0.7045
1929	0.7246
1938	0.6652
1947	0.7274
1956	0.7405
1965	0.7867
1974	0.8053
1983	0.8115
1992	0.8115
2001	0.8118
2010	0.8089
2019	0.7967
2028	0.7652
2037	0.7376
2046	0.7271
2055	0.8115
2064	0.8194
2073	0.8245
2082	0.8287
2091	0.8317
2100	0.8338
2109	0.8343
2118	0.8342
2127	0.8346
2136	0.8375
2145	0.8409
2154	0.8398
2163	0.8358
2172	0.8335
2181	0.8381
2190	0.8402
2199	0.8386
2208	0.8329
2217	0.8295
2226	0.8295
2235	0.8319
2244	0.836
2253	0.8389
2262	0.8405
2271	0.8363
2280	0.8297
2289	0.819
2298	0.8024
2307	0.786
2316	0.7965
2325	0.8165
2334	0.8364
2343	0.84
2352	0.8362
2361	0.8269
2370	0.8169
2379	0.8074
2388	0.7989
2397	0.7921
2406	0.7887
2415	0.7961
2424	0.802
2433	0.797
2442	0.7901
2451	0.7713
2460	0.7586
2469	0.759
2478	0.8
2487	0.8225
2496	0.8277
2505	0.824
2514	0.8243
2523	0.8266
2532	0.8282
2541	0.8288
2550	0.8221
2559	0.8111
2568	0.8037
2577	0.809
2586	0.8264
2595	0.8255
2604	0.8134
2613	0.8093
2622	0.8228
2631	0.831
2640	0.8343
2649	0.8368
2658	0.8384
2667	0.8392
2676	0.8401
2685	0.8419
2694	0.8435
2703	0.842
2712	0.8368
2721	0.8311
2730	0.8317
2739	0.836
2748	0.8419
2757	0.8422
2766	0.8401
2775	0.8392
2784	0.8432
2793	0.8489
2802	0.8521
2811	0.8485
2820	0.8413
2829	0.8355
2838	0.8312
2847	0.8281
2856	0.8238
2865	0.8112
2874	0.8035
2883	0.8071
2892	0.8158
2901	0.8165
2910	0.8142
2919	0.8081
2928	0.81
2937	0.8138
2946	0.8195
2955	0.8276
2964	0.8398
2973	0.8438
2982	0.8453
2991	0.8458
3000	0.8448
3009	0.8301
3018	0.8006
3027	0.681
3036	0.4922
3045	0.4207
3054	0.2597
3063	0.1837
3072	0.3158
3081	0.3343
3090	0.2912
3099	0.4174
3108	0.5379
3117	0.6288
3126	0.7567
3135	0.8441
3144	0.861
3153	0.8661
3162	0.8679
3171	0.8674
3180	0.8644
3189	0.8602
3198	0.8612
3207	0.8628
3216	0.865
3225	0.8673
3234	0.8677
3243	0.8678
3252	0.8686
3261	0.8702
3270	0.8719
3279	0.8717
3288	0.8718
3297	0.8723
3306	0.8735
3315	0.8754
3324	0.8768
3333	0.8775
3342	0.8766
3351	0.873
3360	0.8718
3369	0.874
3378	0.8772
3387	0.8793
3396	0.8776
3405	0.8741
3414	0.8737
3423	0.8741
3432	0.8754
3441	0.8762
3450	0.8767
3459	0.8751
3468	0.8737
3477	0.8726
3486	0.873
3495	0.8733
3504	0.8732
3513	0.873
3522	0.8721
3531	0.8713
3540	0.8729
3549	0.8743
3558	0.8743
3567	0.8711
3576	0.8684
3585	0.8668
3594	0.8665
3603	0.8685
3612	0.8717
3621	0.8706
3630	0.8655
3639	0.8676
3648	0.8685
3657	0.8683
3666	0.8674
3675	0.8666
3684	0.867
3693	0.8704
3702	0.8748
3711	0.8784
3720	0.8817
3729	0.8846
3738	0.886
3747	0.887
3756	0.887
3765	0.8866
3774	0.885
3783	0.882
