Infrared Spectrum: DIETHOXY METHANE
Formula: C5 H12 O2
CAS: 462-95-3
State: LIQUID
Boiling point: 86-88 C
Class: COBLENTZ
Instrument: Not specified, most likely a prism, grating, or hybrid spectrometer.
Sampling: TRANSMISSION
Path length: 0.0015 CM
Resolution: 4
Origin: WYANDOTTE CHEMICALS CORP., WYANDOTTE, MICHIGAN, USA
MICROMETERS	TRANSMITTANCE
2.03	0.96
2.06979	0.965
2.10959	0.965
2.14938	0.963
2.18918	0.946
2.22897	0.943
2.26877	0.961
2.30856	0.961
2.34836	0.95
2.38815	0.946
2.42794	0.953
2.46774	0.97
2.50753	0.966
2.54733	0.968
2.58712	0.97
2.62692	0.971
2.66671	0.971
2.7065	0.97
2.7463	0.963
2.78609	0.96
2.82589	0.956
2.86568	0.961
2.90548	0.96
2.94527	0.958
2.98507	0.95
3.02486	0.941
3.06465	0.95
3.10445	0.931
3.14424	0.933
3.18404	0.938
3.22383	0.933
3.26363	0.905
3.30342	0.78
3.34322	0.324
3.38301	0.324
3.4228	0.314
3.4626	0.347
3.50239	0.627
3.54219	0.77
3.58198	0.783
3.62178	0.83
3.66157	0.885
3.70136	0.945
3.74116	0.955
3.78095	0.96
3.82075	0.96
3.86054	0.975
3.90034	0.978
3.94013	0.985
3.97993	0.983
4.01972	0.981
4.05951	0.985
4.09931	0.983
4.1391	0.986
4.1789	0.986
4.21869	0.986
4.25849	0.991
4.29828	0.995
4.33807	0.981
4.37787	0.985
4.41766	0.986
4.45746	0.99
4.49725	0.986
4.53705	0.993
4.57684	0.99
4.61664	0.988
4.65643	0.988
4.69622	0.983
4.73602	0.981
4.77581	0.983
4.81561	0.988
4.8554	0.993
4.8952	0.986
4.93499	0.986
4.97479	0.98
5.01458	0.99
5.05437	0.985
5.09417	0.98
5.13396	0.968
5.17376	0.965
5.21355	0.973
5.25335	0.988
5.29314	0.981
5.33293	0.981
5.37273	0.981
5.41252	0.99
5.45232	1.001
5.49211	0.996
5.53191	0.995
5.5717	1.001
5.6115	0.993
5.65129	0.996
5.69108	0.988
5.73088	0.98
5.77067	0.975
5.81047	0.981
5.85026	0.978
5.89006	0.96
5.92985	0.966
5.96965	0.956
6.00944	0.943
6.04923	0.941
6.08903	0.95
6.12882	0.963
6.16862	0.953
6.20841	0.963
6.24821	0.968
6.288	0.971
6.32779	0.97
6.36759	0.961
6.40738	0.965
6.44718	0.96
6.48697	0.953
6.52677	0.948
6.56656	0.938
6.60636	0.938
6.64615	0.921
6.68594	0.868
6.72574	0.8
6.76553	0.82
6.80533	0.797
6.84512	0.767
6.88492	0.718
6.92471	0.757
6.9645	0.83
7.0043	0.868
7.04409	0.858
7.08389	0.818
7.12368	0.733
7.16348	0.504
7.20327	0.524
7.24307	0.698
7.28286	0.825
7.32265	0.873
7.36245	0.9
7.40224	0.921
7.44204	0.936
7.48183	0.94
7.52163	0.936
7.56142	0.931
7.60122	0.913
7.64101	0.895
7.6808	0.873
7.7206	0.863
7.76039	0.853
7.80019	0.866
7.83998	0.86
7.87978	0.853
7.91957	0.893
7.95936	0.911
7.99916	0.915
8.03895	0.908
8.07875	0.9
8.11854	0.901
8.15834	0.89
8.19813	0.86
8.23793	0.833
8.27772	0.763
8.31751	0.6
8.35731	0.424
8.3971	0.407
8.4369	0.499
8.47669	0.555
8.51649	0.554
8.55628	0.504
8.59608	0.41
8.63587	0.341
8.67566	0.372
8.71546	0.405
8.75525	0.419
8.79505	0.4
8.83484	0.344
8.87464	0.232
8.91443	0.118
8.95422	0.118
8.99402	0.166
9.03381	0.154
9.07361	0.091
9.1134	0.098
9.1532	0.163
9.19299	0.277
9.23279	0.336
9.27258	0.364
9.31237	0.362
9.35217	0.332
9.39196	0.259
9.43176	0.164
9.47155	0.086
9.51135	0.059
9.55114	0.064
9.59093	0.094
9.63073	0.166
9.67052	0.252
9.71032	0.349
9.75011	0.4
9.78991	0.341
9.8297	0.229
9.8695	0.231
9.90929	0.357
9.94908	0.475
9.98888	0.562
10.0287	0.607
10.0685	0.625
10.1083	0.62
10.1481	0.613
10.1879	0.633
10.2276	0.702
10.2674	0.767
10.3072	0.823
10.347	0.851
10.3868	0.881
10.4266	0.896
10.4664	0.903
10.5062	0.911
10.546	0.921
10.5858	0.93
10.6256	0.926
10.6654	0.933
10.7052	0.93
10.745	0.928
10.7848	0.925
10.8246	0.926
10.8644	0.925
10.9041	0.918
10.9439	0.92
10.9837	0.93
11.0235	0.933
11.0633	0.933
11.1031	0.926
11.1429	0.93
11.1827	0.933
11.2225	0.931
11.2623	0.935
11.3021	0.935
11.3419	0.931
11.3817	0.928
11.4215	0.926
11.4613	0.923
11.5011	0.915
11.5409	0.905
11.5807	0.896
11.6204	0.878
11.6602	0.845
11.7	0.793
11.7398	0.683
11.7796	0.574
11.8194	0.57
11.8592	0.647
11.899	0.712
11.9388	0.767
11.9786	0.798
12.0184	0.838
12.0582	0.861
12.098	0.883
12.1378	0.9
12.1776	0.905
12.2174	0.901
12.2572	0.906
12.297	0.903
12.3367	0.891
12.3765	0.893
12.4163	0.895
12.4561	0.89
12.4959	0.885
12.5357	0.88
12.5755	0.896
12.6153	0.905
12.6551	0.913
12.6949	0.923
12.7347	0.93
12.7745	0.931
12.8143	0.936
12.8541	0.938
12.8939	0.938
12.9337	0.938
12.9735	0.938
13.0133	0.945
13.053	0.943
13.0928	0.943
13.1326	0.941
13.1724	0.94
13.2122	0.94
13.252	0.938
13.2918	0.94
13.3316	0.945
13.3714	0.95
13.4112	0.943
13.451	0.935
13.4908	0.933
13.5306	0.936
13.5704	0.941
13.6102	0.938
13.65	0.938
13.6898	0.938
13.7296	0.94
13.7693	0.945
13.8091	0.94
13.8489	0.938
13.8887	0.933
13.9285	0.935
13.9683	0.935
14.0081	0.933
14.0479	0.933
14.0877	0.925
14.1275	0.93
14.1673	0.926
14.2071	0.923
14.2469	0.925
14.2867	0.925
14.3265	0.921
14.3663	0.921
14.4061	0.915
14.4459	0.913
14.4856	0.911
14.5254	0.91
14.5652	0.905
14.605	0.901
14.6448	0.895
14.6846	0.89
14.7244	0.888
14.7642	0.878
14.804	0.88
14.8438	0.881
14.8836	0.876
14.9234	0.878
14.9632	0.87
15.003	0.863
15.0428	0.836
15.0826	0.811
15.1224	0.825
15.1622	0.845
15.2019	0.851
15.2417	0.833
15.2815	0.833
15.3213	0.83
15.3611	0.823
15.4009	0.806
15.4407	0.8
15.4805	0.792
15.5203	0.79
15.5601	0.795
15.5999	0.778
15.6397	0.777
15.6795	0.778
15.7193	0.773
15.7591	0.767
15.7989	0.758
15.8387	0.748
15.8784	0.752
15.9182	0.752
15.958	0.748
