Infrared Spectrum: Cyclopentanecarboxylic acid, methyl ester
Formula: C7 H12 O2
CAS: 4630-80-2
State: SOLUTION (10% CCl4 FOR 3800-1330, 10% CS2 FOR 1330-400 CM^-^1)
Class: COBLENTZ III
Instrument: BECKMAN IR-9 (GRATING)
Instrument parameters: ORDER CHANGES: 670, 1200, 2000 CM^-^1
Sampling: TRANSMISSION
Path length: 0.012 CM, 0.012 CM
Resolution: 2
Origin: DOW CHEMICAL COMPANY
1/CM	TRANSMITTANCE
3798	0.88
3789	0.8826
3780	0.8833
3771	0.8804
3762	0.8812
3753	0.8857
3744	0.8876
3735	0.8882
3726	0.8845
3717	0.8809
3708	0.8805
3699	0.877
3690	0.865
3681	0.8735
3672	0.8811
3663	0.8799
3654	0.8793
3645	0.8835
3636	0.8752
3627	0.8713
3618	0.8615
3609	0.8474
3600	0.8302
3591	0.8231
3582	0.8257
3573	0.829
3564	0.8284
3555	0.825
3546	0.8237
3537	0.8225
3528	0.8232
3519	0.8242
3510	0.8245
3501	0.824
3492	0.8208
3483	0.8146
3474	0.8056
3465	0.789
3456	0.7809
3447	0.7864
3438	0.8
3429	0.8111
3420	0.8201
3411	0.8256
3402	0.8287
3393	0.831
3384	0.832
3375	0.833
3366	0.8323
3357	0.8314
3348	0.8303
3339	0.829
3330	0.8286
3321	0.8285
3312	0.8298
3303	0.8285
3294	0.8291
3285	0.8297
3276	0.8307
3267	0.8321
3258	0.8327
3249	0.8334
3240	0.8342
3231	0.8352
3222	0.836
3213	0.8368
3204	0.8354
3195	0.8359
3186	0.8358
3177	0.8359
3168	0.8356
3159	0.8382
3150	0.838
3141	0.8361
3132	0.8333
3123	0.8296
3114	0.8256
3105	0.8223
3096	0.821
3087	0.813
3078	0.8061
3069	0.7977
3060	0.7833
3051	0.7603
3042	0.7101
3033	0.6485
3024	0.5712
3015	0.553
3006	0.4898
2997	0.3567
2988	0.2786
2979	0.1399
2970	0.028
2961	0.0232
2952	0.0224
2943	0.0592
2934	0.1741
2925	0.2267
2916	0.2487
2907	0.32
2898	0.4058
2889	0.3604
2880	0.1803
2871	0.1671
2862	0.3942
2853	0.5443
2844	0.5767
2835	0.6827
2826	0.7359
2817	0.7935
2808	0.8223
2799	0.8353
2790	0.8437
2781	0.8517
2772	0.8612
2763	0.8677
2754	0.8693
2745	0.8709
2736	0.8729
2727	0.8739
2718	0.8749
2709	0.8773
2700	0.8838
2691	0.8865
2682	0.8847
2673	0.8838
2664	0.884
2655	0.8891
2646	0.8928
2637	0.8951
2628	0.8991
2619	0.8978
2610	0.8929
2601	0.8882
2592	0.8892
2583	0.8957
2574	0.902
2565	0.9043
2556	0.907
2547	0.91
2538	0.9129
2529	0.9149
2520	0.9172
2511	0.92
2502	0.9229
2493	0.9259
2484	0.929
2475	0.9329
2466	0.9349
2457	0.9362
2448	0.9374
2439	0.9368
2430	0.9315
2421	0.9262
2412	0.9228
2403	0.9218
2394	0.9209
2385	0.9269
2376	0.9383
2367	0.9385
2358	0.9386
2349	0.9373
2340	0.939
2331	0.9372
2322	0.9381
2313	0.9358
2304	0.9338
2295	0.9343
2286	0.9331
2277	0.9328
2268	0.931
2259	0.9325
2250	0.9362
2241	0.94
2232	0.9403
2223	0.9407
2214	0.9397
2205	0.9402
2196	0.9406
2187	0.9396
2178	0.9409
2169	0.9405
2160	0.9387
2151	0.938
2142	0.9369
2133	0.9341
2124	0.9296
2115	0.9268
2106	0.9259
2097	0.9246
2088	0.923
2079	0.9198
2070	0.9187
2061	0.9187
2052	0.9201
2043	0.9194
2034	0.9189
2025	0.9172
2016	0.9166
2007	0.9136
1998	0.8778
1989	0.911
1980	0.914
1971	0.9146
1962	0.9165
1953	0.9141
1944	0.9117
1935	0.911
1926	0.9102
1917	0.9078
1908	0.9059
1899	0.9075
1890	0.9073
1881	0.9099
1872	0.912
1863	0.9104
1854	0.9076
1845	0.9
1836	0.8871
1827	0.874
1818	0.8588
1809	0.8361
1800	0.8042
1791	0.7656
1782	0.7026
1773	0.6055
1764	0.421
1755	0.1857
1746	0.0054
1737	0.0029
1728	0.0278
1719	0.0994
1710	0.1895
1701	0.4314
1692	0.5683
1683	0.6181
1674	0.6772
1665	0.7523
1656	0.7824
1647	0.8064
1638	0.8131
1629	0.8161
1620	0.801
1611	0.7637
1602	0.7749
1593	0.7458
1584	0.7406
1575	0.7333
1566	0.6965
1557	0.6662
1548	0.7261
1539	0.7636
1530	0.772
1521	0.7265
1512	0.7627
1503	0.7705
1494	0.7475
1485	0.7012
1476	0.6028
1467	0.4494
1458	0.2378
1449	0.2706
1440	0.0803
1431	0.4169
1422	0.6365
1413	0.6714
1404	0.679
1395	0.6614
1386	0.6219
1377	0.4669
1368	0.2433
1359	0.3046
1350	0.4388
1341	0.5715
1332	0.7609
1323	0.691
1314	0.5902
1305	0.6277
1296	0.6767
1287	0.6727
1278	0.6118
1269	0.5506
1260	0.5063
1251	0.5832
1242	0.6025
1233	0.5902
1224	0.5193
1215	0.45
1206	0.2905
1197	0.1656
1188	0.3076
1179	0.2578
1170	0.2287
1161	0.2392
1152	0.3381
1143	0.5078
1134	0.6251
1125	0.6677
1116	0.6688
1107	0.6423
1098	0.6489
1089	0.6837
1080	0.7049
1071	0.7348
1062	0.7175
1053	0.6835
1044	0.6564
1035	0.7453
1026	0.7544
1017	0.664
1008	0.6819
999	0.8022
990	0.8594
981	0.8714
972	0.8799
963	0.8743
954	0.8624
945	0.8566
936	0.8518
927	0.8088
918	0.7513
909	0.7726
900	0.8033
891	0.8229
882	0.7915
873	0.8042
864	0.7846
855	0.806
846	0.831
837	0.8202
828	0.8215
819	0.8133
810	0.811
801	0.8177
792	0.8325
783	0.8468
774	0.8282
765	0.8105
756	0.8015
747	0.8189
738	0.8273
729	0.8297
720	0.8316
711	0.8277
702	0.826
693	0.8342
684	0.8398
675	0.8465
666	0.8499
657	0.8311
648	0.8462
639	0.8499
630	0.8548
621	0.8631
612	0.8664
603	0.8652
594	0.8615
585	0.8576
576	0.8704
567	0.876
558	0.872
549	0.8662
540	0.8617
531	0.8536
522	0.8434
513	0.839
504	0.8298
495	0.8156
486	0.7966
477	0.7705
468	0.7418
459	0.7081
450	0.6676
441	0.6222
432	0.5608
423	0.4321
414	0.2095
405	0.1171
