Infrared Spectrum: CYCLOHEXANECARBOXYLIC ACID, METHYL ESTER
Formula: C8 H14 O2
CAS: 4630-82-4
Boiling point: 68.5-69 C AT 155 mmHg
Class: COBLENTZ
Instrument: Not specified, most likely a prism, grating, or hybrid spectrometer.
Sampling: TRANSMISSION
Path length: CAPILLARY
Resolution: 4
Origin: TENNESSEE EASTMAN COMPANY, RESEARCH LABORATORIES
MICROMETERS	TRANSMITTANCE
2.061	1
2.102	1.003
2.143	1.003
2.18399	1
2.22499	0.95
2.26599	0.948
2.30699	0.943
2.34799	0.943
2.38899	0.941
2.42998	0.943
2.47098	0.957
2.51198	0.964
2.55298	0.969
2.59398	0.967
2.63497	0.969
2.67597	0.969
2.71697	0.936
2.75797	0.941
2.79897	0.941
2.83996	0.943
2.88096	0.887
2.92196	0.948
2.96296	0.953
3.00396	0.962
3.04496	0.965
3.08595	0.965
3.12695	0.959
3.16795	0.941
3.20895	0.931
3.24995	0.882
3.29094	0.583
3.33194	0.356
3.37294	0.001
3.41394	0.075
3.45494	0.087
3.49593	0.334
3.53693	0.771
3.57793	0.858
3.61893	0.93
3.65993	0.936
3.70093	0.907
3.74192	0.837
3.78292	0.861
3.82392	0.912
3.86492	0.918
3.90592	0.948
3.94691	0.96
3.98791	0.959
4.02891	0.962
4.06991	0.967
4.11091	0.969
4.1519	0.964
4.1929	0.955
4.2339	0.941
4.2749	0.935
4.3159	0.948
4.3569	0.962
4.39789	0.967
4.43889	0.96
4.47989	0.96
4.52089	0.96
4.56189	0.962
4.60288	0.957
4.64388	0.952
4.68488	0.94
4.72588	0.921
4.76688	0.909
4.80788	0.909
4.84887	0.926
4.88987	0.919
4.93087	0.911
4.97187	0.945
5.01287	0.952
5.05386	0.912
5.09486	0.94
5.13586	0.945
5.17686	0.947
5.21786	0.948
5.25885	0.94
5.29985	0.935
5.34085	0.936
5.38185	0.94
5.42285	0.93
5.46385	0.911
5.50484	0.878
5.54584	0.757
5.58684	0.646
5.62784	0.494
5.66884	0.211
5.70983	0.029
5.75083	0.015
5.79183	0.035
5.83283	0.281
5.87383	0.411
5.91482	0.568
5.95582	0.689
5.99682	0.761
6.03782	0.767
6.07882	0.771
6.11982	0.802
6.16081	0.813
6.20181	0.836
6.24281	0.848
6.28381	0.854
6.32481	0.849
6.3658	0.839
6.4068	0.803
6.4478	0.802
6.4888	0.819
6.5298	0.805
6.57079	0.781
6.61179	0.75
6.65279	0.72
6.69379	0.65
6.73479	0.53
6.77579	0.274
6.81678	0.17
6.85778	0.027
6.89878	0.069
6.93978	0.064
6.98078	0.305
7.02177	0.605
7.06277	0.668
7.10377	0.687
7.14477	0.655
7.18577	0.542
7.22677	0.325
7.26776	0.189
7.30876	0.315
7.34976	0.477
7.39076	0.441
7.43176	0.47
7.47275	0.278
7.51375	0.158
7.55475	0.139
7.59575	0.071
7.63675	0.116
7.67774	0.209
7.71874	0.273
7.75974	0.303
7.80074	0.194
7.84174	0.155
7.88274	0.244
7.92373	0.143
7.96473	0.042
8.00573	0.029
8.04673	0.052
8.08773	0.085
8.12872	0.087
8.16972	0.107
8.21072	0.092
8.25172	0.054
8.29272	0.005
8.33371	0.01
8.37471	0.015
8.41571	0.025
8.45671	0.013
8.49771	0.008
8.53871	0.006
8.5797	0.032
8.6207	0.109
8.6617	0.165
8.7027	0.107
8.7437	0.058
8.78469	0.032
8.82569	0.138
8.86669	0.334
8.90769	0.397
8.94869	0.452
8.98968	0.551
9.03068	0.621
9.07168	0.638
9.11268	0.643
9.15368	0.634
9.19468	0.6
9.23567	0.493
9.27667	0.53
9.31767	0.6
9.35867	0.598
9.39967	0.517
9.44066	0.354
9.48166	0.22
9.52266	0.109
9.56366	0.042
9.60466	0.063
9.64566	0.16
9.68665	0.228
9.72765	0.261
9.76865	0.324
9.80965	0.559
9.85065	0.67
9.89164	0.721
9.93264	0.737
9.97364	0.713
10.0146	0.61
10.0556	0.488
10.0966	0.351
10.1376	0.351
10.1786	0.564
10.2196	0.725
10.2606	0.803
10.3016	0.831
10.3426	0.851
10.3836	0.865
10.4246	0.872
10.4656	0.873
10.5066	0.877
10.5476	0.88
10.5886	0.882
10.6296	0.878
10.6706	0.868
10.7116	0.819
10.7526	0.803
10.7936	0.791
10.8346	0.784
10.8756	0.822
10.9166	0.822
10.9576	0.795
10.9986	0.713
11.0396	0.595
11.0806	0.45
11.1216	0.349
11.1626	0.322
11.2036	0.343
11.2446	0.404
11.2856	0.535
11.3266	0.622
11.3676	0.656
11.4086	0.634
11.4496	0.609
11.4906	0.645
11.5316	0.627
11.5726	0.622
11.6136	0.691
11.6546	0.764
11.6956	0.798
11.7366	0.81
11.7776	0.784
11.8186	0.646
11.8596	0.453
11.9006	0.493
11.9416	0.728
11.9825	0.762
12.0235	0.757
12.0645	0.759
12.1055	0.81
12.1465	0.839
12.1875	0.861
12.2285	0.866
12.2695	0.872
12.3105	0.87
12.3515	0.863
12.3925	0.836
12.4335	0.805
12.4745	0.759
12.5155	0.759
12.5565	0.793
12.5975	0.803
12.6385	0.817
12.6795	0.827
12.7205	0.832
12.7615	0.836
12.8025	0.836
12.8435	0.831
12.8845	0.807
12.9255	0.779
12.9665	0.709
13.0075	0.653
13.0485	0.598
13.0895	0.52
13.1305	0.489
13.1715	0.489
13.2125	0.558
13.2535	0.619
13.2945	0.663
13.3355	0.701
13.3765	0.732
13.4175	0.745
13.4585	0.754
13.4995	0.759
13.5405	0.761
13.5815	0.762
13.6225	0.761
13.6635	0.761
13.7045	0.75
13.7455	0.747
13.7865	0.74
13.8275	0.737
13.8685	0.732
13.9095	0.721
13.9505	0.716
13.9915	0.711
14.0325	0.704
14.0735	0.699
14.1145	0.697
14.1554	0.691
14.1964	0.689
14.2374	0.687
14.2784	0.689
14.3194	0.686
14.3604	0.684
14.4014	0.68
14.4424	0.675
14.4834	0.67
14.5244	0.672
14.5654	0.667
14.6064	0.668
14.6474	0.668
14.6884	0.663
14.7294	0.66
14.7704	0.655
14.8114	0.65
14.8524	0.646
14.8934	0.641
14.9344	0.631
14.9754	0.627
15.0164	0.624
15.0574	0.624
15.0984	0.617
15.1394	0.614
15.1804	0.609
15.2214	0.604
15.2624	0.6
15.3034	0.598
15.3444	0.593
15.3854	0.585
15.4264	0.587
15.4674	0.585
15.5084	0.587
15.5494	0.58
15.5904	0.576
15.6314	0.576
15.6724	0.58
15.7134	0.573
15.7544	0.568
15.7954	0.573
15.8364	0.569
15.8774	0.571
15.9184	0.568
15.9594	0.564
