Infrared Spectrum: Pinacolyl alcohol
Formula: C 6 H 14 O
CAS: 464-07-3
State: liquid
Instrument: Bruker Vertex 70 FTIR
Resolution: 0.48217186
Origin: Pacific Northwest National Laboratory Under IARPA Contract
1/cm	dispersion index
7799.05	1.40115
7780.49	1.40124
7761.93	1.40125
7743.36	1.40125
7724.8	1.40124
7706.24	1.40124
7687.67	1.40123
7669.11	1.40122
7650.55	1.40121
7631.98	1.40119
7613.42	1.40118
7594.86	1.40117
7576.3	1.40116
7557.73	1.40115
7539.17	1.40113
7520.61	1.40112
7502.04	1.40111
7483.48	1.4011
7464.92	1.40107
7446.35	1.40107
7427.79	1.40108
7409.23	1.40105
7390.67	1.40104
7372.1	1.40102
7353.54	1.40101
7334.98	1.40099
7316.41	1.40098
7297.85	1.40096
7279.29	1.40094
7260.72	1.40093
7242.16	1.40091
7223.6	1.40089
7205.04	1.40087
7186.47	1.40085
7167.91	1.40083
7149.35	1.40081
7130.78	1.40079
7112.22	1.40077
7093.66	1.40074
7075.09	1.40072
7056.53	1.4007
7037.97	1.40067
7019.41	1.40065
7000.84	1.40062
6982.28	1.40059
6963.72	1.40056
6945.15	1.40053
6926.59	1.40049
6908.03	1.40045
6889.46	1.4004
6870.9	1.40035
6852.34	1.40038
6833.77	1.40039
6815.21	1.40036
6796.65	1.40032
6778.09	1.40031
6759.52	1.40027
6740.96	1.40022
6722.4	1.40019
6703.83	1.40014
6685.27	1.40009
6666.71	1.40003
6648.14	1.39998
6629.58	1.39993
6611.02	1.39988
6592.46	1.39982
6573.89	1.39976
6555.33	1.39969
6536.77	1.39965
6518.2	1.39958
6499.64	1.39951
6481.08	1.39945
6462.51	1.39938
6443.95	1.39931
6425.39	1.39923
6406.83	1.39914
6388.26	1.39905
6369.7	1.39894
6351.14	1.39884
6332.57	1.39876
6314.01	1.39869
6295.45	1.39862
6276.88	1.39854
6258.32	1.39845
6239.76	1.39835
6221.2	1.39821
6202.63	1.39806
6184.07	1.3979
6165.51	1.39771
6146.94	1.39748
6128.38	1.39717
6109.82	1.39693
6091.25	1.39707
6072.69	1.39679
6054.13	1.39718
6035.57	1.39688
6017	1.39653
5998.44	1.39627
5979.88	1.3962
5961.31	1.3959
5942.75	1.39555
5924.19	1.39526
5905.62	1.39493
5887.06	1.39443
5868.5	1.39396
5849.94	1.39339
5831.37	1.3928
5812.81	1.39199
5794.25	1.39113
5775.68	1.38988
5757.12	1.38824
5738.56	1.38647
5719.99	1.38303
5701.43	1.38167
5682.87	1.37715
5664.31	1.37375
5645.74	1.37353
5627.18	1.37805
5608.62	1.38655
5590.05	1.39787
5571.49	1.40888
5552.93	1.4146
5534.36	1.41477
5515.8	1.41231
5497.24	1.40936
5478.68	1.4057
5460.11	1.40122
5441.55	1.39575
5422.99	1.38757
5404.42	1.36837
5385.86	1.36682
5367.3	1.43595
5348.73	1.42495
5330.17	1.44932
5311.61	1.43161
5293.05	1.42452
5274.48	1.41951
5255.92	1.41679
5237.36	1.41513
5218.79	1.41458
5200.23	1.41314
5181.67	1.41201
5163.1	1.41075
5144.54	1.41
5125.98	1.40922
5107.41	1.40849
5088.85	1.40801
5070.29	1.40742
5051.73	1.40655
5033.16	1.40632
5014.6	1.40552
4996.04	1.40505
4977.47	1.40459
4958.91	1.40396
4940.35	1.40349
4921.78	1.40288
4903.22	1.40227
4884.66	1.40169
4866.1	1.40118
4847.53	1.40061
4828.97	1.39966
4810.41	1.39896
4791.84	1.3979
4773.28	1.39681
4754.72	1.39512
4736.15	1.3936
4717.59	1.39312
4699.03	1.39078
4680.47	1.38617
4661.9	1.37825
4643.34	1.3496
4624.78	1.40116
4606.21	1.38134
4587.65	1.38089
4569.09	1.41067
4550.52	1.40189
4531.96	1.40703
4513.4	1.3998
4494.84	1.41112
4476.27	1.38575
4457.71	1.32014
4439.15	1.47589
4420.58	1.45313
4402.02	1.47197
4383.46	1.42679
4364.89	1.39216
4346.33	1.45418
4327.77	1.42401
4309.21	1.41807
4290.64	1.40976
4272.08	1.40362
4253.52	1.40561
4234.95	1.4036
4216.39	1.40952
4197.83	1.41656
4179.26	1.43028
4160.7	1.43201
4142.14	1.436
4123.58	1.44264
4105.01	1.45053
4086.45	0.000947172
4067.89	0.000941588
4049.32	0.000931535
4030.76	0.000919249
4012.2	0.000923717
3993.63	0.000919249
3975.07	0.000903612
3956.51	0.000895792
3937.95	0.000899143
3919.38	0.000918131
3900.82	0.000961693
3882.26	0.00103094
3863.69	0.00104323
3845.13	0.00107004
3826.57	0.00108232
3808	0.00110019
3789.44	0.00110131
3770.88	0.00111136
3752.32	0.00137385
3733.75	0.001318
3715.19	0.00116163
3696.63	0.00116163
3678.06	0.0011728
3659.5	0.0011728
3640.94	0.00119514
3622.37	0.0012063
3603.81	0.0012063
3585.25	0.0012063
3566.68	0.00119514
3548.12	0.00118397
3529.56	0.00116163
3511	0.00113929
3492.43	0.00112812
3473.87	0.00111248
3455.31	0.00110466
3436.74	0.00109684
3418.18	0.00109796
3399.62	0.00110131
3381.05	0.00109908
3362.49	0.00108344
3343.93	0.00105998
3325.37	0.00103318
3306.8	0.00100972
3288.24	0.00100079
3269.68	0.000981799
3251.11	0.000956109
3232.55	0.000936003
3213.99	0.000931535
3195.42	0.000976213
3176.86	0.00136268
3158.3	0.00220039
3139.74	0.00206636
3121.17	0.00164191
3102.61	0.00154139
3084.05	0.00153022
3065.48	0.00122864
3046.92	0.000998552
3028.36	0.00107115
3009.79	0.000843296
2991.23	0.000714847
2972.67	0.000672404
2954.11	0.000646714
2935.54	0.000632193
2916.98	0.000603152
2898.42	0.000565176
2879.85	0.000519381
2861.29	0.000531668
2842.73	0.000635544
2824.16	0.000566293
2805.6	0.000579697
2787.04	0.000615438
2768.48	0.00060762
2749.91	0.000552889
2731.35	0.000495925
2712.79	0.00048699
2694.22	0.000574111
2675.66	0.000618789
2657.1	0.000886857
2638.53	0.00130683
2619.97	0.00159724
2601.41	0.00177595
2582.85	0.00174244
2564.28	0.00163075
2545.72	0.00136268
2527.16	0.00105217
2508.59	0.00089691
2490.03	0.000815373
2471.47	0.000732719
2452.9	0.000660116
2434.34	0.00107786
2415.78	0.00377529
2397.22	0.00705912
2378.65	0.00644479
2360.09	0.00984032
2341.53	0.00484756
2322.96	0.00408803
2304.4	0.00484756
2285.84	0.00651181
2267.27	0.0042109
2248.71	0.00413271
2230.15	0.00464651
2211.59	0.00327266
2193.02	0.00295991
2174.46	0.00297108
2155.9	0.00277003
2137.33	0.00308278
2118.77	0.00184297
2100.21	0.00227858
2081.64	0.00102089
2063.08	0.0014632
2044.52	0.0076511
2025.95	0.012063
2007.39	0.0349605
1988.83	0.0530551
1970.27	0.113929
1951.7	0.204402
1933.14	0.310512
1914.58	0.392049
1896.01	0.434493
1877.45	0.407686
1858.89	0.317213
1840.32	0.217805
1821.76	0.14632
1803.2	0.101307
1784.64	0.0671286
1766.07	0.0445663
1747.51	0.0335085
1728.95	0.0302693
1710.38	0.0434493
1691.82	0.579696
1673.26	0.68804
1654.69	0.425557
1636.13	0.561825
1617.57	0.105328
1599.01	0.0549539
1580.44	0.0325032
1561.88	0.0325032
1543.32	0.0293758
1524.75	0.0335085
1506.19	0.0202168
1487.63	0.0140736
1469.06	0.0101419
1450.5	0.0115046
1431.94	0.00884623
1413.38	0.00755057
1394.81	0.00785215
1376.25	0.00497042
1357.69	0.00367476
1339.12	0.00364125
1320.56	0.00159724
1302	0.00453481
1283.43	0.00306044
1264.87	0.00199934
1246.31	0.00268068
1227.75	0.001977
1209.18	0.00311629
1190.62	0.00255781
1172.06	0.00297108
1153.49	0.00201051
1134.93	0.00116163
1116.37	0.00214454
1097.8	0.00094829
1079.24	0.003295
1060.68	0.0031498
1042.12	0.00852232
1023.55	0.0209986
1004.99	0.00681339
986.426	0.00273652
967.863	0.0089691
949.3	0.0659
930.737	0.526083
912.174	0.18653
893.611	0.526083
875.048	0.123981
856.485	0.225624
837.922	0.232325
819.359	0.150788
800.796	0.337319
782.233	0.0411037
763.67	0.084553
745.107	1.34034
726.544	0.524966
707.981	0.153022
689.418	0.0566293
670.855	0.0483639
652.292	0.42109
633.729	0.00232325
615.166	0.00857817
596.603	0.0317213
578.04	0.0834361
559.477	0.231208
540.914	0.244612
522.351	0.338435
503.788	0.377529
485.225	0.405452
466.662	0.339552
448.099	0.3295
429.536	0.290407
410.973	0.242378
