Infrared Spectrum: CINEOL
Formula: C10 H18 O
CAS: 470-82-6
State: LIQUID
Boiling point: -1 TO +1 C
Class: COBLENTZ
Instrument: Not specified, most likely a prism, grating, or hybrid spectrometer.
Sampling: TRANSMISSION
Path length: 0.003 CM
Resolution: 4
Origin: WYANDOTTE CHEMICALS CORP., WYANDOTTE, MICHIGAN, USA
MICROMETERS	TRANSMITTANCE
2.02	0.958
2.05978	0.96
2.09955	0.965
2.13933	0.968
2.1791	0.951
2.21888	0.92
2.25866	0.928
2.29843	0.938
2.33821	0.93
2.37798	0.938
2.41776	0.948
2.45753	0.951
2.49731	0.948
2.53709	0.956
2.57686	0.958
2.61664	0.951
2.65641	0.958
2.69619	0.956
2.73597	0.96
2.77574	0.96
2.81552	0.95
2.85529	0.948
2.89507	0.942
2.93485	0.948
2.97462	0.955
3.0144	0.953
3.05417	0.951
3.09395	0.951
3.13372	0.928
3.1735	0.933
3.21328	0.937
3.25305	0.925
3.29283	0.802
3.3326	0.288
3.37238	0.031
3.41216	0.102
3.45193	0.215
3.49171	0.468
3.53148	0.701
3.57126	0.889
3.61104	0.92
3.65081	0.935
3.69059	0.942
3.73036	0.948
3.77014	0.956
3.80991	0.956
3.84969	0.965
3.88947	0.97
3.92924	0.968
3.96902	0.963
4.00879	0.973
4.04857	0.971
4.08835	0.971
4.12812	0.971
4.1679	0.968
4.20767	0.97
4.24745	0.97
4.28722	0.961
4.327	0.956
4.36678	0.965
4.40655	0.971
4.44633	0.961
4.4861	0.97
4.52588	0.971
4.56566	0.97
4.60543	0.97
4.64521	0.968
4.68498	0.973
4.72476	0.97
4.76454	0.971
4.80431	0.98
4.84409	0.978
4.88386	0.975
4.92364	0.973
4.96341	0.978
5.00319	0.971
5.04297	0.975
5.08274	0.966
5.12252	0.975
5.16229	0.978
5.20207	0.978
5.24185	0.976
5.28162	0.971
5.3214	0.971
5.36117	0.98
5.40095	0.971
5.44073	0.968
5.4805	0.968
5.52028	0.948
5.56005	0.951
5.59983	0.956
5.6396	0.965
5.67938	0.968
5.71916	0.958
5.75893	0.948
5.79871	0.955
5.83848	0.951
5.87826	0.95
5.91804	0.943
5.95781	0.947
5.99759	0.95
6.03736	0.95
6.07714	0.938
6.11692	0.932
6.15669	0.938
6.19647	0.948
6.23624	0.956
6.27602	0.96
6.31579	0.958
6.35557	0.958
6.39535	0.951
6.43512	0.943
6.4749	0.942
6.51467	0.937
6.55445	0.93
6.59423	0.92
6.634	0.903
6.67378	0.882
6.71355	0.791
6.75333	0.741
6.79311	0.269
6.83288	0.392
6.87266	0.518
6.91243	0.521
6.95221	0.682
6.99198	0.788
7.03176	0.854
7.07154	0.887
7.11131	0.89
7.15109	0.88
7.19086	0.812
7.23064	0.516
7.27042	0.192
7.31019	0.501
7.34997	0.289
7.38974	0.448
7.42952	0.74
7.4693	0.839
7.50907	0.892
7.54885	0.899
7.58862	0.857
7.6284	0.705
7.66817	0.549
7.70795	0.791
7.74773	0.882
7.7875	0.857
7.82728	0.753
7.86705	0.62
7.90683	0.725
7.94661	0.799
7.98638	0.778
8.02616	0.697
8.06593	0.543
8.10571	0.322
8.14549	0.44
8.18526	0.324
8.22504	0.127
8.26481	0.394
8.30459	0.672
8.34436	0.763
8.38414	0.827
8.42392	0.841
8.46369	0.791
8.50347	0.594
8.54324	0.302
8.58302	0.357
8.6228	0.526
8.66257	0.695
8.70235	0.819
8.74212	0.88
8.7819	0.938
8.82167	0.963
8.86145	0.965
8.90123	0.965
8.941	0.95
8.98078	0.925
9.02055	0.887
9.06033	0.85
9.10011	0.817
9.13988	0.759
9.17966	0.581
9.21943	0.221
9.25921	0.173
9.29899	0.382
9.33876	0.635
9.37854	0.7
9.41831	0.639
9.45809	0.458
9.49786	0.266
9.53764	0.572
9.57742	0.778
9.61719	0.836
9.65697	0.862
9.69674	0.854
9.73652	0.829
9.7763	0.804
9.81607	0.634
9.85585	0.543
9.89562	0.711
9.9354	0.753
9.97518	0.701
10.015	0.577
10.0547	0.326
10.0945	0.099
10.1343	0.031
10.1741	0.071
10.2138	0.168
10.2536	0.331
10.2934	0.5
10.3332	0.653
10.3729	0.735
10.4127	0.786
10.4525	0.824
10.4923	0.855
10.532	0.88
10.5718	0.894
10.6116	0.902
10.6514	0.907
10.6911	0.905
10.7309	0.887
10.7707	0.821
10.8105	0.816
10.8502	0.804
10.89	0.655
10.9298	0.677
10.9696	0.852
11.0093	0.89
11.0491	0.91
11.0889	0.918
11.1287	0.92
11.1685	0.915
11.2082	0.899
11.248	0.859
11.2878	0.799
11.3276	0.837
11.3673	0.885
11.4071	0.907
11.4469	0.907
11.4867	0.902
11.5264	0.875
11.5662	0.811
11.606	0.804
11.6458	0.847
11.6855	0.874
11.7253	0.874
11.7651	0.846
11.8049	0.72
11.8446	0.503
11.8844	0.291
11.9242	0.377
11.964	0.602
12.0037	0.807
12.0435	0.867
12.0833	0.903
12.1231	0.923
12.1628	0.932
12.2026	0.932
12.2424	0.928
12.2822	0.915
12.322	0.852
12.3617	0.846
12.4015	0.88
12.4413	0.892
12.4811	0.87
12.5208	0.834
12.5606	0.779
12.6004	0.705
12.6402	0.624
12.6799	0.557
12.7197	0.518
12.7595	0.541
12.7993	0.605
12.839	0.653
12.8788	0.688
12.9186	0.721
12.9584	0.731
12.9981	0.708
13.0379	0.66
13.0777	0.619
13.1175	0.62
13.1572	0.67
13.197	0.713
13.2368	0.753
13.2766	0.793
13.3163	0.827
13.3561	0.854
13.3959	0.88
13.4357	0.902
13.4755	0.917
13.5152	0.927
13.555	0.938
13.5948	0.947
13.6346	0.953
13.6743	0.958
13.7141	0.96
13.7539	0.96
13.7937	0.958
13.8334	0.956
13.8732	0.955
13.913	0.951
13.9528	0.953
13.9925	0.955
14.0323	0.955
14.0721	0.955
14.1119	0.955
14.1516	0.955
14.1914	0.955
14.2312	0.956
14.271	0.955
14.3107	0.953
14.3505	0.951
14.3903	0.95
14.4301	0.95
14.4698	0.945
14.5096	0.938
14.5494	0.935
14.5892	0.932
14.629	0.928
14.6687	0.927
14.7085	0.925
14.7483	0.922
14.7881	0.92
14.8278	0.917
14.8676	0.912
14.9074	0.912
14.9472	0.908
14.9869	0.903
15.0267	0.897
15.0665	0.892
15.1063	0.89
15.146	0.89
15.1858	0.889
15.2256	0.88
15.2654	0.874
15.3051	0.869
15.3449	0.86
15.3847	0.85
15.4245	0.841
15.4642	0.831
15.504	0.824
15.5438	0.819
15.5836	0.816
15.6233	0.812
15.6631	0.814
15.7029	0.814
15.7427	0.812
15.7825	0.811
