Infrared Spectrum: 2-TETRADECANOL
Formula: C14 H30 O
CAS: 4706-81-4
State: SOLUTION (10% CCl4 FOR 3800-1335, 10% CS2 FOR 1335-400 CM^-^1)
Melting point: 31 C
Class: COBLENTZ III
Instrument: DOW KBr FOREPRISM-GRATING
Instrument parameters: BLAZED AT 3.5, 12.0, 20.0 MICRON AND CHANGED AT 5.0, 7.5, 14.9 MICRON
Sampling: TRANSMISSION
Path length: 0.011 CM, 0.011 CM
Resolution: 2
Origin: DOW CHEMICAL COMPANY
1/CM	TRANSMITTANCE
389	0.2135
398	0.2379
407	0.3356
416	0.5215
425	0.6518
434	0.7026
443	0.7331
452	0.7491
461	0.7601
470	0.7687
479	0.7753
488	0.7812
497	0.7897
506	0.7978
515	0.8018
524	0.8046
533	0.8078
542	0.8115
551	0.8153
560	0.8196
569	0.8237
578	0.826
587	0.8261
596	0.8255
605	0.8247
614	0.8286
623	0.8325
632	0.8225
641	0.8122
650	0.8033
659	0.8197
668	0.7932
677	0.8513
686	0.8518
695	0.8451
704	0.8277
713	0.7645
722	0.6197
731	0.7494
740	0.8178
749	0.8487
758	0.8595
767	0.8639
776	0.8674
785	0.8744
794	0.8739
803	0.8608
812	0.8505
821	0.8507
830	0.8288
839	0.7846
848	0.7236
857	0.6964
866	0.7308
875	0.7625
884	0.7851
893	0.8089
902	0.8033
911	0.7793
920	0.7634
929	0.6969
938	0.6528
947	0.669
956	0.7738
965	0.7818
974	0.7591
983	0.7194
992	0.7114
1001	0.6795
1010	0.6645
1019	0.6451
1028	0.623
1037	0.6077
1046	0.5912
1055	0.5867
1064	0.5815
1073	0.5705
1082	0.5674
1091	0.5462
1100	0.5521
1109	0.524
1118	0.5164
1127	0.5502
1136	0.5385
1145	0.6099
1154	0.6891
1163	0.7212
1172	0.7385
1181	0.7508
1190	0.7556
1199	0.7518
1208	0.7431
1217	0.7247
1226	0.7
1235	0.6648
1244	0.6156
1253	0.6366
1262	0.6383
1271	0.6297
1280	0.6153
1289	0.5958
1298	0.5719
1307	0.578
1316	0.603
1325	0.6177
1334	0.597
1343	0.6385
1352	0.617
1361	0.5867
1370	0.4573
1379	0.38
1388	0.6112
1397	0.627
1406	0.645
1415	0.6655
1424	0.6691
1433	0.6085
1442	0.525
1451	0.3612
1460	0.2676
1469	0.2039
1478	0.6886
1487	0.7308
1496	0.7405
1505	0.6868
1514	0.6498
1523	0.6101
1532	0.5574
1541	0.4847
1550	0.448
1559	0.5021
1568	0.5755
1577	0.6038
1586	0.6294
1595	0.7254
1604	0.7882
1613	0.8121
1622	0.8288
1631	0.8357
1640	0.8414
1649	0.8445
1658	0.8445
1667	0.8421
1676	0.8395
1685	0.836
1694	0.8263
1703	0.8054
1712	0.7751
1721	0.7845
1730	0.8089
1739	0.8246
1748	0.8392
1757	0.8438
1766	0.8466
1775	0.8499
1784	0.8536
1793	0.8553
1802	0.8556
1811	0.8547
1820	0.8543
1829	0.8545
1838	0.8542
1847	0.8535
1856	0.8525
1865	0.8528
1874	0.8546
1883	0.8554
1892	0.8568
1901	0.8587
1910	0.8595
1919	0.8592
1928	0.8585
1937	0.8578
1946	0.8574
1955	0.8645
1964	0.8509
1973	0.85
1982	0.8485
1991	0.8431
2000	0.8503
2009	0.8507
2018	0.8508
2027	0.8514
2036	0.852
2045	0.8528
2054	0.8539
2063	0.855
2072	0.8558
2081	0.8564
2090	0.8565
2099	0.8565
2108	0.8567
2117	0.857
2126	0.8574
2135	0.857
2144	0.8564
2153	0.8558
2162	0.8556
2171	0.8553
2180	0.855
2189	0.8546
2198	0.8543
2207	0.8538
2216	0.8533
2225	0.8516
2234	0.8503
2243	0.8496
2252	0.8484
2261	0.8456
2270	0.8421
2279	0.8387
2288	0.8368
2297	0.8374
2306	0.8423
2315	0.855
2324	0.8591
2333	0.8585
2342	0.8575
2351	0.857
2360	0.8561
2369	0.8552
2378	0.8539
2387	0.8478
2396	0.847
2405	0.8481
2414	0.8487
2423	0.8489
2432	0.8489
2441	0.8484
2450	0.8478
2459	0.8467
2468	0.8455
2477	0.8441
2486	0.8424
2495	0.8412
2504	0.8401
2513	0.8387
2522	0.8368
2531	0.835
2540	0.8327
2549	0.8303
2558	0.8277
2567	0.8246
2576	0.8204
2585	0.8147
2594	0.8091
2603	0.8037
2612	0.7984
2621	0.7928
2630	0.7874
2639	0.7837
2648	0.7794
2657	0.7736
2666	0.7715
2675	0.7733
2684	0.7785
2693	0.7825
2702	0.7803
2711	0.7758
2720	0.7722
2729	0.7732
2738	0.7746
2747	0.7746
2756	0.7722
2765	0.7626
2774	0.7498
2783	0.7319
2792	0.7021
2801	0.6662
2810	0.6245
2819	0.5728
2828	0.5014
2837	0.3829
2846	0.1218
2855	0.0067
2864	0.038
2873	0.1122
2882	0.1712
2891	0.1249
2900	0.0425
2909	0.0151
2918	0
2927	0.0001
2936	0.001
2945	0.0125
2954	0.0449
2963	0.0458
2972	0.1484
2981	0.3438
2990	0.5304
2999	0.6606
3008	0.7038
3017	0.7421
3026	0.7641
3035	0.7771
3044	0.7872
3053	0.7947
3062	0.8001
3071	0.8045
3080	0.8061
3089	0.8072
3098	0.8075
3107	0.8054
3116	0.8021
3125	0.7978
3134	0.7934
3143	0.7874
3152	0.7812
3161	0.7745
3170	0.7672
3179	0.7596
3188	0.7515
3197	0.7425
3206	0.7325
3215	0.7201
3224	0.7055
3233	0.6887
3242	0.6674
3251	0.6441
3260	0.6212
3269	0.5985
3278	0.5774
3287	0.5551
3296	0.5317
3305	0.5087
3314	0.4892
3323	0.4766
3332	0.4647
3341	0.4592
3350	0.4595
3359	0.4621
3368	0.4689
3377	0.4774
3386	0.4881
3395	0.4997
3404	0.5114
3413	0.5245
3422	0.5377
3431	0.5504
3440	0.5619
3449	0.5735
3458	0.586
3467	0.5987
3476	0.6108
3485	0.6242
3494	0.6398
3503	0.6586
3512	0.6882
3521	0.7184
3530	0.7456
3539	0.7704
3548	0.7888
3557	0.8034
3566	0.8126
3575	0.8147
3584	0.8133
3593	0.7998
3602	0.7664
3611	0.735
3620	0.7083
3629	0.645
3638	0.7171
3647	0.8111
3656	0.8462
3665	0.8484
3674	0.85
3683	0.8524
3692	0.8571
3701	0.8638
3710	0.8678
3719	0.8691
3728	0.8689
3737	0.8684
3746	0.8681
3755	0.8677
3764	0.8671
3773	0.8666
3782	0.866
3791	0.8652
