Infrared Spectrum: NEOABIETIC ACID
Formula: C20 H30 O2
CAS: 471-77-2
State: SOLID (KBr DISC DRIED IN VACUUM DESICCATOR)
Class: COBLENTZ III
Instrument: PERKIN-ELMER 521 (GRATING)
Instrument parameters: FILTERS AT 3150, 2500, 2000, 1150, 700, 410. GRATING CHANGES: 2000, 630
Sampling: TRANSMISSION
Resolution: 2
Origin: DOW CHEMICAL COMPANY
1/CM	TRANSMITTANCE
3800	0.501
3791	0.5018
3782	0.5026
3773	0.5034
3764	0.5042
3755	0.5056
3746	0.5072
3737	0.5088
3728	0.5105
3719	0.5121
3710	0.5142
3701	0.5162
3692	0.5182
3683	0.5201
3674	0.5219
3665	0.5243
3656	0.5256
3647	0.526
3638	0.5245
3629	0.5232
3620	0.522
3611	0.5196
3602	0.5172
3593	0.5149
3584	0.513
3575	0.5109
3566	0.5076
3557	0.5043
3548	0.5007
3539	0.4962
3530	0.4915
3521	0.4856
3512	0.4799
3503	0.4752
3494	0.4708
3485	0.4646
3476	0.4579
3467	0.451
3458	0.4419
3449	0.4302
3440	0.4165
3431	0.4018
3422	0.3853
3413	0.3584
3404	0.3332
3395	0.3103
3386	0.2869
3377	0.2646
3368	0.244
3359	0.2212
3350	0.194
3341	0.1687
3332	0.1491
3323	0.1351
3314	0.1232
3305	0.1135
3296	0.1088
3287	0.1063
3278	0.1049
3269	0.1044
3260	0.1064
3251	0.1099
3242	0.1142
3233	0.1196
3224	0.1263
3215	0.1334
3206	0.1411
3197	0.1528
3188	0.1648
3179	0.1773
3170	0.1913
3161	0.2081
3152	0.2235
3143	0.2383
3134	0.2554
3125	0.2739
3116	0.2928
3107	0.3098
3098	0.3253
3089	0.3405
3080	0.3552
3071	0.3695
3062	0.3777
3053	0.379
3044	0.349
3035	0.3562
3026	0.3678
3017	0.3596
3008	0.2518
2999	0.2381
2990	0.2298
2981	0.1342
2972	0.17
2963	0.1931
2954	0.0875
2945	0.0399
2936	0.0337
2927	0.0315
2918	0.0558
2909	0.108
2900	0.1328
2891	0.1472
2882	0.1687
2873	0.1533
2864	0.1107
2855	0.1751
2846	0.2637
2837	0.2321
2828	0.2207
2819	0.3374
2810	0.4312
2801	0.4814
2792	0.524
2783	0.5537
2774	0.5749
2765	0.5902
2756	0.6034
2747	0.6156
2738	0.6225
2729	0.6287
2720	0.6357
2711	0.6425
2702	0.6488
2693	0.6547
2684	0.66
2675	0.6635
2666	0.6632
2657	0.6596
2648	0.6608
2639	0.6665
2630	0.6728
2621	0.6792
2612	0.6851
2603	0.6892
2594	0.6935
2585	0.6968
2576	0.7001
2567	0.7036
2558	0.7071
2549	0.7094
2540	0.7101
2531	0.7108
2522	0.7122
2513	0.7153
2504	0.7208
2495	0.7286
2486	0.7386
2477	0.7488
2468	0.7592
2459	0.7658
2450	0.769
2441	0.7721
2432	0.7754
2423	0.7801
2414	0.7855
2405	0.7905
2396	0.7951
2387	0.7988
2378	0.8019
2369	0.8048
2360	0.8074
2351	0.8105
2342	0.815
2333	0.82
2324	0.8247
2315	0.829
2306	0.8367
2297	0.8482
2288	0.8559
2279	0.8596
2270	0.8632
2261	0.8668
2252	0.8709
2243	0.8751
2234	0.8793
2225	0.8834
2216	0.8875
2207	0.8915
2198	0.8956
2189	0.8996
2180	0.9037
2171	0.9071
2162	0.9104
2153	0.9136
2144	0.9168
2135	0.9201
2126	0.9221
2117	0.9239
2108	0.9257
2099	0.9273
2090	0.9284
2081	0.9289
2072	0.9295
2063	0.9299
2054	0.9303
2045	0.9305
2036	0.9309
2027	0.9316
2018	0.9325
2009	0.9335
2000	0.9367
1991	0.9427
1982	0.9518
1973	0.9549
1964	0.9587
1955	0.9651
1946	0.9689
1937	0.9673
1928	0.967
1919	0.9677
1910	0.9692
1901	0.9708
1892	0.9724
1883	0.9739
1874	0.9744
1865	0.9751
1856	0.9771
1847	0.9792
1838	0.9795
1829	0.9787
1820	0.9737
1811	0.9641
1802	0.9463
1793	0.9256
1784	0.9149
1775	0.903
1766	0.8763
1757	0.8263
1748	0.7319
1739	0.5166
1730	0.2342
1721	0.0301
1712	0.303
1703	0.2299
1694	0.0902
1685	0.0458
1676	0.2098
1667	0.3753
1658	0.4919
1649	0.5712
1640	0.6555
1631	0.6843
1622	0.6712
1613	0.7208
1604	0.7636
1595	0.8097
1586	0.8371
1577	0.8623
1568	0.8831
1559	0.8899
1550	0.8949
1541	0.8984
1532	0.9066
1523	0.9131
1514	0.9182
1505	0.9208
1496	0.919
1487	0.9068
1478	0.8183
1469	0.5341
1460	0.3237
1451	0.4133
1442	0.4698
1433	0.5034
1424	0.7385
1415	0.8205
1406	0.8233
1397	0.8033
1388	0.2947
1379	0.6489
1370	0.4153
1361	0.4012
1352	0.6485
1343	0.7844
1334	0.8062
1325	0.8377
1316	0.7668
1307	0.7346
1298	0.8458
1289	0.8294
1280	0.7505
1271	0.6817
1262	0.7718
1253	0.7525
1244	0.803
1235	0.6645
1226	0.5516
1217	0.4669
1208	0.4579
1199	0.5523
1190	0.6844
1181	0.5345
1172	0.2992
1163	0.1807
1154	0.0958
1145	0.2035
1136	0.4536
1127	0.1713
1118	0.2932
1109	0.507
1100	0.6398
1091	0.7818
1082	0.7715
1073	0.8198
1064	0.8599
1055	0.874
1046	0.7785
1037	0.8666
1028	0.9137
1019	0.7596
1010	0.9317
1001	0.8386
992	0.9788
983	0.9558
974	0.7944
965	0.8252
956	0.9152
947	0.8859
938	0.8366
929	0.946
920	0.9274
911	0.9421
902	0.6774
893	0.7561
884	0.6257
875	0.5201
866	0.7208
857	0.6092
848	0.6806
839	0.5843
830	0.4334
821	0.3694
812	0.517
803	0.6635
794	0.7237
785	0.7649
776	0.8532
767	0.9078
758	0.9356
749	0.9538
740	1.0001
731	0.8288
722	0.939
713	0.7941
704	0.8975
695	0.3248
686	0.7526
677	0.9568
668	0.8515
659	0.8556
650	0.7949
641	0.4483
632	0.7768
623	0.8825
614	0.8953
605	0.8602
596	0.8971
587	0.8778
578	0.8689
569	0.9031
560	0.8989
551	0.8605
542	0.8334
533	0.7815
524	0.8517
515	0.8892
506	0.8848
497	0.8043
488	0.7833
479	0.8295
470	0.8588
461	0.8718
452	0.8464
443	0.8255
434	0.8618
425	0.8693
416	0.8702
407	0.8798
398	0.8618
389	0.7864
380	0.7565
371	0.7745
362	0.7806
353	0.7893
344	0.7888
335	0.7658
326	0.7294
317	0.7037
308	0.6814
299	0.6386
290	0.5757
281	0.4957
272	0.4328
263	0.3514
254	0.3016
245	0.2917
