Infrared Spectrum: 2-HYDROXYACETANILIDE
Formula: C8 H9 N O2
CAS: 4746-61-6
State: SOLID (MINERAL OIL MULL)
Class: COBLENTZ
Instrument: Not specified, most likely a prism, grating, or hybrid spectrometer.
Sampling: TRANSMISSION
Resolution: 4
Origin: DOW CHEMICAL COMPANY
MICROMETERS	TRANSMITTANCE
2.031	0.556
2.07027	0.556
2.10955	0.563
2.14882	0.573
2.1881	0.576
2.22737	0.586
2.26665	0.579
2.30592	0.577
2.3452	0.59
2.38447	0.599
2.42374	0.608
2.46302	0.618
2.50229	0.628
2.54157	0.633
2.58084	0.641
2.62012	0.647
2.65939	0.655
2.69866	0.66
2.73794	0.663
2.77721	0.665
2.81649	0.654
2.85576	0.607
2.89504	0.517
2.93431	0.422
2.97359	0.392
3.01286	0.357
3.05213	0.347
3.09141	0.514
3.13068	0.54
3.16996	0.566
3.20923	0.577
3.24851	0.574
3.28778	0.55
3.32706	0.498
3.36633	0.243
3.4056	0.037
3.44488	0.073
3.48415	0.112
3.52343	0.384
3.5627	0.639
3.60198	0.676
3.64125	0.688
3.68052	0.698
3.7198	0.706
3.75907	0.717
3.79835	0.725
3.83762	0.733
3.8769	0.746
3.91617	0.754
3.95545	0.767
3.99472	0.771
4.03399	0.779
4.07327	0.782
4.11254	0.787
4.15182	0.792
4.19109	0.784
4.23037	0.787
4.26964	0.801
4.30892	0.811
4.34819	0.818
4.38746	0.819
4.42674	0.827
4.46601	0.821
4.50529	0.826
4.54456	0.831
4.58384	0.831
4.62311	0.829
4.66238	0.829
4.70166	0.84
4.74093	0.842
4.78021	0.844
4.81948	0.842
4.85876	0.849
4.89803	0.852
4.93731	0.85
4.97658	0.863
5.01585	0.868
5.05513	0.857
5.0944	0.862
5.13368	0.857
5.17295	0.862
5.21223	0.866
5.2515	0.863
5.29078	0.866
5.33005	0.86
5.36932	0.871
5.4086	0.87
5.44787	0.878
5.48715	0.871
5.52642	0.858
5.5657	0.865
5.60497	0.865
5.64424	0.847
5.68352	0.81
5.72279	0.782
5.76207	0.722
5.80134	0.709
5.84062	0.779
5.87989	0.772
5.91917	0.725
5.95844	0.56
5.99771	0.326
6.03699	0.235
6.07626	0.662
6.11554	0.689
6.15481	0.625
6.19409	0.43
6.23336	0.327
6.27264	0.704
6.31191	0.743
6.35118	0.672
6.39046	0.485
6.42973	0.194
6.46901	0.295
6.50828	0.579
6.54756	0.628
6.58683	0.652
6.6261	0.519
6.66538	0.464
6.70465	0.568
6.74393	0.54
6.7832	0.37
6.82248	0.277
6.86175	0.253
6.90103	0.36
6.9403	0.446
6.97957	0.641
7.01885	0.714
7.05812	0.733
7.0974	0.728
7.13667	0.688
7.17595	0.6
7.21522	0.495
7.2545	0.529
7.29377	0.659
7.33304	0.724
7.37232	0.714
7.41159	0.67
7.45087	0.548
7.49014	0.409
7.52942	0.344
7.56869	0.378
7.60796	0.543
7.64724	0.599
7.68651	0.665
7.72579	0.719
7.76506	0.759
7.80434	0.772
7.84361	0.78
7.88289	0.775
7.92216	0.758
7.96143	0.704
8.00071	0.689
8.03998	0.719
8.07926	0.652
8.11853	0.626
8.15781	0.73
8.19708	0.672
8.23636	0.524
8.27563	0.444
8.3149	0.55
8.35418	0.654
8.39345	0.673
8.43273	0.706
8.472	0.711
8.51128	0.767
8.55055	0.75
8.58982	0.754
8.6291	0.78
8.66837	0.798
8.70765	0.81
8.74692	0.821
8.7862	0.827
8.82547	0.832
8.86475	0.836
8.90402	0.836
8.94329	0.834
8.98257	0.832
9.02184	0.831
9.06112	0.819
9.10039	0.8
9.13967	0.738
9.17894	0.603
9.21821	0.375
9.25749	0.227
9.29676	0.397
9.33604	0.65
9.37531	0.717
9.41459	0.756
9.45386	0.79
9.49314	0.806
9.53241	0.819
9.57168	0.816
9.61096	0.793
9.65023	0.785
9.68951	0.798
9.72878	0.827
9.76806	0.837
9.80733	0.85
9.84661	0.863
9.88588	0.873
9.92515	0.876
9.96443	0.866
10.0037	0.87
10.043	0.821
10.0823	0.714
10.1215	0.698
10.1608	0.78
10.2001	0.842
10.2393	0.87
10.2786	0.875
10.3179	0.878
10.3572	0.857
10.3964	0.876
10.4357	0.899
10.475	0.897
10.5143	0.904
10.5535	0.907
10.5928	0.904
10.6321	0.902
10.6714	0.899
10.7106	0.899
10.7499	0.9
10.7892	0.896
10.8285	0.889
10.8677	0.879
10.907	0.85
10.9463	0.818
10.9856	0.857
11.0248	0.887
11.0641	0.889
11.1034	0.892
11.1427	0.892
11.1819	0.891
11.2212	0.891
11.2605	0.894
11.2998	0.899
11.339	0.897
11.3783	0.887
11.4176	0.889
11.4569	0.887
11.4961	0.884
11.5354	0.878
11.5747	0.87
11.614	0.857
11.6532	0.831
11.6925	0.798
11.7318	0.772
11.7711	0.788
11.8103	0.823
11.8496	0.832
11.8889	0.839
11.9281	0.839
11.9674	0.834
12.0067	0.847
12.046	0.852
12.0852	0.862
12.1245	0.86
12.1638	0.86
12.2031	0.862
12.2423	0.855
12.2816	0.858
12.3209	0.849
12.3602	0.845
12.3994	0.837
12.4387	0.829
12.478	0.827
12.5173	0.826
12.5565	0.829
12.5958	0.831
12.6351	0.823
12.6744	0.821
12.7136	0.813
12.7529	0.811
12.7922	0.8
12.8315	0.782
12.8707	0.762
12.91	0.74
12.9493	0.701
12.9886	0.65
13.0278	0.558
13.0671	0.485
13.1064	0.375
13.1457	0.271
13.1849	0.238
13.2242	0.23
13.2635	0.266
13.3028	0.336
13.342	0.422
13.3813	0.521
13.4206	0.594
13.4599	0.649
13.4991	0.685
13.5384	0.717
13.5777	0.738
13.6169	0.754
13.6562	0.767
13.6955	0.771
13.7348	0.777
13.774	0.779
13.8133	0.784
13.8526	0.797
13.8919	0.816
13.9311	0.839
13.9704	0.849
14.0097	0.86
14.049	0.862
14.0882	0.865
14.1275	0.858
14.1668	0.839
14.2061	0.792
14.2453	0.724
14.2846	0.633
14.3239	0.545
14.3632	0.535
14.4024	0.608
14.4417	0.706
14.481	0.78
14.5203	0.821
14.5595	0.839
14.5988	0.85
14.6381	0.853
14.6774	0.853
14.7166	0.858
14.7559	0.857
14.7952	0.853
14.8345	0.844
14.8737	0.824
14.913	0.819
14.9523	0.849
14.9916	0.873
15.0308	0.87
15.0701	0.862
15.1094	0.858
15.1486	0.857
15.1879	0.857
15.2272	0.857
15.2665	0.858
15.3057	0.858
15.345	0.858
15.3843	0.863
15.4236	0.862
15.4628	0.858
15.5021	0.852
15.5414	0.842
15.5807	0.842
15.6199	0.842
15.6592	0.837
15.6985	0.839
15.7378	0.832
15.777	0.832
15.8163	0.829
15.8556	0.827
15.8949	0.829
