Infrared Spectrum: 3'-NITROBENZANILIDE
Formula: C13 H10 N2 O3
CAS: 4771-08-8
State: SOLID (MINERAL OIL MULL)
Class: COBLENTZ
Instrument: Not specified, most likely a prism, grating, or hybrid spectrometer.
Sampling: TRANSMISSION
Resolution: 4
Origin: DOW CHEMICAL COMPANY
MICROMETERS	TRANSMITTANCE
2.021	0.413
2.06016	0.426
2.09931	0.438
2.13847	0.447
2.17762	0.457
2.21678	0.466
2.25593	0.468
2.29509	0.463
2.33425	0.47
2.3734	0.483
2.41256	0.494
2.45171	0.505
2.49087	0.521
2.53003	0.528
2.56918	0.534
2.60834	0.544
2.64749	0.552
2.68665	0.558
2.7258	0.568
2.76496	0.576
2.80412	0.594
2.84327	0.608
2.88243	0.623
2.92158	0.555
2.96074	0.333
2.99989	0.36
3.03905	0.497
3.07821	0.542
3.11736	0.555
3.15652	0.552
3.19567	0.526
3.23483	0.487
3.27399	0.471
3.31314	0.454
3.3523	0.251
3.39145	0.028
3.43061	0.04
3.46976	0.061
3.50892	0.191
3.54808	0.552
3.58723	0.65
3.62639	0.677
3.66554	0.674
3.7047	0.684
3.74385	0.682
3.78301	0.7
3.82217	0.713
3.86132	0.729
3.90048	0.748
3.93963	0.758
3.97879	0.768
4.01795	0.776
4.0571	0.769
4.09626	0.784
4.13541	0.79
4.17457	0.79
4.21372	0.787
4.25288	0.782
4.29204	0.809
4.33119	0.819
4.37035	0.822
4.4095	0.827
4.44866	0.832
4.48781	0.834
4.52697	0.838
4.56613	0.842
4.60528	0.848
4.64444	0.861
4.68359	0.861
4.72275	0.867
4.7619	0.871
4.80106	0.876
4.84022	0.871
4.87937	0.872
4.91853	0.884
4.95768	0.885
4.99684	0.88
5.036	0.867
5.07515	0.851
5.11431	0.893
5.15346	0.901
5.19262	0.892
5.23177	0.879
5.27093	0.901
5.31009	0.922
5.34924	0.919
5.3884	0.927
5.42755	0.921
5.46671	0.896
5.50586	0.913
5.54502	0.919
5.58418	0.896
5.62333	0.879
5.66249	0.89
5.70164	0.882
5.7408	0.89
5.77996	0.896
5.81911	0.879
5.85827	0.861
5.89742	0.785
5.93658	0.624
5.97573	0.305
6.01489	0.061
6.05405	0.368
6.0932	0.644
6.13236	0.7
6.17151	0.677
6.21067	0.492
6.24982	0.357
6.28898	0.46
6.32814	0.579
6.36729	0.631
6.40645	0.441
6.4456	0.217
6.48476	0.114
6.52392	0.064
6.56307	0.146
6.60223	0.333
6.64138	0.5
6.68054	0.409
6.71969	0.301
6.75885	0.309
6.79801	0.186
6.83716	0.19
6.87632	0.285
6.91547	0.417
6.95463	0.486
6.99378	0.378
7.03294	0.396
7.0721	0.576
7.11125	0.661
7.15041	0.671
7.18956	0.529
7.22872	0.404
7.26788	0.399
7.30703	0.265
7.34619	0.033
7.38534	0.078
7.4245	0.112
7.46365	0.12
7.50281	0.181
7.54197	0.302
7.58112	0.429
7.62028	0.438
7.65943	0.309
7.69859	0.47
7.73774	0.563
7.7769	0.599
7.81606	0.574
7.85521	0.452
7.89437	0.346
7.93352	0.537
7.97268	0.563
8.01184	0.626
8.05099	0.692
8.09015	0.708
8.1293	0.729
8.16846	0.748
8.20761	0.76
8.24677	0.764
8.28593	0.766
8.32508	0.768
8.36424	0.771
8.40339	0.774
8.44255	0.784
8.4817	0.763
8.52086	0.74
8.56002	0.689
8.59917	0.684
8.63833	0.782
8.67748	0.819
8.71664	0.832
8.7558	0.847
8.79495	0.864
8.83411	0.869
8.87326	0.869
8.91242	0.85
8.95157	0.809
8.99073	0.763
9.02989	0.684
9.06904	0.65
9.1082	0.745
9.14735	0.787
9.18651	0.801
9.22566	0.75
9.26482	0.631
9.30398	0.579
9.34313	0.75
9.38229	0.816
9.42144	0.848
9.4606	0.863
9.49976	0.872
9.53891	0.874
9.57807	0.876
9.61722	0.88
9.65638	0.866
9.69553	0.803
9.73469	0.842
9.77385	0.877
9.813	0.884
9.85216	0.888
9.89131	0.892
9.93047	0.864
9.96962	0.842
10.0088	0.887
10.0479	0.898
10.0871	0.893
10.1262	0.9
10.1654	0.888
10.2046	0.876
10.2437	0.888
10.2829	0.896
10.322	0.898
10.3612	0.9
10.4003	0.9
10.4395	0.901
10.4786	0.89
10.5178	0.882
10.557	0.893
10.5961	0.898
10.6353	0.887
10.6744	0.866
10.7136	0.838
10.7527	0.798
10.7919	0.711
10.8311	0.716
10.8702	0.801
10.9094	0.835
10.9485	0.84
10.9877	0.816
11.0268	0.731
11.066	0.658
11.1051	0.705
11.1443	0.764
11.1835	0.779
11.2226	0.806
11.2618	0.782
11.3009	0.637
11.3401	0.491
11.3792	0.605
11.4184	0.785
11.4575	0.834
11.4967	0.859
11.5359	0.869
11.575	0.871
11.6142	0.869
11.6533	0.866
11.6925	0.85
11.7316	0.837
11.7708	0.851
11.8099	0.859
11.8491	0.859
11.8883	0.859
11.9274	0.859
11.9666	0.858
12.0057	0.848
12.0449	0.827
12.084	0.776
12.1232	0.631
12.1623	0.455
12.2015	0.375
12.2407	0.661
12.2798	0.763
12.319	0.764
12.3581	0.695
12.3973	0.56
12.4364	0.487
12.4756	0.584
12.5148	0.536
12.5539	0.553
12.5931	0.74
12.6322	0.805
12.6714	0.829
12.7105	0.842
12.7497	0.855
12.7888	0.856
12.828	0.861
12.8672	0.861
12.9063	0.864
12.9455	0.867
12.9846	0.867
13.0238	0.871
13.0629	0.871
13.1021	0.871
13.1412	0.869
13.1804	0.867
13.2196	0.864
13.2587	0.859
13.2979	0.853
13.337	0.84
13.3762	0.819
13.4153	0.774
13.4545	0.695
13.4936	0.524
13.5328	0.322
13.572	0.19
13.6111	0.365
13.6503	0.624
13.6894	0.723
13.7286	0.739
13.7677	0.742
13.8069	0.739
13.846	0.737
13.8852	0.721
13.9244	0.668
13.9635	0.549
14.0027	0.402
14.0418	0.212
14.081	0.135
14.1201	0.199
14.1593	0.32
14.1984	0.412
14.2376	0.513
14.2768	0.59
14.3159	0.65
14.3551	0.661
14.3942	0.634
14.4334	0.573
14.4725	0.51
14.5117	0.476
14.5509	0.486
14.59	0.566
14.6292	0.647
14.6683	0.695
14.7075	0.694
14.7466	0.645
14.7858	0.547
14.8249	0.455
14.8641	0.351
14.9033	0.309
14.9424	0.388
14.9816	0.545
15.0207	0.637
15.0599	0.658
15.099	0.652
15.1382	0.65
15.1773	0.671
15.2165	0.708
15.2557	0.74
15.2948	0.758
15.334	0.763
15.3731	0.768
15.4123	0.768
15.4514	0.766
15.4906	0.763
15.5297	0.76
15.5689	0.756
15.6081	0.753
15.6472	0.752
15.6864	0.745
15.7255	0.742
15.7647	0.742
15.8038	0.739
15.843	0.734
15.8821	0.742
