Infrared Spectrum: 1-HEXEN-3-OL
Formula: C6 H12 O
CAS: 4798-44-1
State: SOLUTION (10% CCl4 FOR 3800-1330, 10% CS2 FOR 1330-400)
Class: COBLENTZ III
Instrument: BECKMAN IR-9 (GRATING)
Instrument parameters: ORDER CHANGES: 670, 1200, 2000 CM^-^1
Sampling: TRANSMISSION
Path length: 0.012 CM, 0.011 CM
Resolution: 2
Origin: DOW CHEMICAL COMPANY
1/CM	TRANSMITTANCE
403	0.9213
412	0.9175
421	0.9037
430	0.8858
439	0.8675
448	0.859
457	0.8592
466	0.8489
475	0.8257
484	0.8241
493	0.8271
502	0.8306
511	0.8275
520	0.8085
529	0.7965
538	0.7937
547	0.7771
556	0.7857
565	0.7981
574	0.7958
583	0.7854
592	0.7744
601	0.7651
610	0.7674
619	0.7893
628	0.8058
637	0.8084
646	0.8081
655	0.7691
664	0.705
673	0.6982
682	0.6968
691	0.6884
700	0.7811
709	0.8081
718	0.8292
727	0.8441
736	0.8505
745	0.7165
754	0.8909
763	0.9359
772	0.961
781	0.9818
790	0.9951
799	0.9923
808	0.9716
817	0.9743
826	0.98
835	0.9071
844	0.6649
853	0.8934
862	0.9231
871	0.939
880	0.9183
889	0.9057
898	0.6981
907	0.529
916	0.2033
925	0.0601
934	0.4675
943	0.7896
952	0.8471
961	0.7958
970	0.5833
979	0.3034
988	0.1414
997	0.1363
1006	0.2721
1015	0.2507
1024	0.4026
1033	0.6316
1042	0.6327
1051	0.5572
1060	0.5604
1069	0.5341
1078	0.4984
1087	0.4576
1096	0.5575
1105	0.625
1114	0.6009
1123	0.6074
1132	0.6601
1141	0.5739
1150	0.5426
1159	0.7328
1168	0.8583
1177	0.8806
1186	0.8825
1195	0.8567
1204	0.7976
1213	0.7172
1222	0.6761
1231	0.7251
1240	0.7528
1249	0.7137
1258	0.6755
1267	0.6621
1276	0.6106
1285	0.5955
1294	0.6055
1303	0.6203
1312	0.6241
1321	0.6171
1330	0.6179
1339	0.6327
1348	0.6385
1357	0.621
1366	0.6124
1375	0.5924
1384	0.4651
1393	0.5689
1402	0.5692
1411	0.5212
1420	0.4439
1429	0.3395
1438	0.5117
1447	0.5846
1456	0.4188
1465	0.413
1474	0.6906
1483	0.8114
1492	0.8668
1501	0.8935
1510	0.9139
1519	0.9317
1528	0.9478
1537	0.9664
1546	0.994
1555	1.0064
1564	1.0003
1573	0.9868
1582	0.9821
1591	0.9797
1600	0.9541
1609	0.9231
1618	0.9002
1627	0.8935
1636	0.8649
1645	0.6776
1654	0.8392
1663	0.8992
1672	0.9043
1681	0.894
1690	0.8863
1699	0.8797
1708	0.8466
1717	0.8325
1726	0.8705
1735	0.8831
1744	0.9333
1753	0.9464
1762	0.9544
1771	0.9591
1780	0.961
1789	0.9616
1798	0.9618
1807	0.9618
1816	0.9604
1825	0.9533
1834	0.9294
1843	0.8981
1852	0.8878
1861	0.9006
1870	0.9325
1879	0.9546
1888	0.9617
1897	0.963
1906	0.9632
1915	0.963
1924	0.9637
1933	0.9689
1942	0.9707
1951	0.9681
1960	0.9636
1969	0.9586
1978	0.9538
1987	0.9525
1996	0.9587
2005	0.9621
2014	0.9663
2023	0.9678
2032	0.9682
2041	0.969
2050	0.9702
2059	0.9714
2068	0.9721
2077	0.9728
2086	0.9734
2095	0.9733
2104	0.9733
2113	0.9731
2122	0.9727
2131	0.9721
2140	0.9717
2149	0.9711
2158	0.9707
2167	0.9701
2176	0.9697
2185	0.9691
2194	0.9687
2203	0.9681
2212	0.9682
2221	0.9686
2230	0.9691
2239	0.9695
2248	0.9699
2257	0.9687
2266	0.9678
2275	0.9671
2284	0.9666
2293	0.9658
2302	0.965
2311	0.9634
2320	0.9618
2329	0.9577
2338	0.953
2347	0.9495
2356	0.9488
2365	0.9491
2374	0.9502
2383	0.9515
2392	0.9533
2401	0.9545
2410	0.9555
2419	0.9563
2428	0.957
2437	0.9571
2446	0.9573
2455	0.9573
2464	0.9561
2473	0.9547
2482	0.9528
2491	0.9511
2500	0.9494
2509	0.9478
2518	0.9463
2527	0.9447
2536	0.9427
2545	0.9407
2554	0.9387
2563	0.9367
2572	0.9343
2581	0.9318
2590	0.9294
2599	0.9266
2608	0.9235
2617	0.9203
2626	0.9168
2635	0.9131
2644	0.9097
2653	0.9073
2662	0.9049
2671	0.9023
2680	0.8991
2689	0.8959
2698	0.8941
2707	0.8924
2716	0.8891
2725	0.8814
2734	0.8711
2743	0.876
2752	0.8859
2761	0.8893
2770	0.8848
2779	0.8764
2788	0.8625
2797	0.8456
2806	0.8238
2815	0.7857
2824	0.726
2833	0.6014
2842	0.474
2851	0.417
2860	0.3476
2869	0.1819
2878	0.095
2887	0.3368
2896	0.3743
2905	0.2793
2914	0.1953
2923	0.1631
2932	0.0737
2941	0.082
2950	0.1694
2959	0.0461
2968	0.0251
2977	0.1785
2986	0.3679
2995	0.5597
3004	0.6125
3013	0.6003
3022	0.6887
3031	0.7796
3040	0.8069
3049	0.8106
3058	0.7999
3067	0.7318
3076	0.6471
3085	0.5866
3094	0.7068
3103	0.816
3112	0.8398
3121	0.846
3130	0.8441
3139	0.8334
3148	0.8181
3157	0.7991
3166	0.7788
3175	0.7551
3184	0.7258
3193	0.6951
3202	0.6676
3211	0.6421
3220	0.6168
3229	0.5891
3238	0.5523
3247	0.5188
3256	0.491
3265	0.463
3274	0.4366
3283	0.4119
3292	0.3862
3301	0.3638
3310	0.3441
3319	0.3225
3328	0.3024
3337	0.288
3346	0.2801
3355	0.2761
3364	0.2753
3373	0.2762
3382	0.2785
3391	0.2819
3400	0.2853
3409	0.2918
3418	0.3011
3427	0.3115
3436	0.321
3445	0.3323
3454	0.3441
3463	0.3579
3472	0.3766
3481	0.398
3490	0.4245
3499	0.4548
3508	0.489
3517	0.5257
3526	0.561
3535	0.6046
3544	0.6443
3553	0.6761
3562	0.7136
3571	0.7451
3580	0.7612
3589	0.7583
3598	0.6855
3607	0.6007
3616	0.5159
3625	0.536
3634	0.7475
3643	0.8396
3652	0.8714
3661	0.887
3670	0.8906
3679	0.8862
3688	0.893
3697	0.9117
3706	0.9303
3715	0.9404
3724	0.9443
3733	0.9493
3742	0.9528
3751	0.9538
3760	0.9539
3769	0.954
3778	0.9538
3787	0.9536
3796	0.9535
