Infrared Spectrum: ANTHRANOL, 1,8-DIHYDROXY-
Formula: C14 H10 O3
CAS: 480-22-8
State: SOLID (1 mg / 200 mg KBr DISC)
Melting point: 176-181 C
Class: COBLENTZ III
Instrument: PERKIN-ELMER 21 (GRATING)
Instrument parameters: FILTER AT ABOUT 10 MICRONS
Sampling: TRANSMISSION
Resolution: 2
1/CM	TRANSMITTANCE
4000	0.9182
3991	0.9188
3982	0.9197
3973	0.9202
3964	0.9208
3955	0.9207
3946	0.9205
3937	0.9204
3928	0.9201
3919	0.9199
3910	0.9188
3901	0.9175
3892	0.9163
3883	0.915
3874	0.9137
3865	0.9125
3856	0.9114
3847	0.9111
3838	0.9109
3829	0.9107
3820	0.9106
3811	0.9104
3802	0.9104
3793	0.9108
3784	0.9113
3775	0.9116
3766	0.9119
3757	0.9125
3748	0.913
3739	0.9133
3730	0.9138
3721	0.9143
3712	0.9149
3703	0.9154
3694	0.9159
3685	0.9166
3676	0.9167
3667	0.9164
3658	0.9166
3649	0.9165
3640	0.9163
3631	0.9162
3622	0.916
3613	0.9155
3604	0.9147
3595	0.9129
3586	0.9095
3577	0.9049
3568	0.9002
3559	0.8954
3550	0.8906
3541	0.8853
3532	0.8802
3523	0.8749
3514	0.87
3505	0.866
3496	0.8622
3487	0.8585
3478	0.8547
3469	0.8509
3460	0.8467
3451	0.8423
3442	0.8378
3433	0.8339
3424	0.831
3415	0.8284
3406	0.8262
3397	0.8241
3388	0.8239
3379	0.8264
3370	0.8285
3361	0.8307
3352	0.8328
3343	0.8348
3334	0.8371
3325	0.8395
3316	0.8418
3307	0.8441
3298	0.846
3289	0.8477
3280	0.8492
3271	0.8503
3262	0.8502
3253	0.8487
3244	0.8461
3235	0.843
3226	0.8366
3217	0.8309
3208	0.8262
3199	0.8219
3190	0.8198
3181	0.8181
3172	0.8165
3163	0.8149
3154	0.8115
3145	0.8075
3136	0.8029
3127	0.7972
3118	0.7915
3109	0.7852
3100	0.7787
3091	0.772
3082	0.7638
3073	0.7555
3064	0.7481
3055	0.7408
3046	0.7324
3037	0.7235
3028	0.7162
3019	0.7095
3010	0.705
3001	0.7038
2992	0.7033
2983	0.7029
2974	0.7027
2965	0.7026
2956	0.7041
2947	0.7062
2938	0.7082
2929	0.7103
2920	0.7123
2911	0.7148
2902	0.7183
2893	0.7216
2884	0.7255
2875	0.7295
2866	0.7335
2857	0.7382
2848	0.7439
2839	0.7529
2830	0.7634
2821	0.7746
2812	0.7864
2803	0.7986
2794	0.8109
2785	0.8222
2776	0.8251
2767	0.8272
2758	0.8295
2749	0.8318
2740	0.8342
2731	0.8365
2722	0.8388
2713	0.841
2704	0.8431
2695	0.8452
2686	0.8468
2677	0.8484
2668	0.8499
2659	0.8515
2650	0.8531
2641	0.8547
2632	0.8565
2623	0.8581
2614	0.8598
2605	0.8616
2596	0.8637
2587	0.8659
2578	0.8681
2569	0.8704
2560	0.8726
2551	0.8746
2542	0.8767
2533	0.8785
2524	0.8797
2515	0.8808
2506	0.882
2497	0.8832
2488	0.8847
2479	0.8864
2470	0.8879
2461	0.8901
2452	0.8923
2443	0.8944
2434	0.8963
2425	0.8986
2416	0.9014
2407	0.9027
2398	0.9026
2389	0.9023
2380	0.9017
2371	0.9018
2362	0.902
2353	0.9004
2344	0.8989
2335	0.8973
2326	0.8946
2317	0.8962
2308	0.8987
2299	0.9017
2290	0.9048
2281	0.9078
2272	0.9105
2263	0.9118
2254	0.9122
2245	0.9128
2236	0.9134
2227	0.9137
2218	0.9143
2209	0.9148
2200	0.9157
2191	0.9174
2182	0.9189
2173	0.9185
2164	0.9194
2155	0.9204
2146	0.9212
2137	0.9214
2128	0.9211
2119	0.9228
2110	0.9241
2101	0.9237
2092	0.9213
2083	0.9193
2074	0.9181
2065	0.9181
2056	0.9193
2047	0.9208
2038	0.9226
2029	0.9245
2020	0.9263
2011	0.9275
2002	0.9264
1993	0.9215
1984	0.9184
1975	0.9193
1966	0.9203
1957	0.9181
1948	0.9111
1939	0.9021
1930	0.9015
1921	0.9125
1912	0.9215
1903	0.9238
1894	0.9254
1885	0.9262
1876	0.9248
1867	0.9267
1858	0.9235
1849	0.9228
1840	0.9174
1831	0.9166
1822	0.9225
1813	0.9227
1804	0.9228
1795	0.9186
1786	0.9154
1777	0.9141
1768	0.9132
1759	0.9113
1750	0.9119
1741	0.9131
1732	0.9152
1723	0.9158
1714	0.9119
1705	0.9085
1696	0.9012
1687	0.8862
1678	0.8713
1669	0.8646
1660	0.8338
1651	0.7338
1642	0.5974
1633	0.3836
1624	0.3607
1615	0.2986
1606	0.3275
1597	0.3069
1588	0.5123
1579	0.6054
1570	0.6513
1561	0.6781
1552	0.7168
1543	0.7339
1534	0.7295
1525	0.7036
1516	0.6487
1507	0.6
1498	0.5053
1489	0.3542
1480	0.324
1471	0.3931
1462	0.3155
1453	0.3685
1444	0.3162
1435	0.5508
1426	0.6269
1417	0.6394
1408	0.667
1399	0.4903
1390	0.6207
1381	0.6192
1372	0.3942
1363	0.5359
1354	0.6333
1345	0.6523
1336	0.5445
1327	0.608
1318	0.7191
1309	0.5851
1300	0.3706
1291	0.3492
1282	0.327
1273	0.2965
1264	0.3797
1255	0.5403
1246	0.5753
1237	0.5279
1228	0.385
1219	0.3262
1210	0.3662
1201	0.5499
1192	0.667
1183	0.6809
1174	0.5302
1165	0.4015
1156	0.5519
1147	0.6571
1138	0.7387
1129	0.7731
1120	0.7858
1111	0.8044
1102	0.816
1093	0.8314
1084	0.8342
1075	0.6495
1066	0.7582
1057	0.8213
1048	0.8362
1039	0.8407
1030	0.8343
1021	0.6851
1012	0.8342
1003	0.8654
994	0.8678
985	0.8821
976	0.884
967	0.8816
958	0.9029
949	0.9117
940	0.9168
931	0.828
922	0.747
913	0.7321
904	0.8913
895	0.8912
886	0.8731
877	0.8682
868	0.7395
859	0.8957
850	0.8716
841	0.9076
832	0.8931
823	0.8839
814	0.7746
805	0.6992
796	0.7434
787	0.8096
778	0.535
769	0.5241
760	0.6124
751	0.6298
742	0.5895
733	0.4944
724	0.5166
715	0.5409
706	0.6356
697	0.7193
688	0.7823
679	0.7802
670	0.8315
661	0.8783
652	0.8864
