Infrared Spectrum: RHODANINE, 3-METHYL-
Formula: C4 H5 N O S2
CAS: 4807-55-0
State: SOLUTION (10% CCl4 FOR 3800-1330, 10% CS2 FOR 1330-400 CM^-^1) VS SOLVENT
Melting point: 70 C
Class: COBLENTZ III
Instrument: DOW KBr FOREPRISM-GRATING
Instrument parameters: BLAZED AT 3.5, 12.0, 20.0 MICRON AND CHANGED AT 5.0, 7.5, 14.9 MICRON
Sampling: TRANSMISSION
Path length: 0.010 CM, 0.011 CM
Resolution: 2
Origin: DOW CHEMICAL COMPANY
1/CM	TRANSMITTANCE
382	0.8321
391	0.8325
400	0.8321
409	0.8252
418	0.9
427	0.962
436	0.9636
445	0.9584
454	0.9351
463	0.7236
472	0.1003
481	0.8607
490	0.9475
499	0.9558
508	0.9545
517	0.94
526	0.872
535	0.5017
544	0.7646
553	0.938
562	0.9523
571	0.9242
580	0.8067
589	0.9314
598	0.933
607	0.9035
616	0.5902
625	0.2091
634	0.793
643	0.9285
652	0.9233
661	0.9606
670	0.9697
679	0.9755
688	0.978
697	0.9758
706	0.9602
715	0.9597
724	0.9655
733	0.9689
742	0.9661
751	0.9575
760	0.9501
769	0.9395
778	0.6875
787	0.7647
796	0.936
805	0.9431
814	0.9421
823	0.9402
832	0.9355
841	0.8878
850	0.3503
859	0.7693
868	0.9105
877	0.8409
886	0.3133
895	0.8946
904	0.9207
913	0.9266
922	0.9227
931	0.9161
940	0.911
949	0.8953
958	0.8689
967	0.81
976	0.5278
985	0.0782
994	0.7585
1003	0.8097
1012	0.8156
1021	0.8275
1030	0.8145
1039	0.7958
1048	0.8125
1057	0.8037
1066	0.7318
1075	0.5325
1084	0.3495
1093	0.1027
1102	0.0385
1111	0.1698
1120	0.0199
1129	0.0001
1138	0.0042
1147	0.1398
1156	0.3109
1165	0.4037
1174	0.4919
1183	0.6109
1192	0.6165
1201	0.4832
1210	0.1495
1219	0.3459
1228	0.5757
1237	0.5108
1246	0.4532
1255	0.4122
1264	0.1454
1273	0.076
1282	0.0736
1291	0
1300	0
1309	0.0404
1318	0.1368
1327	0.2004
1336	0.2827
1345	0.0236
1354	0.1477
1363	0.4858
1372	0.6499
1381	0.6919
1390	0.668
1399	0.5643
1408	0.3788
1417	0.252
1426	0.0272
1435	0.2481
1444	0.4755
1453	0.4422
1462	0.3849
1471	0.4159
1480	0.5566
1489	0.7224
1498	0.7826
1507	0.7987
1516	0.7882
1525	0.8035
1534	0.8353
1543	0.8531
1552	0.8714
1561	0.8845
1570	0.8968
1579	0.9084
1588	0.9145
1597	0.905
1606	0.8634
1615	0.8694
1624	0.886
1633	0.8946
1642	0.9202
1651	0.9238
1660	0.8987
1669	0.8639
1678	0.8556
1687	0.7858
1696	0.6792
1705	0.5462
1714	0.4715
1723	0.1266
1732	0
1741	0
1750	0
1759	0.3101
1768	0.4476
1777	0.635
1786	0.8431
1795	0.8768
1804	0.8874
1813	0.8706
1822	0.8253
1831	0.7905
1840	0.8154
1849	0.9118
1858	0.9232
1867	0.9275
1876	0.9298
1885	0.9318
1894	0.9396
1903	0.9468
1912	0.9425
1921	0.9258
1930	0.9334
1939	0.9421
1948	0.9404
1957	0.937
1966	0.9265
1975	0.9306
1984	0.9327
1993	0.9363
2002	0.9734
2011	0.9737
2020	0.9755
2029	0.9759
2038	0.9748
2047	0.9716
2056	0.9683
2065	0.971
2074	0.9725
2083	0.9703
2092	0.9648
2101	0.9597
2110	0.9557
2119	0.9577
2128	0.9575
2137	0.9409
2146	0.9378
2155	0.9587
2164	0.957
2173	0.952
2182	0.9515
2191	0.953
2200	0.9545
2209	0.9551
2218	0.9568
2227	0.9589
2236	0.9618
2245	0.9618
2254	0.9512
2263	0.938
2272	0.9193
2281	0.929
2290	0.9631
2299	0.9642
2308	0.9567
2317	0.9602
2326	0.9756
2335	0.9804
2344	0.9835
2353	0.988
2362	0.9842
2371	0.9766
2380	0.9677
2389	0.9555
2398	0.9456
2407	0.9444
2416	0.9512
2425	0.948
2434	0.9487
2443	0.9562
2452	0.9675
2461	0.9678
2470	0.9663
2479	0.9647
2488	0.9621
2497	0.9607
2506	0.9602
2515	0.963
2524	0.9651
2533	0.9645
2542	0.964
2551	0.9632
2560	0.9617
2569	0.9582
2578	0.955
2587	0.9612
2596	0.9652
2605	0.9539
2614	0.938
2623	0.9203
2632	0.903
2641	0.9199
2650	0.9564
2659	0.9671
2668	0.9686
2677	0.9678
2686	0.9666
2695	0.9661
2704	0.9663
2713	0.9668
2722	0.9703
2731	0.9712
2740	0.9684
2749	0.9674
2758	0.9675
2767	0.9668
2776	0.9651
2785	0.9641
2794	0.9647
2803	0.9648
2812	0.9628
2821	0.9597
2830	0.9528
2839	0.9441
2848	0.9397
2857	0.9358
2866	0.9324
2875	0.9282
2884	0.9236
2893	0.9165
2902	0.9064
2911	0.8846
2920	0.8499
2929	0.7975
2938	0.7258
2947	0.6894
2956	0.8196
2965	0.8675
2974	0.8415
2983	0.8112
2992	0.8239
3001	0.8805
3010	0.9274
3019	0.9393
3028	0.9467
3037	0.953
3046	0.9571
3055	0.9605
3064	0.9632
3073	0.9653
3082	0.9673
3091	0.9693
3100	0.9714
3109	0.9732
3118	0.9744
3127	0.9755
3136	0.9763
3145	0.9771
3154	0.9774
3163	0.9775
3172	0.9777
3181	0.9781
3190	0.9791
3199	0.9801
3208	0.981
3217	0.9817
3226	0.9825
3235	0.9836
3244	0.9841
3253	0.9844
3262	0.9843
3271	0.9842
3280	0.9841
3289	0.9844
3298	0.9848
3307	0.9848
3316	0.9846
3325	0.9849
3334	0.9861
3343	0.9855
3352	0.985
3361	0.9848
3370	0.9846
3379	0.9841
3388	0.9835
3397	0.9817
3406	0.9783
3415	0.9721
3424	0.9616
3433	0.9442
3442	0.9151
3451	0.8933
3460	0.894
3469	0.9286
3478	0.952
3487	0.97
3496	0.9798
3505	0.9836
3514	0.9853
3523	0.9864
3532	0.9868
3541	0.987
3550	0.9861
3559	0.9854
3568	0.9852
3577	0.9821
3586	0.9758
3595	0.9832
3604	0.9855
3613	0.9866
3622	0.989
3631	0.9896
3640	0.9898
3649	0.9894
3658	0.9887
3667	0.9898
3676	0.9921
3685	0.993
3694	0.9925
3703	0.9912
3712	0.9896
3721	0.9915
3730	0.9955
3739	0.9963
3748	0.997
3757	0.9978
3766	0.9978
3775	0.997
3784	0.9961
3793	0.9951
