Infrared Spectrum: Alpha-MERCAPTOACETANILIDE
Formula: C8 H9 N O S
CAS: 4822-44-0
State: SOLID (MINERAL OIL MULL)
Melting point: 109-111 C
Class: COBLENTZ
Instrument: Not specified, most likely a prism, grating, or hybrid spectrometer.
Sampling: TRANSMISSION
Resolution: 4
Origin: WYANDOTTE CHEMICALS CORP., WYANDOTTE, MICHIGAN, USA
MICROMETERS	TRANSMITTANCE
2.019	0.358
2.05607	0.346
2.09313	0.357
2.1302	0.354
2.16727	0.354
2.20434	0.347
2.2414	0.347
2.27847	0.347
2.31554	0.349
2.35261	0.352
2.38967	0.352
2.42674	0.355
2.46381	0.364
2.50087	0.372
2.53794	0.377
2.57501	0.397
2.61208	0.394
2.64914	0.411
2.68621	0.409
2.72328	0.416
2.76034	0.414
2.79741	0.408
2.83448	0.409
2.87155	0.416
2.90861	0.43
2.94568	0.433
2.98275	0.43
3.01982	0.357
3.05688	0.226
3.09395	0.234
3.13102	0.232
3.16808	0.251
3.20515	0.236
3.24222	0.212
3.27929	0.223
3.31635	0.167
3.35342	0.049
3.39049	0.034
3.42755	0.034
3.46462	0.035
3.50169	0.043
3.53876	0.222
3.57582	0.411
3.61289	0.467
3.64996	0.478
3.68703	0.468
3.72409	0.475
3.76116	0.478
3.79823	0.484
3.83529	0.501
3.87236	0.504
3.90943	0.454
3.9465	0.504
3.98356	0.529
4.02063	0.535
4.0577	0.543
4.09476	0.557
4.13183	0.568
4.1689	0.572
4.20597	0.576
4.24303	0.563
4.2801	0.572
4.31717	0.591
4.35424	0.621
4.3913	0.633
4.42837	0.616
4.46544	0.622
4.5025	0.633
4.53957	0.655
4.57664	0.655
4.61371	0.656
4.65077	0.661
4.68784	0.669
4.72491	0.684
4.76197	0.694
4.79904	0.703
4.83611	0.712
4.87318	0.72
4.91024	0.726
4.94731	0.736
4.98438	0.743
5.02145	0.759
5.05851	0.767
5.09558	0.779
5.13265	0.771
5.16971	0.728
5.20678	0.771
5.24385	0.807
5.28092	0.824
5.31798	0.815
5.35505	0.809
5.39212	0.813
5.42918	0.85
5.46625	0.878
5.50332	0.899
5.54039	0.895
5.57745	0.891
5.61452	0.942
5.65159	0.95
5.68866	0.97
5.72572	0.954
5.76279	0.951
5.79986	1
5.83692	0.964
5.87399	0.908
5.91106	0.7
5.94813	0.465
5.98519	0.33
6.02226	0.19
6.05933	0.158
6.09639	0.234
6.13346	0.198
6.17053	0.156
6.2076	0.108
6.24466	0.232
6.28173	0.363
6.3188	0.391
6.35587	0.215
6.39293	0.105
6.43	0.09
6.46707	0.161
6.50413	0.237
6.5412	0.316
6.57827	0.383
6.61534	0.225
6.6524	0.144
6.68947	0.127
6.72654	0.169
6.7636	0.121
6.80067	0.069
6.83774	0.086
6.87481	0.066
6.91187	0.077
6.94894	0.206
6.98601	0.22
7.02308	0.156
7.06014	0.287
7.09721	0.361
7.13428	0.392
7.17134	0.354
7.20841	0.215
7.24548	0.142
7.28255	0.26
7.31961	0.343
7.35668	0.461
7.39375	0.462
7.43082	0.301
7.46788	0.114
7.50495	0.114
7.54202	0.192
7.57908	0.305
7.61615	0.354
7.65322	0.35
7.69029	0.413
7.72735	0.472
7.76442	0.492
7.80149	0.378
7.83855	0.38
7.87562	0.496
7.91269	0.551
7.94976	0.56
7.98682	0.478
8.02389	0.368
8.06096	0.315
8.09803	0.414
8.13509	0.465
8.17216	0.531
8.20923	0.568
8.24629	0.59
8.28336	0.619
8.32043	0.65
8.3575	0.669
8.39456	0.681
8.43163	0.675
8.4687	0.557
8.50576	0.568
8.54283	0.635
8.5799	0.675
8.61697	0.635
8.65403	0.422
8.6911	0.215
8.72817	0.226
8.76524	0.364
8.8023	0.464
8.83937	0.569
8.87644	0.61
8.9135	0.628
8.95057	0.653
8.98764	0.677
9.02471	0.69
9.06177	0.711
9.09884	0.728
9.13591	0.734
9.17297	0.736
9.21004	0.675
9.24711	0.627
9.28418	0.69
9.32124	0.729
9.35831	0.745
9.39538	0.76
9.43245	0.765
9.46951	0.776
9.50658	0.782
9.54365	0.793
9.58071	0.791
9.61778	0.796
9.65485	0.79
9.69192	0.663
9.72898	0.672
9.76605	0.736
9.80312	0.77
9.84018	0.799
9.87725	0.812
9.91432	0.816
9.95139	0.822
9.98845	0.795
10.0255	0.75
10.0626	0.756
10.0997	0.757
10.1367	0.756
10.1738	0.777
10.2109	0.787
10.2479	0.779
10.285	0.732
10.3221	0.681
10.3591	0.512
10.3962	0.439
10.4333	0.524
10.4703	0.625
10.5074	0.698
10.5445	0.729
10.5815	0.75
10.6186	0.777
10.6557	0.796
10.6927	0.812
10.7298	0.818
10.7669	0.815
10.8039	0.818
10.841	0.818
10.8781	0.804
10.9151	0.784
10.9522	0.768
10.9893	0.718
11.0263	0.526
11.0634	0.459
11.1005	0.464
11.1375	0.613
11.1746	0.703
11.2117	0.765
11.2487	0.821
11.2858	0.849
11.3229	0.871
11.3599	0.892
11.397	0.913
11.4341	0.917
11.4711	0.916
11.5082	0.925
11.5453	0.93
11.5823	0.933
11.6194	0.936
11.6565	0.939
11.6935	0.913
11.7306	0.871
11.7677	0.76
11.8047	0.681
11.8418	0.706
11.8789	0.771
11.9159	0.818
11.953	0.841
11.9901	0.864
12.0272	0.902
12.0642	0.923
12.1013	0.937
12.1384	0.937
12.1754	0.939
12.2125	0.94
12.2496	0.934
12.2866	0.936
12.3237	0.927
12.3608	0.919
12.3978	0.892
12.4349	0.852
12.472	0.805
12.509	0.781
12.5461	0.801
12.5832	0.827
12.6202	0.846
12.6573	0.868
12.6944	0.858
12.7314	0.86
12.7685	0.826
12.8056	0.799
12.8426	0.742
12.8797	0.661
12.9168	0.54
12.9538	0.374
12.9909	0.215
13.028	0.152
13.065	0.145
13.1021	0.139
13.1392	0.138
13.1762	0.135
13.2133	0.135
13.2504	0.152
13.2874	0.214
13.3245	0.295
13.3616	0.36
13.3986	0.416
13.4357	0.448
13.4728	0.444
13.5098	0.44
13.5469	0.434
13.584	0.43
13.621	0.411
13.6581	0.391
13.6952	0.38
13.7322	0.361
13.7693	0.346
13.8064	0.332
13.8434	0.326
13.8805	0.33
13.9176	0.341
13.9546	0.358
13.9917	0.381
14.0288	0.403
14.0658	0.419
14.1029	0.42
14.14	0.427
14.1771	0.43
14.2141	0.42
14.2512	0.414
14.2883	0.402
14.3253	0.389
14.3624	0.363
14.3995	0.321
14.4365	0.281
14.4736	0.242
14.5107	0.218
14.5477	0.26
14.5848	0.322
14.6219	0.42
14.6589	0.487
14.696	0.541
14.7331	0.569
14.7701	0.59
14.8072	0.611
14.8443	0.619
14.8813	0.635
14.9184	0.631
14.9555	0.633
14.9925	0.625
15.0296	0.597
15.0667	0.572
15.1037	0.552
15.1408	0.576
15.1779	0.608
15.2149	0.638
15.252	0.664
15.2891	0.677
15.3261	0.683
15.3632	0.687
15.4003	0.686
15.4373	0.684
15.4744	0.687
15.5115	0.689
15.5485	0.683
15.5856	0.681
15.6227	0.677
15.6597	0.667
15.6968	0.663
15.7339	0.652
15.7709	0.641
15.808	0.636
15.8451	0.63
15.8821	0.622
15.9192	0.604
15.9563	0.593
15.9933	0.577
