Infrared Spectrum: 2,2-DIMETHYL-3-HYDROXYPROPIONIC ACID
Formula: C5 H10 O3
CAS: 4835-90-9
State: SOLID (NUJOL MULL)
Class: COBLENTZ III
Instrument: PERKIN-ELMER 21 (GRATING)
Instrument parameters: FILTER AT ABOUT 10 MICRONS
Resolution: 2
Origin: ABBOTT LABORATORIES
1/CM	TRANSMITTANCE
667	0.6267
676	0.6533
685	0.6743
694	0.6928
703	0.6955
712	0.6887
721	0.6817
730	0.6892
739	0.6832
748	0.669
757	0.6299
766	0.6429
775	0.6422
784	0.5708
793	0.7138
802	0.7313
811	0.7359
820	0.7397
829	0.7454
838	0.7445
847	0.733
856	0.7173
865	0.6786
874	0.5588
883	0.5999
892	0.6701
901	0.642
910	0.5576
919	0.4992
928	0.4506
937	0.3735
946	0.4429
955	0.4704
964	0.5609
973	0.5548
982	0.5006
991	0.6137
1000	0.6866
1009	0.6813
1018	0.636
1027	0.5636
1036	0.3512
1045	0.1423
1054	0.4887
1063	0.6575
1072	0.7046
1081	0.7194
1090	0.7232
1099	0.723
1108	0.7203
1117	0.7143
1126	0.6991
1135	0.6653
1144	0.6127
1153	0.4914
1162	0.4698
1171	0.4583
1180	0.4371
1189	0.5881
1198	0.6334
1207	0.6
1216	0.4793
1225	0.3508
1234	0.2725
1243	0.3049
1252	0.5139
1261	0.5588
1270	0.5923
1279	0.6233
1288	0.6062
1297	0.5328
1306	0.4457
1315	0.4355
1324	0.5792
1333	0.5778
1342	0.5849
1351	0.6243
1360	0.5521
1369	0.5038
1378	0.5253
1387	0.5519
1396	0.5136
1405	0.4025
1414	0.426
1423	0.5978
1432	0.5449
1441	0.4434
1450	0.3431
1459	0.3109
1468	0.3767
1477	0.316
1486	0.5971
1495	0.7085
1504	0.7249
1513	0.7293
1522	0.7316
1531	0.7301
1540	0.7256
1549	0.7308
1558	0.7319
1567	0.7327
1576	0.733
1585	0.7322
1594	0.7281
1603	0.7177
1612	0.7019
1621	0.6806
1630	0.6558
1639	0.6255
1648	0.5876
1657	0.546
1666	0.4816
1675	0.3132
1684	0.1531
1693	0.0961
1702	0.1249
1711	0.3041
1720	0.4807
1729	0.5576
1738	0.6061
1747	0.6395
1756	0.6584
1765	0.6747
1774	0.6904
1783	0.7036
1792	0.7141
1801	0.7232
1810	0.7313
1819	0.7382
1828	0.7444
1837	0.7498
1846	0.7531
1855	0.7565
1864	0.7595
1873	0.7616
1882	0.7638
1891	0.7658
1900	0.7671
1909	0.7682
1918	0.7695
1927	0.7705
1936	0.7712
1945	0.772
1954	0.7727
1963	0.7732
1972	0.7731
1981	0.7729
1990	0.7729
1999	0.7734
2008	0.7781
2017	0.7825
2026	0.7846
2035	0.7856
2044	0.7852
2053	0.7827
2062	0.7807
2071	0.7813
2080	0.7836
2089	0.7865
2098	0.7893
2107	0.7895
2116	0.7884
2125	0.7869
2134	0.7852
2143	0.7825
2152	0.7797
2161	0.7767
2170	0.7735
2179	0.7715
2188	0.7723
2197	0.7733
2206	0.7754
2215	0.7778
2224	0.7811
2233	0.7818
2242	0.7793
2251	0.7756
2260	0.7713
2269	0.766
2278	0.7607
2287	0.7555
2296	0.7505
2305	0.7453
2314	0.7396
2323	0.7345
2332	0.7303
2341	0.7261
2350	0.7225
2359	0.7198
2368	0.717
2377	0.714
2386	0.7085
2395	0.7019
2404	0.6939
2413	0.686
2422	0.6762
2431	0.6663
2440	0.6563
2449	0.6451
2458	0.6341
2467	0.6223
2476	0.61
2485	0.5977
2494	0.5852
2503	0.5696
2512	0.5633
2521	0.5617
2530	0.5611
2539	0.5575
2548	0.5505
2557	0.5408
2566	0.5288
2575	0.5174
2584	0.5124
2593	0.5123
2602	0.5125
2611	0.5134
2620	0.5147
2629	0.5165
2638	0.5177
2647	0.5167
2656	0.5134
2665	0.508
2674	0.5025
2683	0.5005
2692	0.5004
2701	0.5026
2710	0.5065
2719	0.5068
2728	0.5032
2737	0.4903
2746	0.4748
2755	0.4573
2764	0.4393
2773	0.4202
2782	0.402
2791	0.3842
2800	0.3592
2809	0.328
2818	0.242
2827	0.1544
2836	0.1295
2845	0.1202
2854	0.1118
2863	0.1028
2872	0.093
2881	0.0832
2890	0.0748
2899	0.0693
2908	0.0682
2917	0.0688
2926	0.0759
2935	0.113
2944	0.1553
2953	0.1974
2962	0.2393
2971	0.2808
2980	0.3222
2989	0.357
2998	0.3654
3007	0.37
3016	0.3732
3025	0.3748
3034	0.376
3043	0.3771
3052	0.3782
3061	0.3793
3070	0.381
3079	0.3831
3088	0.3864
3097	0.3891
3106	0.391
3115	0.3912
3124	0.3911
3133	0.39
3142	0.3855
3151	0.379
3160	0.3716
3169	0.3641
3178	0.3565
3187	0.3504
3196	0.3447
3205	0.3411
3214	0.3378
3223	0.3352
3232	0.3327
3241	0.33
3250	0.327
3259	0.32
3268	0.3067
3277	0.2935
3286	0.2884
3295	0.288
3304	0.2971
3313	0.3264
3322	0.3555
3331	0.3845
3340	0.4133
3349	0.442
3358	0.4705
3367	0.4988
3376	0.566
3385	0.5798
3394	0.5964
3403	0.6151
3412	0.6347
3421	0.6548
3430	0.6789
3439	0.706
3448	0.7417
3457	0.7575
3466	0.7696
3475	0.7797
3484	0.7886
3493	0.7975
3502	0.8055
3511	0.8128
3520	0.8196
3529	0.8235
3538	0.8271
3547	0.83
3556	0.8319
3565	0.8337
3574	0.8355
3583	0.8367
3592	0.8379
3601	0.8391
3610	0.8402
3619	0.8412
3628	0.842
3637	0.8429
3646	0.8437
3655	0.8444
3664	0.8445
3673	0.8446
3682	0.8447
3691	0.8448
3700	0.8448
3709	0.8446
3718	0.8442
3727	0.8439
3736	0.8436
3745	0.8433
3754	0.8429
3763	0.8426
3772	0.8423
3781	0.842
3790	0.8417
3799	0.8414
3808	0.8411
3817	0.8407
3826	0.8404
3835	0.84
3844	0.8398
3853	0.8395
3862	0.8392
3871	0.8389
3880	0.8386
3889	0.8383
3898	0.8381
3907	0.8379
3916	0.8378
3925	0.8376
3934	0.8374
3943	0.8373
3952	0.8371
3961	0.837
3970	0.8368
3979	0.8366
3988	0.8364
3997	0.8363
