Infrared Spectrum: BENZOTHIAZOLE, 2-MERCAPTO-6-NITRO-
Formula: C7 H4 N2 O2 S2
CAS: 4845-58-3
State: SOLID (SPLIT MULL)
Melting point: 251 C (DECOMP.)
Class: COBLENTZ II
Instrument: PERKIN-ELMER 621 (GRATING)
Instrument parameters: GRATING CHANGE AT 623; ORDER CHANGE AT 2000. FILTERS AT 3146, 2494, 2000, 1146, 698, 497 CM^-^1
Sampling: TRANSMISSION
Path length: CAPILLARY (KBr PLATES FOR 4000-1335 AND CsBr PLATES FOR 1335-300)
Resolution: 2
Origin: PERKIN-ELMER CORP. (R. HANNAH)
1/CM	TRANSMITTANCE
4000	0.6687
3990	0.6685
3980	0.6682
3970	0.668
3960	0.669
3950	0.6708
3940	0.6706
3930	0.6703
3920	0.6707
3910	0.6711
3900	0.6718
3890	0.673
3880	0.674
3870	0.675
3860	0.6757
3850	0.6765
3840	0.6774
3830	0.6786
3820	0.6798
3810	0.681
3800	0.6821
3790	0.6834
3780	0.6846
3770	0.6858
3760	0.6871
3750	0.6883
3740	0.6897
3730	0.6912
3720	0.6928
3710	0.6943
3700	0.6958
3690	0.6974
3680	0.699
3670	0.6994
3660	0.6997
3650	0.7001
3640	0.7005
3630	0.7008
3620	0.7011
3610	0.7015
3600	0.7018
3590	0.7019
3580	0.7022
3570	0.7025
3560	0.703
3550	0.7033
3540	0.7037
3530	0.7041
3520	0.7045
3510	0.7048
3500	0.7051
3490	0.7056
3480	0.706
3470	0.7064
3460	0.7068
3450	0.7072
3440	0.7076
3430	0.7081
3420	0.7085
3410	0.7089
3400	0.7095
3390	0.71
3380	0.7105
3370	0.711
3360	0.7115
3350	0.7119
3340	0.7124
3330	0.7128
3320	0.7132
3310	0.7136
3300	0.714
3290	0.7145
3280	0.715
3270	0.714
3260	0.7124
3250	0.7108
3240	0.7075
3230	0.7025
3220	0.6974
3210	0.6915
3200	0.6831
3190	0.6718
3180	0.6569
3170	0.6342
3160	0.6095
3150	0.582
3140	0.5515
3130	0.5222
3120	0.4942
3110	0.4574
3100	0.4129
3090	0.3556
3080	0.4107
3070	0.4405
3060	0.4203
3050	0.4432
3040	0.469
3030	0.4891
3020	0.5064
3010	0.5328
3000	0.5546
2990	0.559
2980	0.5582
2970	0.5799
2960	0.5892
2950	0.5554
2940	0.5119
2930	0.5047
2920	0.5195
2910	0.5219
2900	0.5508
2890	0.5912
2880	0.6006
2870	0.5839
2860	0.5531
2850	0.5481
2840	0.5732
2830	0.6047
2820	0.6272
2810	0.6441
2800	0.6567
2790	0.669
2780	0.6721
2770	0.6768
2760	0.6858
2750	0.6917
2740	0.6912
2730	0.6887
2720	0.6761
2710	0.688
2700	0.7026
2690	0.7138
2680	0.7241
2670	0.729
2660	0.7339
2650	0.7382
2640	0.7419
2630	0.7455
2620	0.7495
2610	0.7524
2600	0.7549
2590	0.7575
2580	0.7599
2570	0.7618
2560	0.7633
2550	0.7643
2540	0.7647
2530	0.7651
2520	0.7658
2510	0.7665
2500	0.7675
2490	0.7686
2480	0.7697
2470	0.7708
2460	0.7725
2450	0.7742
2440	0.7755
2430	0.7765
2420	0.7778
2410	0.7796
2400	0.7811
2390	0.7821
2380	0.7826
2370	0.7831
2360	0.7836
2350	0.784
2340	0.7844
2330	0.7849
2320	0.7854
2310	0.7858
2300	0.7867
2290	0.7876
2280	0.7888
2270	0.7901
2260	0.7915
2250	0.7935
2240	0.7961
2230	0.7989
2220	0.8022
2210	0.8057
2200	0.8072
2190	0.8075
2180	0.8078
2170	0.8083
2160	0.8094
2150	0.8111
2140	0.8126
2130	0.8143
2120	0.8158
2110	0.8175
2100	0.8191
2090	0.8209
2080	0.8228
2070	0.8248
2060	0.8265
2050	0.8278
2040	0.8292
2030	0.8304
2020	0.8305
2010	0.8306
2000	0.8307
1990	0.8311
1980	0.8325
1970	0.8341
1960	0.8355
1950	0.8368
1940	0.8381
1930	0.8393
1920	0.8378
1910	0.837
1900	0.8298
1890	0.8297
1880	0.8328
1870	0.8334
1860	0.8352
1850	0.8367
1840	0.8377
1830	0.8346
1820	0.8318
1810	0.8313
1800	0.8325
1790	0.8333
1780	0.8334
1770	0.8337
1760	0.8375
1750	0.839
1740	0.8378
1730	0.8354
1720	0.8335
1710	0.8273
1700	0.8271
1690	0.8298
1680	0.8288
1670	0.8241
1660	0.8186
1650	0.8136
1640	0.8121
1630	0.8119
1620	0.809
1610	0.6501
1600	0.6815
1590	0.7321
1580	0.7085
1570	0.7507
1560	0.7799
1550	0.6675
1540	0.312
1530	0.5144
1520	0.5669
1510	0.6568
1500	0.5757
1490	0.3237
1480	0.4326
1470	0.6567
1460	0.6889
1450	0.7288
1440	0.7331
1430	0.7493
1420	0.7598
1410	0.753
1400	0.6507
1390	0.6057
1380	0.7054
1370	0.6778
1360	0.6085
1350	0.4077
1340	0.1651
1330	0.414
1320	0.6382
1310	0.7132
1300	0.7064
1290	0.6785
1280	0.7522
1270	0.741
1260	0.5973
1250	0.4153
1240	0.6297
1230	0.7288
1220	0.794
1210	0.8128
1200	0.8232
1190	0.8331
1180	0.8393
1170	0.8327
1160	0.8308
1150	0.8301
1140	0.7867
1130	0.7605
1120	0.8112
1110	0.8477
1100	0.8546
1090	0.8542
1080	0.8383
1070	0.5039
1060	0.7048
1050	0.7947
1040	0.6918
1030	0.7958
1020	0.8557
1010	0.8613
1000	0.8656
990	0.8684
980	0.8652
970	0.8613
960	0.8624
950	0.8407
940	0.8653
930	0.867
920	0.8515
910	0.8211
900	0.7957
890	0.8468
880	0.8841
870	0.8871
860	0.8781
850	0.8747
840	0.5836
830	0.8256
820	0.4888
810	0.8868
800	0.8955
790	0.9002
780	0.8936
770	0.8759
760	0.8468
750	0.4826
740	0.7685
730	0.7862
720	0.7711
710	0.7745
700	0.8482
690	0.8651
680	0.7148
670	0.8302
660	0.8374
650	0.8434
640	0.8848
630	0.9075
620	0.9175
610	0.9239
600	0.9275
590	0.9297
580	0.9261
570	0.851
560	0.8917
550	0.8908
540	0.8957
530	0.9091
520	0.9166
510	0.923
500	0.9255
490	0.9275
480	0.9275
470	0.822
460	0.8841
450	0.9278
440	0.9331
430	0.866
420	0.9339
410	0.9477
400	0.955
390	0.9581
380	0.9367
370	0.9498
360	0.9521
350	0.9521
340	0.9493
330	0.9546
320	0.9578
310	0.9606
300	0.9618
