Infrared Spectrum: Cytisine
Formula: C11 H14 N2 O
CAS: 485-35-8
State: SOLID (NUJOL MULL)
Class: COBLENTZ III
Instrument: PERKIN-ELMER 21 (GRATING)
Instrument parameters: FILTER AT ABOUT 10 MICRONS
Resolution: 2
Origin: ABBOTT LABORATORIES
1/CM	TRANSMITTANCE
664	0.6923
673	0.7247
682	0.7388
691	0.7469
700	0.743
709	0.7054
718	0.6725
727	0.6626
736	0.5644
745	0.4664
754	0.6734
763	0.7385
772	0.7336
781	0.5499
790	0.3066
799	0.7005
808	0.591
817	0.3914
826	0.7815
835	0.7911
844	0.6479
853	0.7523
862	0.7622
871	0.8085
880	0.7794
889	0.7532
898	0.7319
907	0.6988
916	0.7452
925	0.7735
934	0.7819
943	0.7702
952	0.7618
961	0.7385
970	0.6926
979	0.7467
988	0.7634
997	0.7352
1006	0.6605
1015	0.7396
1024	0.7333
1033	0.7104
1042	0.7232
1051	0.6563
1060	0.7152
1069	0.5575
1078	0.651
1087	0.6494
1096	0.5548
1105	0.5838
1114	0.6934
1123	0.6067
1132	0.3315
1141	0.5512
1150	0.4655
1159	0.6777
1168	0.5334
1177	0.7344
1186	0.7372
1195	0.7251
1204	0.704
1213	0.6697
1222	0.6483
1231	0.7173
1240	0.7086
1249	0.6837
1258	0.5615
1267	0.6937
1276	0.6943
1285	0.6621
1294	0.6011
1303	0.4234
1312	0.6959
1321	0.6673
1330	0.6203
1339	0.4747
1348	0.5439
1357	0.528
1366	0.445
1375	0.4871
1384	0.6459
1393	0.6411
1402	0.6263
1411	0.5128
1420	0.5564
1429	0.3824
1438	0.2766
1447	0.2718
1456	0.1987
1465	0.2813
1474	0.406
1483	0.6045
1492	0.5738
1501	0.5298
1510	0.4928
1519	0.3885
1528	0.2244
1537	0.1324
1546	0.1586
1555	0.2238
1564	0.2176
1573	0.5132
1582	0.6391
1591	0.6634
1600	0.6655
1609	0.6113
1618	0.4916
1627	0.3356
1636	0.1814
1645	0.0952
1654	0.2844
1663	0.5293
1672	0.6724
1681	0.6995
1690	0.7669
1699	0.7977
1708	0.8038
1717	0.8073
1726	0.809
1735	0.8133
1744	0.8192
1753	0.8249
1762	0.8306
1771	0.8343
1780	0.8327
1789	0.8289
1798	0.8272
1807	0.8272
1816	0.8279
1825	0.8285
1834	0.826
1843	0.8229
1852	0.8194
1861	0.8159
1870	0.8134
1879	0.8124
1888	0.8124
1897	0.812
1906	0.8077
1915	0.8016
1924	0.7973
1933	0.7945
1942	0.7928
1951	0.7907
1960	0.7887
1969	0.7867
1978	0.7847
1987	0.7833
1996	0.7824
2005	0.7828
2014	0.7835
2023	0.7836
2032	0.7833
2041	0.7824
2050	0.7816
2059	0.7806
2068	0.7795
2077	0.7781
2086	0.7765
2095	0.7744
2104	0.7722
2113	0.7701
2122	0.7675
2131	0.7648
2140	0.7622
2149	0.7602
2158	0.7582
2167	0.7565
2176	0.7563
2185	0.7562
2194	0.7567
2203	0.756
2212	0.7532
2221	0.7487
2230	0.7435
2239	0.7379
2248	0.7342
2257	0.7312
2266	0.7305
2275	0.7299
2284	0.7302
2293	0.7302
2302	0.7282
2311	0.7261
2320	0.7231
2329	0.7197
2338	0.7165
2347	0.714
2356	0.7141
2365	0.715
2374	0.7165
2383	0.718
2392	0.7198
2401	0.7207
2410	0.7197
2419	0.7182
2428	0.7158
2437	0.7124
2446	0.7084
2455	0.703
2464	0.6972
2473	0.6943
2482	0.6917
2491	0.6898
2500	0.6881
2509	0.6866
2518	0.6852
2527	0.684
2536	0.6828
2545	0.6801
2554	0.6734
2563	0.6654
2572	0.6554
2581	0.6462
2590	0.6392
2599	0.6325
2608	0.6277
2617	0.6229
2626	0.6186
2635	0.6149
2644	0.6128
2653	0.6097
2662	0.6
2671	0.5893
2680	0.5781
2689	0.566
2698	0.554
2707	0.5424
2716	0.5365
2725	0.5368
2734	0.5422
2743	0.5451
2752	0.5438
2761	0.5093
2770	0.4611
2779	0.4155
2788	0.4103
2797	0.4156
2806	0.4211
2815	0.3982
2824	0.2701
2833	0.1409
2842	0.0486
2851	0.0363
2860	0.0338
2869	0.0292
2878	0.0228
2887	0.0169
2896	0.0126
2905	0.0118
2914	0.0136
2923	0.0197
2932	0.0305
2941	0.0575
2950	0.0674
2959	0.1341
2968	0.2212
2977	0.3078
2986	0.3938
2995	0.4626
3004	0.4733
3013	0.4884
3022	0.5047
3031	0.5218
3040	0.5365
3049	0.5395
3058	0.5417
3067	0.5451
3076	0.5533
3085	0.5597
3094	0.5632
3103	0.5648
3112	0.5654
3121	0.5643
3130	0.5622
3139	0.5579
3148	0.5532
3157	0.5477
3166	0.5444
3175	0.5422
3184	0.5411
3193	0.5398
3202	0.5338
3211	0.5246
3220	0.5148
3229	0.5042
3238	0.4867
3247	0.4635
3256	0.4405
3265	0.4176
3274	0.4023
3283	0.4152
3292	0.4422
3301	0.469
3310	0.4957
3319	0.5223
3328	0.5487
3337	0.5678
3346	0.5688
3355	0.5686
3364	0.568
3373	0.5674
3382	0.5667
3391	0.566
3400	0.5653
3409	0.5645
3418	0.5636
3427	0.5628
3436	0.5619
3445	0.5615
3454	0.561
3463	0.5605
3472	0.5602
3481	0.5599
3490	0.5596
3499	0.5593
3508	0.5592
3517	0.5593
3526	0.5595
3535	0.5597
3544	0.5599
3553	0.5601
3562	0.5604
3571	0.5607
3580	0.5611
3589	0.5614
3598	0.5617
3607	0.5621
3616	0.563
3625	0.5637
3634	0.5646
3643	0.5653
3652	0.5659
3661	0.566
3670	0.5642
3679	0.5589
3688	0.551
3697	0.5435
3706	0.5382
3715	0.5353
3724	0.5329
3733	0.5309
3742	0.5292
3751	0.5274
3760	0.5261
3769	0.5249
3778	0.5238
3787	0.5227
3796	0.5216
3805	0.5204
3814	0.5193
3823	0.5182
3832	0.5176
3841	0.5168
3850	0.5161
3859	0.5154
3868	0.5149
3877	0.5144
3886	0.5139
3895	0.5133
3904	0.5128
3913	0.512
3922	0.5111
3931	0.5101
3940	0.5091
3949	0.5081
3958	0.5071
3967	0.5057
3976	0.5042
3985	0.5027
3994	0.5013
