Infrared Spectrum: BENZENE, 1,2,3,4-TETRAMETHYL-
Formula: C10 H14
CAS: 488-23-3
State: LIQUID (NEAT)
Class: COBLENTZ III
Instrument: PERKIN-ELMER 521 (GRATING)
Sampling: TRANSMISSION
Path length: 0.0025 CM
Resolution: 4
Origin: STANDARD OIL OF OHIO
1/CM	TRANSMITTANCE
592.186	0.614
601.405	0.614
610.623	0.617
619.842	0.624
629.061	0.63
638.279	0.657
647.498	0.691
656.717	0.716
665.936	0.7499
675.154	0.77
684.373	0.785
693.592	0.805
702.81	0.818
712.029	0.823
721.248	0.831
730.466	0.84
739.685	0.848
748.904	0.852
758.122	0.855
767.341	0.853
776.56	0.839
785.778	0.805
794.997	0.5543
804.216	0.027
813.435	0.3687
822.653	0.7679
831.872	0.822
841.091	0.842
850.309	0.844
859.528	0.856
868.747	0.86
877.965	0.87
887.184	0.873
896.403	0.87
905.621	0.866
914.84	0.856
924.059	0.849
933.277	0.84
942.496	0.848
951.715	0.852
960.934	0.845
970.152	0.827
979.371	0.795
988.59	0.748
997.808	0.6031
1007.03	0.2791
1016.25	0.601
1025.46	0.7179
1034.68	0.723
1043.9	0.721
1053.12	0.7238
1062.34	0.5071
1071.56	0.633
1080.78	0.652
1090	0.7709
1099.21	0.823
1108.43	0.843
1117.65	0.847
1126.87	0.847
1136.09	0.847
1145.31	0.842
1154.53	0.817
1163.74	0.579
1172.96	0.831
1182.18	0.844
1191.4	0.845
1200.62	0.845
1209.84	0.842
1219.06	0.844
1228.28	0.84
1237.49	0.828
1246.71	0.775
1255.93	0.762
1265.15	0.834
1274.37	0.836
1283.59	0.84
1292.81	0.838
1302.02	0.835
1311.24	0.827
1320.46	0.812
1329.68	0.801
1338.9	0.771
1348.12	0.746
1357.34	0.698
1366.56	0.5031
1375.77	0.314
1384.99	0.4451
1394.21	0.6049
1403.43	0.563
1412.65	0.488
1421.87	0.462
1431.09	0.396
1440.31	0.241
1449.52	0.142
1458.74	0.169
1467.96	0.088
1477.18	0.173
1486.4	0.189
1495.62	0.206
1504.84	0.3781
1514.05	0.577
1523.27	0.637
1532.49	0.693
1541.71	0.723
1550.93	0.737
1560.15	0.763
1569.37	0.766
1578.59	0.758
1587.8	0.749
1597.02	0.72
1606.24	0.689
1615.46	0.732
1624.68	0.814
1633.9	0.84
1643.12	0.868
1652.34	0.877
1661.55	0.885
1670.77	0.89
1679.99	0.892
1689.21	0.894
1698.43	0.895
1707.65	0.895
1716.87	0.889
1726.08	0.87
1735.3	0.86
1744.52	0.87
1753.74	0.872
1762.96	0.882
1772.18	0.902
1781.4	0.906
1790.62	0.906
1799.83	0.906
1809.05	0.904
1818.27	0.899
1827.49	0.886
1836.71	0.887
1845.93	0.882
1855.15	0.864
1864.36	0.802
1873.58	0.822
1882.8	0.8621
1892.02	0.899
1901.24	0.909
1910.46	0.912
1919.68	0.911
1928.9	0.909
1938.11	0.908
1947.33	0.907
1956.55	0.904
1965.77	0.908
1974.99	0.911
1984.21	0.911
1993.43	0.911
2002.65	0.909
2011.86	0.909
2021.08	0.9111
2030.3	0.915
2039.52	0.915
2048.74	0.916
2057.96	0.913
2067.18	0.911
2076.39	0.912
2085.61	0.911
2094.83	0.908
2104.05	0.9049
2113.27	0.913
2122.49	0.917
2131.71	0.919
2140.93	0.919
2150.14	0.92
2159.36	0.921
2168.58	0.921
2177.8	0.921
2187.02	0.92
2196.24	0.919
2205.46	0.917
2214.68	0.916
2223.89	0.9158
2233.11	0.9158
2242.33	0.916
2251.55	0.9123
2260.77	0.912
2269.99	0.9141
2279.21	0.913
2288.42	0.911
2297.64	0.909
2306.86	0.909
2316.08	0.908
2325.3	0.904
2334.52	0.904
2343.74	0.906
2352.96	0.903
2362.17	0.9018
2371.39	0.899
2380.61	0.902
2389.83	0.902
2399.05	0.9
2408.27	0.898
2417.49	0.8942
2426.7	0.894
2435.92	0.894
2445.14	0.895
2454.36	0.892
2463.58	0.89
2472.8	0.891
2482.02	0.894
2491.24	0.896
2500.45	0.896
2509.67	0.8993
2518.89	0.9022
2528.11	0.903
2537.33	0.903
2546.55	0.903
2555.77	0.903
2564.99	0.903
2574.2	0.903
2583.42	0.9031
2592.64	0.904
2601.86	0.906
2611.08	0.906
2620.3	0.902
2629.52	0.8943
2638.73	0.892
2647.95	0.892
2657.17	0.893
2666.39	0.894
2675.61	0.894
2684.83	0.892
2694.05	0.8884
2703.27	0.8777
2712.48	0.8614
2721.7	0.8289
2730.92	0.723
2740.14	0.7107
2749.36	0.814
2758.58	0.813
2767.8	0.81
2777.01	0.81
2786.23	0.8025
2795.45	0.7887
2804.67	0.7591
2813.89	0.7306
2823.11	0.6866
2832.33	0.627
2841.55	0.5039
2850.76	0.3791
2859.98	0.2079
2869.2	0.1336
2878.42	0.141
2887.64	0.1494
2896.86	0.0811
2906.08	0.0618
2915.3	0.0497
2924.51	0.022
2933.73	0.027
2942.95	0.028
2952.17	0.0555
2961.39	0.0818
2970.61	0.0681
2979.83	0.1014
2989.04	0.2003
2998.26	0.2256
3007.48	0.2001
3016.7	0.1708
3025.92	0.2249
3035.14	0.2565
3044.36	0.3447
3053.58	0.4211
3062.79	0.4764
3072.01	0.5324
3081.23	0.6212
3090.45	0.686
3099.67	0.7346
3108.89	0.7674
3118.11	0.7871
3127.33	0.802
3136.54	0.822
3145.76	0.8319
3154.98	0.8417
3164.2	0.8474
3173.42	0.8545
3182.64	0.869
3191.86	0.874
3201.07	0.877
3210.29	0.8826
3219.51	0.886
3228.73	0.8865
3237.95	0.8882
3247.17	0.8906
3256.39	0.8907
3265.61	0.889
3274.82	0.889
3284.04	0.889
3293.26	0.89
3302.48	0.89
3311.7	0.89
3320.92	0.891
3330.14	0.891
3339.35	0.892
3348.57	0.892
3357.79	0.892
3367.01	0.892
3376.23	0.891
3385.45	0.89
3394.67	0.889
3403.89	0.889
3413.1	0.889
3422.32	0.889
3431.54	0.887
3440.76	0.887
3449.98	0.889
3459.2	0.889
3468.42	0.886
3477.64	0.886
3486.85	0.886
3496.07	0.886
3505.29	0.89
3514.51	0.891
3523.73	0.8949
3532.95	0.896
3542.17	0.898
3551.38	0.8987
3560.6	0.899
3569.82	0.899
3579.04	0.899
3588.26	0.899
3597.48	0.899
3606.7	0.898
3615.92	0.8972
3625.13	0.8957
3634.35	0.8947
3643.57	0.892
3652.79	0.894
3662.01	0.892
3671.23	0.891
3680.45	0.891
3689.67	0.89
3698.88	0.89
3708.1	0.89
3717.32	0.889
3726.54	0.887
3735.76	0.886
3744.98	0.886
3754.2	0.889
3763.41	0.89
3772.63	0.89
3781.85	0.89
3791.07	0.889
3800.29	0.887
3809.51	0.8856
3818.73	0.8827
3827.95	0.881
3837.16	0.8778
3846.38	0.8738
3855.6	0.874
3864.82	0.873
3874.04	0.87
3883.26	0.869
3892.48	0.8702
3901.69	0.872
3910.91	0.872
3920.13	0.8705
3929.35	0.87
3938.57	0.868
3947.79	0.872
