Infrared Spectrum: Alloxazine
Formula: C10 H6 N4 O2
CAS: 490-59-5
State: SOLID (SPLIT MULL), FLUOROLUBE FOR 3800-1330 CM^-^1, NUJOL FOR 1330-400 CM^-^1
Class: COBLENTZ III
Instrument: BECKMAN IR-9 (GRATING)
Instrument parameters: ORDER CHANGES: 670, 1200, 2000 CM^-^1
Sampling: TRANSMISSION
Resolution: 2
Origin: DOW CHEMICAL COMPANY
1/CM	TRANSMITTANCE
3800	0.63
3791	0.6321
3782	0.6345
3773	0.6368
3764	0.6389
3755	0.6408
3746	0.6426
3737	0.6437
3728	0.6446
3719	0.6451
3710	0.6458
3701	0.6461
3692	0.6464
3683	0.6465
3674	0.6467
3665	0.6468
3656	0.6471
3647	0.6475
3638	0.648
3629	0.6483
3620	0.6481
3611	0.6478
3602	0.6475
3593	0.6472
3584	0.6471
3575	0.6468
3566	0.6468
3557	0.6465
3548	0.6464
3539	0.6461
3530	0.6461
3521	0.6461
3512	0.6462
3503	0.6461
3494	0.6458
3485	0.6457
3476	0.6453
3467	0.6447
3458	0.6444
3449	0.644
3440	0.6439
3431	0.6436
3422	0.6433
3413	0.6437
3404	0.6464
3395	0.6601
3386	0.6672
3377	0.6707
3368	0.6718
3359	0.6718
3350	0.6708
3341	0.6662
3332	0.6526
3323	0.6314
3314	0.6128
3305	0.5867
3296	0.5564
3287	0.5323
3278	0.5116
3269	0.4909
3260	0.4667
3251	0.4404
3242	0.404
3233	0.3584
3224	0.3254
3215	0.3134
3206	0.3101
3197	0.3066
3188	0.3037
3179	0.3013
3170	0.3151
3161	0.3444
3152	0.3464
3143	0.3291
3134	0.3277
3125	0.3087
3116	0.305
3107	0.3053
3098	0.3008
3089	0.2831
3080	0.2918
3071	0.3532
3062	0.4109
3053	0.4123
3044	0.4227
3035	0.4478
3026	0.47
3017	0.4876
3008	0.4907
2999	0.494
2990	0.4989
2981	0.5243
2972	0.5478
2963	0.5629
2954	0.5673
2945	0.5705
2936	0.576
2927	0.5816
2918	0.586
2909	0.5896
2900	0.5948
2891	0.5981
2882	0.5893
2873	0.5884
2864	0.5891
2855	0.5906
2846	0.5917
2837	0.6004
2828	0.6134
2819	0.6286
2810	0.6464
2801	0.6636
2792	0.6856
2783	0.6932
2774	0.698
2765	0.7024
2756	0.7086
2747	0.7151
2738	0.7217
2729	0.7276
2720	0.7321
2711	0.7368
2702	0.7421
2693	0.7471
2684	0.7519
2675	0.7518
2666	0.7519
2657	0.7568
2648	0.7637
2639	0.7691
2630	0.7735
2621	0.7762
2612	0.7791
2603	0.7818
2594	0.7851
2585	0.789
2576	0.7928
2567	0.7956
2558	0.7958
2549	0.7975
2540	0.7994
2531	0.8021
2522	0.8043
2513	0.8056
2504	0.8068
2495	0.8075
2486	0.8083
2477	0.8095
2468	0.811
2459	0.8124
2450	0.8137
2441	0.8149
2432	0.8161
2423	0.8171
2414	0.8182
2405	0.8189
2396	0.8197
2387	0.8207
2378	0.8218
2369	0.8232
2360	0.824
2351	0.8246
2342	0.8252
2333	0.8265
2324	0.8281
2315	0.8288
2306	0.8316
2297	0.8353
2288	0.8386
2279	0.8417
2270	0.8447
2261	0.8477
2252	0.8515
2243	0.8542
2234	0.856
2225	0.8574
2216	0.8586
2207	0.8598
2198	0.8612
2189	0.8627
2180	0.8651
2171	0.8677
2162	0.8708
2153	0.8738
2144	0.8765
2135	0.8783
2126	0.8797
2117	0.8806
2108	0.8812
2099	0.8808
2090	0.881
2081	0.8748
2072	0.8687
2063	0.8799
2054	0.884
2045	0.8863
2036	0.8878
2027	0.8886
2018	0.8875
2009	0.8853
2000	0.8675
1991	0.8789
1982	0.8906
1973	0.8951
1964	0.8952
1955	0.8975
1946	0.8989
1937	0.8996
1928	0.8997
1919	0.8997
1910	0.8998
1901	0.9
1892	0.8992
1883	0.892
1874	0.8864
1865	0.8983
1856	0.9011
1847	0.9034
1838	0.8996
1829	0.8834
1820	0.8538
1811	0.8573
1802	0.8573
1793	0.816
1784	0.8263
1775	0.8215
1766	0.7665
1757	0.6551
1748	0.4181
1739	0.1187
1730	0.2696
1721	0.2621
1712	0.1139
1703	0.0442
1694	0.0417
1685	0.1588
1676	0.332
1667	0.4736
1658	0.5921
1649	0.6458
1640	0.6875
1631	0.703
1622	0.6269
1613	0.7104
1604	0.7391
1595	0.6642
1586	0.2489
1577	0.5134
1568	0.659
1559	0.7256
1550	0.7594
1541	0.7845
1532	0.8007
1523	0.7988
1514	0.7114
1505	0.4864
1496	0.611
1487	0.5438
1478	0.7178
1469	0.711
1460	0.5492
1451	0.4552
1442	0.5664
1433	0.6645
1424	0.6857
1415	0.695
1406	0.6444
1397	0.3545
1388	0.4605
1379	0.6985
1370	0.5296
1361	0.5085
1352	0.6614
1343	0.6184
1334	0.3438
1325	0.4837
1316	0.4853
1307	0.5462
1298	0.6801
1289	0.6485
1280	0.449
1271	0.2727
1262	0.6067
1253	0.5584
1244	0.6607
1235	0.7169
1226	0.6551
1217	0.6719
1208	0.73
1199	0.7815
1190	0.7983
1181	0.8018
1172	0.8012
1163	0.7882
1154	0.6421
1145	0.6299
1136	0.8019
1127	0.8106
1118	0.7978
1109	0.8051
1100	0.8144
1091	0.8206
1082	0.8273
1073	0.8311
1064	0.8346
1055	0.831
1046	0.8132
1037	0.7265
1028	0.8299
1019	0.7935
1010	0.8321
1001	0.834
992	0.7561
983	0.8324
974	0.8389
965	0.8521
956	0.8593
947	0.8617
938	0.861
929	0.8575
920	0.8259
911	0.8413
902	0.8282
893	0.8126
884	0.7451
875	0.681
866	0.7149
857	0.7934
848	0.7771
839	0.7614
830	0.7425
821	0.7118
812	0.6504
803	0.606
794	0.521
785	0.3003
776	0.3454
767	0.4882
758	0.6465
749	0.8047
740	0.819
731	0.7824
722	0.7864
713	0.6961
704	0.7575
695	0.8268
686	0.8416
677	0.8437
668	0.8968
659	0.8874
650	0.8871
641	0.9014
632	0.9108
623	0.9128
614	0.9131
605	0.9101
596	0.8915
587	0.4822
578	0.9025
569	0.9106
560	0.902
551	0.8654
542	0.606
533	0.8677
524	0.8447
515	0.4294
506	0.8556
497	0.868
488	0.8647
479	0.8541
470	0.8386
461	0.8112
452	0.7331
443	0.6115
434	0.3864
425	0.6143
416	0.6182
407	0.6077
