Infrared Spectrum: 1,8-Nonadiene
Formula: C9 H16
CAS: 4900-30-5
State: LIQUID (NEAT)
Class: COBLENTZ III
Instrument: BECKMAN IR-12 (GRATING)
Instrument parameters: GRATING
Sampling: TRANSMISSION
Path length: 0.01036 CM
Resolution: 2
Origin: COLGATE-PALMOLIVE COMPANY (KELLENBACH)
1/CM	TRANSMITTANCE
401	0.6921
410	0.7131
419	0.7279
428	0.7419
437	0.7657
446	0.7863
455	0.7979
464	0.8231
473	0.8632
482	0.877
491	0.8849
500	0.8942
509	0.9107
518	0.9052
527	0.8636
536	0.7727
545	0.5404
554	0.3784
563	0.6001
572	0.7374
581	0.7713
590	0.7627
599	0.6704
608	0.4499
617	0.2294
626	0.0742
635	0.0615
644	0.2103
653	0.367
662	0.5237
671	0.5734
680	0.7763
689	0.8119
698	0.8214
707	0.7857
716	0.5841
725	0.2636
734	0.3472
743	0.59
752	0.7404
761	0.7138
770	0.6859
779	0.7405
788	0.779
797	0.8072
806	0.8051
815	0.714
824	0.622
833	0.624
842	0.5613
851	0.5122
860	0.4857
869	0.4272
878	0.2754
887	0.1067
896	0.0035
905	0
914	0
923	0.0048
932	0.1445
941	0.2704
950	0.3231
959	0.3267
968	0.241
977	0.106
986	0.0062
995	0
1004	0.0403
1013	0.1365
1022	0.2327
1031	0.3615
1040	0.4504
1049	0.4945
1058	0.5271
1067	0.5511
1076	0.5768
1085	0.6185
1094	0.6241
1103	0.6291
1112	0.6342
1121	0.6456
1130	0.6674
1139	0.7093
1148	0.7385
1157	0.7636
1166	0.7675
1175	0.738
1184	0.7097
1193	0.742
1202	0.7316
1211	0.7367
1220	0.7559
1229	0.7186
1238	0.6762
1247	0.6392
1256	0.606
1265	0.667
1274	0.6305
1283	0.5297
1292	0.4822
1301	0.4706
1310	0.5688
1319	0.56
1328	0.5799
1337	0.547
1346	0.4017
1355	0.5014
1364	0.4953
1373	0.6028
1382	0.6586
1391	0.5643
1400	0.3413
1409	0.1182
1418	0.1378
1427	0.0719
1436	0.0105
1445	0.0269
1454	0.0226
1463	0.075
1472	0.483
1481	0.6462
1490	0.7418
1499	0.7948
1508	0.8105
1517	0.8314
1526	0.815
1535	0.7899
1544	0.7673
1553	0.7727
1562	0.8024
1571	0.8466
1580	0.8551
1589	0.8466
1598	0.8041
1607	0.6168
1616	0.4983
1625	0.2285
1634	0.0248
1643	0.0249
1652	0.4229
1661	0.6798
1670	0.7685
1679	0.8356
1688	0.8693
1697	0.8816
1706	0.9044
1715	0.9116
1724	0.9268
1733	0.9363
1742	0.9406
1751	0.9405
1760	0.9373
1769	0.9316
1778	0.9204
1787	0.8932
1796	0.8428
1805	0.6846
1814	0.3968
1823	0.3105
1832	0.4909
1841	0.722
1850	0.8255
1859	0.8923
1868	0.918
1877	0.9277
1886	0.9211
1895	0.9168
1904	0.9301
1913	0.9462
1922	0.9544
1931	0.9584
1940	0.9578
1949	0.9472
1958	0.9235
1967	0.8535
1976	0.8209
1985	0.8752
1994	0.9147
2003	0.9366
2012	0.9378
2021	0.936
2030	0.9359
2039	0.9379
2048	0.937
2057	0.94
2066	0.948
2075	0.954
2084	0.9589
2093	0.961
2102	0.9629
2111	0.964
2120	0.965
2129	0.9653
2138	0.9636
2147	0.9596
2156	0.9565
2165	0.9568
2174	0.9564
2183	0.9557
2192	0.9544
2201	0.9527
2210	0.9511
2219	0.9493
2228	0.9475
2237	0.946
2246	0.943
2255	0.9364
2264	0.925
2273	0.9197
2282	0.9229
2291	0.9267
2300	0.9307
2309	0.9316
2318	0.9316
2327	0.931
2336	0.9303
2345	0.9304
2354	0.9312
2363	0.935
2372	0.943
2381	0.9509
2390	0.954
2399	0.9555
2408	0.9569
2417	0.9574
2426	0.9572
2435	0.9569
2444	0.9555
2453	0.9529
2462	0.9487
2471	0.9429
2480	0.9351
2489	0.9312
2498	0.9319
2507	0.9289
2516	0.9196
2525	0.9087
2534	0.9013
2543	0.8961
2552	0.8925
2561	0.8903
2570	0.8884
2579	0.8812
2588	0.8767
2597	0.8664
2606	0.855
2615	0.8499
2624	0.8378
2633	0.8042
2642	0.79
2651	0.7897
2660	0.7664
2669	0.7399
2678	0.7297
2687	0.7508
2696	0.7776
2705	0.7931
2714	0.7935
2723	0.7858
2732	0.7738
2741	0.759
2750	0.7423
2759	0.7192
2768	0.6903
2777	0.6507
2786	0.5383
2795	0.409
2804	0.2428
2813	0.1409
2822	0.0449
2831	0.0104
2840	0.0041
2849	0.0033
2858	0.0047
2867	0.0056
2876	0.0033
2885	0.001
2894	0
2903	0.0005
2912	0.0003
2921	0.0004
2930	0.0018
2939	0.0086
2948	0.0165
2957	0.0126
2966	0.0026
2975	0.0042
2984	0.0071
2993	0.0265
3002	0.1359
3011	0.2452
3020	0.339
3029	0.3116
3038	0.1831
3047	0.0511
3056	0.013
3065	0.0071
3074	0.0091
3083	0.2253
3092	0.4454
3101	0.642
3110	0.6997
3119	0.7602
3128	0.7858
3137	0.8031
3146	0.8278
3155	0.8433
3164	0.8693
3173	0.8864
3182	0.9036
3191	0.9242
3200	0.933
3209	0.9393
3218	0.9447
3227	0.9529
3236	0.9583
3245	0.9558
3254	0.949
3263	0.9363
3272	0.9491
3281	0.9644
3290	0.9616
3299	0.9393
3308	0.9324
3317	0.9489
3326	0.963
3335	0.9697
3344	0.9714
3353	0.9732
3362	0.976
3371	0.977
3380	0.976
3389	0.9749
3398	0.976
3407	0.9759
3416	0.9709
3425	0.971
3434	0.9728
3443	0.975
3452	0.9777
3461	0.9803
3470	0.9831
3479	0.9836
3488	0.9833
3497	0.983
3506	0.9829
3515	0.9825
3524	0.9818
3533	0.9823
3542	0.983
3551	0.9842
3560	0.9853
3569	0.9859
3578	0.9864
3587	0.9852
3596	0.9841
3605	0.9808
3614	0.9768
3623	0.971
3632	0.9695
3641	0.9699
3650	0.9705
3659	0.9706
3668	0.9705
3677	0.9702
3686	0.9697
3695	0.9691
3704	0.9688
3713	0.9693
3722	0.9698
3731	0.9703
3740	0.9697
3749	0.9688
3758	0.9648
3767	0.9641
3776	0.966
3785	0.9688
3794	0.9697
3803	0.9671
3812	0.9607
3821	0.9557
3830	0.9534
3839	0.9539
3848	0.9545
3857	0.9548
3866	0.9553
3875	0.9525
3884	0.9466
3893	0.9395
3902	0.9323
3911	0.9287
3920	0.9263
3929	0.9255
3938	0.9241
3947	0.9209
3956	0.9162
3965	0.9063
3974	0.8939
3983	0.8854
3992	0.8816
