Infrared Spectrum: 1,5,9-CYCLODODECATRIENE
Formula: C12 H18
CAS: 4904-61-4
State: LIQUID
Boiling point: 100-101 C AT 11 mmHg
Class: COBLENTZ
Instrument: Not specified, most likely a prism, grating, or hybrid spectrometer.
Sampling: TRANSMISSION
Path length: 0.0030 CM
Resolution: 4
Origin: TENNESSEE EASTMAN COMPANY, RESEARCH LABORATORIES
MICROMETERS	TRANSMITTANCE
2.013	0.908
2.05276	0.91
2.09251	0.91
2.13227	0.91
2.17203	0.91
2.21179	0.913
2.25154	0.902
2.2913	0.791
2.33106	0.799
2.37081	0.802
2.41057	0.835
2.45033	0.844
2.49008	0.862
2.52984	0.87
2.5696	0.872
2.60936	0.872
2.64911	0.872
2.68887	0.882
2.72863	0.9
2.76838	0.912
2.80814	0.915
2.8479	0.913
2.88765	0.912
2.92741	0.882
2.96717	0.902
3.00693	0.907
3.04668	0.895
3.08644	0.892
3.1262	0.888
3.16595	0.87
3.20571	0.85
3.24547	0.8
3.28523	0.577
3.32498	0.092
3.36474	0.056
3.4045	0.016
3.44425	0.016
3.48401	0.059
3.52377	0.114
3.56352	0.671
3.60328	0.747
3.64304	0.804
3.6828	0.839
3.72255	0.852
3.76231	0.834
3.80207	0.777
3.84182	0.805
3.88158	0.877
3.92134	0.915
3.9611	0.932
4.00085	0.923
4.04061	0.927
4.08037	0.935
4.12012	0.936
4.15988	0.936
4.19964	0.93
4.23939	0.943
4.27915	0.936
4.31891	0.935
4.35867	0.93
4.39842	0.936
4.43818	0.945
4.47794	0.946
4.51769	0.95
4.55745	0.95
4.59721	0.948
4.63696	0.948
4.67672	0.96
4.71648	0.965
4.75624	0.971
4.79599	0.975
4.83575	0.976
4.87551	0.976
4.91526	0.97
4.95502	0.971
4.99478	0.971
5.03454	0.958
5.07429	0.951
5.11405	0.933
5.15381	0.917
5.19356	0.941
5.23332	0.946
5.27308	0.93
5.31283	0.928
5.35259	0.936
5.39235	0.928
5.43211	0.888
5.47186	0.923
5.51162	0.935
5.55138	0.928
5.59113	0.885
5.63089	0.825
5.67065	0.802
5.7104	0.747
5.75016	0.784
5.78992	0.814
5.82968	0.849
5.86943	0.864
5.90919	0.814
5.94895	0.764
5.9887	0.676
6.02846	0.714
6.06822	0.839
6.10798	0.92
6.14773	0.935
6.18749	0.943
6.22725	0.945
6.267	0.945
6.30676	0.94
6.34652	0.927
6.38627	0.925
6.42603	0.908
6.46579	0.842
6.50555	0.862
6.5453	0.864
6.58506	0.888
6.62482	0.897
6.66457	0.888
6.70433	0.845
6.74409	0.824
6.78384	0.736
6.8236	0.597
6.86336	0.179
6.90312	0.028
6.94287	0.041
6.98263	0.238
7.02239	0.562
7.06214	0.673
7.1019	0.633
7.14166	0.742
7.18142	0.822
7.22117	0.847
7.26093	0.854
7.30069	0.857
7.34044	0.837
7.3802	0.794
7.41996	0.681
7.45971	0.522
7.49947	0.585
7.53923	0.621
7.57899	0.625
7.61874	0.616
7.6585	0.608
7.69826	0.601
7.73801	0.603
7.77777	0.665
7.81753	0.633
7.85729	0.706
7.89704	0.683
7.9368	0.786
7.97656	0.822
8.01631	0.829
8.05607	0.822
8.09583	0.81
8.13558	0.786
8.17534	0.726
8.2151	0.608
8.25486	0.547
8.29461	0.59
8.33437	0.621
8.37413	0.593
8.41388	0.497
8.45364	0.671
8.4934	0.761
8.53315	0.802
8.57291	0.824
8.61267	0.832
8.65243	0.83
8.69218	0.802
8.73194	0.696
8.7717	0.593
8.81145	0.669
8.85121	0.781
8.89097	0.822
8.93073	0.832
8.97048	0.829
9.01024	0.824
9.05	0.822
9.08975	0.797
9.12951	0.718
9.16927	0.547
9.20902	0.56
9.24878	0.608
9.28854	0.653
9.3283	0.698
9.36805	0.706
9.40781	0.703
9.44757	0.694
9.48732	0.716
9.52708	0.731
9.56684	0.668
9.60659	0.597
9.64635	0.598
9.68611	0.62
9.72587	0.548
9.76562	0.389
9.80538	0.232
9.84514	0.189
9.88489	0.182
9.92465	0.315
9.96441	0.426
10.0042	0.404
10.0439	0.374
10.0837	0.326
10.1234	0.2
10.1632	0.106
10.203	0.048
10.2427	0.019
10.2825	0.016
10.3222	0.014
10.362	0.018
10.4017	0.031
10.4415	0.094
10.4812	0.124
10.521	0.072
10.5608	0.051
10.6005	0.225
10.6403	0.399
10.68	0.495
10.7198	0.568
10.7595	0.585
10.7993	0.53
10.8391	0.502
10.8788	0.608
10.9186	0.699
10.9583	0.728
10.9981	0.754
11.0378	0.791
11.0776	0.802
11.1174	0.812
11.1571	0.82
11.1969	0.82
11.2366	0.82
11.2764	0.812
11.3161	0.791
11.3559	0.734
11.3957	0.699
11.4354	0.64
11.4752	0.497
11.5149	0.444
11.5547	0.466
11.5944	0.487
11.6342	0.646
11.674	0.747
11.7137	0.799
11.7535	0.82
11.7932	0.829
11.833	0.827
11.8727	0.81
11.9125	0.789
11.9523	0.787
11.992	0.8
12.0318	0.805
12.0715	0.809
12.1113	0.814
12.151	0.81
12.1908	0.787
12.2306	0.734
12.2703	0.679
12.3101	0.623
12.3498	0.572
12.3896	0.492
12.4293	0.525
12.4691	0.621
12.5089	0.656
12.5486	0.615
12.5884	0.575
12.6281	0.598
12.6679	0.633
12.7076	0.625
12.7474	0.563
12.7872	0.538
12.8269	0.61
12.8667	0.686
12.9064	0.746
12.9462	0.782
12.9859	0.799
13.0257	0.804
13.0655	0.812
13.1052	0.815
13.145	0.814
13.1847	0.812
13.2245	0.802
13.2642	0.794
13.304	0.787
13.3438	0.779
13.3835	0.771
13.4233	0.757
13.463	0.742
13.5028	0.724
13.5425	0.703
13.5823	0.678
13.6221	0.651
13.6618	0.623
13.7016	0.585
13.7413	0.533
13.7811	0.47
13.8208	0.396
13.8606	0.293
13.9004	0.21
13.9401	0.145
13.9799	0.089
14.0196	0.063
14.0594	0.051
14.0991	0.048
14.1389	0.048
14.1787	0.049
14.2184	0.069
14.2582	0.094
14.2979	0.137
14.3377	0.199
14.3774	0.266
14.4172	0.349
14.457	0.421
14.4967	0.487
14.5365	0.53
14.5762	0.588
14.616	0.615
14.6557	0.638
14.6955	0.66
14.7353	0.671
14.775	0.681
14.8148	0.689
14.8545	0.691
14.8943	0.694
14.934	0.703
14.9738	0.706
15.0136	0.704
15.0533	0.693
15.0931	0.688
15.1328	0.688
15.1726	0.689
15.2123	0.688
15.2521	0.686
15.2919	0.684
15.3316	0.681
15.3714	0.679
15.4111	0.679
15.4509	0.679
15.4906	0.673
15.5304	0.671
15.5702	0.669
15.6099	0.666
15.6497	0.666
15.6894	0.665
15.7292	0.661
15.7689	0.658
15.8087	0.656
15.8485	0.66
15.8882	0.661
15.928	0.663
15.9677	0.663
