Infrared Spectrum: M-ETHYLCUMENE
Formula: C11 H16
CAS: 4920-99-4
State: SOLUTION (10% CCl4 FOR 2.5-7.5, 10% CS2 FOR 7.5-15 MICRON)
Class: COBLENTZ
Instrument: Not specified, most likely a prism, grating, or hybrid spectrometer.
Sampling: TRANSMISSION
Path length: 0.01 CM, 0.01 CM
Resolution: 4
Origin: DOW CHEMICAL COMPANY
MICROMETERS	TRANSMITTANCE
2.028	0.896
2.06713	0.899
2.10626	0.899
2.1454	0.896
2.18453	0.904
2.22366	0.904
2.26279	0.889
2.30192	0.878
2.34105	0.886
2.38019	0.899
2.41932	0.901
2.45845	0.896
2.49758	0.902
2.53671	0.912
2.57584	0.915
2.61498	0.918
2.65411	0.925
2.69324	0.915
2.73237	0.923
2.7715	0.918
2.81063	0.902
2.84977	0.88
2.8889	0.868
2.92803	0.858
2.96716	0.86
3.00629	0.87
3.04542	0.871
3.08456	0.857
3.12369	0.842
3.16282	0.824
3.20195	0.808
3.24108	0.753
3.28021	0.633
3.31935	0.504
3.35848	0.366
3.39761	0.092
3.43674	0.244
3.47587	0.291
3.515	0.604
3.55414	0.782
3.59327	0.803
3.6324	0.828
3.67153	0.846
3.71066	0.871
3.74979	0.891
3.78893	0.901
3.82806	0.902
3.86719	0.905
3.90632	0.917
3.94545	0.922
3.98458	0.925
4.02372	0.918
4.06285	0.915
4.10198	0.92
4.14111	0.925
4.18024	0.931
4.21937	0.94
4.25851	0.936
4.29764	0.93
4.33677	0.917
4.3759	0.92
4.41503	0.933
4.45416	0.946
4.4933	0.948
4.53243	0.948
4.57156	0.952
4.61069	0.949
4.64982	0.952
4.68895	0.954
4.72809	0.961
4.76722	0.962
4.80635	0.962
4.84548	0.962
4.88461	0.961
4.92374	0.961
4.96288	0.957
5.00201	0.959
5.04114	0.965
5.08027	0.965
5.1194	0.965
5.15853	0.935
5.19767	0.938
5.2368	0.964
5.27593	0.967
5.31506	0.965
5.35419	0.923
5.39333	0.928
5.43246	0.959
5.47159	0.962
5.51072	0.967
5.54985	0.954
5.58898	0.936
5.62812	0.938
5.66725	0.943
5.70638	0.959
5.74551	0.962
5.78464	0.962
5.82377	0.952
5.86291	0.949
5.90204	0.933
5.94117	0.925
5.9803	0.931
6.01943	0.936
6.05856	0.935
6.0977	0.901
6.13683	0.87
6.17596	0.726
6.21509	0.465
6.25422	0.549
6.29335	0.536
6.33249	0.619
6.37162	0.612
6.41075	0.559
6.44988	0.526
6.48901	0.568
6.52814	0.623
6.56728	0.661
6.60641	0.7
6.64554	0.721
6.68467	0.588
6.7238	0.476
6.76293	0.594
6.80207	0.35
6.8412	0.327
6.88033	0.431
6.91946	0.539
6.95859	0.693
6.99772	0.766
7.03686	0.805
7.07599	0.834
7.11512	0.854
7.15425	0.846
7.19338	0.705
7.23251	0.661
7.27165	0.758
7.31078	0.692
7.34991	0.849
7.38904	0.873
7.42817	0.846
7.4673	0.836
7.50644	0.811
7.54557	0.758
7.5847	0.776
7.62383	0.787
7.66296	0.821
7.70209	0.833
7.74123	0.805
7.78036	0.821
7.81949	0.852
7.85862	0.876
7.89775	0.896
7.93688	0.904
7.97602	0.91
8.01515	0.912
8.05428	0.92
8.09341	0.931
8.13254	0.94
8.17167	0.946
8.21081	0.948
8.24994	0.949
8.28907	0.949
8.3282	0.946
8.36733	0.938
8.40646	0.91
8.4456	0.833
8.48473	0.815
8.52386	0.794
8.56299	0.858
8.60212	0.902
8.64126	0.917
8.68039	0.92
8.71952	0.923
8.75865	0.927
8.79778	0.922
8.83691	0.922
8.87605	0.928
8.91518	0.925
8.95431	0.905
8.99344	0.883
9.03257	0.849
9.0717	0.847
9.11084	0.855
9.14997	0.831
9.1891	0.821
9.22823	0.799
9.26736	0.784
9.30649	0.823
9.34563	0.855
9.38476	0.821
9.42389	0.8
9.46302	0.771
9.50215	0.693
9.54128	0.677
9.58042	0.821
9.61955	0.867
9.65868	0.893
9.69781	0.907
9.73694	0.923
9.77607	0.94
9.81521	0.946
9.85434	0.948
9.89347	0.952
9.9326	0.954
9.97173	0.954
10.0109	0.952
10.05	0.956
10.0891	0.956
10.1283	0.954
10.1674	0.94
10.2065	0.925
10.2457	0.925
10.2848	0.943
10.3239	0.946
10.363	0.946
10.4022	0.962
10.4413	0.969
10.4804	0.974
10.5196	0.977
10.5587	0.982
10.5978	0.983
10.637	0.974
10.6761	0.974
10.7152	0.97
10.7544	0.956
10.7935	0.938
10.8326	0.891
10.8718	0.88
10.9109	0.883
10.95	0.828
10.9892	0.787
11.0283	0.79
11.0674	0.816
11.1066	0.842
11.1457	0.824
11.1848	0.735
11.2239	0.536
11.2631	0.44
11.3022	0.68
11.3413	0.797
11.3805	0.823
11.4196	0.833
11.4587	0.833
11.4979	0.826
11.537	0.811
11.5761	0.802
11.6153	0.795
11.6544	0.79
11.6935	0.79
11.7327	0.808
11.7718	0.823
11.8109	0.839
11.8501	0.841
11.8892	0.833
11.9283	0.86
11.9674	0.88
12.0066	0.883
12.0457	0.881
12.0848	0.891
12.124	0.917
12.1631	0.927
12.2022	0.931
12.2414	0.925
12.2805	0.905
12.3196	0.881
12.3588	0.834
12.3979	0.779
12.437	0.713
12.4762	0.559
12.5153	0.421
12.5544	0.288
12.5936	0.254
12.6327	0.307
12.6718	0.432
12.711	0.546
12.7501	0.617
12.7892	0.67
12.8283	0.717
12.8675	0.756
12.9066	0.784
12.9457	0.803
12.9849	0.815
13.024	0.818
13.0631	0.824
13.1023	0.811
13.1414	0.782
13.1805	0.76
13.2197	0.756
13.2588	0.76
13.2979	0.771
13.3371	0.808
13.3762	0.847
13.4153	0.865
13.4545	0.873
13.4936	0.881
13.5327	0.881
13.5718	0.876
13.611	0.873
13.6501	0.868
13.6892	0.857
13.7284	0.846
13.7675	0.837
13.8066	0.823
13.8458	0.807
13.8849	0.777
13.924	0.752
13.9632	0.698
14.0023	0.62
14.0414	0.502
14.0806	0.35
14.1197	0.213
14.1588	0.132
14.198	0.116
14.2371	0.192
14.2762	0.335
14.3153	0.463
14.3545	0.593
14.3936	0.659
14.4327	0.692
14.4719	0.716
14.511	0.732
14.5501	0.739
14.5893	0.739
14.6284	0.739
14.6675	0.739
14.7067	0.737
14.7458	0.73
14.7849	0.724
14.8241	0.714
14.8632	0.711
14.9023	0.708
14.9415	0.705
14.9806	0.7
15.0197	0.69
15.0589	0.683
15.098	0.677
15.1371	0.669
15.1762	0.661
15.2154	0.651
15.2545	0.645
15.2936	0.635
15.3328	0.63
15.3719	0.628
15.411	0.627
15.4502	0.62
15.4893	0.619
15.5284	0.617
15.5676	0.615
15.6067	0.614
15.6458	0.614
15.685	0.614
15.7241	0.612
15.7632	0.612
15.8024	0.611
15.8415	0.611
15.8806	0.611
15.9197	0.612
15.9589	0.611
15.998	0.612
