Infrared Spectrum: TRANS-DECAHYDRONAPHTHALENE
Formula: C10 H18
CAS: 493-02-7
State: SOLUTION
Class: COBLENTZ III
Instrument: CARY 90 (GRATING)
Instrument parameters: GRATING CHANGES: 3000, 2000, 1200 CM^-^1
Sampling: TRANSMISSION
Resolution: 2
Origin: WESTERN REGIONAL RES. USDA
1/CM	TRANSMITTANCE
484.371	0.8
493.266	0.824
502.16	0.846
511.055	0.855
519.949	0.827
528.844	0.858
537.738	0.87
546.633	0.88
555.527	0.889
564.422	0.899
573.316	0.908
582.211	0.917
591.105	0.924
600	0.932
608.895	0.935
617.789	0.939
626.684	0.943
635.578	0.953
644.473	0.96
653.367	0.962
662.262	0.962
671.156	0.964
680.051	0.965
688.945	0.967
697.84	0.97
706.735	0.973
715.629	0.974
724.524	0.975
733.418	0.975
742.313	0.973
751.207	0.972
760.102	0.975
768.996	0.975
777.891	0.974
786.785	0.969
795.68	0.963
804.574	0.952
813.469	0.929
822.364	0.519
831.258	0.809
840.153	0.6831
849.047	0.947
857.942	0.917
866.836	0.934
875.731	0.955
884.625	0.969
893.52	0.961
902.414	0.951
911.309	0.918
920.204	0.391
929.098	0.907
937.993	0.953
946.887	0.958
955.782	0.944
964.676	0.764
973.571	0.854
982.465	0.838
991.36	0.933
1000.25	0.952
1009.15	0.959
1018.04	0.935
1026.94	0.745
1035.83	0.945
1044.73	0.896
1053.62	0.7461
1062.52	0.939
1071.41	0.952
1080.31	0.962
1089.2	0.965
1098.09	0.966
1106.99	0.965
1115.88	0.952
1124.78	0.912
1133.67	0.619
1142.57	0.898
1151.46	0.83
1160.36	0.91
1169.25	0.945
1178.15	0.956
1187.04	0.956
1195.93	0.947
1204.83	0.917
1213.72	0.873
1222.62	0.711
1231.51	0.847
1240.41	0.838
1249.3	0.518
1258.2	0.83
1267.09	0.857
1275.99	0.857
1284.88	0.854
1293.77	0.83
1302.67	0.581
1311.56	0.818
1320.46	0.83
1329.35	0.554
1338.25	0.774
1347.14	0.6651
1356.04	0.812
1364.93	0.837
1373.83	0.849
1382.72	0.834
1391.61	0.847
1400.51	0.847
1409.4	0.817
1418.3	0.802
1427.19	0.73
1436.09	0.487
1444.98	0.019
1453.88	0.3949
1462.77	0.7031
1471.67	0.801
1480.56	0.83
1489.45	0.85
1498.35	0.87
1507.24	0.88
1516.14	0.891
1525.03	0.899
1533.93	0.907
1542.82	0.911
1551.72	0.918
1560.61	0.929
1569.51	0.913
1578.4	0.902
1587.29	0.907
1596.19	0.909
1605.08	0.898
1613.98	0.896
1622.87	0.891
1631.77	0.89
1640.66	0.888
1649.56	0.888
1658.45	0.888
1667.35	0.887
1676.24	0.887
1685.13	0.885
1694.03	0.883
1702.92	0.883
1711.82	0.879
1720.71	0.874
1729.61	0.855
1738.5	0.853
1747.4	0.868
1756.29	0.883
1765.18	0.888
1774.08	0.889
1782.97	0.884
1791.87	0.874
1800.76	0.871
1809.66	0.876
1818.55	0.88
1827.45	0.884
1836.34	0.886
1845.24	0.886
1854.13	0.881
1863.02	0.877
1871.92	0.879
1880.81	0.886
1889.71	0.885
1898.6	0.879
1907.5	0.879
1916.39	0.879
1925.29	0.88
1934.18	0.88
1943.08	0.881
1951.97	0.884
1960.86	0.885
1969.76	0.886
1978.65	0.879
1987.55	0.86
1996.44	0.879
2005.34	0.9012
2014.23	0.9045
2023.13	0.8926
2032.02	0.9053
2040.92	0.907
2049.81	0.908
2058.7	0.909
2067.6	0.9086
2076.49	0.907
2085.39	0.9021
2094.28	0.912
2103.18	0.912
2112.07	0.911
2120.97	0.9047
2129.86	0.9082
2138.76	0.913
2147.65	0.9107
2156.54	0.9076
2165.44	0.895
2174.33	0.8829
2183.23	0.8993
2192.12	0.9013
2201.02	0.8927
2209.91	0.8955
2218.81	0.9109
2227.7	0.917
2236.6	0.9068
2245.49	0.9065
2254.38	0.912
2263.28	0.9116
2272.17	0.902
2281.07	0.8954
2289.96	0.9002
2298.86	0.9053
2307.75	0.8916
2316.65	0.9008
2325.54	0.906
2334.44	0.9031
2343.33	0.8969
2352.22	0.8996
2361.12	0.906
2370.01	0.9076
2378.91	0.8983
2387.8	0.8705
2396.7	0.8988
2405.59	0.908
2414.49	0.89
2423.38	0.907
2432.28	0.8981
2441.17	0.9061
2450.06	0.918
2458.96	0.915
2467.85	0.8922
2476.75	0.9017
2485.64	0.9017
2494.54	0.8795
2503.43	0.8911
2512.33	0.905
2521.22	0.8998
2530.12	0.8888
2539.01	0.8993
2547.9	0.881
2556.8	0.889
2565.69	0.884
2574.59	0.8149
2583.48	0.8301
2592.38	0.8477
2601.27	0.8189
2610.17	0.8357
2619.06	0.85
2627.96	0.7587
2636.85	0.8376
2645.74	0.8055
2654.64	0.5059
2663.53	0.629
2672.43	0.793
2681.32	0.816
2690.22	0.7533
2699.11	0.816
2708.01	0.8177
2716.9	0.8506
2725.8	0.8678
2734.69	0.8656
2743.58	0.8529
2752.48	0.842
2761.37	0.8258
2770.27	0.769
2779.16	0.7553
2788.06	0.5578
2796.95	0.6253
2805.85	0.4973
2814.74	0.5124
2823.64	0.3203
2832.53	0.0808
2841.42	0.009
2850.32	0.006
2859.21	0.0828
2868.11	0.1111
2877	0.0732
2885.9	0.0229
2894.79	0.0124
2903.69	0.0058
2912.58	0.004
2921.48	0.004
2930.37	0.0045
2939.26	0.0108
2948.16	0.1066
2957.05	0.24
2965.95	0.4884
2974.84	0.5697
2983.74	0.7487
2992.63	0.7632
3001.53	0.8022
3010.42	0.838
3019.32	0.8634
3028.21	0.8771
3037.1	0.89
3046	0.892
3054.89	0.887
3063.79	0.8843
3072.68	0.8903
3081.58	0.9145
3090.47	0.918
3099.37	0.921
3108.26	0.922
3117.16	0.922
3126.05	0.922
3134.94	0.921
3143.84	0.919
3152.73	0.921
3161.63	0.924
3170.52	0.924
3179.42	0.924
3188.31	0.924
3197.21	0.926
3206.1	0.927
3215	0.9299
3223.89	0.926
3232.78	0.922
3241.68	0.92
3250.57	0.916
3259.47	0.916
3268.36	0.9285
3277.26	0.9336
3286.15	0.937
3295.05	0.939
3303.94	0.94
3312.84	0.94
3321.73	0.94
3330.62	0.9411
3339.52	0.9422
3348.41	0.943
3357.31	0.943
3366.2	0.943
3375.1	0.943
3383.99	0.943
3392.89	0.943
3401.78	0.942
3410.68	0.9402
3419.57	0.939
3428.46	0.937
3437.36	0.9339
3446.25	0.932
3455.15	0.931
3464.04	0.93
3472.94	0.932
3481.83	0.9345
3490.73	0.9406
3499.62	0.9447
3508.52	0.9495
3517.41	0.951
3526.3	0.952
3535.2	0.953
3544.09	0.953
3552.99	0.954
3561.88	0.954
3570.78	0.954
3579.67	0.954
3588.57	0.954
3597.46	0.955
3606.36	0.9524
3615.25	0.95
3624.14	0.949
3633.04	0.945
3641.93	0.942
3650.83	0.939
3659.72	0.937
3668.62	0.935
3677.51	0.9337
3686.41	0.933
3695.3	0.933
3704.2	0.932
3713.09	0.932
3721.98	0.932
3730.88	0.932
3739.77	0.931
3748.67	0.93
3757.56	0.93
3766.46	0.93
3775.35	0.93
3784.25	0.93
3793.14	0.93
3802.03	0.93
3810.93	0.9315
3819.82	0.9326
3828.72	0.934
3837.61	0.937
3846.51	0.939
3855.4	0.941
3864.3	0.942
3873.19	0.9399
3882.09	0.938
3890.98	0.933
3899.87	0.9287
3908.77	0.927
3917.66	0.926
3926.56	0.926
3935.45	0.929
3944.35	0.9327
3953.24	0.9348
3962.14	0.9379
3971.03	0.938
3979.93	0.937
3988.82	0.9349
3997.71	0.9328
