Infrared Spectrum: 1-Hepten-3-ol
Formula: C7 H14 O
CAS: 4938-52-7
State: SOLUTION (10% CCl4 FOR 3800-1330, 10% CS2 FOR 1330-400)
Class: COBLENTZ III
Instrument: BECKMAN IR-9 (GRATING)
Instrument parameters: ORDER CHANGES: 670, 1200, 2000 CM^-^1
Sampling: TRANSMISSION
Path length: 0.011 CM, 0.010 CM
Resolution: 2
Origin: DOW CHEMICAL COMPANY
1/CM	TRANSMITTANCE
400	0.8389
409	0.8409
418	0.832
427	0.81
436	0.7901
445	0.7789
454	0.7713
463	0.7656
472	0.7614
481	0.754
490	0.7451
499	0.7381
508	0.7311
517	0.7235
526	0.7153
535	0.7057
544	0.6946
553	0.6901
562	0.6998
571	0.7126
580	0.7059
589	0.6986
598	0.6935
607	0.701
616	0.7203
625	0.7344
634	0.7391
643	0.7353
652	0.7205
661	0.6764
670	0.654
679	0.6507
688	0.64
697	0.6927
706	0.7332
715	0.7355
724	0.6994
733	0.695
742	0.7575
751	0.7701
760	0.7993
769	0.8164
778	0.8095
787	0.7639
796	0.7927
805	0.8426
814	0.8503
823	0.8488
832	0.8466
841	0.8453
850	0.8292
859	0.7993
868	0.7892
877	0.7979
886	0.7725
895	0.6803
904	0.6633
913	0.1838
922	0.0915
931	0.3896
940	0.6293
949	0.7061
958	0.7002
967	0.6414
976	0.4521
985	0.1824
994	0.1412
1003	0.2583
1012	0.3226
1021	0.3452
1030	0.4072
1039	0.4813
1048	0.48
1057	0.517
1066	0.5389
1075	0.511
1084	0.494
1093	0.5538
1102	0.6294
1111	0.6232
1120	0.6357
1129	0.6433
1138	0.5694
1147	0.5811
1156	0.6871
1165	0.7792
1174	0.7845
1183	0.7731
1192	0.7319
1201	0.6654
1210	0.678
1219	0.6984
1228	0.6774
1237	0.6516
1246	0.646
1255	0.5973
1264	0.5596
1273	0.5683
1282	0.5855
1291	0.59
1300	0.5983
1309	0.5893
1318	0.5714
1327	0.5861
1336	0.602
1345	0.6183
1354	0.6275
1363	0.617
1372	0.5405
1381	0.5381
1390	0.5997
1399	0.6008
1408	0.5582
1417	0.4802
1426	0.4198
1435	0.5574
1444	0.5734
1453	0.4291
1462	0.4093
1471	0.5971
1480	0.7617
1489	0.7978
1498	0.8203
1507	0.8376
1516	0.8507
1525	0.863
1534	0.8765
1543	0.8894
1552	0.8984
1561	0.8955
1570	0.8893
1579	0.8814
1588	0.8732
1597	0.864
1606	0.853
1615	0.839
1624	0.8298
1633	0.7922
1642	0.6812
1651	0.7931
1660	0.8389
1669	0.8447
1678	0.8468
1687	0.8457
1696	0.8404
1705	0.8208
1714	0.8093
1723	0.8212
1732	0.8342
1741	0.8591
1750	0.8689
1759	0.8732
1768	0.8751
1777	0.8768
1786	0.8784
1795	0.8794
1804	0.8797
1813	0.8794
1822	0.8753
1831	0.8588
1840	0.8366
1849	0.8199
1858	0.826
1867	0.8516
1876	0.867
1885	0.8728
1894	0.8747
1903	0.8758
1912	0.8764
1921	0.8771
1930	0.8779
1939	0.8798
1948	0.8835
1957	0.8833
1966	0.8796
1975	0.8771
1984	0.8746
1993	0.8748
2002	0.881
2011	0.8859
2020	0.8864
2029	0.8868
2038	0.8863
2047	0.8858
2056	0.8855
2065	0.8857
2074	0.8861
2083	0.8864
2092	0.8868
2101	0.8871
2110	0.8872
2119	0.8866
2128	0.8864
2137	0.8864
2146	0.8864
2155	0.8862
2164	0.8864
2173	0.8865
2182	0.8866
2191	0.8867
2200	0.8863
2209	0.8859
2218	0.8855
2227	0.885
2236	0.8843
2245	0.8836
2254	0.883
2263	0.8824
2272	0.8819
2281	0.8813
2290	0.8809
2299	0.8804
2308	0.8803
2317	0.8812
2326	0.8833
2335	0.8848
2344	0.8838
2353	0.8828
2362	0.8816
2371	0.8794
2380	0.8765
2389	0.8727
2398	0.8697
2407	0.8687
2416	0.8684
2425	0.8681
2434	0.8678
2443	0.8679
2452	0.8681
2461	0.8684
2470	0.8683
2479	0.8676
2488	0.8665
2497	0.8651
2506	0.8631
2515	0.86
2524	0.8566
2533	0.854
2542	0.8531
2551	0.8517
2560	0.8502
2569	0.8484
2578	0.8466
2587	0.8446
2596	0.8425
2605	0.8398
2614	0.8366
2623	0.8334
2632	0.8303
2641	0.8273
2650	0.8232
2659	0.8186
2668	0.8141
2677	0.8142
2686	0.816
2695	0.8172
2704	0.8163
2713	0.8113
2722	0.8041
2731	0.7988
2740	0.8023
2749	0.8063
2758	0.8072
2767	0.8016
2776	0.7897
2785	0.7747
2794	0.7588
2803	0.7406
2812	0.7168
2821	0.6808
2830	0.6133
2839	0.4755
2848	0.3465
2857	0.1114
2866	0.1584
2875	0.1473
2884	0.3424
2893	0.3339
2902	0.2571
2911	0.1761
2920	0.1002
2929	0.0481
2938	0.0438
2947	0.0983
2956	0.0592
2965	0.0552
2974	0.3097
2983	0.4381
2992	0.5771
3001	0.5967
3010	0.5997
3019	0.651
3028	0.7247
3037	0.7588
3046	0.7637
3055	0.7588
3064	0.7001
3073	0.6152
3082	0.6044
3091	0.6493
3100	0.7511
3109	0.7831
3118	0.7919
3127	0.7925
3136	0.7903
3145	0.7844
3154	0.7776
3163	0.7693
3172	0.7598
3181	0.7482
3190	0.7356
3199	0.7222
3208	0.7044
3217	0.6781
3226	0.6555
3235	0.6336
3244	0.6137
3253	0.5963
3262	0.5684
3271	0.5355
3280	0.5055
3289	0.4735
3298	0.4537
3307	0.4333
3316	0.4113
3325	0.3947
3334	0.381
3343	0.3716
3352	0.3631
3361	0.361
3370	0.3615
3379	0.3637
3388	0.3664
3397	0.3697
3406	0.3742
3415	0.38
3424	0.3867
3433	0.3934
3442	0.4011
3451	0.4096
3460	0.4203
3469	0.4332
3478	0.4483
3487	0.4656
3496	0.4887
3505	0.5178
3514	0.5518
3523	0.5859
3532	0.62
3541	0.6548
3550	0.691
3559	0.721
3568	0.7385
3577	0.745
3586	0.7445
3595	0.7269
3604	0.6402
3613	0.553
3622	0.5021
3631	0.7288
3640	0.7912
3649	0.8198
3658	0.8353
3667	0.8382
3676	0.8329
3685	0.8402
3694	0.8569
3703	0.866
3712	0.8717
3721	0.8763
3730	0.88
3739	0.8829
3748	0.8855
3757	0.8876
3766	0.8893
3775	0.8907
3784	0.892
3793	0.8928
3802	0.8936
