Infrared Spectrum: 2,3-DIHYDROINDENE
Formula: C9 H10
CAS: 496-11-7
State: LIQUID (NEAT)
Class: COBLENTZ III
Instrument: PERKIN-ELMER 521 (GRATING)
Sampling: TRANSMISSION
Path length: 0.0025 CM
Resolution: 4
Origin: STANDARD OIL OF OHIO
1/CM	TRANSMITTANCE
600.357	0.615
609.657	0.619
618.958	0.6278
628.258	0.6471
637.558	0.6682
646.858	0.6885
656.159	0.7091
665.459	0.7296
674.759	0.7506
684.059	0.7636
693.36	0.762
702.66	0.753
711.96	0.7278
721.26	0.6307
730.561	0.2276
739.861	0.0267
749.161	0.0188
758.461	0.1035
767.762	0.6292
777.062	0.7424
786.362	0.8
795.662	0.8298
804.963	0.8459
814.263	0.849
823.563	0.8296
832.863	0.7832
842.164	0.8006
851.464	0.7628
860.764	0.7731
870.064	0.8532
879.365	0.858
888.665	0.8472
897.965	0.8349
907.266	0.7629
916.566	0.8427
925.866	0.7901
935.166	0.7812
944.467	0.8532
953.767	0.862
963.067	0.8569
972.367	0.849
981.668	0.842
990.968	0.8226
1000.27	0.8217
1009.57	0.8374
1018.87	0.7315
1028.17	0.7207
1037.47	0.7079
1046.77	0.8445
1056.07	0.858
1065.37	0.848
1074.67	0.7845
1083.97	0.6546
1093.27	0.8591
1102.57	0.861
1111.87	0.8402
1121.17	0.8201
1130.47	0.813
1139.77	0.8044
1149.07	0.7485
1158.37	0.7314
1167.67	0.8259
1176.97	0.8448
1186.27	0.8424
1195.57	0.8292
1204.87	0.8002
1214.17	0.6913
1223.47	0.7554
1232.77	0.8244
1242.07	0.8143
1251.38	0.7792
1260.68	0.6242
1269.98	0.6587
1279.28	0.7944
1288.58	0.8007
1297.88	0.7683
1307.18	0.6079
1316.48	0.6859
1325.78	0.8385
1335.08	0.854
1344.38	0.85
1353.68	0.853
1362.98	0.855
1372.28	0.8461
1381.58	0.8143
1390.88	0.8236
1400.18	0.8185
1409.48	0.7979
1418.78	0.732
1428.08	0.6143
1437.38	0.4169
1446.68	0.4618
1455.98	0.3936
1465.28	0.2478
1474.58	0.3493
1483.88	0.2371
1493.18	0.6109
1502.48	0.8152
1511.78	0.8794
1521.08	0.9002
1530.38	0.9041
1539.68	0.907
1548.98	0.907
1558.28	0.9021
1567.58	0.8982
1576.88	0.867
1586.18	0.7943
1595.48	0.793
1604.78	0.7269
1614.09	0.8246
1623.39	0.874
1632.69	0.877
1641.99	0.882
1651.29	0.8904
1660.59	0.8907
1669.89	0.8757
1679.19	0.875
1688.49	0.8822
1697.79	0.8963
1707.09	0.8977
1716.39	0.8859
1725.69	0.883
1734.99	0.895
1744.29	0.9039
1753.59	0.9043
1762.89	0.8992
1772.19	0.8873
1781.49	0.8634
1790.79	0.8286
1800.09	0.8732
1809.39	0.8915
1818.69	0.8805
1827.99	0.8466
1837.29	0.8608
1846.59	0.898
1855.89	0.8839
1865.19	0.8595
1874.49	0.8844
1883.79	0.8856
1893.09	0.8272
1902.39	0.7548
1911.69	0.8102
1920.99	0.8894
1930.29	0.8963
1939.59	0.857
1948.89	0.8412
1958.19	0.8883
1967.49	0.9134
1976.8	0.921
1986.1	0.924
1995.4	0.9219
2004.7	0.9165
2014	0.9195
2023.3	0.924
2032.6	0.924
2041.9	0.923
2051.2	0.921
2060.5	0.917
2069.8	0.9145
2079.1	0.9145
2088.4	0.9195
2097.7	0.923
2107	0.924
2116.3	0.925
2125.6	0.9219
2134.9	0.921
2144.2	0.921
2153.5	0.92
2162.8	0.921
2172.1	0.92
2181.4	0.921
2190.7	0.923
2200	0.9195
2209.3	0.916
2218.6	0.914
2227.9	0.9181
2237.2	0.919
2246.5	0.923
2255.8	0.925
2265.1	0.9205
2274.4	0.914
2283.7	0.9044
2293	0.8955
2302.3	0.89
2311.6	0.886
2320.9	0.8995
2330.21	0.907
2339.51	0.9181
2348.81	0.9235
2358.11	0.924
2367.41	0.921
2376.71	0.921
2386.01	0.924
2395.31	0.924
2404.61	0.923
2413.91	0.9165
2423.21	0.9105
2432.51	0.9049
2441.81	0.904
2451.11	0.916
2460.41	0.916
2469.71	0.915
2479.01	0.9165
2488.31	0.924
2497.61	0.923
2506.91	0.919
2516.21	0.917
2525.51	0.915
2534.81	0.914
2544.11	0.9155
2553.41	0.916
2562.71	0.9115
2572.01	0.904
2581.31	0.8969
2590.61	0.892
2599.91	0.896
2609.21	0.8955
2618.51	0.8971
2627.81	0.9071
2637.11	0.912
2646.41	0.912
2655.71	0.912
2665.01	0.911
2674.31	0.911
2683.61	0.908
2692.92	0.907
2702.22	0.9065
2711.52	0.903
2720.82	0.8969
2730.12	0.8889
2739.42	0.8785
2748.72	0.876
2758.02	0.8735
2767.32	0.867
2776.62	0.8639
2785.92	0.8585
2795.22	0.8554
2804.52	0.8385
2813.82	0.8149
2823.12	0.7798
2832.42	0.6603
2841.72	0.4682
2851.02	0.158
2860.32	0.1132
2869.62	0.3109
2878.92	0.2191
2888.22	0.2904
2897.52	0.185
2906.82	0.166
2916.12	0.165
2925.42	0.1332
2934.72	0.0842
2944.02	0.0413
2953.32	0.0281
2962.62	0.0305
2971.92	0.0595
2981.22	0.238
2990.52	0.4582
2999.82	0.5708
3009.12	0.5398
3018.42	0.4395
3027.72	0.2066
3037.02	0.2521
3046.32	0.3788
3055.63	0.3267
3064.93	0.502
3074.23	0.3472
3083.53	0.3541
3092.83	0.654
3102.13	0.6219
3111.43	0.8068
3120.73	0.8542
3130.03	0.8721
3139.33	0.878
3148.63	0.882
3157.93	0.88
3167.23	0.875
3176.53	0.8852
3185.83	0.902
3195.13	0.904
3204.43	0.906
3213.73	0.9075
3223.03	0.91
3232.33	0.911
3241.63	0.911
3250.93	0.912
3260.23	0.911
3269.53	0.9105
3278.83	0.91
3288.13	0.91
3297.43	0.91
3306.73	0.911
3316.03	0.91
3325.33	0.91
3334.63	0.9075
3343.93	0.908
3353.23	0.908
3362.53	0.907
3371.83	0.9065
3381.13	0.906
3390.43	0.906
3399.73	0.906
3409.04	0.906
3418.34	0.904
3427.64	0.903
3436.94	0.899
3446.24	0.8969
3455.54	0.895
3464.84	0.892
3474.14	0.8889
3483.44	0.887
3492.74	0.887
3502.04	0.8915
3511.34	0.894
3520.64	0.894
3529.94	0.894
3539.24	0.8955
3548.54	0.898
3557.84	0.895
3567.14	0.895
3576.44	0.8945
3585.74	0.8945
3595.04	0.896
3604.34	0.899
3613.64	0.9
3622.94	0.899
3632.24	0.899
3641.54	0.902
3650.84	0.902
3660.14	0.902
3669.44	0.8995
3678.74	0.898
3688.04	0.8971
3697.34	0.898
3706.64	0.898
3715.94	0.896
3725.24	0.894
3734.54	0.89
3743.84	0.888
3753.14	0.887
3762.44	0.886
3771.75	0.887
3781.05	0.888
3790.35	0.887
3799.65	0.886
3808.95	0.886
3818.25	0.886
3827.55	0.8825
3836.85	0.8825
3846.15	0.8809
3855.45	0.88
3864.75	0.879
3874.05	0.879
3883.35	0.88
3892.65	0.879
3901.95	0.879
3911.25	0.884
3920.55	0.886
3929.85	0.89
3939.15	0.8849
3948.45	0.884
