Infrared Spectrum: P-CRESOL, 2-(1,1,3,3-TETRAMETHYLBUTYL)
Formula: C15 H24 O
CAS: 4979-46-8
State: SOLID (PELLET)
Class: COBLENTZ
Instrument: Not specified, most likely a prism, grating, or hybrid spectrometer.
Sampling: TRANSMISSION
Resolution: 4
Origin: TENNESSEE EASTMAN COMPANY, RESEARCH LABORATORIES
MICROMETERS	TRANSMITTANCE
2.027	0.59
2.06692	0.572
2.10685	0.555
2.14677	0.532
2.18669	0.519
2.22661	0.494
2.26654	0.462
2.30646	0.439
2.34638	0.435
2.38631	0.432
2.42623	0.422
2.46615	0.419
2.50607	0.419
2.546	0.415
2.58592	0.414
2.62584	0.415
2.66577	0.415
2.70569	0.414
2.74561	0.39
2.78553	0.315
2.82546	0.133
2.86538	0.105
2.9053	0.196
2.94523	0.242
2.98515	0.275
3.02507	0.318
3.06499	0.347
3.10492	0.363
3.14484	0.378
3.18476	0.412
3.22469	0.42
3.26461	0.42
3.30453	0.33
3.34445	0.141
3.38438	0.051
3.4243	0.061
3.46422	0.086
3.50415	0.317
3.54407	0.419
3.58399	0.455
3.62391	0.475
3.66384	0.479
3.70376	0.484
3.74368	0.494
3.78361	0.502
3.82353	0.507
3.86345	0.517
3.90337	0.53
3.9433	0.539
3.98322	0.544
4.02314	0.544
4.06307	0.549
4.10299	0.557
4.14291	0.56
4.18283	0.564
4.22276	0.564
4.26268	0.564
4.3026	0.567
4.34253	0.582
4.38245	0.595
4.42237	0.607
4.46229	0.616
4.50222	0.624
4.54214	0.627
4.58206	0.634
4.62199	0.639
4.66191	0.642
4.70183	0.647
4.74175	0.649
4.78168	0.652
4.8216	0.657
4.86152	0.664
4.90145	0.666
4.94137	0.659
4.98129	0.666
5.02121	0.677
5.06114	0.681
5.10106	0.682
5.14098	0.687
5.18091	0.691
5.22083	0.696
5.26075	0.699
5.30067	0.699
5.3406	0.702
5.38052	0.694
5.42044	0.696
5.46037	0.707
5.50029	0.711
5.54021	0.701
5.58013	0.712
5.62006	0.719
5.65998	0.717
5.6999	0.702
5.73983	0.696
5.77975	0.692
5.81967	0.699
5.85959	0.704
5.89952	0.702
5.93944	0.707
5.97936	0.706
6.01929	0.696
6.05921	0.681
6.09913	0.669
6.13905	0.664
6.17898	0.639
6.2189	0.544
6.25882	0.579
6.29875	0.679
6.33867	0.704
6.37859	0.719
6.41851	0.721
6.45844	0.712
6.49836	0.704
6.53828	0.656
6.57821	0.348
6.61813	0.153
6.65805	0.275
6.69797	0.228
6.7379	0.28
6.77782	0.213
6.81774	0.267
6.85767	0.292
6.89759	0.367
6.93751	0.44
6.97743	0.49
7.01736	0.482
7.05728	0.35
7.0972	0.228
7.13713	0.373
7.17705	0.288
7.21697	0.424
7.25689	0.572
7.29682	0.59
7.33674	0.18
7.37666	0.482
7.41659	0.611
7.45651	0.564
7.49643	0.621
7.53635	0.352
7.57628	0.151
7.6162	0.524
7.65612	0.702
7.69605	0.714
7.73597	0.612
7.77589	0.512
7.81581	0.604
7.85574	0.651
7.89566	0.525
7.93558	0.15
7.97551	0.073
8.01543	0.34
8.05535	0.487
8.09527	0.54
8.1352	0.56
8.17512	0.555
8.21504	0.414
8.25497	0.35
8.29489	0.437
8.33481	0.482
8.37473	0.44
8.41466	0.305
8.45458	0.136
8.4945	0.063
8.53443	0.101
8.57435	0.302
8.61427	0.4
8.65419	0.494
8.69412	0.607
8.73404	0.634
8.77396	0.55
8.81389	0.217
8.85381	0.195
8.89373	0.238
8.93365	0.353
8.97358	0.57
9.0135	0.666
9.05342	0.722
9.09335	0.741
9.13327	0.744
9.17319	0.741
9.21311	0.59
9.25304	0.218
9.29296	0.484
9.33288	0.694
9.37281	0.759
9.41273	0.789
9.45265	0.801
9.49257	0.803
9.5325	0.803
9.57242	0.792
9.61234	0.781
9.65227	0.781
9.69219	0.782
9.73211	0.786
9.77203	0.801
9.81196	0.808
9.85188	0.806
9.8918	0.784
9.93173	0.799
9.97165	0.814
10.0116	0.816
10.0515	0.819
10.0914	0.833
10.1313	0.839
10.1713	0.833
10.2112	0.764
10.2511	0.756
10.291	0.829
10.331	0.859
10.3709	0.876
10.4108	0.888
10.4507	0.893
10.4906	0.894
10.5306	0.894
10.5705	0.876
10.6104	0.821
10.6503	0.797
10.6903	0.829
10.7302	0.821
10.7701	0.799
10.81	0.841
10.85	0.839
10.8899	0.849
10.9298	0.898
10.9697	0.914
11.0096	0.926
11.0496	0.928
11.0895	0.926
11.1294	0.863
11.1693	0.746
11.2093	0.828
11.2492	0.868
11.2891	0.858
11.329	0.679
11.3689	0.577
11.4089	0.784
11.4488	0.856
11.4887	0.854
11.5286	0.831
11.5686	0.898
11.6085	0.931
11.6484	0.936
11.6883	0.939
11.7283	0.944
11.7682	0.944
11.8081	0.944
11.848	0.943
11.8879	0.941
11.9279	0.938
11.9678	0.924
12.0077	0.919
12.0476	0.889
12.0876	0.813
12.1275	0.749
12.1674	0.732
12.2073	0.671
12.2473	0.397
12.2872	0.191
12.3271	0.186
12.367	0.101
12.4069	0.285
12.4469	0.592
12.4868	0.754
12.5267	0.814
12.5666	0.851
12.6066	0.864
12.6465	0.874
12.6864	0.879
12.7263	0.883
12.7662	0.884
12.8062	0.879
12.8461	0.839
12.886	0.747
12.9259	0.53
12.9659	0.444
13.0058	0.542
13.0457	0.674
13.0856	0.752
13.1256	0.813
13.1655	0.843
13.2054	0.863
13.2453	0.874
13.2852	0.883
13.3252	0.891
13.3651	0.891
13.405	0.878
13.4449	0.864
13.4849	0.884
13.5248	0.906
13.5647	0.921
13.6046	0.929
13.6446	0.936
13.6845	0.941
13.7244	0.944
13.7643	0.951
13.8042	0.954
13.8442	0.958
13.8841	0.963
13.924	0.968
13.9639	0.971
14.0039	0.974
14.0438	0.981
14.0837	0.984
14.1236	0.988
14.1635	0.991
14.2035	0.993
14.2434	0.991
14.2833	0.986
14.3232	0.983
14.3632	0.983
14.4031	0.978
14.443	0.953
14.4829	0.934
14.5229	0.933
14.5628	0.943
14.6027	0.963
14.6426	0.976
14.6825	0.986
14.7225	0.991
14.7624	0.991
14.8023	0.991
14.8422	0.991
14.8822	0.991
14.9221	0.989
14.962	0.984
15.0019	0.974
15.0419	0.964
15.0818	0.966
15.1217	0.968
15.1616	0.969
15.2015	0.969
15.2415	0.966
15.2814	0.963
15.3213	0.958
15.3612	0.951
15.4012	0.934
15.4411	0.926
15.481	0.918
15.5209	0.913
15.5608	0.906
15.6008	0.901
15.6407	0.888
15.6806	0.874
15.7205	0.863
15.7605	0.853
15.8004	0.838
15.8403	0.831
15.8802	0.816
15.9202	0.803
15.9601	0.787
16	0.782
