Infrared Spectrum: NORBORNYLENE
Formula: C7 H10
CAS: 498-66-8
State: LIQUID (NEAT)
Class: COBLENTZ III
Instrument: CARY 90 (GRATING)
Instrument parameters: GRATING CHANGES AT 3000, 2000, 1200 CM^-^1
Sampling: TRANSMISSION
Path length: FILM
Resolution: 4
Origin: WESTERN REGIONAL RES. USDA
1/CM	TRANSMITTANCE
454.299	0.827
463.349	0.742
472.399	0.809
481.448	0.655
490.498	0.801
499.548	0.841
508.598	0.857
517.648	0.859
526.697	0.86
535.747	0.86
544.797	0.863
553.847	0.748
562.897	0.863
571.946	0.878
580.996	0.882
590.046	0.887
599.096	0.886
608.146	0.885
617.195	0.885
626.245	0.882
635.295	0.882
644.345	0.878
653.395	0.873
662.444	0.852
671.494	0.798
680.544	0.81
689.594	0.735
698.644	0.156
707.693	0.038
716.743	0.343
725.793	0.59
734.843	0.658
743.892	0.733
752.942	0.793
761.992	0.732
771.042	0.494
780.092	0.797
789.141	0.794
798.191	0.666
807.241	0.789
816.291	0.786
825.341	0.764
834.39	0.4811
843.44	0.733
852.49	0.447
861.54	0.731
870.59	0.231
879.639	0.586
888.689	0.762
897.739	0.709
906.789	0.45
915.839	0.751
924.888	0.786
933.938	0.768
942.988	0.768
952.038	0.784
961.088	0.775
970.137	0.788
979.187	0.717
988.237	0.788
997.287	0.789
1006.34	0.82
1015.39	0.782
1024.44	0.703
1033.49	0.75
1042.54	0.798
1051.59	0.816
1060.64	0.824
1069.69	0.807
1078.73	0.792
1087.78	0.702
1096.83	0.675
1105.88	0.766
1114.93	0.724
1123.98	0.3661
1133.03	0.6411
1142.08	0.783
1151.13	0.804
1160.18	0.783
1169.23	0.78
1178.28	0.793
1187.33	0.798
1196.38	0.827
1205.43	0.806
1214.48	0.813
1223.53	0.788
1232.58	0.839
1241.63	0.821
1250.68	0.562
1259.73	0.754
1268.78	0.5788
1277.83	0.649
1286.88	0.658
1295.93	0.713
1304.98	0.79
1314.03	0.786
1323.08	0.776
1332.13	0.089
1341.18	0.4911
1350.23	0.759
1359.28	0.819
1368.33	0.827
1377.38	0.795
1386.43	0.829
1395.48	0.835
1404.53	0.841
1413.58	0.819
1422.63	0.817
1431.68	0.81
1440.73	0.6728
1449.78	0.5511
1458.83	0.765
1467.88	0.744
1476.93	0.801
1485.98	0.854
1495.03	0.866
1504.08	0.874
1513.13	0.889
1522.18	0.899
1531.22	0.901
1540.27	0.901
1549.32	0.896
1558.37	0.887
1567.42	0.7499
1576.47	0.793
1585.52	0.862
1594.57	0.868
1603.62	0.838
1612.67	0.742
1621.72	0.83
1630.77	0.832
1639.82	0.841
1648.87	0.882
1657.92	0.899
1666.97	0.896
1676.02	0.892
1685.07	0.891
1694.12	0.877
1703.17	0.862
1712.22	0.846
1721.27	0.834
1730.32	0.776
1739.37	0.811
1748.42	0.845
1757.47	0.853
1766.52	0.882
1775.57	0.889
1784.62	0.895
1793.67	0.897
1802.72	0.885
1811.77	0.881
1820.82	0.894
1829.87	0.895
1838.92	0.896
1847.97	0.897
1857.02	0.899
1866.07	0.898
1875.12	0.897
1884.17	0.899
1893.22	0.903
1902.27	0.907
1911.32	0.904
1920.37	0.9
1929.42	0.896
1938.47	0.896
1947.52	0.9
1956.57	0.904
1965.62	0.905
1974.66	0.903
1983.71	0.9
1992.76	0.897
2001.81	0.89
2010.86	0.882
2019.91	0.882
2028.96	0.883
2038.01	0.8769
2047.06	0.8648
2056.11	0.851
2065.16	0.8552
2074.21	0.8703
2083.26	0.8768
2092.31	0.8689
2101.36	0.8692
2110.41	0.8848
2119.46	0.8799
2128.51	0.878
2137.56	0.8821
2146.61	0.8859
2155.66	0.8789
2164.71	0.8729
2173.76	0.871
2182.81	0.87
2191.86	0.87
2200.91	0.87
2209.96	0.8722
2219.01	0.8754
2228.06	0.878
2237.11	0.8792
2246.16	0.8802
2255.21	0.883
2264.26	0.883
2273.31	0.8818
2282.36	0.879
2291.41	0.8782
2300.46	0.883
2309.51	0.8795
2318.56	0.874
2327.61	0.874
2336.66	0.8756
2345.71	0.879
2354.76	0.8813
2363.81	0.883
2372.86	0.885
2381.91	0.886
2390.96	0.8863
2400.01	0.887
2409.06	0.887
2418.1	0.8874
2427.15	0.8894
2436.2	0.891
2445.25	0.891
2454.3	0.889
2463.35	0.8884
2472.4	0.89
2481.45	0.889
2490.5	0.888
2499.55	0.887
2508.6	0.8894
2517.65	0.892
2526.7	0.888
2535.75	0.8826
2544.8	0.8785
2553.85	0.8844
2562.9	0.8885
2571.95	0.892
2581	0.888
2590.05	0.882
2599.1	0.889
2608.15	0.8865
2617.2	0.887
2626.25	0.889
2635.3	0.892
2644.35	0.892
2653.4	0.894
2662.45	0.894
2671.5	0.892
2680.55	0.891
2689.6	0.89
2698.65	0.8884
2707.7	0.887
2716.75	0.885
2725.8	0.8784
2734.85	0.874
2743.9	0.8746
2752.95	0.8816
2762	0.883
2771.05	0.8824
2780.1	0.881
2789.15	0.8773
2798.2	0.8727
2807.25	0.8617
2816.3	0.844
2825.35	0.8176
2834.4	0.7551
2843.45	0.6021
2852.5	0.4016
2861.54	0.1494
2870.59	0.0432
2879.64	0.3039
2888.69	0.4828
2897.74	0.2614
2906.79	0.2831
2915.84	0.1005
2924.89	0.1159
2933.94	0.0672
2942.99	0.0274
2952.04	0.023
2961.09	0.0182
2970.14	0.0158
2979.19	0.0243
2988.24	0.1655
2997.29	0.3987
3006.34	0.5569
3015.39	0.6139
3024.44	0.623
3033.49	0.6287
3042.54	0.5719
3051.59	0.3453
3060.64	0.294
3069.69	0.5996
3078.74	0.7671
3087.79	0.8094
3096.84	0.8346
3105.89	0.847
3114.94	0.8472
3123.99	0.7929
3133.04	0.7738
3142.09	0.819
3151.14	0.8537
3160.19	0.8679
3169.24	0.871
3178.29	0.868
3187.34	0.861
3196.39	0.855
3205.44	0.855
3214.49	0.864
3223.54	0.87
3232.59	0.874
3241.64	0.877
3250.69	0.878
3259.74	0.878
3268.79	0.878
3277.84	0.878
3286.89	0.877
3295.94	0.874
3304.98	0.8729
3314.03	0.869
3323.08	0.8659
3332.13	0.8629
3341.18	0.8631
3350.23	0.8681
3359.28	0.87
3368.33	0.8689
3377.38	0.865
3386.43	0.862
3395.48	0.8587
3404.53	0.8538
3413.58	0.8478
3422.63	0.8428
3431.68	0.8382
3440.73	0.8462
3449.78	0.853
3458.83	0.8562
3467.88	0.86
3476.93	0.862
3485.98	0.863
3495.03	0.863
3504.08	0.863
3513.13	0.863
3522.18	0.864
3531.23	0.866
3540.28	0.8683
3549.33	0.872
3558.38	0.874
3567.43	0.8783
3576.48	0.8813
3585.53	0.885
3594.58	0.886
3603.63	0.887
3612.68	0.889
3621.73	0.889
3630.78	0.888
3639.83	0.887
3648.88	0.8856
3657.93	0.8826
3666.98	0.883
3676.03	0.886
3685.08	0.886
3694.13	0.8816
3703.18	0.8746
3712.23	0.8663
3721.28	0.8581
3730.33	0.857
3739.38	0.862
3748.43	0.8669
3757.47	0.871
3766.52	0.8735
3775.57	0.875
3784.62	0.873
3793.67	0.8695
3802.72	0.8725
3811.77	0.8745
3820.82	0.871
3829.87	0.866
3838.92	0.8635
3847.97	0.8635
3857.02	0.865
3866.07	0.8686
3875.12	0.871
3884.17	0.872
3893.22	0.874
3902.27	0.873
3911.32	0.8694
3920.37	0.865
3929.42	0.863
3938.47	0.866
3947.52	0.869
3956.57	0.868
3965.62	0.865
