Infrared Spectrum: 2,6-DIMETHYL 7-OCTENE
Formula: C10 H20
CAS: 4984-01-4
Class: COBLENTZ
Instrument: Not specified, most likely a prism, grating, or hybrid spectrometer.
Sampling: TRANSMISSION
Resolution: 4
Origin: INTERNATIONAL FLAVORS & FRAGRANCES, INC.
MICROMETERS	TRANSMITTANCE
1.995	0.924
2.02762	0.928
2.06023	0.929
2.09285	0.927
2.12547	0.924
2.15808	0.922
2.1907	0.921
2.22332	0.919
2.25593	0.914
2.28855	0.893
2.32117	0.863
2.35378	0.854
2.3864	0.869
2.41902	0.871
2.45163	0.871
2.48425	0.875
2.51687	0.89
2.54948	0.901
2.5821	0.902
2.61472	0.902
2.64733	0.905
2.67995	0.905
2.71257	0.906
2.74518	0.907
2.7778	0.907
2.81041	0.908
2.84303	0.908
2.87565	0.908
2.90826	0.908
2.94088	0.907
2.9735	0.905
3.00611	0.901
3.03873	0.897
3.07135	0.89
3.10396	0.88
3.13658	0.868
3.1692	0.852
3.20181	0.854
3.23443	0.835
3.26705	0.572
3.29966	0.677
3.33228	0.715
3.3649	0.383
3.39751	0.157
3.43013	0.137
3.46275	0.144
3.49536	0.158
3.52798	0.158
3.5606	0.6
3.59321	0.724
3.62583	0.786
3.65845	0.818
3.69106	0.815
3.72368	0.819
3.7563	0.847
3.78891	0.855
3.82153	0.858
3.85415	0.858
3.88676	0.861
3.91938	0.871
3.952	0.887
3.98461	0.894
4.01723	0.902
4.04985	0.906
4.08246	0.908
4.11508	0.91
4.1477	0.91
4.18031	0.909
4.21293	0.912
4.24555	0.909
4.27816	0.908
4.31078	0.907
4.34339	0.899
4.37601	0.9
4.40863	0.912
4.44124	0.919
4.47386	0.922
4.50648	0.924
4.53909	0.926
4.57171	0.926
4.60433	0.928
4.63694	0.928
4.66956	0.93
4.70218	0.931
4.73479	0.931
4.76741	0.932
4.80003	0.934
4.83264	0.935
4.86526	0.932
4.89788	0.932
4.93049	0.929
4.96311	0.93
4.99573	0.932
5.02834	0.928
5.06096	0.926
5.09358	0.93
5.12619	0.934
5.15881	0.935
5.19143	0.935
5.22404	0.934
5.25666	0.935
5.28928	0.932
5.32189	0.931
5.35451	0.934
5.38713	0.932
5.41974	0.92
5.45236	0.842
5.48498	0.801
5.51759	0.87
5.55021	0.912
5.58283	0.926
5.61544	0.922
5.64806	0.922
5.68068	0.914
5.71329	0.897
5.74591	0.89
5.77853	0.895
5.81114	0.899
5.84376	0.899
5.87637	0.897
5.90899	0.895
5.94161	0.89
5.97422	0.883
6.00684	0.867
6.03946	0.843
6.07207	0.56
6.10469	0.537
6.13731	0.756
6.16992	0.838
6.20254	0.869
6.23516	0.885
6.26777	0.887
6.30039	0.879
6.33301	0.887
6.36562	0.894
6.39824	0.898
6.43086	0.905
6.46347	0.909
6.49609	0.907
6.52871	0.904
6.56132	0.897
6.59394	0.887
6.62656	0.879
6.65917	0.87
6.69179	0.85
6.72441	0.81
6.75702	0.743
6.78964	0.376
6.82226	0.219
6.85487	0.246
6.88749	0.302
6.92011	0.493
6.95272	0.574
6.98534	0.677
7.01796	0.588
7.05057	0.51
7.08319	0.608
7.11581	0.716
7.14842	0.763
7.18104	0.728
7.21366	0.378
7.24627	0.489
7.27889	0.408
7.31151	0.35
7.34412	0.521
7.37674	0.689
7.40935	0.747
7.44197	0.763
7.47459	0.727
7.5072	0.745
7.53982	0.771
7.57244	0.754
7.60505	0.749
7.63767	0.773
7.67029	0.795
7.7029	0.809
7.73552	0.805
7.76814	0.787
7.80075	0.798
7.83337	0.823
7.86599	0.833
7.8986	0.835
7.93122	0.845
7.96384	0.861
7.99645	0.873
8.02907	0.875
8.06169	0.865
8.0943	0.848
8.12692	0.843
8.15954	0.848
8.19215	0.869
8.22477	0.877
8.25739	0.863
8.29	0.845
8.32262	0.833
8.35524	0.847
8.38785	0.87
8.42047	0.879
8.45309	0.875
8.4857	0.848
8.51832	0.783
8.55094	0.699
8.58355	0.684
8.61617	0.761
8.64879	0.806
8.6814	0.827
8.71402	0.816
8.74664	0.801
8.77925	0.801
8.81187	0.808
8.84448	0.828
8.8771	0.833
8.90972	0.826
8.94233	0.806
8.97495	0.802
9.00757	0.809
9.04018	0.846
9.0728	0.86
9.10542	0.875
9.13803	0.878
9.17065	0.878
9.20327	0.873
9.23588	0.868
9.2685	0.861
9.30112	0.86
9.33373	0.858
9.36635	0.86
9.39897	0.856
9.43158	0.853
9.4642	0.85
9.49682	0.842
9.52943	0.828
9.56205	0.815
9.59467	0.806
9.62728	0.809
9.6599	0.818
9.69252	0.828
9.72513	0.832
9.75775	0.83
9.79037	0.826
9.82298	0.818
9.8556	0.798
9.88822	0.788
9.92083	0.764
9.95345	0.721
9.98607	0.65
10.0187	0.53
10.0513	0.381
10.0839	0.258
10.1165	0.426
10.1491	0.541
10.1818	0.655
10.2144	0.712
10.247	0.741
10.2796	0.761
10.3122	0.774
10.3448	0.783
10.3775	0.791
10.4101	0.801
10.4427	0.813
10.4753	0.826
10.5079	0.832
10.5405	0.831
10.5732	0.83
10.6058	0.827
10.6384	0.82
10.671	0.804
10.7036	0.793
10.7362	0.771
10.7689	0.749
10.8015	0.724
10.8341	0.677
10.8667	0.617
10.8993	0.504
10.9319	0.398
10.9646	0.273
10.9972	0.165
11.0298	0.139
11.0624	0.159
11.095	0.323
11.1276	0.458
11.1603	0.58
11.1929	0.684
11.2255	0.747
11.2581	0.784
11.2907	0.811
11.3233	0.84
11.356	0.86
11.3886	0.875
11.4212	0.887
11.4538	0.897
11.4864	0.904
11.519	0.909
11.5517	0.913
11.5843	0.915
11.6169	0.917
11.6495	0.917
11.6821	0.916
11.7147	0.914
11.7474	0.91
11.78	0.909
11.8126	0.907
11.8452	0.908
11.8778	0.91
11.9104	0.913
11.9431	0.914
11.9757	0.916
12.0083	0.919
12.0409	0.919
12.0735	0.919
12.1061	0.919
12.1388	0.92
12.1714	0.921
12.204	0.923
12.2366	0.924
12.2692	0.923
12.3018	0.924
12.3345	0.926
12.3671	0.927
12.3997	0.927
12.4323	0.927
12.4649	0.924
12.4975	0.923
12.5302	0.92
12.5628	0.915
12.5954	0.917
12.628	0.92
12.6606	0.922
12.6932	0.927
12.7259	0.935
12.7585	0.942
12.7911	0.952
12.8237	0.956
12.8563	0.96
12.8889	0.963
12.9216	0.965
12.9542	0.966
12.9868	0.972
13.0194	0.972
13.052	0.975
13.0846	0.974
13.1173	0.975
13.1499	0.978
13.1825	0.98
13.2151	0.981
13.2477	0.982
13.2803	0.982
13.313	0.982
13.3456	0.98
13.3782	0.975
13.4108	0.968
13.4434	0.961
13.476	0.956
13.5087	0.942
13.5413	0.921
13.5739	0.879
13.6065	0.823
13.6391	0.78
13.6717	0.771
13.7044	0.787
13.737	0.817
13.7696	0.846
13.8022	0.879
13.8348	0.913
13.8674	0.932
13.9001	0.949
13.9327	0.963
13.9653	0.976
13.9979	0.983
14.0305	0.991
14.0631	0.994
14.0958	0.996
14.1284	1
14.161	1.003
14.1936	1.009
14.2262	1.011
14.2588	1.012
14.2915	1.011
14.3241	1.009
14.3567	1.006
14.3893	1.004
14.4219	1.003
14.4545	0.991
14.4872	0.98
14.5198	0.969
14.5524	0.957
14.585	0.937
14.6176	0.908
14.6502	0.869
14.6829	0.808
14.7155	0.709
14.7481	0.653
14.7807	0.623
14.8133	0.618
14.8459	0.633
14.8786	0.68
14.9112	0.736
14.9438	0.783
14.9764	0.838
15.009	0.887
