Infrared Spectrum: RHODANINE, 5-BENZYLIDENE-3-(BENZYLIDENEAMINO)-
Formula: C17 H12 N2 O S2
CAS: 4992-30-7
State: SOLID (KBr PELLET)
Melting point: 169-170 C
Class: COBLENTZ
Instrument: Not specified, most likely a prism, grating, or hybrid spectrometer.
Sampling: TRANSMISSION
Resolution: 4
Origin: TENNESSEE EASTMAN COMPANY, RESEARCH LABORATORIES
MICROMETERS	TRANSMITTANCE
2.013	0.717
2.05257	0.73
2.09213	0.738
2.1317	0.743
2.17126	0.748
2.21083	0.758
2.2504	0.762
2.28996	0.765
2.32953	0.775
2.36909	0.777
2.40866	0.778
2.44823	0.783
2.48779	0.792
2.52736	0.797
2.56692	0.8
2.60649	0.801
2.64606	0.801
2.68562	0.805
2.72519	0.788
2.76475	0.722
2.80432	0.648
2.84389	0.605
2.88345	0.56
2.92302	0.547
2.96258	0.607
3.00215	0.665
3.04172	0.71
3.08128	0.75
3.12085	0.77
3.16041	0.8
3.19998	0.813
3.23955	0.82
3.27911	0.798
3.31868	0.765
3.35824	0.825
3.39781	0.803
3.43738	0.815
3.47694	0.831
3.51651	0.84
3.55607	0.85
3.59564	0.853
3.63521	0.856
3.67477	0.856
3.71434	0.855
3.7539	0.851
3.79347	0.856
3.83304	0.863
3.8726	0.87
3.91217	0.871
3.95173	0.873
3.9913	0.88
4.03087	0.881
4.07043	0.881
4.11	0.883
4.14956	0.88
4.18913	0.885
4.2287	0.901
4.26826	0.873
4.30783	0.875
4.34739	0.886
4.38696	0.9
4.42653	0.898
4.46609	0.903
4.50566	0.901
4.54522	0.901
4.58479	0.903
4.62436	0.903
4.66392	0.903
4.70349	0.903
4.74305	0.903
4.78262	0.903
4.82219	0.905
4.86175	0.906
4.90132	0.906
4.94088	0.906
4.98045	0.908
5.02002	0.911
5.05958	0.9
5.09915	0.898
5.13871	0.91
5.17828	0.918
5.21785	0.915
5.25741	0.911
5.29698	0.911
5.33654	0.918
5.37611	0.913
5.41568	0.915
5.45524	0.908
5.49481	0.908
5.53437	0.905
5.57394	0.91
5.61351	0.91
5.65307	0.898
5.69264	0.886
5.7322	0.848
5.77177	0.722
5.81134	0.407
5.8509	0.49
5.89047	0.692
5.93003	0.813
5.9696	0.828
6.00916	0.833
6.04873	0.835
6.0883	0.797
6.12786	0.79
6.16743	0.762
6.20699	0.53
6.24656	0.447
6.28613	0.677
6.32569	0.818
6.36526	0.773
6.40482	0.855
6.44439	0.881
6.48396	0.871
6.52352	0.886
6.56309	0.881
6.60265	0.888
6.64222	0.846
6.68179	0.811
6.72135	0.888
6.76092	0.893
6.80048	0.886
6.84005	0.866
6.87962	0.688
6.91918	0.863
6.95875	0.885
6.99831	0.888
7.03788	0.883
7.07745	0.881
7.11701	0.871
7.15658	0.821
7.19614	0.717
7.23571	0.743
7.27528	0.82
7.31484	0.858
7.35441	0.86
7.39397	0.821
7.43354	0.797
7.47311	0.687
7.51267	0.42
7.55224	0.603
7.5918	0.688
7.63137	0.662
7.67094	0.715
7.7105	0.757
7.75007	0.722
7.78963	0.74
7.8292	0.743
7.86877	0.735
7.90833	0.728
7.9479	0.618
7.98746	0.427
8.02703	0.251
8.0666	0.111
8.10616	0.183
8.14573	0.374
8.18529	0.567
8.22486	0.494
8.26443	0.207
8.30399	0.129
8.34356	0.286
8.38312	0.46
8.42269	0.613
8.46226	0.72
8.50182	0.678
8.54139	0.775
8.58095	0.793
8.62052	0.811
8.66009	0.84
8.69965	0.848
8.73922	0.851
8.77878	0.853
8.81835	0.855
8.85792	0.853
8.89748	0.851
8.93705	0.81
8.97661	0.743
9.01618	0.735
9.05575	0.775
9.09531	0.788
9.13488	0.725
9.17444	0.76
9.21401	0.818
9.25358	0.806
9.29314	0.782
9.33271	0.823
9.37227	0.856
9.41184	0.861
9.45141	0.86
9.49097	0.84
9.53054	0.748
9.5701	0.668
9.60967	0.795
9.64924	0.841
9.6888	0.836
9.72837	0.838
9.76793	0.861
9.8075	0.866
9.84707	0.875
9.88663	0.878
9.9262	0.878
9.96576	0.861
10.0053	0.871
10.0449	0.873
10.0845	0.876
10.124	0.875
10.1636	0.865
10.2032	0.871
10.2427	0.878
10.2823	0.881
10.3219	0.881
10.3614	0.88
10.401	0.855
10.4406	0.772
10.4801	0.695
10.5197	0.765
10.5593	0.823
10.5988	0.85
10.6384	0.836
10.678	0.742
10.7175	0.813
10.7571	0.868
10.7966	0.876
10.8362	0.86
10.8758	0.875
10.9153	0.898
10.9549	0.906
10.9945	0.901
11.034	0.896
11.0736	0.905
11.1132	0.918
11.1527	0.918
11.1923	0.918
11.2319	0.915
11.2714	0.911
11.311	0.878
11.3506	0.873
11.3901	0.886
11.4297	0.903
11.4693	0.916
11.5088	0.918
11.5484	0.918
11.588	0.913
11.6275	0.871
11.6671	0.821
11.7067	0.86
11.7462	0.881
11.7858	0.891
11.8254	0.9
11.8649	0.911
11.9045	0.918
11.9441	0.918
11.9836	0.921
12.0232	0.92
12.0628	0.92
12.1023	0.92
12.1419	0.92
12.1815	0.921
12.221	0.92
12.2606	0.921
12.3002	0.92
12.3397	0.918
12.3793	0.918
12.4189	0.916
12.4584	0.916
12.498	0.916
12.5376	0.916
12.5771	0.916
12.6167	0.916
12.6563	0.915
12.6958	0.913
12.7354	0.908
12.7749	0.908
12.8145	0.883
12.8541	0.851
12.8936	0.78
12.9332	0.595
12.9728	0.549
13.0123	0.589
13.0519	0.515
13.0915	0.612
13.131	0.695
13.1706	0.725
13.2102	0.678
13.2497	0.628
13.2893	0.702
13.3289	0.801
13.3684	0.841
13.408	0.86
13.4476	0.865
13.4871	0.868
13.5267	0.87
13.5663	0.87
13.6058	0.87
13.6454	0.87
13.685	0.87
13.7245	0.873
13.7641	0.871
13.8037	0.868
13.8432	0.848
13.8828	0.815
13.9224	0.805
13.9619	0.828
14.0015	0.846
14.0411	0.853
14.0806	0.855
14.1202	0.855
14.1598	0.85
14.1993	0.836
14.2389	0.823
14.2785	0.801
14.318	0.777
14.3576	0.725
14.3972	0.623
14.4367	0.535
14.4763	0.479
14.5159	0.454
14.5554	0.442
14.595	0.48
14.6346	0.567
14.6741	0.655
14.7137	0.702
14.7532	0.737
14.7928	0.745
14.8324	0.755
14.8719	0.758
14.9115	0.757
14.9511	0.743
14.9906	0.747
15.0302	0.752
15.0698	0.74
15.1093	0.712
15.1489	0.703
15.1885	0.705
15.228	0.713
15.2676	0.718
15.3072	0.72
15.3467	0.723
15.3863	0.723
15.4259	0.722
15.4654	0.722
15.505	0.715
15.5446	0.712
15.5841	0.705
15.6237	0.698
15.6633	0.693
15.7028	0.687
15.7424	0.68
15.782	0.672
15.8215	0.668
15.8611	0.662
15.9007	0.648
15.9402	0.638
