Infrared Spectrum: Barbituric acid, 5-ethyl-5-phenyl-,
Formula: C12 H12 N2 O3
CAS: 50-06-6
State: SOLID (NUJOL MULL)
Melting point: 174-178 C
Class: COBLENTZ III
Instrument: PERKIN-ELMER 21 (GRATING)
Resolution: 2
Origin: THE SQUIBB INSTITUTE FOR MEDICAL RESEARCH
1/CM	TRANSMITTANCE
657	0.8927
666	0.8612
675	0.8597
684	0.7918
693	0.6269
702	0.7243
711	0.6751
720	0.5856
729	0.8386
738	0.7682
747	0.7339
756	0.7288
765	0.4158
774	0.643
783	0.7445
792	0.8016
801	0.8105
810	0.7688
819	0.6812
828	0.5882
837	0.5666
846	0.5769
855	0.7102
864	0.8287
873	0.885
882	0.9148
891	0.922
900	0.9154
909	0.9186
918	0.919
927	0.9182
936	0.9614
945	0.9589
954	0.922
963	0.8824
972	0.9009
981	0.944
990	0.9448
999	0.91
1008	0.9335
1017	0.8916
1026	0.8608
1035	0.8491
1044	0.9373
1053	0.9095
1062	0.8984
1071	0.909
1080	0.9208
1089	0.93
1098	0.9228
1107	0.9219
1116	0.9101
1125	0.9274
1134	0.894
1143	0.9399
1152	0.9281
1161	0.9088
1170	0.9238
1179	0.9327
1188	0.9161
1197	0.876
1206	0.8083
1215	0.5427
1224	0.5389
1233	0.4855
1242	0.536
1251	0.6101
1260	0.8578
1269	0.8493
1278	0.8263
1287	0.6833
1296	0.3185
1305	0.3328
1314	0.4233
1323	0.6875
1332	0.6465
1341	0.413
1350	0.428
1359	0.3438
1368	0.3091
1377	0.2668
1386	0.2077
1395	0.2086
1404	0.2287
1413	0.3174
1422	0.3576
1431	0.5078
1440	0.5387
1449	0.5905
1458	0.6359
1467	0.8023
1476	0.8204
1485	0.7399
1494	0.6654
1503	0.8037
1512	0.837
1521	0.8486
1530	0.8991
1539	0.9099
1548	0.9062
1557	0.9004
1566	0.8917
1575	0.8365
1584	0.8304
1593	0.844
1602	0.8426
1611	0.817
1620	0.7832
1629	0.7283
1638	0.6467
1647	0.4792
1656	0.3285
1665	0.1907
1674	0.1229
1683	0.1654
1692	0.1505
1701	0.0578
1710	0.0544
1719	0.122
1728	0.2348
1737	0.2368
1746	0.338
1755	0.386
1764	0.1596
1773	0.1737
1782	0.5568
1791	0.66
1800	0.7877
1809	0.848
1818	0.8993
1827	0.9414
1836	0.9534
1845	0.9542
1854	0.955
1863	0.9552
1872	0.9557
1881	0.9567
1890	0.9581
1899	0.9625
1908	0.9755
1917	0.9802
1926	0.9808
1935	0.9813
1944	0.9818
1953	0.9824
1962	0.983
1971	0.9841
1980	0.986
1989	0.9895
1998	0.9925
2007	0.994
2016	0.9946
2025	0.9954
2034	0.996
2043	0.9964
2052	0.9967
2061	0.997
2070	0.9975
2079	0.998
2088	0.9985
2097	0.9989
2106	0.9987
2115	0.9982
2124	0.9977
2133	0.9972
2142	0.9968
2151	0.996
2160	0.9952
2169	0.9945
2178	0.9937
2187	0.9927
2196	0.9914
2205	0.9902
2214	0.989
2223	0.9872
2232	0.985
2241	0.9828
2250	0.9807
2259	0.9784
2268	0.9759
2277	0.9735
2286	0.9724
2295	0.9721
2304	0.9718
2313	0.9716
2322	0.9727
2331	0.9738
2340	0.9746
2349	0.9752
2358	0.9741
2367	0.9719
2376	0.9697
2385	0.9669
2394	0.9651
2403	0.9652
2412	0.966
2421	0.9672
2430	0.9679
2439	0.9685
2448	0.969
2457	0.9685
2466	0.9678
2475	0.9656
2484	0.9633
2493	0.9605
2502	0.9577
2511	0.9548
2520	0.9518
2529	0.9489
2538	0.9461
2547	0.9436
2556	0.9411
2565	0.9387
2574	0.9366
2583	0.9348
2592	0.9331
2601	0.9313
2610	0.9296
2619	0.9281
2628	0.9267
2637	0.9253
2646	0.9239
2655	0.9222
2664	0.918
2673	0.9138
2682	0.909
2691	0.9028
2700	0.8964
2709	0.8898
2718	0.8824
2727	0.8741
2736	0.8633
2745	0.8504
2754	0.8342
2763	0.8151
2772	0.7899
2781	0.7539
2790	0.7182
2799	0.6827
2808	0.6445
2817	0.6289
2826	0.6269
2835	0.6253
2844	0.6205
2853	0.6105
2862	0.6069
2871	0.6078
2880	0.6117
2889	0.6153
2898	0.6185
2907	0.6215
2916	0.6233
2925	0.6236
2934	0.6222
2943	0.6187
2952	0.6143
2961	0.609
2970	0.5761
2979	0.54
2988	0.5041
2997	0.4683
3006	0.4329
3015	0.3975
3024	0.3625
3033	0.3369
3042	0.3371
3051	0.3442
3060	0.3567
3069	0.369
3078	0.3755
3087	0.3716
3096	0.3659
3105	0.3571
3114	0.346
3123	0.3441
3132	0.3444
3141	0.3497
3150	0.3716
3159	0.3985
3168	0.4252
3177	0.4517
3186	0.477
3195	0.4915
3204	0.5022
3213	0.5086
3222	0.4996
3231	0.4694
3240	0.4394
3249	0.4096
3258	0.3799
3267	0.3734
3276	0.4391
3285	0.5245
3294	0.6095
3303	0.6937
3312	0.7439
3321	0.8143
3330	0.8374
3339	0.8517
3348	0.8603
3357	0.868
3366	0.8744
3375	0.8806
3384	0.8848
3393	0.8889
3402	0.893
3411	0.8964
3420	0.899
3429	0.9015
3438	0.9037
3447	0.9052
3456	0.9068
3465	0.9076
3474	0.908
3483	0.9082
3492	0.9082
3501	0.9081
3510	0.908
3519	0.9077
3528	0.9075
3537	0.9072
3546	0.9071
3555	0.9068
3564	0.9066
3573	0.9062
3582	0.9057
3591	0.9052
3600	0.9047
3609	0.9043
3618	0.9037
3627	0.9033
3636	0.9028
3645	0.9024
3654	0.9019
3663	0.9014
3672	0.9009
3681	0.9003
3690	0.8998
3699	0.8992
3708	0.8987
3717	0.8981
3726	0.8976
3735	0.8971
3744	0.8965
3753	0.896
3762	0.8955
3771	0.8949
3780	0.8944
3789	0.8939
3798	0.8933
3807	0.8928
3816	0.8922
3825	0.8917
3834	0.8912
3843	0.8906
3852	0.8901
3861	0.8896
3870	0.889
3879	0.8885
3888	0.8881
3897	0.8875
3906	0.887
3915	0.8864
3924	0.8859
3933	0.8853
3942	0.8848
3951	0.8843
3960	0.8837
3969	0.8832
3978	0.8827
3987	0.8822
3996	0.8816
