Infrared Spectrum: 1-METHYL-5,5-DIETHYL BARBITURIC ACID
Formula: C9 H14 N2 O3
CAS: 50-11-3
State: SOLID (NUJOL MULL)
Class: COBLENTZ
Instrument: Not specified, most likely a prism, grating, or hybrid spectrometer.
Sampling: TRANSMISSION
Resolution: 4
MICROMETERS	TRANSMITTANCE
2.034	0.789
2.0677	0.793
2.10139	0.796
2.13509	0.801
2.16878	0.804
2.20248	0.804
2.23618	0.804
2.26987	0.794
2.30357	0.791
2.33727	0.793
2.37096	0.798
2.40466	0.802
2.43835	0.806
2.47205	0.811
2.50575	0.816
2.53944	0.821
2.57314	0.821
2.60683	0.825
2.64053	0.827
2.67423	0.83
2.70792	0.839
2.74162	0.84
2.77532	0.844
2.80901	0.84
2.84271	0.837
2.8764	0.834
2.9101	0.829
2.9438	0.827
2.97749	0.809
3.01119	0.72
3.04488	0.504
3.07858	0.264
3.11228	0.305
3.14597	0.456
3.17967	0.52
3.21336	0.581
3.24706	0.646
3.28076	0.688
3.31445	0.656
3.34815	0.32
3.38185	0.096
3.41554	0.06
3.44924	0.134
3.48293	0.16
3.51663	0.4
3.55033	0.653
3.58402	0.742
3.61772	0.779
3.65141	0.796
3.68511	0.799
3.71881	0.807
3.7525	0.807
3.7862	0.812
3.8199	0.817
3.85359	0.821
3.88729	0.827
3.92098	0.83
3.95468	0.835
3.98838	0.842
4.02207	0.848
4.05577	0.85
4.08946	0.853
4.12316	0.853
4.15686	0.857
4.19055	0.86
4.22425	0.86
4.25795	0.862
4.29164	0.853
4.32534	0.855
4.35903	0.862
4.39273	0.863
4.42643	0.863
4.46012	0.862
4.49382	0.862
4.52751	0.865
4.56121	0.865
4.59491	0.868
4.6286	0.87
4.6623	0.865
4.696	0.868
4.72969	0.865
4.76339	0.873
4.79708	0.876
4.83078	0.876
4.86448	0.868
4.89817	0.871
4.93187	0.873
4.96556	0.876
4.99926	0.873
5.03296	0.87
5.06665	0.876
5.10035	0.876
5.13405	0.865
5.16774	0.863
5.20144	0.863
5.23513	0.865
5.26883	0.865
5.30253	0.865
5.33622	0.862
5.36992	0.857
5.40361	0.852
5.43731	0.845
5.47101	0.827
5.5047	0.817
5.5384	0.801
5.57209	0.775
5.60579	0.733
5.63949	0.668
5.67318	0.517
5.70688	0.224
5.74058	0.399
5.77427	0.477
5.80797	0.183
5.84166	0.147
5.87536	0.164
5.90906	0.287
5.94275	0.254
5.97645	0.142
6.01014	0.1
6.04384	0.178
6.07754	0.303
6.11123	0.428
6.14493	0.497
6.17863	0.561
6.21232	0.599
6.24602	0.635
6.27971	0.681
6.31341	0.715
6.34711	0.735
6.3808	0.75
6.4145	0.756
6.44819	0.758
6.48189	0.763
6.51559	0.758
6.54928	0.748
6.58298	0.745
6.61668	0.72
6.65037	0.714
6.68407	0.689
6.71776	0.684
6.75146	0.61
6.78516	0.51
6.81885	0.279
6.85255	0.114
6.88624	0.119
6.91994	0.151
6.95364	0.187
6.98733	0.277
7.02103	0.31
7.05473	0.453
7.08842	0.597
7.12212	0.568
7.15581	0.436
7.18951	0.325
7.22321	0.236
7.2569	0.146
7.2906	0.154
7.32429	0.3
7.35799	0.443
7.39169	0.545
7.42538	0.579
7.45908	0.569
7.49278	0.341
7.52647	0.164
7.56017	0.147
7.59386	0.275
7.62756	0.418
7.66126	0.489
7.69495	0.571
7.72865	0.62
7.76234	0.648
7.79604	0.656
7.82974	0.64
7.86343	0.5
7.89713	0.359
7.93082	0.449
7.96452	0.573
7.99822	0.643
8.03191	0.692
8.06561	0.717
8.09931	0.732
8.133	0.747
8.1667	0.748
8.20039	0.747
8.23409	0.725
8.26779	0.669
8.30148	0.504
8.33518	0.413
8.36887	0.471
8.40257	0.582
8.43627	0.66
8.46996	0.712
8.50366	0.743
8.53736	0.719
8.57105	0.722
8.60475	0.706
8.63844	0.633
8.67214	0.646
8.70584	0.727
8.73953	0.761
8.77323	0.775
8.80692	0.784
8.84062	0.791
8.87432	0.798
8.90801	0.799
8.94171	0.801
8.97541	0.802
9.0091	0.806
9.0428	0.804
9.07649	0.801
9.11019	0.799
9.14389	0.796
9.17758	0.789
9.21128	0.761
9.24497	0.673
9.27867	0.564
9.31237	0.515
9.34606	0.574
9.37976	0.66
9.41346	0.73
9.44715	0.742
9.48085	0.747
9.51454	0.727
9.54824	0.643
9.58194	0.558
9.61563	0.596
9.64933	0.622
9.68302	0.696
9.71672	0.747
9.75042	0.771
9.78411	0.788
9.81781	0.794
9.85151	0.796
9.8852	0.802
9.9189	0.804
9.95259	0.809
9.98629	0.811
10.02	0.812
10.0537	0.812
10.0874	0.812
10.1211	0.811
10.1548	0.806
10.1885	0.799
10.2222	0.791
10.2559	0.742
10.2896	0.674
10.3233	0.711
10.3569	0.768
10.3906	0.806
10.4243	0.809
10.458	0.811
10.4917	0.812
10.5254	0.809
10.5591	0.796
10.5928	0.789
10.6265	0.771
10.6602	0.791
10.6939	0.802
10.7276	0.812
10.7613	0.814
10.795	0.817
10.8287	0.819
10.8624	0.819
10.8961	0.819
10.9298	0.822
10.9635	0.822
10.9972	0.83
11.0309	0.83
11.0646	0.827
11.0983	0.827
11.132	0.83
11.1657	0.827
11.1994	0.824
11.233	0.829
11.2667	0.816
11.3004	0.825
11.3341	0.825
11.3678	0.821
11.4015	0.817
11.4352	0.807
11.4689	0.789
11.5026	0.752
11.5363	0.752
11.57	0.779
11.6037	0.801
11.6374	0.802
11.6711	0.799
11.7048	0.799
11.7385	0.798
11.7722	0.788
11.8059	0.784
11.8396	0.773
11.8733	0.766
11.907	0.755
11.9407	0.743
11.9744	0.712
12.0081	0.701
12.0418	0.679
12.0755	0.655
12.1091	0.605
12.1428	0.548
12.1765	0.492
12.2102	0.441
12.2439	0.426
12.2776	0.436
12.3113	0.486
12.345	0.558
12.3787	0.599
12.4124	0.64
12.4461	0.689
12.4798	0.712
12.5135	0.73
12.5472	0.73
12.5809	0.669
12.6146	0.64
12.6483	0.63
12.682	0.656
12.7157	0.699
12.7494	0.725
12.7831	0.74
12.8168	0.753
12.8505	0.763
12.8842	0.773
12.9179	0.775
12.9516	0.778
12.9852	0.781
13.0189	0.783
13.0526	0.789
13.0863	0.791
13.12	0.791
13.1537	0.783
13.1874	0.771
13.2211	0.691
13.2548	0.65
13.2885	0.692
13.3222	0.74
13.3559	0.743
13.3896	0.742
13.4233	0.669
13.457	0.607
13.4907	0.602
13.5244	0.686
13.5581	0.724
13.5918	0.745
13.6255	0.752
13.6592	0.753
13.6929	0.753
13.7266	0.753
13.7603	0.74
13.794	0.735
13.8276	0.715
13.8613	0.683
13.895	0.669
13.9287	0.679
13.9624	0.689
13.9961	0.692
14.0298	0.669
14.0635	0.615
14.0972	0.586
14.1309	0.604
14.1646	0.663
14.1983	0.706
14.232	0.717
14.2657	0.727
14.2994	0.735
14.3331	0.735
14.3668	0.729
14.4005	0.709
14.4342	0.688
14.4679	0.651
14.5016	0.64
14.5353	0.679
14.569	0.699
14.6027	0.709
14.6364	0.712
14.6701	0.712
14.7037	0.712
14.7374	0.711
14.7711	0.709
14.8048	0.709
14.8385	0.702
14.8722	0.699
14.9059	0.694
14.9396	0.691
14.9733	0.692
15.007	0.686
15.0407	0.679
15.0744	0.674
15.1081	0.673
15.1418	0.666
15.1755	0.665
15.2092	0.658
15.2429	0.658
15.2766	0.648
15.3103	0.645
15.344	0.637
15.3777	0.635
15.4114	0.63
15.4451	0.625
15.4788	0.623
