Infrared Spectrum: beta-Estradiol
Formula: C 18 H 24 O 2
CAS: 50-28-2
State: solid
Instrument: Bruker Tensor 37 FTIR
Resolution: 0.96450084
Origin: Pacific Northwest National Laboratory Under IARPA Contract
1/cm	Reflectance
7498.99	0.821287
7481.63	0.810356
7464.27	0.802801
7446.91	0.801331
7429.55	0.790579
7412.19	0.773507
7394.84	0.767157
7377.48	0.760031
7360.12	0.754794
7342.76	0.75547
7325.4	0.753524
7308.04	0.741066
7290.68	0.74026
7273.32	0.734767
7255.96	0.712415
7238.6	0.697626
7221.24	0.673926
7203.88	0.659712
7186.52	0.65359
7169.16	0.651841
7151.8	0.64742
7134.44	0.638142
7117.08	0.635896
7099.72	0.642428
7082.36	0.644893
7065	0.654287
7047.64	0.659675
7030.28	0.665174
7012.92	0.668846
6995.56	0.675865
6978.2	0.676431
6960.84	0.669431
6943.48	0.674491
6926.12	0.67049
6908.76	0.668526
6891.4	0.669822
6874.04	0.669237
6856.68	0.66778
6839.32	0.664005
6821.96	0.664122
6804.6	0.662238
6787.24	0.662291
6769.88	0.664277
6752.52	0.646351
6735.16	0.626935
6717.8	0.603604
6700.44	0.594928
6683.08	0.569393
6665.72	0.571214
6648.36	0.584541
6631	0.59313
6613.64	0.571346
6596.28	0.583774
6578.92	0.622783
6561.56	0.641812
6544.2	0.64644
6526.85	0.649916
6509.49	0.630689
6492.13	0.641818
6474.77	0.644257
6457.41	0.647708
6440.05	0.652455
6422.69	0.658544
6405.33	0.658759
6387.97	0.656783
6370.61	0.650927
6353.25	0.638663
6335.89	0.616503
6318.53	0.579262
6301.17	0.544207
6283.81	0.545693
6266.45	0.550386
6249.09	0.5586
6231.73	0.564126
6214.37	0.550374
6197.01	0.526539
6179.65	0.521135
6162.29	0.521703
6144.93	0.518951
6127.57	0.525796
6110.21	0.536953
6092.85	0.519255
6075.49	0.521801
6058.13	0.507529
6040.77	0.545898
6023.41	0.552624
6006.05	0.556891
5988.69	0.571146
5971.33	0.558847
5953.97	0.466354
5936.61	0.402853
5919.25	0.395395
5901.89	0.428375
5884.53	0.384434
5867.17	0.407413
5849.81	0.406013
5832.45	0.412401
5815.09	0.422821
5797.73	0.419991
5780.37	0.400271
5763.01	0.415773
5745.65	0.411148
5728.29	0.410453
5710.93	0.428791
5693.57	0.438472
5676.21	0.447719
5658.86	0.460804
5641.5	0.44892
5624.14	0.432587
5606.78	0.447441
5589.42	0.423927
5572.06	0.359779
5554.7	0.254732
5537.34	0.148807
5519.98	0.08524
5502.62	0.0498466
5485.26	0.032334
5467.9	0.0311056
5450.54	0.0353587
5433.18	0.0378642
5415.82	0.0372862
5398.46	0.0342965
5381.1	0.0324201
5363.74	0.0320866
5346.38	0.0334926
5329.02	0.0360441
5311.66	0.0443291
5294.3	0.0558485
5276.94	0.0598131
5259.58	0.0520341
5242.22	0.0840289
5224.86	0.0363599
5207.5	0.0324811
5190.14	0.0531203
5172.78	0.0582763
5155.42	0.0523598
5138.06	0.143601
5120.7	0.15348
5103.34	0.138025
5085.98	0.147893
5068.62	0.173321
5051.26	0.166995
5033.9	0.199831
5016.54	0.196529
4999.18	0.228748
4981.82	0.257055
4964.46	0.293775
4947.1	0.324467
4929.74	0.343478
4912.38	0.346084
4895.02	0.34229
4877.66	0.329138
4860.3	0.294446
4842.94	0.278
4825.58	0.296878
4808.22	0.325302
4790.86	0.329495
4773.51	0.351103
4756.15	0.345366
4738.79	0.346278
4721.43	0.345767
4704.07	0.357681
4686.71	0.244329
4669.35	0.320616
4651.99	0.317783
4634.63	0.294015
4617.27	0.250786
4599.91	0.214453
4582.55	0.16868
4565.19	0.106096
4547.83	0.0715962
4530.47	0.139773
4513.11	0.119862
4495.75	0.0446049
4478.39	0.0322348
4461.03	0.0590631
4443.67	0.0632208
4426.31	0.0422938
4408.95	0.0457714
4391.59	0.0338737
4374.23	0.0309519
4356.87	0.0599833
4339.51	0.119949
4322.15	0.0862686
4304.79	0.0962049
4287.43	0.0374079
4270.07	0.0761928
4252.71	0.0705115
4235.35	0.16337
4217.99	0.103467
4200.63	0.0882621
4183.27	0.0906012
4165.91	0.0667061
4148.55	0.0961616
4131.19	0.0520768
4113.83	0.0461999
4096.47	0.05773
4079.11	0.0636646
4061.75	0.0646951
4044.39	0.818814
4027.03	0.815511
4009.67	0.810743
3992.31	0.794854
3974.95	0.798567
3957.59	0.782679
3940.23	0.772965
3922.87	0.766505
3905.52	0.761853
3888.16	0.758311
3870.8	0.764827
3853.44	0.750394
3836.08	0.752105
3818.72	0.737283
3801.36	0.713992
3784	0.6979
3766.64	0.678996
3749.28	0.671072
3731.92	0.668846
3714.56	0.662642
3697.2	0.65673
3679.84	0.653648
3662.48	0.653877
3645.12	0.658066
3627.76	0.663919
3610.4	0.666007
3593.04	0.674468
3575.68	0.686191
3558.32	0.684944
3540.96	0.68684
3523.6	0.690997
3506.24	0.685946
3488.88	0.684576
3471.52	0.682263
3454.16	0.683584
3436.8	0.683693
3419.44	0.681213
3402.08	0.681398
3384.72	0.678174
3367.36	0.677815
3350	0.678328
3332.64	0.681593
3315.28	0.67682
3297.92	0.652395
3280.56	0.633323
3263.2	0.612386
3245.84	0.60108
3228.48	0.588093
3211.12	0.583151
3193.76	0.61039
3176.4	0.594951
3159.04	0.590093
3141.68	0.605095
3124.32	0.649376
3106.96	0.659768
3089.6	0.665869
3072.24	0.664063
3054.88	0.652305
3037.53	0.659097
3020.17	0.660655
3002.81	0.665012
2985.45	0.671686
2968.09	0.677244
2950.73	0.674892
2933.37	0.672174
2916.01	0.663117
2898.65	0.650543
2881.29	0.623202
2863.93	0.58552
2846.57	0.558091
2829.21	0.565125
2811.85	0.570675
2794.49	0.57912
2777.13	0.579755
2759.77	0.561382
2742.41	0.541497
2725.05	0.538684
2707.69	0.53976
2690.33	0.537064
2672.97	0.5493
2655.61	0.552854
2638.25	0.533526
2620.89	0.539235
2603.53	0.515695
2586.17	0.568592
2568.81	0.570147
2551.45	0.58076
2534.09	0.589264
2516.73	0.544092
2499.37	0.455712
2482.01	0.396979
2464.65	0.405184
2447.29	0.442555
2429.93	0.406038
2412.57	0.426514
2395.21	0.428997
2377.85	0.426574
2360.49	0.441369
2343.13	0.430966
2325.77	0.419312
2308.41	0.433757
2291.05	0.428152
2273.69	0.434406
2256.33	0.451708
2238.97	0.459941
2221.61	0.472545
2204.25	0.474852
2186.89	0.456455
2169.53	0.459492
2152.18	0.456397
2134.82	0.427009
2117.46	0.348995
2100.1	0.225957
2082.74	0.131175
2065.38	0.0749895
2048.02	0.0438226
2030.66	0.0307951
2013.3	0.0325846
1995.94	0.0382345
1978.58	0.0392009
1961.22	0.0370458
1943.86	0.0341232
1926.5	0.0326305
1909.14	0.0329595
1891.78	0.0342022
1874.42	0.0392643
1857.06	0.0493225
1839.7	0.0614721
1822.34	0.0668681
1804.98	0.0825717
1787.62	0.0566046
1770.26	0.0317441
1752.9	0.0390946
1735.54	0.0430662
1718.18	0.0961259
1700.82	0.095454
1683.46	0.157356
1666.1	0.157303
1648.74	0.151695
1631.38	0.169644
1614.02	0.185163
1596.66	0.176853
1579.3	0.213097
1561.94	0.206622
1544.58	0.237469
1527.22	0.277787
1509.86	0.319209
1492.5	0.334958
1475.14	0.348996
1457.78	0.354873
1440.42	0.353649
1423.06	0.326979
1405.7	0.292837
1388.34	0.293275
1370.98	0.315123
1353.62	0.33563
1336.26	0.335337
1318.9	0.358273
1301.54	0.364212
1284.19	0.351651
1266.83	0.360839
1249.47	0.353728
1232.11	0.282248
1214.75	0.324759
1197.39	0.326125
1180.03	0.280493
1162.67	0.245145
1145.31	0.181499
1127.95	0.190418
1110.59	0.0515524
1093.23	0.0486536
1075.87	0.146774
1058.51	0.0735969
1041.15	0.0608644
1023.79	0.033789
1006.43	0.0565066
989.068	0.0649257
971.709	0.0566754
954.349	0.0482319
936.989	0.065995
919.629	0.0304213
902.269	0.0902428
884.91	0.107108
867.55	0.0491624
850.19	0.0726545
832.83	0.0300022
815.47	0.0760954
798.111	0.146284
780.751	0.0853055
763.391	0.0758473
746.031	0.163654
728.671	0.123516
711.312	0.0350594
693.952	0.0452332
676.592	0.0450419
659.232	0.0471403
641.872	0.0594342
624.513	0.0591082
607.153	0.0667578
