Infrared Spectrum: BENZENE, 1,1'(2,2,2-TRICHLOROETHYLIDENE)BIS[4-CHLORO-
Formula: C14 H9 Cl5
CAS: 50-29-3
State: SOLUTION (10% IN CCl4 FOR 3800-1330, 10% IN CS2 FOR 1330-450 CM^-^1)
Class: COBLENTZ III
Instrument: DOW KBr FOREPRISM-GRATING
Instrument parameters: BLAZED AT 3.5, 12.0, 20.0 MICRON, CHANGED AT 5.0, 7.5, 14.9 MICRON
Sampling: TRANSMISSION
Path length: 0.011, 0.011 CM
Resolution: 4
Origin: DOW CHEMICAL COMPANY
1/CM	TRANSMITTANCE
454.594	0.885
462.983	0.916
471.372	0.943
479.761	0.946
488.149	0.932
496.538	0.8391
504.927	0.221
513.316	0.876
521.705	0.5531
530.094	0.824
538.482	0.988
546.871	1.004
555.26	1.008
563.649	1.01
572.038	1.012
580.427	1.015
588.815	1.018
597.204	1.007
605.593	0.992
613.982	0.771
622.371	0.923
630.76	0.943
639.148	0.903
647.537	0.5992
655.926	0.7767
664.315	0.873
672.704	0.775
681.093	0.758
689.481	0.656
697.87	0.863
706.259	0.78
714.648	0.7334
723.037	0.897
731.426	0.8179
739.814	0.91
748.203	0.86
756.592	0.757
764.981	0.4251
773.37	0.033
781.759	0.04
790.147	0.777
798.536	0.803
806.925	0.5271
815.314	0.6099
823.703	0.574
832.092	0.3501
840.48	0.602
848.869	0.385
857.258	0.416
865.647	0.708
874.036	0.811
882.425	0.837
890.813	0.768
899.202	0.7839
907.591	0.955
915.98	0.968
924.369	0.968
932.758	0.954
941.146	0.882
949.535	0.954
957.924	0.942
966.313	0.955
974.702	0.959
983.091	0.955
991.479	0.932
999.868	0.866
1008.26	0.724
1016.65	0.079
1025.03	0.836
1033.42	0.92
1041.81	0.942
1050.2	0.951
1058.59	0.951
1066.98	0.941
1075.37	0.89
1083.76	0.814
1092.15	0.354
1100.53	0.3952
1108.92	0.682
1117.31	0.679
1125.7	0.8761
1134.09	0.951
1142.48	0.939
1150.87	0.961
1159.26	0.972
1167.65	0.971
1176.03	0.936
1184.42	0.925
1192.81	0.956
1201.2	0.978
1209.59	0.984
1217.98	0.982
1226.37	0.962
1234.76	0.954
1243.14	0.965
1251.53	0.964
1259.92	0.941
1268.31	0.859
1276.7	0.955
1285.09	0.958
1293.48	0.961
1301.87	0.968
1310.26	0.966
1318.64	0.943
1327.03	0.943
1335.42	0.951
1343.81	0.951
1352.2	0.942
1360.59	0.978
1368.98	0.978
1377.37	0.975
1385.75	0.955
1394.14	0.916
1402.53	0.775
1410.92	0.6459
1419.31	0.932
1427.7	0.949
1436.09	0.935
1444.48	0.872
1452.87	0.909
1461.25	0.8529
1469.64	0.814
1478.03	0.81
1486.42	0.3961
1494.81	0.022
1503.2	0.724
1511.59	0.716
1519.98	0.659
1528.36	0.636
1536.75	0.5409
1545.14	0.489
1553.53	0.521
1561.92	0.603
1570.31	0.626
1578.7	0.658
1587.09	0.577
1595.48	0.678
1603.86	0.856
1612.25	0.906
1620.64	0.923
1629.03	0.941
1637.42	0.985
1645.81	0.975
1654.2	0.949
1662.59	0.956
1670.98	0.962
1679.36	0.966
1687.75	0.968
1696.14	0.959
1704.53	0.965
1712.92	0.959
1721.31	0.964
1729.7	0.964
1738.09	0.961
1746.47	0.961
1754.86	0.956
1763.25	0.948
1771.64	0.923
1780.03	0.931
1788.42	0.956
1796.81	0.958
1805.2	0.962
1813.59	0.961
1821.97	0.959
1830.36	0.962
1838.75	0.961
1847.14	0.961
1855.53	0.959
1863.92	0.959
1872.31	0.956
1880.7	0.946
1889.08	0.923
1897.47	0.854
1905.86	0.932
1914.25	0.959
1922.64	0.965
1931.03	0.968
1939.42	0.969
1947.81	0.971
1956.2	0.968
1964.58	0.968
1972.97	0.965
1981.36	0.965
1989.75	0.964
1998.14	0.962
2006.53	0.959
2014.92	0.959
2023.31	0.9601
2031.7	0.962
2040.08	0.964
2048.47	0.9641
2056.86	0.966
2065.25	0.966
2073.64	0.9674
2082.03	0.9712
2090.42	0.972
2098.81	0.969
2107.19	0.968
2115.58	0.968
2123.97	0.968
2132.36	0.9697
2140.75	0.971
2149.14	0.971
2157.53	0.9691
2165.92	0.971
2174.31	0.971
2182.69	0.969
2191.08	0.969
2199.47	0.969
2207.86	0.968
2216.25	0.969
2224.64	0.969
2233.03	0.9684
2241.42	0.9648
2249.8	0.964
2258.19	0.9606
2266.58	0.9543
2274.97	0.952
2283.36	0.949
2291.75	0.9427
2300.14	0.941
2308.53	0.942
2316.92	0.945
2325.3	0.9492
2333.69	0.9587
2342.08	0.965
2350.47	0.966
2358.86	0.965
2367.25	0.965
2375.64	0.966
2384.03	0.968
2392.42	0.968
2400.8	0.968
2409.19	0.9686
2417.58	0.969
2425.97	0.969
2434.36	0.9724
2442.75	0.974
2451.14	0.974
2459.53	0.974
2467.91	0.974
2476.3	0.974
2484.69	0.974
2493.08	0.974
2501.47	0.974
2509.86	0.9722
2518.25	0.971
2526.64	0.9709
2535.03	0.971
2543.41	0.971
2551.8	0.971
2560.19	0.971
2568.58	0.971
2576.97	0.969
2585.36	0.9654
2593.75	0.9651
2602.14	0.968
2610.52	0.9712
2618.91	0.9764
2627.3	0.977
2635.69	0.975
2644.08	0.974
2652.47	0.972
2660.86	0.972
2669.25	0.972
2677.64	0.9744
2686.02	0.975
2694.41	0.977
2702.8	0.977
2711.19	0.977
2719.58	0.977
2727.97	0.977
2736.36	0.977
2744.75	0.977
2753.14	0.975
2761.52	0.975
2769.91	0.9752
2778.3	0.977
2786.69	0.9782
2795.08	0.979
2803.47	0.978
2811.86	0.978
2820.25	0.978
2828.63	0.979
2837.02	0.979
2845.41	0.979
2853.8	0.979
2862.19	0.979
2870.58	0.979
2878.97	0.979
2887.36	0.977
2895.75	0.974
2904.13	0.971
2912.52	0.965
2920.91	0.962
2929.3	0.9661
2937.69	0.9816
2946.08	0.982
2954.47	0.981
2962.86	0.9789
2971.24	0.9757
2979.63	0.975
2988.02	0.975
2996.41	0.975
3004.8	0.9742
3013.19	0.9735
3021.58	0.96
3029.97	0.9342
3038.36	0.9225
3046.74	0.9437
3055.13	0.9429
3063.52	0.9528
3071.91	0.9559
3080.3	0.954
3088.69	0.948
3097.08	0.9495
3105.47	0.962
3113.85	0.973
3122.24	0.9811
3130.63	0.982
3139.02	0.985
3147.41	0.987
3155.8	0.989
3164.19	0.991
3172.58	0.991
3180.97	0.9935
3189.35	0.9973
3197.74	1
3206.13	1.0013
3214.52	1.0048
3222.91	1.0057
3231.3	1.007
3239.69	1.007
3248.08	1.008
3256.47	1.01
3264.85	1.011
3273.24	1.013
3281.63	1.018
3290.02	1.02
3298.41	1.021
3306.8	1.021
3315.19	1.024
3323.58	1.022
3331.96	1.022
3340.35	1.025
3348.74	1.0254
3357.13	1.027
3365.52	1.0272
3373.91	1.03
3382.3	1.033
3390.69	1.034
3399.08	1.034
3407.46	1.0313
3415.85	1.028
3424.24	1.0252
3432.63	1.0232
3441.02	1.02
3449.41	1.018
3457.8	1.017
3466.19	1.015
3474.57	1.012
3482.96	1.007
3491.35	1.005
3499.74	1.0044
3508.13	1.002
3516.52	1.001
3524.91	1
3533.3	1
3541.69	0.998
3550.07	0.9973
3558.46	0.997
3566.85	0.997
3575.24	0.995
3583.63	0.992
3592.02	0.9927
3600.41	0.995
3608.8	0.9932
3617.19	0.991
3625.57	0.991
3633.96	0.991
3642.35	0.989
3650.74	0.988
3659.13	0.987
3667.52	0.987
3675.91	0.988
3684.3	0.989
3692.68	0.991
3701.07	0.988
3709.46	0.985
3717.85	0.9894
3726.24	0.988
3734.63	0.994
3743.02	0.995
3751.41	0.995
3759.8	0.992
3768.18	0.9883
3776.57	0.992
3784.96	0.994
3793.35	0.9922
3801.74	0.992
