Infrared Spectrum: Phthalimide, N-(2,6-dioxo-3-piperidyl)-
Formula: C13 H10 N2 O4
CAS: 50-35-1
State: SOLID (NUJOL MULL)
Class: COBLENTZ III
Instrument: PERKIN-ELMER 21 (GRATING)
Instrument parameters: NaCl PRISM
Sampling: TRANSMISSION
Resolution: 2
Origin: SMITH KLINE & FRENCH LABS.
1/CM	TRANSMITTANCE
670	0.7235
679	0.775
688	0.7572
697	0.7114
706	0.7767
715	0.7005
724	0.1893
733	0.4309
742	0.7322
751	0.6986
760	0.7359
769	0.7577
778	0.7236
787	0.7753
796	0.7502
805	0.6104
814	0.7106
823	0.6767
832	0.6045
841	0.5036
850	0.3878
859	0.3062
868	0.4573
877	0.563
886	0.4407
895	0.6553
904	0.6869
913	0.5862
922	0.7348
931	0.7573
940	0.752
949	0.7511
958	0.7487
967	0.7291
976	0.6839
985	0.6179
994	0.5087
1003	0.5141
1012	0.5612
1021	0.4293
1030	0.6959
1039	0.7129
1048	0.7259
1057	0.7197
1066	0.6901
1075	0.7586
1084	0.4635
1093	0.3779
1102	0.5916
1111	0.2052
1120	0.4325
1129	0.578
1138	0.5989
1147	0.5866
1156	0.5359
1165	0.4471
1174	0.3456
1183	0.3599
1192	0.1545
1201	0.2025
1210	0.1042
1219	0.5216
1228	0.6019
1237	0.6246
1246	0.4203
1255	0.1081
1264	0.2628
1273	0.6554
1282	0.6685
1291	0.5659
1300	0.4499
1309	0.5127
1318	0.3223
1327	0.1303
1336	0.2468
1345	0.22
1354	0.2051
1363	0.0965
1372	0.0792
1381	0.0562
1390	0.0698
1399	0.2517
1408	0.4118
1417	0.5513
1426	0.5363
1435	0.4124
1444	0.412
1453	0.3191
1462	0.2728
1471	0.2384
1480	0.6421
1489	0.7649
1498	0.7743
1507	0.7736
1516	0.774
1525	0.7467
1534	0.738
1543	0.7315
1552	0.7246
1561	0.7285
1570	0.7059
1579	0.6699
1588	0.6629
1597	0.6188
1606	0.5082
1615	0.4747
1624	0.5284
1633	0.4444
1642	0.3434
1651	0.2451
1660	0.1314
1669	0.1011
1678	0.0806
1687	0.0522
1696	0.0476
1705	0.0537
1714	0.056
1723	0.057
1732	0.0677
1741	0.1942
1750	0.2694
1759	0.3848
1768	0.3119
1777	0.2713
1786	0.3224
1795	0.4999
1804	0.7562
1813	0.7835
1822	0.7878
1831	0.7922
1840	0.8215
1849	0.8268
1858	0.8189
1867	0.8078
1876	0.799
1885	0.7989
1894	0.8043
1903	0.7965
1912	0.7909
1921	0.7975
1930	0.8142
1939	0.8191
1948	0.8158
1957	0.8131
1966	0.8085
1975	0.8008
1984	0.7948
1993	0.7933
2002	0.794
2011	0.7948
2020	0.7955
2029	0.7959
2038	0.7961
2047	0.7957
2056	0.7945
2065	0.7932
2074	0.7929
2083	0.7928
2092	0.7919
2101	0.79
2110	0.7871
2119	0.7842
2128	0.7815
2137	0.7798
2146	0.7783
2155	0.7773
2164	0.7764
2173	0.7747
2182	0.773
2191	0.7714
2200	0.768
2209	0.7658
2218	0.7642
2227	0.7622
2236	0.7598
2245	0.757
2254	0.7532
2263	0.7488
2272	0.7437
2281	0.7355
2290	0.7286
2299	0.7222
2308	0.716
2317	0.7132
2326	0.7119
2335	0.7122
2344	0.7127
2353	0.7142
2362	0.7161
2371	0.7175
2380	0.7185
2389	0.7194
2398	0.7193
2407	0.7191
2416	0.7183
2425	0.7159
2434	0.7136
2443	0.7101
2452	0.7068
2461	0.7063
2470	0.7042
2479	0.7008
2488	0.699
2497	0.6972
2506	0.6978
2515	0.6964
2524	0.6941
2533	0.6916
2542	0.6892
2551	0.6869
2560	0.6844
2569	0.6833
2578	0.6828
2587	0.6825
2596	0.6831
2605	0.6854
2614	0.6777
2623	0.6667
2632	0.6621
2641	0.6588
2650	0.6576
2659	0.6564
2668	0.6555
2677	0.6508
2686	0.6473
2695	0.6443
2704	0.6426
2713	0.6415
2722	0.6385
2731	0.6201
2740	0.6094
2749	0.6032
2758	0.5963
2767	0.5873
2776	0.5759
2785	0.5591
2794	0.5223
2803	0.4347
2812	0.2997
2821	0.2098
2830	0.1205
2839	0.0983
2848	0.1013
2857	0.1043
2866	0.0977
2875	0.0778
2884	0.0688
2893	0.0681
2902	0.0715
2911	0.0779
2920	0.0869
2929	0.1313
2938	0.1885
2947	0.2454
2956	0.3019
2965	0.3581
2974	0.3863
2983	0.391
2992	0.3754
3001	0.3566
3010	0.3378
3019	0.3192
3028	0.3008
3037	0.2823
3046	0.2641
3055	0.2449
3064	0.2386
3073	0.238
3082	0.2407
3091	0.2578
3100	0.287
3109	0.2927
3118	0.291
3127	0.2878
3136	0.2835
3145	0.2782
3154	0.2766
3163	0.2784
3172	0.2866
3181	0.3131
3190	0.335
3199	0.3698
3208	0.4033
3217	0.4366
3226	0.4695
3235	0.5205
3244	0.5303
3253	0.5363
3262	0.5519
3271	0.5628
3280	0.563
3289	0.563
3298	0.5627
3307	0.562
3316	0.5611
3325	0.5602
3334	0.5594
3343	0.5583
3352	0.5596
3361	0.562
3370	0.5644
3379	0.5614
3388	0.5584
3397	0.5537
3406	0.5483
3415	0.5453
3424	0.5422
3433	0.5397
3442	0.5378
3451	0.5369
3460	0.5361
3469	0.5375
3478	0.5413
3487	0.5455
3496	0.5459
3505	0.5457
3514	0.5454
3523	0.544
3532	0.5423
3541	0.5406
3550	0.539
3559	0.5374
3568	0.5358
3577	0.5344
3586	0.5331
3595	0.5317
3604	0.5303
3613	0.5289
3622	0.5278
3631	0.5281
3640	0.5289
3649	0.5298
3658	0.5307
3667	0.5292
3676	0.5268
3685	0.5243
3694	0.522
3703	0.5197
3712	0.5174
3721	0.5159
3730	0.5148
3739	0.5141
3748	0.5138
3757	0.5133
3766	0.5129
3775	0.5124
3784	0.5121
3793	0.5115
3802	0.5104
3811	0.5093
3820	0.5083
3829	0.5072
3838	0.5061
3847	0.5049
3856	0.5036
3865	0.5023
3874	0.501
3883	0.4998
3892	0.4985
3901	0.4972
3910	0.496
3919	0.4948
3928	0.4937
3937	0.4927
3946	0.4916
3955	0.4906
3964	0.4896
3973	0.4886
3982	0.4875
3991	0.4864
4000	0.4853
