Infrared Spectrum: Reserpine
Formula: C33 H40 N2 O9
CAS: 50-55-5
State: SOLID (KBr DISC)
Melting point: 264 C DECOMPOSES
Class: COBLENTZ III
Instrument: PERKIN-ELMER 521 (GRATING)
Instrument parameters: FILTERS AT 3130, 2475, 2000, 1150, 700, 410. GRATING CHANGES: 1999, 690 CM^-^1
Sampling: TRANSMISSION
Resolution: 2
Origin: SMITH, KLINE & FRENCH LABS.
1/CM	TRANSMITTANCE
336	0.6133
346	0.6272
356	0.5827
366	0.6178
376	0.5823
386	0.6583
396	0.6846
406	0.6849
416	0.6222
426	0.6127
436	0.56
446	0.4533
456	0.4544
466	0.4738
476	0.6255
486	0.6779
496	0.6102
506	0.5644
516	0.6514
526	0.7958
536	0.7542
546	0.7361
556	0.772
566	0.7545
576	0.7623
586	0.7728
596	0.7179
606	0.6691
616	0.6008
626	0.689
636	0.5692
646	0.5917
656	0.553
666	0.5776
676	0.5968
686	0.6245
696	0.597
706	0.4686
716	0.5888
726	0.4628
736	0.3405
746	0.5684
756	0.3958
766	0.4572
776	0.6609
786	0.6163
796	0.2891
806	0.5909
816	0.4326
826	0.6164
836	0.6102
846	0.4932
856	0.4951
866	0.4085
876	0.4779
886	0.5331
896	0.4494
906	0.5089
916	0.4645
926	0.4443
936	0.3641
946	0.42
956	0.3143
966	0.2312
976	0.1834
986	0.2525
996	0.1987
1006	0.3303
1016	0.3208
1026	0.1846
1036	0.2361
1046	0.4046
1056	0.2689
1066	0.3296
1076	0.2667
1086	0.1471
1096	0.0579
1106	0.0425
1116	0.0094
1126	0.044
1136	0.1412
1146	0.2208
1156	0.2146
1166	0.2035
1176	0.2231
1186	0.1883
1196	0.2321
1206	0.1295
1216	0.0544
1226	0.0183
1236	0.1392
1246	0.0727
1256	0.1201
1266	0.1218
1276	0.0796
1286	0.2442
1296	0.2489
1306	0.31
1316	0.2138
1326	0.0525
1336	0.1273
1346	0.1576
1356	0.1767
1366	0.3514
1376	0.4428
1386	0.5608
1396	0.5213
1406	0.2282
1416	0.3102
1426	0.4209
1436	0.2179
1446	0.2049
1456	0.1122
1466	0.2077
1476	0.4099
1486	0.3924
1496	0.1856
1506	0.5704
1516	0.6751
1526	0.6988
1536	0.6912
1546	0.6765
1556	0.5493
1566	0.4641
1576	0.2993
1586	0.1556
1596	0.3341
1606	0.4678
1616	0.4062
1626	0.3997
1636	0.6359
1646	0.6448
1656	0.6489
1666	0.6166
1676	0.5726
1686	0.4502
1696	0.2304
1706	0.0663
1716	0.183
1726	0.0794
1736	0.1649
1746	0.4197
1756	0.513
1766	0.5856
1776	0.6299
1786	0.6613
1796	0.6829
1806	0.6949
1816	0.7144
1826	0.7172
1836	0.7078
1846	0.706
1856	0.718
1866	0.7227
1876	0.7235
1886	0.7252
1896	0.7248
1906	0.7206
1916	0.7135
1926	0.705
1936	0.6953
1946	0.6926
1956	0.7072
1966	0.6987
1976	0.6913
1986	0.6861
1996	0.6915
2006	0.7316
2016	0.7329
2026	0.7302
2036	0.7282
2046	0.7266
2056	0.7245
2066	0.7226
2076	0.721
2086	0.7195
2096	0.7207
2106	0.7207
2116	0.7193
2126	0.7097
2136	0.6983
2146	0.7029
2156	0.7113
2166	0.7159
2176	0.7177
2186	0.7176
2196	0.7159
2206	0.7133
2216	0.7094
2226	0.7065
2236	0.7055
2246	0.7066
2256	0.7096
2266	0.711
2276	0.7085
2286	0.706
2296	0.7003
2306	0.6866
2316	0.6776
2326	0.6754
2336	0.6746
2346	0.674
2356	0.6734
2366	0.6732
2376	0.6715
2386	0.6696
2396	0.6662
2406	0.6636
2416	0.6611
2426	0.6584
2436	0.656
2446	0.6574
2456	0.6613
2466	0.6592
2476	0.6573
2486	0.6514
2496	0.643
2506	0.6336
2516	0.6369
2526	0.6326
2536	0.6252
2546	0.6205
2556	0.6187
2566	0.6167
2576	0.6138
2586	0.61
2596	0.6058
2606	0.6003
2616	0.5947
2626	0.5883
2636	0.5867
2646	0.5871
2656	0.5862
2666	0.5851
2676	0.5831
2686	0.5805
2696	0.5762
2706	0.5707
2716	0.5656
2726	0.5639
2736	0.5641
2746	0.5585
2756	0.5527
2766	0.5464
2776	0.5399
2786	0.5309
2796	0.5022
2806	0.4538
2816	0.4075
2826	0.3193
2836	0.2598
2846	0.2754
2856	0.3206
2866	0.3448
2876	0.3055
2886	0.2916
2896	0.2606
2906	0.2294
2916	0.2152
2926	0.1949
2936	0.1589
2946	0.2167
2956	0.2488
2966	0.2764
2976	0.3191
2986	0.2942
2996	0.3993
3006	0.415
3016	0.4407
3026	0.476
3036	0.4737
3046	0.4797
3056	0.4957
3066	0.5001
3076	0.5188
3086	0.5298
3096	0.5163
3106	0.5272
3116	0.5475
3126	0.5499
3136	0.5506
3146	0.551
3156	0.5504
3166	0.5491
3176	0.5476
3186	0.5461
3196	0.5442
3206	0.543
3216	0.5418
3226	0.5406
3236	0.5394
3246	0.5369
3256	0.5344
3266	0.5319
3276	0.5293
3286	0.5255
3296	0.5216
3306	0.5163
3316	0.5096
3326	0.4999
3336	0.4898
3346	0.4788
3356	0.4663
3366	0.4538
3376	0.4383
3386	0.4171
3396	0.3873
3406	0.3549
3416	0.3239
3426	0.2821
3436	0.2534
3446	0.3024
3456	0.3764
3466	0.4312
3476	0.4478
3486	0.4581
3496	0.4619
3506	0.4649
3516	0.4673
3526	0.4698
3536	0.4724
3546	0.4751
3556	0.4782
3566	0.4812
3576	0.485
3586	0.4895
3596	0.4956
3606	0.5011
3616	0.5058
3626	0.5093
3636	0.5127
3646	0.5157
3656	0.5179
3666	0.5173
3676	0.5158
3686	0.513
3696	0.5112
3706	0.5117
3716	0.5134
3726	0.5115
3736	0.5105
3746	0.5091
3756	0.5097
3766	0.5087
3776	0.5057
3786	0.5045
3796	0.5032
3806	0.5008
3816	0.4968
3826	0.4924
3836	0.4987
3846	0.5002
3856	0.4999
3866	0.5001
3876	0.4997
3886	0.4978
3896	0.4979
3906	0.4991
3916	0.4875
3926	0.4869
3936	0.4868
3946	0.4864
3956	0.4857
3966	0.4844
3976	0.4829
3986	0.4817
3996	0.4805
