Infrared Spectrum: SALICYLIC ACID, ACETYL-
Formula: C9 H8 O4
CAS: 50-78-2
State: SOLID (KBr DISC) VS KBr
Melting point: 135 C
Class: COBLENTZ III
Instrument: PERKIN-ELMER 21 (GRATING)
Instrument parameters: FILTER AT ABOUT 10 MICRONS
Sampling: TRANSMISSION
Resolution: 2
1/CM	TRANSMITTANCE
4000	0.8775
3991	0.8778
3982	0.8782
3973	0.8786
3964	0.8791
3955	0.8795
3946	0.8799
3937	0.8804
3928	0.8808
3919	0.8812
3910	0.8817
3901	0.8821
3892	0.8827
3883	0.8831
3874	0.8835
3865	0.884
3856	0.8845
3847	0.8849
3838	0.8854
3829	0.8858
3820	0.8863
3811	0.8866
3802	0.8871
3793	0.8875
3784	0.888
3775	0.8883
3766	0.8888
3757	0.8892
3748	0.8897
3739	0.8901
3730	0.8907
3721	0.8913
3712	0.8918
3703	0.8925
3694	0.8933
3685	0.8938
3676	0.8945
3667	0.8951
3658	0.8957
3649	0.8963
3640	0.8968
3631	0.8975
3622	0.8981
3613	0.8987
3604	0.8994
3595	0.9002
3586	0.9015
3577	0.9031
3568	0.9058
3559	0.9104
3550	0.9153
3541	0.9188
3532	0.9215
3523	0.9233
3514	0.925
3505	0.9274
3496	0.9299
3487	0.9323
3478	0.9333
3469	0.9325
3460	0.9312
3451	0.9309
3442	0.9332
3433	0.9368
3424	0.9397
3415	0.9418
3406	0.9431
3397	0.9428
3388	0.9405
3379	0.9354
3370	0.929
3361	0.9205
3352	0.9067
3343	0.8946
3334	0.8844
3325	0.8759
3316	0.8675
3307	0.8598
3298	0.852
3289	0.8442
3280	0.8355
3271	0.8268
3262	0.8168
3253	0.8058
3244	0.793
3235	0.7798
3226	0.7665
3217	0.7533
3208	0.7399
3199	0.7264
3190	0.7128
3181	0.6993
3172	0.6856
3163	0.6718
3154	0.658
3145	0.6441
3136	0.63
3127	0.616
3118	0.6018
3109	0.5875
3100	0.5732
3091	0.5588
3082	0.5443
3073	0.5297
3064	0.515
3055	0.501
3046	0.4915
3037	0.4836
3028	0.4759
3019	0.4698
3010	0.4623
3001	0.4593
2992	0.4582
2983	0.4575
2974	0.4574
2965	0.4554
2956	0.4535
2947	0.4529
2938	0.4553
2929	0.4626
2920	0.4665
2911	0.4672
2902	0.4676
2893	0.4676
2884	0.466
2875	0.463
2866	0.4604
2857	0.4579
2848	0.4562
2839	0.4562
2830	0.4575
2821	0.4588
2812	0.4599
2803	0.4629
2794	0.4733
2785	0.4862
2776	0.5029
2767	0.5223
2758	0.535
2749	0.5451
2740	0.5547
2731	0.5648
2722	0.5686
2713	0.5693
2704	0.5652
2695	0.5548
2686	0.5366
2677	0.5218
2668	0.5174
2659	0.5153
2650	0.5141
2641	0.5138
2632	0.5168
2623	0.5315
2614	0.5405
2605	0.5453
2596	0.5469
2587	0.5448
2578	0.5362
2569	0.5294
2560	0.5283
2551	0.5312
2542	0.532
2533	0.532
2524	0.5339
2515	0.5453
2506	0.5608
2497	0.5752
2488	0.5873
2479	0.5985
2470	0.6112
2461	0.6258
2452	0.6395
2443	0.653
2434	0.6664
2425	0.6797
2416	0.6924
2407	0.7015
2398	0.7086
2389	0.7146
2380	0.72
2371	0.7246
2362	0.7269
2353	0.7289
2344	0.7306
2335	0.7325
2326	0.7351
2317	0.7483
2308	0.7617
2299	0.7732
2290	0.7836
2281	0.7951
2272	0.8048
2263	0.8121
2254	0.8189
2245	0.8245
2236	0.8289
2227	0.8324
2218	0.8358
2209	0.8378
2200	0.8399
2191	0.8418
2182	0.845
2173	0.8497
2164	0.8555
2155	0.8631
2146	0.8656
2137	0.8638
2128	0.863
2119	0.8671
2110	0.869
2101	0.8673
2092	0.8589
2083	0.8566
2074	0.8555
2065	0.8551
2056	0.8546
2047	0.8539
2038	0.8534
2029	0.8531
2020	0.8536
2011	0.8616
2002	0.8645
1993	0.8581
1984	0.8639
1975	0.8662
1966	0.8513
1957	0.8432
1948	0.8493
1939	0.8509
1930	0.8504
1921	0.8507
1912	0.851
1903	0.851
1894	0.8478
1885	0.8332
1876	0.8261
1867	0.8235
1858	0.8062
1849	0.7775
1840	0.7726
1831	0.7661
1822	0.7608
1813	0.7571
1804	0.7101
1795	0.6628
1786	0.6277
1777	0.4905
1768	0.3044
1759	0.1736
1750	0.1188
1741	0.3029
1732	0.4993
1723	0.5323
1714	0.4104
1705	0.2678
1696	0.1238
1687	0.0632
1678	0.0946
1669	0.2565
1660	0.4678
1651	0.5323
1642	0.6074
1633	0.6835
1624	0.7147
1615	0.6042
1606	0.2579
1597	0.3902
1588	0.6808
1579	0.6836
1570	0.6691
1561	0.7306
1552	0.7842
1543	0.8104
1534	0.8275
1525	0.8349
1516	0.829
1507	0.8244
1498	0.8347
1489	0.6898
1480	0.585
1471	0.69
1462	0.3616
1453	0.2389
1444	0.557
1435	0.5486
1426	0.5302
1417	0.3896
1408	0.4481
1399	0.58
1390	0.6786
1381	0.603
1372	0.4344
1363	0.4101
1354	0.6768
1345	0.7315
1336	0.689
1327	0.5737
1318	0.3906
1309	0.1895
1300	0.0871
1291	0.1487
1282	0.2128
1273	0.3599
1264	0.4526
1255	0.5207
1246	0.5933
1237	0.6235
1228	0.5337
1219	0.2089
1210	0.2105
1201	0.2751
1192	0.1604
1183	0.0506
1174	0.1522
1165	0.3473
1156	0.471
1147	0.5719
1138	0.5879
1129	0.5446
1120	0.6944
1111	0.7415
1102	0.7191
1093	0.4206
1084	0.4846
1075	0.6611
1066	0.7417
1057	0.7788
1048	0.7865
1039	0.6255
1030	0.6435
1021	0.7035
1012	0.4679
1003	0.6193
994	0.7424
985	0.801
976	0.7891
967	0.5989
958	0.7761
949	0.7735
940	0.6604
931	0.4915
922	0.3793
913	0.1767
904	0.4898
895	0.6484
886	0.6921
877	0.7082
868	0.7595
859	0.7914
850	0.8062
841	0.5207
832	0.6996
823	0.8184
814	0.8634
805	0.571
796	0.6221
787	0.5583
778	0.7707
769	0.82
760	0.7205
751	0.4958
742	0.7999
733	0.8725
724	0.8982
715	0.9023
706	0.6026
697	0.7249
688	0.8724
679	0.8949
