Infrared Spectrum: 4,4'-(2,3-DIMETHYLTETRAMETHYLENE)DIPYROCATECHOL
Formula: C18 H22 O4
CAS: 500-38-9
State: SOLID (SPLIT MULL), FLUOROLUBE FOR 3800-1330 CM^-^1, NUJOL FOR 1330-400 CM^-^1
Melting point: 182 C
Class: COBLENTZ III
Instrument: BECKMAN IR-9 (GRATING)
Instrument parameters: ORDER CHANGES: 670, 1200, 2000 CM^-^1
Sampling: TRANSMISSION
Resolution: 2
Origin: DOW CHEMICAL COMPANY
1/CM	TRANSMITTANCE
402.967	0.395
411.869	0.407
420.771	0.437
429.673	0.495
438.575	0.575
447.478	0.62
456.38	0.596
465.282	0.645
474.184	0.659
483.086	0.659
491.988	0.639
500.89	0.618
509.792	0.631
518.694	0.656
527.596	0.688
536.499	0.715
545.401	0.698
554.303	0.618
563.205	0.716
572.107	0.717
581.009	0.712
589.911	0.617
598.813	0.596
607.715	0.652
616.617	0.618
625.52	0.632
634.422	0.629
643.324	0.565
652.226	0.571
661.128	0.564
670.03	0.553
678.932	0.557
687.834	0.579
696.736	0.607
705.638	0.649
714.541	0.694
723.443	0.607
732.345	0.587
741.247	0.652
750.149	0.677
759.051	0.6099
767.953	0.567
776.855	0.727
785.757	0.628
794.659	0.325
803.562	0.701
812.464	0.75
821.366	0.621
830.268	0.648
839.17	0.78
848.072	0.787
856.974	0.75
865.876	0.703
874.778	0.713
883.68	0.568
892.583	0.77
901.485	0.772
910.387	0.797
919.289	0.798
928.191	0.783
937.093	0.752
945.995	0.766
954.897	0.708
963.799	0.402
972.701	0.741
981.604	0.775
990.506	0.786
999.408	0.744
1008.31	0.765
1017.21	0.736
1026.11	0.763
1035.02	0.769
1043.92	0.766
1052.82	0.765
1061.72	0.745
1070.62	0.72
1079.53	0.727
1088.43	0.585
1097.33	0.6199
1106.23	0.439
1115.14	0.386
1124.04	0.497
1132.94	0.674
1141.84	0.618
1150.74	0.474
1159.65	0.488
1168.55	0.502
1177.45	0.398
1186.35	0.353
1195.25	0.17
1204.16	0.361
1213.06	0.322
1221.96	0.351
1230.86	0.15
1239.76	0.058
1248.67	0.203
1257.57	0.337
1266.47	0.37
1275.37	0.226
1284.27	0.347
1293.18	0.177
1302.08	0.423
1310.98	0.564
1319.88	0.546
1328.79	0.458
1337.69	0.518
1346.59	0.455
1355.49	0.46
1364.39	0.508
1373.3	0.491
1382.2	0.263
1391.1	0.27
1400	0.311
1408.9	0.56
1417.81	0.689
1426.71	0.703
1435.61	0.407
1444.51	0.182
1453.41	0.455
1462.32	0.541
1471.22	0.558
1480.12	0.779
1489.02	0.815
1497.93	0.775
1506.83	0.675
1515.73	0.199
1524.63	0.291
1533.53	0.5581
1542.44	0.801
1551.34	0.877
1560.24	0.888
1569.14	0.949
1578.04	0.92
1586.95	0.891
1595.85	0.779
1604.75	0.479
1613.65	0.48
1622.55	0.743
1631.46	0.909
1640.36	0.93
1649.26	0.935
1658.16	0.955
1667.07	0.969
1675.97	0.967
1684.87	0.969
1693.77	0.96
1702.67	0.932
1711.58	0.944
1720.48	0.939
1729.38	0.963
1738.28	0.969
1747.18	0.972
1756.09	0.973
1764.99	0.984
1773.89	0.993
1782.79	1.001
1791.69	1
1800.6	1.002
1809.5	1.004
1818.4	1.004
1827.3	1.004
1836.21	1.004
1845.11	1.001
1854.01	0.988
1862.91	0.959
1871.81	0.934
1880.72	0.981
1889.62	0.993
1898.52	0.994
1907.42	0.995
1916.32	0.997
1925.23	1
1934.13	1.001
1943.03	1.001
1951.93	1.001
1960.83	1.002
1969.74	1
1978.64	0.998
1987.54	0.994
1996.44	0.966
2005.35	0.988
2014.25	0.991
2023.15	0.987
2032.05	0.981
2040.95	0.98
2049.86	0.9772
2058.76	0.976
2067.66	0.973
2076.56	0.97
2085.46	0.97
2094.37	0.97
2103.27	0.969
2112.17	0.967
2121.07	0.9652
2129.97	0.9622
2138.88	0.959
2147.78	0.9552
2156.68	0.955
2165.58	0.952
2174.49	0.9466
2183.39	0.9399
2192.29	0.935
2201.19	0.934
2210.09	0.9314
2219	0.9257
2227.9	0.9192
2236.8	0.903
2245.7	0.8994
2254.6	0.8939
2263.51	0.8884
2272.41	0.881
2281.31	0.875
2290.21	0.873
2299.11	0.869
2308.02	0.862
2316.92	0.857
2325.82	0.8535
2334.72	0.85
2343.63	0.85
2352.53	0.849
2361.43	0.849
2370.33	0.847
2379.23	0.85
2388.14	0.8617
2397.04	0.865
2405.94	0.8624
2414.84	0.858
2423.74	0.86
2432.65	0.86
2441.55	0.858
2450.45	0.8585
2459.35	0.858
2468.25	0.8578
2477.16	0.8568
2486.06	0.856
2494.96	0.856
2503.86	0.856
2512.76	0.856
2521.67	0.856
2530.57	0.854
2539.47	0.851
2548.37	0.8499
2557.28	0.8459
2566.18	0.8388
2575.08	0.836
2583.98	0.833
2592.88	0.829
2601.79	0.819
2610.69	0.818
2619.59	0.817
2628.49	0.815
2637.39	0.814
2646.3	0.812
2655.2	0.8138
2664.1	0.8101
2673	0.8013
2681.9	0.798
2690.81	0.7943
2699.71	0.7902
2708.61	0.7776
2717.51	0.7664
2726.42	0.7552
2735.32	0.7472
2744.22	0.744
2753.12	0.74
2762.02	0.74
2770.93	0.7424
2779.83	0.744
2788.73	0.745
2797.63	0.745
2806.53	0.745
2815.44	0.7411
2824.34	0.7262
2833.24	0.7066
2842.14	0.6842
2851.04	0.623
2859.95	0.5028
2868.85	0.4188
2877.75	0.5697
2886.65	0.6446
2895.56	0.6435
2904.46	0.6002
2913.36	0.5292
2922.26	0.4994
2931.16	0.4554
2940.07	0.5233
2948.97	0.5158
2957.87	0.452
2966.77	0.332
2975.67	0.5088
2984.58	0.6168
2993.48	0.6554
3002.38	0.6637
3011.28	0.6431
3020.18	0.6399
3029.09	0.6354
3037.99	0.5877
3046.89	0.5758
3055.79	0.5803
3064.7	0.5663
3073.6	0.5524
3082.5	0.5409
3091.4	0.5253
3100.3	0.5034
3109.21	0.4791
3118.11	0.4502
3127.01	0.4201
3135.91	0.3955
3144.81	0.3634
3153.72	0.3305
3162.62	0.3094
3171.52	0.2757
3180.42	0.2508
3189.32	0.237
3198.23	0.23
3207.13	0.231
3216.03	0.234
3224.93	0.238
3233.84	0.244
3242.74	0.2479
3251.64	0.2547
3260.54	0.261
3269.44	0.261
3278.35	0.2524
3287.25	0.2431
3296.15	0.2262
3305.05	0.22
3313.95	0.2236
3322.86	0.2334
3331.76	0.2604
3340.66	0.2783
3349.56	0.2982
3358.46	0.3117
3367.37	0.314
3376.27	0.317
3385.17	0.317
3394.07	0.317
3402.98	0.3107
3411.88	0.2951
3420.78	0.2847
3429.68	0.2708
3438.58	0.2538
3447.49	0.2161
3456.39	0.1155
3465.29	0.0589
3474.19	0.0952
3483.09	0.2487
3492	0.4177
3500.9	0.512
3509.8	0.5868
3518.7	0.6458
3527.6	0.6992
3536.51	0.7401
3545.41	0.7684
3554.31	0.7872
3563.21	0.8026
3572.11	0.8144
3581.02	0.8244
3589.92	0.8314
3598.82	0.8393
3607.72	0.842
3616.63	0.843
3625.53	0.842
3634.43	0.84
3643.33	0.8405
3652.23	0.84
3661.14	0.837
3670.04	0.843
3678.94	0.8398
3687.84	0.8392
3696.74	0.837
3705.65	0.839
3714.55	0.8363
3723.45	0.832
3732.35	0.829
3741.25	0.8259
3750.16	0.819
3759.06	0.817
3767.96	0.815
3776.86	0.815
3785.77	0.812
3794.67	0.81
3803.57	0.808
