Infrared Spectrum: 3-p-MENTHENE
Formula: C10 H18
CAS: 500-00-5
Class: COBLENTZ
Instrument: Not specified, most likely a prism, grating, or hybrid spectrometer.
Sampling: TRANSMISSION
Resolution: 4
Origin: INTERNATIONAL FLAVORS & FRAGRANCES, INC.
MICROMETERS	TRANSMITTANCE
2.055	0.922
2.09153	0.922
2.12806	0.922
2.16458	0.9199
2.20111	0.92
2.23764	0.9152
2.27417	0.8764
2.3107	0.8552
2.34722	0.865
2.38375	0.879
2.42028	0.884
2.45681	0.8871
2.49334	0.9
2.52986	0.9041
2.56639	0.9071
2.60292	0.91
2.63945	0.9089
2.67598	0.92
2.7125	0.925
2.74903	0.925
2.78556	0.925
2.82209	0.925
2.85862	0.92
2.89514	0.913
2.93167	0.911
2.9682	0.911
3.00473	0.911
3.04126	0.907
3.07778	0.8926
3.11431	0.88
3.15084	0.8809
3.18737	0.8831
3.22389	0.7781
3.26042	0.7097
3.29695	0.4719
3.33348	0.0924
3.37001	0.036
3.40653	0.034
3.44306	0.038
3.47959	0.1521
3.51612	0.6185
3.55265	0.7762
3.58917	0.832
3.6257	0.833
3.66223	0.8451
3.69876	0.868
3.73529	0.876
3.77181	0.8782
3.80834	0.892
3.84487	0.89
3.8814	0.9073
3.91793	0.9221
3.95445	0.933
3.99098	0.932
4.02751	0.931
4.06404	0.935
4.10057	0.938
4.13709	0.9381
4.17362	0.933
4.21015	0.936
4.24668	0.9399
4.28321	0.9478
4.31973	0.9501
4.35626	0.95
4.39279	0.95
4.42932	0.9489
4.46585	0.9452
4.50237	0.951
4.5389	0.952
4.57543	0.953
4.61196	0.958
4.64849	0.959
4.68501	0.959
4.72154	0.958
4.75807	0.962
4.7946	0.962
4.83113	0.9611
4.86765	0.959
4.90418	0.958
4.94071	0.961
4.97724	0.956
5.01377	0.962
5.05029	0.9581
5.08682	0.9534
5.12335	0.955
5.15988	0.958
5.19641	0.956
5.23293	0.955
5.26946	0.952
5.30599	0.9518
5.34252	0.955
5.37904	0.954
5.41557	0.955
5.4521	0.956
5.48863	0.953
5.52516	0.951
5.56168	0.951
5.59821	0.9509
5.63474	0.9454
5.67127	0.9408
5.7078	0.939
5.74432	0.939
5.78085	0.927
5.81738	0.9051
5.85391	0.924
5.89044	0.924
5.92696	0.9152
5.96349	0.8724
6.00002	0.9094
6.03655	0.913
6.07308	0.9204
6.1096	0.923
6.14613	0.9228
6.18266	0.9343
6.21919	0.9326
6.25572	0.938
6.29224	0.931
6.32877	0.939
6.3653	0.936
6.40183	0.9361
6.43836	0.93
6.47488	0.928
6.51141	0.9235
6.54794	0.9154
6.58447	0.896
6.621	0.8728
6.65752	0.8292
6.69405	0.7029
6.73058	0.5086
6.76711	0.3165
6.80364	0.2251
6.84016	0.1993
6.87669	0.3578
6.91322	0.519
6.94975	0.5087
6.98628	0.6827
7.0228	0.7737
7.05933	0.8159
7.09586	0.8217
7.13239	0.7702
7.16892	0.6645
7.20544	0.456
7.24197	0.4286
7.2785	0.4563
7.31503	0.3558
7.35156	0.6471
7.38808	0.7095
7.42461	0.7789
7.46114	0.8018
7.49767	0.7571
7.53419	0.8482
7.57072	0.8638
7.60725	0.8533
7.64378	0.8178
7.68031	0.8223
7.71683	0.8018
7.75336	0.613
7.78989	0.756
7.82642	0.8549
7.86295	0.8794
7.89947	0.885
7.936	0.8501
7.97253	0.7875
8.00906	0.7995
8.04559	0.8453
8.08211	0.8503
8.11864	0.8191
8.15517	0.8539
8.1917	0.886
8.22823	0.878
8.26475	0.8422
8.30128	0.8317
8.33781	0.8533
8.37434	0.8488
8.41087	0.83
8.44739	0.8844
8.48392	0.907
8.52045	0.8901
8.55698	0.8476
8.59351	0.8545
8.63003	0.8695
8.66656	0.881
8.70309	0.854
8.73962	0.7196
8.77615	0.7277
8.81267	0.8021
8.8492	0.862
8.88573	0.8878
8.92226	0.8876
8.95879	0.872
8.99531	0.87
9.03184	0.871
9.06837	0.8662
9.1049	0.8281
9.14143	0.8188
9.17795	0.8186
9.21448	0.815
9.25101	0.778
9.28754	0.7893
9.32407	0.8081
9.36059	0.8735
9.39712	0.88
9.43365	0.8937
9.47018	0.8754
9.50671	0.8433
9.54323	0.8705
9.57976	0.886
9.61629	0.903
9.65282	0.906
9.68934	0.9002
9.72587	0.868
9.7624	0.7867
9.79893	0.6879
9.83546	0.6886
9.87198	0.6261
9.90851	0.7262
9.94504	0.754
9.98157	0.792
10.0181	0.8125
10.0546	0.8431
10.0912	0.8902
10.1277	0.904
10.1642	0.9042
10.2007	0.8876
10.2373	0.8952
10.2738	0.9152
10.3103	0.9263
10.3468	0.926
10.3834	0.9218
10.4199	0.917
10.4564	0.917
10.493	0.916
10.5295	0.916
10.566	0.9084
10.6025	0.9043
10.6391	0.9017
10.6756	0.8861
10.7121	0.8978
10.7487	0.903
10.7852	0.8951
10.8217	0.8825
10.8582	0.8443
10.8948	0.8324
10.9313	0.8549
10.9678	0.87
11.0044	0.8481
11.0409	0.7905
11.0774	0.79
11.1139	0.7235
11.1505	0.4889
11.187	0.5552
11.2235	0.7021
11.26	0.7678
11.2966	0.8072
11.3331	0.8599
11.3696	0.89
11.4062	0.8997
11.4427	0.896
11.4792	0.902
11.5157	0.9162
11.5523	0.9257
11.5888	0.9306
11.6253	0.936
11.6619	0.94
11.6984	0.942
11.7349	0.946
11.7714	0.9477
11.808	0.95
11.8445	0.9463
11.881	0.944
11.9176	0.943
11.9541	0.939
11.9906	0.9379
12.0271	0.93
12.0637	0.926
12.1002	0.9183
12.1367	0.9104
12.1732	0.8933
12.2098	0.8568
12.2463	0.7897
12.2828	0.6299
12.3194	0.4684
12.3559	0.439
12.3924	0.6156
12.4289	0.7646
12.4655	0.8445
12.502	0.859
12.5385	0.853
12.5751	0.8715
12.6116	0.8855
12.6481	0.896
12.6846	0.892
12.7212	0.8934
12.7577	0.9043
12.7942	0.911
12.8308	0.912
12.8673	0.912
12.9038	0.912
12.9403	0.914
12.9769	0.916
13.0134	0.916
13.0499	0.916
13.0864	0.913
13.123	0.913
13.1595	0.913
13.196	0.912
13.2326	0.912
13.2691	0.9085
13.3056	0.8969
13.3421	0.8869
13.3787	0.879
13.4152	0.8858
13.4517	0.8967
13.4883	0.9026
13.5248	0.9053
13.5613	0.9093
13.5978	0.909
13.6344	0.905
13.6709	0.905
13.7074	0.9
13.7439	0.8964
13.7805	0.891
13.817	0.8924
13.8535	0.892
13.8901	0.89
13.9266	0.887
13.9631	0.883
13.9996	0.881
14.0362	0.879
14.0727	0.8776
14.1092	0.876
14.1458	0.871
14.1823	0.868
14.2188	0.8642
14.2553	0.8593
14.2919	0.858
14.3284	0.853
14.3649	0.852
14.4015	0.8478
14.438	0.845
14.4745	0.841
14.511	0.8382
14.5476	0.8345
14.5841	0.827
14.6206	0.8216
14.6571	0.82
14.6937	0.815
14.7302	0.813
14.7667	0.809
14.8033	0.8026
14.8398	0.796
14.8763	0.7904
14.9128	0.7863
14.9494	0.795
14.9859	0.798
