Infrared Spectrum: ACETYLENE, DIPHENYL-
Formula: C14 H10
CAS: 501-65-5
State: SOLUTION (10% CCl4 FOR 3800-1330, 10% CS2 FOR 1330-400 CM^-^1)
Class: COBLENTZ III
Instrument: DOW KBr FOREPRISM-GRATING
Instrument parameters: BLAZED AT 3.5, 12.0, 20.0 MICRON AND CHANGED AT 5.0, 7.5, 14.9 MICRON
Sampling: TRANSMISSION
Path length: 0.011 CM, 0.011 CM
Resolution: 2
Origin: DOW CHEMICAL COMPANY
1/CM	TRANSMITTANCE
391	0.2837
400	0.3051
409	0.4214
418	0.5667
427	0.6558
436	0.7004
445	0.7361
454	0.7543
463	0.7465
472	0.7487
481	0.8004
490	0.7941
499	0.7676
508	0.5093
517	0.7556
526	0.7106
535	0.4362
544	0.7168
553	0.8158
562	0.8518
571	0.8592
580	0.8608
589	0.8603
598	0.8589
607	0.8563
616	0.8501
625	0.8428
634	0.8305
643	0.8042
652	0.768
661	0.7222
670	0.6787
679	0.6403
688	0.1834
697	0.2101
706	0.6138
715	0.7907
724	0.8001
733	0.7621
742	0.7262
751	0.532
760	0.0005
769	0.6715
778	0.766
787	0.827
796	0.8438
805	0.8537
814	0.8511
823	0.8367
832	0.8099
841	0.7724
850	0.745
859	0.7297
868	0.7541
877	0.7686
886	0.8124
895	0.8258
904	0.7914
913	0.3828
922	0.8078
931	0.8643
940	0.8717
949	0.8615
958	0.7364
967	0.8325
976	0.8313
985	0.8401
994	0.8497
1003	0.8612
1012	0.8533
1021	0.8032
1030	0.5352
1039	0.8581
1048	0.866
1057	0.8395
1066	0.6451
1075	0.7785
1084	0.8645
1093	0.8447
1102	0.8478
1111	0.8939
1120	0.8897
1129	0.8806
1138	0.8677
1147	0.8497
1156	0.8071
1165	0.8304
1174	0.7992
1183	0.851
1192	0.8818
1201	0.8877
1210	0.8883
1219	0.8878
1228	0.8831
1237	0.8801
1246	0.8818
1255	0.8718
1264	0.8598
1273	0.8278
1282	0.8525
1291	0.8603
1300	0.8334
1309	0.7453
1318	0.8486
1327	0.8544
1336	0.8655
1345	0.8603
1354	0.8492
1363	0.8451
1372	0.8373
1381	0.8162
1390	0.8645
1399	0.8654
1408	0.8612
1417	0.8535
1426	0.8439
1435	0.8011
1444	0.3489
1453	0.7498
1462	0.8258
1471	0.8101
1480	0.7704
1489	0.531
1498	0.2449
1507	0.577
1516	0.6251
1525	0.578
1534	0.5058
1543	0.4558
1552	0.4524
1561	0.4948
1570	0.5347
1579	0.5725
1588	0.5669
1597	0.5162
1606	0.3289
1615	0.7707
1624	0.8268
1633	0.8554
1642	0.8577
1651	0.8473
1660	0.8097
1669	0.8148
1678	0.8583
1687	0.8652
1696	0.8697
1705	0.8696
1714	0.8664
1723	0.8601
1732	0.8468
1741	0.8131
1750	0.8144
1759	0.8621
1768	0.8607
1777	0.8578
1786	0.8494
1795	0.7899
1804	0.8238
1813	0.8075
1822	0.8147
1831	0.8558
1840	0.8543
1849	0.8483
1858	0.8337
1867	0.8018
1876	0.7638
1885	0.8134
1894	0.7831
1903	0.8571
1912	0.8608
1921	0.8546
1930	0.8428
1939	0.8064
1948	0.7628
1957	0.7911
1966	0.8154
1975	0.8613
1984	0.8697
1993	0.8717
2002	0.8733
2011	0.9039
2020	0.9063
2029	0.9063
2038	0.9063
2047	0.9067
2056	0.9068
2065	0.907
2074	0.9071
2083	0.9071
2092	0.9067
2101	0.9062
2110	0.9057
2119	0.9049
2128	0.9041
2137	0.9039
2146	0.904
2155	0.9039
2164	0.903
2173	0.9018
2182	0.9002
2191	0.8985
2200	0.8955
2209	0.892
2218	0.8885
2227	0.8897
2236	0.8901
2245	0.8874
2254	0.8875
2263	0.8842
2272	0.8786
2281	0.8775
2290	0.8801
2299	0.8816
2308	0.879
2317	0.8756
2326	0.8953
2335	0.9028
2344	0.9038
2353	0.9041
2362	0.9027
2371	0.9002
2380	0.8986
2389	0.8978
2398	0.8978
2407	0.898
2416	0.8981
2425	0.8982
2434	0.8983
2443	0.8983
2452	0.8982
2461	0.8978
2470	0.8977
2479	0.8975
2488	0.8975
2497	0.8974
2506	0.8978
2515	0.8983
2524	0.8983
2533	0.8983
2542	0.8982
2551	0.8981
2560	0.8981
2569	0.8977
2578	0.8953
2587	0.8927
2596	0.8956
2605	0.8956
2614	0.8968
2623	0.8994
2632	0.8996
2641	0.8998
2650	0.8998
2659	0.8998
2668	0.8996
2677	0.899
2686	0.8985
2695	0.8978
2704	0.8974
2713	0.8958
2722	0.8941
2731	0.8909
2740	0.8898
2749	0.8895
2758	0.8957
2767	0.8998
2776	0.9001
2785	0.8998
2794	0.8992
2803	0.8984
2812	0.8975
2821	0.8963
2830	0.8942
2839	0.8918
2848	0.889
2857	0.886
2866	0.8839
2875	0.8851
2884	0.8875
2893	0.8877
2902	0.8866
2911	0.8854
2920	0.8846
2929	0.8838
2938	0.8827
2947	0.8789
2956	0.8746
2965	0.8701
2974	0.8682
2983	0.8649
2992	0.8483
3001	0.8284
3010	0.7993
3019	0.6811
3028	0.6164
3037	0.5837
3046	0.6761
3055	0.577
3064	0.4799
3073	0.632
3082	0.5175
3091	0.6351
3100	0.7453
3109	0.7725
3118	0.8735
3127	0.8751
3136	0.872
3145	0.8681
3154	0.8912
3163	0.8939
3172	0.895
3181	0.8952
3190	0.8951
3199	0.8948
3208	0.8948
3217	0.8948
3226	0.8948
3235	0.8947
3244	0.8946
3253	0.8942
3262	0.8936
3271	0.893
3280	0.8924
3289	0.8917
3298	0.8909
3307	0.8901
3316	0.8893
3325	0.8878
3334	0.886
3343	0.8841
3352	0.8827
3361	0.8815
3370	0.8798
3379	0.8771
3388	0.8758
3397	0.8752
3406	0.8747
3415	0.8752
3424	0.8758
3433	0.8768
3442	0.8778
3451	0.8783
3460	0.8788
3469	0.8783
3478	0.8778
3487	0.8767
3496	0.8751
3505	0.8734
3514	0.8716
3523	0.8691
3532	0.8675
3541	0.8678
3550	0.8718
3559	0.8749
3568	0.876
3577	0.8768
3586	0.8775
3595	0.8782
3604	0.8781
3613	0.8778
3622	0.8775
3631	0.8758
3640	0.8743
3649	0.8739
3658	0.8758
3667	0.8777
3676	0.8794
3685	0.8797
3694	0.8775
3703	0.8756
3712	0.8747
3721	0.8746
3730	0.8748
3739	0.8746
3748	0.8744
3757	0.8741
3766	0.8741
3775	0.874
3784	0.8738
3793	0.8734
