Infrared Spectrum: HYDROCINNAMIC ACID
Formula: C9 H10 O2
CAS: 501-52-0
State: SOLID (MULL)
Melting point: 47-49 C
Class: COBLENTZ
Instrument: Not specified, most likely a prism, grating, or hybrid spectrometer.
Sampling: TRANSMISSION
Resolution: 4
Origin: WYANDOTTE CHEMICALS CORP., WYANDOTTE, MICHIGAN, USA
MICROMETERS	TRANSMITTANCE
2.061	0.928
2.10095	0.918
2.14089	0.92
2.18084	0.91
2.22079	0.89
2.26074	0.88
2.30068	0.878
2.34063	0.885
2.38058	0.865
2.42053	0.865
2.46047	0.88
2.50042	0.892
2.54037	0.913
2.58032	0.935
2.62026	0.955
2.66021	0.966
2.70016	0.975
2.7401	0.981
2.78005	0.991
2.82	1
2.85995	1.001
2.89989	0.996
2.93984	0.971
2.97979	0.877
3.01974	0.728
3.05968	0.567
3.09963	0.402
3.13958	0.303
3.17952	0.222
3.21947	0.16
3.25942	0.107
3.29937	0.079
3.33931	0.041
3.37926	0.028
3.41921	0.024
3.45916	0.023
3.4991	0.033
3.53905	0.096
3.579	0.174
3.61895	0.217
3.65889	0.227
3.69884	0.23
3.73879	0.237
3.77873	0.238
3.81868	0.238
3.85863	0.255
3.89858	0.275
3.93852	0.296
3.97847	0.336
4.01842	0.371
4.05837	0.421
4.09831	0.469
4.13826	0.497
4.17821	0.52
4.21815	0.552
4.2581	0.552
4.29805	0.573
4.338	0.593
4.37794	0.638
4.41789	0.669
4.45784	0.704
4.49779	0.714
4.53773	0.744
4.57768	0.764
4.61763	0.772
4.65758	0.794
4.69752	0.81
4.73747	0.822
4.77742	0.837
4.81736	0.859
4.85731	0.873
4.89726	0.897
4.93721	0.922
4.97715	0.93
5.0171	0.923
5.05705	0.908
5.097	0.89
5.13694	0.8
5.17689	0.794
5.21684	0.878
5.25678	0.88
5.29673	0.849
5.33668	0.794
5.37663	0.776
5.41657	0.8
5.45652	0.789
5.49647	0.751
5.53642	0.698
5.57636	0.693
5.61631	0.663
5.65626	0.606
5.69621	0.499
5.73615	0.339
5.7761	0.102
5.81605	0.039
5.85599	0.039
5.89594	0.051
5.93589	0.061
5.97584	0.135
6.01578	0.182
6.05573	0.265
6.09568	0.364
6.13563	0.424
6.17557	0.323
6.21552	0.452
6.25547	0.447
6.29541	0.543
6.33536	0.582
6.37531	0.613
6.41526	0.623
6.4552	0.65
6.49515	0.674
6.5351	0.686
6.57505	0.62
6.61499	0.419
6.65494	0.331
6.69489	0.407
6.73484	0.32
6.77478	0.129
6.81473	0.096
6.85468	0.046
6.89462	0.041
6.93457	0.039
6.97452	0.059
7.01447	0.074
7.05441	0.049
7.09436	0.077
7.13431	0.19
7.17426	0.245
7.2142	0.187
7.25415	0.192
7.2941	0.228
7.33404	0.228
7.37399	0.26
7.41394	0.253
7.45389	0.22
7.49383	0.19
7.53378	0.152
7.57373	0.112
7.61368	0.056
7.65362	0.031
7.69357	0.033
7.73352	0.053
7.77347	0.063
7.81341	0.079
7.85336	0.137
7.89331	0.227
7.93325	0.266
7.9732	0.293
8.01315	0.296
8.0531	0.255
8.09304	0.167
8.13299	0.087
8.17294	0.056
8.21289	0.056
8.25283	0.079
8.29278	0.126
8.33273	0.18
8.37267	0.242
8.41262	0.296
8.45257	0.353
8.49252	0.439
8.53246	0.47
8.57241	0.482
8.61236	0.396
8.65231	0.519
8.69225	0.611
8.7322	0.665
8.77215	0.709
8.8121	0.724
8.85204	0.757
8.89199	0.759
8.93194	0.742
8.97188	0.721
9.01183	0.749
9.05178	0.771
9.09173	0.757
9.13167	0.635
9.17162	0.446
9.21157	0.399
9.25152	0.53
9.29146	0.653
9.33141	0.716
9.37136	0.731
9.4113	0.737
9.45125	0.699
9.4912	0.568
9.53115	0.567
9.57109	0.655
9.61104	0.636
9.65099	0.555
9.69094	0.515
9.73088	0.557
9.77083	0.601
9.81078	0.61
9.85073	0.606
9.89067	0.582
9.93062	0.477
9.97057	0.466
10.0105	0.525
10.0505	0.542
10.0904	0.527
10.1304	0.5
10.1703	0.485
10.2103	0.444
10.2502	0.411
10.2901	0.381
10.3301	0.366
10.37	0.334
10.41	0.315
10.4499	0.298
10.4899	0.266
10.5298	0.227
10.5698	0.203
10.6097	0.185
10.6497	0.169
10.6896	0.152
10.7296	0.144
10.7695	0.145
10.8095	0.149
10.8494	0.157
10.8894	0.184
10.9293	0.225
10.9692	0.262
11.0092	0.308
11.0491	0.315
11.0891	0.343
11.129	0.391
11.169	0.444
11.2089	0.497
11.2489	0.545
11.2888	0.578
11.3288	0.63
11.3687	0.65
11.4087	0.681
11.4486	0.713
11.4886	0.729
11.5285	0.754
11.5685	0.766
11.6084	0.782
11.6484	0.799
11.6883	0.799
11.7282	0.8
11.7682	0.805
11.8081	0.796
11.8481	0.809
11.888	0.822
11.928	0.83
11.9679	0.84
12.0079	0.852
12.0478	0.877
12.0878	0.887
12.1277	0.864
12.1677	0.797
12.2076	0.759
12.2476	0.815
12.2875	0.86
12.3275	0.868
12.3674	0.845
12.4074	0.812
12.4473	0.81
12.4872	0.815
12.5272	0.8
12.5671	0.733
12.6071	0.616
12.647	0.494
12.687	0.369
12.7269	0.369
12.7669	0.56
12.8068	0.749
12.8468	0.852
12.8867	0.89
12.9267	0.9
12.9666	0.898
13.0066	0.864
13.0465	0.784
13.0865	0.651
13.1264	0.484
13.1664	0.316
13.2063	0.197
13.2462	0.187
13.2862	0.253
13.3261	0.349
13.3661	0.452
13.406	0.533
13.446	0.573
13.4859	0.61
13.5259	0.61
13.5658	0.595
13.6058	0.565
13.6457	0.509
13.6857	0.462
13.7256	0.409
13.7656	0.368
13.8055	0.363
13.8455	0.396
13.8854	0.482
13.9254	0.572
13.9653	0.643
14.0052	0.663
14.0452	0.656
14.0851	0.575
14.1251	0.459
14.165	0.334
14.205	0.228
14.2449	0.167
14.2849	0.145
14.3248	0.126
14.3648	0.135
14.4047	0.155
14.4447	0.22
14.4846	0.295
14.5246	0.386
14.5645	0.442
14.6045	0.456
14.6444	0.459
14.6843	0.451
14.7243	0.446
14.7642	0.446
14.8042	0.472
14.8441	0.519
14.8841	0.563
14.924	0.606
14.964	0.635
15.0039	0.663
15.0439	0.699
15.0838	0.744
15.1238	0.787
15.1637	0.844
15.2037	0.897
15.2436	0.917
15.2836	0.943
15.3235	0.956
15.3635	0.97
15.4034	0.968
15.4433	0.98
15.4833	0.981
15.5232	0.981
15.5632	0.983
15.6031	0.983
15.6431	0.981
15.683	0.975
15.723	0.968
15.7629	0.96
15.8029	0.948
15.8428	0.938
15.8828	0.93
15.9227	0.927
15.9627	0.913
16.0026	0.925
