Infrared Spectrum: PHTHALIMIDE, N-ETHYL-
Formula: C10 H9 N O2
CAS: 5022-29-7
State: SOLUTION (5% CCl4 FOR 3800-1340, 5% CS2 FOR 1340-400 CM^-^1)
Class: COBLENTZ III
Instrument: DOW KBr FOREPRISM-GRATING
Instrument parameters: BLAZED AT 3.5, 12.0, 20.0 MICRON AND CHANGED AT 5.0, 7.5, 14.9 MICRON
Sampling: TRANSMISSION
Path length: 0.011 CM, 0.011 CM
Resolution: 2
Origin: DOW CHEMICAL COMPANY
1/CM	TRANSMITTANCE
382	0.6069
391	0.6182
400	0.636
409	0.6846
418	0.7797
427	0.8268
436	0.8449
445	0.8541
454	0.859
463	0.8615
472	0.8628
481	0.8624
490	0.8589
499	0.8436
508	0.6384
517	0.8365
526	0.7472
535	0.7721
544	0.8645
553	0.8807
562	0.8825
571	0.8862
580	0.8906
589	0.9063
598	0.8736
607	0.8794
616	0.8859
625	0.8787
634	0.8817
643	0.8759
652	0.8539
661	0.8823
670	0.894
679	0.8686
688	0.8252
697	0.836
706	0.661
715	0.2077
724	0.5503
733	0.8275
742	0.8538
751	0.858
760	0.8544
769	0.8511
778	0.7418
787	0.8138
796	0.8332
805	0.8605
814	0.8657
823	0.8625
832	0.8562
841	0.8295
850	0.7408
859	0.7322
868	0.6739
877	0.2006
886	0.674
895	0.6278
904	0.8446
913	0.8652
922	0.8738
931	0.8796
940	0.8735
949	0.8482
958	0.8484
967	0.8705
976	0.8666
985	0.8537
994	0.8363
1003	0.8064
1012	0.7701
1021	0.5964
1030	0.1381
1039	0.3988
1048	0.6133
1057	0.7846
1066	0.7785
1075	0.7456
1084	0.7432
1093	0.6943
1102	0.8337
1111	0.8562
1120	0.8603
1129	0.8608
1138	0.8601
1147	0.8541
1156	0.8178
1165	0.8189
1174	0.7155
1183	0.7861
1192	0.6491
1201	0.3697
1210	0.6167
1219	0.8081
1228	0.8418
1237	0.8391
1246	0.8328
1255	0.8305
1264	0.8266
1273	0.8225
1282	0.8198
1291	0.7985
1300	0.8171
1309	0.7586
1318	0.7926
1327	0.7011
1336	0.3256
1345	0.4275
1354	0.0804
1363	0.571
1372	0.4931
1381	0.1603
1390	0.2641
1399	0.0075
1408	0.2469
1417	0.5618
1426	0.7011
1435	0.6649
1444	0.2702
1453	0.4534
1462	0.5009
1471	0.2771
1480	0.7845
1489	0.7846
1498	0.7425
1507	0.7133
1516	0.6675
1525	0.6176
1534	0.565
1543	0.4902
1552	0.4309
1561	0.4583
1570	0.541
1579	0.5759
1588	0.5825
1597	0.6209
1606	0.7118
1615	0.6826
1624	0.7792
1633	0.824
1642	0.8307
1651	0.8205
1660	0.8228
1669	0.7781
1678	0.6748
1687	0.486
1696	0.4273
1705	0.2719
1714	0.0185
1723	0.0578
1732	0.3492
1741	0.4269
1750	0.573
1759	0.6471
1768	0.389
1777	0.2465
1786	0.5303
1795	0.731
1804	0.8266
1813	0.842
1822	0.8494
1831	0.8528
1840	0.8371
1849	0.8346
1858	0.8532
1867	0.8536
1876	0.853
1885	0.8511
1894	0.8503
1903	0.8486
1912	0.8418
1921	0.844
1930	0.843
1939	0.8425
1948	0.8475
1957	0.859
1966	0.8651
1975	0.8434
1984	0.839
1993	0.8312
2002	0.8493
2011	0.8933
2020	0.9006
2029	0.9056
2038	0.9121
2047	0.8974
2056	0.8956
2065	0.8943
2074	0.8939
2083	0.8953
2092	0.8986
2101	0.8989
2110	0.8997
2119	0.9002
2128	0.9001
2137	0.9001
2146	0.9001
2155	0.9
2164	0.8996
2173	0.8986
2182	0.8986
2191	0.8988
2200	0.8977
2209	0.8948
2218	0.8918
2227	0.8892
2236	0.8864
2245	0.8833
2254	0.8801
2263	0.8768
2272	0.8739
2281	0.8709
2290	0.8678
2299	0.8651
2308	0.8627
2317	0.8602
2326	0.8597
2335	0.8612
2344	0.8649
2353	0.8656
2362	0.8651
2371	0.8644
2380	0.8635
2389	0.8625
2398	0.8612
2407	0.859
2416	0.8565
2425	0.854
2434	0.8565
2443	0.86
2452	0.8597
2461	0.8588
2470	0.8585
2479	0.8583
2488	0.8581
2497	0.858
2506	0.8578
2515	0.857
2524	0.8551
2533	0.8531
2542	0.8508
2551	0.8483
2560	0.8471
2569	0.8462
2578	0.8453
2587	0.8445
2596	0.8439
2605	0.8433
2614	0.8423
2623	0.8409
2632	0.8395
2641	0.8388
2650	0.8386
2659	0.8387
2668	0.8393
2677	0.8371
2686	0.837
2695	0.8368
2704	0.8365
2713	0.837
2722	0.8333
2731	0.8304
2740	0.8289
2749	0.8278
2758	0.827
2767	0.8264
2776	0.8248
2785	0.8199
2794	0.8171
2803	0.8171
2812	0.8178
2821	0.8165
2830	0.815
2839	0.8147
2848	0.8157
2857	0.8121
2866	0.8031
2875	0.7593
2884	0.7315
2893	0.7948
2902	0.7972
2911	0.7998
2920	0.7921
2929	0.7593
2938	0.6674
2947	0.6136
2956	0.6988
2965	0.7339
2974	0.6907
2983	0.5425
2992	0.593
3001	0.7091
3010	0.7875
3019	0.8055
3028	0.8065
3037	0.7999
3046	0.7911
3055	0.7797
3064	0.7681
3073	0.7843
3082	0.781
3091	0.7658
3100	0.7908
3109	0.8097
3118	0.8118
3127	0.8125
3136	0.8117
3145	0.8086
3154	0.8089
3163	0.8124
3172	0.8187
3181	0.8256
3190	0.8334
3199	0.839
3208	0.8421
3217	0.8434
3226	0.8456
3235	0.848
3244	0.85
3253	0.8518
3262	0.8538
3271	0.8557
3280	0.8578
3289	0.8598
3298	0.8617
3307	0.8636
3316	0.8655
3325	0.8674
3334	0.8689
3343	0.8703
3352	0.8718
3361	0.873
3370	0.874
3379	0.8751
3388	0.876
3397	0.8765
3406	0.8752
3415	0.8731
3424	0.8697
3433	0.8673
3442	0.8625
3451	0.8552
3460	0.8434
3469	0.8115
3478	0.8261
3487	0.8531
3496	0.872
3505	0.8768
3514	0.8775
3523	0.8768
3532	0.8748
3541	0.8749
3550	0.877
3559	0.8791
3568	0.88
3577	0.8803
3586	0.8813
3595	0.8825
3604	0.8827
3613	0.8828
3622	0.8828
3631	0.8828
3640	0.8828
3649	0.8827
3658	0.8825
3667	0.8821
3676	0.882
3685	0.8818
3694	0.8815
3703	0.8813
3712	0.8811
3721	0.8804
3730	0.8796
3739	0.8787
3748	0.8778
3757	0.8771
3766	0.8766
3775	0.8768
3784	0.8771
3793	0.8774
