Infrared Spectrum: PYRIDINE, 2-AMINO-
Formula: C5 H6 N2
CAS: 504-29-0
State: SOLUTION (2% IN CCl4 FOR 3800-1330, 2% IN CS2 FOR 1330-400 CM^-^1)
Class: COBLENTZ III
Instrument: DOW KBr FOREPRISM-GRATING
Instrument parameters: BLAZED AT 3.5, 12.0, 20.0 MICRON, CHANGED AT 5.0, 7.5, 14.9 MICRON
Sampling: TRANSMISSION
Path length: 0.054, 0.054 CM
Resolution: 4
Origin: DOW CHEMICAL COMPANY
1/CM	TRANSMITTANCE
445.92	0.465
454.459	0.471
462.998	0.479
471.537	0.489
480.076	0.502
488.615	0.51
497.154	0.504
505.692	0.48
514.231	0.352
522.77	0.368
531.309	0.639
539.848	0.658
548.387	0.655
556.926	0.676
565.465	0.676
574.004	0.658
582.543	0.631
591.082	0.6
599.621	0.576
608.16	0.548
616.699	0.526
625.237	0.4711
633.776	0.449
642.315	0.418
650.854	0.389
659.393	0.436
667.932	0.491
676.471	0.51
685.01	0.522
693.549	0.538
702.088	0.542
710.627	0.536
719.166	0.525
727.705	0.489
736.244	0.105
744.782	0.5499
753.321	0.548
761.86	0.22
770.399	0.013
778.938	0.116
787.477	0.42
796.016	0.5529
804.555	0.605
813.094	0.639
821.633	0.668
830.172	0.652
838.711	0.548
847.25	0.3
855.789	0.232
864.327	0.316
872.866	0.418
881.405	0.529
889.944	0.6899
898.483	0.832
907.022	0.887
915.561	0.912
924.1	0.921
932.639	0.917
941.178	0.912
949.717	0.877
958.256	0.877
966.795	0.889
975.334	0.8181
983.872	0.6931
992.411	0.505
1000.95	0.894
1009.49	0.943
1018.03	0.936
1026.57	0.883
1035.11	0.769
1043.64	0.566
1052.18	0.7019
1060.72	0.892
1069.26	0.934
1077.8	0.96
1086.34	0.974
1094.88	0.97
1103.42	0.974
1111.96	0.957
1120.5	0.902
1129.03	0.906
1137.57	0.838
1146.11	0.4242
1154.65	0.4548
1163.19	0.9
1171.73	0.908
1180.27	0.903
1188.81	0.914
1197.35	0.957
1205.88	0.973
1214.42	0.97
1222.96	0.96
1231.5	0.94
1240.04	0.877
1248.58	0.744
1257.12	0.735
1265.66	0.683
1274.2	0.25
1282.73	0.727
1291.27	0.733
1299.81	0.6369
1308.35	0.3601
1316.89	0.05
1325.43	0.3337
1333.97	0.491
1342.51	0.821
1351.05	0.855
1359.59	0.843
1368.12	0.832
1376.66	0.85
1385.2	0.865
1393.74	0.847
1402.28	0.797
1410.82	0.773
1419.36	0.747
1427.9	0.591
1436.44	0.096
1444.97	0.011
1453.51	0.2321
1462.05	0.548
1470.59	0.4419
1479.13	0.0531
1487.67	0.014
1496.21	0.118
1504.75	0.214
1513.29	0.181
1521.82	0.11
1530.36	0.065
1538.9	0.031
1547.44	0.02
1555.98	0.023
1564.52	0.019
1573.06	0.013
1581.6	0.036
1590.14	0.026
1598.68	0.011
1607.21	0.007
1615.75	0.011
1624.29	0.029
1632.83	0.06
1641.37	0.2411
1649.91	0.569
1658.45	0.664
1666.99	0.708
1675.53	0.75
1684.06	0.813
1692.6	0.831
1701.14	0.852
1709.68	0.866
1718.22	0.884
1726.76	0.9
1735.3	0.912
1743.84	0.921
1752.38	0.928
1760.91	0.933
1769.45	0.934
1777.99	0.928
1786.53	0.924
1795.07	0.914
1803.61	0.886
1812.15	0.872
1820.69	0.865
1829.23	0.837
1837.77	0.846
1846.3	0.871
1854.84	0.883
1863.38	0.887
1871.92	0.893
1880.46	0.9
1889	0.911
1897.54	0.905
1906.08	0.871
1914.62	0.875
1923.15	0.905
1931.69	0.859
1940.23	0.893
1948.77	0.878
1957.31	0.857
1965.85	0.905
1974.39	0.905
1982.93	0.905
1991.47	0.908
2000	0.915
2008.54	0.919
2017.08	0.923
2025.62	0.933
2034.16	0.936
2042.7	0.934
2051.24	0.9372
2059.78	0.9378
2068.32	0.936
2076.86	0.9439
2085.39	0.946
2093.93	0.9503
2102.47	0.9555
2111.01	0.9593
2119.55	0.963
2128.09	0.9616
2136.63	0.958
2145.17	0.9543
2153.71	0.9363
2162.24	0.9302
2170.78	0.9338
2179.32	0.9483
2187.86	0.955
2196.4	0.9578
2204.94	0.96
2213.48	0.958
2222.02	0.9563
2230.56	0.9493
2239.09	0.9409
2247.63	0.9264
2256.17	0.9078
2264.71	0.8863
2273.25	0.8613
2281.79	0.8312
2290.33	0.8125
2298.87	0.813
2307.41	0.8235
2315.95	0.835
2324.48	0.854
2333.02	0.8781
2341.56	0.9014
2350.1	0.9151
2358.64	0.9274
2367.18	0.9342
2375.72	0.948
2384.26	0.9541
2392.8	0.9606
2401.33	0.963
2409.87	0.963
2418.41	0.961
2426.95	0.961
2435.49	0.957
2444.03	0.9499
2452.57	0.9368
2461.11	0.9412
2469.65	0.954
2478.18	0.9633
2486.72	0.968
2495.26	0.97
2503.8	0.9677
2512.34	0.9632
2520.88	0.9547
2529.42	0.9567
2537.96	0.961
2546.5	0.963
2555.04	0.963
2563.57	0.957
2572.11	0.9456
2580.65	0.9373
2589.19	0.9283
2597.73	0.9269
2606.27	0.939
2614.81	0.933
2623.35	0.924
2631.89	0.926
2640.42	0.932
2648.96	0.94
2657.5	0.9455
2666.04	0.946
2674.58	0.945
2683.12	0.9399
2691.66	0.9396
2700.2	0.9436
2708.74	0.9498
2717.27	0.9462
2725.81	0.9486
2734.35	0.949
2742.89	0.9453
2751.43	0.9368
2759.97	0.9381
2768.51	0.9452
2777.05	0.9564
2785.59	0.9642
2794.13	0.965
2802.66	0.967
2811.2	0.9655
2819.74	0.963
2828.28	0.9602
2836.82	0.957
2845.36	0.954
2853.9	0.946
2862.44	0.945
2870.98	0.9454
2879.51	0.9432
2888.05	0.9366
2896.59	0.9282
2905.13	0.9047
2913.67	0.9
2922.21	0.9073
2930.75	0.914
2939.29	0.9106
2947.83	0.8921
2956.36	0.8655
2964.9	0.878
2973.44	0.884
2981.98	0.878
2990.52	0.8626
2999.06	0.8173
3007.6	0.7707
3016.14	0.6032
3024.68	0.399
3033.22	0.4724
3041.75	0.6417
3050.29	0.6706
3058.83	0.66
3067.37	0.5401
3075.91	0.5219
3084.45	0.4654
3092.99	0.6064
3101.53	0.6551
3110.07	0.6852
3118.6	0.6767
3127.14	0.6393
3135.68	0.5901
3144.22	0.546
3152.76	0.5128
3161.3	0.474
3169.84	0.4487
3178.38	0.449
3186.92	0.4681
3195.45	0.4996
3203.99	0.5699
3212.53	0.6326
3221.07	0.6878
3229.61	0.7317
3238.15	0.747
3246.69	0.7499
3255.23	0.752
3263.77	0.748
3272.31	0.727
3280.84	0.6859
3289.38	0.6319
3297.92	0.5706
3306.46	0.5293
3315	0.5221
3323.54	0.5326
3332.08	0.5692
3340.62	0.612
3349.16	0.6529
3357.69	0.6766
3366.23	0.676
3374.77	0.663
3383.31	0.6045
3391.85	0.534
3400.39	0.3483
3408.93	0.1553
3417.47	0.2279
3426.01	0.5449
3434.54	0.7503
3443.08	0.7888
3451.62	0.7733
3460.16	0.738
3468.7	0.6635
3477.24	0.5534
3485.78	0.4697
3494.32	0.3745
3502.86	0.3062
3511.4	0.2789
3519.93	0.3842
3528.47	0.5963
3537.01	0.8049
3545.55	0.8891
3554.09	0.9323
3562.63	0.9536
3571.17	0.9589
3579.71	0.967
3588.25	0.976
3596.78	0.977
3605.32	0.979
3613.86	0.979
3622.4	0.979
3630.94	0.977
3639.48	0.977
3648.02	0.9739
3656.56	0.967
3665.1	0.9628
3673.63	0.9606
3682.17	0.9761
3690.71	0.979
3699.25	0.979
3707.79	0.982
3716.33	0.9864
3724.87	0.988
3733.41	0.989
3741.95	0.988
3750.49	0.9857
3759.02	0.983
3767.56	0.982
3776.1	0.9804
3784.64	0.98
3793.18	0.979
