Infrared Spectrum: 5-METHYL RESORCINOL
Formula: C7 H8 O2
CAS: 504-15-4
State: SOLID (MINERAL OIL MULL)
Melting point: 106-108 C
Class: COBLENTZ
Instrument: Not specified, most likely a prism, grating, or hybrid spectrometer.
Sampling: TRANSMISSION
Resolution: 4
Origin: WYANDOTTE CHEMICALS CORP., WYANDOTTE, MICHIGAN, USA
MICROMETERS	TRANSMITTANCE
2.019	0.654
2.0561	0.662
2.0932	0.666
2.13031	0.683
2.16741	0.703
2.20451	0.693
2.24161	0.693
2.27871	0.703
2.31581	0.724
2.35292	0.734
2.39002	0.728
2.42712	0.741
2.46422	0.761
2.50132	0.768
2.53843	0.793
2.57553	0.812
2.61263	0.821
2.64973	0.841
2.68683	0.849
2.72393	0.855
2.76104	0.854
2.79814	0.849
2.83524	0.798
2.87234	0.71
2.90944	0.567
2.94655	0.418
2.98365	0.246
3.02075	0.128
3.05785	0.077
3.09495	0.068
3.13205	0.08
3.16916	0.117
3.20626	0.17
3.24336	0.234
3.28046	0.288
3.31756	0.272
3.35467	0.117
3.39177	0.027
3.42887	0.038
3.46597	0.079
3.50307	0.083
3.54017	0.206
3.57728	0.542
3.61438	0.582
3.65148	0.589
3.68858	0.59
3.72568	0.598
3.76279	0.598
3.79989	0.612
3.83699	0.64
3.87409	0.638
3.91119	0.663
3.94829	0.688
3.9854	0.689
4.0225	0.68
4.0596	0.68
4.0967	0.689
4.1338	0.736
4.17091	0.758
4.20801	0.773
4.24511	0.79
4.28221	0.793
4.31931	0.81
4.35641	0.829
4.39352	0.818
4.43062	0.82
4.46772	0.832
4.50482	0.855
4.54192	0.863
4.57903	0.862
4.61613	0.866
4.65323	0.862
4.69033	0.869
4.72743	0.879
4.76453	0.852
4.80164	0.891
4.83874	0.903
4.87584	0.908
4.91294	0.91
4.95004	0.906
4.98715	0.91
5.02425	0.919
5.06135	0.919
5.09845	0.922
5.13555	0.913
5.17265	0.917
5.20976	0.933
5.24686	0.924
5.28396	0.936
5.32106	0.934
5.35816	0.93
5.39527	0.941
5.43237	0.93
5.46947	0.936
5.50657	0.95
5.54367	0.95
5.58077	0.944
5.61788	0.959
5.65498	0.948
5.69208	0.934
5.72918	0.891
5.76628	0.902
5.80338	0.914
5.84049	0.9
5.87759	0.882
5.91469	0.826
5.95179	0.817
5.98889	0.809
6.026	0.768
6.0631	0.455
6.1002	0.232
6.1373	0.249
6.1744	0.136
6.2115	0.063
6.24861	0.232
6.28571	0.475
6.32281	0.593
6.35991	0.638
6.39701	0.652
6.43412	0.641
6.47122	0.592
6.50832	0.491
6.54542	0.282
6.58252	0.167
6.61962	0.217
6.65673	0.187
6.69383	0.147
6.73093	0.1
6.76803	0.091
6.80513	0.111
6.84224	0.168
6.87934	0.224
6.91644	0.328
6.95354	0.426
6.99064	0.513
7.02774	0.596
7.06485	0.609
7.10195	0.59
7.13905	0.524
7.17615	0.398
7.21325	0.265
7.25036	0.223
7.28746	0.299
7.32456	0.37
7.36166	0.418
7.39876	0.365
7.43586	0.26
7.47297	0.102
7.51007	0.072
7.54717	0.1
7.58427	0.114
7.62137	0.124
7.65848	0.102
7.69558	0.161
7.73268	0.241
7.76978	0.311
7.80688	0.37
7.84398	0.42
7.88109	0.463
7.91819	0.517
7.95529	0.555
7.99239	0.582
8.02949	0.615
8.0666	0.638
8.1037	0.652
8.1408	0.649
8.1779	0.581
8.215	0.415
8.2521	0.336
8.28921	0.345
8.32631	0.437
8.36341	0.548
8.40051	0.603
8.43761	0.634
8.47472	0.629
8.51182	0.568
8.54892	0.41
8.58602	0.215
8.62312	0.069
8.66022	0.068
8.69733	0.052
8.73443	0.074
8.77153	0.179
8.80863	0.3
8.84573	0.395
8.88284	0.457
8.91994	0.485
8.95704	0.505
8.99414	0.527
9.03124	0.555
9.06834	0.579
9.10545	0.584
9.14255	0.595
9.17965	0.6
9.21675	0.603
9.25385	0.613
9.29096	0.624
9.32806	0.64
9.36516	0.657
9.40226	0.666
9.43936	0.679
9.47646	0.666
9.51357	0.652
9.55067	0.606
9.58777	0.511
9.62487	0.364
9.66197	0.262
9.69908	0.277
9.73618	0.362
9.77328	0.446
9.81038	0.505
9.84748	0.545
9.88458	0.576
9.92169	0.601
9.95879	0.617
9.99589	0.59
10.033	0.655
10.0701	0.649
10.1072	0.634
10.1443	0.582
10.1814	0.441
10.2185	0.178
10.2556	0.151
10.2927	0.136
10.3298	0.178
10.3669	0.308
10.404	0.434
10.4411	0.522
10.4782	0.592
10.5153	0.632
10.5524	0.665
10.5895	0.688
10.6266	0.703
10.6637	0.722
10.7008	0.731
10.7379	0.744
10.775	0.748
10.8121	0.753
10.8492	0.761
10.8863	0.767
10.9234	0.775
10.9605	0.792
10.9976	0.8
11.0347	0.813
11.0718	0.817
11.1089	0.821
11.146	0.824
11.1831	0.821
11.2202	0.82
11.2574	0.823
11.2945	0.823
11.3316	0.824
11.3687	0.826
11.4058	0.831
11.4429	0.829
11.48	0.829
11.5171	0.831
11.5542	0.826
11.5913	0.813
11.6284	0.809
11.6655	0.781
11.7026	0.72
11.7397	0.662
11.7768	0.652
11.8139	0.551
11.851	0.413
11.8881	0.444
11.9252	0.463
11.9623	0.555
11.9994	0.609
12.0365	0.527
12.0736	0.341
12.1107	0.255
12.1478	0.269
12.1849	0.269
12.222	0.356
12.2591	0.457
12.2962	0.564
12.3333	0.516
12.3704	0.534
12.4075	0.646
12.4446	0.672
12.4817	0.689
12.5188	0.697
12.5559	0.706
12.593	0.708
12.6301	0.705
12.6672	0.703
12.7043	0.691
12.7414	0.685
12.7785	0.675
12.8156	0.669
12.8527	0.663
12.8898	0.655
12.9269	0.651
12.964	0.644
13.0011	0.641
13.0382	0.637
13.0753	0.632
13.1124	0.617
13.1495	0.612
13.1866	0.603
13.2237	0.601
13.2608	0.592
13.298	0.589
13.3351	0.581
13.3722	0.573
13.4093	0.57
13.4464	0.558
13.4835	0.539
13.5206	0.531
13.5577	0.52
13.5948	0.514
13.6319	0.505
13.669	0.5
13.7061	0.493
13.7432	0.488
13.7803	0.472
13.8174	0.475
13.8545	0.469
13.8916	0.463
13.9287	0.46
13.9658	0.468
14.0029	0.465
14.04	0.475
14.0771	0.469
14.1142	0.469
14.1513	0.472
14.1884	0.479
14.2255	0.479
14.2626	0.475
14.2997	0.472
14.3368	0.475
14.3739	0.479
14.411	0.485
14.4481	0.479
14.4852	0.472
14.5223	0.472
14.5594	0.468
14.5965	0.462
14.6336	0.443
14.6707	0.427
14.7078	0.412
14.7449	0.398
14.782	0.375
14.8191	0.362
14.8562	0.358
14.8933	0.393
14.9304	0.435
14.9675	0.471
15.0046	0.488
15.0417	0.496
15.0788	0.494
15.1159	0.483
15.153	0.485
15.1901	0.489
15.2272	0.496
15.2643	0.499
15.3014	0.499
15.3386	0.493
15.3757	0.489
15.4128	0.483
15.4499	0.472
15.487	0.475
15.5241	0.48
15.5612	0.48
15.5983	0.488
15.6354	0.489
15.6725	0.497
15.7096	0.493
15.7467	0.493
15.7838	0.497
15.8209	0.499
15.858	0.506
15.8951	0.516
15.9322	0.513
15.9693	0.517
