Infrared Spectrum: ARACHIDIC ACID (SYNTHETIC)
Formula: C20 H40 O2
CAS: 506-30-9
State: SOLID (MINERAL OIL MULL)
Melting point: 74.5-76.5 C
Class: COBLENTZ
Instrument: Not specified, most likely a prism, grating, or hybrid spectrometer.
Sampling: TRANSMISSION
Resolution: 4
Origin: WYANDOTTE CHEMICALS CORP., WYANDOTTE, MICHIGAN, USA
MICROMETERS	TRANSMITTANCE
2.034	0.94
2.07484	0.943
2.11567	0.94
2.15651	0.929
2.19734	0.875
2.23818	0.844
2.27901	0.847
2.31985	0.842
2.36068	0.873
2.40152	0.897
2.44235	0.917
2.48319	0.921
2.52402	0.924
2.56486	0.935
2.60569	0.931
2.64653	0.943
2.68736	0.947
2.7282	0.94
2.76903	0.95
2.80987	0.947
2.8507	0.94
2.89154	0.931
2.93237	0.921
2.97321	0.9
3.01404	0.856
3.05488	0.81
3.09571	0.704
3.13655	0.623
3.17738	0.553
3.21822	0.483
3.25905	0.415
3.29989	0.35
3.34072	0.117
3.38156	0.03
3.42239	0.03
3.46323	0.03
3.50406	0.044
3.5449	0.23
3.58573	0.435
3.62657	0.543
3.6674	0.562
3.70824	0.574
3.74907	0.572
3.78991	0.579
3.83074	0.63
3.87158	0.671
3.91241	0.712
3.95325	0.729
3.99408	0.769
4.03492	0.803
4.07575	0.827
4.11659	0.851
4.15742	0.856
4.19826	0.864
4.23909	0.87
4.27993	0.866
4.32076	0.873
4.3616	0.895
4.40244	0.916
4.44327	0.921
4.48411	0.921
4.52494	0.933
4.56578	0.943
4.60661	0.945
4.64745	0.945
4.68828	0.941
4.72912	0.952
4.76995	0.96
4.81079	0.967
4.85162	0.974
4.89246	0.967
4.93329	0.962
4.97413	0.965
5.01496	0.962
5.0558	0.953
5.09663	0.958
5.13747	0.958
5.1783	0.96
5.21914	0.953
5.25997	0.945
5.30081	0.936
5.34164	0.933
5.38248	0.938
5.42331	0.935
5.46415	0.929
5.50498	0.924
5.54582	0.899
5.58665	0.888
5.62749	0.89
5.66832	0.883
5.70916	0.835
5.74999	0.676
5.79083	0.335
5.83166	0.044
5.8725	0.049
5.91333	0.061
5.95417	0.241
5.995	0.478
6.03584	0.646
6.07667	0.731
6.11751	0.769
6.15834	0.796
6.19918	0.82
6.24001	0.832
6.28085	0.851
6.32168	0.852
6.36252	0.854
6.40335	0.858
6.44419	0.852
6.48502	0.851
6.52586	0.842
6.56669	0.842
6.60753	0.817
6.64836	0.791
6.6892	0.712
6.73004	0.528
6.77087	0.126
6.81171	0.056
6.85254	0.148
6.89338	0.217
6.93421	0.276
6.97505	0.432
7.01588	0.577
7.05672	0.482
7.09755	0.386
7.13839	0.647
7.17922	0.68
7.22006	0.488
7.26089	0.295
7.30173	0.425
7.34256	0.589
7.3834	0.642
7.42423	0.634
7.46507	0.675
7.5059	0.649
7.54674	0.704
7.58757	0.553
7.62841	0.577
7.66924	0.47
7.71008	0.439
7.75091	0.523
7.79175	0.447
7.83258	0.658
7.87342	0.627
7.91425	0.656
7.95509	0.75
7.99592	0.56
8.03676	0.738
8.07759	0.699
8.11843	0.591
8.15926	0.764
8.2001	0.642
8.24093	0.598
8.28177	0.765
8.3226	0.623
8.36344	0.68
8.40427	0.788
8.44511	0.671
8.48594	0.794
8.52678	0.815
8.56761	0.813
8.60845	0.822
8.64928	0.83
8.69012	0.832
8.73095	0.846
8.77179	0.861
8.81262	0.87
8.85346	0.863
8.89429	0.83
8.93513	0.83
8.97596	0.839
9.0168	0.777
9.05764	0.837
9.09847	0.861
9.13931	0.858
9.18014	0.852
9.22098	0.837
9.26181	0.811
9.30265	0.829
9.34348	0.841
9.38432	0.83
9.42515	0.815
9.46599	0.82
9.50682	0.815
9.54766	0.796
9.58849	0.811
9.62933	0.823
9.67016	0.82
9.711	0.813
9.75183	0.803
9.79267	0.803
9.8335	0.813
9.87434	0.817
9.91517	0.815
9.95601	0.806
9.99684	0.805
10.0377	0.803
10.0785	0.801
10.1193	0.8
10.1602	0.784
10.201	0.774
10.2419	0.747
10.2827	0.712
10.3235	0.67
10.3644	0.641
10.4052	0.642
10.446	0.637
10.4869	0.62
10.5277	0.601
10.5685	0.581
10.6094	0.57
10.6502	0.562
10.691	0.562
10.7319	0.558
10.7727	0.577
10.8135	0.589
10.8544	0.57
10.8952	0.547
10.936	0.516
10.9769	0.505
11.0177	0.502
11.0586	0.49
11.0994	0.418
11.1402	0.381
11.1811	0.405
11.2219	0.394
11.2627	0.398
11.3036	0.42
11.3444	0.47
11.3852	0.531
11.4261	0.579
11.4669	0.613
11.5077	0.642
11.5486	0.661
11.5894	0.678
11.6302	0.69
11.6711	0.697
11.7119	0.697
11.7528	0.702
11.7936	0.705
11.8344	0.711
11.8753	0.712
11.9161	0.723
11.9569	0.724
11.9978	0.719
12.0386	0.74
12.0794	0.772
12.1203	0.791
12.1611	0.801
12.2019	0.808
12.2428	0.811
12.2836	0.813
12.3244	0.817
12.3653	0.815
12.4061	0.815
12.4469	0.813
12.4878	0.827
12.5286	0.837
12.5695	0.839
12.6103	0.846
12.6511	0.839
12.692	0.834
12.7328	0.817
12.7736	0.779
12.8145	0.777
12.8553	0.818
12.8961	0.83
12.937	0.829
12.9778	0.827
13.0186	0.822
13.0595	0.825
13.1003	0.818
13.1411	0.817
13.182	0.817
13.2228	0.818
13.2636	0.818
13.3045	0.805
13.3453	0.788
13.3862	0.75
13.427	0.729
13.4678	0.736
13.5087	0.752
13.5495	0.738
13.5903	0.695
13.6312	0.632
13.672	0.502
13.7128	0.348
13.7537	0.29
13.7945	0.379
13.8353	0.482
13.8762	0.509
13.917	0.394
13.9578	0.312
13.9987	0.442
14.0395	0.632
14.0804	0.712
14.1212	0.755
14.162	0.779
14.2029	0.798
14.2437	0.803
14.2845	0.8
14.3254	0.81
14.3662	0.796
14.407	0.801
14.4479	0.779
14.4887	0.762
14.5295	0.743
14.5704	0.726
14.6112	0.704
14.652	0.692
14.6929	0.69
14.7337	0.69
14.7745	0.7
14.8154	0.716
14.8562	0.733
14.8971	0.745
14.9379	0.758
14.9787	0.767
15.0196	0.767
15.0604	0.752
15.1012	0.752
15.1421	0.789
15.1829	0.803
15.2237	0.808
15.2646	0.806
15.3054	0.801
15.3462	0.794
15.3871	0.796
15.4279	0.791
15.4687	0.789
15.5096	0.788
15.5504	0.782
15.5912	0.782
15.6321	0.774
15.6729	0.767
15.7138	0.764
15.7546	0.757
15.7954	0.752
15.8363	0.748
15.8771	0.745
15.9179	0.731
15.9588	0.723
15.9996	0.724
