Infrared Spectrum: N-HEPTADECANOIC ACID
Formula: C17 H34 O2
CAS: 506-12-7
State: SOLID (MINERAL OIL MULL)
Melting point: 60-61 C
Class: COBLENTZ
Instrument: Not specified, most likely a prism, grating, or hybrid spectrometer.
Sampling: TRANSMISSION
Resolution: 4
Origin: WYANDOTTE CHEMICALS CORP., WYANDOTTE, MICHIGAN, USA
MICROMETERS	TRANSMITTANCE
2.014	0.923
2.05479	0.925
2.09559	0.93
2.13638	0.93
2.17718	0.879
2.21797	0.766
2.25876	0.822
2.29956	0.798
2.34035	0.813
2.38115	0.849
2.42194	0.884
2.46274	0.905
2.50353	0.903
2.54432	0.925
2.58512	0.915
2.62591	0.937
2.66671	0.945
2.7075	0.935
2.74829	0.94
2.78909	0.952
2.82988	0.949
2.87068	0.923
2.91147	0.91
2.95227	0.891
2.99306	0.867
3.03385	0.81
3.07465	0.698
3.11544	0.594
3.15624	0.488
3.19703	0.388
3.23782	0.271
3.27862	0.218
3.31941	0.159
3.36021	0.071
3.401	0.022
3.4418	0.023
3.48259	0.022
3.52338	0.035
3.56418	0.096
3.60497	0.227
3.64577	0.318
3.68656	0.33
3.72735	0.327
3.76815	0.325
3.80894	0.347
3.84974	0.391
3.89053	0.45
3.93133	0.491
3.97212	0.533
4.01291	0.603
4.05371	0.654
4.0945	0.705
4.1353	0.733
4.17609	0.754
4.21688	0.767
4.25768	0.754
4.29847	0.776
4.33927	0.827
4.38006	0.855
4.42086	0.861
4.46165	0.857
4.50244	0.877
4.54324	0.894
4.58403	0.906
4.62483	0.901
4.66562	0.908
4.70641	0.92
4.74721	0.923
4.788	0.94
4.8288	0.935
4.86959	0.95
4.91039	0.954
4.95118	0.95
4.99197	0.94
5.03277	0.944
5.07356	0.944
5.11436	0.942
5.15515	0.932
5.19594	0.928
5.23674	0.923
5.27753	0.922
5.31833	0.915
5.35912	0.9
5.39992	0.898
5.44071	0.889
5.4815	0.884
5.5223	0.849
5.56309	0.815
5.60389	0.828
5.64468	0.813
5.68547	0.781
5.72627	0.703
5.76706	0.474
5.80786	0.132
5.84865	0.03
5.88944	0.032
5.93024	0.055
5.97103	0.186
6.01183	0.528
6.05262	0.616
6.09342	0.728
6.13421	0.784
6.175	0.825
6.2158	0.835
6.25659	0.854
6.29739	0.838
6.33818	0.855
6.37897	0.85
6.41977	0.874
6.46056	0.862
6.50136	0.874
6.54215	0.854
6.58295	0.845
6.62374	0.805
6.66453	0.701
6.70533	0.476
6.74612	0.247
6.78692	0.079
6.82771	0.03
6.8685	0.106
6.9093	0.138
6.95009	0.193
6.99089	0.315
7.03168	0.333
7.07248	0.186
7.11327	0.406
7.15406	0.649
7.19486	0.552
7.23565	0.345
7.27645	0.238
7.31724	0.394
7.35803	0.508
7.39883	0.488
7.43962	0.51
7.48042	0.506
7.52121	0.572
7.56201	0.281
7.6028	0.23
7.64359	0.191
7.68439	0.311
7.72518	0.403
7.76598	0.337
7.80677	0.33
7.84756	0.55
7.88836	0.481
7.92915	0.332
7.96995	0.649
8.01074	0.549
8.05154	0.361
8.09233	0.681
8.13312	0.618
8.17392	0.333
8.21471	0.615
8.25551	0.625
8.2963	0.403
8.33709	0.281
8.37789	0.649
8.41868	0.332
8.45948	0.574
8.50027	0.708
8.54107	0.732
8.58186	0.75
8.62265	0.772
8.66345	0.796
8.70424	0.816
8.74504	0.835
8.78583	0.816
8.82662	0.711
8.86742	0.708
8.90821	0.642
8.94901	0.733
8.9898	0.781
9.0306	0.772
9.07139	0.744
9.11218	0.813
9.15298	0.847
9.19377	0.854
9.23457	0.833
9.27536	0.781
9.31615	0.676
9.35695	0.74
9.39774	0.806
9.43854	0.8
9.47933	0.833
9.52013	0.838
9.56092	0.82
9.60171	0.791
9.64251	0.798
9.6833	0.81
9.7241	0.82
9.76489	0.783
9.80568	0.779
9.84648	0.786
9.88727	0.771
9.92807	0.759
9.96886	0.769
10.0097	0.744
10.0504	0.73
10.0912	0.708
10.132	0.666
10.1728	0.613
10.2136	0.564
10.2544	0.569
10.2952	0.559
10.336	0.535
10.3768	0.508
10.4176	0.476
10.4584	0.447
10.4992	0.416
10.54	0.396
10.5808	0.372
10.6216	0.335
10.6624	0.293
10.7032	0.252
10.7439	0.215
10.7847	0.183
10.8255	0.196
10.8663	0.24
10.9071	0.267
10.9479	0.284
10.9887	0.279
11.0295	0.269
11.0703	0.288
11.1111	0.35
11.1519	0.416
11.1927	0.452
11.2335	0.472
11.2743	0.488
11.3151	0.557
11.3559	0.596
11.3967	0.615
11.4375	0.633
11.4782	0.649
11.519	0.661
11.5598	0.672
11.6006	0.683
11.6414	0.7
11.6822	0.713
11.723	0.727
11.7638	0.738
11.8046	0.749
11.8454	0.759
11.8862	0.771
11.927	0.783
11.9678	0.793
12.0086	0.803
12.0494	0.803
12.0902	0.767
12.131	0.696
12.1717	0.738
12.2125	0.837
12.2533	0.861
12.2941	0.867
12.3349	0.876
12.3757	0.879
12.4165	0.881
12.4573	0.883
12.4981	0.884
12.5389	0.879
12.5797	0.852
12.6205	0.845
12.6613	0.891
12.7021	0.906
12.7429	0.906
12.7837	0.903
12.8245	0.903
12.8652	0.893
12.906	0.872
12.9468	0.833
12.9876	0.755
13.0284	0.733
13.0692	0.847
13.11	0.881
13.1508	0.894
13.1916	0.898
13.2324	0.894
13.2732	0.883
13.314	0.862
13.3548	0.832
13.3956	0.837
13.4364	0.83
13.4772	0.798
13.518	0.752
13.5587	0.696
13.5995	0.603
13.6403	0.545
13.6811	0.489
13.7219	0.311
13.7627	0.213
13.8035	0.342
13.8443	0.413
13.8851	0.327
13.9259	0.247
13.9667	0.208
14.0075	0.484
14.0483	0.64
14.0891	0.725
14.1299	0.761
14.1707	0.783
14.2115	0.786
14.2522	0.779
14.293	0.769
14.3338	0.745
14.3746	0.713
14.4154	0.683
14.4562	0.664
14.497	0.65
14.5378	0.647
14.5786	0.644
14.6194	0.637
14.6602	0.635
14.701	0.632
14.7418	0.627
14.7826	0.64
14.8234	0.676
14.8642	0.708
14.905	0.732
14.9457	0.755
14.9865	0.761
15.0273	0.74
15.0681	0.742
15.1089	0.766
15.1497	0.8
15.1905	0.808
15.2313	0.808
15.2721	0.801
15.3129	0.793
15.3537	0.789
15.3945	0.784
15.4353	0.777
15.4761	0.769
15.5169	0.766
15.5577	0.761
15.5985	0.761
15.6392	0.755
15.68	0.75
15.7208	0.742
15.7616	0.735
15.8024	0.73
15.8432	0.718
15.884	0.706
15.9248	0.698
15.9656	0.691
