Infrared Spectrum: Butyric acid, 2-bromo-4-hydroxy-, Gamma-lactone
Formula: C4 H5 Br O2
CAS: 5061-21-2
State: LIQUID (NEAT)
Class: COBLENTZ III
Instrument: PERKIN-ELMER 21 (GRATING)
Instrument parameters: FILTER CHANGE ABOUT 1090 CM^-^1
Path length: CAPILLARY
Resolution: 2
Origin: SOUTHERN RESEARCH INSTITUTE
1/CM	TRANSMITTANCE
604	0.7335
612	0.7287
620	0.7257
628	0.7226
636	0.7096
644	0.6808
652	0.6137
660	0.534
668	0.4757
676	0.3863
684	0.4057
692	0.615
700	0.7129
708	0.8435
716	0.8513
724	0.8504
732	0.85
740	0.83
748	0.6911
756	0.7312
764	0.7193
772	0.8169
780	0.8504
788	0.865
796	0.8663
804	0.8621
812	0.8422
820	0.8213
828	0.7991
836	0.7522
844	0.6334
852	0.7646
860	0.8098
868	0.804
876	0.7696
884	0.6637
892	0.3629
900	0.3916
908	0.5926
916	0.6058
924	0.6744
932	0.56
940	0.5731
948	0.5857
956	0.6731
964	0.7467
972	0.7383
980	0.711
988	0.3302
996	0.1253
1004	0.3593
1012	0.462
1020	0.1937
1028	0.2051
1036	0.1213
1044	0.3002
1052	0.4588
1060	0.3781
1068	0.634
1076	0.7413
1084	0.7555
1092	0.7148
1100	0.7842
1108	0.7895
1116	0.7531
1124	0.7024
1132	0.6388
1140	0.5459
1148	0.143
1156	0.063
1164	0.0479
1172	0.055
1180	0.0687
1188	0.1331
1196	0.1617
1204	0.089
1212	0.1177
1220	0.1142
1228	0.2014
1236	0.4162
1244	0.5483
1252	0.6288
1260	0.5828
1268	0.6361
1276	0.6341
1284	0.6358
1292	0.7461
1300	0.7424
1308	0.7141
1316	0.6512
1324	0.7217
1332	0.8079
1340	0.8143
1348	0.8062
1356	0.7823
1364	0.7493
1372	0.5823
1380	0.2374
1388	0.3996
1396	0.6122
1404	0.7499
1412	0.7678
1420	0.7646
1428	0.7284
1436	0.698
1444	0.5178
1452	0.6115
1460	0.678
1468	0.7622
1476	0.7534
1484	0.5498
1492	0.659
1500	0.8398
1508	0.8744
1516	0.8853
1524	0.8907
1532	0.8906
1540	0.8889
1548	0.8889
1556	0.8901
1564	0.8915
1572	0.8854
1580	0.8755
1588	0.8684
1596	0.8562
1604	0.8347
1612	0.8157
1620	0.807
1628	0.8055
1636	0.8114
1644	0.8124
1652	0.8023
1660	0.7964
1668	0.7719
1676	0.7572
1684	0.7494
1692	0.7265
1700	0.6803
1708	0.6087
1716	0.485
1724	0.327
1732	0.2564
1740	0.2212
1748	0.1132
1756	0.0532
1764	0.0313
1772	0.0289
1780	0.0322
1788	0.0706
1796	0.0935
1804	0.2731
1812	0.4295
1820	0.5073
1828	0.5638
1836	0.6342
1844	0.6999
1852	0.7557
1860	0.7842
1868	0.8018
1876	0.8146
1884	0.8215
1892	0.8246
1900	0.8418
1908	0.8425
1916	0.8439
1924	0.8454
1932	0.8506
1940	0.8641
1948	0.8684
1956	0.8695
1964	0.8698
1972	0.8691
1980	0.8706
1988	0.8733
1996	0.8713
2004	0.8678
2012	0.8672
2020	0.8666
2028	0.866
2036	0.8647
2044	0.8632
2052	0.8566
2060	0.8553
2068	0.8577
2076	0.8669
2084	0.8707
2092	0.8774
2100	0.8784
2108	0.8819
2116	0.8844
2124	0.8807
2132	0.8836
2140	0.8832
2148	0.8819
2156	0.8797
2164	0.8786
2172	0.8787
2180	0.8794
2188	0.8799
2196	0.8797
2204	0.8747
2212	0.8686
2220	0.8679
2228	0.8664
2236	0.8647
2244	0.8591
2252	0.8552
2260	0.8578
2268	0.8595
2276	0.8582
2284	0.8529
2292	0.8465
2300	0.844
2308	0.8415
2316	0.8391
2324	0.8389
2332	0.8377
2340	0.8351
2348	0.8343
2356	0.8356
2364	0.8377
2372	0.8384
2380	0.8384
2388	0.8384
2396	0.839
2404	0.8397
2412	0.841
2420	0.8422
2428	0.8424
2436	0.8362
2444	0.8242
2452	0.8238
2460	0.8239
2468	0.8242
2476	0.8247
2484	0.8244
2492	0.8235
2500	0.8225
2508	0.8214
2516	0.8199
2524	0.819
2532	0.8192
2540	0.8215
2548	0.827
2556	0.8275
2564	0.8252
2572	0.8211
2580	0.8203
2588	0.8221
2596	0.8247
2604	0.8197
2612	0.8167
2620	0.817
2628	0.817
2636	0.8168
2644	0.8222
2652	0.8225
2660	0.8193
2668	0.8154
2676	0.8154
2684	0.8159
2692	0.8166
2700	0.8182
2708	0.8227
2716	0.8227
2724	0.8209
2732	0.8152
2740	0.8117
2748	0.8123
2756	0.8179
2764	0.8176
2772	0.8138
2780	0.8077
2788	0.8033
2796	0.8023
2804	0.8015
2812	0.7971
2820	0.7894
2828	0.7823
2836	0.7757
2844	0.7686
2852	0.7616
2860	0.7534
2868	0.7451
2876	0.7369
2884	0.7253
2892	0.7034
2900	0.6795
2908	0.6565
2916	0.6237
2924	0.6107
2932	0.6125
2940	0.613
2948	0.6093
2956	0.6019
2964	0.5904
2972	0.5812
2980	0.578
2988	0.5835
2996	0.5875
3004	0.5995
3012	0.6009
3020	0.6024
3028	0.6096
3036	0.6255
3044	0.6505
3052	0.6705
3060	0.6875
3068	0.7059
3076	0.7298
3084	0.7399
3092	0.7446
3100	0.7479
3108	0.7504
3116	0.7553
3124	0.7569
3132	0.7558
3140	0.7519
3148	0.7511
3156	0.7539
3164	0.7529
3172	0.7536
3180	0.7616
3188	0.7617
3196	0.7595
3204	0.7604
3212	0.7624
3220	0.7628
3228	0.765
3236	0.7743
3244	0.7764
3252	0.7782
3260	0.7804
3268	0.7829
3276	0.7849
3284	0.785
3292	0.7848
3300	0.785
3308	0.786
3316	0.79
3324	0.7932
3332	0.7913
3340	0.7913
3348	0.7893
3356	0.7919
3364	0.7925
3372	0.7954
3380	0.7895
3388	0.7855
3396	0.7845
3404	0.7841
3412	0.7842
3420	0.785
3428	0.786
3436	0.787
3444	0.7858
3452	0.7795
3460	0.7761
3468	0.7734
3476	0.7706
3484	0.7669
3492	0.7554
3500	0.7442
3508	0.7341
3516	0.7298
3524	0.7263
3532	0.7233
3540	0.7211
3548	0.7211
3556	0.7216
3564	0.7232
3572	0.7259
3580	0.7289
3588	0.7386
3596	0.7525
3604	0.7633
3612	0.7655
3620	0.766
3628	0.7675
3636	0.7698
3644	0.773
3652	0.7776
3660	0.783
3668	0.7885
3676	0.7941
3684	0.8004
3692	0.8077
3700	0.8171
3708	0.8313
3716	0.8378
3724	0.8432
3732	0.8465
3740	0.8477
3748	0.8486
3756	0.8546
3764	0.856
3772	0.8561
3780	0.8562
3788	0.8558
3796	0.8539
