Infrared Spectrum: PROPANE, 2-BROMO-2-METHYL-
Formula: C4 H9 Br
CAS: 507-19-7
State: SOLUTION (10% IN CCl4 FOR 3800-1340, AND 10% IN CS2 FOR 1340-430 CM^-^1)
Class: COBLENTZ III
Instrument: DOW KBr FOREPRISM-GRATING
Instrument parameters: BLAZED AT 3.5, 12.0, 20.0 MICRON, CHANGED AT 5.0, 7.5, 14.9 MICRON
Sampling: TRANSMISSION
Path length: 0.011, 0.011 CM
Resolution: 4
Origin: DOW CHEMICAL COMPANY
1/CM	TRANSMITTANCE
424.348	0.963
433.044	0.964
441.739	0.97
450.435	0.99
459.131	0.995
467.826	1.012
476.522	1.017
485.218	1.004
493.913	0.955
502.609	0.858
511.305	0.445
520	0.527
528.696	0.934
537.392	1.016
546.087	1.035
554.783	1.046
563.479	1.044
572.174	1.044
580.87	1.062
589.566	1.072
598.261	1.057
606.957	1.063
615.653	1.072
624.348	1.063
633.044	1.042
641.74	1.017
650.435	1
659.131	1.02
667.827	1.027
676.522	1.031
685.218	1.032
693.914	1.032
702.609	1.032
711.305	1.029
720.001	1.031
728.696	1.032
737.392	1.033
746.088	1.033
754.783	1.033
763.479	1.031
772.175	1.025
780.87	1.012
789.566	0.98
798.262	0.827
806.957	0.629
815.653	0.899
824.349	0.955
833.044	1.006
841.74	0.982
850.436	0.903
859.131	0.855
867.827	0.881
876.523	0.926
885.218	0.963
893.914	1.012
902.61	1.029
911.305	1.029
920.001	1.032
928.697	1.031
937.392	1.031
946.088	1.031
954.784	1.031
963.479	1.031
972.175	1.032
980.871	1.032
989.566	1.031
998.262	1.029
1006.96	1.027
1015.65	1.021
1024.35	1.005
1033.04	1.002
1041.74	1.019
1050.44	1.017
1059.13	1.014
1067.83	1.019
1076.52	1.019
1085.22	1.019
1093.91	1.006
1102.61	0.997
1111.31	0.96
1120	0.87
1128.7	0.732
1137.39	0.145
1146.09	0
1154.78	0.508
1163.48	0.807
1172.18	0.892
1180.87	0.922
1189.57	0.944
1198.26	0.926
1206.96	0.942
1215.65	0.944
1224.35	0.917
1233.04	0.7369
1241.74	0.7631
1250.44	0.993
1259.13	1.016
1267.83	1.017
1276.52	1.023
1285.22	1.02
1293.91	1.019
1302.61	1.01
1311.31	1.008
1320	0.998
1328.7	0.987
1337.39	0.979
1346.09	0.961
1354.78	0.917
1363.48	0.751
1372.18	0.027
1380.87	0.778
1389.57	0.904
1398.26	0.9
1406.96	0.944
1415.65	0.93
1424.35	0.884
1433.05	0.88
1441.74	0.808
1450.44	0.466
1459.13	0.4021
1467.83	0.758
1476.52	0.501
1485.22	0.847
1493.91	0.865
1502.61	0.834
1511.31	0.79
1520	0.743
1528.7	0.699
1537.39	0.605
1546.09	0.501
1554.78	0.495
1563.48	0.576
1572.18	0.675
1580.87	0.698
1589.57	0.726
1598.26	0.813
1606.96	0.895
1615.65	0.947
1624.35	0.972
1633.05	0.985
1641.74	0.991
1650.44	0.997
1659.13	0.991
1667.83	0.989
1676.52	0.989
1685.22	0.991
1693.92	0.994
1702.61	0.997
1711.31	0.991
1720	0.991
1728.7	0.985
1737.39	0.985
1746.09	0.991
1754.78	0.99
1763.48	0.994
1772.18	1.001
1780.87	0.997
1789.57	0.994
1798.26	0.995
1806.96	0.998
1815.65	0.997
1824.35	0.994
1833.05	0.994
1841.74	0.989
1850.44	0.985
1859.13	0.983
1867.83	0.989
1876.52	0.995
1885.22	0.995
1893.92	0.998
1902.61	0.997
1911.31	0.995
1920	1
1928.7	1.002
1937.39	1
1946.09	1
1954.79	1.002
1963.48	1.001
1972.18	0.998
1980.87	0.998
1989.57	1
1998.26	1
2006.96	1.001
2015.65	1.002
2024.35	1.005
2033.05	1.006
2041.74	1.009
2050.44	1.009
2059.13	1.009
2067.83	1.01
2076.52	1.01
2085.22	1.01
2093.92	1.01
2102.61	1.01
2111.31	1.01
2120	1.01
2128.7	1.009
2137.39	1.008
2146.09	1.0049
2154.79	1.0009
2163.48	0.9949
2172.18	0.9888
2180.87	0.9913
2189.57	1
2198.26	1.002
2206.96	1.006
2215.66	1.006
2224.35	1.006
2233.05	1.005
2241.74	1.005
2250.44	1.002
2259.13	1.0008
2267.83	0.9966
2276.52	0.9886
2285.22	0.9758
2293.92	0.9668
2302.61	0.9672
2311.31	0.9756
2320	0.993
2328.7	1.0154
2337.39	1.025
2346.09	1.0198
2354.79	1.0033
2363.48	1
2372.18	0.997
2380.87	0.9937
2389.57	0.989
2398.26	0.9827
2406.96	0.9881
2415.66	0.9956
2424.35	1.002
2433.05	1.0043
2441.74	1.006
2450.44	1.006
2459.13	1.004
2467.83	1.002
2476.53	1.0043
2485.22	1.005
2493.92	1.006
2502.61	1.006
2511.31	1.006
2520	1.006
2528.7	1.0056
2537.39	1.005
2546.09	1.004
2554.79	1.002
2563.48	1.0016
2572.18	1.001
2580.87	0.998
2589.57	0.9962
2598.26	0.991
2606.96	0.9934
2615.66	0.997
2624.35	0.9842
2633.05	0.9857
2641.74	0.997
2650.44	0.995
2659.13	0.993
2667.83	0.9895
2676.53	0.9865
2685.22	0.98
2693.92	0.986
2702.61	0.9895
2711.31	0.9855
2720	0.9689
2728.7	0.9337
2737.39	0.9871
2746.09	0.985
2754.79	0.9881
2763.48	0.9905
2772.18	0.9832
2780.87	0.955
2789.57	0.9786
2798.26	0.972
2806.96	0.9604
2815.66	0.9429
2824.35	0.9278
2833.05	0.9328
2841.74	0.8944
2850.44	0.8087
2859.13	0.6888
2867.83	0.702
2876.53	0.6532
2885.22	0.5419
2893.92	0.4897
2902.61	0.4982
2911.31	0.5054
2920	0.3246
2928.7	0.4248
2937.4	0.5489
2946.09	0.402
2954.79	0.6147
2963.48	0.3203
2972.18	0.2133
2980.87	0.2401
2989.57	0.134
2998.26	0.3772
3006.96	0.7924
3015.66	0.908
3024.35	0.9587
3033.05	0.9795
3041.74	0.9897
3050.44	0.9965
3059.13	1
3067.83	1.002
3076.53	1.004
3085.22	1.004
3093.92	1.005
3102.61	1.0076
3111.31	1.008
3120	1.008
3128.7	1.008
3137.4	1.006
3146.09	1.005
3154.79	1.0042
3163.48	1.002
3172.18	1.001
3180.87	0.9983
3189.57	0.993
3198.27	0.99
3206.96	0.9873
3215.66	0.987
3224.35	0.987
3233.05	0.986
3241.74	0.983
3250.44	0.9851
3259.13	0.9869
3267.83	0.9928
3276.53	0.9979
3285.22	1.002
3293.92	1.0059
3302.61	1.008
3311.31	1.005
3320	1.005
3328.7	1.008
3337.4	1.005
3346.09	1.0079
3354.79	1.005
3363.48	1.0021
3372.18	0.998
3380.87	0.995
3389.57	1
3398.27	1
3406.96	1.002
3415.66	1.004
3424.35	1.002
3433.05	1.004
3441.74	1.005
3450.44	1.002
3459.14	1.005
3467.83	1.004
3476.53	1.001
3485.22	1.001
3493.92	1.004
3502.61	1.001
3511.31	1.002
3520	1.005
3528.7	1.009
3537.4	1.01
3546.09	1.0089
3554.79	1.009
3563.48	1.013
3572.18	1.0098
3580.87	1.0041
3589.57	1.009
3598.27	1.0077
3606.96	1.0051
3615.66	1.0082
3624.35	1.0088
3633.05	1.0037
3641.74	1.0023
3650.44	1.006
3659.14	1.0036
3667.83	1.004
3676.53	1.0052
3685.22	1.005
3693.92	1.0036
3702.61	1.0042
3711.31	1.004
3720.01	1.004
3728.7	1.008
3737.4	1.0075
3746.09	1.0048
