Infrared Spectrum: 1,4-DIMETHYLPIPERAZINE-2,5-DIONE (CHCL3 SOLUTION)
Formula: C6 H10 N2 O2
CAS: 5076-82-4
State: SOLUTION (7% CHCl3)
Class: COBLENTZ
Instrument: Not specified, most likely a grating spectrometer.
Sampling: TRANSMISSION
Path length: 0.010 CM
Resolution: 4
Origin: ABBOTT LABORATORIES
MICROMETERS	TRANSMITTANCE
1.903	0.964
1.93534	0.963
1.96768	0.964
2.00002	0.968
2.03236	0.969
2.0647	0.969
2.09704	0.969
2.12938	0.968
2.16172	0.964
2.19405	0.963
2.22639	0.955
2.25873	0.947
2.29107	0.942
2.32341	0.942
2.35575	0.944
2.38809	0.948
2.42043	0.96
2.45277	0.964
2.48511	0.964
2.51745	0.966
2.54979	0.964
2.58213	0.963
2.61447	0.964
2.64681	0.968
2.67915	0.964
2.71148	0.966
2.74382	0.98
2.77616	0.952
2.8085	0.916
2.84084	0.872
2.87318	0.861
2.90552	0.865
2.93786	0.881
2.9702	0.884
3.00254	0.904
3.03488	0.931
3.06722	0.939
3.09956	0.939
3.1319	0.92
3.16424	0.91
3.19658	0.891
3.22892	0.861
3.26125	0.816
3.29359	0.643
3.32593	0.541
3.35827	0.568
3.39061	0.594
3.42295	0.634
3.45529	0.714
3.48763	0.766
3.51997	0.854
3.55231	0.891
3.58465	0.924
3.61699	0.937
3.64933	0.944
3.68167	0.952
3.71401	0.953
3.74635	0.955
3.77868	0.96
3.81102	0.96
3.84336	0.953
3.8757	0.944
3.90804	0.945
3.94038	0.944
3.97272	0.918
4.00506	0.908
4.0374	0.886
4.06974	0.88
4.10208	0.897
4.13442	0.923
4.16676	0.95
4.1991	0.96
4.23144	0.956
4.26378	0.945
4.29612	0.952
4.32845	0.958
4.36079	0.956
4.39313	0.955
4.42547	0.953
4.45781	0.953
4.49015	0.953
4.52249	0.948
4.55483	0.952
4.58717	0.953
4.61951	0.953
4.65185	0.96
4.68419	0.955
4.71653	0.956
4.74887	0.955
4.78121	0.956
4.81355	0.953
4.84588	0.944
4.87822	0.95
4.91056	0.952
4.9429	0.952
4.97524	0.952
5.00758	0.958
5.03992	0.956
5.07226	0.955
5.1046	0.95
5.13694	0.952
5.16928	0.958
5.20162	0.955
5.23396	0.955
5.2663	0.956
5.29864	0.953
5.33098	0.948
5.36332	0.947
5.39565	0.945
5.42799	0.939
5.46033	0.937
5.49267	0.932
5.52501	0.918
5.55735	0.908
5.58969	0.908
5.62203	0.907
5.65437	0.896
5.68671	0.878
5.71905	0.84
5.75139	0.785
5.78373	0.696
5.81607	0.696
5.84841	0.642
5.88075	0.461
5.91308	0.105
5.94542	0.031
5.97776	0.015
6.0101	0.015
6.04244	0.033
6.07478	0.191
6.10712	0.391
6.13946	0.519
6.1718	0.626
6.20414	0.755
6.23648	0.79
6.26882	0.825
6.30116	0.835
6.3335	0.84
6.36584	0.835
6.39818	0.816
6.43052	0.805
6.46285	0.801
6.49519	0.811
6.52753	0.805
6.55987	0.773
6.59221	0.702
6.62455	0.562
6.65689	0.253
6.68923	0.118
6.72157	0.132
6.75391	0.319
6.78625	0.407
6.81859	0.466
6.85093	0.453
6.88327	0.428
6.91561	0.348
6.94795	0.346
6.98028	0.436
7.01262	0.535
7.04496	0.603
7.0773	0.586
7.10964	0.265
7.14198	0.273
7.17432	0.615
7.20666	0.755
7.239	0.787
7.27134	0.797
7.30368	0.797
7.33602	0.777
7.36836	0.722
7.4007	0.579
7.43304	0.392
7.46538	0.265
7.49772	0.137
7.53005	0.07
7.56239	0.162
7.59473	0.359
7.62707	0.52
7.65941	0.674
7.69175	0.718
7.72409	0.728
7.75643	0.714
7.78877	0.696
7.82111	0.672
7.85345	0.592
7.88579	0.416
7.91813	0.276
7.95047	0.198
7.98281	0.239
8.01515	0.292
8.04748	0.289
8.07982	0.281
8.11216	0.287
8.1445	0.319
8.17684	0.364
8.20918	0.394
8.24152	0.432
8.27386	0.444
8.3062	0.5
8.33854	0.603
8.37088	0.728
8.40322	0.787
8.43556	0.797
8.4679	0.8
8.50024	0.797
8.53258	0.792
8.56492	0.784
8.59725	0.728
8.62959	0.67
8.66193	0.707
8.69427	0.766
8.72661	0.79
8.75895	0.797
8.79129	0.805
8.82363	0.79
8.85597	0.774
8.88831	0.755
8.92065	0.753
8.95299	0.757
8.98533	0.771
9.01767	0.776
9.05001	0.784
9.08235	0.787
9.11468	0.793
9.14702	0.805
9.17936	0.806
9.2117	0.816
9.24404	0.825
9.27638	0.838
9.30872	0.849
9.34106	0.864
9.3734	0.872
9.40574	0.884
9.43808	0.899
9.47042	0.897
9.50276	0.883
9.5351	0.875
9.56744	0.881
9.59978	0.872
9.63212	0.865
9.66445	0.862
9.69679	0.846
9.72913	0.803
9.76147	0.709
9.79381	0.557
9.82615	0.292
9.85849	0.236
9.89083	0.353
9.92317	0.455
9.95551	0.704
9.98785	0.784
10.0202	0.813
10.0525	0.845
10.0849	0.859
10.1172	0.846
10.1495	0.822
10.1819	0.84
10.2142	0.865
10.2466	0.876
10.2789	0.884
10.3112	0.892
10.3436	0.896
10.3759	0.904
10.4083	0.908
10.4406	0.912
10.4729	0.913
10.5053	0.913
10.5376	0.92
10.57	0.915
10.6023	0.916
10.6346	0.929
10.667	0.934
10.6993	0.939
10.7317	0.948
10.764	0.947
10.7963	0.94
10.8287	0.929
10.861	0.918
10.8934	0.915
10.9257	0.916
10.958	0.918
10.9904	0.924
11.0227	0.932
11.055	0.924
11.0874	0.926
11.1197	0.928
11.1521	0.926
11.1844	0.924
11.2167	0.924
11.2491	0.923
11.2814	0.921
11.3138	0.918
11.3461	0.924
11.3784	0.932
11.4108	0.939
11.4431	0.939
11.4755	0.945
11.5078	0.944
11.5401	0.932
11.5725	0.928
11.6048	0.924
11.6372	0.926
11.6695	0.926
11.7018	0.939
11.7342	0.944
11.7665	0.948
11.7989	0.94
11.8312	0.924
11.8635	0.907
11.8959	0.886
11.9282	0.824
11.9606	0.763
11.9929	0.734
12.0252	0.776
12.0576	0.83
12.0899	0.875
12.1222	0.888
12.1546	0.9
12.1869	0.904
12.2193	0.913
12.2516	0.918
12.2839	0.918
12.3163	0.921
12.3486	0.924
12.381	0.929
12.4133	0.932
12.4456	0.926
12.478	0.924
12.5103	0.921
12.5427	0.921
12.575	0.921
