Infrared Spectrum: o-Cresol, 4-bromo-Alpha,Alpha,Alpha-trifluoro-
Formula: C7 H4 Br F3 O
CAS: 50824-04-9
State: SOLUTION (10% CCl4 FOR 3800-1330, 10% CS2 FOR 1330-460 CM^-^1)
Class: COBLENTZ III
Instrument: DOW KBr FOREPRISM-GRATING
Instrument parameters: BLAZED AT 3.5, 12.0, 20.0 MICRON AND CHANGED AT 5.0, 7.5, 14.9 MICRON
Sampling: TRANSMISSION
Path length: 0.010 CM, 0.010 CM
Resolution: 2
Origin: DOW CHEMICAL COMPANY
1/CM	TRANSMITTANCE
458	0.6081
467	0.5997
476	0.5998
485	0.5745
494	0.6303
503	0.6678
512	0.6667
521	0.5833
530	0.4035
539	0.6352
548	0.6824
557	0.686
566	0.6852
575	0.5916
584	0.6531
593	0.697
602	0.6974
611	0.7058
620	0.6988
629	0.4554
638	0.6747
647	0.7036
656	0.7008
665	0.6762
674	0.1116
683	0.704
692	0.7434
701	0.7508
710	0.7535
719	0.7541
728	0.7537
737	0.7553
746	0.7615
755	0.7218
764	0.5804
773	0.762
782	0.77
791	0.7625
800	0.7371
809	0.3383
818	0.4075
827	0.4746
836	0.7015
845	0.5512
854	0.622
863	0.6615
872	0.6669
881	0.3646
890	0.4087
899	0.744
908	0.7704
917	0.7791
926	0.778
935	0.7627
944	0.7499
953	0.7724
962	0.7809
971	0.7835
980	0.7836
989	0.7814
998	0.7783
1007	0.7784
1016	0.7659
1025	0.743
1034	0.6875
1043	0.5073
1052	0.2247
1061	0.5952
1070	0.5603
1079	0.5092
1088	0.4199
1097	0.3063
1106	0.0707
1115	0.0169
1124	0.0159
1133	0.0218
1142	0.0171
1151	0.0398
1160	0.0297
1169	0.0597
1178	0.1677
1187	0.3725
1196	0.4832
1205	0.5854
1214	0.6704
1223	0.6874
1232	0.6534
1241	0.5226
1250	0.3187
1259	0.3076
1268	0.1366
1277	0.0143
1286	0.2816
1295	0.3269
1304	0.0623
1313	0.034
1322	0.0409
1331	0.1704
1340	0.4016
1349	0.6379
1358	0.749
1367	0.7876
1376	0.8083
1385	0.8113
1394	0.7963
1403	0.6027
1412	0.3389
1421	0.251
1430	0.355
1439	0.7596
1448	0.7857
1457	0.7788
1466	0.6815
1475	0.2328
1484	0.1229
1493	0.1131
1502	0.3712
1511	0.6266
1520	0.6241
1529	0.5886
1538	0.5286
1547	0.4622
1556	0.4701
1565	0.5476
1574	0.5201
1583	0.3497
1592	0.5594
1601	0.539
1610	0.4875
1619	0.5318
1628	0.7933
1637	0.8212
1646	0.8222
1655	0.8239
1664	0.8405
1673	0.8555
1682	0.8681
1691	0.8773
1700	0.8835
1709	0.8856
1718	0.8835
1727	0.8826
1736	0.8854
1745	0.8843
1754	0.879
1763	0.8609
1772	0.8505
1781	0.8676
1790	0.881
1799	0.8843
1808	0.8812
1817	0.8792
1826	0.8767
1835	0.8687
1844	0.8756
1853	0.8815
1862	0.8802
1871	0.8751
1880	0.869
1889	0.8656
1898	0.8546
1907	0.8683
1916	0.8851
1925	0.8917
1934	0.8917
1943	0.8902
1952	0.8916
1961	0.8921
1970	0.891
1979	0.8891
1988	0.8861
1997	0.9013
2006	0.9186
2015	0.9174
2024	0.9148
2033	0.9125
2042	0.9132
2051	0.9143
2060	0.9195
2069	0.9225
2078	0.9232
2087	0.9225
2096	0.9219
2105	0.9223
2114	0.9226
2123	0.9251
2132	0.9245
2141	0.9251
2150	0.9293
2159	0.9283
2168	0.9246
2177	0.9215
2186	0.9212
2195	0.9216
2204	0.9207
2213	0.9197
2222	0.9181
2231	0.916
2240	0.9135
2249	0.9113
2258	0.9092
2267	0.9069
2276	0.9041
2285	0.9017
2294	0.9
2303	0.8999
2312	0.9014
2321	0.9047
2330	0.9088
2339	0.9127
2348	0.9156
2357	0.9169
2366	0.9174
2375	0.9177
2384	0.9181
2393	0.9183
2402	0.9183
2411	0.9182
2420	0.917
2429	0.9155
2438	0.9138
2447	0.9122
2456	0.9106
2465	0.9093
2474	0.9084
2483	0.9076
2492	0.9071
2501	0.907
2510	0.907
2519	0.907
2528	0.9069
2537	0.9068
2546	0.9068
2555	0.9066
2564	0.9065
2573	0.9064
2582	0.9066
2591	0.9066
2600	0.9045
2609	0.9036
2618	0.9046
2627	0.9077
2636	0.909
2645	0.9069
2654	0.9049
2663	0.9035
2672	0.9042
2681	0.905
2690	0.9065
2699	0.9069
2708	0.9058
2717	0.9042
2726	0.9026
2735	0.9009
2744	0.8988
2753	0.8966
2762	0.8959
2771	0.8962
2780	0.8986
2789	0.9012
2798	0.9008
2807	0.8992
2816	0.8973
2825	0.8956
2834	0.8942
2843	0.8933
2852	0.8928
2861	0.8925
2870	0.8926
2879	0.8939
2888	0.8912
2897	0.8876
2906	0.8834
2915	0.8784
2924	0.8751
2933	0.8747
2942	0.8757
2951	0.8789
2960	0.8826
2969	0.885
2978	0.8868
2987	0.8879
2996	0.888
3005	0.8877
3014	0.8865
3023	0.8842
3032	0.8786
3041	0.8719
3050	0.8713
3059	0.8737
3068	0.8718
3077	0.8575
3086	0.8397
3095	0.8449
3104	0.8622
3113	0.8678
3122	0.8692
3131	0.8706
3140	0.8743
3149	0.876
3158	0.8753
3167	0.8747
3176	0.8743
3185	0.8733
3194	0.8722
3203	0.871
3212	0.8698
3221	0.8687
3230	0.8672
3239	0.8657
3248	0.8642
3257	0.8627
3266	0.8613
3275	0.8598
3284	0.8584
3293	0.8569
3302	0.8549
3311	0.8528
3320	0.8508
3329	0.8487
3338	0.8466
3347	0.8443
3356	0.8418
3365	0.8393
3374	0.8368
3383	0.8343
3392	0.8312
3401	0.8271
3410	0.823
3419	0.8188
3428	0.8146
3437	0.8099
3446	0.8052
3455	0.7999
3464	0.7943
3473	0.7885
3482	0.7824
3491	0.7778
3500	0.775
3509	0.774
3518	0.7734
3527	0.7716
3536	0.7684
3545	0.7634
3554	0.7566
3563	0.7411
3572	0.7182
3581	0.6614
3590	0.5298
3599	0.4042
3608	0.2937
3617	0.1734
3626	0.1896
3635	0.422
3644	0.6545
3653	0.8112
3662	0.8405
3671	0.8536
3680	0.8608
3689	0.8655
3698	0.8677
3707	0.8692
3716	0.8704
3725	0.8714
3734	0.8725
3743	0.8733
3752	0.874
3761	0.8748
3770	0.8752
3779	0.8755
3788	0.8758
3797	0.8762
3806	0.8779
