Infrared Spectrum: BENZIMIDAZOLE
Formula: C7 H6 N2
CAS: 51-17-2
State: SOLID (MINERAL OIL MULL)
Class: COBLENTZ
Instrument: Not specified, most likely a grating or hybrid spectrometer.
Sampling: TRANSMISSION
Resolution: 4
Origin: DOW CORNING CORP.
1/CM	TRANSMITTANCE
236.493	0.72
246.356	0.737
256.219	0.758
266.082	0.776
275.945	0.876
285.808	0.906
295.671	0.937
305.534	0.946
315.397	0.964
325.26	0.972
335.124	0.977
344.987	0.982
354.85	0.982
364.713	0.982
374.576	0.984
384.439	0.985
394.302	0.977
404.165	0.978
414.028	0.892
423.891	0.5891
433.754	0.976
443.617	0.97
453.48	0.961
463.343	0.957
473.206	0.954
483.069	0.956
492.932	0.956
502.795	0.956
512.658	0.954
522.522	0.953
532.385	0.95
542.248	0.937
552.111	0.958
561.974	0.96
571.837	0.946
581.7	0.962
591.563	0.96
601.426	0.956
611.289	0.868
621.152	0.7491
631.015	0.888
640.878	0.934
650.741	0.936
660.604	0.936
670.467	0.93
680.33	0.922
690.193	0.912
700.057	0.916
709.92	0.898
719.783	0.86
729.646	0.85
739.509	0.777
749.372	0.3959
759.235	0.853
769.098	0.466
778.961	0.844
788.824	0.886
798.687	0.885
808.55	0.878
818.413	0.873
828.276	0.862
838.139	0.84
848.002	0.7801
857.865	0.817
867.728	0.758
877.591	0.706
887.455	0.613
897.318	0.793
907.181	0.832
917.044	0.838
926.907	0.817
936.77	0.808
946.633	0.777
956.496	0.48
966.359	0.821
976.222	0.865
986.085	0.865
995.948	0.844
1005.81	0.836
1015.67	0.861
1025.54	0.858
1035.4	0.856
1045.26	0.85
1055.13	0.852
1064.99	0.844
1074.85	0.834
1084.72	0.842
1094.58	0.844
1104.44	0.834
1114.3	0.81
1124.17	0.761
1134.03	0.562
1143.89	0.84
1153.76	0.794
1163.62	0.824
1173.48	0.83
1183.35	0.76
1193.21	0.717
1203.07	0.7091
1212.94	0.809
1222.8	0.777
1232.66	0.6929
1242.52	0.2519
1252.39	0.4601
1262.25	0.725
1272.11	0.2621
1281.98	0.841
1291.84	0.7859
1301.7	0.548
1311.57	0.83
1321.43	0.829
1331.29	0.797
1341.15	0.6848
1351.02	0.692
1360.88	0.4558
1370.74	0.634
1380.61	0.612
1390.47	0.545
1400.33	0.3059
1410.2	0.1661
1420.06	0.5691
1429.92	0.6081
1439.79	0.614
1449.65	0.3769
1459.51	0.2612
1469.37	0.606
1479.24	0.5572
1489.1	0.7979
1498.96	0.846
1508.83	0.864
1518.69	0.881
1528.55	0.88
1538.42	0.873
1548.28	0.864
1558.14	0.88
1568.01	0.866
1577.87	0.846
1587.73	0.7972
1597.59	0.816
1607.46	0.854
1617.32	0.7491
1627.18	0.861
1637.05	0.858
1646.91	0.856
1656.77	0.845
1666.64	0.833
1676.5	0.809
1686.36	0.824
1696.22	0.809
1706.09	0.809
1715.95	0.806
1725.81	0.797
1735.68	0.793
1745.54	0.796
1755.4	0.777
1765.27	0.6859
1775.13	0.728
1784.99	0.801
1794.86	0.822
1804.72	0.818
1814.58	0.808
1824.44	0.83
1834.31	0.832
1844.17	0.83
1854.03	0.825
1863.9	0.83
1873.76	0.836
1883.62	0.824
1893.49	0.77
1903.35	0.838
1913.21	0.842
1923.08	0.836
1932.94	0.808
1942.8	0.852
1952.66	0.849
1962.53	0.852
1972.39	0.853
1982.25	0.852
1992.12	0.848
2001.98	0.842
2011.84	0.841
2021.71	0.841
2031.57	0.837
2041.43	0.836
2051.29	0.838
2061.16	0.833
2071.02	0.833
2080.88	0.832
2090.75	0.836
2100.61	0.8331
2110.47	0.833
2120.34	0.83
2130.2	0.826
2140.06	0.826
2149.93	0.825
2159.79	0.825
2169.65	0.82
2179.51	0.8139
2189.38	0.817
2199.24	0.8131
2209.1	0.8179
2218.97	0.8159
2228.83	0.809
2238.69	0.805
2248.56	0.804
2258.42	0.8009
2268.28	0.7969
2278.15	0.7918
2288.01	0.7878
2297.87	0.782
2307.73	0.7859
2317.6	0.7837
2327.46	0.7777
2337.32	0.7647
2347.19	0.756
2357.05	0.75
2366.91	0.7518
2376.78	0.748
2386.64	0.742
2396.5	0.74
2406.36	0.7299
2416.23	0.725
2426.09	0.7165
2435.95	0.7078
2445.82	0.7009
2455.68	0.698
2465.54	0.693
2475.41	0.6849
2485.27	0.6766
2495.13	0.6533
2505	0.6357
2514.86	0.6237
2524.72	0.5956
2534.58	0.5739
2544.45	0.5504
2554.31	0.5815
2564.17	0.5835
2574.04	0.5715
2583.9	0.543
2593.76	0.5245
2603.63	0.5088
2613.49	0.4931
2623.35	0.4825
2633.21	0.5052
2643.08	0.4908
2652.94	0.4643
2662.8	0.4578
2672.67	0.457
2682.53	0.457
2692.39	0.4444
2702.26	0.4312
2712.12	0.4116
2721.98	0.3978
2731.85	0.3874
2741.71	0.3708
2751.57	0.3932
2761.43	0.3761
2771.3	0.3521
2781.16	0.3314
2791.02	0.3131
2800.89	0.3129
2810.75	0.3371
2820.61	0.3522
2830.48	0.3133
2840.34	0.1991
2850.2	0.1002
2860.07	0.1147
2869.93	0.1452
2879.79	0.1635
2889.65	0.124
2899.52	0.1123
2909.38	0.0625
2919.24	0.0385
2929.11	0.049
2938.97	0.072
2948.83	0.0778
2958.7	0.1026
2968.56	0.1824
2978.42	0.2788
2988.28	0.3127
2998.15	0.3165
3008.01	0.3338
3017.87	0.3537
3027.74	0.3718
3037.6	0.3563
3047.46	0.3848
3057.33	0.322
3067.19	0.3742
3077.05	0.4246
3086.92	0.4126
3096.78	0.4563
3106.64	0.3795
3116.5	0.4631
3126.37	0.5163
3136.23	0.5373
3146.09	0.5486
3155.96	0.5653
3165.82	0.579
3175.68	0.5973
3185.55	0.6167
3195.41	0.6293
3205.27	0.6433
3215.14	0.6603
3225	0.6733
3234.86	0.684
3244.72	0.702
3254.59	0.7093
3264.45	0.7204
3274.31	0.7254
3284.18	0.7324
3294.04	0.737
3303.9	0.74
3313.77	0.74
3323.63	0.741
3333.49	0.742
3343.35	0.742
3353.22	0.742
3363.08	0.7416
3372.94	0.741
3382.81	0.741
3392.67	0.741
3402.53	0.741
3412.4	0.741
3422.26	0.74
3432.12	0.74
3441.99	0.738
3451.85	0.7388
3461.71	0.738
3471.57	0.738
3481.44	0.74
3491.3	0.738
3501.16	0.738
3511.03	0.737
3520.89	0.737
3530.75	0.737
3540.62	0.736
3550.48	0.736
3560.34	0.7336
3570.2	0.732
3580.07	0.7286
3589.93	0.728
3599.79	0.726
3609.66	0.726
3619.52	0.726
3629.38	0.725
3639.25	0.7231
3649.11	0.722
3658.97	0.7245
3668.84	0.7215
3678.7	0.72
3688.56	0.72
3698.42	0.72
3708.29	0.72
3718.15	0.719
3728.01	0.717
3737.88	0.717
3747.74	0.717
3757.6	0.716
3767.47	0.7125
3777.33	0.71
3787.19	0.71
