Infrared Spectrum: PHENOL, 2,4-DINITRO-
Formula: C6 H4 N2 O5
CAS: 51-28-5
State: SATURATED SOLUTION( CCl4 FOR 3800-1230, CS2 FOR 1230-400 CM^-^1)
Class: COBLENTZ III
Instrument: DOW KBr FOREPRISM-GRATING
Instrument parameters: BLAZED AT 3.5, 12.0, 20.0 MICRON AND CHANGED AT 5.0, 7.5, 14.9 MICRON
Sampling: TRANSMISSION
Path length: 0.052 CM, 0.052 CM
Resolution: 2
Origin: DOW CHEMICAL COMPANY
1/CM	TRANSMITTANCE
3802	0.8736
3793	0.8738
3784	0.8741
3775	0.8743
3766	0.8742
3757	0.8734
3748	0.8728
3739	0.8725
3730	0.8728
3721	0.8732
3712	0.8735
3703	0.8736
3694	0.8737
3685	0.8742
3676	0.875
3667	0.8757
3658	0.8759
3649	0.8755
3640	0.8752
3631	0.8748
3622	0.8736
3613	0.8721
3604	0.8709
3595	0.8692
3586	0.867
3577	0.8647
3568	0.8625
3559	0.8603
3550	0.8577
3541	0.8551
3532	0.8525
3523	0.8499
3514	0.8475
3505	0.8456
3496	0.8444
3487	0.8431
3478	0.8433
3469	0.8443
3460	0.8461
3451	0.8484
3442	0.8503
3433	0.8518
3424	0.8518
3415	0.8482
3406	0.8441
3397	0.8427
3388	0.8425
3379	0.8412
3370	0.8387
3361	0.8356
3352	0.8328
3343	0.8277
3334	0.8211
3325	0.8132
3316	0.8008
3307	0.7828
3298	0.7571
3289	0.7325
3280	0.7101
3271	0.6896
3262	0.663
3253	0.6305
3244	0.6072
3235	0.5779
3226	0.5481
3217	0.5316
3208	0.5391
3199	0.5796
3190	0.605
3181	0.6201
3172	0.6417
3163	0.675
3154	0.7155
3145	0.7388
3136	0.7461
3127	0.7225
3118	0.7043
3109	0.6526
3100	0.5916
3091	0.7407
3082	0.7849
3073	0.8092
3064	0.8318
3055	0.8432
3046	0.8484
3037	0.8494
3028	0.8494
3019	0.8511
3010	0.854
3001	0.8551
2992	0.8543
2983	0.8525
2974	0.8506
2965	0.8491
2956	0.8494
2947	0.8498
2938	0.8509
2929	0.852
2920	0.8523
2911	0.8517
2902	0.8464
2893	0.8384
2884	0.8309
2875	0.8141
2866	0.825
2857	0.8397
2848	0.8515
2839	0.8559
2830	0.8542
2821	0.8489
2812	0.8497
2803	0.8528
2794	0.8565
2785	0.8593
2776	0.8617
2767	0.864
2758	0.8617
2749	0.8553
2740	0.8532
2731	0.8588
2722	0.8648
2713	0.8677
2704	0.8684
2695	0.8685
2686	0.8683
2677	0.8671
2668	0.865
2659	0.8635
2650	0.8634
2641	0.8642
2632	0.8649
2623	0.8661
2614	0.8666
2605	0.8643
2596	0.8624
2587	0.8653
2578	0.8716
2569	0.876
2560	0.8781
2551	0.8784
2542	0.8778
2533	0.8782
2524	0.8817
2515	0.8859
2506	0.8874
2497	0.8856
2488	0.883
2479	0.8801
2470	0.8775
2461	0.8763
2452	0.8771
2443	0.8784
2434	0.8793
2425	0.8783
2416	0.8754
2407	0.8718
2398	0.869
2389	0.8673
2380	0.8648
2371	0.8606
2362	0.8533
2353	0.8406
2344	0.8264
2335	0.8239
2326	0.8217
2317	0.8157
2308	0.8078
2299	0.8068
2290	0.8186
2281	0.8289
2272	0.8436
2263	0.8578
2254	0.8712
2245	0.8835
2236	0.8934
2227	0.8985
2218	0.8978
2209	0.8966
2200	0.896
2191	0.8977
2182	0.8993
2173	0.9003
2164	0.9014
2155	0.9025
2146	0.9037
2137	0.9053
2128	0.9071
2119	0.9087
2110	0.9083
2101	0.908
2092	0.9066
2083	0.9007
2074	0.8948
2065	0.8939
2056	0.8942
2047	0.9027
2038	0.9061
2029	0.8911
2020	0.887
2011	0.8765
2002	0.8165
1993	0.8434
1984	0.8561
1975	0.8618
1966	0.8864
1957	0.8723
1948	0.8591
1939	0.8596
1930	0.8693
1921	0.8718
1912	0.8721
1903	0.8702
1894	0.8675
1885	0.8668
1876	0.861
1867	0.853
1858	0.8435
1849	0.845
1840	0.8301
1831	0.8314
1822	0.8507
1813	0.849
1804	0.8573
1795	0.8678
1786	0.8702
1777	0.8704
1768	0.8715
1759	0.8731
1750	0.8747
1741	0.8718
1732	0.8705
1723	0.8688
1714	0.8656
1705	0.858
1696	0.8395
1687	0.8275
1678	0.8397
1669	0.835
1660	0.8048
1651	0.7636
1642	0.6138
1633	0.14
1624	0.1777
1615	0.261
1606	0.0006
1597	0.1249
1588	0.1303
1579	0.1009
1570	0.0448
1561	0.0033
1552	0.0013
1543	0.0028
1534	0.0446
1525	0.1273
1516	0.1994
1507	0.2832
1498	0.3959
1489	0.3268
1480	0.243
1471	0.4902
1462	0.4903
1453	0.3057
1444	0.1342
1435	0.3587
1426	0.6284
1417	0.6593
1408	0.7058
1399	0.7086
1390	0.6767
1381	0.6265
1372	0.5338
1363	0.325
1354	0.1562
1345	0.002
1336	0.1366
1327	0.0937
1318	0.5516
1309	0.66
1300	0.6768
1291	0.6021
1282	0.4852
1273	0.1399
1264	0.271
1255	0.6376
1246	0.7295
1237	0.7435
1228	0.7346
1219	0.7308
1210	0.6612
1201	0.3295
1192	0.3075
1183	0.701
1174	0.7575
1165	0.7896
1156	0.7875
1147	0.5346
1138	0.2953
1129	0.7422
1120	0.6574
1111	0.5555
1102	0.724
1093	0.7911
1084	0.8161
1075	0.8097
1066	0.4799
1057	0.6797
1048	0.7899
1039	0.8053
1030	0.8225
1021	0.8334
1012	0.8342
1003	0.8361
994	0.8368
985	0.8428
976	0.8409
967	0.8378
958	0.8428
949	0.8454
940	0.8406
931	0.821
922	0.3979
913	0.5655
904	0.7745
895	0.7426
886	0.6443
877	0.5126
868	0.3734
859	0.2992
850	0.3538
841	0.1285
832	0.4887
823	0.7361
814	0.7401
805	0.7642
796	0.7674
787	0.7642
778	0.7697
769	0.6354
760	0.7422
751	0.7138
742	0.3248
733	0.6926
724	0.6519
715	0.3445
706	0.3739
697	0.3939
688	0.4366
679	0.2367
670	0.4423
661	0.5218
652	0.4985
643	0.5636
634	0.6642
625	0.7365
616	0.766
607	0.7889
598	0.7954
589	0.8126
580	0.7831
571	0.7275
562	0.7915
553	0.816
544	0.8161
535	0.7961
526	0.7236
517	0.693
508	0.7268
499	0.7519
490	0.7571
481	0.7582
472	0.7439
463	0.7192
454	0.6904
445	0.6362
436	0.5824
427	0.507
418	0.4008
409	0.32
400	0.2861
391	0.2808
382	0.2817
