Infrared Spectrum: PHOSPHORIC ACID, TRIMETHYL ESTER
Formula: C3 H9 O4 P
CAS: 512-56-1
State: SOLUTION (SALTED IN CCl4 FOR 3800-1340, SALTED IN CS2 FOR 1340-400 CM^-^1)
Class: COBLENTZ III
Instrument: DOW KBr FOREPRISM-GRATING
Instrument parameters: BLAZED AT 3.5, 12.0, 20.0 MICRON, CHANGED AT 5.0, 7.5, 14.9 MICRON
Sampling: TRANSMISSION
Path length: 0.011, 0.011 CM
Resolution: 4
Origin: DOW CHEMICAL COMPANY
1/CM	TRANSMITTANCE
383.239	0.253
392.614	0.272
401.989	0.381
411.364	0.692
420.739	0.809
430.114	0.824
439.489	0.804
448.864	0.73
458.239	0.725
467.614	0.848
476.989	0.872
486.364	0.857
495.739	0.765
505.114	0.697
514.489	0.688
523.864	0.722
533.239	0.814
542.614	0.878
551.989	0.905
561.364	0.921
570.739	0.93
580.114	0.934
589.489	0.936
598.864	0.937
608.239	0.934
617.615	0.932
626.99	0.924
636.365	0.904
645.74	0.873
655.115	0.873
664.49	0.913
673.865	0.922
683.24	0.924
692.615	0.918
701.99	0.912
711.365	0.904
720.74	0.894
730.115	0.861
739.49	0.74
748.865	0.7491
758.24	0.71
767.615	0.869
776.99	0.884
786.365	0.874
795.74	0.87
805.115	0.858
814.49	0.84
823.865	0.781
833.24	0.5921
842.615	0.1411
851.99	0.032
861.365	0.3421
870.74	0.672
880.115	0.758
889.49	0.822
898.865	0.86
908.24	0.876
917.615	0.884
926.99	0.884
936.365	0.885
945.74	0.882
955.115	0.877
964.49	0.873
973.865	0.868
983.24	0.857
992.615	0.837
1001.99	0.781
1011.37	0.684
1020.74	0.4781
1030.12	0.1141
1039.49	0.008
1048.87	0.009
1058.24	0.022
1067.62	0.293
1076.99	0.466
1086.37	0.585
1095.74	0.704
1105.12	0.744
1114.49	0.766
1123.87	0.79
1133.24	0.808
1142.62	0.818
1151.99	0.82
1161.37	0.798
1170.74	0.748
1180.12	0.601
1189.49	0.468
1198.87	0.68
1208.24	0.758
1217.62	0.792
1226.99	0.801
1236.37	0.792
1245.74	0.762
1255.12	0.676
1264.49	0.45
1273.87	0.174
1283.24	0.281
1292.62	0.084
1301.99	0.5996
1311.37	0.796
1320.74	0.854
1330.12	0.87
1339.49	0.893
1348.87	0.909
1358.24	0.916
1367.62	0.914
1376.99	0.916
1386.37	0.932
1395.74	0.916
1405.12	0.918
1414.49	0.91
1423.87	0.886
1433.24	0.86
1442.62	0.786
1451.99	0.469
1461.37	0.465
1470.74	0.5
1480.12	0.716
1489.49	0.774
1498.87	0.773
1508.24	0.733
1517.62	0.706
1526.99	0.664
1536.37	0.588
1545.74	0.502
1555.12	0.484
1564.49	0.55
1573.87	0.64
1583.24	0.661
1592.62	0.706
1601.99	0.78
1611.37	0.844
1620.74	0.866
1630.12	0.874
1639.49	0.89
1648.87	0.898
1658.24	0.89
1667.62	0.889
1676.99	0.89
1686.37	0.918
1695.74	0.934
1705.12	0.949
1714.49	0.953
1723.87	0.957
1733.24	0.95
1742.62	0.96
1751.99	0.966
1761.37	0.961
1770.74	0.948
1780.12	0.942
1789.49	0.926
1798.87	0.922
1808.24	0.957
1817.62	0.974
1826.99	0.978
1836.37	0.98
1845.74	0.981
1855.12	0.981
1864.49	0.978
1873.87	0.973
1883.24	0.957
1892.62	0.934
1901.99	0.92
1911.37	0.934
1920.74	0.949
1930.12	0.948
1939.49	0.946
1948.87	0.964
1958.24	0.982
1967.62	0.986
1976.99	0.99
1986.37	0.989
1995.74	0.985
2005.12	0.984
2014.49	0.981
2023.87	0.977
2033.24	0.9735
2042.62	0.969
2051.99	0.976
2061.37	0.978
2070.74	0.978
2080.12	0.977
2089.49	0.976
2098.87	0.976
2108.24	0.977
2117.62	0.976
2126.99	0.972
2136.37	0.97
2145.74	0.9734
2155.12	0.976
2164.49	0.976
2173.87	0.976
2183.24	0.974
2192.62	0.9722
2201.99	0.9714
2211.37	0.97
2220.74	0.9697
2230.12	0.969
2239.49	0.966
2248.87	0.9625
2258.24	0.9577
2267.62	0.952
2276.99	0.9458
2286.37	0.9386
2295.74	0.933
2305.12	0.932
2314.49	0.933
2323.87	0.933
2333.24	0.937
2342.62	0.937
2351.99	0.9385
2361.37	0.941
2370.74	0.942
2380.12	0.9456
2389.49	0.9502
2398.87	0.952
2408.24	0.953
2417.62	0.953
2426.99	0.95
2436.37	0.949
2445.74	0.948
2455.12	0.946
2464.49	0.946
2473.87	0.946
2483.24	0.946
2492.62	0.946
2501.99	0.945
2511.37	0.945
2520.74	0.942
2530.12	0.941
2539.49	0.941
2548.87	0.94
2558.24	0.937
2567.62	0.936
2576.99	0.934
2586.37	0.9326
2595.74	0.93
2605.12	0.9246
2614.49	0.921
2623.87	0.918
2633.24	0.9142
2642.62	0.913
2651.99	0.913
2661.37	0.914
2670.74	0.914
2680.12	0.913
2689.49	0.91
2698.87	0.9097
2708.24	0.9052
2717.62	0.904
2726.99	0.902
2736.37	0.8994
2745.74	0.8932
2755.12	0.89
2764.49	0.889
2773.87	0.884
2783.24	0.8803
2792.62	0.877
2801.99	0.8733
2811.37	0.869
2820.74	0.8626
2830.12	0.8554
2839.49	0.8354
2848.87	0.6854
2858.24	0.3667
2867.62	0.7389
2876.99	0.8167
2886.37	0.829
2895.74	0.8107
2905.12	0.7603
2914.49	0.745
2923.87	0.7722
2933.24	0.7597
2942.62	0.6984
2951.99	0.518
2961.37	0.1668
2970.74	0.5304
2980.12	0.6568
2989.49	0.617
2998.87	0.55
3008.24	0.5672
3017.62	0.5741
3026.99	0.6253
3036.37	0.7091
3045.74	0.7585
3055.12	0.785
3064.49	0.7965
3073.87	0.8079
3083.24	0.8125
3092.62	0.822
3101.99	0.8309
3111.37	0.8369
3120.74	0.8429
3130.12	0.849
3139.49	0.852
3148.87	0.853
3158.24	0.854
3167.62	0.856
3177	0.856
3186.37	0.856
3195.75	0.856
3205.12	0.854
3214.5	0.856
3223.87	0.857
3233.25	0.857
3242.62	0.856
3252	0.858
3261.37	0.857
3270.75	0.8567
3280.12	0.856
3289.5	0.856
3298.87	0.853
3308.25	0.852
3317.62	0.85
3327	0.848
3336.37	0.8413
3345.75	0.836
3355.12	0.83
3364.5	0.8248
3373.87	0.8186
3383.25	0.813
3392.62	0.8083
3402	0.7997
3411.37	0.7933
3420.75	0.7817
3430.12	0.7727
3439.5	0.7619
3448.87	0.757
3458.25	0.752
3467.62	0.753
3477	0.7571
3486.37	0.7656
3495.75	0.777
3505.12	0.7943
3514.5	0.8091
3523.87	0.8191
3533.25	0.8301
3542.62	0.8386
3552	0.848
3561.37	0.8535
3570.75	0.864
3580.12	0.8695
3589.5	0.876
3598.87	0.8874
3608.25	0.893
3617.62	0.8965
3627	0.905
3636.37	0.9124
3645.75	0.9131
3655.12	0.9183
3664.5	0.9259
3673.87	0.9103
3683.25	0.8855
3692.62	0.9005
3702	0.9473
3711.37	0.957
3720.75	0.9609
3730.12	0.964
3739.5	0.9642
3748.87	0.9613
3758.25	0.9658
3767.62	0.97
3777	0.973
3786.37	0.9697
3795.75	0.97
