Infrared Spectrum: 2,3-BUTANEDIOL
Formula: C4 H10 O2
CAS: 513-85-9
State: LIQUID
Class: COBLENTZ
Instrument: Not specified, most likely a prism, grating, or hybrid spectrometer.
Sampling: TRANSMISSION
Path length: 0.0015 CM
Resolution: 4
Origin: WYANDOTTE CHEMICALS CORP., WYANDOTTE, MICHIGAN, USA
MICROMETERS	TRANSMITTANCE
2.007	0.973
2.04889	0.98
2.09079	0.984
2.13268	0.991
2.17458	0.98
2.21647	0.944
2.25837	0.949
2.30026	0.968
2.34216	0.963
2.38405	0.945
2.42595	0.931
2.46784	0.944
2.50974	0.959
2.55163	0.965
2.59353	0.965
2.63542	0.961
2.67732	0.947
2.71921	0.886
2.76111	0.615
2.803	0.211
2.8449	0.057
2.88679	0.026
2.92869	0.019
2.97058	0.017
3.01248	0.02
3.05437	0.019
3.09627	0.026
3.13816	0.052
3.18006	0.16
3.22195	0.307
3.26385	0.456
3.30574	0.451
3.34764	0.013
3.38953	0.094
3.43143	0.057
3.47332	0.083
3.51521	0.237
3.55711	0.388
3.599	0.5
3.6409	0.541
3.68279	0.538
3.72469	0.573
3.76658	0.613
3.80848	0.648
3.85037	0.699
3.89227	0.704
3.93416	0.711
3.97606	0.736
4.01795	0.762
4.05985	0.779
4.10174	0.804
4.14364	0.823
4.18553	0.825
4.22743	0.823
4.26932	0.837
4.31122	0.839
4.35311	0.844
4.39501	0.879
4.4369	0.902
4.4788	0.903
4.52069	0.903
4.56259	0.907
4.60448	0.91
4.64638	0.912
4.68827	0.912
4.73017	0.91
4.77206	0.914
4.81396	0.91
4.85585	0.916
4.89775	0.91
4.93964	0.905
4.98153	0.91
5.02343	0.903
5.06532	0.891
5.10722	0.888
5.14911	0.895
5.19101	0.9
5.2329	0.888
5.2748	0.891
5.31669	0.882
5.35859	0.872
5.40048	0.882
5.44238	0.884
5.48427	0.884
5.52617	0.874
5.56806	0.874
5.60996	0.879
5.65185	0.872
5.69375	0.87
5.73564	0.875
5.77754	0.865
5.81943	0.846
5.86133	0.833
5.90322	0.83
5.94512	0.823
5.98701	0.814
6.02891	0.805
6.0708	0.798
6.1127	0.8
6.15459	0.791
6.19649	0.786
6.23838	0.777
6.28028	0.763
6.32217	0.755
6.36407	0.746
6.40596	0.743
6.44785	0.736
6.48975	0.713
6.53164	0.694
6.57354	0.655
6.61543	0.613
6.65733	0.552
6.69922	0.44
6.74112	0.33
6.78301	0.155
6.82491	0.089
6.8668	0.075
6.9087	0.118
6.95059	0.134
6.99249	0.122
7.03438	0.11
7.07628	0.096
7.11817	0.101
7.16007	0.111
7.20196	0.101
7.24386	0.048
7.28575	0.05
7.32765	0.136
7.36954	0.206
7.41144	0.173
7.45333	0.169
7.49523	0.166
7.53712	0.143
7.57902	0.153
7.62091	0.159
7.66281	0.141
7.7047	0.131
7.7466	0.131
7.78849	0.129
7.83039	0.129
7.87228	0.129
7.91417	0.129
7.95607	0.138
7.99796	0.164
8.03986	0.216
8.08175	0.281
8.12365	0.346
8.16554	0.402
8.20744	0.463
8.24933	0.493
8.29123	0.51
8.33312	0.529
8.37502	0.536
8.41691	0.533
8.45881	0.503
8.5007	0.41
8.5426	0.243
8.58449	0.145
8.62639	0.131
8.66828	0.134
8.71018	0.169
8.75207	0.253
8.79397	0.277
8.83586	0.222
8.87776	0.089
8.91965	0.043
8.96155	0.04
9.00344	0.045
9.04534	0.04
9.08723	0.031
9.12913	0.027
9.17102	0.024
9.21292	0.024
9.25481	0.024
9.29671	0.024
9.3386	0.024
9.38049	0.024
9.42239	0.024
9.46428	0.024
9.50618	0.027
9.54807	0.041
9.58997	0.089
9.63186	0.181
9.67376	0.262
9.71565	0.307
9.75755	0.316
9.79944	0.276
9.84134	0.167
9.88323	0.062
9.92513	0.036
9.96702	0.038
10.0089	0.05
10.0508	0.048
10.0927	0.05
10.1346	0.143
10.1765	0.29
10.2184	0.342
10.2603	0.349
10.3022	0.468
10.3441	0.543
10.386	0.568
10.4279	0.599
10.4698	0.61
10.5117	0.613
10.5536	0.603
10.5954	0.582
10.6373	0.515
10.6792	0.398
10.7211	0.213
10.763	0.111
10.8049	0.113
10.8468	0.255
10.8887	0.423
10.9306	0.498
10.9725	0.527
11.0144	0.524
11.0563	0.493
11.0982	0.424
11.1401	0.276
11.182	0.136
11.2239	0.047
11.2658	0.031
11.3077	0.043
11.3496	0.09
11.3914	0.227
11.4333	0.424
11.4752	0.531
11.5171	0.583
11.559	0.604
11.6009	0.615
11.6428	0.62
11.6847	0.624
11.7266	0.629
11.7685	0.631
11.8104	0.629
11.8523	0.629
11.8942	0.624
11.9361	0.618
11.978	0.613
12.0199	0.611
12.0618	0.603
12.1037	0.599
12.1456	0.594
12.1875	0.58
12.2293	0.554
12.2712	0.529
12.3131	0.526
12.355	0.54
12.3969	0.55
12.4388	0.547
12.4807	0.533
12.5226	0.526
12.5645	0.519
12.6064	0.503
12.6483	0.487
12.6902	0.466
12.7321	0.437
12.774	0.4
12.8159	0.346
12.8578	0.309
12.8997	0.3
12.9416	0.318
12.9835	0.342
13.0253	0.382
13.0672	0.4
13.1091	0.412
13.151	0.412
13.1929	0.412
13.2348	0.412
13.2767	0.405
13.3186	0.398
13.3605	0.393
13.4024	0.386
13.4443	0.379
13.4862	0.37
13.5281	0.365
13.57	0.358
13.6119	0.351
13.6538	0.346
13.6957	0.34
13.7376	0.333
13.7795	0.33
13.8213	0.323
13.8632	0.319
13.9051	0.316
13.947	0.312
13.9889	0.307
14.0308	0.304
14.0727	0.297
14.1146	0.291
14.1565	0.288
14.1984	0.286
14.2403	0.284
14.2822	0.283
14.3241	0.281
14.366	0.279
14.4079	0.279
14.4498	0.279
14.4917	0.279
14.5336	0.281
14.5755	0.281
14.6174	0.279
14.6592	0.281
14.7011	0.283
14.743	0.286
14.7849	0.286
14.8268	0.29
14.8687	0.291
14.9106	0.291
14.9525	0.295
14.9944	0.305
15.0363	0.323
15.0782	0.34
15.1201	0.333
15.162	0.311
15.2039	0.312
15.2458	0.321
15.2877	0.333
15.3296	0.342
15.3715	0.34
15.4134	0.342
15.4552	0.353
15.4971	0.356
15.539	0.37
15.5809	0.375
15.6228	0.384
15.6647	0.393
15.7066	0.409
15.7485	0.412
15.7904	0.424
15.8323	0.438
15.8742	0.452
15.9161	0.456
15.958	0.463
