Infrared Spectrum: 2,2,2-TRICHLORO-1-ETHOXY ETHANOL
Formula: C4 H7 Cl3 O2
CAS: 515-83-3
State: SOLID (MINERAL OIL MULL)
Melting point: 52.5-54.5 C
Class: COBLENTZ
Instrument: Not specified, most likely a prism, grating, or hybrid spectrometer.
Sampling: TRANSMISSION
Resolution: 4
Origin: WYANDOTTE CHEMICALS CORP., WYANDOTTE, MICHIGAN, USA
MICROMETERS	TRANSMITTANCE
2.016	0.908
2.05588	0.91
2.09576	0.911
2.13564	0.916
2.17552	0.888
2.2154	0.816
2.25528	0.811
2.29516	0.831
2.33504	0.836
2.37492	0.84
2.4148	0.85
2.45468	0.866
2.49456	0.876
2.53444	0.893
2.57432	0.901
2.6142	0.906
2.65408	0.921
2.69396	0.921
2.73384	0.916
2.77372	0.871
2.8136	0.713
2.85348	0.485
2.89336	0.304
2.93324	0.231
2.97312	0.189
3.013	0.154
3.05288	0.269
3.09276	0.46
3.13264	0.565
3.17252	0.633
3.2124	0.687
3.25228	0.687
3.29216	0.612
3.33204	0.246
3.37192	0.033
3.4118	0.033
3.45168	0.036
3.49156	0.039
3.53144	0.123
3.57132	0.489
3.6112	0.663
3.65108	0.733
3.69096	0.683
3.73084	0.713
3.77072	0.712
3.8106	0.757
3.85048	0.782
3.89036	0.803
3.93024	0.82
3.97012	0.855
4.01	0.88
4.04988	0.898
4.08976	0.911
4.12963	0.905
4.16951	0.908
4.20939	0.898
4.24927	0.888
4.28915	0.898
4.32903	0.923
4.36891	0.941
4.40879	0.933
4.44867	0.911
4.48855	0.935
4.52843	0.941
4.56831	0.946
4.60819	0.935
4.64807	0.931
4.68795	0.943
4.72783	0.955
4.76771	0.961
4.80759	0.968
4.84747	0.971
4.88735	0.965
4.92723	0.971
4.96711	0.971
5.00699	0.978
5.04687	0.976
5.08675	0.971
5.12663	0.978
5.16651	0.976
5.20639	0.971
5.24627	0.975
5.28615	0.973
5.32603	0.973
5.36591	0.973
5.40579	0.976
5.44567	0.976
5.48555	0.975
5.52543	0.981
5.56531	0.978
5.60519	0.981
5.64507	0.975
5.68495	0.963
5.72483	0.961
5.76471	0.926
5.80459	0.885
5.84447	0.893
5.88435	0.906
5.92423	0.91
5.96411	0.92
6.00399	0.915
6.04387	0.916
6.08375	0.91
6.12363	0.913
6.16351	0.926
6.20339	0.918
6.24327	0.918
6.28315	0.91
6.32303	0.916
6.36291	0.901
6.40279	0.901
6.44267	0.89
6.48255	0.893
6.52243	0.873
6.56231	0.856
6.60219	0.831
6.64207	0.782
6.68195	0.677
6.72183	0.369
6.76171	0.221
6.80159	0.076
6.84147	0.078
6.88135	0.106
6.92123	0.251
6.96111	0.522
7.00099	0.643
7.04087	0.622
7.08075	0.584
7.12063	0.555
7.16051	0.42
7.20039	0.282
7.24027	0.123
7.28015	0.246
7.32003	0.364
7.35991	0.502
7.39979	0.459
7.43967	0.329
7.47955	0.252
7.51943	0.477
7.55931	0.52
7.59919	0.509
7.63907	0.464
7.67895	0.404
7.71883	0.361
7.75871	0.367
7.79859	0.435
7.83847	0.512
7.87835	0.57
7.91823	0.607
7.95811	0.643
7.99799	0.653
8.03787	0.662
8.07775	0.682
8.11763	0.697
8.15751	0.707
8.19739	0.708
8.23727	0.695
8.27715	0.692
8.31702	0.7
8.3569	0.692
8.39678	0.682
8.43666	0.663
8.47654	0.608
8.51642	0.547
8.5563	0.51
8.59618	0.474
8.63606	0.434
8.67594	0.435
8.71582	0.435
8.7557	0.396
8.79558	0.336
8.83546	0.251
8.87534	0.144
8.91522	0.106
8.9551	0.094
8.99498	0.088
9.03486	0.091
9.07474	0.101
9.11462	0.108
9.1545	0.116
9.19438	0.123
9.23426	0.136
9.27414	0.168
9.31402	0.188
9.3539	0.196
9.39378	0.224
9.43366	0.276
9.47354	0.317
9.51342	0.327
9.5533	0.254
9.59318	0.161
9.63306	0.154
9.67294	0.224
9.71282	0.307
9.7527	0.387
9.79258	0.457
9.83246	0.512
9.87234	0.539
9.91222	0.562
9.9521	0.557
9.99198	0.569
10.0319	0.597
10.0717	0.6
10.1116	0.61
10.1515	0.63
10.1914	0.633
10.2313	0.637
10.2711	0.633
10.311	0.642
10.3509	0.65
10.3908	0.653
10.4307	0.653
10.4705	0.657
10.5104	0.66
10.5503	0.673
10.5902	0.68
10.6301	0.685
10.6699	0.685
10.7098	0.682
10.7497	0.683
10.7896	0.685
10.8295	0.682
10.8693	0.668
10.9092	0.642
10.9491	0.597
10.989	0.5
11.0289	0.337
11.0687	0.251
11.1086	0.321
11.1485	0.464
11.1884	0.549
11.2283	0.61
11.2681	0.648
11.308	0.678
11.3479	0.685
11.3878	0.688
11.4277	0.687
11.4675	0.675
11.5074	0.66
11.5473	0.653
11.5872	0.643
11.6271	0.63
11.6669	0.615
11.7068	0.59
11.7467	0.56
11.7866	0.514
11.8265	0.452
11.8663	0.372
11.9062	0.292
11.9461	0.194
11.986	0.121
12.0259	0.081
12.0657	0.083
12.1056	0.099
12.1455	0.124
12.1854	0.153
12.2253	0.181
12.2651	0.211
12.305	0.241
12.3449	0.251
12.3848	0.234
12.4247	0.198
12.4645	0.158
12.5044	0.126
12.5443	0.103
12.5842	0.083
12.6241	0.061
12.6639	0.058
12.7038	0.068
12.7437	0.099
12.7836	0.149
12.8235	0.202
12.8633	0.247
12.9032	0.269
12.9431	0.309
12.983	0.367
13.0229	0.415
13.0627	0.459
13.1026	0.489
13.1425	0.51
13.1824	0.529
13.2223	0.544
13.2621	0.559
13.302	0.572
13.3419	0.592
13.3818	0.603
13.4217	0.61
13.4615	0.61
13.5014	0.61
13.5413	0.608
13.5812	0.607
13.6211	0.61
13.6609	0.612
13.7008	0.618
13.7407	0.622
13.7806	0.623
13.8205	0.62
13.8603	0.618
13.9002	0.62
13.9401	0.64
13.98	0.678
14.0199	0.7
14.0597	0.713
14.0996	0.73
14.1395	0.738
14.1794	0.75
14.2193	0.76
14.2591	0.767
14.299	0.773
14.3389	0.78
14.3788	0.783
14.4187	0.783
14.4585	0.783
14.4984	0.783
14.5383	0.778
14.5782	0.772
14.618	0.767
14.6579	0.762
14.6978	0.755
14.7377	0.748
14.7776	0.742
14.8174	0.732
14.8573	0.72
14.8972	0.713
14.9371	0.692
14.977	0.67
15.0168	0.64
15.0567	0.602
15.0966	0.567
15.1365	0.54
15.1764	0.5
15.2162	0.455
15.2561	0.41
15.296	0.372
15.3359	0.349
15.3758	0.336
15.4156	0.332
15.4555	0.337
15.4954	0.359
15.5353	0.386
15.5752	0.417
15.615	0.45
15.6549	0.484
15.6948	0.51
15.7347	0.532
15.7746	0.554
15.8144	0.572
15.8543	0.585
15.8942	0.592
15.9341	0.599
15.974	0.602
