Infrared Spectrum: 2,5-DICHLORO-3,4-DINITROTHIOPHENE
Formula: C4 Cl2 N2 O4 S
CAS: 51584-21-5
State: SOLID (NUJOL MULL)
Class: COBLENTZ
Instrument: Not specified, most likely a prism, grating, or hybrid spectrometer.
Sampling: TRANSMISSION
Resolution: 4
Origin: TENNESSEE EASTMAN COMPANY, RESEARCH LABORATORIES
MICROMETERS	TRANSMITTANCE
2.029	0.366
2.06892	0.369
2.10884	0.384
2.14876	0.389
2.18868	0.397
2.2286	0.408
2.26852	0.414
2.30844	0.418
2.34836	0.423
2.38828	0.431
2.4282	0.443
2.46812	0.451
2.50804	0.461
2.54796	0.481
2.58788	0.486
2.6278	0.488
2.66772	0.491
2.70764	0.493
2.74756	0.498
2.78748	0.501
2.8274	0.515
2.86732	0.525
2.90724	0.53
2.94716	0.535
2.98708	0.54
3.027	0.546
3.06692	0.55
3.10684	0.553
3.14676	0.553
3.18668	0.553
3.2266	0.556
3.26652	0.556
3.30644	0.54
3.34636	0.449
3.38628	0.098
3.4262	0.048
3.46612	0.178
3.50604	0.167
3.54596	0.551
3.58588	0.658
3.6258	0.68
3.66572	0.682
3.70564	0.683
3.74556	0.682
3.78548	0.683
3.8254	0.682
3.86532	0.688
3.90524	0.697
3.94516	0.71
3.98508	0.722
4.025	0.724
4.06492	0.724
4.10484	0.729
4.14476	0.734
4.18468	0.737
4.2246	0.749
4.26452	0.765
4.30444	0.765
4.34436	0.764
4.38428	0.765
4.4242	0.77
4.46412	0.772
4.50404	0.777
4.54396	0.784
4.58388	0.79
4.6238	0.794
4.66372	0.801
4.70364	0.804
4.74356	0.807
4.78348	0.812
4.8234	0.816
4.86332	0.817
4.90324	0.819
4.94316	0.822
4.98308	0.824
5.023	0.829
5.06292	0.829
5.10284	0.831
5.14276	0.836
5.18268	0.837
5.2226	0.846
5.26252	0.851
5.30244	0.856
5.34236	0.861
5.38228	0.861
5.4222	0.867
5.46212	0.867
5.50204	0.871
5.54196	0.881
5.58188	0.887
5.6218	0.889
5.66172	0.892
5.70164	0.896
5.74156	0.897
5.78148	0.899
5.8214	0.911
5.86132	0.913
5.90124	0.914
5.94116	0.921
5.98108	0.923
6.021	0.924
6.06092	0.934
6.10084	0.933
6.14076	0.941
6.18068	0.964
6.2206	0.968
6.26052	0.968
6.30044	0.961
6.34036	0.802
6.38028	0.454
6.4202	0.187
6.46012	0.091
6.50004	0.498
6.53996	0.645
6.57988	0.26
6.6198	0.25
6.65972	0.501
6.69964	0.595
6.73956	0.6
6.77948	0.346
6.8194	0.359
6.85932	0.406
6.89924	0.5
6.93916	0.613
6.97908	0.688
7.019	0.764
7.05892	0.767
7.09884	0.637
7.13876	0.267
7.17868	0.384
7.2186	0.491
7.25852	0.488
7.29843	0.548
7.33835	0.633
7.37827	0.535
7.41819	0.344
7.45811	0.483
7.49803	0.473
7.53795	0.546
7.57787	0.252
7.61779	0.558
7.65771	0.648
7.69763	0.673
7.73755	0.727
7.77747	0.757
7.81739	0.772
7.85731	0.774
7.89723	0.774
7.93715	0.794
7.97707	0.817
8.01699	0.822
8.05691	0.827
8.09683	0.829
8.13675	0.829
8.17667	0.832
8.21659	0.837
8.25651	0.844
8.29643	0.849
8.33635	0.856
8.37627	0.862
8.41619	0.864
8.45611	0.866
8.49603	0.874
8.53595	0.876
8.57587	0.879
8.61579	0.884
8.65571	0.886
8.69563	0.891
8.73555	0.903
8.77547	0.914
8.81539	0.921
8.85531	0.928
8.89523	0.924
8.93515	0.869
8.97507	0.561
9.01499	0.391
9.05491	0.655
9.09483	0.747
9.13475	0.804
9.17467	0.824
9.21459	0.827
9.25451	0.827
9.29443	0.826
9.33435	0.829
9.37427	0.839
9.41419	0.866
9.45411	0.871
9.49403	0.876
9.53395	0.879
9.57387	0.882
9.61379	0.884
9.65371	0.889
9.69363	0.891
9.73355	0.896
9.77347	0.901
9.81339	0.903
9.85331	0.906
9.89323	0.911
9.93315	0.913
9.97307	0.916
10.013	0.919
10.0529	0.921
10.0928	0.923
10.1328	0.924
10.1727	0.924
10.2126	0.924
10.2525	0.924
10.2924	0.924
10.3324	0.924
10.3723	0.921
10.4122	0.886
10.4521	0.76
10.492	0.652
10.532	0.697
10.5719	0.795
10.6118	0.831
10.6517	0.852
10.6916	0.876
10.7316	0.891
10.7715	0.899
10.8114	0.908
10.8513	0.913
10.8912	0.913
10.9312	0.734
10.9711	0.638
11.011	0.841
11.0509	0.894
11.0908	0.913
11.1308	0.919
11.1707	0.921
11.2106	0.924
11.2505	0.931
11.2904	0.936
11.3304	0.939
11.3703	0.943
11.4102	0.951
11.4501	0.954
11.49	0.961
11.53	0.964
11.5699	0.964
11.6098	0.963
11.6497	0.964
11.6896	0.966
11.7296	0.966
11.7695	0.968
11.8094	0.968
11.8493	0.968
11.8892	0.969
11.9292	0.969
11.9691	0.969
12.009	0.969
12.0489	0.964
12.0888	0.936
12.1288	0.879
12.1687	0.842
12.2086	0.829
12.2485	0.886
12.2884	0.929
12.3284	0.949
12.3683	0.959
12.4082	0.964
12.4481	0.964
12.488	0.964
12.5279	0.964
12.5679	0.964
12.6078	0.964
12.6477	0.964
12.6876	0.964
12.7275	0.964
12.7675	0.964
12.8074	0.964
12.8473	0.963
12.8872	0.963
12.9271	0.963
12.9671	0.964
13.007	0.961
13.0469	0.906
13.0868	0.707
13.1267	0.413
13.1667	0.341
13.2066	0.535
13.2465	0.565
13.2864	0.403
13.3263	0.409
13.3663	0.643
13.4062	0.747
13.4461	0.797
13.486	0.819
13.5259	0.824
13.5659	0.827
13.6058	0.829
13.6457	0.831
13.6856	0.834
13.7255	0.836
13.7655	0.834
13.8054	0.832
13.8453	0.834
13.8852	0.834
13.9251	0.836
13.9651	0.839
14.005	0.846
14.0449	0.854
14.0848	0.856
14.1247	0.857
14.1647	0.859
14.2046	0.859
14.2445	0.857
14.2844	0.854
14.3243	0.851
14.3643	0.836
14.4042	0.826
14.4441	0.811
14.484	0.757
14.5239	0.702
14.5639	0.637
14.6038	0.617
14.6437	0.617
14.6836	0.643
14.7235	0.678
14.7635	0.707
14.8034	0.729
14.8433	0.739
14.8832	0.749
14.9231	0.752
14.9631	0.752
15.003	0.757
15.0429	0.757
15.0828	0.757
15.1227	0.757
15.1627	0.757
15.2026	0.757
15.2425	0.755
15.2824	0.754
15.3223	0.754
15.3623	0.752
15.4022	0.75
15.4421	0.75
15.482	0.75
15.5219	0.749
15.5619	0.749
15.6018	0.747
15.6417	0.745
15.6816	0.745
15.7215	0.745
15.7615	0.745
15.8014	0.745
15.8413	0.747
15.8812	0.745
15.9211	0.745
15.9611	0.747
16.001	0.747
