Infrared Spectrum: 3-Decyn-1-ol
Formula: C10 H18 O
CAS: 51721-39-2
State: SOLUTION (10% CCl4 FOR 4000-1330, 10% CS2 FOR 1330-450 CM^-^1)
Class: COBLENTZ III
Instrument: CARY 90 (GRATING)
Instrument parameters: ORDER CHANGES: 3000, 2000, 1200 CM^-^1
Sampling: TRANSMISSION
Path length: 0.010 CM, AND 0.011 CM
Resolution: 2
Origin: WESTERN REGIONAL RES. USDA
1/CM	TRANSMITTANCE
3810	0.9274
3801	0.9271
3792	0.9268
3783	0.9261
3774	0.9254
3765	0.9242
3756	0.9228
3747	0.9209
3738	0.9185
3729	0.915
3720	0.9112
3711	0.907
3702	0.9028
3693	0.8957
3684	0.8878
3675	0.8795
3666	0.8692
3657	0.8325
3648	0.7744
3639	0.7365
3630	0.7448
3621	0.7634
3612	0.7467
3603	0.6728
3594	0.6478
3585	0.6672
3576	0.6878
3567	0.6881
3558	0.6753
3549	0.6499
3540	0.622
3531	0.5945
3522	0.5733
3513	0.5597
3504	0.5493
3495	0.5404
3486	0.5329
3477	0.5255
3468	0.5176
3459	0.5109
3450	0.5054
3441	0.5
3432	0.495
3423	0.4895
3414	0.4845
3405	0.4803
3396	0.4767
3387	0.475
3378	0.474
3369	0.4739
3360	0.4747
3351	0.4782
3342	0.4834
3333	0.492
3324	0.503
3315	0.5176
3306	0.5317
3297	0.556
3288	0.5732
3279	0.5879
3270	0.6064
3261	0.6278
3252	0.6478
3243	0.6685
3234	0.6895
3225	0.7094
3216	0.7295
3207	0.7468
3198	0.759
3189	0.7712
3180	0.785
3171	0.7978
3162	0.8099
3153	0.8211
3144	0.8292
3135	0.8354
3126	0.8401
3117	0.8441
3108	0.8468
3099	0.848
3090	0.848
3081	0.8477
3072	0.8471
3063	0.8421
3054	0.8346
3045	0.8268
3036	0.8126
3027	0.7939
3018	0.7661
3009	0.7431
3000	0.6818
2991	0.5289
2982	0.4062
2973	0.149
2964	0.0254
2955	0.0312
2946	0.0198
2937	0.0084
2928	0.0119
2919	0.0378
2910	0.0757
2901	0.1349
2892	0.1786
2883	0.1533
2874	0.1211
2865	0.0892
2856	0.136
2847	0.2952
2838	0.4955
2829	0.5966
2820	0.6753
2811	0.7311
2802	0.7637
2793	0.8008
2784	0.822
2775	0.8315
2766	0.8381
2757	0.842
2748	0.8458
2739	0.8501
2730	0.8554
2721	0.8625
2712	0.8733
2703	0.877
2694	0.8771
2685	0.8742
2676	0.8718
2667	0.8715
2658	0.8721
2649	0.875
2640	0.8841
2631	0.8918
2622	0.899
2613	0.9032
2604	0.9044
2595	0.9051
2586	0.9046
2577	0.905
2568	0.9068
2559	0.9094
2550	0.9118
2541	0.914
2532	0.9161
2523	0.918
2514	0.9197
2505	0.9213
2496	0.9225
2487	0.9239
2478	0.9248
2469	0.9254
2460	0.9248
2451	0.9236
2442	0.9225
2433	0.9215
2424	0.9223
2415	0.9232
2406	0.9241
2397	0.9252
2388	0.9262
2379	0.9268
2370	0.9273
2361	0.9277
2352	0.9283
2343	0.9288
2334	0.9293
2325	0.9295
2316	0.9298
2307	0.9301
2298	0.9305
2289	0.9308
2280	0.9312
2271	0.9317
2262	0.9321
2253	0.9321
2244	0.9314
2235	0.9289
2226	0.9251
2217	0.9264
2208	0.9295
2199	0.9318
2190	0.9342
2181	0.9363
2172	0.9382
2163	0.9398
2154	0.9399
2145	0.9402
2136	0.9399
2127	0.9361
2118	0.9317
2109	0.9264
2100	0.9243
2091	0.9234
2082	0.9228
2073	0.9221
2064	0.9225
2055	0.9228
2046	0.9239
2037	0.9252
2028	0.9266
2019	0.9286
2010	0.9306
2001	0.9333
1992	0.938
1983	0.9418
1974	0.9434
1965	0.9428
1956	0.9417
1947	0.9405
1938	0.9392
1929	0.9378
1920	0.9368
1911	0.9359
1902	0.9349
1893	0.9362
1884	0.9375
1875	0.939
1866	0.9401
1857	0.9401
1848	0.94
1839	0.9398
1830	0.9396
1821	0.9393
1812	0.9386
1803	0.9359
1794	0.9345
1785	0.9315
1776	0.9286
1767	0.9298
1758	0.9308
1749	0.9264
1740	0.9275
1731	0.9287
1722	0.9274
1713	0.925
1704	0.9225
1695	0.92
1686	0.9161
1677	0.9124
1668	0.9115
1659	0.9111
1650	0.9086
1641	0.9033
1632	0.9009
1623	0.8996
1614	0.8986
1605	0.9008
1596	0.9044
1587	0.907
1578	0.9056
1569	0.9095
1560	0.9111
1551	0.9067
1542	0.898
1533	0.8874
1524	0.8736
1515	0.8565
1506	0.8392
1497	0.8185
1488	0.7833
1479	0.7093
1470	0.39
1461	0.3555
1452	0.4541
1443	0.5208
1434	0.4274
1425	0.4916
1416	0.6244
1407	0.6307
1398	0.5884
1389	0.4773
1380	0.3962
1371	0.6088
1362	0.6526
1353	0.6239
1344	0.5765
1335	0.5129
1326	0.5243
1317	0.6754
1308	0.6944
1299	0.7162
1290	0.7187
1281	0.726
1272	0.7249
1263	0.7465
1254	0.7521
1245	0.7543
1236	0.7546
1227	0.7361
1218	0.7054
1209	0.726
1200	0.7357
1191	0.709
1182	0.616
1173	0.7234
1164	0.7715
1155	0.7848
1146	0.7834
1137	0.7749
1128	0.7982
1119	0.789
1110	0.7581
1101	0.7788
1092	0.7751
1083	0.6942
1074	0.5783
1065	0.4068
1056	0.1998
1047	0.0752
1038	0.1459
1029	0.3728
1020	0.5304
1011	0.6043
1002	0.671
993	0.7175
984	0.7671
975	0.7753
966	0.7721
957	0.7788
948	0.7844
939	0.7736
930	0.7512
921	0.7396
912	0.7551
903	0.7925
894	0.7969
885	0.7805
876	0.7946
867	0.7958
858	0.7528
849	0.6181
840	0.7691
831	0.7851
822	0.789
813	0.7884
804	0.7874
795	0.7839
786	0.7706
777	0.7574
768	0.7544
759	0.7501
750	0.7395
741	0.7197
732	0.68
723	0.6306
714	0.668
705	0.7114
696	0.7185
687	0.7134
678	0.7065
669	0.7
660	0.6939
651	0.6865
642	0.6789
633	0.669
624	0.6585
615	0.6471
606	0.6346
597	0.6235
588	0.6129
579	0.5981
570	0.5783
561	0.5599
552	0.546
543	0.5434
534	0.5464
525	0.5457
516	0.5378
507	0.5312
