Infrared Spectrum: BENZAMIDE, 2-AMINO-5-CHLORO-
Formula: C7 H7 Cl N2 O
CAS: 5202-85-7
State: SOLID (1 mg / 500 mg KBr DISC)
Class: COBLENTZ III
Instrument: PERKIN-ELMER 621
Sampling: TRANSMISSION
Resolution: 4
Origin: SOUTHERN RESEARCH INSTITUTE
1/CM	TRANSMITTANCE
252.185	0.148
262.665	0.19
273.146	0.2498
283.626	0.3275
294.106	0.4503
304.587	0.492
315.067	0.5258
325.547	0.576
336.028	0.6093
346.508	0.6629
356.988	0.6826
367.469	0.6574
377.949	0.6321
388.43	0.6798
398.91	0.6871
409.39	0.5972
419.871	0.6893
430.351	0.6872
440.831	0.6229
451.312	0.6697
461.792	0.663
472.272	0.664
482.753	0.661
493.233	0.6377
503.713	0.5948
514.194	0.4395
524.674	0.6159
535.154	0.5785
545.635	0.4788
556.115	0.5093
566.595	0.6586
577.076	0.5909
587.556	0.533
598.037	0.518
608.517	0.524
618.997	0.5365
629.478	0.5281
639.958	0.4938
650.438	0.4382
660.919	0.5806
671.399	0.4708
681.879	0.5734
692.36	0.5541
702.84	0.5036
713.32	0.496
723.801	0.4996
734.281	0.4797
744.761	0.4847
755.242	0.5862
765.722	0.6157
776.202	0.5992
786.683	0.6044
797.163	0.58
807.644	0.6185
818.124	0.6153
828.604	0.3899
839.085	0.6497
849.565	0.7524
860.045	0.794
870.526	0.7095
881.006	0.582
891.486	0.6334
901.967	0.7571
912.447	0.8061
922.927	0.8191
933.408	0.8225
943.888	0.8199
954.368	0.8276
964.849	0.83
975.329	0.824
985.809	0.82
996.29	0.813
1006.77	0.8075
1017.25	0.794
1027.73	0.7846
1038.21	0.7761
1048.69	0.76
1059.17	0.7401
1069.65	0.7061
1080.13	0.6443
1090.61	0.5576
1101.09	0.6827
1111.57	0.7044
1122.05	0.7176
1132.53	0.6954
1143.01	0.6346
1153.5	0.615
1163.98	0.6495
1174.46	0.735
1184.94	0.7289
1195.42	0.7136
1205.9	0.6956
1216.38	0.668
1226.86	0.6412
1237.34	0.5676
1247.82	0.4647
1258.3	0.6916
1268.78	0.724
1279.26	0.6957
1289.74	0.6519
1300.22	0.613
1310.7	0.5817
1321.18	0.6188
1331.66	0.6973
1342.14	0.6839
1352.62	0.6587
1363.1	0.626
1373.58	0.569
1384.06	0.4827
1394.54	0.333
1405.02	0.5
1415.5	0.3879
1425.98	0.6365
1436.46	0.722
1446.94	0.6936
1457.43	0.6704
1467.91	0.6031
1478.39	0.4645
1488.87	0.5208
1499.35	0.6372
1509.83	0.6275
1520.31	0.5848
1530.79	0.5438
1541.27	0.4428
1551.75	0.4142
1562.23	0.5522
1572.71	0.5151
1583.19	0.392
1593.67	0.4306
1604.15	0.3425
1614.63	0.2838
1625.11	0.3707
1635.59	0.4771
1646.07	0.4432
1656.55	0.3699
1667.03	0.3519
1677.51	0.2791
1687.99	0.4989
1698.47	0.6756
1708.95	0.7561
1719.43	0.8181
1729.91	0.84
1740.39	0.864
1750.87	0.869
1761.36	0.863
1771.84	0.85
1782.32	0.8559
1792.8	0.868
1803.28	0.864
1813.76	0.864
1824.24	0.864
1834.72	0.8501
1845.2	0.85
1855.68	0.848
1866.16	0.8402
1876.64	0.833
1887.12	0.8173
1897.6	0.8202
1908.08	0.829
1918.56	0.8261
1929.04	0.822
1939.52	0.8183
1950	0.8161
1960.48	0.8071
1970.96	0.809
1981.44	0.803
1991.92	0.8073
2002.4	0.8
2012.88	0.796
2023.36	0.794
2033.84	0.792
2044.32	0.79
2054.81	0.79
2065.29	0.787
2075.77	0.782
2086.25	0.7792
2096.73	0.778
2107.21	0.778
2117.69	0.7753
2128.17	0.7713
2138.65	0.77
2149.13	0.769
2159.61	0.7642
2170.09	0.761
2180.57	0.7612
2191.05	0.758
2201.53	0.7562
2212.01	0.7522
2222.49	0.748
2232.97	0.747
2243.45	0.744
2253.93	0.744
2264.41	0.743
2274.89	0.743
2285.37	0.741
2295.85	0.739
2306.33	0.7352
2316.81	0.7272
2327.29	0.724
2337.77	0.723
2348.25	0.722
2358.74	0.722
2369.22	0.722
2379.7	0.722
2390.18	0.722
2400.66	0.722
2411.14	0.719
2421.62	0.717
2432.1	0.715
2442.58	0.7113
2453.06	0.711
2463.54	0.711
2474.02	0.707
2484.5	0.706
2494.98	0.706
2505.46	0.705
2515.94	0.7023
2526.42	0.7023
2536.9	0.698
2547.38	0.6943
2557.86	0.692
2568.34	0.691
2578.82	0.689
2589.3	0.691
2599.78	0.6882
2610.26	0.685
2620.74	0.6787
2631.22	0.677
2641.7	0.675
2652.18	0.674
2662.67	0.671
2673.15	0.668
2683.63	0.662
2694.11	0.6593
2704.59	0.657
2715.07	0.6515
2725.55	0.6473
2736.03	0.641
2746.51	0.64
2756.99	0.64
2767.47	0.641
2777.95	0.642
2788.43	0.644
2798.91	0.645
2809.39	0.646
2819.87	0.646
2830.35	0.642
2840.83	0.6375
2851.31	0.6293
2861.79	0.628
2872.27	0.625
2882.75	0.62
2893.23	0.615
2903.71	0.614
2914.19	0.6083
2924.67	0.6043
2935.15	0.602
2945.63	0.599
2956.12	0.5913
2966.6	0.5883
2977.08	0.5783
2987.56	0.5722
2998.04	0.5645
3008.52	0.5557
3019	0.5427
3029.48	0.5372
3039.96	0.5283
3050.44	0.5037
3060.92	0.492
3071.4	0.481
3081.88	0.471
3092.36	0.465
3102.84	0.4575
3113.32	0.4432
3123.8	0.4185
3134.28	0.3878
3144.76	0.3585
3155.24	0.3242
3165.72	0.314
3176.2	0.3278
3186.68	0.3528
3197.16	0.3913
3207.64	0.4127
3218.12	0.422
3228.6	0.418
3239.08	0.4102
3249.56	0.4042
3260.05	0.3823
3270.53	0.3595
3281.01	0.3285
3291.49	0.3085
3301.97	0.3078
3312.45	0.328
3322.93	0.328
3333.41	0.3163
3343.89	0.3033
3354.37	0.295
3364.85	0.2988
3375.33	0.305
3385.81	0.2855
3396.29	0.2223
3406.77	0.2487
3417.25	0.353
3427.73	0.4392
3438.21	0.4863
3448.69	0.5237
3459.17	0.5495
3469.65	0.5647
3480.13	0.5805
3490.61	0.5943
3501.09	0.6028
3511.57	0.608
3522.05	0.6185
3532.53	0.6287
3543.01	0.6338
3553.5	0.6408
3563.98	0.644
3574.46	0.6578
3584.94	0.6638
3595.42	0.671
3605.9	0.677
3616.38	0.6907
3626.86	0.692
3637.34	0.694
3647.82	0.694
3658.3	0.694
3668.78	0.692
3679.26	0.6918
3689.74	0.694
3700.22	0.694
3710.7	0.6912
3721.18	0.691
3731.66	0.691
3742.14	0.688
3752.62	0.688
3763.1	0.689
3773.58	0.6842
3784.06	0.683
3794.54	0.68
3805.02	0.679
3815.5	0.674
3825.98	0.676
3836.46	0.675
3846.94	0.672
3857.43	0.674
3867.91	0.67
3878.39	0.6662
3888.87	0.666
3899.35	0.663
3909.83	0.661
3920.31	0.661
3930.79	0.6567
3941.27	0.6607
3951.75	0.658
3962.23	0.661
3972.71	0.6588
3983.19	0.6588
3993.67	0.6588
