Infrared Spectrum: 5-Decanol
Formula: C10 H22 O
CAS: 5205-34-5
State: SOLUTION (10% CCl4 FOR 3800-1330, 10% CS2 FOR 1330-400 CM^-^1)
Class: COBLENTZ II
Instrument: BECKMAN IR-9 (GRATING)
Instrument parameters: ORDER CHANGES: 670, 1200, 2000 CM^-^1
Sampling: TRANSMISSION
Path length: 0.011 CM, 0.011 CM
Resolution: 2
Origin: DOW CHEMICAL COMPANY
1/CM	TRANSMITTANCE
3800	0.8778
3791	0.8771
3782	0.8765
3773	0.8757
3764	0.8746
3755	0.873
3746	0.8714
3737	0.8695
3728	0.8675
3719	0.8659
3710	0.8642
3701	0.8588
3692	0.8513
3683	0.8492
3674	0.8468
3665	0.8388
3656	0.8132
3647	0.7474
3638	0.6257
3629	0.6515
3620	0.7008
3611	0.74
3602	0.7871
3593	0.8158
3584	0.8135
3575	0.8031
3566	0.7748
3557	0.7562
3548	0.729
3539	0.696
3530	0.6691
3521	0.6482
3512	0.6277
3503	0.6127
3494	0.6001
3485	0.5875
3476	0.5782
3467	0.5694
3458	0.5615
3449	0.5526
3440	0.5434
3431	0.5334
3422	0.5237
3413	0.5156
3404	0.5076
3395	0.5
3386	0.496
3377	0.4922
3368	0.4939
3359	0.4975
3350	0.5036
3341	0.511
3332	0.5225
3323	0.5392
3314	0.5574
3305	0.579
3296	0.6034
3287	0.6257
3278	0.6471
3269	0.6672
3260	0.6875
3251	0.7083
3242	0.7253
3233	0.7395
3224	0.7535
3215	0.7657
3206	0.778
3197	0.7862
3188	0.7941
3179	0.8014
3170	0.8086
3161	0.8151
3152	0.82
3143	0.8232
3134	0.8256
3125	0.8266
3116	0.8268
3107	0.8257
3098	0.8237
3089	0.8211
3080	0.8168
3071	0.8118
3062	0.8051
3053	0.7965
3044	0.7861
3035	0.7692
3026	0.7471
3017	0.7211
3008	0.6895
2999	0.6387
2990	0.5388
2981	0.3868
2972	0.078
2963	0.0223
2954	0.0358
2945	0.028
2936	0.0205
2927	0.0259
2918	0.0627
2909	0.0846
2900	0.1442
2891	0.2188
2882	0.175
2873	0.0719
2864	0.0558
2855	0.0657
2846	0.2373
2837	0.4301
2828	0.6003
2819	0.6539
2810	0.698
2801	0.7319
2792	0.7555
2783	0.7737
2774	0.7845
2765	0.7891
2756	0.7914
2747	0.7919
2738	0.7892
2729	0.7804
2720	0.7788
2711	0.7986
2702	0.8039
2693	0.8053
2684	0.8043
2675	0.8019
2666	0.7992
2657	0.8007
2648	0.805
2639	0.8111
2630	0.8169
2621	0.8227
2612	0.826
2603	0.8285
2594	0.8318
2585	0.8352
2576	0.8388
2567	0.8425
2558	0.8463
2549	0.8498
2540	0.8523
2531	0.8547
2522	0.8571
2513	0.8589
2504	0.8602
2495	0.8614
2486	0.8624
2477	0.8631
2468	0.8638
2459	0.8644
2450	0.8649
2441	0.8652
2432	0.8657
2423	0.8661
2414	0.867
2405	0.8678
2396	0.8686
2387	0.8693
2378	0.8699
2369	0.8705
2360	0.8712
2351	0.8721
2342	0.8731
2333	0.874
2324	0.875
2315	0.8754
2306	0.8753
2297	0.8751
2288	0.8752
2279	0.8754
2270	0.8758
2261	0.876
2252	0.8762
2243	0.8756
2234	0.8749
2225	0.8744
2216	0.8741
2207	0.8742
2198	0.8747
2189	0.8751
2180	0.8756
2171	0.876
2162	0.877
2153	0.8778
2144	0.8789
2135	0.8798
2126	0.8805
2117	0.881
2108	0.8816
2099	0.8818
2090	0.8818
2081	0.8818
2072	0.8818
2063	0.8818
2054	0.8817
2045	0.8813
2036	0.8808
2027	0.8805
2018	0.8804
2009	0.8803
2000	0.8781
1991	0.8794
1982	0.8799
1973	0.8803
1964	0.881
1955	0.8812
1946	0.8803
1937	0.8798
1928	0.8797
1919	0.8802
1910	0.8816
1901	0.8823
1892	0.8801
1883	0.8799
1874	0.8803
1865	0.8806
1856	0.8808
1847	0.8811
1838	0.8813
1829	0.8816
1820	0.8818
1811	0.8825
1802	0.8836
1793	0.8842
1784	0.8835
1775	0.8827
1766	0.8817
1757	0.8801
1748	0.8775
1739	0.8738
1730	0.868
1721	0.8567
1712	0.8521
1703	0.8562
1694	0.8613
1685	0.8587
1676	0.8607
1667	0.868
1658	0.8709
1649	0.8697
1640	0.8646
1631	0.862
1622	0.8628
1613	0.8718
1604	0.881
1595	0.8874
1586	0.8904
1577	0.8917
1568	0.8974
1559	0.9063
1550	0.9038
1541	0.8866
1532	0.8682
1523	0.8555
1514	0.8463
1505	0.83
1496	0.8078
1487	0.7761
1478	0.7054
1469	0.1971
1460	0.2814
1451	0.4042
1442	0.5696
1433	0.6253
1424	0.6786
1415	0.6592
1406	0.6322
1397	0.621
1388	0.6082
1379	0.3764
1370	0.5929
1361	0.649
1352	0.661
1343	0.6418
1334	0.6622
1325	0.6797
1316	0.6775
1307	0.67
1298	0.6661
1289	0.6787
1280	0.6855
1271	0.6865
1262	0.6855
1253	0.6856
1244	0.695
1235	0.7262
1226	0.7482
1217	0.7605
1208	0.756
1199	0.7567
1190	0.7704
1181	0.8153
1172	0.8409
1163	0.8513
1154	0.8192
1145	0.6698
1136	0.5712
1127	0.5858
1118	0.6155
1109	0.7017
1100	0.7411
1091	0.7193
1082	0.6418
1073	0.6254
1064	0.6474
1055	0.5848
1046	0.5712
1037	0.5249
1028	0.4943
1019	0.4851
1010	0.5173
1001	0.5781
992	0.6331
983	0.6922
974	0.7542
965	0.7811
956	0.7751
947	0.7275
938	0.7508
929	0.7215
920	0.8161
911	0.8325
902	0.7641
893	0.7521
884	0.8048
875	0.8231
866	0.8632
857	0.8892
848	0.9052
839	0.8951
830	0.8568
821	0.8809
812	0.8982
803	0.8894
794	0.8505
785	0.8378
776	0.8685
767	0.8484
758	0.8518
749	0.8359
740	0.8033
731	0.6811
722	0.7435
713	0.8341
704	0.8454
695	0.844
686	0.8385
677	0.833
668	0.8289
659	0.8246
650	0.8201
641	0.8182
632	0.8167
623	0.8171
614	0.8149
605	0.8132
596	0.8136
587	0.8103
578	0.8053
569	0.7967
560	0.7904
551	0.7874
542	0.786
533	0.7869
524	0.7825
515	0.7811
506	0.7812
497	0.7882
488	0.8078
479	0.8202
470	0.8284
461	0.8247
452	0.8323
443	0.843
434	0.858
425	0.8774
416	0.8811
407	0.8702
