Infrared Spectrum: BENZENE, 1-CHLORO-4-(TRICHLOROMETHYL)-
Formula: C7 H4 Cl4
CAS: 5216-25-1
Boiling point: 252 C
Class: COBLENTZ III
Instrument: FTS-14
Sampling: TRANSMISSION
Path length: FILM BETWEEN KBr PLATES
Resolution: 4
Origin: DOW CHEMICAL COMPANY
1/CM	TRANSMITTANCE
403.348	0.802
411.876	0.769
420.404	0.777
428.932	0.797
437.461	0.811
445.989	0.804
454.517	0.794
463.045	0.773
471.573	0.702
480.101	0.405
488.629	0.185
497.157	0.6448
505.686	0.814
514.214	0.5275
522.742	0.6358
531.27	0.879
539.798	0.913
548.326	0.923
556.854	0.942
565.382	0.957
573.911	0.969
582.439	0.976
590.967	0.977
599.495	0.983
608.023	0.992
616.551	0.976
625.079	0.8761
633.607	0.655
642.136	0.913
650.664	0.908
659.192	0.911
667.72	0.9
676.248	0.841
684.776	0.6771
693.304	0.1161
701.833	0.2108
710.361	0.627
718.889	0.739
727.417	0.701
735.945	0.32
744.473	0
753.001	0
761.529	0
770.058	0.011
778.586	0.1789
787.114	0.238
795.642	0.151
804.17	0.002
812.698	0.007
821.226	0.183
829.754	0.494
838.283	0.3832
846.811	0.4688
855.339	0.4951
863.867	0.1132
872.395	0.007
880.923	0.1379
889.451	0.7049
897.98	0.844
906.508	0.898
915.036	0.914
923.564	0.922
932.092	0.945
940.62	0.938
949.148	0.7661
957.676	0.891
966.205	0.894
974.733	0.935
983.261	0.951
991.789	0.954
1000.32	0.929
1008.85	0.8001
1017.37	0.1423
1025.9	0.7579
1034.43	0.7439
1042.96	0.911
1051.49	0.925
1060.01	0.883
1068.54	0.923
1077.07	0.823
1085.6	0.5189
1094.13	0.1821
1102.65	0.025
1111.18	0.5888
1119.71	0.758
1128.24	0.8319
1136.77	0.898
1145.3	0.923
1153.82	0.925
1162.35	0.889
1170.88	0.832
1179.41	0.4724
1187.94	0.064
1196.46	0.2769
1204.99	0.7079
1213.52	0.876
1222.05	0.923
1230.58	0.944
1239.1	0.945
1247.63	0.936
1256.16	0.933
1264.69	0.926
1273.22	0.913
1281.75	0.847
1290.27	0.929
1298.8	0.939
1307.33	0.789
1315.86	0.927
1324.39	0.891
1332.91	0.851
1341.44	0.872
1349.97	0.852
1358.5	0.87
1367.03	0.917
1375.55	0.913
1384.08	0.891
1392.61	0.741
1401.14	0.113
1409.67	0.476
1418.2	0.811
1426.72	0.839
1435.25	0.889
1443.78	0.894
1452.31	0.873
1460.84	0.65
1469.36	0.717
1477.89	0.744
1486.42	0.3469
1494.95	0.0541
1503.48	0.636
1512	0.77
1520.53	0.911
1529.06	0.941
1537.59	0.938
1546.12	0.925
1554.65	0.901
1563.17	0.864
1571.7	0.772
1580.23	0.423
1588.76	0.5019
1597.29	0.108
1605.81	0.6388
1614.34	0.907
1622.87	0.925
1631.4	0.925
1639.93	0.925
1648.45	0.895
1656.98	0.802
1665.51	0.839
1674.04	0.919
1682.57	0.948
1691.1	0.951
1699.62	0.933
1708.15	0.95
1716.68	0.969
1725.21	0.973
1733.74	0.967
1742.26	0.96
1750.79	0.96
1759.32	0.97
1767.85	0.95
1776.38	0.854
1784.9	0.88
1793.43	0.944
1801.96	0.951
1810.49	0.955
1819.02	0.976
1827.55	0.985
1836.07	0.989
1844.6	0.992
1853.13	0.989
1861.66	0.989
1870.19	0.986
1878.71	0.979
1887.24	0.963
1895.77	0.93
1904.3	0.776
1912.83	0.789
1921.36	0.936
1929.88	0.973
1938.41	0.982
1946.94	0.986
1955.47	0.985
1964	0.964
1972.52	0.98
1981.05	0.985
1989.58	0.988
1998.11	0.989
2006.64	0.991
2015.16	0.991
2023.69	0.9899
2032.22	0.9819
2040.75	0.9754
2049.28	0.9593
2057.81	0.9254
2066.33	0.9401
2074.86	0.9701
2083.39	0.9791
2091.92	0.9843
2100.45	0.985
2108.97	0.9807
2117.5	0.9822
2126.03	0.9857
2134.56	0.988
2143.09	0.986
2151.61	0.988
2160.14	0.988
2168.67	0.989
2177.2	0.989
2185.73	0.988
2194.26	0.9864
2202.78	0.9814
2211.31	0.982
2219.84	0.986
2228.37	0.986
2236.9	0.988
2245.42	0.988
2253.95	0.9856
2262.48	0.9821
2271.01	0.977
2279.54	0.975
2288.06	0.969
2296.59	0.969
2305.12	0.9541
2313.65	0.904
2322.18	0.9306
2330.71	0.942
2339.23	0.9325
2347.76	0.9351
2356.29	0.9442
2364.82	0.8502
2373.35	0.8688
2381.87	0.9159
2390.4	0.9529
2398.93	0.961
2407.46	0.96
2415.99	0.9725
2424.51	0.9723
2433.04	0.973
2441.57	0.975
2450.1	0.9716
2458.63	0.9663
2467.16	0.9603
2475.68	0.964
2484.21	0.967
2492.74	0.9626
2501.27	0.966
2509.8	0.9687
2518.32	0.9653
2526.85	0.9638
2535.38	0.964
2543.91	0.9601
2552.44	0.9498
2560.96	0.9252
2569.49	0.9415
2578.02	0.9541
2586.55	0.938
2595.08	0.9549
2603.61	0.9556
2612.13	0.955
2620.66	0.9695
2629.19	0.973
2637.72	0.972
2646.25	0.97
2654.77	0.969
2663.3	0.9608
2671.83	0.9447
2680.36	0.9473
2688.89	0.9592
2697.41	0.964
2705.94	0.967
2714.47	0.967
2723	0.967
2731.53	0.9668
2740.06	0.9633
2748.58	0.956
2757.11	0.9391
2765.64	0.9253
2774.17	0.8895
2782.7	0.9126
2791.22	0.917
2799.75	0.9535
2808.28	0.9626
2816.81	0.966
2825.34	0.967
2833.86	0.9653
2842.39	0.9576
2850.92	0.9514
2859.45	0.9598
2867.98	0.963
2876.51	0.963
2885.03	0.964
2893.56	0.9631
2902.09	0.961
2910.62	0.96
2919.15	0.957
2927.67	0.954
2936.2	0.954
2944.73	0.955
2953.26	0.9529
2961.79	0.95
2970.31	0.9444
2978.84	0.945
2987.37	0.95
2995.9	0.954
3004.43	0.9527
3012.96	0.95
3021.48	0.9457
3030.01	0.9358
3038.54	0.923
3047.07	0.9132
3055.6	0.9079
3064.12	0.8927
3072.65	0.8701
3081.18	0.8633
3089.71	0.8647
3098.24	0.8297
3106.77	0.8567
3115.29	0.8929
3123.82	0.9121
3132.35	0.9207
3140.88	0.923
3149.41	0.9181
3157.93	0.9329
3166.46	0.938
3174.99	0.939
3183.52	0.938
3192.05	0.9409
3200.57	0.945
3209.1	0.947
3217.63	0.945
3226.16	0.944
3234.69	0.9415
3243.22	0.941
3251.74	0.939
3260.27	0.936
3268.8	0.935
3277.33	0.932
3285.86	0.9278
3294.38	0.9218
3302.91	0.9178
3311.44	0.913
3319.97	0.9087
3328.5	0.902
3337.02	0.898
3345.55	0.8918
3354.08	0.8866
3362.61	0.8816
3371.14	0.8763
3379.67	0.872
3388.19	0.87
3396.72	0.867
3405.25	0.864
3413.78	0.861
3422.31	0.8584
3430.83	0.857
3439.36	0.855
3447.89	0.854
3456.42	0.852
3464.95	0.851
3473.47	0.85
3482	0.8476
3490.53	0.845
3499.06	0.841
3507.59	0.8381
3516.12	0.8355
3524.64	0.832
3533.17	0.8265
3541.7	0.823
3550.23	0.822
3558.76	0.82
3567.28	0.82
3575.81	0.822
3584.34	0.822
3592.87	0.825
3601.4	0.8266
3609.92	0.8332
3618.45	0.836
3626.98	0.8394
3635.51	0.8506
3644.04	0.855
3652.57	0.855
3661.09	0.854
3669.62	0.852
3678.15	0.8518
3686.68	0.8458
3695.21	0.839
3703.73	0.8352
3712.26	0.8312
3720.79	0.8151
3729.32	0.7908
3737.85	0.7754
3746.37	0.7653
3754.9	0.753
3763.43	0.7202
3771.96	0.6977
3780.49	0.692
