Infrared Spectrum: PHTHALIC ACID, DIBENZYL ESTER
Formula: C22 H18 O4
CAS: 523-31-9
State: SOLUTION (2% CCl4 FOR 2-7.5, 2% CS2 FOR 7.5-15.9 MICRON)
Class: COBLENTZ III
Instrument: BAIRD (PRISM)
Instrument parameters: NaCl PRISM
Sampling: TRANSMISSION
Path length: 0.013 CM, 0.012 CM
Resolution: 2
Origin: DOW CHEMICAL COMPANY
MICROMETERS	TRANSMITTANCE
1.989	0.871
2.02806	0.872
2.06711	0.875
2.10617	0.873
2.14523	0.877
2.18428	0.877
2.22334	0.877
2.2624	0.876
2.30145	0.88
2.34051	0.881
2.37956	0.881
2.41862	0.886
2.45768	0.887
2.49673	0.891
2.53579	0.889
2.57485	0.887
2.6139	0.889
2.65296	0.888
2.69202	0.883
2.73107	0.884
2.77013	0.873
2.80919	0.881
2.84824	0.875
2.8873	0.876
2.92636	0.88
2.96541	0.882
3.00447	0.878
3.04352	0.881
3.08258	0.882
3.12164	0.88
3.16069	0.878
3.19975	0.862
3.23881	0.831
3.27786	0.832
3.31692	0.877
3.35598	0.853
3.39503	0.876
3.43409	0.876
3.47315	0.892
3.5122	0.894
3.55126	0.9
3.59031	0.9
3.62937	0.902
3.66843	0.908
3.70748	0.908
3.74654	0.91
3.7856	0.925
3.82465	0.926
3.86371	0.926
3.90277	0.924
3.94182	0.916
3.98088	0.931
4.01994	0.919
4.05899	0.917
4.09805	0.917
4.13711	0.916
4.17616	0.917
4.21522	0.892
4.25427	0.882
4.29333	0.887
4.33239	0.894
4.37144	0.903
4.4105	0.922
4.44956	0.924
4.48861	0.93
4.52767	0.937
4.56673	0.933
4.60578	0.93
4.64484	0.93
4.6839	0.931
4.72295	0.931
4.76201	0.927
4.80107	0.926
4.84012	0.924
4.87918	0.924
4.91823	0.926
4.95729	0.925
4.99635	0.921
5.0354	0.916
5.07446	0.913
5.11352	0.898
5.15257	0.92
5.19163	0.917
5.23069	0.917
5.26974	0.915
5.3088	0.898
5.34786	0.895
5.38691	0.898
5.42597	0.899
5.46502	0.897
5.50408	0.888
5.54314	0.891
5.58219	0.873
5.62125	0.84
5.66031	0.76
5.69936	0.561
5.73842	0.313
5.77748	0.29
5.81653	0.724
5.85559	0.829
5.89465	0.862
5.9337	0.875
5.97276	0.882
6.01182	0.886
6.05087	0.88
6.08993	0.87
6.12898	0.855
6.16804	0.799
6.2071	0.7
6.24615	0.623
6.28521	0.572
6.32427	0.563
6.36332	0.521
6.40238	0.449
6.44144	0.441
6.48049	0.538
6.51955	0.6
6.55861	0.641
6.59766	0.7
6.63672	0.719
6.67578	0.801
6.71483	0.85
6.75389	0.858
6.79294	0.816
6.832	0.779
6.87106	0.834
6.91011	0.882
6.94917	0.889
6.98823	0.897
7.02728	0.889
7.06634	0.892
7.1054	0.889
7.14445	0.873
7.18351	0.839
7.22257	0.758
7.26162	0.815
7.30068	0.878
7.33974	0.889
7.37879	0.891
7.41785	0.881
7.4569	0.869
7.49596	0.862
7.53502	0.844
7.57407	0.811
7.61313	0.768
7.65219	0.701
7.69124	0.56
7.7303	0.37
7.76936	0.281
7.80841	0.266
7.84747	0.255
7.88653	0.323
7.92558	0.473
7.96464	0.57
8.00369	0.652
8.04275	0.752
8.08181	0.805
8.12086	0.839
8.15992	0.837
8.19898	0.831
8.23803	0.864
8.27709	0.88
8.31615	0.889
8.3552	0.886
8.39426	0.894
8.43332	0.887
8.47237	0.883
8.51143	0.884
8.55049	0.871
8.58954	0.87
8.6286	0.869
8.66765	0.855
8.70671	0.801
8.74577	0.679
8.78482	0.577
8.82388	0.514
8.86294	0.451
8.90199	0.416
8.94105	0.473
8.98011	0.625
9.01916	0.768
9.05822	0.833
9.09728	0.864
9.13633	0.873
9.17539	0.854
9.21445	0.809
9.2535	0.719
9.29256	0.63
9.33161	0.56
9.37067	0.597
9.40973	0.75
9.44878	0.839
9.48784	0.87
9.5269	0.858
9.56595	0.795
9.60501	0.779
9.64407	0.838
9.68312	0.806
9.72218	0.87
9.76124	0.889
9.80029	0.898
9.83935	0.902
9.87841	0.903
9.91746	0.9
9.95652	0.898
9.99557	0.909
10.0346	0.91
10.0737	0.897
10.1127	0.891
10.1518	0.887
10.1909	0.883
10.2299	0.882
10.269	0.872
10.308	0.865
10.3471	0.853
10.3861	0.843
10.4252	0.845
10.4643	0.853
10.5033	0.866
10.5424	0.869
10.5814	0.875
10.6205	0.883
10.6595	0.894
10.6986	0.899
10.7376	0.9
10.7767	0.898
10.8158	0.889
10.8548	0.878
10.8939	0.854
10.9329	0.82
10.972	0.812
11.011	0.832
11.0501	0.842
11.0892	0.849
11.1282	0.844
11.1673	0.828
11.2063	0.811
11.2454	0.791
11.2844	0.769
11.3235	0.761
11.3626	0.756
11.4016	0.751
11.4407	0.739
11.4797	0.727
11.5188	0.713
11.5578	0.698
11.5969	0.687
11.6359	0.678
11.675	0.675
11.7141	0.682
11.7531	0.701
11.7922	0.729
11.8312	0.755
11.8703	0.771
11.9093	0.785
11.9484	0.799
11.9875	0.801
12.0265	0.8
12.0656	0.8
12.1046	0.799
12.1437	0.8
12.1827	0.8
12.2218	0.799
12.2608	0.799
12.2999	0.793
12.339	0.798
12.378	0.787
12.4171	0.784
12.4561	0.777
12.4952	0.768
12.5342	0.757
12.5733	0.749
12.6124	0.747
12.6514	0.752
12.6905	0.76
12.7295	0.761
12.7686	0.764
12.8076	0.768
12.8467	0.771
12.8858	0.774
12.9248	0.776
12.9639	0.772
13.0029	0.769
13.042	0.763
13.081	0.752
13.1201	0.739
13.1591	0.716
13.1982	0.68
13.2373	0.627
13.2763	0.581
13.3154	0.548
13.3544	0.518
13.3935	0.501
13.4325	0.478
13.4716	0.462
13.5107	0.462
13.5497	0.485
13.5888	0.514
13.6278	0.549
13.6669	0.57
13.7059	0.599
13.745	0.63
13.7841	0.657
13.8231	0.68
13.8622	0.691
13.9012	0.696
13.9403	0.691
13.9793	0.687
14.0184	0.67
14.0574	0.647
14.0965	0.616
14.1356	0.585
14.1746	0.552
14.2137	0.523
14.2527	0.488
14.2918	0.449
14.3308	0.418
14.3699	0.422
14.409	0.467
14.448	0.512
14.4871	0.567
14.5261	0.597
14.5652	0.604
14.6042	0.61
14.6433	0.607
14.6823	0.602
14.7214	0.598
14.7605	0.591
14.7995	0.586
14.8386	0.58
14.8776	0.571
14.9167	0.563
14.9557	0.561
14.9948	0.561
15.0339	0.548
15.0729	0.541
15.112	0.528
15.151	0.517
15.1901	0.507
15.2291	0.495
15.2682	0.484
15.3073	0.476
15.3463	0.467
15.3854	0.461
15.4244	0.455
15.4635	0.451
15.5025	0.446
15.5416	0.439
15.5806	0.432
15.6197	0.424
15.6588	0.419
15.6978	0.41
15.7369	0.406
15.7759	0.4
15.815	0.396
15.854	0.396
15.8931	0.401
