Infrared Spectrum: ACRYLIC ACID, 2-CYANO-3,3-DIPHENYL-, ETHYL ESTER
Formula: C18 H15 N O2
CAS: 5232-99-5
State: SOLID (KBr PELLET)
Class: COBLENTZ
Instrument: Not specified, most likely a prism, grating, or hybrid spectrometer.
Sampling: TRANSMISSION
Resolution: 4
Origin: TENNESSEE EASTMAN COMPANY, RESEARCH LABORATORIES
MICROMETERS	TRANSMITTANCE
2	0.776
2.04096	0.788
2.08191	0.793
2.12287	0.798
2.16382	0.805
2.20478	0.821
2.24574	0.824
2.28669	0.829
2.32765	0.833
2.3686	0.838
2.40956	0.843
2.45052	0.841
2.49147	0.848
2.53243	0.855
2.57339	0.863
2.61434	0.867
2.6553	0.87
2.69625	0.87
2.73721	0.867
2.77817	0.858
2.81912	0.839
2.86008	0.821
2.90103	0.805
2.94199	0.79
2.98295	0.821
3.0239	0.836
3.06486	0.85
3.10581	0.856
3.14677	0.86
3.18773	0.86
3.22868	0.853
3.26964	0.764
3.31059	0.775
3.35155	0.64
3.39251	0.78
3.43346	0.793
3.47442	0.848
3.51537	0.879
3.55633	0.909
3.59729	0.918
3.63824	0.923
3.6792	0.928
3.72016	0.931
3.76111	0.933
3.80207	0.933
3.84302	0.935
3.88398	0.935
3.92494	0.938
3.96589	0.938
4.00685	0.94
4.0478	0.942
4.08876	0.952
4.12972	0.95
4.17067	0.952
4.21163	0.95
4.25258	0.947
4.29354	0.938
4.3345	0.936
4.37545	0.948
4.41641	0.943
4.45736	0.862
4.49832	0.548
4.53928	0.947
4.58023	0.95
4.62119	0.957
4.66214	0.96
4.7031	0.965
4.74406	0.969
4.78501	0.971
4.82597	0.971
4.86693	0.971
4.90788	0.967
4.94884	0.964
4.98979	0.94
5.03075	0.94
5.07171	0.901
5.11266	0.943
5.15362	0.95
5.19457	0.931
5.23553	0.919
5.27649	0.95
5.31744	0.95
5.3584	0.957
5.39935	0.959
5.44031	0.935
5.48127	0.892
5.52222	0.919
5.56318	0.93
5.60413	0.889
5.64509	0.872
5.68605	0.868
5.727	0.798
5.76796	0.701
5.80892	0.231
5.84987	0.047
5.89083	0.308
5.93178	0.649
5.97274	0.698
6.0137	0.718
6.05465	0.768
6.09561	0.793
6.13656	0.807
6.17752	0.814
6.21848	0.816
6.25943	0.708
6.30039	0.712
6.34134	0.632
6.3823	0.485
6.42326	0.296
6.46421	0.623
6.50517	0.793
6.54612	0.827
6.58708	0.862
6.62804	0.87
6.66899	0.785
6.70995	0.671
6.7509	0.778
6.79186	0.662
6.83282	0.737
6.87377	0.621
6.91473	0.337
6.95569	0.804
6.99664	0.862
7.0376	0.863
7.07855	0.833
7.11951	0.761
7.16047	0.698
7.20142	0.717
7.24238	0.667
7.28333	0.458
7.32429	0.218
7.36525	0.66
7.4062	0.773
7.44716	0.724
7.48811	0.454
7.52907	0.059
7.57003	0.144
7.61098	0.328
7.65194	0.286
7.69289	0.34
7.73385	0.47
7.77481	0.468
7.81576	0.224
7.85672	0.201
7.89767	0.146
7.93863	0.097
7.97959	0.235
8.02054	0.465
8.0615	0.674
8.10246	0.758
8.14341	0.807
8.18437	0.833
8.22532	0.851
8.26628	0.851
8.30724	0.805
8.34819	0.838
8.38915	0.764
8.4301	0.548
8.47106	0.613
8.51202	0.706
8.55297	0.741
8.59393	0.713
8.63488	0.669
8.67584	0.739
8.7168	0.746
8.75775	0.684
8.79871	0.475
8.83966	0.173
8.88062	0.183
8.92158	0.218
8.96253	0.134
9.00349	0.124
9.04445	0.204
9.0854	0.321
9.12636	0.463
9.16731	0.553
9.20827	0.609
9.24923	0.635
9.29018	0.591
9.33114	0.684
9.37209	0.788
9.41305	0.817
9.45401	0.829
9.49496	0.836
9.53592	0.833
9.57687	0.829
9.61783	0.822
9.65879	0.797
9.69974	0.732
9.7407	0.657
9.78165	0.604
9.82261	0.434
9.86357	0.388
9.90452	0.483
9.94548	0.511
9.98643	0.574
10.0274	0.727
10.0683	0.785
10.1093	0.809
10.1503	0.838
10.1912	0.843
10.2322	0.826
10.2731	0.86
10.3141	0.875
10.355	0.879
10.396	0.889
10.437	0.894
10.4779	0.894
10.5189	0.89
10.5598	0.88
10.6008	0.858
10.6417	0.783
10.6827	0.746
10.7236	0.797
10.7646	0.807
10.8056	0.865
10.8465	0.887
10.8875	0.887
10.9284	0.875
10.9694	0.819
11.0103	0.787
11.0513	0.841
11.0922	0.848
11.1332	0.868
11.1742	0.896
11.2151	0.909
11.2561	0.916
11.297	0.918
11.338	0.921
11.3789	0.916
11.4199	0.908
11.4609	0.889
11.5018	0.856
11.5428	0.78
11.5837	0.739
11.6247	0.761
11.6656	0.795
11.7066	0.821
11.7475	0.851
11.7885	0.873
11.8295	0.902
11.8704	0.921
11.9114	0.928
11.9523	0.936
11.9933	0.94
12.0342	0.94
12.0752	0.94
12.1162	0.94
12.1571	0.936
12.1981	0.93
12.239	0.925
12.28	0.918
12.3209	0.919
12.3619	0.926
12.4028	0.926
12.4438	0.902
12.4848	0.867
12.5257	0.851
12.5667	0.867
12.6076	0.879
12.6486	0.87
12.6895	0.839
12.7305	0.766
12.7714	0.713
12.8124	0.742
12.8534	0.749
12.8943	0.698
12.9353	0.572
12.9762	0.352
13.0172	0.119
13.0581	0.27
13.0991	0.393
13.1401	0.456
13.181	0.339
13.222	0.194
13.2629	0.182
13.3039	0.284
13.3448	0.381
13.3858	0.512
13.4267	0.635
13.4677	0.727
13.5087	0.785
13.5496	0.827
13.5906	0.848
13.6315	0.865
13.6725	0.872
13.7134	0.877
13.7544	0.879
13.7953	0.88
13.8363	0.879
13.8773	0.87
13.9182	0.855
13.9592	0.822
14.0001	0.761
14.0411	0.676
14.082	0.487
14.123	0.269
14.164	0.148
14.2049	0.097
14.2459	0.088
14.2868	0.149
14.3278	0.289
14.3687	0.451
14.4097	0.616
14.4506	0.708
14.4916	0.763
14.5326	0.788
14.5735	0.8
14.6145	0.8
14.6554	0.802
14.6964	0.798
14.7373	0.798
14.7783	0.785
14.8193	0.776
14.8602	0.775
14.9012	0.778
14.9421	0.778
14.9831	0.735
15.024	0.63
15.065	0.597
15.1059	0.616
15.1469	0.671
15.1879	0.727
15.2288	0.763
15.2698	0.775
15.3107	0.78
15.3517	0.787
15.3926	0.787
15.4336	0.783
15.4745	0.78
15.5155	0.778
15.5565	0.773
15.5974	0.775
15.6384	0.77
15.6793	0.77
15.7203	0.77
15.7612	0.768
15.8022	0.766
15.8432	0.766
15.8841	0.764
15.9251	0.759
15.966	0.759
