Infrared Spectrum: METHANOL, 2-NORBORNANE-
Formula: C8 H14 O
CAS: 5240-72-2
State: SOLUTION (10% CCl4 FOR 4000-1300, 10% CS2 FOR 1300-470 CM^-^1)
Class: COBLENTZ III
Instrument: CARY 90 (GRATING)
Instrument parameters: ORDER CHANGES: 3000, 2000, 1200 CM^-^1
Sampling: TRANSMISSION
Path length: 0.010 CM, AND 0.010 CM
Resolution: 2
Origin: WESTERN REGIONAL RES. USDA
1/CM	TRANSMITTANCE
4004	0.9361
3995	0.9378
3986	0.9402
3977	0.9428
3968	0.9471
3959	0.9517
3950	0.9556
3941	0.9571
3932	0.9571
3923	0.9559
3914	0.9538
3905	0.951
3896	0.9503
3887	0.9511
3878	0.952
3869	0.9539
3860	0.9563
3851	0.9587
3842	0.9606
3833	0.962
3824	0.9635
3815	0.9636
3806	0.9637
3797	0.9638
3788	0.9628
3779	0.9613
3770	0.9597
3761	0.9587
3752	0.9578
3743	0.9571
3734	0.9553
3725	0.9532
3716	0.9494
3707	0.9438
3698	0.9363
3689	0.9318
3680	0.9336
3671	0.9333
3662	0.8948
3653	0.8005
3644	0.7062
3635	0.7051
3626	0.7607
3617	0.8164
3608	0.872
3599	0.89
3590	0.8861
3581	0.873
3572	0.8558
3563	0.8293
3554	0.7922
3545	0.7556
3536	0.7134
3527	0.68
3518	0.6507
3509	0.6269
3500	0.6076
3491	0.5868
3482	0.5635
3473	0.5419
3464	0.5198
3455	0.4953
3446	0.4755
3437	0.4572
3428	0.4406
3419	0.4233
3410	0.4037
3401	0.3858
3392	0.3709
3383	0.359
3374	0.3482
3365	0.3398
3356	0.3366
3347	0.337
3338	0.34
3329	0.345
3320	0.3514
3311	0.3666
3302	0.3838
3293	0.4052
3284	0.4285
3275	0.4531
3266	0.4824
3257	0.5249
3248	0.5612
3239	0.5891
3230	0.6131
3221	0.6335
3212	0.6571
3203	0.6846
3194	0.7131
3185	0.7398
3176	0.7584
3167	0.7762
3158	0.7946
3149	0.8122
3140	0.8271
3131	0.841
3122	0.8536
3113	0.8618
3104	0.868
3095	0.8712
3086	0.8749
3077	0.8744
3068	0.8665
3059	0.8535
3050	0.8475
3041	0.845
3032	0.8409
3023	0.8186
3014	0.7786
3005	0.7232
2996	0.5876
2987	0.3766
2978	0.2844
2969	0.0452
2960	0.0148
2951	0.0138
2942	0.0284
2933	0.0718
2924	0.1071
2915	0.1395
2906	0.2168
2897	0.2723
2888	0.2069
2879	0.0718
2870	0.0434
2861	0.2653
2852	0.5018
2843	0.6425
2834	0.7032
2825	0.7498
2816	0.7808
2807	0.8031
2798	0.8208
2789	0.8315
2780	0.8408
2771	0.8489
2762	0.8561
2753	0.8633
2744	0.8705
2735	0.8758
2726	0.8801
2717	0.8832
2708	0.8864
2699	0.8895
2690	0.8944
2681	0.8994
2672	0.905
2663	0.9038
2654	0.9034
2645	0.9061
2636	0.9083
2627	0.9091
2618	0.9099
2609	0.9108
2600	0.9117
2591	0.9136
2582	0.9155
2573	0.9175
2564	0.9215
2555	0.9254
2546	0.9286
2537	0.9305
2528	0.9318
2519	0.9318
2510	0.9318
2501	0.9318
2492	0.9318
2483	0.9321
2474	0.9325
2465	0.933
2456	0.9334
2447	0.9336
2438	0.9338
2429	0.9339
2420	0.9341
2411	0.9343
2402	0.9346
2393	0.9362
2384	0.939
2375	0.9415
2366	0.9436
2357	0.9443
2348	0.9446
2339	0.9442
2330	0.9438
2321	0.9433
2312	0.9436
2303	0.9439
2294	0.9443
2285	0.9442
2276	0.9442
2267	0.9423
2258	0.9399
2249	0.94
2240	0.9404
2231	0.9408
2222	0.9412
2213	0.9415
2204	0.9418
2195	0.942
2186	0.9423
2177	0.9423
2168	0.9423
2159	0.9423
2150	0.9418
2141	0.9411
2132	0.9405
2123	0.9398
2114	0.9382
2105	0.9366
2096	0.9352
2087	0.9347
2078	0.9344
2069	0.9343
2060	0.9346
2051	0.9349
2042	0.935
2033	0.9339
2024	0.9321
2015	0.9297
2006	0.9271
1997	0.9195
1988	0.9195
1979	0.9242
1970	0.924
1961	0.926
1952	0.93
1943	0.9308
1934	0.9315
1925	0.9315
1916	0.9311
1907	0.9303
1898	0.9291
1889	0.9281
1880	0.9296
1871	0.9317
1862	0.9324
1853	0.9328
1844	0.9328
1835	0.9318
1826	0.9311
1817	0.9316
1808	0.9325
1799	0.9327
1790	0.9323
1781	0.9318
1772	0.932
1763	0.932
1754	0.9311
1745	0.929
1736	0.9097
1727	0.9046
1718	0.8975
1709	0.8942
1700	0.9032
1691	0.9132
1682	0.9238
1673	0.9292
1664	0.9305
1655	0.931
1646	0.9304
1637	0.9232
1628	0.9121
1619	0.9147
1610	0.918
1601	0.9257
1592	0.931
1583	0.9317
1574	0.9324
1565	0.9325
1556	0.9325
1547	0.9321
1538	0.9238
1529	0.9039
1520	0.898
1511	0.8908
1502	0.8803
1493	0.8599
1484	0.7503
1475	0.7042
1466	0.6231
1457	0.5473
1448	0.576
1439	0.7253
1430	0.7354
1421	0.7255
1412	0.7118
1403	0.6907
1394	0.6681
1385	0.6497
1376	0.7138
1367	0.7424
1358	0.7156
1349	0.7049
1340	0.7284
1331	0.7157
1322	0.6838
1313	0.6124
1304	0.6354
1295	0.7183
1286	0.7904
1277	0.8208
1268	0.7651
1259	0.7614
1250	0.7258
1241	0.7378
1232	0.7048
1223	0.7634
1214	0.7861
1205	0.7531
1196	0.7397
1187	0.8035
1178	0.8169
1169	0.741
1160	0.7621
1151	0.7603
1142	0.7835
1133	0.8274
1124	0.8178
1115	0.8175
1106	0.7551
1097	0.7615
1088	0.7964
1079	0.8174
1070	0.6755
1061	0.4624
1052	0.1917
1043	0.2406
1034	0.3275
1025	0.3953
1016	0.2495
1007	0.4014
998	0.323
989	0.5512
980	0.7483
971	0.7765
962	0.8075
953	0.7831
944	0.8664
935	0.8784
926	0.8158
917	0.8813
908	0.8847
899	0.9
890	0.9336
881	0.861
872	0.888
863	0.9155
854	0.8805
845	0.9345
836	0.9038
827	0.8953
818	0.9184
809	0.8689
800	0.8643
791	0.8593
782	0.9008
773	0.894
764	0.8549
755	0.8544
746	0.8632
737	0.8249
728	0.8445
719	0.8208
710	0.8246
701	0.8213
692	0.8111
683	0.8011
674	0.791
665	0.7806
656	0.7728
647	0.7707
638	0.7708
629	0.7733
620	0.7783
611	0.7847
602	0.7918
593	0.8014
584	0.8068
575	0.7801
566	0.7948
557	0.8181
548	0.8239
539	0.8286
530	0.8333
521	0.8396
512	0.84
503	0.794
494	0.7775
485	0.7897
476	0.8597
467	0.9042
