Infrared Spectrum: Mucic Acid
Formula: C 6 H 10 O 8
CAS: 526-99-8
State: solid
Instrument: Bruker Tensor 37 FTIR
Resolution: 0.96450084
Origin: Pacific Northwest National Laboratory Under IARPA Contract
1/cm	Reflectance
7498.99	0.803488
7481.63	0.791071
7464.27	0.792954
7446.91	0.791178
7429.55	0.784893
7412.19	0.776649
7394.84	0.770397
7377.48	0.760585
7360.12	0.7476
7342.76	0.746883
7325.4	0.741214
7308.04	0.731343
7290.68	0.720673
7273.32	0.717557
7255.96	0.7179
7238.6	0.710181
7221.24	0.701286
7203.88	0.692266
7186.52	0.676679
7169.16	0.658551
7151.8	0.627862
7134.44	0.602202
7117.08	0.568353
7099.72	0.533444
7082.36	0.512124
7065	0.492485
7047.64	0.479129
7030.28	0.465186
7012.92	0.457557
6995.56	0.460164
6978.2	0.456124
6960.84	0.445368
6943.48	0.429763
6926.12	0.415629
6908.76	0.407147
6891.4	0.412076
6874.04	0.428694
6856.68	0.457111
6839.32	0.480934
6821.96	0.495329
6804.6	0.503467
6787.24	0.509456
6769.88	0.510009
6752.52	0.509118
6735.16	0.506004
6717.8	0.503004
6700.44	0.498821
6683.08	0.492958
6665.72	0.464666
6648.36	0.472217
6631	0.465071
6613.64	0.475008
6596.28	0.480242
6578.92	0.481901
6561.56	0.478783
6544.2	0.474269
6526.85	0.465116
6509.49	0.457887
6492.13	0.455075
6474.77	0.449398
6457.41	0.442935
6440.05	0.436465
6422.69	0.428561
6405.33	0.421262
6387.97	0.41258
6370.61	0.399738
6353.25	0.392983
6335.89	0.392558
6318.53	0.392292
6301.17	0.39372
6283.81	0.394763
6266.45	0.393805
6249.09	0.390572
6231.73	0.386397
6214.37	0.378683
6197.01	0.36369
6179.65	0.345783
6162.29	0.315301
6144.93	0.273516
6127.57	0.228943
6110.21	0.200059
6092.85	0.202757
6075.49	0.210878
6058.13	0.2039
6040.77	0.20793
6023.41	0.216234
6006.05	0.242211
5988.69	0.266584
5971.33	0.276205
5953.97	0.263422
5936.61	0.26328
5919.25	0.258772
5901.89	0.25994
5884.53	0.252944
5867.17	0.23943
5849.81	0.256665
5832.45	0.261884
5815.09	0.257511
5797.73	0.225528
5780.37	0.197505
5763.01	0.165985
5745.65	0.178379
5728.29	0.19988
5710.93	0.197131
5693.57	0.205944
5676.21	0.191847
5658.86	0.199339
5641.5	0.201751
5624.14	0.201026
5606.78	0.199647
5589.42	0.178609
5572.06	0.129825
5554.7	0.0985831
5537.34	0.0772494
5519.98	0.0589109
5502.62	0.0424842
5485.26	0.0330906
5467.9	0.0263604
5450.54	0.0235015
5433.18	0.0236232
5415.82	0.0298086
5398.46	0.0393823
5381.1	0.0414064
5363.74	0.0357497
5346.38	0.0344128
5329.02	0.0341364
5311.66	0.0345073
5294.3	0.0354614
5276.94	0.0365896
5259.58	0.0369888
5242.22	0.0379922
5224.86	0.0362806
5207.5	0.0380876
5190.14	0.0388423
5172.78	0.0385948
5155.42	0.038916
5138.06	0.0403018
5120.7	0.0393469
5103.34	0.0387704
5085.98	0.0387461
5068.62	0.0396029
5051.26	0.0406633
5033.9	0.0417929
5016.54	0.0421412
4999.18	0.0431997
4981.82	0.0480396
4964.46	0.0517718
4947.1	0.055057
4929.74	0.0587883
4912.38	0.0631265
4895.02	0.0679321
4877.66	0.0704848
4860.3	0.075009
4842.94	0.0702052
4825.58	0.0722666
4808.22	0.0745665
4790.86	0.0784955
4773.51	0.0818714
4756.15	0.0777884
4738.79	0.0767795
4721.43	0.0667736
4704.07	0.064443
4686.71	0.0575548
4669.35	0.0469787
4651.99	0.0386334
4634.63	0.033436
4617.27	0.0728757
4599.91	0.0464536
4582.55	0.0497603
4565.19	0.052714
4547.83	0.0585541
4530.47	0.056083
4513.11	0.0524057
4495.75	0.0389685
4478.39	0.0272458
4461.03	0.0259901
4443.67	0.0270253
4426.31	0.0278487
4408.95	0.0285066
4391.59	0.0275669
4374.23	0.0286499
4356.87	0.0302917
4339.51	0.0426892
4322.15	0.0247683
4304.79	0.0413251
4287.43	0.0403709
4270.07	0.0432123
4252.71	0.0509985
4235.35	0.0311356
4217.99	0.0344367
4200.63	0.0409806
4183.27	0.0310121
4165.91	0.0406954
4148.55	0.0323742
4131.19	0.0382017
4113.83	0.0395502
4096.47	0.0322233
4079.11	0.0387599
4061.75	0.042915
4044.39	0.803894
4027.03	0.78712
4009.67	0.795909
3992.31	0.781942
3974.95	0.784554
3957.59	0.772108
3940.23	0.765267
3922.87	0.750003
3905.52	0.74462
3888.16	0.736582
3870.8	0.735317
3853.44	0.723255
3836.08	0.716032
3818.72	0.713069
3801.36	0.713313
3784	0.703303
3766.64	0.692759
3749.28	0.68114
3731.92	0.670171
3714.56	0.644505
3697.2	0.614641
3679.84	0.583119
3662.48	0.547457
3645.12	0.519485
3627.76	0.493033
3610.4	0.47985
3593.04	0.460683
3575.68	0.44849
3558.32	0.447082
3540.96	0.446463
3523.6	0.444221
3506.24	0.426811
3488.88	0.412714
3471.52	0.399161
3454.16	0.393738
3436.8	0.403863
3419.44	0.423183
3402.08	0.453539
3384.72	0.473069
3367.36	0.486504
3350	0.492486
3332.64	0.49928
3315.28	0.497744
3297.92	0.496086
3280.56	0.492835
3263.2	0.488264
3245.84	0.485158
3228.48	0.474926
3211.12	0.452636
3193.76	0.458323
3176.4	0.452935
3159.04	0.463903
3141.68	0.469021
3124.32	0.467467
3106.96	0.464919
3089.6	0.460358
3072.24	0.448886
3054.88	0.443904
3037.53	0.440134
3020.17	0.434172
3002.81	0.428212
2985.45	0.421474
2968.09	0.413739
2950.73	0.406016
2933.37	0.395399
2916.01	0.384717
2898.65	0.379427
2881.29	0.380982
2863.93	0.3803
2846.57	0.382161
2829.21	0.382378
2811.85	0.380236
2794.49	0.376932
2777.13	0.371754
2759.77	0.362707
2742.41	0.347173
2725.05	0.326502
2707.69	0.29298
2690.33	0.249396
2672.97	0.209085
2655.61	0.186612
2638.25	0.201046
2620.89	0.199973
2603.53	0.195808
2586.17	0.200833
2568.81	0.213813
2551.45	0.239996
2534.09	0.263962
2516.73	0.261384
2499.37	0.25603
2482.01	0.251616
2464.65	0.252575
2447.29	0.249796
2429.93	0.237413
2412.57	0.233501
2395.21	0.251981
2377.85	0.25328
2360.49	0.240391
2343.13	0.205607
2325.77	0.180277
2308.41	0.155025
2291.05	0.180087
2273.69	0.190785
2256.33	0.194663
2238.97	0.197949
2221.61	0.191331
2204.25	0.191242
2186.89	0.191784
2169.53	0.193933
2152.18	0.189206
2134.82	0.160365
2117.46	0.113989
2100.1	0.0897237
2082.74	0.0693101
2065.38	0.0522173
2048.02	0.0387017
2030.66	0.0303275
2013.3	0.025626
1995.94	0.0231587
1978.58	0.0249391
1961.22	0.0330864
1943.86	0.0424058
1926.5	0.0391506
1909.14	0.0349382
1891.78	0.0341571
1874.42	0.0336625
1857.06	0.0349127
1839.7	0.0356551
1822.34	0.0368837
1804.98	0.0373552
1787.62	0.0349343
1770.26	0.035609
1752.9	0.0381765
1735.54	0.0387416
1718.18	0.038518
1700.82	0.0388613
1683.46	0.039936
1666.1	0.0390037
1648.74	0.038828
1631.38	0.0383502
1614.02	0.0398017
1596.66	0.0405879
1579.3	0.0416733
1561.94	0.0415657
1544.58	0.0440929
1527.22	0.0491803
1509.86	0.051733
1492.5	0.0555953
1475.14	0.0582811
1457.78	0.0630905
1440.42	0.0681521
1423.06	0.0717446
1405.7	0.0737384
1388.34	0.0672751
1370.98	0.0718623
1353.62	0.0775981
1336.26	0.0794447
1318.9	0.0788365
1301.54	0.0752099
1284.19	0.0736932
1266.83	0.0651086
1249.47	0.0600232
1232.11	0.0548503
1214.75	0.0432464
1197.39	0.0365459
1180.03	0.0417528
1162.67	0.0718074
1145.31	0.0462834
1127.95	0.0516235
1110.59	0.0554104
1093.23	0.0592852
1075.87	0.0555329
1058.51	0.0481981
1041.15	0.0342108
1023.79	0.02874
1006.43	0.0281718
989.068	0.0279577
971.709	0.0257219
954.349	0.0294487
936.989	0.029546
919.629	0.0341016
902.269	0.0339454
884.91	0.042672
867.55	0.0355087
850.19	0.0371994
832.83	0.072121
815.47	0.0480871
798.111	0.0519173
780.751	0.0330804
763.391	0.0411062
746.031	0.0414758
728.671	0.0392188
711.312	0.0460986
693.952	0.0396373
676.592	0.0391824
659.232	0.039638
641.872	0.0298821
624.513	0.039335
607.153	0.0514721
