Infrared Spectrum: 1,2,3-TRIMETHYL BENZENE
Formula: C9 H12
CAS: 526-73-8
State: LIQUID (NEAT)
Class: COBLENTZ III
Instrument: PERKIN-ELMER 521 (GRATING)
Sampling: TRANSMISSION
Path length: 0.0024 CM
Resolution: 4
Origin: STANDARD OIL OF OHIO
1/CM	TRANSMITTANCE
597.711	0.594
606.954	0.585
616.197	0.59
625.44	0.602
634.683	0.618
643.926	0.641
653.169	0.649
662.412	0.6909
671.655	0.726
680.898	0.75
690.141	0.767
699.384	0.7411
708.627	0.2363
717.87	0.772
727.113	0.805
736.356	0.797
745.599	0.728
754.841	0.5514
764.084	0.1182
773.327	0.019
782.57	0.445
791.813	0.7588
801.056	0.833
810.299	0.844
819.542	0.8569
828.785	0.871
838.028	0.877
847.271	0.879
856.514	0.879
865.757	0.879
875	0.865
884.243	0.854
893.486	0.841
902.729	0.871
911.972	0.879
921.215	0.875
930.458	0.866
939.701	0.857
948.944	0.853
958.187	0.833
967.43	0.803
976.673	0.7511
985.916	0.5861
995.159	0.56
1004.4	0.6061
1013.64	0.4619
1022.89	0.707
1032.13	0.769
1041.37	0.773
1050.62	0.815
1059.86	0.815
1069.1	0.7631
1078.35	0.681
1087.59	0.701
1096.83	0.4143
1106.07	0.8229
1115.32	0.853
1124.56	0.861
1133.8	0.861
1143.05	0.857
1152.29	0.835
1161.53	0.682
1170.78	0.833
1180.02	0.848
1189.26	0.835
1198.5	0.856
1207.75	0.858
1216.99	0.858
1226.23	0.864
1235.48	0.857
1244.72	0.807
1253.96	0.83
1263.2	0.836
1272.45	0.837
1281.69	0.848
1290.93	0.848
1300.18	0.848
1309.42	0.844
1318.66	0.839
1327.91	0.835
1337.15	0.823
1346.39	0.809
1355.63	0.776
1364.88	0.7
1374.12	0.5094
1383.36	0.363
1392.61	0.53
1401.85	0.66
1411.09	0.652
1420.34	0.609
1429.58	0.546
1438.82	0.4701
1448.06	0.2031
1457.31	0.296
1466.55	0.2502
1475.79	0.098
1485.04	0.052
1494.28	0.4082
1503.52	0.5758
1512.76	0.7009
1522.01	0.715
1531.25	0.728
1540.49	0.734
1549.74	0.76
1558.98	0.73
1568.22	0.786
1577.47	0.772
1586.71	0.6881
1595.95	0.452
1605.19	0.684
1614.44	0.802
1623.68	0.843
1632.92	0.866
1642.17	0.865
1651.41	0.8431
1660.65	0.835
1669.9	0.858
1679.14	0.895
1688.38	0.905
1697.62	0.903
1706.87	0.901
1716.11	0.901
1725.35	0.891
1734.6	0.899
1743.84	0.901
1753.08	0.9
1762.33	0.899
1771.57	0.875
1780.81	0.849
1790.05	0.878
1799.3	0.89
1808.54	0.892
1817.78	0.913
1827.03	0.915
1836.27	0.901
1845.51	0.852
1854.75	0.854
1864	0.896
1873.24	0.912
1882.48	0.912
1891.73	0.9
1900.97	0.873
1910.21	0.83
1919.46	0.794
1928.7	0.8449
1937.94	0.895
1947.18	0.913
1956.43	0.917
1965.67	0.918
1974.91	0.918
1984.16	0.918
1993.4	0.916
2002.64	0.915
2011.89	0.918
2021.13	0.916
2030.37	0.915
2039.61	0.9081
2048.86	0.9159
2058.1	0.92
2067.34	0.918
2076.59	0.9169
2085.83	0.917
2095.07	0.92
2104.31	0.92
2113.56	0.92
2122.8	0.9162
2132.04	0.915
2141.29	0.916
2150.53	0.918
2159.77	0.92
2169.02	0.921
2178.26	0.92
2187.5	0.9122
2196.74	0.9167
2205.99	0.9217
2215.23	0.921
2224.47	0.92
2233.72	0.916
2242.96	0.9113
2252.2	0.909
2261.45	0.9116
2270.69	0.915
2279.93	0.915
2289.17	0.915
2298.42	0.92
2307.66	0.917
2316.9	0.9138
2326.15	0.9019
2335.39	0.9101
2344.63	0.9048
2353.88	0.9045
2363.12	0.909
2372.36	0.911
2381.6	0.911
2390.85	0.906
2400.09	0.9
2409.33	0.894
2418.58	0.8999
2427.82	0.903
2437.06	0.903
2446.3	0.901
2455.55	0.898
2464.79	0.9
2474.03	0.9004
2483.28	0.905
2492.52	0.907
2501.76	0.907
2511.01	0.904
2520.25	0.907
2529.49	0.9073
2538.73	0.907
2547.98	0.904
2557.22	0.9007
2566.46	0.8992
2575.71	0.903
2584.95	0.907
2594.19	0.912
2603.44	0.913
2612.68	0.912
2621.92	0.9065
2631.16	0.898
2640.41	0.9013
2649.65	0.905
2658.89	0.904
2668.14	0.9039
2677.38	0.901
2686.62	0.9
2695.86	0.899
2705.11	0.8939
2714.35	0.8819
2723.59	0.8497
2732.84	0.7626
2742.08	0.7775
2751.32	0.85
2760.57	0.844
2769.81	0.843
2779.05	0.844
2788.29	0.839
2797.54	0.8331
2806.78	0.8153
2816.02	0.7845
2825.27	0.7511
2834.51	0.7021
2843.75	0.6124
2853	0.4375
2862.24	0.2838
2871.48	0.2308
2880.72	0.2691
2889.97	0.2832
2899.21	0.2288
2908.45	0.1751
2917.7	0.102
2926.94	0.082
2936.18	0.0953
2945.43	0.074
2954.67	0.0915
2963.91	0.1519
2973.15	0.129
2982.4	0.1668
2991.64	0.2893
3000.88	0.3613
3010.13	0.3212
3019.37	0.2429
3028.61	0.2345
3037.85	0.284
3047.1	0.301
3056.34	0.3711
3065.58	0.416
3074.83	0.4139
3084.07	0.479
3093.31	0.7027
3102.56	0.7697
3111.8	0.803
3121.04	0.821
3130.28	0.833
3139.53	0.842
3148.77	0.8525
3158.01	0.8615
3167.26	0.865
3176.5	0.866
3185.74	0.8704
3194.99	0.877
3204.23	0.8888
3213.47	0.8944
3222.71	0.899
3231.96	0.899
3241.2	0.899
3250.44	0.8993
3259.69	0.9
3268.93	0.9
3278.17	0.901
3287.41	0.901
3296.66	0.901
3305.9	0.901
3315.14	0.901
3324.39	0.901
3333.63	0.901
3342.87	0.901
3352.12	0.901
3361.36	0.901
3370.6	0.901
3379.84	0.901
3389.09	0.9
3398.33	0.9
3407.57	0.9
3416.82	0.8999
3426.06	0.8989
3435.3	0.8978
3444.55	0.896
3453.79	0.896
3463.03	0.896
3472.27	0.896
3481.52	0.896
3490.76	0.895
3500	0.894
3509.25	0.894
3518.49	0.895
3527.73	0.896
3536.98	0.898
3546.22	0.899
3555.46	0.8981
3564.7	0.896
3573.95	0.8978
3583.19	0.8951
3592.43	0.891
3601.68	0.9
3610.92	0.9
3620.16	0.9
3629.4	0.901
3638.65	0.903
3647.89	0.903
3657.13	0.9002
3666.38	0.9
3675.62	0.9
3684.86	0.9
3694.11	0.9
3703.35	0.9
3712.59	0.9
3721.83	0.899
3731.08	0.8993
3740.32	0.899
3749.56	0.899
3758.81	0.899
3768.05	0.898
3777.29	0.898
3786.54	0.896
3795.78	0.895
3805.02	0.8928
3814.26	0.8834
3823.51	0.878
3832.75	0.877
3841.99	0.877
3851.24	0.8785
3860.48	0.878
3869.72	0.878
3878.96	0.876
3888.21	0.87
3897.45	0.871
3906.69	0.875
3915.94	0.877
3925.18	0.877
3934.42	0.877
3943.67	0.8786
3952.91	0.878
