Infrared Spectrum: 6-Methoxyquinoline
Formula: C10 H9 N O
CAS: 5263-87-6
State: SOLUTION (10% CCl4 FOR 3800-1330, 10% CS2 FOR 1330-450 CM^-^1)
Class: COBLENTZ III
Instrument: DOW KBr FOREPRISM-GRATING
Instrument parameters: BLAZED AT 3.5, 12.0, 20.0 MICRON AND CHANGED AT 5.0, 7.5, 14.9 MICRON
Sampling: TRANSMISSION
Path length: 0.011 CM, 0.011 CM
Resolution: 2
Origin: DOW CHEMICAL COMPANY
1/CM	TRANSMITTANCE
3798	0.9243
3789	0.9256
3780	0.9254
3771	0.9248
3762	0.9246
3753	0.9246
3744	0.9249
3735	0.9279
3726	0.9297
3717	0.9306
3708	0.9323
3699	0.9318
3690	0.9284
3681	0.916
3672	0.9138
3663	0.9111
3654	0.9138
3645	0.9158
3636	0.9166
3627	0.9183
3618	0.9182
3609	0.9185
3600	0.918
3591	0.918
3582	0.9163
3573	0.8998
3564	0.9035
3555	0.9101
3546	0.9124
3537	0.9122
3528	0.9098
3519	0.9079
3510	0.9074
3501	0.9074
3492	0.9071
3483	0.9056
3474	0.905
3465	0.9037
3456	0.9026
3447	0.9018
3438	0.9007
3429	0.8995
3420	0.8983
3411	0.8976
3402	0.8971
3393	0.8964
3384	0.8958
3375	0.8952
3366	0.8951
3357	0.8944
3348	0.8931
3339	0.8929
3330	0.8951
3321	0.8954
3312	0.8971
3303	0.8966
3294	0.8975
3285	0.8978
3276	0.8985
3267	0.8994
3258	0.8986
3249	0.8912
3240	0.8904
3231	0.8925
3222	0.892
3213	0.8898
3204	0.8871
3195	0.8854
3186	0.8814
3177	0.8816
3168	0.8808
3159	0.8833
3150	0.8874
3141	0.8861
3132	0.8856
3123	0.883
3114	0.8757
3105	0.8689
3096	0.8528
3087	0.7858
3078	0.6434
3069	0.6669
3060	0.6756
3051	0.6278
3042	0.6293
3033	0.645
3024	0.6025
3015	0.6162
3006	0.492
2997	0.5633
2988	0.6935
2979	0.7345
2970	0.7179
2961	0.5572
2952	0.4592
2943	0.5481
2934	0.4696
2925	0.622
2916	0.7055
2907	0.6212
2898	0.6615
2889	0.6999
2880	0.7456
2871	0.805
2862	0.8268
2853	0.8272
2844	0.6976
2835	0.505
2826	0.7542
2817	0.8124
2808	0.861
2799	0.8777
2790	0.888
2781	0.8919
2772	0.8953
2763	0.8956
2754	0.8854
2745	0.8855
2736	0.89
2727	0.8855
2718	0.89
2709	0.8927
2700	0.8881
2691	0.8779
2682	0.8884
2673	0.8962
2664	0.8977
2655	0.8952
2646	0.8936
2637	0.8874
2628	0.8865
2619	0.8845
2610	0.8699
2601	0.8635
2592	0.8917
2583	0.8892
2574	0.8901
2565	0.896
2556	0.8921
2547	0.8914
2538	0.8944
2529	0.8978
2520	0.9015
2511	0.9031
2502	0.9024
2493	0.8993
2484	0.9012
2475	0.9056
2466	0.9012
2457	0.8935
2448	0.8955
2439	0.9004
2430	0.8997
2421	0.8835
2412	0.8902
2403	0.8945
2394	0.8827
2385	0.8653
2376	0.8872
2367	0.8961
2358	0.9057
2349	0.9118
2340	0.9112
2331	0.8878
2322	0.9008
2313	0.9009
2304	0.8996
2295	0.8985
2286	0.8924
2277	0.8843
2268	0.8854
2259	0.8875
2250	0.8863
2241	0.8973
2232	0.8972
2223	0.8965
2214	0.8944
2205	0.8938
2196	0.8916
2187	0.8844
2178	0.8807
2169	0.8806
2160	0.8863
2151	0.8841
2142	0.8778
2133	0.8741
2124	0.8903
2115	0.8896
2106	0.8897
2097	0.8877
2088	0.8875
2079	0.8798
2070	0.8398
2061	0.832
2052	0.8505
2043	0.8692
2034	0.8795
2025	0.8851
2016	0.8892
2007	0.8912
1998	0.8844
1989	0.8788
1980	0.8791
1971	0.8627
1962	0.8674
1953	0.852
1944	0.8006
1935	0.7505
1926	0.8257
1917	0.8083
1908	0.793
1899	0.8359
1890	0.8588
1881	0.8464
1872	0.7982
1863	0.846
1854	0.8654
1845	0.8748
1836	0.8796
1827	0.8696
1818	0.8613
1809	0.8604
1800	0.8596
1791	0.8273
1782	0.8474
1773	0.8588
1764	0.8662
1755	0.8629
1746	0.8528
1737	0.8293
1728	0.8252
1719	0.8432
1710	0.8548
1701	0.8424
1692	0.812
1683	0.7909
1674	0.7889
1665	0.7776
1656	0.7874
1647	0.73
1638	0.5766
1629	0.1894
1620	0.0562
1611	0.5875
1602	0.54
1593	0.3356
1584	0.6472
1575	0.3982
1566	0.556
1557	0.6905
1548	0.7113
1539	0.7334
1530	0.7479
1521	0.6944
1512	0.2199
1503	0.0043
1494	0.16
1485	0.5709
1476	0.088
1467	0.3743
1458	0.4265
1449	0.6211
1440	0.4973
1431	0.327
1422	0.7493
1413	0.8134
1404	0.828
1395	0.6062
1386	0.493
1377	0.2793
1368	0.7371
1359	0.7868
1350	0.7473
1341	0.6962
1332	0.4408
1323	0.2864
1314	0.5897
1305	0.7875
1296	0.8003
1287	0.7951
1278	0.737
1269	0.323
1260	0.0447
1251	0.3797
1242	0.2404
1233	0.035
1224	0.2008
1215	0.6622
1206	0.7561
1197	0.4089
1188	0.7006
1179	0.706
1170	0.5831
1161	0.0826
1152	0.4476
1143	0.7188
1134	0.7697
1125	0.7563
1116	0.3759
1107	0.7485
1098	0.8178
1089	0.8087
1080	0.8009
1071	0.8046
1062	0.7929
1053	0.7438
1044	0.3272
1035	0.1912
1026	0.3177
1017	0.7293
1008	0.8121
999	0.8355
990	0.8374
981	0.8258
972	0.6503
963	0.7793
954	0.5575
945	0.7792
936	0.8178
927	0.8282
918	0.7985
909	0.3816
900	0.7961
891	0.7765
882	0.7867
873	0.7247
864	0.4743
855	0.57
846	0.0144
837	0.0061
828	0.3592
819	0.7731
810	0.8057
801	0.788
792	0.637
783	0.5107
774	0.4567
765	0.5921
756	0.8051
747	0.8416
738	0.8385
729	0.8249
720	0.7761
711	0.5796
702	0.8169
693	0.8381
684	0.8414
675	0.8397
666	0.836
657	0.7671
648	0.7898
639	0.812
630	0.8141
621	0.3787
612	0.7501
603	0.8076
594	0.8125
585	0.8111
576	0.803
567	0.7806
558	0.7501
549	0.7315
540	0.694
531	0.7374
522	0.7245
513	0.6635
504	0.7156
495	0.7262
486	0.6591
477	0.4281
468	0.6644
459	0.673
