Infrared Spectrum: 1,2,3,5-TETRAMETHYLBENZENE
Formula: C10 H14
CAS: 527-53-7
State: LIQUID
Class: COBLENTZ
Instrument: PERKIN-ELMER
Sampling: TRANSMISSION
Path length: 0.0025 CM
Resolution: 4
Origin: STANDARD OIL OF OHIO
1/CM	TRANSMITTANCE
596.175	0.607
604.607	0.612
613.038	0.62
621.47	0.629
629.902	0.64
638.333	0.6639
646.765	0.6889
655.197	0.7029
663.629	0.72
672.06	0.7409
680.492	0.7599
688.924	0.7631
697.355	0.6989
705.787	0.4019
714.219	0.8057
722.65	0.821
731.082	0.817
739.514	0.8387
747.946	0.849
756.377	0.8648
764.809	0.87
773.241	0.871
781.672	0.871
790.104	0.873
798.536	0.873
806.967	0.8682
815.399	0.8581
823.831	0.8435
832.263	0.8019
840.694	0.6025
849.126	0.047
857.558	0.4833
865.989	0.7752
874.421	0.7854
882.853	0.7892
891.284	0.8258
899.716	0.8482
908.148	0.8609
916.58	0.86
925.011	0.854
933.443	0.851
941.875	0.851
950.306	0.8492
958.738	0.8343
967.17	0.8246
975.601	0.7898
984.033	0.6906
992.465	0.6503
1000.9	0.6091
1009.33	0.3819
1017.76	0.5139
1026.19	0.634
1034.62	0.5795
1043.05	0.6587
1051.49	0.7554
1059.92	0.782
1068.35	0.7536
1076.78	0.7275
1085.21	0.8145
1093.65	0.8423
1102.08	0.848
1110.51	0.846
1118.94	0.844
1127.37	0.839
1135.8	0.7997
1144.24	0.8236
1152.67	0.849
1161.1	0.8526
1169.53	0.851
1177.96	0.849
1186.39	0.8444
1194.83	0.8386
1203.26	0.7557
1211.69	0.6905
1220.12	0.844
1228.55	0.849
1236.98	0.8444
1245.42	0.8417
1253.85	0.839
1262.28	0.836
1270.71	0.833
1279.14	0.8295
1287.57	0.8245
1296.01	0.829
1304.44	0.8212
1312.87	0.8125
1321.3	0.8047
1329.73	0.7925
1338.16	0.7828
1346.6	0.7568
1355.03	0.7121
1363.46	0.6023
1371.89	0.35
1380.32	0.4305
1388.75	0.5995
1397.19	0.6297
1405.62	0.6214
1414.05	0.4931
1422.48	0.4196
1430.91	0.3681
1439.34	0.2204
1447.78	0.151
1456.21	0.232
1464.64	0.238
1473.07	0.274
1481.5	0.1676
1489.93	0.0809
1498.37	0.3425
1506.8	0.5055
1515.23	0.5858
1523.66	0.6311
1532.09	0.6484
1540.53	0.662
1548.96	0.6513
1557.39	0.637
1565.82	0.6343
1574.25	0.5575
1582.68	0.492
1591.12	0.592
1599.55	0.671
1607.98	0.6252
1616.41	0.3736
1624.84	0.6531
1633.27	0.8252
1641.71	0.8542
1650.14	0.8749
1658.57	0.881
1667	0.883
1675.43	0.883
1683.86	0.8775
1692.3	0.8687
1700.73	0.86
1709.16	0.8509
1717.59	0.7834
1726.02	0.7526
1734.45	0.7912
1742.89	0.8365
1751.32	0.8422
1759.75	0.8502
1768.18	0.873
1776.61	0.8938
1785.04	0.9
1793.48	0.903
1801.91	0.905
1810.34	0.9076
1818.77	0.9092
1827.2	0.91
1835.63	0.9108
1844.07	0.91
1852.5	0.908
1860.93	0.9059
1869.36	0.8939
1877.79	0.8719
1886.22	0.8697
1894.66	0.8852
1903.09	0.8976
1911.52	0.8974
1919.95	0.897
1928.38	0.9009
1936.81	0.9075
1945.25	0.9034
1953.68	0.902
1962.11	0.91
1970.54	0.91
1978.97	0.913
1987.41	0.9125
1995.84	0.9038
2004.27	0.91
2012.7	0.91
2021.13	0.9109
2029.56	0.912
2038	0.913
2046.43	0.913
2054.86	0.913
2063.29	0.913
2071.72	0.912
2080.15	0.912
2088.59	0.913
2097.02	0.91
2105.45	0.9059
2113.88	0.9061
2122.31	0.9125
2130.74	0.913
2139.18	0.912
2147.61	0.912
2156.04	0.912
2164.47	0.913
2172.9	0.9125
2181.33	0.91
2189.77	0.91
2198.2	0.9125
2206.63	0.913
2215.06	0.913
2223.49	0.912
2231.92	0.912
2240.36	0.913
2248.79	0.912
2257.22	0.91
2265.65	0.907
2274.08	0.907
2282.51	0.908
2290.95	0.912
2299.38	0.912
2307.81	0.9125
2316.24	0.91
2324.67	0.903
2333.1	0.902
2341.54	0.902
2349.97	0.902
2358.4	0.9
2366.83	0.8975
2375.26	0.8989
2383.69	0.893
2392.13	0.887
2400.56	0.885
2408.99	0.89
2417.42	0.8891
2425.85	0.89
2434.29	0.892
2442.72	0.8909
2451.15	0.887
2459.58	0.8805
2468.01	0.8805
2476.44	0.8861
2484.88	0.892
2493.31	0.895
2501.74	0.895
2510.17	0.895
2518.6	0.895
2527.03	0.898
2535.47	0.9
2543.9	0.902
2552.33	0.903
2560.76	0.902
2569.19	0.902
2577.62	0.9011
2586.06	0.902
2594.49	0.9
2602.92	0.9
2611.35	0.9
2619.78	0.9
2628.21	0.898
2636.65	0.8999
2645.08	0.9011
2653.51	0.895
2661.94	0.8889
2670.37	0.885
2678.8	0.8841
2687.24	0.883
2695.67	0.881
2704.1	0.8755
2712.53	0.8614
2720.96	0.8357
2729.39	0.7437
2737.83	0.6495
2746.26	0.8193
2754.69	0.8279
2763.12	0.827
2771.55	0.8265
2779.98	0.8249
2788.42	0.8174
2796.85	0.8015
2805.28	0.7794
2813.71	0.7452
2822.14	0.712
2830.57	0.66
2839.01	0.5842
2847.44	0.436
2855.87	0.2742
2864.3	0.1636
2872.73	0.1436
2881.17	0.1953
2889.6	0.2069
2898.03	0.1709
2906.46	0.1014
2914.89	0.0586
2923.32	0.033
2931.76	0.0386
2940.19	0.0459
2948.62	0.0461
2957.05	0.0756
2965.48	0.1089
2973.91	0.0779
2982.35	0.1191
2990.78	0.1839
2999.21	0.1664
3007.64	0.146
3016.07	0.1833
3024.5	0.2515
3032.94	0.3217
3041.37	0.3899
3049.8	0.4959
3058.23	0.5934
3066.66	0.6532
3075.09	0.6913
3083.53	0.7272
3091.96	0.7601
3100.39	0.7781
3108.82	0.7933
3117.25	0.8166
3125.68	0.8291
3134.12	0.8385
3142.55	0.849
3150.98	0.8581
3159.41	0.8655
3167.84	0.87
3176.27	0.875
3184.71	0.876
3193.14	0.881
3201.57	0.883
3210	0.885
3218.43	0.885
3226.86	0.885
3235.3	0.887
3243.73	0.888
3252.16	0.888
3260.59	0.8891
3269.02	0.89
3277.45	0.89
3285.89	0.8911
3294.32	0.892
3302.75	0.892
3311.18	0.893
3319.61	0.893
3328.05	0.892
3336.48	0.892
3344.91	0.893
3353.34	0.892
3361.77	0.892
3370.2	0.892
3378.64	0.892
3387.07	0.892
3395.5	0.892
3403.93	0.892
3412.36	0.892
3420.79	0.892
3429.23	0.892
3437.66	0.8909
3446.09	0.89
3454.52	0.89
3462.95	0.888
3471.38	0.89
3479.82	0.888
3488.25	0.8875
3496.68	0.8911
3505.11	0.89
3513.54	0.892
3521.97	0.893
3530.41	0.892
3538.84	0.8941
3547.27	0.898
3555.7	0.892
3564.13	0.898
3572.56	0.8959
3581	0.8909
3589.43	0.8916
3597.86	0.9011
3606.29	0.8989
3614.72	0.898
3623.15	0.898
3631.59	0.898
3640.02	0.898
3648.45	0.898
3656.88	0.9
3665.31	0.9
3673.74	0.9
3682.18	0.9
3690.61	0.9
3699.04	0.8975
3707.47	0.893
3715.9	0.893
3724.33	0.893
3732.77	0.897
3741.2	0.898
3749.63	0.893
3758.06	0.893
3766.49	0.8939
3774.93	0.897
3783.36	0.8925
3791.79	0.8925
3800.22	0.892
3808.65	0.89
3817.08	0.887
3825.52	0.8866
3833.95	0.887
3842.38	0.88
3850.81	0.8789
3859.24	0.875
3867.67	0.873
3876.11	0.871
3884.54	0.87
3892.97	0.868
3901.4	0.8689
3909.83	0.866
3918.26	0.866
3926.7	0.866
3935.13	0.863
