Infrared Spectrum: 1-METHYL-2-ISOPROPYLBENZENE
Formula: C10 H14
CAS: 527-84-4
State: LIQUID (NEAT)
Class: COBLENTZ
Instrument: PERKIN-ELMER 521 (GRATING)
Sampling: TRANSMISSION
Path length: 0.0025 CM
Resolution: 4
Origin: STANDARD OIL OF OHIO
1/CM	TRANSMITTANCE
585.955	0.61
594.358	0.61
602.762	0.608
611.165	0.6149
619.568	0.6209
627.972	0.6393
636.375	0.6567
644.779	0.6865
653.182	0.7044
661.585	0.7213
669.989	0.7386
678.392	0.7552
686.795	0.771
695.199	0.7694
703.602	0.7598
712.006	0.6732
720.409	0.3757
728.812	0.1082
737.216	0.5884
745.619	0.5825
754.022	0.0328
762.426	0.0765
770.829	0.5496
779.232	0.7117
787.636	0.6964
796.039	0.7644
804.443	0.8356
812.846	0.8651
821.249	0.868
829.653	0.8762
838.056	0.878
846.459	0.877
854.863	0.8606
863.266	0.8407
871.669	0.8651
880.073	0.8575
888.476	0.8182
896.88	0.8523
905.283	0.87
913.686	0.8611
922.09	0.8272
930.493	0.8189
938.896	0.7217
947.3	0.8458
955.703	0.85
964.107	0.8513
972.51	0.8406
980.913	0.8253
989.317	0.7749
997.72	0.8332
1006.12	0.8374
1014.53	0.8216
1022.93	0.7544
1031.33	0.2934
1039.74	0.4527
1048.14	0.7606
1056.54	0.818
1064.95	0.8064
1073.35	0.7301
1081.75	0.4453
1090.16	0.5197
1098.56	0.754
1106.96	0.7214
1115.37	0.7858
1123.77	0.8482
1132.17	0.852
1140.58	0.8499
1148.98	0.8103
1157.38	0.773
1165.79	0.8261
1174.19	0.8179
1182.59	0.81
1191	0.8549
1199.4	0.8599
1207.8	0.853
1216.21	0.845
1224.61	0.736
1233.01	0.8498
1241.42	0.858
1249.82	0.8532
1258.22	0.8365
1266.63	0.8011
1275.03	0.6512
1283.43	0.6696
1291.84	0.8106
1300.24	0.8002
1308.64	0.8165
1317.05	0.8302
1325.45	0.8265
1333.85	0.7643
1342.26	0.67
1350.66	0.6682
1359.06	0.4732
1367.47	0.655
1375.87	0.3811
1384.27	0.5532
1392.68	0.7328
1401.08	0.7347
1409.49	0.7046
1417.89	0.6051
1426.29	0.5387
1434.7	0.5241
1443.1	0.421
1451.5	0.2315
1459.91	0.0772
1468.31	0.2095
1476.71	0.407
1485.12	0.2676
1493.52	0.0971
1501.92	0.4424
1510.33	0.728
1518.73	0.7617
1527.13	0.8093
1535.54	0.8447
1543.94	0.8688
1552.34	0.875
1560.75	0.873
1569.15	0.8713
1577.55	0.8493
1585.96	0.805
1594.36	0.8189
1602.76	0.7937
1611.17	0.569
1619.57	0.8253
1627.97	0.8485
1636.38	0.886
1644.78	0.89
1653.18	0.8898
1661.59	0.885
1669.99	0.8842
1678.39	0.89
1686.8	0.8812
1695.2	0.854
1703.6	0.8578
1712.01	0.8805
1720.41	0.8697
1728.81	0.863
1737.22	0.8725
1745.62	0.8942
1754.02	0.8988
1762.43	0.8971
1770.83	0.9
1779.23	0.899
1787.64	0.887
1796.04	0.8423
1804.44	0.8478
1812.85	0.8897
1821.25	0.9038
1829.65	0.8792
1838.06	0.8548
1846.46	0.8977
1854.86	0.9099
1863.27	0.9073
1871.67	0.8813
1880.07	0.8697
1888.48	0.889
1896.88	0.874
1905.28	0.8426
1913.69	0.791
1922.09	0.8483
1930.49	0.8985
1938.9	0.8848
1947.3	0.8434
1955.7	0.863
1964.11	0.8991
1972.51	0.91
1980.91	0.914
1989.32	0.919
1997.72	0.919
2006.12	0.919
2014.53	0.921
2022.93	0.921
2031.33	0.921
2039.74	0.921
2048.14	0.921
2056.54	0.919
2064.95	0.9177
2073.35	0.919
2081.75	0.921
2090.16	0.921
2098.56	0.921
2106.96	0.9203
2115.37	0.922
2123.77	0.922
2132.17	0.922
2140.58	0.9214
2148.98	0.921
2157.38	0.921
2165.79	0.919
2174.19	0.917
2182.59	0.917
2191	0.915
2199.4	0.919
2207.8	0.9203
2216.21	0.919
2224.61	0.919
2233.02	0.917
2241.42	0.915
2249.82	0.9107
2258.23	0.9
2266.63	0.91
2275.03	0.9107
2283.44	0.9133
2291.84	0.914
2300.24	0.919
2308.65	0.917
2317.05	0.9101
2325.45	0.9007
2333.86	0.9039
2342.26	0.909
2350.66	0.909
2359.07	0.907
2367.47	0.9057
2375.87	0.9027
2384.28	0.902
2392.68	0.9083
2401.08	0.909
2409.49	0.905
2417.89	0.9033
2426.29	0.9083
2434.7	0.91
2443.1	0.909
2451.5	0.904
2459.91	0.902
2468.31	0.902
2476.71	0.9033
2485.12	0.907
2493.52	0.9027
2501.92	0.9075
2510.33	0.91
2518.73	0.91
2527.13	0.9094
2535.54	0.907
2543.94	0.9057
2552.34	0.9027
2560.75	0.9
2569.15	0.8851
2577.55	0.8846
2585.96	0.89
2594.36	0.89
2602.76	0.894
2611.17	0.895
2619.57	0.899
2627.97	0.899
2636.38	0.9
2644.78	0.899
2653.18	0.8957
2661.59	0.892
2669.99	0.89
2678.39	0.8844
2686.8	0.884
2695.2	0.889
2703.6	0.8877
2712.01	0.8737
2720.41	0.8511
2728.81	0.843
2737.22	0.8493
2745.62	0.848
2754.02	0.8513
2762.43	0.85
2770.83	0.8562
2779.23	0.868
2787.64	0.8611
2796.04	0.8487
2804.44	0.8336
2812.85	0.7966
2821.25	0.7923
2829.65	0.7785
2838.06	0.7514
2846.46	0.7087
2854.86	0.6321
2863.27	0.4614
2871.67	0.2559
2880.07	0.1503
2888.48	0.2131
2896.88	0.2576
2905.28	0.245
2913.69	0.2184
2922.09	0.1621
2930.49	0.1018
2938.9	0.0657
2947.3	0.0762
2955.7	0.0616
2964.11	0.0174
2972.51	0.013
2980.91	0.0169
2989.32	0.1389
2997.72	0.3276
3006.12	0.4853
3014.53	0.4672
3022.93	0.3243
3031.33	0.2188
3039.74	0.3375
3048.14	0.475
3056.55	0.4141
3064.95	0.4224
3073.35	0.351
3081.76	0.4196
3090.16	0.5752
3098.56	0.7185
3106.97	0.6945
3115.37	0.6822
3123.77	0.8114
3132.18	0.8426
3140.58	0.8493
3148.98	0.845
3157.39	0.836
3165.79	0.8413
3174.19	0.8513
3182.6	0.8619
3191	0.865
3199.4	0.8676
3207.81	0.8674
3216.21	0.8676
3224.61	0.872
3233.02	0.8776
3241.42	0.88
3249.82	0.8863
3258.23	0.889
3266.63	0.89
3275.03	0.894
3283.44	0.895
3291.84	0.897
3300.24	0.8977
3308.65	0.899
3317.05	0.899
3325.45	0.899
3333.86	0.899
3342.26	0.899
3350.66	0.897
3359.07	0.8983
3367.47	0.899
3375.87	0.899
3384.28	0.899
3392.68	0.899
3401.08	0.899
3409.49	0.899
3417.89	0.899
3426.29	0.899
3434.7	0.899
3443.1	0.899
3451.5	0.895
3459.91	0.8975
3468.31	0.899
3476.71	0.899
3485.12	0.899
3493.52	0.895
3501.92	0.895
3510.33	0.8963
3518.73	0.897
3527.13	0.897
3535.54	0.899
3543.94	0.899
3552.34	0.8994
3560.75	0.897
3569.15	0.8994
3577.55	0.9
3585.96	0.895
3594.36	0.899
3602.76	0.897
3611.17	0.8957
3619.57	0.899
3627.97	0.9
3636.38	0.9
3644.78	0.9
3653.18	0.899
3661.59	0.899
3669.99	0.899
3678.39	0.899
3686.8	0.899
3695.2	0.899
3703.6	0.897
3712.01	0.897
3720.41	0.897
3728.81	0.897
3737.22	0.897
3745.62	0.8983
3754.02	0.897
3762.43	0.8944
3770.83	0.8927
3779.23	0.892
3787.64	0.8894
3796.04	0.887
3804.44	0.885
3812.85	0.887
3821.25	0.88
3829.65	0.8813
3838.06	0.882
3846.46	0.884
3854.86	0.878
3863.27	0.877
3871.67	0.8763
3880.08	0.88
3888.48	0.8807
3896.88	0.884
3905.29	0.8807
3913.69	0.884
3922.09	0.8807
3930.5	0.88
3938.9	0.88
