Infrared Spectrum: 1(2H)-NAPHTHALENONE, 3,4-DIHYDRO-
Formula: C10 H10 O
CAS: 529-34-0
State: LIQUID (NEAT)
Class: COBLENTZ II
Instrument: PERKIN-ELMER 521 (GRATING)
Instrument parameters: FILTERS AT 3130, 2475, 2000, 620. GRATING CHANGES: 2000, 630 CM^-^1
Sampling: TRANSMISSION
Path length: CAPILLARY
Resolution: 2
Origin: SOUTHERN RESEARCH INSTITUTE
1/CM	TRANSMITTANCE
253.197	0.696
263.427	0.701
273.657	0.726
283.888	0.743
294.118	0.769
304.348	0.873
314.578	0.889
324.808	0.9
335.039	0.906
345.269	0.907
355.499	0.907
365.729	0.905
375.959	0.901
386.19	0.859
396.42	0.855
406.65	0.787
416.88	0.879
427.11	0.878
437.341	0.891
447.571	0.891
457.801	0.879
468.031	0.849
478.261	0.627
488.492	0.86
498.722	0.851
508.952	0.777
519.182	0.863
529.412	0.855
539.643	0.6402
549.873	0.6689
560.103	0.734
570.333	0.7939
580.563	0.875
590.794	0.877
601.024	0.867
611.254	0.863
621.484	0.845
631.714	0.768
641.945	0.792
652.175	0.855
662.405	0.881
672.635	0.881
682.865	0.87
693.096	0.808
703.326	0.863
713.556	0.832
723.786	0.4213
734.016	0.6356
744.247	0.681
754.477	0.413
764.707	0.3861
774.937	0.7909
785.167	0.6492
795.398	0.825
805.628	0.878
815.858	0.879
826.088	0.878
836.318	0.87
846.549	0.808
856.779	0.854
867.009	0.827
877.239	0.806
887.469	0.5501
897.7	0.5121
907.93	0.822
918.16	0.859
928.39	0.873
938.62	0.872
948.851	0.825
959.081	0.812
969.311	0.862
979.541	0.855
989.771	0.851
1000	0.836
1010.23	0.765
1020.46	0.412
1030.69	0.803
1040.92	0.7781
1051.15	0.83
1061.38	0.827
1071.61	0.834
1081.84	0.835
1092.07	0.818
1102.3	0.717
1112.53	0.4552
1122.76	0.731
1132.99	0.6679
1143.22	0.736
1153.45	0.669
1163.68	0.774
1173.91	0.5179
1184.15	0.5591
1194.38	0.712
1204.61	0.741
1214.84	0.512
1225.07	0.4911
1235.3	0.749
1245.53	0.729
1255.76	0.673
1265.99	0.669
1276.22	0.2499
1286.45	0.2448
1296.68	0.608
1306.91	0.651
1317.14	0.3499
1327.37	0.634
1337.6	0.606
1347.83	0.7437
1358.06	0.816
1368.29	0.824
1378.52	0.826
1388.75	0.806
1398.98	0.67
1409.21	0.606
1419.44	0.712
1429.67	0.4779
1439.9	0.625
1450.13	0.27
1460.36	0.718
1470.59	0.648
1480.82	0.7002
1491.05	0.841
1501.28	0.858
1511.51	0.86
1521.74	0.859
1531.97	0.859
1542.2	0.862
1552.43	0.845
1562.66	0.797
1572.89	0.696
1583.12	0.4939
1593.35	0.365
1603.58	0.4499
1613.81	0.702
1624.04	0.748
1634.27	0.707
1644.5	0.674
1654.73	0.613
1664.96	0.237
1675.19	0.092
1685.42	0.117
1695.66	0.3966
1705.89	0.594
1716.12	0.684
1726.35	0.794
1736.58	0.826
1746.81	0.827
1757.04	0.835
1767.27	0.841
1777.5	0.855
1787.73	0.873
1797.96	0.874
1808.19	0.872
1818.42	0.86
1828.65	0.85
1838.88	0.855
1849.11	0.864
1859.34	0.87
1869.57	0.87
1879.8	0.879
1890.03	0.881
1900.26	0.879
1910.49	0.872
1920.72	0.863
1930.95	0.854
1941.18	0.822
1951.41	0.854
1961.64	0.858
1971.87	0.864
1982.1	0.872
1992.33	0.891
2002.56	0.884
2012.79	0.877
2023.02	0.894
2033.25	0.896
2043.48	0.894
2053.71	0.896
2063.94	0.896
2074.17	0.894
2084.4	0.894
2094.63	0.894
2104.86	0.894
2115.09	0.894
2125.32	0.894
2135.55	0.891
2145.78	0.891
2156.01	0.891
2166.24	0.891
2176.47	0.891
2186.7	0.892
2196.93	0.892
2207.16	0.891
2217.4	0.888
2227.63	0.886
2237.86	0.883
2248.09	0.881
2258.32	0.881
2268.55	0.881
2278.78	0.881
2289.01	0.881
2299.24	0.882
2309.47	0.882
2319.7	0.881
2329.93	0.881
2340.16	0.881
2350.39	0.882
2360.62	0.883
2370.85	0.883
2381.08	0.886
2391.31	0.887
2401.54	0.888
2411.77	0.887
2422	0.886
2432.23	0.883
2442.46	0.882
2452.69	0.881
2462.92	0.878
2473.15	0.878
2483.38	0.878
2493.61	0.878
2503.84	0.878
2514.07	0.878
2524.3	0.878
2534.53	0.878
2544.76	0.878
2554.99	0.877
2565.22	0.875
2575.45	0.872
2585.68	0.869
2595.91	0.867
2606.14	0.869
2616.37	0.87
2626.6	0.869
2636.83	0.868
2647.06	0.867
2657.29	0.865
2667.52	0.863
2677.75	0.867
2687.98	0.868
2698.21	0.868
2708.44	0.87
2718.67	0.868
2728.91	0.864
2739.14	0.862
2749.37	0.862
2759.6	0.859
2769.83	0.85
2780.06	0.845
2790.29	0.827
2800.52	0.812
2810.75	0.813
2820.98	0.7559
2831.21	0.691
2841.44	0.708
2851.67	0.656
2861.9	0.551
2872.13	0.578
2882.36	0.607
2892.59	0.63
2902.82	0.629
2913.05	0.5289
2923.28	0.426
2933.51	0.381
2943.74	0.384
2953.97	0.512
2964.2	0.672
2974.43	0.762
2984.66	0.786
2994.89	0.778
3005.12	0.759
3015.35	0.696
3025.58	0.721
3035.81	0.743
3046.04	0.711
3056.27	0.677
3066.5	0.697
3076.73	0.789
3086.96	0.808
3097.19	0.831
3107.42	0.843
3117.65	0.851
3127.88	0.841
3138.11	0.84
3148.34	0.845
3158.57	0.848
3168.8	0.849
3179.03	0.849
3189.26	0.849
3199.49	0.85
3209.72	0.849
3219.95	0.849
3230.18	0.846
3240.42	0.843
3250.65	0.84
3260.88	0.837
3271.11	0.837
3281.34	0.837
3291.57	0.835
3301.8	0.834
3312.03	0.83
3322.26	0.822
3332.49	0.805
3342.72	0.779
3352.95	0.786
3363.18	0.798
3373.41	0.806
3383.64	0.806
3393.87	0.802
3404.1	0.797
3414.33	0.797
3424.56	0.806
3434.79	0.813
3445.02	0.817
3455.25	0.818
3465.48	0.82
3475.71	0.821
3485.94	0.825
3496.17	0.829
3506.4	0.829
3516.63	0.83
3526.86	0.834
3537.09	0.836
3547.32	0.839
3557.55	0.841
3567.78	0.843
3578.01	0.843
3588.24	0.843
3598.47	0.844
3608.7	0.845
3618.93	0.848
3629.16	0.85
3639.39	0.851
3649.62	0.853
3659.85	0.855
3670.08	0.856
3680.31	0.859
3690.54	0.86
3700.77	0.86
3711	0.86
3721.23	0.86
3731.46	0.86
3741.69	0.86
3751.93	0.86
3762.16	0.86
3772.39	0.86
3782.62	0.859
3792.85	0.856
3803.08	0.858
3813.31	0.858
3823.54	0.858
3833.77	0.856
3844	0.855
3854.23	0.855
3864.46	0.855
3874.69	0.856
3884.92	0.858
3895.15	0.859
3905.38	0.858
3915.61	0.856
3925.84	0.856
3936.07	0.855
3946.3	0.855
3956.53	0.854
3966.76	0.853
3976.99	0.853
3987.22	0.853
3997.45	0.851
4007.68	0.851
