Infrared Spectrum: CINNAMIC ACID, 4-HYDROXY-3,5-DIMETHOXY-
Formula: C11 H12 O5
CAS: 530-59-6
State: SOLID (0.8 mg / 250 mg KBr DISC)
Class: COBLENTZ III
Instrument: CARY 90 (GRATING)
Instrument parameters: ORDER CHANGES: 3000, 2000, 1200 CM^-^1
Sampling: TRANSMISSION
Resolution: 2
Origin: WESTERN REGIONAL RES. USDA
1/CM	TRANSMITTANCE
4000	0.8122
3991	0.8132
3982	0.8145
3973	0.8157
3964	0.8169
3955	0.8182
3946	0.8209
3937	0.8244
3928	0.8274
3919	0.8303
3910	0.8332
3901	0.8352
3892	0.8367
3883	0.8382
3874	0.8398
3865	0.8407
3856	0.8412
3847	0.8416
3838	0.842
3829	0.8415
3820	0.8409
3811	0.8403
3802	0.8406
3793	0.8411
3784	0.8444
3775	0.8468
3766	0.8493
3757	0.8515
3748	0.8517
3739	0.8518
3730	0.8518
3721	0.8516
3712	0.8514
3703	0.8511
3694	0.8508
3685	0.85
3676	0.8494
3667	0.8481
3658	0.8456
3649	0.8407
3640	0.834
3631	0.8206
3622	0.8069
3613	0.7935
3604	0.7782
3595	0.7618
3586	0.744
3577	0.7262
3568	0.7068
3559	0.6851
3550	0.6618
3541	0.6155
3532	0.5885
3523	0.5673
3514	0.534
3505	0.5208
3496	0.5091
3487	0.4969
3478	0.4839
3469	0.4698
3460	0.4551
3451	0.4418
3442	0.4287
3433	0.4172
3424	0.4058
3415	0.3941
3406	0.3804
3397	0.3484
3388	0.3443
3379	0.3564
3370	0.3762
3361	0.3912
3352	0.3914
3343	0.3909
3334	0.3902
3325	0.3895
3316	0.391
3307	0.3958
3298	0.4025
3289	0.4114
3280	0.4217
3271	0.4312
3262	0.4394
3253	0.447
3244	0.4529
3235	0.4569
3226	0.4596
3217	0.4607
3208	0.4612
3199	0.4616
3190	0.4608
3181	0.4599
3172	0.4598
3163	0.46
3154	0.4602
3145	0.4604
3136	0.4595
3127	0.4582
3118	0.456
3109	0.454
3100	0.452
3091	0.4503
3082	0.4486
3073	0.4476
3064	0.4476
3055	0.4481
3046	0.4488
3037	0.449
3028	0.4475
3019	0.4348
3010	0.4329
3001	0.4139
2992	0.443
2983	0.4418
2974	0.4124
2965	0.4234
2956	0.4422
2947	0.4174
2938	0.4145
2929	0.4435
2920	0.4685
2911	0.4917
2902	0.5097
2893	0.5221
2884	0.5325
2875	0.5403
2866	0.5445
2857	0.523
2848	0.4795
2839	0.456
2830	0.5298
2821	0.5632
2812	0.5833
2803	0.5968
2794	0.6081
2785	0.6184
2776	0.6286
2767	0.6371
2758	0.6458
2749	0.6547
2740	0.6656
2731	0.6732
2722	0.6694
2713	0.6635
2704	0.6587
2695	0.6548
2686	0.6545
2677	0.6546
2668	0.6568
2659	0.6607
2650	0.6648
2641	0.6698
2632	0.6718
2623	0.6721
2614	0.6708
2605	0.6653
2596	0.6569
2587	0.6487
2578	0.645
2569	0.6445
2560	0.643
2551	0.6397
2542	0.6365
2533	0.6384
2524	0.6468
2515	0.6622
2506	0.6742
2497	0.6848
2488	0.6951
2479	0.7048
2470	0.7146
2461	0.7241
2452	0.7335
2443	0.7428
2434	0.7522
2425	0.7603
2416	0.7681
2407	0.7758
2398	0.7834
2389	0.7908
2380	0.7981
2371	0.8046
2362	0.8119
2353	0.8178
2344	0.8172
2335	0.8169
2326	0.8252
2317	0.8335
2308	0.8415
2299	0.8496
2290	0.8577
2281	0.8653
2272	0.8689
2263	0.8686
2254	0.8701
2245	0.8746
2236	0.8787
2227	0.8814
2218	0.8842
2209	0.8867
2200	0.8892
2191	0.8914
2182	0.8935
2173	0.8923
2164	0.8905
2155	0.889
2146	0.8907
2137	0.8928
2128	0.895
2119	0.8967
2110	0.8984
2101	0.9001
2092	0.9025
2083	0.9055
2074	0.9084
2065	0.911
2056	0.9136
2047	0.9162
2038	0.9195
2029	0.923
2020	0.928
2011	0.9332
2002	0.9398
1993	0.9428
1984	0.9423
1975	0.9417
1966	0.9411
1957	0.9405
1948	0.942
1939	0.9437
1930	0.9454
1921	0.9473
1912	0.9491
1903	0.9509
1894	0.9528
1885	0.9551
1876	0.9575
1867	0.9571
1858	0.9525
1849	0.9499
1840	0.9493
1831	0.9525
1822	0.9549
1813	0.9575
1804	0.9574
1795	0.9568
1786	0.9559
1777	0.9547
1768	0.9521
1759	0.9455
1750	0.9268
1741	0.8918
1732	0.8365
1723	0.7153
1714	0.531
1705	0.3158
1696	0.204
1687	0.1588
1678	0.133
1669	0.0997
1660	0.1099
1651	0.2458
1642	0.3237
1633	0.1928
1624	0.1728
1615	0.2334
1606	0.2713
1597	0.2747
1588	0.374
1579	0.5804
1570	0.6968
1561	0.7875
1552	0.8198
1543	0.8238
1534	0.7868
1525	0.5648
1516	0.0512
1507	0.2169
1498	0.4782
1489	0.7396
1480	0.6778
1471	0.4433
1462	0.2088
1453	0.2565
1444	0.3558
1435	0.3971
1426	0.1712
1417	0.2981
1408	0.5031
1399	0.6259
1390	0.5033
1381	0.4551
1372	0.5227
1363	0.5912
1354	0.6178
1345	0.3332
1336	0.0925
1327	0.1918
1318	0.2577
1309	0.2743
1300	0.1512
1291	0.1768
1282	0.2862
1273	0.1589
1264	0.1119
1255	0.221
1246	0.3359
1237	0.3487
1228	0.2031
1219	0.1075
1210	0.1179
1201	0.1943
1192	0.2734
1183	0.313
1174	0.362
1165	0.3995
1156	0.1449
1147	0.2532
1138	0.42
1129	0.3316
1120	0.1165
1111	0.1051
1102	0.1918
1093	0.3566
1084	0.4656
1075	0.6009
1066	0.6871
1057	0.7346
1048	0.7018
1039	0.6751
1030	0.703
1021	0.7391
1012	0.7772
1003	0.7836
994	0.6741
985	0.6158
976	0.4858
967	0.4525
958	0.6789
949	0.6997
940	0.7231
931	0.6921
922	0.6743
913	0.6024
904	0.5983
895	0.7187
886	0.7667
877	0.7571
868	0.7007
859	0.7557
850	0.7346
841	0.6672
832	0.4221
823	0.6267
814	0.5755
805	0.7678
796	0.8062
787	0.8141
778	0.8119
769	0.8074
760	0.8008
751	0.7992
742	0.8034
733	0.7625
724	0.7221
715	0.7612
706	0.7568
697	0.7575
688	0.7645
679	0.7545
670	0.7154
661	0.6436
652	0.624
643	0.6226
634	0.5318
625	0.4218
616	0.4848
607	0.5057
598	0.5434
589	0.6087
580	0.6501
571	0.6592
562	0.6483
553	0.5773
544	0.5846
535	0.6175
526	0.5931
517	0.6186
508	0.6358
499	0.6232
490	0.6138
481	0.6092
472	0.6032
