Infrared Spectrum: 2-Cyclohexen-1-one, 3-ethoxy-
Formula: C8 H12 O2
CAS: 5323-87-5
State: SOLUTION (10% CCl4 FOR 3800-1330, 10% CS2 FOR 1330-450 CM^-^1)
Boiling point: 76 C AT 0.7 mmHg
Class: COBLENTZ III
Instrument: DOW KBr FOREPRISM-GRATING
Instrument parameters: BLAZED AT 3.5, 12.0, 20.0 MICRON AND CHANGED AT 5.0, 7.5, 14.9 MICRON
Sampling: TRANSMISSION
Path length: 0.011 CM, 0.010 CM
Resolution: 2
Origin: DOW CHEMICAL COMPANY
1/CM	TRANSMITTANCE
458	0.7054
467	0.7004
476	0.6704
485	0.6136
494	0.6757
503	0.7372
512	0.5206
521	0.7465
530	0.7753
539	0.7499
548	0.6825
557	0.7607
566	0.8089
575	0.8101
584	0.7893
593	0.7149
602	0.5288
611	0.6652
620	0.8084
629	0.8069
638	0.7838
647	0.7243
656	0.538
665	0.7706
674	0.7997
683	0.8016
692	0.8004
701	0.8044
710	0.8104
719	0.8101
728	0.8058
737	0.8002
746	0.792
755	0.5997
764	0.7211
773	0.8046
782	0.798
791	0.7779
800	0.7321
809	0.6359
818	0.2202
827	0.4338
836	0.4426
845	0.5912
854	0.4298
863	0.4276
872	0.3669
881	0.6647
890	0.7375
899	0.5953
908	0.7501
917	0.6712
926	0.4348
935	0.4673
944	0.7546
953	0.7482
962	0.7009
971	0.781
980	0.7924
989	0.7735
998	0.7727
1007	0.7387
1016	0.5985
1025	0.2458
1034	0.1874
1043	0.6172
1052	0.5977
1061	0.6537
1070	0.7236
1079	0.7024
1088	0.605
1097	0.6681
1106	0.446
1115	0.5852
1124	0.4622
1133	0.0308
1142	0.5045
1151	0.3913
1160	0.428
1169	0.3118
1178	0.0088
1187	0.0253
1196	0.4588
1205	0.1909
1214	0.0111
1223	0.0308
1232	0.2302
1241	0.2885
1250	0.5673
1259	0.5636
1268	0.6373
1277	0.6524
1286	0.5901
1295	0.5384
1304	0.5017
1313	0.3706
1322	0.2345
1331	0.0664
1340	0.5041
1349	0.0653
1358	0.2888
1367	0.2584
1376	0.0809
1385	0.22
1394	0.4969
1403	0.3934
1412	0.4474
1421	0.4787
1430	0.1452
1439	0.5448
1448	0.5197
1457	0.1803
1466	0.6484
1475	0.3555
1484	0.677
1493	0.6964
1502	0.6619
1511	0.6141
1520	0.5422
1529	0.5359
1538	0.4834
1547	0.4053
1556	0.3862
1565	0.4167
1574	0.3893
1583	0.2994
1592	0.1216
1601	0.0021
1610	0.0041
1619	0.147
1628	0.2648
1637	0.1356
1646	0.0073
1655	0.0041
1664	0.0044
1673	0.0165
1682	0.2442
1691	0.4865
1700	0.5984
1709	0.6151
1718	0.5922
1727	0.6001
1736	0.6306
1745	0.7605
1754	0.7951
1763	0.8037
1772	0.8062
1781	0.7996
1790	0.788
1799	0.8012
1808	0.8179
1817	0.8279
1826	0.823
1835	0.8165
1844	0.8309
1853	0.8342
1862	0.8259
1871	0.8198
1880	0.8302
1889	0.8298
1898	0.8385
1907	0.8468
1916	0.8396
1925	0.8316
1934	0.8302
1943	0.8458
1952	0.8458
1961	0.845
1970	0.8449
1979	0.8434
1988	0.8412
1997	0.8422
2006	0.8442
2015	0.8492
2024	0.854
2033	0.8548
2042	0.853
2051	0.8515
2060	0.8512
2069	0.8491
2078	0.8458
2087	0.8467
2096	0.8554
2105	0.8539
2114	0.849
2123	0.8464
2132	0.848
2141	0.8539
2150	0.8579
2159	0.8615
2168	0.8616
2177	0.8596
2186	0.8579
2195	0.86
2204	0.8577
2213	0.8546
2222	0.8512
2231	0.8499
2240	0.8477
2249	0.844
2258	0.8369
2267	0.8316
2276	0.8333
2285	0.8304
2294	0.8301
2303	0.8331
2312	0.8386
2321	0.8474
2330	0.8577
2339	0.8634
2348	0.8576
2357	0.8547
2366	0.8532
2375	0.849
2384	0.8409
2393	0.825
2402	0.8177
2411	0.8308
2420	0.8275
2429	0.8151
2438	0.8258
2447	0.8453
2456	0.8538
2465	0.8524
2474	0.8449
2483	0.8459
2492	0.8518
2501	0.8479
2510	0.8428
2519	0.8463
2528	0.8513
2537	0.8519
2546	0.8521
2555	0.8505
2564	0.8497
2573	0.8497
2582	0.8502
2591	0.8512
2600	0.8527
2609	0.8539
2618	0.854
2627	0.854
2636	0.8532
2645	0.8522
2654	0.8513
2663	0.8503
2672	0.8496
2681	0.8496
2690	0.8537
2699	0.8579
2708	0.8568
2717	0.8539
2726	0.8469
2735	0.8346
2744	0.8246
2753	0.8366
2762	0.8385
2771	0.8341
2780	0.827
2789	0.8165
2798	0.8081
2807	0.798
2816	0.7653
2825	0.7077
2834	0.6625
2843	0.7191
2852	0.7278
2861	0.6934
2870	0.6173
2879	0.4377
2888	0.4443
2897	0.3423
2906	0.4505
2915	0.5308
2924	0.4269
2933	0.2974
2942	0.1491
2951	0.156
2960	0.2317
2969	0.315
2978	0.3654
2987	0.2585
2996	0.2026
3005	0.4932
3014	0.7362
3023	0.8114
3032	0.8269
3041	0.8303
3050	0.826
3059	0.8053
3068	0.7885
3077	0.7834
3086	0.8172
3095	0.8373
3104	0.8479
3113	0.8518
3122	0.8523
3131	0.8531
3140	0.8557
3149	0.8578
3158	0.8573
3167	0.8556
3176	0.853
3185	0.8503
3194	0.8474
3203	0.8472
3212	0.8487
3221	0.8519
3230	0.854
3239	0.8548
3248	0.8522
3257	0.8458
3266	0.8362
3275	0.8268
3284	0.8171
3293	0.8102
3302	0.8091
3311	0.8129
3320	0.8208
3329	0.8348
3338	0.8506
3347	0.8531
3356	0.8517
3365	0.8533
3374	0.8516
3383	0.8493
3392	0.8464
3401	0.8434
3410	0.8388
3419	0.8341
3428	0.8303
3437	0.8265
3446	0.8241
3455	0.822
3464	0.8281
3473	0.8238
3482	0.8255
3491	0.8277
3500	0.8301
3509	0.8323
3518	0.8356
3527	0.8392
3536	0.8433
3545	0.8485
3554	0.8542
3563	0.8601
3572	0.8632
3581	0.8658
3590	0.8684
3599	0.8694
3608	0.8704
3617	0.8711
3626	0.8708
3635	0.8705
3644	0.8699
3653	0.8675
3662	0.8626
3671	0.8459
3680	0.8504
3689	0.8665
3698	0.8805
3707	0.8819
3716	0.8828
3725	0.883
3734	0.8832
3743	0.8829
3752	0.8836
3761	0.8846
3770	0.8863
3779	0.8937
3788	0.9
3797	0.8978
3806	0.8939
