Infrared Spectrum: 2,4,6-Trichlorophenylhydrazine
Formula: C6 H5 Cl3 N2
CAS: 5329-12-4
State: SOLID (SPLIT MULL)
Melting point: 142 C
Class: COBLENTZ III
Instrument: DOW KBr FOREPRISM-GRATING
Instrument parameters: BLAZED AT 3.5, 12.0, 20.0 MICRON AND CHANGED AT 5.0, 7.5, 14.9 MICRON
Sampling: TRANSMISSION
Resolution: 2
Origin: DOW CHEMICAL COMPANY
1/CM	TRANSMITTANCE
3788	0.5338
3779	0.5344
3770	0.5351
3761	0.5345
3752	0.5335
3743	0.5321
3734	0.53
3725	0.5272
3716	0.5244
3707	0.5214
3698	0.5158
3689	0.509
3680	0.5009
3671	0.4898
3662	0.4762
3653	0.4616
3644	0.4443
3635	0.4231
3626	0.4003
3617	0.3855
3608	0.374
3599	0.3639
3590	0.355
3581	0.3443
3572	0.3339
3563	0.3218
3554	0.3118
3545	0.3046
3536	0.2975
3527	0.2904
3518	0.2834
3509	0.2766
3500	0.2701
3491	0.2639
3482	0.259
3473	0.2541
3464	0.2506
3455	0.247
3446	0.2434
3437	0.2402
3428	0.2371
3419	0.2352
3410	0.2348
3401	0.2346
3392	0.2344
3383	0.2379
3374	0.2476
3365	0.255
3356	0.2542
3347	0.2344
3338	0.2696
3329	0.291
3320	0.2949
3311	0.2961
3302	0.3021
3293	0.3002
3284	0.2838
3275	0.2578
3266	0.2158
3257	0.1929
3248	0.2459
3239	0.2835
3230	0.3111
3221	0.3288
3212	0.343
3203	0.3543
3194	0.3607
3185	0.3612
3176	0.3689
3167	0.3912
3158	0.4119
3149	0.4301
3140	0.4443
3131	0.4578
3122	0.4706
3113	0.4821
3104	0.4942
3095	0.4975
3086	0.4762
3077	0.4564
3068	0.5157
3059	0.5322
3050	0.5455
3041	0.5572
3032	0.566
3023	0.5739
3014	0.581
3005	0.5879
2996	0.5948
2987	0.603
2978	0.611
2969	0.6185
2960	0.6259
2951	0.6334
2942	0.6404
2933	0.6471
2924	0.653
2915	0.6574
2906	0.6608
2897	0.6641
2888	0.6674
2879	0.6705
2870	0.6736
2861	0.6765
2852	0.6794
2843	0.6821
2834	0.6848
2825	0.6878
2816	0.691
2807	0.6958
2798	0.7008
2789	0.7061
2780	0.711
2771	0.7138
2762	0.7153
2753	0.7158
2744	0.7154
2735	0.7149
2726	0.7146
2717	0.7138
2708	0.7115
2699	0.7105
2690	0.7095
2681	0.7086
2672	0.7081
2663	0.7076
2654	0.7075
2645	0.7074
2636	0.7078
2627	0.7101
2618	0.7128
2609	0.7156
2600	0.7184
2591	0.7218
2582	0.7258
2573	0.729
2564	0.7321
2555	0.7354
2546	0.7387
2537	0.7417
2528	0.7448
2519	0.7475
2510	0.7506
2501	0.7531
2492	0.7543
2483	0.7556
2474	0.7569
2465	0.7585
2456	0.7608
2447	0.7642
2438	0.7678
2429	0.7719
2420	0.7753
2411	0.7765
2402	0.7768
2393	0.7762
2384	0.7754
2375	0.7749
2366	0.7751
2357	0.7751
2348	0.7754
2339	0.7764
2330	0.7774
2321	0.7783
2312	0.7791
2303	0.7796
2294	0.7801
2285	0.7805
2276	0.781
2267	0.7815
2258	0.7815
2249	0.7817
2240	0.7821
2231	0.7831
2222	0.784
2213	0.7847
2204	0.7851
2195	0.7855
2186	0.7858
2177	0.786
2168	0.7861
2159	0.7858
2150	0.784
2141	0.7815
2132	0.7791
2123	0.778
2114	0.7778
2105	0.7804
2096	0.7833
2087	0.7853
2078	0.7869
2069	0.789
2060	0.7911
2051	0.794
2042	0.7965
2033	0.7983
2024	0.7991
2015	0.8015
2006	0.8111
1997	0.8126
1988	0.8115
1979	0.8162
1970	0.8167
1961	0.8198
1952	0.8259
1943	0.8238
1934	0.821
1925	0.8216
1916	0.8257
1907	0.8278
1898	0.8289
1889	0.8294
1880	0.8287
1871	0.8278
1862	0.8268
1853	0.8262
1844	0.8251
1835	0.8242
1826	0.8235
1817	0.8225
1808	0.8213
1799	0.8189
1790	0.8161
1781	0.8125
1772	0.8076
1763	0.8005
1754	0.7928
1745	0.7776
1736	0.7617
1727	0.7295
1718	0.7182
1709	0.7147
1700	0.6988
1691	0.6771
1682	0.648
1673	0.615
1664	0.5902
1655	0.5712
1646	0.5606
1637	0.5552
1628	0.5517
1619	0.5365
1610	0.5103
1601	0.4925
1592	0.5718
1583	0.5364
1574	0.4508
1565	0.3445
1556	0.4921
1547	0.5076
1538	0.5986
1529	0.6506
1520	0.6512
1511	0.6461
1502	0.6243
1493	0.5379
1484	0.4691
1475	0.5127
1466	0.531
1457	0.4956
1448	0.4349
1439	0.4418
1430	0.3903
1421	0.4698
1412	0.5602
1403	0.5872
1394	0.5525
1385	0.462
1376	0.5078
1367	0.5071
1358	0.6144
1349	0.6171
1340	0.6064
1331	0.6735
1322	0.6646
1313	0.6418
1304	0.5755
1295	0.5844
1286	0.6255
1277	0.6501
1268	0.658
1259	0.6338
1250	0.6346
1241	0.6432
1232	0.6946
1223	0.7075
1214	0.7111
1205	0.7118
1196	0.611
1187	0.6911
1178	0.6764
1169	0.6926
1160	0.6834
1151	0.6548
1142	0.5962
1133	0.5099
1124	0.5038
1115	0.4966
1106	0.581
1097	0.5557
1088	0.6326
1079	0.6028
1070	0.5874
1061	0.6415
1052	0.6819
1043	0.7261
1034	0.756
1025	0.7799
1016	0.7883
1007	0.788
998	0.8017
989	0.8142
980	0.8192
971	0.7844
962	0.7437
953	0.6711
944	0.6564
935	0.7312
926	0.7594
917	0.771
908	0.7586
899	0.6918
890	0.6167
881	0.5501
872	0.663
863	0.6176
854	0.2534
845	0.5058
836	0.6608
827	0.6274
818	0.4501
809	0.4232
800	0.452
791	0.473
782	0.4538
773	0.5754
764	0.598
755	0.5634
746	0.364
737	0.5102
728	0.521
719	0.5019
710	0.5537
701	0.57
692	0.3938
683	0.4888
674	0.5446
665	0.5548
656	0.556
647	0.5581
638	0.5583
629	0.5565
620	0.5399
611	0.5449
602	0.565
593	0.5552
584	0.5621
575	0.5021
566	0.5445
557	0.5485
548	0.5625
539	0.5662
530	0.5674
521	0.5717
512	0.5647
503	0.574
494	0.5782
485	0.5792
476	0.5765
467	0.5712
458	0.564
