Infrared Spectrum: 1,2,4-BENZENETRIOL
Formula: C6 H6 O3
CAS: 533-73-3
State: SOLID (KBr PELLET)
Class: COBLENTZ
Instrument: Not specified, most likely a prism, grating, or hybrid spectrometer.
Sampling: TRANSMISSION
Resolution: 4
Origin: TENNESSEE EASTMAN COMPANY, RESEARCH LABORATORIES
MICROMETERS	TRANSMITTANCE
2.034	0.75
2.07507	0.747
2.11615	0.745
2.15722	0.745
2.1983	0.747
2.23937	0.75
2.28045	0.754
2.32152	0.762
2.3626	0.766
2.40367	0.769
2.44475	0.774
2.48582	0.776
2.5269	0.779
2.56797	0.783
2.60905	0.783
2.65012	0.786
2.6912	0.79
2.73227	0.783
2.77335	0.697
2.81442	0.61
2.8555	0.522
2.89657	0.382
2.93765	0.211
2.97872	0.121
3.0198	0.061
3.06087	0.042
3.10195	0.042
3.14302	0.042
3.1841	0.083
3.22517	0.187
3.26625	0.332
3.30732	0.435
3.3484	0.511
3.38947	0.609
3.43055	0.621
3.47162	0.626
3.5127	0.686
3.55377	0.709
3.59485	0.709
3.63592	0.696
3.677	0.699
3.71807	0.725
3.75915	0.737
3.80022	0.742
3.8413	0.742
3.88237	0.75
3.92345	0.769
3.96452	0.79
4.0056	0.803
4.04667	0.807
4.08775	0.813
4.12882	0.834
4.1699	0.856
4.21097	0.87
4.25205	0.877
4.29312	0.875
4.3342	0.877
4.37527	0.887
4.41635	0.902
4.45742	0.909
4.4985	0.918
4.53957	0.923
4.58065	0.924
4.62172	0.928
4.6628	0.928
4.70387	0.928
4.74495	0.928
4.78602	0.928
4.8271	0.928
4.86817	0.926
4.90925	0.926
4.95032	0.926
4.9914	0.928
5.03247	0.931
5.07355	0.933
5.11462	0.933
5.1557	0.933
5.19677	0.933
5.23785	0.933
5.27892	0.933
5.32	0.933
5.36107	0.933
5.40215	0.933
5.44322	0.933
5.4843	0.926
5.52537	0.892
5.56645	0.916
5.60752	0.924
5.6486	0.924
5.68967	0.923
5.73075	0.914
5.77182	0.904
5.8129	0.899
5.85397	0.889
5.89505	0.878
5.93612	0.865
5.9772	0.851
6.01827	0.836
6.05935	0.796
6.10042	0.609
6.1415	0.356
6.18257	0.392
6.22365	0.704
6.26472	0.795
6.3058	0.807
6.34687	0.795
6.38795	0.803
6.42902	0.786
6.4701	0.607
6.51117	0.235
6.55225	0.097
6.59332	0.1
6.6344	0.303
6.67547	0.341
6.71655	0.45
6.75762	0.525
6.7987	0.621
6.83977	0.633
6.88085	0.633
6.92192	0.602
6.963	0.54
7.00407	0.412
7.04515	0.252
7.08622	0.151
7.1273	0.083
7.16837	0.061
7.20945	0.075
7.25052	0.15
7.2916	0.266
7.33267	0.37
7.37375	0.479
7.41482	0.551
7.4559	0.595
7.49697	0.626
7.53805	0.621
7.57912	0.568
7.6202	0.402
7.66127	0.182
7.70235	0.116
7.74342	0.293
7.7845	0.389
7.82557	0.431
7.86665	0.428
7.90772	0.416
7.9488	0.44
7.98987	0.517
8.03095	0.539
8.07202	0.534
8.1131	0.467
8.15417	0.358
8.19525	0.267
8.23632	0.264
8.2774	0.249
8.31847	0.192
8.35955	0.18
8.40062	0.247
8.4417	0.203
8.48277	0.194
8.52385	0.296
8.56492	0.349
8.606	0.29
8.64707	0.235
8.68815	0.44
8.72922	0.578
8.7703	0.67
8.81137	0.72
8.85245	0.742
8.89352	0.752
8.9346	0.754
8.97567	0.715
9.01675	0.616
9.05782	0.672
9.0989	0.754
9.13997	0.793
9.18105	0.819
9.22212	0.824
9.2632	0.829
9.30427	0.834
9.34535	0.836
9.38642	0.837
9.4275	0.839
9.46857	0.839
9.50965	0.843
9.55072	0.848
9.5918	0.848
9.63287	0.849
9.67395	0.856
9.71502	0.858
9.7561	0.866
9.79717	0.87
9.83825	0.873
9.87932	0.875
9.9204	0.88
9.96147	0.88
10.0025	0.883
10.0436	0.89
10.0847	0.892
10.1258	0.892
10.1668	0.89
10.2079	0.849
10.249	0.668
10.2901	0.395
10.3311	0.235
10.3722	0.5
10.4133	0.735
10.4544	0.831
10.4954	0.872
10.5365	0.89
10.5776	0.895
10.6187	0.901
10.6597	0.918
10.7008	0.924
10.7419	0.926
10.783	0.928
10.824	0.931
10.8651	0.931
10.9062	0.931
10.9473	0.924
10.9883	0.924
11.0294	0.924
11.0705	0.924
11.1116	0.93
11.1526	0.933
11.1937	0.933
11.2348	0.933
11.2759	0.931
11.3169	0.933
11.358	0.933
11.3991	0.933
11.4402	0.933
11.4812	0.933
11.5223	0.93
11.5634	0.914
11.6045	0.897
11.6455	0.887
11.6866	0.872
11.7277	0.853
11.7688	0.822
11.8098	0.771
11.8509	0.595
11.892	0.462
11.9331	0.571
11.9741	0.691
12.0152	0.747
12.0563	0.778
12.0974	0.791
12.1384	0.798
12.1795	0.8
12.2206	0.8
12.2617	0.793
12.3027	0.766
12.3438	0.733
12.3849	0.701
12.426	0.646
12.467	0.556
12.5081	0.402
12.5492	0.288
12.5903	0.196
12.6313	0.167
12.6724	0.259
12.7135	0.399
12.7546	0.576
12.7956	0.68
12.8367	0.715
12.8778	0.73
12.9189	0.738
12.9599	0.738
13.001	0.738
13.0421	0.738
13.0832	0.733
13.1242	0.73
13.1653	0.728
13.2064	0.725
13.2475	0.718
13.2885	0.708
13.3296	0.697
13.3707	0.668
13.4118	0.602
13.4528	0.517
13.4939	0.445
13.535	0.459
13.5761	0.52
13.6171	0.561
13.6582	0.575
13.6993	0.576
13.7404	0.576
13.7814	0.576
13.8225	0.576
13.8636	0.576
13.9047	0.576
13.9457	0.576
13.9868	0.583
14.0279	0.598
14.069	0.617
14.11	0.641
14.1511	0.663
14.1922	0.665
14.2333	0.656
14.2743	0.643
14.3154	0.639
14.3565	0.639
14.3976	0.639
14.4386	0.639
14.4797	0.645
14.5208	0.65
14.5619	0.662
14.6029	0.667
14.644	0.672
14.6851	0.672
14.7262	0.672
14.7672	0.675
14.8083	0.675
14.8494	0.677
14.8905	0.677
14.9315	0.677
14.9726	0.679
15.0137	0.679
15.0548	0.679
15.0958	0.679
15.1369	0.679
15.178	0.679
15.2191	0.679
15.2601	0.675
15.3012	0.674
15.3423	0.674
15.3834	0.674
15.4244	0.672
15.4655	0.668
15.5066	0.667
15.5477	0.667
15.5887	0.665
15.6298	0.663
15.6709	0.66
15.712	0.658
15.753	0.658
15.7941	0.658
15.8352	0.656
15.8763	0.656
15.9173	0.653
15.9584	0.651
