Infrared Spectrum: SUCCINIMIDE, N-n-AMYL-
Formula: C9 H15 N O2
CAS: 5332-35-4
State: SOLUTION (10% CCl4 FOR 3800-1335, 10% CS2 FOR 1335-450 CM^-^1) VS SOLVENT
Class: COBLENTZ II
Instrument: DOW KBr FOREPRISM-GRATING
Instrument parameters: BLAZED AT 3.5, 12.0, 20.0 MICRON AND CHANGED AT 5.0, 7.5, 14.9 MICRON
Sampling: TRANSMISSION
Path length: 0.010 CM, 0.011 CM
Resolution: 2
Origin: DOW CHEMICAL COMPANY
1/CM	TRANSMITTANCE
446	0.962
455	0.966
464	0.9744
473	0.9797
482	0.995
491	1.008
500	1.0232
509	1.0303
518	1.0292
527	1.0343
536	1.0313
545	1.0242
554	0.9997
563	0.9399
572	0.8814
581	0.9411
590	0.9766
599	0.9584
608	0.8991
617	0.7964
626	0.8171
635	0.8611
644	0.7056
653	0.3808
662	0.3238
671	0.4554
680	0.6517
689	0.7183
698	0.6751
707	0.7748
716	0.7895
725	0.7553
734	0.7269
743	0.8528
752	0.8837
761	0.8948
770	0.9046
779	0.9324
788	0.9264
797	0.9052
806	0.8509
815	0.6122
824	0.5384
833	0.768
842	0.7438
851	0.7817
860	0.7847
869	0.8277
878	0.8488
887	0.9184
896	0.9432
905	0.9668
914	0.9566
923	0.9132
932	0.9723
941	0.951
950	0.8418
959	0.8898
968	0.9335
977	0.9639
986	0.9486
995	0.8118
1004	0.8015
1013	0.9327
1022	0.9416
1031	0.9238
1040	0.9504
1049	0.9618
1058	0.9212
1067	0.8646
1076	0.8745
1085	0.8923
1094	0.8909
1103	0.8112
1112	0.5712
1121	0.1206
1130	0.0082
1139	0.1027
1148	0.5862
1157	0.6915
1166	0.2617
1175	0.0922
1184	0.0684
1193	0.3077
1202	0.7905
1211	0.8249
1220	0.6868
1229	0.6876
1238	0.5193
1247	0.2561
1256	0.3755
1265	0.5381
1274	0.7236
1283	0.6297
1292	0.3918
1301	0.4797
1310	0.5536
1319	0.5138
1328	0.3273
1337	0.2051
1346	0.0962
1355	0.1366
1364	0.1105
1373	0.0775
1382	0.1679
1391	0.1702
1400	0
1409	0.0102
1418	0.44
1427	0.5618
1436	0.1161
1445	0.2488
1454	0.4554
1463	0.4247
1472	0.6065
1481	0.7958
1490	0.8047
1499	0.7791
1508	0.7441
1517	0.7075
1526	0.6644
1535	0.6118
1544	0.5242
1553	0.4992
1562	0.5585
1571	0.6246
1580	0.6489
1589	0.6841
1598	0.7561
1607	0.8001
1616	0.828
1625	0.8188
1634	0.7967
1643	0.7717
1652	0.7299
1661	0.6551
1670	0.49
1679	0.2254
1688	0.0826
1697	0.01
1706	0
1715	0
1724	0.0002
1733	0.0783
1742	0.22
1751	0.3474
1760	0.4151
1769	0.4841
1778	0.2242
1787	0.5632
1796	0.7276
1805	0.7871
1814	0.8403
1823	0.8521
1832	0.8924
1841	0.9139
1850	0.9164
1859	0.9132
1868	0.9148
1877	0.9217
1886	0.9303
1895	0.9302
1904	0.9213
1913	0.9193
1922	0.9259
1931	0.9389
1940	0.9486
1949	0.9492
1958	0.9611
1967	0.9453
1976	0.9424
1985	0.9375
1994	0.9944
2003	0.9893
2012	0.9884
2021	0.9895
2030	0.9933
2039	0.9951
2048	0.9916
2057	0.988
2066	0.9862
2075	0.9868
2084	0.9892
2093	0.9925
2102	0.9967
2111	0.9996
2120	0.9997
2129	0.9992
2138	0.9988
2147	0.9986
2156	0.9987
2165	0.9985
2174	0.9982
2183	0.9978
2192	0.9977
2201	0.9981
2210	0.9993
2219	1.0001
2228	0.998
2237	0.995
2246	0.99
2255	0.9833
2264	0.9798
2273	0.9778
2282	0.9751
2291	0.9721
2300	0.9745
2309	0.978
2318	0.9801
2327	0.9812
2336	0.9828
2345	0.9868
2354	0.9933
2363	0.9982
2372	0.9973
2381	0.9936
2390	0.9884
2399	0.9844
2408	0.9818
2417	0.9809
2426	0.986
2435	0.9901
2444	0.9903
2453	0.9936
2462	0.9964
2471	0.9957
2480	0.9938
2489	0.9907
2498	0.9877
2507	0.985
2516	0.9821
2525	0.9812
2534	0.9821
2543	0.9875
2552	0.9865
2561	0.9821
2570	0.9761
2579	0.9709
2588	0.9758
2597	0.9833
2606	0.9877
2615	0.9866
2624	0.9845
2633	0.9821
2642	0.9796
2651	0.9765
2660	0.9737
2669	0.9717
2678	0.9704
2687	0.9701
2696	0.9709
2705	0.9692
2714	0.9633
2723	0.9557
2732	0.9462
2741	0.956
2750	0.9621
2759	0.9631
2768	0.9624
2777	0.9593
2786	0.953
2795	0.9425
2804	0.9292
2813	0.912
2822	0.8903
2831	0.8611
2840	0.8183
2849	0.7265
2858	0.4509
2867	0.3071
2876	0.2805
2885	0.6003
2894	0.6029
2903	0.4809
2912	0.357
2921	0.2331
2930	0.0957
2939	0.0654
2948	0.0816
2957	0.0806
2966	0.0541
2975	0.2195
2984	0.4738
2993	0.7511
3002	0.8553
3011	0.8895
3020	0.9071
3029	0.9221
3038	0.9347
3047	0.9409
3056	0.9443
3065	0.9477
3074	0.9523
3083	0.9551
3092	0.9583
3101	0.961
3110	0.9636
3119	0.966
3128	0.9686
3137	0.9712
3146	0.9737
3155	0.9762
3164	0.9783
3173	0.9796
3182	0.9809
3191	0.9818
3200	0.9828
3209	0.9834
3218	0.9837
3227	0.9846
3236	0.9871
3245	0.9902
3254	0.9931
3263	0.9936
3272	0.9939
3281	0.9937
3290	0.9935
3299	0.9931
3308	0.9927
3317	0.9921
3326	0.9918
3335	0.992
3344	0.9923
3353	0.9916
3362	0.9904
3371	0.9891
3380	0.9874
3389	0.9851
3398	0.983
3407	0.9809
3416	0.9789
3425	0.9761
3434	0.9711
3443	0.9539
3452	0.9209
3461	0.8621
3470	0.8407
3479	0.8842
3488	0.9411
3497	0.96
3506	0.9653
3515	0.9659
3524	0.966
3533	0.9695
3542	0.9717
3551	0.9737
3560	0.9758
3569	0.9758
3578	0.969
3587	0.9825
3596	0.9787
3605	0.962
3614	0.9793
3623	0.9806
3632	0.9807
3641	0.9842
3650	0.9837
3659	0.9794
3668	0.9761
3677	0.9698
3686	0.9699
3695	0.9765
3704	0.9825
3713	0.987
3722	0.9882
3731	0.9882
3740	0.9878
3749	0.9875
3758	0.9871
3767	0.9868
3776	0.9871
3785	0.9883
3794	0.9902
