Infrared Spectrum: 6-BROMO QUINOLINE
Formula: C9 H6 Br N
CAS: 5332-25-2
State: LIQUID
Boiling point: 153-155 C AT 18 mmHg
Class: COBLENTZ
Instrument: Not specified, most likely a prism, grating, or hybrid spectrometer.
Sampling: TRANSMISSION
Path length: 0.003 CM
Resolution: 4
Origin: WYANDOTTE CHEMICALS CORP., WYANDOTTE, MICHIGAN, USA
MICROMETERS	TRANSMITTANCE
2.014	0.998
2.05397	0.991
2.09395	0.981
2.13392	0.978
2.17389	0.99
2.21387	0.975
2.25384	0.978
2.29381	0.98
2.33379	0.978
2.37376	0.971
2.41373	0.966
2.45371	0.96
2.49368	0.965
2.53365	0.968
2.57363	0.97
2.6136	0.975
2.65357	0.978
2.69355	0.966
2.73352	0.945
2.77349	0.93
2.81347	0.901
2.85344	0.87
2.89341	0.835
2.93339	0.813
2.97336	0.79
3.01333	0.798
3.05331	0.811
3.09328	0.816
3.13325	0.815
3.17323	0.813
3.2132	0.777
3.25317	0.638
3.29315	0.575
3.33312	0.725
3.37309	0.777
3.41307	0.821
3.45304	0.85
3.49301	0.873
3.53299	0.875
3.57296	0.89
3.61293	0.893
3.65291	0.898
3.69288	0.9
3.73285	0.893
3.77283	0.891
3.8128	0.9
3.85277	0.903
3.89275	0.903
3.93272	0.906
3.97269	0.903
4.01267	0.916
4.05264	0.911
4.09261	0.91
4.13259	0.911
4.17256	0.92
4.21253	0.92
4.25251	0.936
4.29248	0.95
4.33245	0.945
4.37243	0.935
4.4124	0.913
4.45237	0.916
4.49235	0.901
4.53232	0.921
4.57229	0.926
4.61227	0.925
4.65224	0.928
4.69221	0.925
4.73219	0.923
4.77216	0.913
4.81213	0.921
4.85211	0.916
4.89208	0.913
4.93205	0.911
4.97203	0.918
5.012	0.911
5.05197	0.908
5.09195	0.89
5.13192	0.876
5.17189	0.853
5.21187	0.838
5.25184	0.818
5.29181	0.836
5.33179	0.86
5.37176	0.895
5.41173	0.898
5.45171	0.893
5.49168	0.885
5.53165	0.875
5.57163	0.873
5.6116	0.843
5.65157	0.85
5.69155	0.821
5.73152	0.79
5.77149	0.83
5.81147	0.843
5.85144	0.85
5.89141	0.821
5.93139	0.813
5.97136	0.795
6.01133	0.752
6.05131	0.785
6.09128	0.792
6.13125	0.71
6.17123	0.623
6.2112	0.42
6.25117	0.096
6.29115	0.622
6.33112	0.427
6.37109	0.617
6.41107	0.753
6.45104	0.787
6.49101	0.785
6.53099	0.778
6.57096	0.772
6.61093	0.63
6.65091	0.334
6.69088	0.033
6.73085	0.346
6.77083	0.697
6.8108	0.737
6.85077	0.515
6.89075	0.665
6.93072	0.705
6.97069	0.74
7.01067	0.718
7.05064	0.77
7.09061	0.8
7.13059	0.79
7.17056	0.77
7.21053	0.74
7.25051	0.565
7.29048	0.59
7.33045	0.69
7.37042	0.502
7.4104	0.429
7.45037	0.582
7.49034	0.722
7.53032	0.595
7.57029	0.171
7.61026	0.567
7.65024	0.64
7.69021	0.667
7.73018	0.717
7.77016	0.788
7.81013	0.765
7.8501	0.733
7.89008	0.75
7.93005	0.74
7.97002	0.677
8.01	0.65
8.04997	0.565
8.08994	0.638
8.12992	0.594
8.16989	0.665
8.20986	0.742
8.24984	0.775
8.28981	0.79
8.32978	0.727
8.36976	0.532
8.40973	0.391
8.4497	0.271
8.48968	0.65
8.52965	0.78
8.56962	0.805
8.6096	0.818
8.64957	0.788
8.68954	0.71
8.72952	0.745
8.76949	0.808
8.80946	0.785
8.84944	0.68
8.88941	0.376
8.92938	0.465
8.96936	0.806
9.00933	0.835
9.0493	0.831
9.08928	0.83
9.12925	0.84
9.16922	0.84
9.2092	0.833
9.24917	0.826
9.28914	0.792
9.32912	0.703
9.36909	0.494
9.40906	0.158
9.44904	0.494
9.48901	0.792
9.52898	0.81
9.56896	0.81
9.60893	0.73
9.6489	0.547
9.68888	0.487
9.72885	0.688
9.76882	0.745
9.8088	0.795
9.84877	0.816
9.88874	0.82
9.92872	0.821
9.96869	0.825
10.0087	0.826
10.0486	0.811
10.0886	0.798
10.1286	0.76
10.1686	0.71
10.2085	0.688
10.2485	0.74
10.2885	0.777
10.3285	0.79
10.3684	0.777
10.4084	0.755
10.4484	0.74
10.4883	0.75
10.5283	0.752
10.5683	0.717
10.6083	0.565
10.6482	0.276
10.6882	0.364
10.7282	0.74
10.7682	0.816
10.8081	0.843
10.8481	0.85
10.8881	0.845
10.9281	0.84
10.968	0.825
11.008	0.815
11.048	0.805
11.0879	0.775
11.1279	0.742
11.1679	0.708
11.2079	0.667
11.2478	0.622
11.2878	0.565
11.3278	0.467
11.3678	0.319
11.4077	0.209
11.4477	0.178
11.4877	0.241
11.5277	0.359
11.5676	0.467
11.6076	0.547
11.6476	0.605
11.6875	0.584
11.7275	0.507
11.7675	0.332
11.8075	0.098
11.8474	0.039
11.8874	0.123
11.9274	0.173
11.9674	0.128
12.0073	0.061
12.0473	0.034
12.0873	0.038
12.1273	0.051
12.1672	0.163
12.2072	0.439
12.2472	0.587
12.2871	0.633
12.3271	0.648
12.3671	0.633
12.4071	0.613
12.447	0.584
12.487	0.524
12.527	0.45
12.567	0.341
12.6069	0.252
12.6469	0.193
12.6869	0.211
12.7268	0.367
12.7668	0.562
12.8068	0.677
12.8468	0.72
12.8867	0.74
12.9267	0.74
12.9667	0.712
13.0067	0.635
13.0466	0.554
13.0866	0.517
13.1266	0.537
13.1666	0.555
13.2065	0.612
13.2465	0.672
13.2865	0.725
13.3264	0.762
13.3664	0.785
13.4064	0.797
13.4464	0.803
13.4863	0.805
13.5263	0.806
13.5663	0.81
13.6063	0.815
13.6462	0.818
13.6862	0.825
13.7262	0.83
13.7662	0.831
13.8061	0.838
13.8461	0.836
13.8861	0.833
13.926	0.833
13.966	0.835
14.006	0.838
14.046	0.838
14.0859	0.836
14.1259	0.833
14.1659	0.831
14.2059	0.833
14.2458	0.83
14.2858	0.826
14.3258	0.821
14.3658	0.82
14.4057	0.815
14.4457	0.81
14.4857	0.801
14.5256	0.803
14.5656	0.803
14.6056	0.808
14.6456	0.801
14.6855	0.801
14.7255	0.798
14.7655	0.803
14.8055	0.801
14.8454	0.798
14.8854	0.803
14.9254	0.801
14.9654	0.79
15.0053	0.788
15.0453	0.778
15.0853	0.782
15.1252	0.8
15.1652	0.79
15.2052	0.79
15.2452	0.787
15.2851	0.777
15.3251	0.772
15.3651	0.777
15.4051	0.775
15.445	0.77
15.485	0.767
15.525	0.763
15.565	0.76
15.6049	0.763
15.6449	0.763
15.6849	0.762
15.7248	0.753
15.7648	0.752
15.8048	0.753
15.8448	0.74
15.8847	0.735
15.9247	0.728
15.9647	0.713
