Infrared Spectrum: Gamma-BROMOBUTYRONITRILE
Formula: C4 H6 Br N
CAS: 5332-06-9
State: LIQUID
Boiling point: 100-101 C AT 20 mmHg
Class: COBLENTZ
Instrument: Not specified, most likely a prism, grating, or hybrid spectrometer.
Sampling: TRANSMISSION
Path length: 0.005 CM
Resolution: 4
Origin: WYANDOTTE CHEMICALS CORP., WYANDOTTE, MICHIGAN, USA
MICROMETERS	TRANSMITTANCE
2.046	1.011
2.08574	1.011
2.12547	1.001
2.16521	0.908
2.20495	0.84
2.24469	0.908
2.28442	0.875
2.32416	0.925
2.3639	0.938
2.40364	0.955
2.44337	0.931
2.48311	0.938
2.52285	0.961
2.56259	0.973
2.60232	0.971
2.64206	0.978
2.6818	0.911
2.72153	0.751
2.76127	0.766
2.80101	0.72
2.84075	0.71
2.88048	0.81
2.92022	0.876
2.95996	0.913
2.9997	0.933
3.03943	0.926
3.07917	0.898
3.11891	0.858
3.15865	0.84
3.19838	0.826
3.23812	0.773
3.27786	0.665
3.31759	0.488
3.35733	0.075
3.39707	0.156
3.43681	0.465
3.47654	0.526
3.51628	0.546
3.55602	0.828
3.59576	0.878
3.63549	0.918
3.67523	0.928
3.71497	0.895
3.7547	0.928
3.79444	0.89
3.83418	0.9
3.87392	0.913
3.91365	0.926
3.95339	0.923
3.99313	0.935
4.03287	0.915
4.0726	0.938
4.11234	0.92
4.15208	0.888
4.19182	0.863
4.23155	0.898
4.27129	0.945
4.31103	0.935
4.35076	0.911
4.3905	0.813
4.43024	0.821
4.46998	0.658
4.50971	0.035
4.54945	0.538
4.58919	0.841
4.62893	0.836
4.66866	0.906
4.7084	0.953
4.74814	0.961
4.78788	0.96
4.82761	0.955
4.86735	0.953
4.90709	0.953
4.94682	0.961
4.98656	0.953
5.0263	0.945
5.06604	0.943
5.10577	0.945
5.14551	0.965
5.18525	0.97
5.22499	0.975
5.26472	0.958
5.30446	0.965
5.3442	0.96
5.38394	0.961
5.42367	0.96
5.46341	0.946
5.50315	0.92
5.54288	0.881
5.58262	0.785
5.62236	0.523
5.6621	0.433
5.70183	0.69
5.74157	0.575
5.78131	0.778
5.82105	0.876
5.86078	0.898
5.90052	0.911
5.94026	0.918
5.97999	0.91
6.01973	0.895
6.05947	0.83
6.09921	0.773
6.13894	0.788
6.17868	0.851
6.21842	0.883
6.25816	0.9
6.29789	0.895
6.33763	0.888
6.37737	0.878
6.41711	0.876
6.45684	0.873
6.49658	0.861
6.53632	0.826
6.57605	0.818
6.61579	0.803
6.65553	0.771
6.69527	0.696
6.735	0.656
6.77474	0.463
6.81448	0.241
6.85422	0.081
6.89395	0.03
6.93369	0.033
6.97343	0.031
7.01317	0.08
7.0529	0.313
7.09264	0.508
7.13238	0.58
7.17211	0.6
7.21185	0.58
7.25159	0.526
7.29133	0.398
7.33106	0.311
7.3708	0.358
7.41054	0.431
7.45028	0.465
7.49001	0.223
7.52975	0.32
7.56949	0.473
7.60923	0.348
7.64896	0.175
7.6887	0.215
7.72844	0.171
7.76817	0.075
7.80791	0.031
7.84765	0.056
7.88739	0.088
7.92712	0.03
7.96686	0.03
8.0066	0.053
8.04634	0.215
8.08607	0.375
8.12581	0.428
8.16555	0.336
8.20528	0.253
8.24502	0.316
8.28476	0.238
8.3245	0.275
8.36423	0.388
8.40397	0.455
8.44371	0.341
8.48345	0.286
8.52318	0.346
8.56292	0.443
8.60266	0.541
8.6424	0.593
8.68213	0.541
8.72187	0.43
8.76161	0.503
8.80134	0.648
8.84108	0.681
8.88082	0.673
8.92056	0.713
8.96029	0.741
9.00003	0.771
9.03977	0.785
9.07951	0.783
9.11924	0.763
9.15898	0.735
9.19872	0.705
9.23846	0.671
9.27819	0.635
9.31793	0.606
9.35767	0.595
9.3974	0.601
9.43714	0.641
9.47688	0.663
9.51662	0.67
9.55635	0.615
9.59609	0.521
9.63583	0.628
9.67557	0.716
9.7153	0.738
9.75504	0.735
9.79478	0.691
9.83452	0.661
9.87425	0.636
9.91399	0.681
9.95373	0.666
9.99346	0.565
10.0332	0.47
10.0729	0.49
10.1127	0.496
10.1524	0.38
10.1922	0.308
10.2319	0.343
10.2716	0.29
10.3114	0.165
10.3511	0.173
10.3908	0.298
10.4306	0.43
10.4703	0.56
10.51	0.626
10.5498	0.633
10.5895	0.626
10.6293	0.685
10.669	0.725
10.7087	0.72
10.7485	0.703
10.7882	0.72
10.8279	0.753
10.8677	0.771
10.9074	0.783
10.9472	0.793
10.9869	0.79
11.0266	0.785
11.0664	0.78
11.1061	0.763
11.1458	0.736
11.1856	0.691
11.2253	0.61
11.2651	0.44
11.3048	0.283
11.3445	0.243
11.3843	0.398
11.424	0.495
11.4637	0.548
11.5035	0.566
11.5432	0.576
11.583	0.565
11.6227	0.55
11.6624	0.513
11.7022	0.475
11.7419	0.43
11.7816	0.336
11.8214	0.196
11.8611	0.1
11.9009	0.153
11.9406	0.381
11.9803	0.496
12.0201	0.541
12.0598	0.538
12.0995	0.478
12.1393	0.426
12.179	0.451
12.2188	0.545
12.2585	0.613
12.2982	0.68
12.338	0.703
12.3777	0.715
12.4174	0.718
12.4572	0.711
12.4969	0.703
12.5367	0.696
12.5764	0.695
12.6161	0.69
12.6559	0.685
12.6956	0.676
12.7353	0.663
12.7751	0.636
12.8148	0.605
12.8546	0.545
12.8943	0.456
12.934	0.358
12.9738	0.291
13.0135	0.206
13.0532	0.138
13.093	0.09
13.1327	0.07
13.1725	0.061
13.2122	0.101
13.2519	0.156
13.2917	0.245
13.3314	0.313
13.3711	0.38
13.4109	0.428
13.4506	0.461
13.4903	0.483
13.5301	0.495
13.5698	0.506
13.6096	0.541
13.6493	0.596
13.689	0.646
13.7288	0.7
13.7685	0.726
13.8082	0.75
13.848	0.763
13.8877	0.785
13.9275	0.793
13.9672	0.801
14.0069	0.808
14.0467	0.815
14.0864	0.82
14.1261	0.818
14.1659	0.82
14.2056	0.823
14.2454	0.826
14.2851	0.828
14.3248	0.831
14.3646	0.833
14.4043	0.836
14.444	0.84
14.4838	0.833
14.5235	0.826
14.5633	0.823
14.603	0.823
14.6427	0.818
14.6825	0.808
14.7222	0.798
14.7619	0.791
14.8017	0.783
14.8414	0.765
14.8812	0.756
14.9209	0.746
14.9606	0.73
15.0004	0.71
15.0401	0.67
15.0798	0.626
15.1196	0.583
15.1593	0.553
15.1991	0.526
15.2388	0.513
15.2785	0.516
15.3183	0.52
15.358	0.533
15.3977	0.543
15.4375	0.551
15.4772	0.568
15.517	0.585
15.5567	0.595
15.5964	0.625
15.6362	0.65
15.6759	0.673
15.7156	0.693
15.7554	0.71
15.7951	0.728
15.8349	0.738
15.8746	0.748
15.9143	0.753
15.9541	0.761
15.9938	0.765
