Infrared Spectrum: 5-AMINO-4-CYANO-1-PHENYL PYRAZOLE
Formula: C10 H8 N4
CAS: 5334-43-0
State: SOLID (PELLET)
Melting point: 133-136 C
Class: COBLENTZ
Instrument: Not specified, most likely a prism, grating, or hybrid spectrometer.
Sampling: TRANSMISSION
Resolution: 4
Origin: TENNESSEE EASTMAN COMPANY, RESEARCH LABORATORIES
MICROMETERS	TRANSMITTANCE
2.053	0.825
2.09292	0.83
2.13284	0.831
2.17276	0.836
2.21267	0.838
2.25259	0.845
2.29251	0.848
2.33243	0.85
2.37235	0.85
2.41227	0.853
2.45219	0.853
2.4921	0.855
2.53202	0.856
2.57194	0.86
2.61186	0.86
2.65178	0.86
2.6917	0.861
2.73162	0.86
2.77153	0.831
2.81145	0.777
2.85137	0.73
2.89129	0.668
2.93121	0.464
2.97113	0.434
3.01105	0.4
3.05097	0.342
3.09088	0.599
3.1308	0.399
3.17072	0.59
3.21064	0.743
3.25056	0.783
3.29048	0.758
3.3304	0.861
3.37031	0.858
3.41023	0.858
3.45015	0.855
3.49007	0.873
3.52999	0.863
3.56991	0.878
3.60983	0.88
3.64974	0.878
3.68966	0.886
3.72958	0.898
3.7695	0.898
3.80942	0.898
3.84934	0.903
3.88926	0.905
3.92917	0.905
3.96909	0.908
4.00901	0.918
4.04893	0.918
4.08885	0.918
4.12877	0.918
4.16869	0.918
4.2086	0.921
4.24852	0.95
4.28844	0.94
4.32836	0.926
4.36828	0.9
4.4082	0.893
4.44812	0.848
4.48804	0.502
4.52795	0.485
4.56787	0.923
4.60779	0.873
4.64771	0.908
4.68763	0.911
4.72755	0.92
4.76747	0.923
4.80738	0.921
4.8473	0.921
4.88722	0.923
4.92714	0.923
4.96706	0.923
5.00698	0.925
5.0469	0.926
5.08681	0.915
5.12673	0.916
5.16665	0.918
5.20657	0.923
5.24649	0.918
5.28641	0.916
5.32633	0.916
5.36624	0.923
5.40616	0.928
5.44608	0.925
5.486	0.923
5.52592	0.92
5.56584	0.913
5.60576	0.921
5.64567	0.923
5.68559	0.886
5.72551	0.861
5.76543	0.871
5.80535	0.888
5.84527	0.881
5.88519	0.885
5.9251	0.861
5.96502	0.848
6.00494	0.808
6.04486	0.723
6.08478	0.319
6.1247	0.252
6.16462	0.544
6.20454	0.678
6.24445	0.5
6.28437	0.597
6.32429	0.743
6.36421	0.474
6.40413	0.262
6.44405	0.585
6.48397	0.124
6.52388	0.311
6.5638	0.637
6.60372	0.675
6.64364	0.459
6.68356	0.407
6.72348	0.801
6.7634	0.85
6.80331	0.85
6.84323	0.667
6.88315	0.785
6.92307	0.865
6.96299	0.758
7.00291	0.85
7.04283	0.88
7.08274	0.9
7.12266	0.905
7.16258	0.9
7.2025	0.891
7.24242	0.846
7.28234	0.792
7.32226	0.873
7.36217	0.893
7.40209	0.898
7.44201	0.903
7.48193	0.9
7.52185	0.885
7.56177	0.883
7.60169	0.866
7.6416	0.866
7.68152	0.888
7.72144	0.873
7.76136	0.84
7.80128	0.813
7.8412	0.856
7.88112	0.878
7.92104	0.891
7.96095	0.891
8.00087	0.89
8.04079	0.881
8.08071	0.878
8.12063	0.856
8.16055	0.797
8.20047	0.757
8.24038	0.8
8.2803	0.768
8.32022	0.702
8.36014	0.79
8.40006	0.855
8.43998	0.871
8.4799	0.876
8.51981	0.835
8.55973	0.873
8.59965	0.881
8.63957	0.876
8.67949	0.875
8.71941	0.881
8.75933	0.886
8.79924	0.885
8.83916	0.88
8.87908	0.878
8.919	0.875
8.95892	0.875
8.99884	0.878
9.03876	0.88
9.07867	0.883
9.11859	0.886
9.15851	0.886
9.19843	0.886
9.23835	0.875
9.27827	0.821
9.31819	0.82
9.35811	0.863
9.39802	0.871
9.43794	0.871
9.47786	0.845
9.51778	0.788
9.5577	0.833
9.59762	0.87
9.63754	0.876
9.67745	0.883
9.71737	0.883
9.75729	0.88
9.79721	0.873
9.83713	0.875
9.87705	0.881
9.91697	0.886
9.95688	0.881
9.9968	0.866
10.0367	0.886
10.0766	0.888
10.1166	0.885
10.1565	0.883
10.1964	0.883
10.2363	0.885
10.2762	0.88
10.3162	0.861
10.3561	0.85
10.396	0.836
10.4359	0.768
10.4758	0.605
10.5157	0.434
10.5557	0.405
10.5956	0.562
10.6355	0.708
10.6754	0.803
10.7153	0.85
10.7553	0.868
10.7952	0.868
10.8351	0.833
10.875	0.773
10.9149	0.775
10.9548	0.742
10.9948	0.845
11.0347	0.878
11.0746	0.885
11.1145	0.893
11.1544	0.893
11.1944	0.895
11.2343	0.89
11.2742	0.875
11.3141	0.833
11.354	0.765
11.394	0.728
11.4339	0.758
11.4738	0.83
11.5137	0.863
11.5536	0.89
11.5935	0.893
11.6335	0.9
11.6734	0.903
11.7133	0.905
11.7532	0.906
11.7931	0.908
11.8331	0.906
11.873	0.901
11.9129	0.856
11.9528	0.826
11.9927	0.878
12.0327	0.893
12.0726	0.898
12.1125	0.9
12.1524	0.901
12.1923	0.901
12.2322	0.901
12.2722	0.901
12.3121	0.901
12.352	0.901
12.3919	0.9
12.4318	0.9
12.4718	0.895
12.5117	0.893
12.5516	0.888
12.5915	0.888
12.6314	0.883
12.6713	0.88
12.7113	0.875
12.7512	0.865
12.7911	0.858
12.831	0.84
12.8709	0.821
12.9109	0.793
12.9508	0.725
12.9907	0.529
13.0306	0.294
13.0705	0.267
13.1105	0.465
13.1504	0.574
13.1903	0.605
13.2302	0.59
13.2701	0.545
13.31	0.557
13.35	0.65
13.3899	0.723
13.4298	0.772
13.4697	0.79
13.5096	0.8
13.5496	0.801
13.5895	0.801
13.6294	0.8
13.6693	0.79
13.7092	0.765
13.7492	0.718
13.7891	0.587
13.829	0.469
13.8689	0.48
13.9088	0.608
13.9487	0.687
13.9887	0.708
14.0286	0.72
14.0685	0.722
14.1084	0.718
14.1483	0.702
14.1883	0.67
14.2282	0.617
14.2681	0.537
14.308	0.474
14.3479	0.435
14.3878	0.419
14.4278	0.402
14.4677	0.397
14.5076	0.444
14.5475	0.544
14.5874	0.622
14.6274	0.66
14.6673	0.673
14.7072	0.68
14.7471	0.68
14.787	0.682
14.827	0.683
14.8669	0.682
14.9068	0.678
14.9467	0.667
14.9866	0.657
15.0265	0.655
15.0665	0.655
15.1064	0.655
15.1463	0.64
15.1862	0.633
15.2261	0.628
15.2661	0.623
15.306	0.622
15.3459	0.618
15.3858	0.61
15.4257	0.605
15.4657	0.602
15.5056	0.597
15.5455	0.589
15.5854	0.584
15.6253	0.572
15.6652	0.559
15.7052	0.537
15.7451	0.517
15.785	0.499
15.8249	0.497
15.8648	0.497
15.9048	0.497
15.9447	0.497
15.9846	0.497
