Infrared Spectrum: 2-Ethyl-2-phenylbutyronitrile
Formula: C12 H15 N
CAS: 5336-57-2
State: LIQUID (NEAT)
Class: COBLENTZ III
Instrument: DOW KBr FOREPRISM-GRATING
Instrument parameters: BLAZED AT 3.5, 12.0, 20.0 MICRON AND CHANGED AT 5.0, 7.5, 14.9 MICRON
Sampling: TRANSMISSION
Path length: CAPILLARY
Resolution: 2
Origin: DOW CHEMICAL COMPANY
1/CM	TRANSMITTANCE
3800	0.9666
3791	0.9664
3782	0.9662
3773	0.9657
3764	0.9644
3755	0.9635
3746	0.9628
3737	0.9631
3728	0.9638
3719	0.9641
3710	0.9641
3701	0.9605
3692	0.9547
3683	0.9521
3674	0.9501
3665	0.9487
3656	0.9475
3647	0.9453
3638	0.9437
3629	0.9471
3620	0.9453
3611	0.9463
3602	0.9477
3593	0.9491
3584	0.9501
3575	0.9498
3566	0.9487
3557	0.947
3548	0.9455
3539	0.9442
3530	0.9431
3521	0.9431
3512	0.9425
3503	0.9408
3494	0.9375
3485	0.9347
3476	0.9335
3467	0.9316
3458	0.9267
3449	0.9215
3440	0.9177
3431	0.9141
3422	0.9125
3413	0.9114
3404	0.9108
3395	0.9108
3386	0.9132
3377	0.9166
3368	0.9207
3359	0.9225
3350	0.9215
3341	0.922
3332	0.923
3323	0.9237
3314	0.9244
3305	0.9249
3296	0.925
3287	0.9251
3278	0.9258
3269	0.9264
3260	0.9267
3251	0.9267
3242	0.9265
3233	0.926
3224	0.9254
3215	0.9242
3206	0.9228
3197	0.9213
3188	0.9193
3179	0.9168
3170	0.9141
3161	0.9121
3152	0.9127
3143	0.9148
3134	0.9154
3125	0.9148
3116	0.9118
3107	0.8999
3098	0.8788
3089	0.8456
3080	0.8383
3071	0.842
3062	0.7371
3053	0.7771
3044	0.8171
3035	0.7882
3026	0.7798
3017	0.8318
3008	0.8418
2999	0.8045
2990	0.5703
2981	0.314
2972	0.199
2963	0.3989
2954	0.5684
2945	0.4144
2936	0.3604
2927	0.4612
2918	0.605
2909	0.683
2900	0.7195
2891	0.7026
2882	0.4751
2873	0.596
2864	0.71
2855	0.7625
2846	0.8465
2837	0.8655
2828	0.8802
2819	0.8951
2810	0.9074
2801	0.9148
2792	0.9189
2783	0.9207
2774	0.9228
2765	0.9251
2756	0.9275
2747	0.9274
2738	0.9232
2729	0.9248
2720	0.9294
2711	0.9327
2702	0.9342
2693	0.9349
2684	0.9339
2675	0.9332
2666	0.933
2657	0.9325
2648	0.9323
2639	0.9318
2630	0.9321
2621	0.9334
2612	0.9356
2603	0.9378
2594	0.9394
2585	0.9404
2576	0.9406
2567	0.9407
2558	0.9408
2549	0.9409
2540	0.941
2531	0.9407
2522	0.9405
2513	0.9408
2504	0.9413
2495	0.9416
2486	0.9417
2477	0.9418
2468	0.9421
2459	0.9425
2450	0.9432
2441	0.9432
2432	0.9428
2423	0.9425
2414	0.9413
2405	0.941
2396	0.9408
2387	0.9393
2378	0.9371
2369	0.9275
2360	0.9311
2351	0.9353
2342	0.9385
2333	0.9414
2324	0.9442
2315	0.9489
2306	0.9346
2297	0.9355
2288	0.9388
2279	0.9366
2270	0.9339
2261	0.9304
2252	0.9224
2243	0.7906
2234	0.8107
2225	0.8977
2216	0.9273
2207	0.9338
2198	0.9365
2189	0.9387
2180	0.9411
2171	0.9418
2162	0.9421
2153	0.9428
2144	0.9435
2135	0.9442
2126	0.9449
2117	0.9455
2108	0.9461
2099	0.9457
2090	0.9454
2081	0.9451
2072	0.9449
2063	0.9445
2054	0.9356
2045	0.9425
2036	0.9417
2027	0.9407
2018	0.9397
2009	0.9385
2000	0.9371
1991	0.9348
1982	0.9314
1973	0.9254
1964	0.9171
1955	0.909
1946	0.9153
1937	0.9296
1928	0.9363
1919	0.9392
1910	0.9387
1901	0.9354
1892	0.9292
1883	0.9234
1874	0.9167
1865	0.9225
1856	0.9345
1847	0.9374
1838	0.9353
1829	0.9309
1820	0.9246
1811	0.9162
1802	0.9092
1793	0.9211
1784	0.9262
1775	0.9223
1766	0.92
1757	0.9181
1748	0.9132
1739	0.9098
1730	0.9095
1721	0.909
1712	0.9088
1703	0.9087
1694	0.9045
1685	0.8762
1676	0.8666
1667	0.8774
1658	0.8662
1649	0.8368
1640	0.8628
1631	0.8752
1622	0.8501
1613	0.7797
1604	0.7196
1595	0.736
1586	0.8418
1577	0.8416
1568	0.882
1559	0.8894
1550	0.8868
1541	0.8771
1532	0.8644
1523	0.8465
1514	0.8236
1505	0.7875
1496	0.5416
1487	0.7301
1478	0.8097
1469	0.6465
1460	0.4038
1451	0.4138
1442	0.6302
1433	0.8428
1424	0.8835
1415	0.895
1406	0.9006
1397	0.8944
1388	0.7531
1379	0.7028
1370	0.8601
1361	0.8806
1352	0.8734
1343	0.8388
1334	0.8402
1325	0.7995
1316	0.8178
1307	0.8318
1298	0.8581
1289	0.8696
1280	0.8581
1271	0.858
1262	0.8728
1253	0.887
1244	0.8934
1235	0.8955
1226	0.8927
1217	0.8707
1208	0.8651
1199	0.8813
1190	0.8668
1181	0.8756
1172	0.8432
1163	0.8303
1154	0.8455
1145	0.8743
1136	0.8867
1127	0.9028
1118	0.8892
1109	0.8653
1100	0.8849
1091	0.888
1082	0.8288
1073	0.8611
1064	0.895
1055	0.9052
1046	0.8943
1037	0.8344
1028	0.7151
1019	0.8771
1010	0.9005
1001	0.8882
992	0.9132
983	0.9202
974	0.9208
965	0.9173
956	0.9207
947	0.9051
938	0.836
929	0.869
920	0.913
911	0.8923
902	0.8628
893	0.7851
884	0.9177
875	0.9363
866	0.944
857	0.951
848	0.9457
839	0.9386
830	0.9465
821	0.9385
812	0.9355
803	0.9318
794	0.8789
785	0.869
776	0.8671
767	0.3966
758	0.366
749	0.8301
740	0.9406
731	0.9594
722	0.9531
713	0.8147
704	0.238
695	0.6548
686	0.9108
677	0.9091
668	0.937
659	0.9868
650	0.987
641	0.9811
632	0.9799
623	0.9749
614	0.8575
605	0.9588
596	0.9418
587	0.9417
578	0.9371
569	0.9367
560	0.9234
551	0.92
542	0.9178
533	0.9042
524	0.7155
515	0.7632
506	0.884
497	0.9043
488	0.9096
479	0.9102
470	0.9031
461	0.8897
452	0.8892
443	0.8894
434	0.8789
425	0.8706
416	0.8681
407	0.8677
398	0.8668
389	0.8668
380	0.8691
