Infrared Spectrum: PHENOL, 2-METHYL,4,6-DINITRO-
Formula: C7 H6 N2 O5
CAS: 534-52-1
State: SOLUTION (1% IN CCl4 FOR 3800-1333, 1% IN CS2 FOR 1333-400 CM^-^1)
Class: COBLENTZ III
Instrument: DOW KBr FOREPRISM-GRATING
Instrument parameters: BLAZED AT 3.5, 12.0, 20.0 MICRON, CHANGED AT 5.0, 7.5, 14.9 MICRON
Sampling: TRANSMISSION
Path length: 0.054, 0.053 CM
Resolution: 4
Origin: DOW CHEMICAL COMPANY
1/CM	TRANSMITTANCE
425.946	0.504
434.46	0.579
442.973	0.64
451.487	0.674
460	0.676
468.514	0.684
477.027	0.71
485.541	0.778
494.054	0.803
502.568	0.816
511.081	0.823
519.595	0.828
528.108	0.826
536.622	0.819
545.135	0.821
553.649	0.822
562.162	0.837
570.676	0.841
579.189	0.84
587.703	0.835
596.216	0.828
604.73	0.816
613.243	0.801
621.757	0.769
630.271	0.6611
638.784	0.634
647.298	0.597
655.811	0.579
664.325	0.662
672.838	0.646
681.352	0.588
689.865	0.5021
698.379	0.3521
706.892	0.239
715.406	0.2508
723.919	0.5499
732.433	0.652
740.946	0.3181
749.46	0.726
757.973	0.766
766.487	0.744
775	0.6595
783.514	0.754
792.027	0.727
800.541	0.5041
809.054	0.735
817.568	0.702
826.081	0.778
834.595	0.726
843.109	0.563
851.622	0.329
860.136	0.316
868.649	0.3969
877.163	0.477
885.676	0.605
894.19	0.724
902.703	0.724
911.217	0.3381
919.73	0.754
928.244	0.56
936.757	0.809
945.271	0.76
953.784	0.7848
962.298	0.852
970.811	0.859
979.325	0.856
987.838	0.852
996.352	0.835
1004.87	0.772
1013.38	0.732
1021.89	0.834
1030.41	0.828
1038.92	0.7851
1047.43	0.809
1055.95	0.816
1064.46	0.779
1072.97	0.715
1081.49	0.613
1090	0.321
1098.51	0.423
1107.03	0.8
1115.54	0.835
1124.05	0.843
1132.57	0.84
1141.08	0.831
1149.6	0.832
1158.11	0.794
1166.62	0.5691
1175.14	0.646
1183.65	0.815
1192.16	0.832
1200.68	0.828
1209.19	0.81
1217.7	0.788
1226.22	0.67
1234.73	0.687
1243.24	0.566
1251.76	0.434
1260.27	0.286
1268.78	0.031
1277.3	0.239
1285.81	0.4799
1294.33	0.594
1302.84	0.569
1311.35	0.607
1319.87	0.526
1328.38	0.102
1336.89	0.127
1345.41	0.001
1353.92	0.137
1362.43	0.282
1370.95	0.3808
1379.46	0.6249
1387.97	0.4492
1396.49	0.695
1405	0.778
1413.51	0.744
1422.03	0.535
1430.54	0.288
1439.05	0.301
1447.57	0.437
1456.08	0.3281
1464.6	0.34
1473.11	0.235
1481.62	0.491
1490.14	0.511
1498.65	0.445
1507.16	0.323
1515.68	0.177
1524.19	0.13
1532.7	0.048
1541.22	0.026
1549.73	0.013
1558.24	0.002
1566.76	0.023
1575.27	0.087
1583.78	0.128
1592.3	0.181
1600.81	0.247
1609.33	0.122
1617.84	0.073
1626.35	0.2808
1634.87	0.7109
1643.38	0.822
1651.89	0.859
1660.41	0.918
1668.92	0.933
1677.43	0.937
1685.95	0.939
1694.46	0.931
1702.97	0.945
1711.49	0.957
1720	0.96
1728.51	0.957
1737.03	0.964
1745.54	0.968
1754.06	0.968
1762.57	0.97
1771.08	0.97
1779.6	0.967
1788.11	0.961
1796.62	0.948
1805.14	0.923
1813.65	0.884
1822.16	0.914
1830.68	0.937
1839.19	0.943
1847.7	0.937
1856.22	0.934
1864.73	0.942
1873.24	0.949
1881.76	0.955
1890.27	0.958
1898.79	0.96
1907.3	0.961
1915.81	0.965
1924.33	0.971
1932.84	0.97
1941.35	0.967
1949.87	0.967
1958.38	0.961
1966.89	0.957
1975.41	0.946
1983.92	0.945
1992.43	0.94
2000.95	0.9425
2009.46	0.949
2017.97	0.9523
2026.49	0.9579
2035	0.96
2043.51	0.96
2052.03	0.963
2060.54	0.964
2069.06	0.964
2077.57	0.9696
2086.08	0.9715
2094.6	0.973
2103.11	0.974
2111.62	0.9767
2120.14	0.979
2128.65	0.976
2137.16	0.974
2145.68	0.974
2154.19	0.974
2162.7	0.973
2171.22	0.968
2179.73	0.9675
2188.24	0.965
2196.76	0.965
2205.27	0.968
2213.79	0.97
2222.3	0.968
2230.81	0.9623
2239.33	0.9545
2247.84	0.9427
2256.35	0.9308
2264.87	0.9162
2273.38	0.8933
2281.89	0.8651
2290.41	0.8536
2298.92	0.8552
2307.43	0.8646
2315.95	0.8723
2324.46	0.8792
2332.97	0.884
2341.49	0.8836
2350	0.9121
2358.52	0.9185
2367.03	0.933
2375.54	0.9365
2384.06	0.9449
2392.57	0.949
2401.08	0.951
2409.6	0.9503
2418.11	0.9481
2426.62	0.948
2435.14	0.948
2443.65	0.949
2452.16	0.949
2460.68	0.949
2469.19	0.949
2477.7	0.949
2486.22	0.951
2494.73	0.951
2503.25	0.9498
2511.76	0.949
2520.27	0.949
2528.79	0.948
2537.3	0.9469
2545.81	0.945
2554.33	0.9425
2562.84	0.939
2571.35	0.937
2579.87	0.9342
2588.38	0.9306
2596.89	0.9336
2605.41	0.94
2613.92	0.9344
2622.43	0.931
2630.95	0.931
2639.46	0.931
2647.97	0.931
2656.49	0.931
2665	0.93
2673.52	0.9268
2682.03	0.924
2690.54	0.9239
2699.06	0.923
2707.57	0.923
2716.08	0.923
2724.6	0.92
2733.11	0.9205
2741.62	0.923
2750.14	0.923
2758.65	0.9212
2767.16	0.9188
2775.68	0.9111
2784.19	0.909
2792.7	0.911
2801.22	0.912
2809.73	0.912
2818.25	0.9117
2826.76	0.9095
2835.27	0.9058
2843.79	0.8976
2852.3	0.892
2860.81	0.8673
2869.33	0.8591
2877.84	0.8728
2886.35	0.8931
2894.87	0.893
2903.38	0.886
2911.89	0.8755
2920.41	0.8651
2928.92	0.8541
2937.43	0.8587
2945.95	0.8692
2954.46	0.8625
2962.98	0.8451
2971.49	0.8619
2980	0.8681
2988.52	0.86
2997.03	0.8691
3005.54	0.8907
3014.06	0.896
3022.57	0.893
3031.08	0.8895
3039.6	0.8847
3048.11	0.8806
3056.62	0.8714
3065.14	0.8516
3073.65	0.8307
3082.16	0.8148
3090.68	0.7878
3099.19	0.7661
3107.71	0.6365
3116.22	0.6246
3124.73	0.7172
3133.25	0.7155
3141.76	0.6945
3150.27	0.6763
3158.79	0.645
3167.3	0.6256
3175.81	0.63
3184.33	0.633
3192.84	0.6385
3201.35	0.6617
3209.87	0.6791
3218.38	0.7033
3226.89	0.7264
3235.41	0.7554
3243.92	0.7885
3252.43	0.8068
3260.95	0.8222
3269.46	0.8361
3277.98	0.852
3286.49	0.8639
3295	0.8749
3303.52	0.8847
3312.03	0.8929
3320.54	0.9
3329.06	0.9059
3337.57	0.911
3346.08	0.914
3354.6	0.9156
3363.11	0.9208
3371.62	0.923
3380.14	0.923
3388.65	0.926
3397.16	0.9277
3405.68	0.928
3414.19	0.93
3422.71	0.93
3431.22	0.93
3439.73	0.9311
3448.25	0.934
3456.76	0.933
3465.27	0.9275
3473.79	0.931
3482.3	0.9291
3490.81	0.93
3499.33	0.9322
3507.84	0.9327
3516.35	0.9317
3524.87	0.936
3533.38	0.9393
3541.89	0.9416
3550.41	0.9423
3558.92	0.946
3567.44	0.948
3575.95	0.946
3584.46	0.948
3592.98	0.9503
3601.49	0.951
3610	0.949
3618.52	0.951
3627.03	0.952
3635.54	0.952
3644.06	0.956
3652.57	0.957
3661.08	0.954
3669.6	0.954
3678.11	0.952
3686.62	0.951
3695.14	0.949
3703.65	0.948
3712.17	0.9496
3720.68	0.9512
3729.19	0.949
3737.71	0.951
3746.22	0.9512
3754.73	0.952
3763.25	0.952
3771.76	0.9514
3780.27	0.951
3788.79	0.949
3797.3	0.9508
