Infrared Spectrum: 1,1-DIMETHOXYETHANE
Formula: C4 H10 O2
CAS: 534-15-6
State: SOLUTION (10% IN CCl4 FOR 4000-1330 CM^-^1, 10% IN CS2 FOR 1330-600 CM^-^1)
Boiling point: 64.5 C
Class: COBLENTZ III
Instrument: BECKMAN IR-7 (GRATING)
Instrument parameters: GRATING CHANGES AT 3000, 2200, 1150 CM^-^1
Sampling: TRANSMISSION
Path length: 0.011 CM, 0.010 CM
Resolution: 4
Origin: WESTERN REGIONAL RES. USDA
1/CM	TRANSMITTANCE
592.327	0.793
600.914	0.786
609.502	0.779
618.089	0.769
626.677	0.718
635.264	0.738
643.851	0.742
652.439	0.736
661.026	0.771
669.614	0.759
678.201	0.784
686.788	0.793
695.376	0.794
703.963	0.793
712.551	0.8
721.138	0.805
729.725	0.807
738.313	0.807
746.9	0.807
755.487	0.807
764.075	0.805
772.662	0.801
781.25	0.79
789.837	0.77
798.424	0.675
807.012	0.475
815.599	0.679
824.187	0.59
832.774	0.515
841.361	0.561
849.949	0.403
858.536	0.227
867.124	0.021
875.711	0.159
884.298	0.346
892.886	0.624
901.473	0.704
910.061	0.74
918.648	0.756
927.235	0.761
935.823	0.764
944.41	0.761
952.998	0.757
961.585	0.744
970.172	0.684
978.76	0.561
987.347	0.1461
995.934	0.641
1004.52	0.667
1013.11	0.628
1021.7	0.48
1030.28	0.2071
1038.87	0.0941
1047.46	0.042
1056.05	0.178
1064.63	0.089
1073.22	0.106
1081.81	0.003
1090.4	0.034
1098.98	0.081
1107.57	0.059
1116.16	0.019
1124.75	0
1133.33	0
1141.92	0.007
1150.51	0.151
1159.09	0.3049
1167.68	0.411
1176.27	0.405
1184.86	0.2471
1193.44	0.158
1202.03	0.2
1210.62	0.244
1219.21	0.3289
1227.79	0.557
1236.38	0.634
1244.97	0.672
1253.56	0.693
1262.14	0.705
1270.73	0.715
1279.32	0.723
1287.91	0.729
1296.49	0.734
1305.08	0.725
1313.67	0.716
1322.26	0.686
1330.84	0.656
1339.43	0.536
1348.02	0.4429
1356.6	0.4211
1365.19	0.353
1373.78	0.357
1382.37	0.0511
1390.95	0.2378
1399.54	0.571
1408.13	0.638
1416.72	0.625
1425.3	0.532
1433.89	0.325
1442.48	0.298
1451.07	0.267
1459.65	0.282
1468.24	0.326
1476.83	0.545
1485.42	0.609
1494	0.618
1502.59	0.6
1511.18	0.581
1519.77	0.556
1528.35	0.516
1536.94	0.451
1545.53	0.418
1554.12	0.435
1562.7	0.502
1571.29	0.536
1579.88	0.554
1588.46	0.613
1597.05	0.664
1605.64	0.696
1614.23	0.719
1622.81	0.738
1631.4	0.755
1639.99	0.763
1648.58	0.767
1657.16	0.765
1665.75	0.759
1674.34	0.742
1682.93	0.762
1691.51	0.776
1700.1	0.782
1708.69	0.775
1717.28	0.769
1725.86	0.761
1734.45	0.759
1743.04	0.763
1751.63	0.77
1760.21	0.778
1768.8	0.783
1777.39	0.788
1785.97	0.787
1794.56	0.785
1803.15	0.788
1811.74	0.79
1820.32	0.79
1828.91	0.788
1837.5	0.783
1846.09	0.773
1854.67	0.765
1863.26	0.782
1871.85	0.788
1880.44	0.785
1889.02	0.776
1897.61	0.768
1906.2	0.761
1914.79	0.759
1923.37	0.763
1931.96	0.755
1940.55	0.745
1949.14	0.755
1957.72	0.763
1966.31	0.757
1974.9	0.746
1983.48	0.748
1992.07	0.737
2000.66	0.7432
2009.25	0.7465
2017.83	0.7497
2026.42	0.7539
2035.01	0.757
2043.6	0.7583
2052.18	0.7595
2060.77	0.76
2069.36	0.759
2077.95	0.758
2086.53	0.757
2095.12	0.757
2103.71	0.758
2112.3	0.759
2120.88	0.7602
2129.47	0.7625
2138.06	0.7667
2146.65	0.7708
2155.23	0.7731
2163.82	0.775
2172.41	0.7765
2180.99	0.7798
2189.58	0.783
2198.17	0.7852
2206.76	0.7884
2215.34	0.789
2223.93	0.788
2232.52	0.787
2241.11	0.7847
2249.69	0.784
2258.28	0.7823
2266.87	0.7811
2275.46	0.78
2284.04	0.778
2292.63	0.778
2301.22	0.778
2309.81	0.778
2318.39	0.779
2326.98	0.78
2335.57	0.7816
2344.16	0.7828
2352.74	0.786
2361.33	0.7873
2369.92	0.7895
2378.5	0.7907
2387.09	0.792
2395.68	0.794
2404.27	0.796
2412.85	0.798
2421.44	0.799
2430.03	0.8
2438.62	0.801
2447.2	0.8006
2455.79	0.8
2464.38	0.799
2472.97	0.798
2481.55	0.798
2490.14	0.798
2498.73	0.797
2507.32	0.796
2515.9	0.7959
2524.49	0.794
2533.08	0.7934
2541.67	0.7902
2550.25	0.787
2558.84	0.7836
2567.43	0.7757
2576.01	0.769
2584.6	0.769
2593.19	0.7701
2601.78	0.7723
2610.36	0.773
2618.95	0.773
2627.54	0.7681
2636.13	0.7256
2644.71	0.6897
2653.3	0.6739
2661.89	0.6726
2670.48	0.7071
2679.06	0.7318
2687.65	0.7524
2696.24	0.748
2704.83	0.7315
2713.41	0.7292
2722	0.7385
2730.59	0.75
2739.18	0.7431
2747.76	0.7103
2756.35	0.691
2764.94	0.6935
2773.52	0.701
2782.11	0.6994
2790.7	0.6636
2799.29	0.5884
2807.87	0.3249
2816.46	0.0972
2825.05	0.1246
2833.64	0.218
2842.22	0.3767
2850.81	0.4295
2859.4	0.3995
2867.99	0.3108
2876.57	0.1969
2885.16	0.0766
2893.75	0.0855
2902.34	0.1024
2910.92	0.109
2919.51	0.0822
2928.1	0.0703
2936.69	0.0807
2945.27	0.1072
2953.86	0.1581
2962.45	0.1993
2971.03	0.0847
2979.62	0.0602
2988.21	0.142
2996.8	0.3286
3005.38	0.4814
3013.97	0.541
3022.56	0.598
3031.15	0.643
3039.73	0.6585
3048.32	0.6815
3056.91	0.696
3065.5	0.7065
3074.08	0.7194
3082.67	0.7313
3091.26	0.7351
3099.85	0.7415
3108.43	0.7509
3117.02	0.7573
3125.61	0.7618
3134.2	0.765
3142.78	0.767
3151.37	0.769
3159.96	0.77
3168.54	0.772
3177.13	0.7737
3185.72	0.7759
3194.31	0.7781
3202.89	0.781
3211.48	0.7825
3220.07	0.784
3228.66	0.787
3237.24	0.788
3245.83	0.7894
3254.42	0.79
3263.01	0.7908
3271.59	0.792
3280.18	0.792
3288.77	0.792
3297.36	0.792
3305.94	0.792
3314.53	0.791
3323.12	0.7907
3331.71	0.79
3340.29	0.79
3348.88	0.789
3357.47	0.788
3366.05	0.788
3374.64	0.787
3383.23	0.786
3391.82	0.784
3400.4	0.786
3408.99	0.786
3417.58	0.786
3426.17	0.7841
3434.75	0.7839
3443.34	0.782
3451.93	0.781
3460.52	0.78
3469.1	0.777
3477.69	0.7716
3486.28	0.7676
3494.87	0.7634
3503.45	0.7601
3512.04	0.7589
3520.63	0.7567
3529.22	0.7555
3537.8	0.759
3546.39	0.7629
3554.98	0.7683
3563.56	0.7737
3572.15	0.7776
3580.74	0.78
3589.33	0.78
3597.91	0.7824
3606.5	0.786
3615.09	0.788
3623.68	0.7889
3632.26	0.79
3640.85	0.7913
3649.44	0.793
3658.03	0.794
3666.61	0.794
3675.2	0.7889
3683.79	0.7835
3692.38	0.7734
3700.96	0.7789
3709.55	0.788
3718.14	0.79
3726.73	0.792
3735.31	0.7937
3743.9	0.794
3752.49	0.796
3761.08	0.796
3769.66	0.796
3778.25	0.7953
3786.84	0.795
3795.42	0.7948
3804.01	0.794
3812.6	0.794
3821.19	0.794
3829.77	0.794
3838.36	0.795
3846.95	0.796
3855.54	0.796
3864.12	0.7923
3872.71	0.7899
3881.3	0.787
3889.89	0.788
3898.47	0.788
3907.06	0.788
3915.65	0.787
3924.24	0.786
3932.82	0.784
3941.41	0.7822
3950	0.779
3958.59	0.775
3967.17	0.7725
3975.76	0.7703
3984.35	0.769
3992.93	0.767
4001.52	0.7667
4010.11	0.766
