Infrared Spectrum: Cellobiose, octaacetate Alpha,D-
Formula: C28 H38 O19
CAS: 5346-90-7
State: SOLID (SPLIT MULL), FLUOROLUBE FOR 3800-1330 CM^-^1, NUJOL FOR 1330-400 CM^-^1
Class: COBLENTZ II
Instrument: DOW KBr FOREPRISM-GRATING
Instrument parameters: BLAZED AT 3.5, 12.0, 20.0 MICRON AND CHANGED AT 5.0, 7.5, 14.9 MICRON
Sampling: TRANSMISSION
Resolution: 2
Origin: DOW CHEMICAL COMPANY
1/CM	TRANSMITTANCE
3810	0.8447
3801	0.845
3792	0.8454
3783	0.8458
3774	0.8458
3765	0.8456
3756	0.8458
3747	0.8458
3738	0.8455
3729	0.8452
3720	0.845
3711	0.8444
3702	0.844
3693	0.8434
3684	0.8436
3675	0.844
3666	0.8445
3657	0.8445
3648	0.8444
3639	0.8442
3630	0.844
3621	0.8437
3612	0.8433
3603	0.8427
3594	0.8408
3585	0.8318
3576	0.8323
3567	0.8336
3558	0.8343
3549	0.8349
3540	0.8347
3531	0.8341
3522	0.8334
3513	0.8325
3504	0.8311
3495	0.8289
3486	0.826
3477	0.8241
3468	0.8236
3459	0.8255
3450	0.8287
3441	0.8316
3432	0.8337
3423	0.8352
3414	0.8368
3405	0.8383
3396	0.8392
3387	0.8401
3378	0.8409
3369	0.8417
3360	0.8424
3351	0.8431
3342	0.8438
3333	0.8444
3324	0.8451
3315	0.8457
3306	0.8461
3297	0.8466
3288	0.8473
3279	0.8483
3270	0.8489
3261	0.8491
3252	0.8494
3243	0.8496
3234	0.8498
3225	0.85
3216	0.8502
3207	0.8505
3198	0.8511
3189	0.8518
3180	0.8524
3171	0.8528
3162	0.8533
3153	0.8538
3144	0.854
3135	0.854
3126	0.8539
3117	0.8539
3108	0.8538
3099	0.8538
3090	0.8537
3081	0.8536
3072	0.8534
3063	0.8532
3054	0.853
3045	0.8511
3036	0.8432
3027	0.8378
3018	0.8353
3009	0.8341
3000	0.8324
2991	0.8324
2982	0.8353
2973	0.8301
2964	0.7867
2955	0.791
2946	0.8045
2937	0.8178
2928	0.8278
2919	0.8344
2910	0.839
2901	0.8415
2892	0.8421
2883	0.8363
2874	0.8217
2865	0.8349
2856	0.8432
2847	0.8481
2838	0.8492
2829	0.85
2820	0.8507
2811	0.8513
2802	0.8511
2793	0.8507
2784	0.8504
2775	0.8503
2766	0.8509
2757	0.8513
2748	0.8518
2739	0.8518
2730	0.8517
2721	0.8517
2712	0.8515
2703	0.8507
2694	0.85
2685	0.8492
2676	0.8487
2667	0.8481
2658	0.848
2649	0.848
2640	0.848
2631	0.8481
2622	0.8482
2613	0.8481
2604	0.8481
2595	0.848
2586	0.8478
2577	0.8477
2568	0.8475
2559	0.8475
2550	0.8475
2541	0.8477
2532	0.8482
2523	0.8485
2514	0.8487
2505	0.8486
2496	0.8471
2487	0.8448
2478	0.8428
2469	0.8423
2460	0.8418
2451	0.841
2442	0.8399
2433	0.8377
2424	0.8364
2415	0.8356
2406	0.8358
2397	0.8358
2388	0.8367
2379	0.8378
2370	0.8398
2361	0.8413
2352	0.8425
2343	0.8432
2334	0.8437
2325	0.8431
2316	0.8413
2307	0.8375
2298	0.8338
2289	0.8315
2280	0.8299
2271	0.8283
2262	0.827
2253	0.8282
2244	0.8295
2235	0.8314
2226	0.8339
2217	0.8359
2208	0.8377
2199	0.8382
2190	0.8387
2181	0.8391
2172	0.8392
2163	0.8387
2154	0.8378
2145	0.8364
2136	0.8352
2127	0.8342
2118	0.8342
2109	0.8363
2100	0.8389
2091	0.8416
2082	0.8436
2073	0.8456
2064	0.8475
2055	0.8485
2046	0.8495
2037	0.8503
2028	0.851
2019	0.8518
2010	0.8528
2001	0.854
1992	0.853
1983	0.8518
1974	0.8551
1965	0.8568
1956	0.855
1947	0.8539
1938	0.8557
1929	0.8564
1920	0.857
1911	0.8563
1902	0.859
1893	0.8593
1884	0.8578
1875	0.8563
1866	0.855
1857	0.8535
1848	0.852
1839	0.8485
1830	0.8441
1821	0.8378
1812	0.8314
1803	0.8178
1794	0.8115
1785	0.8006
1776	0.7695
1767	0.7085
1758	0.6102
1749	0.1587
1740	0.1842
1731	0.2107
1722	0.4845
1713	0.6671
1704	0.7196
1695	0.7508
1686	0.7794
1677	0.8012
1668	0.8086
1659	0.8111
1650	0.8128
1641	0.8139
1632	0.8184
1623	0.8275
1614	0.8352
1605	0.8392
1596	0.8423
1587	0.846
1578	0.848
1569	0.8471
1560	0.8449
1551	0.8425
1542	0.8402
1533	0.8392
1524	0.8383
1515	0.8371
1506	0.8364
1497	0.8359
1488	0.8349
1479	0.8323
1470	0.8267
1461	0.8143
1452	0.7528
1443	0.7511
1434	0.7085
1425	0.7131
1416	0.7465
1407	0.7526
1398	0.7517
1389	0.7055
1380	0.546
1371	0.4532
1362	0.5232
1353	0.6978
1344	0.7565
1335	0.7733
1326	0.7807
1317	0.6474
1308	0.6077
1299	0.6355
1290	0.5946
1281	0.5032
1272	0.3803
1263	0.247
1254	0.1267
1245	0.111
1236	0.0795
1227	0.0697
1218	0.0821
1209	0.1671
1200	0.362
1191	0.5395
1182	0.5955
1173	0.5264
1164	0.3792
1155	0.4645
1146	0.4028
1137	0.3178
1128	0.486
1119	0.5772
1110	0.5676
1101	0.4418
1092	0.5854
1083	0.5912
1074	0.4125
1065	0.23
1056	0.1669
1047	0.1592
1038	0.1521
1029	0.1495
1020	0.2979
1011	0.3807
1002	0.5786
993	0.5721
984	0.617
975	0.6608
966	0.7345
957	0.7251
948	0.5423
939	0.6483
930	0.744
921	0.6599
912	0.6312
903	0.5195
894	0.7343
885	0.7435
876	0.7911
867	0.8043
858	0.79
849	0.7839
840	0.7939
831	0.8225
822	0.8351
813	0.8411
804	0.8452
795	0.8486
786	0.8501
777	0.8444
768	0.8301
759	0.8125
750	0.7771
741	0.8108
732	0.8147
723	0.7972
714	0.8161
705	0.7705
696	0.7753
687	0.8068
678	0.7851
669	0.7883
660	0.7974
651	0.8143
642	0.8214
633	0.7892
624	0.8217
615	0.7738
606	0.6517
597	0.6775
588	0.6856
579	0.7908
570	0.8153
561	0.8266
552	0.7981
543	0.6344
534	0.8169
525	0.8347
516	0.8259
507	0.836
498	0.8347
489	0.7495
480	0.6791
471	0.7661
462	0.7832
453	0.7036
444	0.6711
435	0.6805
426	0.6928
417	0.6962
408	0.6935
399	0.6918
