Infrared Spectrum: 1-METHYL-3-ISOPROPYL BENZENE
Formula: C10 H14
CAS: 535-77-3
State: LIQUID
Class: COBLENTZ
Instrument: PERKIN-ELMER
Sampling: TRANSMISSION
Path length: 0.0024 CM
Resolution: 4
Origin: STANDARD OIL OF OHIO
1/CM	TRANSMITTANCE
618.243	0.538
626.675	0.543
635.106	0.5519
643.538	0.5669
651.97	0.6057
660.402	0.6189
668.833	0.634
677.265	0.671
685.697	0.6761
694.128	0.6232
702.56	0.111
710.992	0.1446
719.424	0.6562
727.855	0.7594
736.287	0.8005
744.719	0.8157
753.15	0.819
761.582	0.8084
770.014	0.7643
778.446	0.4636
786.877	0.0314
795.309	0.4065
803.741	0.7469
812.172	0.8264
820.604	0.8496
829.036	0.8608
837.467	0.8564
845.899	0.8107
854.331	0.7965
862.763	0.8332
871.194	0.8386
879.626	0.6772
888.058	0.5996
896.489	0.7513
904.921	0.7358
913.353	0.7556
921.785	0.5961
930.216	0.7239
938.648	0.8357
947.08	0.8553
955.511	0.848
963.943	0.8404
972.375	0.8223
980.807	0.833
989.238	0.8186
997.67	0.8018
1006.1	0.812
1014.53	0.826
1022.97	0.813
1031.4	0.7694
1039.83	0.6865
1048.26	0.608
1056.69	0.4979
1065.12	0.7569
1073.56	0.7539
1081.99	0.6732
1090.42	0.5944
1098.85	0.732
1107.28	0.723
1115.71	0.7774
1124.15	0.837
1132.58	0.8346
1141.01	0.8299
1149.44	0.838
1157.87	0.8318
1166.3	0.7464
1174.74	0.6632
1183.17	0.6901
1191.6	0.837
1200.03	0.865
1208.46	0.867
1216.89	0.8592
1225.33	0.855
1233.76	0.8522
1242.19	0.8385
1250.62	0.8528
1259.05	0.856
1267.48	0.8393
1275.92	0.7523
1284.35	0.6959
1292.78	0.801
1301.21	0.7767
1309.64	0.698
1318.08	0.767
1326.51	0.735
1334.94	0.6171
1343.37	0.6989
1351.8	0.7353
1360.23	0.5461
1368.67	0.5559
1377.1	0.459
1385.53	0.4976
1393.96	0.6861
1402.39	0.6785
1410.82	0.6368
1419.26	0.6054
1427.69	0.5326
1436.12	0.4979
1444.55	0.422
1452.98	0.2815
1461.41	0.2031
1469.85	0.1641
1478.28	0.3996
1486.71	0.4171
1495.14	0.2113
1503.57	0.5338
1512	0.7055
1520.44	0.7186
1528.87	0.7491
1537.3	0.7822
1545.73	0.808
1554.16	0.8039
1562.59	0.797
1571.03	0.7919
1579.46	0.7786
1587.89	0.6993
1596.32	0.442
1604.75	0.5692
1613.18	0.2274
1621.62	0.539
1630.05	0.823
1638.48	0.8748
1646.91	0.888
1655.34	0.893
1663.78	0.8921
1672.21	0.8801
1680.64	0.8487
1689.07	0.8591
1697.5	0.8998
1705.93	0.9088
1714.37	0.9149
1722.8	0.92
1731.23	0.92
1739.66	0.9123
1748.09	0.9003
1756.52	0.8683
1764.96	0.8787
1773.39	0.8713
1781.82	0.8383
1790.25	0.8795
1798.68	0.898
1807.11	0.9132
1815.55	0.924
1823.98	0.9204
1832.41	0.919
1840.84	0.9142
1849.27	0.8889
1857.7	0.875
1866.14	0.8506
1874.57	0.8728
1883	0.9171
1891.43	0.929
1899.86	0.9297
1908.29	0.9293
1916.73	0.9226
1925.16	0.9042
1933.59	0.8646
1942.02	0.8484
1950.45	0.8909
1958.89	0.9273
1967.32	0.937
1975.75	0.9383
1984.18	0.939
1992.61	0.939
2001.04	0.9351
2009.48	0.9432
2017.91	0.944
2026.34	0.944
2034.77	0.944
2043.2	0.946
2051.63	0.947
2060.07	0.947
2068.5	0.947
2076.93	0.944
2085.36	0.944
2093.79	0.944
2102.22	0.944
2110.66	0.949
2119.09	0.947
2127.52	0.946
2135.95	0.946
2144.38	0.947
2152.81	0.947
2161.25	0.947
2169.68	0.944
2178.11	0.946
2186.54	0.946
2194.97	0.9448
2203.4	0.941
2211.84	0.936
2220.27	0.936
2228.7	0.932
2237.13	0.9352
2245.56	0.939
2254	0.9378
2262.43	0.936
2270.86	0.936
2279.29	0.9328
2287.72	0.925
2296.15	0.929
2304.59	0.929
2313.02	0.929
2321.45	0.927
2329.88	0.927
2338.31	0.9228
2346.74	0.922
2355.18	0.922
2363.61	0.922
2372.04	0.9232
2380.47	0.922
2388.9	0.924
2397.33	0.924
2405.77	0.922
2414.2	0.922
2422.63	0.924
2431.06	0.925
2439.49	0.9282
2447.92	0.927
2456.36	0.9244
2464.79	0.92
2473.22	0.917
2481.65	0.917
2490.08	0.917
2498.51	0.9196
2506.95	0.925
2515.38	0.925
2523.81	0.9262
2532.24	0.927
2540.67	0.925
2549.1	0.924
2557.54	0.9178
2565.97	0.917
2574.4	0.9115
2582.83	0.905
2591.26	0.897
2599.7	0.897
2608.13	0.9
2616.56	0.9088
2624.99	0.9144
2633.42	0.914
2641.85	0.912
2650.29	0.912
2658.72	0.912
2667.15	0.912
2675.58	0.914
2684.01	0.9144
2692.44	0.914
2700.88	0.909
2709.31	0.9008
2717.74	0.8839
2726.17	0.8645
2734.6	0.8375
2743.03	0.8465
2751.47	0.873
2759.9	0.872
2768.33	0.875
2776.76	0.875
2785.19	0.87
2793.62	0.8604
2802.06	0.8399
2810.49	0.8103
2818.92	0.806
2827.35	0.7909
2835.78	0.7559
2844.21	0.7131
2852.65	0.6336
2861.08	0.4981
2869.51	0.3177
2877.94	0.1476
2886.37	0.1614
2894.81	0.1938
2903.24	0.188
2911.67	0.1787
2920.1	0.1598
2928.53	0.0993
2936.96	0.0682
2945.4	0.0859
2953.83	0.0928
2962.26	0.0349
2970.69	0.016
2979.12	0.0192
2987.55	0.112
2995.99	0.2964
3004.42	0.4178
3012.85	0.3715
3021.28	0.3036
3029.71	0.2534
3038.14	0.2527
3046.58	0.3416
3055.01	0.3919
3063.44	0.4051
3071.87	0.4975
3080.3	0.6446
3088.73	0.7049
3097.17	0.769
3105.6	0.7509
3114.03	0.7377
3122.46	0.8427
3130.89	0.8761
3139.32	0.8826
3147.76	0.883
3156.19	0.882
3164.62	0.882
3173.05	0.882
3181.48	0.882
3189.91	0.882
3198.35	0.8826
3206.78	0.885
3215.21	0.8876
3223.64	0.8926
3232.07	0.897
3240.51	0.902
3248.94	0.9032
3257.37	0.907
3265.8	0.907
3274.23	0.907
3282.66	0.91
3291.1	0.91
3299.53	0.9112
3307.96	0.912
3316.39	0.912
3324.82	0.9108
3333.25	0.91
3341.69	0.912
3350.12	0.912
3358.55	0.912
3366.98	0.912
3375.41	0.91
3383.84	0.91
3392.28	0.909
3400.71	0.907
3409.14	0.905
3417.57	0.904
3426	0.902
3434.43	0.902
3442.87	0.902
3451.3	0.902
3459.73	0.9
3468.16	0.9
3476.59	0.898
3485.02	0.898
3493.46	0.898
3501.89	0.898
3510.32	0.898
3518.75	0.898
3527.18	0.9
3535.62	0.9
3544.05	0.9
3552.48	0.9
3560.91	0.9
3569.34	0.9
3577.77	0.9
3586.21	0.9
3594.64	0.9012
3603.07	0.904
3611.5	0.904
3619.93	0.904
3628.36	0.902
3636.8	0.902
3645.23	0.9
3653.66	0.9
3662.09	0.8988
3670.52	0.898
3678.95	0.898
3687.39	0.898
3695.82	0.898
3704.25	0.8938
3712.68	0.892
3721.11	0.892
3729.54	0.89
3737.98	0.89
3746.41	0.89
3754.84	0.89
3763.27	0.89
3771.7	0.89
3780.13	0.888
3788.57	0.885
3797	0.885
3805.43	0.883
3813.86	0.883
3822.29	0.883
3830.73	0.883
3839.16	0.883
3847.59	0.883
3856.02	0.882
3864.45	0.882
3872.88	0.882
3881.32	0.88
3889.75	0.8808
3898.18	0.8812
3906.61	0.8808
3915.04	0.88
3923.47	0.882
3931.91	0.88
3940.34	0.878
