Infrared Spectrum: BENZENE, ETHYNYL-
Formula: C8 H6
CAS: 536-74-3
State: GAS (VAPOR PRESSURE OF LIQUID AT ROOM TEMPERATURE)
Class: COBLENTZ
Instrument: Not specified, most likely a prism, grating, or hybrid spectrometer.
Sampling: TRANSMISSION
Path length: 400 CM CELL
Resolution: 4
Origin: DOW CHEMICAL COMPANY
1/CM	TRANSMITTANCE
450.519	1.017
459.061	1.011
467.603	0.99
476.144	0.965
484.686	0.932
493.228	0.863
501.77	0.739
510.312	0.677
518.853	0.642
527.395	0.646
535.937	0.694
544.479	0.741
553.021	0.896
561.562	1.007
570.104	1.014
578.646	0.997
587.188	0.915
595.729	0.579
604.271	0.172
612.813	0
621.355	0
629.897	0.308
638.438	0.043
646.98	0
655.522	0.035
664.064	0.354
672.606	0.332
681.147	0.14
689.689	0.071
698.231	0.096
706.773	0.264
715.315	0.679
723.856	0.879
732.398	0.741
740.94	0.152
749.482	0.031
758.024	0
766.565	0.023
775.107	0.213
783.649	0.73
792.191	0.899
800.732	0.913
809.274	0.916
817.816	0.926
826.358	0.933
834.9	0.938
843.441	0.941
851.983	0.93
860.525	0.918
869.067	0.892
877.609	0.827
886.15	0.767
894.692	0.799
903.234	0.763
911.776	0.702
920.318	0.733
928.859	0.763
937.401	0.863
945.943	0.905
954.485	0.903
963.027	0.905
971.568	0.904
980.11	0.9
988.652	0.897
997.194	0.896
1005.74	0.883
1014.28	0.816
1022.82	0.567
1031.36	0.62
1039.9	0.779
1048.44	0.814
1056.99	0.743
1065.53	0.625
1074.07	0.63
1082.61	0.714
1091.15	0.784
1099.7	0.819
1108.24	0.832
1116.78	0.872
1125.32	0.889
1133.86	0.879
1142.4	0.867
1150.95	0.867
1159.49	0.855
1168.03	0.847
1176.57	0.851
1185.11	0.852
1193.65	0.857
1202.2	0.807
1210.74	0.5169
1219.28	0.059
1227.82	0.063
1236.36	0.345
1244.91	0.702
1253.45	0.741
1261.99	0.575
1270.53	0.609
1279.07	0.735
1287.61	0.756
1296.16	0.588
1304.7	0.569
1313.24	0.73
1321.78	0.819
1330.32	0.826
1338.87	0.778
1347.41	0.814
1355.95	0.807
1364.49	0.763
1373.03	0.77
1381.57	0.795
1390.12	0.794
1398.66	0.792
1407.2	0.807
1415.74	0.811
1424.28	0.775
1432.83	0.691
1441.37	0.517
1449.91	0.561
1458.45	0.662
1466.99	0.749
1475.53	0.717
1484.08	0.2739
1492.62	0.136
1501.16	0.1851
1509.7	0.671
1518.24	0.682
1526.78	0.743
1535.33	0.75
1543.87	0.762
1552.41	0.803
1560.95	0.763
1569.49	0.725
1578.04	0.709
1586.58	0.618
1595.12	0.551
1603.66	0.531
1612.2	0.666
1620.74	0.787
1629.29	0.804
1637.83	0.795
1646.37	0.76
1654.91	0.776
1663.45	0.707
1672	0.714
1680.54	0.76
1689.08	0.798
1697.62	0.77
1706.16	0.799
1714.7	0.772
1723.25	0.786
1731.79	0.725
1740.33	0.717
1748.87	0.71
1757.41	0.73
1765.96	0.771
1774.5	0.776
1783.04	0.774
1791.58	0.711
1800.12	0.678
1808.66	0.691
1817.21	0.775
1825.75	0.76
1834.29	0.783
1842.83	0.78
1851.37	0.804
1859.91	0.788
1868.46	0.729
1877	0.723
1885.54	0.673
1894.08	0.697
1902.62	0.723
1911.17	0.796
1919.71	0.8
1928.25	0.776
1936.79	0.717
1945.33	0.69
1953.87	0.661
1962.42	0.691
1970.96	0.721
1979.5	0.79
1988.04	0.808
1996.58	0.808
2005.13	0.837
2013.67	0.836
2022.21	0.836
2030.75	0.837
2039.29	0.835
2047.83	0.832
2056.38	0.83
2064.92	0.835
2073.46	0.828
2082	0.83
2090.54	0.8219
2099.08	0.8099
2107.63	0.7758
2116.17	0.6311
2124.71	0.5613
2133.25	0.6455
2141.79	0.8163
2150.34	0.8221
2158.88	0.823
2167.42	0.82
2175.96	0.815
2184.5	0.819
2193.04	0.8159
2201.59	0.814
2210.13	0.8159
2218.67	0.8119
2227.21	0.811
2235.75	0.811
2244.3	0.806
2252.84	0.804
2261.38	0.7989
2269.92	0.795
2278.46	0.8033
2287	0.8033
2295.55	0.8109
2304.09	0.8069
2312.63	0.7972
2321.17	0.7758
2329.71	0.7683
2338.26	0.774
2346.8	0.7719
2355.34	0.7902
2363.88	0.788
2372.42	0.7937
2380.96	0.794
2389.51	0.802
2398.05	0.804
2406.59	0.803
2415.13	0.803
2423.67	0.7999
2432.21	0.7988
2440.76	0.7963
2449.3	0.8003
2457.84	0.803
2466.38	0.802
2474.92	0.799
2483.47	0.795
2492.01	0.7942
2500.55	0.7948
2509.09	0.7918
2517.63	0.7912
2526.17	0.792
2534.72	0.795
2543.26	0.7918
2551.8	0.794
2560.34	0.7942
2568.88	0.7918
2577.43	0.784
2585.97	0.7832
2594.51	0.783
2603.05	0.7864
2611.59	0.7841
2620.13	0.7878
2628.68	0.782
2637.22	0.786
2645.76	0.7896
2654.3	0.7885
2662.84	0.7863
2671.39	0.7908
2679.93	0.783
2688.47	0.7822
2697.01	0.788
2705.55	0.787
2714.09	0.782
2722.64	0.7787
2731.18	0.7823
2739.72	0.784
2748.26	0.782
2756.8	0.78
2765.34	0.7782
2773.89	0.7707
2782.43	0.7667
2790.97	0.7634
2799.51	0.7633
2808.05	0.7769
2816.6	0.776
2825.14	0.7774
2833.68	0.776
2842.22	0.7677
2850.76	0.7667
2859.3	0.7621
2867.85	0.7557
2876.39	0.751
2884.93	0.747
2893.47	0.7503
2902.01	0.758
2910.56	0.7547
2919.1	0.7464
2927.64	0.7417
2936.18	0.739
2944.72	0.745
2953.26	0.7567
2961.81	0.7467
2970.35	0.741
2978.89	0.7423
2987.43	0.7543
2995.97	0.7573
3004.51	0.7443
3013.06	0.6862
3021.6	0.5666
3030.14	0.4498
3038.68	0.2627
3047.22	0.2885
3055.77	0.3342
3064.31	0.2174
3072.85	0.107
3081.39	0.0996
3089.93	0.1631
3098.47	0.1828
3107.02	0.2666
3115.56	0.4484
3124.1	0.6696
3132.64	0.733
3141.18	0.7408
3149.73	0.7278
3158.27	0.717
3166.81	0.7201
3175.35	0.7544
3183.89	0.7482
3192.43	0.746
3200.98	0.7479
3209.52	0.7523
3218.06	0.758
3226.6	0.7584
3235.14	0.7544
3243.69	0.752
3252.23	0.7481
3260.77	0.751
3269.31	0.7452
3277.85	0.7278
3286.39	0.7055
3294.94	0.592
3303.48	0.4121
3312.02	0.1157
3320.56	0.0378
3329.1	0.0175
3337.64	0.017
3346.19	0.019
3354.73	0.4247
3363.27	0.6652
3371.81	0.6994
3380.35	0.724
3388.9	0.736
3397.44	0.733
3405.98	0.7255
3414.52	0.7295
3423.06	0.742
3431.6	0.7415
3440.15	0.742
3448.69	0.738
3457.23	0.736
3465.77	0.731
3474.31	0.7305
3482.86	0.729
3491.4	0.7406
3499.94	0.7415
3508.48	0.7431
3517.02	0.747
3525.56	0.737
3534.11	0.7428
3542.65	0.7425
3551.19	0.7455
3559.73	0.7439
3568.27	0.7372
3576.82	0.746
3585.36	0.7414
3593.9	0.7416
3602.44	0.7341
3610.98	0.7254
3619.52	0.7396
3628.07	0.7258
3636.61	0.742
3645.15	0.7197
3653.69	0.7248
3662.23	0.734
3670.77	0.7122
3679.32	0.737
3687.86	0.7282
3696.4	0.7334
3704.94	0.7246
3713.48	0.7258
3722.03	0.7284
3730.57	0.707
3739.11	0.7192
3747.65	0.7234
3756.19	0.7294
3764.73	0.7296
3773.28	0.737
3781.82	0.739
3790.36	0.7264
3798.9	0.7306
