Infrared Spectrum: BENZYL ALCOHOL, Alpha-(1-AMINOETHYL)- HYDROCHLORIDE
Formula: C9 H14 Cl N O
CAS: 53631-70-2
State: SOLID (KCl DISC) VS KCl
Melting point: 190-194 C
Class: COBLENTZ III
Instrument: PERKIN-ELMER 21 (GRATING)
Instrument parameters: FILTER AT ABOUT 10 MICRONS
Sampling: TRANSMISSION
Resolution: 2
1/CM	TRANSMITTANCE
4000	0.6671
3991	0.6683
3982	0.6695
3973	0.6708
3964	0.6721
3955	0.6733
3946	0.6745
3937	0.6758
3928	0.6771
3919	0.6785
3910	0.6797
3901	0.681
3892	0.6822
3883	0.6835
3874	0.6848
3865	0.686
3856	0.6872
3847	0.6886
3838	0.6899
3829	0.6911
3820	0.6925
3811	0.6935
3802	0.6946
3793	0.6958
3784	0.6968
3775	0.6981
3766	0.6992
3757	0.7003
3748	0.7015
3739	0.7024
3730	0.7034
3721	0.7045
3712	0.7054
3703	0.7064
3694	0.7074
3685	0.708
3676	0.7085
3667	0.7091
3658	0.7095
3649	0.7099
3640	0.7103
3631	0.7106
3622	0.7105
3613	0.7105
3604	0.7103
3595	0.7096
3586	0.7089
3577	0.7081
3568	0.7068
3559	0.7049
3550	0.7021
3541	0.6986
3532	0.6951
3523	0.689
3514	0.6824
3505	0.6748
3496	0.6667
3487	0.6578
3478	0.6481
3469	0.6365
3460	0.6215
3451	0.6062
3442	0.5903
3433	0.5681
3424	0.5466
3415	0.5268
3406	0.5029
3397	0.4704
3388	0.4355
3379	0.4009
3370	0.3494
3361	0.297
3352	0.285
3343	0.2711
3334	0.2439
3325	0.218
3316	0.2121
3307	0.2142
3298	0.2195
3289	0.2579
3280	0.2882
3271	0.3185
3262	0.3492
3253	0.38
3244	0.4109
3235	0.4375
3226	0.4536
3217	0.4637
3208	0.4697
3199	0.4734
3190	0.4754
3181	0.4765
3172	0.4769
3163	0.4743
3154	0.453
3145	0.4157
3136	0.3806
3127	0.3452
3118	0.3096
3109	0.2732
3100	0.246
3091	0.2352
3082	0.2235
3073	0.1757
3064	0.1634
3055	0.1583
3046	0.1536
3037	0.1494
3028	0.1453
3019	0.1413
3010	0.1378
3001	0.1363
2992	0.1362
2983	0.1396
2974	0.1478
2965	0.1634
2956	0.1794
2947	0.1837
2938	0.1844
2929	0.1844
2920	0.1843
2911	0.1849
2902	0.1874
2893	0.205
2884	0.2312
2875	0.253
2866	0.2709
2857	0.291
2848	0.3122
2839	0.333
2830	0.3512
2821	0.3678
2812	0.3847
2803	0.4032
2794	0.421
2785	0.4366
2776	0.449
2767	0.4627
2758	0.4762
2749	0.4895
2740	0.5024
2731	0.5142
2722	0.5215
2713	0.525
2704	0.527
2695	0.5293
2686	0.5321
2677	0.5394
2668	0.5493
2659	0.5557
2650	0.561
2641	0.5632
2632	0.565
2623	0.569
2614	0.5752
2605	0.5794
2596	0.5822
2587	0.5844
2578	0.5849
2569	0.5859
2560	0.5924
2551	0.6147
2542	0.6308
2533	0.6359
2524	0.6383
2515	0.6424
2506	0.6468
2497	0.6457
2488	0.6344
2479	0.6305
2470	0.6308
2461	0.6364
2452	0.6447
2443	0.6558
2434	0.666
2425	0.6783
2416	0.6925
2407	0.7015
2398	0.711
2389	0.7175
2380	0.7219
2371	0.7228
2362	0.7221
2353	0.7215
2344	0.7221
2335	0.7237
2326	0.7258
2317	0.7315
2308	0.7395
2299	0.7498
2290	0.7568
2281	0.7624
2272	0.7649
2263	0.7662
2254	0.7675
2245	0.7689
2236	0.7706
2227	0.7721
2218	0.7739
2209	0.7757
2200	0.7774
2191	0.7788
2182	0.7808
2173	0.7828
2164	0.785
2155	0.7868
2146	0.7887
2137	0.7907
2128	0.7924
2119	0.7941
2110	0.7958
2101	0.7971
2092	0.7984
2083	0.7994
2074	0.8001
2065	0.8008
2056	0.8012
2047	0.8008
2038	0.7974
2029	0.7858
2020	0.7755
2011	0.7639
2002	0.7526
1993	0.7421
1984	0.7358
1975	0.7324
1966	0.7314
1957	0.7341
1948	0.7511
1939	0.7662
1930	0.7781
1921	0.7853
1912	0.7897
1903	0.7921
1894	0.7942
1885	0.7989
1876	0.8081
1867	0.8174
1858	0.8235
1849	0.8273
1840	0.8292
1831	0.8287
1822	0.8265
1813	0.8263
1804	0.8327
1795	0.8384
1786	0.8399
1777	0.8363
1768	0.8325
1759	0.831
1750	0.8304
1741	0.8314
1732	0.8325
1723	0.8332
1714	0.8337
1705	0.8314
1696	0.8266
1687	0.8249
1678	0.8223
1669	0.8128
1660	0.8082
1651	0.7975
1642	0.7711
1633	0.7365
1624	0.7271
1615	0.6418
1606	0.4412
1597	0.4875
1588	0.4672
1579	0.5087
1570	0.6273
1561	0.6951
1552	0.7287
1543	0.7475
1534	0.7691
1525	0.7726
1516	0.7344
1507	0.5805
1498	0.3284
1489	0.2981
1480	0.5007
1471	0.6494
1462	0.676
1453	0.4525
1444	0.6567
1435	0.7121
1426	0.7261
1417	0.6949
1408	0.626
1399	0.5873
1390	0.5684
1381	0.6707
1372	0.6408
1363	0.6783
1354	0.7639
1345	0.6262
1336	0.6457
1327	0.7175
1318	0.7865
1309	0.7861
1300	0.7728
1291	0.7238
1282	0.7321
1273	0.7049
1264	0.6112
1255	0.6835
1246	0.7448
1237	0.7646
1228	0.7371
1219	0.4387
1210	0.518
1201	0.6333
1192	0.7145
1183	0.7575
1174	0.7618
1165	0.7326
1156	0.7139
1147	0.6965
1138	0.7587
1129	0.7711
1120	0.7839
1111	0.7835
1102	0.7791
1093	0.5929
1084	0.744
1075	0.7185
1066	0.7301
1057	0.6948
1048	0.3848
1039	0.2681
1030	0.5585
1021	0.6893
1012	0.7424
1003	0.6103
994	0.7443
985	0.5862
976	0.6865
967	0.7768
958	0.8427
949	0.8575
940	0.8653
931	0.8708
922	0.8575
913	0.814
904	0.8611
895	0.8813
886	0.889
877	0.895
868	0.8975
859	0.897
850	0.844
841	0.8227
832	0.8708
823	0.8721
814	0.831
805	0.8783
796	0.8928
787	0.8986
778	0.9005
769	0.8968
760	0.863
751	0.6518
742	0.3105
733	0.7692
724	0.8571
715	0.8655
706	0.7049
697	0.2535
688	0.7638
679	0.8221
670	0.7468
