Infrared Spectrum: ANILINE, 3-TERT-BUTYL
Formula: C10 H15 N
CAS: 5369-19-7
State: LIQUID (NEAT)
Class: COBLENTZ
Instrument: BECKMAN IR-4 (HYBRID PRISM-GRATING)
Instrument parameters: NaCl PRISM
Sampling: TRANSMISSION
Path length: CAPILLARY
Resolution: 4
Origin: MONSANTO (J. FREEMAN)
MICROMETERS	TRANSMITTANCE
10.035	0.93
10.0719	0.985
10.1088	1.016
10.1457	1.002
10.1826	0.962
10.2195	0.822
10.2563	0.597
10.2932	0.683
10.3301	0.879
10.367	0.973
10.4039	0.996
10.4408	0.998
10.4777	0.995
10.5146	0.983
10.5515	0.961
10.5884	0.942
10.6253	0.928
10.6622	0.926
10.699	0.921
10.7359	0.907
10.7728	0.868
10.8097	0.812
10.8466	0.767
10.8835	0.733
10.9204	0.686
10.9573	0.64
10.9942	0.578
11.0311	0.506
11.068	0.433
11.1049	0.377
11.1417	0.445
11.1786	0.574
11.2155	0.661
11.2524	0.703
11.2893	0.718
11.3262	0.712
11.3631	0.703
11.4	0.679
11.4369	0.638
11.4738	0.59
11.5107	0.538
11.5475	0.472
11.5844	0.409
11.6213	0.357
11.6582	0.301
11.6951	0.286
11.732	0.283
11.7689	0.308
11.8058	0.384
11.8427	0.518
11.8796	0.639
11.9165	0.713
11.9534	0.743
11.9902	0.755
12.0271	0.754
12.064	0.746
12.1009	0.738
12.1378	0.73
12.1747	0.72
12.2116	0.707
12.2485	0.697
12.2854	0.685
12.3223	0.675
12.3592	0.672
12.3961	0.669
12.4329	0.663
12.4698	0.645
12.5067	0.621
12.5436	0.579
12.5805	0.546
12.6174	0.506
12.6543	0.451
12.6912	0.392
12.7281	0.319
12.765	0.24
12.8019	0.167
12.8388	0.11
12.8756	0.081
12.9125	0.069
12.9494	0.077
12.9863	0.133
13.0232	0.212
13.0601	0.287
13.097	0.367
13.1339	0.463
13.1708	0.512
13.2077	0.537
13.2446	0.539
13.2814	0.539
13.3183	0.539
13.3552	0.536
13.3921	0.531
13.429	0.524
13.4659	0.52
13.5028	0.515
13.5397	0.51
13.5766	0.504
13.6135	0.498
13.6504	0.493
13.6873	0.487
13.7241	0.481
13.761	0.475
13.7979	0.472
13.8348	0.463
13.8717	0.459
13.9086	0.449
13.9455	0.446
13.9824	0.44
14.0193	0.433
14.0562	0.42
14.0931	0.407
14.13	0.383
14.1668	0.348
14.2037	0.297
14.2406	0.222
14.2775	0.148
14.3144	0.092
14.3513	0.044
14.3882	0.05
14.4251	0.089
14.462	0.133
14.4989	0.219
14.5358	0.277
14.5726	0.298
14.6095	0.314
14.6464	0.319
14.6833	0.326
14.7202	0.332
14.7571	0.337
14.794	0.338
14.8309	0.344
14.8678	0.35
14.9047	0.354
14.9416	0.359
14.9785	0.361
15.0153	0.365
15.0522	0.368
15.0891	0.371
15.126	0.373
15.1629	0.373
15.1998	0.375
15.2367	0.378
15.2736	0.383
15.3105	0.385
15.3474	0.387
15.3843	0.391
15.4212	0.397
15.458	0.4
15.4949	0.409
15.5318	0.414
15.5687	0.419
15.6056	0.424
15.6425	0.43
15.6794	0.439
15.7163	0.455
15.7532	0.463
15.7901	0.473
15.827	0.487
15.8638	0.498
15.9007	0.51
15.9376	0.516
15.9745	0.516
16.0114	0.508
16.0483	0.485
16.0852	0.463
16.1221	0.431
16.159	0.407
16.1959	0.383
16.2328	0.359
16.2697	0.338
16.3065	0.328
16.3434	0.321
16.3803	0.319
16.4172	0.321
16.4541	0.324
16.491	0.326
16.5279	0.328
16.5648	0.33
16.6017	0.332
16.6386	0.334
16.6755	0.336
16.7124	0.339
16.7492	0.344
16.7861	0.348
16.823	0.35
16.8599	0.355
16.8968	0.359
16.9337	0.362
16.9706	0.368
17.0075	0.373
17.0444	0.375
17.0813	0.379
17.1182	0.381
17.1551	0.385
17.1919	0.387
17.2288	0.392
17.2657	0.396
17.3026	0.401
17.3395	0.404
17.3764	0.408
17.4133	0.412
17.4502	0.415
17.4871	0.418
17.524	0.421
17.5609	0.425
17.5977	0.433
17.6346	0.437
17.6715	0.44
17.7084	0.442
17.7453	0.445
17.7822	0.449
17.8191	0.454
17.856	0.459
17.8929	0.465
17.9298	0.471
17.9667	0.475
18.0036	0.479
18.0404	0.484
18.0773	0.485
18.1142	0.489
18.1511	0.489
18.188	0.483
18.2249	0.475
18.2618	0.456
18.2987	0.44
18.3356	0.427
18.3725	0.415
18.4094	0.414
18.4463	0.418
18.4831	0.424
18.52	0.43
18.5569	0.437
18.5938	0.444
18.6307	0.451
18.6676	0.463
18.7045	0.467
18.7414	0.471
18.7783	0.474
18.8152	0.478
18.8521	0.484
18.8889	0.487
18.9258	0.486
18.9627	0.485
18.9996	0.487
19.0365	0.49
19.0734	0.492
19.1103	0.496
19.1472	0.501
19.1841	0.506
19.221	0.509
19.2579	0.516
19.2948	0.522
19.3316	0.526
19.3685	0.531
19.4054	0.536
19.4423	0.539
19.4792	0.543
19.5161	0.544
19.553	0.545
19.5899	0.553
19.6268	0.555
19.6637	0.556
19.7006	0.557
19.7375	0.56
19.7743	0.562
19.8112	0.568
19.8481	0.574
19.885	0.58
19.9219	0.586
19.9588	0.589
19.9957	0.592
20.0326	0.595
20.0695	0.595
20.1064	0.598
20.1433	0.598
20.1801	0.601
20.217	0.601
20.2539	0.602
20.2908	0.602
20.3277	0.604
20.3646	0.606
20.4015	0.606
20.4384	0.606
20.4753	0.607
20.5122	0.61
20.5491	0.613
20.586	0.608
20.6228	0.603
20.6597	0.597
20.6966	0.591
20.7335	0.586
20.7704	0.583
20.8073	0.568
20.8442	0.559
20.8811	0.551
20.918	0.542
20.9549	0.531
20.9918	0.513
21.0287	0.503
21.0655	0.496
21.1024	0.474
21.1393	0.459
21.1762	0.436
21.2131	0.408
21.25	0.377
21.2869	0.351
21.3238	0.334
21.3607	0.307
21.3976	0.275
21.4345	0.245
21.4714	0.218
21.5082	0.2
21.5451	0.19
21.582	0.191
21.6189	0.2
21.6558	0.216
21.6927	0.239
21.7296	0.265
21.7665	0.293
21.8034	0.322
21.8403	0.354
21.8772	0.385
21.914	0.409
21.9509	0.431
21.9878	0.454
22.0247	0.469
22.0616	0.484
22.0985	0.501
22.1354	0.515
22.1723	0.527
22.2092	0.533
22.2461	0.544
22.283	0.557
22.3199	0.568
22.3567	0.577
22.3936	0.581
22.4305	0.586
22.4674	0.595
22.5043	0.602
22.5412	0.608
22.5781	0.613
22.615	0.615
22.6519	0.615
22.6888	0.616
22.7257	0.619
22.7626	0.62
22.7994	0.62
22.8363	0.621
22.8732	0.621
22.9101	0.621
22.947	0.624
22.9839	0.626
