Infrared Spectrum: BENZENAMINE, N-PHENYL-, HYDROCHLORIDE
Formula: C12 H12 Cl N
CAS: 537-67-7
State: SOLID (SPLIT MULL, FLUOROLUBE FOR 3800-1333 AND NUJOL FOR 1333-460 CM ^-^1)
Class: COBLENTZ II
Instrument: DOW KBr FOREPRISM-GRATING
Instrument parameters: BLAZED AT 3.5, 12.0, 20.0 MICRON, CHANGED AT 5.0, 7.5, 14.9 MICRON
Sampling: TRANSMISSION
Resolution: 4
Origin: DOW CHEMICAL COMPANY
1/CM	TRANSMITTANCE
465.177	0.875
473.883	0.831
482.589	0.697
491.294	0.494
500	0.961
508.706	0.979
517.412	0.987
526.117	0.99
534.823	0.993
543.529	0.995
552.235	0.99
560.94	0.959
569.646	0.968
578.352	1
587.058	1.001
595.763	0.998
604.469	0.957
613.175	0.834
621.881	0.452
630.586	0.987
639.292	1.009
647.998	1.012
656.704	1.004
665.409	0.953
674.115	0.932
682.821	0.566
691.527	0.834
700.232	0.3509
708.938	0.968
717.644	0.975
726.35	0.917
735.055	0.5919
743.761	0.407
752.467	0.783
761.173	0.271
769.879	1.005
778.584	1.033
787.29	1.047
795.996	1.04
804.702	0.963
813.407	0.879
822.113	1.014
830.819	1.001
839.525	1.027
848.23	1.046
856.936	1.047
865.642	1.047
874.348	1.036
883.053	1.035
891.759	1.006
900.465	1.01
909.171	1.027
917.876	1.014
926.582	0.955
935.288	1.021
943.994	1.02
952.699	1.009
961.405	0.99
970.111	1.009
978.817	1.006
987.522	0.976
996.228	0.899
1004.93	0.851
1013.64	1.002
1022.35	0.846
1031.05	0.657
1039.76	1.027
1048.46	1.025
1057.17	1.014
1065.87	0.994
1074.58	0.834
1083.29	1
1091.99	1.017
1100.7	1.02
1109.4	1.021
1118.11	1.032
1126.81	1.028
1135.52	1.014
1144.23	1.01
1152.93	0.934
1161.64	0.804
1170.34	0.896
1179.05	0.843
1187.75	1
1196.46	0.843
1205.17	0.967
1213.87	1
1222.58	1.014
1231.28	1.006
1239.99	0.998
1248.7	1.001
1257.4	0.997
1266.11	1
1274.81	0.936
1283.52	0.956
1292.22	0.948
1300.93	0.834
1309.64	0.872
1318.34	0.937
1327.05	0.932
1335.75	0.913
1344.46	0.903
1353.16	0.933
1361.87	0.944
1370.58	0.923
1379.28	0.892
1387.99	0.932
1396.69	0.894
1405.4	0.842
1414.1	0.745
1422.81	0.445
1431.52	0.87
1440.22	0.898
1448.93	0.879
1457.63	0.778
1466.34	0.591
1475.04	0.201
1483.75	0.4141
1492.46	0.346
1501.16	0.687
1509.87	0.879
1518.57	0.934
1527.28	0.949
1535.99	0.949
1544.69	0.927
1553.4	0.794
1562.1	0.423
1570.81	0.847
1579.51	0.841
1588.22	0.701
1596.93	0.69
1605.63	0.913
1614.34	0.959
1623.04	0.952
1631.75	0.944
1640.45	0.956
1649.16	0.982
1657.87	0.99
1666.57	0.987
1675.28	0.985
1683.98	0.986
1692.69	0.979
1701.39	0.975
1710.1	0.976
1718.81	0.955
1727.51	0.945
1736.22	0.971
1744.92	0.975
1753.63	0.967
1762.33	0.947
1771.04	0.927
1779.75	0.926
1788.45	0.933
1797.16	0.963
1805.86	0.967
1814.57	0.961
1823.28	0.964
1831.98	0.966
1840.69	0.961
1849.39	0.948
1858.1	0.959
1866.8	0.953
1875.51	0.932
1884.22	0.9
1892.92	0.896
1901.63	0.921
1910.33	0.923
1919.04	0.915
1927.74	0.903
1936.45	0.86
1945.16	0.804
1953.86	0.667
1962.57	0.546
1971.27	0.633
1979.98	0.811
1988.68	0.875
1997.39	0.875
2006.1	0.8605
2014.8	0.85
2023.51	0.8248
2032.21	0.7784
2040.92	0.7068
2049.62	0.6088
2058.33	0.7229
2067.04	0.9009
2075.74	0.9084
2084.45	0.8899
2093.15	0.864
2101.86	0.8628
2110.57	0.8649
2119.27	0.8511
2127.98	0.8433
2136.68	0.8241
2145.39	0.8032
2154.09	0.7696
2162.8	0.7088
2171.51	0.667
2180.21	0.6645
2188.92	0.635
2197.62	0.6467
2206.33	0.6161
2215.03	0.5638
2223.74	0.5053
2232.45	0.4794
2241.15	0.4391
2249.86	0.3914
2258.56	0.3543
2267.27	0.2999
2275.97	0.2319
2284.68	0.1602
2293.39	0.1396
2302.09	0.2092
2310.8	0.274
2319.5	0.1722
2328.21	0.1469
2336.91	0.135
2345.62	0.133
2354.33	0.131
2363.03	0.1439
2371.74	0.148
2380.44	0.148
2389.15	0.15
2397.86	0.1515
2406.56	0.1505
2415.27	0.1442
2423.97	0.1332
2432.68	0.1292
2441.38	0.1308
2450.09	0.1386
2458.8	0.1374
2467.5	0.1182
2476.21	0.1266
2484.91	0.127
2493.62	0.13
2502.32	0.151
2511.03	0.1707
2519.74	0.2047
2528.44	0.2428
2537.15	0.2773
2545.85	0.315
2554.56	0.3628
2563.26	0.2978
2571.97	0.2603
2580.68	0.2435
2589.38	0.228
2598.09	0.226
2606.79	0.232
2615.5	0.2506
2624.2	0.2874
2632.91	0.3468
2641.62	0.4319
2650.32	0.4451
2659.03	0.3682
2667.73	0.3457
2676.44	0.4675
2685.15	0.4451
2693.85	0.5365
2702.56	0.5369
2711.26	0.4996
2719.97	0.6141
2728.67	0.6251
2737.38	0.6438
2746.09	0.6791
2754.79	0.584
2763.5	0.608
2772.2	0.6901
2780.91	0.707
2789.61	0.699
2798.32	0.6444
2807.03	0.6155
2815.73	0.7118
2824.44	0.7752
2833.14	0.7916
2841.85	0.7199
2850.55	0.6479
2859.26	0.705
2867.97	0.7746
2876.67	0.8055
2885.38	0.8119
2894.08	0.7731
2902.79	0.7355
2911.49	0.7974
2920.2	0.8317
2928.91	0.8491
2937.61	0.86
2946.32	0.8594
2955.02	0.8491
2963.73	0.8637
2972.44	0.862
2981.14	0.8725
2989.85	0.8893
2998.55	0.892
3007.26	0.8887
3015.96	0.8717
3024.67	0.8664
3033.38	0.8462
3042.08	0.8363
3050.79	0.8452
3059.49	0.875
3068.2	0.8682
3076.9	0.88
3085.61	0.8786
3094.32	0.869
3103.02	0.866
3111.73	0.8811
3120.43	0.895
3129.14	0.8965
3137.84	0.899
3146.55	0.899
3155.26	0.899
3163.96	0.899
3172.67	0.898
3181.37	0.8957
3190.08	0.898
3198.79	0.899
3207.49	0.898
3216.2	0.896
3224.9	0.8971
3233.61	0.895
3242.31	0.8947
3251.02	0.892
3259.73	0.892
3268.43	0.889
3277.14	0.889
3285.84	0.8863
3294.55	0.884
3303.25	0.883
3311.96	0.881
3320.67	0.881
3329.37	0.879
3338.08	0.879
3346.78	0.877
3355.49	0.876
3364.19	0.875
3372.9	0.873
3381.61	0.8726
3390.31	0.872
3399.02	0.8711
3407.72	0.87
3416.43	0.868
3425.13	0.865
3433.84	0.865
3442.55	0.866
3451.25	0.869
3459.96	0.8669
3468.66	0.8685
3477.37	0.866
3486.08	0.8655
3494.78	0.865
3503.49	0.8655
3512.19	0.866
3520.9	0.8685
3529.6	0.869
3538.31	0.8685
3547.02	0.8645
3555.72	0.8605
3564.43	0.8605
3573.13	0.866
3581.84	0.8644
3590.54	0.864
3599.25	0.862
3607.96	0.8604
3616.66	0.855
3625.37	0.86
3634.07	0.858
3642.78	0.8592
3651.48	0.86
3660.19	0.8558
3668.9	0.851
3677.6	0.8518
3686.31	0.8536
3695.01	0.854
3703.72	0.855
3712.42	0.853
3721.13	0.853
3729.84	0.8504
3738.54	0.849
3747.25	0.849
3755.95	0.847
3764.66	0.845
3773.37	0.842
3782.07	0.8413
3790.78	0.8417
