Infrared Spectrum: CINNAMIC ACID, 3-HYDROXY-4-METHOXY-
Formula: C10 H10 O4
CAS: 537-73-5
State: SOLID (OIL MULL)
Class: COBLENTZ III
Instrument: CARY 90 (GRATING)
Instrument parameters: ORDER CHANGES: 3000, 2000, 1200 CM^-^1
Sampling: TRANSMISSION
Resolution: 2
Origin: WESTERN REGIONAL RES. USDA
1/CM	TRANSMITTANCE
4002	0.7728
3993	0.7738
3984	0.7751
3975	0.7761
3966	0.7774
3957	0.7786
3948	0.7805
3939	0.7826
3930	0.7849
3921	0.7871
3912	0.7891
3903	0.7908
3894	0.7925
3885	0.7943
3876	0.7961
3867	0.7978
3858	0.7995
3849	0.8011
3840	0.8028
3831	0.8045
3822	0.8061
3813	0.8075
3804	0.8087
3795	0.8099
3786	0.8111
3777	0.8122
3768	0.8135
3759	0.8145
3750	0.8156
3741	0.8167
3732	0.8178
3723	0.8189
3714	0.82
3705	0.8217
3696	0.8234
3687	0.8252
3678	0.827
3669	0.8287
3660	0.8305
3651	0.8323
3642	0.834
3633	0.8358
3624	0.8375
3615	0.839
3606	0.8404
3597	0.8417
3588	0.8425
3579	0.8428
3570	0.8434
3561	0.8428
3552	0.8423
3543	0.84
3534	0.836
3525	0.8287
3516	0.8115
3507	0.7901
3498	0.7618
3489	0.7497
3480	0.7421
3471	0.7339
3462	0.7239
3453	0.7089
3444	0.6794
3435	0.6425
3426	0.6072
3417	0.5718
3408	0.5534
3399	0.5592
3390	0.5758
3381	0.5902
3372	0.5962
3363	0.6044
3354	0.6188
3345	0.6359
3336	0.6539
3327	0.6687
3318	0.683
3309	0.6953
3300	0.7072
3291	0.7178
3282	0.7282
3273	0.7383
3264	0.7484
3255	0.7547
3246	0.7601
3237	0.7625
3228	0.7648
3219	0.7667
3210	0.7676
3201	0.7685
3192	0.7688
3183	0.7687
3174	0.7675
3165	0.7662
3156	0.7645
3147	0.7614
3138	0.7578
3129	0.7518
3120	0.7421
3111	0.7315
3102	0.7214
3093	0.7115
3084	0.7022
3075	0.693
3066	0.6819
3057	0.6731
3048	0.6644
3039	0.6555
3030	0.6439
3021	0.6119
3012	0.5978
3003	0.589
2994	0.5484
2985	0.5004
2976	0.3778
2967	0.25
2958	0.1222
2949	0.0749
2940	0.0699
2931	0.0467
2922	0.0364
2913	0.0745
2904	0.1222
2895	0.17
2886	0.2177
2877	0.2409
2868	0.2014
2859	0.1578
2850	0.1857
2841	0.3196
2832	0.5273
2823	0.5987
2814	0.6339
2805	0.6578
2796	0.6747
2787	0.689
2778	0.7025
2769	0.7122
2760	0.7099
2751	0.7028
2742	0.7039
2733	0.7012
2724	0.6919
2715	0.689
2706	0.6941
2697	0.6955
2688	0.6936
2679	0.6901
2670	0.688
2661	0.689
2652	0.691
2643	0.6933
2634	0.6955
2625	0.6957
2616	0.6883
2607	0.6733
2598	0.6697
2589	0.6691
2580	0.6737
2571	0.68
2562	0.6858
2553	0.6915
2544	0.6975
2535	0.7034
2526	0.7096
2517	0.7161
2508	0.7251
2499	0.7348
2490	0.7449
2481	0.755
2472	0.7651
2463	0.7744
2454	0.7825
2445	0.7908
2436	0.799
2427	0.8061
2418	0.8133
2409	0.8203
2400	0.8274
2391	0.8338
2382	0.8402
2373	0.8466
2364	0.853
2355	0.8593
2346	0.8648
2337	0.8701
2328	0.8757
2319	0.8812
2310	0.8836
2301	0.8835
2292	0.8831
2283	0.8848
2274	0.889
2265	0.894
2256	0.8994
2247	0.9041
2238	0.908
2229	0.9118
2220	0.9147
2211	0.9175
2202	0.9203
2193	0.9228
2184	0.9249
2175	0.9268
2166	0.9288
2157	0.9307
2148	0.9325
2139	0.9344
2130	0.9362
2121	0.9385
2112	0.9409
2103	0.9432
2094	0.9462
2085	0.9493
2076	0.9525
2067	0.9549
2058	0.9564
2049	0.9563
2040	0.9475
2031	0.945
2022	0.9471
2013	0.9554
2004	0.956
1995	0.9414
1986	0.9383
1977	0.9447
1968	0.9392
1959	0.9338
1950	0.9338
1941	0.9349
1932	0.9354
1923	0.9356
1914	0.9359
1905	0.9316
1896	0.9261
1887	0.9334
1878	0.9197
1869	0.9297
1860	0.9368
1851	0.9397
1842	0.9418
1833	0.9427
1824	0.9425
1815	0.9418
1806	0.9403
1797	0.9406
1788	0.9506
1779	0.9604
1770	0.9653
1761	0.9645
1752	0.9606
1743	0.9627
1734	0.9578
1725	0.9227
1716	0.872
1707	0.7907
1698	0.4459
1689	0.3658
1680	0.3212
1671	0.2062
1662	0.3759
1653	0.6143
1644	0.7119
1635	0.5133
1626	0.311
1617	0.4518
1608	0.4426
1599	0.7548
1590	0.7865
1581	0.6382
1572	0.8307
1563	0.8907
1554	0.9088
1545	0.9021
1536	0.85
1527	0.7887
1518	0.4267
1509	0.1691
1500	0.7518
1491	0.8175
1482	0.8149
1473	0.6865
1464	0.4717
1455	0.3839
1446	0.3884
1437	0.6817
1428	0.6458
1419	0.7098
1410	0.8415
1401	0.898
1392	0.893
1383	0.7468
1374	0.6633
1365	0.7107
1356	0.6285
1347	0.8038
1338	0.7651
1329	0.5583
1320	0.3432
1311	0.3748
1302	0.4755
1293	0.6262
1284	0.4783
1275	0.181
1266	0.1531
1257	0.3443
1248	0.4901
1239	0.4437
1230	0.6536
1221	0.6551
1212	0.4746
1203	0.6305
1194	0.8467
1185	0.8271
1176	0.8898
1167	0.8782
1158	0.5084
1149	0.8309
1140	0.4308
1131	0.6341
1122	0.8308
1113	0.8899
1104	0.9185
1095	0.9338
1086	0.9436
1077	0.9416
1068	0.9448
1059	0.9458
1050	0.9473
1041	0.9411
1032	0.9075
1023	0.5583
1014	0.838
1005	0.9146
996	0.9368
987	0.9138
978	0.631
969	0.7821
960	0.7251
951	0.6258
942	0.6808
933	0.7521
924	0.879
915	0.9306
906	0.9451
897	0.9555
888	0.9662
879	0.9671
870	0.9528
861	0.8215
852	0.9561
843	0.9835
834	0.9893
825	0.9503
816	0.5796
807	0.9964
798	1.0112
789	1.0173
780	1.0039
771	0.9595
762	0.7026
753	1.0066
744	1.0121
735	0.9765
726	1.0005
717	1.0075
708	1.0239
699	1.0171
690	0.933
681	1.0224
672	1.026
663	1.0271
654	1.0273
645	1.0275
636	1.0285
627	1.0294
618	1.0246
609	0.9649
600	1.0189
591	0.9987
582	0.9568
573	0.8115
564	0.9493
555	0.9883
546	1.0158
537	1.019
528	1.0188
519	0.9921
510	0.7704
501	0.9513
492	0.9713
483	0.9993
474	1.0205
465	1.0144
456	0.9501
