Infrared Spectrum: SULFIDE, BENZYL-
Formula: C14 H14 S
CAS: 538-74-9
State: SOLUTION (10% CCl4 FOR 3800-1330, 10% CS2 FOR 1330-400 CM^-^1)
Melting point: 48 C
Class: COBLENTZ III
Instrument: DOW KBr FOREPRISM-GRATING
Instrument parameters: BLAZED AT 3.5, 12.0, 20.0 MICRON AND CHANGED AT 5.0, 7.5, 14.9 MICRON
Sampling: TRANSMISSION
Path length: 0.011 CM, 0.010 CM
Resolution: 2
Origin: DOW CHEMICAL COMPANY
1/CM	TRANSMITTANCE
3780	0.9377
3771	0.9371
3762	0.9365
3753	0.938
3744	0.9471
3735	0.9498
3726	0.9443
3717	0.9381
3708	0.9365
3699	0.9373
3690	0.9384
3681	0.9373
3672	0.9362
3663	0.9329
3654	0.9279
3645	0.9214
3636	0.9176
3627	0.9223
3618	0.9272
3609	0.9305
3600	0.9301
3591	0.9262
3582	0.9254
3573	0.9252
3564	0.9236
3555	0.9245
3546	0.9242
3537	0.9232
3528	0.9212
3519	0.92
3510	0.9189
3501	0.9179
3492	0.9177
3483	0.9177
3474	0.9184
3465	0.9206
3456	0.9229
3447	0.9254
3438	0.9287
3429	0.9317
3420	0.9318
3411	0.9304
3402	0.9289
3393	0.9274
3384	0.9259
3375	0.9255
3366	0.9257
3357	0.9252
3348	0.9246
3339	0.9241
3330	0.9239
3321	0.9239
3312	0.9272
3303	0.9279
3294	0.9264
3285	0.9242
3276	0.9252
3267	0.926
3258	0.9246
3249	0.9238
3240	0.9232
3231	0.9231
3222	0.92
3213	0.9179
3204	0.9158
3195	0.9191
3186	0.9184
3177	0.9106
3168	0.905
3159	0.9068
3150	0.9058
3141	0.9023
3132	0.8993
3123	0.8898
3114	0.8394
3105	0.8015
3096	0.7969
3087	0.5962
3078	0.689
3069	0.4864
3060	0.5322
3051	0.7256
3042	0.5746
3033	0.3252
3024	0.5417
3015	0.7649
3006	0.7857
2997	0.835
2988	0.8643
2979	0.8688
2970	0.8666
2961	0.85
2952	0.8007
2943	0.7693
2934	0.7639
2925	0.737
2916	0.5941
2907	0.6602
2898	0.7728
2889	0.8229
2880	0.8462
2871	0.8596
2862	0.8644
2853	0.8601
2844	0.8439
2835	0.8505
2826	0.8572
2817	0.8497
2808	0.8624
2799	0.8719
2790	0.8787
2781	0.8839
2772	0.8882
2763	0.8903
2754	0.8913
2745	0.8889
2736	0.8889
2727	0.8896
2718	0.8918
2709	0.8911
2700	0.8898
2691	0.8884
2682	0.8865
2673	0.8845
2664	0.8826
2655	0.8821
2646	0.8803
2637	0.877
2628	0.8771
2619	0.8761
2610	0.875
2601	0.8749
2592	0.8749
2583	0.8749
2574	0.8748
2565	0.8748
2556	0.8746
2547	0.8743
2538	0.8741
2529	0.8736
2520	0.873
2511	0.8724
2502	0.8718
2493	0.8707
2484	0.8702
2475	0.8711
2466	0.8723
2457	0.872
2448	0.8715
2439	0.8695
2430	0.867
2421	0.8644
2412	0.8623
2403	0.8619
2394	0.8613
2385	0.8652
2376	0.8757
2367	0.8769
2358	0.8788
2349	0.8677
2340	0.8623
2331	0.8567
2322	0.8559
2313	0.8517
2304	0.8494
2295	0.8494
2286	0.849
2277	0.8482
2268	0.8458
2259	0.8443
2250	0.8426
2241	0.8454
2232	0.8476
2223	0.8508
2214	0.8494
2205	0.85
2196	0.8519
2187	0.8525
2178	0.8537
2169	0.8523
2160	0.851
2151	0.8511
2142	0.852
2133	0.8525
2124	0.8537
2115	0.8544
2106	0.8549
2097	0.8545
2088	0.8528
2079	0.8568
2070	0.8566
2061	0.8562
2052	0.857
2043	0.8544
2034	0.8512
2025	0.8489
2016	0.8488
2007	0.8491
1998	0.851
1989	0.8659
1980	0.8658
1971	0.8375
1962	0.8133
1953	0.8042
1944	0.7834
1935	0.8536
1926	0.8669
1917	0.8669
1908	0.8645
1899	0.8488
1890	0.8458
1881	0.842
1872	0.84
1863	0.8602
1854	0.8644
1845	0.8765
1836	0.8737
1827	0.8685
1818	0.8619
1809	0.8359
1800	0.8137
1791	0.8617
1782	0.868
1773	0.8653
1764	0.8663
1755	0.8546
1746	0.8653
1737	0.8749
1728	0.878
1719	0.8795
1710	0.878
1701	0.8769
1692	0.8761
1683	0.8841
1674	0.8711
1665	0.8742
1656	0.8803
1647	0.8903
1638	0.8833
1629	0.8721
1620	0.8617
1611	0.8339
1602	0.5656
1593	0.788
1584	0.7929
1575	0.8402
1566	0.8209
1557	0.8408
1548	0.8544
1539	0.8861
1530	0.8758
1521	0.8579
1512	0.8462
1503	0.7492
1494	0.2691
1485	0.8121
1476	0.849
1467	0.8158
1458	0.1053
1449	0.7008
1440	0.7743
1431	0.7497
1422	0.6268
1413	0.7478
1404	0.8268
1395	0.8519
1386	0.8491
1377	0.8608
1368	0.8735
1359	0.8739
1350	0.8623
1341	0.8473
1332	0.8049
1323	0.7666
1314	0.7886
1305	0.8155
1296	0.8156
1287	0.8132
1278	0.8153
1269	0.818
1260	0.813
1251	0.756
1242	0.6932
1233	0.599
1224	0.7706
1215	0.8171
1206	0.812
1197	0.7103
1188	0.7555
1179	0.7571
1170	0.7682
1161	0.7725
1152	0.7728
1143	0.7934
1134	0.8217
1125	0.8426
1116	0.8528
1107	0.8347
1098	0.8226
1089	0.8415
1080	0.81
1071	0.4133
1062	0.7514
1053	0.834
1044	0.848
1035	0.8261
1026	0.5535
1017	0.79
1008	0.8267
999	0.8093
990	0.8394
981	0.8275
972	0.8305
963	0.8241
954	0.8331
945	0.8359
936	0.8105
927	0.7531
918	0.7482
909	0.707
900	0.8025
891	0.7865
882	0.8106
873	0.8111
864	0.8122
855	0.8159
846	0.804
837	0.7775
828	0.7664
819	0.788
810	0.7866
801	0.7753
792	0.791
783	0.7474
774	0.5001
765	0.4519
756	0.6511
747	0.6947
738	0.6862
729	0.5788
720	0.2587
711	0.0333
702	0.1514
693	0.0362
684	0.5731
675	0.6458
666	0.7259
657	0.8283
648	0.8337
639	0.8521
630	0.862
621	0.8545
612	0.8623
603	0.865
594	0.864
585	0.8567
576	0.8133
567	0.788
558	0.6237
549	0.8322
540	0.8473
531	0.8492
522	0.8488
513	0.8457
504	0.8398
495	0.8308
486	0.7967
477	0.6385
468	0.6066
459	0.6901
450	0.7439
441	0.7484
432	0.74
423	0.7241
414	0.6911
405	0.6099
396	0.5512
387	0.4923
