Infrared Spectrum: METHANEDIIMINE, N,N'-DICYCLOHEXYL-
Formula: C13 H22 N2
CAS: 538-75-0
State: SOLUTION (10% IN CCl4 FOR 3800-1333, 10% IN CS2 FOR 1333-400 CM^-^1)
Class: COBLENTZ III
Instrument: DOW KBr FOREPRISM-GRATING
Instrument parameters: BLAZED AT 3.5, 12.0, 20.0 MICRON, CHANGED AT 5.0, 7.5, 14.9 MICRON
Sampling: TRANSMISSION
Path length: 0.011, 0.011 CM
Resolution: 4
Origin: DOW CHEMICAL COMPANY
1/CM	TRANSMITTANCE
383.411	0.311
392.112	0.342
400.812	0.446
409.513	0.659
418.214	0.831
426.915	0.892
435.615	0.91
444.316	0.899
453.017	0.888
461.717	0.93
470.418	0.944
479.119	0.925
487.82	0.957
496.52	0.975
505.221	0.978
513.922	0.956
522.622	0.942
531.323	0.933
540.024	0.862
548.725	0.957
557.425	0.965
566.126	0.96
574.827	0.938
583.527	0.915
592.228	0.851
600.929	0.748
609.63	0.755
618.33	0.605
627.031	0.529
635.732	0.526
644.432	0.478
653.133	0.589
661.834	0.703
670.534	0.771
679.235	0.838
687.936	0.872
696.637	0.914
705.337	0.941
714.038	0.946
722.739	0.945
731.439	0.944
740.14	0.934
748.841	0.912
757.542	0.902
766.242	0.885
774.943	0.795
783.644	0.742
792.344	0.812
801.045	0.902
809.746	0.904
818.447	0.853
827.147	0.889
835.848	0.653
844.549	0.602
853.249	0.742
861.95	0.655
870.651	0.715
879.352	0.693
888.052	0.3609
896.753	0.495
905.454	0.816
914.154	0.869
922.855	0.793
931.556	0.831
940.257	0.757
948.957	0.503
957.658	0.757
966.359	0.892
975.059	0.911
983.76	0.911
992.461	0.892
1001.16	0.78
1009.86	0.7
1018.56	0.466
1027.26	0.606
1035.96	0.431
1044.67	0.164
1053.37	0.6161
1062.07	0.824
1070.77	0.741
1079.47	0.844
1088.17	0.776
1096.87	0.912
1105.57	0.953
1114.27	0.931
1122.97	0.663
1131.67	0.823
1140.37	0.7169
1149.07	0.616
1157.77	0.835
1166.48	0.869
1175.18	0.865
1183.88	0.767
1192.58	0.802
1201.28	0.859
1209.98	0.853
1218.68	0.801
1227.38	0.751
1236.08	0.457
1244.78	0.676
1253.48	0.6629
1262.18	0.575
1270.88	0.708
1279.58	0.687
1288.29	0.575
1296.99	0.244
1305.69	0.3711
1314.39	0.489
1323.09	0.638
1331.79	0.7939
1340.49	0.6059
1349.19	0.4061
1357.89	0.3268
1366.59	0.5801
1375.29	0.85
1383.99	0.882
1392.69	0.876
1401.39	0.854
1410.09	0.857
1418.8	0.862
1427.5	0.854
1436.2	0.759
1444.9	0.5478
1453.6	0.1193
1462.3	0.624
1471	0.825
1479.7	0.887
1488.4	0.874
1497.1	0.85
1505.8	0.795
1514.5	0.752
1523.2	0.714
1531.9	0.674
1540.61	0.567
1549.31	0.529
1558.01	0.549
1566.71	0.644
1575.41	0.703
1584.11	0.722
1592.81	0.764
1601.51	0.847
1610.21	0.912
1618.91	0.944
1627.61	0.957
1636.31	0.961
1645.01	0.975
1653.71	0.963
1662.42	0.983
1671.12	0.978
1679.82	0.976
1688.52	0.982
1697.22	0.976
1705.92	0.986
1714.62	0.986
1723.32	1
1732.02	0.99
1740.72	0.997
1749.42	0.991
1758.12	0.994
1766.82	0.991
1775.52	0.993
1784.23	0.99
1792.93	0.989
1801.63	0.986
1810.33	0.983
1819.03	0.982
1827.73	0.979
1836.43	0.978
1845.13	0.978
1853.83	0.98
1862.53	0.979
1871.23	0.979
1879.93	0.979
1888.63	0.978
1897.33	0.976
1906.04	0.972
1914.74	0.961
1923.44	0.957
1932.14	0.955
1940.84	0.951
1949.54	0.946
1958.24	0.941
1966.94	0.937
1975.64	0.923
1984.34	0.906
1993.04	0.884
2001.74	0.843
2010.44	0.816
2019.14	0.7518
2027.85	0.6589
2036.55	0.5898
2045.25	0.5018
2053.95	0.3798
2062.65	0.2818
2071.35	0.228
2080.05	0.229
2088.75	0.2165
2097.45	0.1432
2106.15	0.0506
2114.85	0.019
2123.55	0.019
2132.25	0.019
2140.95	0.0245
2149.66	0.1573
2158.36	0.3037
2167.06	0.5042
2175.76	0.6057
2184.46	0.6581
2193.16	0.6813
2201.86	0.723
2210.56	0.7839
2219.26	0.8162
2227.96	0.8311
2236.66	0.8421
2245.36	0.8583
2254.06	0.8802
2262.76	0.891
2271.47	0.8952
2280.17	0.902
2288.87	0.899
2297.57	0.9
2306.27	0.904
2314.97	0.9071
2323.67	0.9101
2332.37	0.9098
2341.07	0.9058
2349.77	0.903
2358.47	0.899
2367.17	0.9022
2375.87	0.911
2384.57	0.9119
2393.28	0.911
2401.98	0.9181
2410.68	0.9211
2419.38	0.9251
2428.08	0.931
2436.78	0.9371
2445.48	0.944
2454.18	0.9463
2462.88	0.948
2471.58	0.945
2480.28	0.944
2488.98	0.9437
2497.68	0.9452
2506.38	0.9507
2515.09	0.948
2523.79	0.9464
2532.49	0.955
2541.19	0.956
2549.89	0.953
2558.59	0.9488
2567.29	0.9436
2575.99	0.9356
2584.69	0.9148
2593.39	0.912
2602.09	0.9196
2610.79	0.927
2619.49	0.9268
2628.19	0.9228
2636.9	0.9072
2645.6	0.8998
2654.3	0.8745
2663	0.8532
2671.7	0.853
2680.4	0.8966
2689.1	0.912
2697.8	0.91
2706.5	0.9127
2715.2	0.9267
2723.9	0.934
2732.6	0.931
2741.3	0.918
2750	0.9037
2758.71	0.8998
2767.41	0.891
2776.11	0.8682
2784.81	0.8417
2793.51	0.7968
2802.21	0.8376
2810.91	0.8409
2819.61	0.824
2828.31	0.7889
2837.01	0.6908
2845.71	0.3939
2854.41	0.0626
2863.11	0.047
2871.81	0.2441
2880.52	0.349
2889.22	0.3162
2897.92	0.1828
2906.62	0.0951
2915.32	0.0735
2924.02	0.0184
2932.72	0.017
2941.42	0.0193
2950.12	0.0351
2958.82	0.2204
2967.52	0.4481
2976.22	0.6395
2984.92	0.7426
2993.62	0.7943
3002.33	0.8353
3011.03	0.853
3019.73	0.8537
3028.43	0.8931
3037.13	0.9271
3045.83	0.9421
3054.53	0.9523
3063.23	0.9581
3071.93	0.963
3080.63	0.963
3089.33	0.961
3098.03	0.964
3106.73	0.965
3115.43	0.9623
3124.14	0.9554
3132.84	0.956
3141.54	0.9578
3150.24	0.9578
3158.94	0.9594
3167.64	0.964
3176.34	0.968
3185.04	0.974
3193.74	0.975
3202.44	0.978
3211.14	0.978
3219.84	0.978
3228.54	0.978
3237.24	0.978
3245.95	0.975
3254.65	0.975
3263.35	0.976
3272.05	0.978
3280.75	0.979
3289.45	0.98
3298.15	0.979
3306.85	0.98
3315.55	0.98
3324.25	0.98
3332.95	0.979
3341.65	0.979
3350.35	0.978
3359.05	0.975
3367.76	0.972
3376.46	0.9691
3385.16	0.9661
3393.86	0.964
3402.56	0.9576
3411.26	0.9515
3419.96	0.948
3428.66	0.944
3437.36	0.939
3446.06	0.933
3454.76	0.924
3463.46	0.9145
3472.16	0.912
3480.86	0.91
3489.57	0.903
3498.27	0.8905
3506.97	0.879
3515.67	0.8815
3524.37	0.892
3533.07	0.9015
3541.77	0.916
3550.47	0.9306
3559.17	0.9426
3567.87	0.948
3576.57	0.958
3585.27	0.963
3593.97	0.9691
3602.67	0.972
3611.38	0.971
3620.08	0.972
3628.78	0.965
3637.48	0.97
3646.18	0.967
3654.88	0.97
3663.58	0.9754
3672.28	0.967
3680.98	0.9676
3689.68	0.965
3698.38	0.9704
3707.08	0.9659
3715.78	0.964
3724.48	0.964
3733.19	0.959
3741.89	0.961
3750.59	0.9636
3759.29	0.9706
3767.99	0.972
3776.69	0.9716
3785.39	0.9706
3794.09	0.9752
