Infrared Spectrum: N-PENTYL BENZENE
Formula: C11 H16
CAS: 538-68-1
State: LIQUID
Class: COBLENTZ
Instrument: PERKIN-ELMER
Sampling: TRANSMISSION
Path length: 0.0024 CM
Resolution: 4
Origin: STANDARD OIL OF OHIO
1/CM	TRANSMITTANCE
601.466	0.591
609.912	0.582
618.358	0.589
626.804	0.597
635.25	0.609
643.696	0.6258
652.142	0.6478
660.588	0.6579
669.034	0.67
677.479	0.6702
685.925	0.6268
694.371	0.3193
702.817	0.0763
711.263	0.3126
719.709	0.4172
728.155	0.2958
736.601	0.2226
745.047	0.1279
753.493	0.1358
761.939	0.4601
770.385	0.654
778.831	0.7473
787.277	0.816
795.723	0.8141
804.169	0.8094
812.615	0.798
821.061	0.8247
829.506	0.849
837.952	0.8376
846.398	0.8117
854.844	0.849
863.29	0.8726
871.736	0.8784
880.182	0.8714
888.628	0.8564
897.074	0.8326
905.52	0.7409
913.966	0.7535
922.412	0.8145
930.858	0.8499
939.304	0.8313
947.75	0.8648
956.196	0.8542
964.642	0.8237
973.087	0.7985
981.533	0.7992
989.979	0.8469
998.425	0.8538
1006.87	0.8505
1015.32	0.8518
1023.76	0.8198
1032.21	0.663
1040.66	0.7895
1049.1	0.8546
1057.55	0.7888
1065.99	0.7281
1074.44	0.7798
1082.88	0.8324
1091.33	0.8307
1099.78	0.7577
1108.22	0.7284
1116.67	0.7031
1125.11	0.8535
1133.56	0.873
1142.01	0.8697
1150.45	0.8536
1158.9	0.8345
1167.34	0.8478
1175.79	0.8216
1184.24	0.8035
1192.68	0.8332
1201.13	0.8352
1209.57	0.854
1218.02	0.849
1226.47	0.8586
1234.91	0.856
1243.36	0.8571
1251.8	0.858
1260.25	0.8499
1268.7	0.841
1277.14	0.839
1285.59	0.8179
1294.03	0.8069
1302.48	0.7925
1310.93	0.8071
1319.37	0.813
1327.82	0.7869
1336.26	0.758
1344.71	0.758
1353.15	0.7695
1361.6	0.7577
1370.05	0.7062
1378.49	0.548
1386.94	0.7614
1395.38	0.8079
1403.83	0.8072
1412.28	0.7918
1420.72	0.7502
1429.17	0.7231
1437.61	0.6682
1446.06	0.5342
1454.51	0.3111
1462.95	0.2504
1471.4	0.239
1479.84	0.6487
1488.29	0.6763
1496.74	0.4366
1505.18	0.2646
1513.63	0.8478
1522.07	0.8804
1530.52	0.881
1538.97	0.869
1547.41	0.8941
1555.86	0.898
1564.3	0.898
1572.75	0.8863
1581.2	0.8556
1589.64	0.7552
1598.09	0.7747
1606.53	0.6251
1614.98	0.6219
1623.43	0.8876
1631.87	0.9023
1640.32	0.903
1648.76	0.902
1657.21	0.9
1665.65	0.9056
1674.1	0.918
1682.55	0.918
1690.99	0.918
1699.44	0.917
1707.88	0.9173
1716.33	0.9165
1724.78	0.9145
1733.22	0.9088
1741.67	0.8841
1750.11	0.8857
1758.56	0.9089
1767.01	0.922
1775.45	0.9166
1783.9	0.9134
1792.34	0.907
1800.79	0.8597
1809.24	0.8325
1817.68	0.8867
1826.13	0.9005
1834.57	0.92
1843.02	0.9197
1851.47	0.9125
1859.91	0.8977
1868.36	0.8436
1876.8	0.8634
1885.25	0.8693
1893.7	0.9004
1902.14	0.9182
1910.59	0.92
1919.03	0.9179
1927.48	0.9077
1935.92	0.8788
1944.37	0.797
1952.82	0.8405
1961.26	0.8583
1969.71	0.8908
1978.15	0.918
1986.6	0.918
1995.05	0.92
2003.49	0.9221
2011.94	0.925
2020.38	0.925
2028.83	0.9249
2037.28	0.925
2045.72	0.927
2054.17	0.927
2062.61	0.927
2071.06	0.927
2079.51	0.927
2087.95	0.927
2096.4	0.927
2104.84	0.927
2113.29	0.927
2121.74	0.927
2130.18	0.925
2138.63	0.9229
2147.07	0.922
2155.52	0.9201
2163.97	0.92
2172.41	0.9219
2180.86	0.92
2189.3	0.92
2197.75	0.92
2206.2	0.92
2214.64	0.92
2223.09	0.9201
2231.53	0.92
2239.98	0.92
2248.42	0.92
2256.87	0.918
2265.32	0.918
2273.76	0.918
2282.21	0.917
2290.65	0.9149
2299.1	0.913
2307.55	0.913
2315.99	0.908
2324.44	0.9129
2332.88	0.9079
2341.33	0.9081
2349.78	0.912
2358.22	0.912
2366.67	0.913
2375.11	0.915
2383.56	0.915
2392.01	0.915
2400.45	0.915
2408.9	0.915
2417.34	0.917
2425.79	0.9171
2434.24	0.918
2442.68	0.918
2451.13	0.918
2459.57	0.918
2468.02	0.918
2476.47	0.918
2484.91	0.918
2493.36	0.918
2501.8	0.9169
2510.25	0.913
2518.69	0.913
2527.14	0.9129
2535.59	0.908
2544.03	0.907
2552.48	0.9049
2560.92	0.902
2569.37	0.9
2577.82	0.8979
2586.26	0.895
2594.71	0.895
2603.15	0.888
2611.6	0.888
2620.05	0.888
2628.49	0.8799
2636.94	0.876
2645.38	0.8709
2653.83	0.869
2662.28	0.8659
2670.72	0.864
2679.17	0.8661
2687.61	0.8751
2696.06	0.8801
2704.51	0.881
2712.95	0.8779
2721.4	0.8688
2729.84	0.8559
2738.29	0.8491
2746.74	0.8591
2755.18	0.864
2763.63	0.8609
2772.07	0.8557
2780.52	0.8389
2788.97	0.8137
2797.41	0.7979
2805.86	0.7796
2814.3	0.7477
2822.75	0.7135
2831.19	0.6466
2839.64	0.5304
2848.09	0.3581
2856.53	0.1126
2864.98	0.032
2873.42	0.0682
2881.87	0.0834
2890.32	0.2311
2898.76	0.1962
2907.21	0.1076
2915.65	0.0612
2924.1	0.0208
2932.55	0.016
2940.99	0.016
2949.44	0.0233
2957.88	0.0326
2966.33	0.02
2974.78	0.0507
2983.22	0.3132
2991.67	0.5124
3000.11	0.5737
3008.56	0.5405
3017.01	0.5485
3025.45	0.3582
3033.9	0.145
3042.34	0.3278
3050.79	0.5868
3059.24	0.5486
3067.68	0.3659
3076.13	0.5086
3084.57	0.5744
3093.02	0.4564
3101.46	0.7581
3109.91	0.744
3118.36	0.8064
3126.8	0.8594
3135.25	0.8801
3143.69	0.883
3152.14	0.885
3160.59	0.883
3169.03	0.8811
3177.48	0.8932
3185.92	0.896
3194.37	0.898
3202.82	0.9
3211.26	0.9021
3219.71	0.9051
3228.15	0.908
3236.6	0.908
3245.05	0.91
3253.49	0.91
3261.94	0.91
3270.38	0.91
3278.83	0.912
3287.28	0.912
3295.72	0.912
3304.17	0.912
3312.61	0.9119
3321.06	0.91
3329.51	0.91
3337.95	0.91
3346.4	0.9099
3354.84	0.908
3363.29	0.908
3371.74	0.908
3380.18	0.908
3388.63	0.908
3397.07	0.907
3405.52	0.907
3413.96	0.907
3422.41	0.907
3430.86	0.9069
3439.3	0.903
3447.75	0.903
3456.19	0.902
3464.64	0.902
3473.09	0.9
3481.53	0.9
3489.98	0.9
3498.42	0.9
3506.87	0.9
3515.32	0.9001
3523.76	0.902
3532.21	0.903
3540.65	0.905
3549.1	0.903
3557.55	0.903
3565.99	0.903
3574.44	0.9
3582.88	0.8999
3591.33	0.9
3599.78	0.8999
3608.22	0.898
3616.67	0.896
3625.11	0.896
3633.56	0.896
3642.01	0.893
3650.45	0.893
3658.9	0.895
3667.34	0.895
3675.79	0.896
3684.23	0.896
3692.68	0.8959
3701.13	0.895
3709.57	0.893
3718.02	0.895
3726.46	0.895
3734.91	0.895
3743.36	0.895
3751.8	0.895
3760.25	0.896
3768.69	0.896
3777.14	0.896
3785.59	0.895
3794.03	0.895
3802.48	0.891
3810.92	0.891
3819.37	0.891
3827.82	0.891
3836.26	0.891
3844.71	0.891
3853.15	0.891
3861.6	0.891
3870.05	0.8929
3878.49	0.891
3886.94	0.891
3895.38	0.891
3903.83	0.893
3912.28	0.8911
3920.72	0.891
3929.17	0.891
3937.61	0.8929
