Infrared Spectrum: BENZYL ETHYL ETHER
Formula: C9 H12 O
CAS: 539-30-0
State: LIQUID
Boiling point: 74-77 C AT 12 mmHg
Class: COBLENTZ
Instrument: Not specified, most likely a prism, grating, or hybrid spectrometer.
Sampling: TRANSMISSION
Path length: 0.003 CM
Resolution: 4
Origin: WYANDOTTE CHEMICALS CORP., WYANDOTTE, MICHIGAN, USA
MICROMETERS	TRANSMITTANCE
2.036	0.981
2.07589	0.973
2.11579	0.98
2.15568	0.975
2.19557	0.968
2.23546	0.963
2.27536	0.965
2.31525	0.963
2.35514	0.948
2.39504	0.931
2.43493	0.931
2.47482	0.95
2.51472	0.955
2.55461	0.968
2.5945	0.97
2.63439	0.968
2.67429	0.963
2.71418	0.945
2.75407	0.913
2.79397	0.878
2.83386	0.805
2.87375	0.748
2.91365	0.702
2.95354	0.65
2.99343	0.602
3.03332	0.579
3.07322	0.643
3.11311	0.708
3.153	0.748
3.1929	0.738
3.23279	0.522
3.27268	0.462
3.31258	0.287
3.35247	0.376
3.39236	0.322
3.43225	0.242
3.47215	0.163
3.51204	0.412
3.55193	0.59
3.59183	0.715
3.63172	0.778
3.67161	0.815
3.71151	0.883
3.7514	0.9
3.79129	0.893
3.83118	0.895
3.87108	0.923
3.91097	0.936
3.95086	0.936
3.99076	0.931
4.03065	0.935
4.07054	0.94
4.11044	0.941
4.15033	0.938
4.19022	0.953
4.23011	0.963
4.27001	0.968
4.3099	0.973
4.34979	0.973
4.38969	0.963
4.42958	0.965
4.46947	0.96
4.50937	0.948
4.54926	0.961
4.58915	0.96
4.62904	0.965
4.66894	0.966
4.70883	0.963
4.74872	0.953
4.78862	0.953
4.82851	0.966
4.8684	0.966
4.9083	0.961
4.94819	0.953
4.98808	0.953
5.02797	0.943
5.06787	0.916
5.10776	0.886
5.14765	0.868
5.18755	0.908
5.22744	0.921
5.26733	0.916
5.30723	0.908
5.34712	0.903
5.38701	0.925
5.4269	0.935
5.4668	0.915
5.50669	0.883
5.54658	0.91
5.58648	0.925
5.62637	0.916
5.66626	0.891
5.70616	0.846
5.74605	0.57
5.78594	0.464
5.82583	0.417
5.86573	0.622
5.90562	0.793
5.94551	0.86
5.98541	0.868
6.0253	0.866
6.06519	0.878
6.10509	0.865
6.14498	0.775
6.18487	0.768
6.22476	0.75
6.26466	0.871
6.30455	0.896
6.34444	0.901
6.38434	0.893
6.42423	0.885
6.46412	0.888
6.50402	0.89
6.54391	0.87
6.5838	0.758
6.62369	0.432
6.66359	0.613
6.70348	0.687
6.74337	0.638
6.78327	0.417
6.82316	0.191
6.86305	0.434
6.90295	0.58
6.94284	0.653
6.98273	0.645
7.02262	0.55
7.06252	0.555
7.10241	0.489
7.1423	0.482
7.1822	0.399
7.22209	0.261
7.26198	0.447
7.30188	0.367
7.34177	0.291
7.38166	0.547
7.42155	0.6
7.46145	0.569
7.50134	0.544
7.54123	0.45
7.58113	0.412
7.62102	0.485
7.66091	0.532
7.70081	0.502
7.7407	0.429
7.78059	0.332
7.82048	0.405
7.86038	0.5
7.90027	0.487
7.94016	0.532
7.98006	0.577
8.01995	0.603
8.05984	0.633
8.09974	0.66
8.13963	0.647
8.17952	0.535
8.21941	0.425
8.25931	0.322
8.2992	0.504
8.33909	0.635
8.37899	0.66
8.41888	0.567
8.45877	0.42
8.49867	0.417
8.53856	0.464
8.57845	0.469
8.61834	0.517
8.65824	0.54
8.69813	0.499
8.73802	0.392
8.77792	0.261
8.81781	0.116
8.8577	0.046
8.8976	0.029
8.93749	0.029
8.97738	0.029
9.01727	0.033
9.05717	0.033
9.09706	0.043
9.13695	0.086
9.17685	0.103
9.21674	0.091
9.25663	0.069
9.29653	0.123
9.33642	0.221
9.37631	0.331
9.4162	0.417
9.4561	0.459
9.49599	0.489
9.53588	0.51
9.57578	0.505
9.61567	0.402
9.65556	0.221
9.69546	0.287
9.73535	0.354
9.77524	0.361
9.81513	0.367
9.85503	0.372
9.89492	0.389
9.93481	0.419
9.97471	0.474
10.0146	0.509
10.0545	0.525
10.0944	0.54
10.1343	0.564
10.1742	0.589
10.2141	0.608
10.254	0.632
10.2939	0.648
10.3337	0.68
10.3736	0.697
10.4135	0.73
10.4534	0.745
10.4933	0.757
10.5332	0.763
10.5731	0.772
10.613	0.77
10.6529	0.76
10.6928	0.755
10.7327	0.743
10.7726	0.727
10.8125	0.693
10.8524	0.663
10.8922	0.642
10.9321	0.633
10.972	0.627
11.0119	0.633
11.0518	0.643
11.0917	0.663
11.1316	0.672
11.1715	0.653
11.2114	0.63
11.2513	0.643
11.2912	0.662
11.3311	0.677
11.371	0.693
11.4109	0.738
11.4507	0.763
11.4906	0.78
11.5305	0.783
11.5704	0.787
11.6103	0.773
11.6502	0.732
11.6901	0.672
11.73	0.605
11.7699	0.564
11.8098	0.589
11.8497	0.623
11.8896	0.642
11.9295	0.678
11.9694	0.702
12.0092	0.695
12.0491	0.667
12.089	0.675
12.1289	0.705
12.1688	0.718
12.2087	0.713
12.2486	0.71
12.2885	0.7
12.3284	0.687
12.3683	0.673
12.4082	0.655
12.4481	0.642
12.488	0.587
12.5279	0.525
12.5678	0.475
12.6076	0.432
12.6475	0.417
12.6874	0.43
12.7273	0.465
12.7672	0.497
12.8071	0.53
12.847	0.55
12.8869	0.557
12.9268	0.544
12.9667	0.507
13.0066	0.474
13.0465	0.414
13.0864	0.367
13.1263	0.331
13.1661	0.286
13.206	0.236
13.2459	0.188
13.2858	0.149
13.3257	0.109
13.3656	0.101
13.4055	0.094
13.4454	0.094
13.4853	0.093
13.5252	0.089
13.5651	0.091
13.605	0.126
13.6449	0.178
13.6848	0.261
13.7246	0.374
13.7645	0.45
13.8044	0.487
13.8443	0.494
13.8842	0.465
13.9241	0.405
13.964	0.344
14.0039	0.326
14.0438	0.342
14.0837	0.367
14.1236	0.369
14.1635	0.339
14.2034	0.279
14.2433	0.207
14.2831	0.146
14.323	0.111
14.3629	0.101
14.4028	0.151
14.4427	0.239
14.4826	0.364
14.5225	0.464
14.5624	0.532
14.6023	0.572
14.6422	0.64
14.6821	0.68
14.722	0.713
14.7619	0.718
14.8018	0.723
14.8417	0.727
14.8815	0.727
14.9214	0.727
14.9613	0.728
15.0012	0.737
15.0411	0.75
15.081	0.765
15.1209	0.767
15.1608	0.763
15.2007	0.758
15.2406	0.765
15.2805	0.753
15.3204	0.737
15.3603	0.72
15.4002	0.7
15.44	0.698
15.4799	0.697
15.5198	0.705
15.5597	0.713
15.5996	0.717
15.6395	0.723
15.6794	0.737
15.7193	0.738
15.7592	0.738
15.7991	0.743
15.839	0.735
15.8789	0.733
15.9188	0.727
15.9587	0.725
