Infrared Spectrum: CARBONIC ACID, DI-ISOBUTYL ESTER
Formula: C9 H18 O3
CAS: 539-92-4
State: SOLUTION (10% CCl4 FOR 3800-1335, 10% CS2 FOR 1335-450 CM^-^1)
Boiling point: 189 C
Class: COBLENTZ III
Instrument: DOW KBr FOREPRISM-GRATING
Instrument parameters: BLAZED AT 3.5, 12.0, 20.0 MICRON AND CHANGED AT 5.0, 7.5, 14.9 MICRON
Sampling: TRANSMISSION
Path length: 0.011 CM, 0.011 CM
Resolution: 2
Origin: DOW CHEMICAL COMPANY
1/CM	TRANSMITTANCE
450	0.8402
459	0.8518
468	0.8656
477	0.8745
486	0.8816
495	0.8901
504	0.8977
513	0.9016
522	0.901
531	0.9085
540	0.9139
549	0.918
558	0.9206
567	0.9231
576	0.9254
585	0.9267
594	0.919
603	0.9116
612	0.9155
621	0.9207
630	0.9157
639	0.9016
648	0.8725
657	0.8717
666	0.9057
675	0.8989
684	0.9004
693	0.8991
702	0.898
711	0.8938
720	0.8984
729	0.9021
738	0.9043
747	0.9005
756	0.8873
765	0.8565
774	0.7987
783	0.4409
792	0.3222
801	0.7104
810	0.8137
819	0.7297
828	0.811
837	0.8144
846	0.776
855	0.7291
864	0.7334
873	0.7494
882	0.7665
891	0.7478
900	0.6831
909	0.6245
918	0.5574
927	0.4548
936	0.3666
945	0.441
954	0.3914
963	0.3632
972	0.1534
981	0.0067
990	0.2079
999	0.6471
1008	0.7541
1017	0.7637
1026	0.8206
1035	0.8562
1044	0.8612
1053	0.8681
1062	0.8637
1071	0.837
1080	0.789
1089	0.7089
1098	0.7349
1107	0.7458
1116	0.7735
1125	0.7741
1134	0.7841
1143	0.7921
1152	0.7633
1161	0.7148
1170	0.5954
1179	0.5095
1188	0.6778
1197	0.6791
1206	0.6024
1215	0.4472
1224	0.2965
1233	0.0772
1242	0.0097
1251	0.0043
1260	0.0044
1269	0.007
1278	0.0277
1287	0.0358
1296	0.1962
1305	0.0524
1314	0.5502
1323	0.6221
1332	0.6068
1341	0.4868
1350	0.3814
1359	0.6353
1368	0.4701
1377	0.2507
1386	0.1553
1395	0.2328
1404	0.0464
1413	0.5542
1422	0.6494
1431	0.6824
1440	0.6593
1449	0.4279
1458	0.2514
1467	0.1292
1476	0.164
1485	0.579
1494	0.648
1503	0.6504
1512	0.6276
1521	0.601
1530	0.5641
1539	0.4968
1548	0.4229
1557	0.4383
1566	0.5006
1575	0.5403
1584	0.5495
1593	0.6292
1602	0.7165
1611	0.7654
1620	0.785
1629	0.7939
1638	0.7957
1647	0.7928
1656	0.7814
1665	0.7665
1674	0.7467
1683	0.7214
1692	0.6756
1701	0.5557
1710	0.4318
1719	0.3562
1728	0.0966
1737	0.0008
1746	0.0011
1755	0.0042
1764	0.2375
1773	0.4548
1782	0.6461
1791	0.6978
1800	0.7268
1809	0.7434
1818	0.7535
1827	0.7782
1836	0.8042
1845	0.8192
1854	0.8291
1863	0.8349
1872	0.8396
1881	0.8443
1890	0.849
1899	0.8507
1908	0.8525
1917	0.8553
1926	0.8557
1935	0.8537
1944	0.8513
1953	0.8507
1962	0.8534
1971	0.8575
1980	0.8604
1989	0.8594
1998	0.858
2007	0.8721
2016	0.8695
2025	0.866
2034	0.8642
2043	0.8625
2052	0.8612
2061	0.8633
2070	0.8659
2079	0.8682
2088	0.8692
2097	0.8687
2106	0.8717
2115	0.8724
2124	0.8712
2133	0.8707
2142	0.8727
2151	0.8721
2160	0.8698
2169	0.8673
2178	0.8644
2187	0.8606
2196	0.8568
2205	0.853
2214	0.8493
2223	0.8489
2232	0.849
2241	0.8545
2250	0.8573
2259	0.858
2268	0.8562
2277	0.8527
2286	0.8497
2295	0.8477
2304	0.8539
2313	0.8548
2322	0.8528
2331	0.8512
2340	0.8506
2349	0.8511
2358	0.8521
2367	0.8535
2376	0.8557
2385	0.858
2394	0.861
2403	0.8668
2412	0.8742
2421	0.8756
2430	0.8751
2439	0.8745
2448	0.874
2457	0.8735
2466	0.8733
2475	0.8728
2484	0.8707
2493	0.8668
2502	0.8608
2511	0.8617
2520	0.8649
2529	0.8689
2538	0.8725
2547	0.8745
2556	0.8755
2565	0.8743
2574	0.8707
2583	0.8635
2592	0.8634
2601	0.8706
2610	0.8728
2619	0.8678
2628	0.8625
2637	0.859
2646	0.8641
2655	0.8668
2664	0.858
2673	0.857
2682	0.8591
2691	0.8589
2700	0.8555
2709	0.8514
2718	0.8321
2727	0.8071
2736	0.8234
2745	0.8337
2754	0.8359
2763	0.8368
2772	0.8364
2781	0.8336
2790	0.8255
2799	0.8135
2808	0.7954
2817	0.78
2826	0.7719
2835	0.7505
2844	0.7172
2853	0.656
2862	0.582
2871	0.2773
2880	0.1492
2889	0.2845
2898	0.2041
2907	0.2281
2916	0.2429
2925	0.2017
2934	0.1196
2943	0.0984
2952	0.0235
2961	0.0043
2970	0.0089
2979	0.0621
2988	0.2547
2997	0.5809
3006	0.7195
3015	0.7618
3024	0.7887
3033	0.8075
3042	0.8244
3051	0.8383
3060	0.846
3069	0.8512
3078	0.8545
3087	0.8565
3096	0.8562
3105	0.8552
3114	0.8533
3123	0.8516
3132	0.8499
3141	0.8485
3150	0.8473
3159	0.8465
3168	0.8467
3177	0.8468
3186	0.8499
3195	0.8531
3204	0.8563
3213	0.8593
3222	0.8625
3231	0.8656
3240	0.8688
3249	0.8707
3258	0.8716
3267	0.8718
3276	0.8723
3285	0.873
3294	0.8737
3303	0.8743
3312	0.8745
3321	0.8745
3330	0.8737
3339	0.8724
3348	0.8712
3357	0.8723
3366	0.872
3375	0.8671
3384	0.8663
3393	0.8665
3402	0.8668
3411	0.8671
3420	0.8675
3429	0.8675
3438	0.8659
3447	0.8631
3456	0.8573
3465	0.8532
3474	0.857
3483	0.8652
3492	0.8744
3501	0.8804
3510	0.8823
3519	0.8821
3528	0.8818
3537	0.8809
3546	0.8796
3555	0.8786
3564	0.8833
3573	0.8728
3582	0.8805
3591	0.8775
3600	0.877
3609	0.8815
3618	0.887
3627	0.8901
3636	0.8907
3645	0.8891
3654	0.8849
3663	0.8806
3672	0.8764
3681	0.8743
3690	0.8821
3699	0.8909
3708	0.8934
3717	0.8938
3726	0.8933
3735	0.8921
3744	0.8902
3753	0.8881
3762	0.8867
3771	0.8855
3780	0.8846
3789	0.8847
3798	0.8847
