Infrared Spectrum: 2-METHOXY-1-NAPHTHALDEHYDE
Formula: C12 H10 O2
CAS: 5392-12-1
State: SOLID (1.0% IN KBr PELLET)
Class: COBLENTZ
Instrument: Not specified, most likely a prism, grating, or hybrid spectrometer.
Sampling: TRANSMISSION
Path length: 0.0355 CM
Resolution: 4
Origin: ANDERSON PHYSICAL LABORATORY
1/CM	TRANSMITTANCE
668.329	0.723
676.745	0.743
685.162	0.723
693.578	0.668
701.995	0.5481
710.411	0.641
718.828	0.752
727.244	0.762
735.661	0.716
744.077	0.632
752.494	0.466
760.91	0.3837
769.327	0.758
777.743	0.689
786.16	0.782
794.576	0.719
802.993	0.5851
811.409	0.2821
819.825	0.5148
828.242	0.747
836.658	0.752
845.075	0.731
853.491	0.6211
861.908	0.5597
870.324	0.78
878.741	0.788
887.157	0.783
895.574	0.774
903.99	0.765
912.407	0.741
920.823	0.723
929.24	0.678
937.656	0.669
946.072	0.735
954.489	0.714
962.905	0.665
971.322	0.68
979.738	0.671
988.155	0.653
996.571	0.644
1004.99	0.623
1013.4	0.588
1021.82	0.521
1030.24	0.5149
1038.65	0.597
1047.07	0.528
1055.49	0.43
1063.9	0.274
1072.32	0.388
1080.74	0.418
1089.15	0.459
1097.57	0.6959
1105.99	0.671
1114.4	0.62
1122.82	0.564
1131.23	0.5
1139.65	0.4
1148.07	0.226
1156.48	0.216
1164.9	0.522
1173.32	0.459
1181.73	0.4228
1190.15	0.627
1198.57	0.65
1206.98	0.587
1215.4	0.483
1223.82	0.471
1232.23	0.471
1240.65	0.4
1249.07	0.229
1257.48	0.2371
1265.9	0.4661
1274.31	0.3009
1282.73	0.6169
1291.15	0.7909
1299.56	0.845
1307.98	0.816
1316.4	0.749
1324.81	0.704
1333.23	0.626
1341.65	0.46
1350.06	0.3879
1358.48	0.561
1366.9	0.493
1375.31	0.453
1383.73	0.6359
1392.15	0.728
1400.56	0.651
1408.98	0.603
1417.39	0.528
1425.81	0.483
1434.23	0.457
1442.64	0.375
1451.06	0.519
1459.48	0.4321
1467.89	0.373
1476.31	0.3989
1484.73	0.674
1493.14	0.599
1501.56	0.495
1509.98	0.34
1518.39	0.325
1526.81	0.6389
1535.23	0.702
1543.64	0.654
1552.06	0.638
1560.47	0.504
1568.89	0.441
1577.31	0.439
1585.72	0.417
1594.14	0.315
1602.56	0.4659
1610.97	0.465
1619.39	0.328
1627.81	0.406
1636.22	0.397
1644.64	0.354
1653.06	0.196
1661.47	0.148
1669.89	0.211
1678.31	0.435
1686.72	0.6989
1695.14	0.792
1703.55	0.852
1711.97	0.852
1720.39	0.852
1728.8	0.852
1737.22	0.848
1745.64	0.839
1754.05	0.836
1762.47	0.824
1770.89	0.824
1779.3	0.821
1787.72	0.804
1796.14	0.798
1804.55	0.788
1812.97	0.782
1821.39	0.776
1829.8	0.776
1838.22	0.774
1846.63	0.761
1855.05	0.756
1863.47	0.755
1871.88	0.753
1880.3	0.747
1888.72	0.738
1897.13	0.726
1905.55	0.726
1913.97	0.725
1922.38	0.723
1930.8	0.722
1939.22	0.719
1947.63	0.716
1956.05	0.702
1964.47	0.704
1972.88	0.704
1981.3	0.701
1989.71	0.708
1998.13	0.705
2006.55	0.7055
2014.96	0.705
2023.38	0.704
2031.8	0.702
2040.21	0.701
2048.63	0.699
2057.05	0.6892
2065.46	0.6814
2073.88	0.6716
2082.3	0.663
2090.71	0.6614
2099.13	0.66
2107.55	0.66
2115.96	0.659
2124.38	0.6567
2132.79	0.6518
2141.21	0.6502
2149.63	0.6498
2158.04	0.6446
2166.46	0.6414
2174.88	0.639
2183.29	0.6389
2191.71	0.638
2200.13	0.6354
2208.54	0.6294
2216.96	0.629
2225.38	0.627
2233.79	0.6263
2242.21	0.624
2250.63	0.623
2259.04	0.6206
2267.46	0.618
2275.87	0.6112
2284.29	0.6085
2292.71	0.6041
2301.12	0.602
2309.54	0.597
2317.96	0.5878
2326.37	0.587
2334.79	0.587
2343.21	0.585
2351.62	0.585
2360.04	0.584
2368.46	0.5825
2376.87	0.579
2385.29	0.578
2393.71	0.578
2402.12	0.578
2410.54	0.578
2418.95	0.5774
2427.37	0.5755
2435.79	0.5734
2444.2	0.573
2452.62	0.5691
2461.04	0.5618
2469.45	0.5584
2477.87	0.555
2486.29	0.555
2494.7	0.554
2503.12	0.5523
2511.54	0.551
2519.95	0.551
2528.37	0.5484
2536.79	0.548
2545.2	0.5478
2553.62	0.5449
2562.03	0.5408
2570.45	0.539
2578.87	0.5369
2587.28	0.536
2595.7	0.534
2604.12	0.5331
2612.53	0.533
2620.95	0.533
2629.37	0.5317
2637.78	0.5301
2646.2	0.5235
2654.62	0.516
2663.03	0.5136
2671.45	0.5072
2679.87	0.504
2688.28	0.5021
2696.7	0.5003
2705.11	0.5
2713.53	0.498
2721.95	0.498
2730.36	0.4938
2738.78	0.4871
2747.2	0.471
2755.61	0.4655
2764.03	0.4605
2772.45	0.457
2780.86	0.454
2789.28	0.4535
2797.7	0.4507
2806.11	0.441
2814.53	0.4379
2822.95	0.4325
2831.36	0.432
2839.78	0.4321
2848.19	0.4353
2856.61	0.4407
2865.03	0.4465
2873.44	0.4501
2881.86	0.451
2890.28	0.4488
2898.69	0.4445
2907.11	0.442
2915.53	0.4427
2923.94	0.445
2932.36	0.4535
2940.78	0.4572
2949.19	0.459
2957.61	0.4577
2966.03	0.457
2974.44	0.4569
2982.86	0.456
2991.27	0.4567
2999.69	0.4597
3008.11	0.462
3016.52	0.463
3024.94	0.463
3033.36	0.463
3041.77	0.463
3050.19	0.463
3058.61	0.463
3067.02	0.463
3075.44	0.465
3083.86	0.465
3092.27	0.466
3100.69	0.466
3109.11	0.466
3117.52	0.4655
3125.94	0.4635
3134.35	0.462
3142.77	0.459
3151.19	0.458
3159.6	0.457
3168.02	0.453
3176.44	0.451
3184.85	0.45
3193.27	0.448
3201.69	0.4419
3210.1	0.439
3218.52	0.439
3226.94	0.4382
3235.35	0.4359
3243.77	0.435
3252.19	0.433
3260.6	0.4303
3269.02	0.427
3277.43	0.4267
3285.85	0.424
3294.27	0.4231
3302.68	0.4228
3311.1	0.4206
3319.52	0.4181
3327.93	0.4144
3336.35	0.4119
3344.77	0.4086
3353.18	0.4054
3361.6	0.4032
3370.02	0.3998
3378.43	0.3966
3386.85	0.394
3395.27	0.393
3403.68	0.3908
3412.1	0.39
3420.51	0.39
3428.93	0.39
3437.35	0.388
3445.76	0.388
3454.18	0.3894
3462.6	0.391
3471.01	0.393
3479.43	0.394
3487.85	0.3955
3496.26	0.396
3504.68	0.396
3513.1	0.396
3521.51	0.396
3529.93	0.396
3538.35	0.399
3546.76	0.4031
3555.18	0.4103
3563.59	0.414
3572.01	0.414
3580.43	0.415
3588.84	0.415
3597.26	0.417
3605.68	0.418
3614.09	0.418
3622.51	0.418
3630.93	0.4182
3639.34	0.42
3647.76	0.42
3656.18	0.421
3664.59	0.423
3673.01	0.423
3681.43	0.4204
3689.84	0.42
3698.26	0.42
3706.67	0.4215
3715.09	0.426
3723.51	0.427
3731.92	0.4239
3740.34	0.4218
3748.76	0.4187
3757.17	0.4124
3765.59	0.4077
3774.01	0.406
3782.42	0.4107
3790.84	0.4169
3799.26	0.42
3807.67	0.4162
3816.09	0.4096
3824.51	0.4061
3832.92	0.403
3841.34	0.4025
3849.75	0.4027
3858.17	0.405
3866.59	0.403
3875	0.402
3883.42	0.4
3891.84	0.4
3900.25	0.4035
3908.67	0.405
3917.09	0.4035
3925.5	0.403
3933.92	0.4014
3942.34	0.4
3950.75	0.4028
3959.17	0.403
3967.59	0.402
3976	0.4009
3984.42	0.399
3992.83	0.3956
