Infrared Spectrum: CITRAL
Formula: C10 H16 O
CAS: 5392-40-5
State: SOLUTION (10% IN CCl4 FOR 4000-1330 CM^-^1, 10% IN CS2 FOR 1360-600 CM^-^1)
Boiling point: 114 C AT 25 mmHg
Class: COBLENTZ III
Instrument: BECKMAN IR-7 (GRATING)
Instrument parameters: GRATING CHANGES AT 3000, 2200, 1150 CM^-^1
Sampling: TRANSMISSION
Path length: 0.010 CM, 0.011 CM
Resolution: 4
Origin: WESTERN REGIONAL RES. USDA
1/CM	TRANSMITTANCE
600	0.768
608.497	0.799
616.993	0.828
625.49	0.838
633.987	0.839
642.484	0.821
650.98	0.794
659.477	0.82
667.974	0.839
676.471	0.834
684.967	0.851
693.464	0.842
701.961	0.834
710.458	0.837
718.954	0.845
727.451	0.826
735.948	0.81
744.445	0.793
752.941	0.803
761.438	0.812
769.935	0.825
778.432	0.831
786.928	0.798
795.425	0.765
803.922	0.715
812.418	0.633
820.915	0.597
829.412	0.608
837.909	0.504
846.405	0.486
854.902	0.544
863.399	0.567
871.896	0.662
880.392	0.705
888.889	0.732
897.386	0.778
905.883	0.819
914.379	0.821
922.876	0.814
931.373	0.812
939.87	0.798
948.366	0.799
956.863	0.785
965.36	0.739
973.857	0.694
982.353	0.636
990.85	0.686
999.347	0.731
1007.84	0.75
1016.34	0.745
1024.84	0.724
1033.33	0.671
1041.83	0.661
1050.33	0.737
1058.82	0.787
1067.32	0.779
1075.82	0.783
1084.31	0.724
1092.81	0.626
1101.31	0.569
1109.8	0.518
1118.3	0.329
1126.8	0.5939
1135.29	0.72
1143.79	0.682
1152.29	0.496
1160.78	0.66
1169.28	0.69
1177.78	0.512
1186.28	0.402
1194.77	0.4
1203.27	0.674
1211.77	0.728
1220.26	0.732
1228.76	0.743
1237.26	0.768
1245.75	0.792
1254.25	0.795
1262.75	0.81
1271.24	0.808
1279.74	0.804
1288.24	0.8
1296.73	0.763
1305.23	0.759
1313.73	0.747
1322.22	0.716
1330.72	0.703
1339.22	0.698
1347.71	0.678
1356.21	0.645
1364.71	0.604
1373.2	0.426
1381.7	0.275
1390.2	0.487
1398.69	0.469
1407.19	0.563
1415.69	0.584
1424.18	0.548
1432.68	0.409
1441.18	0.248
1449.67	0.252
1458.17	0.343
1466.67	0.495
1475.16	0.639
1483.66	0.688
1492.16	0.691
1500.65	0.676
1509.15	0.645
1517.65	0.617
1526.14	0.582
1534.64	0.53
1543.14	0.453
1551.63	0.426
1560.13	0.459
1568.63	0.517
1577.13	0.538
1585.62	0.54
1594.12	0.555
1602.62	0.531
1611.11	0.356
1619.61	0.434
1628.11	0.364
1636.6	0.221
1645.1	0.394
1653.6	0.434
1662.09	0.266
1670.59	0.015
1679.09	0
1687.58	0.033
1696.08	0.263
1704.58	0.477
1713.07	0.595
1721.57	0.617
1730.07	0.588
1738.56	0.686
1747.06	0.744
1755.56	0.786
1764.05	0.805
1772.55	0.812
1781.05	0.817
1789.54	0.819
1798.04	0.821
1806.54	0.817
1815.03	0.817
1823.53	0.819
1832.03	0.821
1840.52	0.825
1849.02	0.827
1857.52	0.827
1866.01	0.831
1874.51	0.834
1883.01	0.835
1891.5	0.836
1900	0.837
1908.5	0.836
1916.99	0.837
1925.49	0.838
1933.99	0.838
1942.48	0.838
1950.98	0.837
1959.48	0.836
1967.98	0.835
1976.47	0.834
1984.97	0.835
1993.47	0.836
2001.96	0.837
2010.46	0.837
2018.96	0.837
2027.45	0.836
2035.95	0.836
2044.45	0.837
2052.94	0.838
2061.44	0.838
2069.94	0.838
2078.43	0.838
2086.93	0.838
2095.43	0.838
2103.92	0.838
2112.42	0.838
2120.92	0.838
2129.41	0.838
2137.91	0.838
2146.41	0.8389
2154.9	0.8391
2163.4	0.84
2171.9	0.84
2180.39	0.84
2188.89	0.8389
2197.39	0.837
2205.88	0.8354
2214.38	0.834
2222.88	0.8319
2231.37	0.83
2239.87	0.8306
2248.37	0.8318
2256.86	0.833
2265.36	0.8333
2273.86	0.8334
2282.35	0.833
2290.85	0.8319
2299.35	0.831
2307.84	0.831
2316.34	0.831
2324.84	0.83
2333.33	0.829
2341.83	0.83
2350.33	0.831
2358.83	0.832
2367.32	0.834
2375.82	0.8355
2384.32	0.836
2392.81	0.838
2401.31	0.838
2409.81	0.8395
2418.3	0.84
2426.8	0.84
2435.3	0.841
2443.79	0.842
2452.29	0.842
2460.79	0.842
2469.28	0.842
2477.78	0.8406
2486.28	0.84
2494.77	0.839
2503.27	0.8392
2511.77	0.84
2520.26	0.84
2528.76	0.841
2537.26	0.841
2545.75	0.841
2554.25	0.841
2562.75	0.84
2571.24	0.84
2579.74	0.84
2588.24	0.84
2596.73	0.8391
2605.23	0.838
2613.73	0.8376
2622.22	0.836
2630.72	0.8351
2639.22	0.833
2647.71	0.8307
2656.21	0.8248
2664.71	0.8193
2673.2	0.8159
2681.7	0.8087
2690.2	0.7922
2698.69	0.7668
2707.19	0.7156
2715.69	0.6646
2724.18	0.6235
2732.68	0.607
2741.18	0.6201
2749.68	0.6209
2758.17	0.5903
2766.67	0.6047
2775.17	0.6391
2783.66	0.671
2792.16	0.7015
2800.66	0.6763
2809.15	0.5902
2817.65	0.5509
2826.15	0.5113
2834.64	0.4686
2843.14	0.3647
2851.64	0.2974
2860.13	0.2399
2868.63	0.2539
2877.13	0.2983
2885.62	0.3306
2894.12	0.3388
2902.62	0.3288
2911.11	0.2762
2919.61	0.1876
2928.11	0.166
2936.6	0.174
2945.1	0.2148
2953.6	0.2686
2962.09	0.2922
2970.59	0.2283
2979.09	0.208
2987.58	0.257
2996.08	0.3104
3004.58	0.4746
3013.07	0.5777
3021.57	0.5981
3030.07	0.613
3038.56	0.614
3047.06	0.6839
3055.56	0.7027
3064.05	0.7229
3072.55	0.7493
3081.05	0.7653
3089.54	0.7794
3098.04	0.7896
3106.54	0.7971
3115.04	0.8034
3123.53	0.8101
3132.03	0.8143
3140.53	0.8181
3149.02	0.8225
3157.52	0.828
3166.02	0.83
3174.51	0.8315
3183.01	0.833
3191.51	0.834
3200	0.835
3208.5	0.835
3217	0.8343
3225.49	0.834
3233.99	0.834
3242.49	0.833
3250.98	0.833
3259.48	0.833
3267.98	0.832
3276.47	0.831
3284.97	0.83
3293.47	0.8271
3301.96	0.8175
3310.46	0.8131
3318.96	0.81
3327.45	0.8051
3335.95	0.7973
3344.45	0.7914
3352.94	0.7986
3361.44	0.8116
3369.94	0.8223
3378.43	0.8284
3386.93	0.83
3395.43	0.831
3403.92	0.832
3412.42	0.832
3420.92	0.8314
3429.41	0.8301
3437.91	0.829
3446.41	0.827
3454.9	0.8254
3463.4	0.825
3471.9	0.824
3480.39	0.823
3488.89	0.823
3497.39	0.8222
3505.89	0.821
3514.38	0.821
3522.88	0.821
3531.38	0.821
3539.87	0.822
3548.37	0.823
3556.87	0.825
3565.36	0.8268
3573.86	0.829
3582.36	0.8313
3590.85	0.834
3599.35	0.836
3607.85	0.837
3616.34	0.838
3624.84	0.8365
3633.34	0.8367
3641.83	0.8399
3650.33	0.842
3658.83	0.8411
3667.32	0.8393
3675.82	0.835
3684.32	0.8262
3692.81	0.823
3701.31	0.8301
3709.81	0.8349
3718.3	0.8382
3726.8	0.84
3735.3	0.8427
3743.79	0.844
3752.29	0.8439
3760.79	0.843
3769.28	0.842
3777.78	0.841
3786.28	0.8399
3794.77	0.839
3803.27	0.8384
3811.77	0.838
3820.26	0.837
3828.76	0.836
3837.26	0.8366
3845.75	0.837
3854.25	0.838
3862.75	0.838
3871.24	0.838
3879.74	0.838
3888.24	0.839
3896.74	0.84
3905.23	0.839
3913.73	0.8382
3922.23	0.838
3930.72	0.836
3939.22	0.8355
3947.72	0.8342
3956.21	0.834
3964.71	0.834
3973.21	0.836
3981.7	0.8368
3990.2	0.838
