Infrared Spectrum: N-(4-Bromobutyl)phthalimide
Formula: C12 H12 Br N O2
CAS: 5394-18-3
State: SOLID (SPLIT MULL), FLUOROLUBE FOR 3800-1330 CM^-^1, NUJOL FOR 1330-460 CM^-^1
Melting point: 77 C
Class: COBLENTZ III
Instrument: DOW KBr FOREPRISM-GRATING
Instrument parameters: BLAZED AT 3.5, 12.0, 20.0 MICRON AND CHANGED AT 5.0, 7.5, 14.9 MICRON
Sampling: TRANSMISSION
Resolution: 2
Origin: DOW CHEMICAL COMPANY
1/CM	TRANSMITTANCE
3800	0.7365
3791	0.7372
3782	0.7382
3773	0.7392
3764	0.7401
3755	0.7408
3746	0.7414
3737	0.7418
3728	0.7422
3719	0.7425
3710	0.7428
3701	0.7431
3692	0.7438
3683	0.7444
3674	0.7448
3665	0.7451
3656	0.7454
3647	0.7455
3638	0.7454
3629	0.7453
3620	0.7453
3611	0.7445
3602	0.7434
3593	0.7421
3584	0.7411
3575	0.7398
3566	0.7386
3557	0.7371
3548	0.7357
3539	0.7339
3530	0.7319
3521	0.7299
3512	0.7269
3503	0.725
3494	0.7232
3485	0.7215
3476	0.7187
3467	0.7155
3458	0.7005
3449	0.706
3440	0.7108
3431	0.7135
3422	0.7139
3413	0.7142
3404	0.7147
3395	0.7158
3386	0.7171
3377	0.7183
3368	0.7195
3359	0.721
3350	0.7225
3341	0.724
3332	0.7255
3323	0.7268
3314	0.7281
3305	0.7292
3296	0.7303
3287	0.7314
3278	0.7326
3269	0.7342
3260	0.7358
3251	0.7374
3242	0.7386
3233	0.7391
3224	0.7397
3215	0.7401
3206	0.7408
3197	0.7414
3188	0.7419
3179	0.7425
3170	0.7436
3161	0.7446
3152	0.7456
3143	0.7465
3134	0.7475
3125	0.7485
3116	0.7495
3107	0.7504
3098	0.7512
3089	0.7521
3080	0.7531
3071	0.7539
3062	0.7548
3053	0.7554
3044	0.7561
3035	0.7564
3026	0.7564
3017	0.7565
3008	0.7567
2999	0.7572
2990	0.7517
2981	0.7324
2972	0.7118
2963	0.7135
2954	0.6808
2945	0.6469
2936	0.6564
2927	0.675
2918	0.6971
2909	0.7194
2900	0.7298
2891	0.7394
2882	0.7421
2873	0.7389
2864	0.736
2855	0.7378
2846	0.7449
2837	0.7532
2828	0.7625
2819	0.7738
2810	0.7757
2801	0.7751
2792	0.7753
2783	0.7744
2774	0.7753
2765	0.7814
2756	0.7844
2747	0.7851
2738	0.7853
2729	0.7858
2720	0.7865
2711	0.7871
2702	0.7876
2693	0.7882
2684	0.7887
2675	0.7891
2666	0.7897
2657	0.7901
2648	0.7906
2639	0.7908
2630	0.7912
2621	0.793
2612	0.7956
2603	0.7981
2594	0.8006
2585	0.8028
2576	0.805
2567	0.8056
2558	0.8061
2549	0.8068
2540	0.8071
2531	0.8071
2522	0.8069
2513	0.8069
2504	0.8065
2495	0.8058
2486	0.8051
2477	0.8051
2468	0.8056
2459	0.806
2450	0.8065
2441	0.8065
2432	0.8062
2423	0.8058
2414	0.8051
2405	0.8044
2396	0.8034
2387	0.8021
2378	0.801
2369	0.7997
2360	0.7982
2351	0.7961
2342	0.793
2333	0.7898
2324	0.7875
2315	0.7868
2306	0.7872
2297	0.7876
2288	0.7881
2279	0.7887
2270	0.791
2261	0.7944
2252	0.7976
2243	0.8021
2234	0.8068
2225	0.8117
2216	0.8171
2207	0.8199
2198	0.8223
2189	0.8246
2180	0.8267
2171	0.8287
2162	0.8313
2153	0.834
2144	0.8364
2135	0.8383
2126	0.8404
2117	0.8423
2108	0.8443
2099	0.8465
2090	0.8489
2081	0.8512
2072	0.8537
2063	0.8557
2054	0.8575
2045	0.8592
2036	0.8608
2027	0.8623
2018	0.8627
2009	0.8621
2000	0.8553
1991	0.8551
1982	0.8571
1973	0.8598
1964	0.8625
1955	0.8575
1946	0.8599
1937	0.8615
1928	0.8612
1919	0.8607
1910	0.8609
1901	0.8615
1892	0.8588
1883	0.8548
1874	0.8578
1865	0.8601
1856	0.8558
1847	0.8473
1838	0.8535
1829	0.8545
1820	0.8515
1811	0.8443
1802	0.8327
1793	0.8068
1784	0.7668
1775	0.6608
1766	0.4121
1757	0.7208
1748	0.7468
1739	0.6911
1730	0.5054
1721	0.0292
1712	0.1203
1703	0.1975
1694	0.5927
1685	0.6762
1676	0.7278
1667	0.7901
1658	0.8195
1649	0.8247
1640	0.8285
1631	0.8337
1622	0.8072
1613	0.7599
1604	0.7908
1595	0.8143
1586	0.8255
1577	0.8343
1568	0.842
1559	0.8404
1550	0.8358
1541	0.8407
1532	0.8431
1523	0.8396
1514	0.8378
1505	0.8385
1496	0.842
1487	0.8398
1478	0.8331
1469	0.5519
1460	0.665
1451	0.7596
1442	0.6475
1433	0.531
1424	0.7382
1415	0.6645
1406	0.479
1397	0.3307
1388	0.6495
1379	0.5541
1370	0.5352
1361	0.4762
1352	0.6692
1343	0.6854
1334	0.6404
1325	0.7176
1316	0.7749
1307	0.7198
1298	0.7297
1289	0.7231
1280	0.7493
1271	0.7735
1262	0.7311
1253	0.6921
1244	0.8038
1235	0.8259
1226	0.8333
1217	0.7608
1208	0.8065
1199	0.8246
1190	0.7836
1181	0.7428
1172	0.8096
1163	0.8114
1154	0.7754
1145	0.8021
1136	0.8275
1127	0.8311
1118	0.8213
1109	0.8011
1100	0.8277
1091	0.7548
1082	0.7294
1073	0.7951
1064	0.7356
1055	0.7664
1046	0.7408
1037	0.7935
1028	0.7194
1019	0.644
1010	0.7711
1001	0.7761
992	0.7768
983	0.7533
974	0.8031
965	0.8134
956	0.7976
947	0.7658
938	0.8165
929	0.8187
920	0.8124
911	0.8058
902	0.8221
893	0.7146
884	0.7934
875	0.8342
866	0.837
857	0.8325
848	0.8168
839	0.8299
830	0.8335
821	0.838
812	0.8361
803	0.7934
794	0.8069
785	0.8157
776	0.8045
767	0.8248
758	0.827
749	0.8071
740	0.7465
731	0.763
722	0.2762
713	0.4894
704	0.7926
695	0.8203
686	0.8386
677	0.8425
668	0.8413
659	0.8405
650	0.8385
641	0.8211
632	0.8187
623	0.8142
614	0.7885
605	0.8128
596	0.8131
587	0.8184
578	0.8149
569	0.7175
560	0.7265
551	0.7708
542	0.7555
533	0.6235
524	0.7638
515	0.7871
506	0.786
497	0.784
488	0.7845
479	0.7851
470	0.7862
