Infrared Spectrum: NICOTINE
Formula: C10 H14 N2
CAS: 54-11-5
State: LIQUID
Boiling point: 115-117 C AT 12 mmHg
Class: COBLENTZ
Instrument: Not specified, most likely a prism, grating, or hybrid spectrometer.
Sampling: TRANSMISSION
Path length: 0.005 CM
Resolution: 4
Origin: WYANDOTTE CHEMICALS CORP., WYANDOTTE, MICHIGAN, USA
MICROMETERS	TRANSMITTANCE
2.034	0.974
2.07494	0.938
2.11587	0.948
2.15681	0.918
2.19774	0.821
2.23868	0.858
2.27961	0.85
2.32055	0.846
2.36148	0.809
2.40242	0.778
2.44335	0.835
2.48429	0.862
2.52523	0.88
2.56616	0.896
2.6071	0.914
2.64803	0.914
2.68897	0.899
2.7299	0.877
2.77084	0.848
2.81177	0.761
2.85271	0.721
2.89364	0.666
2.93458	0.649
2.97551	0.646
3.01645	0.704
3.05739	0.738
3.09832	0.724
3.13926	0.695
3.18019	0.646
3.22113	0.586
3.26206	0.241
3.303	0.091
3.34393	0.035
3.38487	0.025
3.4258	0.027
3.46674	0.039
3.50768	0.039
3.54861	0.028
3.58955	0.028
3.63048	0.039
3.67142	0.188
3.71235	0.263
3.75329	0.209
3.79422	0.518
3.83516	0.581
3.87609	0.613
3.91703	0.62
3.95796	0.661
3.9989	0.702
4.03984	0.724
4.08077	0.761
4.12171	0.768
4.16264	0.785
4.20358	0.797
4.24451	0.784
4.28545	0.792
4.32638	0.801
4.36732	0.811
4.40825	0.823
4.44919	0.831
4.49013	0.807
4.53106	0.812
4.572	0.799
4.61293	0.829
4.65387	0.835
4.6948	0.846
4.73574	0.845
4.77667	0.829
4.81761	0.831
4.85854	0.831
4.89948	0.831
4.94041	0.836
4.98135	0.846
5.02229	0.831
5.06322	0.819
5.10416	0.765
5.14509	0.755
5.18603	0.741
5.22696	0.671
5.2679	0.659
5.30883	0.7
5.34977	0.736
5.3907	0.753
5.43164	0.785
5.47258	0.804
5.51351	0.836
5.55445	0.84
5.59538	0.828
5.63632	0.814
5.67725	0.787
5.71819	0.751
5.75912	0.736
5.80006	0.751
5.84099	0.715
5.88193	0.639
5.92286	0.637
5.9638	0.653
6.00474	0.675
6.04567	0.664
6.08661	0.661
6.12754	0.67
6.16848	0.647
6.20941	0.517
6.25035	0.139
6.29128	0.049
6.33222	0.355
6.37315	0.537
6.41409	0.642
6.45503	0.656
6.49596	0.653
6.5369	0.619
6.57783	0.588
6.61877	0.539
6.6597	0.42
6.70064	0.095
6.74157	0.037
6.78251	0.061
6.82344	0.044
6.86438	0.032
6.90531	0.062
6.94625	0.047
6.98719	0.032
7.02812	0.039
7.06906	0.2
7.10999	0.397
7.15093	0.45
7.19186	0.474
7.2328	0.459
7.27373	0.268
7.31467	0.056
7.3556	0.112
7.39654	0.125
7.43748	0.1
7.47841	0.306
7.51935	0.178
7.56028	0.035
7.60122	0.037
7.64215	0.154
7.68309	0.27
7.72402	0.193
7.76496	0.198
7.80589	0.287
7.84683	0.29
7.88776	0.239
7.9287	0.176
7.96964	0.134
8.01057	0.1
8.05151	0.1
8.09244	0.074
8.13338	0.044
8.17431	0.027
8.21525	0.025
8.25618	0.032
8.29712	0.04
8.33805	0.047
8.37899	0.034
8.41993	0.034
8.46086	0.047
8.5018	0.04
8.54273	0.069
8.58367	0.071
8.6246	0.044
8.66554	0.051
8.70647	0.107
8.74741	0.219
8.78834	0.287
8.82928	0.239
8.87021	0.17
8.91115	0.088
8.95209	0.073
8.99302	0.086
9.03396	0.074
9.07489	0.151
9.11583	0.187
9.15676	0.12
9.1977	0.124
9.23863	0.256
9.27957	0.399
9.3205	0.462
9.36144	0.448
9.40238	0.396
9.44331	0.278
9.48425	0.088
9.52518	0.032
9.56612	0.023
9.60705	0.047
9.64799	0.112
9.68892	0.091
9.72986	0.027
9.77079	0.035
9.81173	0.096
9.85266	0.226
9.8936	0.375
9.93454	0.486
9.97547	0.527
10.0164	0.545
10.0573	0.544
10.0983	0.522
10.1392	0.505
10.1801	0.498
10.2211	0.44
10.262	0.328
10.303	0.258
10.3439	0.311
10.3848	0.433
10.4258	0.511
10.4667	0.53
10.5076	0.498
10.5486	0.45
10.5895	0.447
10.6304	0.501
10.6714	0.513
10.7123	0.472
10.7532	0.377
10.7942	0.265
10.8351	0.178
10.8761	0.154
10.917	0.215
10.9579	0.217
10.9989	0.127
11.0398	0.047
11.0807	0.039
11.1217	0.04
11.1626	0.059
11.2035	0.103
11.2445	0.163
11.2854	0.232
11.3263	0.294
11.3673	0.362
11.4082	0.416
11.4491	0.464
11.4901	0.501
11.531	0.528
11.572	0.551
11.6129	0.574
11.6538	0.588
11.6948	0.596
11.7357	0.6
11.7766	0.596
11.8176	0.585
11.8585	0.569
11.8994	0.552
11.9404	0.532
11.9813	0.503
12.0222	0.464
12.0632	0.425
12.1041	0.367
12.145	0.294
12.186	0.217
12.2269	0.141
12.2679	0.079
12.3088	0.045
12.3497	0.037
12.3907	0.028
12.4316	0.027
12.4725	0.028
12.5135	0.035
12.5544	0.062
12.5953	0.119
12.6363	0.188
12.6772	0.263
12.7181	0.311
12.7591	0.348
12.8	0.369
12.841	0.391
12.8819	0.399
12.9228	0.404
12.9638	0.409
13.0047	0.414
13.0456	0.433
13.0866	0.443
13.1275	0.462
13.1684	0.484
13.2094	0.511
13.2503	0.534
13.2912	0.549
13.3322	0.566
13.3731	0.568
13.414	0.568
13.455	0.568
13.4959	0.562
13.5369	0.539
13.5778	0.518
13.6187	0.481
13.6597	0.442
13.7006	0.365
13.7415	0.272
13.7825	0.166
13.8234	0.09
13.8643	0.052
13.9053	0.049
13.9462	0.049
13.9871	0.049
14.0281	0.051
14.069	0.054
14.1099	0.074
14.1509	0.117
14.1918	0.173
14.2328	0.236
14.2737	0.295
14.3146	0.352
14.3556	0.406
14.3965	0.45
14.4374	0.494
14.4784	0.53
14.5193	0.559
14.5602	0.576
14.6012	0.588
14.6421	0.607
14.683	0.613
14.724	0.62
14.7649	0.625
14.8059	0.627
14.8468	0.629
14.8877	0.63
14.9287	0.629
14.9696	0.62
15.0105	0.6
15.0515	0.59
15.0924	0.578
15.1333	0.569
15.1743	0.561
15.2152	0.547
15.2561	0.539
15.2971	0.532
15.338	0.523
15.3789	0.515
15.4199	0.511
15.4608	0.506
15.5018	0.505
15.5427	0.503
15.5836	0.501
15.6246	0.5
15.6655	0.5
15.7064	0.498
15.7474	0.494
15.7883	0.491
15.8292	0.491
15.8702	0.491
15.9111	0.493
15.952	0.493
15.993	0.493
