Infrared Spectrum: 9-Heptadecanone
Formula: C17 H34 O
CAS: 540-08-9
State: SOLUTION (10% CCl4 FOR 3800-1340, 10% CS2 FOR 1340-465 CM^-^1) VS SOLVENT
Melting point: 50 C
Class: COBLENTZ III
Instrument: DOW KBr FOREPRISM-GRATING
Instrument parameters: BLAZED AT 3.5, 12.0, 20.0 MICRON AND CHANGED AT 5.0, 7.5, 14.9 MICRON
Sampling: TRANSMISSION
Path length: 0.011 CM, 0.011 CM
Resolution: 2
Origin: DOW CHEMICAL COMPANY
1/CM	TRANSMITTANCE
3800	0.8432
3791	0.8433
3782	0.8435
3773	0.8436
3764	0.8438
3755	0.8439
3746	0.844
3737	0.8443
3728	0.8448
3719	0.8462
3710	0.8467
3701	0.8458
3692	0.8442
3683	0.8424
3674	0.8428
3665	0.8434
3656	0.8446
3647	0.8458
3638	0.847
3629	0.8481
3620	0.8492
3611	0.8497
3602	0.8503
3593	0.8505
3584	0.8504
3575	0.8503
3566	0.8501
3557	0.8502
3548	0.8504
3539	0.8505
3530	0.8507
3521	0.8505
3512	0.8502
3503	0.85
3494	0.8499
3485	0.8498
3476	0.8495
3467	0.8483
3458	0.8467
3449	0.8435
3440	0.8371
3431	0.8303
3422	0.8249
3413	0.8231
3404	0.8234
3395	0.827
3386	0.8305
3377	0.8332
3368	0.8394
3359	0.8371
3350	0.8387
3341	0.8399
3332	0.8408
3323	0.8417
3314	0.8425
3305	0.8433
3296	0.8431
3287	0.8428
3278	0.8427
3269	0.8425
3260	0.8423
3251	0.8412
3242	0.8397
3233	0.8378
3224	0.836
3215	0.834
3206	0.8328
3197	0.832
3188	0.8312
3179	0.8305
3170	0.8298
3161	0.829
3152	0.8275
3143	0.8259
3134	0.8244
3125	0.8228
3116	0.8266
3107	0.8192
3098	0.8167
3089	0.8125
3080	0.8078
3071	0.8004
3062	0.7905
3053	0.7778
3044	0.7618
3035	0.7476
3026	0.7307
3017	0.7045
3008	0.6651
2999	0.6285
2990	0.42
2981	0.2729
2972	0.1053
2963	0.0333
2954	0.0264
2945	0.0208
2936	0.0167
2927	0.0137
2918	0.0152
2909	0.0337
2900	0.1037
2891	0.167
2882	0.1785
2873	0.1019
2864	0.0395
2855	0.036
2846	0.3368
2837	0.5554
2828	0.628
2819	0.6771
2810	0.7085
2801	0.7356
2792	0.7585
2783	0.7768
2774	0.7884
2765	0.7971
2756	0.8019
2747	0.8001
2738	0.7945
2729	0.7957
2720	0.8011
2711	0.8057
2702	0.8078
2693	0.8065
2684	0.8047
2675	0.8031
2666	0.8053
2657	0.8091
2648	0.8128
2639	0.8169
2630	0.8216
2621	0.8261
2612	0.8304
2603	0.8337
2594	0.837
2585	0.84
2576	0.842
2567	0.844
2558	0.8461
2549	0.8475
2540	0.8488
2531	0.85
2522	0.8513
2513	0.8528
2504	0.8544
2495	0.856
2486	0.8568
2477	0.8575
2468	0.8581
2459	0.8586
2450	0.8591
2441	0.8596
2432	0.8596
2423	0.8592
2414	0.8589
2405	0.8585
2396	0.8577
2387	0.8568
2378	0.856
2369	0.8553
2360	0.8559
2351	0.8571
2342	0.8606
2333	0.8637
2324	0.8658
2315	0.8677
2306	0.8694
2297	0.8708
2288	0.8721
2279	0.8728
2270	0.8734
2261	0.874
2252	0.8746
2243	0.8757
2234	0.8768
2225	0.878
2216	0.8791
2207	0.8799
2198	0.8801
2189	0.8807
2180	0.8818
2171	0.8815
2162	0.8813
2153	0.8818
2144	0.8824
2135	0.8832
2126	0.885
2117	0.8863
2108	0.8873
2099	0.8883
2090	0.8887
2081	0.8884
2072	0.8882
2063	0.8878
2054	0.8871
2045	0.8871
2036	0.8871
2027	0.8874
2018	0.8884
2009	0.8907
2000	0.8928
1991	0.8899
1982	0.8888
1973	0.8878
1964	0.8875
1955	0.8882
1946	0.8888
1937	0.8893
1928	0.8894
1919	0.8895
1910	0.8883
1901	0.8871
1892	0.8864
1883	0.8857
1874	0.8851
1865	0.8845
1856	0.884
1847	0.8839
1838	0.884
1829	0.8837
1820	0.8823
1811	0.8802
1802	0.8763
1793	0.8705
1784	0.8628
1775	0.8556
1766	0.8455
1757	0.8196
1748	0.7885
1739	0.6617
1730	0.253
1721	0.0434
1712	0.1629
1703	0.6064
1694	0.7588
1685	0.7883
1676	0.8068
1667	0.83
1658	0.8475
1649	0.8585
1640	0.8671
1631	0.8731
1622	0.8778
1613	0.8812
1604	0.884
1595	0.8891
1586	0.8939
1577	0.8965
1568	0.9025
1559	0.9067
1550	0.9089
1541	0.9074
1532	0.8963
1523	0.8842
1514	0.8701
1505	0.8544
1496	0.8348
1487	0.806
1478	0.6764
1469	0.2372
1460	0.2923
1451	0.513
1442	0.5999
1433	0.6894
1424	0.6908
1415	0.5635
1406	0.6104
1397	0.7534
1388	0.7408
1379	0.4762
1370	0.5027
1361	0.5623
1352	0.631
1343	0.6864
1334	0.7306
1325	0.7557
1316	0.7537
1307	0.7414
1298	0.7368
1289	0.7508
1280	0.7665
1271	0.7921
1262	0.8111
1253	0.7986
1244	0.8111
1235	0.8257
1226	0.8365
1217	0.8323
1208	0.822
1199	0.809
1190	0.7994
1181	0.8
1172	0.8171
1163	0.8308
1154	0.8286
1145	0.8069
1136	0.7211
1127	0.74
1118	0.8119
1109	0.8675
1100	0.8635
1091	0.8193
1082	0.7599
1073	0.7439
1064	0.7869
1055	0.8194
1046	0.8371
1037	0.8463
1028	0.8375
1019	0.8334
1010	0.8316
1001	0.8368
992	0.851
983	0.8663
974	0.8727
965	0.8737
956	0.8759
947	0.8783
938	0.8817
929	0.8852
920	0.8852
911	0.8809
902	0.8804
893	0.8821
884	0.8861
875	0.8828
866	0.8828
857	0.8984
848	0.9113
839	0.9068
830	0.9027
821	0.9023
812	0.9023
803	0.9017
794	0.9032
785	0.9014
776	0.8866
767	0.8717
758	0.873
749	0.8599
740	0.8405
731	0.7937
722	0.6799
713	0.8241
704	0.8727
695	0.8988
686	0.9065
677	0.9107
668	0.9121
659	0.911
650	0.9005
641	0.9016
632	0.899
623	0.9024
614	0.908
605	0.9127
596	0.9168
587	0.9191
578	0.9196
569	0.92
560	0.92
551	0.9195
542	0.9192
533	0.919
524	0.9193
515	0.9196
506	0.9197
497	0.9194
488	0.9195
479	0.9199
470	0.9206
