Infrared Spectrum: ISOOCTANE
Formula: C8 H18
CAS: 540-84-1
State: GAS (16 mmHg DILUTED TO A TOTAL PRESSURE OF 600 mmHg WITH N2)
Class: COBLENTZ
Instrument: DIGILAB FTS-14 (2 CM^-^1 RESOLUTION)
Sampling: TRANSMISSION
Path length: 10 CM
Resolution: 4
Origin: DOW CHEMICAL COMPANY
1/CM	TRANSMITTANCE
407.855	0.001
414.959	0
422.063	0
429.167	0
436.27	0.001
443.374	0.001
450.478	0.002
457.582	0
464.686	0
471.79	0.001
478.893	0.002
485.997	0.002
493.101	0.001
500.205	0.001
507.309	0.002
514.413	0.005
521.516	0.006
528.62	0.015
535.724	0.023
542.828	0.03
549.932	0.044
557.036	0.068
564.139	0.086
571.243	0.122
578.347	0.152
585.451	0.193
592.555	0.22
599.659	0.277
606.762	0.313
613.866	0.361
620.97	0.42
628.074	0.454
635.178	0.508
642.282	0.547
649.385	0.6
656.489	0.634
663.593	0.668
670.697	0.709
677.801	0.741
684.905	0.773
692.008	0.797
699.112	0.816
706.216	0.84
713.32	0.858
720.424	0.872
727.528	0.891
734.631	0.901
741.735	0.908
748.839	0.915
755.943	0.934
763.047	0.948
770.151	0.956
777.254	0.959
784.358	0.968
791.462	0.975
798.566	0.977
805.67	0.979
812.774	0.976
819.877	0.972
826.981	0.969
834.085	0.972
841.189	0.977
848.293	0.981
855.397	0.983
862.5	0.983
869.604	0.979
876.708	0.983
883.812	0.984
890.916	0.994
898.02	0.998
905.123	0.987
912.227	0.979
919.331	0.969
926.435	0.952
933.539	0.941
940.643	0.965
947.746	0.986
954.85	0.993
961.954	0.986
969.058	0.969
976.162	0.904
983.266	0.854
990.369	0.876
997.473	0.965
1004.58	0.991
1011.68	0.99
1018.78	0.991
1025.89	0.994
1032.99	0.995
1040.1	0.994
1047.2	0.991
1054.3	0.987
1061.41	0.993
1068.51	0.995
1075.62	0.994
1082.72	0.99
1089.82	0.983
1096.93	0.973
1104.03	0.965
1111.13	0.962
1118.24	0.968
1125.34	0.969
1132.45	0.975
1139.55	0.983
1146.65	0.983
1153.76	0.979
1160.86	0.955
1167.97	0.887
1175.07	0.791
1182.17	0.795
1189.28	0.9
1196.38	0.909
1203.48	0.843
1210.59	0.734
1217.69	0.736
1224.8	0.843
1231.9	0.926
1239	0.926
1246.11	0.83
1253.21	0.727
1260.32	0.75
1267.42	0.8679
1274.52	0.931
1281.63	0.909
1288.73	0.886
1295.83	0.879
1302.94	0.893
1310.04	0.913
1317.15	0.929
1324.25	0.94
1331.35	0.945
1338.46	0.943
1345.56	0.923
1352.66	0.854
1359.77	0.627
1366.87	0.344
1373.98	0.187
1381.08	0.266
1388.18	0.47
1395.29	0.531
1402.39	0.487
1409.5	0.6089
1416.6	0.868
1423.7	0.901
1430.81	0.9
1437.91	0.872
1445.01	0.815
1452.12	0.709
1459.22	0.572
1466.33	0.404
1473.43	0.254
1480.53	0.218
1487.64	0.2999
1494.74	0.508
1501.85	0.777
1508.95	0.884
1516.05	0.933
1523.16	0.941
1530.26	0.947
1537.36	0.951
1544.47	0.951
1551.57	0.955
1558.68	0.951
1565.78	0.947
1572.88	0.943
1579.99	0.938
1587.09	0.933
1594.2	0.93
1601.3	0.929
1608.4	0.93
1615.51	0.931
1622.61	0.931
1629.71	0.93
1636.82	0.93
1643.92	0.929
1651.03	0.926
1658.13	0.933
1665.23	0.937
1672.34	0.936
1679.44	0.938
1686.55	0.937
1693.65	0.943
1700.75	0.937
1707.86	0.941
1714.96	0.944
1722.06	0.944
1729.17	0.944
1736.27	0.944
1743.38	0.947
1750.48	0.948
1757.58	0.95
1764.69	0.948
1771.79	0.951
1778.9	0.952
1786	0.952
1793.1	0.952
1800.21	0.948
1807.31	0.952
1814.41	0.952
1821.52	0.955
1828.62	0.954
1835.73	0.954
1842.83	0.955
1849.93	0.952
1857.04	0.954
1864.14	0.954
1871.24	0.954
1878.35	0.954
1885.45	0.955
1892.56	0.952
1899.66	0.954
1906.76	0.955
1913.87	0.955
1920.97	0.955
1928.08	0.955
1935.18	0.955
1942.28	0.955
1949.39	0.954
1956.49	0.955
1963.59	0.956
1970.7	0.959
1977.8	0.959
1984.91	0.956
1992.01	0.95
1999.11	0.929
2006.22	0.958
2013.32	0.96
2020.43	0.961
2027.53	0.959
2034.63	0.961
2041.74	0.962
2048.84	0.965
2055.94	0.9669
2063.05	0.968
2070.15	0.968
2077.26	0.969
2084.36	0.969
2091.46	0.969
2098.57	0.969
2105.67	0.968
2112.78	0.9656
2119.88	0.9668
2126.98	0.9694
2134.09	0.97
2141.19	0.972
2148.29	0.9724
2155.4	0.973
2162.5	0.975
2169.61	0.975
2176.71	0.975
2183.81	0.973
2190.92	0.972
2198.02	0.97
2205.13	0.97
2212.23	0.972
2219.33	0.9737
2226.44	0.9777
2233.54	0.9794
2240.64	0.981
2247.75	0.981
2254.85	0.981
2261.96	0.98
2269.06	0.979
2276.16	0.977
2283.27	0.9757
2290.37	0.9743
2297.47	0.973
2304.58	0.9763
2311.68	0.98
2318.79	0.9816
2325.89	0.9807
2332.99	0.98
2340.1	0.983
2347.2	0.983
2354.31	0.98
2361.41	0.976
2368.51	0.975
2375.62	0.973
2382.72	0.973
2389.82	0.972
2396.93	0.97
2404.03	0.969
2411.14	0.9705
2418.24	0.9735
2425.34	0.9752
2432.45	0.977
2439.55	0.977
2446.66	0.977
2453.76	0.977
2460.86	0.9758
2467.97	0.973
2475.07	0.9714
2482.17	0.968
2489.28	0.9692
2496.38	0.9722
2503.49	0.973
2510.59	0.973
2517.69	0.975
2524.8	0.975
2531.9	0.9746
2539.01	0.9728
2546.11	0.97
2553.21	0.969
2560.32	0.966
2567.42	0.9618
2574.52	0.9558
2581.63	0.9508
2588.73	0.9467
2595.84	0.9439
2602.94	0.938
2610.04	0.9339
2617.15	0.93
2624.25	0.929
2631.36	0.927
2638.46	0.9229
2645.56	0.9178
2652.67	0.9132
2659.77	0.919
2666.87	0.92
2673.98	0.9178
2681.08	0.9107
2688.19	0.8997
2695.29	0.8928
2702.39	0.887
2709.5	0.8828
2716.6	0.8715
2723.71	0.8474
2730.81	0.826
2737.91	0.8374
2745.02	0.8611
2752.12	0.8649
2759.22	0.8589
2766.33	0.8611
2773.43	0.865
2780.54	0.868
2787.64	0.8679
2794.74	0.8539
2801.85	0.8367
2808.95	0.8106
2816.05	0.7768
2823.16	0.7288
2830.26	0.6858
2837.37	0.6244
2844.47	0.5159
2851.57	0.4051
2858.68	0.344
2865.78	0.2372
2872.89	0.0721
2879.99	0.0292
2887.09	0.0229
2894.2	0.0369
2901.3	0.0232
2908.4	0.009
2915.51	0.006
2922.61	0.0266
2929.72	0.0515
2936.82	0.0443
2943.92	0.0083
2951.03	0.0021
2958.13	0.001
2965.24	0.001
2972.34	0.001
2979.44	0.0039
2986.55	0.096
2993.65	0.3132
3000.75	0.4546
3007.86	0.5746
3014.96	0.6866
3022.07	0.7507
3029.17	0.7903
3036.27	0.8076
3043.38	0.815
3050.48	0.819
3057.59	0.82
3064.69	0.82
3071.79	0.822
3078.9	0.823
3086	0.826
3093.1	0.8261
3100.21	0.825
3107.31	0.8221
3114.42	0.82
3121.52	0.8151
3128.62	0.812
3135.73	0.8065
3142.83	0.7975
3149.94	0.793
3157.04	0.7883
3164.14	0.7844
3171.25	0.7762
3178.35	0.77
3185.45	0.7682
3192.56	0.768
