Infrared Spectrum: BUTANE, 2,3-DIBROMO-
Formula: C4 H8 Br2
CAS: 5408-86-6
State: SOLUTION (10% IN CCl4 FOR 3800-1333, AND 10% IN CS2 FOR 1333-400 CM^-^1)
Boiling point: 155-157 C
Class: COBLENTZ III
Instrument: DOW KBr FOREPRISM-GRATING
Instrument parameters: BLAZED AT 3.5, 12.0, 20.0 MICRON, CHANGED AT 5.0, 7.5, 14.9 MICRON
Sampling: TRANSMISSION
Path length: 0.011, 0.011 CM
Resolution: 4
Origin: DOW CHEMICAL COMPANY
1/CM	TRANSMITTANCE
380.859	0.62
389.559	0.625
398.26	0.676
406.96	0.823
415.661	0.925
424.361	0.97
433.061	0.986
441.762	0.991
450.462	1.021
459.162	1.023
467.863	1.024
476.563	1.047
485.264	1.048
493.964	1.046
502.664	1.032
511.365	1.046
520.065	1.035
528.766	0.998
537.466	0.794
546.166	0.68
554.867	0.602
563.567	0.861
572.267	0.967
580.968	1.031
589.668	1.036
598.369	1.009
607.069	1.034
615.769	1.029
624.47	1.004
633.17	0.927
641.871	0.933
650.571	0.893
659.271	0.983
667.972	1.002
676.672	1.02
685.372	1.021
694.073	1.023
702.773	1.025
711.474	1.025
720.174	1.021
728.874	1.027
737.575	1.027
746.275	1.025
754.976	1.023
763.676	1.021
772.376	1.017
781.077	1.006
789.777	0.987
798.477	0.991
807.178	0.998
815.878	1.005
824.579	1.001
833.279	0.989
841.979	0.896
850.68	0.855
859.38	0.857
868.081	0.888
876.781	0.918
885.481	0.963
894.182	0.99
902.882	0.995
911.582	1.001
920.283	0.997
928.983	0.997
937.684	0.976
946.384	0.677
955.084	0.801
963.785	0.918
972.485	0.922
981.186	0.942
989.886	0.955
998.586	0.874
1007.29	0.746
1015.99	0.956
1024.69	0.967
1033.39	0.896
1042.09	0.85
1050.79	0.937
1059.49	0.903
1068.19	0.908
1076.89	0.968
1085.59	0.953
1094.29	0.651
1102.99	0.897
1111.69	0.963
1120.39	0.948
1129.09	0.949
1137.79	0.907
1146.49	0.741
1155.19	0.527
1163.89	0.861
1172.59	0.893
1181.29	0.851
1189.99	0.703
1198.7	0.676
1207.4	0.842
1216.1	0.702
1224.8	0.858
1233.5	0.895
1242.2	0.944
1250.9	0.955
1259.6	0.953
1268.3	0.944
1277	0.94
1285.7	0.938
1294.4	0.887
1303.1	0.912
1311.8	0.929
1320.5	0.872
1329.2	0.93
1337.9	0.922
1346.6	0.868
1355.3	0.873
1364	0.868
1372.7	0.776
1381.4	0.579
1390.1	0.866
1398.8	0.914
1407.5	0.912
1416.2	0.892
1424.91	0.866
1433.61	0.78
1442.31	0.559
1451.01	0.487
1459.71	0.684
1468.41	0.839
1477.11	0.876
1485.81	0.872
1494.51	0.855
1503.21	0.81
1511.91	0.757
1520.61	0.708
1529.31	0.658
1538.01	0.561
1546.71	0.489
1555.41	0.502
1564.11	0.593
1572.81	0.655
1581.51	0.673
1590.21	0.721
1598.91	0.797
1607.61	0.855
1616.31	0.882
1625.01	0.903
1633.71	0.912
1642.41	0.923
1651.12	0.918
1659.82	0.917
1668.52	0.914
1677.22	0.91
1685.92	0.906
1694.62	0.9
1703.32	0.889
1712.02	0.869
1720.72	0.884
1729.42	0.912
1738.12	0.925
1746.82	0.936
1755.52	0.944
1764.22	0.942
1772.92	0.952
1781.62	0.957
1790.32	0.96
1799.02	0.96
1807.72	0.963
1816.42	0.964
1825.12	0.961
1833.82	0.961
1842.52	0.957
1851.22	0.961
1859.92	0.961
1868.62	0.96
1877.33	0.964
1886.03	0.961
1894.73	0.96
1903.43	0.961
1912.13	0.963
1920.83	0.963
1929.53	0.96
1938.23	0.961
1946.93	0.961
1955.63	0.967
1964.33	0.959
1973.03	0.956
1981.73	0.952
1990.43	0.946
1999.13	0.948
2007.83	0.936
2016.53	0.94
2025.23	0.938
2033.93	0.9594
2042.63	0.938
2051.33	0.938
2060.03	0.937
2068.73	0.932
2077.43	0.94
2086.13	0.94
2094.83	0.94
2103.54	0.938
2112.24	0.937
2120.94	0.937
2129.64	0.938
2138.34	0.937
2147.04	0.937
2155.74	0.937
2164.44	0.936
2173.14	0.936
2181.84	0.936
2190.54	0.9364
2199.24	0.9366
2207.94	0.937
2216.64	0.9366
2225.34	0.934
2234.04	0.934
2242.74	0.9306
2251.44	0.9281
2260.14	0.9241
2268.84	0.9186
2277.54	0.912
2286.24	0.91
2294.94	0.911
2303.64	0.911
2312.34	0.9116
2321.04	0.911
2329.75	0.91
2338.45	0.907
2347.15	0.9106
2355.85	0.914
2364.55	0.911
2373.25	0.9174
2381.95	0.9224
2390.65	0.9258
2399.35	0.9294
2408.05	0.93
2416.75	0.9306
2425.45	0.93
2434.15	0.931
2442.85	0.931
2451.55	0.9322
2460.25	0.936
2468.95	0.9348
2477.65	0.9364
2486.35	0.936
2495.05	0.9334
2503.75	0.937
2512.45	0.937
2521.15	0.938
2529.85	0.938
2538.55	0.9366
2547.25	0.936
2555.96	0.9374
2564.66	0.938
2573.36	0.9376
2582.06	0.936
2590.76	0.9336
2599.46	0.933
2608.16	0.934
2616.86	0.933
2625.56	0.931
2634.26	0.931
2642.96	0.931
2651.66	0.9307
2660.36	0.929
2669.06	0.929
2677.76	0.929
2686.46	0.929
2695.16	0.926
2703.86	0.9227
2712.56	0.9204
2721.26	0.9147
2729.96	0.911
2738.66	0.911
2747.36	0.915
2756.06	0.915
2764.76	0.914
2773.46	0.912
2782.17	0.9103
2790.87	0.9094
2799.57	0.9014
2808.27	0.8948
2816.97	0.8852
2825.67	0.868
2834.37	0.858
2843.07	0.8451
2851.77	0.8217
2860.47	0.7705
2869.17	0.7119
2877.87	0.7221
2886.57	0.7576
2895.27	0.7439
2903.97	0.7242
2912.67	0.6914
2921.37	0.6305
2930.07	0.5576
2938.77	0.5732
2947.47	0.6569
2956.17	0.6164
2964.87	0.593
2973.57	0.5617
2982.27	0.5252
2990.97	0.5823
2999.67	0.6013
3008.38	0.7582
3017.08	0.8287
3025.78	0.8485
3034.48	0.854
3043.18	0.857
3051.88	0.859
3060.58	0.8595
3069.28	0.862
3077.98	0.862
3086.68	0.8675
3095.38	0.8657
3104.08	0.8682
3112.78	0.8676
3121.48	0.866
3130.18	0.866
3138.88	0.865
3147.58	0.8676
3156.28	0.8676
3164.98	0.869
3173.68	0.868
3182.38	0.8688
3191.08	0.868
3199.78	0.866
3208.48	0.865
3217.18	0.865
3225.88	0.865
3234.59	0.865
3243.29	0.8664
3251.99	0.869
3260.69	0.868
3269.39	0.868
3278.09	0.8682
3286.79	0.868
3295.49	0.868
3304.19	0.869
3312.89	0.869
3321.59	0.8692
3330.29	0.872
3338.99	0.869
3347.69	0.8692
3356.39	0.87
3365.09	0.87
3373.79	0.87
3382.49	0.87
3391.19	0.873
3399.89	0.8722
3408.59	0.8732
3417.29	0.873
3425.99	0.874
3434.69	0.873
3443.39	0.874
3452.09	0.876
3460.8	0.8743
3469.5	0.874
3478.2	0.876
3486.9	0.878
3495.6	0.88
3504.3	0.8811
3513	0.8819
3521.7	0.882
3530.4	0.884
3539.1	0.887
3547.8	0.888
3556.5	0.8892
3565.2	0.8932
3573.9	0.8961
3582.6	0.9
3591.3	0.903
3600	0.9043
3608.7	0.91
3617.4	0.908
3626.1	0.911
3634.8	0.911
3643.5	0.915
3652.2	0.912
3660.9	0.9171
3669.6	0.919
3678.3	0.9208
3687.01	0.9221
3695.71	0.923
3704.41	0.923
3713.11	0.9248
3721.81	0.9231
3730.51	0.9269
3739.21	0.925
3747.91	0.925
3756.61	0.9251
3765.31	0.927
3774.01	0.93
3782.71	0.929
3791.41	0.927
