Infrared Spectrum: Isovaleramide
Formula: C5 H11 N O
CAS: 541-46-8
State: SOLID (SPLIT MULL)
Class: COBLENTZ III
Instrument: DOW KBr FOREPRISM-GRATING
Instrument parameters: BLAZED AT 3.5, 12.0, 20.0 MICRON AND CHANGED AT 5.0, 7.5, 14.9 MICRON
Sampling: TRANSMISSION
Resolution: 2
Origin: DOW CHEMICAL COMPANY
1/CM	TRANSMITTANCE
3800	0.7983
3791	0.7996
3782	0.8011
3773	0.8028
3764	0.8042
3755	0.8056
3746	0.8065
3737	0.8075
3728	0.8084
3719	0.8092
3710	0.8094
3701	0.8096
3692	0.8098
3683	0.8099
3674	0.8099
3665	0.8098
3656	0.8108
3647	0.8118
3638	0.8128
3629	0.8135
3620	0.8142
3611	0.8148
3602	0.8156
3593	0.8167
3584	0.8178
3575	0.819
3566	0.8199
3557	0.8207
3548	0.8209
3539	0.821
3530	0.8201
3521	0.8189
3512	0.8168
3503	0.8133
3494	0.8071
3485	0.7974
3476	0.7838
3467	0.766
3458	0.7426
3449	0.7132
3440	0.665
3431	0.596
3422	0.5114
3413	0.3709
3404	0.2575
3395	0.2122
3386	0.1823
3377	0.1541
3368	0.1392
3359	0.1369
3350	0.1446
3341	0.1645
3332	0.1891
3323	0.2143
3314	0.2328
3305	0.2496
3296	0.2641
3287	0.2748
3278	0.2862
3269	0.2971
3260	0.3022
3251	0.2985
3242	0.2806
3233	0.257
3224	0.2328
3215	0.2117
3206	0.1934
3197	0.1772
3188	0.1754
3179	0.1744
3170	0.192
3161	0.2163
3152	0.242
3143	0.2913
3134	0.3529
3125	0.4026
3116	0.4288
3107	0.4579
3098	0.491
3089	0.5341
3080	0.5706
3071	0.5981
3062	0.6194
3053	0.6373
3044	0.6526
3035	0.6697
3026	0.6811
3017	0.6874
3008	0.6905
2999	0.6807
2990	0.6465
2981	0.5995
2972	0.4094
2963	0.2226
2954	0.293
2945	0.4041
2936	0.385
2927	0.4066
2918	0.4859
2909	0.4979
2900	0.5385
2891	0.5856
2882	0.5214
2873	0.4373
2864	0.5943
2855	0.6537
2846	0.6639
2837	0.6633
2828	0.6465
2819	0.6471
2810	0.665
2801	0.6818
2792	0.6981
2783	0.6987
2774	0.7032
2765	0.7135
2756	0.7282
2747	0.7411
2738	0.7469
2729	0.7518
2720	0.7593
2711	0.7658
2702	0.7701
2693	0.7745
2684	0.7776
2675	0.7808
2666	0.7839
2657	0.7875
2648	0.7917
2639	0.7958
2630	0.7996
2621	0.8011
2612	0.8018
2603	0.8021
2594	0.8024
2585	0.8025
2576	0.8028
2567	0.8031
2558	0.8034
2549	0.8036
2540	0.8039
2531	0.8037
2522	0.8036
2513	0.8024
2504	0.8004
2495	0.7989
2486	0.7986
2477	0.7982
2468	0.7978
2459	0.7971
2450	0.7965
2441	0.796
2432	0.7956
2423	0.7951
2414	0.7951
2405	0.7948
2396	0.7894
2387	0.7803
2378	0.7749
2369	0.7722
2360	0.7704
2351	0.7626
2342	0.7591
2333	0.7569
2324	0.7576
2315	0.7588
2306	0.7614
2297	0.7651
2288	0.7685
2279	0.7708
2270	0.7734
2261	0.778
2252	0.7828
2243	0.7884
2234	0.7938
2225	0.7969
2216	0.7989
2207	0.7996
2198	0.8004
2189	0.8011
2180	0.8024
2171	0.8043
2162	0.8061
2153	0.8081
2144	0.8106
2135	0.8135
2126	0.8165
2117	0.8191
2108	0.8214
2099	0.8236
2090	0.8259
2081	0.8253
2072	0.8259
2063	0.8268
2054	0.8282
2045	0.829
2036	0.8296
2027	0.8301
2018	0.8315
2009	0.833
2000	0.8365
1991	0.846
1982	0.8487
1973	0.8518
1964	0.8563
1955	0.8574
1946	0.8554
1937	0.8539
1928	0.8523
1919	0.8525
1910	0.8523
1901	0.8517
1892	0.8509
1883	0.8496
1874	0.8485
1865	0.8477
1856	0.8464
1847	0.8445
1838	0.8415
1829	0.8385
1820	0.8342
1811	0.8278
1802	0.8213
1793	0.8151
1784	0.8068
1775	0.7978
1766	0.7893
1757	0.7765
1748	0.7611
1739	0.7399
1730	0.7086
1721	0.6588
1712	0.5983
1703	0.5072
1694	0.4062
1685	0.2761
1676	0.2162
1667	0.0698
1658	0.0846
1649	0.1139
1640	0.0819
1631	0.0402
1622	0.0956
1613	0.2481
1604	0.3386
1595	0.4196
1586	0.483
1577	0.5325
1568	0.5657
1559	0.5895
1550	0.6093
1541	0.623
1532	0.63
1523	0.632
1514	0.6316
1505	0.6293
1496	0.6258
1487	0.6183
1478	0.5718
1469	0.3259
1460	0.4121
1451	0.373
1442	0.2857
1433	0.2861
1424	0.2855
1415	0.2092
1406	0.3574
1397	0.4352
1388	0.398
1379	0.4572
1370	0.347
1361	0.4602
1352	0.4583
1343	0.3974
1334	0.3964
1325	0.4707
1316	0.5453
1307	0.5881
1298	0.6197
1289	0.6419
1280	0.6209
1271	0.4649
1262	0.626
1253	0.6839
1244	0.6888
1235	0.6073
1226	0.6138
1217	0.6801
1208	0.7274
1199	0.7546
1190	0.7682
1181	0.7595
1172	0.6756
1163	0.6795
1154	0.4557
1145	0.5292
1136	0.6896
1127	0.7448
1118	0.7348
1109	0.7649
1100	0.7876
1091	0.804
1082	0.8178
1073	0.8297
1064	0.839
1055	0.8449
1046	0.8486
1037	0.8512
1028	0.8515
1019	0.8498
1010	0.8518
1001	0.8481
992	0.8493
983	0.8463
974	0.8396
965	0.8403
956	0.8455
947	0.8499
938	0.8501
929	0.8445
920	0.8521
911	0.8478
902	0.7758
893	0.8315
884	0.8341
875	0.7667
866	0.833
857	0.8455
848	0.8324
839	0.7456
830	0.7978
821	0.7961
812	0.8011
803	0.8115
794	0.8158
785	0.8085
776	0.7974
767	0.7872
758	0.7667
749	0.7368
740	0.6854
731	0.624
722	0.571
713	0.6327
704	0.6493
695	0.6448
686	0.6264
677	0.6142
668	0.611
659	0.6148
650	0.6267
641	0.6428
632	0.6688
623	0.7047
614	0.7453
605	0.7558
596	0.7199
587	0.7472
578	0.7601
569	0.816
560	0.8499
551	0.8705
542	0.8835
533	0.8911
524	0.8946
515	0.893
506	0.8889
497	0.88
488	0.8432
479	0.7778
470	0.7568
461	0.8031
452	0.8427
443	0.8666
434	0.8718
425	0.8686
416	0.8671
407	0.8674
398	0.8687
389	0.8694
380	0.8704
