Infrared Spectrum: BENZENE, 1,3-DICHLORO
Formula: C6 H4 Cl2
CAS: 541-73-1
State: VAPOR (0.5 MICROLITER AT 195 C)
Boiling point: 172 C
Class: COBLENTZ
Instrument: NICOLET FTIR
Instrument parameters: Hg-Cd-Te DETECTOR - TYPE A, DEAD BELOW 680 CM^-^1, LOW S/N 710 - 680
Sampling: TRANSMISSION
Path length: 0.2 CM x 30 CM GOLD-PLATED LIGHT PIPE. HELIUM CARRIER. INTERFEROGRAMS CO-ADDED FOR FULL TRANSIT TIME.
Resolution: 4 CM^-^1
Origin: MONSANTO (JOHN J. FREEMAN)
1/CM	TRANSMITTANCE
709.155	0.952
718.31	0.971
727.465	0.979
736.62	0.98
745.775	0.969
754.93	0.845
764.085	0.5633
773.24	0.1983
782.395	0.087
791.55	0.039
800.705	0.84
809.86	0.916
819.015	0.838
828.17	0.839
837.325	0.883
846.48	0.917
855.635	0.8532
864.79	0.7391
873.945	0.6769
883.1	0.802
892.255	0.961
901.41	0.992
910.565	0.997
919.72	0.998
928.875	0.995
938.03	0.995
947.185	0.99
956.34	0.969
965.495	0.962
974.65	0.98
983.805	0.973
992.96	0.934
1002.11	0.929
1011.27	0.961
1020.42	0.981
1029.58	0.988
1038.73	0.98
1047.89	0.927
1057.04	0.826
1066.2	0.664
1075.35	0.4059
1084.51	0.366
1093.66	0.7209
1102.82	0.748
1111.97	0.714
1121.13	0.558
1130.28	0.578
1139.44	0.795
1148.59	0.952
1157.75	0.962
1166.9	0.978
1176.06	0.988
1185.21	0.983
1194.37	0.961
1203.52	0.955
1212.68	0.956
1221.83	0.98
1230.99	0.994
1240.14	0.971
1249.3	0.932
1258.45	0.934
1267.61	0.988
1276.76	0.955
1285.92	0.917
1295.07	0.945
1304.23	0.987
1313.38	0.985
1322.54	0.941
1331.69	0.938
1340.85	0.986
1350	1
1359.16	0.997
1368.31	0.99
1377.47	0.96
1386.62	0.883
1395.78	0.754
1404.93	0.6261
1414.09	0.613
1423.24	0.695
1432.4	0.87
1441.55	0.872
1450.71	0.7511
1459.86	0.3321
1469.02	0.193
1478.17	0.4262
1487.33	0.766
1496.48	0.783
1505.64	0.809
1514.79	0.945
1523.95	0.973
1533.1	0.956
1542.26	0.932
1551.41	0.841
1560.57	0.614
1569.72	0.2959
1578.88	0.1
1588.03	0.185
1597.19	0.868
1606.34	0.942
1615.5	0.941
1624.65	0.962
1633.81	0.987
1642.96	0.983
1652.12	0.962
1661.27	0.941
1670.43	0.97
1679.58	0.998
1688.74	0.998
1697.89	1.003
1707.05	0.998
1716.2	0.981
1725.36	0.95
1734.51	0.93
1743.67	0.951
1752.82	0.979
1761.98	0.975
1771.13	0.95
1780.29	0.951
1789.44	0.972
1798.6	0.992
1807.75	1.001
1816.91	1
1826.06	0.995
1835.22	0.985
1844.37	0.956
1853.53	0.945
1862.68	0.975
1871.84	0.994
1880.99	1
1890.15	0.997
1899.3	0.987
1908.46	0.971
1917.61	0.961
1926.77	0.954
1935.92	0.963
1945.08	0.985
1954.23	0.995
1963.39	1
1972.54	1.001
1981.7	1.001
1990.85	1.001
2000.01	1.003
2009.16	1.004
2018.32	1.0041
2027.47	1.005
2036.63	1.005
2045.78	1.005
2054.94	1.005
2064.09	1.004
2073.25	1.0036
2082.4	1.003
2091.56	1.005
2100.71	1.005
2109.87	1.004
2119.02	1.0023
2128.18	1.003
2137.33	1.002
2146.49	1.0018
2155.64	1.001
2164.8	1.002
2173.95	1.003
2183.11	1.001
2192.26	1
2201.42	1
2210.57	1.001
2219.73	1.0022
2228.88	1
2238.04	0.9973
2247.19	0.9977
2256.35	1.0026
2265.5	1.0046
2274.66	1.005
2283.81	1.0035
2292.97	1.004
2302.12	1.0013
2311.28	0.997
2320.43	0.995
2329.59	0.995
2338.74	0.995
2347.9	0.9885
2357.05	0.9841
2366.21	0.99
2375.36	0.9959
2384.52	1
2393.67	0.9971
2402.83	0.995
2411.98	0.997
2421.14	1.0014
2430.29	1.0013
2439.45	1.0018
2448.6	1.002
2457.76	1.001
2466.91	1.002
2476.07	1.0014
2485.22	1.0006
2494.38	0.998
2503.53	0.998
2512.69	1
2521.84	1.002
2531	1.002
2540.15	1.0011
2549.31	1.001
2558.46	1
2567.62	0.998
2576.77	0.998
2585.93	0.9996
2595.08	1.002
2604.24	1.0037
2613.39	1.004
2622.55	1.003
2631.7	0.9988
2640.86	0.9975
2650.01	0.994
2659.17	0.996
2668.32	0.9987
2677.48	0.9957
2686.63	0.9915
2695.79	0.988
2704.94	0.9954
2714.1	1
2723.25	1.0011
2732.41	1.001
2741.56	1
2750.72	1.002
2759.87	1.003
2769.03	1.004
2778.18	1.004
2787.34	1.0033
2796.49	1.0003
2805.65	0.9964
2814.8	0.994
2823.96	0.995
2833.11	0.9975
2842.27	0.997
2851.42	0.9974
2860.58	0.998
2869.73	0.998
2878.89	1
2888.04	1
2897.2	1
2906.35	0.9998
2915.51	0.996
2924.66	0.996
2933.82	0.997
2942.97	0.998
2952.13	1.001
2961.28	1
2970.44	1
2979.59	1
2988.75	0.997
2997.9	0.997
3007.06	0.9839
3016.21	0.9785
3025.37	0.9784
3034.52	0.9896
3043.68	0.9927
3052.83	0.9754
3061.99	0.9245
3071.14	0.8484
3080.3	0.802
3089.45	0.8547
3098.61	0.9398
3107.76	0.984
3116.92	0.9948
3126.07	1.0019
3135.23	1.001
3144.38	0.9984
3153.54	0.9963
3162.69	0.994
3171.85	0.9976
3181	1.0036
3190.16	1.005
3199.31	1.004
3208.47	1.005
3217.62	1.005
3226.78	1.005
3235.93	1.006
3245.09	1.005
3254.24	1.005
3263.4	1.005
3272.55	1.005
3281.71	1.004
3290.86	1.006
3300.02	1.006
3309.17	1.0051
3318.33	1.006
3327.48	1.006
3336.64	1.006
3345.79	1.005
3354.95	1.0053
3364.1	1.006
3373.26	1.0064
3382.41	1.006
3391.57	1.006
3400.72	1.006
3409.88	1.007
3419.03	1.0057
3428.19	1.006
3437.34	1.006
3446.5	1.006
3455.65	1.006
3464.81	1.007
3473.96	1.007
3483.12	1.007
3492.27	1.0051
3501.43	1.0051
3510.58	1.004
3519.74	1.0053
3528.89	1.007
3538.05	1.006
3547.2	1.0066
3556.36	1.006
3565.51	1.0095
3574.67	1.006
3583.82	1.0078
3592.98	1.007
3602.13	1.0043
3611.29	1.006
3620.44	1.0092
3629.6	1.007
3638.75	1.003
3647.91	1.009
3657.06	1.005
3666.22	1.002
3675.37	1.0049
3684.53	1.0087
3693.68	1.006
3702.84	1.007
3711.99	1.0046
3721.15	1.0037
3730.3	0.9992
3739.46	1.0036
3748.61	1.005
3757.77	1.0025
3766.92	1.0014
3776.08	1.0034
3785.23	1.0057
3794.39	1.003
3803.54	1.0098
3812.7	1.0065
3821.85	1.0069
3831.01	1.0051
3840.16	1.0098
3849.32	1.0117
3858.47	1.0051
3867.63	0.998
3876.78	1.0022
3885.94	1.0048
3895.09	1.003
3904.25	1.008
3913.4	1.0054
3922.56	1.006
3931.71	1.006
3940.87	1.006
3950.02	1.0056
3959.18	1.006
3968.33	1.007
3977.49	1.006
3986.64	1.0075
3995.8	1.007
4004.95	1.0061
4014.11	1.009
