Infrared Spectrum: VALERONITRILE, Delta-BROMO-
Formula: C5 H8 Br N
CAS: 5414-21-1
State: SOLUTION (10% CCl4 FOR 3800-1335, 10% CS2 FOR 1335-400 CM^-^1)
Boiling point: 111 C AT 12 mmHg
Class: COBLENTZ III
Instrument: DOW KBr FOREPRISM-GRATING
Instrument parameters: BLAZED AT 3.5, 12.0, 20.0 MICRON AND CHANGED AT 5.0, 7.5, 14.9 MICRON
Sampling: TRANSMISSION
Path length: 0.011 CM, 0.011 CM
Resolution: 2
Origin: DOW CHEMICAL COMPANY
1/CM	TRANSMITTANCE
389	0.1779
398	0.2004
407	0.3275
416	0.6091
425	0.7435
434	0.783
443	0.8134
452	0.8318
461	0.8445
470	0.8542
479	0.8633
488	0.8713
497	0.8789
506	0.8821
515	0.8802
524	0.8728
533	0.8558
542	0.8643
551	0.8482
560	0.7742
569	0.6015
578	0.7928
587	0.8743
596	0.8954
605	0.9058
614	0.9063
623	0.9
632	0.8834
641	0.8483
650	0.7569
659	0.7246
668	0.862
677	0.8952
686	0.9039
695	0.9064
704	0.8907
713	0.8968
722	0.8812
731	0.8128
740	0.7191
749	0.7844
758	0.7778
767	0.8086
776	0.8645
785	0.8665
794	0.8466
803	0.8352
812	0.8523
821	0.8711
830	0.874
839	0.8492
848	0.7732
857	0.6498
866	0.6787
875	0.7351
884	0.74
893	0.7986
902	0.8235
911	0.8266
920	0.8186
929	0.8171
938	0.8058
947	0.8172
956	0.8143
965	0.809
974	0.8039
983	0.77
992	0.7535
1001	0.7771
1010	0.7792
1019	0.7835
1028	0.7739
1037	0.7788
1046	0.7842
1055	0.7835
1064	0.781
1073	0.7718
1082	0.7655
1091	0.7744
1100	0.7893
1109	0.7831
1118	0.778
1127	0.781
1136	0.7825
1145	0.7878
1154	0.7894
1163	0.7897
1172	0.7787
1181	0.7698
1190	0.7621
1199	0.7433
1208	0.7249
1217	0.7357
1226	0.6811
1235	0.5362
1244	0.4702
1253	0.2337
1262	0.5474
1271	0.6551
1280	0.6738
1289	0.5773
1298	0.5565
1307	0.6834
1316	0.7114
1325	0.7148
1334	0.7415
1343	0.7786
1352	0.7701
1361	0.751
1370	0.7501
1379	0.7642
1388	0.7815
1397	0.7894
1406	0.7815
1415	0.7558
1424	0.6851
1433	0.4433
1442	0.4624
1451	0.5507
1460	0.4645
1469	0.6234
1478	0.7634
1487	0.7575
1496	0.7417
1505	0.7043
1514	0.6581
1523	0.6091
1532	0.5501
1541	0.488
1550	0.4378
1559	0.4582
1568	0.5295
1577	0.5769
1586	0.5947
1595	0.6329
1604	0.7336
1613	0.7924
1622	0.8111
1631	0.8165
1640	0.8175
1649	0.8171
1658	0.8181
1667	0.8189
1676	0.8065
1685	0.7871
1694	0.8131
1703	0.82
1712	0.8346
1721	0.836
1730	0.8264
1739	0.8245
1748	0.8424
1757	0.8561
1766	0.8606
1775	0.8625
1784	0.8653
1793	0.8675
1802	0.8691
1811	0.8703
1820	0.8713
1829	0.8715
1838	0.8718
1847	0.872
1856	0.8723
1865	0.8725
1874	0.8762
1883	0.8781
1892	0.8789
1901	0.8787
1910	0.8787
1919	0.8794
1928	0.8792
1937	0.8782
1946	0.8788
1955	0.8813
1964	0.8788
1973	0.8768
1982	0.8753
1991	0.8718
2000	0.8618
2009	0.8284
2018	0.8288
2027	0.8289
2036	0.8293
2045	0.8294
2054	0.8296
2063	0.83
2072	0.8304
2081	0.8308
2090	0.8313
2099	0.832
2108	0.8325
2117	0.8331
2126	0.8333
2135	0.8335
2144	0.8336
2153	0.8335
2162	0.8333
2171	0.833
2180	0.8321
2189	0.8314
2198	0.8306
2207	0.8281
2216	0.8257
2225	0.8213
2234	0.8062
2243	0.776
2252	0.5843
2261	0.7482
2270	0.8031
2279	0.8088
2288	0.8119
2297	0.8145
2306	0.8161
2315	0.8228
2324	0.8278
2333	0.828
2342	0.8282
2351	0.8284
2360	0.8287
2369	0.8293
2378	0.83
2387	0.8306
2396	0.8312
2405	0.8313
2414	0.8314
2423	0.8315
2432	0.8317
2441	0.832
2450	0.8324
2459	0.8327
2468	0.833
2477	0.833
2486	0.833
2495	0.833
2504	0.8331
2513	0.8328
2522	0.8325
2531	0.8321
2540	0.8318
2549	0.8313
2558	0.8308
2567	0.8302
2576	0.8298
2585	0.8293
2594	0.8285
2603	0.8273
2612	0.8262
2621	0.8248
2630	0.8235
2639	0.8221
2648	0.8217
2657	0.8213
2666	0.8213
2675	0.8216
2684	0.8218
2693	0.822
2702	0.8218
2711	0.8214
2720	0.8209
2729	0.8203
2738	0.8188
2747	0.8171
2756	0.8157
2765	0.8135
2774	0.8114
2783	0.8078
2792	0.8037
2801	0.7985
2810	0.7901
2819	0.7744
2828	0.7474
2837	0.6842
2846	0.7032
2855	0.6971
2864	0.6418
2873	0.6068
2882	0.6901
2891	0.6785
2900	0.638
2909	0.6295
2918	0.6156
2927	0.5525
2936	0.4688
2945	0.4519
2954	0.4367
2963	0.4036
2972	0.5668
2981	0.7328
2990	0.7494
2999	0.7449
3008	0.754
3017	0.7815
3026	0.798
3035	0.8018
3044	0.8056
3053	0.8082
3062	0.8098
3071	0.8108
3080	0.8115
3089	0.8122
3098	0.8131
3107	0.8134
3116	0.8136
3125	0.8138
3134	0.8143
3143	0.8153
3152	0.8165
3161	0.8178
3170	0.8191
3179	0.8203
3188	0.8217
3197	0.823
3206	0.8244
3215	0.8252
3224	0.8261
3233	0.8268
3242	0.828
3251	0.8292
3260	0.8303
3269	0.8321
3278	0.8336
3287	0.8345
3296	0.8354
3305	0.8362
3314	0.8368
3323	0.8374
3332	0.8381
3341	0.8387
3350	0.8391
3359	0.8395
3368	0.8399
3377	0.8402
3386	0.8405
3395	0.8407
3404	0.841
3413	0.8412
3422	0.841
3431	0.8408
3440	0.8412
3449	0.8417
3458	0.8421
3467	0.8427
3476	0.8434
3485	0.8442
3494	0.845
3503	0.8458
3512	0.8466
3521	0.8473
3530	0.8481
3539	0.8489
3548	0.8505
3557	0.852
3566	0.8536
3575	0.8554
3584	0.8575
3593	0.8591
3602	0.8604
3611	0.8608
3620	0.8613
3629	0.861
3638	0.8608
3647	0.8605
3656	0.8603
3665	0.8601
3674	0.8594
3683	0.8582
3692	0.859
3701	0.8646
3710	0.869
3719	0.8689
3728	0.8686
3737	0.8684
3746	0.8692
3755	0.87
3764	0.8705
3773	0.8708
3782	0.8711
3791	0.8714
