Infrared Spectrum: Purine, 6-ethylthio-
Formula: C7 H8 N4 S
CAS: 5417-84-5
State: SOLID (1 mg /6 50 mg KBr DISC)
Class: COBLENTZ III
Instrument: PERKIN-ELMER 21 (GRATING)
Instrument parameters: FILTER CHANGE ABOUT 1090 CM^-^1
Sampling: TRANSMISSION
Resolution: 2
Origin: SOUTHERN RESEARCH INSTITUTE
1/CM	TRANSMITTANCE
603	0.6427
612	0.6604
621	0.6653
630	0.678
639	0.6838
648	0.4798
657	0.8364
666	0.822
675	0.7532
684	0.7501
693	0.8296
702	0.8165
711	0.7986
720	0.7822
729	0.7664
738	0.7495
747	0.7312
756	0.7116
765	0.6871
774	0.6325
783	0.611
792	0.5417
801	0.6013
810	0.6399
819	0.6063
828	0.5726
837	0.3548
846	0.3136
855	0.5328
864	0.6692
873	0.5701
882	0.4666
891	0.5128
900	0.5923
909	0.565
918	0.4669
927	0.4025
936	0.368
945	0.3281
954	0.2257
963	0.5995
972	0.6399
981	0.6766
990	0.6605
999	0.6329
1008	0.7064
1017	0.7048
1026	0.6996
1035	0.6882
1044	0.6794
1053	0.6531
1062	0.6658
1071	0.6687
1080	0.6487
1089	0.6376
1098	0.6487
1107	0.6353
1116	0.6091
1125	0.5847
1134	0.5337
1143	0.4887
1152	0.5437
1161	0.4661
1170	0.589
1179	0.5659
1188	0.5385
1197	0.5302
1206	0.4687
1215	0.4218
1224	0.3261
1233	0.1954
1242	0.1623
1251	0.3704
1260	0.5999
1269	0.6611
1278	0.6354
1287	0.6325
1296	0.6324
1305	0.5989
1314	0.5492
1323	0.3372
1332	0.4265
1341	0.6248
1350	0.6102
1359	0.535
1368	0.3935
1377	0.2297
1386	0.2398
1395	0.6201
1404	0.6765
1413	0.6401
1422	0.4265
1431	0.4986
1440	0.5598
1449	0.5278
1458	0.4983
1467	0.4733
1476	0.5511
1485	0.6227
1494	0.6038
1503	0.5771
1512	0.5423
1521	0.5145
1530	0.4922
1539	0.4113
1548	0.3812
1557	0.1743
1566	0.1115
1575	0.2163
1584	0.4039
1593	0.3307
1602	0.4981
1611	0.6625
1620	0.6681
1629	0.6637
1638	0.656
1647	0.6386
1656	0.6484
1665	0.6382
1674	0.6354
1683	0.6279
1692	0.6079
1701	0.5947
1710	0.5828
1719	0.5576
1728	0.5424
1737	0.5286
1746	0.5149
1755	0.5076
1764	0.5012
1773	0.5
1782	0.5031
1791	0.5088
1800	0.5133
1809	0.5145
1818	0.5143
1827	0.5289
1836	0.5314
1845	0.5372
1854	0.5285
1863	0.5444
1872	0.5579
1881	0.5605
1890	0.5645
1899	0.5695
1908	0.5741
1917	0.579
1926	0.5812
1935	0.5783
1944	0.5723
1953	0.5715
1962	0.5761
1971	0.5721
1980	0.5753
1989	0.5832
1998	0.5809
2007	0.5774
2016	0.5721
2025	0.5689
2034	0.5686
2043	0.5642
2052	0.5564
2061	0.5497
2070	0.5445
2079	0.5392
2088	0.5339
2097	0.5284
2106	0.5229
2115	0.5178
2124	0.5127
2133	0.5065
2142	0.5002
2151	0.4948
2160	0.4894
2169	0.484
2178	0.4797
2187	0.4771
2196	0.4671
2205	0.4572
2214	0.4507
2223	0.444
2232	0.4371
2241	0.4291
2250	0.4218
2259	0.4154
2268	0.4094
2277	0.4023
2286	0.3966
2295	0.3858
2304	0.3714
2313	0.3595
2322	0.3594
2331	0.3635
2340	0.36
2349	0.3535
2358	0.3496
2367	0.3486
2376	0.3439
2385	0.3402
2394	0.341
2403	0.3413
2412	0.34
2421	0.3386
2430	0.3347
2439	0.3257
2448	0.3173
2457	0.3129
2466	0.3088
2475	0.3073
2484	0.3074
2493	0.3075
2502	0.3062
2511	0.3008
2520	0.3011
2529	0.3027
2538	0.3044
2547	0.3076
2556	0.3128
2565	0.3193
2574	0.3271
2583	0.3351
2592	0.339
2601	0.3327
2610	0.325
2619	0.3214
2628	0.3202
2637	0.3206
2646	0.3254
2655	0.3297
2664	0.3302
2673	0.3408
2682	0.3433
2691	0.3515
2700	0.3599
2709	0.3712
2718	0.3758
2727	0.3655
2736	0.3527
2745	0.3435
2754	0.3428
2763	0.3492
2772	0.3586
2781	0.3768
2790	0.3972
2799	0.4114
2808	0.4218
2817	0.4425
2826	0.4501
2835	0.4535
2844	0.4543
2853	0.4554
2862	0.4581
2871	0.4725
2880	0.474
2889	0.4682
2898	0.451
2907	0.4151
2916	0.3945
2925	0.3964
2934	0.403
2943	0.4112
2952	0.4251
2961	0.4412
2970	0.4696
2979	0.5065
2988	0.5216
2997	0.521
3006	0.5177
3015	0.5071
3024	0.4656
3033	0.4519
3042	0.4518
3051	0.4672
3060	0.4879
3069	0.5036
3078	0.5174
3087	0.5198
3096	0.5265
3105	0.5388
3114	0.5562
3123	0.5705
3132	0.5706
3141	0.5629
3150	0.5564
3159	0.5551
3168	0.5571
3177	0.5596
3186	0.5624
3195	0.5623
3204	0.5654
3213	0.5671
3222	0.5646
3231	0.5626
3240	0.5612
3249	0.5599
3258	0.5581
3267	0.5523
3276	0.5467
3285	0.5488
3294	0.5502
3303	0.5481
3312	0.5404
3321	0.5375
3330	0.5329
3339	0.5265
3348	0.5206
3357	0.515
3366	0.5091
3375	0.5034
3384	0.4967
3393	0.4907
3402	0.4853
3411	0.4804
3420	0.4795
3429	0.481
3438	0.4829
3447	0.4831
3456	0.4792
3465	0.4781
3474	0.4874
3483	0.4885
3492	0.4929
3501	0.4999
3510	0.5027
3519	0.5048
3528	0.5073
3537	0.5116
3546	0.5223
3555	0.5234
3564	0.5242
3573	0.5266
3582	0.533
3591	0.536
3600	0.5397
3609	0.5417
3618	0.5448
3627	0.547
3636	0.5577
3645	0.5612
3654	0.5603
3663	0.5572
3672	0.5533
3681	0.5524
3690	0.5534
3699	0.5507
3708	0.5521
3717	0.557
3726	0.5504
3735	0.5393
3744	0.5428
3753	0.5502
3762	0.5509
3771	0.55
3780	0.5485
3789	0.5473
3798	0.5454
3807	0.5472
3816	0.5463
3825	0.5385
3834	0.5361
3843	0.5359
3852	0.5354
3861	0.5325
3870	0.5343
3879	0.5381
3888	0.5384
3897	0.5371
3906	0.5382
3915	0.5415
3924	0.5403
3933	0.5351
3942	0.5303
3951	0.5283
3960	0.5343
3969	0.5365
3978	0.5282
3987	0.5276
3996	0.5264
