Infrared Spectrum: ISOBUTYL FORMATE
Formula: C5 H10 O2
CAS: 542-55-2
State: LIQUID
Boiling point: 96-97 C
Class: COBLENTZ
Instrument: Not specified, most likely a prism, grating, or hybrid spectrometer.
Sampling: TRANSMISSION
Path length: 0.003 CM
Resolution: 4
Origin: WYANDOTTE CHEMICALS CORP., WYANDOTTE, MICHIGAN, USA
MICROMETERS	TRANSMITTANCE
2.009	0.948
2.04889	0.958
2.08879	0.961
2.12868	0.966
2.16858	0.955
2.20847	0.938
2.24836	0.931
2.28826	0.94
2.32815	0.93
2.36805	0.928
2.40794	0.953
2.44784	0.965
2.48773	0.965
2.52762	0.963
2.56752	0.966
2.60741	0.961
2.64731	0.96
2.6872	0.966
2.72709	0.945
2.76699	0.911
2.80688	0.881
2.84678	0.89
2.88667	0.901
2.92657	0.868
2.96646	0.908
3.00635	0.94
3.04625	0.941
3.08614	0.943
3.12604	0.935
3.16593	0.918
3.20582	0.925
3.24572	0.901
3.28561	0.896
3.32551	0.715
3.3654	0.134
3.4053	0.138
3.44519	0.244
3.48508	0.377
3.52498	0.768
3.56487	0.846
3.60477	0.906
3.64466	0.918
3.68455	0.891
3.72445	0.941
3.76434	0.943
3.80424	0.958
3.84413	0.961
3.88402	0.958
3.92392	0.968
3.96381	0.971
4.00371	0.97
4.0436	0.968
4.0835	0.961
4.12339	0.97
4.16328	0.958
4.20318	0.958
4.24307	0.94
4.28297	0.946
4.32286	0.938
4.36275	0.941
4.40265	0.938
4.44254	0.96
4.48244	0.963
4.52233	0.98
4.56223	0.971
4.60212	0.98
4.64201	0.978
4.68191	0.98
4.7218	0.973
4.7617	0.971
4.80159	0.95
4.84148	0.935
4.88138	0.94
4.92127	0.945
4.96117	0.95
5.00106	0.963
5.04096	0.97
5.08085	0.968
5.12074	0.98
5.16064	0.971
5.20053	0.973
5.24043	0.963
5.28032	0.96
5.32021	0.961
5.36011	0.966
5.4	0.963
5.4399	0.956
5.47979	0.95
5.51968	0.931
5.55958	0.906
5.59947	0.858
5.63937	0.77
5.67926	0.597
5.71916	0.262
5.75905	0.076
5.79894	0.038
5.83884	0.088
5.87873	0.297
5.91863	0.5
5.95852	0.682
5.99841	0.785
6.03831	0.841
6.0782	0.888
6.1181	0.905
6.15799	0.923
6.19789	0.94
6.23778	0.95
6.27767	0.956
6.31757	0.955
6.35746	0.94
6.39736	0.935
6.43725	0.936
6.47714	0.93
6.51704	0.923
6.55693	0.911
6.59683	0.905
6.63672	0.881
6.67662	0.83
6.71651	0.685
6.7564	0.404
6.7963	0.226
6.83619	0.424
6.87609	0.652
6.91598	0.765
6.95587	0.823
6.99577	0.84
7.03566	0.848
7.07556	0.816
7.11545	0.765
7.15534	0.594
7.19524	0.48
7.23513	0.574
7.27503	0.419
7.31492	0.542
7.35482	0.773
7.39471	0.81
7.4346	0.785
7.4745	0.797
7.51439	0.81
7.55429	0.845
7.59418	0.85
7.63407	0.818
7.67397	0.767
7.71386	0.718
7.75376	0.608
7.79365	0.52
7.83355	0.584
7.87344	0.59
7.91333	0.605
7.95323	0.612
7.99312	0.642
8.03302	0.648
8.07291	0.595
8.1128	0.522
8.1527	0.415
8.19259	0.272
8.23249	0.149
8.27238	0.074
8.31228	0.041
8.35217	0.034
8.39206	0.034
8.43196	0.034
8.47185	0.034
8.51175	0.034
8.55164	0.034
8.59153	0.036
8.63143	0.038
8.67132	0.043
8.71122	0.053
8.75111	0.096
8.791	0.198
8.8309	0.327
8.87079	0.445
8.91069	0.54
8.95058	0.589
8.99048	0.627
9.03037	0.693
9.07026	0.755
9.11016	0.818
9.15005	0.856
9.18995	0.875
9.22984	0.893
9.26973	0.901
9.30963	0.906
9.34952	0.913
9.38942	0.903
9.42931	0.89
9.46921	0.85
9.5091	0.795
9.54899	0.747
9.58889	0.74
9.62878	0.765
9.66868	0.798
9.70857	0.815
9.74846	0.826
9.78836	0.826
9.82825	0.84
9.86815	0.863
9.90804	0.873
9.94793	0.866
9.98783	0.861
10.0277	0.863
10.0676	0.873
10.1075	0.863
10.1474	0.836
10.1873	0.787
10.2272	0.748
10.2671	0.677
10.307	0.55
10.3469	0.42
10.3868	0.43
10.4267	0.539
10.4666	0.625
10.5065	0.71
10.5463	0.74
10.5862	0.727
10.6261	0.665
10.666	0.54
10.7059	0.397
10.7458	0.391
10.7857	0.547
10.8256	0.663
10.8655	0.715
10.9054	0.74
10.9453	0.735
10.9852	0.695
11.0251	0.625
11.065	0.555
11.1049	0.51
11.1448	0.53
11.1847	0.585
11.2245	0.628
11.2644	0.66
11.3043	0.702
11.3442	0.748
11.3841	0.793
11.424	0.821
11.4639	0.851
11.5038	0.876
11.5437	0.895
11.5836	0.901
11.6235	0.91
11.6634	0.916
11.7033	0.923
11.7432	0.915
11.7831	0.905
11.823	0.89
11.8629	0.886
11.9027	0.89
11.9426	0.9
11.9825	0.9
12.0224	0.901
12.0623	0.893
12.1022	0.883
12.1421	0.863
12.182	0.865
12.2219	0.891
12.2618	0.9
12.3017	0.92
12.3416	0.936
12.3815	0.946
12.4214	0.958
12.4613	0.966
12.5012	0.961
12.5411	0.97
12.5809	0.968
12.6208	0.971
12.6607	0.965
12.7006	0.966
12.7405	0.975
12.7804	0.973
12.8203	0.978
12.8602	0.971
12.9001	0.963
12.94	0.961
12.9799	0.95
13.0198	0.921
13.0597	0.895
13.0996	0.838
13.1395	0.752
13.1794	0.712
13.2193	0.743
13.2591	0.815
13.299	0.846
13.3389	0.868
13.3788	0.898
13.4187	0.918
13.4586	0.928
13.4985	0.938
13.5384	0.945
13.5783	0.946
13.6182	0.956
13.6581	0.96
13.698	0.955
13.7379	0.961
13.7778	0.96
13.8177	0.96
13.8576	0.958
13.8975	0.96
13.9373	0.951
13.9772	0.961
14.0171	0.96
14.057	0.953
14.0969	0.961
14.1368	0.961
14.1767	0.95
14.2166	0.953
14.2565	0.951
14.2964	0.948
14.3363	0.953
14.3762	0.95
14.4161	0.945
14.456	0.938
14.4959	0.933
14.5358	0.943
14.5757	0.926
14.6156	0.926
14.6554	0.928
14.6953	0.916
14.7352	0.916
14.7751	0.913
14.815	0.903
14.8549	0.903
14.8948	0.89
14.9347	0.896
14.9746	0.891
15.0145	0.873
15.0544	0.845
15.0943	0.845
15.1342	0.871
15.1741	0.883
15.214	0.876
15.2539	0.865
15.2938	0.86
15.3336	0.863
15.3735	0.855
15.4134	0.85
15.4533	0.843
15.4932	0.835
15.5331	0.833
15.573	0.835
15.6129	0.818
15.6528	0.823
15.6927	0.808
15.7326	0.808
15.7725	0.806
15.8124	0.8
15.8523	0.793
15.8922	0.785
15.9321	0.787
15.972	0.78
