Infrared Spectrum: METHANE, OXYBIS(CHLORO-
Formula: C2 H4 Cl2 O
CAS: 542-88-1
State: VAPOR (ABOUT 35 mmHg)
Boiling point: 106 C
Class: COBLENTZ
Instrument: DOW KBr FOREPRISM-GRATING
Instrument parameters: BLAZED AT 3.5, 12.0, 20.0 MICRON, CHANGED AT 5.0, 7.5, 14.9 MICRON
Sampling: TRANSMISSION
Path length: 5 CM
Resolution: 4
Origin: DOW CHEMICAL COMPANY
1/CM	TRANSMITTANCE
386.861	0.64
396.35	0.641
405.839	0.64
415.328	0.631
424.817	0.635
434.306	0.678
443.795	0.82
453.284	0.838
462.773	0.838
472.262	0.831
481.752	0.861
491.241	0.906
500.73	0.913
510.219	0.908
519.708	0.895
529.197	0.886
538.686	0.891
548.175	0.886
557.664	0.876
567.153	0.859
576.642	0.847
586.131	0.837
595.62	0.823
605.109	0.788
614.598	0.704
624.087	0.638
633.576	0.578
643.065	0.527
652.554	0.458
662.044	0.353
671.533	0.202
681.022	0.023
690.511	0.002
700	0.001
709.489	0.004
718.978	0.108
728.467	0.321
737.956	0.603
747.445	0.722
756.934	0.803
766.423	0.854
775.912	0.894
785.401	0.926
794.89	0.933
804.379	0.936
813.868	0.942
823.357	0.944
832.846	0.941
842.336	0.933
851.825	0.929
861.314	0.923
870.803	0.914
880.292	0.894
889.781	0.876
899.27	0.859
908.759	0.82
918.248	0.679
927.737	0.392
937.226	0.176
946.715	0.217
956.204	0.274
965.693	0.318
975.182	0.461
984.671	0.806
994.16	0.854
1003.65	0.845
1013.14	0.765
1022.63	0.64
1032.12	0.596
1041.61	0.537
1051.09	0.588
1060.58	0.622
1070.07	0.656
1079.56	0.527
1089.05	0.27
1098.54	0.01
1108.03	0.004
1117.52	0.007
1127.01	0.207
1136.5	0.678
1145.99	0.812
1155.47	0.804
1164.96	0.725
1174.45	0.797
1183.94	0.831
1193.43	0.872
1202.92	0.873
1212.41	0.854
1221.9	0.76
1231.39	0.121
1240.88	0.174
1250.36	0.254
1259.85	0.817
1269.34	0.751
1278.83	0.693
1288.32	0.707
1297.81	0.76
1307.3	0.679
1316.79	0.409
1326.28	0.19
1335.77	0.217
1345.26	0.449
1354.74	0.751
1364.23	0.894
1373.72	0.9
1383.21	0.882
1392.7	0.9
1402.19	0.897
1411.68	0.911
1421.17	0.916
1430.66	0.91
1440.15	0.886
1449.63	0.762
1459.12	0.599
1468.61	0.634
1478.1	0.8
1487.59	0.904
1497.08	0.939
1506.57	0.941
1516.06	0.939
1525.55	0.945
1535.04	0.948
1544.53	0.947
1554.01	0.942
1563.5	0.938
1572.99	0.933
1582.48	0.936
1591.97	0.945
1601.46	0.945
1610.95	0.941
1620.44	0.936
1629.93	0.92
1639.42	0.916
1648.91	0.92
1658.39	0.941
1667.88	0.947
1677.37	0.945
1686.86	0.939
1696.35	0.932
1705.84	0.925
1715.33	0.928
1724.82	0.93
1734.31	0.93
1743.8	0.926
1753.28	0.913
1762.77	0.907
1772.26	0.91
1781.75	0.919
1791.24	0.92
1800.73	0.922
1810.22	0.917
1819.71	0.914
1829.2	0.923
1838.69	0.932
1848.18	0.929
1857.66	0.923
1867.15	0.92
1876.64	0.919
1886.13	0.916
1895.62	0.913
1905.11	0.911
1914.6	0.913
1924.09	0.917
1933.58	0.913
1943.07	0.911
1952.55	0.906
1962.04	0.903
1971.53	0.898
1981.02	0.895
1990.51	0.889
2000	0.886
2009.49	0.8751
2018.98	0.8346
2028.47	0.7861
2037.96	0.7102
2047.45	0.6849
2056.93	0.8816
2066.42	0.8919
2075.91	0.894
2085.4	0.8967
2094.89	0.898
2104.38	0.897
2113.87	0.8912
2123.36	0.8727
2132.85	0.8503
2142.34	0.8522
2151.82	0.8815
2161.31	0.8823
2170.8	0.857
2180.29	0.8553
2189.78	0.8799
2199.27	0.8798
2208.76	0.8786
2218.25	0.8816
2227.74	0.885
2237.23	0.882
2246.72	0.877
2256.2	0.8755
2265.69	0.88
2275.18	0.883
2284.67	0.886
2294.16	0.886
2303.65	0.886
2313.14	0.8856
2322.63	0.8803
2332.12	0.8756
2341.61	0.872
2351.09	0.87
2360.58	0.867
2370.07	0.863
2379.56	0.86
2389.05	0.8592
2398.54	0.861
2408.03	0.8626
2417.52	0.8586
2427.01	0.854
2436.5	0.8562
2445.99	0.8704
2455.47	0.876
2464.96	0.875
2474.45	0.875
2483.94	0.873
2493.43	0.873
2502.92	0.8731
2512.41	0.876
2521.9	0.876
2531.39	0.878
2540.88	0.876
2550.37	0.875
2559.85	0.873
2569.34	0.873
2578.83	0.873
2588.32	0.873
2597.81	0.873
2607.3	0.873
2616.79	0.875
2626.28	0.872
2635.77	0.8592
2645.26	0.863
2654.74	0.872
2664.23	0.872
2673.72	0.87
2683.21	0.87
2692.7	0.867
2702.19	0.869
2711.68	0.867
2721.17	0.866
2730.66	0.8618
2740.15	0.86
2749.64	0.86
2759.12	0.859
2768.61	0.855
2778.1	0.852
2787.59	0.8415
2797.08	0.8408
2806.57	0.851
2816.06	0.851
2825.55	0.8552
2835.04	0.8438
2844.53	0.838
2854.01	0.835
2863.5	0.8397
2872.99	0.8377
2882.48	0.8125
2891.97	0.7374
2901.46	0.7104
2910.95	0.7304
2920.44	0.753
2929.93	0.8066
2939.42	0.8116
2948.91	0.7887
2958.39	0.7142
2967.88	0.5786
2977.37	0.4935
2986.86	0.5514
2996.35	0.6883
3005.84	0.8562
3015.33	0.8659
3024.82	0.845
3034.31	0.7969
3043.8	0.75
3053.28	0.7805
3062.77	0.8557
3072.26	0.8938
3081.75	0.9
3091.24	0.9028
3100.73	0.904
3110.22	0.904
3119.71	0.906
3129.2	0.906
3138.69	0.906
3148.18	0.908
3157.66	0.91
3167.15	0.91
3176.64	0.91
3186.13	0.91
3195.62	0.9086
3205.11	0.908
3214.6	0.908
3224.09	0.908
3233.58	0.908
3243.07	0.908
3252.55	0.908
3262.04	0.908
3271.53	0.907
3281.02	0.906
3290.51	0.904
3300	0.904
3309.49	0.903
3318.98	0.901
3328.47	0.9
3337.96	0.898
3347.45	0.8976
3356.93	0.895
3366.42	0.892
3375.91	0.8903
3385.4	0.889
3394.89	0.886
3404.38	0.885
3413.87	0.8866
3423.36	0.8895
3432.85	0.894
3442.34	0.8972
3451.83	0.9014
3461.31	0.904
3470.8	0.9057
3480.29	0.9043
3489.78	0.913
3499.27	0.916
3508.76	0.917
3518.25	0.92
3527.74	0.92
3537.23	0.922
3546.72	0.922
3556.2	0.923
3565.69	0.923
3575.18	0.926
3584.67	0.928
3594.16	0.929
3603.65	0.929
3613.14	0.929
3622.63	0.93
3632.12	0.93
3641.61	0.93
3651.1	0.93
3660.58	0.932
3670.07	0.932
3679.56	0.929
3689.05	0.928
3698.54	0.9315
3708.03	0.9344
3717.52	0.9357
3727.01	0.936
3736.5	0.939
3745.99	0.9367
3755.47	0.932
3764.96	0.932
3774.45	0.933
3783.94	0.933
3793.43	0.935
3802.92	0.9355
