Infrared Spectrum: CARBONIC ACID, DI-n-BUTYL ESTER
Formula: C9 H18 O3
CAS: 542-52-9
State: SOLUTION (10% CCl4 FOR 2-7.5, 10% CS2 FOR 7.5-16 MICRON) VS SOLVENT
Boiling point: 207 C
Class: COBLENTZ III
Instrument: BAIRD (PRISM)
Instrument parameters: NaCl PRISM
Sampling: TRANSMISSION
Path length: 0.012 CM, 0.012 CM
Resolution: 2
Origin: DOW CHEMICAL COMPANY
MICROMETERS	TRANSMITTANCE
1.971	0.932
2.01001	0.932
2.04902	0.936
2.08803	0.935
2.12704	0.938
2.16605	0.94
2.20506	0.927
2.24407	0.906
2.28308	0.902
2.32209	0.905
2.3611	0.914
2.40011	0.917
2.43912	0.92
2.47813	0.925
2.51714	0.932
2.55615	0.936
2.59516	0.94
2.63416	0.936
2.67317	0.941
2.71218	0.94
2.75119	0.946
2.7902	0.944
2.82921	0.94
2.86822	0.929
2.90723	0.931
2.94624	0.942
2.98525	0.944
3.02426	0.943
3.06327	0.938
3.10228	0.93
3.14129	0.92
3.1803	0.911
3.21931	0.903
3.25832	0.889
3.29733	0.816
3.33634	0.547
3.37535	0.13
3.41436	0.141
3.45337	0.288
3.49238	0.547
3.53139	0.804
3.5704	0.87
3.60941	0.882
3.64842	0.882
3.68743	0.889
3.72644	0.899
3.76545	0.904
3.80446	0.917
3.84347	0.919
3.88248	0.92
3.92148	0.922
3.96049	0.914
3.9995	0.915
4.03851	0.921
4.07752	0.921
4.11653	0.917
4.15554	0.902
4.19455	0.899
4.23356	0.908
4.27257	0.921
4.31158	0.924
4.35059	0.925
4.3896	0.921
4.42861	0.915
4.46762	0.904
4.50663	0.899
4.54564	0.905
4.58465	0.91
4.62366	0.917
4.66267	0.92
4.70168	0.925
4.74069	0.926
4.7797	0.927
4.81871	0.927
4.85772	0.92
4.89673	0.914
4.93574	0.916
4.97475	0.925
5.01376	0.927
5.05277	0.926
5.09178	0.922
5.13079	0.916
5.1698	0.917
5.2088	0.919
5.24781	0.92
5.28682	0.92
5.32583	0.915
5.36484	0.91
5.40385	0.893
5.44286	0.864
5.48187	0.833
5.52088	0.811
5.55989	0.785
5.5989	0.692
5.63791	0.521
5.67692	0.172
5.71593	0.025
5.75494	0.023
5.79395	0.28
5.83296	0.511
5.87197	0.621
5.91098	0.712
5.94999	0.778
5.989	0.806
6.02801	0.824
6.06702	0.85
6.10603	0.856
6.14504	0.861
6.18405	0.86
6.22306	0.851
6.26207	0.828
6.30108	0.81
6.34009	0.824
6.3791	0.828
6.41811	0.829
6.45712	0.834
6.49612	0.838
6.53513	0.839
6.57414	0.838
6.61315	0.831
6.65216	0.818
6.69117	0.774
6.73018	0.572
6.76919	0.335
6.8082	0.2
6.84721	0.242
6.88622	0.483
6.92523	0.603
6.96424	0.631
7.00325	0.691
7.04226	0.602
7.08127	0.389
7.12028	0.139
7.15929	0.326
7.1983	0.443
7.23731	0.383
7.27632	0.496
7.31533	0.6
7.35434	0.549
7.39335	0.625
7.43236	0.56
7.47137	0.556
7.51038	0.429
7.54939	0.424
7.5884	0.413
7.62741	0.277
7.66642	0.259
7.70543	0.254
7.74444	0.167
7.78344	0.064
7.82245	0.03
7.86146	0.022
7.90047	0.022
7.93948	0.022
7.97849	0.022
8.0175	0.023
8.05651	0.025
8.09552	0.056
8.13453	0.124
8.17354	0.23
8.21255	0.352
8.25156	0.472
8.29057	0.571
8.32958	0.64
8.36859	0.684
8.4076	0.709
8.44661	0.724
8.48562	0.727
8.52463	0.717
8.56364	0.698
8.60265	0.657
8.64166	0.629
8.68067	0.636
8.71968	0.668
8.75869	0.684
8.7977	0.682
8.83671	0.665
8.87572	0.643
8.91473	0.605
8.95374	0.592
8.99275	0.626
9.03176	0.663
9.07076	0.7
9.10977	0.716
9.14878	0.702
9.18779	0.68
9.2268	0.68
9.26581	0.665
9.30482	0.626
9.34383	0.51
9.38284	0.383
9.42185	0.328
9.46086	0.33
9.49987	0.378
9.53888	0.507
9.57789	0.64
9.6169	0.717
9.65591	0.727
9.69492	0.653
9.73393	0.533
9.77294	0.434
9.81195	0.38
9.85096	0.363
9.88997	0.403
9.92898	0.495
9.96799	0.55
10.007	0.565
10.046	0.543
10.085	0.538
10.124	0.547
10.163	0.574
10.202	0.604
10.2411	0.611
10.2801	0.566
10.3191	0.528
10.3581	0.503
10.3971	0.482
10.4361	0.46
10.4751	0.443
10.5141	0.413
10.5531	0.384
10.5921	0.332
10.6312	0.281
10.6702	0.242
10.7092	0.23
10.7482	0.235
10.7872	0.272
10.8262	0.363
10.8652	0.476
10.9042	0.569
10.9432	0.637
10.9822	0.678
11.0212	0.702
11.0603	0.703
11.0993	0.678
11.1383	0.668
11.1773	0.713
11.2163	0.774
11.2553	0.817
11.2943	0.835
11.3333	0.842
11.3723	0.843
11.4113	0.845
11.4504	0.851
11.4894	0.859
11.5284	0.86
11.5674	0.854
11.6064	0.839
11.6454	0.816
11.6844	0.8
11.7234	0.779
11.7624	0.74
11.8014	0.705
11.8405	0.685
11.8795	0.682
11.9185	0.667
11.9575	0.647
11.9965	0.659
12.0355	0.694
12.0745	0.747
12.1135	0.782
12.1525	0.801
12.1915	0.806
12.2306	0.807
12.2696	0.796
12.3086	0.783
12.3476	0.764
12.3866	0.744
12.4256	0.716
12.4646	0.676
12.5036	0.598
12.5426	0.479
12.5816	0.345
12.6206	0.265
12.6597	0.264
12.6987	0.368
12.7377	0.511
12.7767	0.623
12.8157	0.702
12.8547	0.753
12.8937	0.799
12.9327	0.817
12.9717	0.832
13.0107	0.843
13.0498	0.848
13.0888	0.854
13.1278	0.854
13.1668	0.851
13.2058	0.844
13.2448	0.831
13.2838	0.826
13.3228	0.826
13.3618	0.823
13.4008	0.816
13.4399	0.802
13.4789	0.782
13.5179	0.766
13.5569	0.766
13.5959	0.784
13.6349	0.822
13.6739	0.849
13.7129	0.873
13.7519	0.882
13.7909	0.891
13.8299	0.899
13.869	0.905
13.908	0.905
13.947	0.913
13.986	0.915
14.025	0.916
14.064	0.916
14.103	0.917
14.142	0.917
14.181	0.916
14.22	0.916
14.2591	0.921
14.2981	0.922
14.3371	0.925
14.3761	0.925
14.4151	0.931
14.4541	0.935
14.4931	0.935
14.5321	0.938
14.5711	0.941
14.6101	0.943
14.6492	0.946
14.6882	0.947
14.7272	0.951
14.7662	0.951
14.8052	0.952
14.8442	0.952
14.8832	0.953
14.9222	0.954
14.9612	0.954
15.0002	0.958
15.0392	0.959
15.0783	0.959
15.1173	0.959
15.1563	0.959
15.1953	0.959
15.2343	0.959
15.2733	0.959
15.3123	0.957
15.3513	0.957
15.3903	0.955
15.4293	0.955
15.4684	0.955
15.5074	0.955
15.5464	0.955
15.5854	0.953
15.6244	0.953
15.6634	0.954
15.7024	0.954
15.7414	0.955
15.7804	0.955
15.8194	0.955
15.8585	0.955
15.8975	0.957
15.9365	0.957
