Infrared Spectrum: Hexylamine, 1,5-dimethyl-
Formula: C8 H19 N
CAS: 543-82-8
State: LIQUID (NEAT)
Class: COBLENTZ III
Instrument: DOW KBr FOREPRISM-GRATING
Instrument parameters: BLAZED AT 3.5, 12.0, 20.0 MICRON AND CHANGED AT 5.0, 7.5, 14.9 MICRON
Sampling: TRANSMISSION
Path length: CAPILLARY
Resolution: 2
Origin: DOW CHEMICAL COMPANY
1/CM	TRANSMITTANCE
461	0.7552
470	0.7568
479	0.7586
488	0.7663
497	0.7781
506	0.78
515	0.7745
524	0.7743
533	0.7777
542	0.782
551	0.7868
560	0.7887
569	0.7896
578	0.7914
587	0.7929
596	0.7961
605	0.8023
614	0.8076
623	0.8116
632	0.8166
641	0.8216
650	0.8222
659	0.822
668	0.8239
677	0.8499
686	0.8483
695	0.8392
704	0.8365
713	0.8386
722	0.8296
731	0.8033
740	0.7969
749	0.8129
758	0.8001
767	0.7777
776	0.7418
785	0.6945
794	0.6479
803	0.6428
812	0.6431
821	0.6533
830	0.6508
839	0.6526
848	0.6674
857	0.6903
866	0.6851
875	0.6871
884	0.7004
893	0.7172
902	0.7334
911	0.7467
920	0.7583
929	0.7791
938	0.7911
947	0.804
956	0.815
965	0.8204
974	0.8259
983	0.8342
992	0.8464
1001	0.8615
1010	0.8581
1019	0.8523
1028	0.8527
1037	0.8507
1046	0.8466
1055	0.8444
1064	0.8422
1073	0.8408
1082	0.8429
1091	0.8357
1100	0.8468
1109	0.8497
1118	0.8474
1127	0.8138
1136	0.7771
1145	0.7745
1154	0.75
1163	0.7809
1172	0.8336
1181	0.8504
1190	0.8581
1199	0.8612
1208	0.8689
1217	0.8683
1226	0.8661
1235	0.8597
1244	0.8544
1253	0.8554
1262	0.8596
1271	0.8481
1280	0.8463
1289	0.8477
1298	0.8409
1307	0.8341
1316	0.8268
1325	0.8003
1334	0.7945
1343	0.7595
1352	0.7414
1361	0.7087
1370	0.5683
1379	0.6227
1388	0.59
1397	0.83
1406	0.851
1415	0.8498
1424	0.8362
1433	0.8015
1442	0.7479
1451	0.6746
1460	0.5179
1469	0.5171
1478	0.7917
1487	0.8336
1496	0.8459
1505	0.8515
1514	0.8536
1523	0.8509
1532	0.847
1541	0.8406
1550	0.8302
1559	0.8177
1568	0.7944
1577	0.7693
1586	0.7488
1595	0.7409
1604	0.7435
1613	0.7574
1622	0.7706
1631	0.7825
1640	0.7943
1649	0.8073
1658	0.8174
1667	0.8266
1676	0.8421
1685	0.8522
1694	0.8593
1703	0.8648
1712	0.8682
1721	0.8715
1730	0.8737
1739	0.8758
1748	0.8784
1757	0.881
1766	0.8834
1775	0.8844
1784	0.8854
1793	0.8859
1802	0.8864
1811	0.8869
1820	0.889
1829	0.8911
1838	0.8925
1847	0.8931
1856	0.8923
1865	0.8921
1874	0.8924
1883	0.8926
1892	0.8923
1901	0.892
1910	0.8915
1919	0.8907
1928	0.8896
1937	0.8886
1946	0.8868
1955	0.8684
1964	0.8884
1973	0.8895
1982	0.8881
1991	0.8842
2000	0.9196
2009	0.9236
2018	0.9233
2027	0.9229
2036	0.9227
2045	0.9227
2054	0.9227
2063	0.9226
2072	0.9224
2081	0.9222
2090	0.9223
2099	0.9225
2108	0.9227
2117	0.9226
2126	0.9225
2135	0.9223
2144	0.9223
2153	0.9223
2162	0.9224
2171	0.9224
2180	0.9224
2189	0.9225
2198	0.9225
2207	0.9225
2216	0.9222
2225	0.9219
2234	0.9215
2243	0.9212
2252	0.921
2261	0.9208
2270	0.9207
2279	0.9193
2288	0.9178
2297	0.9171
2306	0.9228
2315	0.9228
2324	0.9222
2333	0.9217
2342	0.9214
2351	0.921
2360	0.9198
2369	0.9183
2378	0.9168
2387	0.915
2396	0.9131
2405	0.912
2414	0.9117
2423	0.912
2432	0.912
2441	0.9119
2450	0.9119
2459	0.9116
2468	0.9114
2477	0.9109
2486	0.9103
2495	0.9095
2504	0.9085
2513	0.9066
2522	0.9047
2531	0.9027
2540	0.9002
2549	0.8976
2558	0.8949
2567	0.8915
2576	0.8882
2585	0.8848
2594	0.8815
2603	0.8781
2612	0.8761
2621	0.8741
2630	0.8724
2639	0.871
2648	0.8697
2657	0.8697
2666	0.8697
2675	0.8693
2684	0.869
2693	0.8681
2702	0.8642
2711	0.8532
2720	0.8451
2729	0.8448
2738	0.845
2747	0.8449
2756	0.8438
2765	0.8417
2774	0.8389
2783	0.8332
2792	0.8205
2801	0.8005
2810	0.7718
2819	0.7444
2828	0.7057
2837	0.659
2846	0.429
2855	0.3772
2864	0.3622
2873	0.2679
2882	0.2954
2891	0.3586
2900	0.2728
2909	0.2001
2918	0.1585
2927	0.1249
2936	0.1285
2945	0.1872
2954	0.1383
2963	0.0736
2972	0.1938
2981	0.4033
2990	0.5912
2999	0.6622
3008	0.7636
3017	0.7903
3026	0.7999
3035	0.8047
3044	0.8085
3053	0.8095
3062	0.8113
3071	0.8117
3080	0.8115
3089	0.8112
3098	0.8092
3107	0.8061
3116	0.8023
3125	0.7965
3134	0.79
3143	0.7829
3152	0.7752
3161	0.7664
3170	0.7584
3179	0.7528
3188	0.7498
3197	0.7481
3206	0.7475
3215	0.7475
3224	0.7479
3233	0.7465
3242	0.741
3251	0.7326
3260	0.7236
3269	0.7137
3278	0.7071
3287	0.7049
3296	0.7056
3305	0.7092
3314	0.7159
3323	0.72
3332	0.7175
3341	0.712
3350	0.7019
3359	0.6939
3368	0.6958
3377	0.7013
3386	0.7147
3395	0.7274
3404	0.7373
3413	0.7419
3422	0.7461
3431	0.7507
3440	0.7554
3449	0.7602
3458	0.765
3467	0.7697
3476	0.7743
3485	0.7786
3494	0.7847
3503	0.7915
3512	0.7985
3521	0.8054
3530	0.812
3539	0.8182
3548	0.8244
3557	0.8293
3566	0.8326
3575	0.8351
3584	0.8396
3593	0.8454
3602	0.8508
3611	0.8546
3620	0.858
3629	0.8603
3638	0.8617
3647	0.8656
3656	0.8659
3665	0.8634
3674	0.8597
3683	0.8639
3692	0.874
3701	0.8777
3710	0.8795
3719	0.8803
3728	0.8808
3737	0.8802
3746	0.8797
3755	0.8791
3764	0.879
3773	0.8788
3782	0.8787
3791	0.8786
3800	0.8788
