Infrared Spectrum: Purine, 6-pentylthio-
Formula: C10 H14 N4 S
CAS: 5443-89-0
State: SOLID (0.9 mg / 650 mg KBr DISC)
Class: COBLENTZ III
Instrument: PERKIN-ELMER 21 (GRATING)
Instrument parameters: FILTER CHANGE ABOUT 1025 CM^-^1
Sampling: TRANSMISSION
Resolution: 2
Origin: SOUTHERN RESEARCH INSTITUTE
1/CM	TRANSMITTANCE
616	0.5288
625.032	0.5123
634.064	0.4819
643.096	0.5109
652.128	0.6973
661.16	0.7091
670.192	0.7052
679.224	0.7143
688.256	0.709
697.288	0.6749
706.32	0.6398
715.352	0.6472
724.384	0.7015
733.416	0.7204
742.448	0.7226
751.48	0.7193
760.512	0.7082
769.544	0.6818
778.576	0.6486
787.608	0.623
796.64	0.6318
805.672	0.6196
814.704	0.5561
823.736	0.4938
832.768	0.4401
841.8	0.4058
850.832	0.2833
859.865	0.3119
868.897	0.6807
877.929	0.6925
886.961	0.6758
895.993	0.7286
905.025	0.7282
914.057	0.4871
923.089	0.5542
932.121	0.754
941.153	0.7348
950.185	0.7858
959.217	0.7791
968.249	0.7696
977.281	0.745
986.313	0.6463
995.345	0.4837
1004.38	0.7863
1013.41	0.8311
1022.44	0.7955
1031.47	0.7861
1040.5	0.7906
1049.54	0.7798
1058.57	0.7717
1067.6	0.7576
1076.63	0.7492
1085.66	0.7505
1094.7	0.7425
1103.73	0.7199
1112.76	0.7442
1121.79	0.7441
1130.83	0.7425
1139.86	0.7361
1148.89	0.7296
1157.92	0.7348
1166.95	0.7145
1175.99	0.6798
1185.02	0.6502
1194.05	0.6181
1203.08	0.5193
1212.11	0.4922
1221.15	0.4606
1230.18	0.132
1239.21	0.3576
1248.24	0.5888
1257.27	0.7454
1266.31	0.7221
1275.34	0.6441
1284.37	0.7346
1293.4	0.7248
1302.43	0.6277
1311.47	0.3819
1320.5	0.2424
1329.53	0.5356
1338.56	0.7599
1347.59	0.777
1356.63	0.7438
1365.66	0.699
1374.69	0.5045
1383.72	0.2864
1392.75	0.5853
1401.79	0.5654
1410.82	0.4429
1419.85	0.4417
1428.88	0.5328
1437.91	0.7107
1446.95	0.6793
1455.98	0.6346
1465.01	0.5582
1474.04	0.7555
1483.07	0.7496
1492.11	0.7381
1501.14	0.725
1510.17	0.6894
1519.2	0.6291
1528.23	0.5664
1537.27	0.4928
1546.3	0.3744
1555.33	0.1382
1564.36	0.0802
1573.39	0.2521
1582.43	0.2902
1591.46	0.2931
1600.49	0.5748
1609.52	0.7112
1618.55	0.7442
1627.59	0.7493
1636.62	0.7657
1645.65	0.7772
1654.68	0.7988
1663.71	0.8193
1672.75	0.8327
1681.78	0.8374
1690.81	0.8386
1699.84	0.8538
1708.87	0.8539
1717.91	0.8541
1726.94	0.8544
1735.97	0.8528
1745	0.8495
1754.03	0.8435
1763.07	0.8278
1772.1	0.8117
1781.13	0.8299
1790.16	0.8542
1799.19	0.8551
1808.23	0.855
1817.26	0.8553
1826.29	0.8545
1835.32	0.8537
1844.35	0.8528
1853.39	0.849
1862.42	0.8429
1871.45	0.8364
1880.48	0.8323
1889.51	0.8369
1898.55	0.8511
1907.58	0.8515
1916.61	0.8509
1925.64	0.8505
1934.67	0.8493
1943.71	0.8481
1952.74	0.8468
1961.77	0.8453
1970.8	0.8437
1979.83	0.842
1988.87	0.8401
1997.9	0.8386
2006.93	0.8377
2015.96	0.8367
2024.99	0.8354
2034.03	0.8337
2043.06	0.832
2052.09	0.83
2061.12	0.828
2070.16	0.8259
2079.19	0.8239
2088.22	0.8217
2097.25	0.8183
2106.28	0.8147
2115.32	0.8126
2124.35	0.8117
2133.38	0.8116
2142.41	0.8111
2151.44	0.8086
2160.48	0.8059
2169.51	0.8032
2178.54	0.8008
2187.57	0.799
2196.6	0.7986
2205.64	0.7971
2214.67	0.7928
2223.7	0.7871
2232.73	0.7815
2241.76	0.7784
2250.8	0.7777
2259.83	0.7765
2268.86	0.7751
2277.89	0.7728
2286.92	0.7658
2295.96	0.7571
2304.99	0.7486
2314.02	0.7414
2323.05	0.7384
2332.08	0.7371
2341.12	0.7368
2350.15	0.7366
2359.18	0.7365
2368.21	0.7366
2377.24	0.7375
2386.28	0.7386
2395.31	0.7392
2404.34	0.7397
2413.37	0.7382
2422.4	0.7367
2431.44	0.7353
2440.47	0.733
2449.5	0.7272
2458.53	0.719
2467.56	0.7059
2476.6	0.6866
2485.63	0.6613
2494.66	0.6536
2503.69	0.6505
2512.72	0.6481
2521.76	0.6457
2530.79	0.6436
2539.82	0.6419
2548.85	0.6396
2557.88	0.6379
2566.92	0.636
2575.95	0.6328
2584.98	0.6258
2594.01	0.616
2603.04	0.605
2612.08	0.5936
2621.11	0.5794
2630.14	0.5651
2639.17	0.5514
2648.2	0.5389
2657.24	0.5304
2666.27	0.5284
2675.3	0.5293
2684.33	0.5304
2693.36	0.5279
2702.4	0.5207
2711.43	0.5112
2720.46	0.4969
2729.49	0.4797
2738.52	0.4625
2747.56	0.4431
2756.59	0.4228
2765.62	0.4056
2774.65	0.3963
2783.68	0.3971
2792.72	0.4049
2801.75	0.4062
2810.78	0.3994
2819.81	0.3852
2828.84	0.3755
2837.88	0.3774
2846.91	0.3832
2855.94	0.3869
2864.97	0.3652
2874	0.3324
2883.04	0.3001
2892.07	0.2827
2901.1	0.2799
2910.13	0.2789
2919.16	0.2786
2928.2	0.2834
2937.23	0.3176
2946.26	0.3516
2955.29	0.3896
2964.32	0.4239
2973.36	0.4457
2982.39	0.4487
2991.42	0.4302
3000.45	0.4078
3009.49	0.3905
3018.52	0.3767
3027.55	0.3659
3036.58	0.3574
3045.61	0.3491
3054.65	0.3424
3063.68	0.3421
3072.71	0.346
3081.74	0.351
3090.77	0.3603
3099.81	0.3719
3108.84	0.3882
3117.87	0.4187
3126.9	0.4595
3135.93	0.4727
3144.97	0.4776
3154	0.4843
3163.03	0.4956
3172.06	0.5233
3181.09	0.5586
3190.13	0.5732
3199.16	0.5832
3208.19	0.5932
3217.22	0.6056
3226.25	0.616
3235.29	0.6254
3244.32	0.6338
3253.35	0.6406
3262.38	0.6468
3271.41	0.649
3280.45	0.6499
3289.48	0.6453
3298.51	0.6402
3307.54	0.6351
3316.57	0.6299
3325.61	0.6227
3334.64	0.6133
3343.67	0.6015
3352.7	0.5886
3361.73	0.5767
3370.77	0.5658
3379.8	0.5573
3388.83	0.5501
3397.86	0.5389
3406.89	0.538
3415.93	0.5388
3424.96	0.5406
3433.99	0.5443
3443.02	0.5493
3452.05	0.5559
3461.09	0.5618
3470.12	0.5685
3479.15	0.5753
3488.18	0.5821
3497.21	0.589
3506.25	0.5959
3515.28	0.6039
3524.31	0.612
3533.34	0.6201
3542.37	0.6281
3551.41	0.6388
3560.44	0.6514
3569.47	0.6626
3578.5	0.6753
3587.53	0.6908
3596.57	0.7042
3605.6	0.7153
3614.63	0.7206
3623.66	0.723
3632.69	0.7244
3641.73	0.7259
3650.76	0.7271
3659.79	0.7282
3668.82	0.7293
3677.85	0.7301
3686.89	0.7308
3695.92	0.7314
3704.95	0.7318
3713.98	0.7322
3723.01	0.7325
3732.05	0.7329
3741.08	0.7335
3750.11	0.734
3759.14	0.7343
3768.17	0.7344
3777.21	0.7319
3786.24	0.7267
3795.27	0.7246
3804.3	0.7245
3813.33	0.7254
3822.37	0.7265
3831.4	0.7275
3840.43	0.7286
3849.46	0.7297
3858.49	0.7294
3867.53	0.7288
3876.56	0.7275
3885.59	0.7249
3894.62	0.7223
3903.65	0.7198
3912.69	0.7172
3921.72	0.7147
3930.75	0.7117
3939.78	0.7083
3948.82	0.7048
3957.85	0.7017
3966.88	0.7
3975.91	0.6966
3984.94	0.6952
3993.98	0.6945
