Infrared Spectrum: 1-Butylcylohexanol
Formula: C10 H20 O
CAS: 5445-30-7
State: SOLUTION (10% CCl4 FOR 3800-1330, 10% CS2 FOR 1330-400 CM^-^1)
Class: COBLENTZ III
Instrument: DOW KBr FOREPRISM-GRATING
Instrument parameters: BLAZED AT 3.5, 12.0, 20.0 MICRON AND CHANGED AT 5.0, 7.5, 14.9 MICRON
Sampling: TRANSMISSION
Path length: 0.011 CM, 0.011 CM
Resolution: 2
Origin: DOW CHEMICAL COMPANY
1/CM	TRANSMITTANCE
3800	0.8752
3791	0.8728
3782	0.87
3773	0.8695
3764	0.8693
3755	0.8689
3746	0.868
3737	0.8671
3728	0.8664
3719	0.866
3710	0.865
3701	0.8653
3692	0.8555
3683	0.8462
3674	0.8487
3665	0.8512
3656	0.8488
3647	0.8393
3638	0.8171
3629	0.6775
3620	0.5469
3611	0.6207
3602	0.7392
3593	0.8171
3584	0.8235
3575	0.815
3566	0.8007
3557	0.7764
3548	0.7486
3539	0.7167
3530	0.6903
3521	0.6575
3512	0.6188
3503	0.5889
3494	0.5786
3485	0.5755
3476	0.578
3467	0.5834
3458	0.5888
3449	0.595
3440	0.6031
3431	0.6118
3422	0.6212
3413	0.6304
3404	0.6393
3395	0.6503
3386	0.6625
3377	0.6765
3368	0.6925
3359	0.7089
3350	0.7251
3341	0.7398
3332	0.7524
3323	0.7646
3314	0.7769
3305	0.7882
3296	0.7968
3287	0.8051
3278	0.813
3269	0.8186
3260	0.8241
3251	0.8286
3242	0.8325
3233	0.8357
3224	0.8382
3215	0.8407
3206	0.8432
3197	0.8457
3188	0.8477
3179	0.8492
3170	0.8507
3161	0.8515
3152	0.8521
3143	0.852
3134	0.8521
3125	0.8524
3116	0.8525
3107	0.8517
3098	0.8511
3089	0.8497
3080	0.8478
3071	0.8437
3062	0.8391
3053	0.8324
3044	0.8237
3035	0.8131
3026	0.7975
3017	0.7682
3008	0.7382
2999	0.6757
2990	0.5236
2981	0.3205
2972	0.0672
2963	0.0316
2954	0.0179
2945	0.0021
2936	0.0004
2927	0.0004
2918	0.0123
2909	0.0938
2900	0.1615
2891	0.2271
2882	0.1931
2873	0.0876
2864	0.0531
2855	0.0861
2846	0.2611
2837	0.4483
2828	0.6428
2819	0.6997
2810	0.729
2801	0.7482
2792	0.7657
2783	0.7815
2774	0.7951
2765	0.8069
2756	0.8168
2747	0.8217
2738	0.8221
2729	0.8128
2720	0.8148
2711	0.8171
2702	0.8192
2693	0.8199
2684	0.8175
2675	0.7997
2666	0.7857
2657	0.7898
2648	0.8049
2639	0.8198
2630	0.8242
2621	0.8258
2612	0.8267
2603	0.8268
2594	0.8285
2585	0.8357
2576	0.8431
2567	0.8478
2558	0.8503
2549	0.8521
2540	0.8536
2531	0.8537
2522	0.8538
2513	0.8537
2504	0.8537
2495	0.8534
2486	0.8532
2477	0.853
2468	0.8554
2459	0.8568
2450	0.8573
2441	0.8568
2432	0.8562
2423	0.8551
2414	0.8544
2405	0.8543
2396	0.8547
2387	0.8555
2378	0.8575
2369	0.861
2360	0.8642
2351	0.8618
2342	0.8634
2333	0.8691
2324	0.8696
2315	0.8681
2306	0.8658
2297	0.8637
2288	0.8618
2279	0.8606
2270	0.8601
2261	0.8605
2252	0.8621
2243	0.862
2234	0.8608
2225	0.8593
2216	0.8574
2207	0.8563
2198	0.8564
2189	0.857
2180	0.8594
2171	0.8621
2162	0.863
2153	0.8633
2144	0.864
2135	0.8646
2126	0.8648
2117	0.8648
2108	0.8646
2099	0.8644
2090	0.8647
2081	0.8654
2072	0.8663
2063	0.8673
2054	0.8677
2045	0.8675
2036	0.8677
2027	0.8678
2018	0.8677
2009	0.8645
2000	0.8613
1991	0.8609
1982	0.8642
1973	0.8644
1964	0.8586
1955	0.8616
1946	0.8631
1937	0.8624
1928	0.8618
1919	0.8627
1910	0.8641
1901	0.8662
1892	0.8635
1883	0.8648
1874	0.8652
1865	0.8662
1856	0.8675
1847	0.868
1838	0.8681
1829	0.8682
1820	0.8685
1811	0.8691
1802	0.8701
1793	0.871
1784	0.8721
1775	0.873
1766	0.8736
1757	0.8742
1748	0.8743
1739	0.8742
1730	0.8736
1721	0.8724
1712	0.8712
1703	0.8701
1694	0.8688
1685	0.8671
1676	0.866
1667	0.8628
1658	0.8635
1649	0.8639
1640	0.8598
1631	0.8554
1622	0.8558
1613	0.8604
1604	0.8678
1595	0.8747
1586	0.8795
1577	0.8821
1568	0.8892
1559	0.8966
1550	0.8991
1541	0.8934
1532	0.88
1523	0.8656
1514	0.8536
1505	0.8399
1496	0.8227
1487	0.7956
1478	0.7141
1469	0.3759
1460	0.3133
1451	0.2908
1442	0.5762
1433	0.7071
1424	0.7321
1415	0.7228
1406	0.6971
1397	0.6449
1388	0.576
1379	0.5793
1370	0.6425
1361	0.6347
1352	0.6005
1343	0.5808
1334	0.645
1325	0.7099
1316	0.68
1307	0.6808
1298	0.658
1289	0.6365
1280	0.6518
1271	0.6262
1262	0.4982
1253	0.5319
1244	0.5956
1235	0.6939
1226	0.7271
1217	0.7068
1208	0.7324
1199	0.7564
1190	0.7396
1181	0.6692
1172	0.4218
1163	0.5175
1154	0.5328
1145	0.5722
1136	0.5838
1127	0.5678
1118	0.5956
1109	0.607
1100	0.6958
1091	0.7219
1082	0.7614
1073	0.7728
1064	0.748
1055	0.7367
1046	0.6814
1037	0.5482
1028	0.6238
1019	0.7868
1010	0.8436
1001	0.8468
992	0.8386
983	0.7475
974	0.194
965	0.3534
956	0.448
947	0.7182
938	0.8139
929	0.7943
920	0.7504
911	0.6528
902	0.5879
893	0.7733
884	0.8653
875	0.9021
866	0.9153
857	0.9008
848	0.848
839	0.685
830	0.8601
821	0.8752
812	0.8792
803	0.8794
794	0.8571
785	0.7637
776	0.789
767	0.8172
758	0.8145
749	0.8069
740	0.7853
731	0.7318
722	0.774
713	0.8153
704	0.8315
695	0.8403
686	0.8446
677	0.8444
668	0.843
659	0.8393
650	0.8357
641	0.8307
632	0.8178
623	0.7843
614	0.7921
605	0.8024
596	0.8051
587	0.7994
578	0.7964
569	0.7906
560	0.7628
551	0.781
542	0.7825
533	0.7796
524	0.7699
515	0.7814
506	0.7687
497	0.75
488	0.7218
479	0.771
470	0.7864
461	0.7808
452	0.7851
443	0.7958
434	0.7983
425	0.7983
416	0.8003
407	0.8044
398	0.8074
389	0.8087
