Infrared Spectrum: 2,4-Dibromo-5-methylanisole
Formula: C8 H8 Br2 O
CAS: 5456-94-0
State: SOLUTION (10% CCl4 FOR 3800-1335, 10% CS2 FOR 1335-450 CM^-^1)
Melting point: 74 C
Class: COBLENTZ III
Instrument: DOW KBr FOREPRISM-GRATING
Instrument parameters: BLAZED AT 3.5, 12.0, 20.0 MICRON AND CHANGED AT 5.0, 7.5, 14.9 MICRON
Sampling: TRANSMISSION
Path length: 0.011 CM, 0.011 CM
Resolution: 2
Origin: DOW CHEMICAL COMPANY
1/CM	TRANSMITTANCE
3800	0.9183
3791	0.9203
3782	0.9187
3773	0.9208
3764	0.9211
3755	0.9211
3746	0.9209
3737	0.9225
3728	0.9223
3719	0.92
3710	0.9218
3701	0.9222
3692	0.9194
3683	0.9171
3674	0.9167
3665	0.9162
3656	0.9161
3647	0.9155
3638	0.914
3629	0.9112
3620	0.917
3611	0.916
3602	0.909
3593	0.9103
3584	0.9145
3575	0.9047
3566	0.9055
3557	0.9116
3548	0.9146
3539	0.9145
3530	0.9149
3521	0.9123
3512	0.9113
3503	0.9107
3494	0.9101
3485	0.9095
3476	0.9087
3467	0.9072
3458	0.9059
3449	0.9044
3440	0.9034
3431	0.9024
3422	0.9015
3413	0.9013
3404	0.9015
3395	0.9016
3386	0.9016
3377	0.9016
3368	0.9016
3359	0.9016
3350	0.9017
3341	0.9019
3332	0.9019
3323	0.902
3314	0.9021
3305	0.9039
3296	0.9022
3287	0.9022
3278	0.9032
3269	0.9032
3260	0.9031
3251	0.9031
3242	0.903
3233	0.9028
3224	0.9026
3215	0.9022
3206	0.9002
3197	0.9018
3188	0.9017
3179	0.8991
3170	0.8983
3161	0.8978
3152	0.8937
3143	0.8876
3134	0.8891
3125	0.8888
3116	0.8867
3107	0.88
3098	0.8753
3089	0.8736
3080	0.8677
3071	0.8268
3062	0.8211
3053	0.8582
3044	0.8704
3035	0.8687
3026	0.8415
3017	0.7449
3008	0.6824
2999	0.7415
2990	0.7542
2981	0.7165
2972	0.6895
2963	0.5461
2954	0.5929
2945	0.6222
2936	0.5346
2927	0.6237
2918	0.6609
2909	0.6881
2900	0.7471
2891	0.7915
2882	0.819
2873	0.8265
2864	0.8251
2855	0.788
2846	0.535
2837	0.7655
2828	0.8336
2819	0.8548
2810	0.8666
2801	0.8772
2792	0.8872
2783	0.8941
2774	0.8974
2765	0.8986
2756	0.8965
2747	0.8893
2738	0.8891
2729	0.8921
2720	0.895
2711	0.8978
2702	0.9003
2693	0.9022
2684	0.9034
2675	0.9043
2666	0.9043
2657	0.906
2648	0.9044
2639	0.9028
2630	0.9028
2621	0.9035
2612	0.8944
2603	0.892
2594	0.9011
2585	0.9057
2576	0.9085
2567	0.9086
2558	0.908
2549	0.902
2540	0.8979
2531	0.8987
2522	0.9063
2513	0.9087
2504	0.9093
2495	0.906
2486	0.9086
2477	0.9118
2468	0.9128
2459	0.9134
2450	0.913
2441	0.916
2432	0.9152
2423	0.9103
2414	0.9076
2405	0.9113
2396	0.9132
2387	0.9166
2378	0.9235
2369	0.9267
2360	0.9277
2351	0.9315
2342	0.9299
2333	0.9269
2324	0.9273
2315	0.9211
2306	0.9095
2297	0.9092
2288	0.9185
2279	0.9237
2270	0.923
2261	0.9229
2252	0.9227
2243	0.9197
2234	0.916
2225	0.9173
2216	0.9178
2207	0.9187
2198	0.9123
2189	0.9048
2180	0.9109
2171	0.9179
2162	0.9182
2153	0.9178
2144	0.9174
2135	0.9161
2126	0.9152
2117	0.911
2108	0.9042
2099	0.9061
2090	0.9067
2081	0.9118
2072	0.9154
2063	0.9162
2054	0.9187
2045	0.9174
2036	0.9181
2027	0.9189
2018	0.9181
2009	0.913
2000	0.9053
1991	0.8963
1982	0.8931
1973	0.8991
1964	0.8959
1955	0.9042
1946	0.9046
1937	0.9048
1928	0.9065
1919	0.9056
1910	0.9
1901	0.9067
1892	0.9051
1883	0.9056
1874	0.9073
1865	0.9058
1856	0.9051
1847	0.9064
1838	0.9079
1829	0.9083
1820	0.9106
1811	0.9123
1802	0.9039
1793	0.9067
1784	0.9098
1775	0.908
1766	0.9064
1757	0.9004
1748	0.8746
1739	0.8858
1730	0.9006
1721	0.8971
1712	0.8862
1703	0.895
1694	0.8997
1685	0.8956
1676	0.8828
1667	0.8886
1658	0.8915
1649	0.8903
1640	0.8848
1631	0.8899
1622	0.883
1613	0.878
1604	0.8689
1595	0.824
1586	0.5358
1577	0.685
1568	0.7549
1559	0.6701
1550	0.7799
1541	0.8133
1532	0.8221
1523	0.7944
1514	0.7846
1505	0.7533
1496	0.5194
1487	0.2744
1478	0.0747
1469	0.1531
1460	0.2075
1451	0.4054
1442	0.2167
1433	0.6304
1424	0.7641
1415	0.8135
1406	0.8366
1397	0.8415
1388	0.7221
1379	0.7031
1370	0.3839
1361	0.1258
1352	0.6933
1343	0.8158
1334	0.8758
1325	0.8813
1316	0.876
1307	0.832
1298	0.7761
1289	0.5164
1280	0.6621
1271	0.7713
1262	0.6332
1253	0.1844
1244	0.3424
1235	0.7004
1226	0.7606
1217	0.8091
1208	0.8698
1199	0.8812
1190	0.373
1181	0.771
1172	0.4173
1163	0.7108
1154	0.8766
1145	0.8766
1136	0.9107
1127	0.911
1118	0.9225
1109	0.9187
1100	0.8796
1091	0.8885
1082	0.8546
1073	0.782
1064	0.5261
1055	0.0507
1046	0.5686
1037	0.6959
1028	0.7235
1019	0.8191
1010	0.7939
1001	0.7709
992	0.8649
983	0.8891
974	0.9011
965	0.8942
956	0.8911
947	0.8695
938	0.666
929	0.8469
920	0.8921
911	0.9063
902	0.9116
893	0.9166
884	0.9122
875	0.5269
866	0.6458
857	0.8936
848	0.8664
839	0.642
830	0.7503
821	0.9103
812	0.9295
803	0.9384
794	0.9382
785	0.9397
776	0.9405
767	0.9429
758	0.9372
749	0.9375
740	0.9383
731	0.9285
722	0.8941
713	0.8801
704	0.9153
695	0.9075
686	0.9102
677	0.8991
668	0.7775
659	0.1889
650	0.8057
641	0.9097
632	0.9387
623	0.9396
614	0.935
605	0.9192
596	0.9349
587	0.933
578	0.7621
569	0.9115
560	0.9144
551	0.8773
542	0.9126
533	0.9129
524	0.9093
515	0.9029
506	0.8964
497	0.8905
488	0.8855
479	0.8797
470	0.873
461	0.8625
452	0.8491
