Infrared Spectrum: 3-Nitro-o-cresol
Formula: C7 H7 N O3
CAS: 5460-31-1
State: SOLID (SPLIT MULL), FLUOROLUBE FOR 3800-1335 CM^-^1, NUJOL FOR 1335-450 CM^-^1
Class: COBLENTZ III
Instrument: DOW KBr FOREPRISM-GRATING
Instrument parameters: BLAZED AT 3.5, 12.0, 20.0 MICRON AND CHANGED AT 5.0, 7.5, 14.9 MICRON
Sampling: TRANSMISSION
Resolution: 2
Origin: DOW CHEMICAL COMPANY
1/CM	TRANSMITTANCE
3800	0.5616
3791	0.5633
3782	0.5657
3773	0.5686
3764	0.5714
3755	0.574
3746	0.577
3737	0.5798
3728	0.5821
3719	0.5842
3710	0.5865
3701	0.588
3692	0.5891
3683	0.5912
3674	0.5941
3665	0.5977
3656	0.6005
3647	0.6033
3638	0.6062
3629	0.6091
3620	0.611
3611	0.6129
3602	0.6164
3593	0.625
3584	0.6252
3575	0.619
3566	0.6373
3557	0.6395
3548	0.6411
3539	0.6408
3530	0.6331
3521	0.6098
3512	0.5839
3503	0.5437
3494	0.4784
3485	0.4555
3476	0.441
3467	0.4274
3458	0.403
3449	0.3774
3440	0.3532
3431	0.3275
3422	0.2882
3413	0.2604
3404	0.2561
3395	0.2589
3386	0.2724
3377	0.2838
3368	0.2967
3359	0.3119
3350	0.3334
3341	0.3514
3332	0.3697
3323	0.3875
3314	0.4048
3305	0.4207
3296	0.436
3287	0.4508
3278	0.4649
3269	0.477
3260	0.4876
3251	0.4973
3242	0.5051
3233	0.5128
3224	0.5202
3215	0.5273
3206	0.5332
3197	0.5386
3188	0.5432
3179	0.5474
3170	0.5508
3161	0.554
3152	0.557
3143	0.5602
3134	0.5637
3125	0.5673
3116	0.5603
3107	0.5444
3098	0.5621
3089	0.5657
3080	0.5724
3071	0.5777
3062	0.5794
3053	0.5825
3044	0.5869
3035	0.5908
3026	0.5933
3017	0.5936
3008	0.5862
2999	0.5928
2990	0.5967
2981	0.5919
2972	0.5938
2963	0.5957
2954	0.5942
2945	0.5847
2936	0.5762
2927	0.5764
2918	0.5905
2909	0.601
2900	0.6096
2891	0.6145
2882	0.6162
2873	0.6169
2864	0.612
2855	0.6072
2846	0.6191
2837	0.6278
2828	0.6312
2819	0.633
2810	0.636
2801	0.6388
2792	0.6418
2783	0.6464
2774	0.6512
2765	0.6548
2756	0.6571
2747	0.6596
2738	0.6618
2729	0.6639
2720	0.6658
2711	0.6671
2702	0.6676
2693	0.6675
2684	0.669
2675	0.6721
2666	0.6754
2657	0.6784
2648	0.6815
2639	0.6837
2630	0.6857
2621	0.6876
2612	0.69
2603	0.6925
2594	0.6949
2585	0.6975
2576	0.6994
2567	0.6975
2558	0.695
2549	0.6976
2540	0.7003
2531	0.7022
2522	0.7034
2513	0.703
2504	0.7025
2495	0.7036
2486	0.7055
2477	0.7072
2468	0.7091
2459	0.7112
2450	0.7132
2441	0.711
2432	0.7097
2423	0.7092
2414	0.7093
2405	0.7096
2396	0.7133
2387	0.7161
2378	0.7169
2369	0.7168
2360	0.7165
2351	0.7153
2342	0.7149
2333	0.715
2324	0.7171
2315	0.7201
2306	0.7238
2297	0.7281
2288	0.7326
2279	0.7368
2270	0.738
2261	0.7411
2252	0.7461
2243	0.7514
2234	0.7575
2225	0.7632
2216	0.7683
2207	0.7687
2198	0.7669
2189	0.7696
2180	0.7756
2171	0.7805
2162	0.7848
2153	0.7892
2144	0.7922
2135	0.7931
2126	0.7921
2117	0.7931
2108	0.7961
2099	0.7997
2090	0.803
2081	0.8064
2072	0.8099
2063	0.8134
2054	0.8165
2045	0.8201
2036	0.8232
2027	0.8268
2018	0.8301
2009	0.8321
2000	0.8218
1991	0.8133
1982	0.8135
1973	0.8143
1964	0.814
1955	0.8072
1946	0.7958
1937	0.8101
1928	0.8161
1919	0.8169
1910	0.8171
1901	0.8204
1892	0.8221
1883	0.8215
1874	0.8155
1865	0.8121
1856	0.8223
1847	0.8288
1838	0.8313
1829	0.8341
1820	0.8351
1811	0.8362
1802	0.8368
1793	0.834
1784	0.8278
1775	0.8362
1766	0.843
1757	0.8459
1748	0.8466
1739	0.8473
1730	0.8471
1721	0.8425
1712	0.8449
1703	0.8368
1694	0.8389
1685	0.8484
1676	0.8531
1667	0.8492
1658	0.8486
1649	0.8544
1640	0.8546
1631	0.8545
1622	0.8301
1613	0.6296
1604	0.7951
1595	0.826
1586	0.8155
1577	0.8234
1568	0.8184
1559	0.7737
1550	0.7171
1541	0.6426
1532	0.3176
1523	0.0646
1514	0.0946
1505	0.3416
1496	0.4544
1487	0.5532
1478	0.6331
1469	0.5608
1460	0.5371
1451	0.6219
1442	0.638
1433	0.7138
1424	0.7312
1415	0.7311
1406	0.7451
1397	0.7611
1388	0.7168
1379	0.6992
1370	0.6801
1361	0.5843
1352	0.156
1343	0.1056
1334	0.3013
1325	0.516
1316	0.5934
1307	0.6138
1298	0.627
1289	0.2653
1280	0.2903
1271	0.448
1262	0.5062
1253	0.6058
1244	0.6817
1235	0.7351
1226	0.7611
1217	0.7611
1208	0.6575
1199	0.5335
1190	0.7031
1181	0.6251
1172	0.4644
1163	0.5526
1154	0.4623
1145	0.6255
1136	0.7204
1127	0.7558
1118	0.7744
1109	0.7878
1100	0.795
1091	0.7924
1082	0.7325
1073	0.7967
1064	0.8081
1055	0.8058
1046	0.8044
1037	0.6568
1028	0.7014
1019	0.8045
1010	0.7919
1001	0.8291
992	0.8421
983	0.8424
974	0.8095
965	0.8357
956	0.8467
947	0.838
938	0.7265
929	0.8491
920	0.8528
911	0.7987
902	0.8554
893	0.8516
884	0.8631
875	0.8771
866	0.877
857	0.8751
848	0.8201
839	0.7691
830	0.5609
821	0.7418
812	0.7578
803	0.3991
794	0.7315
785	0.7225
776	0.804
767	0.8481
758	0.8421
749	0.8133
740	0.3343
731	0.6811
722	0.7128
713	0.8181
704	0.7548
695	0.8138
686	0.8167
677	0.8396
668	0.8614
659	0.8628
650	0.8621
641	0.8511
632	0.7558
623	0.8214
614	0.8025
605	0.7775
596	0.7537
587	0.7333
578	0.7315
569	0.748
560	0.7557
551	0.7601
542	0.7547
533	0.7608
524	0.7615
515	0.7612
506	0.776
497	0.7874
488	0.7954
479	0.7984
470	0.8024
461	0.8043
