Infrared Spectrum: 1,4-DIBENZAMIDO BENZENE
Formula: C20 H16 N2 O2
CAS: 5467-04-9
State: SOLID (1.0% IN KBr PELLET)
Class: COBLENTZ
Instrument: Not specified, most likely a prism, grating, or hybrid spectrometer.
Sampling: TRANSMISSION
Path length: 0.0355 CM
Resolution: 4
Origin: ANDERSON PHYSICAL LABORATORY
1/CM	TRANSMITTANCE
670.922	0.467
679.328	0.5379
687.734	0.3601
696.14	0.5108
704.546	0.614
712.952	0.3971
721.358	0.4929
729.764	0.746
738.17	0.852
746.576	0.874
754.982	0.882
763.388	0.883
771.794	0.88
780.2	0.868
788.606	0.7921
797.012	0.6869
805.418	0.779
813.824	0.774
822.23	0.642
830.636	0.488
839.042	0.766
847.448	0.873
855.854	0.839
864.26	0.894
872.666	0.892
881.071	0.886
889.477	0.859
897.883	0.794
906.289	0.676
914.695	0.831
923.101	0.779
931.507	0.818
939.913	0.871
948.319	0.882
956.725	0.873
965.131	0.858
973.537	0.849
981.943	0.822
990.349	0.842
998.755	0.836
1007.16	0.783
1015.57	0.83
1023.97	0.749
1032.38	0.639
1040.79	0.846
1049.19	0.839
1057.6	0.825
1066	0.798
1074.41	0.731
1082.82	0.722
1091.22	0.804
1099.63	0.788
1108.03	0.733
1116.44	0.746
1124.84	0.71
1133.25	0.779
1141.66	0.795
1150.06	0.794
1158.47	0.769
1166.87	0.757
1175.28	0.751
1183.69	0.7221
1192.09	0.715
1200.5	0.734
1208.9	0.716
1217.31	0.703
1225.72	0.649
1234.12	0.539
1242.53	0.518
1250.93	0.523
1259.34	0.529
1267.75	0.457
1276.15	0.36
1284.56	0.5849
1292.96	0.66
1301.37	0.527
1309.78	0.424
1318.18	0.271
1326.59	0.272
1334.99	0.593
1343.4	0.658
1351.81	0.655
1360.21	0.627
1368.62	0.628
1377.02	0.651
1385.43	0.633
1393.84	0.573
1402.24	0.493
1410.65	0.314
1419.05	0.391
1427.46	0.692
1435.87	0.725
1444.27	0.673
1452.68	0.5491
1461.08	0.615
1469.49	0.548
1477.9	0.485
1486.3	0.332
1494.71	0.38
1503.11	0.363
1511.52	0.248
1519.93	0.1781
1528.33	0.242
1536.74	0.272
1545.14	0.193
1553.55	0.219
1561.96	0.412
1570.36	0.698
1578.77	0.733
1587.17	0.608
1595.58	0.749
1603.99	0.6341
1612.39	0.4381
1620.8	0.5509
1629.2	0.603
1637.61	0.502
1646.02	0.239
1654.42	0.131
1662.83	0.312
1671.23	0.514
1679.64	0.694
1688.05	0.7879
1696.45	0.84
1704.86	0.88
1713.26	0.897
1721.67	0.904
1730.08	0.916
1738.48	0.912
1746.89	0.916
1755.29	0.918
1763.7	0.913
1772.11	0.907
1780.51	0.907
1788.92	0.913
1797.32	0.913
1805.73	0.909
1814.14	0.903
1822.54	0.898
1830.95	0.912
1839.35	0.91
1847.76	0.909
1856.17	0.906
1864.57	0.901
1872.98	0.904
1881.38	0.91
1889.79	0.915
1898.2	0.906
1906.6	0.888
1915.01	0.885
1923.41	0.907
1931.82	0.915
1940.22	0.923
1948.63	0.934
1957.04	0.937
1965.44	0.928
1973.85	0.921
1982.25	0.923
1990.66	0.925
1999.07	0.929
2007.47	0.931
2015.88	0.932
2024.28	0.9315
2032.69	0.9283
2041.1	0.925
2049.5	0.9245
2057.91	0.9225
2066.31	0.922
2074.72	0.922
2083.13	0.921
2091.53	0.921
2099.94	0.919
2108.34	0.918
2116.75	0.9174
2125.16	0.916
2133.56	0.9152
2141.97	0.913
2150.37	0.91
2158.78	0.9079
2167.19	0.907
2175.59	0.904
2184	0.9024
2192.4	0.8989
2200.81	0.8946
2209.22	0.8919
2217.62	0.8887
2226.03	0.888
2234.43	0.888
2242.84	0.8859
2251.25	0.8844
2259.65	0.883
2268.06	0.8822
2276.46	0.879
2284.87	0.8767
2293.28	0.876
2301.68	0.874
2310.09	0.8668
2318.49	0.8589
2326.9	0.844
2335.31	0.8403
2343.71	0.8369
2352.12	0.836
2360.52	0.8366
2368.93	0.8399
2377.34	0.8461
2385.74	0.8477
2394.15	0.849
2402.55	0.849
2410.96	0.8469
2419.37	0.845
2427.77	0.843
2436.18	0.8402
2444.58	0.8369
2452.99	0.8352
2461.4	0.8334
2469.8	0.8312
2478.21	0.8297
2486.61	0.8262
2495.02	0.8227
2503.43	0.822
2511.83	0.822
2520.24	0.822
2528.64	0.8197
2537.05	0.8162
2545.46	0.815
2553.86	0.8142
2562.27	0.8099
2570.67	0.8071
2579.08	0.806
2587.49	0.8021
2595.89	0.7986
2604.3	0.7971
2612.7	0.795
2621.11	0.794
2629.52	0.792
2637.92	0.7891
2646.33	0.788
2654.73	0.788
2663.14	0.786
2671.55	0.785
2679.95	0.7828
2688.36	0.7811
2696.76	0.7793
2705.17	0.7771
2713.58	0.7755
2721.98	0.7705
2730.39	0.7675
2738.79	0.764
2747.2	0.76
2755.6	0.758
2764.01	0.757
2772.42	0.755
2780.82	0.7503
2789.23	0.746
2797.63	0.746
2806.04	0.746
2814.45	0.7457
2822.85	0.744
2831.26	0.7422
2839.66	0.737
2848.07	0.7337
2856.48	0.7319
2864.88	0.7302
2873.29	0.728
2881.69	0.7264
2890.1	0.7245
2898.51	0.724
2906.91	0.722
2915.32	0.721
2923.72	0.7174
2932.13	0.713
2940.54	0.7119
2948.94	0.7097
2957.35	0.707
2965.75	0.707
2974.16	0.7069
2982.57	0.7054
2990.97	0.7019
2999.38	0.6955
3007.78	0.6817
3016.19	0.6717
3024.6	0.6648
3033	0.6575
3041.41	0.6508
3049.81	0.6487
3058.22	0.642
3066.63	0.637
3075.03	0.634
3083.44	0.6347
3091.84	0.6437
3100.25	0.6519
3108.66	0.6604
3117.06	0.664
3125.47	0.6634
3133.87	0.6584
3142.28	0.6506
3150.69	0.6439
3159.09	0.6381
3167.5	0.6331
3175.9	0.6297
3184.31	0.6262
3192.72	0.6194
3201.12	0.6095
3209.53	0.5964
3217.93	0.5852
3226.34	0.576
3234.75	0.5638
3243.15	0.5417
3251.56	0.5266
3259.96	0.5065
3268.37	0.4903
3276.78	0.4688
3285.18	0.4428
3293.59	0.417
3301.99	0.3996
3310.4	0.3889
3318.81	0.3808
3327.21	0.3537
3335.62	0.3183
3344.02	0.3018
3352.43	0.3051
3360.84	0.3244
3369.24	0.4012
3377.65	0.4571
3386.05	0.5497
3394.46	0.5934
3402.87	0.6
3411.27	0.611
3419.68	0.611
3428.08	0.6096
3436.49	0.5993
3444.9	0.591
3453.3	0.5875
3461.71	0.585
3470.11	0.585
3478.52	0.5855
3486.93	0.587
3495.33	0.588
3503.74	0.59
3512.14	0.5932
3520.55	0.598
3528.96	0.6
3537.36	0.603
3545.77	0.6068
3554.17	0.611
3562.58	0.6135
3570.98	0.616
3579.39	0.6195
3587.8	0.623
3596.2	0.6248
3604.61	0.627
3613.01	0.6316
3621.42	0.6372
3629.83	0.6453
3638.23	0.6521
3646.64	0.6543
3655.04	0.655
3663.45	0.655
3671.86	0.6539
3680.26	0.652
3688.67	0.6531
3697.07	0.654
3705.48	0.6581
3713.89	0.66
3722.29	0.6589
3730.7	0.6572
3739.1	0.654
3747.51	0.652
3755.92	0.652
3764.32	0.6545
3772.73	0.66
3781.13	0.66
3789.54	0.66
3797.95	0.6583
3806.35	0.6568
3814.76	0.6493
3823.16	0.6438
3831.57	0.642
3839.98	0.642
3848.38	0.642
3856.79	0.642
3865.19	0.64
3873.6	0.6369
3882.01	0.6353
3890.41	0.634
3898.82	0.634
3907.22	0.6361
3915.63	0.637
3924.04	0.6383
3932.44	0.639
3940.85	0.639
3949.25	0.6382
3957.66	0.6351
3966.07	0.6331
3974.47	0.6309
