Infrared Spectrum: 4'-(BENZYLOXY) ACETOPHENONE
Formula: C15 H14 O2
CAS: 54696-05-8
State: SOLUTION (10% IN CCl4 FOR 4000-1330 CM^-^1, 10% IN CS2 FOR 1330-600 CM^-^1)
Class: COBLENTZ III
Instrument: BECKMAN IR-7 (GRATING)
Instrument parameters: GRATING CHANGED AT 3000, 2200, 1150 CM^-^1
Sampling: TRANSMISSION
Path length: 0.010 CM, 0.011 CM
Resolution: 4
Origin: WESTERN REGIONAL RES. USDA
1/CM	TRANSMITTANCE
596.149	0.617
605.115	0.485
614.08	0.746
623.046	0.815
632.011	0.757
640.977	0.76
649.942	0.76
658.908	0.778
667.873	0.762
676.839	0.74
685.804	0.597
694.77	0.391
703.735	0.3799
712.701	0.682
721.666	0.6061
730.632	0.313
739.598	0.471
748.563	0.491
757.529	0.672
766.494	0.72
775.46	0.709
784.425	0.657
793.391	0.708
802.356	0.5569
811.322	0.67
820.287	0.503
829.253	0.208
838.218	0.3499
847.184	0.577
856.149	0.524
865.115	0.671
874.081	0.725
883.046	0.768
892.012	0.78
900.977	0.732
909.943	0.711
918.908	0.788
927.874	0.788
936.839	0.755
945.805	0.5512
954.77	0.392
963.736	0.704
972.701	0.742
981.667	0.701
990.632	0.6
999.598	0.454
1008.56	0.334
1017.53	0.292
1026.49	0.352
1035.46	0.4679
1044.43	0.708
1053.39	0.787
1062.36	0.788
1071.32	0.682
1080.29	0.739
1089.25	0.788
1098.22	0.768
1107.18	0.649
1116.15	0.588
1125.12	0.737
1134.08	0.733
1143.05	0.727
1152.01	0.671
1160.98	0.3741
1169.94	0.031
1178.91	0.3761
1187.87	0.663
1196.84	0.665
1205.81	0.62
1214.77	0.3941
1223.74	0.089
1232.7	0.09
1241.67	0.022
1250.63	0.016
1259.6	0.041
1268.56	0.037
1277.53	0.361
1286.5	0.577
1295.46	0.483
1304.43	0.328
1313.39	0.34
1322.36	0.445
1331.32	0.59
1340.29	0.654
1349.25	0.4601
1358.22	0.149
1367.18	0.505
1376.15	0.5
1385.12	0.527
1394.08	0.694
1403.05	0.7
1412.01	0.5819
1420.98	0.37
1429.94	0.517
1438.91	0.637
1447.87	0.643
1456.84	0.398
1465.81	0.591
1474.77	0.713
1483.74	0.724
1492.7	0.6339
1501.67	0.4458
1510.63	0.207
1519.6	0.528
1528.56	0.508
1537.53	0.456
1546.5	0.402
1555.46	0.399
1564.43	0.402
1573.39	0.18
1582.36	0.288
1591.32	0.128
1600.29	0.012
1609.25	0.234
1618.22	0.508
1627.19	0.637
1636.15	0.671
1645.12	0.669
1654.08	0.695
1663.05	0.611
1672.01	0.0889
1680.98	0.015
1689.94	0.3001
1698.91	0.66
1707.88	0.749
1716.84	0.77
1725.81	0.78
1734.77	0.784
1743.74	0.788
1752.7	0.791
1761.67	0.802
1770.63	0.802
1779.6	0.805
1788.56	0.82
1797.53	0.814
1806.5	0.785
1815.46	0.81
1824.43	0.808
1833.39	0.818
1842.36	0.823
1851.32	0.82
1860.29	0.805
1869.25	0.788
1878.22	0.795
1887.19	0.801
1896.15	0.802
1905.12	0.785
1914.08	0.809
1923.05	0.817
1932.01	0.811
1940.98	0.793
1949.94	0.777
1958.91	0.802
1967.88	0.794
1976.84	0.802
1985.81	0.804
1994.77	0.808
2003.74	0.8107
2012.7	0.8087
2021.67	0.8075
2030.63	0.8045
2039.6	0.802
2048.57	0.807
2057.53	0.8113
2066.5	0.814
2075.46	0.8178
2084.43	0.8225
2093.39	0.8263
2102.36	0.828
2111.32	0.828
2120.29	0.8293
2129.26	0.8313
2138.22	0.8356
2147.19	0.8403
2156.15	0.842
2165.12	0.8407
2174.08	0.839
2183.05	0.8377
2192.01	0.8373
2200.98	0.84
2209.94	0.84
2218.91	0.84
2227.88	0.8397
2236.84	0.8387
2245.81	0.8377
2254.77	0.837
2263.74	0.8337
2272.7	0.8316
2281.67	0.8273
2290.63	0.8213
2299.6	0.819
2308.57	0.819
2317.53	0.82
2326.5	0.8214
2335.46	0.8274
2344.43	0.828
2353.39	0.8294
2362.36	0.8334
2371.32	0.8364
2380.29	0.8384
2389.26	0.8386
2398.22	0.837
2407.19	0.8346
2416.15	0.8292
2425.12	0.828
2434.08	0.829
2443.05	0.8304
2452.01	0.8326
2460.98	0.831
2469.95	0.83
2478.91	0.8286
2487.88	0.828
2496.84	0.828
2505.81	0.828
2514.77	0.828
2523.74	0.828
2532.7	0.8261
2541.67	0.8186
2550.64	0.8131
2559.6	0.811
2568.57	0.81
2577.53	0.8095
2586.5	0.809
2595.46	0.8105
2604.43	0.8135
2613.39	0.8145
2622.36	0.817
2631.33	0.817
2640.29	0.82
2649.26	0.8315
2658.22	0.835
2667.19	0.835
2676.15	0.834
2685.12	0.8335
2694.08	0.831
2703.05	0.832
2712.01	0.833
2720.98	0.8325
2729.95	0.8305
2738.91	0.828
2747.88	0.8259
2756.84	0.8235
2765.81	0.822
2774.77	0.822
2783.74	0.822
2792.7	0.823
2801.67	0.8225
2810.64	0.8194
2819.6	0.8164
2828.57	0.8082
2837.53	0.7971
2846.5	0.7889
2855.46	0.7791
2864.43	0.7483
2873.39	0.6887
2882.36	0.6902
2891.33	0.7207
2900.29	0.7336
2909.26	0.7348
2918.22	0.716
2927.19	0.7026
2936.15	0.6994
2945.12	0.7
2954.08	0.7117
2963.05	0.7287
2972.02	0.7431
2980.98	0.7652
2989.95	0.779
2998.91	0.7666
3007.88	0.7266
3016.84	0.7138
3025.81	0.7231
3034.77	0.6673
3043.74	0.6363
3052.71	0.6855
3061.67	0.6903
3070.64	0.655
3079.6	0.6443
3088.57	0.7103
3097.53	0.7057
3106.5	0.7261
3115.46	0.7681
3124.43	0.7817
3133.39	0.8084
3142.36	0.8167
3151.33	0.819
3160.29	0.819
3169.26	0.82
3178.22	0.8217
3187.19	0.822
3196.15	0.822
3205.12	0.8254
3214.08	0.828
3223.05	0.8287
3232.02	0.831
3240.98	0.832
3249.95	0.832
3258.91	0.832
3267.88	0.831
3276.84	0.831
3285.81	0.8337
3294.77	0.834
3303.74	0.833
3312.71	0.8312
3321.67	0.831
3330.64	0.8282
3339.6	0.8197
3348.57	0.8012
3357.53	0.7995
3366.5	0.8071
3375.46	0.8223
3384.43	0.8298
3393.4	0.831
3402.36	0.832
3411.33	0.832
3420.29	0.832
3429.26	0.831
3438.22	0.831
3447.19	0.83
3456.15	0.829
3465.12	0.828
3474.09	0.828
3483.05	0.828
3492.02	0.828
3500.98	0.828
3509.95	0.828
3518.91	0.828
3527.88	0.828
3536.84	0.828
3545.81	0.828
3554.77	0.828
3563.74	0.8298
3572.71	0.831
3581.67	0.832
3590.64	0.8329
3599.6	0.8339
3608.57	0.834
3617.53	0.834
3626.5	0.834
3635.46	0.8331
3644.43	0.8321
3653.4	0.8311
3662.36	0.8301
3671.33	0.8281
3680.29	0.8271
3689.26	0.8251
3698.22	0.826
3707.19	0.8279
3716.15	0.828
3725.12	0.8299
3734.09	0.831
3743.05	0.831
3752.02	0.831
3760.98	0.8319
3769.95	0.832
3778.91	0.832
3787.88	0.8329
3796.84	0.833
3805.81	0.833
3814.78	0.833
3823.74	0.832
3832.71	0.831
3841.67	0.831
3850.64	0.83
3859.6	0.829
3868.57	0.828
3877.53	0.827
3886.5	0.827
3895.47	0.827
3904.43	0.827
3913.4	0.827
3922.36	0.826
3931.33	0.825
3940.29	0.824
3949.26	0.824
3958.22	0.824
3967.19	0.825
3976.15	0.826
3985.12	0.826
3994.09	0.827
4003.05	0.828
