Infrared Spectrum: BENZENE, 1-CHLOROMETHYL-4-(1-CHLOROETHYL)-
Formula: C9 H10 Cl2
CAS: 54789-30-9
State: SOLUTION (10% IN CCl4 FOR 3800-1333 AND 10% IN CS2 FOR 1333-450 CM^-^1)
Class: COBLENTZ III
Instrument: DOW KBr FOREPRISM-GRATING
Instrument parameters: BLAZED AT 3.5, 12.0, 20.0 MICRON, CHANGED AT 5.0, 7.5, 14.9 MICRON
Sampling: TRANSMISSION
Path length: 0.011, 0.011 CM
Resolution: 4
Origin: DOW CHEMICAL COMPANY
1/CM	TRANSMITTANCE
450.38	0.949
459.066	0.959
467.752	0.971
476.439	0.978
485.125	0.978
493.811	0.971
502.497	0.937
511.184	0.889
519.87	0.937
528.556	0.91
537.242	0.889
545.928	0.926
554.615	0.907
563.301	0.888
571.987	0.959
580.673	1.01
589.36	1.02
598.046	1.014
606.732	1.002
615.418	0.978
624.104	0.808
632.791	0.777
641.477	0.735
650.163	0.697
658.849	0.652
667.536	0.464
676.222	0.279
684.908	0.279
693.594	0.513
702.28	0.767
710.967	0.839
719.653	0.824
728.339	0.679
737.025	0.278
745.712	0.388
754.398	0.65
763.084	0.835
771.77	0.919
780.456	0.949
789.143	0.948
797.829	0.921
806.515	0.851
815.201	0.692
823.888	0.502
832.574	0.517
841.26	0.705
849.946	0.77
858.632	0.824
867.319	0.875
876.005	0.925
884.691	0.964
893.377	0.978
902.064	0.949
910.75	0.959
919.436	0.991
928.122	0.998
936.808	0.982
945.495	0.972
954.181	0.915
962.867	0.707
971.553	0.834
980.239	0.97
988.926	1.001
997.612	1.005
1006.3	0.987
1014.98	0.639
1023.67	0.974
1032.36	0.917
1041.04	0.5198
1049.73	0.76
1058.42	0.942
1067.1	0.854
1075.79	0.978
1084.47	1.001
1093.16	1.002
1101.85	0.979
1110.53	0.858
1119.22	0.959
1127.91	1.005
1136.59	0.99
1145.28	0.976
1153.96	0.98
1162.65	0.979
1171.34	0.964
1180.02	0.942
1188.71	0.937
1197.4	0.858
1206.08	0.865
1214.77	0.796
1223.45	0.591
1232.14	0.631
1240.83	0.671
1249.51	0.777
1258.2	0.5229
1266.88	0.6051
1275.57	0.841
1284.26	0.778
1292.94	0.887
1301.63	0.894
1310.32	0.889
1319	0.934
1327.69	0.915
1336.37	0.851
1345.06	0.914
1353.75	0.94
1362.43	0.934
1371.12	0.8149
1379.81	0.853
1388.49	0.899
1397.18	0.883
1405.86	0.826
1414.55	0.6329
1423.24	0.633
1431.92	0.773
1440.61	0.5168
1449.3	0.618
1457.98	0.831
1466.67	0.894
1475.35	0.894
1484.04	0.872
1492.73	0.827
1501.41	0.739
1510.1	0.544
1518.79	0.618
1527.47	0.63
1536.16	0.546
1544.84	0.478
1553.53	0.506
1562.22	0.592
1570.9	0.642
1579.59	0.657
1588.27	0.718
1596.96	0.798
1605.65	0.86
1614.33	0.899
1623.02	0.929
1631.71	0.941
1640.39	0.937
1649.08	0.923
1657.76	0.914
1666.45	0.915
1675.14	0.936
1683.82	0.942
1692.51	0.944
1701.2	0.949
1709.88	0.957
1718.57	0.966
1727.25	0.961
1735.94	0.955
1744.63	0.959
1753.31	0.968
1762	0.956
1770.69	0.947
1779.37	0.934
1788.06	0.907
1796.74	0.947
1805.43	0.956
1814.12	0.956
1822.8	0.959
1831.49	0.959
1840.18	0.957
1848.86	0.952
1857.55	0.953
1866.23	0.956
1874.92	0.953
1883.61	0.945
1892.29	0.925
1900.98	0.875
1909.67	0.907
1918.35	0.941
1927.04	0.949
1935.72	0.955
1944.41	0.957
1953.1	0.959
1961.78	0.953
1970.47	0.957
1979.15	0.957
1987.84	0.96
1996.53	0.959
2005.21	0.972
2013.9	0.974
2022.59	0.974
2031.27	0.975
2039.96	0.9721
2048.64	0.972
2057.33	0.9722
2066.02	0.9759
2074.7	0.98
2083.39	0.98
2092.08	0.982
2100.76	0.983
2109.45	0.9804
2118.13	0.98
2126.82	0.9816
2135.51	0.982
2144.19	0.98
2152.88	0.98
2161.57	0.98
2170.25	0.98
2178.94	0.98
2187.62	0.98
2196.31	0.98
2205	0.98
2213.68	0.98
2222.37	0.982
2231.06	0.979
2239.74	0.9744
2248.43	0.9714
2257.11	0.9689
2265.8	0.963
2274.49	0.959
2283.17	0.957
2291.86	0.9536
2300.55	0.952
2309.23	0.9588
2317.92	0.9651
2326.6	0.9639
2335.29	0.9598
2343.98	0.9664
2352.66	0.98
2361.35	0.98
2370.03	0.979
2378.72	0.979
2387.41	0.979
2396.09	0.979
2404.78	0.979
2413.47	0.979
2422.15	0.979
2430.84	0.977
2439.52	0.9742
2448.21	0.983
2456.9	0.9846
2465.58	0.98
2474.27	0.98
2482.96	0.98
2491.64	0.98
2500.33	0.9817
2509.01	0.978
2517.7	0.978
2526.39	0.978
2535.07	0.98
2543.76	0.982
2552.45	0.9819
2561.13	0.978
2569.82	0.978
2578.5	0.978
2587.19	0.978
2595.88	0.979
2604.56	0.9799
2613.25	0.978
2621.94	0.974
2630.62	0.9759
2639.31	0.979
2647.99	0.974
2656.68	0.9759
2665.37	0.982
2674.05	0.98
2682.74	0.9792
2691.43	0.9716
2700.11	0.967
2708.8	0.97
2717.48	0.9672
2726.17	0.966
2734.86	0.9717
2743.54	0.9774
2752.23	0.9766
2760.91	0.9743
2769.6	0.974
2778.29	0.975
2786.97	0.974
2795.66	0.9728
2804.35	0.961
2813.03	0.9514
2821.72	0.9573
2830.4	0.9594
2839.09	0.9493
2847.78	0.9344
2856.46	0.8819
2865.15	0.8434
2873.84	0.9185
2882.52	0.9156
2891.21	0.9179
2899.89	0.9216
2908.58	0.9053
2917.27	0.82
2925.95	0.705
2934.64	0.813
2943.33	0.7736
2952.01	0.7103
2960.7	0.6933
2969.38	0.5582
2978.07	0.559
2986.76	0.509
2995.44	0.6944
3004.13	0.8032
3012.82	0.8052
3021.5	0.8024
3030.19	0.7763
3038.87	0.86
3047.56	0.8398
3056.25	0.8246
3064.93	0.8897
3073.62	0.929
3082.31	0.9219
3090.99	0.9149
3099.68	0.9328
3108.36	0.949
3117.05	0.9518
3125.74	0.936
3134.42	0.955
3143.11	0.963
3151.79	0.97
3160.48	0.971
3169.17	0.971
3177.85	0.972
3186.54	0.974
3195.23	0.9553
3203.91	0.972
3212.6	0.97
3221.28	0.9709
3229.97	0.972
3238.66	0.974
3247.34	0.9712
3256.03	0.9718
3264.72	0.975
3273.4	0.974
3282.09	0.9758
3290.77	0.979
3299.46	0.9787
3308.15	0.976
3316.83	0.9774
3325.52	0.979
3334.21	0.978
3342.89	0.978
3351.58	0.976
3360.26	0.978
3368.95	0.978
3377.64	0.978
3386.32	0.975
3395.01	0.975
3403.7	0.978
3412.38	0.976
3421.07	0.9755
3429.75	0.976
3438.44	0.978
3447.13	0.978
3455.81	0.9755
3464.5	0.9755
3473.19	0.979
3481.87	0.9796
3490.56	0.976
3499.24	0.9794
3507.93	0.9812
3516.62	0.978
3525.3	0.979
3533.99	0.9783
3542.67	0.9823
3551.36	0.982
3560.05	0.982
3568.73	0.9659
3577.42	0.973
3586.11	0.978
3594.79	0.966
3603.48	0.974
3612.16	0.975
3620.85	0.9782
3629.54	0.9788
3638.22	0.972
3646.91	0.972
3655.6	0.978
3664.28	0.9778
3672.97	0.9719
3681.65	0.971
3690.34	0.9791
3699.03	0.979
3707.71	0.979
3716.4	0.982
3725.09	0.986
3733.77	0.985
3742.46	0.985
3751.14	0.987
3759.83	0.9831
3768.52	0.9831
3777.2	0.9848
