Infrared Spectrum: BENZAMIDE
Formula: C7 H7 N O
CAS: 55-21-0
State: SOLID (NUJOL MULL)
Class: COBLENTZ III
Instrument: BECKMAN IR-7 (GRATING)
Instrument parameters: GRATING CHANGES AT 3000, 2200, 1150 CM^-^1
Sampling: TRANSMISSION
Resolution: 4
Origin: WESTERN REGIONAL RES. USDA
1/CM	TRANSMITTANCE
598.324	0.751
607.2	0.749
616.077	0.662
624.953	0.651
633.83	0.3781
642.706	0.3419
651.583	0.483
660.459	0.501
669.336	0.551
678.212	0.588
687.089	0.274
695.965	0.434
704.842	0.236
713.718	0.432
722.595	0.654
731.471	0.712
740.348	0.736
749.224	0.727
758.101	0.69
766.977	0.5841
775.854	0.456
784.73	0.558
793.607	0.491
802.483	0.589
811.36	0.634
820.236	0.67
829.113	0.746
837.989	0.786
846.866	0.776
855.742	0.7809
864.619	0.807
873.495	0.811
882.372	0.814
891.248	0.816
900.125	0.815
909.001	0.812
917.878	0.797
926.754	0.7029
935.631	0.809
944.507	0.817
953.384	0.817
962.26	0.814
971.137	0.811
980.013	0.803
988.89	0.801
997.766	0.79
1006.64	0.697
1015.52	0.798
1024.4	0.724
1033.27	0.6767
1042.15	0.806
1051.03	0.802
1059.9	0.794
1068.78	0.779
1077.65	0.705
1086.53	0.76
1095.41	0.769
1104.28	0.719
1113.16	0.652
1122.04	0.3961
1130.91	0.534
1139.79	0.6109
1148.67	0.452
1157.54	0.624
1166.42	0.675
1175.3	0.696
1184.17	0.479
1193.05	0.714
1201.93	0.72
1210.8	0.693
1219.68	0.673
1228.55	0.656
1237.43	0.637
1246.31	0.596
1255.18	0.576
1264.06	0.572
1272.94	0.562
1281.81	0.543
1290.69	0.537
1299.57	0.3991
1308.44	0.532
1317.32	0.544
1326.2	0.563
1335.07	0.547
1343.95	0.541
1352.83	0.533
1361.7	0.499
1370.58	0.411
1379.46	0.285
1388.33	0.193
1397.21	0.096
1406.08	0.086
1414.96	0.202
1423.84	0.379
1432.71	0.553
1441.59	0.612
1450.47	0.1771
1459.34	0.378
1468.22	0.444
1477.1	0.572
1485.97	0.655
1494.85	0.652
1503.73	0.639
1512.6	0.67
1521.48	0.681
1530.36	0.68
1539.23	0.653
1548.11	0.629
1556.99	0.597
1565.86	0.539
1574.74	0.2089
1583.61	0.3571
1592.49	0.62
1601.37	0.522
1610.24	0.362
1619.12	0.072
1628	0.06
1636.87	0.115
1645.75	0.074
1654.63	0.027
1663.5	0.037
1672.38	0.086
1681.26	0.177
1690.13	0.292
1699.01	0.403
1707.89	0.514
1716.76	0.596
1725.64	0.646
1734.51	0.683
1743.39	0.707
1752.27	0.725
1761.14	0.736
1770.02	0.746
1778.9	0.763
1787.77	0.773
1796.65	0.783
1805.53	0.779
1814.4	0.757
1823.28	0.781
1832.16	0.798
1841.03	0.808
1849.91	0.806
1858.79	0.808
1867.66	0.811
1876.54	0.81
1885.42	0.806
1894.29	0.769
1903.17	0.78
1912.04	0.765
1920.92	0.787
1929.8	0.798
1938.67	0.802
1947.55	0.802
1956.43	0.772
1965.3	0.786
1974.18	0.779
1983.06	0.8
1991.93	0.809
2000.81	0.8057
2009.69	0.804
2018.56	0.8032
2027.44	0.8014
2036.32	0.8
2045.19	0.798
2054.07	0.797
2062.95	0.7943
2071.82	0.7935
2080.7	0.7917
2089.57	0.79
2098.45	0.7891
2107.33	0.788
2116.2	0.7866
2125.08	0.7848
2133.96	0.783
2142.83	0.7802
2151.71	0.778
2160.59	0.7766
2169.46	0.7748
2178.34	0.773
2187.22	0.7713
2196.09	0.7685
2204.97	0.7657
2213.85	0.7639
2222.72	0.7612
2231.6	0.7583
2240.47	0.7551
2249.35	0.7516
2258.23	0.748
2267.1	0.7462
2275.98	0.7428
2284.86	0.74
2293.73	0.7378
2302.61	0.736
2311.49	0.7343
2320.36	0.733
2329.24	0.732
2338.12	0.7309
2346.99	0.729
2355.87	0.728
2364.75	0.7276
2373.62	0.726
2382.5	0.725
2391.38	0.724
2400.25	0.7234
2409.13	0.722
2418	0.7209
2426.88	0.72
2435.76	0.7183
2444.63	0.7165
2453.51	0.7157
2462.39	0.714
2471.26	0.7122
2480.14	0.711
2489.02	0.7086
2497.89	0.7068
2506.77	0.704
2515.65	0.703
2524.52	0.7004
2533.4	0.6987
2542.28	0.696
2551.15	0.695
2560.03	0.6943
2568.91	0.693
2577.78	0.6927
2586.66	0.6909
2595.53	0.6872
2604.41	0.6824
2613.29	0.6782
2622.16	0.674
2631.04	0.674
2639.92	0.6722
2648.79	0.6694
2657.67	0.6667
2666.55	0.6649
2675.42	0.6621
2684.3	0.6613
2693.18	0.658
2702.05	0.6537
2710.93	0.6489
2719.81	0.6433
2728.68	0.6374
2737.56	0.6308
2746.44	0.6246
2755.31	0.62
2764.19	0.6135
2773.06	0.5962
2781.94	0.577
2790.82	0.5719
2799.69	0.571
2808.57	0.57
2817.45	0.5675
2826.32	0.562
2835.2	0.5336
2844.08	0.3846
2852.95	0.2321
2861.83	0.2054
2870.71	0.2361
2879.58	0.2771
2888.46	0.2466
2897.34	0.198
2906.21	0.1623
2915.09	0.0841
2923.96	0.0659
2932.84	0.1088
2941.72	0.1073
2950.59	0.0894
2959.47	0.1127
2968.35	0.1996
2977.22	0.253
2986.1	0.3148
2994.98	0.3434
3003.85	0.3775
3012.73	0.4049
3021.61	0.4115
3030.48	0.3985
3039.36	0.378
3048.24	0.3617
3057.11	0.3477
3065.99	0.3041
3074.87	0.2985
3083.74	0.3091
3092.62	0.3156
3101.49	0.3196
3110.37	0.3196
3119.25	0.3115
3128.12	0.2707
3137	0.2438
3145.88	0.2019
3154.75	0.1509
3163.63	0.0885
3172.51	0.069
3181.38	0.0703
3190.26	0.0899
3199.14	0.1153
3208.01	0.208
3216.89	0.2703
3225.77	0.3185
3234.64	0.3396
3243.52	0.3695
3252.4	0.3829
3261.27	0.3823
3270.15	0.374
3279.02	0.3621
3287.9	0.3243
3296.78	0.3012
3305.65	0.2831
3314.53	0.2717
3323.41	0.2662
3332.28	0.2382
3341.16	0.1499
3350.04	0.0856
3358.91	0.0333
3367.79	0.0171
3376.67	0.0591
3385.54	0.1183
3394.42	0.1993
3403.3	0.2815
3412.17	0.3655
3421.05	0.4566
3429.92	0.5404
3438.8	0.5943
3447.68	0.6414
3456.55	0.6679
3465.43	0.6779
3474.31	0.6861
3483.18	0.693
3492.06	0.6971
3500.94	0.698
3509.81	0.697
3518.69	0.695
3527.57	0.6935
3536.44	0.6879
3545.32	0.6832
3554.2	0.6784
3563.07	0.6766
3571.95	0.6738
3580.83	0.67
3589.7	0.6665
3598.58	0.6644
3607.45	0.6617
3616.33	0.658
3625.21	0.6561
3634.08	0.654
3642.96	0.6515
3651.84	0.6497
3660.71	0.647
3669.59	0.6452
3678.47	0.6424
3687.34	0.6406
3696.22	0.6378
3705.1	0.637
3713.97	0.6343
3722.85	0.633
3731.73	0.6317
3740.6	0.629
3749.48	0.6281
3758.36	0.6263
3767.23	0.625
3776.11	0.6228
3784.98	0.621
3793.86	0.619
3802.74	0.617
3811.61	0.615
3820.49	0.613
3829.37	0.611
3838.24	0.6093
3847.12	0.6075
3856	0.6057
3864.87	0.6039
3873.75	0.6021
3882.63	0.6
3891.5	0.5975
3900.38	0.596
3909.26	0.594
3918.13	0.5922
3927.01	0.5904
3935.88	0.5886
3944.76	0.587
3953.64	0.5851
3962.51	0.584
