Infrared Spectrum: PICROLONIC ACID
Formula: C10 H8 N4 O5
CAS: 550-74-3
State: SOLID (MINERAL OIL MULL)
Melting point: 120 C
Class: COBLENTZ
Instrument: Not specified, most likely a prism, grating, or hybrid spectrometer.
Sampling: TRANSMISSION
Resolution: 4
Origin: WYANDOTTE CHEMICALS CORP., WYANDOTTE, MICHIGAN, USA
MICROMETERS	TRANSMITTANCE
2.007	0.3
2.04791	0.316
2.08883	0.333
2.12974	0.344
2.17066	0.344
2.21157	0.344
2.25248	0.338
2.2934	0.35
2.33431	0.361
2.37523	0.377
2.41614	0.398
2.45706	0.393
2.49797	0.396
2.53888	0.41
2.5798	0.438
2.62071	0.428
2.66163	0.464
2.70254	0.464
2.74345	0.466
2.78437	0.452
2.82528	0.454
2.8662	0.461
2.90711	0.457
2.94803	0.459
2.98894	0.461
3.02985	0.466
3.07077	0.464
3.11168	0.44
3.1526	0.401
3.19351	0.405
3.23442	0.315
3.27534	0.32
3.31625	0.228
3.35717	0.055
3.39808	0.028
3.439	0.032
3.47991	0.042
3.52082	0.047
3.56174	0.193
3.60265	0.24
3.64357	0.244
3.68448	0.218
3.72539	0.213
3.76631	0.194
3.80722	0.198
3.84814	0.188
3.88905	0.186
3.92996	0.188
3.97088	0.193
4.01179	0.2
4.05271	0.213
4.09362	0.22
4.13454	0.254
4.17545	0.274
4.21636	0.31
4.25728	0.296
4.29819	0.342
4.33911	0.376
4.38002	0.44
4.42093	0.422
4.46185	0.437
4.50276	0.45
4.54368	0.464
4.58459	0.493
4.62551	0.508
4.66642	0.532
4.70733	0.561
4.74825	0.579
4.78916	0.605
4.83008	0.623
4.87099	0.647
4.9119	0.661
4.95282	0.672
4.99373	0.703
5.03465	0.723
5.07556	0.745
5.11648	0.742
5.15739	0.781
5.1983	0.784
5.23922	0.766
5.28013	0.793
5.32105	0.832
5.36196	0.847
5.40287	0.876
5.44379	0.886
5.4847	0.901
5.52562	0.883
5.56653	0.879
5.60744	0.884
5.64836	0.91
5.68927	0.928
5.73019	0.898
5.7711	0.889
5.81202	0.808
5.85293	0.708
5.89384	0.522
5.93476	0.266
5.97567	0.066
6.01659	0.045
6.0575	0.074
6.09841	0.164
6.13933	0.23
6.18024	0.267
6.22116	0.083
6.26207	0.042
6.30299	0.083
6.3439	0.133
6.38481	0.198
6.42573	0.201
6.46664	0.159
6.50756	0.038
6.54847	0.049
6.58938	0.061
6.6303	0.045
6.67121	0.061
6.71213	0.05
6.75304	0.067
6.79396	0.05
6.83487	0.079
6.87578	0.103
6.9167	0.138
6.95761	0.186
6.99853	0.137
7.03944	0.105
7.08035	0.037
7.12127	0.035
7.16218	0.059
7.2031	0.052
7.24401	0.027
7.28492	0.025
7.32584	0.022
7.36675	0.023
7.40767	0.038
7.44858	0.061
7.4895	0.049
7.53041	0.079
7.57132	0.077
7.61224	0.138
7.65315	0.161
7.69407	0.194
7.73498	0.259
7.77589	0.308
7.81681	0.35
7.85772	0.379
7.89864	0.406
7.93955	0.257
7.98047	0.145
8.02138	0.298
8.06229	0.361
8.10321	0.4
8.14412	0.345
8.18504	0.161
8.22595	0.127
8.26686	0.225
8.30778	0.332
8.34869	0.4
8.38961	0.405
8.43052	0.383
8.47144	0.452
8.51235	0.479
8.55326	0.501
8.59418	0.513
8.63509	0.518
8.67601	0.532
8.71692	0.542
8.75783	0.547
8.79875	0.547
8.83966	0.518
8.88058	0.389
8.92149	0.361
8.9624	0.418
9.00332	0.257
9.04423	0.237
9.08515	0.41
9.12606	0.486
9.16698	0.52
9.20789	0.52
9.2488	0.437
9.28972	0.528
9.33063	0.576
9.37155	0.594
9.41246	0.61
9.45337	0.623
9.49429	0.628
9.5352	0.637
9.57612	0.623
9.61703	0.581
9.65795	0.461
9.69886	0.559
9.73977	0.623
9.78069	0.642
9.8216	0.572
9.86252	0.638
9.90343	0.644
9.94434	0.572
9.98526	0.571
10.0262	0.65
10.0671	0.686
10.108	0.701
10.1489	0.708
10.1898	0.72
10.2307	0.713
10.2717	0.708
10.3126	0.681
10.3535	0.649
10.3944	0.703
10.4353	0.715
10.4762	0.693
10.5171	0.71
10.5581	0.733
10.599	0.735
10.6399	0.74
10.6808	0.749
10.7217	0.745
10.7626	0.75
10.8035	0.757
10.8445	0.762
10.8854	0.766
10.9263	0.774
10.9672	0.786
11.0081	0.793
11.049	0.798
11.0899	0.789
11.1309	0.798
11.1718	0.788
11.2127	0.793
11.2536	0.793
11.2945	0.796
11.3354	0.794
11.3763	0.777
11.4173	0.711
11.4582	0.442
11.4991	0.171
11.54	0.318
11.5809	0.493
11.6218	0.513
11.6627	0.366
11.7037	0.125
11.7446	0.123
11.7855	0.286
11.8264	0.379
11.8673	0.459
11.9082	0.462
11.9491	0.425
11.9901	0.379
12.031	0.323
12.0719	0.288
12.1128	0.255
12.1537	0.2
12.1946	0.211
12.2355	0.201
12.2765	0.161
12.3174	0.14
12.3583	0.33
12.3992	0.444
12.4401	0.484
12.481	0.515
12.5219	0.518
12.5628	0.525
12.6038	0.527
12.6447	0.52
12.6856	0.508
12.7265	0.498
12.7674	0.498
12.8083	0.486
12.8492	0.477
12.8902	0.438
12.9311	0.276
12.972	0.155
13.0129	0.35
13.0538	0.428
13.0947	0.442
13.1356	0.376
13.1766	0.371
13.2175	0.5
13.2584	0.554
13.2993	0.555
13.3402	0.555
13.3811	0.51
13.422	0.408
13.463	0.233
13.5039	0.103
13.5448	0.066
13.5857	0.098
13.6266	0.193
13.6675	0.281
13.7084	0.344
13.7494	0.401
13.7903	0.442
13.8312	0.461
13.8721	0.486
13.913	0.522
13.9539	0.561
13.9948	0.566
14.0358	0.513
14.0767	0.466
14.1176	0.467
14.1585	0.513
14.1994	0.554
14.2403	0.579
14.2812	0.608
14.3222	0.627
14.3631	0.615
14.404	0.577
14.4449	0.538
14.4858	0.51
14.5267	0.51
14.5676	0.508
14.6086	0.527
14.6495	0.557
14.6904	0.574
14.7313	0.588
14.7722	0.591
14.8131	0.594
14.854	0.603
14.895	0.61
14.9359	0.608
14.9768	0.584
15.0177	0.522
15.0586	0.474
15.0995	0.467
15.1404	0.506
15.1814	0.552
15.2223	0.583
15.2632	0.579
15.3041	0.586
15.345	0.581
15.3859	0.579
15.4268	0.569
15.4678	0.566
15.5087	0.55
15.5496	0.554
15.5905	0.545
15.6314	0.537
15.6723	0.52
15.7132	0.52
15.7542	0.503
15.7951	0.5
15.836	0.483
15.8769	0.469
15.9178	0.455
15.9587	0.437
