Infrared Spectrum: NAPHTHALENE, 1-ISOTHIOCYANATO-
Formula: C11 H7 N S
CAS: 551-06-4
State: SOLUTION (10% IN CCl4 FOR 3800-1333, 10% IN CS2 FOR 1333-460 CM^-^1)
Class: COBLENTZ III
Instrument: DOW KBr FOREPRISM-GRATING
Instrument parameters: BLAZED AT 3.5, 12.0, 20.0 MICRON, CHANGED AT 5.0, 7.5, 14.9 MICRON
Sampling: TRANSMISSION
Path length: 0.011, 0.011 CM
Resolution: 4
Origin: DOW CHEMICAL COMPANY
1/CM	TRANSMITTANCE
456.217	0.859
464.974	0.842
473.73	0.803
482.487	0.742
491.243	0.722
500	0.737
508.757	0.766
517.513	0.794
526.27	0.757
535.026	0.652
543.783	0.73
552.539	0.536
561.296	0.705
570.053	0.701
578.809	0.761
587.566	0.831
596.322	0.852
605.079	0.871
613.836	0.883
622.592	0.871
631.349	0.9
640.105	0.883
648.862	0.827
657.619	0.544
666.375	0.839
675.132	0.939
683.888	0.979
692.645	0.978
701.401	0.965
710.158	0.952
718.915	0.95
727.671	0.92
736.428	0.893
745.184	0.911
753.941	0.857
762.698	0.514
771.454	0.001
780.211	0.693
788.967	0.145
797.724	0.002
806.481	0.488
815.237	0.89
823.994	0.902
832.75	0.937
841.507	0.957
850.263	0.937
859.02	0.685
867.777	0.942
876.533	0.96
885.29	0.953
894.046	0.893
902.803	0.882
911.56	0.638
920.316	0.212
929.073	0.555
937.829	0.889
946.586	0.901
955.343	0.915
964.099	0.801
972.856	0.937
981.612	0.954
990.369	0.968
999.126	0.964
1007.88	0.948
1016.64	0.759
1025.4	0.83
1034.15	0.953
1042.91	0.96
1051.67	0.875
1060.42	0.949
1069.18	0.967
1077.93	0.965
1086.69	0.954
1095.45	0.876
1104.2	0.964
1112.96	0.978
1121.72	0.972
1130.47	0.961
1139.23	0.939
1147.99	0.893
1156.74	0.89
1165.5	0.867
1174.26	0.751
1183.01	0.915
1191.77	0.958
1200.53	0.948
1209.28	0.922
1218.04	0.704
1226.8	0.956
1235.55	0.956
1244.31	0.878
1253.07	0.937
1261.82	0.915
1270.58	0.729
1279.34	0.7961
1288.09	0.909
1296.85	0.965
1305.61	0.956
1314.36	0.948
1323.12	0.928
1331.88	0.928
1340.63	0.833
1349.39	0.905
1358.15	0.909
1366.9	0.878
1375.66	0.853
1384.42	0.7399
1393.17	0.448
1401.93	0.6181
1410.69	0.876
1419.44	0.891
1428.2	0.839
1436.95	0.798
1445.71	0.777
1454.47	0.85
1463.22	0.766
1471.98	0.915
1480.74	0.931
1489.49	0.926
1498.25	0.88
1507.01	0.6189
1515.76	0.683
1524.52	0.89
1533.28	0.93
1542.03	0.971
1550.79	0.978
1559.55	0.946
1568.3	0.677
1577.06	0.4661
1585.82	0.637
1594.57	0.365
1603.33	0.86
1612.09	0.897
1620.84	0.874
1629.6	0.831
1638.36	0.912
1647.11	0.932
1655.87	0.926
1664.63	0.93
1673.38	0.949
1682.14	0.938
1690.9	0.906
1699.65	0.876
1708.41	0.935
1717.17	0.919
1725.92	0.931
1734.68	0.945
1743.44	0.934
1752.19	0.916
1760.95	0.923
1769.71	0.942
1778.46	0.938
1787.22	0.915
1795.98	0.882
1804.73	0.917
1813.49	0.89
1822.24	0.932
1831	0.912
1839.76	0.871
1848.51	0.897
1857.27	0.9
1866.03	0.871
1874.78	0.926
1883.54	0.913
1892.3	0.926
1901.05	0.904
1909.81	0.896
1918.57	0.835
1927.32	0.813
1936.08	0.775
1944.84	0.763
1953.59	0.707
1962.35	0.632
1971.11	0.551
1979.86	0.488
1988.62	0.406
1997.38	0.281
2006.13	0.1565
2014.89	0.0695
2023.65	0.0645
2032.4	0.0514
2041.16	0.0174
2049.92	0.0034
2058.67	0
2067.43	0
2076.19	0
2084.94	0
2093.7	0
2102.46	0
2111.21	0
2119.97	0
2128.73	0
2137.48	0.0072
2146.24	0.0299
2155	0.03
2163.75	0.0662
2172.51	0.1426
2181.27	0.3331
2190.02	0.439
2198.78	0.3468
2207.53	0.6439
2216.29	0.7946
2225.05	0.8594
2233.8	0.8546
2242.56	0.9054
2251.32	0.9487
2260.07	0.9387
2268.83	0.957
2277.59	0.947
2286.34	0.9696
2295.1	0.9347
2303.86	0.9614
2312.61	0.9958
2321.37	1
2330.13	1
2338.88	0.998
2347.64	0.9973
2356.4	0.9933
2365.15	0.991
2373.91	0.987
2382.67	0.984
2391.42	0.982
2400.18	0.98
2408.94	0.9765
2417.69	0.9273
2426.45	0.9488
2435.21	0.9464
2443.96	0.9354
2452.72	0.9406
2461.48	0.9498
2470.23	0.949
2478.99	0.9427
2487.75	0.9348
2496.5	0.949
2505.26	0.9357
2514.02	0.9278
2522.77	0.9405
2531.53	0.9373
2540.29	0.9283
2549.04	0.9319
2557.8	0.934
2566.55	0.9419
2575.31	0.9535
2584.07	0.956
2592.82	0.954
2601.58	0.954
2610.34	0.9579
2619.09	0.9628
2627.85	0.9679
2636.61	0.9719
2645.36	0.976
2654.12	0.978
2662.88	0.978
2671.63	0.978
2680.39	0.978
2689.15	0.978
2697.9	0.976
2706.66	0.971
2715.42	0.96
2724.17	0.956
2732.93	0.954
2741.69	0.952
2750.44	0.954
2759.2	0.957
2767.96	0.963
2776.71	0.967
2785.47	0.968
2794.23	0.971
2802.98	0.9691
2811.74	0.971
2820.5	0.969
2829.25	0.969
2838.01	0.9638
2846.77	0.9539
2855.52	0.946
2864.28	0.948
2873.04	0.946
2881.79	0.945
2890.55	0.9408
2899.31	0.9379
2908.06	0.9338
2916.82	0.9309
2925.58	0.928
2934.33	0.9282
2943.09	0.9278
2951.84	0.92
2960.6	0.9263
2969.36	0.9323
2978.11	0.9419
2986.87	0.9378
2995.63	0.9302
3004.38	0.9007
3013.14	0.8822
3021.9	0.886
3030.65	0.8698
3039.41	0.8287
3048.17	0.7682
3056.92	0.6296
3065.68	0.5639
3074.44	0.6781
3083.19	0.8332
3091.95	0.8467
3100.71	0.8776
3109.46	0.9444
3118.22	0.9635
3126.98	0.971
3135.73	0.976
3144.49	0.976
3153.25	0.972
3162	0.972
3170.76	0.976
3179.52	0.9793
3188.27	0.983
3197.03	0.9827
3205.79	0.9814
3214.54	0.982
3223.3	0.983
3232.06	0.986
3240.81	0.986
3249.57	0.986
3258.33	0.987
3267.08	0.987
3275.84	0.989
3284.6	0.989
3293.35	0.9894
3302.11	0.99
3310.86	0.989
3319.62	0.9882
3328.38	0.989
3337.13	0.989
3345.89	0.987
3354.65	0.986
3363.4	0.984
3372.16	0.984
3380.92	0.984
3389.67	0.9826
3398.43	0.9811
3407.19	0.979
3415.94	0.982
3424.7	0.983
3433.46	0.9835
3442.21	0.983
3450.97	0.984
3459.73	0.986
3468.48	0.986
3477.24	0.987
3486	0.987
3494.75	0.989
3503.51	0.987
3512.27	0.987
3521.02	0.989
3529.78	0.988
3538.54	0.989
3547.29	0.9879
3556.05	0.987
3564.81	0.986
3573.56	0.987
3582.32	0.9849
3591.08	0.983
3599.83	0.984
3608.59	0.9866
3617.35	0.984
3626.1	0.984
3634.86	0.986
3643.62	0.986
3652.37	0.986
3661.13	0.986
3669.89	0.984
3678.64	0.9824
3687.4	0.979
3696.15	0.9826
3704.91	0.986
3713.67	0.986
3722.42	0.986
3731.18	0.9863
3739.94	0.986
3748.69	0.986
3757.45	0.986
3766.21	0.986
3774.96	0.982
3783.72	0.98
3792.48	0.979
