Infrared Spectrum: BENZOIC ACID, o-NITRO-
Formula: C7 H5 N O4
CAS: 552-16-9
State: SOLID (SPLIT MULL), FLUOROLUBE FOR 3800-1330 CM^-^1, NUJOL FOR 1330-450 CM^-^1
Melting point: 156 C
Class: COBLENTZ III
Instrument: DOW KBr FOREPRISM-GRATING
Instrument parameters: BLAZED AT 3.5, 12.0, 20.0 MICRON AND CHANGED AT 5.0, 7.5, 14.9 MICRON
Sampling: TRANSMISSION
Resolution: 2
Origin: DOW CHEMICAL COMPANY
1/CM	TRANSMITTANCE
454	0.8431
463	0.8471
472	0.8528
481	0.8568
490	0.8595
499	0.8612
508	0.8618
517	0.8614
526	0.8608
535	0.8594
544	0.8494
553	0.7961
562	0.733
571	0.865
580	0.8721
589	0.8185
598	0.8725
607	0.89
616	0.8878
625	0.8859
634	0.8853
643	0.8639
652	0.8846
661	0.8896
670	0.8685
679	0.838
688	0.5496
697	0.799
706	0.8418
715	0.7746
724	0.6762
733	0.3866
742	0.7884
751	0.8262
760	0.8318
769	0.8111
778	0.7425
787	0.7335
796	0.4367
805	0.7708
814	0.7557
823	0.835
832	0.8294
841	0.8252
850	0.8121
859	0.6
868	0.8168
877	0.803
886	0.7675
895	0.7182
904	0.6383
913	0.5947
922	0.6408
931	0.7171
940	0.7471
949	0.7728
958	0.7843
967	0.7657
976	0.7718
985	0.7926
994	0.7953
1003	0.763
1012	0.7936
1021	0.7986
1030	0.7975
1039	0.7772
1048	0.8028
1057	0.7921
1066	0.7567
1075	0.5765
1084	0.7765
1093	0.8055
1102	0.8122
1111	0.8131
1120	0.8069
1129	0.7942
1138	0.7389
1147	0.7064
1156	0.7591
1165	0.7797
1174	0.7746
1183	0.7904
1192	0.7903
1201	0.7845
1210	0.7788
1219	0.7748
1228	0.7767
1237	0.7648
1246	0.7328
1255	0.7001
1264	0.6449
1273	0.5543
1282	0.4965
1291	0.2561
1300	0.298
1309	0.383
1318	0.3874
1327	0.626
1336	0.671
1345	0.4957
1354	0.4798
1363	0.3218
1372	0.2197
1381	0.6237
1390	0.6285
1399	0.5817
1408	0.4671
1417	0.2788
1426	0.4766
1435	0.6667
1444	0.6611
1453	0.6757
1462	0.6839
1471	0.6353
1480	0.5553
1489	0.3459
1498	0.5672
1507	0.5409
1516	0.4195
1525	0.1804
1534	0.0813
1543	0.4169
1552	0.6525
1561	0.7128
1570	0.6874
1579	0.5734
1588	0.6932
1597	0.6432
1606	0.4146
1615	0.6874
1624	0.6618
1633	0.6177
1642	0.564
1651	0.4783
1660	0.3391
1669	0.2383
1678	0.0962
1687	0.1305
1696	0.2374
1705	0.3443
1714	0.5338
1723	0.7345
1732	0.8071
1741	0.836
1750	0.8412
1759	0.8374
1768	0.8296
1777	0.8204
1786	0.8218
1795	0.822
1804	0.8201
1813	0.8184
1822	0.8158
1831	0.8105
1840	0.8039
1849	0.7936
1858	0.7869
1867	0.7917
1876	0.7982
1885	0.7965
1894	0.7936
1903	0.7903
1912	0.7869
1921	0.7832
1930	0.7786
1939	0.7842
1948	0.7822
1957	0.7767
1966	0.7558
1975	0.7707
1984	0.7776
1993	0.7745
2002	0.7761
2011	0.8065
2020	0.8178
2029	0.8154
2038	0.8092
2047	0.8024
2056	0.7941
2065	0.7861
2074	0.779
2083	0.7751
2092	0.7651
2101	0.7642
2110	0.7685
2119	0.7665
2128	0.7637
2137	0.7597
2146	0.7554
2155	0.7505
2164	0.745
2173	0.739
2182	0.7325
2191	0.7244
2200	0.7175
2209	0.7114
2218	0.7051
2227	0.6988
2236	0.6919
2245	0.6854
2254	0.679
2263	0.6725
2272	0.6661
2281	0.6599
2290	0.6538
2299	0.6484
2308	0.6431
2317	0.638
2326	0.6334
2335	0.6302
2344	0.6279
2353	0.6249
2362	0.6225
2371	0.6189
2380	0.6145
2389	0.6106
2398	0.6073
2407	0.6031
2416	0.5984
2425	0.5931
2434	0.5878
2443	0.582
2452	0.575
2461	0.5675
2470	0.5595
2479	0.551
2488	0.5422
2497	0.5327
2506	0.5223
2515	0.5107
2524	0.4994
2533	0.4869
2542	0.4704
2551	0.4694
2560	0.4903
2569	0.5018
2578	0.515
2587	0.5255
2596	0.5193
2605	0.511
2614	0.5016
2623	0.4926
2632	0.4839
2641	0.4735
2650	0.4645
2659	0.4567
2668	0.4487
2677	0.451
2686	0.4651
2695	0.4838
2704	0.51
2713	0.5092
2722	0.5047
2731	0.4995
2740	0.4929
2749	0.4862
2758	0.4784
2767	0.4704
2776	0.4629
2785	0.4552
2794	0.4474
2803	0.4392
2812	0.4301
2821	0.4179
2830	0.4036
2839	0.406
2848	0.4073
2857	0.4016
2866	0.3957
2875	0.3918
2884	0.3889
2893	0.3929
2902	0.4006
2911	0.4091
2920	0.417
2929	0.4274
2938	0.4372
2947	0.4337
2956	0.4244
2965	0.4124
2974	0.4119
2983	0.4131
2992	0.4134
3001	0.4109
3010	0.4087
3019	0.4093
3028	0.4133
3037	0.4144
3046	0.4231
3055	0.4355
3064	0.4387
3073	0.4317
3082	0.4253
3091	0.4354
3100	0.4509
3109	0.4715
3118	0.4893
3127	0.502
3136	0.5122
3145	0.5218
3154	0.531
3163	0.5393
3172	0.5462
3181	0.5523
3190	0.559
3199	0.5664
3208	0.574
3217	0.5816
3226	0.5867
3235	0.5901
3244	0.5936
3253	0.597
3262	0.5997
3271	0.6018
3280	0.6027
3289	0.6032
3298	0.6034
3307	0.6035
3316	0.6029
3325	0.6022
3334	0.6022
3343	0.6028
3352	0.604
3361	0.6039
3370	0.6025
3379	0.6002
3388	0.5984
3397	0.5962
3406	0.594
3415	0.5917
3424	0.59
3433	0.5883
3442	0.5866
3451	0.5849
3460	0.5831
3469	0.5812
3478	0.5794
3487	0.5776
3496	0.5757
3505	0.5736
3514	0.5712
3523	0.5689
3532	0.5666
3541	0.5643
3550	0.562
3559	0.5599
3568	0.558
3577	0.556
3586	0.5542
3595	0.5522
3604	0.5503
3613	0.5486
3622	0.547
3631	0.5453
3640	0.5437
3649	0.542
3658	0.5404
3667	0.5388
3676	0.5372
3685	0.5356
3694	0.5341
3703	0.5325
3712	0.5309
3721	0.5293
3730	0.5275
3739	0.5256
3748	0.5237
3757	0.5212
3766	0.5194
3775	0.5185
3784	0.5177
