Infrared Spectrum: CARBONIC ACID, BIS(o-METHOXYPHENYL) ESTER
Formula: C15 H14 O5
CAS: 553-17-3
State: SOLUTION (SATURATED IN CCl4 FOR 4000-1330 CM^-^1, SATURATED IN CS2 FOR 1330-600 CM^-^1)
Class: COBLENTZ III
Instrument: BECKMAN IR-7 (GRATING)
Instrument parameters: GRATING CHANGES AT 3000, 2200, 1150 CM^-^1
Sampling: TRANSMISSION
Path length: 0.010 CM, 0.010 CM
Resolution: 4
Origin: WESTERN REGIONAL RES. USDA
1/CM	TRANSMITTANCE
597.416	0.775
606.461	0.809
615.506	0.815
624.55	0.814
633.595	0.797
642.64	0.747
651.685	0.756
660.729	0.753
669.774	0.786
678.819	0.792
687.864	0.775
696.908	0.733
705.953	0.786
714.998	0.781
724.043	0.736
733.087	0.662
742.132	0.1382
751.177	0.064
760.222	0.389
769.266	0.542
778.311	0.595
787.356	0.592
796.401	0.746
805.445	0.777
814.49	0.791
823.535	0.748
832.58	0.714
841.624	0.706
850.669	0.68
859.714	0.658
868.759	0.687
877.803	0.681
886.848	0.674
895.893	0.754
904.938	0.805
913.982	0.806
923.027	0.687
932.072	0.753
941.117	0.798
950.161	0.807
959.206	0.802
968.251	0.794
977.296	0.792
986.34	0.729
995.385	0.677
1004.43	0.443
1013.47	0.599
1022.52	0.4111
1031.56	0.264
1040.61	0.1871
1049.65	0.451
1058.7	0.612
1067.74	0.685
1076.79	0.702
1085.83	0.696
1094.88	0.637
1103.92	0.209
1112.97	0.1759
1122.01	0.545
1131.06	0.668
1140.1	0.651
1149.15	0.3551
1158.19	0.058
1167.24	0
1176.28	0.229
1185.33	0.2029
1194.37	0.108
1203.41	0.211
1212.46	0.113
1221.5	0.014
1230.55	0
1239.59	0.031
1248.64	0.089
1257.68	0.004
1266.73	0.031
1275.77	0.069
1284.82	0.099
1293.86	0.4
1302.91	0.321
1311.95	0.149
1321	0.496
1330.04	0.62
1339.09	0.648
1348.13	0.667
1357.18	0.672
1366.22	0.677
1375.26	0.674
1384.31	0.672
1393.35	0.653
1402.4	0.656
1411.44	0.656
1420.49	0.653
1429.53	0.638
1438.58	0.2901
1447.62	0.531
1456.67	0.256
1465.71	0.184
1474.76	0.4849
1483.8	0.542
1492.85	0.2901
1501.89	0
1510.94	0.219
1519.98	0.295
1529.03	0.403
1538.07	0.388
1547.12	0.349
1556.16	0.361
1565.2	0.425
1574.25	0.443
1583.29	0.423
1592.34	0.403
1601.38	0.423
1610.43	0.219
1619.47	0.508
1628.52	0.644
1637.56	0.665
1646.61	0.674
1655.65	0.683
1664.7	0.684
1673.74	0.685
1682.79	0.684
1691.83	0.672
1700.88	0.674
1709.92	0.671
1718.97	0.663
1728.01	0.653
1737.05	0.632
1746.1	0.615
1755.14	0.59
1764.19	0.513
1773.23	0.197
1782.28	0.025
1791.32	0.034
1800.37	0.199
1809.41	0.417
1818.46	0.561
1827.5	0.642
1836.55	0.669
1845.59	0.667
1854.64	0.666
1863.68	0.676
1872.73	0.681
1881.77	0.681
1890.82	0.656
1899.86	0.684
1908.91	0.691
1917.95	0.693
1926.99	0.675
1936.04	0.691
1945.08	0.705
1954.13	0.709
1963.17	0.708
1972.22	0.713
1981.26	0.712
1990.31	0.706
1999.35	0.697
2008.4	0.695
2017.44	0.695
2026.49	0.695
2035.53	0.695
2044.58	0.695
2053.62	0.6962
2062.67	0.697
2071.71	0.699
2080.76	0.7
2089.8	0.7006
2098.85	0.701
2107.89	0.701
2116.93	0.7
2125.98	0.7
2135.02	0.699
2144.07	0.699
2153.11	0.6983
2162.16	0.697
2171.2	0.697
2180.25	0.696
2189.29	0.697
2198.34	0.697
2207.38	0.7
2216.43	0.702
2225.47	0.704
2234.52	0.7049
2243.56	0.706
2252.61	0.706
2261.65	0.706
2270.7	0.706
2279.74	0.706
2288.78	0.708
2297.83	0.708
2306.87	0.7096
2315.92	0.711
2324.96	0.7138
2334.01	0.716
2343.05	0.7189
2352.1	0.7215
2361.14	0.7241
2370.19	0.7267
2379.23	0.7273
2388.28	0.728
2397.32	0.728
2406.37	0.728
2415.41	0.728
2424.46	0.7278
2433.5	0.727
2442.55	0.727
2451.59	0.727
2460.64	0.727
2469.68	0.726
2478.72	0.726
2487.77	0.7263
2496.81	0.727
2505.86	0.726
2514.9	0.725
2523.95	0.7234
2532.99	0.722
2542.04	0.72
2551.08	0.7186
2560.13	0.7171
2569.17	0.7155
2578.22	0.715
2587.26	0.715
2596.31	0.7163
2605.35	0.718
2614.4	0.7195
2623.44	0.721
2632.49	0.722
2641.53	0.724
2650.58	0.725
2659.62	0.726
2668.66	0.727
2677.71	0.7305
2686.75	0.7321
2695.8	0.733
2704.84	0.731
2713.89	0.731
2722.93	0.728
2731.98	0.727
2741.02	0.725
2750.07	0.724
2759.11	0.722
2768.16	0.7196
2777.2	0.718
2786.25	0.7175
2795.29	0.717
2804.34	0.7156
2813.38	0.7144
2822.43	0.7027
2831.47	0.6445
2840.51	0.5126
2849.56	0.5734
2858.6	0.6891
2867.65	0.6978
2876.69	0.6937
2885.74	0.6652
2894.78	0.6407
2903.83	0.6237
2912.87	0.5967
2921.92	0.599
2930.96	0.5879
2940.01	0.534
2949.05	0.507
2958.1	0.5169
2967.14	0.4995
2976.19	0.5237
2985.23	0.5906
2994.28	0.6438
3003.32	0.6045
3012.37	0.5419
3021.41	0.5788
3030.45	0.6042
3039.5	0.6366
3048.54	0.6341
3057.59	0.614
3066.63	0.6306
3075.68	0.6229
3084.72	0.5936
3093.77	0.6384
3102.81	0.6609
3111.86	0.6777
3120.9	0.6852
3129.95	0.6877
3138.99	0.69
3148.04	0.692
3157.08	0.693
3166.13	0.6941
3175.17	0.6977
3184.22	0.699
3193.26	0.7008
3202.31	0.701
3211.35	0.699
3220.39	0.699
3229.44	0.699
3238.48	0.699
3247.53	0.699
3256.57	0.6999
3265.62	0.699
3274.66	0.6979
3283.71	0.696
3292.75	0.695
3301.8	0.695
3310.84	0.6974
3319.89	0.699
3328.93	0.7
3337.98	0.701
3347.02	0.7002
3356.07	0.699
3365.11	0.6971
3374.16	0.6955
3383.2	0.6949
3392.24	0.694
3401.29	0.695
3410.33	0.695
3419.38	0.695
3428.42	0.695
3437.47	0.697
3446.51	0.698
3455.56	0.697
3464.6	0.695
3473.65	0.6941
3482.69	0.6885
3491.74	0.687
3500.78	0.688
3509.83	0.688
3518.87	0.688
3527.92	0.688
3536.96	0.687
3546.01	0.686
3555.05	0.685
3564.1	0.6832
3573.14	0.682
3582.18	0.6839
3591.23	0.6855
3600.27	0.688
3609.32	0.688
3618.36	0.69
3627.41	0.692
3636.45	0.693
3645.5	0.695
3654.54	0.694
3663.59	0.693
3672.63	0.6922
3681.68	0.692
3690.72	0.692
3699.77	0.6945
3708.81	0.697
3717.86	0.6977
3726.9	0.699
3735.95	0.699
3744.99	0.699
3754.04	0.699
3763.08	0.699
3772.12	0.698
3781.17	0.698
3790.21	0.698
3799.26	0.697
3808.3	0.698
3817.35	0.699
3826.39	0.699
3835.44	0.7013
3844.48	0.701
3853.53	0.6965
3862.57	0.6971
3871.62	0.701
3880.66	0.7008
3889.71	0.701
3898.75	0.702
3907.8	0.702
3916.84	0.7015
3925.89	0.7011
3934.93	0.7034
3943.97	0.7093
3953.02	0.7091
3962.06	0.7055
3971.11	0.704
3980.15	0.703
