Infrared Spectrum: ANILINE, 2,4-DICHLORO-
Formula: C6 H5 Cl2 N
CAS: 554-00-7
State: SOLUTION (10% CCl4 FOR 3800-1340, 10% CS2 FOR 1340-450 CM^-^1)
Class: COBLENTZ III
Instrument: DOW KBr FOREPRISM-GRATING
Instrument parameters: BLAZED AT 3.5, 12.0, 20.0 MICRON AND CHANGED AT 5.0, 7.5, 14.9 MICRON
Sampling: TRANSMISSION
Path length: 0.011 CM, 0.011 CM
Resolution: 2
Origin: DOW CHEMICAL COMPANY
1/CM	TRANSMITTANCE
3796	0.8862
3787	0.8868
3778	0.8875
3769	0.8883
3760	0.8888
3751	0.8891
3742	0.8894
3733	0.8897
3724	0.8899
3715	0.8901
3706	0.8901
3697	0.8901
3688	0.8847
3679	0.8833
3670	0.8854
3661	0.8875
3652	0.8896
3643	0.8916
3634	0.8927
3625	0.893
3616	0.8923
3607	0.8906
3598	0.8847
3589	0.8893
3580	0.8875
3571	0.8818
3562	0.8855
3553	0.8836
3544	0.8786
3535	0.8717
3526	0.8601
3517	0.8317
3508	0.7191
3499	0.5242
3490	0.3679
3481	0.3948
3472	0.4919
3463	0.589
3454	0.6861
3445	0.7831
3436	0.8145
3427	0.8085
3418	0.7631
3409	0.5078
3400	0.2495
3391	0.3162
3382	0.5168
3373	0.7215
3364	0.7655
3355	0.8151
3346	0.8452
3337	0.863
3328	0.8766
3319	0.8866
3310	0.8923
3301	0.8959
3292	0.8975
3283	0.8989
3274	0.8994
3265	0.8989
3256	0.8974
3247	0.895
3238	0.8921
3229	0.8898
3220	0.8882
3211	0.8837
3202	0.8683
3193	0.8486
3184	0.85
3175	0.8575
3166	0.8659
3157	0.8744
3148	0.879
3139	0.8792
3130	0.8794
3121	0.8785
3112	0.8758
3103	0.8721
3094	0.8671
3085	0.8618
3076	0.8534
3067	0.7937
3058	0.8128
3049	0.8555
3040	0.8575
3031	0.8118
3022	0.8415
3013	0.8728
3004	0.8825
2995	0.8886
2986	0.8908
2977	0.8907
2968	0.8899
2959	0.8883
2950	0.8901
2941	0.8945
2932	0.8918
2923	0.8874
2914	0.8828
2905	0.8866
2896	0.8885
2887	0.8859
2878	0.8796
2869	0.8723
2860	0.8668
2851	0.8716
2842	0.8837
2833	0.8883
2824	0.8888
2815	0.8894
2806	0.8897
2797	0.8895
2788	0.888
2779	0.8875
2770	0.888
2761	0.8884
2752	0.8891
2743	0.8892
2734	0.8894
2725	0.8897
2716	0.89
2707	0.8885
2698	0.8874
2689	0.887
2680	0.8875
2671	0.8878
2662	0.8858
2653	0.8834
2644	0.8825
2635	0.8821
2626	0.8811
2617	0.8785
2608	0.8666
2599	0.8652
2590	0.8761
2581	0.8827
2572	0.8863
2563	0.8866
2554	0.8821
2545	0.8753
2536	0.8781
2527	0.8816
2518	0.8851
2509	0.8862
2500	0.8861
2491	0.8854
2482	0.8842
2473	0.8821
2464	0.8804
2455	0.8804
2446	0.8817
2437	0.8824
2428	0.8831
2419	0.8837
2410	0.8843
2401	0.8842
2392	0.8828
2383	0.8806
2374	0.879
2365	0.8791
2356	0.8774
2347	0.8641
2338	0.8556
2329	0.8539
2320	0.8533
2311	0.8506
2302	0.85
2293	0.8525
2284	0.8549
2275	0.8571
2266	0.8597
2257	0.8621
2248	0.8651
2239	0.8689
2230	0.8713
2221	0.8717
2212	0.8703
2203	0.869
2194	0.8684
2185	0.8683
2176	0.8689
2167	0.8671
2158	0.8661
2149	0.8654
2140	0.8658
2131	0.8663
2122	0.8668
2113	0.8667
2104	0.8664
2095	0.866
2086	0.8655
2077	0.865
2068	0.8645
2059	0.864
2050	0.8637
2041	0.8634
2032	0.8588
2023	0.854
2014	0.8532
2005	0.8553
1996	0.8571
1987	0.8596
1978	0.8595
1969	0.859
1960	0.8585
1951	0.8568
1942	0.8559
1933	0.8592
1924	0.8583
1915	0.8567
1906	0.8532
1897	0.85
1888	0.8518
1879	0.8489
1870	0.8275
1861	0.7746
1852	0.8014
1843	0.8415
1834	0.8487
1825	0.8489
1816	0.8491
1807	0.8488
1798	0.8401
1789	0.8493
1780	0.8516
1771	0.8506
1762	0.8474
1753	0.841
1744	0.8176
1735	0.7791
1726	0.7815
1717	0.7999
1708	0.7917
1699	0.7995
1690	0.819
1681	0.8297
1672	0.8312
1663	0.8201
1654	0.7985
1645	0.7307
1636	0.6073
1627	0.2652
1618	0.0118
1609	0.2137
1600	0.3793
1591	0.4317
1582	0.3704
1573	0.4232
1564	0.3634
1555	0.3712
1546	0.4093
1537	0.4528
1528	0.5025
1519	0.5102
1510	0.2704
1501	0.2363
1492	0.0469
1483	0.0036
1474	0.2712
1465	0.6468
1456	0.7345
1447	0.7651
1438	0.7947
1429	0.7854
1420	0.6614
1411	0.7461
1402	0.2691
1393	0.7611
1384	0.7861
1375	0.8186
1366	0.816
1357	0.8464
1348	0.851
1339	0.8525
1330	0.8404
1321	0.8053
1312	0.5714
1303	0.3297
1294	0.1767
1285	0.6614
1276	0.7793
1267	0.8064
1258	0.7892
1249	0.7287
1240	0.6934
1231	0.8259
1222	0.8413
1213	0.8486
1204	0.8427
1195	0.8328
1186	0.846
1177	0.8538
1168	0.8515
1159	0.8367
1150	0.4685
1141	0.7669
1132	0.6601
1123	0.4984
1114	0.4014
1105	0.6808
1096	0.6122
1087	0.7868
1078	0.764
1069	0.4426
1060	0.6682
1051	0.6474
1042	0.6057
1033	0.8022
1024	0.8521
1015	0.8684
1006	0.8764
997	0.8724
988	0.8674
979	0.8689
970	0.8707
961	0.868
952	0.8615
943	0.8538
934	0.8336
925	0.8186
916	0.8231
907	0.8156
898	0.8001
889	0.7695
880	0.6847
871	0.5093
862	0.1194
853	0.1766
844	0.583
835	0.7165
826	0.7076
817	0.6207
808	0.2083
799	0.2081
790	0.6696
781	0.7503
772	0.759
763	0.7411
754	0.7504
745	0.7351
736	0.6768
727	0.1744
718	0.401
709	0.5701
700	0.6153
691	0.6343
682	0.641
673	0.6425
664	0.6826
655	0.5982
646	0.3839
637	0.5608
628	0.5984
619	0.6167
610	0.6306
601	0.6428
592	0.6546
583	0.6637
574	0.6647
565	0.6601
556	0.6242
547	0.5199
538	0.5782
529	0.5873
520	0.578
511	0.5641
502	0.5493
493	0.5466
484	0.5477
475	0.535
466	0.5268
457	0.519
