Infrared Spectrum: ETHANAMINE, N,N-DIETHYL, HYDROCHLORIDE
Formula: C6 H16 Cl N
CAS: 554-68-7
State: SOLID (SPLIT MULL, FLUOROLUBE FOR 3800-1330 AND NUJOL FOR 1330-400 CM ^-^1)
Melting point: 255 C
Class: COBLENTZ II
Instrument: BECKMAN IR-9 (GRATING)
Instrument parameters: ORDER CHANGES AT 670, 1200, 2000 CM^-^1
Sampling: TRANSMISSION
Resolution: 4
Origin: DOW CHEMICAL COMPANY
1/CM	TRANSMITTANCE
400.812	0.904
409.513	0.84
418.213	0.812
426.914	0.801
435.615	0.802
444.316	0.821
453.016	0.843
461.717	0.782
470.418	0.828
479.118	0.9
487.819	0.927
496.52	0.941
505.221	0.953
513.921	0.96
522.622	0.967
531.323	0.972
540.023	0.975
548.724	0.975
557.425	0.975
566.126	0.975
574.826	0.976
583.527	0.976
592.228	0.978
600.928	0.978
609.629	0.979
618.33	0.98
627.031	0.98
635.731	0.98
644.432	0.98
653.133	0.98
661.833	0.982
670.534	0.983
679.235	1.005
687.936	1.005
696.636	1
705.337	0.989
714.038	0.956
722.738	0.9
731.439	0.933
740.14	0.953
748.841	0.967
757.541	0.968
766.242	0.959
774.943	0.97
783.643	0.968
792.344	0.959
801.045	0.907
809.746	0.756
818.446	0.94
827.147	0.96
835.848	0.96
844.548	0.938
853.249	0.763
861.95	0.937
870.651	0.957
879.351	0.96
888.052	0.96
896.753	0.956
905.453	0.945
914.154	0.949
922.855	0.948
931.556	0.944
940.256	0.938
948.957	0.938
957.658	0.937
966.358	0.927
975.059	0.923
983.76	0.927
992.46	0.925
1001.16	0.917
1009.86	0.902
1018.56	0.874
1027.26	0.7609
1035.96	0.4
1044.66	0.712
1053.37	0.85
1062.07	0.863
1070.77	0.742
1079.47	0.76
1088.17	0.857
1096.87	0.891
1105.57	0.904
1114.27	0.907
1122.97	0.906
1131.67	0.904
1140.37	0.9
1149.07	0.892
1157.77	0.865
1166.47	0.68
1175.18	0.6171
1183.88	0.804
1192.58	0.865
1201.28	0.9
1209.98	0.91
1218.68	0.914
1227.38	0.915
1236.08	0.917
1244.78	0.919
1253.48	0.921
1262.18	0.919
1270.88	0.914
1279.58	0.912
1288.28	0.891
1296.99	0.892
1305.69	0.888
1314.39	0.887
1323.09	0.872
1331.79	0.791
1340.49	0.801
1349.19	0.832
1357.89	0.861
1366.59	0.835
1375.29	0.844
1383.99	0.7111
1392.69	0.6078
1401.39	0.793
1410.09	0.911
1418.8	0.923
1427.5	0.921
1436.2	0.78
1444.9	0.6701
1453.6	0.839
1462.3	0.832
1471	0.5749
1479.7	0.4803
1488.4	0.881
1497.1	0.917
1505.8	0.951
1514.5	0.963
1523.2	0.963
1531.9	0.952
1540.61	0.948
1549.31	0.961
1558.01	0.968
1566.71	0.967
1575.41	0.975
1584.11	0.979
1592.81	0.986
1601.51	0.994
1610.21	0.994
1618.91	1
1627.61	1
1636.31	0.998
1645.01	1
1653.71	0.998
1662.42	0.995
1671.12	0.995
1679.82	0.998
1688.52	0.995
1697.22	0.997
1705.92	0.995
1714.62	0.998
1723.32	1
1732.02	1.009
1740.72	1.01
1749.42	1.009
1758.12	1.01
1766.82	1.012
1775.52	1.013
1784.23	1.013
1792.93	1.013
1801.63	1.014
1810.33	1.014
1819.03	1.017
1827.73	1.017
1836.43	1.017
1845.13	1.017
1853.83	1.017
1862.53	1.017
1871.23	1.016
1879.93	1.016
1888.63	1.017
1897.33	1.017
1906.04	1.014
1914.74	1.008
1923.44	1.012
1932.14	1.012
1940.84	1.012
1949.54	1.013
1958.24	1.016
1966.94	1.019
1975.64	1.019
1984.34	1.019
1993.04	1.014
2001.74	1.02
2010.44	1.019
2019.14	1.019
2027.85	1.017
2036.55	1.014
2045.25	1.013
2053.95	1.012
2062.65	1.01
2071.35	1.009
2080.05	1.006
2088.75	1.002
2097.45	1.001
2106.15	0.997
2114.85	0.9969
2123.55	0.9899
2132.25	0.9828
2140.95	0.974
2149.66	0.978
2158.36	0.98
2167.06	0.979
2175.76	0.976
2184.46	0.9749
2193.16	0.968
2201.86	0.967
2210.56	0.96
2219.26	0.9569
2227.96	0.9477
2236.66	0.9327
2245.36	0.9138
2254.06	0.908
2262.76	0.9079
2271.47	0.897
2280.17	0.896
2288.87	0.897
2297.57	0.8969
2306.27	0.892
2314.97	0.891
2323.67	0.8868
2332.37	0.8779
2341.07	0.8729
2349.77	0.8523
2358.47	0.8239
2367.17	0.8299
2375.87	0.8512
2384.57	0.8429
2393.28	0.8235
2401.98	0.7993
2410.68	0.7697
2419.38	0.7389
2428.08	0.6763
2436.78	0.666
2445.48	0.6338
2454.18	0.5748
2462.88	0.5451
2471.58	0.4797
2480.28	0.3877
2488.98	0.2023
2497.68	0.2647
2506.38	0.527
2515.09	0.603
2523.79	0.5001
2532.49	0.5404
2541.19	0.5955
2549.89	0.5845
2558.59	0.506
2567.29	0.4324
2575.99	0.4048
2584.69	0.2849
2593.39	0.1452
2602.09	0.0952
2610.79	0.1126
2619.49	0.1178
2628.19	0.2067
2636.9	0.2586
2645.6	0.3037
2654.3	0.3859
2663	0.4353
2671.7	0.536
2680.4	0.6663
2689.1	0.7317
2697.8	0.7973
2706.5	0.8517
2715.2	0.874
2723.9	0.8116
2732.6	0.7083
2741.3	0.7156
2750	0.7597
2758.71	0.7458
2767.41	0.74
2776.11	0.7765
2784.81	0.8013
2793.51	0.8423
2802.21	0.8497
2810.91	0.8364
2819.61	0.8898
2828.31	0.9063
2837.01	0.9161
2845.71	0.9253
2854.41	0.9211
2863.11	0.8944
2871.81	0.7739
2880.52	0.7327
2889.22	0.7741
2897.92	0.7333
2906.62	0.6943
2915.32	0.6547
2924.02	0.5798
2932.72	0.5504
2941.42	0.5055
2950.12	0.5916
2958.82	0.671
2967.52	0.6
2976.22	0.472
2984.92	0.8307
2993.62	0.899
3002.33	0.9267
3011.03	0.944
3019.73	0.952
3028.43	0.951
3037.13	0.951
3045.83	0.951
3054.53	0.953
3063.23	0.953
3071.93	0.956
3080.63	0.9594
3089.33	0.963
3098.03	0.9634
3106.73	0.9674
3115.43	0.971
3124.14	0.972
3132.84	0.974
3141.54	0.975
3150.24	0.976
3158.94	0.975
3167.64	0.9744
3176.34	0.974
3185.04	0.97
3193.74	0.97
3202.44	0.9676
3211.14	0.967
3219.84	0.967
3228.54	0.9704
3237.24	0.968
3245.95	0.968
3254.65	0.965
3263.35	0.965
3272.05	0.965
3280.75	0.9636
3289.45	0.961
3298.15	0.96
3306.85	0.9581
3315.55	0.956
3324.25	0.956
3332.95	0.955
3341.65	0.953
3350.35	0.952
3359.05	0.951
3367.76	0.9485
3376.46	0.948
3385.16	0.9471
3393.86	0.946
3402.56	0.945
3411.26	0.945
3419.96	0.9445
3428.66	0.942
3437.36	0.9415
3446.06	0.941
3454.76	0.938
3463.46	0.94
3472.16	0.9415
3480.86	0.9415
3489.57	0.943
3498.27	0.945
3506.97	0.946
3515.67	0.946
3524.37	0.949
3533.07	0.95
3541.77	0.95
3550.47	0.95
3559.17	0.95
3567.87	0.951
3576.57	0.947
3585.27	0.94
3593.97	0.949
3602.67	0.9504
3611.38	0.9451
3620.08	0.9496
3628.78	0.952
3637.48	0.9525
3646.18	0.953
3654.88	0.952
3663.58	0.952
3672.28	0.952
3680.98	0.952
3689.68	0.951
3698.38	0.949
3707.08	0.9501
3715.78	0.949
3724.48	0.948
3733.19	0.948
3741.89	0.9468
3750.59	0.946
3759.29	0.944
3767.99	0.942
3776.69	0.942
3785.39	0.94
