Infrared Spectrum: Pyridine, 4-(2-methylaminoethyl)-
Formula: C8 H12 N2
CAS: 55496-55-4
State: SOLUTION (10% CCl4 FOR 3800-460 CM^-^1)
Class: COBLENTZ
Instrument: DOW KBr FOREPRISM-GRATING
Instrument parameters: BLAZED AT 3.5, 12.0, 20.0 MICRON AND CHANGED AT 5.0, 7.5, 14.9 MICRON
Sampling: TRANSMISSION
Path length: 0.011 CM
Resolution: 2
Origin: DOW CHEMICAL COMPANY
1/CM	TRANSMITTANCE
453	0.5635
462	0.5795
471	0.5889
480	0.5944
489	0.597
498	0.5671
507	0.5726
516	0.5436
525	0.5581
534	0.6315
543	0.7197
552	0.7608
561	0.7562
570	0.7298
579	0.6392
588	0.2744
597	0.6028
606	0.7626
615	0.7589
624	0.7253
633	0.7243
642	0.7591
651	0.7323
660	0.7006
669	0.6466
678	0.6472
687	0.5926
696	0.5109
705	0.43
714	0.2872
723	0.1508
732	0.0105
741	0.0001
750	0.0001
759	0.0001
768	0.0001
777	0.0001
786	0.0001
795	0.0001
804	0.0001
813	0.0298
822	0.2092
831	0.3796
840	0.4591
849	0.5837
858	0.6349
867	0.6722
876	0.703
885	0.7478
894	0.7715
903	0.782
912	0.78
921	0.7587
930	0.7571
939	0.7517
948	0.7467
957	0.673
966	0.6164
975	0.5646
984	0.549
993	0.2693
1002	0.4874
1011	0.5307
1020	0.6463
1029	0.6733
1038	0.6725
1047	0.6731
1056	0.6923
1065	0.6697
1074	0.6657
1083	0.6863
1092	0.7044
1101	0.6095
1110	0.4053
1119	0.3815
1128	0.4803
1137	0.5981
1146	0.5555
1155	0.5109
1164	0.6916
1173	0.75
1182	0.6994
1191	0.6804
1200	0.6468
1209	0.5554
1218	0.3118
1227	0.5787
1236	0.5837
1245	0.5538
1254	0.567
1263	0.6331
1272	0.6987
1281	0.7342
1290	0.7504
1299	0.7453
1308	0.7525
1317	0.7344
1326	0.7096
1335	0.7323
1344	0.7138
1353	0.5746
1362	0.5355
1371	0.627
1380	0.65
1389	0.6582
1398	0.668
1407	0.578
1416	0.2038
1425	0.5338
1434	0.4794
1443	0.2711
1452	0.4028
1461	0.4734
1470	0.2808
1479	0.4776
1488	0.5941
1497	0.5071
1506	0.63
1515	0.6144
1524	0.5817
1533	0.5215
1542	0.4176
1551	0.3115
1560	0.2196
1569	0.4597
1578	0.429
1587	0.304
1596	0.0815
1605	0.1245
1614	0.5815
1623	0.7013
1632	0.6319
1641	0.6999
1650	0.7088
1659	0.7584
1668	0.7571
1677	0.7438
1686	0.771
1695	0.8136
1704	0.8338
1713	0.8426
1722	0.8397
1731	0.8246
1740	0.8184
1749	0.8452
1758	0.8567
1767	0.8611
1776	0.8616
1785	0.8603
1794	0.8588
1803	0.8546
1812	0.8511
1821	0.8482
1830	0.8416
1839	0.8256
1848	0.8346
1857	0.8463
1866	0.8496
1875	0.851
1884	0.8524
1893	0.8503
1902	0.8466
1911	0.8382
1920	0.8035
1929	0.7624
1938	0.8275
1947	0.838
1956	0.8404
1965	0.8506
1974	0.8508
1983	0.8506
1992	0.8505
2001	0.8499
2010	0.8492
2019	0.8494
2028	0.8494
2037	0.8494
2046	0.8494
2055	0.8493
2064	0.8493
2073	0.8492
2082	0.8492
2091	0.8491
2100	0.8491
2109	0.849
2118	0.8489
2127	0.8486
2136	0.8482
2145	0.8476
2154	0.8469
2163	0.8466
2172	0.8466
2181	0.8458
2190	0.8446
2199	0.8428
2208	0.8412
2217	0.8404
2226	0.8407
2235	0.8425
2244	0.8425
2253	0.8375
2262	0.8319
2271	0.8268
2280	0.8216
2289	0.8177
2298	0.8165
2307	0.8156
2316	0.8142
2325	0.8125
2334	0.8113
2343	0.81
2352	0.8098
2361	0.8101
2370	0.8122
2379	0.8159
2388	0.814
2397	0.8092
2406	0.8039
2415	0.7989
2424	0.7954
2433	0.7919
2442	0.7905
2451	0.7922
2460	0.7954
2469	0.7993
2478	0.8036
2487	0.8086
2496	0.814
2505	0.8148
2514	0.8113
2523	0.8083
2532	0.8052
2541	0.8018
2550	0.7981
2559	0.794
2568	0.7899
2577	0.7853
2586	0.7807
2595	0.7734
2604	0.7658
2613	0.7566
2622	0.746
2631	0.7367
2640	0.7277
2649	0.7172
2658	0.7065
2667	0.6946
2676	0.6818
2685	0.6656
2694	0.6553
2703	0.6564
2712	0.6614
2721	0.6574
2730	0.6506
2739	0.6428
2748	0.6113
2757	0.5431
2766	0.4433
2775	0.363
2784	0.1815
2793	0.167
2802	0.3106
2811	0.324
2820	0.3339
2829	0.3519
2838	0.2971
2847	0.2737
2856	0.3574
2865	0.3559
2874	0.3466
2883	0.3114
2892	0.3415
2901	0.3488
2910	0.3031
2919	0.2515
2928	0.2005
2937	0.1893
2946	0.2082
2955	0.339
2964	0.3219
2973	0.3605
2982	0.4308
2991	0.4937
3000	0.6103
3009	0.5729
3018	0.4746
3027	0.5069
3036	0.6047
3045	0.6088
3054	0.5608
3063	0.4128
3072	0.5589
3081	0.7385
3090	0.7619
3099	0.7746
3108	0.7846
3117	0.7914
3126	0.794
3135	0.7948
3144	0.7952
3153	0.795
3162	0.7951
3171	0.7955
3180	0.7954
3189	0.7951
3198	0.794
3207	0.7926
3216	0.7911
3225	0.7888
3234	0.7851
3243	0.779
3252	0.7704
3261	0.7592
3270	0.746
3279	0.736
3288	0.733
3297	0.7348
3306	0.7374
3315	0.7349
3324	0.7349
3333	0.7406
3342	0.748
3351	0.7562
3360	0.763
3369	0.7679
3378	0.7718
3387	0.7754
3396	0.7785
3405	0.7818
3414	0.7854
3423	0.7892
3432	0.7944
3441	0.7995
3450	0.8051
3459	0.8108
3468	0.8162
3477	0.8215
3486	0.8266
3495	0.8314
3504	0.8363
3513	0.8411
3522	0.8463
3531	0.8515
3540	0.8561
3549	0.8599
3558	0.8638
3567	0.8663
3576	0.8689
3585	0.8714
3594	0.873
3603	0.8742
3612	0.875
3621	0.8749
3630	0.8734
3639	0.8696
3648	0.86
3657	0.8544
3666	0.8556
3675	0.8597
3684	0.8689
3693	0.8751
3702	0.8768
3711	0.8766
3720	0.8764
3729	0.8762
3738	0.8761
3747	0.8759
3756	0.8759
3765	0.8759
3774	0.8762
3783	0.8765
3792	0.877
