Infrared Spectrum: P-NITROPHENYL ACETONITRILE
Formula: C8 H6 N2 O2
CAS: 555-21-5
State: SOLID (MINERAL OIL MULL)
Class: COBLENTZ
Instrument: Not specified, most likely a prism, grating, or hybrid spectrometer.
Sampling: TRANSMISSION
Resolution: 4
Origin: WYANDOTTE CHEMICALS CORP., WYANDOTTE, MICHIGAN, USA
MICROMETERS	TRANSMITTANCE
2.027	0.357
2.068	0.364
2.10899	0.374
2.14999	0.381
2.19099	0.362
2.23199	0.355
2.27298	0.358
2.31398	0.364
2.35498	0.367
2.39597	0.377
2.43697	0.396
2.47797	0.4
2.51897	0.403
2.55996	0.415
2.60096	0.417
2.64196	0.425
2.68295	0.429
2.72395	0.441
2.76495	0.429
2.80595	0.422
2.84694	0.417
2.88794	0.417
2.92894	0.415
2.96993	0.41
3.01093	0.405
3.05193	0.405
3.09293	0.4
3.13392	0.347
3.17492	0.34
3.21592	0.203
3.25691	0.258
3.29791	0.232
3.33891	0.073
3.37991	0.034
3.4209	0.035
3.4619	0.052
3.5029	0.061
3.5439	0.258
3.58489	0.49
3.62589	0.517
3.66689	0.511
3.70788	0.512
3.74888	0.526
3.78988	0.536
3.83088	0.541
3.87187	0.552
3.91287	0.588
3.95387	0.598
3.99486	0.598
4.03586	0.608
4.07686	0.601
4.11786	0.538
4.15885	0.606
4.19985	0.62
4.24085	0.581
4.28184	0.603
4.32284	0.625
4.36384	0.666
4.40484	0.649
4.44583	0.615
4.48683	0.441
4.52783	0.483
4.56882	0.646
4.60982	0.649
4.65082	0.685
4.69182	0.704
4.73281	0.714
4.77381	0.721
4.81481	0.733
4.8558	0.745
4.8968	0.745
4.9378	0.747
4.9788	0.753
5.01979	0.772
5.06079	0.764
5.10179	0.769
5.14278	0.769
5.18378	0.577
5.22478	0.772
5.26578	0.788
5.30677	0.784
5.34777	0.813
5.38877	0.818
5.42976	0.818
5.47076	0.852
5.51176	0.849
5.55276	0.723
5.59375	0.852
5.63475	0.859
5.67575	0.8
5.71674	0.794
5.75774	0.89
5.79874	0.882
5.83974	0.87
5.88073	0.9
5.92173	0.849
5.96273	0.817
6.00372	0.859
6.04472	0.921
6.08572	0.938
6.12672	0.882
6.16771	0.254
6.20871	0.223
6.24971	0.608
6.29071	0.618
6.3317	0.651
6.3727	0.752
6.4137	0.68
6.45469	0.494
6.49569	0.107
6.53669	0.047
6.57769	0.039
6.61868	0.087
6.65968	0.063
6.70068	0.162
6.74167	0.14
6.78267	0.058
6.82367	0.076
6.86467	0.15
6.90566	0.266
6.94666	0.456
6.98766	0.541
7.02865	0.312
7.06965	0.211
7.11065	0.389
7.15165	0.505
7.19264	0.401
7.23364	0.123
7.27464	0.15
7.31563	0.087
7.35663	0.034
7.39763	0.027
7.43863	0.029
7.47962	0.041
7.52062	0.075
7.56162	0.143
7.60261	0.191
7.64361	0.227
7.68461	0.273
7.72561	0.321
7.7666	0.328
7.8076	0.323
7.8486	0.191
7.88959	0.336
7.93059	0.425
7.97159	0.456
8.01259	0.449
8.05358	0.476
8.09458	0.524
8.13558	0.545
8.17657	0.531
8.21757	0.461
8.25857	0.488
8.29957	0.507
8.34056	0.543
8.38156	0.512
8.42256	0.374
8.46355	0.495
8.50455	0.606
8.54555	0.618
8.58655	0.629
8.62754	0.647
8.66854	0.668
8.70954	0.69
8.75053	0.704
8.79153	0.723
8.83253	0.747
8.87353	0.757
8.91452	0.251
8.95552	0.177
8.99652	0.083
9.03752	0.423
9.07851	0.512
9.11951	0.5
9.16051	0.47
9.2015	0.545
9.2425	0.579
9.2835	0.6
9.3245	0.617
9.36549	0.637
9.40649	0.658
9.44749	0.666
9.48848	0.673
9.52948	0.678
9.57048	0.682
9.61148	0.695
9.65247	0.709
9.69347	0.711
9.73447	0.714
9.77546	0.712
9.81646	0.611
9.85746	0.408
9.89846	0.651
9.93945	0.705
9.98045	0.738
10.0214	0.752
10.0624	0.762
10.1034	0.769
10.1444	0.769
10.1854	0.764
10.2264	0.726
10.2674	0.694
10.3084	0.75
10.3494	0.757
10.3904	0.753
10.4314	0.764
10.4724	0.765
10.5134	0.757
10.5544	0.671
10.5954	0.471
10.6364	0.492
10.6774	0.647
10.7184	0.658
10.7594	0.582
10.8004	0.336
10.8414	0.179
10.8824	0.555
10.9234	0.678
10.9644	0.753
11.0054	0.805
11.0464	0.835
11.0874	0.852
11.1284	0.859
11.1694	0.859
11.2104	0.876
11.2514	0.88
11.2924	0.902
11.3334	0.921
11.3744	0.94
11.4154	0.955
11.4563	0.955
11.4973	0.941
11.5383	0.835
11.5793	0.535
11.6203	0.078
11.6613	0.172
11.7023	0.331
11.7433	0.482
11.7843	0.596
11.8253	0.618
11.8663	0.623
11.9073	0.601
11.9483	0.49
11.9893	0.239
12.0303	0.056
12.0713	0.167
12.1123	0.425
12.1533	0.574
12.1943	0.63
12.2353	0.666
12.2763	0.683
12.3173	0.695
12.3583	0.738
12.3993	0.77
12.4403	0.789
12.4813	0.745
12.5223	0.569
12.5633	0.369
12.6043	0.348
12.6453	0.54
12.6863	0.642
12.7273	0.699
12.7683	0.733
12.8093	0.75
12.8503	0.769
12.8912	0.772
12.9322	0.779
12.9732	0.782
13.0142	0.791
13.0552	0.794
13.0962	0.791
13.1372	0.789
13.1782	0.782
13.2192	0.767
13.2602	0.752
13.3012	0.716
13.3422	0.682
13.3832	0.632
13.4242	0.548
13.4652	0.441
13.5062	0.312
13.5472	0.141
13.5882	0.058
13.6292	0.051
13.6702	0.112
13.7112	0.225
13.7522	0.353
13.7932	0.446
13.8342	0.528
13.8752	0.577
13.9162	0.613
13.9572	0.651
13.9982	0.702
14.0392	0.748
14.0802	0.793
14.1212	0.827
14.1622	0.841
14.2032	0.861
14.2442	0.871
14.2852	0.89
14.3261	0.899
14.3671	0.899
14.4081	0.904
14.4491	0.895
14.4901	0.888
14.5311	0.868
14.5721	0.847
14.6131	0.808
14.6541	0.736
14.6951	0.63
14.7361	0.56
14.7771	0.589
14.8181	0.68
14.8591	0.757
14.9001	0.796
14.9411	0.82
14.9821	0.793
15.0231	0.709
15.0641	0.666
15.1051	0.654
15.1461	0.639
15.1871	0.623
15.2281	0.656
15.2691	0.7
15.3101	0.723
15.3511	0.733
15.3921	0.736
15.4331	0.728
15.4741	0.709
15.5151	0.705
15.5561	0.697
15.5971	0.687
15.6381	0.673
15.6791	0.664
15.7201	0.651
15.761	0.641
15.802	0.613
15.843	0.608
15.884	0.584
15.925	0.555
15.966	0.526
