Infrared Spectrum: METHYL ISOTHIOCYANATE
Formula: C2 H3 N S
CAS: 556-61-6
State: SOLID (MINERAL OIL MULL)
Melting point: 35-36 C
Class: COBLENTZ
Instrument: Not specified, most likely a prism, grating, or hybrid spectrometer.
Sampling: TRANSMISSION
Resolution: 4
Origin: WYANDOTTE CHEMICALS CORP., WYANDOTTE, MICHIGAN, USA
MICROMETERS	TRANSMITTANCE
2.019	0.427
2.05613	0.436
2.09327	0.432
2.1304	0.432
2.16753	0.422
2.20467	0.412
2.2418	0.402
2.27893	0.407
2.31607	0.424
2.3532	0.424
2.39033	0.43
2.42747	0.435
2.4646	0.441
2.50173	0.444
2.53887	0.449
2.576	0.466
2.61313	0.442
2.65027	0.466
2.6874	0.466
2.72453	0.464
2.76167	0.467
2.7988	0.469
2.83593	0.462
2.87307	0.462
2.9102	0.458
2.94733	0.452
2.98447	0.453
3.0216	0.466
3.05873	0.464
3.09587	0.459
3.133	0.445
3.17013	0.435
3.20727	0.427
3.2444	0.399
3.28153	0.354
3.31867	0.229
3.3558	0.058
3.39293	0.05
3.43007	0.095
3.4672	0.121
3.50433	0.121
3.54147	0.492
3.5786	0.592
3.61573	0.566
3.65287	0.638
3.69	0.679
3.72713	0.708
3.76427	0.729
3.8014	0.743
3.83853	0.766
3.87567	0.77
3.9128	0.79
3.94993	0.805
3.98707	0.83
4.0242	0.862
4.06133	0.89
4.09847	0.918
4.1356	0.938
4.17273	0.95
4.20987	0.981
4.247	0.987
4.28413	0.953
4.32127	0.936
4.3584	0.888
4.39553	0.74
4.43267	0.543
4.4698	0.33
4.50693	0.189
4.54407	0.104
4.5812	0.05
4.61833	0.05
4.65547	0.086
4.6926	0.098
4.72973	0.038
4.76687	0.03
4.804	0.03
4.84113	0.035
4.87827	0.055
4.9154	0.121
4.95253	0.195
4.98967	0.26
5.0268	0.305
5.06393	0.35
5.10107	0.384
5.1382	0.407
5.17533	0.433
5.21247	0.462
5.2496	0.472
5.28673	0.492
5.32387	0.507
5.361	0.515
5.39813	0.541
5.43527	0.543
5.4724	0.567
5.50953	0.575
5.54667	0.587
5.5838	0.592
5.62093	0.606
5.65807	0.604
5.6952	0.611
5.73233	0.629
5.76947	0.638
5.8066	0.62
5.84373	0.631
5.88087	0.648
5.918	0.623
5.95513	0.635
5.99227	0.646
6.0294	0.641
6.06653	0.652
6.10367	0.645
6.1408	0.66
6.17793	0.654
6.21507	0.655
6.2522	0.654
6.28933	0.651
6.32647	0.637
6.3636	0.614
6.40073	0.62
6.43787	0.598
6.475	0.609
6.51213	0.595
6.54927	0.603
6.5864	0.575
6.62353	0.566
6.66067	0.533
6.6978	0.473
6.73493	0.381
6.77207	0.202
6.8092	0.185
6.84633	0.205
6.88347	0.243
6.9206	0.324
6.95773	0.433
6.99487	0.413
7.032	0.111
7.06913	0.157
7.10627	0.228
7.1434	0.322
7.18053	0.327
7.21767	0.263
7.2548	0.287
7.29193	0.415
7.32907	0.504
7.3662	0.55
7.40333	0.567
7.44047	0.581
7.4776	0.611
7.51473	0.628
7.55187	0.641
7.589	0.651
7.62613	0.66
7.66327	0.663
7.7004	0.683
7.73753	0.682
7.77467	0.695
7.8118	0.699
7.84893	0.686
7.88607	0.689
7.9232	0.695
7.96033	0.686
7.99747	0.683
8.0346	0.675
8.07173	0.675
8.10887	0.669
8.146	0.668
8.18313	0.658
8.22027	0.651
8.2574	0.652
8.29453	0.655
8.33167	0.662
8.3688	0.68
8.40593	0.694
8.44307	0.714
8.4802	0.719
8.51733	0.711
8.55447	0.731
8.5916	0.736
8.62873	0.737
8.66587	0.762
8.703	0.782
8.74013	0.799
8.77727	0.814
8.8144	0.81
8.85153	0.81
8.88867	0.79
8.9258	0.768
8.96293	0.754
9.00007	0.725
9.0372	0.7
9.07433	0.663
9.11147	0.594
9.1486	0.486
9.18573	0.43
9.22287	0.484
9.26	0.546
9.29713	0.598
9.33427	0.626
9.3714	0.646
9.40853	0.668
9.44567	0.686
9.4828	0.691
9.51993	0.703
9.55707	0.699
9.5942	0.706
9.63133	0.705
9.66847	0.709
9.7056	0.712
9.74273	0.726
9.77987	0.731
9.817	0.739
9.85413	0.739
9.89127	0.756
9.9284	0.76
9.96553	0.765
10.0027	0.776
10.0398	0.787
10.0769	0.791
10.1141	0.794
10.1512	0.799
10.1883	0.813
10.2255	0.811
10.2626	0.816
10.2997	0.817
10.3369	0.82
10.374	0.827
10.4111	0.831
10.4483	0.842
10.4854	0.851
10.5225	0.862
10.5597	0.864
10.5968	0.87
10.6339	0.875
10.6711	0.876
10.7082	0.879
10.7453	0.882
10.7825	0.888
10.8196	0.902
10.8567	0.902
10.8939	0.908
10.931	0.905
10.9681	0.912
11.0053	0.915
11.0424	0.913
11.0795	0.915
11.1167	0.908
11.1538	0.899
11.1909	0.89
11.2281	0.875
11.2652	0.864
11.3023	0.861
11.3395	0.856
11.3766	0.865
11.4137	0.884
11.4509	0.898
11.488	0.907
11.5251	0.918
11.5623	0.932
11.5994	0.933
11.6365	0.942
11.6737	0.947
11.7108	0.947
11.7479	0.942
11.7851	0.941
11.8222	0.947
11.8593	0.95
11.8965	0.955
11.9336	0.958
11.9707	0.956
12.0079	0.961
12.045	0.967
12.0821	0.966
12.1193	0.966
12.1564	0.97
12.1935	0.975
12.2307	0.983
12.2678	0.981
12.3049	0.976
12.3421	0.983
12.3792	0.986
12.4163	0.979
12.4535	0.987
12.4906	0.987
12.5277	0.981
12.5649	0.984
12.602	0.983
12.6391	0.978
12.6763	0.975
12.7134	0.972
12.7505	0.966
12.7877	0.961
12.8248	0.961
12.8619	0.961
12.8991	0.961
12.9362	0.959
12.9733	0.961
13.0105	0.958
13.0476	0.958
13.0847	0.967
13.1219	0.962
13.159	0.961
13.1961	0.967
13.2333	0.969
13.2704	0.972
13.3075	0.972
13.3447	0.972
13.3818	0.97
13.4189	0.967
13.4561	0.969
13.4932	0.967
13.5303	0.964
13.5675	0.961
13.6046	0.958
13.6417	0.955
13.6789	0.959
13.716	0.961
13.7531	0.956
13.7903	0.961
13.8274	0.958
13.8645	0.95
13.9017	0.952
13.9388	0.959
13.9759	0.979
14.0131	0.986
14.0502	0.987
14.0873	0.992
14.1245	0.995
14.1616	0.996
14.1987	0.993
14.2359	0.992
14.273	0.993
14.3101	0.995
14.3473	0.987
14.3844	0.987
14.4215	0.983
14.4587	0.981
14.4958	0.981
14.5329	0.969
14.5701	0.959
14.6072	0.949
14.6443	0.942
14.6815	0.929
14.7186	0.918
14.7557	0.905
14.7929	0.891
14.83	0.878
14.8671	0.867
14.9043	0.837
14.9414	0.828
14.9785	0.79
15.0157	0.734
15.0528	0.688
15.0899	0.677
15.1271	0.692
15.1642	0.686
15.2013	0.665
15.2385	0.631
15.2756	0.6
15.3127	0.578
15.3499	0.547
15.387	0.518
15.4241	0.5
15.4613	0.476
15.4984	0.456
15.5355	0.449
15.5727	0.424
15.6098	0.418
15.6469	0.412
15.6841	0.412
15.7212	0.418
15.7583	0.413
15.7955	0.41
15.8326	0.418
15.8697	0.429
15.9069	0.429
15.944	0.432
15.9811	0.438
