Infrared Spectrum: ANILINE, o-sec-BUTYL-
Formula: C10 H15 N
CAS: 55751-54-7
State: LIQUID (NEAT)
Class: COBLENTZ III
Instrument: BECKMAN IR-4 (HYBRID PRISM-GRATING)
Instrument parameters: NaCl PRISM
Sampling: TRANSMISSION
Path length: CAPILLARY
Resolution: 2
Origin: MONSANTO (J. FREEMAN)
1/CM	TRANSMITTANCE
3855.42	0.9366
3846.81	0.9368
3838.2	0.9368
3829.59	0.9368
3820.98	0.9368
3812.37	0.937
3803.76	0.937
3795.15	0.9371
3786.54	0.9371
3777.93	0.9371
3769.32	0.9371
3760.71	0.9371
3752.1	0.9373
3743.49	0.9373
3734.88	0.9374
3726.27	0.9374
3717.66	0.9375
3709.05	0.9375
3700.44	0.9375
3691.83	0.9375
3683.22	0.9375
3674.62	0.9375
3666.01	0.9375
3657.4	0.9375
3648.79	0.9375
3640.18	0.9375
3631.57	0.9375
3622.96	0.9374
3614.35	0.9373
3605.74	0.9367
3597.13	0.9357
3588.52	0.9348
3579.91	0.9329
3571.3	0.9308
3562.69	0.9287
3554.08	0.9255
3545.47	0.922
3536.86	0.9184
3528.25	0.9135
3519.64	0.9061
3511.03	0.8951
3502.42	0.8836
3493.81	0.8439
3485.2	0.794
3476.59	0.7437
3467.98	0.6933
3459.37	0.6436
3450.76	0.6375
3442.15	0.6487
3433.54	0.6826
3424.93	0.7142
3416.32	0.7139
3407.71	0.6969
3399.1	0.6652
3390.49	0.6333
3381.88	0.6012
3373.27	0.5688
3364.66	0.5364
3356.05	0.5124
3347.44	0.5137
3338.83	0.5646
3330.22	0.6328
3321.62	0.7014
3313.01	0.7703
3304.4	0.8384
3295.79	0.8547
3287.18	0.8676
3278.57	0.8708
3269.96	0.8721
3261.35	0.868
3252.74	0.8596
3244.13	0.851
3235.52	0.8423
3226.91	0.8362
3218.3	0.8386
3209.69	0.8498
3201.08	0.8611
3192.47	0.8726
3183.86	0.8841
3175.25	0.8957
3166.64	0.9065
3158.03	0.9121
3149.42	0.9155
3140.81	0.9171
3132.2	0.9168
3123.59	0.9125
3114.98	0.9001
3106.37	0.862
3097.76	0.8214
3089.15	0.7805
3080.54	0.7395
3071.93	0.6981
3063.32	0.6874
3054.71	0.678
3046.1	0.6561
3037.49	0.6344
3028.88	0.6262
3020.27	0.6481
3011.66	0.6761
3003.05	0.6895
2994.44	0.6371
2985.83	0.5615
2977.22	0.4856
2968.62	0.4091
2960.01	0.3323
2951.4	0.255
2942.79	0.1973
2934.18	0.198
2925.57	0.2481
2916.96	0.3104
2908.35	0.3386
2899.74	0.3947
2891.13	0.4513
2882.52	0.4774
2873.91	0.4516
2865.3	0.4114
2856.69	0.4112
2848.08	0.8288
2839.47	0.8629
2830.86	0.8782
2822.25	0.891
2813.64	0.902
2805.03	0.9129
2796.42	0.924
2787.81	0.9337
2779.2	0.9368
2770.59	0.9357
2761.98	0.9336
2753.37	0.9318
2744.76	0.9318
2736.15	0.9345
2727.54	0.9383
2718.93	0.9418
2710.32	0.9455
2701.71	0.9484
2693.1	0.9476
2684.49	0.9465
2675.88	0.9455
2667.27	0.9455
2658.66	0.9456
2650.05	0.9457
2641.44	0.9458
2632.83	0.9464
2624.22	0.9477
2615.62	0.949
2607.01	0.9504
2598.4	0.9517
2589.79	0.9533
2581.18	0.9549
2572.57	0.9565
2563.96	0.9583
2555.35	0.9601
2546.74	0.9623
2538.13	0.9645
2529.52	0.9661
2520.91	0.9668
2512.3	0.9675
2503.69	0.9683
2495.08	0.9689
2486.47	0.9691
2477.86	0.9694
2469.25	0.9697
2460.64	0.9699
2452.03	0.9702
2443.42	0.9704
2434.81	0.9707
2426.2	0.9709
2417.59	0.9712
2408.98	0.9715
2400.37	0.9718
2391.76	0.972
2383.15	0.9721
2374.54	0.9725
2365.93	0.9728
2357.32	0.9731
2348.71	0.9733
2340.1	0.9736
2331.49	0.9739
2322.88	0.9741
2314.27	0.9744
2305.66	0.9746
2297.05	0.9749
2288.44	0.9751
2279.83	0.9754
2271.22	0.9756
2262.62	0.9759
2254.01	0.9762
2245.4	0.9766
2236.79	0.977
2228.18	0.9774
2219.57	0.9778
2210.96	0.9783
2202.35	0.9786
2193.74	0.9789
2185.13	0.9791
2176.52	0.9793
2167.91	0.9794
2159.3	0.9796
2150.69	0.9798
2142.08	0.9799
2133.47	0.9797
2124.86	0.9795
2116.25	0.9792
2107.64	0.979
2099.03	0.9786
2090.42	0.9782
2081.81	0.9777
2073.2	0.9777
2064.59	0.9777
2055.98	0.9778
2047.37	0.9783
2038.76	0.979
2030.15	0.9803
2021.54	0.9849
2012.93	0.9888
2004.32	0.9822
1995.71	0.9801
1987.1	0.9795
1978.49	0.9792
1969.88	0.9786
1961.27	0.9773
1952.66	0.9718
1944.05	0.9578
1935.44	0.9482
1926.83	0.9486
1918.22	0.9481
1909.62	0.9374
1901.01	0.9343
1892.4	0.9409
1883.79	0.9636
1875.18	0.968
1866.57	0.9666
1857.96	0.9657
1849.35	0.9758
1840.74	0.9778
1832.13	0.9744
1823.52	0.9675
1814.91	0.967
1806.3	0.9675
1797.69	0.9649
1789.08	0.9612
1780.47	0.9624
1771.86	0.9732
1763.25	0.9811
1754.64	0.988
1746.03	0.9927
1737.42	0.9951
1728.81	0.9919
1720.2	0.9792
1711.59	0.9646
1702.98	0.9498
1694.37	0.9335
1685.76	0.9161
1677.15	0.898
1668.54	0.8709
1659.93	0.8194
1651.32	0.6842
1642.71	0.5361
1634.1	0.3863
1625.49	0.2351
1616.88	0.1124
1608.27	0.2944
1599.66	0.5202
1591.05	0.6328
1582.44	0.5232
1573.83	0.7696
1565.22	0.8593
1556.62	0.8876
1548.01	0.8915
1539.4	0.8848
1530.79	0.8489
1522.18	0.7301
1513.57	0.653
1504.96	0.3799
1496.35	0.1334
1487.74	0.3652
1479.13	0.7147
1470.52	0.6075
1461.91	0.3761
1453.3	0.1928
1444.69	0.4172
1436.08	0.7547
1427.47	0.8555
1418.86	0.8869
1410.25	0.9029
1401.64	0.9098
1393.03	0.9046
1384.42	0.6796
1375.81	0.655
1367.2	0.7957
1358.59	0.8622
1349.98	0.9203
1341.37	0.9095
1332.76	0.9012
1324.15	0.8476
1315.54	0.7024
1306.93	0.4995
1298.32	0.4663
1289.71	0.5042
1281.1	0.6141
1272.49	0.6261
1263.88	0.5378
1255.27	0.5932
1246.66	0.6982
1238.05	0.8045
1229.44	0.8939
1220.83	0.9251
1212.22	0.9346
1203.62	0.9347
1195.01	0.9361
1186.4	0.9337
1177.79	0.9289
1169.18	0.9018
1160.57	0.6325
1151.96	0.7086
1143.35	0.8939
1134.74	0.9023
1126.13	0.8856
1117.52	0.8741
1108.91	0.8542
1100.3	0.8735
1091.69	0.8654
1083.08	0.869
1074.47	0.8587
1065.86	0.8918
1057.25	0.9078
1048.64	0.8595
1040.03	0.7891
1031.42	0.8514
1022.81	0.8786
1014.2	0.753
1005.59	0.8687
996.981	0.805
988.371	0.8975
979.761	0.9153
971.152	0.9034
962.542	0.8532
953.932	0.8368
945.322	0.9063
936.713	0.888
928.103	0.7994
919.493	0.9096
910.883	0.9344
902.274	0.9315
893.664	0.9279
885.054	0.9207
876.444	0.9061
867.835	0.867
859.225	0.8113
850.615	0.7865
842.005	0.8463
833.396	0.857
824.786	0.801
816.176	0.7966
807.566	0.7958
798.956	0.7738
790.347	0.7482
781.737	0.7074
773.127	0.6611
764.517	0.5258
755.908	0.1963
747.298	0.0833
738.688	0.292
730.078	0.6079
721.469	0.6473
712.859	0.6517
704.249	0.6277
695.639	0.6076
687.03	0.5981
678.42	0.574
669.81	0.5446
661.2	0.5265
652.591	0.5079
643.981	0.5036
635.371	0.5016
