Infrared Spectrum: 2-PROPANONE,p-CHLOROPHENYL-
Formula: C9 H9 Cl O
CAS: 5586-88-9
State: LIQUID (NEAT)
Class: COBLENTZ III
Instrument: PERKIN-ELMER 21 (GRATING)
Instrument parameters: FILTER AT ABOUT 10 MICRONS
Path length: CAPILLARY
Resolution: 2
Origin: ABBOTT LABORATORIES
1/CM	TRANSMITTANCE
667	0.636
676	0.7333
685	0.7967
694	0.8045
703	0.7821
712	0.6443
721	0.8362
730	0.8528
739	0.8548
748	0.8502
757	0.8221
766	0.7262
775	0.5767
784	0.5602
793	0.7604
802	0.7545
811	0.7057
820	0.6152
829	0.5218
838	0.6148
847	0.6525
856	0.7775
865	0.8579
874	0.864
883	0.8691
892	0.8843
901	0.8915
910	0.8882
919	0.8822
928	0.8718
937	0.8683
946	0.8666
955	0.8543
964	0.839
973	0.8082
982	0.825
991	0.807
1000	0.754
1009	0.3891
1018	0.7979
1027	0.8518
1036	0.8522
1045	0.85
1054	0.8317
1063	0.8104
1072	0.6811
1081	0.3661
1090	0.5315
1099	0.6353
1108	0.8123
1117	0.811
1126	0.7309
1135	0.6352
1144	0.546
1153	0.3652
1162	0.6823
1171	0.7331
1180	0.7427
1189	0.767
1198	0.7336
1207	0.647
1216	0.5757
1225	0.6907
1234	0.8115
1243	0.824
1252	0.8138
1261	0.7875
1270	0.752
1279	0.7561
1288	0.7736
1297	0.7213
1306	0.65
1315	0.5916
1324	0.6616
1333	0.6818
1342	0.4869
1351	0.387
1360	0.6788
1369	0.7697
1378	0.7636
1387	0.7161
1396	0.568
1405	0.5151
1414	0.5803
1423	0.645
1432	0.7102
1441	0.7695
1450	0.8024
1459	0.7899
1468	0.7317
1477	0.4813
1486	0.2308
1495	0.617
1504	0.8151
1513	0.8546
1522	0.8691
1531	0.8785
1540	0.8782
1549	0.8776
1558	0.8735
1567	0.8635
1576	0.8567
1585	0.8198
1594	0.8039
1603	0.8643
1612	0.8639
1621	0.8563
1630	0.8418
1639	0.8167
1648	0.8012
1657	0.788
1666	0.7589
1675	0.7236
1684	0.6859
1693	0.3991
1702	0.1407
1711	0.149
1720	0.3219
1729	0.5633
1738	0.7732
1747	0.8178
1756	0.837
1765	0.8487
1774	0.8588
1783	0.8689
1792	0.8812
1801	0.8922
1810	0.901
1819	0.9035
1828	0.9046
1837	0.9042
1846	0.9035
1855	0.9022
1864	0.8963
1873	0.888
1882	0.8775
1891	0.8782
1900	0.8887
1909	0.9077
1918	0.9117
1927	0.9174
1936	0.9192
1945	0.9193
1954	0.9193
1963	0.9194
1972	0.9195
1981	0.9195
1990	0.9196
1999	0.9196
2008	0.9197
2017	0.9198
2026	0.9198
2035	0.9199
2044	0.9199
2053	0.92
2062	0.92
2071	0.9201
2080	0.9202
2089	0.9202
2098	0.9203
2107	0.9203
2116	0.9204
2125	0.9204
2134	0.9205
2143	0.9205
2152	0.9206
2161	0.9206
2170	0.9207
2179	0.9207
2188	0.9208
2197	0.9208
2206	0.9205
2215	0.9203
2224	0.9205
2233	0.9209
2242	0.9211
2251	0.9211
2260	0.9212
2269	0.9207
2278	0.9203
2287	0.9199
2296	0.9194
2305	0.919
2314	0.9186
2323	0.918
2332	0.9171
2341	0.9161
2350	0.9142
2359	0.9125
2368	0.9117
2377	0.9111
2386	0.9104
2395	0.91
2404	0.9096
2413	0.9093
2422	0.909
2431	0.9095
2440	0.9099
2449	0.9104
2458	0.9107
2467	0.9108
2476	0.9105
2485	0.9103
2494	0.91
2503	0.9097
2512	0.909
2521	0.9083
2530	0.9062
2539	0.9038
2548	0.9026
2557	0.9021
2566	0.9022
2575	0.9024
2584	0.9025
2593	0.9023
2602	0.902
2611	0.9017
2620	0.9015
2629	0.9012
2638	0.901
2647	0.901
2656	0.9012
2665	0.9013
2674	0.901
2683	0.8998
2692	0.8986
2701	0.8974
2710	0.8959
2719	0.8945
2728	0.8928
2737	0.8905
2746	0.8882
2755	0.8859
2764	0.8829
2773	0.8797
2782	0.8763
2791	0.8722
2800	0.8679
2809	0.8631
2818	0.8579
2827	0.8527
2836	0.8472
2845	0.8404
2854	0.8339
2863	0.8283
2872	0.8226
2881	0.8154
2890	0.8138
2899	0.814
2908	0.8154
2917	0.8174
2926	0.8223
2935	0.8243
2944	0.8254
2953	0.8264
2962	0.8269
2971	0.8271
2980	0.827
2989	0.8268
2998	0.8267
3007	0.8276
3016	0.8309
3025	0.8361
3034	0.8419
3043	0.8471
3052	0.8524
3061	0.8584
3070	0.8644
3079	0.8694
3088	0.8741
3097	0.8777
3106	0.8805
3115	0.8832
3124	0.8852
3133	0.887
3142	0.8887
3151	0.8897
3160	0.8903
3169	0.891
3178	0.8917
3187	0.8917
3196	0.8914
3205	0.8912
3214	0.8909
3223	0.8906
3232	0.8904
3241	0.89
3250	0.8897
3259	0.8894
3268	0.889
3277	0.8886
3286	0.8878
3295	0.887
3304	0.8862
3313	0.8854
3322	0.8846
3331	0.8836
3340	0.8827
3349	0.8817
3358	0.8808
3367	0.8801
3376	0.8797
3385	0.8794
3394	0.8793
3403	0.8804
3412	0.8816
3421	0.8833
3430	0.8853
3439	0.8885
3448	0.8919
3457	0.8946
3466	0.8964
3475	0.8981
3484	0.8988
3493	0.8993
3502	0.8999
3511	0.9004
3520	0.9007
3529	0.9008
3538	0.901
3547	0.9011
3556	0.9012
3565	0.9014
3574	0.9014
3583	0.9014
3592	0.9013
3601	0.9013
3610	0.9013
3619	0.9013
3628	0.9013
3637	0.9012
3646	0.9011
3655	0.9011
3664	0.901
3673	0.9009
3682	0.9009
3691	0.9008
3700	0.9007
3709	0.9007
3718	0.9005
3727	0.9002
3736	0.9
3745	0.8997
3754	0.8993
3763	0.8991
3772	0.8986
3781	0.8979
3790	0.8972
3799	0.8964
3808	0.8958
3817	0.8954
3826	0.8952
3835	0.895
3844	0.8947
3853	0.8945
3862	0.8942
3871	0.8939
3880	0.8937
3889	0.8936
3898	0.8935
3907	0.8934
3916	0.8933
3925	0.8932
3934	0.8932
3943	0.8931
3952	0.893
3961	0.8929
3970	0.8928
3979	0.8927
3988	0.8926
3997	0.8925
