Infrared Spectrum: 2-QuinolineCarboxylic acid, 4-hydroxy-8-methoxy-, ethyl ester
Formula: C13 H13 N O4
CAS: 55895-59-5
State: SOLID (1.8 mg / 350 mg KBr DISC)
Class: COBLENTZ II
Instrument: PERKIN-ELMER 180 (GRATING)
Instrument parameters: GRATINGS: 2000, 1000, 500, 250 CM^-^1; FILTER CHANGE: 2970, 2000, 1485, 1000, 743, 500, 372, 250, 186 CM^-^1.
Sampling: TRANSMISSION
Resolution: 2
Origin: K. K. DEB-NCI FREDERICK CANCER RESEARCH CENTER
1/CM	TRANSMITTANCE
402	0.7927
411	0.8014
420	0.796
429	0.7843
438	0.7548
447	0.7145
456	0.7007
465	0.7011
474	0.6741
483	0.6354
492	0.5714
501	0.5366
510	0.5161
519	0.6586
528	0.5144
537	0.5937
546	0.6672
555	0.7111
564	0.7208
573	0.7054
582	0.6839
591	0.708
600	0.7632
609	0.752
618	0.7191
627	0.6127
636	0.4505
645	0.3694
654	0.5149
663	0.7256
672	0.836
681	0.8615
690	0.8384
699	0.6476
708	0.7336
717	0.7445
726	0.8539
735	0.8341
744	0.7816
753	0.5655
762	0.62
771	0.7376
780	0.358
789	0.5435
798	0.8625
807	0.7596
816	0.5887
825	0.7627
834	0.856
843	0.7976
852	0.6417
861	0.4062
870	0.5594
879	0.8283
888	0.8065
897	0.8107
906	0.794
915	0.8333
924	0.8441
933	0.8373
942	0.8194
951	0.8007
960	0.7792
969	0.7409
978	0.7323
987	0.668
996	0.5604
1005	0.4923
1014	0.2883
1023	0.4184
1032	0.696
1041	0.7214
1050	0.6108
1059	0.4678
1068	0.4066
1077	0.7056
1086	0.7296
1095	0.6881
1104	0.5015
1113	0.6155
1122	0.5271
1131	0.6641
1140	0.4877
1149	0.276
1158	0.5491
1167	0.655
1176	0.5787
1185	0.5753
1194	0.5399
1203	0.6657
1212	0.5876
1221	0.4058
1230	0.1577
1239	0.3946
1248	0.42
1257	0.17
1266	0.0827
1275	0.1854
1284	0.3597
1293	0.4283
1302	0.3206
1311	0.4916
1320	0.7272
1329	0.7528
1338	0.4267
1347	0.357
1356	0.7242
1365	0.6116
1374	0.2951
1383	0.6142
1392	0.6748
1401	0.7222
1410	0.7672
1419	0.7403
1428	0.6827
1437	0.3679
1446	0.5163
1455	0.3987
1464	0.5577
1473	0.3901
1482	0.3536
1491	0.7447
1500	0.7222
1509	0.6709
1518	0.5303
1527	0.3155
1536	0.1279
1545	0.3962
1554	0.5316
1563	0.3809
1572	0.2302
1581	0.1059
1590	0.0886
1599	0.1862
1608	0.1681
1617	0.1348
1626	0.2001
1635	0.2685
1644	0.4863
1653	0.6379
1662	0.6944
1671	0.7602
1680	0.7949
1689	0.8209
1698	0.8242
1707	0.7811
1716	0.402
1725	0.1223
1734	0.4071
1743	0.6157
1752	0.7452
1761	0.8097
1770	0.8405
1779	0.8744
1788	0.8883
1797	0.8934
1806	0.8897
1815	0.8837
1824	0.8808
1833	0.8924
1842	0.9038
1851	0.9101
1860	0.9068
1869	0.9021
1878	0.8986
1887	0.8979
1896	0.8992
1905	0.9003
1914	0.9014
1923	0.8996
1932	0.8976
1941	0.8994
1950	0.9026
1959	0.8991
1968	0.8978
1977	0.9018
1986	0.9098
1995	0.914
2004	0.9312
2013	0.9378
2022	0.9368
2031	0.9345
2040	0.9314
2049	0.9275
2058	0.9232
2067	0.9185
2076	0.9136
2085	0.9083
2094	0.9029
2103	0.8976
2112	0.8924
2121	0.8872
2130	0.8831
2139	0.891
2148	0.8981
2157	0.9089
2166	0.912
2175	0.9136
2184	0.9141
2193	0.9146
2202	0.9148
2211	0.9142
2220	0.9137
2229	0.9133
2238	0.9127
2247	0.9119
2256	0.9112
2265	0.9104
2274	0.9091
2283	0.9074
2292	0.9056
2301	0.9038
2310	0.902
2319	0.9002
2328	0.8983
2337	0.8964
2346	0.8945
2355	0.8927
2364	0.8903
2373	0.8875
2382	0.8847
2391	0.8822
2400	0.8797
2409	0.8772
2418	0.8748
2427	0.873
2436	0.8713
2445	0.8695
2454	0.8678
2463	0.8661
2472	0.8648
2481	0.8634
2490	0.8622
2499	0.8608
2508	0.8577
2517	0.8541
2526	0.8531
2535	0.8526
2544	0.8521
2553	0.8507
2562	0.849
2571	0.8463
2580	0.8435
2589	0.8425
2598	0.8422
2607	0.8411
2616	0.84
2625	0.8337
2634	0.8275
2643	0.8292
2652	0.8363
2661	0.8389
2670	0.8382
2679	0.8348
2688	0.8317
2697	0.8286
2706	0.8255
2715	0.8201
2724	0.8148
2733	0.811
2742	0.8111
2751	0.814
2760	0.8181
2769	0.8185
2778	0.8178
2787	0.8162
2796	0.8146
2805	0.8069
2814	0.7983
2823	0.7894
2832	0.776
2841	0.7534
2850	0.734
2859	0.7572
2868	0.7505
2877	0.7426
2886	0.7353
2895	0.7266
2904	0.7152
2913	0.71
2922	0.7113
2931	0.6896
2940	0.6606
2949	0.6371
2958	0.6344
2967	0.6918
2976	0.6657
2985	0.6279
2994	0.6229
3003	0.6545
3012	0.686
3021	0.7149
3030	0.7069
3039	0.7097
3048	0.722
3057	0.7216
3066	0.6937
3075	0.6667
3084	0.6821
3093	0.7287
3102	0.7392
3111	0.7414
3120	0.7428
3129	0.7428
3138	0.7397
3147	0.7359
3156	0.7317
3165	0.7298
3174	0.7304
3183	0.73
3192	0.7271
3201	0.7193
3210	0.7121
3219	0.7042
3228	0.696
3237	0.689
3246	0.6839
3255	0.6792
3264	0.676
3273	0.6729
3282	0.6703
3291	0.6657
3300	0.6603
3309	0.6519
3318	0.6323
3327	0.6146
3336	0.5959
3345	0.5764
3354	0.5354
3363	0.4651
3372	0.3227
3381	0.1917
3390	0.2922
3399	0.4352
3408	0.5346
3417	0.5291
3426	0.5
3435	0.4866
3444	0.4946
3453	0.5141
3462	0.526
3471	0.521
3480	0.5019
3489	0.4654
3498	0.4236
3507	0.3817
3516	0.3427
3525	0.3291
3534	0.3468
3543	0.3991
3552	0.4515
3561	0.5099
3570	0.547
3579	0.581
3588	0.6094
3597	0.6259
3606	0.6528
3615	0.6855
3624	0.7115
3633	0.7437
3642	0.7719
3651	0.7846
3660	0.789
3669	0.7894
3678	0.7844
3687	0.7802
3696	0.7801
3705	0.7836
3714	0.7823
3723	0.7805
3732	0.7784
3741	0.7761
3750	0.7743
3759	0.7737
3768	0.7733
3777	0.7726
3786	0.7709
3795	0.7691
