Infrared Spectrum: 2,4-Dinitrophenyl hydrazine, hydrochloride
Formula: C6 H7 Cl N4 O4
CAS: 55907-61-4
State: SOLID (OIL MULL)
Class: COBLENTZ III
Instrument: BAIRD (PRISM)
Instrument parameters: NaCl PRISM
Sampling: TRANSMISSION
Resolution: 2
Origin: WYANDOTTE CHEMICALS CORP.
1/CM	TRANSMITTANCE
626	0.4237
635	0.4543
644	0.4511
653	0.5066
662	0.5544
671	0.6089
680	0.543
689	0.6346
698	0.5317
707	0.3097
716	0.6186
725	0.6775
734	0.5313
743	0.5273
752	0.7208
761	0.6814
770	0.7348
779	0.748
788	0.7522
797	0.7437
806	0.6939
815	0.6611
824	0.3783
833	0.5964
842	0.7368
851	0.7438
860	0.7434
869	0.7458
878	0.7378
887	0.7315
896	0.7256
905	0.6488
914	0.5439
923	0.3615
932	0.6895
941	0.7053
950	0.7019
959	0.6951
968	0.6885
977	0.7055
986	0.7095
995	0.7102
1004	0.706
1013	0.7025
1022	0.7005
1031	0.6987
1040	0.6828
1049	0.6502
1058	0.4619
1067	0.6204
1076	0.7115
1085	0.7158
1094	0.6966
1103	0.6004
1112	0.5982
1121	0.5519
1130	0.4196
1139	0.2167
1148	0.4555
1157	0.4967
1166	0.7551
1175	0.7485
1184	0.7397
1193	0.6842
1202	0.5291
1211	0.2028
1220	0.1852
1229	0.2646
1238	0.4
1247	0.3349
1256	0.5831
1265	0.6104
1274	0.4699
1283	0.2465
1292	0.4795
1301	0.5043
1310	0.2744
1319	0.0664
1328	0.0787
1337	0.1146
1346	0.053
1355	0.0743
1364	0.231
1373	0.4471
1382	0.4836
1391	0.6096
1400	0.5423
1409	0.3639
1418	0.1904
1427	0.3236
1436	0.512
1445	0.6095
1454	0.5156
1463	0.4213
1472	0.3409
1481	0.413
1490	0.399
1499	0.2466
1508	0.1049
1517	0.1357
1526	0.1492
1535	0.1015
1544	0.1447
1553	0.3311
1562	0.4844
1571	0.4552
1580	0.4729
1589	0.3913
1598	0.2609
1607	0.1318
1616	0.177
1625	0.1289
1634	0.0597
1643	0.3636
1652	0.6668
1661	0.7868
1670	0.834
1679	0.8562
1688	0.9039
1697	0.9146
1706	0.9212
1715	0.9239
1724	0.9293
1733	0.9269
1742	0.9241
1751	0.9236
1760	0.9204
1769	0.9121
1778	0.906
1787	0.9119
1796	0.9067
1805	0.8923
1814	0.8788
1823	0.8852
1832	0.8855
1841	0.873
1850	0.8701
1859	0.869
1868	0.867
1877	0.8636
1886	0.8599
1895	0.8526
1904	0.8351
1913	0.8197
1922	0.8222
1931	0.8147
1940	0.797
1949	0.7792
1958	0.7602
1967	0.7437
1976	0.7293
1985	0.7135
1994	0.6973
2003	0.6767
2012	0.6615
2021	0.6471
2030	0.6492
2039	0.6565
2048	0.6717
2057	0.6832
2066	0.6949
2075	0.6993
2084	0.7005
2093	0.7001
2102	0.697
2111	0.691
2120	0.6848
2129	0.68
2138	0.6775
2147	0.6754
2156	0.6736
2165	0.6735
2174	0.6736
2183	0.6737
2192	0.6739
2201	0.6745
2210	0.675
2219	0.6751
2228	0.6689
2237	0.6628
2246	0.6589
2255	0.6595
2264	0.6582
2273	0.6481
2282	0.6336
2291	0.6192
2300	0.6066
2309	0.597
2318	0.5869
2327	0.5751
2336	0.5658
2345	0.5571
2354	0.5516
2363	0.5463
2372	0.5389
2381	0.5315
2390	0.5227
2399	0.5151
2408	0.5095
2417	0.4985
2426	0.4942
2435	0.4908
2444	0.4862
2453	0.4761
2462	0.4656
2471	0.4554
2480	0.4432
2489	0.4291
2498	0.4149
2507	0.4001
2516	0.3841
2525	0.369
2534	0.3598
2543	0.3507
2552	0.3432
2561	0.3363
2570	0.3297
2579	0.3235
2588	0.3173
2597	0.3113
2606	0.3057
2615	0.3003
2624	0.2969
2633	0.2944
2642	0.2939
2651	0.2938
2660	0.2953
2669	0.2977
2678	0.3007
2687	0.304
2696	0.3087
2705	0.3122
2714	0.3141
2723	0.3133
2732	0.3112
2741	0.308
2750	0.3038
2759	0.2983
2768	0.2895
2777	0.2846
2786	0.2814
2795	0.2793
2804	0.2775
2813	0.2752
2822	0.2637
2831	0.2453
2840	0.2126
2849	0.1781
2858	0.1368
2867	0.0805
2876	0.0711
2885	0.0688
2894	0.0671
2903	0.0611
2912	0.0469
2921	0.0413
2930	0.0388
2939	0.038
2948	0.0374
2957	0.0376
2966	0.0386
2975	0.0422
2984	0.0526
2993	0.0743
3002	0.1045
3011	0.1357
3020	0.1668
3029	0.1977
3038	0.2284
3047	0.2589
3056	0.2893
3065	0.3188
3074	0.3255
3083	0.3131
3092	0.2989
3101	0.2847
3110	0.2923
3119	0.3301
3128	0.3578
3137	0.3579
3146	0.3553
3155	0.3466
3164	0.3367
3173	0.3262
3182	0.3133
3191	0.305
3200	0.2996
3209	0.2905
3218	0.2588
3227	0.2246
3236	0.1907
3245	0.1569
3254	0.131
3263	0.1418
3272	0.1934
3281	0.2468
3290	0.2944
3299	0.2824
3308	0.253
3317	0.2238
3326	0.1948
3335	0.1659
3344	0.1372
3353	0.1104
3362	0.1042
3371	0.1046
3380	0.1072
3389	0.1109
3398	0.1157
3407	0.1202
3416	0.1281
3425	0.1516
3434	0.1781
3443	0.2043
3452	0.2305
3461	0.2566
3470	0.2825
3479	0.3594
3488	0.3998
3497	0.4246
3506	0.4439
3515	0.4616
3524	0.4804
3533	0.4985
3542	0.5097
3551	0.52
3560	0.5299
3569	0.537
3578	0.5436
3587	0.5503
3596	0.5568
3605	0.5629
3614	0.5681
3623	0.5733
3632	0.5787
3641	0.5846
3650	0.5907
3659	0.597
3668	0.6039
3677	0.6088
3686	0.6106
3695	0.6108
3704	0.6101
3713	0.6091
3722	0.6083
3731	0.6074
3740	0.6062
3749	0.6044
3758	0.6024
3767	0.6003
3776	0.598
3785	0.5956
3794	0.5932
3803	0.5908
3812	0.5885
3821	0.5861
3830	0.5838
3839	0.5815
3848	0.5792
3857	0.5768
3866	0.5745
3875	0.5723
3884	0.5699
3893	0.5677
3902	0.5653
3911	0.5625
3920	0.5597
3929	0.5568
3938	0.554
3947	0.5511
3956	0.5475
3965	0.5438
3974	0.5402
3983	0.538
3992	0.5358
