Infrared Spectrum: O,O-DIETHYL O-P-NITROPHENYL PHOSPHOROTHIOATE
Formula: C10 H14 N O5 P S
CAS: 56-38-2
State: SOLUTION (10% CCl4 FOR 3800-1330, 10% CS2 FOR 1330-450 CM^-^1)
Class: COBLENTZ
Instrument: Not specified, most likely a prism, grating, or hybrid spectrometer.
Sampling: TRANSMISSION
Path length: 0.0110 CM, 0.0113 CM
Resolution: 4
Origin: DOW CHEMICAL COMPANY
1/CM	TRANSMITTANCE
452.2	0.685
461.305	0.689
470.409	0.714
479.514	0.744
488.619	0.785
497.723	0.795
506.828	0.765
515.933	0.689
525.038	0.758
534.142	0.82
543.247	0.905
552.352	0.921
561.456	0.936
570.561	0.932
579.666	0.925
588.77	0.893
597.875	0.849
606.98	0.904
616.085	0.911
625.189	0.893
634.294	0.781
643.399	0.5641
652.503	0.5569
661.608	0.692
670.713	0.772
679.817	0.785
688.922	0.5
698.027	0.854
707.132	0.891
716.236	0.888
725.341	0.87
734.446	0.834
743.55	0.731
752.655	0.2769
761.76	0.1701
770.864	0.325
779.969	0.5231
789.074	0.3421
798.178	0.17
807.283	0.209
816.388	0.149
825.493	0.033
834.597	0.2778
843.702	0.509
852.807	0.099
861.911	0.031
871.016	0.5428
880.121	0.6729
889.225	0.644
898.33	0.4491
907.435	0.083
916.54	0.012
925.644	0.008
934.749	0.049
943.854	0.174
952.958	0.092
962.063	0.078
971.168	0.06
980.272	0.063
989.377	0.3709
998.482	0.46
1007.59	0.2753
1016.69	0.033
1025.8	0.008
1034.9	0.014
1044.01	0.026
1053.11	0.026
1062.21	0.042
1071.32	0.3069
1080.42	0.5
1089.53	0.476
1098.63	0.2979
1107.74	0.3601
1116.84	0.5408
1125.95	0.754
1135.05	0.747
1144.16	0.698
1153.26	0.5091
1162.37	0.182
1171.47	0.5019
1180.58	0.705
1189.68	0.724
1198.79	0.6421
1207.89	0.4281
1216.99	0.097
1226.1	0.039
1235.2	0.03
1244.31	0.2247
1253.41	0.5569
1262.52	0.635
1271.62	0.674
1280.73	0.657
1289.83	0.4953
1298.94	0.6669
1308.04	0.68
1317.15	0.614
1326.25	0.595
1335.36	0.2593
1344.46	0.0171
1353.57	0.1699
1362.67	0.568
1371.77	0.5609
1380.88	0.662
1389.98	0.4881
1399.09	0.7149
1408.19	0.809
1417.3	0.802
1426.4	0.799
1435.51	0.6941
1444.61	0.571
1453.72	0.664
1462.82	0.671
1471.93	0.5311
1481.03	0.452
1490.14	0.0301
1499.24	0.337
1508.34	0.424
1517.45	0.1043
1526.55	0.019
1535.66	0.104
1544.76	0.285
1553.87	0.369
1562.97	0.4769
1572.08	0.509
1581.18	0.387
1590.29	0.039
1599.39	0.4077
1608.5	0.4351
1617.6	0.5057
1626.71	0.817
1635.81	0.893
1644.92	0.916
1654.02	0.895
1663.12	0.87
1672.23	0.866
1681.33	0.88
1690.44	0.888
1699.54	0.896
1708.65	0.9
1717.75	0.904
1726.86	0.904
1735.96	0.902
1745.07	0.907
1754.17	0.907
1763.28	0.893
1772.38	0.884
1781.49	0.905
1790.59	0.904
1799.7	0.895
1808.8	0.879
1817.9	0.875
1827.01	0.882
1836.11	0.88
1845.22	0.877
1854.32	0.888
1863.43	0.9
1872.53	0.909
1881.64	0.918
1890.74	0.921
1899.85	0.911
1908.95	0.866
1918.06	0.896
1927.16	0.923
1936.27	0.93
1945.37	0.934
1954.48	0.932
1963.58	0.923
1972.68	0.921
1981.79	0.916
1990.89	0.912
2000	0.914
2009.1	0.918
2018.21	0.923
2027.31	0.928
2036.42	0.932
2045.52	0.936
2054.63	0.936
2063.73	0.932
2072.84	0.932
2081.94	0.928
2091.05	0.928
2100.15	0.9317
2109.25	0.93
2118.36	0.9301
2127.46	0.93
2136.57	0.9318
2145.67	0.934
2154.78	0.932
2163.88	0.9318
2172.99	0.9338
2182.09	0.932
2191.2	0.93
2200.3	0.9283
2209.41	0.928
2218.51	0.925
2227.62	0.927
2236.72	0.9283
2245.83	0.9202
2254.93	0.9112
2264.03	0.907
2273.14	0.904
2282.24	0.904
2291.35	0.9024
2300.45	0.905
2309.56	0.909
2318.66	0.909
2327.77	0.911
2336.87	0.912
2345.98	0.914
2355.08	0.918
2364.19	0.916
2373.29	0.9156
2382.4	0.9165
2391.5	0.918
2400.61	0.9208
2409.71	0.9215
2418.81	0.9185
2427.92	0.9113
2437.02	0.905
2446.13	0.888
2455.23	0.875
2464.34	0.9022
2473.44	0.9134
2482.55	0.9224
2491.65	0.925
2500.76	0.925
2509.86	0.925
2518.97	0.923
2528.07	0.925
2537.18	0.928
2546.28	0.928
2555.39	0.927
2564.49	0.927
2573.59	0.923
2582.7	0.927
2591.8	0.9203
2600.91	0.92
2610.01	0.9127
2619.12	0.9097
2628.22	0.909
2637.33	0.911
2646.43	0.916
2655.54	0.9222
2664.64	0.921
2673.75	0.92
2682.85	0.914
2691.96	0.911
2701.06	0.9116
2710.16	0.912
2719.27	0.9061
2728.37	0.9057
2737.48	0.905
2746.58	0.907
2755.69	0.9029
2764.79	0.898
2773.9	0.898
2783	0.9081
2792.11	0.909
2801.21	0.9029
2810.32	0.8909
2819.42	0.888
2828.53	0.885
2837.63	0.874
2846.74	0.858
2855.84	0.8241
2864.94	0.7765
2874.05	0.7958
2883.15	0.826
2892.26	0.8
2901.36	0.7089
2910.47	0.6333
2919.57	0.758
2928.68	0.7066
2937.78	0.639
2946.89	0.7228
2955.99	0.7265
2965.1	0.6408
2974.2	0.5714
2983.31	0.3432
2992.41	0.3628
3001.52	0.511
3010.62	0.7299
3019.72	0.8255
3028.83	0.8596
3037.93	0.88
3047.04	0.882
3056.14	0.886
3065.25	0.886
3074.35	0.8724
3083.46	0.809
3092.56	0.8321
3101.67	0.87
3110.77	0.8428
3119.88	0.8359
3128.98	0.873
3138.09	0.8847
3147.19	0.889
3156.3	0.889
3165.4	0.888
3174.5	0.88
3183.61	0.879
3192.71	0.879
3201.82	0.8764
3210.92	0.873
3220.03	0.872
3229.13	0.878
3238.24	0.8901
3247.34	0.9005
3256.45	0.9061
3265.55	0.9145
3274.66	0.925
3283.76	0.9285
3292.87	0.9415
3301.97	0.9465
3311.07	0.9522
3320.18	0.9554
3329.28	0.9592
3338.39	0.964
3347.49	0.9644
3356.6	0.9694
3365.7	0.973
3374.81	0.969
3383.91	0.9764
3393.02	0.982
3402.12	0.984
3411.23	0.982
3420.33	0.9797
3429.44	0.975
3438.54	0.973
3447.65	0.9707
3456.75	0.9686
3465.85	0.966
3474.96	0.964
3484.06	0.964
3493.17	0.962
3502.27	0.964
3511.38	0.964
3520.48	0.962
3529.59	0.9642
3538.69	0.966
3547.8	0.9662
3556.9	0.968
3566.01	0.971
3575.11	0.9678
3584.22	0.959
3593.32	0.9641
3602.43	0.9751
3611.53	0.978
3620.63	0.982
3629.74	0.984
3638.84	0.985
3647.95	0.987
3657.05	0.987
3666.16	0.987
3675.26	0.987
3684.37	0.989
3693.47	0.989
3702.58	0.991
3711.68	0.994
3720.79	0.996
3729.89	0.996
3739	0.994
3748.1	0.994
3757.21	0.996
3766.31	0.9999
3775.41	1
3784.52	1
3793.62	1
