Infrared Spectrum: Diethylstilbestrol
Formula: C18 H20 O2
CAS: 56-53-1
State: SOLID (MINERAL OIL MULL)
Melting point: 169-172 C
Class: COBLENTZ III
Instrument: PERKIN-ELMER 21 (GRATING)
Resolution: 2
Origin: THE SQUIBB INSTITUTE FOR MEDICAL RESEARCH
1/CM	TRANSMITTANCE
663	0.6935
672	0.7063
681	0.7284
690	0.7528
699	0.7647
708	0.7607
717	0.5999
726	0.6436
735	0.59
744	0.8119
753	0.8524
762	0.8679
771	0.8759
780	0.8722
789	0.8634
798	0.8209
807	0.5535
816	0.6591
825	0.2358
834	0.1995
843	0.6792
852	0.3903
861	0.8825
870	0.9275
879	0.9235
888	0.9205
897	0.9174
906	0.9109
915	0.8698
924	0.8897
933	0.8766
942	0.8837
951	0.8765
960	0.8442
969	0.8726
978	0.873
987	0.8736
996	0.8624
1005	0.837
1014	0.6716
1023	0.8491
1032	0.8453
1041	0.8332
1050	0.8129
1059	0.7803
1068	0.7811
1077	0.7225
1086	0.7669
1095	0.6908
1104	0.6995
1113	0.4858
1122	0.7231
1131	0.7036
1140	0.6507
1149	0.5824
1158	0.5506
1167	0.3348
1176	0.3359
1185	0.3498
1194	0.0907
1203	0.071
1212	0.1716
1221	0.4388
1230	0.4663
1239	0.3016
1248	0.1688
1257	0.6299
1266	0.7766
1275	0.6669
1284	0.5555
1293	0.7266
1302	0.7874
1311	0.7753
1320	0.6977
1329	0.5315
1338	0.3138
1347	0.552
1356	0.5227
1365	0.5087
1374	0.4865
1383	0.4978
1392	0.7728
1401	0.8147
1410	0.7985
1419	0.7062
1428	0.3485
1437	0.4779
1446	0.3858
1455	0.2313
1464	0.2198
1473	0.3044
1482	0.554
1491	0.6624
1500	0.4898
1509	0.1059
1518	0.2019
1527	0.6654
1536	0.8959
1545	0.9237
1554	0.9225
1563	0.9174
1572	0.899
1581	0.8456
1590	0.6308
1599	0.5839
1608	0.5341
1617	0.3482
1626	0.8378
1635	0.9079
1644	0.9007
1653	0.8904
1662	0.9166
1671	0.9302
1680	0.9376
1689	0.9405
1698	0.9412
1707	0.9403
1716	0.939
1725	0.9369
1734	0.9347
1743	0.932
1752	0.9282
1761	0.9246
1770	0.9296
1779	0.9394
1788	0.9404
1797	0.9415
1806	0.9412
1815	0.9441
1824	0.939
1833	0.9375
1842	0.9348
1851	0.9322
1860	0.926
1869	0.919
1878	0.9064
1887	0.8604
1896	0.8544
1905	0.9059
1914	0.9297
1923	0.9296
1932	0.9272
1941	0.9243
1950	0.9224
1959	0.9206
1968	0.9192
1977	0.9172
1986	0.9146
1995	0.9119
2004	0.9096
2013	0.9073
2022	0.9053
2031	0.9045
2040	0.9038
2049	0.9035
2058	0.903
2067	0.9027
2076	0.9015
2085	0.9002
2094	0.8987
2103	0.897
2112	0.8951
2121	0.8932
2130	0.8913
2139	0.8888
2148	0.8858
2157	0.8829
2166	0.8799
2175	0.877
2184	0.8741
2193	0.8712
2202	0.8683
2211	0.8656
2220	0.8627
2229	0.8597
2238	0.8562
2247	0.8527
2256	0.8489
2265	0.8429
2274	0.8371
2283	0.8313
2292	0.8243
2301	0.8172
2310	0.8102
2319	0.803
2328	0.7955
2337	0.7937
2346	0.7935
2355	0.7933
2364	0.7932
2373	0.7932
2382	0.7932
2391	0.7932
2400	0.7931
2409	0.7926
2418	0.7922
2427	0.7918
2436	0.7913
2445	0.7909
2454	0.7905
2463	0.7902
2472	0.7898
2481	0.7894
2490	0.7873
2499	0.7832
2508	0.7764
2517	0.7712
2526	0.7677
2535	0.7654
2544	0.7634
2553	0.7617
2562	0.7599
2571	0.758
2580	0.756
2589	0.7515
2598	0.7469
2607	0.7412
2616	0.7352
2625	0.7311
2634	0.7281
2643	0.7251
2652	0.7227
2661	0.7216
2670	0.7205
2679	0.7196
2688	0.7192
2697	0.7187
2706	0.7182
2715	0.7181
2724	0.7181
2733	0.7182
2742	0.7182
2751	0.718
2760	0.7178
2769	0.7172
2778	0.7109
2787	0.6992
2796	0.6849
2805	0.6642
2814	0.6435
2823	0.6183
2832	0.5186
2841	0.3616
2850	0.2056
2859	0.0887
2868	0.0772
2877	0.0765
2886	0.0771
2895	0.0782
2904	0.0794
2913	0.0811
2922	0.083
2931	0.085
2940	0.0872
2949	0.0895
2958	0.0929
2967	0.0966
2976	0.1007
2985	0.1061
2994	0.1472
3003	0.2362
3012	0.3247
3021	0.4126
3030	0.4842
3039	0.4998
3048	0.5068
3057	0.5095
3066	0.512
3075	0.5263
3084	0.5568
3093	0.5605
3102	0.5602
3111	0.5578
3120	0.5545
3129	0.5511
3138	0.5477
3147	0.5441
3156	0.5405
3165	0.5368
3174	0.533
3183	0.5292
3192	0.5252
3201	0.5207
3210	0.5163
3219	0.5113
3228	0.505
3237	0.4987
3246	0.4908
3255	0.4817
3264	0.4707
3273	0.4528
3282	0.4359
3291	0.4213
3300	0.4028
3309	0.3819
3318	0.3588
3327	0.3293
3336	0.2893
3345	0.2496
3354	0.2207
3363	0.2115
3372	0.2027
3381	0.1808
3390	0.1697
3399	0.166
3408	0.1657
3417	0.166
3426	0.1674
3435	0.17
3444	0.1756
3453	0.2023
3462	0.2356
3471	0.2688
3480	0.3017
3489	0.3346
3498	0.3673
3507	0.3897
3516	0.4012
3525	0.4359
3534	0.4479
3543	0.4597
3552	0.471
3561	0.479
3570	0.4968
3579	0.5239
3588	0.5618
3597	0.5789
3606	0.5826
3615	0.5841
3624	0.5837
3633	0.583
3642	0.5821
3651	0.5801
3660	0.5776
3669	0.5749
3678	0.5714
3687	0.5679
3696	0.5643
3705	0.5608
3714	0.5573
3723	0.5539
3732	0.5508
3741	0.5484
3750	0.5461
3759	0.5437
3768	0.5426
3777	0.5415
3786	0.5405
3795	0.5386
3804	0.5355
3813	0.5323
3822	0.5292
3831	0.526
3840	0.5228
3849	0.5209
3858	0.519
3867	0.5173
3876	0.5159
3885	0.5145
3894	0.5131
3903	0.5114
3912	0.5095
3921	0.5077
3930	0.5059
3939	0.504
3948	0.5022
3957	0.5004
3966	0.4985
3975	0.4966
3984	0.4947
3993	0.4928
