Infrared Spectrum: Benz[a]anthracene
Formula: C18 H12
CAS: 56-55-3
State: SOLUTION (1% CCl4 FOR 3800-1330, 1% CS2 FOR 1330-400 CM^-^1)
Melting point: 160 C
Class: COBLENTZ III
Instrument: DOW KBr FOREPRISM-GRATING
Instrument parameters: BLAZED AT 3.5, 12.0, 20.0 MICRON AND CHANGED AT 5.0, 7.5, 14.9 MICRON
Sampling: TRANSMISSION
Path length: 0.10 CM, 0.10 CM
Resolution: 2
Origin: DOW CHEMICAL COMPANY
1/CM	TRANSMITTANCE
388	0.0436
397	0.0406
406	0.0457
415	0.1407
424	0.307
433	0.4794
442	0.574
451	0.6869
460	0.7019
469	0.2584
478	0.8086
487	0.8841
496	0.9059
505	0.7905
514	0.9245
523	0.9056
532	0.8704
541	0.9072
550	0.9271
559	0.8832
568	0.9019
577	0.6327
586	0.923
595	0.9088
604	0.8935
613	0.8644
622	0.8215
631	0.7746
640	0.6805
649	0.3758
658	0.535
667	0.7028
676	0.5833
685	0.7837
694	0.8103
703	0.8063
712	0.7978
721	0.782
730	0.5137
739	0.0068
748	0.4494
757	0.7481
766	0.8014
775	0.3322
784	0.7523
793	0.4575
802	0.6053
811	0.787
820	0.7586
829	0.5482
838	0.2535
847	0.1354
856	0.1968
865	0.1581
874	0.068
883	0.6875
892	0.8043
901	0.8742
910	0.892
919	0.8884
928	0.6531
937	0.4352
946	0.8855
955	0.8889
964	0.9073
973	0.9283
982	0.9219
991	0.7771
1000	0.8991
1009	0.8965
1018	0.7839
1027	0.8958
1036	0.9212
1045	0.9324
1054	0.9324
1063	0.9331
1072	0.9184
1081	0.9227
1090	0.9305
1099	0.9229
1108	0.8068
1117	0.8479
1126	0.8424
1135	0.8737
1144	0.8815
1153	0.87
1162	0.909
1171	0.8846
1180	0.9073
1189	0.8525
1198	0.8505
1207	0.8593
1216	0.8899
1225	0.9194
1234	0.9179
1243	0.8945
1252	0.9024
1261	0.9018
1270	0.8294
1279	0.8884
1288	0.8744
1297	0.8636
1306	0.7976
1315	0.7361
1324	0.6525
1333	0.8505
1342	0.8221
1351	0.883
1360	0.897
1369	0.9059
1378	0.8866
1387	0.8919
1396	0.8303
1405	0.8617
1414	0.8375
1423	0.8405
1432	0.808
1441	0.5704
1450	0.7675
1459	0.5467
1468	0.5082
1477	0.3482
1486	0.0939
1495	0.0804
1504	0.0431
1513	0.0227
1522	0.0146
1531	0.0153
1540	0.019
1549	0.0258
1558	0.0339
1567	0.0513
1576	0.0814
1585	0.2049
1594	0.4468
1603	0.6429
1612	0.7485
1621	0.8228
1630	0.8567
1639	0.904
1648	0.9027
1657	0.8966
1666	0.8462
1675	0.8852
1684	0.9126
1693	0.9185
1702	0.8961
1711	0.9205
1720	0.9019
1729	0.8795
1738	0.8482
1747	0.8811
1756	0.8987
1765	0.8927
1774	0.8663
1783	0.8326
1792	0.871
1801	0.8511
1810	0.8307
1819	0.8562
1828	0.8652
1837	0.8826
1846	0.9013
1855	0.889
1864	0.8964
1873	0.8649
1882	0.8604
1891	0.8389
1900	0.9056
1909	0.8516
1918	0.8333
1927	0.9214
1936	0.9114
1945	0.9029
1954	0.8908
1963	0.8754
1972	0.8862
1981	0.8944
1990	0.9078
1999	0.829
2008	0.7916
2017	0.7989
2026	0.8095
2035	0.822
2044	0.8273
2053	0.8339
2062	0.8388
2071	0.8476
2080	0.8584
2089	0.8651
2098	0.8679
2107	0.8694
2116	0.8699
2125	0.8691
2134	0.8684
2143	0.8677
2152	0.867
2161	0.8669
2170	0.8671
2179	0.8672
2188	0.8664
2197	0.8655
2206	0.8638
2215	0.8617
2224	0.8571
2233	0.8487
2242	0.8286
2251	0.8026
2260	0.7751
2269	0.7401
2278	0.6958
2287	0.6675
2296	0.6645
2305	0.6776
2314	0.6912
2323	0.7024
2332	0.7116
2341	0.7196
2350	0.7516
2359	0.7705
2368	0.7887
2377	0.8056
2386	0.8257
2395	0.8465
2404	0.8578
2413	0.8634
2422	0.8665
2431	0.8676
2440	0.8686
2449	0.8689
2458	0.869
2467	0.8691
2476	0.8693
2485	0.8695
2494	0.8697
2503	0.8699
2512	0.8701
2521	0.87
2530	0.8698
2539	0.8695
2548	0.8693
2557	0.869
2566	0.869
2575	0.869
2584	0.869
2593	0.869
2602	0.8689
2611	0.8689
2620	0.8689
2629	0.8689
2638	0.8689
2647	0.8689
2656	0.8687
2665	0.8684
2674	0.8682
2683	0.8678
2692	0.8676
2701	0.8672
2710	0.8669
2719	0.8666
2728	0.867
2737	0.8681
2746	0.8691
2755	0.8702
2764	0.8711
2773	0.872
2782	0.8729
2791	0.8738
2800	0.8742
2809	0.8744
2818	0.8746
2827	0.8738
2836	0.872
2845	0.8684
2854	0.8649
2863	0.865
2872	0.8684
2881	0.8702
2890	0.8694
2899	0.8637
2908	0.8557
2917	0.8468
2926	0.8388
2935	0.8391
2944	0.8463
2953	0.8453
2962	0.8346
2971	0.822
2980	0.8108
2989	0.8091
2998	0.7991
3007	0.7216
3016	0.6976
3025	0.6718
3034	0.5263
3043	0.4684
3052	0.4795
3061	0.3426
3070	0.4165
3079	0.5447
3088	0.6707
3097	0.7818
3106	0.8139
3115	0.8102
3124	0.8424
3133	0.8631
3142	0.8687
3151	0.8749
3160	0.8796
3169	0.882
3178	0.8841
3187	0.8855
3196	0.8867
3205	0.8881
3214	0.8893
3223	0.8904
3232	0.8914
3241	0.892
3250	0.8922
3259	0.8925
3268	0.8927
3277	0.8929
3286	0.8929
3295	0.8928
3304	0.8928
3313	0.8928
3322	0.8926
3331	0.8925
3340	0.8923
3349	0.8921
3358	0.892
3367	0.892
3376	0.892
3385	0.892
3394	0.892
3403	0.8919
3412	0.8918
3421	0.8917
3430	0.8916
3439	0.8915
3448	0.8913
3457	0.8911
3466	0.8909
3475	0.8906
3484	0.8904
3493	0.8903
3502	0.8902
3511	0.89
3520	0.8899
3529	0.8896
3538	0.8892
3547	0.8888
3556	0.8884
3565	0.8877
3574	0.8869
3583	0.886
3592	0.8836
3601	0.8807
3610	0.8781
3619	0.8759
3628	0.8756
3637	0.8758
3646	0.8769
3655	0.878
3664	0.8792
3673	0.8792
3682	0.8767
3691	0.8735
3700	0.87
3709	0.8671
3718	0.8663
3727	0.8728
3736	0.8741
3745	0.8729
3754	0.8733
3763	0.8751
3772	0.8796
3781	0.8805
3790	0.8799
3799	0.8774
3808	0.8752
