Infrared Spectrum: BUTYRIC ACID, 2-BROMO-3-METHYL-
Formula: C5 H9 Br O2
CAS: 565-74-2
State: SOLUTION (10% CCl4 FOR 2.0-7.5, 10% CS2 FOR 7.5-16 MICRON)
Class: COBLENTZ III
Instrument: BAIRD (GRATING)
Instrument parameters: NaCl PRISM
Sampling: TRANSMISSION
Path length: 0.0104 CM, 0.0104 CM
Resolution: 2
Origin: DOW CHEMICAL COMPANY
1/CM	TRANSMITTANCE
4000	0.9503
3991	0.9494
3982	0.9518
3973	0.9512
3964	0.9514
3955	0.9517
3946	0.952
3937	0.9523
3928	0.9524
3919	0.9516
3910	0.9531
3901	0.9547
3892	0.9537
3883	0.9541
3874	0.9553
3865	0.956
3856	0.9563
3847	0.9566
3838	0.9569
3829	0.9572
3820	0.9575
3811	0.9572
3802	0.9558
3793	0.9561
3784	0.9546
3775	0.9537
3766	0.9545
3757	0.9547
3748	0.9551
3739	0.9559
3730	0.9572
3721	0.9577
3712	0.9565
3703	0.9541
3694	0.9504
3685	0.9482
3676	0.9471
3667	0.9458
3658	0.9443
3649	0.9426
3640	0.9406
3631	0.9395
3622	0.9362
3613	0.9305
3604	0.9246
3595	0.9181
3586	0.9122
3577	0.9062
3568	0.8986
3559	0.8916
3550	0.8866
3541	0.8812
3532	0.8764
3523	0.8706
3514	0.867
3505	0.8651
3496	0.8629
3487	0.8602
3478	0.8549
3469	0.8431
3460	0.8279
3451	0.8155
3442	0.8074
3433	0.7993
3424	0.791
3415	0.7831
3406	0.7742
3397	0.7638
3388	0.7511
3379	0.7363
3370	0.7237
3361	0.7101
3352	0.6993
3343	0.6904
3334	0.6811
3325	0.6688
3316	0.6562
3307	0.6445
3298	0.6324
3289	0.622
3280	0.6124
3271	0.6027
3262	0.5875
3253	0.5611
3244	0.5428
3235	0.5252
3226	0.5064
3217	0.489
3208	0.4701
3199	0.4543
3190	0.4396
3181	0.4152
3172	0.3978
3163	0.3856
3154	0.3716
3145	0.3591
3136	0.343
3127	0.3157
3118	0.3066
3109	0.3028
3100	0.301
3091	0.2986
3082	0.2941
3073	0.2917
3064	0.2861
3055	0.2811
3046	0.2762
3037	0.2725
3028	0.2652
3019	0.2586
3010	0.2512
3001	0.2427
2992	0.2336
2983	0.2195
2974	0.1877
2965	0.1653
2956	0.1548
2947	0.155
2938	0.1628
2929	0.1917
2920	0.1967
2911	0.2006
2902	0.2056
2893	0.2156
2884	0.2204
2875	0.2279
2866	0.2589
2857	0.2912
2848	0.3168
2839	0.3421
2830	0.3609
2821	0.3839
2812	0.4101
2803	0.4323
2794	0.4465
2785	0.4606
2776	0.4745
2767	0.4875
2758	0.4965
2749	0.5017
2740	0.5063
2731	0.5091
2722	0.5079
2713	0.5001
2704	0.4926
2695	0.4877
2686	0.4848
2677	0.4851
2668	0.4899
2659	0.497
2650	0.5054
2641	0.5133
2632	0.5223
2623	0.5315
2614	0.5387
2605	0.5441
2596	0.5443
2587	0.5446
2578	0.545
2569	0.5478
2560	0.5537
2551	0.5643
2542	0.5769
2533	0.5856
2524	0.5947
2515	0.6085
2506	0.6243
2497	0.6434
2488	0.6676
2479	0.6912
2470	0.7091
2461	0.7267
2452	0.7465
2443	0.7698
2434	0.7856
2425	0.7976
2416	0.8088
2407	0.8194
2398	0.8288
2389	0.8379
2380	0.8465
2371	0.8543
2362	0.8557
2353	0.8617
2344	0.8638
2335	0.8643
2326	0.87
2317	0.8738
2308	0.877
2299	0.8804
2290	0.8843
2281	0.8858
2272	0.8867
2263	0.8872
2254	0.8872
2245	0.8892
2236	0.8914
2227	0.8929
2218	0.8945
2209	0.8974
2200	0.9003
2191	0.901
2182	0.9029
2173	0.9052
2164	0.9046
2155	0.905
2146	0.9061
2137	0.9073
2128	0.9086
2119	0.91
2110	0.9114
2101	0.9128
2092	0.9141
2083	0.9148
2074	0.9153
2065	0.916
2056	0.9175
2047	0.916
2038	0.9159
2029	0.9157
2020	0.9163
2011	0.9153
2002	0.9139
1993	0.9085
1984	0.904
1975	0.9001
1966	0.899
1957	0.8991
1948	0.8975
1939	0.8983
1930	0.8982
1921	0.8951
1912	0.8911
1903	0.8877
1894	0.8824
1885	0.8753
1876	0.8709
1867	0.8683
1858	0.8662
1849	0.8622
1840	0.8569
1831	0.8503
1822	0.8442
1813	0.8362
1804	0.8213
1795	0.807
1786	0.7845
1777	0.7386
1768	0.6859
1759	0.6045
1750	0.5214
1741	0.4456
1732	0.2464
1723	0.0553
1714	0.0328
1705	0.0687
1696	0.2723
1687	0.5551
1678	0.6216
1669	0.6665
1660	0.688
1651	0.7126
1642	0.7703
1633	0.8088
1624	0.8289
1615	0.8427
1606	0.8485
1597	0.809
1588	0.816
1579	0.8134
1570	0.7749
1561	0.7392
1552	0.8031
1543	0.8916
1534	0.8837
1525	0.878
1516	0.9033
1507	0.9134
1498	0.8881
1489	0.8482
1480	0.6908
1471	0.5014
1462	0.5579
1453	0.6291
1444	0.5862
1435	0.4292
1426	0.2732
1417	0.3652
1408	0.5087
1399	0.5806
1390	0.6073
1381	0.6911
1372	0.6665
1363	0.8164
1354	0.8004
1345	0.7845
1336	0.729
1327	0.6246
1318	0.5088
1309	0.3789
1300	0.2433
1291	0.1953
1282	0.2457
1273	0.4301
1264	0.5498
1255	0.5518
1246	0.6229
1237	0.5109
1228	0.384
1219	0.5435
1210	0.6513
1201	0.588
1192	0.4945
1183	0.3548
1174	0.3661
1165	0.4825
1156	0.6656
1147	0.758
1138	0.7729
1129	0.7592
1120	0.6638
1111	0.7091
1102	0.7234
1093	0.8052
1084	0.839
1075	0.8603
1066	0.8533
1057	0.8853
1048	0.8861
1039	0.8795
1030	0.8739
1021	0.8666
1012	0.8557
1003	0.8322
994	0.779
985	0.7587
976	0.6812
967	0.6433
958	0.5896
949	0.5842
940	0.5001
931	0.3895
922	0.4086
913	0.4427
904	0.477
895	0.5498
886	0.6126
877	0.6443
868	0.6644
859	0.6741
850	0.641
841	0.6618
832	0.7345
823	0.7811
814	0.8109
805	0.8374
796	0.8479
787	0.8251
778	0.7459
769	0.7607
760	0.7707
751	0.791
742	0.8005
733	0.7992
724	0.7872
715	0.7501
706	0.6827
697	0.5856
688	0.4491
679	0.5029
670	0.5302
661	0.5347
652	0.5234
643	0.4965
634	0.4805
