Infrared Spectrum: PENTANE, 2,3-DIMETHYL-
Formula: C7 H16
CAS: 565-59-3
State: GAS (17 mmHg, N2 ADDED, TOTAL PRESSURE 600 mmHg)
Class: COBLENTZ
Instrument: BECKMAN IR-9 (GRATING)
Instrument parameters: ORDER CHANGES: 670, 1200, 2000 CM^-^1
Sampling: TRANSMISSION
Path length: 10 CM
Resolution: 2
Origin: DOW CHEMICAL COMPANY
1/CM	TRANSMITTANCE
200.705	0.001
210.576	0
220.447	0
230.317	0
240.188	0
250.059	0.001
259.93	0.007
269.8	0.009
279.671	0.011
289.542	0.015
299.413	0.003
309.283	0.013
319.154	0.026
329.025	0.041
338.896	0.061
348.767	0.101
358.637	0.168
368.508	0.2399
378.379	0.311
388.25	0.377
398.12	0.44
407.991	0.502
417.862	0.577
427.733	0.639
437.603	0.69
447.474	0.737
457.345	0.765
467.216	0.789
477.087	0.818
486.957	0.834
496.828	0.848
506.699	0.8481
516.57	0.864
526.44	0.885
536.311	0.878
546.182	0.861
556.053	0.864
565.923	0.874
575.794	0.876
585.665	0.876
595.536	0.881
605.407	0.878
615.277	0.87
625.148	0.866
635.019	0.872
644.89	0.883
654.76	0.879
664.631	0.906
674.502	0.915
684.373	0.923
694.243	0.926
704.114	0.93
713.985	0.921
723.856	0.926
733.727	0.926
743.597	0.923
753.468	0.913
763.339	0.917
773.21	0.923
783.08	0.913
792.951	0.904
802.822	0.911
812.693	0.921
822.563	0.932
832.434	0.938
842.305	0.936
852.176	0.932
862.047	0.924
871.917	0.908
881.788	0.866
891.659	0.846
901.53	0.8789
911.4	0.913
921.271	0.9
931.142	0.904
941.013	0.924
950.883	0.923
960.754	0.9
970.625	0.868
980.496	0.874
990.367	0.879
1000.24	0.855
1010.11	0.844
1019.98	0.836
1029.85	0.84
1039.72	0.87
1049.59	0.9
1059.46	0.879
1069.33	0.887
1079.2	0.883
1089.07	0.883
1098.94	0.904
1108.82	0.891
1118.69	0.816
1128.56	0.6921
1138.43	0.656
1148.3	0.707
1158.17	0.7869
1168.04	0.853
1177.91	0.872
1187.78	0.8511
1197.65	0.9
1207.52	0.908
1217.39	0.917
1227.26	0.915
1237.14	0.909
1247.01	0.879
1256.88	0.855
1266.75	0.853
1276.62	0.878
1286.49	0.883
1296.36	0.878
1306.23	0.866
1316.1	0.857
1325.97	0.868
1335.84	0.878
1345.71	0.876
1355.58	0.84
1365.46	0.731
1375.33	0.523
1385.2	0.3971
1395.07	0.4699
1404.94	0.756
1414.81	0.866
1424.68	0.874
1434.55	0.848
1444.42	0.763
1454.29	0.5921
1464.16	0.418
1474.03	0.393
1483.9	0.5641
1493.78	0.7859
1503.65	0.876
1513.52	0.896
1523.39	0.893
1533.26	0.9
1543.13	0.893
1553	0.911
1562.87	0.9
1572.74	0.917
1582.61	0.911
1592.48	0.921
1602.35	0.921
1612.22	0.917
1622.1	0.909
1631.97	0.917
1641.84	0.913
1651.71	0.906
1661.58	0.911
1671.45	0.908
1681.32	0.909
1691.19	0.908
1701.06	0.9
1710.93	0.908
1720.8	0.896
1730.67	0.887
1740.54	0.863
1750.42	0.879
1760.29	0.902
1770.16	0.915
1780.03	0.911
1789.9	0.917
1799.77	0.917
1809.64	0.915
1819.51	0.924
1829.38	0.921
1839.25	0.928
1849.12	0.923
1858.99	0.93
1868.86	0.924
1878.74	0.926
1888.61	0.923
1898.48	0.926
1908.35	0.926
1918.22	0.926
1928.09	0.93
1937.96	0.932
1947.83	0.93
1957.7	0.928
1967.57	0.924
1977.44	0.921
1987.31	0.919
1997.18	0.913
2007.06	0.9221
2016.93	0.9262
2026.8	0.932
2036.67	0.9317
2046.54	0.93
2056.41	0.928
2066.28	0.928
2076.15	0.9254
2086.02	0.924
2095.89	0.924
2105.76	0.924
2115.63	0.924
2125.5	0.924
2135.38	0.924
2145.25	0.924
2155.12	0.924
2164.99	0.924
2174.86	0.9254
2184.73	0.9284
2194.6	0.93
2204.47	0.9294
2214.34	0.926
2224.21	0.9252
2234.08	0.924
2243.95	0.924
2253.82	0.924
2263.7	0.9235
2273.57	0.921
2283.44	0.9236
2293.31	0.9263
2303.18	0.9354
2313.05	0.9439
2322.92	0.953
2332.79	0.951
2342.66	0.9456
2352.53	0.9423
2362.4	0.9381
2372.27	0.9282
2382.14	0.917
2392.02	0.9139
2401.89	0.913
2411.76	0.913
2421.63	0.9153
2431.5	0.9184
2441.37	0.921
2451.24	0.921
2461.11	0.921
2470.98	0.921
2480.85	0.921
2490.72	0.9192
2500.59	0.919
2510.46	0.921
2520.34	0.923
2530.21	0.923
2540.08	0.923
2549.95	0.9187
2559.82	0.9116
2569.69	0.9088
2579.56	0.9045
2589.43	0.8988
2599.3	0.8859
2609.17	0.878
2619.04	0.8789
2628.91	0.883
2638.78	0.887
2648.66	0.8921
2658.53	0.8939
2668.4	0.8898
2678.27	0.8807
2688.14	0.8754
2698.01	0.8795
2707.88	0.8795
2717.75	0.8688
2727.62	0.8536
2737.49	0.842
2747.36	0.8477
2757.23	0.8569
2767.1	0.864
2776.98	0.866
2786.85	0.863
2796.72	0.8553
2806.59	0.8298
2816.46	0.8118
2826.33	0.7846
2836.2	0.7585
2846.07	0.684
2855.94	0.5021
2865.81	0.2613
2875.68	0.0979
2885.55	0.0549
2895.42	0.1053
2905.3	0.1928
2915.17	0.1645
2925.04	0.1039
2934.91	0.0577
2944.78	0.063
2954.65	0.023
2964.52	0.0015
2974.39	0.0016
2984.26	0.0184
2994.13	0.3395
3004	0.6157
3013.87	0.8035
3023.74	0.814
3033.62	0.8336
3043.49	0.8444
3053.36	0.8555
3063.23	0.8707
3073.1	0.8787
3082.97	0.8859
3092.84	0.891
3102.71	0.893
3112.58	0.8893
3122.45	0.885
3132.32	0.883
3142.19	0.8785
3152.06	0.87
3161.94	0.8588
3171.81	0.855
3181.68	0.8595
3191.55	0.8686
3201.42	0.8818
3211.29	0.8942
3221.16	0.9016
3231.03	0.906
3240.9	0.908
3250.77	0.909
3260.64	0.913
3270.51	0.913
3280.38	0.913
3290.26	0.913
3300.13	0.913
3310	0.913
3319.87	0.913
3329.74	0.913
3339.61	0.913
3349.48	0.913
3359.35	0.913
3369.22	0.9113
3379.09	0.909
3388.96	0.908
3398.83	0.91
3408.7	0.913
3418.58	0.9119
3428.45	0.909
3438.32	0.911
3448.19	0.913
3458.06	0.9144
3467.93	0.917
3477.8	0.917
3487.67	0.915
3497.54	0.9113
3507.41	0.911
3517.28	0.9129
3527.15	0.915
3537.02	0.921
3546.9	0.9179
3556.77	0.9148
3566.64	0.9143
3576.51	0.917
3586.38	0.919
3596.25	0.9205
3606.12	0.9154
3615.99	0.9163
3625.86	0.921
3635.73	0.9162
3645.6	0.915
3655.47	0.919
3665.34	0.915
3675.22	0.911
3685.09	0.9152
3694.96	0.919
3704.83	0.9166
3714.7	0.917
3724.57	0.9165
3734.44	0.9114
3744.31	0.908
3754.18	0.9107
3764.05	0.9138
3773.92	0.915
3783.79	0.914
3793.66	0.911
3803.54	0.911
3813.41	0.909
3823.28	0.909
3833.15	0.9057
3843.02	0.904
3852.89	0.908
3862.76	0.908
3872.63	0.9073
3882.5	0.906
3892.37	0.904
3902.24	0.9021
3912.11	0.902
3921.98	0.904
3931.86	0.908
3941.73	0.9092
3951.6	0.911
3961.47	0.911
3971.34	0.911
3981.21	0.9082
