Infrared Spectrum: 3-PENTANOL, 2-METHYL-
Formula: C6 H14 O
CAS: 565-67-3
State: SOLUTION (10% CCl4 FOR 3800-1335, 10% CS2 FOR 1335-460 CM^-^1) VS SOLVENT
Class: COBLENTZ II
Instrument: DOW KBr FOREPRISM-GRATING
Instrument parameters: BLAZED AT 3.5, 12.0, 20.0 MICRON AND CHANGED AT 5.0, 7.5, 14.9 MICRON
Sampling: TRANSMISSION
Path length: 0.012 CM, 0.011 CM
Resolution: 2
Origin: DOW CHEMICAL COMPANY
1/CM	TRANSMITTANCE
460	0.8944
469	0.8739
478	0.8513
487	0.8314
496	0.856
505	0.845
514	0.8521
523	0.822
532	0.8445
541	0.86
550	0.8648
559	0.8633
568	0.8541
577	0.8524
586	0.8608
595	0.8564
604	0.8394
613	0.8277
622	0.8632
631	0.8816
640	0.897
649	0.9111
658	0.9303
667	0.9528
676	0.9467
685	0.9639
694	0.9842
703	1.008
712	1.0267
721	1.0349
730	1.0457
739	1.0586
748	1.0675
757	1.0636
766	1.0408
775	1.0489
784	1.0692
793	1.0599
802	0.9851
811	1.0025
820	1.0253
829	0.9384
838	1.0361
847	1.0831
856	1.0733
865	1.0431
874	0.9238
883	0.7562
892	1.0065
901	1.0341
910	1.0148
919	0.9106
928	0.8898
937	0.7704
946	0.274
955	0.1958
964	0.3355
973	0.0504
982	0.1783
991	0.4989
1000	0.7371
1009	0.9064
1018	0.9118
1027	0.6999
1036	0.7118
1045	0.6384
1054	0.7271
1063	0.5857
1072	0.5118
1081	0.6276
1090	0.5565
1099	0.4786
1108	0.6062
1117	0.724
1126	0.718
1135	0.7094
1144	0.6122
1153	0.618
1162	0.8353
1171	0.8138
1180	0.7856
1189	0.9231
1198	0.9391
1207	0.898
1216	0.7989
1225	0.6833
1234	0.6298
1243	0.6343
1252	0.6645
1261	0.684
1270	0.7256
1279	0.7549
1288	0.7382
1297	0.6905
1306	0.6893
1315	0.7101
1324	0.7168
1333	0.7108
1342	0.7199
1351	0.7276
1360	0.6747
1369	0.3436
1378	0.399
1387	0.3029
1396	0.5449
1405	0.6271
1414	0.6868
1423	0.7321
1432	0.7289
1441	0.6116
1450	0.4522
1459	0.1926
1468	0.1265
1477	0.4408
1486	0.74
1495	0.8593
1504	0.9286
1513	0.9595
1522	0.9832
1531	1.0055
1540	1.0247
1549	1.0386
1558	1.0365
1567	1.032
1576	1.0246
1585	1.0177
1594	1.0114
1603	1.0031
1612	0.9965
1621	0.991
1630	0.9854
1639	0.9874
1648	0.9957
1657	0.9982
1666	0.9974
1675	1.0003
1684	1.0038
1693	1.0065
1702	1.0084
1711	1.0093
1720	1.0083
1729	1.0101
1738	1.0121
1747	1.0142
1756	1.0182
1765	1.0237
1774	1.0259
1783	1.0273
1792	1.0284
1801	1.0292
1810	1.0298
1819	1.0301
1828	1.0302
1837	1.0302
1846	1.0294
1855	1.0286
1864	1.0278
1873	1.0268
1882	1.0259
1891	1.0242
1900	1.0218
1909	1.0198
1918	1.0178
1927	1.0178
1936	1.0206
1945	1.0186
1954	1.0199
1963	1.0285
1972	1.0237
1981	1.026
1990	1.0278
1999	1.0511
2008	1.0907
2017	1.0906
2026	1.0898
2035	1.089
2044	1.089
2053	1.0884
2062	1.088
2071	1.0875
2080	1.087
2089	1.0862
2098	1.0853
2107	1.0844
2116	1.0834
2125	1.0824
2134	1.0814
2143	1.0803
2152	1.0793
2161	1.0778
2170	1.0762
2179	1.0746
2188	1.0728
2197	1.0709
2206	1.0688
2215	1.0667
2224	1.0644
2233	1.0618
2242	1.0592
2251	1.0563
2260	1.0535
2269	1.0516
2278	1.0492
2287	1.0468
2296	1.0471
2305	1.048
2314	1.0484
2323	1.0489
2332	1.05
2341	1.0507
2350	1.0509
2359	1.0497
2368	1.0449
2377	1.0386
2386	1.0335
2395	1.0332
2404	1.0337
2413	1.032
2422	1.031
2431	1.0325
2440	1.0371
2449	1.0371
2458	1.0359
2467	1.0333
2476	1.0306
2485	1.028
2494	1.0259
2503	1.025
2512	1.0238
2521	1.0225
2530	1.0211
2539	1.0183
2548	1.0153
2557	1.0108
2566	1.0047
2575	0.9958
2584	0.9847
2593	0.9737
2602	0.966
2611	0.9625
2620	0.9636
2629	0.967
2638	0.9652
2647	0.9621
2656	0.9677
2665	0.968
2674	0.9616
2683	0.9537
2692	0.9456
2701	0.936
2710	0.9244
2719	0.9078
2728	0.8961
2737	0.9011
2746	0.9081
2755	0.9117
2764	0.9052
2773	0.8945
2782	0.882
2791	0.8663
2800	0.8416
2809	0.8048
2818	0.7697
2827	0.7265
2836	0.6229
2845	0.4602
2854	0.2987
2863	0.2488
2872	0.0713
2881	0.0522
2890	0.1183
2899	0.137
2908	0.1472
2917	0.12
2926	0.075
2935	0.0371
2944	0.0516
2953	0.0338
2962	0.0016
2971	0.0034
2980	0.0288
2989	0.1967
2998	0.466
3007	0.6633
3016	0.8271
3025	0.8754
3034	0.904
3043	0.92
3052	0.9291
3061	0.937
3070	0.9446
3079	0.9484
3088	0.9506
3097	0.9507
3106	0.9498
3115	0.9468
3124	0.9399
3133	0.9299
3142	0.9171
3151	0.9041
3160	0.8923
3169	0.8803
3178	0.868
3187	0.8558
3196	0.8438
3205	0.8287
3214	0.8131
3223	0.7969
3232	0.7796
3241	0.7568
3250	0.729
3259	0.6976
3268	0.6589
3277	0.6175
3286	0.5782
3295	0.5367
3304	0.5
3313	0.4714
3322	0.4386
3331	0.4027
3340	0.3727
3349	0.3494
3358	0.3322
3367	0.3179
3376	0.305
3385	0.301
3394	0.3027
3403	0.3064
3412	0.3109
3421	0.3161
3430	0.3218
3439	0.3287
3448	0.3366
3457	0.348
3466	0.3614
3475	0.3752
3484	0.3894
3493	0.407
3502	0.4303
3511	0.456
3520	0.4936
3529	0.5456
3538	0.6274
3547	0.6928
3556	0.7345
3565	0.7976
3574	0.8378
3583	0.8504
3592	0.8478
3601	0.786
3610	0.7028
3619	0.6718
3628	0.5994
3637	0.6088
3646	0.8214
3655	0.9116
3664	0.9362
3673	0.9314
3682	0.9406
3691	0.9705
3700	0.9808
3709	0.9875
3718	0.9924
3727	0.9949
3736	0.996
3745	0.9957
3754	0.9946
3763	0.9936
3772	0.9933
3781	0.993
3790	0.9913
3799	0.9892
