Infrared Spectrum: o-VERATRYL ALCOHOL
Formula: C9 H12 O3
CAS: 5653-67-8
State: SOLID (SPLIT MULL), FLUOROLUBE FOR 3800-1330 CM^-^1, NUJOL FOR 1330-400 CM^-^1
Melting point: 50 C
Boiling point: 140 C AT 10 mmHg
Class: COBLENTZ III
Instrument: BECKMAN IR-9 (GRATING)
Instrument parameters: ORDER CHANGES: 670, 1200, 2000 CM^-^1
Sampling: TRANSMISSION
Resolution: 2
Origin: DOW CHEMICAL COMPANY
1/CM	TRANSMITTANCE
402	0.5345
411	0.5395
420	0.5907
429	0.6486
438	0.719
447	0.7674
456	0.7911
465	0.8107
474	0.8256
483	0.834
492	0.7894
501	0.8421
510	0.8181
519	0.886
528	0.857
537	0.8703
546	0.8523
555	0.8877
564	0.8875
573	0.8641
582	0.8323
591	0.852
600	0.8385
609	0.8039
618	0.756
627	0.6571
636	0.6168
645	0.6753
654	0.6647
663	0.6886
672	0.7285
681	0.7514
690	0.7569
699	0.7218
708	0.6806
717	0.5957
726	0.5762
735	0.599
744	0.5607
753	0.3307
762	0.2697
771	0.6134
780	0.3488
789	0.4856
798	0.3009
807	0.46
816	0.756
825	0.8384
834	0.863
843	0.8718
852	0.8705
861	0.8663
870	0.8577
879	0.7495
888	0.7661
897	0.4494
906	0.71
915	0.8091
924	0.809
933	0.8025
942	0.7874
951	0.7634
960	0.7122
969	0.6368
978	0.5721
987	0.3816
996	0.3909
1005	0.023
1014	0.0593
1023	0.2242
1032	0.0489
1041	0.4947
1050	0.7793
1059	0.7792
1068	0.6247
1077	0.3218
1086	0.2044
1095	0.582
1104	0.8169
1113	0.8209
1122	0.8121
1131	0.795
1140	0.7689
1149	0.7143
1158	0.6308
1167	0.4686
1176	0.2992
1185	0.5479
1194	0.6328
1203	0.6062
1212	0.4801
1221	0.2676
1230	0.2622
1239	0.3044
1248	0.3957
1257	0.3242
1266	0.1219
1275	0.0675
1284	0.1331
1293	0.3549
1302	0.2722
1311	0.4109
1320	0.5559
1329	0.6946
1338	0.5593
1347	0.5035
1356	0.3791
1365	0.5091
1374	0.6155
1383	0.6329
1392	0.6084
1401	0.5766
1410	0.577
1419	0.5744
1428	0.2498
1437	0.322
1446	0.4248
1455	0.352
1464	0.1908
1473	0.1623
1482	0.0659
1491	0.2763
1500	0.8275
1509	0.856
1518	0.863
1527	0.874
1536	0.8877
1545	0.8841
1554	0.8739
1563	0.8538
1572	0.8206
1581	0.685
1590	0.3318
1599	0.6837
1608	0.8303
1617	0.8725
1626	0.8866
1635	0.8871
1644	0.8877
1653	0.8839
1662	0.8724
1671	0.8695
1680	0.8706
1689	0.8664
1698	0.8535
1707	0.857
1716	0.8597
1725	0.8594
1734	0.8585
1743	0.8563
1752	0.8454
1761	0.8421
1770	0.8447
1779	0.8366
1788	0.8296
1797	0.8281
1806	0.8302
1815	0.8264
1824	0.824
1833	0.8071
1842	0.8022
1851	0.8259
1860	0.8244
1869	0.8223
1878	0.8215
1887	0.8202
1896	0.8174
1905	0.8126
1914	0.8039
1923	0.7828
1932	0.8035
1941	0.8061
1950	0.801
1959	0.7911
1968	0.7769
1977	0.765
1986	0.7736
1995	0.7687
2004	0.7651
2013	0.7776
2022	0.7855
2031	0.786
2040	0.7841
2049	0.7798
2058	0.7765
2067	0.778
2076	0.7746
2085	0.7681
2094	0.7633
2103	0.7582
2112	0.7525
2121	0.7469
2130	0.7415
2139	0.7362
2148	0.731
2157	0.7257
2166	0.7215
2175	0.7178
2184	0.7168
2193	0.7156
2202	0.7144
2211	0.7118
2220	0.7094
2229	0.7051
2238	0.6996
2247	0.6932
2256	0.6858
2265	0.6785
2274	0.6725
2283	0.6671
2292	0.6618
2301	0.6576
2310	0.6571
2319	0.6578
2328	0.6595
2337	0.6608
2346	0.6601
2355	0.6591
2364	0.6643
2373	0.6691
2382	0.6642
2391	0.6483
2400	0.6298
2409	0.631
2418	0.6312
2427	0.6301
2436	0.6234
2445	0.6175
2454	0.6156
2463	0.6175
2472	0.6194
2481	0.6176
2490	0.615
2499	0.6122
2508	0.6089
2517	0.6056
2526	0.6021
2535	0.5981
2544	0.5941
2553	0.5899
2562	0.5847
2571	0.5797
2580	0.5772
2589	0.5746
2598	0.5712
2607	0.5677
2616	0.564
2625	0.5575
2634	0.551
2643	0.5487
2652	0.5472
2661	0.5454
2670	0.5432
2679	0.5407
2688	0.5362
2697	0.5316
2706	0.5276
2715	0.524
2724	0.5188
2733	0.513
2742	0.5073
2751	0.5002
2760	0.493
2769	0.4858
2778	0.4762
2787	0.4665
2796	0.4566
2805	0.4439
2814	0.4258
2823	0.3616
2832	0.2748
2841	0.3582
2850	0.4223
2859	0.4284
2868	0.4168
2877	0.3905
2886	0.3704
2895	0.3586
2904	0.35
2913	0.3442
2922	0.3322
2931	0.2873
2940	0.2818
2949	0.3129
2958	0.3429
2967	0.318
2976	0.2972
2985	0.3591
2994	0.352
3003	0.4231
3012	0.4207
3021	0.3532
3030	0.3503
3039	0.4247
3048	0.4118
3057	0.4026
3066	0.3959
3075	0.3792
3084	0.3716
3093	0.3707
3102	0.3623
3111	0.3538
3120	0.3447
3129	0.3364
3138	0.3262
3147	0.3138
3156	0.3003
3165	0.2835
3174	0.2644
3183	0.2458
3192	0.2295
3201	0.2114
3210	0.1923
3219	0.1782
3228	0.1692
3237	0.1698
3246	0.174
3255	0.1811
3264	0.1946
3273	0.215
3282	0.2234
3291	0.2251
3300	0.224
3309	0.2167
3318	0.2046
3327	0.1932
3336	0.1943
3345	0.201
3354	0.2624
3363	0.325
3372	0.3632
3381	0.3898
3390	0.4117
3399	0.4274
3408	0.4399
3417	0.45
3426	0.4583
3435	0.4653
3444	0.4722
3453	0.4775
3462	0.4819
3471	0.4862
3480	0.491
3489	0.4944
3498	0.4954
3507	0.4956
3516	0.4949
3525	0.4939
3534	0.4928
3543	0.491
3552	0.4884
3561	0.4857
3570	0.4825
3579	0.4792
3588	0.4769
3597	0.4746
3606	0.4724
3615	0.4696
3624	0.4668
3633	0.4636
3642	0.4602
3651	0.457
3660	0.454
3669	0.4509
3678	0.4478
3687	0.445
3696	0.4424
3705	0.4397
3714	0.4371
3723	0.4345
3732	0.4319
3741	0.4292
3750	0.4266
3759	0.4242
3768	0.4218
3777	0.4195
3786	0.4181
3795	0.4166
