Infrared Spectrum: Stearic acid
Formula: C18 H36 O2
CAS: 57-11-4
State: SOLID (SPLIT MULL)
Class: COBLENTZ III
Instrument: DOW KBr FOREPRISM-GRATING
Instrument parameters: BLAZED AT 3.5, 12.0, 20.0 MICRON AND CHANGED AT 5.0, 7.5, 14.9 MICRON
Sampling: TRANSMISSION
Resolution: 2
Origin: DOW CHEMICAL COMPANY
1/CM	TRANSMITTANCE
3814	0.8664
3805	0.8665
3796	0.8667
3787	0.8663
3778	0.866
3769	0.8671
3760	0.8689
3751	0.8705
3742	0.8712
3733	0.8708
3724	0.8705
3715	0.87
3706	0.8695
3697	0.869
3688	0.8687
3679	0.8689
3670	0.8692
3661	0.8695
3652	0.8698
3643	0.8699
3634	0.8696
3625	0.8691
3616	0.8687
3607	0.8682
3598	0.8678
3589	0.8674
3580	0.8675
3571	0.8678
3562	0.8682
3553	0.8686
3544	0.869
3535	0.8693
3526	0.8698
3517	0.8702
3508	0.8708
3499	0.8712
3490	0.8716
3481	0.8718
3472	0.8723
3463	0.8725
3454	0.8728
3445	0.873
3436	0.8731
3427	0.8732
3418	0.873
3409	0.8725
3400	0.8721
3391	0.8716
3382	0.8711
3373	0.869
3364	0.8663
3355	0.8638
3346	0.8621
3337	0.861
3328	0.8598
3319	0.8582
3310	0.8564
3301	0.8546
3292	0.8527
3283	0.8507
3274	0.8487
3265	0.8453
3256	0.8416
3247	0.8375
3238	0.8335
3229	0.8294
3220	0.8248
3211	0.8192
3202	0.8137
3193	0.8078
3184	0.8011
3175	0.7947
3166	0.7865
3157	0.7772
3148	0.7676
3139	0.7575
3130	0.7467
3121	0.7358
3112	0.7265
3103	0.7178
3094	0.7096
3085	0.7015
3076	0.6936
3067	0.6858
3058	0.6776
3049	0.6683
3040	0.6565
3031	0.6454
3022	0.6341
3013	0.631
3004	0.6297
2995	0.6286
2986	0.6225
2977	0.5923
2968	0.5002
2959	0.3489
2950	0.3753
2941	0.3234
2932	0.1873
2923	0.0509
2914	0.0926
2905	0.266
2896	0.3349
2887	0.3986
2878	0.4481
2869	0.4199
2860	0.2049
2851	0.1394
2842	0.4799
2833	0.5783
2824	0.6131
2815	0.633
2806	0.6469
2797	0.6578
2788	0.6661
2779	0.6735
2770	0.6805
2761	0.6861
2752	0.6918
2743	0.6965
2734	0.701
2725	0.7054
2716	0.7062
2707	0.7043
2698	0.6995
2689	0.6942
2680	0.6895
2671	0.6851
2662	0.6831
2653	0.6822
2644	0.6838
2635	0.6867
2626	0.69
2617	0.6946
2608	0.7001
2599	0.7061
2590	0.7151
2581	0.7218
2572	0.7237
2563	0.7249
2554	0.7275
2545	0.7322
2536	0.7387
2527	0.7476
2518	0.7601
2509	0.7714
2500	0.779
2491	0.7849
2482	0.7907
2473	0.7941
2464	0.7968
2455	0.8005
2446	0.8041
2437	0.8071
2428	0.8101
2419	0.8131
2410	0.8154
2401	0.818
2392	0.8221
2383	0.8268
2374	0.8303
2365	0.8316
2356	0.8318
2347	0.8304
2338	0.8296
2329	0.8298
2320	0.8314
2311	0.8328
2302	0.8345
2293	0.8361
2284	0.8378
2275	0.8395
2266	0.8412
2257	0.8433
2248	0.8492
2239	0.8541
2230	0.8573
2221	0.8595
2212	0.8618
2203	0.8643
2194	0.8647
2185	0.8646
2176	0.865
2167	0.8659
2158	0.8673
2149	0.8688
2140	0.8702
2131	0.8714
2122	0.8724
2113	0.8736
2104	0.8751
2095	0.8764
2086	0.878
2077	0.8795
2068	0.8809
2059	0.882
2050	0.8832
2041	0.8838
2032	0.8845
2023	0.8853
2014	0.8861
2005	0.8867
1996	0.8796
1987	0.8914
1978	0.8925
1969	0.8928
1960	0.8924
1951	0.8907
1942	0.8891
1933	0.8893
1924	0.889
1915	0.8874
1906	0.8855
1897	0.8831
1888	0.8786
1879	0.8745
1870	0.8705
1861	0.8692
1852	0.8664
1843	0.8664
1834	0.8655
1825	0.8644
1816	0.8623
1807	0.8601
1798	0.8618
1789	0.8636
1780	0.8584
1771	0.8644
1762	0.8694
1753	0.8705
1744	0.8694
1735	0.8599
1726	0.8151
1717	0.6965
1708	0.3172
1699	0.1832
1690	0.2577
1681	0.3223
1672	0.6925
1663	0.7818
1654	0.8233
1645	0.8462
1636	0.8565
1627	0.8633
1618	0.8683
1609	0.8736
1600	0.8785
1591	0.8836
1582	0.8851
1573	0.8849
1564	0.8849
1555	0.8848
1546	0.8825
1537	0.8792
1528	0.8758
1519	0.8725
1510	0.8693
1501	0.8661
1492	0.8612
1483	0.8546
1474	0.7132
1465	0.614
1456	0.7238
1447	0.7506
1438	0.7094
1429	0.6349
1420	0.7153
1411	0.6661
1402	0.7208
1393	0.8068
1384	0.8115
1375	0.7899
1366	0.7758
1357	0.7338
1348	0.7036
1339	0.7025
1330	0.7072
1321	0.7074
1312	0.6135
1303	0.5369
1294	0.4807
1285	0.5748
1276	0.6619
1267	0.6341
1258	0.7454
1249	0.6834
1240	0.7619
1231	0.7657
1222	0.6875
1213	0.7875
1204	0.6804
1195	0.7871
1186	0.6871
1177	0.7926
1168	0.8158
1159	0.821
1150	0.8235
1141	0.8248
1132	0.8255
1123	0.8211
1114	0.8165
1105	0.826
1096	0.7765
1087	0.8225
1078	0.8236
1069	0.8186
1060	0.8178
1051	0.821
1042	0.8227
1033	0.824
1024	0.8241
1015	0.8136
1006	0.7948
997	0.7967
988	0.7956
979	0.7875
970	0.7544
961	0.7037
952	0.6584
943	0.6151
934	0.5834
925	0.6568
916	0.7241
907	0.745
898	0.7642
889	0.7696
880	0.7838
871	0.8039
862	0.8165
853	0.8244
844	0.8242
835	0.8377
826	0.844
817	0.8478
808	0.8512
799	0.8534
790	0.8539
781	0.8346
772	0.845
763	0.8475
754	0.846
745	0.8351
736	0.8025
727	0.6925
718	0.6007
709	0.8081
700	0.8304
691	0.8041
682	0.7599
673	0.804
664	0.8201
655	0.8407
646	0.8527
637	0.8636
628	0.8704
619	0.8717
610	0.8696
601	0.8673
592	0.8647
583	0.8623
574	0.8548
565	0.8417
556	0.8137
547	0.7778
538	0.8011
529	0.8225
520	0.8291
511	0.8287
502	0.8141
493	0.8018
484	0.8133
475	0.8169
466	0.8147
457	0.8097
