Infrared Spectrum: Urea
Formula: N H 2 C O N H 2
CAS: 57-13-6
State: solid
Instrument: Bruker Tensor 37 FTIR
Resolution: 0.96450084
Origin: Pacific Northwest National Laboratory Under IARPA Contract
1/cm	Reflectance
7498.99	0.465684
7481.63	0.459891
7464.27	0.455334
7446.91	0.438283
7429.55	0.421998
7412.19	0.412906
7394.84	0.399269
7377.48	0.388404
7360.12	0.374369
7342.76	0.35363
7325.4	0.343184
7308.04	0.329635
7290.68	0.334713
7273.32	0.341614
7255.96	0.330302
7238.6	0.283286
7221.24	0.220301
7203.88	0.147364
7186.52	0.117768
7169.16	0.0867893
7151.8	0.0838059
7134.44	0.094631
7117.08	0.0891658
7099.72	0.0848814
7082.36	0.0847706
7065	0.0835571
7047.64	0.0807309
7030.28	0.0771475
7012.92	0.0745289
6995.56	0.103984
6978.2	0.141456
6960.84	0.181042
6943.48	0.211451
6926.12	0.245828
6908.76	0.296848
6891.4	0.345954
6874.04	0.3708
6856.68	0.38358
6839.32	0.387327
6821.96	0.382836
6804.6	0.364766
6787.24	0.347634
6769.88	0.343814
6752.52	0.344932
6735.16	0.351296
6717.8	0.354315
6700.44	0.355809
6683.08	0.360101
6665.72	0.353081
6648.36	0.339947
6631	0.335511
6613.64	0.332358
6596.28	0.319438
6578.92	0.302631
6561.56	0.286075
6544.2	0.278908
6526.85	0.278303
6509.49	0.281703
6492.13	0.276097
6474.77	0.275789
6457.41	0.285296
6440.05	0.288381
6422.69	0.282085
6405.33	0.276353
6387.97	0.25262
6370.61	0.206206
6353.25	0.141229
6335.89	0.0821403
6318.53	0.0522585
6301.17	0.0391339
6283.81	0.0343991
6266.45	0.0331226
6249.09	0.0335753
6231.73	0.0358574
6214.37	0.0366899
6197.01	0.0374323
6179.65	0.0416438
6162.29	0.0408268
6144.93	0.0452745
6127.57	0.0552962
6110.21	0.059704
6092.85	0.055533
6075.49	0.0473435
6058.13	0.0390421
6040.77	0.0394433
6023.41	0.0389884
6006.05	0.0370994
5988.69	0.0381745
5971.33	0.0397483
5953.97	0.0452061
5936.61	0.0472222
5919.25	0.0480753
5901.89	0.052219
5884.53	0.0546049
5867.17	0.0545957
5849.81	0.0568263
5832.45	0.0527332
5815.09	0.0521667
5797.73	0.0509689
5780.37	0.0467947
5763.01	0.0390444
5745.65	0.0385661
5728.29	0.0408648
5710.93	0.0391444
5693.57	0.0387632
5676.21	0.0412391
5658.86	0.0422966
5641.5	0.043166
5624.14	0.0460228
5606.78	0.0476633
5589.42	0.0415439
5572.06	0.0330111
5554.7	0.0283021
5537.34	0.0257747
5519.98	0.0231901
5502.62	0.0211335
5485.26	0.0456581
5467.9	0.0442289
5450.54	0.0351079
5433.18	0.0314496
5415.82	0.039028
5398.46	0.0351873
5381.1	0.0341383
5363.74	0.0343213
5346.38	0.0340529
5329.02	0.0329096
5311.66	0.0325581
5294.3	0.0322717
5276.94	0.0319024
5259.58	0.0318552
5242.22	0.0324676
5224.86	0.0324345
5207.5	0.0317034
5190.14	0.0312998
5172.78	0.0304466
5155.42	0.0299754
5138.06	0.0301217
5120.7	0.0303967
5103.34	0.029982
5085.98	0.0301224
5068.62	0.029602
5051.26	0.0300005
5033.9	0.0329993
5016.54	0.0376731
4999.18	0.0364327
4981.82	0.0325456
4964.46	0.0383117
4947.1	0.0383211
4929.74	0.0355914
4912.38	0.0330068
4895.02	0.0317671
4877.66	0.0298558
4860.3	0.0279816
4842.94	0.0276236
4825.58	0.02934
4808.22	0.0324623
4790.86	0.0309322
4773.51	0.0285494
4756.15	0.0265449
4738.79	0.029691
4721.43	0.0311827
4704.07	0.0303391
4686.71	0.0269875
4669.35	0.022348
4651.99	0.020067
4634.63	0.0186275
4617.27	0.0683174
4599.91	0.136473
4582.55	0.0483709
4565.19	0.079975
4547.83	0.113574
4530.47	0.0524892
4513.11	0.0404906
4495.75	0.0331547
4478.39	0.049393
4461.03	0.0366159
4443.67	0.0337785
4426.31	0.0326958
4408.95	0.0307555
4391.59	0.0291552
4374.23	0.0280394
4356.87	0.0268018
4339.51	0.0257686
4322.15	0.0396439
4304.79	0.0316049
4287.43	0.0300711
4270.07	0.0300825
4252.71	0.0301932
4235.35	0.029663
4217.99	0.0288341
4200.63	0.0282021
4183.27	0.0273037
4165.91	0.0265071
4148.55	0.0248643
4131.19	0.0245073
4113.83	0.023538
4096.47	0.0227071
4079.11	0.0219787
4061.75	0.0235566
4044.39	0.465885
4027.03	0.461604
4009.67	0.45092
3992.31	0.436008
3974.95	0.427026
3957.59	0.414796
3940.23	0.398589
3922.87	0.383477
3905.52	0.37117
3888.16	0.35317
3870.8	0.336264
3853.44	0.329649
3836.08	0.340301
3818.72	0.346713
3801.36	0.323342
3784	0.267274
3766.64	0.206609
3749.28	0.134978
3731.92	0.114925
3714.56	0.0796052
3697.2	0.0906996
3679.84	0.0985996
3662.48	0.0880001
3645.12	0.084903
3627.76	0.0850027
3610.4	0.0865003
3593.04	0.0805336
3575.68	0.07353
3558.32	0.0840888
3540.96	0.118389
3523.6	0.160131
3506.24	0.193871
3488.88	0.223589
3471.52	0.262404
3454.16	0.315791
3436.8	0.36062
3419.44	0.380457
3402.08	0.386423
3384.72	0.388763
3367.36	0.380816
3350	0.362761
3332.64	0.348805
3315.28	0.34696
3297.92	0.350697
3280.56	0.356082
3263.2	0.358454
3245.84	0.362271
3228.48	0.364139
3211.12	0.353799
3193.76	0.342652
3176.4	0.338101
3159.04	0.332966
3141.68	0.318483
3124.32	0.300478
3106.96	0.286767
3089.6	0.283002
3072.24	0.282806
3054.88	0.285259
3037.53	0.279348
3020.17	0.283013
3002.81	0.291565
2985.45	0.291214
2968.09	0.285568
2950.73	0.276781
2933.37	0.245482
2916.01	0.190751
2898.65	0.121948
2881.29	0.0722454
2863.93	0.0465223
2846.57	0.0370368
2829.21	0.0340467
2811.85	0.0329736
2794.49	0.0338011
2777.13	0.0360951
2759.77	0.0365108
2742.41	0.0384817
2725.05	0.0413273
2707.69	0.0411195
2690.33	0.0484937
2672.97	0.0582149
2655.61	0.0596361
2638.25	0.0539266
2620.89	0.0450693
2603.53	0.0381877
2586.17	0.0398143
2568.81	0.0382117
2551.45	0.0368013
2534.09	0.0384619
2516.73	0.0416095
2499.37	0.0467119
2482.01	0.0475176
2464.65	0.0497842
2447.29	0.053514
2429.93	0.0553544
2412.57	0.0557991
2395.21	0.0565511
2377.85	0.0530527
2360.49	0.0526411
2343.13	0.0501356
2325.77	0.0445673
2308.41	0.0382402
2291.05	0.039738
2273.69	0.040977
2256.33	0.038425
2238.97	0.0392769
2221.61	0.0420686
2204.25	0.0424293
2186.89	0.0439666
2169.53	0.0479027
2152.18	0.0467618
2134.82	0.0391856
2117.46	0.0303898
2100.1	0.0270316
2082.74	0.0246463
2065.38	0.0217878
2048.02	0.0224401
2030.66	0.0498346
2013.3	0.0415702
1995.94	0.032245
1978.58	0.0333195
1961.22	0.038001
1943.86	0.0341031
1926.5	0.0339889
1909.14	0.0341654
1891.78	0.0336943
1874.42	0.0325203
1857.06	0.0320043
1839.7	0.0319217
1822.34	0.0312902
1804.98	0.0320102
1787.62	0.0321135
1770.26	0.0315152
1752.9	0.0312056
1735.54	0.0304988
1718.18	0.0298624
1700.82	0.0293878
1683.46	0.0295967
1666.1	0.029567
1648.74	0.0296781
1631.38	0.0294033
1614.02	0.0293521
1596.66	0.0301505
1579.3	0.0340639
1561.94	0.0377248
1544.58	0.0345807
1527.22	0.034326
1509.86	0.038475
1492.5	0.0374476
1475.14	0.0339608
1457.78	0.0320741
1440.42	0.0307818
1423.06	0.0284225
1405.7	0.0273928
1388.34	0.0269481
1370.98	0.0294988
1353.62	0.0321271
1336.26	0.0293003
1318.9	0.0279012
1301.54	0.0263464
1284.19	0.0299043
1266.83	0.0306871
1249.47	0.0288909
1232.11	0.0247643
1214.75	0.0205182
1197.39	0.0184797
1180.03	0.0190686
1162.67	0.125276
1145.31	0.123878
1127.95	0.0430537
1110.59	0.107321
1093.23	0.0739742
1075.87	0.046718
1058.51	0.0372613
1041.15	0.0302956
1023.79	0.0404639
1006.43	0.0343835
989.068	0.0319854
971.709	0.0306685
954.349	0.0290939
936.989	0.0276258
919.629	0.0262977
902.269	0.0247797
884.91	0.0274746
867.55	0.0345418
850.19	0.0291297
832.83	0.0285166
815.47	0.0281221
798.111	0.0289811
780.751	0.0280582
763.391	0.0271307
746.031	0.0261285
728.671	0.0253226
711.312	0.0242166
693.952	0.0236743
676.592	0.0219574
659.232	0.0218631
641.872	0.0207154
624.513	0.0201432
607.153	0.024289
