Infrared Spectrum: D-(--)-Fructose
Formula: C 6 H 12 O 6
CAS: 57-48-7
State: solid
Instrument: Bruker Tensor 37 FTIR
Resolution: 0.96450084
Origin: Pacific Northwest National Laboratory Under IARPA Contract
1/cm	Reflectance
7498.99	0.599798
7481.63	0.585722
7464.27	0.565928
7446.91	0.527961
7429.55	0.467948
7412.19	0.453786
7394.84	0.43082
7377.48	0.443145
7360.12	0.463965
7342.76	0.461514
7325.4	0.445165
7308.04	0.425946
7290.68	0.390959
7273.32	0.343447
7255.96	0.290398
7238.6	0.22854
7221.24	0.187457
7203.88	0.171401
7186.52	0.149342
7169.16	0.126257
7151.8	0.13842
7134.44	0.14945
7117.08	0.152122
7099.72	0.15157
7082.36	0.154568
7065	0.151832
7047.64	0.156702
7030.28	0.161665
7012.92	0.169714
6995.56	0.169466
6978.2	0.17945
6960.84	0.181648
6943.48	0.181126
6926.12	0.178111
6908.76	0.183295
6891.4	0.196608
6874.04	0.202784
6856.68	0.208978
6839.32	0.211369
6821.96	0.217743
6804.6	0.222211
6787.24	0.231872
6769.88	0.239484
6752.52	0.249349
6735.16	0.249232
6717.8	0.200633
6700.44	0.25001
6683.08	0.234753
6665.72	0.227978
6648.36	0.236905
6631	0.238347
6613.64	0.228396
6596.28	0.218407
6578.92	0.2315
6561.56	0.247673
6544.2	0.261587
6526.85	0.252645
6509.49	0.270906
6492.13	0.265901
6474.77	0.291961
6457.41	0.301153
6440.05	0.302202
6422.69	0.315208
6405.33	0.315799
6387.97	0.315833
6370.61	0.312044
6353.25	0.303746
6335.89	0.30284
6318.53	0.290139
6301.17	0.279658
6283.81	0.279279
6266.45	0.2686
6249.09	0.241433
6231.73	0.191266
6214.37	0.131979
6197.01	0.0986189
6179.65	0.0631765
6162.29	0.0553577
6144.93	0.0525977
6127.57	0.0528821
6110.21	0.0556647
6092.85	0.0579672
6075.49	0.0611848
6058.13	0.0660971
6040.77	0.0756944
6023.41	0.0841261
6006.05	0.092831
5988.69	0.0861315
5971.33	0.0595237
5953.97	0.0688986
5936.61	0.0601217
5919.25	0.071527
5901.89	0.0677869
5884.53	0.0747521
5867.17	0.0622931
5849.81	0.0631482
5832.45	0.0554499
5815.09	0.0474459
5797.73	0.0495214
5780.37	0.0428623
5763.01	0.0391986
5745.65	0.0387222
5728.29	0.0409345
5710.93	0.0426058
5693.57	0.0479876
5676.21	0.0502968
5658.86	0.0485365
5641.5	0.0491303
5624.14	0.0493045
5606.78	0.0470022
5589.42	0.0393655
5572.06	0.0346332
5554.7	0.0309182
5537.34	0.0280399
5519.98	0.0248013
5502.62	0.0312774
5485.26	0.0283748
5467.9	0.0294643
5450.54	0.0353338
5433.18	0.0343984
5415.82	0.0347292
5398.46	0.0344677
5381.1	0.0337906
5363.74	0.0339113
5346.38	0.0344582
5329.02	0.0347584
5311.66	0.0348273
5294.3	0.0346182
5276.94	0.0342971
5259.58	0.0338552
5242.22	0.0336447
5224.86	0.0327329
5207.5	0.0324864
5190.14	0.033903
5172.78	0.0336145
5155.42	0.0340172
5138.06	0.0341456
5120.7	0.0339471
5103.34	0.033969
5085.98	0.0336971
5068.62	0.0337029
5051.26	0.0339139
5033.9	0.0337642
5016.54	0.0336026
4999.18	0.0338429
4981.82	0.0340886
4964.46	0.0345783
4947.1	0.0350425
4929.74	0.0360195
4912.38	0.0360968
4895.02	0.0355407
4877.66	0.0368068
4860.3	0.0366896
4842.94	0.0387155
4825.58	0.0362462
4808.22	0.0349029
4790.86	0.0386496
4773.51	0.0362693
4756.15	0.0361989
4738.79	0.0397102
4721.43	0.0369857
4704.07	0.0345407
4686.71	0.0343343
4669.35	0.0349342
4651.99	0.0352836
4634.63	0.0342599
4617.27	0.0325607
4599.91	0.0312152
4582.55	0.0296354
4565.19	0.0293044
4547.83	0.0284792
4530.47	0.0272939
4513.11	0.026201
4495.75	0.0247204
4478.39	0.0227369
4461.03	0.0255901
4443.67	0.0267025
4426.31	0.0222904
4408.95	0.0283964
4391.59	0.0245506
4374.23	0.0252411
4356.87	0.0226687
4339.51	0.0191774
4322.15	0.0372262
4304.79	0.0186959
4287.43	0.0525478
4270.07	0.0466577
4252.71	0.0324915
4235.35	0.041175
4217.99	0.029243
4200.63	0.0272338
4183.27	0.0277254
4165.91	0.0228344
4148.55	0.022387
4131.19	0.0290703
4113.83	0.0248246
4096.47	0.0249949
4079.11	0.0249084
4061.75	0.0349584
4044.39	0.594127
4027.03	0.591305
4009.67	0.553726
3992.31	0.507385
3974.95	0.462538
3957.59	0.444969
3940.23	0.426805
3922.87	0.451911
3905.52	0.459225
3888.16	0.459171
3870.8	0.440632
3853.44	0.412629
3836.08	0.378817
3818.72	0.32742
3801.36	0.270698
3784	0.208156
3766.64	0.18016
3749.28	0.160905
3731.92	0.13835
3714.56	0.124349
3697.2	0.142686
3679.84	0.149088
3662.48	0.150679
3645.12	0.151507
3627.76	0.150414
3610.4	0.153793
3593.04	0.156308
3575.68	0.164679
3558.32	0.167469
3540.96	0.164963
3523.6	0.178764
3506.24	0.178429
3488.88	0.177396
3471.52	0.17551
3454.16	0.185565
3436.8	0.196791
3419.44	0.20013
3402.08	0.207708
3384.72	0.210898
3367.36	0.214836
3350	0.220137
3332.64	0.230582
3315.28	0.238635
3297.92	0.249841
3280.56	0.234713
3263.2	0.227728
3245.84	0.240076
3228.48	0.236873
3211.12	0.23324
3193.76	0.231674
3176.4	0.232004
3159.04	0.219977
3141.68	0.218245
3124.32	0.231384
3106.96	0.246789
3089.6	0.256134
3072.24	0.252497
3054.88	0.268991
3037.53	0.268161
3020.17	0.292151
3002.81	0.297207
2985.45	0.30221
2968.09	0.312234
2950.73	0.310989
2933.37	0.313086
2916.01	0.305088
2898.65	0.298849
2881.29	0.294669
2863.93	0.281872
2846.57	0.276828
2829.21	0.273064
2811.85	0.255412
2794.49	0.227684
2777.13	0.168365
2759.77	0.108513
2742.41	0.0874053
2725.05	0.0581235
2707.69	0.053744
2690.33	0.0535514
2672.97	0.0523588
2655.61	0.0555289
2638.25	0.0579694
2620.89	0.0629175
2603.53	0.0646005
2586.17	0.0768147
2568.81	0.0869385
2551.45	0.0913006
2534.09	0.0736266
2516.73	0.062025
2499.37	0.0707166
2482.01	0.0655293
2464.65	0.066716
2447.29	0.0635706
2429.93	0.0756537
2412.57	0.0610488
2395.21	0.0578413
2377.85	0.0519186
2360.49	0.0499235
2343.13	0.0461369
2325.77	0.0403627
2308.41	0.0396148
2291.05	0.0386948
2273.69	0.0413543
2256.33	0.0432649
2238.97	0.0441915
2221.61	0.0501205
2204.25	0.0506667
2186.89	0.0452168
2169.53	0.0487901
2152.18	0.0444279
2134.82	0.0388595
2117.46	0.0339108
2100.1	0.0304698
2082.74	0.0280355
2065.38	0.0290789
2048.02	0.030103
2030.66	0.028216
2013.3	0.0324006
1995.94	0.0353421
1978.58	0.0345871
1961.22	0.0344409
1943.86	0.0341443
1926.5	0.0341531
1909.14	0.0343878
1891.78	0.0344929
1874.42	0.0349925
1857.06	0.035286
1839.7	0.0348104
1822.34	0.0348295
1804.98	0.0342648
1787.62	0.0335328
1770.26	0.0325056
1752.9	0.0324962
1735.54	0.0342444
1718.18	0.0339719
1700.82	0.0339654
1683.46	0.0343153
1666.1	0.0342851
1648.74	0.0341738
1631.38	0.034122
1614.02	0.03406
1596.66	0.034289
1579.3	0.0342543
1561.94	0.0342398
1544.58	0.0342485
1527.22	0.0345511
1509.86	0.0351966
1492.5	0.0354622
1475.14	0.036924
1457.78	0.0363304
1440.42	0.0357683
1423.06	0.0376784
1405.7	0.0370466
1388.34	0.0362731
1370.98	0.0375591
1353.62	0.0359718
1336.26	0.0396459
1318.9	0.0365758
1301.54	0.0376023
1284.19	0.0376213
1266.83	0.0379097
1249.47	0.0345892
1232.11	0.0347345
1214.75	0.0368881
1197.39	0.0351622
1180.03	0.0342542
1162.67	0.0333774
1145.31	0.0313363
1127.95	0.0300333
1110.59	0.030187
1093.23	0.028683
1075.87	0.0276776
1058.51	0.0268544
1041.15	0.0247584
1023.79	0.0240221
1006.43	0.0252266
989.068	0.0253108
971.709	0.0274558
954.349	0.0276307
936.989	0.0243745
919.629	0.0252864
902.269	0.0224962
884.91	0.0210136
867.55	0.0302246
850.19	0.0322421
832.83	0.049234
815.47	0.0428245
798.111	0.0300793
780.751	0.0361951
763.391	0.0299636
746.031	0.0265377
728.671	0.0281957
711.312	0.0256414
693.952	0.0305
676.592	0.0286145
659.232	0.0266202
641.872	0.0272448
624.513	0.0254952
607.153	0.0288911
