Infrared Spectrum: BARBITURIC ACID, 5,5-DIETHYL-
Formula: C8 H12 N2 O3
CAS: 57-44-3
State: SOLID (1 mg / 200 mg KBr DISC)
Melting point: 188-192 C
Class: COBLENTZ III
Instrument: PERKIN-ELMER 21 (GRATING)
Instrument parameters: FILTER AT ABOUT 10 MICRONS
Sampling: TRANSMISSION
Resolution: 2
1/CM	TRANSMITTANCE
4000	0.8099
3991	0.8099
3982	0.8099
3973	0.8098
3964	0.8098
3955	0.8098
3946	0.8098
3937	0.8097
3928	0.8097
3919	0.8097
3910	0.8097
3901	0.8097
3892	0.8096
3883	0.8096
3874	0.8094
3865	0.8093
3856	0.8092
3847	0.8091
3838	0.809
3829	0.8089
3820	0.8087
3811	0.8086
3802	0.8085
3793	0.8083
3784	0.8083
3775	0.8081
3766	0.8075
3757	0.8069
3748	0.8064
3739	0.8058
3730	0.8054
3721	0.8048
3712	0.8042
3703	0.8032
3694	0.8021
3685	0.801
3676	0.7998
3667	0.7987
3658	0.7975
3649	0.7965
3640	0.7953
3631	0.7941
3622	0.793
3613	0.7919
3604	0.7908
3595	0.7897
3586	0.7886
3577	0.7875
3568	0.7862
3559	0.7846
3550	0.7821
3541	0.7795
3532	0.7768
3523	0.7711
3514	0.7647
3505	0.7608
3496	0.7582
3487	0.7555
3478	0.7532
3469	0.7514
3460	0.7497
3451	0.7478
3442	0.7457
3433	0.7418
3424	0.7375
3415	0.7332
3406	0.7272
3397	0.7203
3388	0.7135
3379	0.7071
3370	0.7008
3361	0.6935
3352	0.6833
3343	0.6721
3334	0.6585
3325	0.644
3316	0.6284
3307	0.6157
3298	0.6022
3289	0.5764
3280	0.5538
3271	0.5314
3262	0.5068
3253	0.4741
3244	0.4541
3235	0.4392
3226	0.4186
3217	0.4038
3208	0.3914
3199	0.384
3190	0.3776
3181	0.3709
3172	0.365
3163	0.3602
3154	0.3582
3145	0.3574
3136	0.3572
3127	0.3595
3118	0.3618
3109	0.3614
3100	0.3436
3091	0.3257
3082	0.3077
3073	0.2957
3064	0.2953
3055	0.2972
3046	0.3185
3037	0.3484
3028	0.3784
3019	0.4084
3010	0.4388
3001	0.4634
2992	0.4684
2983	0.4734
2974	0.4822
2965	0.491
2956	0.4949
2947	0.4924
2938	0.4867
2929	0.4822
2920	0.4815
2911	0.4862
2902	0.495
2893	0.5069
2884	0.513
2875	0.5141
2866	0.5128
2857	0.4974
2848	0.4809
2839	0.4879
2830	0.5154
2821	0.544
2812	0.5744
2803	0.6195
2794	0.6451
2785	0.67
2776	0.6992
2767	0.7195
2758	0.738
2749	0.7535
2740	0.7658
2731	0.775
2722	0.7842
2713	0.7921
2704	0.7992
2695	0.8061
2686	0.8124
2677	0.8183
2668	0.8242
2659	0.8282
2650	0.8312
2641	0.8338
2632	0.836
2623	0.8384
2614	0.8407
2605	0.8433
2596	0.8459
2587	0.8483
2578	0.8503
2569	0.8521
2560	0.8539
2551	0.8552
2542	0.8577
2533	0.862
2524	0.8671
2515	0.8707
2506	0.8721
2497	0.8723
2488	0.8688
2479	0.8632
2470	0.8566
2461	0.851
2452	0.8491
2443	0.8521
2434	0.8582
2425	0.8634
2416	0.867
2407	0.8671
2398	0.8668
2389	0.8664
2380	0.866
2371	0.8651
2362	0.8641
2353	0.8631
2344	0.8621
2335	0.8635
2326	0.8686
2317	0.8746
2308	0.8782
2299	0.88
2290	0.8807
2281	0.8811
2272	0.8808
2263	0.8805
2254	0.88
2245	0.8791
2236	0.8783
2227	0.8774
2218	0.8767
2209	0.876
2200	0.8752
2191	0.8741
2182	0.8727
2173	0.8712
2164	0.8696
2155	0.8678
2146	0.8649
2137	0.8587
2128	0.8497
2119	0.8464
2110	0.8436
2101	0.8412
2092	0.8386
2083	0.8362
2074	0.8337
2065	0.8314
2056	0.8287
2047	0.8258
2038	0.8224
2029	0.819
2020	0.8156
2011	0.8114
2002	0.8021
1993	0.7999
1984	0.7964
1975	0.7915
1966	0.7861
1957	0.7801
1948	0.7721
1939	0.7641
1930	0.7558
1921	0.7358
1912	0.7243
1903	0.7187
1894	0.7104
1885	0.7017
1876	0.6843
1867	0.6689
1858	0.6475
1849	0.6256
1840	0.5997
1831	0.5699
1822	0.5422
1813	0.5386
1804	0.5169
1795	0.4766
1786	0.4249
1777	0.3316
1768	0.1829
1759	0.2553
1750	0.394
1741	0.3466
1732	0.2511
1723	0.1442
1714	0.1465
1705	0.1613
1696	0.1733
1687	0.1532
1678	0.1135
1669	0.1843
1660	0.3066
1651	0.3818
1642	0.4618
1633	0.54
1624	0.6112
1615	0.65
1606	0.6701
1597	0.6882
1588	0.7089
1579	0.7253
1570	0.7451
1561	0.7736
1552	0.795
1543	0.8058
1534	0.7858
1525	0.7401
1516	0.7838
1507	0.7628
1498	0.781
1489	0.7515
1480	0.685
1471	0.5518
1462	0.3348
1453	0.4826
1444	0.4349
1435	0.4078
1426	0.4157
1417	0.2961
1408	0.3019
1399	0.345
1390	0.2746
1381	0.1902
1372	0.2712
1363	0.3764
1354	0.4833
1345	0.5664
1336	0.4122
1327	0.211
1318	0.1803
1309	0.3925
1300	0.5103
1291	0.604
1282	0.6536
1273	0.6965
1264	0.7022
1255	0.5951
1246	0.4143
1237	0.3278
1228	0.4315
1219	0.5192
1210	0.5887
1201	0.6375
1192	0.6764
1183	0.7097
1174	0.7068
1165	0.7141
1156	0.7349
1147	0.7488
1138	0.7597
1129	0.77
1120	0.7801
1111	0.7882
1102	0.7937
1093	0.7939
1084	0.775
1075	0.7736
1066	0.8021
1057	0.8047
1048	0.781
1039	0.6491
1030	0.6706
1021	0.7793
1012	0.8124
1003	0.8149
994	0.8155
985	0.8136
976	0.8201
967	0.8128
958	0.7801
949	0.6906
940	0.5996
931	0.6883
922	0.7191
913	0.7093
904	0.675
895	0.6598
886	0.5968
877	0.456
868	0.406
859	0.4828
850	0.5949
841	0.6838
832	0.7457
823	0.7871
814	0.8096
805	0.8288
796	0.841
787	0.8546
778	0.8595
769	0.8895
760	0.6725
751	0.7896
742	0.8018
733	0.8742
724	0.9127
715	0.922
706	0.9313
697	0.9377
688	0.9433
679	0.8989
670	0.8941
