Infrared Spectrum: Sucrose
Formula: C 12 H 22 O 11
CAS: 57-50-1
State: solid
Instrument: Bruker Tensor 37 FTIR
Resolution: 0.96450084
Origin: Pacific Northwest National Laboratory Under IARPA Contract
1/cm	Reflectance
7498.99	0.422011
7481.63	0.400088
7464.27	0.373804
7446.91	0.345583
7429.55	0.313058
7412.19	0.291471
7394.84	0.270156
7377.48	0.276387
7360.12	0.282791
7342.76	0.278716
7325.4	0.274031
7308.04	0.252498
7290.68	0.22632
7273.32	0.175867
7255.96	0.137843
7238.6	0.0811662
7221.24	0.0744368
7203.88	0.100191
7186.52	0.108531
7169.16	0.103376
7151.8	0.0936656
7134.44	0.0893626
7117.08	0.0847018
7099.72	0.0823548
7082.36	0.0805838
7065	0.080094
7047.64	0.0790784
7030.28	0.0783092
7012.92	0.0811553
6995.56	0.0841831
6978.2	0.0832225
6960.84	0.0858652
6943.48	0.0816179
6926.12	0.0830931
6908.76	0.0788246
6891.4	0.0829878
6874.04	0.0873557
6856.68	0.0965472
6839.32	0.105318
6821.96	0.114448
6804.6	0.122625
6787.24	0.130722
6769.88	0.134967
6752.52	0.142575
6735.16	0.142406
6717.8	0.111814
6700.44	0.129595
6683.08	0.136224
6665.72	0.13186
6648.36	0.106348
6631	0.11855
6613.64	0.124963
6596.28	0.123486
6578.92	0.125516
6561.56	0.137695
6544.2	0.140095
6526.85	0.142577
6509.49	0.153978
6492.13	0.146567
6474.77	0.166264
6457.41	0.176957
6440.05	0.182671
6422.69	0.17984
6405.33	0.183725
6387.97	0.178833
6370.61	0.177169
6353.25	0.171965
6335.89	0.16933
6318.53	0.161756
6301.17	0.156398
6283.81	0.148724
6266.45	0.135036
6249.09	0.107369
6231.73	0.0700726
6214.37	0.0693495
6197.01	0.050793
6179.65	0.0427687
6162.29	0.0413727
6144.93	0.0413212
6127.57	0.0420925
6110.21	0.0447188
6092.85	0.0460938
6075.49	0.0461074
6058.13	0.0498522
6040.77	0.0545663
6023.41	0.0563615
6006.05	0.0599485
5988.69	0.0577341
5971.33	0.0463703
5953.97	0.0462991
5936.61	0.046092
5919.25	0.043625
5901.89	0.0426685
5884.53	0.0434312
5867.17	0.0460965
5849.81	0.0457789
5832.45	0.0460998
5815.09	0.0412354
5797.73	0.0410202
5780.37	0.0395685
5763.01	0.0392721
5745.65	0.0390049
5728.29	0.0391248
5710.93	0.038501
5693.57	0.0399915
5676.21	0.0393194
5658.86	0.0400731
5641.5	0.0398893
5624.14	0.0391138
5606.78	0.0382878
5589.42	0.0363251
5572.06	0.0339633
5554.7	0.0316525
5537.34	0.0281846
5519.98	0.0300154
5502.62	0.0275378
5485.26	0.0269589
5467.9	0.0263524
5450.54	0.0276514
5433.18	0.0308076
5415.82	0.0336066
5398.46	0.0345156
5381.1	0.0340693
5363.74	0.0350909
5346.38	0.0350179
5329.02	0.0351876
5311.66	0.034898
5294.3	0.035147
5276.94	0.0348933
5259.58	0.0343346
5242.22	0.0331892
5224.86	0.0318476
5207.5	0.0322283
5190.14	0.0334706
5172.78	0.0335605
5155.42	0.0337331
5138.06	0.034142
5120.7	0.0342795
5103.34	0.0343198
5085.98	0.034323
5068.62	0.0339503
5051.26	0.0342201
5033.9	0.0344961
5016.54	0.0344102
4999.18	0.0342172
4981.82	0.034478
4964.46	0.0346364
4947.1	0.0347863
4929.74	0.0344973
4912.38	0.034879
4895.02	0.0348764
4877.66	0.0347788
4860.3	0.0345621
4842.94	0.0342003
4825.58	0.034398
4808.22	0.0337137
4790.86	0.0335833
4773.51	0.0335178
4756.15	0.0333745
4738.79	0.0332358
4721.43	0.0326238
4704.07	0.0328103
4686.71	0.0326534
4669.35	0.0320417
4651.99	0.0319161
4634.63	0.0315806
4617.27	0.0305147
4599.91	0.0293749
4582.55	0.0284467
4565.19	0.0284056
4547.83	0.0280243
4530.47	0.027328
4513.11	0.0262856
4495.75	0.0243314
4478.39	0.0251521
4461.03	0.0258383
4443.67	0.0252314
4426.31	0.0240877
4408.95	0.0273244
4391.59	0.0243759
4374.23	0.0225728
4356.87	0.0239253
4339.51	0.0202133
4322.15	0.0180122
4304.79	0.0238489
4287.43	0.0572791
4270.07	0.0447455
4252.71	0.0399939
4235.35	0.0368927
4217.99	0.030696
4200.63	0.038336
4183.27	0.0362385
4165.91	0.033044
4148.55	0.0291279
4131.19	0.0269474
4113.83	0.0261867
4096.47	0.0278193
4079.11	0.0291513
4061.75	0.0303055
4044.39	0.419311
4027.03	0.398253
4009.67	0.369295
3992.31	0.335721
3974.95	0.314427
3957.59	0.290352
3940.23	0.270335
3922.87	0.278106
3905.52	0.285026
3888.16	0.278047
3870.8	0.272068
3853.44	0.25451
3836.08	0.21613
3818.72	0.164554
3801.36	0.125569
3784	0.0717591
3766.64	0.0848069
3749.28	0.108137
3731.92	0.110772
3714.56	0.100652
3697.2	0.0939897
3679.84	0.0899157
3662.48	0.0865751
3645.12	0.085166
3627.76	0.0838026
3610.4	0.0829543
3593.04	0.081752
3575.68	0.0815209
3558.32	0.083754
3540.96	0.0884687
3523.6	0.0876979
3506.24	0.0865846
3488.88	0.0839351
3471.52	0.0837006
3454.16	0.0823331
3436.8	0.0852251
3419.44	0.0947681
3402.08	0.101669
3384.72	0.111339
3367.36	0.120358
3350	0.128719
3332.64	0.134629
3315.28	0.141421
3297.92	0.146229
3280.56	0.14512
3263.2	0.118402
3245.84	0.140368
3228.48	0.137242
3211.12	0.13396
3193.76	0.120287
3176.4	0.120864
3159.04	0.127244
3141.68	0.123701
3124.32	0.130973
3106.96	0.138083
3089.6	0.144566
3072.24	0.150229
3054.88	0.155737
3037.53	0.15374
3020.17	0.173761
3002.81	0.183983
2985.45	0.186465
2968.09	0.184384
2950.73	0.186237
2933.37	0.182827
2916.01	0.180844
2898.65	0.174119
2881.29	0.171881
2863.93	0.164696
2846.57	0.157577
2829.21	0.150519
2811.85	0.13081
2794.49	0.0968823
2777.13	0.0764565
2759.77	0.0646361
2742.41	0.0474934
2725.05	0.0429784
2707.69	0.0419533
2690.33	0.042909
2672.97	0.0444364
2655.61	0.0459805
2638.25	0.0478239
2620.89	0.0474032
2603.53	0.0533231
2586.17	0.0531558
2568.81	0.059941
2551.45	0.0609502
2534.09	0.0574182
2516.73	0.0474355
2499.37	0.0448573
2482.01	0.0463573
2464.65	0.0437757
2447.29	0.0440606
2429.93	0.0445889
2412.57	0.0457139
2395.21	0.0474045
2377.85	0.0450302
2360.49	0.0420085
2343.13	0.0416915
2325.77	0.0404855
2308.41	0.0398127
2291.05	0.0392689
2273.69	0.0394026
2256.33	0.0400906
2238.97	0.0404435
2221.61	0.0409706
2204.25	0.04087
2186.89	0.0405425
2169.53	0.0396116
2152.18	0.0381607
2134.82	0.0359083
2117.46	0.0335979
2100.1	0.0312528
2082.74	0.0286393
2065.38	0.0295076
2048.02	0.0272055
2030.66	0.0266955
2013.3	0.026968
1995.94	0.0299978
1978.58	0.0309525
1961.22	0.0342246
1943.86	0.0346918
1926.5	0.0350513
1909.14	0.0357411
1891.78	0.0355997
1874.42	0.0353449
1857.06	0.0355151
1839.7	0.0353954
1822.34	0.0353354
1804.98	0.0347915
1787.62	0.0331279
1770.26	0.0321949
1752.9	0.0332439
1735.54	0.0338466
1718.18	0.0338171
1700.82	0.0344367
1683.46	0.0346127
1666.1	0.0340896
1648.74	0.0343955
1631.38	0.0345088
1614.02	0.0345147
1596.66	0.0346811
1579.3	0.0345598
1561.94	0.0347206
1544.58	0.0347651
1527.22	0.0347588
1509.86	0.0350268
1492.5	0.0349324
1475.14	0.0354722
1457.78	0.0351035
1440.42	0.035116
1423.06	0.0347311
1405.7	0.0347385
1388.34	0.0345563
1370.98	0.0341361
1353.62	0.0339931
1336.26	0.0337015
1318.9	0.0336955
1301.54	0.0332304
1284.19	0.0330866
1266.83	0.0328129
1249.47	0.0326417
1232.11	0.0325393
1214.75	0.0318768
1197.39	0.0315059
1180.03	0.0309763
1162.67	0.0300432
1145.31	0.0291515
1127.95	0.0283807
1110.59	0.0279128
1093.23	0.0275504
1075.87	0.0266772
1058.51	0.0256145
1041.15	0.0225243
1023.79	0.0237401
1006.43	0.0254651
989.068	0.0239827
971.709	0.0262028
954.349	0.0261798
936.989	0.0256628
919.629	0.0233142
902.269	0.0228218
884.91	0.019755
867.55	0.0193299
850.19	0.0233313
832.83	0.0493666
815.47	0.0377417
798.111	0.0386784
780.751	0.0327786
763.391	0.0253767
746.031	0.0324505
728.671	0.0309334
711.312	0.0305118
693.952	0.0279903
676.592	0.0250249
659.232	0.024965
641.872	0.0304428
624.513	0.0277688
607.153	0.0282842
