Infrared Spectrum: 1,2-Propanediol
Formula: C3 H8 O2
CAS: 57-55-6
State: LIQUID
Class: COBLENTZ III
Instrument: BAIRD (GRATING)
Instrument parameters: NaCl PRISM
Path length: CAPILLARY
Resolution: 2
Origin: WYANDOTTE CHEMICALS CORP.
1/CM	TRANSMITTANCE
626	0.6614
635	0.6357
644	0.6121
653	0.5872
662	0.5857
671	0.5665
680	0.5521
689	0.5497
698	0.5574
707	0.5587
716	0.5698
725	0.5823
734	0.5968
743	0.6064
752	0.6295
761	0.6473
770	0.6619
779	0.673
788	0.6836
797	0.6256
806	0.6398
815	0.7185
824	0.663
833	0.3273
842	0.4466
851	0.6989
860	0.7756
869	0.7981
878	0.812
887	0.8139
896	0.806
905	0.7258
914	0.4476
923	0.3311
932	0.4208
941	0.4735
950	0.6009
959	0.7745
968	0.7909
977	0.7527
986	0.5068
995	0.3644
1004	0.658
1013	0.657
1022	0.4885
1031	0.2301
1040	0.0644
1049	0.0431
1058	0.0851
1067	0.1733
1076	0.1639
1085	0.1632
1094	0.2318
1103	0.3278
1112	0.3767
1121	0.4116
1130	0.325
1139	0.1903
1148	0.2604
1157	0.5558
1166	0.6865
1175	0.7458
1184	0.7381
1193	0.715
1202	0.6654
1211	0.6042
1220	0.5461
1229	0.5152
1238	0.5197
1247	0.5497
1256	0.5683
1265	0.5427
1274	0.4913
1283	0.453
1292	0.4436
1301	0.4566
1310	0.4787
1319	0.463
1328	0.4247
1337	0.4074
1346	0.4451
1355	0.4731
1364	0.45
1373	0.3629
1382	0.3211
1391	0.3744
1400	0.38
1409	0.3627
1418	0.3535
1427	0.3707
1436	0.3812
1445	0.397
1454	0.3909
1463	0.3579
1472	0.3663
1481	0.4602
1490	0.5628
1499	0.665
1508	0.7416
1517	0.7861
1526	0.8119
1535	0.8254
1544	0.8383
1553	0.8515
1562	0.8643
1571	0.864
1580	0.8708
1589	0.8789
1598	0.8883
1607	0.8941
1616	0.8968
1625	0.8975
1634	0.8977
1643	0.8976
1652	0.897
1661	0.8962
1670	0.8995
1679	0.9048
1688	0.9116
1697	0.9171
1706	0.9224
1715	0.924
1724	0.9249
1733	0.9257
1742	0.9261
1751	0.9249
1760	0.9266
1769	0.935
1778	0.9405
1787	0.9422
1796	0.943
1805	0.9434
1814	0.9433
1823	0.9432
1832	0.9428
1841	0.9421
1850	0.9419
1859	0.9421
1868	0.9422
1877	0.9409
1886	0.9398
1895	0.9401
1904	0.9404
1913	0.9408
1922	0.941
1931	0.9415
1940	0.9419
1949	0.9409
1958	0.9401
1967	0.9383
1976	0.9426
1985	0.9452
1994	0.9443
2003	0.9436
2012	0.9427
2021	0.9416
2030	0.9395
2039	0.9364
2048	0.9346
2057	0.9359
2066	0.938
2075	0.9401
2084	0.9429
2093	0.9452
2102	0.9455
2111	0.9437
2120	0.9427
2129	0.9413
2138	0.9387
2147	0.9368
2156	0.9359
2165	0.935
2174	0.9341
2183	0.9344
2192	0.9355
2201	0.9365
2210	0.9369
2219	0.9369
2228	0.9351
2237	0.933
2246	0.9301
2255	0.927
2264	0.924
2273	0.921
2282	0.9173
2291	0.9136
2300	0.91
2309	0.9076
2318	0.907
2327	0.9061
2336	0.9053
2345	0.9043
2354	0.9015
2363	0.8986
2372	0.8957
2381	0.8924
2390	0.8884
2399	0.8844
2408	0.8803
2417	0.8762
2426	0.8719
2435	0.8677
2444	0.8634
2453	0.8577
2462	0.8517
2471	0.8457
2480	0.8401
2489	0.8346
2498	0.8292
2507	0.8251
2516	0.8221
2525	0.8191
2534	0.8174
2543	0.8157
2552	0.8136
2561	0.8105
2570	0.8074
2579	0.8028
2588	0.7977
2597	0.7926
2606	0.7858
2615	0.7791
2624	0.7722
2633	0.7642
2642	0.7561
2651	0.7481
2660	0.7399
2669	0.7317
2678	0.7242
2687	0.7174
2696	0.7106
2705	0.7034
2714	0.6963
2723	0.6888
2732	0.6814
2741	0.6744
2750	0.668
2759	0.6595
2768	0.645
2777	0.6171
2786	0.5991
2795	0.5771
2804	0.5508
2813	0.5187
2822	0.4884
2831	0.4467
2840	0.3768
2849	0.3068
2858	0.2408
2867	0.2318
2876	0.2368
2885	0.2433
2894	0.2428
2903	0.2243
2912	0.2036
2921	0.1895
2930	0.2011
2939	0.2305
2948	0.2598
2957	0.2304
2966	0.1787
2975	0.191
2984	0.2712
2993	0.356
3002	0.4403
3011	0.5241
3020	0.6017
3029	0.6044
3038	0.5909
3047	0.5605
3056	0.5303
3065	0.5004
3074	0.4706
3083	0.441
3092	0.4115
3101	0.3822
3110	0.3531
3119	0.3241
3128	0.2596
3137	0.2163
3146	0.1966
3155	0.173
3164	0.1491
3173	0.1266
3182	0.1071
3191	0.0913
3200	0.0768
3209	0.0626
3218	0.0522
3227	0.0453
3236	0.0414
3245	0.0385
3254	0.0356
3263	0.0336
3272	0.0322
3281	0.0307
3290	0.0303
3299	0.0299
3308	0.03
3317	0.0302
3326	0.0315
3335	0.033
3344	0.035
3353	0.038
3362	0.0413
3371	0.0459
3380	0.0509
3389	0.0587
3398	0.0671
3407	0.0777
3416	0.09
3425	0.1019
3434	0.1129
3443	0.1238
3452	0.1348
3461	0.1528
3470	0.1721
3479	0.1939
3488	0.2223
3497	0.2672
3506	0.2909
3515	0.3159
3524	0.3439
3533	0.3717
3542	0.3994
3551	0.427
3560	0.4544
3569	0.4817
3578	0.5166
3587	0.5584
3596	0.5931
3605	0.6846
3614	0.7727
3623	0.794
3632	0.8105
3641	0.8251
3650	0.8384
3659	0.8482
3668	0.8571
3677	0.8628
3686	0.8683
3695	0.8737
3704	0.8784
3713	0.8824
3722	0.8853
3731	0.8869
3740	0.8885
3749	0.8901
3758	0.8918
3767	0.893
3776	0.8941
3785	0.8948
3794	0.8945
3803	0.8941
3812	0.8938
3821	0.8935
3830	0.8933
3839	0.8933
3848	0.8932
3857	0.8932
3866	0.8932
3875	0.8941
3884	0.8953
3893	0.8966
3902	0.8972
3911	0.8971
3920	0.8969
3929	0.8967
3938	0.8964
3947	0.8961
3956	0.895
3965	0.8936
3974	0.8922
3983	0.8909
3992	0.8897
