Infrared Spectrum: Meprobamate
Formula: C9 H18 N2 O4
CAS: 57-53-4
State: SOLID (SPLIT MULL), FLUOROLUBE FOR 3800-1330 CM^-^1, NUJOL FOR 1330-460 CM^-^1
Class: COBLENTZ III
Instrument: DOW KBr FOREPRISM-GRATING
Instrument parameters: BLAZED AT 3.5, 12.0, 20.0 MICRON AND CHANGED AT 5.0, 7.5, 14.9 MICRON
Sampling: TRANSMISSION
Resolution: 2
Origin: DOW CHEMICAL COMPANY
1/CM	TRANSMITTANCE
3800	0.8927
3791	0.8927
3782	0.8925
3773	0.8937
3764	0.8947
3755	0.8964
3746	0.8997
3737	0.9057
3728	0.9028
3719	0.9
3710	0.8983
3701	0.8975
3692	0.8931
3683	0.8945
3674	0.8971
3665	0.8983
3656	0.8959
3647	0.8937
3638	0.8923
3629	0.8912
3620	0.8905
3611	0.889
3602	0.8874
3593	0.8849
3584	0.8821
3575	0.8786
3566	0.8746
3557	0.8698
3548	0.8644
3539	0.8591
3530	0.8521
3521	0.842
3512	0.8293
3503	0.8114
3494	0.7721
3485	0.7211
3476	0.5745
3467	0.2252
3458	0.2717
3449	0.4242
3440	0.5768
3431	0.6528
3422	0.6954
3413	0.7256
3404	0.7382
3395	0.7438
3386	0.7412
3377	0.7441
3368	0.7081
3359	0.6343
3350	0.551
3341	0.5171
3332	0.5177
3323	0.6074
3314	0.6541
3305	0.6715
3296	0.6792
3287	0.6588
3278	0.6421
3269	0.6872
3260	0.7255
3251	0.7558
3242	0.7778
3233	0.7875
3224	0.7921
3215	0.7936
3206	0.7894
3197	0.7825
3188	0.7806
3179	0.7828
3170	0.7888
3161	0.8021
3152	0.8186
3143	0.8274
3134	0.8334
3125	0.8367
3116	0.8398
3107	0.8424
3098	0.8441
3089	0.8454
3080	0.8467
3071	0.8478
3062	0.8482
3053	0.8485
3044	0.8485
3035	0.848
3026	0.8459
3017	0.8416
3008	0.8323
2999	0.7725
2990	0.6746
2981	0.7095
2972	0.6412
2963	0.6451
2954	0.7334
2945	0.716
2936	0.6962
2927	0.7356
2918	0.7215
2909	0.7265
2900	0.7328
2891	0.7791
2882	0.7495
2873	0.7522
2864	0.7945
2855	0.7978
2846	0.8264
2837	0.8341
2828	0.8391
2819	0.8434
2810	0.8471
2801	0.8497
2792	0.8521
2783	0.8546
2774	0.8565
2765	0.8573
2756	0.8568
2747	0.8565
2738	0.8568
2729	0.8573
2720	0.8578
2711	0.8582
2702	0.859
2693	0.8597
2684	0.8616
2675	0.8638
2666	0.8662
2657	0.8671
2648	0.8678
2639	0.8685
2630	0.8687
2621	0.8688
2612	0.8694
2603	0.8701
2594	0.8708
2585	0.8714
2576	0.8718
2567	0.8718
2558	0.8718
2549	0.8721
2540	0.8724
2531	0.8725
2522	0.8724
2513	0.8721
2504	0.8718
2495	0.8714
2486	0.8711
2477	0.871
2468	0.8708
2459	0.8705
2450	0.8698
2441	0.8691
2432	0.8688
2423	0.8681
2414	0.8668
2405	0.8659
2396	0.8639
2387	0.8645
2378	0.8665
2369	0.8765
2360	0.8818
2351	0.8818
2342	0.8778
2333	0.8733
2324	0.8687
2315	0.8666
2306	0.865
2297	0.8635
2288	0.8628
2279	0.8624
2270	0.8624
2261	0.8627
2252	0.8637
2243	0.8649
2234	0.8662
2225	0.8671
2216	0.8683
2207	0.8693
2198	0.8701
2189	0.8707
2180	0.8714
2171	0.8721
2162	0.8728
2153	0.8733
2144	0.8738
2135	0.8743
2126	0.8749
2117	0.8754
2108	0.8751
2099	0.8747
2090	0.8745
2081	0.8739
2072	0.8732
2063	0.8723
2054	0.8716
2045	0.8707
2036	0.8696
2027	0.8688
2018	0.8682
2009	0.8682
2000	0.8682
1991	0.8674
1982	0.8749
1973	0.8773
1964	0.8792
1955	0.8796
1946	0.8793
1937	0.8785
1928	0.8782
1919	0.8783
1910	0.8784
1901	0.8786
1892	0.8771
1883	0.8749
1874	0.8737
1865	0.8734
1856	0.8727
1847	0.8715
1838	0.8695
1829	0.8668
1820	0.8638
1811	0.8642
1802	0.8647
1793	0.864
1784	0.8614
1775	0.8581
1766	0.8462
1757	0.8251
1748	0.7975
1739	0.7596
1730	0.7048
1721	0.6182
1712	0.4478
1703	0.0533
1694	0.0208
1685	0.2959
1676	0.604
1667	0.6468
1658	0.7715
1649	0.803
1640	0.814
1631	0.8218
1622	0.8199
1613	0.7633
1604	0.7249
1595	0.5914
1586	0.7334
1577	0.789
1568	0.8075
1559	0.8346
1550	0.8432
1541	0.848
1532	0.8507
1523	0.851
1514	0.8471
1505	0.8392
1496	0.8274
1487	0.8026
1478	0.7096
1469	0.7228
1460	0.7549
1451	0.7076
1442	0.6876
1433	0.5942
1424	0.3986
1415	0.4914
1406	0.3102
1397	0.6337
1388	0.6961
1379	0.4455
1370	0.6948
1361	0.5386
1352	0.571
1343	0.3051
1334	0.5633
1325	0.6274
1316	0.6858
1307	0.6825
1298	0.7343
1289	0.7599
1280	0.7683
1271	0.7856
1262	0.7778
1253	0.7818
1244	0.7885
1235	0.7951
1226	0.8145
1217	0.8164
1208	0.813
1199	0.8094
1190	0.8001
1181	0.7838
1172	0.7631
1163	0.7355
1154	0.7121
1145	0.7039
1136	0.7111
1127	0.7251
1118	0.7287
1109	0.7181
1100	0.6515
1091	0.4223
1082	0.4327
1073	0.304
1064	0.6088
1055	0.7261
1046	0.7618
1037	0.7669
1028	0.7747
1019	0.7867
1010	0.7976
1001	0.7951
992	0.8034
983	0.8058
974	0.7947
965	0.8212
956	0.8263
947	0.8021
938	0.7892
929	0.7782
920	0.8268
911	0.8416
902	0.8557
893	0.8577
884	0.8556
875	0.8635
866	0.8657
857	0.8682
848	0.8709
839	0.873
830	0.8746
821	0.8756
812	0.8752
803	0.8683
794	0.8542
785	0.7797
776	0.8511
767	0.8604
758	0.8608
749	0.8559
740	0.8438
731	0.8386
722	0.8142
713	0.8387
704	0.8554
695	0.8593
686	0.8568
677	0.8551
668	0.8564
659	0.8587
650	0.8587
641	0.8706
632	0.8704
623	0.8674
614	0.8634
605	0.8607
596	0.8496
587	0.8076
578	0.8028
569	0.7848
560	0.7578
551	0.7561
542	0.7275
533	0.7115
524	0.6811
515	0.6798
506	0.6798
497	0.6696
488	0.6619
479	0.6601
470	0.6637
461	0.6711
