Infrared Spectrum: 4,7-METHANO-1H-INDENE, 1,2,4,5,6,7,8,8-OCTACHLORO-2,3,3a,4,7,7a-HEXAHYDRO-
Formula: C10 H6 Cl8
CAS: 57-74-9
State: SOLUTION (10% IN CCl4 FOR 3800-1330, 10% IN CS2 FOR 1330-450 CM^-^1)
Melting point: 105 C
Class: COBLENTZ III
Instrument: DOW KBr FOREPRISM-GRATING
Instrument parameters: BLAZED AT 3.5, 12.0, 20.0 MICRON, CHANGED AT 5.0, 7.5, 14.9 MICRON
Sampling: TRANSMISSION
Path length: 0.010, 0.010 CM
Resolution: 4
Origin: DOW CHEMICAL COMPANY
1/CM	TRANSMITTANCE
451.49	0.769
460.051	0.786
468.611	0.779
477.172	0.782
485.732	0.788
494.293	0.789
502.853	0.786
511.414	0.788
519.975	0.785
528.535	0.701
537.096	0.801
545.656	0.807
554.217	0.7421
562.778	0.5046
571.338	0.838
579.899	0.855
588.459	0.8071
597.02	0.866
605.58	0.871
614.141	0.866
622.702	0.832
631.262	0.816
639.823	0.8278
648.383	0.84
656.944	0.844
665.504	0.868
674.065	0.856
682.626	0.6841
691.186	0.471
699.747	0.461
708.307	0.857
716.868	0.883
725.428	0.887
733.989	0.893
742.55	0.838
751.11	0.794
759.671	0.889
768.231	0.883
776.792	0.761
785.353	0.539
793.913	0.874
802.474	0.893
811.034	0.815
819.595	0.3042
828.155	0.7809
836.716	0.825
845.277	0.668
853.837	0.492
862.398	0.742
870.958	0.776
879.519	0.724
888.079	0.599
896.64	0.3092
905.201	0.7779
913.761	0.776
922.322	0.886
930.882	0.896
939.443	0.918
948.004	0.92
956.564	0.903
965.125	0.804
973.685	0.436
982.246	0.863
990.806	0.881
999.367	0.884
1007.93	0.829
1016.49	0.64
1025.05	0.269
1033.61	0.77
1042.17	0.821
1050.73	0.6359
1059.29	0.68
1067.85	0.4972
1076.41	0.554
1084.97	0.531
1093.53	0.75
1102.09	0.826
1110.65	0.884
1119.22	0.936
1127.78	0.945
1136.34	0.928
1144.9	0.89
1153.46	0.936
1162.02	0.874
1170.58	0.4111
1179.14	0.849
1187.7	0.917
1196.26	0.899
1204.82	0.752
1213.38	0.7139
1221.94	0.727
1230.5	0.856
1239.06	0.6991
1247.62	0.748
1256.18	0.4919
1264.74	0.585
1273.31	0.866
1281.87	0.892
1290.43	0.893
1298.99	0.6929
1307.55	0.8149
1316.11	0.46
1324.67	0.806
1333.23	0.818
1341.79	0.921
1350.35	0.971
1358.91	1.001
1367.47	0.991
1376.03	0.985
1384.59	0.974
1393.15	0.982
1401.71	0.98
1410.27	0.979
1418.84	0.977
1427.4	0.973
1435.96	0.968
1444.52	0.937
1453.08	0.884
1461.64	0.939
1470.2	0.936
1478.76	0.921
1487.32	0.893
1495.88	0.857
1504.44	0.804
1513	0.748
1521.56	0.704
1530.12	0.647
1538.68	0.538
1547.24	0.489
1555.8	0.534
1564.37	0.616
1572.93	0.656
1581.49	0.676
1590.05	0.698
1598.61	0.389
1607.17	0.776
1615.73	0.897
1624.29	0.945
1632.85	0.958
1641.41	0.967
1649.97	0.973
1658.53	0.97
1667.09	0.97
1675.65	0.968
1684.21	0.971
1692.77	0.973
1701.33	0.973
1709.89	0.971
1718.46	0.968
1727.02	0.973
1735.58	0.967
1744.14	0.968
1752.7	0.967
1761.26	0.965
1769.82	0.965
1778.38	0.963
1786.94	0.96
1795.5	0.96
1804.06	0.957
1812.62	0.955
1821.18	0.955
1829.74	0.957
1838.3	0.955
1846.86	0.955
1855.42	0.952
1863.99	0.954
1872.55	0.955
1881.11	0.955
1889.67	0.955
1898.23	0.957
1906.79	0.957
1915.35	0.957
1923.91	0.957
1932.47	0.955
1941.03	0.955
1949.59	0.955
1958.15	0.955
1966.71	0.955
1975.27	0.952
1983.83	0.948
1992.39	0.928
2000.95	0.9545
2009.52	0.961
2018.08	0.9645
2026.64	0.9671
2035.2	0.97
2043.76	0.973
2052.32	0.974
2060.88	0.9762
2069.44	0.977
2078	0.977
2086.56	0.977
2095.12	0.979
2103.68	0.979
2112.24	0.979
2120.8	0.979
2129.36	0.979
2137.92	0.979
2146.48	0.977
2155.04	0.976
2163.61	0.976
2172.17	0.974
2180.73	0.9735
2189.29	0.971
2197.85	0.97
2206.41	0.968
2214.97	0.9659
2223.53	0.964
2232.09	0.963
2240.65	0.96
2249.21	0.958
2257.77	0.955
2266.33	0.951
2274.89	0.9445
2283.45	0.937
2292.01	0.9363
2300.57	0.937
2309.14	0.9393
2317.7	0.9458
2326.26	0.945
2334.82	0.942
2343.38	0.9498
2351.94	0.9491
2360.5	0.9499
2369.06	0.952
2377.62	0.95
2386.18	0.948
2394.74	0.948
2403.3	0.9462
2411.86	0.946
2420.42	0.946
2428.98	0.9454
2437.54	0.943
2446.1	0.9406
2454.67	0.94
2463.23	0.94
2471.79	0.94
2480.35	0.94
2488.91	0.939
2497.47	0.9362
2506.03	0.933
2514.59	0.933
2523.15	0.9334
2531.71	0.934
2540.27	0.934
2548.83	0.933
2557.39	0.931
2565.95	0.933
2574.51	0.9319
2583.07	0.931
2591.63	0.93
2600.19	0.933
2608.76	0.9334
2617.32	0.9309
2625.88	0.928
2634.44	0.927
2643	0.927
2651.56	0.9268
2660.12	0.9245
2668.68	0.924
2677.24	0.924
2685.8	0.924
2694.36	0.923
2702.92	0.923
2711.48	0.923
2720.04	0.923
2728.6	0.921
2737.16	0.92
2745.72	0.917
2754.29	0.915
2762.85	0.915
2771.41	0.917
2779.97	0.918
2788.53	0.918
2797.09	0.918
2805.65	0.918
2814.21	0.918
2822.77	0.9156
2831.33	0.9148
2839.89	0.9113
2848.45	0.908
2857.01	0.906
2865.57	0.905
2874.13	0.8907
2882.69	0.8896
2891.25	0.902
2899.82	0.8996
2908.38	0.893
2916.94	0.8911
2925.5	0.889
2934.06	0.881
2942.62	0.871
2951.18	0.8538
2959.74	0.8369
2968.3	0.8495
2976.86	0.8708
2985.42	0.8577
2993.98	0.8736
3002.54	0.895
3011.1	0.9034
3019.66	0.908
3028.22	0.9088
3036.78	0.9052
3045.35	0.906
3053.91	0.9076
3062.47	0.911
3071.03	0.909
3079.59	0.906
3088.15	0.9108
3096.71	0.911
3105.27	0.909
3113.83	0.9115
3122.39	0.911
3130.95	0.912
3139.51	0.912
3148.07	0.914
3156.63	0.914
3165.19	0.914
3173.75	0.911
3182.31	0.912
3190.87	0.912
3199.44	0.911
3208	0.911
3216.56	0.909
3225.12	0.909
3233.68	0.909
3242.24	0.909
3250.8	0.911
3259.36	0.911
3267.92	0.909
3276.48	0.911
3285.04	0.911
3293.6	0.911
3302.16	0.909
3310.72	0.909
3319.28	0.908
3327.84	0.906
3336.4	0.908
3344.97	0.908
3353.53	0.908
3362.09	0.908
3370.65	0.905
3379.21	0.905
3387.77	0.903
3396.33	0.9023
3404.89	0.902
3413.45	0.902
3422.01	0.9027
3430.57	0.902
3439.13	0.9
3447.69	0.899
3456.25	0.899
3464.81	0.897
3473.37	0.8966
3481.93	0.896
3490.5	0.894
3499.06	0.894
3507.62	0.893
3516.18	0.893
3524.74	0.8924
3533.3	0.892
3541.86	0.892
3550.42	0.892
3558.98	0.892
3567.54	0.892
3576.1	0.892
3584.66	0.892
3593.22	0.892
3601.78	0.892
3610.34	0.892
3618.9	0.892
3627.46	0.892
3636.02	0.892
3644.59	0.892
3653.15	0.892
3661.71	0.892
3670.27	0.8911
3678.83	0.89
3687.39	0.89
3695.95	0.89
3704.51	0.89
3713.07	0.89
3721.63	0.89
3730.19	0.89
3738.75	0.889
3747.31	0.887
3755.87	0.886
3764.43	0.883
3772.99	0.8837
3781.55	0.887
3790.12	0.8875
