Infrared Spectrum: CHOLEST-5-EN-3Beta-OL
Formula: C27 H46 O
CAS: 57-88-5
State: SOLID (KBr DISC) VS KBr
Melting point: 148.5 C
Boiling point: 360 C AT 760 mmHg (SOME DECOMP.)
Class: COBLENTZ III
Instrument: PERKIN-ELMER 21 (GRATING)
Instrument parameters: FILTER AT ABOUT 10 MICRONS
Sampling: TRANSMISSION
Resolution: 2
1/CM	TRANSMITTANCE
4000	0.8255
3991	0.8257
3982	0.8265
3973	0.8274
3964	0.8284
3955	0.8294
3946	0.8307
3937	0.8321
3928	0.8335
3919	0.8349
3910	0.8356
3901	0.8361
3892	0.8367
3883	0.8368
3874	0.8368
3865	0.8368
3856	0.8368
3847	0.8368
3838	0.8371
3829	0.8374
3820	0.8377
3811	0.838
3802	0.8385
3793	0.8393
3784	0.8402
3775	0.8411
3766	0.8421
3757	0.8428
3748	0.8436
3739	0.844
3730	0.8444
3721	0.8449
3712	0.8451
3703	0.8454
3694	0.8454
3685	0.8451
3676	0.8444
3667	0.8435
3658	0.8421
3649	0.8407
3640	0.8391
3631	0.8368
3622	0.8342
3613	0.8298
3604	0.8255
3595	0.8201
3586	0.8117
3577	0.8025
3568	0.7911
3559	0.7796
3550	0.768
3541	0.755
3532	0.7411
3523	0.7244
3514	0.7049
3505	0.6694
3496	0.6351
3487	0.6241
3478	0.589
3469	0.5531
3460	0.5249
3451	0.5147
3442	0.506
3433	0.502
3424	0.501
3415	0.501
3406	0.503
3397	0.5138
3388	0.5289
3379	0.5431
3370	0.5612
3361	0.5803
3352	0.5993
3343	0.6183
3334	0.6375
3325	0.6568
3316	0.6761
3307	0.6957
3298	0.7153
3289	0.7346
3280	0.7471
3271	0.758
3262	0.7674
3253	0.7764
3244	0.7837
3235	0.7904
3226	0.7949
3217	0.7991
3208	0.803
3199	0.8062
3190	0.8087
3181	0.8111
3172	0.8128
3163	0.8143
3154	0.8158
3145	0.8168
3136	0.818
3127	0.8188
3118	0.8191
3109	0.8194
3100	0.8191
3091	0.8172
3082	0.8137
3073	0.8069
3064	0.7989
3055	0.7898
3046	0.7735
3037	0.751
3028	0.7061
3019	0.6205
3010	0.5359
3001	0.4508
2992	0.3652
2983	0.2791
2974	0.2084
2965	0.1626
2956	0.1319
2947	0.1187
2938	0.1164
2929	0.1233
2920	0.1325
2911	0.1425
2902	0.156
2893	0.1708
2884	0.1851
2875	0.1981
2866	0.2187
2857	0.2596
2848	0.3107
2839	0.3884
2830	0.4676
2821	0.5471
2812	0.6272
2803	0.7098
2794	0.7397
2785	0.7645
2776	0.7854
2767	0.7967
2758	0.8068
2749	0.815
2740	0.8205
2731	0.8253
2722	0.8296
2713	0.8331
2704	0.8363
2695	0.8387
2686	0.8411
2677	0.8416
2668	0.8418
2659	0.8418
2650	0.8416
2641	0.8431
2632	0.8448
2623	0.8488
2614	0.8528
2605	0.8568
2596	0.8606
2587	0.8642
2578	0.8668
2569	0.8691
2560	0.8715
2551	0.8738
2542	0.8757
2533	0.8771
2524	0.8785
2515	0.8801
2506	0.8816
2497	0.883
2488	0.8843
2479	0.8846
2470	0.8845
2461	0.8849
2452	0.8857
2443	0.8864
2434	0.8874
2425	0.8887
2416	0.8901
2407	0.8914
2398	0.8928
2389	0.8938
2380	0.8947
2371	0.8955
2362	0.8964
2353	0.8971
2344	0.8981
2335	0.899
2326	0.8996
2317	0.9001
2308	0.9007
2299	0.9014
2290	0.9024
2281	0.9042
2272	0.9064
2263	0.9087
2254	0.9105
2245	0.9116
2236	0.9121
2227	0.9118
2218	0.9115
2209	0.9114
2200	0.9113
2191	0.9112
2182	0.9115
2173	0.9118
2164	0.9124
2155	0.913
2146	0.9134
2137	0.914
2128	0.9141
2119	0.9139
2110	0.9132
2101	0.9125
2092	0.9117
2083	0.9113
2074	0.9111
2065	0.912
2056	0.9132
2047	0.9141
2038	0.9145
2029	0.9149
2020	0.9153
2011	0.9158
2002	0.9162
1993	0.9167
1984	0.9168
1975	0.9168
1966	0.917
1957	0.9174
1948	0.9183
1939	0.9192
1930	0.9185
1921	0.9156
1912	0.9131
1903	0.913
1894	0.9146
1885	0.9162
1876	0.9163
1867	0.9161
1858	0.9158
1849	0.9152
1840	0.9147
1831	0.9142
1822	0.9139
1813	0.9137
1804	0.9132
1795	0.9125
1786	0.9117
1777	0.9105
1768	0.909
1759	0.9075
1750	0.9059
1741	0.9044
1732	0.9028
1723	0.9018
1714	0.9006
1705	0.8981
1696	0.8953
1687	0.8863
1678	0.8718
1669	0.8736
1660	0.8813
1651	0.8851
1642	0.8832
1633	0.8836
1624	0.8854
1615	0.8892
1606	0.8907
1597	0.8944
1588	0.898
1579	0.901
1570	0.9024
1561	0.9017
1552	0.8996
1543	0.8971
1534	0.894
1525	0.8904
1516	0.8873
1507	0.8684
1498	0.8575
1489	0.7993
1480	0.6656
1471	0.4324
1462	0.459
1453	0.5559
1444	0.5567
1435	0.5721
1426	0.725
1417	0.7504
1408	0.7728
1399	0.7828
1390	0.6636
1381	0.511
1372	0.5754
1363	0.6136
1354	0.6935
1345	0.7258
1336	0.7175
1327	0.7558
1318	0.7687
1309	0.7765
1300	0.7999
1291	0.8227
1282	0.8313
1273	0.8185
1264	0.8359
1255	0.8158
1246	0.8253
1237	0.7919
1228	0.8032
1219	0.8124
1210	0.8475
1201	0.8358
1192	0.7836
1183	0.8031
1174	0.8257
1165	0.8112
1156	0.8195
1147	0.8346
1138	0.7919
1129	0.7656
1120	0.8175
1111	0.7845
1102	0.7734
1093	0.8144
1084	0.7678
1075	0.766
1066	0.6395
1057	0.3516
1048	0.476
1039	0.6699
1030	0.7387
1021	0.6366
1012	0.7669
1003	0.7944
994	0.8553
985	0.8049
976	0.8541
967	0.8421
958	0.7058
949	0.7575
940	0.8614
931	0.8578
922	0.838
913	0.8733
904	0.8989
895	0.9045
886	0.882
877	0.8835
868	0.913
859	0.9088
850	0.8745
841	0.7815
832	0.8182
823	0.851
814	0.891
805	0.8367
796	0.7592
787	0.9095
778	0.9183
769	0.9178
760	0.9183
751	0.9114
742	0.8606
733	0.8642
724	0.8924
715	0.9093
706	0.9106
697	0.9033
688	0.9123
679	0.9074
