Infrared Spectrum: Delta^4-ANDROSTENE-17Beta-PROPIONATE-3-ONE
Formula: C22 H32 O3
CAS: 57-85-2
State: SOLID (KBr DISC)
Melting point: 167-170 C
Class: COBLENTZ III
Instrument: PERKIN-ELMER 21 (GRATING)
Instrument parameters: FILTER AT ABOUT 10 MICRONS
Sampling: TRANSMISSION
Resolution: 2
1/CM	TRANSMITTANCE
4000	0.8021
3991	0.8025
3982	0.803
3973	0.8034
3964	0.804
3955	0.8044
3946	0.8049
3937	0.8054
3928	0.8058
3919	0.8064
3910	0.8069
3901	0.8075
3892	0.808
3883	0.8085
3874	0.809
3865	0.8095
3856	0.8099
3847	0.8101
3838	0.8107
3829	0.811
3820	0.8114
3811	0.8118
3802	0.8121
3793	0.8121
3784	0.8121
3775	0.8118
3766	0.8118
3757	0.8118
3748	0.8121
3739	0.8122
3730	0.8125
3721	0.8128
3712	0.8132
3703	0.8136
3694	0.814
3685	0.8144
3676	0.8148
3667	0.8151
3658	0.8151
3649	0.8151
3640	0.8153
3631	0.8153
3622	0.8147
3613	0.8139
3604	0.8121
3595	0.8091
3586	0.806
3577	0.8024
3568	0.7957
3559	0.7886
3550	0.7819
3541	0.7757
3532	0.7693
3523	0.7636
3514	0.7581
3505	0.7525
3496	0.7471
3487	0.7417
3478	0.7361
3469	0.7308
3460	0.7268
3451	0.723
3442	0.7197
3433	0.7175
3424	0.7161
3415	0.7151
3406	0.7146
3397	0.7146
3388	0.7171
3379	0.7238
3370	0.7299
3361	0.7351
3352	0.7403
3343	0.7451
3334	0.7485
3325	0.7518
3316	0.7551
3307	0.7587
3298	0.7619
3289	0.7653
3280	0.7686
3271	0.7718
3262	0.7753
3253	0.778
3244	0.7805
3235	0.7831
3226	0.7857
3217	0.7883
3208	0.7908
3199	0.7933
3190	0.7957
3181	0.7981
3172	0.8005
3163	0.8028
3154	0.8048
3145	0.8065
3136	0.8084
3127	0.8101
3118	0.8111
3109	0.8124
3100	0.8135
3091	0.8139
3082	0.8144
3073	0.8143
3064	0.8139
3055	0.8121
3046	0.8081
3037	0.8011
3028	0.7943
3019	0.7751
3010	0.7534
3001	0.7356
2992	0.7146
2983	0.6639
2974	0.5088
2965	0.4399
2956	0.4007
2947	0.3612
2938	0.3305
2929	0.3289
2920	0.3293
2911	0.3307
2902	0.3447
2893	0.3886
2884	0.4465
2875	0.5047
2866	0.5344
2857	0.5434
2848	0.5439
2839	0.538
2830	0.555
2821	0.5844
2812	0.6198
2803	0.7033
2794	0.7668
2785	0.7801
2776	0.7915
2767	0.7998
2758	0.8046
2749	0.8095
2740	0.8125
2731	0.8151
2722	0.818
2713	0.8206
2704	0.8225
2695	0.8243
2686	0.8256
2677	0.8268
2668	0.8274
2659	0.8268
2650	0.8267
2641	0.8265
2632	0.8268
2623	0.828
2614	0.829
2605	0.83
2596	0.8315
2587	0.8331
2578	0.8347
2569	0.8363
2560	0.8377
2551	0.8391
2542	0.8406
2533	0.8421
2524	0.8439
2515	0.8457
2506	0.8473
2497	0.8482
2488	0.849
2479	0.8495
2470	0.8498
2461	0.8499
2452	0.8499
2443	0.8498
2434	0.8498
2425	0.851
2416	0.8531
2407	0.8558
2398	0.8588
2389	0.8618
2380	0.8644
2371	0.8636
2362	0.8603
2353	0.857
2344	0.8564
2335	0.8563
2326	0.8565
2317	0.8567
2308	0.8568
2299	0.8571
2290	0.8573
2281	0.8578
2272	0.8582
2263	0.8587
2254	0.8592
2245	0.8596
2236	0.8602
2227	0.8606
2218	0.8611
2209	0.8616
2200	0.862
2191	0.8624
2182	0.8627
2173	0.8631
2164	0.8635
2155	0.8639
2146	0.8641
2137	0.8644
2128	0.8646
2119	0.8649
2110	0.8651
2101	0.8654
2092	0.8656
2083	0.8658
2074	0.8661
2065	0.8663
2056	0.8665
2047	0.8668
2038	0.8671
2029	0.8675
2020	0.8678
2011	0.8682
2002	0.8684
1993	0.8686
1984	0.869
1975	0.8693
1966	0.8696
1957	0.8697
1948	0.8706
1939	0.8735
1930	0.8757
1921	0.8725
1912	0.8697
1903	0.868
1894	0.8667
1885	0.8666
1876	0.8665
1867	0.8664
1858	0.8656
1849	0.8646
1840	0.8628
1831	0.86
1822	0.8548
1813	0.8463
1804	0.8362
1795	0.8255
1786	0.8115
1777	0.7885
1768	0.7581
1759	0.7245
1750	0.508
1741	0.2685
1732	0.1971
1723	0.4177
1714	0.6447
1705	0.6504
1696	0.5646
1687	0.3477
1678	0.1021
1669	0.1357
1660	0.37
1651	0.5142
1642	0.5819
1633	0.6408
1624	0.5747
1615	0.45
1606	0.695
1597	0.7554
1588	0.7825
1579	0.8025
1570	0.8187
1561	0.8199
1552	0.8171
1543	0.8227
1534	0.8301
1525	0.8318
1516	0.8324
1507	0.8314
1498	0.8268
1489	0.8175
1480	0.7651
1471	0.6157
1462	0.5952
1453	0.5364
1444	0.6023
1435	0.5873
1426	0.6764
1417	0.7575
1408	0.7872
1399	0.7112
1390	0.6085
1381	0.6871
1372	0.7421
1363	0.7021
1354	0.626
1345	0.6871
1336	0.6095
1327	0.6394
1318	0.6392
1309	0.7025
1300	0.7321
1291	0.5737
1282	0.6042
1273	0.3154
1264	0.3829
1255	0.4045
1246	0.3593
1237	0.3114
1228	0.3397
1219	0.3897
1210	0.5192
1201	0.5702
1192	0.5517
1183	0.4972
1174	0.6465
1165	0.7251
1156	0.7458
1147	0.7601
1138	0.7597
1129	0.7143
1120	0.6655
1111	0.7162
1102	0.7497
1093	0.6685
1084	0.4766
1075	0.4614
1066	0.6446
1057	0.7211
1048	0.5285
1039	0.5716
1030	0.631
1021	0.4747
1012	0.6657
1003	0.7519
994	0.7588
985	0.7626
976	0.7908
967	0.753
958	0.7347
949	0.773
940	0.671
931	0.7993
922	0.8248
913	0.8171
904	0.8336
895	0.811
886	0.7965
877	0.8235
868	0.6926
859	0.7393
850	0.8283
841	0.8325
832	0.8125
823	0.8288
814	0.8294
805	0.761
796	0.8328
787	0.858
778	0.7734
769	0.8541
760	0.8604
751	0.8518
742	0.8475
733	0.86
724	0.8634
715	0.8637
706	0.8653
697	0.8499
688	0.7719
679	0.8337
670	0.8466
661	0.8466
