Infrared Spectrum: ESTRA-1,3,5(10)-TRIENE-3,17Alpha-DIOL
Formula: C18 H24 O2
CAS: 57-91-0
State: SOLID (KBr DISC)
Class: COBLENTZ III
Instrument: BECKMAN IR-7
Sampling: TRANSMISSION
Resolution: 4
Origin: THE WORCESTER FOUNDATION FOR EXPERIMENTAL BIOLOGY, Neal L. McNiven
1/CM	TRANSMITTANCE
600.729	0.45
609.479	0.432
618.229	0.458
626.979	0.478
635.729	0.471
644.479	0.523
653.229	0.541
661.979	0.577
670.729	0.596
679.479	0.616
688.229	0.617
696.979	0.629
705.729	0.634
714.479	0.588
723.229	0.59
731.979	0.558
740.729	0.652
749.48	0.667
758.23	0.695
766.98	0.645
775.73	0.513
784.48	0.446
793.23	0.489
801.98	0.629
810.73	0.689
819.48	0.575
828.23	0.468
836.98	0.654
845.73	0.598
854.48	0.708
863.23	0.38
871.98	0.473
880.73	0.481
889.48	0.571
898.23	0.73
906.98	0.692
915.73	0.223
924.48	0.524
933.23	0.5821
941.98	0.5371
950.73	0.618
959.48	0.768
968.23	0.343
976.98	0.626
985.73	0.6209
994.48	0.574
1003.23	0.672
1011.98	0.407
1020.73	0.605
1029.48	0.317
1038.23	0.412
1046.98	0.542
1055.73	0.4
1064.48	0.576
1073.23	0.324
1081.98	0.592
1090.73	0.656
1099.48	0.424
1108.23	0.506
1116.98	0.544
1125.73	0.556
1134.48	0.584
1143.23	0.489
1151.98	0.435
1160.73	0.291
1169.48	0.4491
1178.23	0.529
1186.98	0.517
1195.73	0.498
1204.48	0.399
1213.23	0.277
1221.98	0.201
1230.73	0.137
1239.48	0.202
1248.23	0.153
1256.98	0.2051
1265.73	0.473
1274.48	0.436
1283.23	0.154
1291.98	0.203
1300.73	0.4281
1309.48	0.638
1318.23	0.486
1326.98	0.497
1335.73	0.52
1344.48	0.435
1353.23	0.318
1361.98	0.335
1370.73	0.447
1379.48	0.3
1388.23	0.515
1396.98	0.529
1405.73	0.443
1414.48	0.432
1423.23	0.485
1431.98	0.349
1440.73	0.192
1449.48	0.184
1458.23	0.242
1466.98	0.253
1475.73	0.395
1484.48	0.394
1493.23	0.15
1501.98	0.193
1510.73	0.4739
1519.48	0.7431
1528.23	0.82
1536.98	0.841
1545.73	0.828
1554.48	0.791
1563.23	0.712
1571.98	0.581
1580.73	0.308
1589.48	0.38
1598.23	0.408
1606.98	0.256
1615.73	0.363
1624.48	0.572
1633.23	0.778
1641.98	0.851
1650.73	0.872
1659.48	0.857
1668.23	0.822
1676.98	0.83
1685.73	0.877
1694.48	0.907
1703.23	0.91
1711.98	0.901
1720.73	0.868
1729.48	0.851
1738.23	0.898
1746.98	0.912
1755.73	0.933
1764.48	0.948
1773.23	0.962
1781.98	0.964
1790.73	0.962
1799.48	0.962
1808.23	0.96
1816.98	0.956
1825.73	0.952
1834.48	0.951
1843.23	0.947
1851.98	0.937
1860.73	0.915
1869.48	0.912
1878.23	0.932
1886.98	0.945
1895.73	0.95
1904.48	0.955
1913.23	0.955
1921.98	0.95
1930.73	0.949
1939.48	0.947
1948.23	0.944
1956.98	0.939
1965.73	0.939
1974.48	0.938
1983.23	0.936
1991.98	0.936
2000.73	0.9347
2009.48	0.934
2018.23	0.933
2026.98	0.933
2035.73	0.932
2044.48	0.931
2053.23	0.9306
2061.98	0.9286
2070.73	0.9276
2079.48	0.925
2088.23	0.924
2096.98	0.9225
2105.73	0.9205
2114.48	0.9195
2123.23	0.9175
2131.98	0.9165
2140.73	0.915
2149.48	0.913
2158.23	0.9104
2166.98	0.9074
2175.73	0.9044
2184.48	0.9024
2193.23	0.8993
2201.98	0.8963
2210.73	0.894
2219.48	0.891
2228.23	0.888
2236.98	0.8852
2245.73	0.8822
2254.48	0.8792
2263.23	0.8752
2271.98	0.8712
2280.73	0.8672
2289.48	0.8633
2298.23	0.86
2306.98	0.8581
2315.73	0.8513
2324.49	0.8461
2333.24	0.843
2341.99	0.841
2350.74	0.838
2359.49	0.835
2368.24	0.833
2376.99	0.8309
2385.74	0.8289
2394.49	0.8216
2403.24	0.8108
2411.99	0.8069
2420.74	0.8057
2429.49	0.7989
2438.24	0.7814
2446.99	0.7746
2455.74	0.7718
2464.49	0.7663
2473.24	0.753
2481.99	0.7419
2490.74	0.7324
2499.49	0.725
2508.24	0.716
2516.99	0.7087
2525.74	0.7056
2534.49	0.7036
2543.24	0.7022
2551.99	0.6986
2560.74	0.6947
2569.49	0.6831
2578.24	0.6705
2586.99	0.6615
2595.74	0.6534
2604.49	0.6434
2613.24	0.6501
2621.99	0.653
2630.74	0.6524
2639.49	0.6465
2648.24	0.6318
2656.99	0.6138
2665.74	0.605
2674.49	0.5988
2683.24	0.5862
2691.99	0.5778
2700.74	0.571
2709.49	0.57
2718.24	0.571
2726.99	0.5758
2735.74	0.5788
2744.49	0.579
2753.24	0.579
2761.99	0.5667
2770.74	0.5506
2779.49	0.5317
2788.24	0.4905
2796.99	0.435
2805.74	0.3595
2814.49	0.348
2823.24	0.3017
2831.99	0.2443
2840.74	0.1585
2849.49	0.1058
2858.24	0.1425
2866.99	0.1653
2875.74	0.1913
2884.49	0.1899
2893.24	0.1334
2901.99	0.0815
2910.74	0.0644
2919.49	0.0545
2928.24	0.0972
2936.99	0.111
2945.74	0.1454
2954.49	0.1801
2963.24	0.2707
2971.99	0.3582
2980.74	0.388
2989.49	0.3876
2998.24	0.3687
3006.99	0.3452
3015.74	0.2906
3024.49	0.3169
3033.24	0.3325
3041.99	0.3281
3050.74	0.2985
3059.49	0.269
3068.24	0.2825
3076.99	0.2788
3085.74	0.2651
3094.49	0.2542
3103.24	0.2419
3111.99	0.2321
3120.74	0.2171
3129.49	0.2083
3138.24	0.1986
3146.99	0.1896
3155.74	0.1831
3164.49	0.1695
3173.24	0.1645
3181.99	0.1567
3190.74	0.1512
3199.49	0.1492
3208.24	0.148
3216.99	0.1471
3225.74	0.146
3234.49	0.146
3243.24	0.146
3251.99	0.1469
3260.74	0.148
3269.49	0.15
3278.24	0.153
3286.99	0.164
3295.74	0.166
3304.49	0.169
3313.24	0.169
3321.99	0.168
3330.74	0.166
3339.49	0.166
3348.24	0.166
3356.99	0.1661
3365.74	0.1682
3374.49	0.171
3383.24	0.174
3391.99	0.1742
3400.74	0.1748
3409.49	0.174
3418.24	0.172
3426.99	0.171
3435.74	0.171
3444.49	0.1713
3453.24	0.1734
3461.99	0.178
3470.74	0.1838
3479.49	0.1984
3488.24	0.2132
3496.99	0.2323
3505.74	0.2876
3514.49	0.3229
3523.24	0.3767
3531.99	0.4203
3540.74	0.4587
3549.49	0.499
3558.24	0.528
3566.99	0.5637
3575.74	0.5959
3584.49	0.6402
3593.24	0.693
3601.99	0.7237
3610.74	0.75
3619.49	0.7698
3628.24	0.786
3636.99	0.8113
3645.74	0.8235
3654.49	0.828
3663.24	0.83
3671.99	0.8337
3680.74	0.835
3689.49	0.837
3698.24	0.837
3706.99	0.8351
3715.74	0.835
3724.49	0.8331
3733.24	0.833
3741.99	0.832
3750.74	0.83
3759.49	0.829
3768.24	0.828
3776.99	0.8279
3785.74	0.825
3794.49	0.825
3803.24	0.825
3811.99	0.8239
3820.74	0.8219
3829.49	0.8187
3838.24	0.814
3846.99	0.813
3855.74	0.812
3864.49	0.812
3873.24	0.8107
3881.99	0.8097
3890.74	0.809
3899.49	0.807
3908.24	0.806
3916.99	0.8046
3925.74	0.8036
3934.49	0.8016
3943.24	0.7996
3951.99	0.7976
3960.74	0.7956
3969.49	0.793
3978.24	0.7915
3986.99	0.791
3995.74	0.7895
