Infrared Spectrum: 4,5-IMIDAZOLE DICARBOXYLIC ACID
Formula: C5 H4 N2 O4
CAS: 570-22-9
State: SOLID (SPLIT MULL)
Class: COBLENTZ III
Instrument: BECKMAN IR-9 (GRATING)
Instrument parameters: ORDER CHANGES: 670, 1200, 2000 CM^-^1
Sampling: TRANSMISSION
Resolution: 2
Origin: DOW CHEMICAL COMPANY
1/CM	TRANSMITTANCE
398	0.4966
407	0.509
416	0.5028
425	0.4059
434	0.5337
443	0.5835
452	0.5893
461	0.594
470	0.5896
479	0.5764
488	0.5597
497	0.5407
506	0.5169
515	0.4902
524	0.4603
533	0.4176
542	0.3598
551	0.3146
560	0.2923
569	0.2901
578	0.2965
587	0.3077
596	0.3336
605	0.3678
614	0.3994
623	0.4553
632	0.2299
641	0.6421
650	0.6887
659	0.7228
668	0.7592
677	0.7898
686	0.8165
695	0.8358
704	0.8304
713	0.8215
722	0.8026
731	0.8201
740	0.8368
749	0.8498
758	0.7678
767	0.313
776	0.6908
785	0.7746
794	0.7584
803	0.7061
812	0.5623
821	0.5929
830	0.4983
839	0.4115
848	0.3357
857	0.2837
866	0.202
875	0.1406
884	0.1337
893	0.1679
902	0.1618
911	0.1305
920	0.1657
929	0.5209
938	0.5722
947	0.4934
956	0.3908
965	0.3004
974	0.2458
983	0.2309
992	0.2307
1001	0.2503
1010	0.2821
1019	0.3173
1028	0.3564
1037	0.3966
1046	0.4299
1055	0.451
1064	0.4427
1073	0.328
1082	0.441
1091	0.4673
1100	0.489
1109	0.5079
1118	0.5239
1127	0.5378
1136	0.5464
1145	0.5494
1154	0.5342
1163	0.5142
1172	0.4886
1181	0.4436
1190	0.4169
1199	0.5205
1208	0.6289
1217	0.6703
1226	0.6675
1235	0.5958
1244	0.3986
1253	0.2828
1262	0.4091
1271	0.4526
1280	0.6467
1289	0.6786
1298	0.6878
1307	0.6856
1316	0.6741
1325	0.6571
1334	0.6295
1343	0.5841
1352	0.5184
1361	0.4027
1370	0.2599
1379	0.1377
1388	0.0718
1397	0.0611
1406	0.3568
1415	0.3695
1424	0.2606
1433	0.1995
1442	0.1613
1451	0.1131
1460	0.0387
1469	0.0305
1478	0.0334
1487	0.0799
1496	0.2009
1505	0.3584
1514	0.3736
1523	0.3093
1532	0.1829
1541	0.1501
1550	0.1829
1559	0.2098
1568	0.2016
1577	0.1292
1586	0.0764
1595	0.131
1604	0.237
1613	0.2999
1622	0.3659
1631	0.4152
1640	0.4429
1649	0.4691
1658	0.4921
1667	0.5158
1676	0.5405
1685	0.5834
1694	0.6684
1703	0.7361
1712	0.7851
1721	0.8287
1730	0.8668
1739	0.8817
1748	0.8811
1757	0.8738
1766	0.8614
1775	0.8489
1784	0.8401
1793	0.8321
1802	0.8283
1811	0.8248
1820	0.8213
1829	0.8178
1838	0.8156
1847	0.8105
1856	0.8028
1865	0.794
1874	0.7851
1883	0.7755
1892	0.7703
1901	0.7712
1910	0.7736
1919	0.7811
1928	0.7841
1937	0.7875
1946	0.796
1955	0.8022
1964	0.8028
1973	0.8031
1982	0.8037
1991	0.8065
2000	0.809
2009	0.8121
2018	0.8108
2027	0.8153
2036	0.8172
2045	0.8194
2054	0.8224
2063	0.8252
2072	0.8261
2081	0.8263
2090	0.8263
2099	0.8265
2108	0.8271
2117	0.8259
2126	0.8234
2135	0.8209
2144	0.8182
2153	0.8156
2162	0.8133
2171	0.808
2180	0.8025
2189	0.7986
2198	0.7915
2207	0.7825
2216	0.7745
2225	0.7661
2234	0.758
2243	0.7476
2252	0.7368
2261	0.7262
2270	0.7162
2279	0.7078
2288	0.6995
2297	0.6918
2306	0.6849
2315	0.6794
2324	0.6739
2333	0.6684
2342	0.6628
2351	0.6568
2360	0.6498
2369	0.6386
2378	0.6212
2387	0.6031
2396	0.5942
2405	0.584
2414	0.5733
2423	0.5628
2432	0.5536
2441	0.5444
2450	0.5382
2459	0.5331
2468	0.5273
2477	0.5193
2486	0.5103
2495	0.5024
2504	0.4948
2513	0.4871
2522	0.4794
2531	0.4712
2540	0.4622
2549	0.4525
2558	0.4421
2567	0.4316
2576	0.4203
2585	0.408
2594	0.3929
2603	0.3809
2612	0.37
2621	0.3612
2630	0.353
2639	0.3464
2648	0.3418
2657	0.3408
2666	0.3464
2675	0.3466
2684	0.343
2693	0.3362
2702	0.3293
2711	0.324
2720	0.3214
2729	0.3225
2738	0.3243
2747	0.3268
2756	0.3264
2765	0.3218
2774	0.317
2783	0.3146
2792	0.3132
2801	0.3101
2810	0.3068
2819	0.3089
2828	0.3126
2837	0.3192
2846	0.3259
2855	0.3345
2864	0.3425
2873	0.3484
2882	0.352
2891	0.3604
2900	0.3759
2909	0.3847
2918	0.3864
2927	0.3858
2936	0.3828
2945	0.3794
2954	0.3758
2963	0.3722
2972	0.3712
2981	0.3766
2990	0.383
2999	0.3936
3008	0.4064
3017	0.4222
3026	0.4403
3035	0.4591
3044	0.4785
3053	0.4957
3062	0.5129
3071	0.5215
3080	0.5265
3089	0.5327
3098	0.5428
3107	0.556
3116	0.5709
3125	0.5888
3134	0.6066
3143	0.6186
3152	0.6162
3161	0.5366
3170	0.293
3179	0.3937
3188	0.6594
3197	0.7146
3206	0.7355
3215	0.746
3224	0.7541
3233	0.7603
3242	0.7645
3251	0.7683
3260	0.7718
3269	0.7747
3278	0.7774
3287	0.7789
3296	0.7804
3305	0.7815
3314	0.7821
3323	0.7822
3332	0.7821
3341	0.7811
3350	0.7794
3359	0.7785
3368	0.7793
3377	0.7821
3386	0.7889
3395	0.7891
3404	0.7888
3413	0.7881
3422	0.7874
3431	0.7855
3440	0.7811
3449	0.7803
3458	0.7814
3467	0.7887
3476	0.7932
3485	0.7947
3494	0.796
3503	0.7965
3512	0.7974
3521	0.7986
3530	0.7999
3539	0.8011
3548	0.8025
3557	0.8033
3566	0.8038
3575	0.8042
3584	0.8051
3593	0.8061
3602	0.808
3611	0.8106
3620	0.8141
3629	0.8176
3638	0.8238
3647	0.8287
3656	0.8331
3665	0.8364
3674	0.839
3683	0.8395
3692	0.8401
3701	0.8405
3710	0.8398
3719	0.839
3728	0.8378
3737	0.8364
3746	0.835
3755	0.833
3764	0.8303
3773	0.8273
3782	0.8241
3791	0.8193
