Infrared Spectrum: 1,4-DIMETHYLNAPHTHALENE
Formula: C12 H12
CAS: 571-58-4
State: LIQUID
Class: COBLENTZ
Instrument: Not specified, most likely a prism, grating, or hybrid spectrometer.
Sampling: TRANSMISSION
Path length: 0.005 CM
Resolution: 4
Origin: ANDERSON PHYSICAL LABORATORY
1/CM	TRANSMITTANCE
675.592	0.706
683.998	0.624
692.404	0.699
700.81	0.398
709.216	0.519
717.622	0.733
726.028	0.676
734.434	0.462
742.84	0.357
751.246	0.053
759.652	0.029
768.058	0.061
776.464	0.049
784.87	0.2699
793.276	0.0351
801.682	0.0889
810.088	0.229
818.494	0.098
826.9	0.026
835.306	0.062
843.712	0.3841
852.118	0.603
860.524	0.498
868.93	0.613
877.336	0.709
885.742	0.691
894.148	0.669
902.554	0.574
910.96	0.332
919.366	0.711
927.772	0.736
936.178	0.723
944.584	0.697
952.99	0.5471
961.396	0.5669
969.802	0.621
978.208	0.582
986.614	0.458
995.02	0.47
1003.43	0.517
1011.83	0.5321
1020.24	0.6011
1028.64	0.2572
1037.05	0.2319
1045.46	0.2849
1053.86	0.667
1062.27	0.699
1070.67	0.666
1079.08	0.672
1087.49	0.6601
1095.89	0.736
1104.3	0.735
1112.7	0.688
1121.11	0.5649
1129.52	0.736
1137.92	0.726
1146.33	0.601
1154.73	0.579
1163.14	0.389
1171.55	0.309
1179.95	0.6301
1188.36	0.691
1196.76	0.702
1205.17	0.5101
1213.58	0.637
1221.98	0.552
1230.39	0.507
1238.79	0.669
1247.2	0.706
1255.61	0.691
1264.01	0.5319
1272.42	0.4009
1280.82	0.446
1289.23	0.696
1297.64	0.773
1306.04	0.785
1314.45	0.77
1322.85	0.718
1331.26	0.708
1339.67	0.684
1348.07	0.631
1356.48	0.631
1364.88	0.582
1373.29	0.467
1381.7	0.229
1390.1	0.059
1398.51	0.062
1406.91	0.166
1415.32	0.417
1423.73	0.3889
1432.13	0.127
1440.54	0.257
1448.94	0.074
1457.35	0.133
1465.76	0.154
1474.16	0.121
1482.57	0.4381
1490.97	0.571
1499.38	0.604
1507.79	0.5079
1516.19	0.223
1524.6	0.269
1533	0.5919
1541.41	0.691
1549.82	0.735
1558.22	0.729
1566.63	0.601
1575.03	0.468
1583.44	0.565
1591.85	0.5
1600.25	0.1879
1608.66	0.1579
1617.06	0.52
1625.47	0.591
1633.88	0.631
1642.28	0.664
1650.69	0.67
1659.09	0.72
1667.5	0.751
1675.91	0.763
1684.31	0.757
1692.72	0.726
1701.12	0.717
1709.53	0.733
1717.94	0.754
1726.34	0.775
1734.75	0.781
1743.15	0.754
1751.56	0.751
1759.97	0.784
1768.37	0.824
1776.78	0.823
1785.18	0.797
1793.59	0.755
1802	0.687
1810.4	0.708
1818.81	0.75
1827.21	0.715
1835.62	0.711
1844.03	0.702
1852.43	0.636
1860.84	0.616
1869.24	0.685
1877.65	0.794
1886.06	0.821
1894.46	0.785
1902.87	0.764
1911.27	0.751
1919.68	0.711
1928.09	0.679
1936.49	0.699
1944.9	0.715
1953.3	0.706
1961.71	0.715
1970.12	0.763
1978.52	0.832
1986.93	0.883
1995.33	0.902
2003.74	0.907
2012.15	0.908
2020.55	0.908
2028.96	0.908
2037.36	0.907
2045.77	0.907
2054.18	0.905
2062.58	0.9043
2070.99	0.901
2079.39	0.898
2087.8	0.899
2096.21	0.9016
2104.61	0.902
2113.02	0.9052
2121.42	0.9081
2129.83	0.9136
2138.24	0.914
2146.64	0.914
2155.05	0.914
2163.45	0.914
2171.86	0.914
2180.27	0.914
2188.67	0.914
2197.08	0.916
2205.48	0.916
2213.89	0.916
2222.3	0.9155
2230.7	0.914
2239.11	0.9109
2247.51	0.904
2255.92	0.9018
2264.33	0.901
2272.73	0.901
2281.14	0.899
2289.54	0.896
2297.95	0.8942
2306.36	0.8904
2314.76	0.887
2323.17	0.886
2331.57	0.887
2339.98	0.887
2348.39	0.887
2356.79	0.8858
2365.2	0.8831
2373.61	0.8789
2382.01	0.8746
2390.42	0.868
2398.82	0.8645
2407.23	0.863
2415.64	0.8681
2424.04	0.874
2432.45	0.8845
2440.85	0.886
2449.26	0.886
2457.67	0.886
2466.07	0.887
2474.48	0.889
2482.88	0.892
2491.29	0.8929
2499.7	0.893
2508.1	0.8926
2516.51	0.8877
2524.91	0.8888
2533.32	0.8924
2541.73	0.8984
2550.13	0.899
2558.54	0.899
2566.94	0.899
2575.35	0.898
2583.76	0.896
2592.16	0.8952
2600.57	0.8949
2608.97	0.893
2617.38	0.894
2625.79	0.896
2634.19	0.898
2642.6	0.898
2651	0.897
2659.41	0.896
2667.82	0.892
2676.22	0.8861
2684.63	0.8806
2693.03	0.8773
2701.44	0.8655
2709.85	0.8541
2718.25	0.8215
2726.66	0.7971
2735.06	0.7843
2743.47	0.7863
2751.88	0.8219
2760.28	0.83
2768.69	0.8265
2777.09	0.8143
2785.5	0.8001
2793.91	0.7741
2802.31	0.7354
2810.72	0.6931
2819.12	0.6445
2827.53	0.5875
2835.94	0.5098
2844.34	0.3736
2852.75	0.2723
2861.15	0.2695
2869.56	0.2745
2877.97	0.2721
2886.37	0.2485
2894.78	0.2169
2903.18	0.1815
2911.59	0.1432
2920	0.1183
2928.4	0.113
2936.81	0.1143
2945.21	0.1178
2953.62	0.1214
2962.03	0.1292
2970.43	0.1402
2978.84	0.16
2987.24	0.2031
2995.65	0.219
3004.06	0.2025
3012.46	0.1801
3020.87	0.1667
3029.27	0.155
3037.68	0.1529
3046.09	0.152
3054.49	0.155
3062.9	0.1573
3071.3	0.162
3079.71	0.1772
3088.12	0.2137
3096.52	0.3158
3104.93	0.4496
3113.33	0.5622
3121.74	0.6542
3130.15	0.7254
3138.55	0.7715
3146.96	0.8058
3155.36	0.8277
3163.77	0.839
3172.18	0.8481
3180.58	0.851
3188.99	0.853
3197.39	0.854
3205.8	0.8563
3214.21	0.859
3222.61	0.8644
3231.02	0.8711
3239.42	0.874
3247.83	0.875
3256.24	0.877
3264.64	0.88
3273.05	0.88
3281.45	0.88
3289.86	0.88
3298.27	0.88
3306.67	0.884
3315.08	0.884
3323.48	0.884
3331.89	0.883
3340.3	0.883
3348.7	0.884
3357.11	0.8853
3365.51	0.886
3373.92	0.886
3382.33	0.886
3390.73	0.887
3399.14	0.8887
3407.54	0.89
3415.95	0.892
3424.36	0.892
3432.76	0.892
3441.17	0.892
3449.57	0.8914
3457.98	0.8895
3466.39	0.889
3474.79	0.8859
3483.2	0.881
3491.6	0.878
3500.01	0.8748
3508.42	0.866
3516.82	0.8613
3525.23	0.8581
3533.63	0.8546
3542.04	0.853
3550.45	0.851
3558.85	0.851
3567.26	0.8537
3575.66	0.8587
3584.07	0.8605
3592.48	0.8668
3600.88	0.8762
3609.29	0.8866
3617.69	0.89
3626.1	0.8947
3634.51	0.9002
3642.91	0.901
3651.32	0.901
3659.72	0.899
3668.13	0.898
3676.54	0.896
3684.94	0.896
3693.35	0.896
3701.75	0.895
3710.16	0.8935
3718.57	0.89
3726.97	0.89
3735.38	0.8895
3743.78	0.8849
3752.19	0.8802
3760.6	0.878
3769	0.8757
3777.41	0.872
3785.81	0.8692
3794.22	0.869
3802.63	0.869
3811.03	0.869
3819.44	0.8654
3827.84	0.863
3836.25	0.863
3844.66	0.863
3853.06	0.865
3861.47	0.866
3869.87	0.868
3878.28	0.868
3886.69	0.868
3895.09	0.868
3903.5	0.8675
3911.9	0.867
3920.31	0.868
3928.72	0.868
3937.12	0.868
3945.53	0.868
3953.93	0.8687
3962.34	0.869
3970.75	0.869
3979.15	0.869
3987.56	0.869
3995.96	0.869
