Infrared Spectrum: Acetophenone, 4'-butoxy-
Formula: C12 H16 O2
CAS: 5736-89-0
State: SOLUTION (10% CCl4 FOR 3800-1340, 10% CS2 FOR 1340-470 CM^-^1)
Class: COBLENTZ III
Instrument: DOW KBr FOREPRISM-GRATING
Instrument parameters: BLAZED AT 3.5, 12.0, 20.0 MICRON AND CHANGED AT 5.0, 7.5, 14.9 MICRON
Sampling: TRANSMISSION
Path length: 0.011 CM, 0.011 CM, 0.011 CM, 0.011 CM
Resolution: 2
Origin: DOW CHEMICAL COMPANY
1/CM	TRANSMITTANCE
3800	0.882
3791	0.8818
3782	0.8816
3773	0.8812
3764	0.8807
3755	0.8803
3746	0.88
3737	0.8797
3728	0.8794
3719	0.879
3710	0.8782
3701	0.8753
3692	0.8675
3683	0.8573
3674	0.8509
3665	0.8599
3656	0.8684
3647	0.8728
3638	0.8752
3629	0.8764
3620	0.8765
3611	0.8768
3602	0.8774
3593	0.8773
3584	0.8765
3575	0.8741
3566	0.8713
3557	0.8687
3548	0.8662
3539	0.864
3530	0.8618
3521	0.8601
3512	0.8586
3503	0.858
3494	0.8577
3485	0.8583
3476	0.859
3467	0.8597
3458	0.8605
3449	0.8617
3440	0.863
3431	0.8643
3422	0.8656
3413	0.866
3404	0.8664
3395	0.8668
3386	0.8668
3377	0.8663
3368	0.8606
3359	0.8405
3350	0.8155
3341	0.809
3332	0.8223
3323	0.8367
3314	0.8514
3305	0.8603
3296	0.8618
3287	0.862
3278	0.8623
3269	0.8624
3260	0.8617
3251	0.8605
3242	0.8595
3233	0.8578
3224	0.8548
3215	0.8489
3206	0.8417
3197	0.8402
3188	0.8405
3179	0.8415
3170	0.843
3161	0.8428
3152	0.8344
3143	0.8333
3134	0.8333
3125	0.8245
3116	0.8104
3107	0.8045
3098	0.7899
3089	0.7858
3080	0.7546
3071	0.7444
3062	0.7364
3053	0.7286
3044	0.739
3035	0.7653
3026	0.7638
3017	0.6882
3008	0.646
2999	0.6521
2990	0.5795
2981	0.3941
2972	0.2087
2963	0.0921
2954	0.1846
2945	0.1726
2936	0.1567
2927	0.2557
2918	0.3572
2909	0.421
2900	0.4795
2891	0.4946
2882	0.298
2873	0.3035
2864	0.4818
2855	0.6155
2846	0.6518
2837	0.7201
2828	0.7675
2819	0.7928
2810	0.8087
2801	0.822
2792	0.8306
2783	0.8258
2774	0.8156
2765	0.8154
2756	0.8176
2747	0.822
2738	0.8292
2729	0.8374
2720	0.8458
2711	0.8506
2702	0.8518
2693	0.8511
2684	0.8496
2675	0.8492
2666	0.8521
2657	0.8554
2648	0.8552
2639	0.8407
2630	0.8315
2621	0.8308
2612	0.8311
2603	0.8306
2594	0.8278
2585	0.8206
2576	0.8121
2567	0.8061
2558	0.8092
2549	0.8196
2540	0.8328
2531	0.8427
2522	0.8435
2513	0.8368
2504	0.837
2495	0.8396
2486	0.8457
2477	0.8521
2468	0.8583
2459	0.8613
2450	0.8594
2441	0.8518
2432	0.8445
2423	0.8425
2414	0.8463
2405	0.8532
2396	0.8563
2387	0.857
2378	0.8565
2369	0.8582
2360	0.8599
2351	0.8611
2342	0.8621
2333	0.8625
2324	0.8617
2315	0.86
2306	0.8578
2297	0.8578
2288	0.8593
2279	0.8616
2270	0.864
2261	0.8664
2252	0.8688
2243	0.8704
2234	0.8718
2225	0.8725
2216	0.8721
2207	0.8692
2198	0.8706
2189	0.8744
2180	0.8768
2171	0.8794
2162	0.8816
2153	0.8831
2144	0.8823
2135	0.8809
2126	0.8786
2117	0.8794
2108	0.8799
2099	0.8783
2090	0.875
2081	0.8712
2072	0.8674
2063	0.8637
2054	0.8621
2045	0.8653
2036	0.8692
2027	0.8716
2018	0.871
2009	0.8689
2000	0.8686
1991	0.8681
1982	0.8652
1973	0.8575
1964	0.8565
1955	0.867
1946	0.8578
1937	0.8587
1928	0.8688
1919	0.868
1910	0.8258
1901	0.8401
1892	0.8595
1883	0.8686
1874	0.868
1865	0.8643
1856	0.8723
1847	0.8774
1838	0.8806
1829	0.8815
1820	0.8799
1811	0.8755
1802	0.8704
1793	0.8627
1784	0.849
1775	0.8318
1766	0.8327
1757	0.8338
1748	0.8285
1739	0.819
1730	0.8078
1721	0.7949
1712	0.7618
1703	0.6868
1694	0.2457
1685	0.006
1676	0.0323
1667	0.5414
1658	0.6688
1649	0.6622
1640	0.6865
1631	0.6849
1622	0.5994
1613	0.1544
1604	0.0045
1595	0.0684
1586	0.3386
1577	0.1292
1568	0.5997
1559	0.6976
1550	0.7535
1541	0.7517
1532	0.7265
1523	0.6908
1514	0.1711
1505	0.3593
1496	0.7171
1487	0.7349
1478	0.3527
1469	0.3264
1460	0.4866
1451	0.5972
1442	0.6088
1433	0.4267
1424	0.2841
1415	0.4182
1406	0.6556
1397	0.5539
1388	0.5195
1379	0.5801
1370	0.518
1361	0.0332
1352	0.3384
1343	0.6384
1334	0.7233
1325	0.6925
1316	0.4087
1307	0.2605
1298	0.32
1289	0.521
1280	0.473
1271	0.0584
1262	0.0285
1253	0.0147
1244	0.0179
1235	0.1706
1226	0.2779
1217	0.4309
1208	0.6481
1199	0.7205
1190	0.7311
1181	0.5298
1172	0.0285
1163	0.1446
1154	0.6401
1145	0.6458
1136	0.7182
1127	0.6676
1118	0.5593
1109	0.5929
1100	0.7576
1091	0.7596
1082	0.7421
1073	0.4749
1064	0.4548
1055	0.7321
1046	0.7282
1037	0.5243
1028	0.381
1019	0.4855
1010	0.4757
1001	0.5939
992	0.7168
983	0.7083
974	0.541
965	0.5247
956	0.2962
947	0.4797
938	0.7761
929	0.8325
920	0.863
911	0.855
902	0.8324
893	0.8554
884	0.8065
875	0.6915
866	0.8078
857	0.8131
848	0.6351
839	0.0866
830	0.081
821	0.5836
812	0.6711
803	0.5708
794	0.7772
785	0.8665
776	0.8773
767	0.8766
758	0.848
749	0.8464
740	0.7775
731	0.867
722	0.8778
713	0.8916
704	0.8907
695	0.8695
686	0.8953
677	0.9024
668	0.9005
659	0.8885
650	0.8657
641	0.8785
632	0.7665
623	0.8467
614	0.8378
605	0.7945
596	0.4302
587	0.1586
578	0.4319
569	0.7118
560	0.7721
551	0.8256
542	0.836
533	0.8395
524	0.8309
515	0.8171
506	0.7701
497	0.7461
488	0.7997
479	0.8275
470	0.8404
