Infrared Spectrum: N-(Beta-BROMOETHYL)PHTHALIMIDE
Formula: C10 H8 N O2 Br
CAS: 574-98-1
State: SOLUTION (10% CHCl3)
Class: COBLENTZ
Instrument: Not specified, most likely a prism, grating, or hybrid spectrometer.
Sampling: TRANSMISSION
Path length: 0.009 CM
Resolution: 4
MICROMETERS	TRANSMITTANCE
2.044	0.996
2.08045	0.998
2.1169	0.998
2.15335	0.994
2.1898	0.994
2.22626	0.998
2.26271	0.992
2.29916	0.992
2.33561	0.985
2.37206	0.982
2.40851	0.975
2.44496	0.982
2.48141	0.987
2.51786	0.987
2.55432	0.991
2.59077	0.991
2.62722	0.982
2.66367	0.985
2.70012	0.987
2.73657	0.98
2.77302	0.982
2.80947	0.942
2.84593	0.937
2.88238	0.917
2.91883	0.951
2.95528	0.964
2.99173	0.976
3.02818	0.978
3.06463	0.978
3.10108	0.969
3.13753	0.967
3.17399	0.964
3.21044	0.957
3.24689	0.91
3.28334	0.816
3.31979	0.817
3.35624	0.878
3.39269	0.903
3.42914	0.917
3.46559	0.942
3.50205	0.955
3.5385	0.962
3.57495	0.966
3.6114	0.967
3.64785	0.971
3.6843	0.969
3.72075	0.964
3.7572	0.964
3.79365	0.964
3.83011	0.969
3.86656	0.973
3.90301	0.967
3.93946	0.964
3.97591	0.971
4.01236	0.966
4.04881	0.951
4.08526	0.933
4.12171	0.935
4.15817	0.935
4.19462	0.955
4.23107	0.955
4.26752	0.955
4.30397	0.957
4.34042	0.951
4.37687	0.95
4.41332	0.957
4.44978	0.955
4.48623	0.957
4.52268	0.962
4.55913	0.96
4.59558	0.96
4.63203	0.957
4.66848	0.957
4.70493	0.957
4.74138	0.957
4.77784	0.958
4.81429	0.957
4.85074	0.957
4.88719	0.955
4.92364	0.95
4.96009	0.957
4.99654	0.955
5.03299	0.944
5.06944	0.948
5.1059	0.941
5.14235	0.919
5.1788	0.932
5.21525	0.93
5.2517	0.937
5.28815	0.937
5.3246	0.93
5.36105	0.935
5.3975	0.916
5.43396	0.892
5.47041	0.896
5.50686	0.907
5.54331	0.869
5.57976	0.644
5.61621	0.275
5.65266	0.482
5.68911	0.705
5.72557	0.646
5.76202	0.317
5.79847	0.001
5.83492	0.01
5.87137	0.216
5.90782	0.478
5.94427	0.585
5.98072	0.825
6.01717	0.875
6.05363	0.892
6.09008	0.903
6.12653	0.907
6.16298	0.798
6.19943	0.803
6.23588	0.869
6.27233	0.875
6.30878	0.903
6.34523	0.912
6.38169	0.923
6.41814	0.93
6.45459	0.937
6.49104	0.925
6.52749	0.926
6.56394	0.925
6.60039	0.917
6.63684	0.91
6.67329	0.9
6.70975	0.914
6.7462	0.907
6.78265	0.682
6.8191	0.758
6.85555	0.794
6.892	0.748
6.92845	0.523
6.9649	0.408
7.00136	0.266
7.03781	0.498
7.07426	0.525
7.11071	0.451
7.14716	0.132
7.18361	0.012
7.22006	0.246
7.25651	0.539
7.29296	0.417
7.32942	0.278
7.36587	0.43
7.40232	0.357
7.43877	0.583
7.47522	0.648
7.51167	0.569
7.54812	0.458
7.58457	0.425
7.62102	0.541
7.65748	0.721
7.69393	0.812
7.73038	0.85
7.76683	0.841
7.80328	0.871
7.83973	0.878
7.87618	0.896
7.91263	0.885
7.94908	0.867
7.98554	0.812
8.02199	0.701
8.05844	0.701
8.09489	0.675
8.13134	0.598
8.16779	0.546
8.20424	0.542
8.24069	0.558
8.27714	0.569
8.3136	0.589
8.35005	0.664
8.3865	0.753
8.42295	0.675
8.4594	0.71
8.49585	0.801
8.5323	0.783
8.56875	0.746
8.60521	0.857
8.64166	0.855
8.67811	0.9
8.71456	0.917
8.75101	0.919
8.78746	0.928
8.82391	0.932
8.86036	0.928
8.89681	0.932
8.93327	0.925
8.96972	0.923
9.00617	0.923
9.04262	0.914
9.07907	0.901
9.11552	0.891
9.15197	0.835
9.18842	0.633
9.22487	0.267
9.26133	0.383
9.29778	0.417
9.33423	0.333
9.37068	0.425
9.40713	0.587
9.44358	0.762
9.48003	0.817
9.51648	0.857
9.55293	0.867
9.58939	0.882
9.62584	0.873
9.66229	0.864
9.69874	0.826
9.73519	0.796
9.77164	0.812
9.80809	0.871
9.84454	0.894
9.881	0.905
9.91745	0.844
9.9539	0.826
9.99035	0.875
10.0268	0.894
10.0633	0.9
10.0997	0.894
10.1362	0.892
10.1726	0.864
10.2091	0.808
10.2455	0.458
10.282	0.392
10.3184	0.526
10.3549	0.666
10.3913	0.773
10.4278	0.81
10.4642	0.846
10.5007	0.878
10.5371	0.887
10.5736	0.896
10.61	0.898
10.6465	0.9
10.6829	0.9
10.7194	0.889
10.7558	0.85
10.7923	0.685
10.8287	0.598
10.8652	0.692
10.9016	0.785
10.9381	0.848
10.9745	0.882
11.011	0.896
11.0474	0.903
11.0839	0.914
11.1203	0.914
11.1568	0.916
11.1932	0.917
11.2297	0.917
11.2661	0.919
11.3026	0.914
11.339	0.908
11.3755	0.912
11.4119	0.91
11.4484	0.898
11.4848	0.875
11.5213	0.692
11.5577	0.621
11.5942	0.707
11.6306	0.767
11.6671	0.823
11.7036	0.869
11.74	0.887
11.7765	0.896
11.8129	0.875
11.8494	0.851
11.8858	0.853
11.9223	0.883
11.9587	0.908
11.9952	0.914
12.0316	0.919
12.0681	0.925
12.1045	0.928
12.141	0.926
12.1774	0.932
12.2139	0.942
12.2503	0.937
12.2868	0.935
12.3232	0.935
12.3597	0.937
12.3961	0.937
12.4326	0.941
12.469	0.937
12.5055	0.944
12.5419	0.944
12.5784	0.942
12.6148	0.944
12.6513	0.951
12.6877	0.951
12.7242	0.951
12.7606	0.955
12.7971	0.953
12.8335	0.957
12.87	0.951
12.9064	0.953
12.9429	0.962
12.9793	0.957
13.0158	0.95
13.0522	0.951
13.0887	0.95
13.1251	0.948
13.1616	0.953
13.198	0.96
13.2345	0.967
13.271	0.964
13.3074	0.966
13.3439	0.971
13.3803	0.969
13.4168	0.976
13.4532	0.991
13.4897	0.992
13.5261	0.994
13.5626	0.987
13.599	0.994
13.6355	0.987
13.6719	0.983
13.7084	0.966
13.7448	0.964
13.7813	0.944
13.8177	0.891
13.8542	0.769
13.8906	0.612
13.9271	0.425
13.9635	0.326
14	0.283
14.0364	0.282
14.0729	0.401
14.1093	0.519
14.1458	0.583
14.1822	0.683
14.2187	0.76
14.2551	0.8
14.2916	0.817
14.328	0.808
14.3645	0.794
14.4009	0.825
14.4374	0.851
14.4738	0.873
14.5103	0.892
14.5467	0.9
14.5832	0.917
14.6196	0.917
14.6561	0.921
14.6925	0.926
14.729	0.93
14.7654	0.933
14.8019	0.937
14.8384	0.946
14.8748	0.953
14.9113	0.944
14.9477	0.941
14.9842	0.937
15.0206	0.919
15.0571	0.885
15.0935	0.869
15.13	0.896
15.1664	0.926
15.2029	0.95
15.2393	0.958
15.2758	0.967
15.3122	0.967
15.3487	0.966
15.3851	0.967
15.4216	0.975
15.458	0.987
