Infrared Spectrum: BENZOINACETATE
Formula: C16 H14 O3
CAS: 574-06-1
State: SOLID (MINERAL OIL MULL)
Melting point: 81-84 C
Class: COBLENTZ
Instrument: Not specified, most likely a prism, grating, or hybrid spectrometer.
Sampling: TRANSMISSION
Resolution: 4
Origin: WYANDOTTE CHEMICALS CORP., WYANDOTTE, MICHIGAN, USA
MICROMETERS	TRANSMITTANCE
2.02	0.75
2.05981	0.752
2.09962	0.757
2.13943	0.759
2.17925	0.759
2.21906	0.762
2.25887	0.764
2.29868	0.767
2.33849	0.767
2.3783	0.76
2.41811	0.775
2.45792	0.78
2.49774	0.784
2.53755	0.799
2.57736	0.81
2.61717	0.812
2.65698	0.822
2.69679	0.832
2.7366	0.818
2.77641	0.808
2.81623	0.799
2.85604	0.797
2.89585	0.775
2.93566	0.772
2.97547	0.767
3.01528	0.767
3.05509	0.769
3.09491	0.779
3.13472	0.764
3.17453	0.762
3.21434	0.757
3.25415	0.714
3.29396	0.666
3.33377	0.564
3.37358	0.275
3.4134	0.102
3.45321	0.137
3.49302	0.225
3.53283	0.265
3.57264	0.714
3.61245	0.799
3.65226	0.82
3.69208	0.813
3.73189	0.817
3.7717	0.825
3.81151	0.832
3.85132	0.833
3.89113	0.855
3.93094	0.86
3.97075	0.865
4.01057	0.868
4.05038	0.867
4.09019	0.862
4.13	0.853
4.16981	0.86
4.20962	0.865
4.24943	0.858
4.28924	0.872
4.32906	0.888
4.36887	0.903
4.40868	0.91
4.44849	0.9
4.4883	0.895
4.52811	0.897
4.56792	0.9
4.60774	0.9
4.64755	0.901
4.68736	0.901
4.72717	0.905
4.76698	0.911
4.80679	0.915
4.8466	0.913
4.88641	0.913
4.92623	0.92
4.96604	0.921
5.00585	0.918
5.04566	0.916
5.08547	0.9
5.12528	0.888
5.16509	0.89
5.2049	0.916
5.24472	0.906
5.28453	0.897
5.32434	0.895
5.36415	0.91
5.40396	0.913
5.44377	0.901
5.48358	0.892
5.5234	0.878
5.56321	0.873
5.60302	0.875
5.64283	0.847
5.68264	0.797
5.72245	0.583
5.76226	0.219
5.80207	0.111
5.84189	0.521
5.8817	0.416
5.92151	0.091
5.96132	0.486
6.00113	0.667
6.04094	0.712
6.08075	0.727
6.12057	0.754
6.16038	0.744
6.20019	0.709
6.24	0.433
6.27981	0.569
6.31962	0.674
6.35943	0.777
6.39924	0.8
6.43906	0.784
6.47887	0.803
6.51868	0.802
6.55849	0.807
6.5983	0.808
6.63811	0.76
6.67792	0.521
6.71773	0.712
6.75755	0.642
6.79736	0.431
6.83717	0.357
6.87698	0.26
6.91679	0.473
6.9566	0.631
6.99641	0.686
7.03623	0.73
7.07604	0.762
7.11585	0.737
7.15566	0.7
7.19547	0.596
7.23528	0.415
7.27509	0.254
7.3149	0.383
7.35472	0.48
7.39453	0.622
7.43434	0.691
7.47415	0.639
7.51396	0.712
7.55377	0.7
7.59358	0.73
7.63339	0.709
7.67321	0.697
7.71302	0.697
7.75283	0.686
7.79264	0.651
7.83245	0.49
7.87226	0.282
7.91207	0.23
7.95189	0.308
7.9917	0.254
8.03151	0.102
8.07132	0.089
8.11113	0.084
8.15094	0.064
8.19075	0.124
8.23056	0.355
8.27038	0.504
8.31019	0.573
8.35	0.622
8.38981	0.566
8.42962	0.405
8.46943	0.33
8.50924	0.44
8.54906	0.621
8.58887	0.672
8.62868	0.612
8.66849	0.712
8.7083	0.76
8.74811	0.779
8.78792	0.803
8.82773	0.794
8.86755	0.78
8.90736	0.78
8.94717	0.772
8.98698	0.76
9.02679	0.75
9.0666	0.735
9.10641	0.705
9.14622	0.651
9.18604	0.651
9.22585	0.601
9.26566	0.616
9.30547	0.662
9.34528	0.672
9.38509	0.616
9.4249	0.416
9.46472	0.302
9.50453	0.327
9.54434	0.35
9.58415	0.453
9.62396	0.594
9.66377	0.651
9.70358	0.599
9.74339	0.646
9.78321	0.72
9.82302	0.755
9.86283	0.747
9.90264	0.672
9.94245	0.543
9.98226	0.45
10.0221	0.589
10.0619	0.72
10.1017	0.717
10.1415	0.712
10.1813	0.657
10.2211	0.511
10.2609	0.38
10.3008	0.375
10.3406	0.335
10.3804	0.347
10.4202	0.493
10.46	0.631
10.4998	0.697
10.5396	0.74
10.5794	0.755
10.6192	0.739
10.6591	0.697
10.6989	0.606
10.7387	0.574
10.7785	0.504
10.8183	0.524
10.8581	0.614
10.8979	0.566
10.9377	0.503
10.9775	0.624
11.0174	0.722
11.0572	0.785
11.097	0.807
11.1368	0.822
11.1766	0.82
11.2164	0.825
11.2562	0.832
11.296	0.84
11.3358	0.843
11.3757	0.845
11.4155	0.842
11.4553	0.825
11.4951	0.8
11.5349	0.745
11.5747	0.647
11.6145	0.556
11.6543	0.526
11.6941	0.564
11.734	0.632
11.7738	0.725
11.8136	0.787
11.8534	0.803
11.8932	0.818
11.933	0.835
11.9728	0.858
12.0126	0.863
12.0525	0.87
12.0923	0.873
12.1321	0.878
12.1719	0.883
12.2117	0.887
12.2515	0.885
12.2913	0.882
12.3311	0.882
12.3709	0.882
12.4108	0.883
12.4506	0.883
12.4904	0.877
12.5302	0.877
12.57	0.878
12.6098	0.878
12.6496	0.873
12.6894	0.867
12.7292	0.857
12.7691	0.84
12.8089	0.784
12.8487	0.722
12.8885	0.541
12.9283	0.397
12.9681	0.455
13.0079	0.544
13.0477	0.48
13.0875	0.39
13.1274	0.47
13.1672	0.538
13.207	0.491
13.2468	0.397
13.2866	0.382
13.3264	0.504
13.3662	0.637
13.406	0.709
13.4458	0.76
13.4857	0.782
13.5255	0.8
13.5653	0.805
13.6051	0.813
13.6449	0.82
13.6847	0.823
13.7245	0.827
13.7643	0.827
13.8041	0.823
13.844	0.82
13.8838	0.818
13.9236	0.817
13.9634	0.815
14.0032	0.808
14.043	0.794
14.0828	0.735
14.1226	0.669
14.1625	0.574
14.2023	0.476
14.2421	0.33
14.2819	0.247
14.3217	0.222
14.3615	0.229
14.4013	0.245
14.4411	0.285
14.4809	0.348
14.5208	0.43
14.5606	0.481
14.6004	0.5
14.6402	0.506
14.68	0.521
14.7198	0.554
14.7596	0.602
14.7994	0.667
14.8392	0.725
14.8791	0.754
14.9189	0.77
14.9587	0.777
14.9985	0.777
15.0383	0.747
15.0781	0.727
15.1179	0.717
15.1577	0.745
15.1975	0.774
15.2374	0.787
15.2772	0.803
15.317	0.795
15.3568	0.802
15.3966	0.805
15.4364	0.805
15.4762	0.799
15.516	0.79
15.5558	0.792
15.5957	0.787
15.6355	0.772
15.6753	0.767
15.7151	0.749
15.7549	0.73
15.7947	0.72
15.8345	0.732
15.8743	0.739
15.9141	0.737
15.954	0.734
