Infrared Spectrum: 2-Methyl-2-propyl-1-pentanol
Formula: C9 H20 O
CAS: 57409-52-6
State: SOLUTION (10% CCl4 FOR 3800-1330, 10% CS2 FOR 1330-400 CM^-^1)
Boiling point: 89 C AT 15 mmHg
Class: COBLENTZ III
Instrument: DOW KBr FOREPRISM-GRATING
Instrument parameters: BLAZED AT 3.5, 12.0, 20.0 MICRON AND CHANGED AT 5.0, 7.5, 14.9 MICRON
Sampling: TRANSMISSION
Path length: 0.012 CM, 0.011 CM
Resolution: 2
Origin: DOW CHEMICAL COMPANY
1/CM	TRANSMITTANCE
3800	0.9077
3791	0.909
3782	0.9082
3773	0.9086
3764	0.9083
3755	0.9088
3746	0.9084
3737	0.9088
3728	0.9074
3719	0.9029
3710	0.8993
3701	0.8877
3692	0.8651
3683	0.855
3674	0.85
3665	0.7689
3656	0.5118
3647	0.5525
3638	0.6511
3629	0.7496
3620	0.8078
3611	0.8223
3602	0.8271
3593	0.8098
3584	0.7916
3575	0.7574
3566	0.7166
3557	0.6832
3548	0.6459
3539	0.6015
3530	0.5671
3521	0.5417
3512	0.5207
3503	0.5016
3494	0.485
3485	0.4691
3476	0.4541
3467	0.4413
3458	0.431
3449	0.42
3440	0.4084
3431	0.396
3422	0.3845
3413	0.375
3404	0.3676
3395	0.3614
3386	0.3562
3377	0.3542
3368	0.3552
3359	0.359
3350	0.3676
3341	0.3811
3332	0.4064
3323	0.4325
3314	0.453
3305	0.4723
3296	0.4932
3287	0.5205
3278	0.5502
3269	0.5774
3260	0.602
3251	0.6259
3242	0.6492
3233	0.6757
3224	0.6978
3215	0.7146
3206	0.7293
3197	0.7431
3188	0.756
3179	0.7669
3170	0.7776
3161	0.7862
3152	0.7946
3143	0.8011
3134	0.8091
3125	0.814
3116	0.816
3107	0.8177
3098	0.8189
3089	0.8179
3080	0.8123
3071	0.8083
3062	0.7986
3053	0.7876
3044	0.7641
3035	0.7336
3026	0.7005
3017	0.6573
3008	0.5826
2999	0.3853
2990	0.1341
2981	0.0165
2972	0.0001
2963	0
2954	0.0292
2945	0.014
2936	0.0053
2927	0.0302
2918	0.0654
2909	0.0696
2900	0.0837
2891	0.0613
2882	0.0084
2873	0.0788
2864	0.1851
2855	0.1832
2846	0.4879
2837	0.5797
2828	0.6514
2819	0.6973
2810	0.724
2801	0.7436
2792	0.7606
2783	0.7687
2774	0.7748
2765	0.7794
2756	0.781
2747	0.771
2738	0.7503
2729	0.7694
2720	0.8012
2711	0.8153
2702	0.8256
2693	0.8341
2684	0.8396
2675	0.8423
2666	0.8391
2657	0.8328
2648	0.8389
2639	0.8428
2630	0.8464
2621	0.8503
2612	0.8518
2603	0.853
2594	0.8546
2585	0.86
2576	0.8655
2567	0.8696
2558	0.8738
2549	0.8779
2540	0.8819
2531	0.8854
2522	0.8881
2513	0.8899
2504	0.891
2495	0.8919
2486	0.8931
2477	0.8951
2468	0.8964
2459	0.8963
2450	0.8955
2441	0.8946
2432	0.8907
2423	0.8879
2414	0.8882
2405	0.8898
2396	0.8914
2387	0.8945
2378	0.8999
2369	0.9032
2360	0.9054
2351	0.9084
2342	0.9079
2333	0.901
2324	0.8817
2315	0.8909
2306	0.8918
2297	0.8924
2288	0.8917
2279	0.8967
2270	0.8978
2261	0.8979
2252	0.8979
2243	0.8977
2234	0.8984
2225	0.8997
2216	0.9001
2207	0.9013
2198	0.9022
2189	0.9021
2180	0.9029
2171	0.9045
2162	0.9035
2153	0.9035
2144	0.9035
2135	0.9025
2126	0.9015
2117	0.9007
2108	0.8997
2099	0.897
2090	0.8943
2081	0.8912
2072	0.8881
2063	0.8848
2054	0.8835
2045	0.8882
2036	0.8916
2027	0.8924
2018	0.8934
2009	0.893
2000	0.8874
1991	0.8826
1982	0.8829
1973	0.882
1964	0.8955
1955	0.8891
1946	0.8867
1937	0.8881
1928	0.8886
1919	0.888
1910	0.8869
1901	0.8864
1892	0.8868
1883	0.8886
1874	0.8893
1865	0.8864
1856	0.8857
1847	0.8837
1838	0.882
1829	0.8805
1820	0.8801
1811	0.8807
1802	0.8789
1793	0.8789
1784	0.8772
1775	0.8747
1766	0.8713
1757	0.8676
1748	0.8626
1739	0.857
1730	0.8514
1721	0.8458
1712	0.8442
1703	0.8456
1694	0.8489
1685	0.8522
1676	0.8505
1667	0.8468
1658	0.8426
1649	0.8389
1640	0.8348
1631	0.83
1622	0.8228
1613	0.815
1604	0.7912
1595	0.7304
1586	0.7173
1577	0.7112
1568	0.6692
1559	0.6089
1550	0.6331
1541	0.7335
1532	0.741
1523	0.7441
1514	0.7492
1505	0.7445
1496	0.7314
1487	0.5759
1478	0.2785
1469	0.2543
1460	0.1936
1451	0.4844
1442	0.5904
1433	0.6668
1424	0.6768
1415	0.6581
1406	0.6043
1397	0.5543
1388	0.3873
1379	0.421
1370	0.5768
1361	0.6498
1352	0.6806
1343	0.6829
1334	0.7011
1325	0.6747
1316	0.6702
1307	0.6746
1298	0.6933
1289	0.7219
1280	0.7227
1271	0.703
1262	0.7221
1253	0.7104
1244	0.6836
1235	0.673
1226	0.707
1217	0.7313
1208	0.7435
1199	0.7418
1190	0.7397
1181	0.7273
1172	0.6892
1163	0.6713
1154	0.6986
1145	0.7457
1136	0.7989
1127	0.8342
1118	0.8417
1109	0.7814
1100	0.6852
1091	0.7101
1082	0.6083
1073	0.6479
1064	0.5674
1055	0.3239
1046	0.0802
1037	0.0948
1028	0.2715
1019	0.2109
1010	0.3677
1001	0.6919
992	0.8021
983	0.7842
974	0.7807
965	0.8057
956	0.8092
947	0.7619
938	0.7837
929	0.718
920	0.7219
911	0.8331
902	0.8335
893	0.8707
884	0.8207
875	0.8361
866	0.8122
857	0.8276
848	0.9102
839	0.9307
830	0.9361
821	0.9344
812	0.9318
803	0.9283
794	0.9196
785	0.9028
776	0.8666
767	0.8574
758	0.8459
749	0.619
740	0.5775
731	0.7952
722	0.8622
713	0.8693
704	0.8662
695	0.864
686	0.86
677	0.8574
668	0.8583
659	0.8016
650	0.8238
641	0.8218
632	0.8206
623	0.8217
614	0.8207
605	0.8095
596	0.7907
587	0.7831
578	0.7835
569	0.7884
560	0.7977
551	0.8012
542	0.8039
533	0.7995
524	0.7943
515	0.7966
506	0.8007
497	0.805
488	0.8079
479	0.8071
470	0.8008
461	0.7909
452	0.7793
443	0.7652
434	0.7459
425	0.7069
416	0.6077
407	0.328
398	0.2711
389	0.2405
