Infrared Spectrum: 1,3-DIMETHYLNAPHTHALENE
Formula: C12 H12
CAS: 575-41-7
State: LIQUID
Class: COBLENTZ
Instrument: Not specified, most likely a prism, grating, or hybrid spectrometer.
Sampling: TRANSMISSION
Path length: 0.005 CM
Resolution: 4
Origin: ANDERSON PHYSICAL LABORATORY
1/CM	TRANSMITTANCE
672.177	0.754
680.599	0.759
689.021	0.754
697.442	0.7321
705.864	0.569
714.286	0.739
722.708	0.73
731.129	0.638
739.551	0.433
747.973	0.031
756.395	0.065
764.816	0.4697
773.238	0.4821
781.66	0.1729
790.082	0.7099
798.503	0.75
806.925	0.751
815.347	0.75
823.769	0.721
832.19	0.538
840.612	0.568
849.034	0.0802
857.456	0.04
865.877	0.035
874.299	0.1579
882.721	0.52
891.143	0.569
899.564	0.526
907.986	0.699
916.408	0.69
924.83	0.741
933.251	0.76
941.673	0.744
950.095	0.651
958.517	0.427
966.938	0.633
975.36	0.735
983.782	0.665
992.204	0.481
1000.63	0.63
1009.05	0.689
1017.47	0.5871
1025.89	0.536
1034.31	0.3101
1042.73	0.201
1051.16	0.3909
1059.58	0.614
1068	0.701
1076.42	0.701
1084.84	0.693
1093.26	0.741
1101.69	0.772
1110.11	0.766
1118.53	0.747
1126.95	0.715
1135.37	0.662
1143.8	0.538
1152.22	0.71
1160.64	0.715
1169.06	0.612
1177.48	0.65
1185.9	0.5991
1194.33	0.6528
1202.75	0.765
1211.17	0.732
1219.59	0.724
1228.01	0.424
1236.43	0.705
1244.86	0.726
1253.28	0.726
1261.7	0.65
1270.12	0.713
1278.54	0.675
1286.96	0.541
1295.39	0.614
1303.81	0.745
1312.23	0.762
1320.65	0.771
1329.07	0.763
1337.5	0.726
1345.92	0.635
1354.34	0.565
1362.76	0.514
1371.18	0.518
1379.6	0.421
1388.03	0.182
1396.45	0.246
1404.87	0.255
1413.29	0.243
1421.71	0.14
1430.13	0.2191
1438.56	0.294
1446.98	0.086
1455.4	0.032
1463.82	0.092
1472.24	0.122
1480.67	0.136
1489.09	0.158
1497.51	0.2011
1505.93	0.381
1514.35	0.257
1522.77	0.248
1531.2	0.505
1539.62	0.582
1548.04	0.594
1556.46	0.605
1564.88	0.606
1573.3	0.6
1581.73	0.5329
1590.15	0.384
1598.57	0.446
1606.99	0.2941
1615.41	0.103
1623.84	0.258
1632.26	0.355
1640.68	0.288
1649.1	0.579
1657.52	0.711
1665.94	0.73
1674.37	0.748
1682.79	0.771
1691.21	0.726
1699.63	0.689
1708.05	0.742
1716.47	0.753
1724.9	0.713
1733.32	0.689
1741.74	0.629
1750.16	0.611
1758.58	0.659
1767	0.7361
1775.43	0.786
1783.85	0.769
1792.27	0.739
1800.69	0.754
1809.11	0.765
1817.54	0.763
1825.96	0.795
1834.38	0.826
1842.8	0.828
1851.22	0.862
1859.64	0.874
1868.07	0.866
1876.49	0.865
1884.91	0.85
1893.33	0.808
1901.75	0.759
1910.17	0.772
1918.6	0.763
1927.02	0.72
1935.44	0.739
1943.86	0.771
1952.28	0.765
1960.71	0.78
1969.13	0.826
1977.55	0.875
1985.97	0.898
1994.39	0.901
2002.81	0.9073
2011.24	0.911
2019.66	0.911
2028.08	0.9105
2036.5	0.908
2044.92	0.91
2053.34	0.913
2061.77	0.9119
2070.19	0.9076
2078.61	0.9039
2087.03	0.9026
2095.45	0.904
2103.87	0.905
2112.3	0.9071
2120.72	0.908
2129.14	0.9092
2137.56	0.91
2145.98	0.91
2154.41	0.91
2162.83	0.91
2171.25	0.91
2179.67	0.91
2188.09	0.9076
2196.51	0.907
2204.94	0.907
2213.36	0.905
2221.78	0.905
2230.2	0.905
2238.62	0.904
2247.04	0.9018
2255.47	0.899
2263.89	0.896
2272.31	0.896
2280.73	0.899
2289.15	0.9
2297.58	0.902
2306	0.889
2314.42	0.8855
2322.84	0.8805
2331.26	0.878
2339.68	0.878
2348.11	0.878
2356.53	0.878
2364.95	0.878
2373.37	0.878
2381.79	0.8771
2390.21	0.8697
2398.64	0.865
2407.06	0.862
2415.48	0.8623
2423.9	0.8642
2432.32	0.8676
2440.75	0.8743
2449.17	0.878
2457.59	0.8761
2466.01	0.874
2474.43	0.8753
2482.85	0.8782
2491.28	0.883
2499.7	0.884
2508.12	0.8862
2516.54	0.887
2524.96	0.8884
2533.38	0.89
2541.81	0.892
2550.23	0.8896
2558.65	0.8863
2567.07	0.886
2575.49	0.887
2583.91	0.888
2592.34	0.889
2600.76	0.887
2609.18	0.8867
2617.6	0.8845
2626.02	0.8802
2634.45	0.8718
2642.87	0.8641
2651.29	0.8539
2659.71	0.8462
2668.13	0.844
2676.55	0.844
2684.98	0.8466
2693.4	0.847
2701.82	0.8405
2710.24	0.8272
2718.66	0.8008
2727.08	0.772
2735.51	0.741
2743.93	0.7462
2752.35	0.7755
2760.77	0.795
2769.19	0.7886
2777.62	0.7712
2786.04	0.7438
2794.46	0.6715
2802.88	0.6332
2811.3	0.5858
2819.72	0.4283
2828.15	0.2977
2836.57	0.201
2844.99	0.1026
2853.41	0.0569
2861.83	0.055
2870.25	0.0552
2878.68	0.0585
2887.1	0.059
2895.52	0.059
2903.94	0.0512
2912.36	0.0405
2920.78	0.0342
2929.21	0.034
2937.63	0.0356
2946.05	0.0375
2954.47	0.0408
2962.89	0.0533
2971.32	0.0708
2979.74	0.0928
2988.16	0.1105
2996.58	0.1212
3005	0.127
3013.42	0.128
3021.85	0.1325
3030.27	0.1406
3038.69	0.1477
3047.11	0.1549
3055.53	0.1636
3063.95	0.169
3072.38	0.1858
3080.8	0.2088
3089.22	0.26
3097.64	0.3614
3106.06	0.4844
3114.49	0.5712
3122.91	0.6918
3131.33	0.7722
3139.75	0.813
3148.17	0.8382
3156.59	0.847
3165.02	0.8552
3173.44	0.8579
3181.86	0.8612
3190.28	0.863
3198.7	0.8665
3207.12	0.868
3215.55	0.868
3223.97	0.869
3232.39	0.8713
3240.81	0.8745
3249.23	0.8804
3257.66	0.8871
3266.08	0.8906
3274.5	0.893
3282.92	0.895
3291.34	0.8961
3299.76	0.898
3308.19	0.898
3316.61	0.898
3325.03	0.898
3333.45	0.898
3341.87	0.898
3350.29	0.898
3358.72	0.898
3367.14	0.898
3375.56	0.898
3383.98	0.898
3392.4	0.898
3400.82	0.8972
3409.25	0.896
3417.67	0.896
3426.09	0.896
3434.51	0.895
3442.93	0.8936
3451.36	0.8921
3459.78	0.892
3468.2	0.892
3476.62	0.89
3485.04	0.89
3493.46	0.89
3501.89	0.892
3510.31	0.892
3518.73	0.892
3527.15	0.892
3535.57	0.892
3543.99	0.8928
3552.42	0.893
3560.84	0.893
3569.26	0.893
3577.68	0.893
3586.1	0.895
3594.53	0.896
3602.95	0.8972
3611.37	0.8988
3619.79	0.9011
3628.21	0.9043
3636.63	0.905
3645.06	0.905
3653.48	0.9049
3661.9	0.9016
3670.32	0.901
3678.74	0.899
3687.16	0.898
3695.59	0.898
3704.01	0.898
3712.43	0.898
3720.85	0.898
3729.27	0.898
3737.69	0.896
3746.12	0.895
3754.54	0.893
3762.96	0.893
3771.38	0.8923
3779.8	0.89
3788.23	0.8883
3796.65	0.8815
3805.07	0.8785
3813.49	0.877
3821.91	0.877
3830.33	0.877
3838.76	0.875
3847.18	0.8689
3855.6	0.8621
3864.02	0.8595
3872.44	0.8562
3880.86	0.855
3889.29	0.852
3897.71	0.852
3906.13	0.85
3914.55	0.849
3922.97	0.849
3931.4	0.849
3939.82	0.849
3948.24	0.849
3956.66	0.849
3965.08	0.85
3973.5	0.8518
