Infrared Spectrum: 2,3-DICHLOROPHENOL
Formula: C6 H4 Cl2 O
CAS: 576-24-9
State: SOLUTION (10% CCl4 FOR 5000-1333, 10% CS2 FOR 1333-625 CM^-^1)
Class: COBLENTZ
Instrument: Not specified, most likely a prism, grating, or hybrid spectrometer.
Sampling: TRANSMISSION
Path length: 0.01 CM
Resolution: 4
Origin: DOW CHEMICAL COMPANY
MICROMETERS	TRANSMITTANCE
2.019	0.854
2.05633	0.854
2.09366	0.851
2.131	0.866
2.16833	0.866
2.20566	0.865
2.24299	0.866
2.28032	0.868
2.31765	0.868
2.35499	0.869
2.39232	0.871
2.42965	0.869
2.46698	0.871
2.50431	0.865
2.54165	0.862
2.57898	0.873
2.61631	0.863
2.65364	0.874
2.69097	0.868
2.72831	0.856
2.76564	0.781
2.80297	0.563
2.8403	0.456
2.87763	0.77
2.91496	0.812
2.9523	0.839
2.98963	0.849
3.02696	0.862
3.06429	0.859
3.10162	0.866
3.13896	0.856
3.17629	0.86
3.21362	0.851
3.25095	0.834
3.28828	0.854
3.32562	0.876
3.36295	0.876
3.40028	0.876
3.43761	0.88
3.47494	0.88
3.51227	0.89
3.54961	0.885
3.58694	0.883
3.62427	0.879
3.6616	0.886
3.69893	0.891
3.73627	0.879
3.7736	0.883
3.81093	0.877
3.84826	0.891
3.88559	0.891
3.92293	0.883
3.96026	0.879
3.99759	0.874
4.03492	0.88
4.07225	0.896
4.10958	0.899
4.14692	0.89
4.18425	0.882
4.22158	0.879
4.25891	0.876
4.29624	0.877
4.33358	0.882
4.37091	0.888
4.40824	0.897
4.44557	0.904
4.4829	0.905
4.52024	0.899
4.55757	0.893
4.5949	0.9
4.63223	0.907
4.66956	0.907
4.70689	0.894
4.74423	0.908
4.78156	0.911
4.81889	0.911
4.85622	0.91
4.89355	0.902
4.93089	0.899
4.96822	0.9
5.00555	0.893
5.04288	0.905
5.08021	0.899
5.11755	0.9
5.15488	0.89
5.19221	0.854
5.22954	0.893
5.26687	0.9
5.3042	0.896
5.34154	0.882
5.37887	0.89
5.4162	0.868
5.45353	0.877
5.49086	0.896
5.5282	0.897
5.56553	0.904
5.60286	0.908
5.64019	0.902
5.67752	0.882
5.71486	0.865
5.75219	0.88
5.78952	0.883
5.82685	0.883
5.86418	0.882
5.90151	0.885
5.93885	0.874
5.97618	0.866
6.01351	0.854
6.05084	0.832
6.08817	0.835
6.12551	0.801
6.16284	0.738
6.20017	0.619
6.2375	0.377
6.27483	0.08
6.31217	0.117
6.3495	0.275
6.38683	0.311
6.42416	0.397
6.46149	0.436
6.49882	0.501
6.53616	0.546
6.57349	0.605
6.61082	0.659
6.64815	0.662
6.68548	0.577
6.72282	0.394
6.76015	0.266
6.79748	0.193
6.83481	0.089
6.87214	0.109
6.90948	0.167
6.94681	0.325
6.98414	0.561
7.02147	0.767
7.0588	0.794
7.09613	0.825
7.13347	0.843
7.1708	0.859
7.20813	0.849
7.24546	0.849
7.28279	0.868
7.32013	0.862
7.35746	0.849
7.39479	0.826
7.43212	0.755
7.46945	0.639
7.50679	0.482
7.54412	0.594
7.58145	0.712
7.61878	0.572
7.65611	0.464
7.69344	0.465
7.73078	0.238
7.76811	0.131
7.80544	0.362
7.84277	0.482
7.8801	0.58
7.91744	0.577
7.95477	0.585
7.9921	0.639
8.02943	0.676
8.06676	0.634
8.10409	0.571
8.14143	0.404
8.17876	0.173
8.21609	0.074
8.25342	0.348
8.29075	0.428
8.32809	0.447
8.36542	0.342
8.40275	0.243
8.44008	0.199
8.47741	0.066
8.51475	0.055
8.55208	0.171
8.58941	0.323
8.62674	0.422
8.66407	0.456
8.7014	0.541
8.73874	0.592
8.77607	0.606
8.8134	0.614
8.85073	0.591
8.88806	0.586
8.9254	0.602
8.96273	0.633
9.00006	0.645
9.03739	0.631
9.07472	0.616
9.11206	0.546
9.14939	0.481
9.18672	0.557
9.22405	0.5
9.26138	0.595
9.29871	0.719
9.33605	0.724
9.37338	0.726
9.41071	0.695
9.44804	0.617
9.48537	0.456
9.52271	0.362
9.56004	0.221
9.59737	0.213
9.6347	0.501
9.67203	0.606
9.70937	0.668
9.7467	0.716
9.78403	0.733
9.82136	0.75
9.85869	0.753
9.89602	0.755
9.93336	0.743
9.97069	0.733
10.008	0.746
10.0454	0.775
10.0827	0.8
10.12	0.814
10.1573	0.817
10.1947	0.82
10.232	0.814
10.2693	0.811
10.3067	0.8
10.344	0.786
10.3813	0.76
10.4187	0.753
10.456	0.784
10.4933	0.801
10.5307	0.806
10.568	0.804
10.6053	0.803
10.6427	0.794
10.68	0.781
10.7173	0.766
10.7547	0.747
10.792	0.71
10.8293	0.657
10.8667	0.586
10.904	0.482
10.9413	0.321
10.9786	0.136
11.016	0.046
11.0533	0.055
11.0906	0.147
11.128	0.318
11.1653	0.453
11.2026	0.565
11.24	0.613
11.2773	0.626
11.3146	0.631
11.352	0.631
11.3893	0.622
11.4266	0.603
11.464	0.602
11.5013	0.6
11.5386	0.583
11.576	0.552
11.6133	0.504
11.6506	0.469
11.688	0.503
11.7253	0.571
11.7626	0.606
11.8	0.642
11.8373	0.674
11.8746	0.696
11.9119	0.713
11.9493	0.726
11.9866	0.733
12.0239	0.736
12.0613	0.736
12.0986	0.732
12.1359	0.729
12.1733	0.722
12.2106	0.708
12.2479	0.685
12.2853	0.679
12.3226	0.684
12.3599	0.688
12.3973	0.684
12.4346	0.657
12.4719	0.606
12.5093	0.534
12.5466	0.472
12.5839	0.498
12.6213	0.566
12.6586	0.58
12.6959	0.575
12.7332	0.551
12.7706	0.496
12.8079	0.388
12.8452	0.227
12.8826	0.092
12.9199	0.018
12.9572	0.046
12.9946	0.131
13.0319	0.314
13.0692	0.448
13.1066	0.546
13.1439	0.597
13.1812	0.617
13.2186	0.633
13.2559	0.643
13.2932	0.65
13.3306	0.645
13.3679	0.636
13.4052	0.619
13.4426	0.589
13.4799	0.538
13.5172	0.481
13.5545	0.464
13.5919	0.52
13.6292	0.586
13.6665	0.62
13.7039	0.631
13.7412	0.63
13.7785	0.619
13.8159	0.609
13.8532	0.619
13.8905	0.636
13.9279	0.645
13.9652	0.648
14.0025	0.64
14.0399	0.628
14.0772	0.611
14.1145	0.582
14.1519	0.526
14.1892	0.431
14.2265	0.311
14.2639	0.236
14.3012	0.266
14.3385	0.374
14.3758	0.464
14.4132	0.521
14.4505	0.543
14.4878	0.554
14.5252	0.557
14.5625	0.558
14.5998	0.557
14.6372	0.554
14.6745	0.549
14.7118	0.543
14.7492	0.538
14.7865	0.532
14.8238	0.524
14.8612	0.518
14.8985	0.506
14.9358	0.498
14.9732	0.496
15.0105	0.501
15.0478	0.489
15.0852	0.475
15.1225	0.465
15.1598	0.456
15.1972	0.45
15.2345	0.439
15.2718	0.428
15.3091	0.421
15.3465	0.413
15.3838	0.405
15.4211	0.397
15.4585	0.394
15.4958	0.388
15.5331	0.383
15.5705	0.379
15.6078	0.377
15.6451	0.373
15.6825	0.369
15.7198	0.365
15.7571	0.36
15.7945	0.357
15.8318	0.351
15.8691	0.348
15.9065	0.359
