Infrared Spectrum: 2,6-Xylenol
Formula: C8 H10 O
CAS: 576-26-1
State: SOLUTION (10% CCl4 FOR 2.6-7.5, 10% CS2 FOR 7.5-24)
Melting point: 49 C
Class: COBLENTZ III
Instrument: BECKMAN IR-9 (GRATING)
Instrument parameters: ORDER CHANGES: 670, 1200, 2000 CM^-^1
Sampling: TRANSMISSION
Path length: 0.011 CM, 0.011 CM
Resolution: 2
Origin: DOW CHEMICAL COMPANY
1/CM	TRANSMITTANCE
400	0.236
409	0.2137
418	0.2218
427	0.3418
436	0.4639
445	0.5098
454	0.5431
463	0.5725
472	0.5853
481	0.5753
490	0.6088
499	0.5939
508	0.6375
517	0.6499
526	0.6601
535	0.6686
544	0.6515
553	0.5776
562	0.6801
571	0.6889
580	0.6924
589	0.697
598	0.6991
607	0.7018
616	0.7091
625	0.7096
634	0.7092
643	0.7066
652	0.6914
661	0.7095
670	0.5482
679	0.7192
688	0.7346
697	0.7344
706	0.7279
715	0.7089
724	0.4735
733	0.6168
742	0.6773
751	0.5235
760	0.0563
769	0.3276
778	0.6107
787	0.6812
796	0.704
805	0.7066
814	0.6675
823	0.3641
832	0.5236
841	0.6111
850	0.6836
859	0.6703
868	0.6877
877	0.6973
886	0.6877
895	0.6528
904	0.3456
913	0.6491
922	0.7104
931	0.7175
940	0.7086
949	0.6615
958	0.6902
967	0.6961
976	0.6546
985	0.5533
994	0.6143
1003	0.6277
1012	0.505
1021	0.3827
1030	0.4939
1039	0.6282
1048	0.6583
1057	0.6932
1066	0.6904
1075	0.5948
1084	0.2642
1093	0.4175
1102	0.5121
1111	0.6809
1120	0.6964
1129	0.6902
1138	0.6682
1147	0.6117
1156	0.3444
1165	0.4393
1174	0.3055
1183	0.0602
1192	-0.0036
1201	0.0349
1210	0.3229
1219	0.1699
1228	0.4944
1237	0.6081
1246	0.6188
1255	0.4234
1264	0.0647
1273	0.4833
1282	0.5431
1291	0.6264
1300	0.6002
1309	0.4248
1318	0.2336
1327	0.4018
1336	0.7442
1345	0.8452
1354	0.8972
1363	0.8995
1372	0.7359
1381	0.6369
1390	0.8772
1399	0.8991
1408	0.888
1417	0.8253
1426	0.4048
1435	0.301
1444	0.3891
1453	0.441
1462	0.3824
1471	0.0637
1480	-0.0036
1489	0.3497
1498	0.5783
1507	0.7013
1516	0.7623
1525	0.7712
1534	0.794
1543	0.7888
1552	0.8078
1561	0.8362
1570	0.8453
1579	0.8092
1588	0.6499
1597	0.4694
1606	0.8367
1615	0.8521
1624	0.8988
1633	0.9197
1642	0.8682
1651	0.8157
1660	0.9181
1669	0.9428
1678	0.9633
1687	0.969
1696	0.9782
1705	0.9667
1714	0.9499
1723	0.9464
1732	0.9348
1741	0.9152
1750	0.9034
1759	0.8851
1768	0.8754
1777	0.8464
1786	0.8673
1795	0.8775
1804	0.8888
1813	0.9031
1822	0.9005
1831	0.8859
1840	0.8321
1849	0.8606
1858	0.8902
1867	0.8974
1876	0.9001
1885	0.9025
1894	0.89
1903	0.8422
1912	0.8551
1921	0.8798
1930	0.8936
1939	0.9048
1948	0.9113
1957	0.9146
1966	0.9169
1975	0.9146
1984	0.9129
1993	0.8786
2002	0.9195
2011	0.9183
2020	0.9167
2029	0.9152
2038	0.9134
2047	0.9107
2056	0.915
2065	0.9161
2074	0.9206
2083	0.9234
2092	0.9205
2101	0.9167
2110	0.9159
2119	0.9202
2128	0.9256
2137	0.9269
2146	0.9229
2155	0.9211
2164	0.927
2173	0.9267
2182	0.9132
2191	0.9088
2200	0.9061
2209	0.9012
2218	0.8976
2227	0.9003
2236	0.9036
2245	0.9023
2254	0.8954
2263	0.8927
2272	0.8959
2281	0.896
2290	0.8917
2299	0.8899
2308	0.8912
2317	0.8925
2326	0.8915
2335	0.89
2344	0.8983
2353	0.8993
2362	0.893
2371	0.8938
2380	0.8884
2389	0.8841
2398	0.8821
2407	0.8777
2416	0.8649
2425	0.8592
2434	0.8707
2443	0.8778
2452	0.8825
2461	0.8814
2470	0.8738
2479	0.8578
2488	0.8637
2497	0.8787
2506	0.8859
2515	0.8878
2524	0.8893
2533	0.8907
2542	0.8915
2551	0.892
2560	0.8923
2569	0.8918
2578	0.8897
2587	0.8888
2596	0.8894
2605	0.8839
2614	0.8883
2623	0.8895
2632	0.8812
2641	0.872
2650	0.8665
2659	0.8738
2668	0.8817
2677	0.8861
2686	0.8867
2695	0.8831
2704	0.8767
2713	0.874
2722	0.8756
2731	0.8729
2740	0.8011
2749	0.856
2758	0.8723
2767	0.8767
2776	0.8787
2785	0.8787
2794	0.8768
2803	0.8701
2812	0.8551
2821	0.8399
2830	0.8258
2839	0.8125
2848	0.6807
2857	0.4188
2866	0.5145
2875	0.6177
2884	0.6185
2893	0.6321
2902	0.5404
2911	0.4297
2920	0.4067
2929	0.3147
2938	0.358
2947	0.4394
2956	0.4492
2965	0.4757
2974	0.493
2983	0.4603
2992	0.4389
3001	0.5807
3010	0.7063
3019	0.6619
3028	0.5634
3037	0.4723
3046	0.5149
3055	0.512
3064	0.5562
3073	0.6094
3082	0.6497
3091	0.7013
3100	0.7835
3109	0.8011
3118	0.8149
3127	0.8417
3136	0.8535
3145	0.8575
3154	0.8627
3163	0.8649
3172	0.8645
3181	0.8652
3190	0.8637
3199	0.8561
3208	0.8549
3217	0.8637
3226	0.8621
3235	0.8622
3244	0.8604
3253	0.86
3262	0.8593
3271	0.8576
3280	0.8547
3289	0.8525
3298	0.8498
3307	0.8473
3316	0.8443
3325	0.8411
3334	0.8381
3343	0.8353
3352	0.832
3361	0.8284
3370	0.8249
3379	0.819
3388	0.814
3397	0.809
3406	0.8038
3415	0.7968
3424	0.7903
3433	0.7837
3442	0.7765
3451	0.7689
3460	0.7589
3469	0.7488
3478	0.735
3487	0.7207
3496	0.7063
3505	0.6924
3514	0.6808
3523	0.6692
3532	0.6594
3541	0.6467
3550	0.6326
3559	0.6197
3568	0.6028
3577	0.5802
3586	0.5551
3595	0.5261
3604	0.5043
3613	0.4279
3622	0.2695
3631	0.1113
3640	0.0383
3649	0.5053
3658	0.6829
3667	0.7823
3676	0.8264
3685	0.841
3694	0.8515
3703	0.8605
3712	0.8655
3721	0.8696
3730	0.8739
3739	0.8761
3748	0.8783
3757	0.8784
3766	0.8782
3775	0.8763
3784	0.8765
3793	0.8769
3802	0.875
3811	0.8752
