Infrared Spectrum: o-NITROACETOPHENONE
Formula: C8 H7 N O3
CAS: 577-59-3
State: SOLUTION (10% CCl4 FOR 5000-1330, 10% CS2 FOR 1330-625 CM^-^1)
Class: COBLENTZ
Instrument: Not specified, most likely a prism, grating, or hybrid spectrometer.
Sampling: TRANSMISSION
Path length: 0.012 CM, 0.012 CM
Resolution: 4
Origin: DOW CHEMICAL COMPANY
MICROMETERS	TRANSMITTANCE
2.041	0.898
2.08202	0.9
2.12303	0.898
2.16405	0.895
2.20507	0.892
2.24608	0.886
2.2871	0.89
2.32812	0.892
2.36914	0.892
2.41015	0.892
2.45117	0.893
2.49219	0.895
2.5332	0.898
2.57422	0.9
2.61524	0.904
2.65625	0.902
2.69727	0.902
2.73829	0.902
2.77931	0.904
2.82032	0.904
2.86134	0.902
2.90236	0.873
2.94337	0.893
2.98439	0.91
3.02541	0.904
3.06642	0.898
3.10744	0.886
3.14846	0.878
3.18948	0.839
3.23049	0.799
3.27151	0.82
3.31253	0.821
3.35354	0.854
3.39456	0.864
3.43558	0.839
3.47659	0.856
3.51761	0.89
3.55863	0.892
3.59964	0.897
3.64066	0.902
3.68168	0.893
3.7227	0.89
3.76371	0.9
3.80473	0.898
3.84575	0.9
3.88676	0.91
3.92778	0.91
3.9688	0.905
4.00981	0.902
4.05083	0.902
4.09185	0.902
4.13287	0.895
4.17388	0.886
4.2149	0.892
4.25592	0.895
4.29693	0.886
4.33795	0.888
4.37897	0.895
4.41998	0.905
4.461	0.909
4.50202	0.905
4.54304	0.91
4.58405	0.917
4.62507	0.917
4.66609	0.917
4.7071	0.917
4.74812	0.917
4.78914	0.917
4.83015	0.91
4.87117	0.907
4.91219	0.909
4.9532	0.9
4.99422	0.892
5.03524	0.88
5.07626	0.876
5.11727	0.876
5.15829	0.886
5.19931	0.897
5.24032	0.892
5.28134	0.904
5.32236	0.892
5.36337	0.88
5.40439	0.864
5.44541	0.844
5.48643	0.873
5.52744	0.88
5.56846	0.859
5.60948	0.845
5.65049	0.813
5.69151	0.755
5.73253	0.669
5.77354	0.309
5.81456	0.075
5.85558	0.082
5.8966	0.518
5.93761	0.722
5.97863	0.756
6.01965	0.803
6.06066	0.825
6.10168	0.791
6.1427	0.722
6.18371	0.587
6.22473	0.571
6.26575	0.486
6.30676	0.328
6.34778	0.303
6.3888	0.291
6.42982	0.119
6.47083	0.066
6.51185	0.037
6.55287	0.128
6.59388	0.332
6.6349	0.535
6.67592	0.626
6.71693	0.618
6.75795	0.583
6.79897	0.681
6.83999	0.726
6.881	0.662
6.92202	0.577
6.96304	0.535
7.00405	0.515
7.04507	0.583
7.08609	0.631
7.1271	0.657
7.16812	0.671
7.20914	0.619
7.25016	0.452
7.29117	0.234
7.33219	0.053
7.37321	0.017
7.41422	0.075
7.45524	0.477
7.49626	0.597
7.53727	0.592
7.57829	0.465
7.61931	0.426
7.66033	0.561
7.70134	0.626
7.74236	0.621
7.78338	0.541
7.82439	0.356
7.86541	0.386
7.90643	0.41
7.94744	0.282
7.98846	0.183
8.02948	0.095
8.07049	0.169
8.11151	0.515
8.15253	0.676
8.19355	0.739
8.23456	0.765
8.27558	0.784
8.3166	0.797
8.35761	0.806
8.39863	0.808
8.43965	0.806
8.48066	0.797
8.52168	0.77
8.5627	0.753
8.60372	0.758
8.64473	0.772
8.68575	0.751
8.72677	0.741
8.76778	0.784
8.8088	0.808
8.84982	0.815
8.89083	0.815
8.93185	0.797
8.97287	0.773
9.01389	0.741
9.0549	0.719
9.09592	0.707
9.13694	0.717
9.17795	0.779
9.21897	0.815
9.25999	0.818
9.301	0.808
9.34202	0.761
9.38304	0.676
9.42405	0.595
9.46507	0.693
9.50609	0.772
9.54711	0.785
9.58812	0.741
9.62914	0.662
9.67016	0.732
9.71117	0.779
9.75219	0.787
9.79321	0.784
9.83422	0.758
9.87524	0.715
9.91626	0.679
9.95728	0.688
9.99829	0.734
10.0393	0.76
10.0803	0.768
10.1213	0.768
10.1624	0.753
10.2034	0.724
10.2444	0.672
10.2854	0.618
10.3264	0.594
10.3674	0.609
10.4085	0.625
10.4495	0.59
10.4905	0.582
10.5315	0.712
10.5725	0.791
10.6135	0.821
10.6546	0.833
10.6956	0.84
10.7366	0.844
10.7776	0.845
10.8186	0.845
10.8596	0.847
10.9007	0.849
10.9417	0.849
10.9827	0.849
11.0237	0.844
11.0647	0.842
11.1058	0.837
11.1468	0.827
11.1878	0.818
11.2288	0.804
11.2698	0.789
11.3108	0.765
11.3519	0.736
11.3929	0.712
11.4339	0.696
11.4749	0.69
11.5159	0.684
11.5569	0.662
11.598	0.618
11.639	0.482
11.68	0.212
11.721	0.2
11.762	0.51
11.803	0.664
11.8441	0.722
11.8851	0.763
11.9261	0.794
11.9671	0.808
12.0081	0.816
12.0491	0.821
12.0902	0.821
12.1312	0.825
12.1722	0.828
12.2132	0.827
12.2542	0.82
12.2952	0.813
12.3363	0.808
12.3773	0.806
12.4183	0.801
12.4593	0.791
12.5003	0.773
12.5413	0.736
12.5824	0.664
12.6234	0.523
12.6644	0.303
12.7054	0.203
12.7464	0.28
12.7874	0.431
12.8285	0.537
12.8695	0.59
12.9105	0.633
12.9515	0.657
12.9925	0.676
13.0335	0.679
13.0746	0.667
13.1156	0.636
13.1566	0.589
13.1976	0.51
13.2386	0.335
13.2797	0.171
13.3207	0.066
13.3617	0.046
13.4027	0.121
13.4437	0.203
13.4847	0.272
13.5258	0.378
13.5668	0.489
13.6078	0.573
13.6488	0.616
13.6898	0.635
13.7308	0.647
13.7719	0.648
13.8129	0.645
13.8539	0.636
13.8949	0.626
13.9359	0.613
13.9769	0.595
14.018	0.566
14.059	0.529
14.1	0.472
14.141	0.393
14.182	0.282
14.223	0.203
14.2641	0.176
14.3051	0.198
14.3461	0.268
14.3871	0.354
14.4281	0.433
14.4691	0.477
14.5102	0.503
14.5512	0.523
14.5922	0.53
14.6332	0.535
14.6742	0.535
14.7152	0.529
14.7563	0.522
14.7973	0.513
14.8383	0.505
14.8793	0.494
14.9203	0.476
14.9613	0.443
15.0024	0.416
15.0434	0.378
15.0844	0.363
15.1254	0.357
15.1664	0.357
15.2074	0.369
15.2485	0.381
15.2895	0.393
15.3305	0.402
15.3715	0.404
15.4125	0.405
15.4535	0.412
15.4946	0.412
15.5356	0.417
15.5766	0.417
15.6176	0.417
15.6586	0.417
15.6997	0.417
15.7407	0.417
15.7817	0.417
15.8227	0.419
15.8637	0.421
