Infrared Spectrum: LUMAZINE, 6,7-DIMETHYL-
Formula: C8 H8 N4 O2
CAS: 5774-32-3
State: SOLID (OIL MULL)
Class: COBLENTZ III
Instrument: PERKIN-ELMER 21 (GRATING)
Instrument parameters: NaCl PRISM
Sampling: TRANSMISSION
Resolution: 2
Origin: SMITH KLINE & FRENCH LABS.
MICROMETERS	TRANSMITTANCE
1.996	0.637
2.03013	0.638
2.06426	0.639
2.0984	0.641
2.13253	0.65
2.16666	0.657
2.20079	0.669
2.23493	0.677
2.26906	0.68
2.30319	0.683
2.33732	0.686
2.37146	0.688
2.40559	0.697
2.43972	0.721
2.47385	0.725
2.50798	0.722
2.54212	0.73
2.57625	0.733
2.61038	0.738
2.64451	0.745
2.67865	0.758
2.71278	0.758
2.74691	0.768
2.78104	0.773
2.81518	0.778
2.84931	0.781
2.88344	0.781
2.91757	0.781
2.9517	0.781
2.98584	0.789
3.01997	0.786
3.0541	0.777
3.08823	0.699
3.12237	0.577
3.1565	0.522
3.19063	0.5
3.22476	0.485
3.2589	0.464
3.29303	0.464
3.32716	0.471
3.36129	0.423
3.39543	0.278
3.42956	0.149
3.46369	0.138
3.49782	0.238
3.53195	0.266
3.56609	0.516
3.60022	0.649
3.63435	0.678
3.66848	0.706
3.70262	0.729
3.73675	0.749
3.77088	0.76
3.80501	0.775
3.83915	0.788
3.87328	0.8
3.90741	0.807
3.94154	0.819
3.97567	0.819
4.00981	0.827
4.04394	0.827
4.07807	0.828
4.1122	0.831
4.14634	0.835
4.18047	0.841
4.2146	0.84
4.24873	0.839
4.28287	0.841
4.317	0.847
4.35113	0.85
4.38526	0.862
4.41939	0.867
4.45353	0.867
4.48766	0.868
4.52179	0.873
4.55592	0.87
4.59006	0.872
4.62419	0.873
4.65832	0.878
4.69245	0.878
4.72659	0.881
4.76072	0.883
4.79485	0.881
4.82898	0.887
4.86311	0.891
4.89725	0.89
4.93138	0.898
4.96551	0.901
4.99964	0.9
5.03378	0.892
5.06791	0.901
5.10204	0.906
5.13617	0.909
5.17031	0.911
5.20444	0.913
5.23857	0.912
5.2727	0.909
5.30683	0.912
5.34097	0.914
5.3751	0.913
5.40923	0.914
5.44336	0.913
5.4775	0.901
5.51163	0.903
5.54576	0.9
5.57989	0.87
5.61403	0.855
5.64816	0.819
5.68229	0.799
5.71642	0.573
5.75056	0.419
5.78469	0.274
5.81882	0.292
5.85295	0.434
5.88708	0.31
5.92122	0.171
5.95535	0.27
5.98948	0.456
6.02361	0.611
6.05775	0.665
6.09188	0.714
6.12601	0.736
6.16014	0.75
6.19428	0.763
6.22841	0.779
6.26254	0.781
6.29667	0.751
6.3308	0.669
6.36494	0.556
6.39907	0.512
6.4332	0.671
6.46733	0.73
6.50147	0.732
6.5356	0.701
6.56973	0.688
6.60386	0.751
6.638	0.767
6.67213	0.813
6.70626	0.813
6.74039	0.812
6.77452	0.79
6.80866	0.61
6.84279	0.522
6.87692	0.506
6.91105	0.521
6.94519	0.57
6.97932	0.6
7.01345	0.632
7.04758	0.644
7.08172	0.686
7.11585	0.612
7.14998	0.47
7.18411	0.522
7.21824	0.69
7.25238	0.613
7.28651	0.54
7.32064	0.663
7.35477	0.752
7.38891	0.777
7.42304	0.651
7.45717	0.549
7.4913	0.74
7.52544	0.766
7.55957	0.785
7.5937	0.825
7.62783	0.841
7.66197	0.851
7.6961	0.864
7.73023	0.864
7.76436	0.874
7.79849	0.822
7.83263	0.612
7.86676	0.514
7.90089	0.503
7.93502	0.51
7.96916	0.657
8.00329	0.771
8.03742	0.828
8.07155	0.842
8.10569	0.866
8.13982	0.872
8.17395	0.883
8.20808	0.883
8.24221	0.838
8.27635	0.781
8.31048	0.82
8.34461	0.851
8.37874	0.846
8.41288	0.831
8.44701	0.851
8.48114	0.874
8.51527	0.88
8.54941	0.89
8.58354	0.895
8.61767	0.902
8.6518	0.902
8.68593	0.903
8.72007	0.903
8.7542	0.904
8.78833	0.908
8.82246	0.912
8.8566	0.913
8.89073	0.917
8.92486	0.912
8.95899	0.891
8.99313	0.886
9.02726	0.903
9.06139	0.911
9.09552	0.922
9.12965	0.92
9.16379	0.924
9.19792	0.928
9.23205	0.93
9.26618	0.931
9.30032	0.929
9.33445	0.926
9.36858	0.925
9.40271	0.929
9.43685	0.93
9.47098	0.923
9.50511	0.919
9.53924	0.913
9.57337	0.872
9.60751	0.851
9.64164	0.864
9.67577	0.886
9.7099	0.914
9.74404	0.913
9.77817	0.913
9.8123	0.904
9.84643	0.883
9.88057	0.834
9.9147	0.805
9.94883	0.823
9.98296	0.852
10.0171	0.878
10.0512	0.889
10.0854	0.902
10.1195	0.897
10.1536	0.855
10.1878	0.829
10.2219	0.823
10.256	0.862
10.2902	0.891
10.3243	0.902
10.3584	0.909
10.3926	0.912
10.4267	0.915
10.4608	0.92
10.4949	0.925
10.5291	0.925
10.5632	0.931
10.5973	0.934
10.6315	0.936
10.6656	0.933
10.6997	0.933
10.7339	0.934
10.768	0.935
10.8021	0.934
10.8363	0.933
10.8704	0.934
10.9045	0.935
10.9387	0.934
10.9728	0.931
11.0069	0.933
11.0411	0.933
11.0752	0.934
11.1093	0.933
11.1435	0.933
11.1776	0.933
11.2117	0.933
11.2459	0.926
11.28	0.915
11.3141	0.922
11.3483	0.922
11.3824	0.922
11.4165	0.917
11.4507	0.911
11.4848	0.898
11.5189	0.874
11.553	0.841
11.5872	0.839
11.6213	0.862
11.6554	0.874
11.6896	0.879
11.7237	0.881
11.7578	0.876
11.792	0.87
11.8261	0.861
11.8602	0.845
11.8944	0.825
11.9285	0.803
11.9626	0.771
11.9968	0.721
12.0309	0.688
12.065	0.674
12.0992	0.671
12.1333	0.668
12.1674	0.683
12.2016	0.702
12.2357	0.721
12.2698	0.732
12.304	0.734
12.3381	0.729
12.3722	0.728
12.4064	0.791
12.4405	0.805
12.4746	0.812
12.5088	0.823
12.5429	0.827
12.577	0.831
12.6112	0.836
12.6453	0.845
12.6794	0.851
12.7135	0.856
12.7477	0.873
12.7818	0.88
12.8159	0.884
12.8501	0.889
12.8842	0.894
12.9183	0.898
12.9525	0.894
12.9866	0.895
13.0207	0.896
13.0549	0.898
13.089	0.898
13.1231	0.894
13.1573	0.864
13.1914	0.844
13.2255	0.822
13.2597	0.834
13.2938	0.859
13.3279	0.866
13.3621	0.864
13.3962	0.864
13.4303	0.864
13.4645	0.864
13.4986	0.88
13.5327	0.892
13.5669	0.896
13.601	0.901
13.6351	0.901
13.6693	0.895
13.7034	0.89
13.7375	0.89
13.7717	0.885
13.8058	0.881
13.8399	0.864
13.874	0.853
13.9082	0.853
13.9423	0.853
13.9764	0.853
14.0106	0.853
14.0447	0.853
14.0788	0.853
14.113	0.857
14.1471	0.87
14.1812	0.879
14.2154	0.885
14.2495	0.89
14.2836	0.891
14.3178	0.892
14.3519	0.89
14.386	0.892
14.4202	0.894
14.4543	0.883
14.4884	0.873
14.5226	0.864
14.5567	0.863
14.5908	0.844
14.625	0.814
14.6591	0.829
14.6932	0.848
14.7274	0.855
14.7615	0.864
14.7956	0.866
