Infrared Spectrum: o-BROMOANISOLE
Formula: C7 H7 Br O
CAS: 578-57-4
State: LIQUID (NEAT)
Boiling point: 106-109 C AT 20 mmHg
Class: COBLENTZ III
Instrument: BAIRD (GRATING)
Instrument parameters: NaCl PRISM
Path length: 0.005 CM
Resolution: 2
Origin: WYANDOTTE CHEMICALS CORP.
1/CM	TRANSMITTANCE
626	0.6759
635	0.6634
644	0.5574
653	0.2874
662	0.3839
671	0.6122
680	0.6526
689	0.5738
698	0.6214
707	0.3556
716	0.5303
725	0.4381
734	0.1396
743	0.0404
752	0.0384
761	0.049
770	0.2874
779	0.4168
788	0.1128
797	0.3748
806	0.6087
815	0.6687
824	0.6982
833	0.5752
842	0.5412
851	0.6913
860	0.7247
869	0.7235
878	0.7021
887	0.7289
896	0.7472
905	0.7403
914	0.6847
923	0.361
932	0.4884
941	0.6689
950	0.6868
959	0.6529
968	0.5991
977	0.5599
986	0.5264
995	0.4517
1004	0.3046
1013	0.1463
1022	0.0181
1031	0.0208
1040	0.0845
1049	0.0596
1058	0.0131
1067	0.1011
1076	0.2958
1085	0.5216
1094	0.6064
1103	0.6345
1112	0.5898
1121	0.2041
1130	0.1521
1139	0.4897
1148	0.4287
1157	0.3528
1166	0.1591
1175	0.2912
1184	0.0894
1193	0.3869
1202	0.5972
1211	0.6013
1220	0.5354
1229	0.2773
1238	0.0408
1247	0.0145
1256	0.015
1265	0.0201
1274	0.0119
1283	0.012
1292	0.0137
1301	0.0182
1310	0.1633
1319	0.373
1328	0.587
1337	0.6432
1346	0.6702
1355	0.6732
1364	0.6585
1373	0.644
1382	0.5421
1391	0.5237
1400	0.5651
1409	0.527
1418	0.4325
1427	0.2452
1436	0.0334
1445	0.0226
1454	0.0214
1463	0.0204
1472	0.0177
1481	0.0154
1490	0.0194
1499	0.1504
1508	0.311
1517	0.4695
1526	0.6005
1535	0.6158
1544	0.6095
1553	0.5866
1562	0.4899
1571	0.2752
1580	0.0693
1589	0.0267
1598	0.0169
1607	0.0447
1616	0.2465
1625	0.4789
1634	0.68
1643	0.7645
1652	0.7787
1661	0.771
1670	0.7253
1679	0.7047
1688	0.73
1697	0.7646
1706	0.7757
1715	0.7668
1724	0.7552
1733	0.7486
1742	0.7386
1751	0.6879
1760	0.6728
1769	0.7139
1778	0.7636
1787	0.764
1796	0.7501
1805	0.7617
1814	0.7871
1823	0.77
1832	0.7427
1841	0.7314
1850	0.7347
1859	0.7435
1868	0.717
1877	0.6712
1886	0.6711
1895	0.7045
1904	0.7252
1913	0.7245
1922	0.7759
1931	0.8191
1940	0.841
1949	0.8459
1958	0.8436
1967	0.8338
1976	0.8132
1985	0.7807
1994	0.7455
2003	0.6735
2012	0.6249
2021	0.6405
2030	0.6784
2039	0.6839
2048	0.6885
2057	0.7263
2066	0.7732
2075	0.8197
2084	0.8431
2093	0.8506
2102	0.8532
2111	0.8584
2120	0.8656
2129	0.8686
2138	0.869
2147	0.867
2156	0.8642
2165	0.8603
2174	0.8597
2183	0.8608
2192	0.8549
2201	0.8441
2210	0.8295
2219	0.8065
2228	0.7672
2237	0.7701
2246	0.7979
2255	0.8239
2264	0.8325
2273	0.8382
2282	0.8407
2291	0.8427
2300	0.8442
2309	0.8444
2318	0.8443
2327	0.8442
2336	0.8444
2345	0.8446
2354	0.8447
2363	0.8443
2372	0.8455
2381	0.8473
2390	0.85
2399	0.8527
2408	0.853
2417	0.8512
2426	0.8463
2435	0.8396
2444	0.831
2453	0.8189
2462	0.8039
2471	0.7853
2480	0.7778
2489	0.7699
2498	0.7385
2507	0.7135
2516	0.697
2525	0.6966
2534	0.7065
2543	0.7179
2552	0.727
2561	0.7354
2570	0.7439
2579	0.7525
2588	0.7674
2597	0.808
2606	0.8305
2615	0.8402
2624	0.8461
2633	0.85
2642	0.8519
2651	0.852
2660	0.8462
2669	0.8367
2678	0.8282
2687	0.8185
2696	0.8112
2705	0.8051
2714	0.7989
2723	0.7933
2732	0.7879
2741	0.7826
2750	0.7774
2759	0.7702
2768	0.7546
2777	0.6818
2786	0.5889
2795	0.4965
2804	0.4048
2813	0.3383
2822	0.3595
2831	0.4355
2840	0.5045
2849	0.5081
2858	0.4669
2867	0.418
2876	0.3693
2885	0.321
2894	0.273
2903	0.2252
2912	0.1778
2921	0.1317
2930	0.1206
2939	0.1206
2948	0.1336
2957	0.1782
2966	0.2227
2975	0.267
2984	0.2827
2993	0.2851
3002	0.3456
3011	0.4164
3020	0.4315
3029	0.426
3038	0.4092
3047	0.3957
3056	0.4154
3065	0.4865
3074	0.5576
3083	0.6282
3092	0.6946
3101	0.7213
3110	0.7421
3119	0.762
3128	0.7741
3137	0.7842
3146	0.7937
3155	0.8031
3164	0.8124
3173	0.8217
3182	0.8308
3191	0.8395
3200	0.8482
3209	0.8567
3218	0.8635
3227	0.8701
3236	0.8763
3245	0.8808
3254	0.8852
3263	0.8877
3272	0.8893
3281	0.8909
3290	0.8922
3299	0.8929
3308	0.8937
3317	0.8944
3326	0.8952
3335	0.8956
3344	0.8958
3353	0.896
3362	0.8961
3371	0.8963
3380	0.8965
3389	0.8966
3398	0.8966
3407	0.8966
3416	0.8966
3425	0.8966
3434	0.8966
3443	0.8966
3452	0.8966
3461	0.8967
3470	0.8969
3479	0.897
3488	0.8971
3497	0.8973
3506	0.8974
3515	0.8975
3524	0.8977
3533	0.8978
3542	0.8979
3551	0.898
3560	0.8982
3569	0.8983
3578	0.8984
3587	0.8985
3596	0.8985
3605	0.8986
3614	0.8987
3623	0.8987
3632	0.8988
3641	0.8989
3650	0.899
3659	0.899
3668	0.8991
3677	0.8992
3686	0.8992
3695	0.8993
3704	0.8994
3713	0.8994
3722	0.8995
3731	0.8995
3740	0.8995
3749	0.8996
3758	0.8996
3767	0.8997
3776	0.8997
3785	0.8993
3794	0.8987
3803	0.8983
3812	0.8977
3821	0.8972
3830	0.8967
3839	0.8961
3848	0.8957
3857	0.8951
3866	0.8942
3875	0.8933
3884	0.8922
3893	0.8913
3902	0.8903
3911	0.8893
3920	0.8883
3929	0.8873
3938	0.8863
3947	0.8854
3956	0.8845
3965	0.8837
3974	0.8828
3983	0.882
3992	0.8811
