Infrared Spectrum: 8-AMINOQUINOLINE
Formula: C9 H8 N2
CAS: 578-66-5
State: SOLID (MINERAL OIL MULL)
Melting point: 64-66 C
Class: COBLENTZ
Instrument: Not specified, most likely a prism, grating, or hybrid spectrometer.
Sampling: TRANSMISSION
Resolution: 4
Origin: WYANDOTTE CHEMICALS CORP., WYANDOTTE, MICHIGAN, USA
MICROMETERS	TRANSMITTANCE
2.019	0.291
2.05615	0.29
2.0933	0.291
2.13045	0.298
2.1676	0.291
2.20475	0.298
2.2419	0.293
2.27904	0.29
2.31619	0.291
2.35334	0.293
2.39049	0.29
2.42764	0.291
2.46479	0.298
2.50194	0.298
2.53909	0.295
2.57624	0.296
2.61339	0.299
2.65054	0.312
2.68769	0.326
2.72484	0.319
2.76199	0.321
2.79913	0.319
2.83628	0.315
2.87343	0.31
2.91058	0.226
2.94773	0.197
2.98488	0.282
3.02203	0.192
3.05918	0.242
3.09633	0.27
3.13348	0.26
3.17063	0.257
3.20778	0.257
3.24493	0.257
3.28208	0.203
3.31922	0.166
3.35637	0.08
3.39352	0.029
3.43067	0.037
3.46782	0.071
3.50497	0.068
3.54212	0.251
3.57927	0.381
3.61642	0.403
3.65357	0.405
3.69072	0.388
3.72787	0.394
3.76502	0.395
3.80216	0.391
3.83931	0.408
3.87646	0.413
3.91361	0.419
3.95076	0.423
3.98791	0.427
4.02506	0.431
4.06221	0.448
4.09936	0.442
4.13651	0.44
4.17366	0.448
4.21081	0.448
4.24796	0.44
4.28511	0.436
4.32225	0.445
4.3594	0.459
4.39655	0.475
4.4337	0.486
4.47085	0.472
4.508	0.482
4.54515	0.492
4.5823	0.489
4.61945	0.498
4.6566	0.5
4.69375	0.5
4.7309	0.506
4.76805	0.517
4.8052	0.523
4.84234	0.521
4.87949	0.521
4.91664	0.534
4.95379	0.532
4.99094	0.534
5.02809	0.549
5.06524	0.56
5.10239	0.562
5.13954	0.52
5.17669	0.552
5.21384	0.571
5.25099	0.498
5.28814	0.571
5.32528	0.579
5.36243	0.54
5.39958	0.6
5.43673	0.605
5.47388	0.61
5.51103	0.599
5.54818	0.616
5.58533	0.619
5.62248	0.642
5.65963	0.625
5.69678	0.635
5.73393	0.661
5.77108	0.663
5.80823	0.628
5.84537	0.681
5.88252	0.697
5.91967	0.681
5.95682	0.703
5.99397	0.736
6.03112	0.722
6.06827	0.72
6.10542	0.501
6.14257	0.256
6.17972	0.299
6.21687	0.234
6.25402	0.253
6.29117	0.36
6.32832	0.378
6.36546	0.402
6.40261	0.563
6.43976	0.59
6.47691	0.67
6.51406	0.694
6.55121	0.621
6.58836	0.259
6.62551	0.169
6.66266	0.312
6.69981	0.389
6.73696	0.318
6.77411	0.113
6.81126	0.136
6.84841	0.214
6.88555	0.285
6.9227	0.394
6.95985	0.43
6.997	0.42
7.03415	0.543
7.0713	0.54
7.10845	0.531
7.1456	0.489
7.18275	0.481
7.2199	0.291
7.25705	0.077
7.2942	0.063
7.33135	0.204
7.36849	0.402
7.40564	0.492
7.44279	0.507
7.47994	0.257
7.51709	0.439
7.55424	0.506
7.59139	0.54
7.62854	0.571
7.66569	0.588
7.70284	0.608
7.73999	0.607
7.77714	0.583
7.81429	0.576
7.85144	0.622
7.88858	0.653
7.92573	0.659
7.96288	0.681
8.00003	0.683
8.03718	0.673
8.07433	0.673
8.11148	0.687
8.14863	0.687
8.18578	0.678
8.22293	0.67
8.26008	0.633
8.29723	0.663
8.33438	0.718
8.37153	0.726
8.40867	0.68
8.44582	0.599
8.48297	0.703
8.52012	0.731
8.55727	0.745
8.59442	0.762
8.63157	0.765
8.66872	0.782
8.70587	0.802
8.74302	0.821
8.78017	0.723
8.81732	0.619
8.85447	0.489
8.89161	0.515
8.92876	0.63
8.96591	0.695
9.00306	0.734
9.04021	0.76
9.07736	0.566
9.11451	0.47
9.15166	0.597
9.18881	0.653
9.22596	0.689
9.26311	0.704
9.30026	0.718
9.33741	0.728
9.37456	0.737
9.4117	0.748
9.44885	0.753
9.486	0.753
9.52315	0.746
9.5603	0.736
9.59745	0.711
9.6346	0.718
9.67175	0.76
9.7089	0.748
9.74605	0.725
9.7832	0.718
9.82035	0.729
9.8575	0.751
9.89465	0.763
9.93179	0.787
9.96894	0.81
10.0061	0.818
10.0432	0.824
10.0804	0.812
10.1175	0.718
10.1547	0.756
10.1918	0.799
10.229	0.812
10.2661	0.81
10.3033	0.807
10.3404	0.748
10.3776	0.675
10.4147	0.706
10.4519	0.784
10.489	0.81
10.5262	0.818
10.5633	0.826
10.6005	0.793
10.6376	0.65
10.6748	0.767
10.7119	0.81
10.7491	0.819
10.7862	0.827
10.8234	0.832
10.8605	0.844
10.8977	0.841
10.9348	0.847
10.972	0.854
11.0091	0.866
11.0463	0.86
11.0834	0.861
11.1206	0.847
11.1577	0.833
11.1949	0.799
11.232	0.694
11.2692	0.68
11.3063	0.836
11.3435	0.906
11.3806	0.93
11.4178	0.934
11.4549	0.939
11.4921	0.927
11.5292	0.826
11.5664	0.599
11.6035	0.619
11.6407	0.72
11.6778	0.767
11.715	0.795
11.7521	0.818
11.7893	0.819
11.8264	0.824
11.8636	0.827
11.9007	0.829
11.9379	0.827
11.975	0.81
12.0122	0.787
12.0493	0.743
12.0865	0.667
12.1236	0.509
12.1608	0.296
12.1979	0.113
12.235	0.088
12.2722	0.189
12.3093	0.399
12.3465	0.618
12.3836	0.759
12.4208	0.812
12.4579	0.745
12.4951	0.709
12.5322	0.717
12.5694	0.568
12.6065	0.29
12.6437	0.088
12.6808	0.062
12.718	0.145
12.7551	0.284
12.7923	0.42
12.8294	0.529
12.8666	0.597
12.9037	0.627
12.9409	0.642
12.978	0.613
13.0152	0.526
13.0523	0.394
13.0895	0.268
13.1266	0.232
13.1638	0.268
13.2009	0.321
13.2381	0.35
13.2752	0.304
13.3124	0.316
13.3495	0.425
13.3867	0.5
13.4238	0.537
13.461	0.568
13.4981	0.588
13.5353	0.614
13.5724	0.638
13.6096	0.652
13.6467	0.664
13.6839	0.677
13.721	0.686
13.7582	0.698
13.7953	0.704
13.8325	0.709
13.8696	0.718
13.9068	0.732
13.9439	0.75
13.9811	0.781
14.0182	0.801
14.0554	0.822
14.0925	0.847
14.1297	0.868
14.1668	0.784
14.204	0.63
14.2411	0.549
14.2783	0.557
14.3154	0.602
14.3526	0.635
14.3897	0.659
14.4269	0.675
14.464	0.686
14.5012	0.697
14.5383	0.704
14.5755	0.7
14.6126	0.694
14.6498	0.7
14.6869	0.687
14.7241	0.689
14.7612	0.687
14.7983	0.675
14.8355	0.672
14.8726	0.667
14.9098	0.667
14.9469	0.659
14.9841	0.652
15.0212	0.616
15.0584	0.582
15.0955	0.577
15.1327	0.59
15.1698	0.604
15.207	0.61
15.2441	0.619
15.2813	0.6
15.3184	0.604
15.3556	0.583
15.3927	0.568
15.4299	0.563
15.467	0.552
15.5042	0.521
15.5413	0.492
15.5785	0.465
15.6156	0.445
15.6528	0.439
15.6899	0.453
15.7271	0.487
15.7642	0.51
15.8014	0.515
15.8385	0.515
15.8757	0.515
15.9128	0.501
15.95	0.492
15.9871	0.484
