Infrared Spectrum: O-METHYL ANISOLE
Formula: C8 H10 O
CAS: 578-58-5
State: LIQUID
Boiling point: 52-55 C AT 8 mmHg
Class: COBLENTZ
Instrument: Not specified, most likely a prism, grating, or hybrid spectrometer.
Sampling: TRANSMISSION
Path length: 0.003 CM
Resolution: 4
Origin: WYANDOTTE CHEMICALS CORP., WYANDOTTE, MICHIGAN, USA
MICROMETERS	TRANSMITTANCE
2.024	0.97
2.06277	0.964
2.10155	0.959
2.14032	0.961
2.1791	0.938
2.21787	0.927
2.25664	0.93
2.29542	0.938
2.33419	0.94
2.37297	0.936
2.41174	0.938
2.45051	0.94
2.48929	0.949
2.52806	0.956
2.56684	0.967
2.60561	0.966
2.64438	0.978
2.68316	0.98
2.72193	0.977
2.76071	0.983
2.79948	0.98
2.83826	0.977
2.87703	0.978
2.9158	0.974
2.95458	0.966
2.99335	0.967
3.03213	0.961
3.0709	0.959
3.10967	0.943
3.14845	0.917
3.18722	0.896
3.226	0.737
3.26477	0.535
3.30354	0.389
3.34232	0.307
3.38109	0.184
3.41987	0.32
3.45864	0.59
3.49741	0.576
3.53619	0.645
3.57496	0.906
3.61374	0.92
3.65251	0.901
3.69128	0.936
3.73006	0.951
3.76883	0.948
3.80761	0.928
3.84638	0.932
3.88515	0.925
3.92393	0.917
3.9627	0.925
4.00148	0.949
4.04025	0.906
4.07903	0.933
4.1178	0.951
4.15657	0.941
4.19535	0.927
4.23412	0.97
4.2729	0.993
4.31167	0.993
4.35044	0.99
4.38922	0.969
4.42799	0.959
4.46677	0.962
4.50554	0.951
4.54431	0.953
4.58309	0.959
4.62186	0.962
4.66064	0.964
4.69941	0.962
4.73818	0.964
4.77696	0.966
4.81573	0.951
4.85451	0.894
4.89328	0.857
4.93205	0.932
4.97083	0.946
5.0096	0.951
5.04838	0.902
5.08715	0.911
5.12592	0.956
5.1647	0.959
5.20347	0.898
5.24225	0.92
5.28102	0.911
5.3198	0.855
5.35857	0.914
5.39734	0.932
5.43612	0.927
5.47489	0.932
5.51367	0.935
5.55244	0.915
5.59121	0.928
5.62999	0.917
5.66876	0.877
5.70754	0.902
5.74631	0.907
5.78508	0.928
5.82386	0.925
5.86263	0.925
5.90141	0.899
5.94018	0.883
5.97895	0.909
6.01773	0.911
6.0565	0.88
6.09528	0.826
6.13405	0.707
6.17282	0.228
6.2116	0.182
6.25037	0.483
6.28915	0.778
6.32792	0.807
6.36669	0.791
6.40547	0.797
6.44424	0.802
6.48302	0.752
6.52179	0.66
6.56057	0.36
6.59934	0.163
6.63811	0.035
6.67689	0.156
6.71566	0.312
6.75444	0.161
6.79321	0.084
6.83198	0.187
6.87076	0.229
6.90953	0.207
6.94831	0.25
6.98708	0.588
7.02585	0.749
7.06463	0.765
7.1034	0.784
7.14218	0.783
7.18095	0.77
7.21972	0.639
7.2585	0.81
7.29727	0.867
7.33605	0.883
7.37482	0.888
7.41359	0.87
7.45237	0.828
7.49114	0.749
7.52992	0.53
7.56869	0.37
7.60746	0.226
7.64624	0.383
7.68501	0.53
7.72379	0.237
7.76256	0.419
7.80134	0.537
7.84011	0.504
7.87888	0.388
7.91766	0.168
7.95643	0.025
7.99521	0.025
8.03398	0.029
8.07275	0.103
8.11153	0.425
8.1503	0.588
8.18908	0.632
8.22785	0.687
8.26662	0.658
8.3054	0.563
8.34417	0.598
8.38295	0.605
8.42172	0.433
8.46049	0.082
8.49927	0.357
8.53804	0.585
8.57682	0.493
8.61559	0.6
8.65436	0.663
8.69314	0.754
8.73191	0.763
8.77069	0.708
8.80946	0.496
8.84823	0.139
8.88701	0.059
8.92578	0.48
8.96456	0.692
9.00333	0.762
9.04211	0.776
9.08088	0.781
9.11965	0.8
9.15843	0.822
9.1972	0.825
9.23598	0.82
9.27475	0.813
9.31352	0.796
9.3523	0.754
9.39107	0.632
9.42985	0.336
9.46862	0.074
9.50739	0.155
9.54617	0.233
9.58494	0.098
9.62372	0.03
9.66249	0.051
9.70126	0.26
9.74004	0.444
9.77881	0.55
9.81759	0.618
9.85636	0.669
9.89513	0.716
9.93391	0.75
9.97268	0.757
10.0115	0.754
10.0502	0.708
10.089	0.653
10.1278	0.653
10.1666	0.741
10.2053	0.796
10.2441	0.831
10.2829	0.843
10.3216	0.857
10.3604	0.86
10.3992	0.87
10.438	0.872
10.4767	0.881
10.5155	0.886
10.5543	0.886
10.5931	0.888
10.6318	0.883
10.6706	0.875
10.7094	0.852
10.7482	0.802
10.7869	0.724
10.8257	0.676
10.8645	0.747
10.9033	0.833
10.942	0.877
10.9808	0.893
11.0196	0.901
11.0584	0.909
11.0971	0.914
11.1359	0.909
11.1747	0.909
11.2135	0.907
11.2522	0.902
11.291	0.906
11.3298	0.904
11.3685	0.902
11.4073	0.912
11.4461	0.915
11.4849	0.911
11.5236	0.907
11.5624	0.906
11.6012	0.909
11.64	0.906
11.6787	0.891
11.7175	0.888
11.7563	0.868
11.7951	0.838
11.8338	0.812
11.8726	0.797
11.9114	0.809
11.9502	0.83
11.9889	0.836
12.0277	0.833
12.0665	0.815
12.1053	0.778
12.144	0.711
12.1828	0.588
12.2216	0.503
12.2604	0.616
12.2991	0.731
12.3379	0.783
12.3767	0.822
12.4154	0.847
12.4542	0.859
12.493	0.865
12.5318	0.868
12.5705	0.864
12.6093	0.868
12.6481	0.859
12.6869	0.843
12.7256	0.82
12.7644	0.807
12.8032	0.796
12.842	0.76
12.8807	0.724
12.9195	0.676
12.9583	0.629
12.9971	0.551
13.0358	0.446
13.0746	0.309
13.1134	0.19
13.1522	0.106
13.1909	0.046
13.2297	0.042
13.2685	0.038
13.3073	0.037
13.346	0.038
13.3848	0.045
13.4236	0.058
13.4623	0.122
13.5011	0.266
13.5399	0.412
13.5787	0.525
13.6174	0.622
13.6562	0.682
13.695	0.731
13.7338	0.752
13.7725	0.763
13.8113	0.765
13.8501	0.739
13.8889	0.681
13.9276	0.546
13.9664	0.355
14.0052	0.257
14.044	0.289
14.0827	0.453
14.1215	0.64
14.1603	0.745
14.1991	0.802
14.2378	0.843
14.2766	0.864
14.3154	0.872
14.3542	0.881
14.3929	0.88
14.4317	0.875
14.4705	0.868
14.5092	0.864
14.548	0.872
14.5868	0.881
14.6256	0.893
14.6643	0.902
14.7031	0.901
14.7419	0.901
14.7807	0.901
14.8194	0.901
14.8582	0.906
14.897	0.898
14.9358	0.899
14.9745	0.893
15.0133	0.877
15.0521	0.875
15.0909	0.888
15.1296	0.893
15.1684	0.899
15.2072	0.889
15.246	0.888
15.2847	0.88
15.3235	0.881
15.3623	0.873
15.4011	0.873
15.4398	0.872
15.4786	0.875
15.5174	0.862
15.5561	0.86
15.5949	0.852
15.6337	0.852
15.6725	0.849
15.7112	0.843
15.75	0.839
15.7888	0.836
15.8276	0.833
15.8663	0.83
15.9051	0.825
15.9439	0.815
