Infrared Spectrum: BENZENEMETHANOL, Alpha-CYCLOPROPYL-Alpha-PHENYL-
Formula: C16 H16 O
CAS: 5785-66-0
State: SOLUTION (10% IN CCl4 FOR 3800-1300, 10% IN CS2 FOR 1300-600, 10% IN CCl4 FOR 600-250 CM^-^1) VERSUS SOLVENT
Class: COBLENTZ III
Instrument: PERKIN-ELMER 521 (GRATING)
Instrument parameters: FILTERS AT 3150, 2500, 2000, 1150, 700, 410; GRATING CHANGES AT 2000, 630 CM^-^1
Sampling: TRANSMISSION
Path length: 0.011, 0.011, AND 0.010 CM (CsBr CELL)
Resolution: 4
Origin: DOW CORNING CORP.
1/CM	TRANSMITTANCE
246.204	0.606
256.035	0.612
265.865	0.618
275.696	0.637
285.527	0.646
295.358	0.656
305.188	0.657
315.019	0.663
324.85	0.661
334.68	0.66
344.511	0.659
354.342	0.68
364.173	0.703
374.003	0.714
383.834	0.716
393.665	0.744
403.495	0.744
413.326	0.754
423.157	0.763
432.987	0.763
442.818	0.762
452.649	0.771
462.48	0.782
472.31	0.774
482.141	0.771
491.972	0.782
501.802	0.763
511.633	0.712
521.464	0.748
531.295	0.723
541.125	0.633
550.956	0.751
560.787	0.714
570.617	0.781
580.448	0.785
590.279	0.775
600.11	0.732
609.94	0.656
619.771	0.771
629.602	0.5669
639.432	0.802
649.263	0.845
659.094	0.836
668.924	0.782
678.755	0.763
688.586	0.4889
698.417	0.034
708.247	0.691
718.078	0.837
727.909	0.853
737.739	0.748
747.57	0.081
757.401	0.284
767.232	0.471
777.062	0.758
786.893	0.861
796.724	0.908
806.554	0.888
816.385	0.707
826.216	0.829
836.047	0.808
845.877	0.808
855.708	0.712
865.539	0.583
875.369	0.497
885.2	0.767
895.031	0.84
904.862	0.679
914.692	0.5741
924.523	0.802
934.354	0.865
944.184	0.801
954.015	0.684
963.846	0.693
973.676	0.401
983.507	0.3221
993.338	0.437
1003.17	0.471
1013	0.452
1022.83	0.424
1032.66	0.4171
1042.49	0.743
1052.32	0.824
1062.15	0.821
1071.98	0.739
1081.81	0.867
1091.64	0.875
1101.48	0.802
1111.31	0.82
1121.14	0.789
1130.97	0.672
1140.8	0.528
1150.63	0.495
1160.46	0.451
1170.29	0.518
1180.12	0.566
1189.95	0.636
1199.78	0.681
1209.61	0.714
1219.44	0.775
1229.27	0.802
1239.11	0.791
1248.94	0.793
1258.77	0.775
1268.6	0.699
1278.43	0.641
1288.26	0.591
1298.09	0.567
1307.92	0.573
1317.75	0.507
1327.58	0.502
1337.41	0.579
1347.24	0.706
1357.07	0.7
1366.9	0.652
1376.74	0.693
1386.57	0.726
1396.4	0.783
1406.23	0.794
1416.06	0.759
1425.89	0.746
1435.72	0.736
1445.55	0.2079
1455.38	0.699
1465.21	0.775
1475.04	0.765
1484.87	0.5749
1494.7	0.4322
1504.53	0.797
1514.37	0.869
1524.2	0.884
1534.03	0.885
1543.86	0.889
1553.69	0.899
1563.52	0.885
1573.35	0.864
1583.18	0.826
1593.01	0.765
1602.84	0.734
1612.67	0.841
1622.5	0.859
1632.33	0.865
1642.16	0.865
1652	0.864
1661.83	0.859
1671.66	0.863
1681.49	0.867
1691.32	0.871
1701.15	0.872
1710.98	0.872
1720.81	0.871
1730.64	0.868
1740.47	0.864
1750.3	0.855
1760.13	0.855
1769.96	0.864
1779.79	0.867
1789.63	0.864
1799.46	0.837
1809.29	0.804
1819.12	0.846
1828.95	0.863
1838.78	0.875
1848.61	0.88
1858.44	0.879
1868.27	0.861
1878.1	0.818
1887.93	0.821
1897.76	0.838
1907.59	0.867
1917.42	0.872
1927.26	0.868
1937.09	0.852
1946.92	0.798
1956.75	0.825
1966.58	0.856
1976.41	0.884
1986.24	0.887
1996.07	0.895
2005.9	0.911
2015.73	0.912
2025.56	0.911
2035.39	0.911
2045.22	0.9081
2055.05	0.9041
2064.89	0.8962
2074.72	0.8909
2084.55	0.9069
2094.38	0.91
2104.21	0.902
2114.04	0.9109
2123.87	0.9118
2133.7	0.9122
2143.53	0.9101
2153.36	0.9083
2163.19	0.908
2173.02	0.911
2182.85	0.91
2192.68	0.907
2202.52	0.91
2212.35	0.908
2222.18	0.9044
2232.01	0.9068
2241.84	0.9096
2251.67	0.9077
2261.5	0.906
2271.33	0.906
2281.16	0.908
2290.99	0.907
2300.82	0.9073
2310.65	0.903
2320.48	0.9005
2330.31	0.899
2340.15	0.897
2349.98	0.899
2359.81	0.9
2369.64	0.9074
2379.47	0.907
2389.3	0.906
2399.13	0.906
2408.96	0.904
2418.79	0.903
2428.62	0.902
2438.45	0.902
2448.28	0.9
2458.11	0.899
2467.94	0.896
2477.77	0.895
2487.61	0.893
2497.44	0.895
2507.27	0.896
2517.1	0.899
2526.93	0.8994
2536.76	0.8996
2546.59	0.8979
2556.42	0.899
2566.25	0.897
2576.08	0.895
2585.91	0.895
2595.74	0.8965
2605.57	0.899
2615.4	0.9
2625.24	0.8955
2635.07	0.8965
2644.9	0.9
2654.73	0.899
2664.56	0.897
2674.39	0.9009
2684.22	0.9
2694.05	0.899
2703.88	0.903
2713.71	0.903
2723.54	0.903
2733.37	0.902
2743.2	0.9
2753.03	0.899
2762.87	0.8977
2772.7	0.899
2782.53	0.899
2792.36	0.899
2802.19	0.899
2812.02	0.899
2821.85	0.899
2831.68	0.8967
2841.51	0.8927
2851.34	0.8837
2861.17	0.8717
2871	0.869
2880.83	0.871
2890.66	0.869
2900.5	0.868
2910.33	0.8648
2920.16	0.8625
2929.99	0.86
2939.82	0.86
2949.65	0.86
2959.48	0.8546
2969.31	0.8458
2979.14	0.8321
2988.97	0.7916
2998.8	0.7155
3008.63	0.5606
3018.46	0.459
3028.29	0.4667
3038.13	0.4511
3047.96	0.6481
3057.79	0.599
3067.62	0.4559
3077.45	0.5024
3087.28	0.5295
3097.11	0.4724
3106.94	0.7753
3116.77	0.8386
3126.6	0.8911
3136.43	0.896
3146.26	0.9
3156.09	0.8999
3165.92	0.895
3175.76	0.906
3185.59	0.911
3195.42	0.914
3205.25	0.916
3215.08	0.916
3224.91	0.918
3234.74	0.918
3244.57	0.916
3254.4	0.9141
3264.23	0.9141
3274.06	0.911
3283.89	0.9111
3293.72	0.9071
3303.55	0.906
3313.39	0.906
3323.22	0.9022
3333.05	0.899
3342.88	0.8951
3352.71	0.8921
3362.54	0.8893
3372.37	0.887
3382.2	0.8813
3392.03	0.876
3401.86	0.8695
3411.69	0.8614
3421.52	0.8536
3431.35	0.8418
3441.18	0.8304
3451.02	0.8204
3460.85	0.8084
3470.68	0.7955
3480.51	0.7892
3490.34	0.789
3500.17	0.7938
3510	0.8002
3519.83	0.8095
3529.66	0.8167
3539.49	0.8126
3549.32	0.7952
3559.15	0.7712
3568.98	0.7573
3578.81	0.7533
3588.65	0.7503
3598.48	0.712
3608.31	0.5894
3618.14	0.3796
3627.97	0.5621
3637.8	0.8378
3647.63	0.8767
3657.46	0.8859
3667.29	0.8956
3677.12	0.8996
3686.95	0.903
3696.78	0.9024
3706.61	0.904
3716.44	0.9066
3726.28	0.9106
3736.11	0.912
3745.94	0.914
3755.77	0.912
3765.6	0.911
3775.43	0.91
3785.26	0.911
3795.09	0.911
