Infrared Spectrum: Aniline, 2,6-diethyl-
Formula: C10 H15 N
CAS: 579-66-8
State: LIQUID (NEAT)
Class: COBLENTZ III
Instrument: BECKMAN IR-4 (HYBRID PRISM-GRATING)
Instrument parameters: NaCl PRISM
Sampling: TRANSMISSION
Path length: CAPILLARY
Resolution: 2
Origin: MONSANTO (J. FREEMAN)
1/CM	TRANSMITTANCE
626	0.5031
635	0.5278
644	0.5316
653	0.536
662	0.5544
671	0.5686
680	0.5752
689	0.5902
698	0.6045
707	0.6162
716	0.6153
725	0.5925
734	0.3759
743	0.1067
752	0.1349
761	0.3297
770	0.4797
779	0.512
788	0.5589
797	0.5821
806	0.5534
815	0.5797
824	0.684
833	0.6193
842	0.7074
851	0.7332
860	0.7958
869	0.8183
878	0.8278
887	0.8237
896	0.8091
905	0.8278
914	0.8449
923	0.8517
932	0.8457
941	0.7965
950	0.7449
959	0.7189
968	0.7554
977	0.7614
986	0.8102
995	0.843
1004	0.8627
1013	0.8664
1022	0.8479
1031	0.7505
1040	0.6386
1049	0.5415
1058	0.4596
1067	0.7616
1076	0.7911
1085	0.7888
1094	0.7024
1103	0.5902
1112	0.6903
1121	0.807
1130	0.8146
1139	0.8198
1148	0.8501
1157	0.8614
1166	0.8138
1175	0.8677
1184	0.8787
1193	0.8658
1202	0.8117
1211	0.7543
1220	0.8008
1229	0.7266
1238	0.735
1247	0.7556
1256	0.6504
1265	0.4802
1274	0.4445
1283	0.4336
1292	0.5857
1301	0.6305
1310	0.5578
1319	0.6366
1328	0.6975
1337	0.7536
1346	0.6819
1355	0.7063
1364	0.7585
1373	0.6534
1382	0.638
1391	0.8054
1400	0.8114
1409	0.7998
1418	0.7766
1427	0.7181
1436	0.5296
1445	0.1241
1454	0.0491
1463	0.06
1472	0.1121
1481	0.3526
1490	0.5584
1499	0.717
1508	0.7554
1517	0.8074
1526	0.825
1535	0.8343
1544	0.8327
1553	0.8165
1562	0.7987
1571	0.7793
1580	0.7086
1589	0.6286
1598	0.5452
1607	0.4377
1616	0.1921
1625	0.053
1634	0.2044
1643	0.4
1652	0.5935
1661	0.7038
1670	0.7783
1679	0.8155
1688	0.8419
1697	0.855
1706	0.8838
1715	0.9031
1724	0.9249
1733	0.9315
1742	0.9347
1751	0.9351
1760	0.9335
1769	0.9309
1778	0.9268
1787	0.9168
1796	0.8994
1805	0.8997
1814	0.9111
1823	0.914
1832	0.9066
1841	0.8882
1850	0.8671
1859	0.8749
1868	0.9036
1877	0.9135
1886	0.9038
1895	0.8793
1904	0.8725
1913	0.8931
1922	0.9105
1931	0.9206
1940	0.9239
1949	0.9257
1958	0.9295
1967	0.931
1976	0.9318
1985	0.9326
1994	0.9329
2003	0.9331
2012	0.9334
2021	0.9337
2030	0.934
2039	0.9343
2048	0.9347
2057	0.935
2066	0.9346
2075	0.934
2084	0.9333
2093	0.9313
2102	0.9294
2111	0.9284
2120	0.9275
2129	0.9287
2138	0.9302
2147	0.9326
2156	0.9333
2165	0.9332
2174	0.9327
2183	0.9333
2192	0.9337
2201	0.9334
2210	0.9329
2219	0.9321
2228	0.9312
2237	0.9304
2246	0.9294
2255	0.9283
2264	0.9273
2273	0.9262
2282	0.9251
2291	0.924
2300	0.9248
2309	0.926
2318	0.9276
2327	0.9293
2336	0.931
2345	0.9326
2354	0.9335
2363	0.9346
2372	0.9355
2381	0.9358
2390	0.936
2399	0.934
2408	0.931
2417	0.9264
2426	0.9189
2435	0.9151
2444	0.9191
2453	0.9224
2462	0.9227
2471	0.9222
2480	0.9218
2489	0.9213
2498	0.9206
2507	0.9198
2516	0.919
2525	0.9177
2534	0.9163
2543	0.9148
2552	0.9136
2561	0.9125
2570	0.9131
2579	0.916
2588	0.9159
2597	0.9152
2606	0.913
2615	0.9092
2624	0.9044
2633	0.8982
2642	0.8918
2651	0.8861
2660	0.8855
2669	0.8909
2678	0.8973
2687	0.9
2696	0.8999
2705	0.8998
2714	0.8992
2723	0.8981
2732	0.8936
2741	0.8827
2750	0.8787
2759	0.8785
2768	0.878
2777	0.8769
2786	0.8697
2795	0.8472
2804	0.8272
2813	0.7954
2822	0.7501
2831	0.715
2840	0.6747
2849	0.5972
2858	0.502
2867	0.4075
2876	0.3135
2885	0.2495
2894	0.2713
2903	0.299
2912	0.3265
2921	0.3263
2930	0.2976
2939	0.269
2948	0.2378
2957	0.1981
2966	0.1551
2975	0.1245
2984	0.1255
2993	0.3303
3002	0.4494
3011	0.5536
3020	0.5624
3029	0.5592
3038	0.5533
3047	0.5514
3056	0.5591
3065	0.5981
3074	0.664
3083	0.6893
3092	0.7102
3101	0.7327
3110	0.8194
3119	0.8503
3128	0.866
3137	0.8695
3146	0.8713
3155	0.8708
3164	0.8675
3173	0.8625
3182	0.8561
3191	0.8488
3200	0.8408
3209	0.8313
3218	0.8261
3227	0.8245
3236	0.824
3245	0.8287
3254	0.8419
3263	0.8461
3272	0.8465
3281	0.8462
3290	0.8467
3299	0.8416
3308	0.8354
3317	0.8163
3326	0.7797
3335	0.7257
3344	0.6636
3353	0.6019
3362	0.5404
3371	0.4793
3380	0.4332
3389	0.4383
3398	0.4778
3407	0.5206
3416	0.5632
3425	0.6055
3434	0.6245
3443	0.6101
3452	0.5927
3461	0.5753
3470	0.5581
3479	0.5419
3488	0.5407
3497	0.5352
3506	0.6422
3515	0.7001
3524	0.7577
3533	0.7967
3542	0.8071
3551	0.8158
3560	0.8416
3569	0.8507
3578	0.8584
3587	0.8616
3596	0.8648
3605	0.8683
3614	0.8718
3623	0.874
3632	0.8761
3641	0.8779
3650	0.8796
3659	0.881
3668	0.8819
3677	0.8828
3686	0.8837
3695	0.8844
3704	0.8849
3713	0.8854
3722	0.8858
3731	0.8863
3740	0.8868
3749	0.887
3758	0.8871
3767	0.8872
3776	0.8873
3785	0.8874
3794	0.8874
3803	0.8871
3812	0.8866
3821	0.8861
3830	0.8856
3839	0.885
3848	0.884
3857	0.8829
3866	0.8818
3875	0.8807
3884	0.8795
3893	0.8783
3902	0.877
3911	0.8757
3920	0.8743
3929	0.8729
3938	0.8714
3947	0.8698
3956	0.8684
3965	0.868
3974	0.8676
3983	0.8672
3992	0.8667
