Infrared Spectrum: Caffeine
Formula: C 8 H 10 N 4 O 2
CAS: 58-08-2
State: solid
Instrument: Bruker Tensor 37 FTIR
Resolution: 0.96450084
Origin: Pacific Northwest National Laboratory Under IARPA Contract
1/cm	Reflectance
7498.03	0.822442
7480.67	0.801824
7463.31	0.789101
7445.95	0.775461
7428.59	0.777407
7411.23	0.776333
7393.87	0.774437
7376.51	0.780951
7359.15	0.797506
7341.79	0.806475
7324.43	0.815461
7307.07	0.825659
7289.71	0.835961
7272.35	0.831404
7254.99	0.815327
7237.63	0.801413
7220.27	0.80142
7202.91	0.818336
7185.55	0.827393
7168.19	0.84345
7150.83	0.861776
7133.47	0.868076
7116.11	0.871342
7098.75	0.874034
7081.39	0.876195
7064.03	0.876392
7046.67	0.874722
7029.31	0.877302
7011.96	0.875039
6994.6	0.874696
6977.24	0.872713
6959.88	0.866721
6942.52	0.864209
6925.16	0.859104
6907.8	0.852745
6890.44	0.841074
6873.08	0.826075
6855.72	0.803923
6838.36	0.764988
6821	0.717667
6803.64	0.668295
6786.28	0.656062
6768.92	0.630259
6751.56	0.58635
6734.2	0.571779
6716.84	0.642433
6699.48	0.661326
6682.12	0.636127
6664.76	0.634481
6647.4	0.647227
6630.04	0.682953
6612.68	0.722179
6595.32	0.748818
6577.96	0.760662
6560.6	0.758192
6543.24	0.756518
6525.88	0.758829
6508.52	0.756867
6491.16	0.775029
6473.8	0.7853
6456.44	0.789207
6439.08	0.788416
6421.72	0.788922
6404.36	0.785552
6387	0.777151
6369.64	0.766445
6352.28	0.742234
6334.92	0.754203
6317.56	0.775666
6300.2	0.779156
6282.84	0.784757
6265.48	0.776667
6248.12	0.773693
6230.76	0.768677
6213.4	0.755314
6196.04	0.759276
6178.68	0.747908
6161.32	0.704763
6143.97	0.679055
6126.61	0.645901
6109.25	0.637286
6091.89	0.603314
6074.53	0.567969
6057.17	0.563565
6039.81	0.544424
6022.45	0.494536
6005.09	0.404134
5987.73	0.300822
5970.37	0.25194
5953.01	0.275888
5935.65	0.330141
5918.29	0.371338
5900.93	0.382363
5883.57	0.430582
5866.21	0.443538
5848.85	0.449875
5831.49	0.434486
5814.13	0.364276
5796.77	0.423349
5779.41	0.499554
5762.05	0.515716
5744.69	0.51192
5727.33	0.508652
5709.97	0.570228
5692.61	0.614055
5675.25	0.59909
5657.89	0.646624
5640.53	0.637109
5623.17	0.592418
5605.81	0.610853
5588.45	0.625963
5571.09	0.629198
5553.73	0.604549
5536.37	0.57018
5519.01	0.546549
5501.65	0.530925
5484.29	0.522137
5466.93	0.485481
5449.57	0.387482
5432.21	0.331468
5414.85	0.221725
5397.49	0.262979
5380.13	0.331806
5362.77	0.320175
5345.41	0.237633
5328.05	0.206305
5310.69	0.0692109
5293.33	0.101637
5275.97	0.144951
5258.62	0.120963
5241.26	0.101676
5223.9	0.0619437
5206.54	0.121118
5189.18	0.132112
5171.82	0.202865
5154.46	0.260381
5137.1	0.285336
5119.74	0.2851
5102.38	0.299027
5085.02	0.257382
5067.66	0.320515
5050.3	0.28856
5032.94	0.225888
5015.58	0.3137
4998.22	0.275123
4980.86	0.291509
4963.5	0.271645
4946.14	0.263086
4928.78	0.324003
4911.42	0.369604
4894.06	0.333193
4876.7	0.277836
4859.34	0.321778
4841.98	0.319419
4824.62	0.361879
4807.26	0.401648
4789.9	0.412549
4772.54	0.323363
4755.18	0.322327
4737.82	0.303064
4720.46	0.290507
4703.1	0.269174
4685.74	0.218378
4668.38	0.168878
4651.02	0.129227
4633.66	0.0620469
4616.3	0.0299829
4598.94	0.0417283
4581.58	0.0365224
4564.22	0.0513503
4546.86	0.047559
4529.5	0.0341216
4512.14	0.0623735
4494.78	0.0282939
4477.42	0.0318358
4460.06	0.0465943
4442.7	0.0618472
4425.34	0.0537971
4407.98	0.110158
4390.63	0.0415935
4373.27	0.0332406
4355.91	0.0484413
4338.55	0.102167
4321.19	0.166713
4303.83	0.171149
4286.47	0.0884177
4269.11	0.0860919
4251.75	0.174877
4234.39	0.0447845
4217.03	0.235698
4199.67	0.236046
4182.31	0.0680695
4164.95	0.291372
4147.59	0.252312
4130.23	0.0653557
4112.87	0.115033
4095.51	0.329764
4078.15	0.339334
4060.79	0.100588
4043.43	0.810116
4026.07	0.791309
4008.71	0.780744
3991.35	0.764389
3973.99	0.769798
3956.63	0.776
3939.27	0.76959
3921.91	0.780611
3904.55	0.800049
3887.19	0.813174
3869.83	0.819972
3852.47	0.825788
3835.11	0.834449
3817.75	0.823722
3800.39	0.806214
3783.03	0.793252
3765.67	0.798874
3748.31	0.817065
3730.95	0.826331
3713.59	0.845916
3696.23	0.858557
3678.87	0.867289
3661.51	0.871159
3644.15	0.874182
3626.79	0.875646
3609.43	0.872846
3592.07	0.874661
3574.71	0.877491
3557.35	0.873196
3539.99	0.876397
3522.64	0.867943
3505.28	0.863734
3487.92	0.857528
3470.56	0.854117
3453.2	0.844561
3435.84	0.835664
3418.48	0.814362
3401.12	0.784317
3383.76	0.737544
3366.4	0.688081
3349.04	0.649622
3331.68	0.636294
3314.32	0.608397
3296.96	0.541776
3279.6	0.582249
3262.24	0.64174
3244.88	0.63952
3227.52	0.617575
3210.16	0.625846
3192.8	0.644068
3175.44	0.685036
3158.08	0.721637
3140.72	0.74232
3123.36	0.751086
3106	0.747695
3088.64	0.747085
3071.28	0.746185
3053.92	0.752579
3036.56	0.771813
3019.2	0.779079
3001.84	0.77791
2984.48	0.780043
2967.12	0.78133
2949.76	0.774772
2932.4	0.764339
2915.04	0.752248
2897.68	0.727103
2880.32	0.754156
2862.96	0.77189
2845.6	0.771918
2828.24	0.777782
2810.88	0.76281
2793.52	0.763769
2776.16	0.753851
2758.8	0.751327
2741.44	0.746537
2724.08	0.729507
2706.72	0.66831
2689.36	0.652069
2672	0.636193
2654.64	0.614431
2637.29	0.566038
2619.93	0.562195
2602.57	0.54308
2585.21	0.514831
2567.85	0.456643
2550.49	0.356513
2533.13	0.262666
2515.77	0.241281
2498.41	0.277436
2481.05	0.340131
2463.69	0.368207
2446.33	0.371687
2428.97	0.42483
2411.61	0.436765
2394.25	0.426811
2376.89	0.395798
2359.53	0.351617
2342.17	0.439186
2324.81	0.496212
2307.45	0.510947
2290.09	0.486576
2272.73	0.520768
2255.37	0.571713
2238.01	0.609169
2220.65	0.607948
2203.29	0.640426
2185.93	0.604155
2168.57	0.596567
2151.21	0.59976
2133.85	0.622739
2116.49	0.624571
2099.13	0.592402
2081.77	0.555898
2064.41	0.545857
2047.05	0.528785
2029.69	0.512991
2012.33	0.457802
1994.97	0.360733
1977.61	0.26276
1960.25	0.265371
1942.89	0.295179
1925.53	0.291456
1908.17	0.296815
1890.81	0.231104
1873.45	0.172514
1856.09	0.0534787
1838.73	0.130922
1821.37	0.130337
1804.01	0.105042
1786.65	0.0772583
1769.3	0.0809267
1751.94	0.122667
1734.58	0.156776
1717.22	0.202748
1699.86	0.26669
1682.5	0.285059
1665.14	0.261753
1647.78	0.294831
1630.42	0.269994
1613.06	0.291973
1595.7	0.276295
1578.34	0.260829
1560.98	0.321808
1543.62	0.279177
1526.26	0.27859
1508.9	0.275815
1491.54	0.288374
1474.18	0.278567
1456.82	0.315694
1439.46	0.360086
1422.1	0.304774
1404.74	0.282555
1387.38	0.342216
1370.02	0.339484
1352.66	0.379043
1335.3	0.425639
1317.94	0.299686
1300.58	0.282928
1283.22	0.303161
1265.86	0.290731
1248.5	0.277107
1231.14	0.179001
1213.78	0.139805
1196.42	0.125365
1179.06	0.0607315
1161.7	0.0252424
1144.34	0.0341598
1126.98	0.0398966
1109.62	0.0620934
1092.26	0.0725487
1074.9	0.0311626
1057.54	0.0568856
1040.18	0.0319447
1022.82	0.0347012
1005.46	0.0457762
988.104	0.0643297
970.744	0.101188
953.384	0.117087
936.025	0.0894397
918.665	0.0325899
901.305	0.0698472
883.945	0.152654
866.585	0.138595
849.226	0.16941
831.866	0.116087
814.506	0.0347411
797.146	0.177243
779.786	0.165629
762.427	0.166942
745.067	0.17754
727.707	0.0772216
710.347	0.335217
692.987	0.286483
675.628	0.0452573
658.268	0.258569
640.908	0.40705
623.548	0.115655
606.188	0.0357265
