Infrared Spectrum: 17Beta-HYDROXYANDROST-4-EN-3-ONE
Formula: C19 H28 O2
CAS: 58-22-0
State: SOLID (KBr DISC)
Class: COBLENTZ III
Instrument: BECKMAN IR-7
Sampling: TRANSMISSION
Resolution: 4
Origin: THE WORCESTER FOUNDATION FOR EXPERIMENTAL BIOLOGY, Neal L. McNiven
1/CM	TRANSMITTANCE
600.73	0.588
609.494	0.586
618.257	0.612
627.021	0.633
635.785	0.651
644.549	0.682
653.312	0.706
662.076	0.737
670.84	0.795
679.603	0.8
688.367	0.855
697.131	0.893
705.895	0.913
714.658	0.915
723.422	0.918
732.186	0.928
740.949	0.923
749.713	0.917
758.477	0.934
767.241	0.935
776.004	0.904
784.768	0.881
793.532	0.936
802.296	0.936
811.059	0.928
819.823	0.899
828.587	0.851
837.35	0.884
846.114	0.907
854.878	0.899
863.642	0.725
872.405	0.703
881.169	0.912
889.933	0.917
898.696	0.867
907.46	0.87
916.224	0.867
924.988	0.846
933.751	0.845
942.515	0.7269
951.279	0.731
960.042	0.813
968.806	0.862
977.57	0.868
986.334	0.852
995.097	0.801
1003.86	0.77
1012.62	0.668
1021.39	0.702
1030.15	0.67
1038.92	0.683
1047.68	0.628
1056.44	0.549
1065.21	0.524
1073.97	0.637
1082.73	0.773
1091.5	0.822
1100.26	0.832
1109.03	0.7081
1117.79	0.777
1126.55	0.686
1135.32	0.721
1144.08	0.822
1152.84	0.829
1161.61	0.837
1170.37	0.795
1179.14	0.783
1187.9	0.72
1196.66	0.663
1205.43	0.709
1214.19	0.767
1222.95	0.695
1231.72	0.551
1240.48	0.667
1249.25	0.748
1258.01	0.775
1266.77	0.683
1275.54	0.625
1284.3	0.713
1293.06	0.74
1301.83	0.74
1310.59	0.721
1319.35	0.736
1328.12	0.702
1336.88	0.672
1345.65	0.64
1354.41	0.625
1363.17	0.703
1371.94	0.669
1380.7	0.664
1389.46	0.742
1398.23	0.725
1406.99	0.618
1415.76	0.644
1424.52	0.667
1433.28	0.66
1442.05	0.674
1450.81	0.677
1459.57	0.719
1468.34	0.693
1477.1	0.832
1485.87	0.876
1494.63	0.885
1503.39	0.891
1512.16	0.891
1520.92	0.888
1529.68	0.88
1538.45	0.877
1547.21	0.872
1555.98	0.854
1564.74	0.842
1573.5	0.835
1582.27	0.811
1591.03	0.787
1599.79	0.666
1608.56	0.503
1617.32	0.64
1626.09	0.622
1634.85	0.49
1643.61	0.306
1652.38	0.243
1661.14	0.276
1669.9	0.424
1678.67	0.611
1687.43	0.718
1696.19	0.776
1704.96	0.822
1713.72	0.86
1722.49	0.864
1731.25	0.832
1740.01	0.856
1748.78	0.89
1757.54	0.905
1766.3	0.913
1775.07	0.92
1783.83	0.925
1792.6	0.925
1801.36	0.924
1810.12	0.926
1818.89	0.928
1827.65	0.931
1836.41	0.932
1845.18	0.931
1853.94	0.931
1862.71	0.931
1871.47	0.931
1880.23	0.928
1889	0.927
1897.76	0.928
1906.52	0.928
1915.29	0.928
1924.05	0.928
1932.82	0.926
1941.58	0.925
1950.34	0.923
1959.11	0.923
1967.87	0.922
1976.63	0.922
1985.4	0.921
1994.16	0.921
2002.92	0.921
2011.69	0.921
2020.45	0.921
2029.22	0.921
2037.98	0.921
2046.74	0.921
2055.51	0.921
2064.27	0.92
2073.03	0.92
2081.8	0.92
2090.56	0.92
2099.33	0.92
2108.09	0.9181
2116.85	0.9171
2125.62	0.917
2134.38	0.9162
2143.14	0.9152
2151.91	0.914
2160.67	0.912
2169.44	0.9102
2178.2	0.909
2186.96	0.9072
2195.73	0.9062
2204.49	0.9042
2213.25	0.903
2222.02	0.901
2230.78	0.899
2239.55	0.8983
2248.31	0.897
2257.07	0.896
2265.84	0.895
2274.6	0.8933
2283.36	0.893
2292.13	0.892
2300.89	0.8917
2309.65	0.891
2318.42	0.891
2327.18	0.89
2335.95	0.889
2344.71	0.8884
2353.47	0.888
2362.24	0.887
2371	0.8854
2379.76	0.885
2388.53	0.8834
2397.29	0.883
2406.06	0.881
2414.82	0.88
2423.58	0.8775
2432.35	0.8765
2441.11	0.875
2449.87	0.873
2458.64	0.871
2467.4	0.8695
2476.17	0.8685
2484.93	0.8675
2493.69	0.867
2502.46	0.866
2511.22	0.8646
2519.98	0.8631
2528.75	0.858
2537.51	0.856
2546.28	0.854
2555.04	0.8516
2563.8	0.8496
2572.57	0.8476
2581.33	0.845
2590.09	0.8436
2598.86	0.8403
2607.62	0.837
2616.39	0.835
2625.15	0.8337
2633.91	0.8297
2642.68	0.827
2651.44	0.8247
2660.2	0.8227
2668.97	0.8217
2677.73	0.8197
2686.49	0.818
2695.26	0.8155
2704.02	0.814
2712.79	0.812
2721.55	0.811
2730.31	0.811
2739.08	0.811
2747.84	0.8088
2756.6	0.8056
2765.37	0.8026
2774.13	0.7945
2782.9	0.7761
2791.66	0.7533
2800.42	0.7101
2809.19	0.6299
2817.95	0.5901
2826.71	0.5523
2835.48	0.5086
2844.24	0.4968
2853.01	0.519
2861.77	0.46
2870.53	0.5036
2879.3	0.5299
2888.06	0.4862
2896.82	0.4406
2905.59	0.4099
2914.35	0.3865
2923.12	0.36
2931.88	0.365
2940.64	0.3859
2949.41	0.4265
2958.17	0.4889
2966.93	0.605
2975.7	0.6809
2984.46	0.7379
2993.22	0.7685
3001.99	0.7739
3010.75	0.7684
3019.52	0.7458
3028.28	0.7271
3037.04	0.7746
3045.81	0.7939
3054.57	0.7969
3063.33	0.798
3072.1	0.797
3080.86	0.7952
3089.63	0.7932
3098.39	0.79
3107.15	0.788
3115.92	0.787
3124.68	0.7852
3133.44	0.785
3142.21	0.783
3150.97	0.782
3159.74	0.78
3168.5	0.779
3177.26	0.7773
3186.03	0.777
3194.79	0.7743
3203.55	0.7702
3212.32	0.7633
3221.08	0.7623
3229.85	0.761
3238.61	0.755
3247.37	0.7467
3256.14	0.7397
3264.9	0.7321
3273.66	0.7231
3282.43	0.7099
3291.19	0.6998
3299.96	0.6896
3308.72	0.6755
3317.48	0.6569
3326.25	0.635
3335.01	0.6105
3343.77	0.5935
3352.54	0.566
3361.3	0.536
3370.06	0.5048
3378.83	0.4824
3387.59	0.4665
3396.36	0.4615
3405.12	0.4729
3413.88	0.5049
3422.65	0.5163
3431.41	0.5288
3440.17	0.5452
3448.94	0.5632
3457.7	0.5744
3466.47	0.5794
3475.23	0.5855
3483.99	0.5914
3492.76	0.591
3501.52	0.5864
3510.28	0.5766
3519.05	0.5374
3527.81	0.5094
3536.58	0.5258
3545.34	0.583
3554.1	0.6367
3562.87	0.6898
3571.63	0.7278
3580.39	0.7531
3589.16	0.7702
3597.92	0.7821
3606.69	0.7913
3615.45	0.8023
3624.21	0.8053
3632.98	0.8092
3641.74	0.811
3650.5	0.812
3659.27	0.811
3668.03	0.8098
3676.79	0.809
3685.56	0.8092
3694.32	0.8102
3703.09	0.811
3711.85	0.8112
3720.61	0.8119
3729.38	0.811
3738.14	0.8099
3746.9	0.807
3755.67	0.806
3764.43	0.8059
3773.2	0.8049
3781.96	0.8039
3790.72	0.803
3799.49	0.803
3808.25	0.803
3817.01	0.803
3825.78	0.803
3834.54	0.803
3843.31	0.802
3852.07	0.801
3860.83	0.799
3869.6	0.798
3878.36	0.796
3887.12	0.795
3895.89	0.793
3904.65	0.792
3913.42	0.791
3922.18	0.79
3930.94	0.789
3939.71	0.7871
3948.47	0.787
3957.23	0.785
3966	0.785
3974.76	0.785
3983.53	0.784
3992.29	0.783
4001.05	0.782
4009.82	0.782
4018.58	0.782
