Infrared Spectrum: 2-CHLORO-10-3-[1-(2-HYDROXYETHYL)-4-PIPERAZINYL]PROPYL PHENOTHIAZINE
Formula: C21 H26 Cl N3 O S
CAS: 58-39-9
State: SOLID (KBr DISC)
Class: COBLENTZ III
Instrument: PERKIN-ELMER 521 (GRATING)
Instrument parameters: ORDER CHANGES: 1999, 690 CM^-^1
Sampling: TRANSMISSION
Resolution: 2
Origin: SMITH KLINE & FRENCH LABS.
1/CM	TRANSMITTANCE
634.684	0.918
643.436	0.9079
652.188	0.95
660.94	0.959
669.692	0.961
678.444	0.8841
687.196	0.969
695.948	0.961
704.7	0.95
713.452	0.952
722.204	0.884
730.957	0.87
739.709	0.7712
748.461	0.6561
757.213	0.2053
765.965	0.788
774.717	0.9449
783.469	0.849
792.221	0.957
800.973	0.912
809.725	0.866
818.477	0.7481
827.229	0.4562
835.981	0.8809
844.733	0.7602
853.485	0.8449
862.237	0.885
870.989	0.81
879.741	0.604
888.493	0.898
897.245	0.87
905.997	0.748
914.75	0.4861
923.502	0.7622
932.254	0.8269
941.006	0.7971
949.758	0.94
958.51	0.921
967.262	0.894
976.014	0.775
984.766	0.665
993.518	0.893
1002.27	0.85
1011.02	0.752
1019.77	0.5519
1028.53	0.828
1037.28	0.6431
1046.03	0.561
1054.78	0.365
1063.53	0.678
1072.29	0.844
1081.04	0.826
1089.79	0.5922
1098.54	0.5399
1107.29	0.6309
1116.05	0.702
1124.8	0.421
1133.55	0.593
1142.3	0.422
1151.05	0.383
1159.81	0.782
1168.56	0.775
1177.31	0.898
1186.06	0.8751
1194.82	0.756
1203.57	0.575
1212.32	0.682
1221.07	0.519
1229.82	0.581
1238.58	0.5569
1247.33	0.464
1256.08	0.5949
1264.83	0.728
1273.58	0.5
1282.34	0.496
1291.09	0.283
1299.84	0.5228
1308.59	0.6551
1317.34	0.78
1326.1	0.68
1334.85	0.524
1343.6	0.6942
1352.35	0.75
1361.1	0.521
1369.86	0.7221
1378.61	0.641
1387.36	0.626
1396.11	0.434
1404.86	0.423
1413.62	0.558
1422.37	0.634
1431.12	0.466
1439.87	0.3771
1448.62	0.3051
1457.38	0.1959
1466.13	0.5319
1474.88	0.673
1483.63	0.729
1492.38	0.902
1501.14	0.986
1509.89	0.959
1518.64	0.952
1527.39	0.933
1536.14	0.871
1544.9	0.81
1553.65	0.621
1562.4	0.474
1571.15	0.777
1579.91	0.836
1588.66	0.6549
1597.41	0.883
1606.16	0.934
1614.91	0.927
1623.67	0.905
1632.42	0.905
1641.17	0.905
1649.92	0.904
1658.67	0.906
1667.43	0.905
1676.18	0.9
1684.93	0.902
1693.68	0.9
1702.43	0.901
1711.19	0.9
1719.94	0.883
1728.69	0.882
1737.44	0.879
1746.19	0.898
1754.95	0.89
1763.7	0.887
1772.45	0.885
1781.2	0.881
1789.95	0.87
1798.71	0.861
1807.46	0.864
1816.21	0.865
1824.96	0.866
1833.71	0.871
1842.47	0.871
1851.22	0.864
1859.97	0.856
1868.72	0.841
1877.47	0.832
1886.23	0.83
1894.98	0.82
1903.73	0.803
1912.48	0.805
1921.23	0.819
1929.99	0.822
1938.74	0.817
1947.49	0.828
1956.24	0.831
1965	0.821
1973.75	0.822
1982.5	0.822
1991.25	0.821
2000	0.817
2008.76	0.792
2017.51	0.788
2026.26	0.782
2035.01	0.781
2043.76	0.78
2052.52	0.779
2061.27	0.779
2070.02	0.777
2078.77	0.775
2087.52	0.774
2096.28	0.773
2105.03	0.7701
2113.78	0.771
2122.53	0.77
2131.28	0.7634
2140.04	0.7641
2148.79	0.766
2157.54	0.757
2166.29	0.7596
2175.04	0.7599
2183.8	0.753
2192.55	0.753
2201.3	0.753
2210.05	0.7498
2218.8	0.7464
2227.56	0.742
2236.31	0.741
2245.06	0.741
2253.81	0.7394
2262.56	0.734
2271.32	0.7336
2280.07	0.7349
2288.82	0.7334
2297.57	0.7259
2306.33	0.7207
2315.08	0.7128
2323.83	0.709
2332.58	0.7093
2341.33	0.714
2350.09	0.7058
2358.84	0.699
2367.59	0.7
2376.34	0.7007
2385.09	0.7034
2393.85	0.7064
2402.6	0.711
2411.35	0.7011
2420.1	0.695
2428.85	0.695
2437.61	0.6948
2446.36	0.6883
2455.11	0.6888
2463.86	0.6865
2472.61	0.6835
2481.37	0.674
2490.12	0.673
2498.87	0.673
2507.62	0.6717
2516.37	0.6665
2525.13	0.6575
2533.88	0.6492
2542.63	0.646
2551.38	0.6491
2560.13	0.6535
2568.89	0.6452
2577.64	0.644
2586.39	0.6406
2595.14	0.64
2603.89	0.6374
2612.65	0.625
2621.4	0.6268
2630.15	0.626
2638.9	0.6092
2647.65	0.6024
2656.41	0.5924
2665.16	0.5753
2673.91	0.5597
2682.66	0.5747
2691.42	0.5743
2700.17	0.57
2708.92	0.571
2717.67	0.5562
2726.42	0.5307
2735.18	0.524
2743.93	0.5151
2752.68	0.503
2761.43	0.4697
2770.18	0.4324
2778.94	0.4589
2787.69	0.4443
2796.44	0.3642
2805.19	0.3238
2813.94	0.322
2822.7	0.313
2831.45	0.3186
2840.2	0.3984
2848.95	0.4718
2857.7	0.48
2866.46	0.4513
2875.21	0.3776
2883.96	0.3789
2892.71	0.4332
2901.46	0.4549
2910.22	0.4481
2918.97	0.438
2927.72	0.4129
2936.47	0.3145
2945.22	0.3395
2953.98	0.4285
2962.73	0.5229
2971.48	0.5419
2980.23	0.5974
2988.98	0.612
2997.74	0.616
3006.49	0.616
3015.24	0.616
3023.99	0.615
3032.74	0.6105
3041.5	0.5979
3050.25	0.5849
3059	0.5891
3067.75	0.593
3076.51	0.587
3085.26	0.583
3094.01	0.5881
3102.76	0.592
3111.51	0.589
3120.27	0.5884
3129.02	0.591
3137.77	0.5978
3146.52	0.6008
3155.27	0.5898
3164.03	0.588
3172.78	0.5852
3181.53	0.576
3190.28	0.575
3199.03	0.572
3207.79	0.57
3216.54	0.5697
3225.29	0.5598
3234.04	0.554
3242.79	0.553
3251.55	0.5518
3260.3	0.5494
3269.05	0.548
3277.8	0.5387
3286.55	0.531
3295.31	0.5294
3304.06	0.5258
3312.81	0.523
3321.56	0.5188
3330.31	0.513
3339.07	0.5082
3347.82	0.493
3356.57	0.491
3365.32	0.4826
3374.07	0.4665
3382.83	0.4553
3391.58	0.4494
3400.33	0.4392
3409.08	0.421
3417.84	0.4166
3426.59	0.3958
3435.34	0.3862
3444.09	0.384
3452.84	0.3879
3461.6	0.4254
3470.35	0.4389
3479.1	0.452
3487.85	0.4627
3496.6	0.4693
3505.36	0.482
3514.11	0.4903
3522.86	0.4958
3531.61	0.501
3540.36	0.5038
3549.12	0.5073
3557.87	0.5128
3566.62	0.5114
3575.37	0.5036
3584.12	0.5123
3592.88	0.5206
3601.63	0.5243
3610.38	0.5268
3619.13	0.53
3627.88	0.531
3636.64	0.53
3645.39	0.53
3654.14	0.5297
3662.89	0.527
3671.64	0.526
3680.4	0.525
3689.15	0.525
3697.9	0.524
3706.65	0.523
3715.4	0.521
3724.16	0.5206
3732.91	0.52
3741.66	0.519
3750.41	0.518
3759.16	0.516
3767.92	0.515
3776.67	0.514
3785.42	0.514
3794.17	0.513
3802.93	0.512
3811.68	0.5096
3820.43	0.508
3829.18	0.507
3837.93	0.506
3846.69	0.5036
3855.44	0.502
3864.19	0.502
3872.94	0.501
3881.69	0.5
3890.45	0.5
3899.2	0.498
3907.95	0.497
3916.7	0.4955
3925.45	0.493
3934.21	0.492
3942.96	0.491
3951.71	0.491
3960.46	0.49
3969.21	0.4865
3977.97	0.486
3986.72	0.486
3995.47	0.486
