Infrared Spectrum: H-1,2,4-BENZOTHIADIAZINE, 6-CHLORO-3,4-DIHYDRO-7-SULFAMOYL-2, 1,1-DIOXIDE
Formula: C7 H8 Cl N3 O4 S2
CAS: 58-93-5
State: SOLID (KBr DISC)
Melting point: 273-275 C
Class: COBLENTZ III
Instrument: PERKIN-ELMER 21 (GRATING)
Instrument parameters: FILTER AT ABOUT 10 MICRONS
Sampling: TRANSMISSION
Resolution: 2
1/CM	TRANSMITTANCE
4000	0.7192
3991	0.7204
3982	0.7215
3973	0.7228
3964	0.7241
3955	0.7254
3946	0.7265
3937	0.7275
3928	0.7285
3919	0.7294
3910	0.7301
3901	0.7306
3892	0.7311
3883	0.7315
3874	0.7318
3865	0.7322
3856	0.7328
3847	0.7332
3838	0.7337
3829	0.734
3820	0.7345
3811	0.7353
3802	0.7368
3793	0.7385
3784	0.7401
3775	0.7417
3766	0.7432
3757	0.7446
3748	0.7461
3739	0.7475
3730	0.7491
3721	0.7507
3712	0.7525
3703	0.7544
3694	0.7561
3685	0.7581
3676	0.76
3667	0.7619
3658	0.764
3649	0.766
3640	0.7678
3631	0.7695
3622	0.7708
3613	0.7712
3604	0.7717
3595	0.7719
3586	0.7721
3577	0.7715
3568	0.7705
3559	0.7691
3550	0.7676
3541	0.7661
3532	0.7645
3523	0.7621
3514	0.7597
3505	0.7571
3496	0.7539
3487	0.7503
3478	0.7461
3469	0.7407
3460	0.734
3451	0.7238
3442	0.7094
3433	0.6847
3424	0.6268
3415	0.5636
3406	0.5001
3397	0.4362
3388	0.372
3379	0.3074
3370	0.2425
3361	0.1772
3352	0.1483
3343	0.175
3334	0.2545
3325	0.3356
3316	0.4172
3307	0.4514
3298	0.4199
3289	0.375
3280	0.3299
3271	0.2846
3262	0.2512
3253	0.267
3244	0.3051
3235	0.3432
3226	0.3816
3217	0.4204
3208	0.448
3199	0.4305
3190	0.3744
3181	0.318
3172	0.2611
3163	0.21
3154	0.2345
3145	0.2926
3136	0.351
3127	0.4099
3118	0.4689
3109	0.5438
3100	0.5642
3091	0.5828
3082	0.6022
3073	0.6185
3064	0.6367
3055	0.6561
3046	0.6739
3037	0.6915
3028	0.7112
3019	0.7271
3010	0.7389
3001	0.7465
2992	0.7493
2983	0.7492
2974	0.7478
2965	0.7415
2956	0.7282
2947	0.7134
2938	0.705
2929	0.705
2920	0.7084
2911	0.7138
2902	0.7206
2893	0.728
2884	0.7365
2875	0.7439
2866	0.7472
2857	0.7485
2848	0.749
2839	0.7415
2830	0.7289
2821	0.7275
2812	0.7417
2803	0.7606
2794	0.7796
2785	0.7987
2776	0.8181
2767	0.8278
2758	0.8278
2749	0.829
2740	0.8321
2731	0.8394
2722	0.8449
2713	0.8483
2704	0.8513
2695	0.852
2686	0.8518
2677	0.849
2668	0.8461
2659	0.8462
2650	0.8478
2641	0.8506
2632	0.8536
2623	0.8567
2614	0.8593
2605	0.8612
2596	0.8611
2587	0.8596
2578	0.8575
2569	0.8555
2560	0.8544
2551	0.8568
2542	0.8605
2533	0.8655
2524	0.8699
2515	0.8739
2506	0.8758
2497	0.8766
2488	0.8767
2479	0.8766
2470	0.8763
2461	0.8773
2452	0.8791
2443	0.8818
2434	0.885
2425	0.8878
2416	0.8907
2407	0.8934
2398	0.8964
2389	0.8994
2380	0.9025
2371	0.9055
2362	0.9084
2353	0.9105
2344	0.9121
2335	0.9127
2326	0.913
2317	0.9133
2308	0.9138
2299	0.914
2290	0.9144
2281	0.9158
2272	0.9191
2263	0.9209
2254	0.9227
2245	0.9242
2236	0.9251
2227	0.9261
2218	0.9268
2209	0.9275
2200	0.9282
2191	0.9285
2182	0.9288
2173	0.9293
2164	0.9298
2155	0.9301
2146	0.9301
2137	0.9301
2128	0.9302
2119	0.9304
2110	0.9306
2101	0.931
2092	0.9316
2083	0.9324
2074	0.9336
2065	0.9348
2056	0.936
2047	0.9371
2038	0.9383
2029	0.9394
2020	0.9402
2011	0.9409
2002	0.9413
1993	0.9418
1984	0.9417
1975	0.9414
1966	0.9415
1957	0.942
1948	0.9424
1939	0.9432
1930	0.9446
1921	0.946
1912	0.9471
1903	0.9483
1894	0.9493
1885	0.9512
1876	0.9521
1867	0.9518
1858	0.9515
1849	0.9509
1840	0.9502
1831	0.9486
1822	0.9448
1813	0.9251
1804	0.9178
1795	0.925
1786	0.9313
1777	0.9332
1768	0.9311
1759	0.9318
1750	0.9341
1741	0.9334
1732	0.9313
1723	0.9294
1714	0.9266
1705	0.9263
1696	0.9271
1687	0.924
1678	0.9197
1669	0.9018
1660	0.8844
1651	0.869
1642	0.8253
1633	0.7504
1624	0.5839
1615	0.3614
1606	0.069
1597	0.1963
1588	0.4494
1579	0.6634
1570	0.7057
1561	0.6403
1552	0.5398
1543	0.5274
1534	0.4566
1525	0.2818
1516	0.409
1507	0.6774
1498	0.7945
1489	0.8336
1480	0.8509
1471	0.8492
1462	0.6762
1453	0.7388
1444	0.809
1435	0.7004
1426	0.5624
1417	0.7365
1408	0.824
1399	0.836
1390	0.8161
1381	0.6295
1372	0.3574
1363	0.6525
1354	0.624
1345	0.4242
1336	0.0554
1327	0.1485
1318	0.055
1309	0.2254
1300	0.4651
1291	0.55
1282	0.7097
1273	0.5187
1264	0.6853
1255	0.7795
1246	0.7049
1237	0.5712
1228	0.7897
1219	0.8161
1210	0.8008
1201	0.7543
1192	0.612
1183	0.2314
1174	0.1681
1165	0.1155
1156	0.1505
1147	0.0682
1138	0.38
1129	0.5891
1120	0.2917
1111	0.6162
1102	0.7253
1093	0.7056
1084	0.6761
1075	0.4557
1066	0.4329
1057	0.1532
1048	0.49
1039	0.6584
1030	0.6316
1021	0.3979
1012	0.7181
1003	0.7918
994	0.8168
985	0.8318
976	0.8282
967	0.8201
958	0.7876
949	0.6236
940	0.4341
931	0.5274
922	0.6312
913	0.6697
904	0.4992
895	0.5665
886	0.6296
877	0.7081
868	0.7682
859	0.4132
850	0.7535
841	0.8356
832	0.845
823	0.8477
814	0.8261
805	0.7715
796	0.6848
787	0.4544
778	0.2184
769	0.3204
760	0.5334
751	0.3734
742	0.5235
733	0.6575
724	0.7133
715	0.7308
706	0.6124
697	0.708
688	0.6785
679	0.5568
670	0.5255
