Infrared Spectrum: PHENOL, 2,3,4,6-TETRACHLORO-
Formula: C6 H2 Cl4 O
CAS: 58-90-2
State: SOLUTION (10% IN CCl4 FOR 3800-1333, 10% IN CS2 FOR 1333-400 CM^-^1)
Melting point: 69 C
Class: COBLENTZ III
Instrument: DOW KBr FOREPRISM-GRATING
Instrument parameters: BLAZED AT 3.5, 12.0, 20.0 MICRON, CHANGED AT 5.0, 7.5, 14.9 MICRON
Sampling: TRANSMISSION
Path length: 0.011, 0.011 CM
Resolution: 4
Origin: DOW CHEMICAL COMPANY
1/CM	TRANSMITTANCE
398.482	0.773
407.021	0.602
415.56	0.507
424.099	0.486
432.638	0.526
441.177	0.63
449.716	0.735
458.255	0.795
466.793	0.844
475.332	0.881
483.871	0.912
492.41	0.934
500.949	0.939
509.488	0.8901
518.027	0.9299
526.566	0.965
535.105	0.976
543.644	0.979
552.183	0.934
560.722	0.755
569.261	0.897
577.8	0.954
586.339	0.973
594.878	0.977
603.416	0.976
611.955	0.958
620.494	0.8781
629.033	0.531
637.572	0.816
646.111	0.844
654.65	0.892
663.189	0.93
671.728	0.951
680.267	0.963
688.806	0.965
697.345	0.939
705.884	0.825
714.423	0.782
722.962	0.912
731.501	0.911
740.039	0.8009
748.578	0.2354
757.117	0.2549
765.656	0.65
774.195	0.84
782.734	0.897
791.273	0.896
799.812	0.89
808.351	0.815
816.89	0.316
825.429	0.7021
833.968	0.88
842.507	0.869
851.046	0.7231
859.585	0.427
868.123	0.6238
876.662	0.826
885.201	0.894
893.74	0.946
902.279	0.964
910.818	0.982
919.357	0.988
927.896	0.982
936.435	0.8751
944.974	0.806
953.513	0.948
962.052	0.963
970.591	0.957
979.13	0.954
987.669	0.899
996.208	0.97
1004.75	0.974
1013.29	0.968
1021.82	0.967
1030.36	0.96
1038.9	0.958
1047.44	0.96
1055.98	0.961
1064.52	0.955
1073.06	0.954
1081.6	0.948
1090.14	0.934
1098.67	0.915
1107.21	0.865
1115.75	0.6151
1124.29	0.6469
1132.83	0.826
1141.37	0.832
1149.91	0.755
1158.45	0.449
1166.99	0.306
1175.53	0.5617
1184.06	0.693
1192.6	0.1611
1201.14	0.079
1209.68	0.502
1218.22	0.603
1226.76	0.633
1235.3	0.859
1243.84	0.872
1252.38	0.844
1260.91	0.748
1269.45	0.668
1277.99	0.384
1286.53	0.139
1295.07	0.744
1303.61	0.52
1312.15	0.6121
1320.69	0.849
1329.23	0.803
1337.76	0.821
1346.3	0.8499
1354.84	0.863
1363.38	0.843
1371.92	0.758
1380.46	0.445
1389	0.066
1397.54	0.309
1406.08	0.4653
1414.62	0.789
1423.15	0.6559
1431.69	0.5849
1440.23	0.603
1448.77	0.2051
1457.31	0.005
1465.85	0.341
1474.39	0.68
1482.93	0.683
1491.47	0.677
1500	0.729
1508.54	0.741
1517.08	0.701
1525.62	0.702
1534.16	0.662
1542.7	0.6
1551.24	0.489
1559.78	0.372
1568.32	0.3531
1576.86	0.492
1585.39	0.569
1593.93	0.61
1602.47	0.684
1611.01	0.782
1619.55	0.838
1628.09	0.871
1636.63	0.892
1645.17	0.903
1653.71	0.911
1662.24	0.912
1670.78	0.917
1679.32	0.918
1687.86	0.92
1696.4	0.92
1704.94	0.918
1713.48	0.915
1722.02	0.908
1730.56	0.893
1739.09	0.892
1747.63	0.893
1756.17	0.92
1764.71	0.926
1773.25	0.928
1781.79	0.928
1790.33	0.931
1798.87	0.931
1807.41	0.93
1815.95	0.93
1824.48	0.928
1833.02	0.926
1841.56	0.923
1850.1	0.924
1858.64	0.924
1867.18	0.924
1875.72	0.926
1884.26	0.927
1892.8	0.927
1901.33	0.93
1909.87	0.928
1918.41	0.927
1926.95	0.928
1935.49	0.928
1944.03	0.927
1952.57	0.924
1961.11	0.924
1969.65	0.924
1978.19	0.924
1986.72	0.924
1995.26	0.921
2003.8	0.918
2012.34	0.9125
2020.88	0.911
2029.42	0.9145
2037.96	0.914
2046.5	0.912
2055.04	0.915
2063.57	0.921
2072.11	0.924
2080.65	0.926
2089.19	0.926
2097.73	0.924
2106.27	0.926
2114.81	0.9265
2123.35	0.928
2131.89	0.928
2140.42	0.928
2148.96	0.93
2157.5	0.928
2166.04	0.928
2174.58	0.928
2183.12	0.928
2191.66	0.928
2200.2	0.93
2208.74	0.928
2217.28	0.927
2225.81	0.926
2234.35	0.924
2242.89	0.924
2251.43	0.924
2259.97	0.9259
2268.51	0.924
2277.05	0.921
2285.59	0.9129
2294.13	0.909
2302.66	0.9039
2311.2	0.902
2319.74	0.8995
2328.28	0.897
2336.82	0.894
2345.36	0.893
2353.9	0.893
2362.44	0.8961
2370.98	0.899
2379.52	0.902
2388.05	0.902
2396.59	0.902
2405.13	0.902
2413.67	0.897
2422.21	0.9
2430.75	0.9061
2439.29	0.909
2447.83	0.909
2456.37	0.911
2464.9	0.914
2473.44	0.9161
2481.98	0.917
2490.52	0.9129
2499.06	0.9089
2507.6	0.908
2516.14	0.906
2524.68	0.9069
2533.22	0.906
2541.75	0.906
2550.29	0.9092
2558.83	0.912
2567.37	0.912
2575.91	0.911
2584.45	0.905
2592.99	0.9056
2601.53	0.908
2610.07	0.9086
2618.61	0.911
2627.14	0.911
2635.68	0.911
2644.22	0.911
2652.76	0.9108
2661.3	0.908
2669.84	0.908
2678.38	0.908
2686.92	0.909
2695.46	0.909
2703.99	0.909
2712.53	0.909
2721.07	0.908
2729.61	0.908
2738.15	0.9059
2746.69	0.903
2755.23	0.902
2763.77	0.903
2772.31	0.902
2780.85	0.902
2789.38	0.9051
2797.92	0.9086
2806.46	0.911
2815	0.911
2823.54	0.911
2832.08	0.911
2840.62	0.905
2849.16	0.903
2857.7	0.9029
2866.23	0.903
2874.77	0.9033
2883.31	0.905
2891.85	0.9081
2900.39	0.909
2908.93	0.911
2917.47	0.911
2926.01	0.911
2934.55	0.911
2943.08	0.909
2951.62	0.908
2960.16	0.908
2968.7	0.909
2977.24	0.912
2985.78	0.918
2994.32	0.92
3002.86	0.921
3011.4	0.923
3019.94	0.9187
3028.47	0.9149
3037.01	0.912
3045.55	0.915
3054.09	0.918
3062.63	0.92
3071.17	0.92
3079.71	0.918
3088.25	0.9127
3096.79	0.8968
3105.32	0.834
3113.86	0.8381
3122.4	0.875
3130.94	0.8892
3139.48	0.893
3148.02	0.894
3156.56	0.894
3165.1	0.894
3173.64	0.8967
3182.18	0.8992
3190.71	0.902
3199.25	0.906
3207.79	0.908
3216.33	0.909
3224.87	0.909
3233.41	0.909
3241.95	0.906
3250.49	0.905
3259.03	0.905
3267.56	0.906
3276.1	0.906
3284.64	0.906
3293.18	0.905
3301.72	0.903
3310.26	0.905
3318.8	0.903
3327.34	0.903
3335.88	0.902
3344.41	0.9
3352.95	0.899
3361.49	0.897
3370.03	0.897
3378.57	0.897
3387.11	0.896
3395.65	0.8939
3404.19	0.893
3412.73	0.893
3421.27	0.892
3429.8	0.892
3438.34	0.89
3446.88	0.889
3455.42	0.8856
3463.96	0.88
3472.5	0.8714
3481.04	0.858
3489.58	0.8447
3498.12	0.8261
3506.65	0.7935
3515.19	0.7395
3523.73	0.6184
3532.27	0.4038
3540.81	0.2034
3549.35	0.0977
3557.89	0.1258
3566.43	0.4917
3574.97	0.7198
3583.51	0.8139
3592.04	0.8428
3600.58	0.8645
3609.12	0.8695
3617.66	0.8855
3626.2	0.887
3634.74	0.8897
3643.28	0.8932
3651.82	0.8967
3660.36	0.899
3668.89	0.8993
3677.43	0.9
3685.97	0.9
3694.51	0.9
3703.05	0.899
3711.59	0.899
3720.13	0.899
3728.67	0.9
3737.21	0.9
3745.74	0.902
3754.28	0.902
3762.82	0.902
3771.36	0.902
3779.9	0.9023
3788.44	0.903
3796.98	0.903
