Infrared Spectrum: 2-Nitronaphthalene
Formula: C10 H7 N O2
CAS: 581-89-5
State: SOLUTION (10% CCl4 FOR 3800-1330, 10% CS2 FOR 1330-450 CM^-^1)
Class: COBLENTZ III
Instrument: DOW KBr FOREPRISM-GRATING
Instrument parameters: BLAZED AT 3.5, 12.0, 20.0 MICRON AND CHANGED AT 5.0, 7.5, 14.9 MICRON
Sampling: TRANSMISSION
Path length: 0.011 CM, 0.011 CM
Resolution: 2
Origin: DOW CHEMICAL COMPANY
1/CM	TRANSMITTANCE
3780	0.9224
3771	0.9228
3762	0.9234
3753	0.9244
3744	0.9251
3735	0.9271
3726	0.9276
3717	0.9268
3708	0.9264
3699	0.9236
3690	0.9245
3681	0.9249
3672	0.9203
3663	0.9197
3654	0.918
3645	0.922
3636	0.9223
3627	0.9269
3618	0.9234
3609	0.9186
3600	0.9197
3591	0.9214
3582	0.8997
3573	0.9108
3564	0.9208
3555	0.9256
3546	0.9248
3537	0.9238
3528	0.9226
3519	0.9223
3510	0.9222
3501	0.922
3492	0.9219
3483	0.9217
3474	0.9221
3465	0.9227
3456	0.9233
3447	0.9239
3438	0.9245
3429	0.9248
3420	0.9253
3411	0.9258
3402	0.9263
3393	0.9265
3384	0.9267
3375	0.927
3366	0.9272
3357	0.9274
3348	0.9277
3339	0.9278
3330	0.928
3321	0.9279
3312	0.9293
3303	0.9274
3294	0.9274
3285	0.9272
3276	0.9276
3267	0.9233
3258	0.9197
3249	0.9209
3240	0.9216
3231	0.9204
3222	0.9169
3213	0.9132
3204	0.9123
3195	0.9155
3186	0.9148
3177	0.9136
3168	0.9121
3159	0.9106
3150	0.9078
3141	0.9013
3132	0.8963
3123	0.8883
3114	0.8742
3105	0.8525
3096	0.7768
3087	0.743
3078	0.7505
3069	0.5812
3060	0.5807
3051	0.7048
3042	0.7965
3033	0.7998
3024	0.8158
3015	0.8572
3006	0.8824
2997	0.89
2988	0.8963
2979	0.8808
2970	0.875
2961	0.8849
2952	0.8767
2943	0.8848
2934	0.8842
2925	0.88
2916	0.8766
2907	0.8873
2898	0.8927
2889	0.8852
2880	0.8687
2871	0.8609
2862	0.8612
2853	0.8527
2844	0.8338
2835	0.8563
2826	0.8745
2817	0.8917
2808	0.905
2799	0.9011
2790	0.9025
2781	0.9019
2772	0.906
2763	0.9103
2754	0.9136
2745	0.9149
2736	0.9149
2727	0.9142
2718	0.9139
2709	0.9145
2700	0.9158
2691	0.9166
2682	0.9171
2673	0.9173
2664	0.9173
2655	0.919
2646	0.9219
2637	0.9221
2628	0.924
2619	0.9231
2610	0.9207
2601	0.9181
2592	0.9158
2583	0.9152
2574	0.9151
2565	0.9183
2556	0.9201
2547	0.92
2538	0.9187
2529	0.9171
2520	0.9154
2511	0.9186
2502	0.9213
2493	0.9183
2484	0.9168
2475	0.9179
2466	0.9181
2457	0.9191
2448	0.9215
2439	0.9122
2430	0.8911
2421	0.8879
2412	0.8982
2403	0.9098
2394	0.9162
2385	0.9213
2376	0.9316
2367	0.9374
2358	0.947
2349	0.9491
2340	0.9503
2331	0.9542
2322	0.9588
2313	0.9413
2304	0.9204
2295	0.9091
2286	0.8987
2277	0.9097
2268	0.9226
2259	0.9293
2250	0.9284
2241	0.9242
2232	0.9233
2223	0.9228
2214	0.9221
2205	0.9308
2196	0.9387
2187	0.9373
2178	0.9368
2169	0.9342
2160	0.931
2151	0.9342
2142	0.9382
2133	0.941
2124	0.9427
2115	0.9429
2106	0.9325
2097	0.9308
2088	0.9376
2079	0.9403
2070	0.9403
2061	0.938
2052	0.9392
2043	0.9432
2034	0.939
2025	0.9398
2016	0.9505
2007	0.9517
1998	0.9493
1989	0.9453
1980	0.8908
1971	0.8731
1962	0.844
1953	0.8697
1944	0.8638
1935	0.8394
1926	0.8522
1917	0.8204
1908	0.8644
1899	0.8875
1890	0.8906
1881	0.8923
1872	0.8838
1863	0.8792
1854	0.8697
1845	0.8669
1836	0.8625
1827	0.8517
1818	0.8223
1809	0.8452
1800	0.8658
1791	0.8823
1782	0.8695
1773	0.8441
1764	0.8681
1755	0.8878
1746	0.881
1737	0.8714
1728	0.8606
1719	0.8652
1710	0.8587
1701	0.8745
1692	0.8379
1683	0.8161
1674	0.842
1665	0.8614
1656	0.8782
1647	0.8821
1638	0.777
1629	0.6122
1620	0.7621
1611	0.4694
1602	0.4585
1593	0.6355
1584	0.6407
1575	0.6675
1566	0.6358
1557	0.5565
1548	0.0784
1539	0.0548
1530	0.0356
1521	0.3141
1512	0.3914
1503	0.2254
1494	0.6388
1485	0.7349
1476	0.7815
1467	0.7821
1458	0.6769
1449	0.6276
1440	0.5575
1431	0.7868
1422	0.7592
1413	0.803
1404	0.8317
1395	0.6838
1386	0.7778
1377	0.7153
1368	0.4332
1359	0.1099
1350	0.0101
1341	0.0181
1332	0.0312
1323	0.4101
1314	0.6801
1305	0.767
1296	0.8072
1287	0.8074
1278	0.8456
1269	0.5313
1260	0.8239
1251	0.8481
1242	0.8487
1233	0.7105
1224	0.8263
1215	0.8605
1206	0.7118
1197	0.7884
1188	0.8615
1179	0.877
1170	0.8834
1161	0.8628
1152	0.6276
1143	0.7084
1134	0.7385
1125	0.87
1116	0.894
1107	0.9008
1098	0.8893
1089	0.7505
1080	0.2739
1071	0.7554
1062	0.8546
1053	0.8846
1044	0.896
1035	0.8981
1026	0.8867
1017	0.8391
1008	0.8387
999	0.8659
990	0.8748
981	0.8633
972	0.8449
963	0.6975
954	0.6103
945	0.8166
936	0.8605
927	0.8621
918	0.8005
909	0.1159
900	0.7027
891	0.4248
882	0.8004
873	0.7744
864	0.2523
855	0.7772
846	0.824
837	0.8389
828	0.7819
819	0.1165
810	0.6182
801	0.1436
792	0.738
783	0.7719
774	0.6543
765	0.1193
756	0.4044
747	0.747
738	0.8102
729	0.8472
720	0.8374
711	0.8636
702	0.8783
693	0.8881
684	0.8921
675	0.9041
666	0.9073
657	0.9077
648	0.8812
639	0.9017
630	0.8872
621	0.9145
612	0.9139
603	0.8855
594	0.6465
585	0.8881
576	0.9105
567	0.9218
558	0.9192
549	0.9083
540	0.8718
531	0.853
522	0.8878
513	0.9016
504	0.8992
495	0.8655
486	0.5254
477	0.5435
468	0.5347
459	0.5507
450	0.645
