Infrared Spectrum: 2,6-DIMETHYLNAPHTHALENE
Formula: C12 H12
CAS: 581-42-0
State: SOLID (3.0% IN KBr PELLET)
Class: COBLENTZ
Instrument: Not specified, most likely a prism, grating, or hybrid spectrometer.
Sampling: TRANSMISSION
Path length: 0.0355 CM THICK
Resolution: 4
Origin: ANDERSON PHYSICAL LABORATORY
1/CM	TRANSMITTANCE
672.177	0.891
680.599	0.942
689.02	0.945
697.442	0.954
705.864	0.954
714.286	0.957
722.707	0.959
731.129	0.957
739.551	0.95
747.973	0.945
756.394	0.941
764.816	0.935
773.238	0.92
781.66	0.896
790.081	0.872
798.503	0.792
806.925	0.6401
815.347	0.0642
823.768	0.069
832.19	0.684
840.612	0.857
849.034	0.915
857.455	0.915
865.877	0.903
874.299	0.827
882.721	0.5203
891.142	0.1
899.564	0.756
907.986	0.845
916.408	0.718
924.829	0.954
933.251	0.963
941.673	0.951
950.095	0.927
958.516	0.8151
966.938	0.369
975.36	0.917
983.782	0.921
992.203	0.908
1000.63	0.885
1009.05	0.845
1017.47	0.833
1025.89	0.825
1034.31	0.73
1042.73	0.572
1051.16	0.735
1059.58	0.849
1068	0.873
1076.42	0.875
1084.84	0.881
1093.26	0.885
1101.69	0.888
1110.11	0.884
1118.53	0.887
1126.95	0.861
1135.37	0.848
1143.79	0.876
1152.22	0.851
1160.64	0.772
1169.06	0.639
1177.48	0.888
1185.9	0.899
1194.33	0.894
1202.75	0.882
1211.17	0.855
1219.59	0.6841
1228.01	0.884
1236.43	0.878
1244.86	0.836
1253.28	0.843
1261.7	0.848
1270.12	0.786
1278.54	0.6
1286.96	0.801
1295.39	0.834
1303.81	0.842
1312.23	0.84
1320.65	0.828
1329.07	0.81
1337.49	0.772
1345.92	0.595
1354.34	0.729
1362.76	0.721
1371.18	0.661
1379.6	0.512
1388.03	0.511
1396.45	0.699
1404.87	0.714
1413.29	0.7
1421.71	0.673
1430.13	0.601
1438.56	0.505
1446.98	0.493
1455.4	0.511
1463.82	0.66
1472.24	0.703
1480.66	0.709
1489.09	0.697
1497.51	0.601
1505.93	0.4239
1514.35	0.5441
1522.77	0.651
1531.19	0.708
1539.62	0.736
1548.04	0.754
1556.46	0.757
1564.88	0.756
1573.3	0.747
1581.73	0.712
1590.15	0.666
1598.57	0.5049
1606.99	0.353
1615.41	0.496
1623.83	0.596
1632.26	0.772
1640.68	0.896
1649.1	0.95
1657.52	0.98
1665.94	0.96
1674.36	0.95
1682.79	0.92
1691.21	0.921
1699.63	0.93
1708.05	0.924
1716.47	0.911
1724.9	0.905
1733.32	0.926
1741.74	0.92
1750.16	0.891
1758.58	0.846
1767	0.798
1775.43	0.715
1783.85	0.848
1792.27	0.918
1800.69	0.921
1809.11	0.915
1817.53	0.909
1825.96	0.903
1834.38	0.891
1842.8	0.87
1851.22	0.855
1859.64	0.845
1868.06	0.89
1876.49	0.888
1884.91	0.885
1893.33	0.879
1901.75	0.861
1910.17	0.825
1918.6	0.723
1927.02	0.7651
1935.44	0.854
1943.86	0.867
1952.28	0.867
1960.7	0.864
1969.13	0.863
1977.55	0.861
1985.97	0.86
1994.39	0.855
2002.81	0.8452
2011.23	0.842
2019.66	0.8398
2028.08	0.8365
2036.5	0.8315
2044.92	0.824
2053.34	0.818
2061.76	0.816
2070.19	0.815
2078.61	0.8099
2087.03	0.803
2095.45	0.8005
2103.87	0.798
2112.3	0.796
2120.72	0.7927
2129.14	0.7879
2137.56	0.7832
2145.98	0.7779
2154.4	0.7717
2162.83	0.7674
2171.25	0.766
2179.67	0.765
2188.09	0.7641
2196.51	0.7579
2204.93	0.7536
2213.36	0.751
2221.78	0.7494
2230.2	0.7435
2238.62	0.7364
2247.04	0.732
2255.47	0.7297
2263.89	0.7188
2272.31	0.7153
2280.73	0.7138
2289.15	0.711
2297.57	0.702
2306	0.6973
2314.42	0.6898
2322.84	0.688
2331.26	0.687
2339.68	0.6853
2348.1	0.684
2356.53	0.684
2364.95	0.6828
2373.37	0.6781
2381.79	0.6746
2390.21	0.6685
2398.63	0.6588
2407.06	0.6553
2415.48	0.655
2423.9	0.655
2432.32	0.655
2440.74	0.654
2449.17	0.6475
2457.59	0.6396
2466.01	0.639
2474.43	0.6361
2482.85	0.6339
2491.27	0.6306
2499.7	0.6273
2508.12	0.6241
2516.54	0.6215
2524.96	0.6156
2533.38	0.6137
2541.8	0.6102
2550.23	0.604
2558.65	0.6006
2567.07	0.6
2575.49	0.5981
2583.91	0.5976
2592.33	0.5956
2600.76	0.5867
2609.18	0.5742
2617.6	0.572
2626.02	0.571
2634.44	0.5659
2642.87	0.5571
2651.29	0.5508
2659.71	0.5442
2668.13	0.5339
2676.55	0.53
2684.97	0.5167
2693.4	0.5085
2701.82	0.5053
2710.24	0.502
2718.66	0.5022
2727.08	0.503
2735.5	0.5005
2743.93	0.499
2752.35	0.4985
2760.77	0.4895
2769.19	0.469
2777.61	0.455
2786.03	0.4141
2794.46	0.3889
2802.88	0.3649
2811.3	0.3288
2819.72	0.2777
2828.14	0.2453
2836.57	0.2375
2844.99	0.237
2853.41	0.2367
2861.83	0.224
2870.25	0.2076
2878.67	0.1978
2887.1	0.185
2895.52	0.178
2903.94	0.178
2912.36	0.1842
2920.78	0.2753
2929.2	0.3105
2937.63	0.317
2946.05	0.3108
2954.47	0.3057
2962.89	0.305
2971.31	0.3109
2979.74	0.318
2988.16	0.318
2996.58	0.3141
3005	0.312
3013.42	0.3274
3021.84	0.3464
3030.27	0.363
3038.69	0.3745
3047.11	0.3961
3055.53	0.4307
3063.95	0.4738
3072.37	0.4995
3080.8	0.502
3089.22	0.502
3097.64	0.5008
3106.06	0.4991
3114.48	0.4906
3122.9	0.4809
3131.33	0.478
3139.75	0.478
3148.17	0.4726
3156.59	0.4652
3165.01	0.4634
3173.44	0.4547
3181.86	0.452
3190.28	0.4502
3198.7	0.449
3207.12	0.448
3215.54	0.443
3223.97	0.442
3232.39	0.44
3240.81	0.4391
3249.23	0.434
3257.65	0.433
3266.07	0.4303
3274.5	0.43
3282.92	0.4265
3291.34	0.4186
3299.76	0.4167
3308.18	0.4151
3316.6	0.4128
3325.03	0.409
3333.45	0.4063
3341.87	0.4001
3350.29	0.3958
3358.71	0.3912
3367.14	0.3849
3375.56	0.3831
3383.98	0.3778
3392.4	0.3745
3400.82	0.3713
3409.24	0.3691
3417.67	0.3676
3426.09	0.3655
3434.51	0.3636
3442.93	0.363
3451.35	0.363
3459.77	0.363
3468.2	0.363
3476.62	0.363
3485.04	0.365
3493.46	0.365
3501.88	0.363
3510.31	0.362
3518.73	0.3615
3527.15	0.36
3535.57	0.36
3543.99	0.362
3552.41	0.363
3560.84	0.3655
3569.26	0.368
3577.68	0.369
3586.1	0.3695
3594.52	0.371
3602.94	0.371
3611.37	0.372
3619.79	0.372
3628.21	0.372
3636.63	0.372
3645.05	0.372
3653.47	0.371
3661.9	0.369
3670.32	0.369
3678.74	0.368
3687.16	0.368
3695.58	0.366
3704.01	0.366
3712.43	0.3649
3720.85	0.3627
3729.27	0.362
3737.69	0.362
3746.11	0.3619
3754.54	0.36
3762.96	0.3572
3771.38	0.3543
3779.8	0.3528
3788.22	0.347
3796.64	0.3444
3805.07	0.342
3813.49	0.341
3821.91	0.3413
3830.33	0.342
3838.75	0.342
3847.17	0.345
3855.6	0.347
3864.02	0.347
3872.44	0.345
3880.86	0.3408
3889.28	0.3373
3897.71	0.335
3906.13	0.333
3914.55	0.3329
3922.97	0.332
3931.39	0.3307
3939.81	0.329
3948.24	0.326
3956.66	0.324
3965.08	0.324
3973.5	0.323
3981.92	0.323
