Infrared Spectrum: ACETOPHENONE, Alpha-HYDROXY-
Formula: C8 H8 O2
CAS: 582-24-1
State: SOLID (NUJOL MULL)
Class: COBLENTZ III
Instrument: BAIRD (GRATING)
Instrument parameters: NaCl PRISM
Sampling: TRANSMISSION
Resolution: 2
Origin: DOW CHEMICAL COMPANY
1/CM	TRANSMITTANCE
4000	0.7193
3991	0.7224
3982	0.7254
3973	0.728
3964	0.7286
3955	0.7292
3946	0.7294
3937	0.729
3928	0.7293
3919	0.7308
3910	0.7322
3901	0.7338
3892	0.7353
3883	0.7367
3874	0.738
3865	0.7391
3856	0.7401
3847	0.7414
3838	0.7425
3829	0.7435
3820	0.7442
3811	0.7449
3802	0.7457
3793	0.7464
3784	0.7471
3775	0.7475
3766	0.7482
3757	0.7487
3748	0.7493
3739	0.7497
3730	0.7501
3721	0.7504
3712	0.7508
3703	0.7508
3694	0.7508
3685	0.7508
3676	0.7503
3667	0.7497
3658	0.7478
3649	0.746
3640	0.7431
3631	0.739
3622	0.7336
3613	0.7275
3604	0.7204
3595	0.7125
3586	0.7028
3577	0.6928
3568	0.6824
3559	0.6719
3550	0.6619
3541	0.6522
3532	0.6408
3523	0.6227
3514	0.5857
3505	0.5469
3496	0.5134
3487	0.4505
3478	0.4076
3469	0.3659
3460	0.324
3451	0.2819
3442	0.2395
3433	0.197
3424	0.1542
3415	0.1279
3406	0.1269
3397	0.1255
3388	0.1278
3379	0.135
3370	0.1614
3361	0.1969
3352	0.2372
3343	0.2666
3334	0.2951
3325	0.3239
3316	0.3528
3307	0.3739
3298	0.3889
3289	0.403
3280	0.416
3271	0.4285
3262	0.4401
3253	0.4497
3244	0.4575
3235	0.4633
3226	0.4684
3217	0.4727
3208	0.4767
3199	0.4795
3190	0.4819
3181	0.4843
3172	0.4854
3163	0.4862
3154	0.4874
3145	0.488
3136	0.4873
3127	0.4848
3118	0.4804
3109	0.4741
3100	0.4662
3091	0.4558
3082	0.4403
3073	0.4262
3064	0.4118
3055	0.402
3046	0.4014
3037	0.4082
3028	0.4183
3019	0.4227
3010	0.4248
3001	0.4228
2992	0.4045
2983	0.3588
2974	0.3129
2965	0.2668
2956	0.2203
2947	0.1763
2938	0.1669
2929	0.1664
2920	0.1746
2911	0.2319
2902	0.2582
2893	0.2691
2884	0.2764
2875	0.2829
2866	0.296
2857	0.3284
2848	0.379
2839	0.4785
2830	0.5549
2821	0.5762
2812	0.5871
2803	0.5939
2794	0.6012
2785	0.6124
2776	0.6288
2767	0.6454
2758	0.6614
2749	0.6693
2740	0.67
2731	0.6701
2722	0.6701
2713	0.6678
2704	0.6624
2695	0.6553
2686	0.6471
2677	0.6407
2668	0.6397
2659	0.6411
2650	0.6494
2641	0.6562
2632	0.6614
2623	0.665
2614	0.6678
2605	0.6685
2596	0.669
2587	0.6689
2578	0.6681
2569	0.6662
2560	0.6648
2551	0.6651
2542	0.6706
2533	0.6796
2524	0.6886
2515	0.6975
2506	0.7067
2497	0.7164
2488	0.7257
2479	0.7346
2470	0.7435
2461	0.7526
2452	0.7622
2443	0.7711
2434	0.7795
2425	0.7882
2416	0.798
2407	0.8044
2398	0.8061
2389	0.8065
2380	0.8067
2371	0.8061
2362	0.806
2353	0.8075
2344	0.8138
2335	0.8215
2326	0.8287
2317	0.835
2308	0.8413
2299	0.8466
2290	0.8518
2281	0.8563
2272	0.8601
2263	0.8625
2254	0.8644
2245	0.8655
2236	0.8656
2227	0.8655
2218	0.8649
2209	0.8641
2200	0.864
2191	0.8674
2182	0.8755
2173	0.882
2164	0.8868
2155	0.8909
2146	0.8942
2137	0.8967
2128	0.898
2119	0.8987
2110	0.8984
2101	0.8981
2092	0.8975
2083	0.8983
2074	0.8999
2065	0.9059
2056	0.9158
2047	0.9173
2038	0.9175
2029	0.9181
2020	0.9185
2011	0.9164
2002	0.9033
1993	0.8828
1984	0.8624
1975	0.857
1966	0.8761
1957	0.9031
1948	0.912
1939	0.9093
1930	0.8934
1921	0.8821
1912	0.8781
1903	0.8871
1894	0.908
1885	0.9341
1876	0.9388
1867	0.9408
1858	0.9457
1849	0.9328
1840	0.899
1831	0.8939
1822	0.8975
1813	0.9152
1804	0.9067
1795	0.8725
1786	0.8468
1777	0.8308
1768	0.8206
1759	0.7806
1750	0.7224
1741	0.6106
1732	0.4945
1723	0.4327
1714	0.3805
1705	0.2613
1696	0.1408
1687	0.0808
1678	0.1136
1669	0.2269
1660	0.3552
1651	0.4293
1642	0.5323
1633	0.6304
1624	0.6304
1615	0.5726
1606	0.3721
1597	0.4889
1588	0.4753
1579	0.6401
1570	0.7354
1561	0.7815
1552	0.7997
1543	0.8223
1534	0.8366
1525	0.8442
1516	0.8553
1507	0.8506
1498	0.8184
1489	0.8259
1480	0.7441
1471	0.5923
1462	0.3252
1453	0.2171
1444	0.4145
1435	0.4992
1426	0.452
1417	0.3138
1408	0.2794
1399	0.5008
1390	0.601
1381	0.6007
1372	0.6669
1363	0.7325
1354	0.6946
1345	0.5918
1336	0.4877
1327	0.4506
1318	0.4443
1309	0.2749
1300	0.2162
1291	0.2511
1282	0.322
1273	0.3727
1264	0.3942
1255	0.3328
1246	0.2007
1237	0.1263
1228	0.2447
1219	0.3639
1210	0.4682
1201	0.5348
1192	0.4589
1183	0.4414
1174	0.4692
1165	0.5275
1156	0.5867
1147	0.6303
1138	0.62
1129	0.5154
1120	0.433
1111	0.2105
1102	0.2191
1093	0.368
1084	0.5141
1075	0.4669
1066	0.6223
1057	0.7068
1048	0.7368
1039	0.7465
1030	0.698
1021	0.7196
1012	0.7538
1003	0.5178
994	0.4381
985	0.3954
976	0.2438
967	0.3903
958	0.6014
949	0.6533
940	0.6187
931	0.6066
922	0.605
913	0.7678
904	0.8174
895	0.84
886	0.8732
877	0.8895
868	0.8845
859	0.8757
850	0.8523
841	0.874
832	0.8735
823	0.8515
814	0.7371
805	0.5801
796	0.7461
787	0.7849
778	0.7553
769	0.5316
760	0.1724
751	0.3173
742	0.6395
733	0.6796
724	0.5878
715	0.3762
706	0.3325
697	0.3216
688	0.1049
679	0.3718
670	0.2724
661	0.2911
652	0.3389
