Infrared Spectrum: CYCLOHEXANOL, 2-METHYL-
Formula: C7 H14 O
CAS: 583-59-5
State: SOLUTION (10% IN CCl4 FOR 3800-1333, 10% IN CS2 FOR 1333-450 CM^-^1)
Class: COBLENTZ III
Instrument: DOW KBr FOREPRISM-GRATING
Instrument parameters: BLAZED AT 3.5, 12.0, 20.0 MICRON, CHANGED AT 5.0, 7.5, 14.9 MICRON
Sampling: TRANSMISSION
Path length: 0.011, 0.011 CM
Resolution: 4
Origin: DOW CHEMICAL COMPANY
1/CM	TRANSMITTANCE
451.248	0.873
459.954	0.889
468.66	0.892
477.365	0.893
486.071	0.889
494.777	0.877
503.483	0.891
512.188	0.88
520.894	0.803
529.6	0.882
538.306	0.885
547.011	0.884
555.717	0.869
564.423	0.702
573.129	0.839
581.834	0.871
590.54	0.881
599.246	0.877
607.952	0.889
616.657	0.884
625.363	0.884
634.069	0.874
642.775	0.841
651.48	0.835
660.186	0.858
668.892	0.88
677.598	0.891
686.303	0.905
695.009	0.918
703.715	0.93
712.421	0.945
721.127	0.955
729.832	0.967
738.538	0.978
747.244	0.975
755.95	0.961
764.655	0.949
773.361	0.968
782.067	0.998
790.773	1.006
799.478	0.993
808.184	0.972
816.89	1.004
825.596	0.9109
834.301	0.892
843.007	0.6711
851.713	0.782
860.419	0.772
869.124	0.885
877.83	0.93
886.536	0.851
895.242	0.975
903.947	0.9201
912.653	0.979
921.359	0.7797
930.065	0.8071
938.77	0.797
947.476	0.915
956.182	0.881
964.888	0.6729
973.594	0.363
982.299	0.395
991.005	0.7681
999.711	0.877
1008.42	0.764
1017.12	0.614
1025.83	0.3219
1034.53	0.141
1043.24	0.302
1051.95	0.2611
1060.65	0.5248
1069.36	0.4482
1078.06	0.644
1086.77	0.608
1095.47	0.683
1104.18	0.919
1112.89	0.922
1121.59	0.856
1130.3	0.769
1139	0.734
1147.71	0.797
1156.41	0.908
1165.12	0.949
1173.83	0.938
1182.53	0.904
1191.24	0.825
1199.94	0.731
1208.65	0.66
1217.35	0.758
1226.06	0.734
1234.77	0.705
1243.47	0.757
1252.18	0.771
1260.88	0.749
1269.59	0.713
1278.3	0.677
1287	0.678
1295.71	0.716
1304.41	0.765
1313.12	0.767
1321.82	0.742
1330.53	0.674
1339.24	0.629
1347.94	0.603
1356.65	0.626
1365.35	0.573
1374.06	0.478
1382.76	0.6
1391.47	0.652
1400.18	0.663
1408.88	0.667
1417.59	0.675
1426.29	0.685
1435	0.658
1443.7	0.3759
1452.41	0.151
1461.12	0.2669
1469.82	0.5891
1478.53	0.776
1487.23	0.805
1495.94	0.794
1504.64	0.765
1513.35	0.726
1522.06	0.682
1530.76	0.637
1539.47	0.544
1548.17	0.476
1556.88	0.501
1565.59	0.599
1574.29	0.644
1583	0.664
1591.7	0.72
1600.41	0.811
1609.11	0.869
1617.82	0.892
1626.53	0.901
1635.23	0.916
1643.94	0.931
1652.64	0.941
1661.35	0.946
1670.05	0.95
1678.76	0.953
1687.47	0.959
1696.17	0.961
1704.88	0.956
1713.58	0.953
1722.29	0.961
1730.99	0.965
1739.7	0.967
1748.41	0.97
1757.11	0.963
1765.82	0.961
1774.52	0.963
1783.23	0.963
1791.93	0.961
1800.64	0.961
1809.35	0.959
1818.05	0.96
1826.76	0.956
1835.46	0.956
1844.17	0.957
1852.88	0.955
1861.58	0.956
1870.29	0.956
1878.99	0.959
1887.7	0.956
1896.4	0.957
1905.11	0.96
1913.82	0.959
1922.52	0.961
1931.23	0.96
1939.93	0.96
1948.64	0.956
1957.34	0.956
1966.05	0.955
1974.76	0.956
1983.46	0.956
1992.17	0.955
2000.87	0.962
2009.58	0.9755
2018.28	0.964
2026.99	0.9645
2035.7	0.9675
2044.4	0.967
2053.11	0.971
2061.81	0.9705
2070.52	0.9635
2079.22	0.967
2087.93	0.9675
2096.64	0.9715
2105.34	0.9705
2114.05	0.97
2122.75	0.9705
2131.46	0.972
2140.17	0.9745
2148.87	0.975
2157.58	0.972
2166.28	0.972
2174.99	0.97
2183.69	0.972
2192.4	0.97
2201.11	0.9709
2209.81	0.9755
2218.52	0.9661
2227.22	0.967
2235.93	0.9661
2244.63	0.961
2253.34	0.965
2262.05	0.961
2270.75	0.955
2279.46	0.9491
2288.16	0.9445
2296.87	0.9469
2305.57	0.949
2314.28	0.953
2322.99	0.9634
2331.69	0.9659
2340.4	0.9729
2349.1	0.9754
2357.81	0.975
2366.51	0.971
2375.22	0.967
2383.93	0.9596
2392.63	0.959
2401.34	0.961
2410.04	0.963
2418.75	0.959
2427.46	0.9496
2436.16	0.9513
2444.87	0.9573
2453.57	0.9606
2462.28	0.961
2470.98	0.956
2479.69	0.9556
2488.4	0.955
2497.1	0.9556
2505.81	0.9512
2514.51	0.949
2523.22	0.946
2531.92	0.949
2540.63	0.9472
2549.34	0.9406
2558.04	0.937
2566.75	0.9346
2575.45	0.9212
2584.16	0.9106
2592.86	0.907
2601.57	0.904
2610.28	0.904
2618.98	0.901
2627.69	0.8966
2636.39	0.889
2645.1	0.8722
2653.81	0.8427
2662.51	0.8048
2671.22	0.829
2679.92	0.8602
2688.63	0.8718
2697.33	0.878
2706.04	0.88
2714.75	0.8741
2723.45	0.8654
2732.16	0.876
2740.86	0.877
2749.57	0.8722
2758.27	0.8696
2766.98	0.856
2775.69	0.8309
2784.39	0.7988
2793.1	0.7695
2801.8	0.7527
2810.51	0.719
2819.21	0.6717
2827.92	0.5887
2836.63	0.4732
2845.33	0.202
2854.04	0.0409
2862.74	0.0448
2871.45	0.0634
2880.15	0.1292
2888.86	0.1438
2897.57	0.0949
2906.27	0.0646
2914.98	0.0182
2923.68	0.002
2932.39	0
2941.1	0.006
2949.8	0.0304
2958.51	0.0822
2967.21	0.2081
2975.92	0.3115
2984.62	0.4471
2993.33	0.699
3002.04	0.8097
3010.74	0.8617
3019.45	0.8843
3028.15	0.901
3036.86	0.9127
3045.56	0.916
3054.27	0.914
3062.98	0.912
3071.68	0.9153
3080.39	0.9157
3089.09	0.911
3097.8	0.905
3106.5	0.899
3115.21	0.888
3123.92	0.877
3132.62	0.8697
3141.33	0.8581
3150.03	0.8451
3158.74	0.8317
3167.44	0.8151
3176.15	0.7947
3184.86	0.7781
3193.56	0.7591
3202.27	0.7378
3210.97	0.7148
3219.68	0.6873
3228.39	0.6618
3237.09	0.6339
3245.8	0.6008
3254.5	0.5662
3263.21	0.5386
3271.91	0.5035
3280.62	0.4729
3289.33	0.4443
3298.03	0.4134
3306.74	0.3801
3315.44	0.3532
3324.15	0.3296
3332.85	0.3082
3341.56	0.2962
3350.27	0.2855
3358.97	0.2797
3367.68	0.276
3376.38	0.276
3385.09	0.277
3393.79	0.2823
3402.5	0.2903
3411.21	0.2995
3419.91	0.3068
3428.62	0.3203
3437.32	0.3298
3446.03	0.3463
3454.73	0.3655
3463.44	0.382
3472.15	0.3995
3480.85	0.4201
3489.56	0.4423
3498.26	0.476
3506.97	0.5162
3515.68	0.5708
3524.38	0.624
3533.09	0.6742
3541.79	0.7304
3550.5	0.773
3559.2	0.8132
3567.91	0.8362
3576.62	0.8582
3585.32	0.8486
3594.03	0.7964
3602.73	0.7146
3611.44	0.6359
3620.14	0.6094
3628.85	0.6771
3637.56	0.8437
3646.26	0.9167
3654.97	0.9213
3663.67	0.8966
3672.38	0.9066
3681.08	0.9393
3689.79	0.9579
3698.5	0.9684
3707.2	0.9727
3715.91	0.978
3724.61	0.9792
3733.32	0.982
3742.02	0.974
3750.73	0.98
3759.44	0.978
3768.14	0.978
3776.85	0.976
3785.55	0.983
3794.26	0.982
