Infrared Spectrum: 3,4-DIMETHYLPYRIDINE
Formula: C7 H9 N
CAS: 583-58-4
State: SOLUTION (10% CCl4 FOR 5000-1330, 10% CS2 FOR 1330-625 CM^-^1)
Class: COBLENTZ
Instrument: Not specified, most likely a prism, grating, or hybrid spectrometer.
Sampling: TRANSMISSION
Path length: 0.0125 CM, 0.0120 CM
Resolution: 4
Origin: DOW CHEMICAL COMPANY
MICROMETERS	TRANSMITTANCE
2.048	0.9
2.08922	0.9
2.13044	0.894
2.17165	0.89
2.21287	0.887
2.25409	0.87
2.29531	0.87
2.33653	0.876
2.37774	0.88
2.41896	0.885
2.46018	0.887
2.5014	0.892
2.54262	0.894
2.58383	0.897
2.62505	0.902
2.66627	0.894
2.70749	0.885
2.74871	0.873
2.78992	0.875
2.83114	0.844
2.87236	0.81
2.91358	0.788
2.9548	0.77
2.99601	0.779
3.03723	0.8
3.07845	0.818
3.11967	0.808
3.16089	0.822
3.20211	0.815
3.24332	0.735
3.28454	0.608
3.32576	0.517
3.36698	0.331
3.4082	0.345
3.44941	0.536
3.49063	0.613
3.53185	0.825
3.57307	0.87
3.61429	0.878
3.6555	0.871
3.69672	0.888
3.73794	0.899
3.77916	0.899
3.82038	0.897
3.86159	0.9
3.90281	0.905
3.94403	0.905
3.98525	0.905
4.02647	0.887
4.06768	0.899
4.1089	0.9
4.15012	0.902
4.19134	0.894
4.23256	0.897
4.27377	0.9
4.31499	0.902
4.35621	0.892
4.39743	0.895
4.43865	0.907
4.47986	0.907
4.52108	0.902
4.5623	0.909
4.60352	0.909
4.64474	0.911
4.68595	0.912
4.72717	0.912
4.76839	0.916
4.80961	0.917
4.85083	0.917
4.89204	0.917
4.93326	0.914
4.97448	0.907
5.0157	0.905
5.05692	0.905
5.09813	0.907
5.13935	0.897
5.18057	0.866
5.22179	0.883
5.26301	0.897
5.30422	0.897
5.34544	0.89
5.38666	0.905
5.42788	0.894
5.4691	0.902
5.51032	0.912
5.55153	0.911
5.59275	0.911
5.63397	0.894
5.67519	0.907
5.71641	0.899
5.75762	0.892
5.79884	0.9
5.84006	0.892
5.88128	0.888
5.9225	0.885
5.96371	0.87
6.00493	0.868
6.04615	0.844
6.08737	0.798
6.12859	0.767
6.1698	0.729
6.21102	0.411
6.25224	0.181
6.29346	0.305
6.33468	0.401
6.37589	0.388
6.41711	0.379
6.45833	0.396
6.49955	0.473
6.54077	0.557
6.58198	0.594
6.6232	0.623
6.66442	0.589
6.70564	0.41
6.74686	0.569
6.78807	0.535
6.82929	0.417
6.87051	0.295
6.91173	0.211
6.95295	0.336
6.99416	0.55
7.03538	0.574
7.0766	0.49
7.11782	0.476
7.15904	0.654
7.20025	0.615
7.24147	0.6
7.28269	0.714
7.32391	0.779
7.36513	0.83
7.40634	0.846
7.44756	0.849
7.48878	0.847
7.53	0.834
7.57122	0.832
7.61244	0.806
7.65365	0.777
7.69487	0.822
7.73609	0.861
7.77731	0.887
7.81853	0.883
7.85974	0.878
7.90096	0.892
7.94218	0.894
7.9834	0.875
8.02462	0.829
8.06583	0.81
8.10705	0.825
8.14827	0.847
8.18949	0.817
8.23071	0.864
8.27192	0.878
8.31314	0.817
8.35436	0.649
8.39558	0.712
8.4368	0.866
8.47801	0.861
8.51923	0.847
8.56045	0.864
8.60167	0.882
8.64289	0.895
8.6841	0.892
8.72532	0.883
8.76654	0.878
8.80776	0.861
8.84898	0.847
8.89019	0.849
8.93141	0.852
8.97263	0.88
9.01385	0.895
9.05507	0.895
9.09628	0.895
9.1375	0.895
9.17872	0.895
9.21994	0.894
9.26116	0.887
9.30237	0.846
9.34359	0.752
9.38481	0.68
9.42603	0.738
9.46725	0.786
9.50846	0.796
9.54968	0.801
9.5909	0.794
9.63212	0.779
9.67334	0.774
9.71456	0.712
9.75577	0.688
9.79699	0.676
9.83821	0.731
9.87943	0.818
9.92065	0.837
9.96186	0.813
10.0031	0.781
10.0443	0.755
10.0855	0.731
10.1267	0.806
10.168	0.823
10.2092	0.827
10.2504	0.835
10.2916	0.83
10.3328	0.82
10.374	0.82
10.4153	0.846
10.4565	0.871
10.4977	0.885
10.5389	0.897
10.5801	0.904
10.6214	0.907
10.6626	0.911
10.7038	0.911
10.745	0.909
10.7862	0.897
10.8274	0.883
10.8687	0.878
10.9099	0.876
10.9511	0.887
10.9923	0.895
11.0335	0.9
11.0748	0.902
11.116	0.9
11.1572	0.878
11.1984	0.858
11.2396	0.849
11.2808	0.851
11.3221	0.842
11.3633	0.82
11.4045	0.81
11.4457	0.796
11.4869	0.786
11.5281	0.77
11.5694	0.755
11.6106	0.735
11.6518	0.724
11.693	0.709
11.7342	0.711
11.7755	0.728
11.8167	0.733
11.8579	0.711
11.8991	0.613
11.9403	0.526
11.9815	0.565
12.0228	0.62
12.064	0.596
12.1052	0.538
12.1464	0.461
12.1876	0.328
12.2289	0.16
12.2701	0.201
12.3113	0.415
12.3525	0.589
12.3937	0.651
12.4349	0.671
12.4762	0.668
12.5174	0.664
12.5586	0.702
12.5998	0.74
12.641	0.748
12.6823	0.738
12.7235	0.699
12.7647	0.688
12.8059	0.729
12.8471	0.781
12.8883	0.805
12.9296	0.811
12.9708	0.815
13.012	0.815
13.0532	0.813
13.0944	0.805
13.1357	0.798
13.1769	0.793
13.2181	0.788
13.2593	0.764
13.3005	0.723
13.3417	0.699
13.383	0.695
13.4242	0.704
13.4654	0.719
13.5066	0.704
13.5478	0.656
13.5891	0.625
13.6303	0.642
13.6715	0.668
13.7127	0.67
13.7539	0.598
13.7951	0.507
13.8364	0.471
13.8776	0.564
13.9188	0.654
13.96	0.683
14.0012	0.688
14.0424	0.687
14.0837	0.683
14.1249	0.697
14.1661	0.711
14.2073	0.719
14.2485	0.721
14.2898	0.719
14.331	0.719
14.3722	0.714
14.4134	0.707
14.4546	0.704
14.4958	0.7
14.5371	0.692
14.5783	0.687
14.6195	0.683
14.6607	0.675
14.7019	0.666
14.7432	0.656
14.7844	0.647
14.8256	0.639
14.8668	0.629
14.908	0.623
14.9492	0.617
14.9905	0.611
15.0317	0.605
15.0729	0.589
15.1141	0.577
15.1553	0.567
15.1966	0.555
15.2378	0.541
15.279	0.528
15.3202	0.516
15.3614	0.511
15.4026	0.507
15.4439	0.5
15.4851	0.494
15.5263	0.487
15.5675	0.482
15.6087	0.48
15.65	0.478
15.6912	0.478
15.7324	0.478
15.7736	0.476
15.8148	0.476
15.856	0.476
15.8973	0.48
