Infrared Spectrum: 1-Bromo-2-iodobenzene
Formula: C6 H4 Br I
CAS: 583-55-1
State: SOLUTION (10% CCl4 FOR 3800-1380, 10% CS2 FOR 1380-450)
Class: COBLENTZ III
Instrument: DOW KBr FOREPRISM-GRATING
Instrument parameters: BLAZED AT 3.5, 12.0, 20.0 AND CHANGED AT 5.0, 7.5, 14.9 MICRON
Sampling: TRANSMISSION
Path length: 0.0105 CM, 0.0109 CM
Resolution: 2
Origin: DOW CHEMICAL COMPANY
1/CM	TRANSMITTANCE
3820	0.9419
3811	0.941
3802	0.9396
3793	0.9411
3784	0.9396
3775	0.9383
3766	0.9399
3757	0.9394
3748	0.9391
3739	0.9392
3730	0.9391
3721	0.9374
3712	0.9378
3703	0.9398
3694	0.9389
3685	0.938
3676	0.9388
3667	0.9384
3658	0.9379
3649	0.9374
3640	0.9369
3631	0.9385
3622	0.9385
3613	0.9383
3604	0.9382
3595	0.9381
3586	0.9381
3577	0.9379
3568	0.936
3559	0.9358
3550	0.9371
3541	0.9375
3532	0.9373
3523	0.9352
3514	0.9351
3505	0.935
3496	0.9349
3487	0.9346
3478	0.9343
3469	0.9341
3460	0.9338
3451	0.9334
3442	0.9332
3433	0.9329
3424	0.9324
3415	0.9325
3406	0.9334
3397	0.9326
3388	0.9328
3379	0.9328
3370	0.9345
3361	0.9329
3352	0.9331
3343	0.9336
3334	0.9335
3325	0.9336
3316	0.934
3307	0.9344
3298	0.9339
3289	0.9336
3280	0.9338
3271	0.9351
3262	0.9345
3253	0.9338
3244	0.9322
3235	0.9325
3226	0.9297
3217	0.9304
3208	0.9279
3199	0.9279
3190	0.9261
3181	0.9242
3172	0.9232
3163	0.9235
3154	0.9219
3145	0.9186
3136	0.9183
3127	0.906
3118	0.9146
3109	0.9207
3100	0.9224
3091	0.9226
3082	0.906
3073	0.8817
3064	0.8011
3055	0.8509
3046	0.896
3037	0.9238
3028	0.922
3019	0.9239
3010	0.9226
3001	0.9201
2992	0.9212
2983	0.921
2974	0.924
2965	0.9277
2956	0.9303
2947	0.9338
2938	0.9374
2929	0.9383
2920	0.9374
2911	0.9375
2902	0.9375
2893	0.9366
2884	0.9357
2875	0.9349
2866	0.934
2857	0.9331
2848	0.9308
2839	0.9311
2830	0.9299
2821	0.9313
2812	0.9292
2803	0.9308
2794	0.9307
2785	0.9295
2776	0.9304
2767	0.9302
2758	0.9297
2749	0.929
2740	0.9284
2731	0.9278
2722	0.9274
2713	0.927
2704	0.9267
2695	0.9265
2686	0.9265
2677	0.9265
2668	0.9268
2659	0.927
2650	0.9271
2641	0.9277
2632	0.929
2623	0.9292
2614	0.9295
2605	0.93
2596	0.9305
2587	0.9307
2578	0.9302
2569	0.9289
2560	0.9203
2551	0.9244
2542	0.9285
2533	0.9296
2524	0.9266
2515	0.9248
2506	0.9284
2497	0.9305
2488	0.9325
2479	0.9344
2470	0.9343
2461	0.9341
2452	0.9339
2443	0.9333
2434	0.933
2425	0.9328
2416	0.9328
2407	0.9335
2398	0.9348
2389	0.9367
2380	0.9406
2371	0.9458
2362	0.9428
2353	0.9494
2344	0.9436
2335	0.9371
2326	0.9417
2317	0.9431
2308	0.9424
2299	0.9414
2290	0.9406
2281	0.9368
2272	0.9393
2263	0.9387
2254	0.9369
2245	0.9373
2236	0.9388
2227	0.9393
2218	0.9393
2209	0.9401
2200	0.9407
2191	0.9396
2182	0.9402
2173	0.9425
2164	0.9409
2155	0.9413
2146	0.9416
2137	0.942
2128	0.9424
2119	0.9426
2110	0.9426
2101	0.9426
2092	0.9425
2083	0.9425
2074	0.9427
2065	0.9429
2056	0.9449
2047	0.9432
2038	0.9431
2029	0.9431
2020	0.9442
2011	0.944
2002	0.9432
1993	0.9296
1984	0.9162
1975	0.9129
1966	0.9152
1957	0.9429
1948	0.8872
1939	0.9069
1930	0.913
1921	0.9023
1912	0.8677
1903	0.9044
1894	0.9109
1885	0.9001
1876	0.9062
1867	0.9123
1858	0.9134
1849	0.9141
1840	0.9128
1831	0.8976
1822	0.8983
1813	0.9082
1804	0.9087
1795	0.8863
1786	0.8824
1777	0.9043
1768	0.9076
1759	0.9087
1750	0.9099
1741	0.909
1732	0.9082
1723	0.9067
1714	0.9061
1705	0.9063
1696	0.9063
1687	0.8973
1678	0.8969
1669	0.9107
1660	0.9102
1651	0.9113
1642	0.9146
1633	0.9136
1624	0.9134
1615	0.9163
1606	0.9207
1597	0.9202
1588	0.916
1579	0.9261
1570	0.9139
1561	0.94
1552	0.9171
1543	0.8803
1534	0.8601
1525	0.8948
1516	0.9096
1507	0.8965
1498	0.8787
1489	0.8794
1480	0.906
1471	0.8866
1462	0.7511
1453	0.6283
1444	0.6569
1435	0.444
1426	0.691
1417	0.7937
1408	0.862
1399	0.824
1390	0.8594
1381	0.8735
1372	0.8686
1363	0.8763
1354	0.8897
1345	0.8841
1336	0.8855
1327	0.9016
1318	0.9039
1309	0.906
1300	0.9009
1291	0.8987
1282	0.8925
1273	0.8861
1264	0.8802
1255	0.6802
1246	0.8311
1237	0.8744
1228	0.8906
1219	0.9002
1210	0.906
1201	0.9072
1192	0.9064
1183	0.884
1174	0.8883
1165	0.8932
1156	0.8838
1147	0.8864
1138	0.8885
1129	0.8866
1120	0.8769
1111	0.8792
1102	0.7926
1093	0.4593
1084	0.8365
1075	0.8693
1066	0.8856
1057	0.8867
1048	0.8848
1039	0.8651
1030	0.5926
1021	0.849
1012	0.8688
1003	0.0833
994	0.7394
985	0.861
976	0.8646
967	0.8575
958	0.8773
949	0.8782
940	0.84
931	0.8706
922	0.8868
913	0.8831
904	0.8872
895	0.8884
886	0.8953
877	0.8968
868	0.8841
859	0.8865
850	0.8694
841	0.8413
832	0.8763
823	0.8867
814	0.8845
805	0.8943
796	0.8942
787	0.891
778	0.8819
769	0.8616
760	0.8356
751	0.3935
742	0.0175
733	0.82
724	0.8632
715	0.8722
706	0.8395
697	0.7403
688	0.5491
679	0.8546
670	0.8807
661	0.9271
652	0.9143
643	0.8959
634	0.6253
625	0.8862
616	0.9208
607	0.9267
598	0.9287
589	0.9269
580	0.9285
571	0.9335
562	0.9275
553	0.9214
544	0.9215
535	0.9241
526	0.9244
517	0.9245
508	0.9229
499	0.9181
490	0.9151
481	0.914
472	0.9116
463	0.9107
454	0.9116
