Infrared Spectrum: O-BROMOPHENETOLE
Formula: C8 H9 Br O
CAS: 583-19-7
State: LIQUID
Boiling point: 120-122 C AT 20 mmHg
Class: COBLENTZ
Instrument: Not specified, most likely a prism, grating, or hybrid spectrometer.
Sampling: TRANSMISSION
Path length: 0.003 CM
Resolution: 4
Origin: WYANDOTTE CHEMICALS CORP., WYANDOTTE, MICHIGAN, USA
MICROMETERS	TRANSMITTANCE
2.04	0.955
2.07981	0.963
2.11962	0.973
2.15943	0.948
2.19923	0.922
2.23904	0.96
2.27885	0.953
2.31866	0.948
2.35847	0.92
2.39828	0.951
2.43808	0.96
2.47789	0.97
2.5177	0.97
2.55751	0.966
2.59732	0.968
2.63713	0.983
2.67694	0.973
2.71674	0.973
2.75655	0.965
2.79636	0.951
2.83617	0.95
2.87598	0.94
2.91579	0.928
2.95559	0.925
2.9954	0.913
3.03521	0.92
3.07502	0.915
3.11483	0.912
3.15464	0.907
3.19445	0.874
3.23425	0.605
3.27406	0.721
3.31387	0.344
3.35368	0.301
3.39349	0.256
3.4333	0.327
3.4731	0.384
3.51291	0.736
3.55272	0.816
3.59253	0.875
3.63234	0.855
3.67215	0.862
3.71196	0.927
3.75176	0.935
3.79157	0.951
3.83138	0.918
3.87119	0.895
3.911	0.864
3.95081	0.841
3.99061	0.87
4.03042	0.9
4.07023	0.913
4.11004	0.943
4.14985	0.951
4.18966	0.94
4.22947	0.938
4.26927	0.95
4.30908	0.95
4.34889	0.951
4.3887	0.955
4.42851	0.951
4.46832	0.951
4.50812	0.96
4.54793	0.978
4.58774	0.981
4.62755	0.978
4.66736	0.99
4.70717	0.978
4.74698	0.983
4.78678	0.981
4.82659	0.925
4.8664	0.905
4.90621	0.915
4.94602	0.912
4.98583	0.948
5.02563	0.97
5.06544	0.965
5.10525	0.955
5.14506	0.923
5.18487	0.908
5.22468	0.854
5.26449	0.92
5.30429	0.849
5.3441	0.903
5.38391	0.94
5.42372	0.902
5.46353	0.923
5.50334	0.947
5.54314	0.947
5.58295	0.95
5.62276	0.937
5.66257	0.88
5.70238	0.894
5.74219	0.92
5.782	0.895
5.8218	0.889
5.86161	0.91
5.90142	0.899
5.94123	0.852
5.98104	0.831
6.02085	0.849
6.06065	0.837
6.10046	0.814
6.14027	0.784
6.18008	0.658
6.21989	0.261
6.2597	0.114
6.29951	0.235
6.33931	0.453
6.37912	0.662
6.41893	0.774
6.45874	0.773
6.49855	0.738
6.53836	0.721
6.57816	0.64
6.61797	0.501
6.65778	0.312
6.69759	0.048
6.7374	0.067
6.77721	0.072
6.81702	0.21
6.85682	0.238
6.89663	0.066
6.93644	0.25
6.97625	0.536
7.01606	0.572
7.05587	0.544
7.09567	0.473
7.13548	0.293
7.17529	0.087
7.2151	0.269
7.25491	0.543
7.29472	0.61
7.33453	0.735
7.37433	0.789
7.41414	0.801
7.45395	0.791
7.49376	0.768
7.53357	0.72
7.57338	0.599
7.61318	0.399
7.65299	0.145
7.6928	0.074
7.73261	0.064
7.77242	0.061
7.81223	0.059
7.85204	0.062
7.89184	0.087
7.93165	0.089
7.97146	0.061
8.01127	0.059
8.05108	0.062
8.09089	0.109
8.13069	0.264
8.1705	0.451
8.21031	0.605
8.25012	0.68
8.28993	0.73
8.32974	0.759
8.36955	0.756
8.40935	0.751
8.44916	0.74
8.48897	0.685
8.52878	0.584
8.56859	0.359
8.6084	0.231
8.6482	0.399
8.68801	0.438
8.72782	0.543
8.76763	0.523
8.80744	0.331
8.84725	0.087
8.88706	0.206
8.92686	0.399
8.96667	0.288
9.00648	0.21
9.04629	0.403
9.0861	0.468
9.12591	0.39
9.16571	0.291
9.20552	0.392
9.24533	0.471
9.28514	0.486
9.32495	0.437
9.36476	0.304
9.40457	0.155
9.44437	0.066
9.48418	0.061
9.52399	0.069
9.5638	0.069
9.60361	0.076
9.64342	0.072
9.68322	0.062
9.72303	0.067
9.76284	0.132
9.80265	0.253
9.84246	0.36
9.88227	0.476
9.92208	0.586
9.96188	0.632
10.0017	0.649
10.0415	0.662
10.0813	0.665
10.1211	0.68
10.1609	0.692
10.2007	0.708
10.2405	0.723
10.2804	0.735
10.3202	0.75
10.36	0.758
10.3998	0.766
10.4396	0.781
10.4794	0.784
10.5192	0.786
10.559	0.781
10.5988	0.771
10.6386	0.736
10.6784	0.658
10.7182	0.509
10.7581	0.347
10.7979	0.17
10.8377	0.115
10.8775	0.215
10.9173	0.394
10.9571	0.516
10.9969	0.557
11.0367	0.552
11.0765	0.496
11.1163	0.557
11.1561	0.675
11.1959	0.735
11.2358	0.768
11.2756	0.778
11.3154	0.791
11.3552	0.783
11.395	0.793
11.4348	0.793
11.4746	0.804
11.5144	0.819
11.5542	0.832
11.594	0.834
11.6338	0.836
11.6736	0.834
11.7135	0.829
11.7533	0.816
11.7931	0.798
11.8329	0.769
11.8727	0.759
11.9125	0.766
11.9523	0.789
11.9921	0.801
12.0319	0.801
12.0717	0.788
12.1115	0.753
12.1513	0.731
12.1912	0.731
12.231	0.756
12.2708	0.75
12.3106	0.748
12.3504	0.735
12.3902	0.721
12.43	0.703
12.4698	0.668
12.5096	0.615
12.5494	0.564
12.5892	0.604
12.6291	0.735
12.6689	0.774
12.7087	0.741
12.7485	0.728
12.7883	0.715
12.8281	0.678
12.8679	0.639
12.9077	0.6
12.9475	0.596
12.9873	0.591
13.0271	0.554
13.0669	0.493
13.1068	0.38
13.1466	0.258
13.1864	0.162
13.2262	0.107
13.266	0.094
13.3058	0.091
13.3456	0.094
13.3854	0.097
13.4252	0.094
13.465	0.096
13.5048	0.104
13.5446	0.134
13.5845	0.205
13.6243	0.321
13.6641	0.418
13.7039	0.514
13.7437	0.566
13.7835	0.602
13.8233	0.625
13.8631	0.627
13.9029	0.625
13.9427	0.624
13.9825	0.619
14.0223	0.619
14.0622	0.605
14.102	0.567
14.1418	0.544
14.1816	0.561
14.2214	0.617
14.2612	0.66
14.301	0.695
14.3408	0.718
14.3806	0.713
14.4204	0.708
14.4602	0.68
14.5	0.658
14.5399	0.653
14.5797	0.67
14.6195	0.69
14.6593	0.698
14.6991	0.698
14.7389	0.69
14.7787	0.68
14.8185	0.657
14.8583	0.624
14.8981	0.576
14.9379	0.523
14.9777	0.486
15.0176	0.478
15.0574	0.478
15.0972	0.438
15.137	0.394
15.1768	0.39
15.2166	0.4
15.2564	0.413
15.2962	0.437
15.336	0.466
15.3758	0.516
15.4156	0.559
15.4555	0.594
15.4953	0.625
15.5351	0.649
15.5749	0.657
15.6147	0.67
15.6545	0.677
15.6943	0.678
15.7341	0.685
15.7739	0.685
15.8137	0.685
15.8535	0.688
15.8933	0.69
15.9332	0.695
15.973	0.697
