Infrared Spectrum: o-DICHLOROBENZENE
Formula: C6 H4 Br2
CAS: 583-53-9
State: SOLUTION (6% IN CCl4 FOR 3800-1300, 6% IN CS2 FOR 1350-680, AND 6% IN CCl4 FOR 680-240 CM^-^1) VERSUS SOLVENT
Class: COBLENTZ III
Instrument: PERKIN-ELMER 521 (GRATING)
Instrument parameters: FILTERS AT 3150, 2500, 2000, 1150, 700, 410; GRATING CHANGES AT 2000, 630 CM^-^1
Sampling: TRANSMISSION
Path length: 0.010, 0.010, AND 0.020 CM (CsBr CELL)
Resolution: 4
Origin: DOW CORNING CORP.
1/CM	TRANSMITTANCE
238.93	0.881
248.15	0.883
257.371	0.883
266.591	0.88
275.811	0.879
285.031	0.884
294.252	0.89
303.472	0.89
312.692	0.89
321.913	0.886
331.133	0.88
340.353	0.875
349.573	0.865
358.794	0.856
368.014	0.7961
377.234	0.851
386.455	0.856
395.675	0.842
404.895	0.837
414.116	0.817
423.336	0.725
432.556	0.7938
441.776	0.833
450.997	0.837
460.217	0.832
469.437	0.804
478.658	0.837
487.878	0.832
497.098	0.832
506.318	0.834
515.539	0.839
524.759	0.843
533.979	0.853
543.2	0.848
552.42	0.847
561.64	0.852
570.86	0.853
580.081	0.855
589.301	0.852
598.521	0.851
607.742	0.855
616.962	0.856
626.182	0.82
635.402	0.77
644.623	0.834
653.843	0.889
663.063	0.893
672.284	0.891
681.504	0.885
690.724	0.837
699.944	0.7591
709.165	0.856
718.385	0.865
727.605	0.841
736.826	0.6301
746.046	0.25
755.266	0.818
764.487	0.875
773.707	0.872
782.927	0.875
792.147	0.879
801.368	0.87
810.588	0.8749
819.808	0.878
829.029	0.875
838.249	0.871
847.469	0.872
856.689	0.878
865.91	0.879
875.13	0.88
884.35	0.881
893.571	0.883
902.791	0.883
912.011	0.88
921.231	0.871
930.452	0.865
939.672	0.815
948.892	0.869
958.113	0.866
967.333	0.865
976.553	0.857
985.773	0.829
994.994	0.805
1004.21	0.617
1013.43	0.564
1022.65	0.79
1031.87	0.77
1041.1	0.82
1050.32	0.82
1059.54	0.815
1068.76	0.797
1077.98	0.808
1087.2	0.804
1096.42	0.78
1105.64	0.543
1114.86	0.795
1124.08	0.8
1133.3	0.809
1142.52	0.814
1151.74	0.824
1160.96	0.848
1170.18	0.861
1179.4	0.864
1188.62	0.871
1197.84	0.878
1207.06	0.876
1216.28	0.878
1225.5	0.872
1234.72	0.853
1243.94	0.839
1253.16	0.7282
1262.38	0.864
1271.6	0.866
1280.82	0.876
1290.04	0.886
1299.26	0.891
1308.48	0.895
1317.7	0.899
1326.92	0.903
1336.14	0.905
1345.36	0.903
1354.59	0.914
1363.81	0.913
1373.03	0.907
1382.25	0.905
1391.47	0.89
1400.69	0.871
1409.91	0.879
1419.13	0.8499
1428.35	0.4529
1437.57	0.749
1446.79	0.4631
1456.01	0.857
1465.23	0.806
1474.45	0.844
1483.67	0.874
1492.89	0.902
1502.11	0.911
1511.33	0.916
1520.55	0.912
1529.77	0.909
1538.99	0.904
1548.21	0.891
1557.43	0.858
1566.65	0.724
1575.87	0.9
1585.09	0.895
1594.31	0.891
1603.53	0.902
1612.75	0.899
1621.97	0.9
1631.19	0.903
1640.41	0.903
1649.63	0.903
1658.85	0.904
1668.07	0.902
1677.3	0.897
1686.52	0.902
1695.74	0.905
1704.96	0.905
1714.18	0.905
1723.4	0.905
1732.62	0.904
1741.84	0.904
1751.06	0.905
1760.28	0.905
1769.5	0.904
1778.72	0.897
1787.94	0.885
1797.16	0.898
1806.38	0.902
1815.6	0.898
1824.82	0.897
1834.04	0.907
1843.26	0.904
1852.48	0.903
1861.7	0.9
1870.92	0.898
1880.14	0.899
1889.36	0.898
1898.58	0.893
1907.8	0.88
1917.02	0.886
1926.24	0.897
1935.46	0.893
1944.68	0.89
1953.9	0.902
1963.12	0.902
1972.34	0.903
1981.56	0.9
1990.79	0.9
2000.01	0.907
2009.23	0.9085
2018.45	0.909
2027.67	0.908
2036.89	0.9042
2046.11	0.904
2055.33	0.903
2064.55	0.902
2073.77	0.9
2082.99	0.9
2092.21	0.9
2101.43	0.9014
2110.65	0.899
2119.87	0.9
2129.09	0.9
2138.31	0.9
2147.53	0.9
2156.75	0.902
2165.97	0.902
2175.19	0.902
2184.41	0.9
2193.63	0.899
2202.85	0.898
2212.07	0.8979
2221.29	0.897
2230.51	0.895
2239.73	0.895
2248.95	0.894
2258.17	0.894
2267.39	0.894
2276.61	0.896
2285.83	0.898
2295.05	0.8975
2304.27	0.897
2313.5	0.8946
2322.72	0.894
2331.94	0.894
2341.16	0.894
2350.38	0.894
2359.6	0.894
2368.82	0.894
2378.04	0.894
2387.26	0.894
2396.48	0.894
2405.7	0.894
2414.92	0.894
2424.14	0.893
2433.36	0.891
2442.58	0.8926
2451.8	0.89
2461.02	0.891
2470.24	0.891
2479.46	0.891
2488.68	0.89
2497.9	0.89
2507.12	0.89
2516.34	0.89
2525.56	0.8895
2534.78	0.891
2544	0.89
2553.22	0.891
2562.44	0.8895
2571.66	0.89
2580.88	0.8919
2590.1	0.893
2599.32	0.894
2608.54	0.894
2617.76	0.894
2626.99	0.894
2636.21	0.894
2645.43	0.893
2654.65	0.891
2663.87	0.893
2673.09	0.891
2682.31	0.891
2691.53	0.8925
2700.75	0.8933
2709.97	0.893
2719.19	0.8924
2728.41	0.893
2737.63	0.8933
2746.85	0.891
2756.07	0.89
2765.29	0.89
2774.51	0.89
2783.73	0.893
2792.95	0.893
2802.17	0.893
2811.39	0.891
2820.61	0.891
2829.83	0.89
2839.05	0.89
2848.27	0.89
2857.49	0.89
2866.71	0.89
2875.93	0.89
2885.15	0.889
2894.37	0.888
2903.59	0.886
2912.81	0.8851
2922.03	0.884
2931.25	0.884
2940.47	0.883
2949.7	0.8814
2958.92	0.8803
2968.14	0.881
2977.36	0.88
2986.58	0.88
2995.8	0.879
3005.02	0.879
3014.24	0.879
3023.46	0.878
3032.68	0.8749
3041.9	0.8694
3051.12	0.8426
3060.34	0.806
3069.56	0.8366
3078.78	0.8753
3088	0.881
3097.22	0.8835
3106.44	0.885
3115.66	0.886
3124.88	0.889
3134.1	0.89
3143.32	0.891
3152.54	0.893
3161.76	0.8949
3170.98	0.898
3180.2	0.899
3189.42	0.899
3198.64	0.899
3207.86	0.902
3217.08	0.902
3226.3	0.903
3235.52	0.905
3244.74	0.9073
3253.96	0.908
3263.19	0.909
3272.41	0.909
3281.63	0.909
3290.85	0.909
3300.07	0.909
3309.29	0.909
3318.51	0.909
3327.73	0.909
3336.95	0.909
3346.17	0.909
3355.39	0.909
3364.61	0.909
3373.83	0.909
3383.05	0.909
3392.27	0.909
3401.49	0.909
3410.71	0.9091
3419.93	0.909
3429.15	0.909
3438.37	0.909
3447.59	0.911
3456.81	0.9114
3466.03	0.9111
3475.25	0.912
3484.47	0.913
3493.69	0.912
3502.91	0.9128
3512.13	0.913
3521.35	0.913
3530.57	0.913
3539.79	0.913
3549.01	0.913
3558.23	0.914
3567.45	0.914
3576.67	0.9153
3585.9	0.9139
3595.12	0.9124
3604.34	0.913
3613.56	0.913
3622.78	0.913
3632	0.912
3641.22	0.913
3650.44	0.913
3659.66	0.913
3668.88	0.9135
3678.1	0.913
3687.32	0.913
3696.54	0.912
3705.76	0.912
3714.98	0.912
3724.2	0.913
3733.42	0.914
3742.64	0.914
3751.86	0.912
3761.08	0.912
3770.3	0.913
3779.52	0.913
3788.74	0.913
3797.96	0.913
3807.18	0.913
