Infrared Spectrum: 1-BROMO-2,4-DINITROBENZENE
Formula: C6 H3 Br O4 N2
CAS: 584-48-5
State: SOLID (MINERAL OIL MULL)
Melting point: 70-72 C
Class: COBLENTZ
Instrument: Not specified, most likely a prism, grating, or hybrid spectrometer.
Sampling: TRANSMISSION
Resolution: 4
Origin: WYANDOTTE CHEMICALS CORP., WYANDOTTE, MICHIGAN, USA
MICROMETERS	TRANSMITTANCE
2.02	0.383
2.05977	0.39
2.09954	0.4
2.13931	0.408
2.17909	0.41
2.21886	0.413
2.25863	0.42
2.2984	0.431
2.33817	0.44
2.37794	0.445
2.41771	0.451
2.45748	0.451
2.49726	0.451
2.53703	0.461
2.5768	0.48
2.61657	0.47
2.65634	0.488
2.69611	0.496
2.73588	0.493
2.77566	0.513
2.81543	0.509
2.8552	0.509
2.89497	0.501
2.93474	0.508
2.97451	0.511
3.01428	0.519
3.05406	0.528
3.09383	0.541
3.1336	0.548
3.17337	0.553
3.21314	0.514
3.25291	0.33
3.29268	0.445
3.33245	0.39
3.37223	0.144
3.412	0.117
3.45177	0.259
3.49154	0.255
3.53131	0.405
3.57108	0.659
3.61085	0.679
3.65063	0.677
3.6904	0.671
3.73017	0.662
3.76994	0.681
3.80971	0.689
3.84948	0.689
3.88925	0.694
3.92902	0.709
3.9688	0.712
4.00857	0.717
4.04834	0.717
4.08811	0.717
4.12788	0.724
4.16765	0.727
4.20742	0.735
4.2472	0.724
4.28697	0.71
4.32674	0.732
4.36651	0.764
4.40628	0.784
4.44605	0.777
4.48582	0.777
4.52559	0.78
4.56537	0.785
4.60514	0.79
4.64491	0.8
4.68468	0.803
4.72445	0.807
4.76422	0.813
4.80399	0.825
4.84377	0.827
4.88354	0.832
4.92331	0.838
4.96308	0.84
5.00285	0.843
5.04262	0.845
5.08239	0.847
5.12217	0.85
5.16194	0.812
5.20171	0.85
5.24148	0.862
5.28125	0.872
5.32102	0.878
5.36079	0.882
5.40056	0.885
5.44034	0.888
5.48011	0.893
5.51988	0.88
5.55965	0.893
5.59942	0.877
5.63919	0.901
5.67896	0.911
5.71874	0.905
5.75851	0.9
5.79828	0.928
5.83805	0.913
5.87782	0.888
5.91759	0.911
5.95736	0.921
5.99713	0.928
6.03691	0.908
6.07668	0.936
6.11645	0.91
6.15622	0.84
6.19599	0.214
6.23576	0.242
6.27553	0.36
6.31531	0.627
6.35508	0.679
6.39485	0.468
6.43462	0.066
6.47439	0.093
6.51416	0.109
6.55393	0.247
6.5937	0.357
6.63348	0.488
6.67325	0.581
6.71302	0.641
6.75279	0.598
6.79256	0.483
6.83233	0.347
6.8721	0.498
6.91188	0.591
6.95165	0.714
6.99142	0.775
7.03119	0.782
7.07096	0.765
7.11073	0.774
7.1505	0.769
7.19028	0.704
7.23005	0.588
7.26982	0.556
7.30959	0.488
7.34936	0.156
7.38913	0.028
7.4289	0.064
7.46867	0.227
7.50845	0.322
7.54822	0.387
7.58799	0.541
7.62776	0.619
7.66753	0.611
7.7073	0.626
7.74707	0.692
7.78685	0.72
7.82662	0.724
7.86639	0.729
7.90616	0.737
7.94593	0.752
7.9857	0.724
8.02547	0.622
8.06524	0.757
8.10502	0.78
8.14479	0.797
8.18456	0.799
8.22433	0.807
8.2641	0.818
8.30387	0.823
8.34364	0.81
8.38342	0.818
8.42319	0.838
8.46296	0.853
8.50273	0.855
8.5425	0.848
8.58227	0.855
8.62204	0.85
8.66181	0.76
8.70159	0.78
8.74136	0.852
8.78113	0.875
8.8209	0.847
8.86067	0.857
8.90044	0.88
8.94021	0.882
8.97999	0.89
9.01976	0.898
9.05953	0.888
9.0993	0.853
9.13907	0.82
9.17884	0.828
9.21861	0.858
9.25839	0.873
9.29816	0.88
9.33793	0.88
9.3777	0.873
9.41747	0.885
9.45724	0.888
9.49701	0.901
9.53678	0.901
9.57656	0.882
9.61633	0.676
9.6561	0.275
9.69587	0.554
9.73564	0.712
9.77541	0.759
9.81518	0.787
9.85496	0.813
9.89473	0.837
9.9345	0.855
9.97427	0.867
10.014	0.877
10.0538	0.882
10.0936	0.882
10.1334	0.845
10.1731	0.84
10.2129	0.85
10.2527	0.878
10.2924	0.885
10.3322	0.893
10.372	0.893
10.4118	0.897
10.4515	0.898
10.4913	0.898
10.5311	0.901
10.5708	0.911
10.6106	0.911
10.6504	0.911
10.6902	0.91
10.7299	0.9
10.7697	0.895
10.8095	0.893
10.8492	0.89
10.889	0.805
10.9288	0.554
10.9686	0.594
11.0083	0.715
11.0481	0.79
11.0879	0.789
11.1276	0.466
11.1674	0.425
11.2072	0.752
11.247	0.845
11.2867	0.88
11.3265	0.9
11.3663	0.913
11.406	0.918
11.4458	0.92
11.4856	0.923
11.5254	0.933
11.5651	0.938
11.6049	0.95
11.6447	0.945
11.6844	0.941
11.7242	0.9
11.764	0.82
11.8038	0.551
11.8435	0.606
11.8833	0.805
11.9231	0.848
11.9628	0.77
12.0026	0.5
12.0424	0.418
12.0822	0.649
12.1219	0.762
12.1617	0.813
12.2015	0.85
12.2412	0.868
12.281	0.883
12.3208	0.888
12.3606	0.9
12.4003	0.901
12.4401	0.91
12.4799	0.911
12.5196	0.916
12.5594	0.92
12.5992	0.925
12.6389	0.925
12.6787	0.928
12.7185	0.93
12.7583	0.933
12.798	0.931
12.8378	0.93
12.8776	0.926
12.9173	0.928
12.9571	0.93
12.9969	0.928
13.0367	0.925
13.0764	0.918
13.1162	0.91
13.156	0.878
13.1957	0.815
13.2355	0.823
13.2753	0.878
13.3151	0.898
13.3548	0.898
13.3946	0.88
13.4344	0.848
13.4741	0.78
13.5139	0.652
13.5537	0.523
13.5935	0.506
13.6332	0.516
13.673	0.488
13.7128	0.373
13.7525	0.287
13.7923	0.421
13.8321	0.652
13.8719	0.744
13.9116	0.794
13.9514	0.835
13.9912	0.86
14.0309	0.88
14.0707	0.893
14.1105	0.901
14.1503	0.906
14.19	0.911
14.2298	0.913
14.2696	0.916
14.3093	0.92
14.3491	0.921
14.3889	0.918
14.4287	0.911
14.4684	0.908
14.5082	0.898
14.548	0.88
14.5877	0.838
14.6275	0.774
14.6673	0.727
14.7071	0.729
14.7468	0.767
14.7866	0.802
14.8264	0.822
14.8661	0.833
14.9059	0.84
14.9457	0.842
14.9855	0.833
15.0252	0.8
15.065	0.772
15.1048	0.785
15.1445	0.808
15.1843	0.813
15.2241	0.794
15.2639	0.76
15.3036	0.729
15.3434	0.697
15.3832	0.699
15.4229	0.712
15.4627	0.729
15.5025	0.727
15.5423	0.722
15.582	0.727
15.6218	0.719
15.6616	0.709
15.7013	0.7
15.7411	0.687
15.7809	0.682
15.8207	0.669
15.8604	0.661
15.9002	0.652
15.94	0.634
15.9797	0.631
