Infrared Spectrum: BENZENE, 2,4-DIISOCYANATO-1-METHYL-
Formula: C9 H6 N2 O2
CAS: 584-84-9
State: SOLUTION (10% IN CCl4 FOR 3800-1333 AND 10% IN CS2 FOR 1333-400 CM^-^1)
Class: COBLENTZ III
Instrument: DOW KBr FOREPRISM-GRATING
Instrument parameters: BLAZED AT 3.5, 12.0, 20.0 MICRON, CHANGED AT 5.0, 7.5, 14.9 MICRON
Sampling: TRANSMISSION
Path length: 0.010, 0.010 CM
Resolution: 4
Origin: DOW CHEMICAL COMPANY
1/CM	TRANSMITTANCE
390.633	0.354
400	0.371
409.366	0.472
418.733	0.62
428.1	0.667
437.466	0.674
446.833	0.661
456.2	0.6209
465.567	0.768
474.933	0.79
484.3	0.802
493.667	0.808
503.033	0.798
512.4	0.747
521.767	0.764
531.133	0.751
540.5	0.725
549.867	0.6321
559.233	0.4111
568.6	0.305
577.967	0.484
587.334	0.565
596.7	0.3091
606.067	0.563
615.434	0.517
624.8	0.49
634.167	0.504
643.534	0.577
652.9	0.67
662.267	0.794
671.634	0.808
681	0.803
690.367	0.756
699.734	0.652
709.1	0.775
718.467	0.82
727.834	0.844
737.201	0.803
746.567	0.764
755.934	0.833
765.301	0.893
774.667	0.88
784.034	0.804
793.401	0.867
802.767	0.7171
812.134	0.264
821.501	0.7619
830.867	0.853
840.234	0.808
849.601	0.6341
858.968	0.397
868.334	0.324
877.701	0.524
887.068	0.357
896.434	0.432
905.801	0.633
915.168	0.881
924.534	0.908
933.901	0.904
943.268	0.916
952.634	0.928
962.001	0.925
971.368	0.913
980.735	0.873
990.101	0.6521
999.468	0.853
1008.83	0.868
1018.2	0.885
1027.57	0.848
1036.93	0.865
1046.3	0.888
1055.67	0.891
1065.03	0.7071
1074.4	0.2969
1083.77	0.857
1093.13	0.853
1102.5	0.791
1111.87	0.701
1121.23	0.683
1130.6	0.629
1139.97	0.788
1149.33	0.76
1158.7	0.701
1168.07	0.683
1177.44	0.84
1186.8	0.892
1196.17	0.893
1205.54	0.822
1214.9	0.9129
1224.27	0.932
1233.64	0.934
1243	0.928
1252.37	0.907
1261.74	0.841
1271.1	0.881
1280.47	0.864
1289.84	0.875
1299.2	0.916
1308.57	0.932
1317.94	0.932
1327.3	0.925
1336.67	0.916
1346.04	0.9
1355.4	0.871
1364.77	0.853
1374.14	0.837
1383.5	0.646
1392.87	0.782
1402.24	0.848
1411.6	0.857
1420.97	0.856
1430.34	0.79
1439.7	0.644
1449.07	0.616
1458.44	0.713
1467.8	0.725
1477.17	0.707
1486.54	0.66
1495.9	0.5241
1505.27	0.39
1514.64	0.25
1524	0.095
1533.37	0.172
1542.74	0.289
1552.1	0.387
1561.47	0.363
1570.84	0.1851
1580.2	0.16
1589.57	0.3619
1598.94	0.395
1608.3	0.201
1617.67	0.065
1627.04	0.5169
1636.4	0.851
1645.77	0.916
1655.14	0.936
1664.5	0.937
1673.87	0.938
1683.24	0.95
1692.6	0.962
1701.97	0.964
1711.34	0.948
1720.7	0.925
1730.07	0.941
1739.44	0.945
1748.8	0.95
1758.17	0.965
1767.54	0.949
1776.9	0.83
1786.27	0.9539
1795.64	0.976
1805	0.977
1814.37	0.982
1823.74	0.982
1833.1	0.98
1842.47	0.978
1851.84	0.98
1861.2	0.969
1870.57	0.945
1879.94	0.941
1889.3	0.977
1898.67	0.986
1908.04	0.989
1917.4	0.994
1926.77	0.996
1936.14	0.994
1945.5	0.993
1954.87	0.99
1964.24	0.988
1973.6	0.986
1982.97	0.986
1992.34	0.985
2001.7	0.984
2011.07	0.988
2020.44	0.982
2029.8	0.977
2039.17	0.969
2048.54	0.9565
2057.9	0.94
2067.27	0.9175
2076.64	0.912
2086	0.912
2095.37	0.911
2104.74	0.8945
2114.1	0.868
2123.47	0.822
2132.84	0.7151
2142.2	0.624
2151.57	0.4871
2160.94	0.4315
2170.3	0.442
2179.67	0.4535
2189.04	0.416
2198.4	0.354
2207.77	0.2689
2217.14	0.186
2226.5	0.103
2235.87	0.024
2245.24	0.017
2254.6	0.017
2263.97	0.015
2273.34	0.014
2282.7	0.015
2292.07	0.0145
2301.44	0.017
2310.8	0.02
2320.17	0.046
2329.54	0.1216
2338.9	0.192
2348.27	0.224
2357.64	0.2532
2367	0.3781
2376.37	0.405
2385.74	0.4165
2395.1	0.4481
2404.47	0.5091
2413.84	0.6293
2423.2	0.7586
2432.57	0.8151
2441.94	0.8471
2451.3	0.8891
2460.67	0.9191
2470.04	0.936
2479.41	0.9511
2488.77	0.966
2498.14	0.971
2507.51	0.977
2516.87	0.979
2526.24	0.981
2535.61	0.981
2544.97	0.98
2554.34	0.979
2563.71	0.976
2573.07	0.973
2582.44	0.976
2591.81	0.9805
2601.17	0.986
2610.54	0.989
2619.91	0.989
2629.27	0.989
2638.64	0.986
2648.01	0.983
2657.37	0.978
2666.74	0.9674
2676.11	0.958
2685.47	0.959
2694.84	0.968
2704.21	0.969
2713.57	0.969
2722.94	0.9685
2732.31	0.9619
2741.67	0.9575
2751.04	0.976
2760.41	0.979
2769.77	0.978
2779.14	0.978
2788.51	0.978
2797.87	0.982
2807.24	0.982
2816.61	0.9765
2825.97	0.969
2835.34	0.9615
2844.71	0.9529
2854.07	0.9205
2863.44	0.8729
2872.81	0.8915
2882.17	0.885
2891.54	0.88
2900.91	0.891
2910.27	0.8709
2919.64	0.794
2929.01	0.7733
2938.37	0.8269
2947.74	0.8075
2957.11	0.8191
2966.47	0.835
2975.84	0.8109
2985.21	0.7985
2994.57	0.8303
3003.94	0.8891
3013.31	0.893
3022.67	0.88
3032.04	0.8911
3041.41	0.9136
3050.77	0.913
3060.14	0.9115
3069.51	0.9171
3078.87	0.9427
3088.24	0.9651
3097.61	0.9765
3106.97	0.978
3116.34	0.978
3125.71	0.976
3135.07	0.968
3144.44	0.9579
3153.81	0.9328
3163.17	0.9088
3172.54	0.9051
3181.91	0.9302
3191.27	0.9618
3200.64	0.9821
3210.01	0.9925
3219.37	0.996
3228.74	0.998
3238.11	0.998
3247.47	0.998
3256.84	0.9999
3266.21	0.998
3275.57	0.998
3284.94	1
3294.31	0.998
3303.67	0.9965
3313.04	0.9919
3322.41	0.9824
3331.77	0.9688
3341.14	0.9544
3350.51	0.949
3359.87	0.9516
3369.24	0.957
3378.61	0.9375
3387.97	0.9159
3397.34	0.9085
3406.71	0.903
3416.07	0.8995
3425.44	0.9001
3434.81	0.9202
3444.17	0.9482
3453.54	0.9691
3462.91	0.9741
3472.27	0.9786
3481.64	0.9841
3491.01	0.9885
3500.37	0.993
3509.74	0.993
3519.11	0.992
3528.47	0.992
3537.84	0.99
3547.21	0.992
3556.57	0.992
3565.94	0.9926
3575.31	0.993
3584.67	0.9909
3594.04	0.988
3603.41	0.9814
3612.77	0.973
3622.14	0.9623
3631.51	0.9459
3640.87	0.934
3650.24	0.9299
3659.61	0.9244
3668.97	0.92
3678.34	0.916
3687.71	0.913
3697.07	0.913
3706.44	0.9181
3715.81	0.936
3725.17	0.944
3734.54	0.9454
3743.91	0.94
3753.28	0.936
3762.64	0.936
3772.01	0.9406
3781.38	0.9422
3790.74	0.9511
3800.11	0.9491
