Infrared Spectrum: NAPHTHALENE, 1-CHLORO-2-METHYL-
Formula: C11 H9 Cl
CAS: 5859-45-0
State: SOLUTION (10% CCl4 FOR 3800-1330, 10% CS2 FOR 1330-400 CM^-^1)
Boiling point: 151 C AT 10 mmHg
Class: COBLENTZ III
Instrument: DOW KBr FOREPRISM-GRATING
Instrument parameters: BLAZED AT 3.5, 12.0, 20.0 MICRON AND CHANGED AT 5.0, 7.5, 14.9 MICRON
Sampling: TRANSMISSION
Path length: 0.011 CM, 0.011 CM
Resolution: 2
Origin: DOW CHEMICAL COMPANY
1/CM	TRANSMITTANCE
387	0.1894
396	0.2059
405	0.3576
414	0.4975
423	0.7974
432	0.8475
441	0.8809
450	0.9124
459	0.937
468	0.9378
477	0.9195
486	0.9631
495	0.8739
504	0.9764
513	0.9749
522	0.9601
531	0.8812
540	0.2776
549	0.9608
558	0.9617
567	0.9742
576	0.9606
585	1.0027
594	1.0197
603	1.0247
612	0.9939
621	1.0064
630	0.8204
639	0.9725
648	0.9001
657	0.7068
666	1.0196
675	1.0286
684	1.0418
693	0.9984
702	1.0027
711	0.9421
720	0.9538
729	0.9175
738	0.5272
747	0.551
756	0.7892
765	0.5654
774	0.6695
783	0.9321
792	0.9139
801	0.8606
810	0.0012
819	0.7418
828	0.7201
837	0.8552
846	0.844
855	0.7651
864	0.6808
873	0.8528
882	0.9086
891	0.9142
900	0.5898
909	0.9541
918	0.952
927	0.961
936	0.9632
945	0.9066
954	0.7058
963	0.8932
972	0.6883
981	0.6875
990	0.8445
999	0.8523
1008	0.8274
1017	0.6821
1026	0.6492
1035	0.565
1044	0.8771
1053	0.9133
1062	0.8465
1071	0.9403
1080	0.9687
1089	0.9705
1098	0.9752
1107	0.9788
1116	0.9632
1125	0.9339
1134	0.8708
1143	0.6981
1152	0.8561
1161	0.8521
1170	0.8855
1179	0.8901
1188	0.884
1197	0.8478
1206	0.6856
1215	0.6447
1224	0.3509
1233	0.7842
1242	0.7971
1251	0.6854
1260	0.3909
1269	0.81
1278	0.8539
1287	0.9158
1296	0.9089
1305	0.8986
1314	0.91
1323	0.8444
1332	0.4148
1341	0.815
1350	0.4804
1359	0.7878
1368	0.8352
1377	0.8375
1386	0.9175
1395	0.9225
1404	0.927
1413	0.8982
1422	0.8048
1431	0.8119
1440	0.739
1449	0.7641
1458	0.8565
1467	0.8001
1476	0.8632
1485	0.8549
1494	0.7578
1503	0.1795
1512	0.669
1521	0.6682
1530	0.601
1539	0.4925
1548	0.4458
1557	0.3987
1566	0.4716
1575	0.65
1584	0.6503
1593	0.6097
1602	0.7165
1611	0.8735
1620	0.8425
1629	0.8058
1638	0.9427
1647	0.9608
1656	0.9621
1665	0.9508
1674	0.9648
1683	0.95
1692	0.9283
1701	0.9597
1710	0.9483
1719	0.9497
1728	0.946
1737	0.9268
1746	0.9111
1755	0.9628
1764	0.9759
1773	0.9765
1782	0.9789
1791	0.9764
1800	0.9574
1809	0.9523
1818	0.971
1827	0.9496
1836	0.9631
1845	0.9866
1854	0.9912
1863	0.9923
1872	0.9909
1881	0.9751
1890	0.952
1899	0.9168
1908	0.9531
1917	0.9484
1926	0.9635
1935	0.9695
1944	0.9533
1953	0.9682
1962	0.9924
1971	0.9917
1980	0.9903
1989	0.9816
1998	0.985
2007	0.9871
2016	0.989
2025	0.9901
2034	0.9892
2043	0.9883
2052	0.988
2061	0.988
2070	0.9887
2079	0.9887
2088	0.9886
2097	0.9898
2106	0.9906
2115	0.9896
2124	0.9886
2133	0.9882
2142	0.9882
2151	0.9886
2160	0.9889
2169	0.9887
2178	0.9884
2187	0.9878
2196	0.9868
2205	0.9864
2214	0.986
2223	0.9855
2232	0.9848
2241	0.9823
2250	0.9778
2259	0.9734
2268	0.9697
2277	0.9664
2286	0.963
2295	0.963
2304	0.9688
2313	0.9842
2322	1.0028
2331	1.0028
2340	1.0009
2349	0.9983
2358	0.9948
2367	0.9915
2376	0.9884
2385	0.9865
2394	0.9848
2403	0.9836
2412	0.9832
2421	0.9834
2430	0.9836
2439	0.9838
2448	0.9838
2457	0.9839
2466	0.9839
2475	0.9836
2484	0.9834
2493	0.9831
2502	0.9828
2511	0.9827
2520	0.9825
2529	0.9825
2538	0.9824
2547	0.9824
2556	0.9824
2565	0.9825
2574	0.9825
2583	0.9825
2592	0.9827
2601	0.9833
2610	0.9841
2619	0.9846
2628	0.9848
2637	0.985
2646	0.9849
2655	0.9845
2664	0.9837
2673	0.9818
2682	0.9797
2691	0.9773
2700	0.9755
2709	0.9739
2718	0.968
2727	0.9591
2736	0.9658
2745	0.9744
2754	0.9746
2763	0.9742
2772	0.9728
2781	0.9705
2790	0.9671
2799	0.9621
2808	0.9562
2817	0.9503
2826	0.9408
2835	0.9261
2844	0.8971
2853	0.8493
2862	0.8898
2871	0.8912
2880	0.8882
2889	0.8852
2898	0.88
2907	0.8481
2916	0.7868
2925	0.6768
2934	0.7962
2943	0.7919
2952	0.7658
2961	0.7812
2970	0.7874
2979	0.7845
2988	0.8189
2997	0.8435
3006	0.8175
3015	0.795
3024	0.8065
3033	0.8021
3042	0.7487
3051	0.6444
3060	0.4772
3069	0.6688
3078	0.6855
3087	0.8855
3096	0.9147
3105	0.9275
3114	0.9371
3123	0.9462
3132	0.9533
3141	0.956
3150	0.9561
3159	0.956
3168	0.9559
3177	0.9551
3186	0.954
3195	0.953
3204	0.9525
3213	0.9521
3222	0.952
3231	0.9518
3240	0.9518
3249	0.9517
3258	0.9509
3267	0.95
3276	0.9491
3285	0.9481
3294	0.9471
3303	0.9461
3312	0.9451
3321	0.944
3330	0.9428
3339	0.9416
3348	0.9401
3357	0.9382
3366	0.9363
3375	0.9348
3384	0.9334
3393	0.9334
3402	0.9345
3411	0.9363
3420	0.9388
3429	0.9414
3438	0.9441
3447	0.9468
3456	0.9496
3465	0.9525
3474	0.9554
3483	0.9582
3492	0.9609
3501	0.9625
3510	0.9642
3519	0.9657
3528	0.9673
3537	0.9678
3546	0.9678
3555	0.9671
3564	0.965
3573	0.955
3582	0.9633
3591	0.9639
3600	0.9628
3609	0.9639
3618	0.9755
3627	0.9834
3636	0.985
3645	0.9846
3654	0.9837
3663	0.9828
3672	0.9817
3681	0.98
3690	0.9787
3699	0.9803
3708	0.9835
3717	0.9856
3726	0.9863
3735	0.9866
3744	0.9868
3753	0.9868
3762	0.9871
3771	0.9875
3780	0.988
3789	0.9884
3798	0.9887
