Infrared Spectrum: BENZENE, NITROSO-
Formula: C6 H5 N O
CAS: 586-96-9
State: SOLUTION (CCl4 FOR 3800-1330, CS2 FOR 1330-450 CM^-^1)
Class: COBLENTZ III
Instrument: DOW KBr FOREPRISM-GRATING
Instrument parameters: BLAZED AT 3.5, 12.0, 20.0 MICRON AND CHANGED AT 5.0, 7.5, 14.9 MICRON
Sampling: TRANSMISSION
Path length: 0.011 CM, 0.011 CM
Resolution: 2
Origin: DOW CHEMICAL COMPANY
1/CM	TRANSMITTANCE
453	0.7358
462	0.8022
471	0.8478
480	0.8628
489	0.8712
498	0.8751
507	0.8743
516	0.8724
525	0.8818
534	0.8949
543	0.8998
552	0.9028
561	0.904
570	0.908
579	0.9009
588	0.8925
597	0.9033
606	0.8965
615	0.8973
624	0.8865
633	0.8743
642	0.8303
651	0.7765
660	0.6372
669	0.5474
678	0.1189
687	0.6762
696	0.7834
705	0.8195
714	0.8368
723	0.8257
732	0.7765
741	0.6486
750	0.058
759	0.1882
768	0.6912
777	0.7498
786	0.7671
795	0.7698
804	0.6958
813	0.4528
822	0.2174
831	0.7426
840	0.7633
849	0.7247
858	0.6997
867	0.7268
876	0.7686
885	0.82
894	0.8636
903	0.8614
912	0.8271
921	0.7775
930	0.6489
939	0.8397
948	0.8717
957	0.8752
966	0.8728
975	0.8691
984	0.8628
993	0.8459
1002	0.7811
1011	0.796
1020	0.6687
1029	0.8724
1038	0.8764
1047	0.8686
1056	0.8451
1065	0.7096
1074	0.8134
1083	0.7775
1092	0.6711
1101	0.2769
1110	0.0096
1119	0.1448
1128	0.706
1137	0.7461
1146	0.7946
1155	0.7528
1164	0.7504
1173	0.4634
1182	0.7551
1191	0.8517
1200	0.8821
1209	0.8894
1218	0.8944
1227	0.8993
1236	0.8933
1245	0.8782
1254	0.857
1263	0.8121
1272	0.8468
1281	0.7962
1290	0.7189
1299	0.8058
1308	0.7639
1317	0.5329
1326	0.7542
1335	0.8685
1344	0.8389
1353	0.8694
1362	0.9163
1371	0.912
1380	0.9118
1389	0.9046
1398	0.8949
1407	0.8978
1416	0.8885
1425	0.8502
1434	0.7584
1443	0.373
1452	0.3316
1461	0.7347
1470	0.3097
1479	0.7747
1488	0.7147
1497	0.6453
1506	0.2654
1515	0.1715
1524	0.5832
1533	0.5393
1542	0.4699
1551	0.4397
1560	0.5195
1569	0.5858
1578	0.6194
1587	0.6245
1596	0.6564
1605	0.7722
1614	0.8328
1623	0.8717
1632	0.8947
1641	0.9107
1650	0.9087
1659	0.8997
1668	0.8896
1677	0.8774
1686	0.8773
1695	0.8883
1704	0.8898
1713	0.888
1722	0.8877
1731	0.8911
1740	0.8786
1749	0.8477
1758	0.7022
1767	0.7998
1776	0.8715
1785	0.8841
1794	0.8813
1803	0.8658
1812	0.8554
1821	0.8786
1830	0.8801
1839	0.8847
1848	0.8887
1857	0.8891
1866	0.8889
1875	0.8878
1884	0.8807
1893	0.8689
1902	0.861
1911	0.8675
1920	0.8613
1929	0.8784
1938	0.8859
1947	0.8874
1956	0.8928
1965	0.8637
1974	0.8771
1983	0.8736
1992	0.8839
2001	0.886
2010	0.8891
2019	0.896
2028	0.8954
2037	0.8916
2046	0.8921
2055	0.8934
2064	0.8941
2073	0.8948
2082	0.8955
2091	0.8956
2100	0.8957
2109	0.8957
2118	0.8954
2127	0.8952
2136	0.8949
2145	0.8946
2154	0.8944
2163	0.8938
2172	0.8932
2181	0.8925
2190	0.8905
2199	0.8882
2208	0.8845
2217	0.883
2226	0.8873
2235	0.8873
2244	0.8866
2253	0.8842
2262	0.8792
2271	0.8755
2280	0.8734
2289	0.8743
2298	0.8765
2307	0.8638
2316	0.861
2325	0.8707
2334	0.8813
2343	0.8863
2352	0.8864
2361	0.894
2370	0.9146
2379	0.894
2388	0.8939
2397	0.8947
2406	0.8952
2415	0.8955
2424	0.8963
2433	0.8974
2442	0.8978
2451	0.8981
2460	0.8984
2469	0.8983
2478	0.8982
2487	0.898
2496	0.8977
2505	0.8971
2514	0.8968
2523	0.8962
2532	0.8955
2541	0.8947
2550	0.8939
2559	0.8931
2568	0.8925
2577	0.8918
2586	0.8912
2595	0.8903
2604	0.8893
2613	0.8884
2622	0.8875
2631	0.8878
2640	0.8885
2649	0.8891
2658	0.889
2667	0.8874
2676	0.8852
2685	0.881
2694	0.8823
2703	0.8852
2712	0.8891
2721	0.8913
2730	0.8906
2739	0.8889
2748	0.8878
2757	0.8888
2766	0.89
2775	0.8913
2784	0.8923
2793	0.893
2802	0.8936
2811	0.8943
2820	0.895
2829	0.8957
2838	0.8973
2847	0.8955
2856	0.8925
2865	0.889
2874	0.8858
2883	0.8831
2892	0.8817
2901	0.8847
2910	0.8875
2919	0.8831
2928	0.8738
2937	0.8671
2946	0.8771
2955	0.8845
2964	0.8862
2973	0.8866
2982	0.8841
2991	0.8765
3000	0.8678
3009	0.8699
3018	0.8509
3027	0.8383
3036	0.8261
3045	0.8167
3054	0.7721
3063	0.7144
3072	0.825
3081	0.8525
3090	0.869
3099	0.8802
3108	0.8885
3117	0.894
3126	0.8975
3135	0.898
3144	0.8981
3153	0.8975
3162	0.897
3171	0.8966
3180	0.8966
3189	0.8965
3198	0.8981
3207	0.8998
3216	0.9018
3225	0.9039
3234	0.906
3243	0.9078
3252	0.9098
3261	0.9113
3270	0.9116
3279	0.9118
3288	0.912
3297	0.9118
3306	0.9115
3315	0.911
3324	0.9106
3333	0.91
3342	0.9096
3351	0.9092
3360	0.9094
3369	0.9092
3378	0.9089
3387	0.9086
3396	0.9075
3405	0.9056
3414	0.9033
3423	0.901
3432	0.8988
3441	0.8966
3450	0.8952
3459	0.8937
3468	0.8927
3477	0.8925
3486	0.8925
3495	0.8921
3504	0.8917
3513	0.8912
3522	0.8904
3531	0.8895
3540	0.8886
3549	0.8877
3558	0.8868
3567	0.8859
3576	0.8851
3585	0.8842
3594	0.8833
3603	0.8824
3612	0.8812
3621	0.8796
3630	0.8795
3639	0.8798
3648	0.8803
3657	0.8807
3666	0.8798
3675	0.8783
3684	0.8771
3693	0.8767
3702	0.8783
3711	0.8788
3720	0.8794
3729	0.8806
3738	0.8816
3747	0.8818
3756	0.8818
3765	0.8809
3774	0.8802
3783	0.8937
3792	0.8745
