Infrared Spectrum: PYRIDINE, 4-CARBINOL
Formula: C6 H7 N O
CAS: 586-95-8
State: SOLID (MINERAL OIL MULL)
Class: COBLENTZ
Instrument: Not specified, most likely a prism, grating, or hybrid spectrometer.
Sampling: TRANSMISSION
Resolution: 4
Origin: DOW CHEMICAL COMPANY
MICROMETERS	TRANSMITTANCE
2.02	0.572
2.06098	0.576
2.10196	0.581
2.14293	0.591
2.18391	0.598
2.22489	0.602
2.26587	0.605
2.30685	0.614
2.34783	0.629
2.3888	0.641
2.42978	0.653
2.47076	0.674
2.51174	0.689
2.55272	0.698
2.5937	0.718
2.63467	0.732
2.67565	0.751
2.71663	0.759
2.75761	0.77
2.79859	0.763
2.83957	0.737
2.88054	0.692
2.92152	0.643
2.9625	0.591
3.00348	0.524
3.04446	0.439
3.08544	0.372
3.12641	0.322
3.16739	0.295
3.20837	0.291
3.24935	0.298
3.29033	0.3
3.33131	0.284
3.37228	0.142
3.41326	0.068
3.45424	0.118
3.49522	0.156
3.5362	0.329
3.57718	0.404
3.61815	0.413
3.65913	0.413
3.70011	0.432
3.74109	0.466
3.78207	0.487
3.82305	0.516
3.86402	0.538
3.905	0.564
3.94598	0.583
3.98696	0.6
4.02794	0.607
4.06892	0.632
4.10989	0.653
4.15087	0.665
4.19185	0.668
4.23283	0.682
4.27381	0.699
4.31479	0.71
4.35576	0.718
4.39674	0.727
4.43772	0.737
4.4787	0.744
4.51968	0.754
4.56066	0.758
4.60163	0.763
4.64261	0.768
4.68359	0.771
4.72457	0.771
4.76555	0.777
4.80653	0.783
4.8475	0.792
4.88848	0.804
4.92946	0.813
4.97044	0.819
5.01142	0.825
5.0524	0.826
5.09337	0.819
5.13435	0.816
5.17533	0.84
5.21631	0.847
5.25729	0.845
5.29827	0.852
5.33924	0.842
5.38022	0.859
5.4212	0.873
5.46218	0.874
5.50316	0.874
5.54414	0.874
5.58511	0.879
5.62609	0.878
5.66707	0.878
5.70805	0.878
5.74903	0.883
5.79	0.881
5.83098	0.881
5.87196	0.881
5.91294	0.879
5.95392	0.886
5.9949	0.895
6.03587	0.902
6.07685	0.888
6.11783	0.802
6.15881	0.636
6.19979	0.415
6.24077	0.483
6.28174	0.656
6.32272	0.701
6.3637	0.632
6.40468	0.732
6.44566	0.756
6.48664	0.763
6.52761	0.758
6.56859	0.753
6.60957	0.746
6.65055	0.742
6.69153	0.716
6.73251	0.648
6.77348	0.531
6.81446	0.377
6.85544	0.392
6.89642	0.512
6.9374	0.583
6.97838	0.526
7.01935	0.384
7.06033	0.509
7.10131	0.662
7.14229	0.686
7.18327	0.646
7.22425	0.59
7.26522	0.593
7.3062	0.614
7.34718	0.562
7.38816	0.567
7.42914	0.727
7.47012	0.77
7.51109	0.771
7.55207	0.77
7.59305	0.728
7.63403	0.638
7.67501	0.574
7.71599	0.722
7.75696	0.77
7.79794	0.79
7.83892	0.814
7.8799	0.825
7.92088	0.835
7.96186	0.818
8.00283	0.747
8.04381	0.687
8.08479	0.674
8.12577	0.696
8.16675	0.687
8.20773	0.703
8.2487	0.761
8.28968	0.773
8.33066	0.809
8.37164	0.85
8.41262	0.873
8.4536	0.881
8.49457	0.881
8.53555	0.886
8.57653	0.891
8.61751	0.89
8.65849	0.893
8.69947	0.9
8.74044	0.905
8.78142	0.912
8.8224	0.917
8.86338	0.919
8.90436	0.893
8.94534	0.873
8.98631	0.859
9.02729	0.809
9.06827	0.747
9.10925	0.668
9.15023	0.641
9.19121	0.802
9.23218	0.847
9.27316	0.804
9.31414	0.711
9.35512	0.574
9.3961	0.391
9.43707	0.269
9.47805	0.288
9.51903	0.463
9.56001	0.586
9.60099	0.653
9.64197	0.703
9.68294	0.756
9.72392	0.802
9.7649	0.842
9.80588	0.854
9.84686	0.756
9.88784	0.602
9.92881	0.42
9.96979	0.392
10.0108	0.53
10.0517	0.653
10.0927	0.722
10.1337	0.761
10.1747	0.782
10.2157	0.804
10.2566	0.821
10.2976	0.825
10.3386	0.825
10.3796	0.826
10.4206	0.833
10.4615	0.842
10.5025	0.85
10.5435	0.857
10.5845	0.862
10.6254	0.862
10.6664	0.864
10.7074	0.869
10.7484	0.873
10.7894	0.874
10.8303	0.876
10.8713	0.881
10.9123	0.883
10.9533	0.885
10.9943	0.89
11.0352	0.89
11.0762	0.89
11.1172	0.89
11.1582	0.89
11.1991	0.89
11.2401	0.886
11.2811	0.881
11.3221	0.878
11.3631	0.876
11.404	0.886
11.445	0.891
11.486	0.893
11.527	0.893
11.5679	0.893
11.6089	0.886
11.6499	0.881
11.6909	0.874
11.7319	0.864
11.7728	0.854
11.8138	0.843
11.8548	0.833
11.8958	0.823
11.9368	0.807
11.9777	0.775
12.0187	0.744
12.0597	0.708
12.1007	0.682
12.1416	0.68
12.1826	0.687
12.2236	0.682
12.2646	0.65
12.3056	0.614
12.3465	0.584
12.3875	0.538
12.4285	0.493
12.4695	0.5
12.5104	0.53
12.5514	0.56
12.5924	0.59
12.6334	0.627
12.6744	0.663
12.7153	0.684
12.7563	0.696
12.7973	0.704
12.8383	0.713
12.8793	0.72
12.9202	0.723
12.9612	0.728
13.0022	0.73
13.0432	0.73
13.0841	0.725
13.1251	0.718
13.1661	0.711
13.2071	0.704
13.2481	0.699
13.289	0.696
13.33	0.691
13.371	0.687
13.412	0.684
13.4529	0.682
13.4939	0.684
13.5349	0.687
13.5759	0.691
13.6169	0.694
13.6578	0.699
13.6988	0.706
13.7398	0.722
13.7808	0.734
13.8218	0.744
13.8627	0.753
13.9037	0.763
13.9447	0.771
13.9857	0.78
14.0266	0.789
14.0676	0.792
14.1086	0.797
14.1496	0.801
14.1906	0.804
14.2315	0.806
14.2725	0.806
14.3135	0.806
14.3545	0.806
14.3955	0.806
14.4364	0.806
14.4774	0.806
14.5184	0.806
14.5594	0.806
14.6003	0.806
14.6413	0.807
14.6823	0.809
14.7233	0.809
14.7643	0.811
14.8052	0.811
14.8462	0.804
14.8872	0.795
14.9282	0.792
14.9691	0.799
15.0101	0.802
15.0511	0.795
15.0921	0.79
15.1331	0.789
15.174	0.787
15.215	0.787
15.256	0.785
15.297	0.783
15.338	0.782
15.3789	0.78
15.4199	0.775
15.4609	0.773
15.5019	0.77
15.5428	0.766
15.5838	0.766
15.6248	0.763
15.6658	0.763
15.7068	0.763
15.7477	0.761
15.7887	0.759
15.8297	0.756
15.8707	0.756
