Infrared Spectrum: Dodecadiene, 1,11-
Formula: C12 H22
CAS: 5876-87-9
State: LIQUID (NEAT)
Class: COBLENTZ III
Instrument: BECKMAN IR-12 (GRATING)
Instrument parameters: GRATING
Sampling: TRANSMISSION
Path length: 0.01036 CM
Resolution: 2
Origin: COLGATE-PALMOLIVE COMPANY (KELLENBACH)
1/CM	TRANSMITTANCE
404	0.7105
413	0.7522
422	0.7818
431	0.7972
440	0.8031
449	0.8229
458	0.8486
467	0.882
476	0.9065
485	0.9203
494	0.9256
503	0.9211
512	0.9108
521	0.9001
530	0.8915
539	0.8377
548	0.5698
557	0.4738
566	0.6924
575	0.7844
584	0.8305
593	0.8333
602	0.7863
611	0.6647
620	0.3799
629	0.1262
638	0.1138
647	0.2641
656	0.4623
665	0.6247
674	0.7586
683	0.8118
692	0.8392
701	0.7782
710	0.5556
719	0.1649
728	0.3013
737	0.5129
746	0.6391
755	0.6894
764	0.6919
773	0.7473
782	0.7882
791	0.8133
800	0.7832
809	0.7409
818	0.7539
827	0.7418
836	0.7081
845	0.6379
854	0.5685
863	0.5567
872	0.4795
881	0.335
890	0.1213
899	0.0132
908	0.0002
917	0.0001
926	0.1348
935	0.2944
944	0.381
953	0.4241
962	0.4113
971	0.2278
980	0.0353
989	0.0065
998	0.0076
1007	0.1721
1016	0.3204
1025	0.4052
1034	0.4575
1043	0.5011
1052	0.541
1061	0.5757
1070	0.6017
1079	0.6287
1088	0.6565
1097	0.6787
1106	0.6989
1115	0.7193
1124	0.7254
1133	0.7284
1142	0.7481
1151	0.7673
1160	0.7654
1169	0.7493
1178	0.7474
1187	0.7471
1196	0.7578
1205	0.7641
1214	0.7333
1223	0.7366
1232	0.7284
1241	0.7439
1250	0.6871
1259	0.6442
1268	0.6346
1277	0.5804
1286	0.5071
1295	0.4425
1304	0.4759
1313	0.5529
1322	0.5352
1331	0.5999
1340	0.4188
1349	0.3653
1358	0.4494
1367	0.4004
1376	0.628
1385	0.6773
1394	0.663
1403	0.4113
1412	0.0894
1421	0.211
1430	0.0529
1439	0.0159
1448	0.028
1457	0.0183
1466	0.1242
1475	0.5359
1484	0.7126
1493	0.7639
1502	0.7967
1511	0.829
1520	0.8355
1529	0.8178
1538	0.7943
1547	0.7941
1556	0.8105
1565	0.8596
1574	0.8785
1583	0.8874
1592	0.8682
1601	0.8028
1610	0.6466
1619	0.5646
1628	0.2487
1637	0.0151
1646	0.3609
1655	0.6718
1664	0.7944
1673	0.8335
1682	0.8664
1691	0.8928
1700	0.9121
1709	0.9248
1718	0.9349
1727	0.9416
1736	0.9476
1745	0.9519
1754	0.9539
1763	0.9534
1772	0.9483
1781	0.9367
1790	0.912
1799	0.7892
1808	0.5558
1817	0.3452
1826	0.4952
1835	0.7106
1844	0.8412
1853	0.8948
1862	0.9268
1871	0.9444
1880	0.9427
1889	0.933
1898	0.9382
1907	0.9541
1916	0.9647
1925	0.9674
1934	0.9673
1943	0.9648
1952	0.9544
1961	0.919
1970	0.8725
1979	0.8634
1988	0.8937
1997	0.9349
2006	0.9406
2015	0.9402
2024	0.939
2033	0.9379
2042	0.9403
2051	0.944
2060	0.9484
2069	0.9526
2078	0.9569
2087	0.9612
2096	0.9654
2105	0.9676
2114	0.9687
2123	0.9675
2132	0.9645
2141	0.9608
2150	0.9561
2159	0.9534
2168	0.9518
2177	0.9512
2186	0.9507
2195	0.9502
2204	0.9501
2213	0.9501
2222	0.95
2231	0.95
2240	0.9499
2249	0.9412
2258	0.9297
2267	0.921
2276	0.919
2285	0.9202
2294	0.9234
2303	0.9259
2312	0.927
2321	0.9269
2330	0.9224
2339	0.9245
2348	0.9252
2357	0.927
2366	0.9391
2375	0.9501
2384	0.9557
2393	0.9552
2402	0.954
2411	0.9521
2420	0.9515
2429	0.9507
2438	0.9486
2447	0.9463
2456	0.9428
2465	0.9378
2474	0.9322
2483	0.9265
2492	0.9187
2501	0.9105
2510	0.9022
2519	0.8941
2528	0.886
2537	0.8795
2546	0.8771
2555	0.8721
2564	0.8626
2573	0.8511
2582	0.8387
2591	0.8257
2600	0.8127
2609	0.7977
2618	0.7828
2627	0.7678
2636	0.7531
2645	0.736
2654	0.7123
2663	0.6763
2672	0.6363
2681	0.6674
2690	0.7085
2699	0.7285
2708	0.7298
2717	0.725
2726	0.7103
2735	0.6954
2744	0.6804
2753	0.6601
2762	0.6326
2771	0.5679
2780	0.4873
2789	0.4573
2798	0.307
2807	0.1478
2816	0.0747
2825	0.0244
2834	0.0044
2843	0.0017
2852	0.0021
2861	0.0052
2870	0.0058
2879	0.0039
2888	0.0008
2897	0.0006
2906	0.0004
2915	0.0002
2924	0.0021
2933	0.0051
2942	0.0012
2951	0.0052
2960	0.0166
2969	0.0113
2978	0.0147
2987	0.0225
2996	0.0211
3005	0.1572
3014	0.2955
3023	0.372
3032	0.3341
3041	0.2201
3050	0.1062
3059	0.0328
3068	0.009
3077	0.0657
3086	0.3824
3095	0.6338
3104	0.7043
3113	0.7521
3122	0.8018
3131	0.8341
3140	0.8527
3149	0.8679
3158	0.883
3167	0.8984
3176	0.9123
3185	0.9243
3194	0.9332
3203	0.9419
3212	0.9482
3221	0.9528
3230	0.9575
3239	0.9599
3248	0.9607
3257	0.9529
3266	0.9474
3275	0.9525
3284	0.9721
3293	0.976
3302	0.9766
3311	0.9766
3320	0.9764
3329	0.9761
3338	0.9746
3347	0.973
3356	0.9725
3365	0.9724
3374	0.9734
3383	0.9741
3392	0.9741
3401	0.9742
3410	0.9736
3419	0.9721
3428	0.9714
3437	0.9717
3446	0.9728
3455	0.9739
3464	0.9751
3473	0.9741
3482	0.9736
3491	0.9758
3500	0.9774
3509	0.9772
3518	0.9758
3527	0.9759
3536	0.9784
3545	0.9809
3554	0.9812
3563	0.9809
3572	0.9799
3581	0.9789
3590	0.9739
3599	0.9646
3608	0.9591
3617	0.956
3626	0.9546
3635	0.955
3644	0.9565
3653	0.9578
3662	0.9603
3671	0.9637
3680	0.964
3689	0.9626
3698	0.9607
3707	0.9586
3716	0.9577
3725	0.9579
3734	0.958
3743	0.9564
3752	0.9549
3761	0.9532
3770	0.9534
3779	0.9547
3788	0.9555
3797	0.9527
3806	0.95
3815	0.9474
3824	0.9449
3833	0.9423
3842	0.9396
3851	0.9369
3860	0.9341
3869	0.9313
3878	0.9286
3887	0.9258
3896	0.9231
3905	0.9203
3914	0.9176
3923	0.9153
3932	0.9132
3941	0.9114
3950	0.9089
3959	0.9059
3968	0.9036
