Infrared Spectrum: P-ETHYL ANILINE
Formula: C8 H11 N
CAS: 589-16-2
State: SOLUTION (10% CCl4 FOR 2.5-7.5, 10% CS2 FOR 7.5-16 MICRON)
Class: COBLENTZ
Instrument: Not specified, most likely a prism, grating, or hybrid spectrometer.
Sampling: TRANSMISSION
Path length: 0.01 CM, 0.01 CM
Resolution: 4
Origin: DOW CHEMICAL COMPANY
MICROMETERS	TRANSMITTANCE
2.043	0.856
2.08316	0.858
2.12332	0.846
2.16348	0.851
2.20364	0.858
2.2438	0.846
2.28396	0.838
2.32412	0.846
2.36428	0.85
2.40443	0.843
2.44459	0.826
2.48475	0.838
2.52491	0.84
2.56507	0.843
2.60523	0.848
2.64539	0.85
2.68555	0.818
2.72571	0.801
2.76587	0.765
2.80603	0.705
2.84619	0.595
2.88635	0.452
2.92651	0.479
2.96667	0.492
3.00683	0.655
3.04699	0.695
3.08714	0.683
3.1273	0.727
3.16746	0.752
3.20762	0.738
3.24778	0.667
3.28794	0.51
3.3281	0.4
3.36826	0.226
3.40842	0.349
3.44858	0.465
3.48874	0.569
3.5289	0.816
3.56906	0.835
3.60922	0.841
3.64938	0.855
3.68954	0.861
3.72969	0.863
3.76985	0.861
3.81001	0.871
3.85017	0.88
3.89033	0.875
3.93049	0.875
3.97065	0.885
4.01081	0.886
4.05097	0.88
4.09113	0.89
4.13129	0.895
4.17145	0.885
4.21161	0.863
4.25177	0.863
4.29193	0.868
4.33209	0.876
4.37225	0.883
4.4124	0.883
4.45256	0.883
4.49272	0.883
4.53288	0.891
4.57304	0.893
4.6132	0.886
4.65336	0.89
4.69352	0.883
4.73368	0.875
4.77384	0.88
4.814	0.883
4.85416	0.888
4.89432	0.876
4.93448	0.876
4.97464	0.878
5.0148	0.883
5.05496	0.881
5.09511	0.88
5.13527	0.88
5.17543	0.873
5.21559	0.865
5.25575	0.843
5.29591	0.77
5.33607	0.788
5.37623	0.848
5.41639	0.871
5.45655	0.876
5.49671	0.875
5.53687	0.87
5.57703	0.871
5.61719	0.848
5.65735	0.831
5.69751	0.833
5.73766	0.845
5.77782	0.851
5.81798	0.835
5.85814	0.816
5.8983	0.798
5.93846	0.752
5.97862	0.698
6.01878	0.597
6.05894	0.422
6.0991	0.186
6.13926	0.058
6.17942	0.189
6.21958	0.42
6.25974	0.459
6.2999	0.472
6.34006	0.48
6.38022	0.432
6.42037	0.391
6.46053	0.386
6.50069	0.356
6.54085	0.212
6.58101	0.083
6.62117	0.497
6.66133	0.667
6.70149	0.71
6.74165	0.647
6.78181	0.552
6.82197	0.47
6.86213	0.545
6.90229	0.625
6.94245	0.708
6.98261	0.75
7.02277	0.777
7.06293	0.79
7.10308	0.792
7.14324	0.787
7.1834	0.748
7.22356	0.698
7.26372	0.757
7.30388	0.76
7.34404	0.752
7.3842	0.735
7.42436	0.71
7.46452	0.697
7.50468	0.667
7.54484	0.64
7.585	0.597
7.62516	0.57
7.66532	0.584
7.70548	0.527
7.74563	0.392
7.78579	0.168
7.82595	0.068
7.86611	0.247
7.90627	0.485
7.94643	0.618
7.98659	0.675
8.02675	0.733
8.06691	0.772
8.10707	0.79
8.14723	0.803
8.18739	0.805
8.22755	0.813
8.26771	0.811
8.30787	0.801
8.34803	0.785
8.38819	0.653
8.42834	0.464
8.4685	0.685
8.50866	0.815
8.54882	0.787
8.58898	0.806
8.62914	0.805
8.6693	0.801
8.70946	0.787
8.74962	0.753
8.78978	0.66
8.82994	0.545
8.8701	0.507
8.91026	0.662
8.95042	0.722
8.99058	0.748
9.03074	0.763
9.0709	0.77
9.11105	0.775
9.15121	0.78
9.19137	0.777
9.23153	0.778
9.27169	0.783
9.31185	0.765
9.35201	0.723
9.39217	0.698
9.43233	0.735
9.47249	0.75
9.51265	0.75
9.55281	0.737
9.59297	0.73
9.63313	0.77
9.67329	0.805
9.71345	0.816
9.7536	0.818
9.79376	0.813
9.83392	0.835
9.87408	0.838
9.91424	0.845
9.9544	0.843
9.99456	0.841
10.0347	0.841
10.0749	0.841
10.115	0.838
10.1552	0.83
10.1954	0.82
10.2355	0.805
10.2757	0.788
10.3158	0.78
10.356	0.798
10.3962	0.815
10.4363	0.816
10.4765	0.811
10.5166	0.81
10.5568	0.801
10.597	0.8
10.6371	0.798
10.6773	0.79
10.7174	0.783
10.7576	0.773
10.7977	0.777
10.8379	0.782
10.8781	0.78
10.9182	0.78
10.9584	0.777
10.9985	0.772
11.0387	0.767
11.0789	0.758
11.119	0.752
11.1592	0.74
11.1993	0.727
11.2395	0.705
11.2797	0.688
11.3198	0.672
11.36	0.652
11.4001	0.632
11.4403	0.612
11.4805	0.595
11.5206	0.572
11.5608	0.552
11.6009	0.532
11.6411	0.514
11.6813	0.499
11.7214	0.482
11.7616	0.465
11.8017	0.437
11.8419	0.402
11.8821	0.361
11.9222	0.304
11.9624	0.236
12.0025	0.183
12.0427	0.104
12.0829	0.039
12.123	0.011
12.1632	0.011
12.2033	0.043
12.2435	0.104
12.2836	0.227
12.3238	0.307
12.364	0.386
12.4041	0.449
12.4443	0.49
12.4844	0.514
12.5246	0.529
12.5648	0.54
12.6049	0.545
12.6451	0.547
12.6852	0.547
12.7254	0.547
12.7656	0.55
12.8057	0.554
12.8459	0.562
12.886	0.567
12.9262	0.575
12.9664	0.58
13.0065	0.589
13.0467	0.594
13.0868	0.599
13.127	0.603
13.1672	0.603
13.2073	0.603
13.2475	0.6
13.2876	0.597
13.3278	0.594
13.368	0.587
13.4081	0.584
13.4483	0.579
13.4884	0.575
13.5286	0.57
13.5687	0.565
13.6089	0.554
13.6491	0.544
13.6892	0.534
13.7294	0.532
13.7695	0.53
13.8097	0.529
13.8499	0.529
13.89	0.527
13.9302	0.524
13.9703	0.517
14.0105	0.51
14.0507	0.499
14.0908	0.489
14.131	0.48
14.1711	0.472
14.2113	0.465
14.2515	0.455
14.2916	0.45
14.3318	0.44
14.3719	0.434
14.4121	0.429
14.4523	0.419
14.4924	0.414
14.5326	0.407
14.5727	0.4
14.6129	0.391
14.6531	0.382
14.6932	0.377
14.7334	0.364
14.7735	0.359
14.8137	0.351
14.8538	0.342
14.894	0.336
14.9342	0.327
14.9743	0.326
15.0145	0.316
15.0546	0.304
15.0948	0.299
15.135	0.286
15.1751	0.279
15.2153	0.272
15.2554	0.264
15.2956	0.259
15.3358	0.252
15.3759	0.251
15.4161	0.242
15.4562	0.241
15.4964	0.234
15.5366	0.231
15.5767	0.224
15.6169	0.221
15.657	0.221
15.6972	0.214
15.7374	0.211
15.7775	0.206
15.8177	0.206
15.8578	0.204
