Infrared Spectrum: PYRROLE, 1-n-BUTYL-
Formula: C8 H13 N
CAS: 589-33-3
State: SOLUTION (10% CCl4 FOR 3800-1335, 10% CS2 FOR 1335-400 CM^-^1)
Class: COBLENTZ III
Instrument: DOW KBr FOREPRISM-GRATING
Instrument parameters: BLAZED AT 3.5, 12.0, 20.0 MICRON AND CHANGED AT 5.0, 7.5, 14.9 MICRON
Sampling: TRANSMISSION
Path length: 0.011 CM, 0.010 CM
Resolution: 2
Origin: DOW CHEMICAL COMPANY
1/CM	TRANSMITTANCE
380	0.1405
389	0.1459
398	0.1875
407	0.4849
416	0.6653
425	0.7121
434	0.7367
443	0.7493
452	0.7551
461	0.7553
470	0.7539
479	0.7514
488	0.7488
497	0.741
506	0.7581
515	0.7749
524	0.79
533	0.7984
542	0.8007
551	0.8004
560	0.7983
569	0.7994
578	0.8001
587	0.8221
596	0.7694
605	0.5512
614	0.2713
623	0.6951
632	0.7447
641	0.6961
650	0.6226
659	0.7345
668	0.7668
677	0.7576
686	0.7105
695	0.6336
704	0.4453
713	0.0453
722	0
731	0.2841
740	0.5301
749	0.5743
758	0.6797
767	0.77
776	0.801
785	0.7951
794	0.8115
803	0.781
812	0.7061
821	0.8199
830	0.8496
839	0.8425
848	0.7846
857	0.7375
866	0.7619
875	0.7721
884	0.8428
893	0.8828
902	0.8845
911	0.9035
920	0.903
929	0.8934
938	0.8587
947	0.8488
956	0.7412
965	0.6453
974	0.748
983	0.8368
992	0.8208
1001	0.8268
1010	0.8019
1019	0.8427
1028	0.8295
1037	0.7856
1046	0.6818
1055	0.522
1064	0.2238
1073	0.6547
1082	0.4481
1091	0.0197
1100	0.7049
1109	0.6767
1118	0.683
1127	0.7851
1136	0.8192
1145	0.8331
1154	0.8386
1163	0.8393
1172	0.836
1181	0.8271
1190	0.8169
1199	0.8132
1208	0.8139
1217	0.8156
1226	0.7543
1235	0.7587
1244	0.6932
1253	0.7089
1262	0.6033
1271	0.4703
1280	0.2418
1289	0.2752
1298	0.5303
1307	0.534
1316	0.671
1325	0.7069
1334	0.6518
1343	0.6346
1352	0.5799
1361	0.4962
1370	0.4032
1379	0.5047
1388	0.6265
1397	0.621
1406	0.5757
1415	0.596
1424	0.6584
1433	0.6445
1442	0.4221
1451	0.3959
1460	0.3115
1469	0.2734
1478	0.6171
1487	0.6053
1496	0.4127
1505	0.0241
1514	0.4376
1523	0.4855
1532	0.3847
1541	0.3204
1550	0.3053
1559	0.4362
1568	0.5354
1577	0.5796
1586	0.6129
1595	0.6526
1604	0.731
1613	0.7768
1622	0.8051
1631	0.8254
1640	0.8365
1649	0.8353
1658	0.8083
1667	0.7488
1676	0.7371
1685	0.7647
1694	0.7551
1703	0.7175
1712	0.6732
1721	0.7838
1730	0.8191
1739	0.8393
1748	0.8488
1757	0.8525
1766	0.8543
1775	0.8559
1784	0.857
1793	0.8581
1802	0.859
1811	0.859
1820	0.8589
1829	0.858
1838	0.8575
1847	0.8577
1856	0.8588
1865	0.8605
1874	0.8621
1883	0.8628
1892	0.8621
1901	0.8613
1910	0.8603
1919	0.8605
1928	0.8608
1937	0.8614
1946	0.8796
1955	0.8842
1964	0.8644
1973	0.8628
1982	0.8625
1991	0.8606
2000	0.8487
2009	0.8471
2018	0.8474
2027	0.848
2036	0.8488
2045	0.8497
2054	0.8507
2063	0.8462
2072	0.8556
2081	0.8574
2090	0.8574
2099	0.8565
2108	0.8552
2117	0.8537
2126	0.8518
2135	0.8496
2144	0.8453
2153	0.8488
2162	0.8534
2171	0.8535
2180	0.8487
2189	0.8455
2198	0.8399
2207	0.8454
2216	0.8498
2225	0.8496
2234	0.8466
2243	0.8399
2252	0.8361
2261	0.8354
2270	0.836
2279	0.8371
2288	0.8382
2297	0.8378
2306	0.8362
2315	0.8344
2324	0.8333
2333	0.8359
2342	0.8387
2351	0.8362
2360	0.8385
2369	0.8455
2378	0.8473
2387	0.8485
2396	0.8496
2405	0.8506
2414	0.8515
2423	0.8521
2432	0.8512
2441	0.8495
2450	0.8456
2459	0.8411
2468	0.8434
2477	0.8471
2486	0.8496
2495	0.85
2504	0.849
2513	0.8518
2522	0.8537
2531	0.854
2540	0.8515
2549	0.8477
2558	0.843
2567	0.8382
2576	0.8375
2585	0.8392
2594	0.8415
2603	0.8442
2612	0.8478
2621	0.8514
2630	0.8501
2639	0.8461
2648	0.8412
2657	0.8363
2666	0.8318
2675	0.8275
2684	0.8249
2693	0.8252
2702	0.8271
2711	0.8299
2720	0.8232
2729	0.8133
2738	0.8167
2747	0.8212
2756	0.8214
2765	0.8083
2774	0.791
2783	0.7706
2792	0.7628
2801	0.7728
2810	0.7708
2819	0.7587
2828	0.7253
2837	0.6676
2846	0.5709
2855	0.4257
2864	0.2262
2873	0.1611
2882	0.4326
2891	0.4482
2900	0.3534
2909	0.3362
2918	0.1809
2927	0.0753
2936	0.0874
2945	0.139
2954	0.069
2963	0.0399
2972	0.2245
2981	0.5154
2990	0.6091
2999	0.7008
3008	0.783
3017	0.8047
3026	0.8211
3035	0.8309
3044	0.8374
3053	0.8407
3062	0.8414
3071	0.8402
3080	0.8341
3089	0.8021
3098	0.756
3107	0.6978
3116	0.7589
3125	0.781
3134	0.8401
3143	0.8574
3152	0.8604
3161	0.8621
3170	0.8637
3179	0.8667
3188	0.8693
3197	0.8712
3206	0.8724
3215	0.8731
3224	0.8742
3233	0.8754
3242	0.8768
3251	0.8781
3260	0.8795
3269	0.8808
3278	0.8824
3287	0.8839
3296	0.8853
3305	0.8865
3314	0.8874
3323	0.888
3332	0.8885
3341	0.8884
3350	0.8883
3359	0.8877
3368	0.8865
3377	0.8832
3386	0.8798
3395	0.8761
3404	0.8727
3413	0.8748
3422	0.8768
3431	0.8785
3440	0.8793
3449	0.879
3458	0.8771
3467	0.8735
3476	0.8673
3485	0.8573
3494	0.8498
3503	0.8786
3512	0.8821
3521	0.8818
3530	0.8804
3539	0.8791
3548	0.8782
3557	0.8775
3566	0.8771
3575	0.8767
3584	0.8771
3593	0.8789
3602	0.8765
3611	0.8755
3620	0.8747
3629	0.874
3638	0.8733
3647	0.8725
3656	0.8718
3665	0.8712
3674	0.8704
3683	0.8696
3692	0.869
3701	0.8686
3710	0.8683
3719	0.8678
3728	0.8675
3737	0.8675
3746	0.8677
3755	0.8678
3764	0.8685
3773	0.8694
3782	0.8704
3791	0.8713
3800	0.8721
