Infrared Spectrum: BENZENE, 1-BROMO-4-IODO-
Formula: C6 H4 Br I
CAS: 589-87-7
State: SOLUTION (10% IN CCl4 FOR 3800-1330 AND 10% IN CS2 FOR 1330-400 CM^-^1)
Class: COBLENTZ III
Instrument: BECKMAN IR-9 (GRATING)
Instrument parameters: ORDER CHANGES AT 670, 1200, 2000 CM^-^1
Sampling: TRANSMISSION
Path length: 0.011, 0.011 CM
Resolution: 4
Origin: DOW CHEMICAL COMPANY
1/CM	TRANSMITTANCE
411.304	0.439
420	0.534
428.695	0.666
437.391	0.722
446.087	0.761
454.782	0.78
463.478	0.729
472.174	0.4579
480.869	0.827
489.565	0.869
498.261	0.885
506.956	0.904
515.652	0.915
524.348	0.923
533.043	0.931
541.739	0.936
550.435	0.934
559.13	0.938
567.826	0.941
576.522	0.94
585.217	0.94
593.913	0.941
602.609	0.941
611.304	0.942
620	0.942
628.696	0.938
637.391	0.933
646.087	0.918
654.783	0.897
663.478	0.914
672.174	0.938
680.87	0.9
689.565	0.902
698.261	0.9
706.957	0.915
715.652	0.923
724.348	0.926
733.044	0.936
741.739	0.945
750.435	0.948
759.131	0.948
767.826	0.946
776.522	0.944
785.218	0.931
793.913	0.881
802.609	0.191
811.305	0.5081
820	0.819
828.696	0.911
837.392	0.918
846.087	0.863
854.783	0.787
863.479	0.797
872.174	0.839
880.87	0.873
889.566	0.918
898.261	0.946
906.957	0.959
915.653	0.961
924.348	0.963
933.044	0.959
941.74	0.949
950.435	0.956
959.131	0.946
967.827	0.956
976.522	0.956
985.218	0.937
993.914	0.48
1002.61	0.1491
1011.31	0.887
1020	0.94
1028.7	0.948
1037.39	0.956
1046.09	0.955
1054.78	0.896
1063.48	0.6459
1072.17	0.3572
1080.87	0.88
1089.57	0.931
1098.26	0.7979
1106.96	0.902
1115.65	0.964
1124.35	0.978
1133.04	0.98
1141.74	0.978
1150.44	0.976
1159.13	0.96
1167.83	0.961
1176.52	0.945
1185.22	0.955
1193.91	0.963
1202.61	0.964
1211.31	0.955
1220	0.931
1228.7	0.957
1237.39	0.961
1246.09	0.96
1254.78	0.926
1263.48	0.961
1272.18	0.968
1280.87	0.961
1289.57	0.949
1298.26	0.955
1306.96	0.957
1315.65	0.959
1324.35	0.956
1333.04	0.948
1341.74	0.933
1350.44	0.944
1359.13	0.938
1367.83	0.915
1376.52	0.8119
1385.22	0.7592
1393.91	0.925
1402.61	0.906
1411.31	0.906
1420	0.942
1428.7	0.953
1437.39	0.952
1446.09	0.93
1454.78	0.602
1463.48	0.6869
1472.18	0.133
1480.87	0.7681
1489.57	0.858
1498.26	0.831
1506.96	0.805
1515.65	0.746
1524.35	0.706
1533.05	0.639
1541.74	0.537
1550.44	0.484
1559.13	0.507
1567.83	0.604
1576.52	0.65
1585.22	0.668
1593.91	0.73
1602.61	0.827
1611.31	0.874
1620	0.887
1628.7	0.882
1637.39	0.917
1646.09	0.938
1654.78	0.942
1663.48	0.949
1672.18	0.956
1680.87	0.956
1689.57	0.956
1698.26	0.957
1706.96	0.957
1715.65	0.957
1724.35	0.956
1733.05	0.956
1741.74	0.955
1750.44	0.957
1759.13	0.96
1767.83	0.953
1776.52	0.941
1785.22	0.96
1793.92	0.963
1802.61	0.96
1811.31	0.961
1820	0.956
1828.7	0.96
1837.39	0.956
1846.09	0.956
1854.79	0.956
1863.48	0.956
1872.18	0.953
1880.87	0.945
1889.57	0.862
1898.26	0.934
1906.96	0.956
1915.65	0.959
1924.35	0.961
1933.05	0.961
1941.74	0.957
1950.44	0.96
1959.13	0.96
1967.83	0.96
1976.52	0.96
1985.22	0.96
1993.92	0.957
2002.61	0.9585
2011.31	0.9466
2020	0.9496
2028.7	0.955
2037.39	0.953
2046.09	0.955
2054.79	0.9521
2063.48	0.9527
2072.18	0.957
2080.87	0.9566
2089.57	0.957
2098.26	0.9578
2106.96	0.957
2115.66	0.956
2124.35	0.957
2133.05	0.959
2141.74	0.959
2150.44	0.9567
2159.13	0.959
2167.83	0.957
2176.52	0.957
2185.22	0.9567
2193.92	0.957
2202.61	0.9582
2211.31	0.956
2220	0.957
2228.7	0.957
2237.39	0.956
2246.09	0.9528
2254.79	0.949
2263.48	0.946
2272.18	0.9436
2280.87	0.9397
2289.57	0.9119
2298.26	0.9332
2306.96	0.936
2315.66	0.94
2324.35	0.9423
2333.05	0.9451
2341.74	0.948
2350.44	0.948
2359.13	0.951
2367.83	0.955
2376.53	0.955
2385.22	0.9589
2393.92	0.9549
2402.61	0.948
2411.31	0.957
2420	0.957
2428.7	0.957
2437.39	0.956
2446.09	0.959
2454.79	0.957
2463.48	0.956
2472.18	0.9589
2480.87	0.957
2489.57	0.959
2498.26	0.957
2506.96	0.957
2515.66	0.956
2524.35	0.9551
2533.05	0.952
2541.74	0.955
2550.44	0.9521
2559.13	0.9344
2567.83	0.9465
2576.53	0.956
2585.22	0.9547
2593.92	0.956
2602.61	0.9552
2611.31	0.953
2620	0.953
2628.7	0.9522
2637.4	0.949
2646.09	0.955
2654.79	0.953
2663.48	0.9535
2672.18	0.9545
2680.87	0.953
2689.57	0.955
2698.26	0.955
2706.96	0.955
2715.66	0.955
2724.35	0.955
2733.05	0.9544
2741.74	0.955
2750.44	0.9537
2759.13	0.953
2767.83	0.9467
2776.53	0.9515
2785.22	0.952
2793.92	0.9522
2802.61	0.9496
2811.31	0.935
2820	0.9444
2828.7	0.953
2837.4	0.953
2846.09	0.953
2854.79	0.9469
2863.48	0.9471
2872.18	0.9506
2880.87	0.953
2889.57	0.953
2898.27	0.952
2906.96	0.951
2915.66	0.948
2924.35	0.944
2933.05	0.9431
2941.74	0.944
2950.44	0.946
2959.13	0.946
2967.83	0.9498
2976.53	0.951
2985.22	0.951
2993.92	0.949
3002.61	0.9472
3011.31	0.9446
3020	0.944
3028.7	0.944
3037.4	0.945
3046.09	0.9447
3054.79	0.941
3063.48	0.931
3072.18	0.93
3080.87	0.93
3089.57	0.9316
3098.27	0.9338
3106.96	0.9363
3115.66	0.937
3124.35	0.94
3133.05	0.9408
3141.74	0.941
3150.44	0.9412
3159.14	0.944
3167.83	0.944
3176.53	0.945
3185.22	0.944
3193.92	0.944
3202.61	0.9458
3211.31	0.945
3220	0.945
3228.7	0.946
3237.4	0.946
3246.09	0.945
3254.79	0.945
3263.48	0.945
3272.18	0.945
3280.87	0.9441
3289.57	0.944
3298.27	0.9439
3306.96	0.942
3315.66	0.944
3324.35	0.942
3333.05	0.942
3341.74	0.942
3350.44	0.942
3359.14	0.942
3367.83	0.941
3376.53	0.941
3385.22	0.9421
3393.92	0.941
3402.61	0.94
3411.31	0.9419
3420.01	0.942
3428.7	0.941
3437.4	0.941
3446.09	0.942
3454.79	0.942
3463.48	0.942
3472.18	0.9436
3480.88	0.9437
3489.57	0.942
3498.27	0.942
3506.96	0.944
3515.66	0.945
3524.35	0.945
3533.05	0.945
3541.74	0.944
3550.44	0.9458
3559.14	0.946
3567.83	0.946
3576.53	0.946
3585.22	0.948
3593.92	0.948
3602.61	0.949
3611.31	0.949
3620.01	0.949
3628.7	0.951
3637.4	0.951
3646.09	0.9497
3654.79	0.949
3663.48	0.9517
3672.18	0.955
3680.88	0.953
3689.57	0.952
3698.27	0.949
3706.96	0.944
3715.66	0.945
3724.35	0.948
3733.05	0.9526
3741.75	0.955
3750.44	0.9539
3759.14	0.952
3767.83	0.951
3776.53	0.948
3785.22	0.942
