Infrared Spectrum: HEPTANE, 3-METHYL-
Formula: C8 H18
CAS: 589-81-1
State: GAS (13 mmHg, N2 ADDED, TOTAL PRESSURE 600 mmHg)
Class: COBLENTZ
Instrument: BECKMAN IR-9 (GRATING)
Instrument parameters: ORDER CHANGES: 670, 1200, 2000 CM^-^1
Sampling: TRANSMISSION
Path length: 10 CM
Resolution: 2
Origin: DOW CHEMICAL COMPANY
1/CM	TRANSMITTANCE
202.824	0.003
212.706	0.001
222.589	0.001
232.471	0.001
242.353	0.001
252.236	0.003
262.118	0.007
272.001	0.005
281.883	0.011
291.765	0.011
301.648	0.007
311.53	0.018
321.412	0.037
331.295	0.056
341.177	0.076
351.06	0.127
360.942	0.196
370.824	0.2749
380.707	0.348
390.589	0.414
400.471	0.482
410.354	0.557
420.236	0.621
430.119	0.682
440.001	0.718
449.883	0.759
459.766	0.787
469.648	0.808
479.53	0.829
489.413	0.842
499.295	0.853
509.178	0.859
519.06	0.879
528.942	0.881
538.825	0.866
548.707	0.878
558.589	0.893
568.472	0.889
578.354	0.883
588.237	0.881
598.119	0.879
608.001	0.868
617.884	0.863
627.766	0.868
637.648	0.885
647.531	0.898
657.413	0.915
667.296	0.9209
677.178	0.919
687.06	0.921
696.943	0.926
706.825	0.919
716.707	0.902
726.59	0.881
736.472	0.879
746.355	0.898
756.237	0.902
766.119	0.885
776.002	0.874
785.884	0.879
795.766	0.904
805.649	0.917
815.531	0.919
825.414	0.921
835.296	0.928
845.178	0.93
855.061	0.921
864.943	0.9
874.825	0.844
884.708	0.726
894.59	0.756
904.472	0.859
914.355	0.881
924.237	0.902
934.12	0.909
944.002	0.915
953.884	0.908
963.767	0.868
973.649	0.857
983.531	0.879
993.414	0.879
1003.3	0.864
1013.18	0.87
1023.06	0.87
1032.94	0.874
1042.83	0.879
1052.71	0.883
1062.59	0.889
1072.47	0.879
1082.36	0.859
1092.24	0.87
1102.12	0.885
1112	0.879
1121.88	0.806
1131.77	0.7051
1141.65	0.675
1151.53	0.692
1161.41	0.803
1171.3	0.848
1181.18	0.859
1191.06	0.902
1200.94	0.908
1210.83	0.9
1220.71	0.881
1230.59	0.891
1240.47	0.883
1250.36	0.84
1260.24	0.838
1270.12	0.834
1280	0.868
1289.89	0.861
1299.77	0.849
1309.65	0.853
1319.53	0.874
1329.41	0.868
1339.3	0.849
1349.18	0.801
1359.06	0.774
1368.94	0.744
1378.83	0.598
1388.71	0.555
1398.59	0.7969
1408.47	0.859
1418.36	0.9
1428.24	0.861
1438.12	0.853
1448	0.735
1457.89	0.5382
1467.77	0.3991
1477.65	0.519
1487.53	0.7911
1497.41	0.911
1507.3	0.984
1517.18	0.93
1527.06	0.9151
1536.94	0.917
1546.83	0.932
1556.71	0.9599
1566.59	0.923
1576.47	0.947
1586.36	0.909
1596.24	0.913
1606.12	0.915
1616	0.911
1625.89	0.9379
1635.77	0.926
1645.65	0.923
1655.53	0.986
1665.42	0.921
1675.3	0.947
1685.18	0.981
1695.06	0.909
1704.94	0.947
1714.83	0.902
1724.71	0.8781
1734.59	0.853
1744.47	0.849
1754.36	0.913
1764.24	0.923
1774.12	0.941
1784	0.923
1793.89	0.926
1803.77	0.928
1813.65	0.926
1823.53	0.919
1833.42	0.939
1843.3	0.919
1853.18	0.924
1863.06	0.921
1872.95	0.941
1882.83	0.919
1892.71	0.924
1902.59	0.911
1912.47	0.921
1922.36	0.93
1932.24	0.921
1942.12	0.926
1952	0.919
1961.89	0.911
1971.77	0.913
1981.65	0.909
1991.53	0.906
2001.42	0.916
2011.3	0.921
2021.18	0.9179
2031.06	0.915
2040.95	0.917
2050.83	0.919
2060.71	0.917
2070.59	0.917
2080.47	0.919
2090.36	0.9215
2100.24	0.9214
2110.12	0.921
2120	0.919
2129.89	0.917
2139.77	0.917
2149.65	0.917
2159.53	0.9209
2169.42	0.921
2179.3	0.921
2189.18	0.919
2199.06	0.919
2208.95	0.917
2218.83	0.917
2228.71	0.917
2238.59	0.917
2248.48	0.919
2258.36	0.917
2268.24	0.9135
2278.12	0.915
2288	0.9206
2297.89	0.9287
2307.77	0.9384
2317.65	0.9478
2327.53	0.947
2337.42	0.941
2347.3	0.939
2357.18	0.933
2367.06	0.9229
2376.95	0.9139
2386.83	0.911
2396.71	0.909
2406.59	0.908
2416.48	0.9103
2426.36	0.911
2436.24	0.913
2446.12	0.9135
2456.01	0.917
2465.89	0.917
2475.77	0.917
2485.65	0.917
2495.53	0.917
2505.42	0.917
2515.3	0.915
2525.18	0.913
2535.06	0.913
2544.95	0.911
2554.83	0.9089
2564.71	0.906
2574.59	0.902
2584.48	0.8967
2594.36	0.893
2604.24	0.889
2614.12	0.883
2624.01	0.885
2633.89	0.889
2643.77	0.891
2653.65	0.8883
2663.53	0.8813
2673.42	0.8732
2683.3	0.861
2693.18	0.8689
2703.06	0.874
2712.95	0.873
2722.83	0.8628
2732.71	0.8473
2742.59	0.8362
2752.48	0.8491
2762.36	0.8632
2772.24	0.87
2782.12	0.8602
2792.01	0.8483
2801.89	0.8231
2811.77	0.8004
2821.65	0.7717
2831.54	0.7449
2841.42	0.6202
2851.3	0.4223
2861.18	0.2017
2871.06	0.1063
2880.95	0.085
2890.83	0.1217
2900.71	0.212
2910.59	0.1123
2920.48	0.0415
2930.36	0.0147
2940.24	0.0183
2950.12	0.063
2960.01	0.0166
2969.89	0
2979.77	0.0057
2989.65	0.4108
2999.54	0.7121
3009.42	0.7619
3019.3	0.8001
3029.18	0.8172
3039.07	0.8375
3048.95	0.8499
3058.83	0.855
3068.71	0.859
3078.59	0.8701
3088.48	0.8771
3098.36	0.8812
3108.24	0.885
3118.12	0.889
3128.01	0.889
3137.89	0.887
3147.77	0.883
3157.65	0.8804
3167.54	0.876
3177.42	0.8747
3187.3	0.878
3197.18	0.8833
3207.07	0.896
3216.95	0.9
3226.83	0.902
3236.71	0.906
3246.59	0.906
3256.48	0.9071
3266.36	0.908
3276.24	0.909
3286.12	0.9093
3296.01	0.9097
3305.89	0.909
3315.77	0.908
3325.65	0.908
3335.54	0.908
3345.42	0.9074
3355.3	0.906
3365.18	0.902
3375.07	0.9038
3384.95	0.904
3394.83	0.9021
3404.71	0.902
3414.6	0.904
3424.48	0.904
3434.36	0.904
3444.24	0.904
3454.12	0.904
3464.01	0.904
3473.89	0.9063
3483.77	0.909
3493.65	0.909
3503.54	0.911
3513.42	0.913
3523.3	0.915
3533.18	0.911
3543.07	0.9153
3552.95	0.9166
3562.83	0.926
3572.71	0.913
3582.6	0.9239
3592.48	0.929
3602.36	0.9301
3612.24	0.93
3622.13	0.9337
3632.01	0.9138
3641.89	0.9306
3651.77	0.9176
3661.65	0.924
3671.54	0.9305
3681.42	0.9205
3691.3	0.917
3701.18	0.9216
3711.07	0.9193
3720.95	0.917
3730.83	0.9257
3740.71	0.9393
3750.6	0.943
3760.48	0.9257
3770.36	0.915
3780.24	0.911
3790.13	0.9091
3800.01	0.921
3809.89	0.911
3819.77	0.9163
3829.65	0.923
3839.54	0.9196
3849.42	0.9279
3859.3	0.9365
3869.18	0.9184
3879.07	0.917
3888.95	0.919
3898.83	0.928
3908.71	0.9122
3918.6	0.909
3928.48	0.909
3938.36	0.908
3948.24	0.906
3958.13	0.902
3968.01	0.902
3977.89	0.9
3987.77	0.9
