Infrared Spectrum: 2-Hydroxyquinoline
Formula: C9 H7 N O
CAS: 59-31-4
State: SOLID (SPLIT MULL)
Class: COBLENTZ III
Instrument: DOW KBr FOREPRISM-GRATING
Instrument parameters: BLAZED AT 3.5, 12.0, 20.0 MICRON AND CHANGED AT 5.0, 7.5, 14.9 MICRON
Sampling: TRANSMISSION
Resolution: 2
Origin: DOW CHEMICAL COMPANY
1/CM	TRANSMITTANCE
3806	0.5162
3797	0.5181
3788	0.5204
3779	0.5229
3770	0.5259
3761	0.5289
3752	0.5323
3743	0.5332
3734	0.5328
3725	0.5318
3716	0.5321
3707	0.5323
3698	0.5332
3689	0.5343
3680	0.536
3671	0.5379
3662	0.5394
3653	0.5405
3644	0.5416
3635	0.5427
3626	0.5438
3617	0.5449
3608	0.546
3599	0.5468
3590	0.5475
3581	0.5481
3572	0.5489
3563	0.5498
3554	0.5506
3545	0.5515
3536	0.5529
3527	0.5545
3518	0.556
3509	0.5576
3500	0.5591
3491	0.5605
3482	0.5619
3473	0.5633
3464	0.5653
3455	0.5674
3446	0.5695
3437	0.5716
3428	0.5737
3419	0.5758
3410	0.5779
3401	0.58
3392	0.5818
3383	0.5837
3374	0.5855
3365	0.587
3356	0.5885
3347	0.59
3338	0.5919
3329	0.5943
3320	0.5966
3311	0.5988
3302	0.5975
3293	0.5931
3284	0.5934
3275	0.5954
3266	0.5914
3257	0.5846
3248	0.5917
3239	0.6047
3230	0.6028
3221	0.5988
3212	0.5974
3203	0.5971
3194	0.5957
3185	0.5768
3176	0.555
3167	0.53
3158	0.5121
3149	0.5068
3140	0.4973
3131	0.4802
3122	0.4904
3113	0.5098
3104	0.486
3095	0.4702
3086	0.4759
3077	0.474
3068	0.4791
3059	0.4837
3050	0.4441
3041	0.4542
3032	0.461
3023	0.426
3014	0.413
3005	0.4135
2996	0.4086
2987	0.4321
2978	0.4564
2969	0.4638
2960	0.446
2951	0.466
2942	0.4703
2933	0.4586
2924	0.4742
2915	0.4894
2906	0.5052
2897	0.5008
2888	0.4404
2879	0.4906
2870	0.4936
2861	0.486
2852	0.4769
2843	0.4769
2834	0.5042
2825	0.5123
2816	0.5074
2807	0.5176
2798	0.5303
2789	0.5432
2780	0.5537
2771	0.5589
2762	0.5626
2753	0.5622
2744	0.5646
2735	0.5669
2726	0.5691
2717	0.5715
2708	0.574
2699	0.5768
2690	0.5803
2681	0.5841
2672	0.5904
2663	0.5978
2654	0.6028
2645	0.6064
2636	0.6092
2627	0.6118
2618	0.6141
2609	0.6159
2600	0.6166
2591	0.6184
2582	0.6208
2573	0.6231
2564	0.6255
2555	0.6279
2546	0.6304
2537	0.6328
2528	0.6352
2519	0.6375
2510	0.6399
2501	0.6421
2492	0.6447
2483	0.6469
2474	0.6492
2465	0.6511
2456	0.6528
2447	0.6539
2438	0.655
2429	0.6558
2420	0.6567
2411	0.6578
2402	0.6591
2393	0.6603
2384	0.6621
2375	0.6638
2366	0.6656
2357	0.6671
2348	0.669
2339	0.6703
2330	0.6699
2321	0.6694
2312	0.6706
2303	0.6717
2294	0.673
2285	0.6744
2276	0.6767
2267	0.679
2258	0.6824
2249	0.6858
2240	0.6896
2231	0.6939
2222	0.6983
2213	0.7018
2204	0.7045
2195	0.7075
2186	0.7107
2177	0.7138
2168	0.7161
2159	0.7178
2150	0.7198
2141	0.7215
2132	0.7235
2123	0.7251
2114	0.7264
2105	0.7275
2096	0.7287
2087	0.7304
2078	0.7325
2069	0.7346
2060	0.7368
2051	0.7394
2042	0.7421
2033	0.7455
2024	0.748
2015	0.7496
2006	0.7511
1997	0.7486
1988	0.7583
1979	0.7614
1970	0.7585
1961	0.7656
1952	0.7599
1943	0.7684
1934	0.7685
1925	0.7661
1916	0.776
1907	0.7761
1898	0.7703
1889	0.7697
1880	0.7731
1871	0.7804
1862	0.7865
1853	0.7876
1844	0.7901
1835	0.796
1826	0.8017
1817	0.7868
1808	0.786
1799	0.7918
1790	0.8017
1781	0.8045
1772	0.8082
1763	0.8161
1754	0.8223
1745	0.8275
1736	0.8204
1727	0.826
1718	0.8189
1709	0.8055
1700	0.7934
1691	0.7506
1682	0.5637
1673	0.5222
1664	0.2731
1655	0.1258
1646	0.17
1637	0.2118
1628	0.3805
1619	0.5106
1610	0.4562
1601	0.2941
1592	0.4603
1583	0.5312
1574	0.5686
1565	0.6081
1556	0.3918
1547	0.5437
1538	0.6204
1529	0.6541
1520	0.6781
1511	0.7082
1502	0.5498
1493	0.7035
1484	0.7334
1475	0.726
1466	0.6525
1457	0.7236
1448	0.6968
1439	0.7226
1430	0.2508
1421	0.5593
1412	0.6449
1403	0.5686
1394	0.5872
1385	0.6207
1376	0.6353
1367	0.6556
1358	0.6778
1349	0.5668
1340	0.6217
1331	0.6424
1322	0.6554
1313	0.6522
1304	0.6501
1295	0.6694
1286	0.5384
1277	0.6431
1268	0.6418
1259	0.5902
1250	0.6417
1241	0.6631
1232	0.6693
1223	0.6696
1214	0.5486
1205	0.6731
1196	0.6884
1187	0.6935
1178	0.6956
1169	0.6968
1160	0.7008
1151	0.6799
1142	0.7148
1133	0.6439
1124	0.7092
1115	0.6362
1106	0.7196
1097	0.7276
1088	0.7321
1079	0.7315
1070	0.7265
1061	0.7321
1052	0.7365
1043	0.7364
1034	0.7301
1025	0.671
1016	0.7282
1007	0.7291
998	0.7372
989	0.7425
980	0.7214
971	0.7364
962	0.7422
953	0.7328
944	0.6572
935	0.7162
926	0.7165
917	0.7243
908	0.7248
899	0.7117
890	0.7134
881	0.7149
872	0.7099
863	0.6285
854	0.6622
845	0.6856
836	0.4418
827	0.7097
818	0.7456
809	0.7628
800	0.7711
791	0.7761
782	0.7669
773	0.6826
764	0.7315
755	0.6048
746	0.7068
737	0.7144
728	0.5787
719	0.6711
710	0.7191
701	0.7389
692	0.7412
683	0.7419
674	0.7425
665	0.7401
656	0.7404
647	0.7393
638	0.7396
629	0.7383
620	0.6837
611	0.7069
602	0.7231
593	0.7214
584	0.7091
575	0.7072
566	0.7098
557	0.7051
548	0.7068
539	0.7057
530	0.5475
521	0.6942
512	0.7032
503	0.5493
494	0.6837
485	0.6725
476	0.6878
467	0.6801
458	0.6612
449	0.6588
440	0.6669
431	0.6767
422	0.6847
413	0.6907
404	0.6964
395	0.7011
