Infrared Spectrum: PHENOL, 4-CHLORO-3-METHYL-
Formula: C7 H7 Cl O
CAS: 59-50-7
State: SOLUTION (10% IN CCl4 FOR 3800-1330, 10% IN CS2 FOR 1330-400 CM^-^1)
Melting point: 66 C
Class: COBLENTZ III
Instrument: DOW KBr FOREPRISM-GRATING
Instrument parameters: BLAZED AT 3.5, 12.0, 20.0 MICRON, CHANGED AT 5.0, 7.5, 14.9 MICRON
Sampling: TRANSMISSION
Path length: 0.010, 0.010 CM
Resolution: 4
Origin: DOW CHEMICAL COMPANY
1/CM	TRANSMITTANCE
387.975	0.333
396.519	0.345
405.064	0.394
413.608	0.5139
422.152	0.574
430.697	0.574
439.241	0.533
447.785	0.431
456.33	0.655
464.874	0.67
473.418	0.666
481.963	0.579
490.507	0.676
499.051	0.717
507.596	0.728
516.14	0.723
524.684	0.716
533.229	0.713
541.773	0.71
550.317	0.703
558.862	0.701
567.406	0.5703
575.95	0.6609
584.495	0.704
593.039	0.709
601.583	0.709
610.128	0.704
618.672	0.692
627.216	0.62
635.761	0.109
644.305	0.478
652.849	0.669
661.394	0.726
669.938	0.757
678.482	0.771
687.027	0.748
695.571	0.633
704.115	0.784
712.66	0.803
721.204	0.81
729.748	0.762
738.293	0.822
746.837	0.838
755.381	0.847
763.926	0.852
772.47	0.844
781.014	0.834
789.559	0.771
798.103	0.348
806.647	0.311
815.192	0.4781
823.736	0.818
832.28	0.796
840.825	0.6052
849.369	0.409
857.913	0.376
866.458	0.485
875.002	0.778
883.546	0.841
892.091	0.862
900.635	0.867
909.179	0.884
917.724	0.877
926.268	0.861
934.812	0.831
943.357	0.6011
951.901	0.871
960.445	0.892
968.99	0.892
977.534	0.88
986.079	0.85
994.623	0.7221
1003.17	0.6359
1011.71	0.759
1020.26	0.776
1028.8	0.689
1037.34	0.759
1045.89	0.44
1054.43	0.355
1062.98	0.833
1071.52	0.862
1080.07	0.864
1088.61	0.855
1097.15	0.838
1105.7	0.807
1114.24	0.719
1122.79	0.431
1131.33	0.496
1139.88	0.457
1148.42	0.1939
1156.97	0.076
1165.51	0.1089
1174.05	0.366
1182.6	0.373
1191.14	0.372
1199.69	0.413
1208.23	0.379
1216.78	0.353
1225.32	0.324
1233.86	0.28
1242.41	0.209
1250.95	0.7029
1259.5	0.694
1268.04	0.635
1276.59	0.332
1285.13	0.098
1293.67	0.217
1302.22	0.579
1310.76	0.574
1319.31	0.589
1327.85	0.623
1336.4	0.648
1344.94	0.7
1353.48	0.717
1362.03	0.714
1370.57	0.692
1379.12	0.549
1387.66	0.775
1396.21	0.782
1404.75	0.723
1413.3	0.3779
1421.84	0.302
1430.38	0.329
1438.93	0.416
1447.47	0.322
1456.02	0.277
1464.56	0.364
1473.11	0.05
1481.65	0.078
1490.19	0.3301
1498.74	0.5021
1507.28	0.601
1515.83	0.614
1524.37	0.59
1532.92	0.525
1541.46	0.438
1550	0.441
1558.55	0.478
1567.09	0.456
1575.64	0.2519
1584.18	0.257
1592.73	0.354
1601.27	0.48
1609.82	0.459
1618.36	0.562
1626.9	0.796
1635.45	0.856
1643.99	0.887
1652.54	0.902
1661.08	0.909
1669.63	0.917
1678.17	0.921
1686.71	0.92
1695.26	0.924
1703.8	0.923
1712.35	0.918
1720.89	0.923
1729.44	0.935
1737.98	0.946
1746.52	0.961
1755.07	0.966
1763.61	0.967
1772.16	0.966
1780.7	0.964
1789.25	0.964
1797.79	0.966
1806.33	0.966
1814.88	0.966
1823.42	0.961
1831.97	0.946
1840.51	0.929
1849.06	0.921
1857.6	0.912
1866.15	0.927
1874.69	0.943
1883.23	0.952
1891.78	0.957
1900.32	0.968
1908.87	0.973
1917.41	0.97
1925.96	0.97
1934.5	0.973
1943.04	0.973
1951.59	0.973
1960.13	0.968
1968.68	0.967
1977.22	0.968
1985.77	0.968
1994.31	0.967
2002.85	0.97
2011.4	0.971
2019.94	0.9749
2028.49	0.977
2037.03	0.979
2045.58	0.98
2054.12	0.98
2062.66	0.98
2071.21	0.98
2079.75	0.979
2088.3	0.98
2096.84	0.98
2105.39	0.979
2113.93	0.9762
2122.48	0.9776
2131.02	0.982
2139.56	0.9827
2148.11	0.982
2156.65	0.98
2165.2	0.979
2173.74	0.979
2182.29	0.9776
2190.83	0.9738
2199.37	0.9703
2207.92	0.9731
2216.46	0.974
2225.01	0.973
2233.55	0.9718
2242.1	0.968
2250.64	0.967
2259.18	0.97
2267.73	0.967
2276.27	0.9629
2284.82	0.958
2293.36	0.955
2301.91	0.952
2310.45	0.954
2318.99	0.957
2327.54	0.96
2336.08	0.96
2344.63	0.958
2353.17	0.958
2361.72	0.957
2370.26	0.955
2378.81	0.954
2387.35	0.951
2395.89	0.9463
2404.44	0.942
2412.98	0.94
2421.53	0.9397
2430.07	0.9374
2438.62	0.9345
2447.16	0.93
2455.7	0.9322
2464.25	0.935
2472.79	0.937
2481.34	0.9414
2489.88	0.945
2498.43	0.9487
2506.97	0.946
2515.51	0.9407
2524.06	0.9329
2532.6	0.9248
2541.15	0.923
2549.69	0.927
2558.24	0.929
2566.78	0.93
2575.32	0.932
2583.87	0.934
2592.41	0.936
2600.96	0.937
2609.5	0.939
2618.05	0.935
2626.59	0.9301
2635.14	0.927
2643.68	0.926
2652.22	0.924
2660.77	0.924
2669.31	0.924
2677.86	0.927
2686.4	0.9307
2694.95	0.932
2703.49	0.932
2712.03	0.932
2720.58	0.9291
2729.12	0.9176
2737.67	0.9113
2746.21	0.92
2754.76	0.915
2763.3	0.914
2771.84	0.911
2780.39	0.9113
2788.93	0.911
2797.48	0.911
2806.02	0.911
2814.57	0.9116
2823.11	0.9107
2831.66	0.9032
2840.2	0.8899
2848.74	0.8515
2857.29	0.8431
2865.83	0.8711
2874.38	0.875
2882.92	0.8705
2891.47	0.8609
2900.01	0.8385
2908.55	0.7972
2917.1	0.7362
2925.64	0.658
2934.19	0.7516
2942.73	0.7713
2951.28	0.7291
2959.82	0.7211
2968.36	0.7626
2976.91	0.7475
2985.45	0.7357
2994	0.8019
3002.54	0.8127
3011.09	0.7945
3019.63	0.7702
3028.17	0.7544
3036.72	0.8023
3045.26	0.803
3053.81	0.7938
3062.35	0.7848
3070.9	0.7842
3079.44	0.7924
3087.99	0.7908
3096.53	0.7857
3105.07	0.7788
3113.62	0.7727
3122.16	0.7625
3130.71	0.7414
3139.25	0.7226
3147.8	0.7064
3156.34	0.6844
3164.88	0.655
3173.43	0.6329
3181.97	0.6107
3190.52	0.5889
3199.06	0.5605
3207.61	0.5371
3216.15	0.5136
3224.69	0.4885
3233.24	0.464
3241.78	0.4472
3250.33	0.4225
3258.87	0.3983
3267.42	0.3786
3275.96	0.3601
3284.5	0.3466
3293.05	0.3326
3301.59	0.3237
3310.14	0.317
3318.68	0.314
3327.23	0.3114
3335.77	0.311
3344.32	0.3138
3352.86	0.316
3361.4	0.3167
3369.95	0.3192
3378.49	0.3284
3387.04	0.3336
3395.58	0.342
3404.13	0.3505
3412.67	0.3623
3421.21	0.3729
3429.76	0.3869
3438.3	0.3988
3446.85	0.418
3455.39	0.4324
3463.94	0.4518
3472.48	0.4661
3481.02	0.4858
3489.57	0.5121
3498.11	0.538
3506.66	0.574
3515.2	0.5988
3523.75	0.6197
3532.29	0.6398
3540.83	0.644
3549.38	0.6372
3557.92	0.6245
3566.47	0.6038
3575.01	0.5659
3583.56	0.5226
3592.1	0.4334
3600.65	0.3126
3609.19	0.3304
3617.73	0.6531
3626.28	0.8575
3634.82	0.902
3643.37	0.906
3651.91	0.9013
3660.46	0.895
3669	0.9022
3677.54	0.9194
3686.09	0.9362
3694.63	0.947
3703.18	0.954
3711.72	0.9563
3720.27	0.9571
3728.81	0.9574
3737.35	0.957
3745.9	0.957
3754.44	0.958
3762.99	0.9576
3771.53	0.9599
3780.08	0.958
3788.62	0.958
