Infrared Spectrum: ACETAZOLAMIDE
Formula: C4 H6 N4 O3 S2
CAS: 59-66-5
State: SOLID (1 mg / 200 mg KBr DISC)
Melting point: 258-259 C
Class: COBLENTZ III
Instrument: PERKIN-ELMER 21 (GRATING)
Instrument parameters: FILTER AT ABOUT 10 MICRONS
Sampling: TRANSMISSION
Resolution: 2
1/CM	TRANSMITTANCE
4000	0.8401
3991	0.8393
3982	0.8387
3973	0.8382
3964	0.8375
3955	0.8368
3946	0.8365
3937	0.8366
3928	0.8368
3919	0.837
3910	0.8373
3901	0.8375
3892	0.8377
3883	0.8378
3874	0.8382
3865	0.8384
3856	0.8387
3847	0.839
3838	0.8394
3829	0.8397
3820	0.8401
3811	0.8404
3802	0.8409
3793	0.8412
3784	0.8415
3775	0.8418
3766	0.8423
3757	0.8431
3748	0.8443
3739	0.8457
3730	0.847
3721	0.8483
3712	0.8494
3703	0.8502
3694	0.8507
3685	0.8509
3676	0.851
3667	0.8507
3658	0.8502
3649	0.8495
3640	0.8484
3631	0.8458
3622	0.8421
3613	0.838
3604	0.8335
3595	0.829
3586	0.8231
3577	0.8162
3568	0.8097
3559	0.8036
3550	0.7975
3541	0.7908
3532	0.7811
3523	0.7718
3514	0.7625
3505	0.7537
3496	0.7458
3487	0.7385
3478	0.7308
3469	0.7231
3460	0.7155
3451	0.7087
3442	0.7018
3433	0.695
3424	0.6868
3415	0.6786
3406	0.6675
3397	0.6534
3388	0.6364
3379	0.6079
3370	0.583
3361	0.5612
3352	0.5356
3343	0.5041
3334	0.4562
3325	0.3259
3316	0.1898
3307	0.1628
3298	0.1565
3289	0.1541
3280	0.1807
3271	0.2246
3262	0.2687
3253	0.3132
3244	0.3578
3235	0.3995
3226	0.4052
3217	0.4064
3208	0.398
3199	0.3753
3190	0.3523
3181	0.3292
3172	0.3071
3163	0.3033
3154	0.3034
3145	0.3074
3136	0.3203
3127	0.3352
3118	0.35
3109	0.3616
3100	0.3686
3091	0.3703
3082	0.373
3073	0.3889
3064	0.4128
3055	0.4336
3046	0.4464
3037	0.4535
3028	0.4553
3019	0.4545
3010	0.4522
3001	0.4497
2992	0.4451
2983	0.4397
2974	0.43
2965	0.4176
2956	0.4016
2947	0.3664
2938	0.3199
2929	0.3054
2920	0.2943
2911	0.2852
2902	0.278
2893	0.2747
2884	0.2731
2875	0.2714
2866	0.2703
2857	0.2704
2848	0.276
2839	0.2853
2830	0.2955
2821	0.3051
2812	0.3082
2803	0.3077
2794	0.2992
2785	0.2821
2776	0.2616
2767	0.2581
2758	0.2584
2749	0.2628
2740	0.2832
2731	0.2963
2722	0.313
2713	0.3416
2704	0.364
2695	0.3836
2686	0.4016
2677	0.4151
2668	0.4264
2659	0.4408
2650	0.4562
2641	0.469
2632	0.4819
2623	0.4951
2614	0.5092
2605	0.531
2596	0.5535
2587	0.5765
2578	0.5943
2569	0.6081
2560	0.6203
2551	0.6375
2542	0.6565
2533	0.6758
2524	0.6907
2515	0.7036
2506	0.7156
2497	0.7261
2488	0.7362
2479	0.7449
2470	0.7528
2461	0.7597
2452	0.7658
2443	0.7722
2434	0.7786
2425	0.7848
2416	0.791
2407	0.7968
2398	0.8017
2389	0.8067
2380	0.8115
2371	0.8145
2362	0.814
2353	0.8132
2344	0.8132
2335	0.8135
2326	0.8145
2317	0.8164
2308	0.8198
2299	0.8246
2290	0.8287
2281	0.8313
2272	0.8321
2263	0.8331
2254	0.8346
2245	0.8362
2236	0.8391
2227	0.843
2218	0.8482
2209	0.8528
2200	0.8565
2191	0.8591
2182	0.8614
2173	0.8624
2164	0.863
2155	0.8628
2146	0.8623
2137	0.8603
2128	0.8594
2119	0.8603
2110	0.8612
2101	0.862
2092	0.8628
2083	0.8636
2074	0.8636
2065	0.8637
2056	0.8634
2047	0.8631
2038	0.8631
2029	0.8631
2020	0.8631
2011	0.8625
2002	0.8621
1993	0.8617
1984	0.8613
1975	0.8612
1966	0.8615
1957	0.8621
1948	0.8635
1939	0.8651
1930	0.8673
1921	0.8691
1912	0.8691
1903	0.8675
1894	0.8657
1885	0.8649
1876	0.8653
1867	0.867
1858	0.8686
1849	0.8684
1840	0.8651
1831	0.8573
1822	0.8533
1813	0.8514
1804	0.8492
1795	0.8462
1786	0.8452
1777	0.8436
1768	0.8411
1759	0.8368
1750	0.8299
1741	0.8203
1732	0.8072
1723	0.7532
1714	0.6884
1705	0.582
1696	0.3594
1687	0.1681
1678	0.141
1669	0.3729
1660	0.5567
1651	0.5602
1642	0.5967
1633	0.6099
1624	0.6117
1615	0.6059
1606	0.5648
1597	0.4686
1588	0.3083
1579	0.1733
1570	0.136
1561	0.079
1552	0.0548
1543	0.1311
1534	0.305
1525	0.4056
1516	0.5147
1507	0.5552
1498	0.6346
1489	0.6671
1480	0.6828
1471	0.6871
1462	0.6621
1453	0.6016
1444	0.3716
1435	0.2267
1426	0.3462
1417	0.4431
1408	0.5552
1399	0.6016
1390	0.4034
1381	0.1196
1372	0.0513
1363	0.0471
1354	0.3318
1345	0.5134
1336	0.5481
1327	0.1941
1318	0.0699
1309	0.2907
1300	0.5357
1291	0.5719
1282	0.4451
1273	0.6365
1264	0.6738
1255	0.5719
1246	0.4673
1237	0.6321
1228	0.6695
1219	0.7103
1210	0.7321
1201	0.7171
1192	0.6168
1183	0.3544
1174	0.0406
1165	0.2278
1156	0.599
1147	0.6903
1138	0.7217
1129	0.7293
1120	0.4104
1111	0.6461
1102	0.666
1093	0.5885
1084	0.497
1075	0.6475
1066	0.7196
1057	0.7397
1048	0.6143
1039	0.6695
1030	0.7587
1021	0.7469
1012	0.4934
1003	0.6868
994	0.7515
985	0.7518
976	0.4809
967	0.639
958	0.7628
949	0.7947
940	0.7798
931	0.7436
922	0.6133
913	0.3473
904	0.4843
895	0.6501
886	0.7074
877	0.7145
868	0.6851
859	0.6336
850	0.5714
841	0.4996
832	0.5274
823	0.5443
814	0.4407
805	0.6219
796	0.673
787	0.6998
778	0.7082
769	0.6993
760	0.6899
751	0.6725
742	0.6403
733	0.5986
724	0.5657
715	0.4978
706	0.35
697	0.3459
688	0.3188
679	0.263
670	0.2437
661	0.3616
