Infrared Spectrum: NICOTINIC ACID
Formula: C6 H5 N O2
CAS: 59-67-6
State: SOLID (1 mg / 200 mg KBr DISC) VS KBr
Melting point: 236.6 C
Class: COBLENTZ III
Instrument: PERKIN-ELMER 21 (GRATING)
Instrument parameters: FILTER AT ABOUT 10 MICRONS
Sampling: TRANSMISSION
Path length: 0.055 CM (THICKNESS)
Resolution: 2
1/CM	TRANSMITTANCE
4000	0.7995
3991	0.7996
3982	0.7998
3973	0.8001
3964	0.8003
3955	0.8006
3946	0.8012
3937	0.8021
3928	0.8028
3919	0.8035
3910	0.8042
3901	0.805
3892	0.8057
3883	0.8065
3874	0.8071
3865	0.808
3856	0.8086
3847	0.8093
3838	0.81
3829	0.8107
3820	0.8114
3811	0.8121
3802	0.8128
3793	0.8135
3784	0.8142
3775	0.815
3766	0.8157
3757	0.8164
3748	0.8171
3739	0.8178
3730	0.8186
3721	0.8193
3712	0.82
3703	0.8208
3694	0.8216
3685	0.8223
3676	0.8231
3667	0.8239
3658	0.8249
3649	0.8257
3640	0.8266
3631	0.8275
3622	0.8284
3613	0.8291
3604	0.8298
3595	0.8302
3586	0.8299
3577	0.8286
3568	0.8258
3559	0.8236
3550	0.8218
3541	0.82
3532	0.8182
3523	0.8164
3514	0.8141
3505	0.8101
3496	0.8061
3487	0.803
3478	0.8001
3469	0.7971
3460	0.7945
3451	0.7921
3442	0.7899
3433	0.788
3424	0.7865
3415	0.7851
3406	0.7837
3397	0.7828
3388	0.7821
3379	0.7814
3370	0.7811
3361	0.7815
3352	0.7821
3343	0.7842
3334	0.7864
3325	0.7896
3316	0.7932
3307	0.7954
3298	0.7976
3289	0.7998
3280	0.8015
3271	0.8033
3262	0.8047
3253	0.8055
3244	0.8061
3235	0.8057
3226	0.8051
3217	0.8033
3208	0.8011
3199	0.7983
3190	0.7951
3181	0.7922
3172	0.7908
3163	0.7903
3154	0.7903
3145	0.7895
3136	0.7875
3127	0.784
3118	0.7794
3109	0.7739
3100	0.7618
3091	0.7474
3082	0.6949
3073	0.6875
3064	0.6861
3055	0.6856
3046	0.6858
3037	0.6893
3028	0.6924
3019	0.6944
3010	0.6951
3001	0.6954
2992	0.6945
2983	0.6918
2974	0.689
2965	0.6856
2956	0.6814
2947	0.6768
2938	0.6721
2929	0.6671
2920	0.6625
2911	0.6581
2902	0.6526
2893	0.6467
2884	0.64
2875	0.6321
2866	0.6235
2857	0.6131
2848	0.6012
2839	0.5853
2830	0.5681
2821	0.5612
2812	0.5595
2803	0.5591
2794	0.5593
2785	0.562
2776	0.5676
2767	0.5742
2758	0.5797
2749	0.5833
2740	0.5838
2731	0.5821
2722	0.5796
2713	0.5759
2704	0.5708
2695	0.5648
2686	0.5578
2677	0.5481
2668	0.5373
2659	0.5269
2650	0.5158
2641	0.5021
2632	0.4886
2623	0.4772
2614	0.4686
2605	0.4636
2596	0.4594
2587	0.4555
2578	0.4471
2569	0.4364
2560	0.4228
2551	0.4066
2542	0.3906
2533	0.3762
2524	0.365
2515	0.3556
2506	0.3466
2497	0.3373
2488	0.3278
2479	0.3183
2470	0.3104
2461	0.3028
2452	0.2978
2443	0.2958
2434	0.2941
2425	0.2928
2416	0.2933
2407	0.2942
2398	0.2966
2389	0.2996
2380	0.3035
2371	0.3077
2362	0.3125
2353	0.3175
2344	0.3229
2335	0.3314
2326	0.3427
2317	0.3556
2308	0.37
2299	0.3855
2290	0.4014
2281	0.416
2272	0.4317
2263	0.4484
2254	0.4687
2245	0.4876
2236	0.5031
2227	0.5159
2218	0.5268
2209	0.5388
2200	0.5485
2191	0.5587
2182	0.5608
2173	0.5621
2164	0.5664
2155	0.5702
2146	0.569
2137	0.5658
2128	0.5617
2119	0.5575
2110	0.5514
2101	0.5452
2092	0.5381
2083	0.531
2074	0.521
2065	0.5104
2056	0.5003
2047	0.4894
2038	0.4762
2029	0.4631
2020	0.4504
2011	0.4369
2002	0.4231
1993	0.4087
1984	0.3909
1975	0.3682
1966	0.3516
1957	0.3379
1948	0.3291
1939	0.3246
1930	0.3203
1921	0.3176
1912	0.3164
1903	0.3152
1894	0.3142
1885	0.3131
1876	0.3118
1867	0.3079
1858	0.3126
1849	0.3192
1840	0.3264
1831	0.3326
1822	0.3371
1813	0.3439
1804	0.3499
1795	0.3528
1786	0.3492
1777	0.3384
1768	0.3209
1759	0.2907
1750	0.2334
1741	0.1729
1732	0.107
1723	0.0917
1714	0.0847
1705	0.0824
1696	0.138
1687	0.2248
1678	0.2935
1669	0.3394
1660	0.3787
1651	0.4084
1642	0.4336
1633	0.4546
1624	0.4765
1615	0.4986
1606	0.4055
1597	0.2071
1588	0.3121
1579	0.3746
1570	0.4515
1561	0.4695
1552	0.4971
1543	0.5026
1534	0.5046
1525	0.5057
1516	0.5056
1507	0.494
1498	0.4699
1489	0.4646
1480	0.4852
1471	0.6014
1462	0.6165
1453	0.5779
1444	0.5541
1435	0.5207
1426	0.3534
1417	0.179
1408	0.3857
1399	0.4337
1390	0.4668
1381	0.4766
1372	0.4843
1363	0.493
1354	0.4688
1345	0.3246
1336	0.2011
1327	0.0648
1318	0.053
1309	0.1087
1300	0.0544
1291	0.0593
1282	0.093
1273	0.137
1264	0.1828
1255	0.217
1246	0.2321
1237	0.2431
1228	0.2676
1219	0.3015
1210	0.3388
1201	0.376
1192	0.3192
1183	0.1775
1174	0.2656
1165	0.3377
1156	0.366
1147	0.3486
1138	0.2661
1129	0.3042
1120	0.2906
1111	0.2069
1102	0.3189
1093	0.267
1084	0.2719
1075	0.36
1066	0.388
1057	0.3955
1048	0.3246
1039	0.1131
1030	0.1829
1021	0.2935
1012	0.3728
1003	0.4262
994	0.4607
985	0.4937
976	0.5112
967	0.541
958	0.5226
949	0.5037
940	0.5547
931	0.5787
922	0.5942
913	0.6093
904	0.6257
895	0.6403
886	0.6543
877	0.6718
868	0.693
859	0.7141
850	0.7218
841	0.6918
832	0.5087
823	0.5824
814	0.34
805	0.5376
796	0.6309
787	0.6558
778	0.6945
769	0.7185
760	0.7028
751	0.1209
742	0.4079
733	0.7185
724	0.7883
715	0.8061
706	0.7905
697	0.3593
688	0.5402
679	0.5482
670	0.8098
