Infrared Spectrum: CYCLOHEXANE, 1,1-DIMETHYL-
Formula: C8 H16
CAS: 590-66-9
State: SOLUTION (10% CCl4 FOR 3800-1335, 10% CS2 FOR 1335-450 CM^-^1)
Class: COBLENTZ III
Instrument: DOW KBr FOREPRISM-GRATING
Instrument parameters: BLAZED AT 3.5, 12.0, 20.0 MICRON AND CHANGED AT 5.0, 7.5, 14.9 MICRON
Sampling: TRANSMISSION
Path length: 0.011 CM, 0.011 CM
Resolution: 2
Origin: DOW CHEMICAL COMPANY
1/CM	TRANSMITTANCE
452	0.8189
461	0.8215
470	0.8274
479	0.8343
488	0.8408
497	0.8458
506	0.8485
515	0.8506
524	0.851
533	0.8514
542	0.8478
551	0.809
560	0.8475
569	0.8603
578	0.8646
587	0.8675
596	0.8694
605	0.8696
614	0.8688
623	0.8675
632	0.8606
641	0.8511
650	0.8383
659	0.8496
668	0.8533
677	0.8477
686	0.8462
695	0.8432
704	0.8341
713	0.8506
722	0.8536
731	0.8568
740	0.8578
749	0.8575
758	0.8577
767	0.8552
776	0.8395
785	0.8455
794	0.8507
803	0.8501
812	0.8457
821	0.8381
830	0.8268
839	0.7568
848	0.5419
857	0.659
866	0.7185
875	0.764
884	0.8068
893	0.8357
902	0.8368
911	0.7821
920	0.7254
929	0.8122
938	0.8377
947	0.829
956	0.6319
965	0.7975
974	0.7318
983	0.7319
992	0.8331
1001	0.8442
1010	0.847
1019	0.8418
1028	0.8417
1037	0.8433
1046	0.8373
1055	0.8495
1064	0.8473
1073	0.8286
1082	0.8389
1091	0.8298
1100	0.8464
1109	0.8537
1118	0.8547
1127	0.8508
1136	0.8249
1145	0.6621
1154	0.7984
1163	0.7872
1172	0.587
1181	0.7565
1190	0.7803
1199	0.8362
1208	0.8454
1217	0.8452
1226	0.8344
1235	0.7919
1244	0.7467
1253	0.778
1262	0.764
1271	0.7737
1280	0.7675
1289	0.748
1298	0.7545
1307	0.7819
1316	0.7606
1325	0.7497
1334	0.7338
1343	0.8174
1352	0.6417
1361	0.5094
1370	0.6887
1379	0.7456
1388	0.6122
1397	0.8076
1406	0.786
1415	0.7964
1424	0.7735
1433	0.6343
1442	0.372
1451	0.1951
1460	0.2438
1469	0.2957
1478	0.4925
1487	0.7187
1496	0.7391
1505	0.7224
1514	0.6918
1523	0.6501
1532	0.6024
1541	0.508
1550	0.4653
1559	0.533
1568	0.5932
1577	0.6298
1586	0.6475
1595	0.7168
1604	0.79
1613	0.8359
1622	0.8535
1631	0.8646
1640	0.8671
1649	0.8675
1658	0.8671
1667	0.8633
1676	0.8652
1685	0.8668
1694	0.8665
1703	0.8668
1712	0.8678
1721	0.8698
1730	0.8702
1739	0.8706
1748	0.871
1757	0.8718
1766	0.8723
1775	0.8709
1784	0.8665
1793	0.8628
1802	0.8616
1811	0.8628
1820	0.865
1829	0.8671
1838	0.8664
1847	0.8636
1856	0.8625
1865	0.8621
1874	0.8608
1883	0.8628
1892	0.864
1901	0.8664
1910	0.8678
1919	0.8686
1928	0.8675
1937	0.8664
1946	0.8654
1955	0.868
1964	0.8675
1973	0.8653
1982	0.8628
1991	0.8459
2000	0.8637
2009	0.8567
2018	0.858
2027	0.8607
2036	0.8634
2045	0.863
2054	0.8633
2063	0.8628
2072	0.8617
2081	0.8668
2090	0.8673
2099	0.8654
2108	0.8634
2117	0.8627
2126	0.8648
2135	0.8655
2144	0.8647
2153	0.8639
2162	0.8621
2171	0.8596
2180	0.8577
2189	0.8599
2198	0.8627
2207	0.863
2216	0.8624
2225	0.8607
2234	0.8595
2243	0.8586
2252	0.8571
2261	0.8546
2270	0.8492
2279	0.8435
2288	0.8403
2297	0.8418
2306	0.8465
2315	0.8553
2324	0.8639
2333	0.8656
2342	0.8665
2351	0.8661
2360	0.8654
2369	0.8641
2378	0.8628
2387	0.8617
2396	0.8609
2405	0.8612
2414	0.8615
2423	0.8617
2432	0.8621
2441	0.8632
2450	0.8639
2459	0.8641
2468	0.8618
2477	0.8575
2486	0.859
2495	0.8644
2504	0.8624
2513	0.8604
2522	0.8602
2531	0.8609
2540	0.8617
2549	0.8638
2558	0.8662
2567	0.8654
2576	0.8617
2585	0.8557
2594	0.8494
2603	0.8405
2612	0.8306
2621	0.8194
2630	0.7985
2639	0.7942
2648	0.8045
2657	0.7545
2666	0.7546
2675	0.8264
2684	0.8293
2693	0.8065
2702	0.804
2711	0.8251
2720	0.8214
2729	0.8228
2738	0.8286
2747	0.8203
2756	0.8062
2765	0.7931
2774	0.7854
2783	0.756
2792	0.7214
2801	0.7151
2810	0.6596
2819	0.5901
2828	0.4666
2837	0.2127
2846	0.0503
2855	0.0275
2864	0.0451
2873	0.0889
2882	0.0808
2891	0.0297
2900	0.0049
2909	0.0004
2918	0.0004
2927	0.0003
2936	0.0002
2945	0.0024
2954	0.0281
2963	0.0765
2972	0.2034
2981	0.4265
2990	0.6448
2999	0.7335
3008	0.7793
3017	0.8067
3026	0.8267
3035	0.8403
3044	0.8458
3053	0.8478
3062	0.8485
3071	0.8482
3080	0.8481
3089	0.8493
3098	0.8537
3107	0.8578
3116	0.8571
3125	0.8546
3134	0.8518
3143	0.8495
3152	0.8502
3161	0.8521
3170	0.8536
3179	0.8536
3188	0.8538
3197	0.8548
3206	0.857
3215	0.8625
3224	0.8686
3233	0.8721
3242	0.8736
3251	0.8735
3260	0.8748
3269	0.8774
3278	0.8804
3287	0.8818
3296	0.8815
3305	0.8809
3314	0.8803
3323	0.8801
3332	0.8821
3341	0.8814
3350	0.8797
3359	0.8792
3368	0.8832
3377	0.8881
3386	0.8928
3395	0.8957
3404	0.8978
3413	0.8978
3422	0.8961
3431	0.894
3440	0.8909
3449	0.8878
3458	0.8842
3467	0.8832
3476	0.8844
3485	0.8858
3494	0.8868
3503	0.8877
3512	0.888
3521	0.888
3530	0.8881
3539	0.8882
3548	0.8882
3557	0.8871
3566	0.8861
3575	0.8851
3584	0.8828
3593	0.8807
3602	0.8794
3611	0.8781
3620	0.877
3629	0.8759
3638	0.8753
3647	0.8753
3656	0.876
3665	0.8736
3674	0.8671
3683	0.8666
3692	0.8695
3701	0.8728
3710	0.8753
3719	0.8768
3728	0.8777
3737	0.8742
3746	0.8695
3755	0.8683
3764	0.87
3773	0.8711
3782	0.8708
3791	0.8687
