Infrared Spectrum: 2-CHLOROACETIC ACID, n-BUTYL ESTER
Formula: C6 H11 Cl O2
CAS: 590-02-3
State: SOLUTION (10% CCl4 FOR 3800-1500, 10% CS2 FOR 1500-400 CM^-^1)
Boiling point: 181 C
Class: COBLENTZ III
Instrument: BECKMAN IR-9 (GRATING)
Instrument parameters: ORDER CHANGES: 670, 1200, 2000 CM^-^1
Sampling: TRANSMISSION
Path length: 0.011 CM, 0.011 CM
Resolution: 2
Origin: DOW CHEMICAL COMPANY
1/CM	TRANSMITTANCE
396.491	0.5
405.263	0.397
414.035	0.409
422.807	0.598
431.579	0.699
440.351	0.78
449.123	0.827
457.895	0.852
466.667	0.873
475.438	0.881
484.21	0.882
492.982	0.893
501.754	0.884
510.526	0.867
519.298	0.915
528.07	0.932
536.842	0.942
545.614	0.947
554.386	0.939
563.158	0.888
571.93	0.801
580.702	0.816
589.474	0.838
598.246	0.875
607.018	0.908
615.79	0.931
624.562	0.947
633.333	0.948
642.105	0.932
650.877	0.899
659.649	0.877
668.421	0.902
677.193	0.893
685.965	0.846
694.737	0.773
703.509	0.747
712.281	0.791
721.053	0.837
729.825	0.877
738.597	0.784
747.369	0.833
756.141	0.856
764.913	0.874
773.685	0.819
782.456	0.657
791.228	0.52
800	0.66
808.772	0.815
817.544	0.86
826.316	0.892
835.088	0.878
843.86	0.786
852.632	0.753
861.404	0.766
870.176	0.797
878.948	0.815
887.72	0.831
896.492	0.88
905.264	0.892
914.036	0.878
922.808	0.788
931.58	0.689
940.351	0.724
949.123	0.591
957.895	0.508
966.667	0.514
975.439	0.566
984.211	0.573
992.983	0.641
1001.76	0.609
1010.53	0.536
1019.3	0.543
1028.07	0.54
1036.84	0.691
1045.61	0.808
1054.39	0.7329
1063.16	0.46
1071.93	0.583
1080.7	0.801
1089.47	0.827
1098.25	0.841
1107.02	0.83
1115.79	0.7219
1124.56	0.565
1133.33	0.388
1142.11	0.27
1150.88	0.233
1159.65	0.158
1168.42	0.063
1177.19	0.038
1185.97	0.055
1194.74	0.215
1203.51	0.395
1212.28	0.473
1221.05	0.521
1229.83	0.488
1238.6	0.388
1247.37	0.3
1256.14	0.242
1264.91	0.289
1273.69	0.271
1282.46	0.064
1291.23	0.056
1300	0.121
1308.77	0.064
1317.54	0.3651
1326.32	0.503
1335.09	0.681
1343.86	0.706
1352.63	0.765
1361.4	0.761
1370.18	0.7839
1378.95	0.6589
1387.72	0.583
1396.49	0.714
1405.26	0.773
1414.04	0.417
1422.81	0.575
1431.58	0.649
1440.35	0.714
1449.12	0.656
1457.9	0.456
1466.67	0.372
1475.44	0.524
1484.21	0.765
1492.98	0.795
1501.76	0.795
1510.53	0.764
1519.3	0.724
1528.07	0.663
1536.84	0.565
1545.62	0.481
1554.39	0.5
1563.16	0.562
1571.93	0.633
1580.7	0.656
1589.48	0.691
1598.25	0.743
1607.02	0.819
1615.79	0.852
1624.56	0.87
1633.33	0.902
1642.11	0.92
1650.88	0.92
1659.65	0.921
1668.42	0.914
1677.19	0.891
1685.97	0.875
1694.74	0.826
1703.51	0.768
1712.28	0.648
1721.05	0.4638
1729.83	0.1568
1738.6	0.022
1747.37	0.017
1756.14	0.038
1764.91	0.02
1773.69	0.0811
1782.46	0.4771
1791.23	0.685
1800	0.775
1808.77	0.831
1817.55	0.86
1826.32	0.889
1835.09	0.903
1843.86	0.915
1852.63	0.918
1861.41	0.925
1870.18	0.932
1878.95	0.942
1887.72	0.943
1896.49	0.947
1905.27	0.947
1914.04	0.954
1922.81	0.955
1931.58	0.957
1940.35	0.957
1949.12	0.957
1957.9	0.955
1966.67	0.955
1975.44	0.954
1984.21	0.954
1992.98	0.955
2001.76	0.955
2010.53	0.955
2019.3	0.955
2028.07	0.955
2036.84	0.954
2045.62	0.951
2054.39	0.95
2063.16	0.951
2071.93	0.953
2080.7	0.953
2089.48	0.953
2098.25	0.953
2107.02	0.953
2115.79	0.953
2124.56	0.953
2133.34	0.953
2142.11	0.953
2150.88	0.953
2159.65	0.9528
2168.42	0.951
2177.2	0.951
2185.97	0.951
2194.74	0.951
2203.51	0.951
2212.28	0.951
2221.06	0.947
2229.83	0.947
2238.6	0.947
2247.37	0.947
2256.14	0.9457
2264.91	0.9417
2273.69	0.937
2282.46	0.931
2291.23	0.9288
2300	0.925
2308.77	0.926
2317.55	0.931
2326.32	0.9306
2335.09	0.9276
2343.86	0.9258
2352.63	0.925
2361.41	0.928
2370.18	0.929
2378.95	0.935
2387.72	0.9405
2396.49	0.943
2405.27	0.943
2414.04	0.943
2422.81	0.944
2431.58	0.944
2440.35	0.944
2449.13	0.944
2457.9	0.943
2466.67	0.943
2475.44	0.946
2484.21	0.9437
2492.99	0.943
2501.76	0.946
2510.53	0.946
2519.3	0.944
2528.07	0.944
2536.85	0.944
2545.62	0.944
2554.39	0.946
2563.16	0.946
2571.93	0.9453
2580.7	0.944
2589.48	0.943
2598.25	0.943
2607.02	0.942
2615.79	0.942
2624.56	0.942
2633.34	0.942
2642.11	0.942
2650.88	0.9424
2659.65	0.9412
2668.42	0.9366
2677.2	0.932
2685.97	0.9286
2694.74	0.926
2703.51	0.926
2712.28	0.926
2721.06	0.926
2729.83	0.926
2738.6	0.9215
2747.37	0.915
2756.14	0.915
2764.92	0.918
2773.69	0.918
2782.46	0.9175
2791.23	0.916
2800	0.9125
2808.78	0.905
2817.55	0.892
2826.32	0.8735
2835.09	0.8515
2843.86	0.8076
2852.63	0.6824
2861.41	0.674
2870.18	0.4926
2878.95	0.2781
2887.72	0.3902
2896.49	0.547
2905.27	0.4785
2914.04	0.448
2922.81	0.3923
2931.58	0.2839
2940.35	0.1662
2949.13	0.2208
2957.9	0.1581
2966.67	0.0392
2975.44	0.1049
2984.21	0.3479
2992.99	0.502
3001.76	0.633
3010.53	0.7363
3019.3	0.7932
3028.07	0.8266
3036.85	0.8509
3045.62	0.8686
3054.39	0.8826
3063.16	0.892
3071.93	0.9004
3080.71	0.9107
3089.48	0.9147
3098.25	0.92
3107.02	0.924
3115.79	0.9274
3124.57	0.929
3133.34	0.929
3142.11	0.9304
3150.88	0.931
3159.65	0.9317
3168.42	0.932
3177.2	0.932
3185.97	0.931
3194.74	0.931
3203.51	0.931
3212.28	0.9318
3221.06	0.932
3229.83	0.932
3238.6	0.9345
3247.37	0.936
3256.14	0.937
3264.92	0.937
3273.69	0.936
3282.46	0.935
3291.23	0.933
3300	0.933
3308.78	0.933
3317.55	0.933
3326.32	0.932
3335.09	0.932
3343.86	0.931
3352.64	0.931
3361.41	0.931
3370.18	0.931
3378.95	0.931
3387.72	0.931
3396.5	0.931
3405.27	0.9281
3414.04	0.926
3422.81	0.924
3431.58	0.922
3440.36	0.921
3449.13	0.9201
3457.9	0.9141
3466.67	0.9071
3475.44	0.908
3484.21	0.9129
3492.99	0.9179
3501.76	0.92
3510.53	0.917
3519.3	0.914
3528.07	0.915
3536.85	0.9199
3545.62	0.922
3554.39	0.921
3563.16	0.917
3571.93	0.917
3580.71	0.92
3589.48	0.92
3598.25	0.921
3607.02	0.926
3615.79	0.931
3624.57	0.931
3633.34	0.9279
3642.11	0.922
3650.88	0.9221
3659.65	0.9401
3668.43	0.953
3677.2	0.957
3685.97	0.958
3694.74	0.958
3703.51	0.96
3712.29	0.96
3721.06	0.96
3729.83	0.96
3738.6	0.96
3747.37	0.96
3756.15	0.96
3764.92	0.958
3773.69	0.958
3782.46	0.958
3791.23	0.958
