Infrared Spectrum: 2-Hexanone
Formula: C6 H12 O
CAS: 591-78-6
State: SOLUTION (10% CCl4 FOR 3800-1330, 10% CS2 FOR 1330-450 CM^-^1)
Class: COBLENTZ III
Instrument: DOW KBr FOREPRISM-GRATING
Instrument parameters: BLAZED AT 3.5, 12.0, 20.0 MICRON AND CHANGED AT 5.0, 7.5, 14.9 MICRON
Sampling: TRANSMISSION
Path length: 0.011 CM, 0.011 CM
Resolution: 2
Origin: DOW CHEMICAL COMPANY
1/CM	TRANSMITTANCE
383	0.1365
392	0.1452
401	0.2527
410	0.5093
419	0.6554
428	0.7068
437	0.7462
446	0.7692
455	0.7694
464	0.7585
473	0.7481
482	0.7911
491	0.8282
500	0.835
509	0.8106
518	0.7924
527	0.7858
536	0.7743
545	0.8563
554	0.873
563	0.8693
572	0.8364
581	0.7335
590	0.7433
599	0.7832
608	0.8796
617	0.8865
626	0.8866
635	0.8659
644	0.8382
653	0.8431
662	0.8768
671	0.8874
680	0.8886
689	0.8838
698	0.8705
707	0.8346
716	0.7226
725	0.6948
734	0.8251
743	0.868
752	0.8848
761	0.8681
770	0.8475
779	0.8723
788	0.8705
797	0.8799
806	0.8836
815	0.8818
824	0.8849
833	0.8746
842	0.8355
851	0.7672
860	0.7453
869	0.768
878	0.7918
887	0.7991
896	0.8015
905	0.8702
914	0.8781
923	0.869
932	0.8425
941	0.7993
950	0.7437
959	0.718
968	0.7447
977	0.6944
986	0.6468
995	0.6757
1004	0.7919
1013	0.8216
1022	0.8408
1031	0.847
1040	0.8438
1049	0.8346
1058	0.8304
1067	0.8335
1076	0.8295
1085	0.8105
1094	0.769
1103	0.6918
1112	0.7248
1121	0.7835
1130	0.7737
1139	0.7141
1148	0.5529
1157	0.2367
1166	0.1141
1175	0.4585
1184	0.578
1193	0.6604
1202	0.7037
1211	0.661
1220	0.5518
1229	0.5127
1238	0.5726
1247	0.5903
1256	0.5869
1265	0.7
1274	0.7078
1283	0.6928
1292	0.6801
1301	0.6385
1310	0.6243
1319	0.6049
1328	0.5655
1337	0.5831
1346	0.3998
1355	0.1211
1364	0.1391
1373	0.2552
1382	0.3061
1391	0.55
1400	0.5448
1409	0.3347
1418	0.3559
1427	0.3868
1436	0.4304
1445	0.4467
1454	0.3762
1463	0.3421
1472	0.4926
1481	0.6833
1490	0.7094
1499	0.6978
1508	0.6607
1517	0.6245
1526	0.59
1535	0.5424
1544	0.4776
1553	0.4564
1562	0.501
1571	0.5737
1580	0.6021
1589	0.6356
1598	0.7097
1607	0.766
1616	0.7725
1625	0.789
1634	0.7937
1643	0.7938
1652	0.7841
1661	0.7532
1670	0.6968
1679	0.6118
1688	0.5249
1697	0.339
1706	0.1089
1715	0.0039
1724	0.0325
1733	0.3302
1742	0.5564
1751	0.665
1760	0.7292
1769	0.7771
1778	0.8099
1787	0.8262
1796	0.8368
1805	0.8468
1814	0.8524
1823	0.8559
1832	0.8588
1841	0.8628
1850	0.8665
1859	0.869
1868	0.8703
1877	0.8716
1886	0.8731
1895	0.8744
1904	0.8754
1913	0.8762
1922	0.8773
1931	0.8774
1940	0.8768
1949	0.8756
1958	0.8736
1967	0.8711
1976	0.8682
1985	0.8647
1994	0.8471
2003	0.8694
2012	0.8701
2021	0.8701
2030	0.8703
2039	0.8705
2048	0.8705
2057	0.8705
2066	0.8704
2075	0.8701
2084	0.87
2093	0.8699
2102	0.8702
2111	0.8703
2120	0.8706
2129	0.8707
2138	0.8709
2147	0.8711
2156	0.8713
2165	0.8714
2174	0.8714
2183	0.8715
2192	0.8715
2201	0.8713
2210	0.8709
2219	0.8702
2228	0.8698
2237	0.8678
2246	0.8657
2255	0.8634
2264	0.8606
2273	0.8574
2282	0.8546
2291	0.8527
2300	0.853
2309	0.8541
2318	0.8564
2327	0.8599
2336	0.8568
2345	0.8638
2354	0.8675
2363	0.8714
2372	0.8739
2381	0.8754
2390	0.8762
2399	0.8763
2408	0.8764
2417	0.8765
2426	0.8763
2435	0.876
2444	0.8759
2453	0.8754
2462	0.8749
2471	0.8738
2480	0.8724
2489	0.8723
2498	0.8733
2507	0.8728
2516	0.8725
2525	0.8718
2534	0.8712
2543	0.8705
2552	0.8698
2561	0.869
2570	0.8683
2579	0.8675
2588	0.8665
2597	0.8656
2606	0.8649
2615	0.8643
2624	0.8638
2633	0.862
2642	0.8567
2651	0.8511
2660	0.849
2669	0.8485
2678	0.8513
2687	0.8539
2696	0.8525
2705	0.8475
2714	0.8418
2723	0.8365
2732	0.8335
2741	0.8384
2750	0.8401
2759	0.8352
2768	0.8281
2777	0.8182
2786	0.8025
2795	0.784
2804	0.7694
2813	0.7584
2822	0.7215
2831	0.6724
2840	0.6074
2849	0.4469
2858	0.2803
2867	0.226
2876	0.1557
2885	0.3102
2894	0.3177
2903	0.2982
2912	0.2507
2921	0.1849
2930	0.0725
2939	0.0794
2948	0.109
2957	0.0763
2966	0.0229
2975	0.1768
2984	0.3609
2993	0.5309
3002	0.5692
3011	0.5896
3020	0.7169
3029	0.7575
3038	0.7783
3047	0.791
3056	0.7993
3065	0.8067
3074	0.8139
3083	0.821
3092	0.828
3101	0.834
3110	0.8391
3119	0.8428
3128	0.8447
3137	0.8457
3146	0.8467
3155	0.8475
3164	0.8484
3173	0.8488
3182	0.8492
3191	0.8496
3200	0.8503
3209	0.8521
3218	0.856
3227	0.8603
3236	0.8636
3245	0.8652
3254	0.8667
3263	0.8671
3272	0.8675
3281	0.868
3290	0.8686
3299	0.869
3308	0.869
3317	0.869
3326	0.8689
3335	0.8684
3344	0.868
3353	0.8671
3362	0.8661
3371	0.863
3380	0.8568
3389	0.8446
3398	0.83
3407	0.8165
3416	0.8042
3425	0.8111
3434	0.842
3443	0.8684
3452	0.872
3461	0.8728
3470	0.8736
3479	0.8743
3488	0.875
3497	0.8754
3506	0.8759
3515	0.8762
3524	0.8767
3533	0.8771
3542	0.8781
3551	0.8791
3560	0.8803
3569	0.8814
3578	0.8824
3587	0.8832
3596	0.8836
3605	0.8834
3614	0.8828
3623	0.8818
3632	0.8808
3641	0.8803
3650	0.8798
3659	0.8792
3668	0.8774
3677	0.8756
3686	0.8746
3695	0.8817
3704	0.8863
3713	0.8889
3722	0.8895
3731	0.8901
