Infrared Spectrum: ACETIC ACID, 2-PROPENYL ESTER
Formula: C5 H8 O2
CAS: 591-87-7
State: VAPOR (5 MICROLITER AT 150 C)
Boiling point: 104 C
Class: COBLENTZ
Instrument: PERKIN-ELMER 180
Sampling: TRANSMISSION
Path length: 5 CM KBr CELL, CELL VOLUME: 80 CM^3
Resolution: 2-3 CM^-^1
Origin: PERKIN-ELMER CORP. (M. ZELLER)
1/CM	TRANSMITTANCE
405.212	0.548
414.333	0.6119
423.453	0.681
432.574	0.725
441.694	0.778
450.815	0.8149
459.935	0.842
469.056	0.8779
478.176	0.899
487.297	0.916
496.418	0.928
505.538	0.92
514.659	0.928
523.779	0.929
532.9	0.928
542.02	0.933
551.141	0.932
560.261	0.934
569.382	0.937
578.502	0.933
587.623	0.921
596.744	0.907
605.864	0.895
614.985	0.899
624.105	0.908
633.226	0.928
642.346	0.937
651.467	0.943
660.587	0.946
669.708	0.946
678.829	0.943
687.949	0.933
697.07	0.929
706.19	0.941
715.311	0.945
724.431	0.942
733.552	0.933
742.672	0.929
751.793	0.929
760.913	0.926
770.034	0.925
779.155	0.926
788.275	0.921
797.396	0.921
806.516	0.917
815.637	0.915
824.757	0.907
833.878	0.903
842.998	0.904
852.119	0.908
861.24	0.912
870.36	0.911
879.481	0.904
888.601	0.898
897.722	0.885
906.842	0.865
915.963	0.819
925.083	0.766
934.204	0.774
943.324	0.817
952.445	0.856
961.566	0.852
970.686	0.827
979.807	0.778
988.927	0.751
998.048	0.736
1007.17	0.665
1016.29	0.5911
1025.41	0.541
1034.53	0.569
1043.65	0.646
1052.77	0.724
1061.89	0.77
1071.01	0.778
1080.13	0.779
1089.25	0.781
1098.37	0.791
1107.49	0.812
1116.61	0.834
1125.74	0.853
1134.86	0.86
1143.98	0.857
1153.1	0.851
1162.22	0.839
1171.34	0.827
1180.46	0.805
1189.58	0.765
1198.7	0.6941
1207.82	0.5111
1216.94	0.274
1226.06	0.127
1235.18	0.108
1244.3	0.194
1253.42	0.404
1262.54	0.5839
1271.66	0.656
1280.78	0.697
1289.91	0.7409
1299.03	0.797
1308.15	0.831
1317.27	0.848
1326.39	0.855
1335.51	0.851
1344.63	0.836
1353.75	0.791
1362.87	0.708
1371.99	0.614
1381.11	0.588
1390.23	0.664
1399.35	0.753
1408.47	0.791
1417.59	0.798
1426.71	0.795
1435.83	0.788
1444.95	0.778
1454.08	0.776
1463.2	0.797
1472.32	0.823
1481.44	0.844
1490.56	0.853
1499.68	0.857
1508.8	0.857
1517.92	0.857
1527.04	0.857
1536.16	0.856
1545.28	0.853
1554.4	0.851
1563.52	0.847
1572.64	0.84
1581.76	0.836
1590.88	0.827
1600	0.827
1609.12	0.832
1618.25	0.832
1627.37	0.834
1636.49	0.827
1645.61	0.822
1654.73	0.819
1663.85	0.823
1672.97	0.819
1682.09	0.809
1691.21	0.812
1700.33	0.806
1709.45	0.792
1718.57	0.77
1727.69	0.731
1736.81	0.634
1745.93	0.4661
1755.05	0.288
1764.17	0.258
1773.29	0.305
1782.42	0.5089
1791.54	0.682
1800.66	0.784
1809.78	0.84
1818.9	0.87
1828.02	0.883
1837.14	0.887
1846.26	0.887
1855.38	0.887
1864.5	0.889
1873.62	0.892
1882.74	0.898
1891.86	0.899
1900.98	0.899
1910.1	0.9
1919.22	0.9
1928.34	0.902
1937.46	0.903
1946.59	0.9
1955.71	0.902
1964.83	0.9
1973.95	0.899
1983.07	0.9
1992.19	0.899
2001.31	0.891
2010.43	0.885
2019.55	0.886
2028.67	0.885
2037.79	0.883
2046.91	0.883
2056.03	0.883
2065.15	0.883
2074.27	0.8835
2083.39	0.8835
2092.51	0.882
2101.63	0.881
2110.75	0.882
2119.88	0.8826
2129	0.883
2138.12	0.883
2147.24	0.885
2156.36	0.885
2165.48	0.885
2174.6	0.883
2183.72	0.882
2192.84	0.882
2201.96	0.8819
2211.08	0.882
2220.2	0.882
2229.32	0.882
2238.44	0.881
2247.56	0.8782
2256.68	0.881
2265.8	0.878
2274.92	0.878
2284.05	0.877
2293.17	0.875
2302.29	0.8739
2311.41	0.8709
2320.53	0.87
2329.65	0.872
2338.77	0.873
2347.89	0.87
2357.01	0.8681
2366.13	0.868
2375.25	0.869
2384.37	0.87
2393.49	0.87
2402.61	0.868
2411.73	0.868
2420.85	0.866
2429.97	0.8653
2439.09	0.8637
2448.22	0.8632
2457.34	0.864
2466.46	0.864
2475.58	0.864
2484.7	0.864
2493.82	0.864
2502.94	0.864
2512.06	0.864
2521.18	0.864
2530.3	0.862
2539.42	0.861
2548.54	0.861
2557.66	0.861
2566.78	0.859
2575.9	0.859
2585.02	0.857
2594.14	0.857
2603.26	0.857
2612.39	0.857
2621.51	0.857
2630.63	0.857
2639.75	0.8565
2648.87	0.855
2657.99	0.8541
2667.11	0.853
2676.23	0.853
2685.35	0.8521
2694.47	0.851
2703.59	0.851
2712.71	0.848
2721.83	0.848
2730.95	0.8478
2740.07	0.847
2749.19	0.8448
2758.31	0.843
2767.43	0.843
2776.56	0.842
2785.68	0.8399
2794.8	0.8369
2803.92	0.836
2813.04	0.833
2822.16	0.8281
2831.28	0.8241
2840.4	0.8171
2849.52	0.8075
2858.64	0.8003
2867.76	0.7943
2876.88	0.7894
2886	0.7825
2895.12	0.7793
2904.24	0.7704
2913.36	0.7556
2922.48	0.7429
2931.6	0.7213
2940.73	0.7014
2949.85	0.6946
2958.97	0.7044
2968.09	0.7305
2977.21	0.744
2986.33	0.7519
2995.45	0.7568
3004.57	0.761
3013.69	0.7629
3022.81	0.7653
3031.93	0.7705
3041.05	0.776
3050.17	0.7752
3059.29	0.7733
3068.41	0.7673
3077.53	0.7563
3086.65	0.7461
3095.77	0.7536
3104.89	0.7748
3114.02	0.7922
3123.14	0.8005
3132.26	0.805
3141.38	0.805
3150.5	0.806
3159.62	0.806
3168.74	0.806
3177.86	0.806
3186.98	0.805
3196.1	0.804
3205.22	0.804
3214.34	0.805
3223.46	0.806
3232.58	0.806
3241.7	0.806
3250.82	0.8059
3259.94	0.805
3269.06	0.804
3278.19	0.804
3287.31	0.804
3296.43	0.804
3305.55	0.804
3314.67	0.802
3323.79	0.802
3332.91	0.802
3342.03	0.802
3351.15	0.802
3360.27	0.802
3369.39	0.8017
3378.51	0.801
3387.63	0.801
3396.75	0.801
3405.87	0.802
3414.99	0.801
3424.11	0.802
3433.23	0.8014
3442.36	0.801
3451.48	0.8005
3460.6	0.8
3469.72	0.798
3478.84	0.796
3487.96	0.792
3497.08	0.7872
3506.2	0.788
3515.32	0.7928
3524.44	0.7953
3533.56	0.796
3542.68	0.797
3551.8	0.796
3560.92	0.793
3570.04	0.791
3579.16	0.789
3588.28	0.791
3597.4	0.7921
3606.53	0.793
3615.65	0.795
3624.77	0.795
3633.89	0.796
3643.01	0.7941
3652.13	0.792
3661.25	0.7916
3670.37	0.791
3679.49	0.789
3688.61	0.789
3697.73	0.789
3706.85	0.789
3715.97	0.7888
3725.09	0.788
3734.21	0.788
3743.33	0.788
3752.45	0.788
3761.57	0.787
3770.7	0.7869
3779.82	0.785
3788.94	0.784
3798.06	0.785
3807.18	0.7842
3816.3	0.7836
3825.42	0.7801
3834.54	0.7803
3843.66	0.784
3852.78	0.78
3861.9	0.7792
3871.02	0.779
3880.14	0.779
3889.26	0.779
3898.38	0.778
3907.5	0.778
3916.62	0.778
3925.74	0.7779
3934.87	0.775
3943.99	0.774
3953.11	0.775
3962.23	0.774
3971.35	0.772
3980.47	0.774
3989.59	0.7716
3998.71	0.771
4007.83	0.771
4016.95	0.771
