Infrared Spectrum: M-BROMOPHENOL
Formula: C6 H5 Br O
CAS: 591-20-8
State: LIQUID
Class: COBLENTZ
Instrument: Not specified, most likely a prism, grating, or hybrid spectrometer.
Sampling: TRANSMISSION
Path length: 0.003 CM
Resolution: 4
Origin: WYANDOTTE CHEMICALS CORP., WYANDOTTE, MICHIGAN, USA
MICROMETERS	TRANSMITTANCE
2.048	0.972
2.08884	0.971
2.12967	0.967
2.17051	0.977
2.21134	0.984
2.25218	0.979
2.29301	0.979
2.33385	0.974
2.37468	0.962
2.41552	0.928
2.45635	0.938
2.49719	0.935
2.53802	0.928
2.57886	0.933
2.61969	0.938
2.66053	0.933
2.70136	0.921
2.7422	0.881
2.78303	0.636
2.82387	0.269
2.8647	0.157
2.90554	0.117
2.94637	0.081
2.98721	0.056
3.02804	0.042
3.06888	0.057
3.10971	0.103
3.15055	0.178
3.19138	0.305
3.23222	0.448
3.27305	0.448
3.31389	0.56
3.35472	0.704
3.39556	0.706
3.43639	0.713
3.47723	0.755
3.51806	0.77
3.5589	0.76
3.59973	0.728
3.64057	0.755
3.6814	0.791
3.72224	0.779
3.76307	0.735
3.80391	0.762
3.84474	0.797
3.88558	0.803
3.92641	0.78
3.96725	0.769
4.00809	0.791
4.04892	0.804
4.08976	0.77
4.13059	0.76
4.17143	0.774
4.21226	0.818
4.2531	0.825
4.29393	0.84
4.33477	0.852
4.3756	0.864
4.41644	0.874
4.45727	0.889
4.49811	0.886
4.53894	0.889
4.57978	0.896
4.62061	0.898
4.66145	0.898
4.70228	0.893
4.74312	0.874
4.78395	0.865
4.82479	0.852
4.86562	0.859
4.90646	0.865
4.94729	0.877
4.98813	0.881
5.02896	0.879
5.0698	0.879
5.11063	0.879
5.15147	0.881
5.1923	0.87
5.23314	0.806
5.27397	0.796
5.31481	0.853
5.35564	0.869
5.39648	0.85
5.43731	0.809
5.47815	0.803
5.51898	0.823
5.55982	0.837
5.60065	0.847
5.64149	0.823
5.68232	0.809
5.72316	0.772
5.76399	0.772
5.80483	0.77
5.84566	0.772
5.8865	0.78
5.92733	0.77
5.96817	0.784
6.00901	0.772
6.04984	0.764
6.09068	0.74
6.13151	0.634
6.17235	0.325
6.21318	0.028
6.25402	0.032
6.29485	0.037
6.33569	0.298
6.37652	0.505
6.41736	0.575
6.45819	0.582
6.49903	0.495
6.53986	0.461
6.5807	0.582
6.62153	0.614
6.66237	0.519
6.7032	0.05
6.74404	0.042
6.78487	0.04
6.82571	0.076
6.86654	0.054
6.90738	0.04
6.94821	0.059
6.98905	0.3
7.02988	0.414
7.07072	0.453
7.11155	0.46
7.15239	0.514
7.19322	0.567
7.23406	0.551
7.27489	0.443
7.31573	0.351
7.35656	0.266
7.3974	0.21
7.43823	0.191
7.47907	0.166
7.5199	0.151
7.56074	0.113
7.60157	0.103
7.64241	0.135
7.68324	0.088
7.72408	0.073
7.76491	0.292
7.80575	0.482
7.84658	0.505
7.88742	0.439
7.92826	0.283
7.96909	0.115
8.00993	0.042
8.05076	0.037
8.0916	0.044
8.13243	0.045
8.17327	0.042
8.2141	0.042
8.25494	0.042
8.29577	0.042
8.33661	0.054
8.37744	0.059
8.41828	0.066
8.45911	0.081
8.49995	0.118
8.54078	0.169
8.58162	0.188
8.62245	0.123
8.66329	0.285
8.70412	0.434
8.74496	0.504
8.78579	0.543
8.82663	0.57
8.86746	0.582
8.9083	0.595
8.94913	0.633
8.98997	0.653
9.0308	0.663
9.07164	0.66
9.11247	0.604
9.15331	0.365
9.19414	0.179
9.23498	0.485
9.27581	0.578
9.31665	0.522
9.35748	0.2
9.39832	0.125
9.43915	0.502
9.47999	0.657
9.52082	0.707
9.56166	0.723
9.60249	0.736
9.64333	0.735
9.68416	0.74
9.725	0.74
9.76583	0.741
9.80667	0.743
9.84751	0.738
9.88834	0.716
9.92918	0.684
9.97001	0.555
10.0108	0.268
10.0517	0.315
10.0925	0.68
10.1334	0.701
10.1742	0.704
10.215	0.733
10.2559	0.735
10.2967	0.726
10.3375	0.704
10.3784	0.696
10.4192	0.707
10.46	0.736
10.5009	0.748
10.5417	0.764
10.5825	0.765
10.6234	0.769
10.6642	0.767
10.705	0.764
10.7459	0.76
10.7867	0.758
10.8275	0.747
10.8684	0.733
10.9092	0.736
10.9501	0.735
10.9909	0.731
11.0317	0.716
11.0726	0.684
11.1134	0.64
11.1542	0.636
11.1951	0.611
11.2359	0.565
11.2767	0.473
11.3176	0.375
11.3584	0.259
11.3992	0.195
11.4401	0.146
11.4809	0.091
11.5217	0.045
11.5626	0.03
11.6034	0.03
11.6442	0.03
11.6851	0.032
11.7259	0.045
11.7668	0.067
11.8076	0.091
11.8484	0.113
11.8893	0.162
11.9301	0.261
11.9709	0.354
12.0118	0.478
12.0526	0.536
12.0934	0.568
12.1343	0.584
12.1751	0.587
12.2159	0.589
12.2568	0.604
12.2976	0.612
12.3384	0.616
12.3793	0.616
12.4201	0.611
12.461	0.606
12.5018	0.599
12.5426	0.582
12.5835	0.563
12.6243	0.526
12.6651	0.475
12.706	0.388
12.7468	0.263
12.7876	0.178
12.8285	0.098
12.8693	0.059
12.9101	0.054
12.951	0.05
12.9918	0.047
13.0326	0.049
13.0735	0.078
13.1143	0.14
13.1551	0.264
13.196	0.353
13.2368	0.412
13.2777	0.443
13.3185	0.466
13.3593	0.488
13.4002	0.511
13.441	0.517
13.4818	0.528
13.5227	0.526
13.5635	0.529
13.6043	0.528
13.6452	0.529
13.686	0.531
13.7268	0.521
13.7677	0.524
13.8085	0.522
13.8493	0.521
13.8902	0.519
13.931	0.516
13.9719	0.516
14.0127	0.509
14.0535	0.507
14.0944	0.502
14.1352	0.499
14.176	0.499
14.2169	0.492
14.2577	0.483
14.2985	0.475
14.3394	0.473
14.3802	0.461
14.421	0.455
14.4619	0.444
14.5027	0.432
14.5435	0.412
14.5844	0.388
14.6252	0.336
14.666	0.29
14.7069	0.237
14.7477	0.21
14.7886	0.193
14.8294	0.195
14.8702	0.202
14.9111	0.232
14.9519	0.273
14.9927	0.319
15.0336	0.368
15.0744	0.393
15.1152	0.402
15.1561	0.427
15.1969	0.463
15.2377	0.483
15.2786	0.492
15.3194	0.497
15.3602	0.509
15.4011	0.511
15.4419	0.512
15.4827	0.517
15.5236	0.522
15.5644	0.526
15.6053	0.529
15.6461	0.534
15.6869	0.538
15.7278	0.538
15.7686	0.541
15.8094	0.546
15.8503	0.55
15.8911	0.551
15.9319	0.555
15.9728	0.56
