Infrared Spectrum: ANILINE, 3-BROMO-
Formula: C6 H6 Br N
CAS: 591-19-5
State: SOLUTION (10% CCl4 FOR 3800-1340, 10% CS2 FOR 1340-450 CM^-^1)
Class: COBLENTZ III
Instrument: DOW KBr FOREPRISM-GRATING
Instrument parameters: BLAZED AT 3.5, 12.0, 20.0 MICRON AND CHANGED AT 5.0, 7.5, 14.9 MICRON
Sampling: TRANSMISSION
Path length: 0.011 CM, 0.012 CM
Resolution: 2
Origin: DOW CHEMICAL COMPANY
1/CM	TRANSMITTANCE
3804	0.8875
3795	0.8882
3786	0.8889
3777	0.8895
3768	0.8898
3759	0.8891
3750	0.8885
3741	0.8878
3732	0.8878
3723	0.888
3714	0.8882
3705	0.8885
3696	0.8892
3687	0.89
3678	0.8909
3669	0.8918
3660	0.8928
3651	0.8928
3642	0.8924
3633	0.8911
3624	0.8899
3615	0.8885
3606	0.8875
3597	0.8864
3588	0.8375
3579	0.8728
3570	0.8843
3561	0.8825
3552	0.8783
3543	0.8712
3534	0.8601
3525	0.8406
3516	0.77
3507	0.6062
3498	0.5065
3489	0.5596
3480	0.6128
3471	0.6658
3462	0.719
3453	0.7721
3444	0.8099
3435	0.8112
3426	0.7598
3417	0.4842
3408	0.3766
3399	0.4894
3390	0.6136
3381	0.7212
3372	0.7574
3363	0.7956
3354	0.8262
3345	0.8508
3336	0.8658
3327	0.8765
3318	0.8848
3309	0.89
3300	0.8936
3291	0.8956
3282	0.8958
3273	0.8943
3264	0.8918
3255	0.8886
3246	0.8814
3237	0.8725
3228	0.8614
3219	0.8473
3210	0.8317
3201	0.8365
3192	0.8696
3183	0.8758
3174	0.8778
3165	0.878
3156	0.8775
3147	0.8811
3138	0.8849
3129	0.8874
3120	0.8865
3111	0.8825
3102	0.8675
3093	0.8287
3084	0.8188
3075	0.8008
3066	0.7217
3057	0.7326
3048	0.7636
3039	0.8068
3030	0.765
3021	0.7818
3012	0.8064
3003	0.8478
2994	0.8662
2985	0.8746
2976	0.879
2967	0.8785
2958	0.8735
2949	0.8671
2940	0.8718
2931	0.8706
2922	0.8615
2913	0.8539
2904	0.8591
2895	0.8641
2886	0.8616
2877	0.8601
2868	0.8644
2859	0.8643
2850	0.8632
2841	0.8686
2832	0.8743
2823	0.8771
2814	0.8793
2805	0.8806
2796	0.8818
2787	0.8832
2778	0.8774
2769	0.8762
2760	0.8771
2751	0.8734
2742	0.8599
2733	0.8601
2724	0.8706
2715	0.8785
2706	0.882
2697	0.8825
2688	0.8798
2679	0.8754
2670	0.8721
2661	0.8731
2652	0.8749
2643	0.876
2634	0.8737
2625	0.8704
2616	0.8683
2607	0.8686
2598	0.8697
2589	0.8712
2580	0.8728
2571	0.8737
2562	0.8697
2553	0.8733
2544	0.8798
2535	0.8836
2526	0.8845
2517	0.8852
2508	0.8857
2499	0.8864
2490	0.8858
2481	0.8836
2472	0.8836
2463	0.884
2454	0.8851
2445	0.8864
2436	0.8875
2427	0.8886
2418	0.8884
2409	0.8885
2400	0.8875
2391	0.8828
2382	0.8786
2373	0.8745
2364	0.8721
2355	0.8713
2346	0.8709
2337	0.8699
2328	0.873
2319	0.8773
2310	0.877
2301	0.8747
2292	0.8737
2283	0.8751
2274	0.8786
2265	0.8821
2256	0.8851
2247	0.8875
2238	0.889
2229	0.8884
2220	0.8889
2211	0.889
2202	0.889
2193	0.8889
2184	0.8889
2175	0.8889
2166	0.8886
2157	0.8885
2148	0.8887
2139	0.889
2130	0.8856
2121	0.884
2112	0.8878
2103	0.8848
2094	0.8858
2085	0.8875
2076	0.8866
2067	0.8767
2058	0.8628
2049	0.8699
2040	0.8812
2031	0.8758
2022	0.8754
2013	0.8816
2004	0.8882
1995	0.8893
1986	0.8789
1977	0.8792
1968	0.8803
1959	0.8937
1950	0.879
1941	0.8774
1932	0.8715
1923	0.852
1914	0.8221
1905	0.8597
1896	0.8683
1887	0.8731
1878	0.8711
1869	0.8643
1860	0.8589
1851	0.8633
1842	0.8644
1833	0.8577
1824	0.8421
1815	0.8548
1806	0.8682
1797	0.8704
1788	0.8712
1779	0.8742
1770	0.8755
1761	0.8737
1752	0.863
1743	0.8533
1734	0.848
1725	0.8401
1716	0.84
1707	0.8357
1698	0.8256
1689	0.8193
1680	0.8275
1671	0.8296
1662	0.8149
1653	0.786
1644	0.7026
1635	0.3041
1626	0.0233
1617	0.0436
1608	0.1128
1599	0.036
1590	0.1184
1581	0.0407
1572	0.2471
1563	0.3968
1554	0.3887
1545	0.3957
1536	0.486
1527	0.5022
1518	0.5304
1509	0.616
1500	0.6201
1491	0.3153
1482	0.0156
1473	0.6185
1464	0.7514
1455	0.7755
1446	0.4492
1437	0.7528
1428	0.7898
1419	0.7801
1410	0.7571
1401	0.7783
1392	0.821
1383	0.8534
1374	0.8491
1365	0.858
1356	0.8481
1347	0.8478
1338	0.8343
1329	0.6378
1320	0.5036
1311	0.6256
1302	0.4532
1293	0.5912
1284	0.73
1275	0.6851
1266	0.184
1257	0.6593
1248	0.8006
1239	0.841
1230	0.8678
1221	0.8771
1212	0.8766
1203	0.8623
1194	0.8588
1185	0.8681
1176	0.8549
1167	0.3292
1158	0.7851
1149	0.8446
1140	0.8635
1131	0.874
1122	0.8612
1113	0.8459
1104	0.8528
1095	0.8615
1086	0.8512
1077	0.7805
1068	0.3528
1059	0.7386
1050	0.8193
1041	0.8639
1032	0.8725
1023	0.8744
1014	0.8796
1005	0.8648
996	0.4264
987	0.7371
978	0.8199
969	0.8506
960	0.8399
951	0.8457
942	0.8563
933	0.8582
924	0.8567
915	0.8516
906	0.8395
897	0.8154
888	0.7401
879	0.3745
870	0.2297
861	0.2158
852	0.1998
843	0.333
834	0.6731
825	0.7197
816	0.7248
807	0.7256
798	0.7058
789	0.6624
780	0.5319
771	0.1589
762	0.0562
753	0.5687
744	0.6603
735	0.6818
726	0.6833
717	0.6765
708	0.6682
699	0.6497
690	0.5712
681	0.0662
672	0.2565
663	0.5401
654	0.5432
645	0.5636
636	0.5828
627	0.5971
618	0.6065
609	0.6143
600	0.6246
591	0.6344
582	0.6465
573	0.6668
564	0.6945
555	0.6387
546	0.6206
537	0.626
528	0.5858
519	0.5857
510	0.5804
501	0.5637
492	0.5549
483	0.5502
474	0.5472
465	0.5456
456	0.545
