Infrared Spectrum: 2,3-DIHYDRO-5-METHYL-2-FURANONE
Formula: C5 H6 O2
CAS: 591-12-8
State: LIQUID
Class: COBLENTZ
Instrument: PERKIN-ELMER
Sampling: TRANSMISSION
Path length: CAPILLARY
Resolution: 4
Origin: ABBOTT LABORATORIES - WASHBURN
MICROMETERS	TRANSMITTANCE
2.036	0.905
2.07222	0.912
2.10843	0.908
2.14465	0.9119
2.18086	0.917
2.21708	0.923
2.2533	0.927
2.28951	0.9327
2.32573	0.9293
2.36194	0.93
2.39816	0.9301
2.43438	0.935
2.47059	0.935
2.50681	0.9348
2.54302	0.936
2.57924	0.942
2.61546	0.938
2.65167	0.9379
2.68789	0.944
2.7241	0.941
2.76032	0.9393
2.79653	0.9276
2.83275	0.9123
2.86897	0.9049
2.90518	0.917
2.9414	0.918
2.97761	0.9177
3.01383	0.924
3.05005	0.921
3.08626	0.927
3.12248	0.932
3.15869	0.9359
3.19491	0.938
3.23113	0.935
3.26734	0.9301
3.30356	0.942
3.33977	0.9498
3.37599	0.9331
3.41221	0.9151
3.44842	0.8913
3.48464	0.8839
3.52085	0.9177
3.55707	0.938
3.59329	0.956
3.6295	0.968
3.66572	0.965
3.70193	0.9709
3.73815	0.972
3.77437	0.966
3.81058	0.96
3.8468	0.9571
3.88301	0.953
3.91923	0.953
3.95545	0.947
3.99166	0.9393
4.02788	0.935
4.06409	0.936
4.10031	0.932
4.13652	0.9231
4.17274	0.92
4.20896	0.914
4.24517	0.903
4.28139	0.9
4.3176	0.899
4.35382	0.899
4.39004	0.899
4.42625	0.89
4.46247	0.884
4.49868	0.882
4.5349	0.8731
4.57112	0.864
4.60733	0.867
4.64355	0.864
4.67976	0.87
4.71598	0.869
4.7522	0.8642
4.78841	0.854
4.82463	0.8579
4.86084	0.8552
4.89706	0.851
4.93328	0.8421
4.96949	0.837
5.00571	0.8458
5.04192	0.8422
5.07814	0.846
5.11436	0.848
5.15057	0.846
5.18679	0.8441
5.223	0.8407
5.25922	0.842
5.29544	0.831
5.33165	0.833
5.36787	0.8135
5.40408	0.7828
5.4403	0.7696
5.47651	0.7312
5.51273	0.5254
5.54895	0.1806
5.58516	0.139
5.62138	0.324
5.65759	0.5049
5.69381	0.6172
5.73003	0.6718
5.76624	0.7486
5.80246	0.7754
5.83867	0.7944
5.87489	0.8023
5.91111	0.7874
5.94732	0.6838
5.98354	0.6434
6.01975	0.7706
6.05597	0.8015
6.09219	0.8187
6.1284	0.8214
6.16462	0.8185
6.20083	0.8303
6.23705	0.8316
6.27327	0.8302
6.30948	0.836
6.3457	0.8343
6.38191	0.8391
6.41813	0.833
6.45435	0.8396
6.49056	0.8354
6.52678	0.8396
6.56299	0.8308
6.59921	0.8276
6.63543	0.8326
6.67164	0.834
6.70786	0.8281
6.74407	0.825
6.78029	0.825
6.8165	0.8244
6.85272	0.8156
6.88894	0.8061
6.92515	0.7598
6.96137	0.7125
6.99758	0.726
7.0338	0.7466
7.07002	0.7847
7.10623	0.7973
7.14245	0.7778
7.17866	0.713
7.21488	0.6891
7.2511	0.6477
7.28731	0.6981
7.32353	0.8002
7.35974	0.8129
7.39596	0.8105
7.43218	0.807
7.46839	0.819
7.50461	0.8181
7.54082	0.822
7.57704	0.8187
7.61326	0.812
7.64947	0.8089
7.68569	0.792
7.7219	0.7605
7.75812	0.7054
7.79434	0.6634
7.83055	0.6975
7.86677	0.7057
7.90298	0.6017
7.9392	0.4885
7.97542	0.6349
8.01163	0.7628
8.04785	0.781
8.08406	0.79
8.12028	0.786
8.15649	0.786
8.19271	0.79
8.22893	0.798
8.26514	0.8002
8.30136	0.803
8.33757	0.798
8.37379	0.7902
8.41001	0.7628
8.44622	0.7078
8.48244	0.5537
8.51865	0.4169
8.55487	0.4865
8.59109	0.6404
8.6273	0.6944
8.66352	0.7237
8.69973	0.7408
8.73595	0.728
8.77217	0.7027
8.80838	0.6804
8.8446	0.6591
8.88081	0.6372
8.91703	0.5815
8.95325	0.4933
8.98946	0.3928
9.02568	0.321
9.06189	0.2992
9.09811	0.3301
9.13433	0.4172
9.17054	0.4941
9.20676	0.5516
9.24297	0.6292
9.27919	0.7208
9.31541	0.7603
9.35162	0.7803
9.38784	0.7998
9.42405	0.8117
9.46027	0.8175
9.49648	0.819
9.5327	0.8141
9.56892	0.8066
9.60513	0.7972
9.64135	0.786
9.67756	0.7871
9.71378	0.798
9.75	0.8038
9.78621	0.8047
9.82243	0.7949
9.85864	0.7671
9.89486	0.7284
9.93108	0.761
9.96729	0.7925
10.0035	0.8062
10.0397	0.8089
10.0759	0.813
10.1122	0.815
10.1484	0.8093
10.1846	0.806
10.2208	0.7883
10.257	0.7575
10.2932	0.6704
10.3295	0.5285
10.3657	0.585
10.4019	0.6921
10.4381	0.7462
10.4743	0.7627
10.5105	0.771
10.5467	0.7656
10.583	0.7343
10.6192	0.6771
10.6554	0.557
10.6916	0.3935
10.7278	0.2706
10.764	0.2229
10.8003	0.2806
10.8365	0.4782
10.8727	0.6236
10.9089	0.7141
10.9451	0.75
10.9813	0.7753
11.0176	0.789
11.0538	0.795
11.09	0.804
11.1262	0.807
11.1624	0.807
11.1986	0.812
11.2349	0.81
11.2711	0.813
11.3073	0.818
11.3435	0.8191
11.3797	0.827
11.4159	0.831
11.4521	0.828
11.4884	0.827
11.5246	0.833
11.5608	0.8274
11.597	0.831
11.6332	0.83
11.6694	0.83
11.7057	0.825
11.7419	0.8161
11.7781	0.8062
11.8143	0.801
11.8505	0.7881
11.8867	0.7377
11.923	0.679
11.9592	0.6333
11.9954	0.635
12.0316	0.675
12.0678	0.7148
12.104	0.7376
12.1402	0.758
12.1765	0.766
12.2127	0.769
12.2489	0.7834
12.2851	0.7934
12.3213	0.8014
12.3575	0.812
12.3938	0.8072
12.43	0.8146
12.4662	0.816
12.5024	0.822
12.5386	0.8228
12.5748	0.8214
12.6111	0.821
12.6473	0.8205
12.6835	0.818
12.7197	0.809
12.7559	0.806
12.7921	0.8032
12.8284	0.7987
12.8646	0.79
12.9008	0.784
12.937	0.7764
12.9732	0.7676
13.0094	0.7557
13.0456	0.7437
13.0819	0.7333
13.1181	0.7185
13.1543	0.7053
13.1905	0.6995
13.2267	0.6892
13.2629	0.682
13.2992	0.673
13.3354	0.6685
13.3716	0.661
13.4078	0.655
13.444	0.657
13.4802	0.6607
13.5165	0.666
13.5527	0.6712
13.5889	0.6829
13.6251	0.6963
13.6613	0.7115
13.6975	0.7291
13.7338	0.7359
13.77	0.744
13.8062	0.7496
13.8424	0.757
13.8786	0.764
13.9148	0.768
13.951	0.7744
13.9873	0.7718
14.0235	0.766
14.0597	0.765
14.0959	0.76
14.1321	0.7531
14.1683	0.745
14.2046	0.7303
14.2408	0.7167
14.277	0.7018
14.3132	0.696
14.3494	0.7022
14.3856	0.7093
14.4219	0.718
14.4581	0.724
14.4943	0.726
14.5305	0.7296
14.5667	0.73
14.6029	0.729
14.6391	0.7284
14.6754	0.7269
14.7116	0.726
14.7478	0.723
14.784	0.7184
14.8202	0.7126
14.8564	0.714
14.8927	0.708
14.9289	0.7013
14.9651	0.697
15.0013	0.7146
15.0375	0.7016
15.0737	0.6939
15.11	0.6913
15.1462	0.687
15.1824	0.688
15.2186	0.6845
15.2548	0.6801
15.291	0.6742
15.3273	0.6734
15.3635	0.6669
15.3997	0.6669
15.4359	0.666
