Infrared Spectrum: CYCLOHEXANOL, 3-METHYL-
Formula: C7 H14 O
CAS: 591-23-1
State: SOLUTION (10% IN CCl4 FOR 3800-1333, 10% IN CS2 FOR 1333-450 CM^-^1)
Class: COBLENTZ III
Instrument: DOW KBr FOREPRISM-GRATING
Instrument parameters: BLAZED AT 3.5, 12.0, 20.0 MICRON, CHANGED AT 5.0, 7.5, 14.9 MICRON
Sampling: TRANSMISSION
Path length: 0.011, 0.011 CM
Resolution: 4
Origin: DOW CHEMICAL COMPANY
1/CM	TRANSMITTANCE
451.276	0.863
459.977	0.866
468.677	0.866
477.378	0.856
486.079	0.825
494.779	0.759
503.48	0.814
512.181	0.871
520.881	0.87
529.582	0.869
538.283	0.864
546.984	0.836
555.684	0.803
564.385	0.856
573.086	0.859
581.786	0.854
590.487	0.851
599.188	0.841
607.888	0.836
616.589	0.83
625.29	0.813
633.99	0.814
642.691	0.793
651.392	0.777
660.092	0.796
668.793	0.815
677.494	0.793
686.195	0.766
694.895	0.806
703.596	0.833
712.297	0.851
720.997	0.858
729.698	0.869
738.399	0.881
747.099	0.894
755.8	0.899
764.501	0.903
773.201	0.871
781.902	0.924
790.603	0.942
799.303	0.935
808.004	0.87
816.705	0.881
825.406	0.944
834.106	0.748
842.807	0.843
851.508	0.701
860.208	0.807
868.909	0.791
877.61	0.762
886.31	0.941
895.011	0.945
903.712	0.948
912.412	0.987
921.113	0.964
929.814	0.837
938.514	0.53
947.215	0.791
955.916	0.886
964.616	0.765
973.317	0.867
982.018	0.731
990.719	0.371
999.419	0.622
1008.12	0.537
1016.82	0.195
1025.52	0.56
1034.22	0.458
1042.92	0.184
1051.62	0.646
1060.32	0.795
1069.02	0.69
1077.73	0.727
1086.43	0.616
1095.13	0.427
1103.83	0.582
1112.53	0.825
1121.23	0.811
1129.93	0.706
1138.63	0.532
1147.33	0.729
1156.03	0.844
1164.73	0.912
1173.43	0.942
1182.13	0.923
1190.83	0.892
1199.54	0.836
1208.24	0.736
1216.94	0.819
1225.64	0.758
1234.34	0.653
1243.04	0.628
1251.74	0.676
1260.44	0.616
1269.14	0.641
1277.84	0.705
1286.54	0.687
1295.24	0.611
1303.94	0.62
1312.64	0.684
1321.34	0.658
1330.05	0.608
1338.75	0.622
1347.45	0.542
1356.15	0.512
1364.85	0.433
1373.55	0.51
1382.25	0.63
1390.95	0.65
1399.65	0.671
1408.35	0.65
1417.05	0.628
1425.75	0.601
1434.45	0.572
1443.15	0.465
1451.85	0.222
1460.56	0.281
1469.26	0.574
1477.96	0.758
1486.66	0.785
1495.36	0.78
1504.06	0.758
1512.76	0.712
1521.46	0.672
1530.16	0.63
1538.86	0.549
1547.56	0.478
1556.26	0.491
1564.96	0.579
1573.66	0.639
1582.37	0.652
1591.07	0.69
1599.77	0.766
1608.47	0.837
1617.17	0.859
1625.87	0.867
1634.57	0.884
1643.27	0.901
1651.97	0.915
1660.67	0.92
1669.37	0.931
1678.07	0.939
1686.77	0.948
1695.47	0.956
1704.17	0.96
1712.88	0.961
1721.58	0.965
1730.28	0.968
1738.98	0.967
1747.68	0.968
1756.38	0.967
1765.08	0.971
1773.78	0.969
1782.48	0.969
1791.18	0.967
1799.88	0.959
1808.58	0.96
1817.28	0.963
1825.98	0.964
1834.69	0.963
1843.39	0.961
1852.09	0.96
1860.79	0.96
1869.49	0.963
1878.19	0.963
1886.89	0.964
1895.59	0.964
1904.29	0.964
1912.99	0.965
1921.69	0.963
1930.39	0.963
1939.09	0.964
1947.79	0.961
1956.49	0.961
1965.2	0.967
1973.9	0.965
1982.6	0.96
1991.3	0.959
2000	0.965
2008.7	0.971
2017.4	0.972
2026.1	0.972
2034.8	0.972
2043.5	0.972
2052.2	0.9759
2060.9	0.976
2069.6	0.971
2078.3	0.9779
2087.01	0.979
2095.71	0.979
2104.41	0.9791
2113.11	0.978
2121.81	0.978
2130.51	0.978
2139.21	0.978
2147.91	0.979
2156.61	0.979
2165.31	0.979
2174.01	0.9793
2182.71	0.976
2191.41	0.975
2200.11	0.976
2208.81	0.976
2217.52	0.975
2226.22	0.974
2234.92	0.974
2243.62	0.9759
2252.32	0.9723
2261.02	0.9719
2269.72	0.9681
2278.42	0.9574
2287.12	0.9543
2295.82	0.956
2304.52	0.9543
2313.22	0.9595
2321.92	0.964
2330.62	0.9688
2339.32	0.972
2348.03	0.9736
2356.73	0.9828
2365.43	0.9792
2374.13	0.9764
2382.83	0.9716
2391.53	0.9694
2400.23	0.964
2408.93	0.9638
2417.63	0.968
2426.33	0.965
2435.03	0.961
2443.73	0.9665
2452.43	0.967
2461.13	0.963
2469.84	0.961
2478.54	0.961
2487.24	0.963
2495.94	0.96
2504.64	0.9563
2513.34	0.957
2522.04	0.9545
2530.74	0.954
2539.44	0.949
2548.14	0.946
2556.84	0.939
2565.54	0.9333
2574.24	0.9233
2582.94	0.9223
2591.64	0.9119
2600.35	0.9016
2609.05	0.8993
2617.75	0.899
2626.45	0.8963
2635.15	0.8806
2643.85	0.856
2652.55	0.8477
2661.25	0.838
2669.95	0.8456
2678.65	0.8527
2687.35	0.8587
2696.05	0.866
2704.75	0.864
2713.45	0.8594
2722.16	0.8374
2730.86	0.8609
2739.56	0.871
2748.26	0.8664
2756.96	0.86
2765.66	0.8498
2774.36	0.8372
2783.06	0.8142
2791.76	0.7674
2800.46	0.7288
2809.16	0.7031
2817.86	0.6586
2826.56	0.5654
2835.26	0.3307
2843.96	0.1033
2852.67	0.088
2861.37	0.073
2870.07	0.066
2878.77	0.1419
2887.47	0.1176
2896.17	0.077
2904.87	0.0338
2913.57	0.0114
2922.27	0
2930.97	0.004
2939.67	0.0095
2948.37	0.015
2957.07	0.0296
2965.77	0.1832
2974.48	0.4378
2983.18	0.6421
2991.88	0.748
3000.58	0.79
3009.28	0.831
3017.98	0.849
3026.68	0.8555
3035.38	0.8635
3044.08	0.8651
3052.78	0.8635
3061.48	0.8585
3070.18	0.8515
3078.88	0.8421
3087.58	0.8325
3096.28	0.8216
3104.99	0.8079
3113.69	0.7916
3122.39	0.7714
3131.09	0.7491
3139.79	0.7309
3148.49	0.7065
3157.19	0.6803
3165.89	0.6572
3174.59	0.6235
3183.29	0.5932
3191.99	0.5562
3200.69	0.5388
3209.39	0.5153
3218.09	0.4835
3226.79	0.4466
3235.5	0.421
3244.2	0.3825
3252.9	0.3477
3261.6	0.3135
3270.3	0.2852
3279	0.2635
3287.7	0.2419
3296.4	0.2243
3305.1	0.2043
3313.8	0.191
3322.5	0.1777
3331.2	0.1707
3339.9	0.1664
3348.6	0.163
3357.31	0.166
3366.01	0.1703
3374.71	0.1786
3383.41	0.1853
3392.11	0.1969
3400.81	0.2113
3409.51	0.2229
3418.21	0.235
3426.91	0.2541
3435.61	0.2766
3444.31	0.3018
3453.01	0.3203
3461.71	0.3541
3470.41	0.3796
3479.11	0.4068
3487.82	0.4353
3496.52	0.472
3505.22	0.5129
3513.92	0.567
3522.62	0.6249
3531.32	0.6697
3540.02	0.72
3548.72	0.7583
3557.42	0.7925
3566.12	0.822
3574.82	0.8394
3583.52	0.8406
3592.22	0.8068
3600.92	0.7282
3609.63	0.6417
3618.33	0.6678
3627.03	0.8259
3635.73	0.9004
3644.43	0.918
3653.13	0.9153
3661.83	0.8907
3670.53	0.8804
3679.23	0.9321
3687.93	0.951
3696.63	0.9641
3705.33	0.978
3714.03	0.9831
3722.73	0.99
3731.43	0.9913
3740.14	0.991
3748.84	0.987
3757.54	0.991
3766.24	0.9939
3774.94	0.9912
3783.64	0.995
3792.34	0.9928
