Infrared Spectrum: Iodobenzene
Formula: C6 H5 I
CAS: 591-50-4
State: SOLUTION (10% CCl4 FOR 3800-1430, 10% CS2 FOR 1430-450 CM^-^1)
Boiling point: 78-80 C AT 115 mmHg
Class: COBLENTZ III
Instrument: DOW KBr FOREPRISM-GRATING
Instrument parameters: BLAZED AT 3.5, 12.0, 20.0 MICRON AND CHANGED AT 5.0, 7.5, 14.9 MICRON
Sampling: TRANSMISSION
Path length: 0.010 CM, 0.011 CM
Resolution: 2
Origin: DOW CHEMICAL COMPANY
1/CM	TRANSMITTANCE
3806	0.9392
3797.02	0.9384
3788.03	0.9399
3779.05	-0.0001
3770.06	-0.0005
3761.08	-0.0011
3752.1	-0.0017
3743.11	-0.0025
3734.13	0.9367
3725.14	0.9345
3716.16	0.9318
3707.18	0.9331
3698.19	0.9367
3689.21	0.935
3680.22	0.9324
3671.24	0.9308
3662.26	0.9344
3653.27	0.9358
3644.29	0.9362
3635.31	0.9365
3626.32	0.9387
3617.34	0.939
3608.35	0.9389
3599.37	0.933
3590.39	0.9357
3581.4	0.9377
3572.42	0.9389
3563.43	0.9382
3554.45	0.9387
3545.47	0.9407
3536.48	0.9409
3527.5	0.941
3518.51	0.939
3509.53	0.9385
3500.55	0.9383
3491.56	0.9389
3482.58	0.9396
3473.59	0.9403
3464.61	0.9412
3455.63	0.9426
3446.64	0.9446
3437.66	0.9467
3428.67	0.9493
3419.69	0.9502
3410.71	0.9546
3401.72	0.9586
3392.74	0.9604
3383.76	0.9603
3374.77	0.9588
3365.79	0.9569
3356.8	0.9552
3347.82	0.9534
3338.84	0.9543
3329.85	0.9544
3320.87	0.9561
3311.88	0.957
3302.9	0.9586
3293.92	0.9571
3284.93	0.9563
3275.95	0.9546
3266.96	0.9543
3257.98	0.9527
3249	0.9523
3240.01	0.9505
3231.03	0.9504
3222.04	0.9498
3213.06	0.9516
3204.08	0.9508
3195.09	0.948
3186.11	0.9478
3177.12	0.9442
3168.14	0.9417
3159.16	0.9402
3150.17	0.9367
3141.19	0.9326
3132.21	0.9341
3123.22	0.9362
3114.24	0.937
3105.25	0.9378
3096.27	0.9305
3087.29	0.9247
3078.3	0.8622
3069.32	0.7324
3060.33	0.7086
3051.35	0.7482
3042.37	0.8258
3033.38	0.8855
3024.4	0.8995
3015.41	0.8892
3006.43	0.8977
2997.45	0.915
2988.46	0.8889
2979.48	0.9081
2970.49	0.9261
2961.51	0.9346
2952.53	0.9402
2943.54	0.946
2934.56	0.9428
2925.57	0.9434
2916.59	0.9477
2907.61	0.9428
2898.62	0.9384
2889.64	0.9399
2880.66	0.9397
2871.67	0.9395
2862.69	0.9392
2853.7	0.9387
2844.72	0.936
2835.74	0.9363
2826.75	0.9346
2817.77	0.934
2808.78	0.9333
2799.8	0.9345
2790.82	0.9339
2781.83	0.9324
2772.85	0.9343
2763.86	0.9346
2754.88	0.9347
2745.9	0.9349
2736.91	0.935
2727.93	0.9352
2718.94	0.9357
2709.96	0.9363
2700.98	0.9368
2691.99	0.9372
2683.01	0.9375
2674.02	0.9377
2665.04	0.9378
2656.06	0.9377
2647.07	0.9377
2638.09	0.9353
2629.11	0.9357
2620.12	0.9368
2611.14	0.9381
2602.15	0.9394
2593.17	0.9394
2584.19	0.9295
2575.2	0.9246
2566.22	0.932
2557.23	0.9334
2548.25	0.9345
2539.27	0.9353
2530.28	0.9357
2521.3	0.9329
2512.31	0.934
2503.33	0.9356
2494.35	0.937
2485.36	0.9378
2476.38	0.9403
2467.39	0.9414
2458.41	0.9423
2449.43	0.9428
2440.44	0.9437
2431.46	0.9437
2422.47	0.9437
2413.49	0.9439
2404.51	0.9455
2395.52	0.9454
2386.54	0.9408
2377.56	0.939
2368.57	0.9444
2359.59	0.9445
2350.6	0.9511
2341.62	0.9486
2332.64	0.9383
2323.65	0.9471
2314.67	0.9409
2305.68	0.9456
2296.7	0.948
2287.72	0.947
2278.73	0.9443
2269.75	0.9422
2260.76	0.9397
2251.78	0.9389
2242.8	0.9376
2233.81	0.938
2224.83	0.9379
2215.84	0.9369
2206.86	0.9378
2197.88	0.9384
2188.89	0.937
2179.91	0.9378
2170.92	0.939
2161.94	0.9376
2152.96	0.938
2143.97	0.9385
2134.99	0.9391
2126.01	0.9391
2117.02	0.9392
2108.04	0.9395
2099.05	0.9411
2090.07	0.9434
2081.09	0.9447
2072.1	0.9435
2063.12	0.9424
2054.13	0.9435
2045.15	0.9418
2036.17	0.9415
2027.18	0.9409
2018.2	0.9412
2009.21	0.939
2000.23	0.9354
1991.25	0.9419
1982.26	0.9158
1973.28	0.9091
1964.29	0.8914
1955.31	0.9019
1946.33	0.8722
1937.34	0.8778
1928.36	0.9096
1919.37	0.911
1910.39	0.9108
1901.41	0.9122
1892.42	0.9109
1883.44	0.8774
1874.46	0.8985
1865.47	0.8532
1856.49	0.8843
1847.5	0.9041
1838.52	0.9083
1829.54	0.9096
1820.55	0.9075
1811.57	0.8986
1802.58	0.8953
1793.6	0.8782
1784.62	0.9019
1775.63	0.9096
1766.65	0.9062
1757.66	0.9085
1748.68	0.9077
1739.7	0.8942
1730.71	0.8896
1721.73	0.9079
1712.74	0.9118
1703.76	0.9129
1694.78	0.9139
1685.79	0.9148
1676.81	0.9165
1667.82	0.9209
1658.84	0.9291
1649.86	0.9429
1640.87	0.9489
1631.89	0.9234
1622.91	0.9141
1613.92	0.9337
1604.94	0.9253
1595.95	0.9108
1586.97	0.9014
1577.99	0.7857
1569	0.6111
1560.02	0.7742
1551.03	0.8693
1542.05	0.8952
1533.07	0.9247
1524.08	0.9115
1515.1	0.9029
1506.11	0.9138
1497.13	0.9018
1488.15	0.8879
1479.16	0.8745
1470.18	0.1311
1461.19	0.8537
1452.21	0.8938
1443.23	0.86
1434.24	0.7769
1425.26	0.8446
1416.27	0.9063
1407.29	0.9206
1398.31	0.9264
1389.32	0.931
1380.34	0.9257
1371.36	0.9131
1362.37	0.9198
1353.39	0.916
1344.4	0.9044
1335.42	0.9019
1326.44	0.8988
1317.45	0.8197
1308.47	0.8913
1299.48	0.8895
1290.5	0.8877
1281.52	0.8912
1272.53	0.8983
1263.55	0.8854
1254.56	0.8883
1245.58	0.9032
1236.6	0.914
1227.61	0.9104
1218.63	0.915
1209.64	0.9198
1200.66	0.917
1191.68	0.9084
1182.69	0.874
1173.71	0.8768
1164.72	0.8849
1155.74	0.8841
1146.76	0.8887
1137.77	0.9031
1128.79	0.9201
1119.81	0.9272
1110.82	0.9278
1101.84	0.9206
1092.85	0.9021
1083.87	0.8924
1074.89	0.8881
1065.9	0.8549
1056.92	0.4595
1047.93	0.8855
1038.95	0.8979
1029.97	0.902
1020.98	0.8712
1012	0.2926
1003.01	0.825
994.03	0.3967
985.046	0.8657
976.062	0.8849
967.078	0.8988
958.095	0.9002
949.111	0.9089
940.127	0.9153
931.143	0.9184
922.159	0.91
913.175	0.8984
904.191	0.8769
895.207	0.8423
886.223	0.904
877.239	0.9222
868.255	0.9198
859.271	0.9199
850.287	0.8977
841.303	0.8905
832.32	0.8864
823.336	0.9001
814.352	0.9085
805.368	0.9194
796.384	0.9246
787.4	0.9171
778.416	0.9164
769.432	0.916
760.448	0.8994
751.464	0.8836
742.48	0.8281
733.496	0.2262
724.512	0.1285
715.528	0.8143
706.545	0.871
697.561	0.8689
688.577	0.7316
679.593	0.5903
670.609	0.8739
661.625	0.878
652.641	0.2506
643.657	0.8613
634.673	0.9185
625.689	0.9262
616.705	0.9346
607.721	0.9195
598.737	0.9322
589.753	0.9411
580.77	0.9458
571.786	0.9482
562.802	0.9482
553.818	0.9476
544.834	0.9474
535.85	0.9491
526.866	0.9459
517.882	0.9464
508.898	0.947
499.914	0.9436
490.93	0.9382
481.946	0.9311
472.962	0.9239
463.978	0.9214
454.995	0.9158
