Infrared Spectrum: PYRIDINE, 3,5-DIMETHYL-
Formula: C7 H9 N
CAS: 591-22-0
State: VAPOR (0.5 MICROLITER AT 150 C)
Boiling point: 170 C
Class: COBLENTZ
Instrument: NICOLET FTIR
Instrument parameters: Hg-Cd-Te DETECTOR - TYPE A, DEAD BELOW 680 CM^-^1, LOW S/N 710 - 680
Sampling: TRANSMISSION
Path length: 0.2 CM x 30 CM GOLD-PLATED LIGHT PIPE. HELIUM CARRIER. INTERFEROGRAMS CO-ADDED FOR FULL TRANSIT TIME.
Resolution: 4 CM^-^1
Origin: MONSANTO (JOHN J. FREEMAN)
1/CM	TRANSMITTANCE
695.382	0.844
704.618	0.7362
713.854	0.5829
723.091	0.7059
732.327	0.954
741.563	0.994
750.799	1.001
760.036	1.005
769.272	1.012
778.508	1.011
787.744	1.01
796.981	1.013
806.217	1.011
815.453	1.009
824.689	1.005
833.925	0.959
843.162	0.893
852.398	0.7733
861.634	0.8278
870.87	0.873
880.107	0.98
889.343	1.002
898.579	1.005
907.815	1.002
917.051	1
926.288	0.998
935.524	0.997
944.76	0.997
953.996	0.997
963.233	0.994
972.469	0.986
981.705	0.977
990.941	0.951
1000.18	0.935
1009.41	0.94
1018.65	0.937
1027.89	0.871
1037.12	0.863
1046.36	0.829
1055.59	0.901
1064.83	0.928
1074.07	0.953
1083.3	0.973
1092.54	0.986
1101.78	0.988
1111.01	0.991
1120.25	0.98
1129.48	0.95
1138.72	0.936
1147.96	0.925
1157.19	0.907
1166.43	0.7912
1175.67	0.821
1184.9	0.8639
1194.14	0.97
1203.37	0.991
1212.61	0.98
1221.85	0.934
1231.08	0.919
1240.32	0.931
1249.56	0.995
1258.79	0.999
1268.03	0.997
1277.26	1
1286.5	1
1295.74	0.999
1304.97	0.991
1314.21	0.944
1323.45	0.934
1332.68	0.95
1341.92	0.979
1351.15	0.971
1360.39	0.956
1369.63	0.944
1378.86	0.908
1388.1	0.901
1397.34	0.917
1406.57	0.924
1415.81	0.8191
1425.04	0.652
1434.28	0.591
1443.52	0.6359
1452.75	0.73
1461.99	0.761
1471.23	0.789
1480.46	0.809
1489.7	0.832
1498.93	0.851
1508.17	0.865
1517.41	0.887
1526.64	0.901
1535.88	0.908
1545.11	0.924
1554.35	0.936
1563.59	0.908
1572.82	0.854
1582.06	0.833
1591.3	0.835
1600.53	0.877
1609.77	0.901
1619	0.941
1628.24	0.986
1637.48	0.995
1646.71	1.003
1655.95	1.002
1665.19	1.007
1674.42	1.009
1683.66	1.011
1692.89	1.009
1702.13	1.005
1711.37	1.004
1720.6	1.005
1729.84	1.008
1739.08	1.004
1748.31	1
1757.55	0.988
1766.78	0.974
1776.02	0.973
1785.26	0.975
1794.49	0.99
1803.73	0.999
1812.97	1.004
1822.2	1.003
1831.44	0.996
1840.67	0.983
1849.91	0.967
1859.15	0.972
1868.38	0.986
1877.62	0.992
1886.86	0.996
1896.09	1
1905.33	1
1914.56	1
1923.8	1.005
1933.04	1.007
1942.27	1.009
1951.51	1.007
1960.75	1.006
1969.98	1.004
1979.22	1.004
1988.45	1.006
1997.69	1.009
2006.93	1.011
2016.16	1.012
2025.4	1.013
2034.64	1.013
2043.87	1.0137
2053.11	1.014
2062.34	1.014
2071.58	1.013
2080.82	1.0095
2090.05	1.0085
2099.29	1.0084
2108.52	1.01
2117.76	1.011
2127	1.0097
2136.23	1.009
2145.47	1.009
2154.71	1.009
2163.94	1.009
2173.18	1.01
2182.41	1.012
2191.65	1.0129
2200.89	1.0123
2210.12	1.011
2219.36	1.011
2228.6	1.0093
2237.83	1.009
2247.07	1.009
2256.3	1.009
2265.54	1.009
2274.78	1.011
2284.01	1.011
2293.25	1.0096
2302.49	1.0077
2311.72	1.007
2320.96	1.008
2330.19	1.009
2339.43	1.009
2348.67	1.007
2357.9	1.007
2367.14	1.006
2376.38	1.005
2385.61	1.003
2394.85	1.002
2404.08	1.0047
2413.32	1.0053
2422.56	1.0034
2431.79	1.003
2441.03	1.001
2450.27	1
2459.5	0.9986
2468.74	0.9994
2477.97	1.0023
2487.21	1.003
2496.45	1.003
2505.68	1.0062
2514.92	1.0081
2524.16	1.009
2533.39	1.007
2542.63	1.006
2551.86	1.006
2561.1	1.0077
2570.34	1.009
2579.57	1.009
2588.81	1.006
2598.04	1.005
2607.28	1.006
2616.52	1.006
2625.75	1.006
2634.99	1.006
2644.23	1.006
2653.46	1.006
2662.7	1.008
2671.93	1.008
2681.17	1.008
2690.41	1.006
2699.64	1.007
2708.88	1.006
2718.12	1.002
2727.35	0.9902
2736.59	0.9733
2745.82	0.9662
2755.06	0.9759
2764.3	0.9955
2773.53	0.999
2782.77	1
2792.01	0.9974
2801.24	0.9919
2810.48	0.9865
2819.71	0.9817
2828.95	0.9689
2838.19	0.9551
2847.42	0.924
2856.66	0.8565
2865.9	0.7526
2875.13	0.6961
2884.37	0.6989
2893.6	0.7511
2902.84	0.7463
2912.08	0.6888
2921.31	0.5693
2930.55	0.5104
2939.79	0.5243
2949.02	0.5977
2958.26	0.6802
2967.49	0.6998
2976.73	0.6934
2985.97	0.6725
2995.2	0.664
3004.44	0.5805
3013.68	0.4279
3022.91	0.354
3032.15	0.3996
3041.38	0.5687
3050.62	0.7912
3059.86	0.871
3069.09	0.9172
3078.33	0.935
3087.56	0.9536
3096.8	0.9742
3106.04	0.986
3115.27	0.9915
3124.51	0.9985
3133.75	1.001
3142.98	1.0016
3152.22	1.002
3161.45	1.0005
3170.69	1
3179.93	1
3189.16	1
3198.4	1.001
3207.64	1.002
3216.87	1.003
3226.11	1.0052
3235.34	1.006
3244.58	1.006
3253.82	1.007
3263.05	1.008
3272.29	1.008
3281.53	1.009
3290.76	1.009
3300	1.009
3309.23	1.009
3318.47	1.01
3327.71	1.01
3336.94	1.01
3346.18	1.011
3355.42	1.011
3364.65	1.011
3373.89	1.01
3383.12	1.01
3392.36	1.009
3401.6	1.009
3410.83	1.009
3420.07	1.009
3429.31	1.009
3438.54	1.009
3447.78	1.009
3457.01	1.009
3466.25	1.009
3475.49	1.01
3484.72	1.011
3493.96	1.011
3503.2	1.0116
3512.43	1.012
3521.67	1.0105
3530.9	1.011
3540.14	1.0106
3549.38	1.01
3558.61	1.01
3567.85	1.011
3577.09	1.0112
3586.32	1.012
3595.56	1.0121
3604.79	1.013
3614.03	1.013
3623.27	1.013
3632.5	1.013
3641.74	1.013
3650.97	1.0138
3660.21	1.013
3669.45	1.013
3678.68	1.013
3687.92	1.013
3697.16	1.0109
3706.39	1.0125
3715.63	1.0126
3724.86	1.011
3734.1	1.0117
3743.34	1.0123
3752.57	1.013
3761.81	1.013
3771.05	1.0129
3780.28	1.013
3789.52	1.011
3798.75	1.012
3807.99	1.0112
3817.23	1.0129
3826.46	1.01
3835.7	1.011
3844.94	1.009
3854.17	1.01
3863.41	1.009
3872.64	1.009
3881.88	1.009
3891.12	1.008
3900.35	1.007
3909.59	1.006
3918.83	1.0047
3928.06	1.004
3937.3	1.005
3946.53	1.004
3955.77	1.006
3965.01	1.005
3974.24	1.006
