Infrared Spectrum: 1-HEPTENE
Formula: C7 H14
CAS: 592-76-7
State: SOLUTION (10% IN CCl4 FOR 3800-1300, 10% IN CS2 FOR 1300-650, AND 10% CCl4 FOR 650-220 CM^-^1) VERSUS SOLVENT
Class: COBLENTZ
Instrument: Not specified, most likely a grating or hybrid spectrometer.
Sampling: TRANSMISSION
Path length: 0.011, 0.010, AND 0.010 CM (CsBr CELL)
Resolution: 4
Origin: DOW CORNING CORP.
1/CM	TRANSMITTANCE
238.325	0.919
247.268	0.914
256.21	0.904
265.153	0.898
274.095	0.902
283.038	0.902
291.98	0.907
300.923	0.907
309.866	0.912
318.808	0.912
327.751	0.914
336.693	0.916
345.636	0.917
354.578	0.921
363.521	0.919
372.464	0.923
381.406	0.924
390.349	0.935
399.291	0.93
408.234	0.926
417.176	0.926
426.119	0.935
435.062	0.924
444.004	0.928
452.947	0.933
461.889	0.937
470.832	0.945
479.774	0.949
488.717	0.954
497.66	0.958
506.602	0.954
515.545	0.954
524.487	0.952
533.43	0.947
542.372	0.935
551.315	0.905
560.257	0.898
569.2	0.924
578.143	0.931
587.085	0.935
596.028	0.933
604.97	0.919
613.913	0.902
622.855	0.883
631.798	0.846
640.741	0.832
649.683	0.853
658.626	0.916
667.568	0.935
676.511	0.956
685.453	0.956
694.396	0.959
703.339	0.952
712.281	0.959
721.224	0.94
730.166	0.8111
739.109	0.869
748.051	0.951
756.994	0.958
765.937	0.963
774.879	0.956
783.822	0.98
792.764	0.993
801.707	1
810.649	0.998
819.592	0.984
828.535	0.977
837.477	0.963
846.42	0.963
855.362	0.98
864.305	0.959
873.247	0.937
882.19	0.917
891.133	0.865
900.075	0.7171
909.018	0.273
917.96	0.1371
926.903	0.7048
935.845	0.863
944.788	0.883
953.731	0.886
962.673	0.858
971.616	0.808
980.558	0.795
989.501	0.6121
998.443	0.363
1007.39	0.7461
1016.33	0.877
1025.27	0.897
1034.21	0.891
1043.16	0.89
1052.1	0.907
1061.04	0.914
1069.98	0.916
1078.93	0.916
1087.87	0.93
1096.81	0.931
1105.75	0.919
1114.7	0.951
1123.64	0.959
1132.58	0.954
1141.52	0.956
1150.47	0.959
1159.41	0.956
1168.35	0.945
1177.29	0.942
1186.24	0.935
1195.18	0.933
1204.12	0.921
1213.07	0.921
1222.01	0.926
1230.95	0.917
1239.89	0.919
1248.84	0.91
1257.78	0.895
1266.72	0.893
1275.66	0.862
1284.61	0.853
1293.55	0.841
1302.49	0.806
1311.43	0.815
1320.38	0.823
1329.32	0.82
1338.26	0.809
1347.2	0.801
1356.15	0.808
1365.09	0.776
1374.03	0.745
1382.97	0.53
1391.92	0.787
1400.86	0.785
1409.8	0.759
1418.74	0.643
1427.69	0.705
1436.63	0.565
1445.57	0.485
1454.51	0.4379
1463.46	0.329
1472.4	0.342
1481.34	0.7531
1490.28	0.834
1499.23	0.863
1508.17	0.884
1517.11	0.902
1526.05	0.904
1535	0.909
1543.94	0.909
1552.88	0.909
1561.83	0.905
1570.77	0.897
1579.71	0.893
1588.65	0.888
1597.6	0.884
1606.54	0.876
1615.48	0.844
1624.42	0.832
1633.37	0.7529
1642.31	0.3921
1651.25	0.708
1660.19	0.832
1669.14	0.858
1678.08	0.853
1687.02	0.837
1695.96	0.8079
1704.91	0.769
1713.85	0.766
1722.79	0.781
1731.73	0.79
1740.68	0.825
1749.62	0.862
1758.56	0.877
1767.5	0.893
1776.45	0.897
1785.39	0.9
1794.33	0.898
1803.27	0.89
1812.22	0.879
1821.16	0.837
1830.1	0.809
1839.04	0.865
1847.99	0.898
1856.93	0.909
1865.87	0.912
1874.82	0.91
1883.76	0.91
1892.7	0.912
1901.64	0.912
1910.59	0.912
1919.53	0.912
1928.47	0.912
1937.41	0.912
1946.36	0.912
1955.3	0.914
1964.24	0.91
1973.18	0.905
1982.13	0.904
1991.07	0.909
2000.01	0.919
2008.95	0.944
2017.9	0.942
2026.84	0.941
2035.78	0.942
2044.72	0.9384
2053.67	0.942
2062.61	0.943
2071.55	0.944
2080.49	0.943
2089.44	0.945
2098.38	0.9445
2107.32	0.944
2116.26	0.944
2125.21	0.942
2134.15	0.942
2143.09	0.944
2152.03	0.9411
2160.98	0.937
2169.92	0.937
2178.86	0.938
2187.81	0.937
2196.75	0.937
2205.69	0.9376
2214.63	0.937
2223.58	0.935
2232.52	0.937
2241.46	0.9374
2250.4	0.9352
2259.35	0.935
2268.29	0.935
2277.23	0.935
2286.17	0.937
2295.12	0.9376
2304.06	0.9418
2313	0.942
2321.94	0.944
2330.89	0.944
2339.83	0.944
2348.77	0.944
2357.71	0.94
2366.66	0.9358
2375.6	0.9332
2384.54	0.931
2393.48	0.931
2402.43	0.9322
2411.37	0.93
2420.31	0.931
2429.25	0.931
2438.2	0.931
2447.14	0.931
2456.08	0.933
2465.02	0.931
2473.97	0.9306
2482.91	0.9283
2491.85	0.924
2500.79	0.924
2509.74	0.923
2518.68	0.923
2527.62	0.921
2536.57	0.921
2545.51	0.917
2554.45	0.916
2563.39	0.914
2572.34	0.912
2581.28	0.9113
2590.22	0.91
2599.16	0.91
2608.11	0.907
2617.05	0.9063
2625.99	0.9004
2634.93	0.8977
2643.88	0.897
2652.82	0.8907
2661.76	0.8864
2670.7	0.881
2679.65	0.883
2688.59	0.888
2697.53	0.89
2706.47	0.8874
2715.42	0.8814
2724.36	0.8734
2733.3	0.8674
2742.24	0.8706
2751.19	0.8786
2760.13	0.8784
2769.07	0.8724
2778.01	0.867
2786.96	0.8421
2795.9	0.8202
2804.84	0.7967
2813.78	0.7671
2822.73	0.7132
2831.67	0.6241
2840.61	0.4868
2849.56	0.3052
2858.5	0.0894
2867.44	0.0684
2876.38	0.112
2885.33	0.1853
2894.27	0.247
2903.21	0.1488
2912.15	0.0787
2921.1	0.0023
2930.04	0
2938.98	0.0062
2947.92	0.0349
2956.87	0.0423
2965.81	0.017
2974.75	0.062
2983.69	0.166
2992.64	0.3482
3001.58	0.4608
3010.52	0.5328
3019.46	0.6403
3028.41	0.7277
3037.35	0.7643
3046.29	0.7756
3055.23	0.7529
3064.18	0.6555
3073.12	0.6015
3082.06	0.5028
3091	0.5833
3099.95	0.806
3108.89	0.8697
3117.83	0.8937
3126.77	0.8973
3135.72	0.897
3144.66	0.9014
3153.6	0.9054
3162.55	0.909
3171.49	0.91
3180.43	0.91
3189.37	0.91
3198.32	0.9113
3207.26	0.916
3216.2	0.9183
3225.14	0.9232
3234.09	0.926
3243.03	0.9277
3251.97	0.926
3260.91	0.926
3269.86	0.924
3278.8	0.923
3287.74	0.923
3296.68	0.9243
3305.63	0.923
3314.57	0.923
3323.51	0.9197
3332.45	0.9187
3341.4	0.916
3350.34	0.916
3359.28	0.916
3368.22	0.916
3377.17	0.916
3386.11	0.916
3395.05	0.917
3403.99	0.919
3412.94	0.919
3421.88	0.917
3430.82	0.9202
3439.76	0.921
3448.71	0.923
3457.65	0.924
3466.59	0.926
3475.54	0.926
3484.48	0.9268
3493.42	0.9282
3502.36	0.931
3511.31	0.931
3520.25	0.93
3529.19	0.928
3538.13	0.93
3547.08	0.9331
3556.02	0.935
3564.96	0.933
3573.9	0.933
3582.85	0.9309
3591.79	0.926
3600.73	0.924
3609.67	0.9179
3618.62	0.9192
3627.56	0.9305
3636.5	0.9351
3645.44	0.944
3654.39	0.945
3663.33	0.947
3672.27	0.947
3681.21	0.945
3690.16	0.947
3699.1	0.949
3708.04	0.952
3716.98	0.951
3725.93	0.952
3734.87	0.954
3743.81	0.956
3752.75	0.954
3761.7	0.952
3770.64	0.952
3779.58	0.954
3788.52	0.952
