Infrared Spectrum: OCTADECANE
Formula: C18 H38
CAS: 593-45-3
State: LIQUID (NEAT)
Class: COBLENTZ II
Instrument: PERKIN-ELMER 180 (GRATING)
Instrument parameters: GRATING CHANGES AT 2000, 1000, 500, 250 CM^-^1
Sampling: TRANSMISSION
Path length: SMEAR
Resolution: 4
Origin: STANDARD OIL OF OHIO
1/CM	TRANSMITTANCE
293.126	0.072
302.465	0.119
311.803	0.16
321.142	0.201
330.48	0.268
339.819	0.324
349.157	0.389
358.496	0.462
367.834	0.529
377.173	0.581
386.511	0.625
395.85	0.663
405.188	0.71
414.527	0.744
423.865	0.77
433.204	0.789
442.542	0.806
451.881	0.819
461.22	0.831
470.558	0.842
479.897	0.849
489.235	0.855
498.574	0.886
507.912	0.89
517.251	0.893
526.589	0.891
535.928	0.899
545.266	0.899
554.605	0.9
563.943	0.901
573.282	0.9
582.62	0.898
591.959	0.899
601.298	0.899
610.636	0.897
619.975	0.894
629.313	0.892
638.652	0.893
647.99	0.89
657.329	0.888
666.667	0.881
676.006	0.877
685.344	0.864
694.683	0.832
704.021	0.715
713.36	0.4471
722.698	0.604
732.037	0.71
741.375	0.772
750.714	0.793
760.053	0.798
769.391	0.813
778.73	0.823
788.068	0.84
797.407	0.85
806.745	0.851
816.084	0.853
825.422	0.853
834.761	0.853
844.099	0.853
853.438	0.852
862.776	0.849
872.115	0.843
881.453	0.83
890.792	0.822
900.131	0.84
909.469	0.845
918.808	0.856
928.146	0.851
937.485	0.853
946.823	0.853
956.162	0.853
965.5	0.853
974.839	0.854
984.177	0.854
993.516	0.854
1002.85	0.871
1012.19	0.866
1021.53	0.861
1030.87	0.862
1040.21	0.857
1049.55	0.853
1058.89	0.842
1068.22	0.831
1077.56	0.829
1086.9	0.843
1096.24	0.855
1105.58	0.851
1114.92	0.863
1124.26	0.857
1133.59	0.857
1142.93	0.86
1152.27	0.859
1161.61	0.856
1170.95	0.859
1180.29	0.857
1189.62	0.854
1198.96	0.855
1208.3	0.851
1217.64	0.845
1226.98	0.839
1236.32	0.829
1245.66	0.821
1254.99	0.81
1264.33	0.796
1273.67	0.783
1283.01	0.764
1292.35	0.737
1301.69	0.715
1311.03	0.751
1320.36	0.788
1329.7	0.771
1339.04	0.708
1348.38	0.671
1357.72	0.673
1367.06	0.592
1376.4	0.426
1385.73	0.746
1395.07	0.779
1404.41	0.776
1413.75	0.752
1423.09	0.689
1432.43	0.489
1441.77	0.334
1451.1	0.1091
1460.44	0.046
1469.78	0.364
1479.12	0.686
1488.46	0.759
1497.8	0.792
1507.14	0.814
1516.47	0.831
1525.81	0.841
1535.15	0.847
1544.49	0.854
1553.83	0.858
1563.17	0.861
1572.5	0.863
1581.84	0.865
1591.18	0.866
1600.52	0.87
1609.86	0.872
1619.2	0.871
1628.54	0.874
1637.87	0.876
1647.21	0.874
1656.55	0.876
1665.89	0.877
1675.23	0.877
1684.57	0.88
1693.91	0.88
1703.24	0.881
1712.58	0.882
1721.92	0.883
1731.26	0.884
1740.6	0.884
1749.94	0.883
1759.28	0.886
1768.61	0.887
1777.95	0.885
1787.29	0.886
1796.63	0.887
1805.97	0.887
1815.31	0.889
1824.65	0.887
1833.98	0.89
1843.32	0.885
1852.66	0.886
1862	0.887
1871.34	0.886
1880.68	0.884
1890.01	0.886
1899.35	0.886
1908.69	0.886
1918.03	0.885
1927.37	0.886
1936.71	0.885
1946.05	0.886
1955.38	0.884
1964.72	0.883
1974.06	0.885
1983.4	0.886
1992.74	0.885
2002.08	0.893
2011.42	0.8965
2020.75	0.886
2030.09	0.8875
2039.43	0.89
2048.77	0.8925
2058.11	0.895
2067.45	0.8985
2076.79	0.899
2086.12	0.899
2095.46	0.8989
2104.8	0.898
2114.14	0.898
2123.48	0.9
2132.82	0.9
2142.16	0.8924
2151.49	0.892
2160.83	0.891
2170.17	0.8929
2179.51	0.8914
2188.85	0.892
2198.19	0.8936
2207.52	0.8913
2216.86	0.8944
2226.2	0.8931
2235.54	0.891
2244.88	0.8919
2254.22	0.89
2263.56	0.8887
2272.89	0.8867
2282.23	0.886
2291.57	0.8853
2300.91	0.8808
2310.25	0.879
2319.59	0.874
2328.93	0.8757
2338.26	0.876
2347.6	0.8784
2356.94	0.8762
2366.28	0.8796
2375.62	0.8795
2384.96	0.8785
2394.3	0.88
2403.63	0.8795
2412.97	0.877
2422.31	0.88
2431.65	0.877
2440.99	0.88
2450.33	0.882
2459.67	0.883
2469	0.8797
2478.34	0.8792
2487.68	0.8781
2497.02	0.874
2506.36	0.8691
2515.7	0.866
2525.03	0.8587
2534.37	0.854
2543.71	0.854
2553.05	0.8523
2562.39	0.8483
2571.73	0.8371
2581.07	0.8256
2590.4	0.8164
2599.74	0.8113
2609.08	0.8002
2618.42	0.7942
2627.76	0.7863
2637.1	0.7792
2646.44	0.7721
2655.77	0.7628
2665.11	0.7407
2674.45	0.7246
2683.79	0.7309
2693.13	0.7516
2702.47	0.7651
2711.81	0.7631
2721.14	0.7501
2730.48	0.724
2739.82	0.738
2749.16	0.7415
2758.5	0.7361
2767.84	0.7256
2777.18	0.7011
2786.51	0.6541
2795.85	0.617
2805.19	0.5411
2814.53	0.4728
2823.87	0.3475
2833.21	0.1489
2842.54	0
2851.88	0
2861.22	0
2870.56	0.0031
2879.9	0.0137
2889.24	0
2898.58	0
2907.91	0
2917.25	0
2926.59	0
2935.93	0
2945.27	0
2954.61	0
2963.95	0.0135
2973.28	0.176
2982.62	0.3463
2991.96	0.4637
3001.3	0.5626
3010.64	0.6263
3019.98	0.6664
3029.32	0.7038
3038.65	0.7299
3047.99	0.7547
3057.33	0.7747
3066.67	0.7883
3076.01	0.8015
3085.35	0.8154
3094.69	0.8232
3104.02	0.8304
3113.36	0.8352
3122.7	0.8377
3132.04	0.841
3141.38	0.841
3150.72	0.8434
3160.06	0.8447
3169.39	0.844
3178.73	0.845
3188.07	0.847
3197.41	0.8497
3206.75	0.8563
3216.09	0.86
3225.42	0.863
3234.76	0.8668
3244.1	0.8693
3253.44	0.871
3262.78	0.87
3272.12	0.871
3281.46	0.8707
3290.79	0.8718
3300.13	0.872
3309.47	0.874
3318.81	0.8723
3328.15	0.8722
3337.49	0.8687
3346.83	0.869
3356.16	0.869
3365.5	0.8678
3374.84	0.8677
3384.18	0.87
3393.52	0.87
3402.86	0.869
3412.2	0.87
3421.53	0.869
3430.87	0.87
3440.21	0.871
3449.55	0.8714
3458.89	0.871
3468.23	0.8744
3477.57	0.875
3486.9	0.875
3496.24	0.879
3505.58	0.8794
3514.92	0.879
3524.26	0.879
3533.6	0.88
3542.93	0.8805
3552.27	0.882
3561.61	0.88
3570.95	0.877
3580.29	0.874
3589.63	0.87
3598.97	0.866
3608.3	0.859
3617.64	0.8585
3626.98	0.86
3636.32	0.8595
3645.66	0.86
3655	0.859
3664.34	0.862
3673.67	0.863
3683.01	0.8629
3692.35	0.86
3701.69	0.865
3711.03	0.865
3720.37	0.862
3729.71	0.864
3739.04	0.8629
3748.38	0.859
3757.72	0.8609
3767.06	0.859
3776.4	0.8611
3785.74	0.859
3795.08	0.8579
3804.41	0.86
3813.75	0.857
3823.09	0.8576
3832.43	0.8559
3841.77	0.8534
3851.11	0.8532
3860.44	0.8543
3869.78	0.8548
3879.12	0.854
3888.46	0.8538
3897.8	0.852
3907.14	0.8538
3916.48	0.8506
3925.81	0.849
3935.15	0.849
3944.49	0.849
3953.83	0.849
3963.17	0.846
3972.51	0.844
3981.85	0.8388
3991.18	0.833
