Infrared Spectrum: ETHANE, 1,1-DICHLORO-1-NITRO-
Formula: C2 H3 Cl2 N O2
CAS: 594-72-9
State: SOLUTION (10% IN CCl4 FOR 3800-1330, 10% IN CS2 FOR 1330-450 CM^-^1)
Boiling point: 123 C
Class: COBLENTZ III
Instrument: DOW KBr FOREPRISM-GRATING
Instrument parameters: BLAZED AT 3.5, 12.0, 20.0 MICRON, CHANGED AT 5.0, 7.5, 14.9 MICRON
Sampling: TRANSMISSION
Path length: 0.011, 0.010 CM
Resolution: 4
Origin: DOW CHEMICAL COMPANY
1/CM	TRANSMITTANCE
451.765	0.875
460.277	0.895
468.789	0.903
477.301	0.911
485.813	0.911
494.325	0.902
502.837	0.886
511.349	0.877
519.861	0.87
528.373	0.853
536.885	0.833
545.397	0.84
553.909	0.884
562.421	0.93
570.933	0.948
579.445	0.957
587.957	0.958
596.469	0.949
604.981	0.948
613.493	0.942
622.005	0.932
630.517	0.908
639.029	0.862
647.541	0.772
656.053	0.6601
664.565	0.4161
673.077	0.358
681.59	0.344
690.102	0.332
698.614	0.407
707.126	0.55
715.638	0.7509
724.15	0.855
732.662	0.886
741.174	0.895
749.686	0.899
758.198	0.899
766.71	0.89
775.222	0.859
783.734	0.813
792.246	0.683
800.758	0.3791
809.27	0.031
817.782	0.4067
826.294	0.677
834.806	0.726
843.318	0.5961
851.83	0.274
860.342	0.663
868.854	0.763
877.366	0.818
885.878	0.865
894.39	0.906
902.902	0.93
911.414	0.936
919.926	0.937
928.438	0.935
936.95	0.939
945.462	0.937
953.974	0.937
962.486	0.935
970.998	0.935
979.51	0.939
988.022	0.943
996.534	0.942
1005.05	0.94
1013.56	0.936
1022.07	0.932
1030.58	0.921
1039.09	0.911
1047.61	0.892
1056.12	0.864
1064.63	0.7991
1073.14	0.664
1081.65	0.3381
1090.17	0.05
1098.68	0.056
1107.19	0.162
1115.7	0.262
1124.21	0.512
1132.73	0.649
1141.24	0.729
1149.75	0.796
1158.26	0.868
1166.77	0.884
1175.29	0.896
1183.8	0.901
1192.31	0.92
1200.82	0.927
1209.33	0.935
1217.85	0.936
1226.36	0.937
1234.87	0.936
1243.38	0.926
1251.89	0.929
1260.41	0.929
1268.92	0.926
1277.43	0.92
1285.94	0.89
1294.45	0.859
1302.97	0.796
1311.48	0.6021
1319.99	0.1461
1328.5	0.196
1337.01	0.4059
1345.53	0.584
1354.04	0.729
1362.55	0.787
1371.06	0.776
1379.58	0.5977
1388.09	0.4162
1396.6	0.776
1405.11	0.831
1413.62	0.815
1422.14	0.768
1430.65	0.741
1439.16	0.679
1447.67	0.599
1456.18	0.828
1464.7	0.88
1473.21	0.889
1481.72	0.875
1490.23	0.849
1498.74	0.806
1507.26	0.759
1515.77	0.71
1524.28	0.651
1532.79	0.577
1541.3	0.426
1549.82	0.329
1558.33	0.267
1566.84	0.2
1575.35	0.075
1583.86	0.004
1592.38	0.007
1600.89	0.23
1609.4	0.435
1617.91	0.602
1626.42	0.714
1634.94	0.79
1643.45	0.843
1651.96	0.88
1660.47	0.901
1668.98	0.917
1677.5	0.935
1686.01	0.94
1694.52	0.948
1703.03	0.949
1711.54	0.955
1720.06	0.954
1728.57	0.957
1737.08	0.958
1745.59	0.958
1754.1	0.958
1762.62	0.96
1771.13	0.96
1779.64	0.963
1788.15	0.963
1796.66	0.961
1805.18	0.961
1813.69	0.96
1822.2	0.96
1830.71	0.961
1839.22	0.963
1847.74	0.961
1856.25	0.961
1864.76	0.963
1873.27	0.964
1881.78	0.964
1890.3	0.966
1898.81	0.966
1907.32	0.967
1915.83	0.967
1924.34	0.968
1932.86	0.97
1941.37	0.971
1949.88	0.973
1958.39	0.976
1966.9	0.977
1975.42	0.979
1983.93	0.982
1992.44	0.983
2000.95	0.986
2009.46	0.988
2017.98	0.9885
2026.49	0.989
2035	0.989
2043.51	0.989
2052.02	0.989
2060.54	0.989
2069.05	0.991
2077.56	0.991
2086.07	0.991
2094.58	0.991
2103.1	0.991
2111.61	0.991
2120.12	0.99
2128.63	0.986
2137.14	0.985
2145.66	0.985
2154.17	0.982
2162.68	0.98
2171.19	0.977
2179.7	0.977
2188.22	0.978
2196.73	0.979
2205.24	0.982
2213.75	0.982
2222.26	0.982
2230.78	0.982
2239.29	0.982
2247.8	0.98
2256.31	0.977
2264.83	0.974
2273.34	0.9691
2281.85	0.967
2290.36	0.964
2298.87	0.964
2307.39	0.9665
2315.9	0.967
2324.41	0.968
2332.92	0.968
2341.43	0.9705
2349.95	0.974
2358.46	0.976
2366.97	0.977
2375.48	0.9795
2383.99	0.9819
2392.51	0.983
2401.02	0.983
2409.53	0.98
2418.04	0.98
2426.55	0.9751
2435.07	0.976
2443.58	0.979
2452.09	0.976
2460.6	0.968
2469.11	0.967
2477.63	0.9689
2486.14	0.97
2494.65	0.9719
2503.16	0.9789
2511.67	0.98
2520.19	0.9791
2528.7	0.977
2537.21	0.977
2545.72	0.98
2554.23	0.982
2562.75	0.982
2571.26	0.983
2579.77	0.982
2588.28	0.98
2596.79	0.977
2605.31	0.974
2613.82	0.9706
2622.33	0.9642
2630.84	0.944
2639.35	0.9271
2647.87	0.9343
2656.38	0.9519
2664.89	0.9634
2673.4	0.967
2681.91	0.971
2690.43	0.973
2698.94	0.9749
2707.45	0.9769
2715.96	0.977
2724.47	0.977
2732.99	0.977
2741.5	0.976
2750.01	0.9734
2758.52	0.976
2767.03	0.977
2775.55	0.977
2784.06	0.977
2792.57	0.977
2801.08	0.979
2809.59	0.979
2818.11	0.976
2826.62	0.976
2835.13	0.9736
2843.64	0.9671
2852.15	0.9606
2860.67	0.9552
2869.18	0.9438
2877.69	0.9296
2886.2	0.8947
2894.71	0.8341
2903.23	0.8598
2911.74	0.904
2920.25	0.9225
2928.76	0.9446
2937.27	0.951
2945.79	0.951
2954.3	0.9558
2962.81	0.958
2971.32	0.958
2979.83	0.958
2988.35	0.957
2996.86	0.954
3005.37	0.949
3013.88	0.9519
3022.39	0.955
3030.91	0.9598
3039.42	0.9634
3047.93	0.966
3056.44	0.97
3064.95	0.97
3073.47	0.973
3081.98	0.974
3090.49	0.9748
3099	0.9769
3107.51	0.9778
3116.03	0.9799
3124.54	0.9796
3133.05	0.98
3141.56	0.979
3150.08	0.977
3158.59	0.979
3167.1	0.979
3175.61	0.982
3184.12	0.985
3192.64	0.986
3201.15	0.9878
3209.66	0.986
3218.17	0.988
3226.68	0.988
3235.2	0.988
3243.71	0.986
3252.22	0.986
3260.73	0.988
3269.24	0.9889
3277.76	0.9902
3286.27	0.989
3294.78	0.989
3303.29	0.991
3311.8	0.9901
3320.32	0.991
3328.83	0.9886
3337.34	0.988
3345.85	0.989
3354.36	0.9893
3362.88	0.989
3371.39	0.992
3379.9	0.994
3388.41	0.994
3396.92	0.995
3405.44	0.995
3413.95	0.995
3422.46	0.995
3430.97	0.997
3439.48	0.997
3448	0.997
3456.51	0.997
3465.02	0.997
3473.53	0.997
3482.04	0.997
3490.56	0.997
3499.07	0.998
3507.58	0.998
3516.09	0.998
3524.6	0.998
3533.12	0.998
3541.63	0.998
3550.14	0.998
3558.65	0.998
3567.16	0.998
3575.68	0.998
3584.19	0.998
3592.7	0.9971
3601.21	0.997
3609.72	0.997
3618.24	0.997
3626.75	0.997
3635.26	0.997
3643.77	0.998
3652.28	1
3660.8	1
3669.31	1
3677.82	1
3686.33	1
3694.84	1
3703.36	1
3711.87	1
3720.38	0.998
3728.89	0.9972
3737.4	0.997
3745.92	0.9978
3754.43	0.9987
3762.94	1
3771.45	1
3779.96	1
3788.48	1
3796.99	1
