Infrared Spectrum: PENTAERYTHRITOLE TETRAACETATE
Formula: C13 H20 O8
CAS: 597-71-7
State: SOLID (MINERAL OIL MULL)
Melting point: 79-81 C
Class: COBLENTZ
Instrument: Not specified, most likely a prism, grating, or hybrid spectrometer.
Sampling: TRANSMISSION
Resolution: 4
Origin: WYANDOTTE CHEMICALS CORP., WYANDOTTE, MICHIGAN, USA
MICROMETERS	TRANSMITTANCE
2.027	0.951
2.06675	0.955
2.1065	0.96
2.14625	0.96
2.18601	0.918
2.22576	0.915
2.26551	0.91
2.30526	0.91
2.34501	0.921
2.38476	0.918
2.42451	0.916
2.46426	0.926
2.50402	0.931
2.54377	0.941
2.58352	0.941
2.62327	0.93
2.66302	0.938
2.70277	0.925
2.74252	0.911
2.78228	0.898
2.82203	0.867
2.86178	0.83
2.90153	0.782
2.94128	0.845
2.98103	0.843
3.02078	0.858
3.06054	0.87
3.10029	0.882
3.14004	0.882
3.17979	0.885
3.21954	0.893
3.25929	0.89
3.29904	0.84
3.33879	0.496
3.37855	0.111
3.4183	0.104
3.45805	0.249
3.4978	0.217
3.53755	0.496
3.5773	0.76
3.61705	0.85
3.65681	0.862
3.69656	0.863
3.73631	0.89
3.77606	0.895
3.81581	0.901
3.85556	0.918
3.89531	0.931
3.93506	0.943
3.97482	0.943
4.01457	0.941
4.05432	0.926
4.09407	0.92
4.13382	0.933
4.17357	0.94
4.21332	0.94
4.25308	0.921
4.29283	0.931
4.33258	0.951
4.37233	0.975
4.41208	0.96
4.45183	0.943
4.49158	0.946
4.53134	0.95
4.57109	0.945
4.61084	0.94
4.65059	0.906
4.69034	0.91
4.73009	0.906
4.76984	0.908
4.80959	0.941
4.84935	0.941
4.8891	0.94
4.92885	0.925
4.9686	0.92
5.00835	0.906
5.0481	0.901
5.08785	0.878
5.12761	0.878
5.16736	0.885
5.20711	0.877
5.24686	0.877
5.28661	0.865
5.32636	0.838
5.36611	0.805
5.40586	0.785
5.44562	0.74
5.48537	0.709
5.52512	0.644
5.56487	0.564
5.60462	0.498
5.64437	0.4
5.68412	0.302
5.72388	0.192
5.76363	0.076
5.80338	0.116
5.84313	0.194
5.88288	0.279
5.92263	0.342
5.96238	0.45
6.00214	0.508
6.04189	0.493
6.08164	0.536
6.12139	0.602
6.16114	0.654
6.20089	0.689
6.24064	0.715
6.28039	0.732
6.32015	0.74
6.3599	0.729
6.39965	0.739
6.4394	0.722
6.47915	0.725
6.5189	0.727
6.55865	0.73
6.59841	0.73
6.63816	0.729
6.67791	0.676
6.71766	0.498
6.75741	0.28
6.79716	0.269
6.83691	0.272
6.87666	0.303
6.91642	0.325
6.95617	0.363
6.99592	0.377
7.03567	0.397
7.07542	0.378
7.11517	0.337
7.15492	0.255
7.19468	0.189
7.23443	0.254
7.27418	0.22
7.31393	0.152
7.35368	0.39
7.39343	0.548
7.43318	0.609
7.47294	0.616
7.51269	0.601
7.55244	0.581
7.59219	0.544
7.63194	0.495
7.67169	0.436
7.71144	0.357
7.75119	0.26
7.79095	0.265
7.8307	0.239
7.87045	0.194
7.9102	0.136
7.94995	0.093
7.9897	0.071
8.02945	0.061
8.06921	0.056
8.10896	0.058
8.14871	0.068
8.18846	0.096
8.22821	0.132
8.26796	0.181
8.30771	0.247
8.34746	0.328
8.38722	0.383
8.42697	0.465
8.46672	0.516
8.50647	0.485
8.54622	0.509
8.58597	0.609
8.62572	0.652
8.66548	0.679
8.70523	0.71
8.74498	0.739
8.78473	0.755
8.82448	0.779
8.86423	0.789
8.90398	0.797
8.94374	0.795
8.98349	0.787
9.02324	0.782
9.06299	0.77
9.10274	0.752
9.14249	0.727
9.18224	0.696
9.22199	0.664
9.26175	0.626
9.3015	0.579
9.34125	0.521
9.381	0.443
9.42075	0.35
9.4605	0.269
9.50025	0.191
9.54001	0.129
9.57976	0.104
9.61951	0.104
9.65926	0.127
9.69901	0.181
9.73876	0.259
9.77851	0.337
9.81826	0.416
9.85802	0.49
9.89777	0.536
9.93752	0.579
9.97727	0.588
10.017	0.569
10.0568	0.478
10.0965	0.368
10.1363	0.383
10.176	0.498
10.2158	0.596
10.2555	0.651
10.2953	0.689
10.335	0.712
10.3748	0.735
10.4145	0.754
10.4543	0.762
10.494	0.772
10.5338	0.779
10.5735	0.784
10.6133	0.787
10.653	0.787
10.6928	0.782
10.7325	0.76
10.7723	0.704
10.812	0.596
10.8518	0.435
10.8916	0.342
10.9313	0.426
10.9711	0.453
11.0108	0.383
11.0506	0.302
11.0903	0.348
11.1301	0.49
11.1698	0.596
11.2096	0.669
11.2493	0.732
11.2891	0.764
11.3288	0.784
11.3686	0.808
11.4083	0.82
11.4481	0.83
11.4878	0.837
11.5276	0.845
11.5673	0.853
11.6071	0.857
11.6468	0.857
11.6866	0.858
11.7263	0.858
11.7661	0.86
11.8058	0.857
11.8456	0.862
11.8853	0.862
11.9251	0.863
11.9648	0.865
12.0046	0.868
12.0443	0.87
12.0841	0.875
12.1238	0.878
12.1636	0.883
12.2033	0.883
12.2431	0.882
12.2828	0.885
12.3226	0.888
12.3624	0.887
12.4021	0.885
12.4419	0.887
12.4816	0.888
12.5214	0.89
12.5611	0.89
12.6009	0.892
12.6406	0.893
12.6804	0.892
12.7201	0.89
12.7599	0.895
12.7996	0.895
12.8394	0.893
12.8791	0.893
12.9189	0.888
12.9586	0.892
12.9984	0.89
13.0381	0.888
13.0779	0.887
13.1176	0.883
13.1574	0.885
13.1971	0.885
13.2369	0.878
13.2766	0.878
13.3164	0.877
13.3561	0.88
13.3959	0.877
13.4356	0.873
13.4754	0.868
13.5151	0.868
13.5549	0.862
13.5946	0.858
13.6344	0.86
13.6741	0.86
13.7139	0.86
13.7536	0.858
13.7934	0.855
13.8332	0.853
13.8729	0.85
13.9127	0.847
13.9524	0.853
13.9922	0.862
14.0319	0.868
14.0717	0.877
14.1114	0.88
14.1512	0.882
14.1909	0.887
14.2307	0.887
14.2704	0.885
14.3102	0.888
14.3499	0.887
14.3897	0.887
14.4294	0.883
14.4692	0.888
14.5089	0.88
14.5487	0.875
14.5884	0.877
14.6282	0.875
14.6679	0.873
14.7077	0.873
14.7474	0.868
14.7872	0.863
14.8269	0.862
14.8667	0.857
14.9064	0.853
14.9462	0.853
14.9859	0.845
15.0257	0.83
15.0654	0.81
15.1052	0.802
15.1449	0.807
15.1847	0.8
15.2244	0.772
15.2642	0.724
15.304	0.676
15.3437	0.647
15.3835	0.646
15.4232	0.671
15.463	0.689
15.5027	0.687
15.5425	0.686
15.5822	0.694
15.622	0.717
15.6617	0.734
15.7015	0.749
15.7412	0.76
15.781	0.769
15.8207	0.762
15.8605	0.767
15.9002	0.764
15.94	0.765
15.9797	0.754
