Infrared Spectrum: Alpha-IODOPROPIONIC ACID
Formula: C3 H5 I O2
CAS: 598-80-1
State: SOLID (MINERAL OIL MULL)
Class: COBLENTZ
Instrument: Not specified, most likely a prism, grating, or hybrid spectrometer.
Sampling: TRANSMISSION
Resolution: 4
Origin: WYANDOTTE CHEMICALS CORP., WYANDOTTE, MICHIGAN, USA
MICROMETERS	TRANSMITTANCE
2.041	0.87
2.08174	0.872
2.12247	0.879
2.16321	0.875
2.20394	0.839
2.24468	0.814
2.28541	0.819
2.32615	0.826
2.36688	0.827
2.40762	0.834
2.44836	0.863
2.48909	0.87
2.52983	0.877
2.57056	0.914
2.6113	0.901
2.65203	0.931
2.69277	0.931
2.7335	0.921
2.77424	0.909
2.81498	0.875
2.85571	0.853
2.89645	0.855
2.93718	0.855
2.97792	0.839
3.01865	0.747
3.05939	0.66
3.10012	0.54
3.14086	0.458
3.1816	0.396
3.22233	0.313
3.26307	0.279
3.3038	0.187
3.34454	0.037
3.38527	0.025
3.42601	0.02
3.46674	0.023
3.50748	0.028
3.54821	0.149
3.58895	0.301
3.62969	0.376
3.67042	0.361
3.71116	0.378
3.75189	0.402
3.79263	0.373
3.83336	0.386
3.8741	0.446
3.91483	0.459
3.95557	0.427
3.99631	0.461
4.03704	0.528
4.07778	0.528
4.11851	0.548
4.15925	0.582
4.19998	0.604
4.24072	0.603
4.28145	0.604
4.32219	0.642
4.36293	0.678
4.40366	0.713
4.4444	0.722
4.48513	0.73
4.52587	0.752
4.5666	0.766
4.60734	0.768
4.64807	0.768
4.68881	0.771
4.72955	0.8
4.77028	0.8
4.81102	0.826
4.85175	0.819
4.89249	0.833
4.93322	0.829
4.97396	0.851
5.01469	0.863
5.05543	0.865
5.09617	0.858
5.1369	0.856
5.17764	0.858
5.21837	0.868
5.25911	0.862
5.29984	0.862
5.34058	0.867
5.38131	0.865
5.42205	0.87
5.46279	0.867
5.50352	0.817
5.54426	0.81
5.58499	0.792
5.62573	0.747
5.66646	0.722
5.7072	0.609
5.74793	0.407
5.78867	0.107
5.8294	0.073
5.87014	0.148
5.91088	0.209
5.95161	0.257
5.99235	0.308
6.03308	0.352
6.07382	0.413
6.11455	0.461
6.15529	0.529
6.19602	0.567
6.23676	0.608
6.2775	0.626
6.31823	0.666
6.35897	0.664
6.3997	0.698
6.44044	0.686
6.48117	0.725
6.52191	0.701
6.56264	0.718
6.60338	0.701
6.64412	0.701
6.68485	0.678
6.72559	0.521
6.76632	0.156
6.80706	0.091
6.84779	0.063
6.88853	0.085
6.92926	0.228
6.97	0.451
7.01074	0.291
7.05147	0.235
7.09221	0.337
7.13294	0.417
7.17368	0.425
7.21441	0.148
7.25515	0.195
7.29588	0.357
7.33662	0.516
7.37736	0.546
7.41809	0.536
7.45883	0.456
7.49956	0.327
7.5403	0.344
7.58103	0.436
7.62177	0.495
7.6625	0.517
7.70324	0.451
7.74398	0.347
7.78471	0.33
7.82545	0.385
7.86618	0.446
7.90692	0.485
7.94765	0.396
7.98839	0.206
8.02912	0.119
8.06986	0.137
8.1106	0.178
8.15133	0.233
8.19207	0.291
8.2328	0.339
8.27354	0.361
8.31427	0.41
8.35501	0.451
8.39574	0.487
8.43648	0.528
8.47721	0.531
8.51795	0.541
8.55869	0.568
8.59942	0.55
8.64016	0.48
8.68089	0.488
8.72163	0.332
8.76236	0.304
8.8031	0.425
8.84383	0.529
8.88457	0.586
8.92531	0.618
8.96604	0.65
9.00678	0.688
9.04751	0.703
9.08825	0.701
9.12898	0.695
9.16972	0.647
9.21045	0.49
9.25119	0.267
9.29193	0.366
9.33266	0.41
9.3734	0.48
9.41413	0.545
9.45487	0.436
9.4956	0.425
9.53634	0.524
9.57707	0.57
9.61781	0.608
9.65855	0.635
9.69928	0.655
9.74002	0.669
9.78075	0.684
9.82149	0.691
9.86222	0.698
9.90296	0.708
9.94369	0.706
9.98443	0.7
10.0252	0.684
10.0659	0.632
10.1066	0.57
10.1474	0.495
10.1881	0.398
10.2288	0.301
10.2696	0.349
10.3103	0.458
10.351	0.531
10.3918	0.558
10.4325	0.546
10.4733	0.528
10.514	0.499
10.5547	0.468
10.5955	0.439
10.6362	0.405
10.6769	0.371
10.7177	0.345
10.7584	0.323
10.7991	0.308
10.8399	0.299
10.8806	0.293
10.9213	0.299
10.9621	0.303
11.0028	0.32
11.0436	0.33
11.0843	0.356
11.125	0.367
11.1658	0.379
11.2065	0.402
11.2472	0.419
11.288	0.451
11.3287	0.459
11.3694	0.482
11.4102	0.492
11.4509	0.505
11.4916	0.519
11.5324	0.538
11.5731	0.545
11.6139	0.551
11.6546	0.533
11.6953	0.468
11.7361	0.396
11.7768	0.41
11.8175	0.468
11.8583	0.514
11.899	0.557
11.9397	0.584
11.9805	0.608
12.0212	0.637
12.0619	0.645
12.1027	0.66
12.1434	0.672
12.1841	0.679
12.2249	0.689
12.2656	0.698
12.3064	0.71
12.3471	0.717
12.3878	0.72
12.4286	0.724
12.4693	0.729
12.51	0.734
12.5508	0.737
12.5915	0.746
12.6322	0.746
12.673	0.751
12.7137	0.756
12.7544	0.761
12.7952	0.761
12.8359	0.77
12.8767	0.771
12.9174	0.771
12.9581	0.776
12.9989	0.778
13.0396	0.788
13.0803	0.785
13.1211	0.775
13.1618	0.734
13.2025	0.698
13.2433	0.691
13.284	0.725
13.3247	0.747
13.3655	0.761
13.4062	0.771
13.447	0.771
13.4877	0.768
13.5284	0.763
13.5692	0.758
13.6099	0.759
13.6506	0.759
13.6914	0.756
13.7321	0.754
13.7728	0.746
13.8136	0.729
13.8543	0.729
13.895	0.732
13.9358	0.775
13.9765	0.816
14.0172	0.85
14.058	0.875
14.0987	0.897
14.1395	0.913
14.1802	0.926
14.2209	0.94
14.2617	0.943
14.3024	0.95
14.3431	0.952
14.3839	0.957
14.4246	0.957
14.4653	0.96
14.5061	0.96
14.5468	0.954
14.5875	0.952
14.6283	0.942
14.669	0.94
14.7098	0.935
14.7505	0.921
14.7912	0.913
14.832	0.906
14.8727	0.901
14.9134	0.899
14.9542	0.88
14.9949	0.839
15.0356	0.749
15.0764	0.689
15.1171	0.684
15.1578	0.688
15.1986	0.65
15.2393	0.586
15.28	0.507
15.3208	0.465
15.3615	0.461
15.4023	0.478
15.443	0.509
15.4837	0.546
15.5245	0.557
15.5652	0.56
15.6059	0.56
15.6467	0.563
15.6874	0.568
15.7281	0.575
15.7689	0.589
15.8096	0.599
15.8503	0.603
15.8911	0.606
15.9318	0.609
15.9726	0.603
