Infrared Spectrum: n-BUTYL SULFONE
Formula: C8 H18 O2 S
CAS: 598-04-9
State: SOLID (MINERAL OIL MULL)
Melting point: 41-46 C
Class: COBLENTZ
Instrument: Not specified, most likely a prism, grating, or hybrid spectrometer.
Sampling: TRANSMISSION
Resolution: 4
Origin: WYANDOTTE CHEMICALS CORP., WYANDOTTE, MICHIGAN, USA
MICROMETERS	TRANSMITTANCE
2.033	0.98
2.07283	0.983
2.11266	0.98
2.15249	0.968
2.19231	0.908
2.23214	0.893
2.27197	0.898
2.3118	0.908
2.35163	0.915
2.39146	0.92
2.43129	0.93
2.47112	0.935
2.51094	0.943
2.55077	0.955
2.5906	0.96
2.63043	0.968
2.67026	0.97
2.71009	0.973
2.74992	0.971
2.78975	0.968
2.82957	0.963
2.8694	0.951
2.90923	0.941
2.94906	0.935
2.98889	0.921
3.02872	0.908
3.06855	0.903
3.10838	0.888
3.1482	0.861
3.18803	0.853
3.22786	0.805
3.26769	0.735
3.30752	0.452
3.34735	0.041
3.38718	0.044
3.427	0.049
3.46683	0.051
3.50666	0.144
3.54649	0.622
3.58632	0.758
3.62615	0.81
3.66598	0.79
3.70581	0.825
3.74563	0.821
3.78546	0.845
3.82529	0.86
3.86512	0.88
3.90495	0.893
3.94478	0.898
3.98461	0.911
4.02444	0.915
4.06426	0.916
4.10409	0.918
4.14392	0.928
4.18375	0.92
4.22358	0.9
4.26341	0.903
4.30324	0.925
4.34307	0.94
4.38289	0.953
4.42272	0.938
4.46255	0.946
4.50238	0.943
4.54221	0.935
4.58204	0.93
4.62187	0.94
4.66169	0.945
4.70152	0.95
4.74135	0.95
4.78118	0.953
4.82101	0.963
4.86084	0.956
4.90067	0.951
4.9405	0.961
4.98032	0.966
5.02015	0.968
5.05998	0.963
5.09981	0.973
5.13964	0.976
5.17947	0.975
5.2193	0.976
5.25913	0.973
5.29895	0.973
5.33878	0.973
5.37861	0.975
5.41844	0.975
5.45827	0.978
5.4981	0.973
5.53793	0.963
5.57775	0.966
5.61758	0.963
5.65741	0.965
5.69724	0.963
5.73707	0.946
5.7769	0.94
5.81673	0.938
5.85656	0.935
5.89638	0.93
5.93621	0.918
5.97604	0.906
6.01587	0.893
6.0557	0.885
6.09553	0.868
6.13536	0.87
6.17519	0.875
6.21501	0.86
6.25484	0.855
6.29467	0.865
6.3345	0.876
6.37433	0.88
6.41416	0.86
6.45399	0.855
6.49382	0.838
6.53364	0.828
6.57347	0.823
6.6133	0.798
6.65313	0.747
6.69296	0.622
6.73279	0.371
6.77262	0.099
6.81244	0.156
6.85227	0.149
6.8921	0.291
6.93193	0.417
6.97176	0.331
7.01159	0.65
7.05142	0.67
7.09125	0.715
7.13107	0.745
7.1709	0.675
7.21073	0.364
7.25056	0.222
7.29039	0.434
7.33022	0.582
7.37005	0.632
7.40988	0.613
7.4497	0.6
7.48953	0.539
7.52936	0.455
7.56919	0.261
7.60902	0.284
7.64885	0.364
7.68868	0.377
7.72851	0.241
7.76833	0.151
7.80816	0.261
7.84799	0.329
7.88782	0.151
7.92765	0.086
7.96748	0.129
8.00731	0.211
8.04713	0.302
8.08696	0.301
8.12679	0.4
8.16662	0.549
8.20645	0.603
8.24628	0.627
8.28611	0.599
8.32594	0.494
8.36576	0.602
8.40559	0.65
8.44542	0.672
8.48525	0.663
8.52508	0.622
8.56491	0.607
8.60474	0.63
8.64457	0.607
8.68439	0.575
8.72422	0.499
8.76405	0.226
8.80388	0.183
8.84371	0.141
8.88354	0.121
8.92337	0.309
8.9632	0.549
9.00302	0.494
9.04285	0.207
9.08268	0.098
9.12251	0.163
9.16234	0.282
9.20217	0.414
9.242	0.559
9.28182	0.63
9.32165	0.682
9.36148	0.712
9.40131	0.74
9.44114	0.735
9.48097	0.702
9.5208	0.697
9.56063	0.748
9.60045	0.778
9.64028	0.793
9.68011	0.801
9.71994	0.803
9.75977	0.777
9.7996	0.813
9.83943	0.825
9.87926	0.83
9.91908	0.813
9.95891	0.813
9.99874	0.757
10.0386	0.57
10.0784	0.73
10.1182	0.797
10.1581	0.813
10.1979	0.82
10.2377	0.816
10.2775	0.811
10.3174	0.81
10.3572	0.811
10.397	0.816
10.4369	0.821
10.4767	0.83
10.5165	0.836
10.5563	0.845
10.5962	0.848
10.636	0.85
10.6758	0.848
10.7157	0.841
10.7555	0.833
10.7953	0.821
10.8351	0.762
10.875	0.757
10.9148	0.816
10.9546	0.84
10.9945	0.853
11.0343	0.856
11.0741	0.841
11.1139	0.831
11.1538	0.836
11.1936	0.795
11.2334	0.733
11.2733	0.808
11.3131	0.861
11.3529	0.881
11.3927	0.893
11.4326	0.9
11.4724	0.903
11.5122	0.908
11.5521	0.91
11.5919	0.916
11.6317	0.913
11.6715	0.916
11.7114	0.913
11.7512	0.906
11.791	0.901
11.8309	0.895
11.8707	0.898
11.9105	0.903
11.9503	0.908
11.9902	0.908
12.03	0.905
12.0698	0.901
12.1097	0.903
12.1495	0.901
12.1893	0.901
12.2291	0.901
12.269	0.901
12.3088	0.901
12.3486	0.905
12.3885	0.9
12.4283	0.9
12.4681	0.89
12.5079	0.88
12.5478	0.878
12.5876	0.875
12.6274	0.86
12.6673	0.851
12.7071	0.836
12.7469	0.825
12.7868	0.8
12.8266	0.737
12.8664	0.582
12.9062	0.366
12.9461	0.276
12.9859	0.281
13.0257	0.377
13.0656	0.544
13.1054	0.623
13.1452	0.668
13.185	0.707
13.2249	0.695
13.2647	0.688
13.3045	0.723
13.3444	0.762
13.3842	0.76
13.424	0.735
13.4638	0.68
13.5037	0.637
13.5435	0.655
13.5833	0.642
13.6232	0.535
13.663	0.43
13.7028	0.46
13.7426	0.608
13.7825	0.71
13.8223	0.765
13.8621	0.788
13.902	0.801
13.9418	0.82
13.9816	0.848
14.0214	0.858
14.0613	0.861
14.1011	0.848
14.1409	0.83
14.1808	0.816
14.2206	0.833
14.2604	0.858
14.3002	0.881
14.3401	0.89
14.3799	0.903
14.4197	0.911
14.4596	0.923
14.4994	0.926
14.5392	0.926
14.579	0.93
14.6189	0.938
14.6587	0.935
14.6985	0.938
14.7384	0.936
14.7782	0.938
14.818	0.936
14.8578	0.93
14.8977	0.931
14.9375	0.933
14.9773	0.928
15.0172	0.911
15.057	0.89
15.0968	0.865
15.1366	0.87
15.1765	0.883
15.2163	0.901
15.2561	0.915
15.296	0.926
15.3358	0.901
15.3756	0.911
15.4154	0.915
15.4553	0.911
15.4951	0.901
15.5349	0.901
15.5748	0.898
15.6146	0.893
15.6544	0.885
15.6942	0.883
15.7341	0.875
15.7739	0.875
15.8137	0.86
15.8536	0.856
15.8934	0.853
15.9332	0.846
15.973	0.843
