Infrared Spectrum: PROPYL SULFONE
Formula: C6 H14 O2 S
CAS: 598-03-8
State: SOLUTION (2% CCl4 FOR 2-7.6, 2% CS2 FOR 7.6-16.0 MICRON) VS SOLVENT
Class: COBLENTZ III
Instrument: BAIRD (PRISM)
Instrument parameters: NaCl PRISM
Sampling: TRANSMISSION
Path length: 0.012 CM, 0.012 CM
Resolution: 2
Origin: DOW CHEMICAL COMPANY
MICROMETERS	TRANSMITTANCE
2.012	0.888
2.05095	0.887
2.08989	0.887
2.12884	0.888
2.16778	0.889
2.20673	0.88
2.24567	0.876
2.28462	0.871
2.32356	0.872
2.36251	0.88
2.40146	0.887
2.4404	0.891
2.47935	0.893
2.51829	0.903
2.55724	0.904
2.59618	0.898
2.63513	0.894
2.67408	0.899
2.71302	0.896
2.75197	0.893
2.79091	0.892
2.82986	0.891
2.8688	0.891
2.90775	0.891
2.94669	0.888
2.98564	0.889
3.02459	0.893
3.06353	0.891
3.10248	0.891
3.14142	0.891
3.18037	0.899
3.21931	0.902
3.25826	0.893
3.29721	0.88
3.33615	0.722
3.3751	0.636
3.41404	0.787
3.45299	0.798
3.49193	0.883
3.53088	0.894
3.56982	0.894
3.60877	0.905
3.64772	0.907
3.68666	0.911
3.72561	0.908
3.76455	0.91
3.8035	0.913
3.84244	0.913
3.88139	0.911
3.92033	0.913
3.95928	0.913
3.99823	0.913
4.03717	0.911
4.07612	0.91
4.11506	0.904
4.15401	0.915
4.19295	0.914
4.2319	0.91
4.27085	0.909
4.30979	0.91
4.34874	0.914
4.38768	0.91
4.42663	0.913
4.46557	0.91
4.50452	0.913
4.54346	0.913
4.58241	0.911
4.62136	0.913
4.6603	0.911
4.69925	0.911
4.73819	0.911
4.77714	0.914
4.81608	0.915
4.85503	0.911
4.89397	0.916
4.93292	0.913
4.97187	0.918
5.01081	0.91
5.04976	0.918
5.0887	0.914
5.12765	0.916
5.16659	0.919
5.20554	0.914
5.24449	0.931
5.28343	0.911
5.32238	0.913
5.36132	0.914
5.40027	0.914
5.43921	0.914
5.47816	0.918
5.5171	0.918
5.55605	0.918
5.595	0.918
5.63394	0.918
5.67289	0.915
5.71183	0.918
5.75078	0.915
5.78972	0.914
5.82867	0.918
5.86762	0.914
5.90656	0.911
5.94551	0.913
5.98445	0.913
6.0234	0.918
6.06234	0.91
6.10129	0.911
6.14023	0.911
6.17918	0.915
6.21813	0.916
6.25707	0.922
6.29602	0.935
6.33496	0.94
6.37391	0.936
6.41285	0.933
6.4518	0.933
6.49074	0.935
6.52969	0.935
6.56864	0.935
6.60758	0.933
6.64653	0.914
6.68547	0.91
6.72442	0.893
6.76336	0.842
6.80231	0.735
6.84126	0.732
6.8802	0.826
6.91915	0.867
6.95809	0.883
6.99704	0.882
7.03598	0.844
7.07493	0.797
7.11387	0.83
7.15282	0.877
7.19177	0.87
7.23071	0.848
7.26966	0.889
7.3086	0.88
7.34755	0.815
7.38649	0.728
7.42544	0.721
7.46438	0.753
7.50333	0.556
7.54228	0.363
7.58122	0.336
7.62017	0.402
7.65911	0.546
7.69806	0.564
7.737	0.471
7.77595	0.503
7.8149	0.721
7.85384	0.822
7.89279	0.827
7.93173	0.822
7.97068	0.798
8.00962	0.794
8.04857	0.839
8.08751	0.866
8.12646	0.883
8.16541	0.878
8.20435	0.85
8.2433	0.844
8.28224	0.859
8.32119	0.867
8.36013	0.872
8.39908	0.886
8.43803	0.891
8.47697	0.892
8.51592	0.891
8.55486	0.885
8.59381	0.87
8.63275	0.847
8.6717	0.805
8.71064	0.682
8.74959	0.481
8.78854	0.301
8.82748	0.243
8.86643	0.393
8.90537	0.623
8.94432	0.771
8.98326	0.83
9.02221	0.849
9.06115	0.858
9.1001	0.847
9.13905	0.833
9.17799	0.831
9.21694	0.832
9.25588	0.839
9.29483	0.838
9.33377	0.834
9.37272	0.848
9.41167	0.844
9.45061	0.832
9.48956	0.83
9.5285	0.821
9.56745	0.822
9.60639	0.859
9.64534	0.88
9.68428	0.889
9.72323	0.904
9.76218	0.908
9.80112	0.913
9.84007	0.914
9.87901	0.915
9.91796	0.915
9.9569	0.915
9.99585	0.921
10.0348	0.922
10.0737	0.922
10.1127	0.922
10.1516	0.92
10.1906	0.919
10.2295	0.922
10.2685	0.924
10.3074	0.925
10.3464	0.921
10.3853	0.919
10.4243	0.919
10.4632	0.918
10.5021	0.918
10.5411	0.92
10.58	0.925
10.619	0.921
10.6579	0.92
10.6969	0.92
10.7358	0.922
10.7748	0.925
10.8137	0.925
10.8527	0.92
10.8916	0.911
10.9305	0.904
10.9695	0.904
11.0084	0.888
11.0474	0.886
11.0863	0.887
11.1253	0.9
11.1642	0.903
11.2032	0.905
11.2421	0.91
11.2811	0.914
11.32	0.915
11.3589	0.921
11.3979	0.92
11.4368	0.914
11.4758	0.909
11.5147	0.9
11.5537	0.875
11.5926	0.854
11.6316	0.827
11.6705	0.8
11.7095	0.798
11.7484	0.817
11.7873	0.841
11.8263	0.85
11.8652	0.861
11.9042	0.875
11.9431	0.882
11.9821	0.888
12.021	0.899
12.06	0.904
12.0989	0.904
12.1379	0.907
12.1768	0.907
12.2157	0.903
12.2547	0.898
12.2936	0.889
12.3326	0.886
12.3715	0.877
12.4105	0.869
12.4494	0.867
12.4884	0.867
12.5273	0.865
12.5663	0.847
12.6052	0.827
12.6442	0.811
12.6831	0.789
12.722	0.772
12.761	0.77
12.7999	0.779
12.8389	0.803
12.8778	0.82
12.9168	0.841
12.9557	0.855
12.9947	0.859
13.0336	0.869
13.0726	0.88
13.1115	0.88
13.1504	0.882
13.1894	0.886
13.2283	0.886
13.2673	0.883
13.3062	0.866
13.3452	0.843
13.3841	0.834
13.4231	0.822
13.462	0.82
13.501	0.817
13.5399	0.821
13.5788	0.83
13.6178	0.842
13.6567	0.853
13.6957	0.866
13.7346	0.881
13.7736	0.883
13.8125	0.891
13.8515	0.893
13.8904	0.9
13.9294	0.9
13.9683	0.9
14.0072	0.896
14.0462	0.889
14.0851	0.891
14.1241	0.892
14.163	0.894
14.202	0.893
14.2409	0.88
14.2799	0.871
14.3188	0.869
14.3578	0.865
14.3967	0.872
14.4356	0.892
14.4746	0.904
14.5135	0.921
14.5525	0.931
14.5914	0.941
14.6304	0.949
14.6693	0.954
14.7083	0.957
14.7472	0.958
14.7862	0.965
14.8251	0.968
14.8641	0.969
14.903	0.965
14.9419	0.962
14.9809	0.96
15.0198	0.965
15.0588	0.968
15.0977	0.969
15.1367	0.969
15.1756	0.969
15.2146	0.965
15.2535	0.962
15.2925	0.955
15.3314	0.948
15.3703	0.946
15.4093	0.946
15.4482	0.949
15.4872	0.952
15.5261	0.954
15.5651	0.964
15.604	0.963
15.643	0.966
15.6819	0.966
15.7209	0.966
15.7598	0.962
15.7987	0.958
15.8377	0.952
15.8766	0.952
15.9156	0.949
15.9545	0.946
