Infrared Spectrum: ACETYL BROMIDE, BROMO-
Formula: C2 H2 Br2 O
CAS: 598-21-0
State: SOLUTION (2% IN CCl4 FOR 3800-1330, 2% IN CS2 FOR 1330-400 CM^-^1)
Boiling point: 148 C
Class: COBLENTZ III
Instrument: DOW KBr FOREPRISM-GRATING
Instrument parameters: BLAZED AT 3.5, 12.0, 20.0 MICRON, CHANGED AT 5.0, 7.5, 14.9 MICRON
Sampling: TRANSMISSION
Path length: 0.012, 0.010 CM
Resolution: 4
Origin: DOW CHEMICAL COMPANY
1/CM	TRANSMITTANCE
450.664	0.932
459.203	0.924
467.742	0.915
476.281	0.886
484.82	0.837
493.359	0.932
501.897	0.957
510.436	0.971
518.975	0.98
527.514	0.985
536.053	0.986
544.592	0.985
553.131	0.98
561.67	0.963
570.209	0.935
578.748	0.908
587.286	0.958
595.825	0.96
604.364	0.948
612.903	0.895
621.442	0.454
629.981	0.6344
638.52	0.929
647.059	0.926
655.598	0.923
664.137	0.955
672.675	0.958
681.214	0.952
689.753	0.949
698.292	0.946
706.831	0.926
715.37	0.8371
723.909	0.9209
732.448	0.964
740.987	0.97
749.526	0.973
758.064	0.976
766.603	0.977
775.142	0.977
783.681	0.97
792.22	0.968
800.759	0.968
809.298	0.968
817.837	0.968
826.376	0.964
834.915	0.945
843.454	0.877
851.992	0.805
860.531	0.81
869.07	0.852
877.609	0.88
886.148	0.906
894.687	0.909
903.226	0.923
911.765	0.958
920.304	0.958
928.843	0.935
937.381	0.803
945.92	0.524
954.459	0.853
962.998	0.943
971.537	0.946
980.076	0.936
988.615	0.901
997.154	0.806
1005.69	0.905
1014.23	0.97
1022.77	0.982
1031.31	0.985
1039.85	0.985
1048.39	0.985
1056.93	0.983
1065.46	0.98
1074	0.982
1082.54	0.985
1091.08	0.989
1099.62	0.997
1108.16	0.998
1116.7	1.004
1125.24	1.005
1133.78	0.989
1142.32	0.961
1150.85	0.924
1159.39	0.991
1167.93	0.995
1176.47	0.994
1185.01	0.995
1193.55	0.995
1202.09	0.991
1210.63	0.989
1219.17	0.989
1227.7	0.985
1236.24	0.998
1244.78	0.995
1253.32	0.989
1261.86	0.986
1270.4	0.974
1278.94	0.948
1287.48	0.979
1296.02	0.979
1304.55	0.985
1313.09	0.985
1321.63	0.985
1330.17	0.982
1338.71	0.979
1347.25	0.979
1355.79	0.979
1364.33	0.979
1372.87	0.971
1381.4	0.964
1389.94	0.813
1398.48	0.957
1407.02	0.979
1415.56	0.973
1424.1	0.985
1432.64	0.983
1441.18	0.98
1449.72	0.979
1458.25	0.976
1466.79	0.967
1475.33	0.958
1483.87	0.933
1492.41	0.896
1500.95	0.852
1509.49	0.796
1518.03	0.742
1526.57	0.698
1535.1	0.618
1543.64	0.514
1552.18	0.48
1560.72	0.537
1569.26	0.6169
1577.8	0.664
1586.34	0.694
1594.88	0.757
1603.42	0.858
1611.95	0.918
1620.49	0.967
1629.03	0.988
1637.57	1.005
1646.11	1.023
1654.65	1.013
1663.19	1.001
1671.73	0.997
1680.27	0.991
1688.8	0.986
1697.34	0.983
1705.88	0.979
1714.42	0.968
1722.96	0.961
1731.5	0.958
1740.04	0.961
1748.58	0.963
1757.12	0.963
1765.65	0.957
1774.19	0.933
1782.73	0.88
1791.27	0.765
1799.81	0.602
1808.35	0.717
1816.89	0.5669
1825.43	0.4068
1833.97	0.7989
1842.51	0.881
1851.04	0.886
1859.58	0.88
1868.12	0.901
1876.66	0.926
1885.2	0.914
1893.74	0.874
1902.28	0.859
1910.82	0.921
1919.36	0.96
1927.89	0.971
1936.43	0.979
1944.97	0.98
1953.51	0.979
1962.05	0.98
1970.59	0.979
1979.13	0.977
1987.67	0.976
1996.21	0.983
2004.74	0.991
2013.28	0.992
2021.82	0.9945
2030.36	0.997
2038.9	0.998
2047.44	0.998
2055.98	0.998
2064.52	0.998
2073.06	0.998
2081.59	1
2090.13	1
2098.67	1.001
2107.21	1.001
2115.75	1.001
2124.29	1
2132.83	1
2141.37	1
2149.91	1
2158.44	0.998
2166.98	0.9965
2175.52	0.9942
2184.06	0.994
2192.6	0.995
2201.14	0.997
2209.68	0.995
2218.22	0.994
2226.76	0.9923
2235.29	0.9916
2243.83	0.989
2252.37	0.985
2260.91	0.9821
2269.45	0.9782
2277.99	0.9741
2286.53	0.97
2295.07	0.968
2303.61	0.968
2312.14	0.97
2320.68	0.971
2329.22	0.973
2337.76	0.975
2346.3	0.9771
2354.84	0.9811
2363.38	0.9831
2371.92	0.986
2380.46	0.989
2388.99	0.988
2397.53	0.989
2406.07	0.991
2414.61	0.992
2423.15	0.992
2431.69	0.992
2440.23	0.991
2448.77	0.992
2457.31	0.991
2465.84	0.989
2474.38	0.9917
2482.92	0.991
2491.46	0.991
2500	0.991
2508.54	0.991
2517.08	0.989
2525.62	0.988
2534.16	0.988
2542.7	0.988
2551.23	0.988
2559.77	0.986
2568.31	0.986
2576.85	0.986
2585.39	0.986
2593.93	0.986
2602.47	0.986
2611.01	0.985
2619.55	0.985
2628.08	0.985
2636.62	0.985
2645.16	0.985
2653.7	0.985
2662.24	0.985
2670.78	0.985
2679.32	0.9851
2687.86	0.985
2696.4	0.985
2704.93	0.985
2713.47	0.985
2722.01	0.9824
2730.55	0.98
2739.09	0.9807
2747.63	0.98
2756.17	0.98
2764.71	0.98
2773.25	0.98
2781.78	0.979
2790.32	0.979
2798.86	0.98
2807.4	0.98
2815.94	0.9797
2824.48	0.98
2833.02	0.98
2841.56	0.98
2850.1	0.9777
2858.63	0.982
2867.17	0.982
2875.71	0.983
2884.25	0.982
2892.79	0.982
2901.33	0.9812
2909.87	0.98
2918.41	0.98
2926.95	0.98
2935.48	0.9781
2944.02	0.964
2952.56	0.938
2961.1	0.951
2969.64	0.963
2978.18	0.966
2986.72	0.9674
2995.26	0.9669
3003.8	0.9604
3012.33	0.957
3020.87	0.9652
3029.41	0.971
3037.95	0.971
3046.49	0.974
3055.03	0.977
3063.57	0.979
3072.11	0.98
3080.65	0.98
3089.18	0.9814
3097.72	0.983
3106.26	0.985
3114.8	0.986
3123.34	0.986
3131.88	0.988
3140.42	0.9888
3148.96	0.9913
3157.5	0.9948
3166.03	0.9973
3174.57	1
3183.11	1.0027
3191.65	1.008
3200.19	1.008
3208.73	1.01
3217.27	1.011
3225.81	1.011
3234.35	1.014
3242.89	1.019
3251.42	1.019
3259.96	1.02
3268.5	1.0225
3277.04	1.023
3285.58	1.0255
3294.12	1.028
3302.66	1.029
3311.2	1.029
3319.74	1.029
3328.27	1.0278
3336.81	1.0272
3345.35	1.032
3353.89	1.032
3362.43	1.032
3370.97	1.033
3379.51	1.035
3388.05	1.036
3396.59	1.033
3405.12	1.031
3413.66	1.028
3422.2	1.028
3430.74	1.0258
3439.28	1.023
3447.82	1.023
3456.36	1.022
3464.9	1.0197
3473.44	1.019
3481.97	1.0154
3490.51	1.013
3499.05	1.0123
3507.59	1.0101
3516.13	1.008
3524.67	1.007
3533.21	1.005
3541.75	1.004
3550.29	1.002
3558.82	1.002
3567.36	1.001
3575.9	1.001
3584.44	1
3592.98	1
3601.52	1
3610.06	0.998
3618.6	0.9975
3627.14	0.995
3635.67	0.994
3644.21	0.992
3652.75	0.992
3661.29	0.994
3669.83	0.9946
3678.37	0.9953
3686.91	0.998
3695.45	0.998
3703.99	0.998
3712.52	0.998
3721.06	0.998
3729.6	0.997
3738.14	0.997
3746.68	0.995
3755.22	0.995
3763.76	0.995
3772.3	0.995
3780.84	0.995
3789.37	0.995
3797.91	0.992
