Infrared Spectrum: Urea, 2-ethylcrotonyl-
Formula: C7 H12 N2 O2
CAS: 5982-97-8
State: SOLID (SPLIT MULL), FLUOROLUBE FOR 3800-1330 CM^-^1, NUJOL FOR 1330-400 CM^-^1
Melting point: 189 C
Class: COBLENTZ III
Instrument: BECKMAN IR-9 (GRATING)
Instrument parameters: ORDER CHANGES: 670, 1200, 2000 CM^-^1
Sampling: TRANSMISSION
Resolution: 2
Origin: DOW CHEMICAL COMPANY
1/CM	TRANSMITTANCE
3800	0.6871
3791	0.6896
3782	0.6925
3773	0.6956
3764	0.6987
3755	0.7014
3746	0.7033
3737	0.7051
3728	0.7062
3719	0.7074
3710	0.7086
3701	0.7098
3692	0.7111
3683	0.713
3674	0.7148
3665	0.7167
3656	0.7187
3647	0.7208
3638	0.7228
3629	0.7246
3620	0.7264
3611	0.7287
3602	0.7311
3593	0.7332
3584	0.736
3575	0.7389
3566	0.7421
3557	0.7458
3548	0.7497
3539	0.7524
3530	0.7551
3521	0.7565
3512	0.7575
3503	0.758
3494	0.7576
3485	0.7538
3476	0.7469
3467	0.7301
3458	0.71
3449	0.6915
3440	0.6731
3431	0.6472
3422	0.6104
3413	0.5684
3404	0.5085
3395	0.3782
3386	0.1857
3377	0.0449
3368	0.0273
3359	0.0577
3350	0.1111
3341	0.1466
3332	0.1164
3323	0.0372
3314	0.0249
3305	0.0344
3296	0.1312
3287	0.1707
3278	0.1979
3269	0.21
3260	0.2099
3251	0.1915
3242	0.1581
3233	0.1383
3224	0.1294
3215	0.1307
3206	0.134
3197	0.1566
3188	0.1819
3179	0.2107
3170	0.2457
3161	0.2808
3152	0.3109
3143	0.3398
3134	0.359
3125	0.3786
3116	0.4022
3107	0.4323
3098	0.4579
3089	0.4768
3080	0.4936
3071	0.5101
3062	0.5224
3053	0.5338
3044	0.5472
3035	0.5596
3026	0.5689
3017	0.5746
3008	0.5759
2999	0.557
2990	0.5207
2981	0.5045
2972	0.3643
2963	0.2863
2954	0.4239
2945	0.4596
2936	0.4418
2927	0.4581
2918	0.4285
2909	0.505
2900	0.5594
2891	0.5716
2882	0.5475
2873	0.525
2864	0.5572
2855	0.5346
2846	0.5645
2837	0.6066
2828	0.6223
2819	0.6329
2810	0.634
2801	0.6375
2792	0.6489
2783	0.6581
2774	0.6668
2765	0.6751
2756	0.681
2747	0.6854
2738	0.6865
2729	0.6839
2720	0.6856
2711	0.6884
2702	0.6917
2693	0.6955
2684	0.7005
2675	0.7055
2666	0.7106
2657	0.7158
2648	0.7195
2639	0.7104
2630	0.7081
2621	0.7118
2612	0.7186
2603	0.7241
2594	0.7269
2585	0.729
2576	0.7301
2567	0.7331
2558	0.736
2549	0.7389
2540	0.7418
2531	0.7449
2522	0.7457
2513	0.7454
2504	0.7453
2495	0.7451
2486	0.7451
2477	0.7449
2468	0.7447
2459	0.7445
2450	0.7444
2441	0.7443
2432	0.7442
2423	0.7447
2414	0.7458
2405	0.7467
2396	0.7482
2387	0.7508
2378	0.7518
2369	0.7496
2360	0.7474
2351	0.7453
2342	0.7431
2333	0.7414
2324	0.7408
2315	0.7408
2306	0.743
2297	0.7453
2288	0.7471
2279	0.7489
2270	0.7525
2261	0.7564
2252	0.7607
2243	0.765
2234	0.7694
2225	0.7733
2216	0.7772
2207	0.7812
2198	0.7856
2189	0.7899
2180	0.7941
2171	0.7983
2162	0.8024
2153	0.8061
2144	0.8092
2135	0.8112
2126	0.8134
2117	0.8153
2108	0.8172
2099	0.8196
2090	0.8221
2081	0.8249
2072	0.8275
2063	0.8296
2054	0.8317
2045	0.8337
2036	0.8356
2027	0.8374
2018	0.8385
2009	0.8395
2000	0.8408
1991	0.8402
1982	0.8392
1973	0.8378
1964	0.8368
1955	0.8364
1946	0.8347
1937	0.8321
1928	0.8287
1919	0.8245
1910	0.8189
1901	0.8172
1892	0.8228
1883	0.8258
1874	0.826
1865	0.8244
1856	0.8212
1847	0.8161
1838	0.809
1829	0.8006
1820	0.7925
1811	0.7839
1802	0.774
1793	0.7628
1784	0.7483
1775	0.7306
1766	0.7038
1757	0.6615
1748	0.616
1739	0.5639
1730	0.4654
1721	0.3127
1712	0.0612
1703	0.0057
1694	0.0264
1685	0.0362
1676	0.0118
1667	0.0116
1658	0.046
1649	0.0515
1640	0.0759
1631	0.1145
1622	0.1359
1613	0.1307
1604	0.0952
1595	0.1136
1586	0.1926
1577	0.3134
1568	0.3945
1559	0.4238
1550	0.4443
1541	0.4548
1532	0.4606
1523	0.4745
1514	0.4814
1505	0.4717
1496	0.4454
1487	0.3818
1478	0.2566
1469	0.137
1460	0.1695
1451	0.2328
1442	0.2859
1433	0.285
1424	0.2916
1415	0.2124
1406	0.0818
1397	0.0281
1388	0.0465
1379	0.0747
1370	0.2115
1361	0.2173
1352	0.276
1343	0.2974
1334	0.3022
1325	0.2642
1316	0.2846
1307	0.3812
1298	0.4487
1289	0.4647
1280	0.5159
1271	0.518
1262	0.3366
1253	0.0845
1244	0.1131
1235	0.1565
1226	0.3302
1217	0.4362
1208	0.4454
1199	0.4375
1190	0.4048
1181	0.3475
1172	0.1511
1163	0.2865
1154	0.3391
1145	0.332
1136	0.3018
1127	0.2252
1118	0.1117
1109	0.0052
1100	0.025
1091	0.0283
1082	0.1544
1073	0.204
1064	0.1625
1055	0.3035
1046	0.3452
1037	0.3859
1028	0.4704
1019	0.5241
1010	0.5769
1001	0.6229
992	0.6357
983	0.5696
974	0.5955
965	0.3092
956	0.3032
947	0.5649
938	0.7218
929	0.7614
920	0.7865
911	0.8044
902	0.8039
893	0.7885
884	0.7424
875	0.4788
866	0.5562
857	0.5766
848	0.5691
839	0.5394
830	0.3816
821	0.2906
812	0.3249
803	0.4612
794	0.5264
785	0.23
776	0.4272
767	0.3189
758	0.1702
749	0.2656
740	0.3376
731	0.3987
722	0.4397
713	0.4516
704	0.2206
695	0.0932
686	0.1799
677	0.4934
668	0.6223
659	0.6874
650	0.7354
641	0.7286
632	0.5398
623	0.6196
614	0.6436
605	0.6725
596	0.7828
587	0.8169
578	0.8231
569	0.8069
560	0.7847
551	0.8034
542	0.8012
533	0.7861
524	0.7389
515	0.5904
506	0.6678
497	0.6027
488	0.4285
479	0.364
470	0.4614
461	0.5103
452	0.5236
443	0.4625
434	0.5676
425	0.5799
416	0.5666
407	0.5571
