Infrared Spectrum: Beta-PHENYLETHYL ALCOHOL
Formula: C8 H10 O
CAS: 60-12-8
State: LIQUID
Class: COBLENTZ
Instrument: Not specified, most likely a prism, grating, or hybrid spectrometer.
Sampling: TRANSMISSION
Path length: 0.0025 CM
Resolution: 4
Origin: INFRACORD
MICROMETERS	TRANSMITTANCE
2.524	0.912
2.55944	0.908
2.59489	0.907
2.63033	0.907
2.66577	0.886
2.70121	0.828
2.73666	0.707
2.7721	0.577
2.80754	0.484
2.84299	0.327
2.87843	0.218
2.91387	0.137
2.94932	0.114
2.98476	0.114
3.0202	0.149
3.05564	0.205
3.09109	0.289
3.12653	0.384
3.16197	0.479
3.19742	0.532
3.23286	0.498
3.2683	0.46
3.30375	0.505
3.33919	0.572
3.37463	0.301
3.41007	0.308
3.44552	0.333
3.48096	0.386
3.5164	0.595
3.55185	0.68
3.58729	0.724
3.62273	0.755
3.65817	0.765
3.69362	0.784
3.72906	0.803
3.7645	0.809
3.79995	0.81
3.83539	0.814
3.87083	0.829
3.90628	0.842
3.94172	0.847
3.97716	0.85
4.0126	0.854
4.04805	0.86
4.08349	0.865
4.11893	0.867
4.15438	0.873
4.18982	0.88
4.22526	0.884
4.2607	0.887
4.29615	0.887
4.33159	0.888
4.36703	0.891
4.40248	0.892
4.43792	0.897
4.47336	0.9
4.50881	0.901
4.54425	0.901
4.57969	0.901
4.61513	0.904
4.65058	0.906
4.68602	0.907
4.72146	0.908
4.75691	0.908
4.79235	0.907
4.82779	0.9
4.86324	0.897
4.89868	0.895
4.93412	0.9
4.96956	0.905
5.00501	0.905
5.04045	0.904
5.07589	0.892
5.11134	0.865
5.14678	0.847
5.18222	0.881
5.21766	0.893
5.25311	0.893
5.28855	0.882
5.32399	0.863
5.35944	0.861
5.39488	0.893
5.43032	0.9
5.46577	0.902
5.50121	0.879
5.53665	0.865
5.57209	0.878
5.60754	0.897
5.64298	0.899
5.67842	0.897
5.71387	0.886
5.74931	0.878
5.78475	0.855
5.8202	0.822
5.85564	0.798
5.89108	0.79
5.92652	0.824
5.96197	0.844
5.99741	0.85
6.03285	0.848
6.0683	0.846
6.10374	0.841
6.13918	0.837
6.17462	0.814
6.21007	0.792
6.24551	0.633
6.28095	0.723
6.3164	0.779
6.35184	0.84
6.38728	0.868
6.42273	0.874
6.45817	0.873
6.49361	0.874
6.52905	0.872
6.5645	0.867
6.59994	0.833
6.63538	0.785
6.67083	0.543
6.70627	0.34
6.74171	0.594
6.77716	0.592
6.8126	0.584
6.84804	0.581
6.88348	0.366
6.91893	0.377
6.95437	0.497
6.98981	0.511
7.02526	0.513
7.0607	0.52
7.09614	0.537
7.13158	0.55
7.16703	0.564
7.20247	0.568
7.23791	0.559
7.27336	0.55
7.3088	0.55
7.34424	0.579
7.37969	0.601
7.41513	0.601
7.45057	0.601
7.48601	0.601
7.52146	0.6
7.5569	0.615
7.59234	0.649
7.62779	0.669
7.66323	0.689
7.69867	0.708
7.73411	0.712
7.76956	0.713
7.805	0.713
7.84044	0.697
7.87589	0.679
7.91133	0.675
7.94677	0.676
7.98222	0.689
8.01766	0.694
8.0531	0.694
8.08854	0.691
8.12399	0.7
8.15943	0.707
8.19487	0.72
8.23032	0.734
8.26576	0.738
8.3012	0.728
8.33665	0.717
8.37209	0.706
8.40753	0.692
8.44297	0.656
8.47842	0.607
8.51386	0.594
8.5493	0.603
8.58475	0.624
8.62019	0.646
8.65563	0.65
8.69107	0.687
8.72652	0.715
8.76196	0.747
8.7974	0.763
8.83285	0.779
8.86829	0.784
8.90373	0.784
8.93918	0.784
8.97462	0.764
9.01006	0.742
9.0455	0.734
9.08095	0.734
9.11639	0.719
9.15183	0.662
9.18728	0.549
9.22272	0.414
9.25816	0.391
9.29361	0.409
9.32905	0.37
9.36449	0.271
9.39993	0.183
9.43538	0.134
9.47082	0.1
9.50626	0.061
9.54171	0.041
9.57715	0.039
9.61259	0.055
9.64803	0.114
9.68348	0.151
9.71892	0.175
9.75436	0.192
9.78981	0.202
9.82525	0.214
9.86069	0.261
9.89614	0.339
9.93158	0.414
9.96702	0.454
10.0025	0.553
10.0379	0.644
10.0734	0.693
10.1088	0.718
10.1442	0.744
10.1797	0.76
10.2151	0.775
10.2506	0.778
10.286	0.779
10.3215	0.779
10.3569	0.779
10.3923	0.779
10.4278	0.772
10.4632	0.77
10.4987	0.772
10.5341	0.779
10.5696	0.788
10.605	0.798
10.6404	0.813
10.6759	0.822
10.7113	0.83
10.7468	0.836
10.7822	0.836
10.8177	0.836
10.8531	0.835
10.8885	0.822
10.924	0.785
10.9594	0.743
10.9949	0.733
11.0303	0.745
11.0658	0.782
11.1012	0.802
11.1366	0.814
11.1721	0.821
11.2075	0.828
11.243	0.831
11.2784	0.833
11.3139	0.833
11.3493	0.833
11.3847	0.833
11.4202	0.829
11.4556	0.817
11.4911	0.801
11.5265	0.775
11.562	0.733
11.5974	0.674
11.6328	0.622
11.6683	0.602
11.7037	0.623
11.7392	0.679
11.7746	0.711
11.8101	0.737
11.8455	0.756
11.8809	0.771
11.9164	0.781
11.9518	0.782
11.9873	0.781
12.0227	0.768
12.0582	0.747
12.0936	0.736
12.129	0.733
12.1645	0.738
12.1999	0.745
12.2354	0.75
12.2708	0.751
12.3063	0.751
12.3417	0.751
12.3771	0.751
12.4126	0.751
12.448	0.751
12.4835	0.751
12.5189	0.749
12.5544	0.74
12.5898	0.728
12.6252	0.715
12.6607	0.706
12.6961	0.692
12.7316	0.676
12.767	0.672
12.8025	0.667
12.8379	0.662
12.8733	0.642
12.9088	0.609
12.9442	0.562
12.9797	0.519
13.0151	0.492
13.0506	0.489
13.086	0.482
13.1214	0.453
13.1569	0.4
13.1923	0.327
13.2278	0.242
13.2632	0.175
13.2987	0.124
13.3341	0.1
13.3695	0.094
13.405	0.097
13.4404	0.132
13.4759	0.168
13.5113	0.214
13.5468	0.253
13.5822	0.278
13.6176	0.307
13.6531	0.323
13.6885	0.353
13.724	0.381
13.7594	0.409
13.7949	0.431
13.8303	0.447
13.8657	0.459
13.9012	0.463
13.9366	0.465
13.9721	0.465
14.0075	0.446
14.043	0.407
14.0784	0.346
14.1138	0.267
14.1493	0.165
14.1847	0.1
14.2202	0.048
14.2556	0.029
14.2911	0.02
14.3265	0.027
14.3619	0.08
14.3974	0.176
14.4328	0.261
14.4683	0.325
14.5037	0.372
14.5392	0.407
14.5746	0.423
14.61	0.433
14.6455	0.435
14.6809	0.437
14.7164	0.437
14.7518	0.437
14.7873	0.437
14.8227	0.44
14.8581	0.443
14.8936	0.461
14.929	0.472
14.9645	0.473
