Infrared Spectrum: ETHER, ETHYL
Formula: C4 H10 O
CAS: 60-29-7
State: SOLUTION (10% IN CCl4 FOR 3800-1300, 10% IN CS2 FOR 1300-620, 10% IN CCl4 FOR 620-250 CM^-^1) VERSUS SOLVENT
Class: COBLENTZ III
Instrument: PERKIN-ELMER 521 (GRATING)
Instrument parameters: FILTERS AT 3150, 2500, 2000, 1150, 700, 410; GRATING CHANGES AT 2000, 630 CM^-^1
Sampling: TRANSMISSION
Path length: 0.012, 0.011, AND 0.010 CM (CsBr CELL)
Resolution: 4
Origin: DOW CORNING CORP.
1/CM	TRANSMITTANCE
244.214	0.82
254.039	0.816
263.865	0.824
273.69	0.828
283.515	0.829
293.341	0.836
303.166	0.845
312.991	0.846
322.817	0.864
332.642	0.869
342.467	0.872
352.293	0.865
362.118	0.846
371.943	0.825
381.769	0.826
391.594	0.836
401.419	0.859
411.245	0.864
421.07	0.857
430.895	0.828
440.721	0.771
450.546	0.83
460.371	0.838
470.197	0.86
480.022	0.855
489.847	0.84
499.673	0.82
509.498	0.841
519.323	0.853
529.149	0.86
538.974	0.863
548.799	0.86
558.625	0.859
568.45	0.86
578.275	0.861
588.101	0.859
597.926	0.859
607.751	0.861
617.577	0.86
627.402	0.845
637.227	0.837
647.053	0.832
656.878	0.838
666.703	0.849
676.529	0.861
686.354	0.864
696.179	0.865
706.005	0.869
715.83	0.869
725.655	0.868
735.481	0.868
745.306	0.863
755.131	0.855
764.957	0.844
774.782	0.82
784.607	0.734
794.433	0.68
804.258	0.744
814.083	0.696
823.909	0.679
833.734	0.571
843.559	0.418
853.385	0.75
863.21	0.798
873.035	0.817
882.861	0.829
892.686	0.821
902.511	0.783
912.337	0.683
922.162	0.707
931.987	0.579
941.813	0.767
951.638	0.829
961.463	0.832
971.289	0.821
981.114	0.808
990.939	0.774
1000.76	0.702
1010.59	0.617
1020.42	0.414
1030.24	0.442
1040.07	0.326
1049.89	0.406
1059.72	0.365
1069.54	0.166
1079.37	0.2081
1089.19	0.293
1099.02	0.1179
1108.84	0.001
1118.67	0
1128.49	0.01
1138.32	0.041
1148.14	0.04
1157.97	0.099
1167.8	0.163
1177.62	0.209
1187.45	0.4331
1197.27	0.63
1207.1	0.696
1216.92	0.734
1226.75	0.75
1236.57	0.761
1246.4	0.754
1256.22	0.732
1266.05	0.673
1275.87	0.54
1285.7	0.538
1295.52	0.457
1305.35	0.731
1315.18	0.804
1325	0.801
1334.83	0.761
1344.65	0.4298
1354.48	0.5151
1364.3	0.4679
1374.13	0.1999
1383.95	0.0961
1393.78	0.4341
1403.6	0.612
1413.43	0.515
1423.25	0.651
1433.08	0.544
1442.9	0.246
1452.73	0.432
1462.56	0.559
1472.38	0.604
1482.21	0.5899
1492.03	0.5111
1501.86	0.782
1511.68	0.818
1521.51	0.84
1531.33	0.859
1541.16	0.859
1550.98	0.856
1560.81	0.861
1570.63	0.86
1580.46	0.863
1590.28	0.868
1600.11	0.872
1609.94	0.871
1619.76	0.872
1629.59	0.872
1639.41	0.876
1649.24	0.876
1659.06	0.875
1668.89	0.876
1678.71	0.876
1688.54	0.873
1698.36	0.88
1708.19	0.881
1718.01	0.884
1727.84	0.885
1737.66	0.887
1747.49	0.88
1757.32	0.885
1767.14	0.885
1776.97	0.879
1786.79	0.885
1796.62	0.895
1806.44	0.896
1816.27	0.895
1826.09	0.899
1835.92	0.897
1845.74	0.893
1855.57	0.885
1865.39	0.883
1875.22	0.885
1885.04	0.876
1894.87	0.876
1904.7	0.868
1914.52	0.865
1924.35	0.856
1934.17	0.857
1944	0.836
1953.82	0.798
1963.65	0.775
1973.47	0.818
1983.3	0.855
1993.12	0.868
2002.95	0.8785
2012.77	0.8885
2022.6	0.8915
2032.43	0.8925
2042.25	0.895
2052.08	0.893
2061.9	0.8925
2071.73	0.8915
2081.55	0.884
2091.38	0.881
2101.2	0.886
2111.03	0.889
2120.85	0.88
2130.68	0.875
2140.5	0.8725
2150.33	0.8685
2160.15	0.8685
2169.98	0.872
2179.81	0.8725
2189.63	0.8675
2199.46	0.8655
2209.28	0.869
2219.11	0.8635
2228.93	0.8635
2238.76	0.8675
2248.58	0.865
2258.41	0.8595
2268.23	0.854
2278.06	0.853
2287.88	0.8605
2297.71	0.867
2307.53	0.87
2317.36	0.8755
2327.19	0.873
2337.01	0.8725
2346.84	0.878
2356.66	0.8755
2366.49	0.873
2376.31	0.877
2386.14	0.876
2395.96	0.8715
2405.79	0.8675
2415.61	0.864
2425.44	0.86
2435.26	0.8605
2445.09	0.864
2454.91	0.8645
2464.74	0.8675
2474.57	0.871
2484.39	0.87
2494.22	0.87
2504.04	0.871
2513.87	0.87
2523.69	0.87
2533.52	0.865
2543.34	0.8635
2553.17	0.86
2562.99	0.8525
2572.82	0.8455
2582.64	0.8395
2592.47	0.8065
2602.29	0.775
2612.12	0.7695
2621.95	0.8035
2631.77	0.811
2641.6	0.808
2651.42	0.804
2661.25	0.8045
2671.07	0.8045
2680.9	0.786
2690.72	0.7125
2700.55	0.6894
2710.37	0.727
2720.2	0.6876
2730.02	0.658
2739.85	0.631
2749.67	0.632
2759.5	0.631
2769.33	0.5549
2779.15	0.4319
2788.98	0.4745
2798.8	0.3177
2808.63	0.2645
2818.45	0.3299
2828.28	0.3315
2838.1	0.2327
2847.93	0.0385
2857.75	0
2867.58	0
2877.4	0.0159
2887.23	0.063
2897.05	0.0965
2906.88	0.1755
2916.71	0.257
2926.53	0.1545
2936.36	0.08
2946.18	0.1695
2956.01	0.1835
2965.83	0.0695
2975.66	0
2985.48	0.0235
2995.31	0.1169
3005.13	0.4021
3014.96	0.5525
3024.78	0.6475
3034.61	0.713
3044.43	0.76
3054.26	0.784
3064.09	0.7995
3073.91	0.8145
3083.74	0.8205
3093.56	0.8285
3103.39	0.836
3113.21	0.841
3123.04	0.8525
3132.86	0.8645
3142.69	0.8645
3152.51	0.866
3162.34	0.8655
3172.16	0.863
3181.99	0.8635
3191.81	0.861
3201.64	0.8605
3211.47	0.8595
3221.29	0.864
3231.12	0.868
3240.94	0.874
3250.77	0.882
3260.59	0.885
3270.42	0.886
3280.24	0.886
3290.07	0.891
3299.89	0.887
3309.72	0.887
3319.54	0.887
3329.37	0.885
3339.19	0.885
3349.02	0.884
3358.85	0.884
3368.67	0.886
3378.5	0.883
3388.32	0.883
3398.15	0.882
3407.97	0.879
3417.8	0.874
3427.62	0.8795
3437.45	0.881
3447.27	0.883
3457.1	0.88
3466.92	0.879
3476.75	0.878
3486.57	0.879
3496.4	0.879
3506.23	0.881
3516.05	0.8825
3525.88	0.8845
3535.7	0.887
3545.53	0.889
3555.35	0.889
3565.18	0.8915
3575	0.895
3584.83	0.8985
3594.65	0.893
3604.48	0.892
3614.3	0.892
3624.13	0.892
3633.95	0.891
3643.78	0.8885
3653.61	0.8835
3663.43	0.879
3673.26	0.8755
3683.08	0.8715
3692.91	0.874
3702.73	0.88
3712.56	0.8835
3722.38	0.885
3732.21	0.883
3742.03	0.894
3751.86	0.892
3761.68	0.889
3771.51	0.888
3781.33	0.8875
3791.16	0.887
