Infrared Spectrum: DIELDRIN
Formula: C12 H8 Cl6 O
CAS: 60-57-1
State: SOLUTION (10% IN CCl4 FOR 3800-1330, 10% IN CS2 FOR 1330-450 CM^-^1)
Class: COBLENTZ III
Instrument: DOW KBr FOREPRISM-GRATING
Instrument parameters: BLAZED AT 3.5, 12.0, 20.0 MICRON, CHANGED AT 5.0, 7.5, 14.9 MICRON
Sampling: TRANSMISSION
Path length: 0.011, 0.011 CM
Resolution: 4
Origin: DOW CHEMICAL COMPANY
1/CM	TRANSMITTANCE
451.402	0.908
459.813	0.913
468.224	0.912
476.636	0.877
485.047	0.7979
493.458	0.971
501.869	0.994
510.281	0.994
518.692	0.994
527.103	1.005
535.514	1.005
543.926	1.004
552.337	1.002
560.748	0.979
569.159	0.5836
577.571	0.946
585.982	0.984
594.393	0.877
602.804	0.436
611.216	0.892
619.627	0.969
628.038	0.8901
636.449	0.984
644.861	0.966
653.272	0.949
661.683	0.969
670.094	0.936
678.506	0.801
686.917	0.841
695.328	0.795
703.739	0.2221
712.151	0.84
720.562	0.954
728.973	0.985
737.384	0.991
745.796	0.984
754.207	0.975
762.618	0.981
771.029	0.962
779.441	0.83
787.852	0.783
796.263	0.8031
804.674	0.4409
813.086	0.399
821.497	0.88
829.908	0.7981
838.319	0.765
846.731	0.0301
855.142	0.715
863.553	0.775
871.964	0.732
880.376	0.5577
888.787	0.814
897.198	0.6333
905.609	0.76
914.021	0.3829
922.432	0.912
930.843	0.816
939.254	0.954
947.666	0.977
956.077	0.981
964.488	0.977
972.899	0.955
981.31	0.8921
989.722	0.913
998.133	0.814
1006.54	0.2939
1014.96	0.728
1023.37	0.691
1031.78	0.632
1040.19	0.2161
1048.6	0.6069
1057.01	0.6929
1065.42	0.784
1073.83	0.4251
1082.25	0.725
1090.66	0.5931
1099.07	0.813
1107.48	0.774
1115.89	0.797
1124.3	0.972
1132.71	0.972
1141.12	0.972
1149.54	0.971
1157.95	0.955
1166.36	0.896
1174.77	0.633
1183.18	0.645
1191.59	0.91
1200	0.8287
1208.41	0.949
1216.83	0.972
1225.24	0.952
1233.65	0.951
1242.06	0.9001
1250.47	0.487
1258.88	0.841
1267.29	0.915
1275.7	0.818
1284.12	0.928
1292.53	0.6026
1300.94	0.896
1309.35	0.962
1317.76	0.932
1326.17	0.959
1334.58	0.912
1342.99	0.897
1351.41	0.962
1359.82	0.965
1368.23	0.932
1376.64	0.5834
1385.05	0.974
1393.46	0.975
1401.87	0.978
1410.28	0.974
1418.7	0.956
1427.11	0.977
1435.52	0.982
1443.93	0.977
1452.34	0.962
1460.75	0.945
1469.16	0.602
1477.57	0.946
1485.99	0.935
1494.4	0.903
1502.81	0.85
1511.22	0.797
1519.63	0.744
1528.04	0.695
1536.45	0.604
1544.86	0.518
1553.28	0.522
1561.69	0.594
1570.1	0.663
1578.51	0.698
1586.92	0.698
1595.33	0.4679
1603.74	0.63
1612.15	0.882
1620.57	0.948
1628.98	0.977
1637.39	0.998
1645.8	1.008
1654.21	0.998
1662.62	0.997
1671.03	0.998
1679.44	0.995
1687.86	0.995
1696.27	0.984
1704.68	0.991
1713.09	0.992
1721.5	0.991
1729.91	0.982
1738.32	0.992
1746.73	0.997
1755.15	0.997
1763.56	1.001
1771.97	1.001
1780.38	1
1788.79	0.998
1797.2	0.998
1805.61	0.998
1814.02	0.998
1822.44	0.998
1830.85	0.998
1839.26	1
1847.67	0.998
1856.08	0.997
1864.49	1
1872.9	0.998
1881.31	0.998
1889.73	0.997
1898.14	0.995
1906.55	0.997
1914.96	1
1923.37	1.001
1931.78	1
1940.19	0.997
1948.6	1.001
1957.02	1
1965.43	0.995
1973.84	0.998
1982.25	0.998
1990.66	0.995
1999.07	1
2007.48	1
2015.89	0.996
2024.31	1
2032.72	1.001
2041.13	1
2049.54	1.002
2057.95	1.002
2066.36	1.001
2074.77	1.002
2083.18	1.004
2091.59	1.005
2100.01	1.005
2108.42	1.005
2116.83	1.005
2125.24	1.005
2133.65	1.005
2142.06	1.004
2150.47	1.002
2158.88	1.001
2167.3	1.001
2175.71	1.001
2184.12	0.9987
2192.53	0.9972
2200.94	1.0007
2209.35	1
2217.76	0.9994
2226.17	1.001
2234.59	1
2243	0.9996
2251.41	0.997
2259.82	0.992
2268.23	0.9883
2276.64	0.9848
2285.05	0.9755
2293.46	0.974
2301.88	0.9765
2310.29	0.977
2318.7	0.978
2327.11	0.981
2335.52	0.982
2343.93	0.984
2352.34	0.985
2360.75	0.9873
2369.17	0.991
2377.58	0.995
2385.99	0.998
2394.4	1
2402.81	1.0008
2411.22	1.001
2419.63	1.001
2428.04	1.001
2436.46	1.001
2444.87	1.001
2453.28	1.001
2461.69	1.001
2470.1	1.001
2478.51	1.001
2486.92	1.001
2495.33	1.001
2503.75	1.001
2512.16	1.0006
2520.57	0.998
2528.98	0.998
2537.39	0.998
2545.8	1
2554.21	0.9981
2562.62	0.998
2571.04	0.998
2579.45	0.998
2587.86	0.998
2596.27	0.998
2604.68	0.998
2613.09	0.998
2621.5	1
2629.91	1
2638.33	1
2646.74	1
2655.15	0.9999
2663.56	0.997
2671.97	0.998
2680.38	0.998
2688.79	1
2697.2	0.998
2705.62	0.997
2714.03	0.995
2722.44	0.998
2730.85	0.998
2739.26	0.998
2747.67	0.998
2756.08	0.998
2764.49	0.998
2772.91	0.998
2781.32	0.998
2789.73	0.998
2798.14	0.998
2806.55	0.998
2814.96	0.998
2823.37	0.998
2831.78	0.998
2840.2	0.9966
2848.61	0.995
2857.02	0.9972
2865.43	1
2873.84	0.997
2882.25	0.994
2890.66	0.989
2899.07	0.9872
2907.49	0.977
2915.9	0.9445
2924.31	0.9743
2932.72	0.9697
2941.13	0.9512
2949.54	0.856
2957.95	0.8979
2966.36	0.8996
2974.78	0.7757
2983.19	0.7364
2991.6	0.7876
3000.01	0.81
3008.42	0.9074
3016.83	0.935
3025.24	0.9225
3033.65	0.841
3042.07	0.8381
3050.48	0.8549
3058.89	0.9195
3067.3	0.9032
3075.71	0.9399
3084.12	0.9777
3092.53	0.9858
3100.94	0.9908
3109.36	0.9928
3117.77	0.995
3126.18	0.997
3134.59	0.998
3143	1
3151.41	1
3159.82	1
3168.23	1
3176.65	1
3185.06	1
3193.47	1.002
3201.88	1.004
3210.29	1.0045
3218.7	1.01
3227.11	1.01
3235.52	1.011
3243.94	1.011
3252.35	1.011
3260.76	1.012
3269.17	1.0141
3277.58	1.015
3285.99	1.018
3294.4	1.0174
3302.81	1.015
3311.23	1.0162
3319.64	1.02
3328.05	1.018
3336.46	1.014
3344.87	1.014
3353.28	1.0171
3361.69	1.02
3370.1	1.018
3378.52	1.017
3386.93	1.02
3395.34	1.02
3403.75	1.018
3412.16	1.017
3420.57	1.015
3428.98	1.015
3437.39	1.014
3445.81	1.014
3454.22	1.012
3462.63	1.0113
3471.04	1.0108
3479.45	1.011
3487.86	1.011
3496.27	1.011
3504.68	1.011
3513.1	1.011
3521.51	1.011
3529.92	1.011
3538.33	1.011
3546.74	1.01
3555.15	1.0094
3563.56	1.008
3571.97	1.01
3580.39	1.008
3588.8	1.007
3597.21	1.005
3605.62	1.002
3614.03	1.001
3622.44	1
3630.85	1
3639.26	1.0014
3647.68	1.002
3656.09	1.005
3664.5	1.0011
3672.91	1.004
3681.32	1.002
3689.73	1.002
3698.14	1.002
3706.55	1.002
3714.97	1.001
3723.38	1.001
3731.79	1.001
3740.2	1
3748.61	1
3757.02	0.998
3765.43	0.998
3773.84	0.998
3782.26	1.001
3790.67	1.002
3799.08	1.001
