Infrared Spectrum: PHENERGAN BASE
Formula: C17 H20 N2 S
CAS: 60-87-7
State: LIQUID
Class: COBLENTZ
Instrument: PERKIN-ELMER
Sampling: TRANSMISSION
Path length: CAPILLARY
Resolution: 4
Origin: ABBOTT LABORATORIES - WASHBURN
MICROMETERS	TRANSMITTANCE
2.062	0.896
2.10179	0.891
2.14157	0.8987
2.18136	0.901
2.22114	0.8969
2.26093	0.9109
2.30072	0.906
2.3405	0.899
2.38029	0.8975
2.42007	0.903
2.45986	0.899
2.49965	0.9079
2.53943	0.9107
2.57922	0.9057
2.619	0.916
2.65879	0.9061
2.69857	0.914
2.73836	0.906
2.77815	0.897
2.81793	0.8922
2.85772	0.887
2.8975	0.8917
2.93729	0.884
2.97708	0.884
3.01686	0.8858
3.05665	0.886
3.09643	0.886
3.13622	0.8919
3.17601	0.884
3.21579	0.8742
3.25558	0.852
3.29536	0.735
3.33515	0.795
3.37494	0.572
3.41472	0.5084
3.45451	0.5835
3.49429	0.6384
3.53408	0.6324
3.57386	0.607
3.61365	0.6255
3.65344	0.6275
3.69322	0.8128
3.73301	0.8607
3.77279	0.8969
3.81258	0.899
3.85237	0.894
3.89215	0.8892
3.93194	0.879
3.97172	0.8919
4.01151	0.891
4.0513	0.887
4.09108	0.882
4.13087	0.886
4.17065	0.8842
4.21044	0.884
4.25023	0.8822
4.29001	0.8766
4.3298	0.8711
4.36958	0.867
4.40937	0.8689
4.44916	0.8692
4.48894	0.8643
4.52873	0.864
4.56851	0.8622
4.6083	0.862
4.64808	0.857
4.68787	0.8523
4.72766	0.8522
4.76744	0.8558
4.80723	0.854
4.84701	0.856
4.8868	0.856
4.92659	0.852
4.96637	0.852
5.00616	0.852
5.04594	0.851
5.08573	0.8522
5.12552	0.8384
5.1653	0.8234
5.20509	0.8262
5.24487	0.826
5.28466	0.8126
5.32445	0.8331
5.36423	0.832
5.40402	0.8337
5.4438	0.842
5.48359	0.8338
5.52338	0.836
5.56316	0.8362
5.60295	0.8213
5.64273	0.8265
5.68252	0.836
5.7223	0.8372
5.76209	0.836
5.80188	0.821
5.84166	0.819
5.88145	0.812
5.92123	0.812
5.96102	0.809
6.00081	0.8111
6.04059	0.812
6.08038	0.8119
6.12016	0.8125
6.15995	0.7987
6.19974	0.7501
6.23952	0.5809
6.27931	0.5176
6.31909	0.6234
6.35888	0.5206
6.39867	0.7193
6.43845	0.7945
6.47824	0.801
6.51802	0.794
6.55781	0.7849
6.59759	0.7527
6.63738	0.7022
6.67717	0.6165
6.71695	0.4947
6.75674	0.4541
6.79652	0.3267
6.83631	0.1227
6.8761	0.1232
6.91588	0.2142
6.95567	0.341
6.99545	0.6211
7.03524	0.7126
7.07503	0.7334
7.11481	0.7103
7.1546	0.709
7.19438	0.6637
7.23417	0.616
7.27396	0.6024
7.31374	0.5492
7.35353	0.5507
7.39331	0.5671
7.4331	0.5783
7.47289	0.4965
7.51267	0.4853
7.55246	0.5675
7.59224	0.5419
7.63203	0.5767
7.67181	0.5807
7.7116	0.5412
7.75139	0.5186
7.79117	0.4284
7.83096	0.4966
7.87074	0.5582
7.91053	0.5497
7.95032	0.4886
7.9901	0.3321
8.02989	0.3678
8.06967	0.475
8.10946	0.4363
8.14925	0.4581
8.18903	0.542
8.22882	0.6627
8.2686	0.687
8.30839	0.6446
8.34818	0.5593
8.38796	0.5119
8.42775	0.4828
8.46753	0.6183
8.50732	0.7061
8.5471	0.707
8.58689	0.6422
8.62668	0.562
8.66646	0.5827
8.70625	0.6572
8.74603	0.6424
8.78582	0.5613
8.82561	0.5142
8.86539	0.4019
8.90518	0.4912
8.94496	0.6052
8.98475	0.648
9.02454	0.5612
9.06432	0.5118
9.10411	0.5659
9.14389	0.5927
9.18368	0.664
9.22347	0.7052
9.26325	0.712
9.30304	0.6887
9.34282	0.6594
9.38261	0.6407
9.4224	0.633
9.46218	0.627
9.50197	0.5951
9.54175	0.5272
9.58154	0.4491
9.62132	0.4022
9.66111	0.4369
9.7009	0.586
9.74068	0.6526
9.78047	0.7308
9.82025	0.7691
9.86004	0.7949
9.89983	0.8048
9.93961	0.811
9.9794	0.812
10.0192	0.8155
10.059	0.8069
10.0988	0.804
10.1385	0.7954
10.1783	0.768
10.2181	0.7245
10.2579	0.719
10.2977	0.7242
10.3375	0.7422
10.3773	0.7691
10.417	0.7938
10.4568	0.8085
10.4966	0.8152
10.5364	0.819
10.5762	0.806
10.616	0.7924
10.6558	0.7689
10.6955	0.7479
10.7353	0.7278
10.7751	0.7158
10.8149	0.7367
10.8547	0.7675
10.8945	0.8064
10.9343	0.822
10.974	0.8215
11.0138	0.816
11.0536	0.806
11.0934	0.794
11.1332	0.7975
11.173	0.797
11.2128	0.802
11.2525	0.7996
11.2923	0.795
11.3321	0.776
11.3719	0.7583
11.4117	0.74
11.4515	0.749
11.4913	0.7518
11.531	0.75
11.5708	0.7458
11.6106	0.737
11.6504	0.7314
11.6902	0.7246
11.73	0.705
11.7698	0.6822
11.8096	0.677
11.8493	0.6841
11.8891	0.7078
11.9289	0.7468
11.9687	0.7791
12.0085	0.7988
12.0483	0.811
12.0881	0.818
12.1278	0.8215
12.1676	0.8228
12.2074	0.8228
12.2472	0.822
12.287	0.821
12.3268	0.8202
12.3666	0.811
12.4063	0.817
12.4461	0.8161
12.4859	0.806
12.5257	0.814
12.5655	0.8043
12.6053	0.7926
12.6451	0.7859
12.6848	0.792
12.7246	0.7935
12.7644	0.79
12.8042	0.784
12.844	0.7754
12.8838	0.7606
12.9236	0.729
12.9633	0.7059
13.0031	0.6543
13.0429	0.5972
13.0827	0.5604
13.1225	0.5107
13.1623	0.4079
13.2021	0.3191
13.2418	0.229
13.2816	0.1657
13.3214	0.1329
13.3612	0.1298
13.401	0.1492
13.4408	0.1858
13.4806	0.2605
13.5203	0.3803
13.5601	0.5067
13.5999	0.5859
13.6397	0.5855
13.6795	0.5311
13.7193	0.4733
13.7591	0.453
13.7988	0.4752
13.8386	0.5222
13.8784	0.6113
13.9182	0.6806
13.958	0.7102
13.9978	0.7283
14.0376	0.736
14.0773	0.7407
14.1171	0.7424
14.1569	0.737
14.1967	0.7372
14.2365	0.737
14.2763	0.7228
14.3161	0.7081
14.3558	0.6865
14.3956	0.6767
14.4354	0.68
14.4752	0.6917
14.515	0.6994
14.5548	0.704
14.5946	0.7094
14.6344	0.7085
14.6741	0.7
14.7139	0.6921
14.7537	0.6788
14.7935	0.663
14.8333	0.657
14.8731	0.662
14.9129	0.667
14.9526	0.668
14.9924	0.6768
15.0322	0.6755
15.072	0.67
15.1118	0.663
15.1516	0.6594
15.1914	0.648
15.2311	0.648
15.2709	0.643
15.3107	0.6373
15.3505	0.633
15.3903	0.6267
15.4301	0.6149
