Infrared Spectrum: HEXADYRO, 4,7-METHANEINDENE
Formula: C10 H16
CAS: 6004-38-2
State: SOLID (PELLET)
Melting point: 20 C
Class: COBLENTZ
Instrument: Not specified, most likely a prism, grating, or hybrid spectrometer.
Sampling: TRANSMISSION
Resolution: 4
Origin: TENNESSEE EASTMAN COMPANY, RESEARCH LABORATORIES
MICROMETERS	TRANSMITTANCE
2.007	0.98
2.04673	0.983
2.08647	0.983
2.1262	0.985
2.16593	0.985
2.20567	0.943
2.2454	0.702
2.28513	0.831
2.32487	0.783
2.3646	0.841
2.40434	0.828
2.44407	0.819
2.4838	0.866
2.52354	0.857
2.56327	0.816
2.603	0.839
2.64274	0.841
2.68247	0.88
2.7222	0.91
2.76194	0.938
2.80167	0.943
2.8414	0.976
2.88114	0.971
2.92087	0.899
2.9606	0.932
3.00034	0.948
3.04007	0.943
3.07981	0.933
3.11954	0.889
3.15927	0.899
3.19901	0.897
3.23874	0.831
3.27847	0.618
3.31821	0.178
3.35794	0.036
3.39767	0.038
3.43741	0.038
3.47714	0.047
3.51687	0.464
3.55661	0.624
3.59634	0.707
3.63607	0.761
3.67581	0.833
3.71554	0.866
3.75528	0.781
3.79501	0.705
3.83474	0.676
3.87448	0.732
3.91421	0.833
3.95394	0.842
3.99368	0.874
4.03341	0.869
4.07314	0.867
4.11288	0.856
4.15261	0.869
4.19234	0.854
4.23208	0.846
4.27181	0.866
4.31154	0.889
4.35128	0.892
4.39101	0.861
4.43074	0.861
4.47048	0.876
4.51021	0.833
4.54995	0.854
4.58968	0.864
4.62941	0.907
4.66915	0.879
4.70888	0.895
4.74861	0.9
4.78835	0.915
4.82808	0.957
4.86781	0.935
4.90755	0.938
4.94728	0.958
4.98701	0.95
5.02675	0.943
5.06648	0.957
5.10621	0.917
5.14595	0.95
5.18568	0.957
5.22542	0.952
5.26515	0.971
5.30488	0.993
5.34462	1
5.38435	0.993
5.42408	0.985
5.46382	0.976
5.50355	0.981
5.54328	0.983
5.58302	0.968
5.62275	0.963
5.66248	0.971
5.70222	0.952
5.74195	0.94
5.78168	0.94
5.82142	0.968
5.86115	0.971
5.90089	0.968
5.94062	0.95
5.98035	0.948
6.02009	0.957
6.05982	0.957
6.09955	0.957
6.13929	0.94
6.17902	0.92
6.21875	0.942
6.25849	0.96
6.29822	0.968
6.33795	0.957
6.37769	0.935
6.41742	0.922
6.45715	0.884
6.49689	0.852
6.53662	0.771
6.57636	0.695
6.61609	0.553
6.65582	0.315
6.69556	0.064
6.73529	0.056
6.77502	0.057
6.81476	0.041
6.85449	0.047
6.89422	0.059
6.93396	0.277
6.97369	0.576
7.01342	0.685
7.05316	0.738
7.09289	0.753
7.13262	0.773
7.17236	0.831
7.21209	0.861
7.25183	0.851
7.29156	0.867
7.33129	0.851
7.37103	0.828
7.41076	0.728
7.45049	0.499
7.49023	0.289
7.52996	0.485
7.56969	0.595
7.60943	0.375
7.64916	0.133
7.68889	0.1
7.72863	0.36
7.76836	0.257
7.80809	0.32
7.84783	0.52
7.88756	0.669
7.92729	0.685
7.96703	0.492
8.00676	0.152
8.0465	0.598
8.08623	0.7
8.12596	0.682
8.1657	0.657
8.20543	0.484
8.24516	0.337
8.2849	0.614
8.32463	0.707
8.36436	0.692
8.4041	0.595
8.44383	0.325
8.48356	0.092
8.5233	0.376
8.56303	0.55
8.60276	0.566
8.6425	0.641
8.68223	0.684
8.72197	0.69
8.7617	0.623
8.80143	0.609
8.84117	0.629
8.8809	0.581
8.92063	0.601
8.96037	0.636
9.0001	0.662
9.03983	0.543
9.07957	0.505
9.1193	0.662
9.15903	0.74
9.19877	0.808
9.2385	0.819
9.27823	0.824
9.31797	0.814
9.3577	0.785
9.39744	0.76
9.43717	0.775
9.4769	0.829
9.51664	0.852
9.55637	0.856
9.5961	0.856
9.63584	0.854
9.67557	0.836
9.7153	0.811
9.75504	0.7
9.79477	0.522
9.8345	0.633
9.87424	0.709
9.91397	0.785
9.9537	0.819
9.99344	0.831
10.0332	0.828
10.0729	0.798
10.1126	0.709
10.1524	0.631
10.1921	0.601
10.2318	0.416
10.2716	0.484
10.3113	0.666
10.351	0.659
10.3908	0.479
10.4305	0.228
10.4702	0.16
10.51	0.271
10.5497	0.563
10.5894	0.725
10.6292	0.796
10.6689	0.818
10.7086	0.828
10.7484	0.771
10.7881	0.657
10.8278	0.391
10.8676	0.474
10.9073	0.758
10.947	0.791
10.9868	0.714
11.0265	0.644
11.0662	0.707
11.106	0.666
11.1457	0.457
11.1854	0.345
11.2252	0.543
11.2649	0.629
11.3046	0.505
11.3444	0.277
11.3841	0.333
11.4238	0.555
11.4636	0.679
11.5033	0.699
11.543	0.509
11.5828	0.368
11.6225	0.538
11.6622	0.647
11.702	0.715
11.7417	0.758
11.7814	0.765
11.8212	0.704
11.8609	0.527
11.9006	0.31
11.9404	0.289
11.9801	0.51
12.0198	0.641
12.0596	0.647
12.0993	0.644
12.139	0.719
12.1788	0.74
12.2185	0.697
12.2582	0.576
12.298	0.348
12.3377	0.168
12.3774	0.214
12.4172	0.482
12.4569	0.641
12.4967	0.687
12.5364	0.626
12.5761	0.543
12.6159	0.717
12.6556	0.773
12.6953	0.771
12.7351	0.803
12.7748	0.871
12.8145	0.907
12.8543	0.933
12.894	0.942
12.9337	0.947
12.9735	0.95
13.0132	0.95
13.0529	0.95
13.0927	0.953
13.1324	0.953
13.1721	0.938
13.2119	0.895
13.2516	0.824
13.2913	0.676
13.3311	0.515
13.3708	0.509
13.4105	0.679
13.4503	0.79
13.49	0.852
13.5297	0.882
13.5695	0.909
13.6092	0.93
13.6489	0.94
13.6887	0.945
13.7284	0.95
13.7681	0.95
13.8079	0.948
13.8476	0.95
13.8873	0.928
13.9271	0.92
13.9668	0.917
14.0065	0.915
14.0463	0.915
14.086	0.905
14.1257	0.856
14.1655	0.785
14.2052	0.697
14.2449	0.667
14.2847	0.7
14.3244	0.76
14.3641	0.808
14.4039	0.831
14.4436	0.841
14.4833	0.847
14.5231	0.847
14.5628	0.847
14.6025	0.846
14.6423	0.834
14.682	0.834
14.7217	0.833
14.7615	0.828
14.8012	0.824
14.8409	0.816
14.8807	0.808
14.9204	0.8
14.9601	0.8
14.9999	0.8
15.0396	0.793
15.0793	0.791
15.1191	0.788
15.1588	0.781
15.1985	0.78
15.2383	0.773
15.278	0.768
15.3177	0.763
15.3575	0.763
15.3972	0.766
15.4369	0.761
15.4767	0.755
15.5164	0.753
15.5561	0.752
15.5959	0.752
15.6356	0.738
15.6753	0.733
15.7151	0.725
15.7548	0.722
15.7945	0.72
15.8343	0.715
15.874	0.71
15.9137	0.694
15.9535	0.692
15.9932	0.69
