Infrared Spectrum: 5-NITRO-ACENAPHTHENE
Formula: C12 H9 N O2
CAS: 602-87-9
State: SOLID (1.0% IN KBr PELLET)
Class: COBLENTZ
Instrument: Not specified, most likely a prism, grating, or hybrid spectrometer.
Sampling: TRANSMISSION
Path length: 0.0355 CM THICK
Resolution: 4
Origin: ANDERSON PHYSICAL LABORATORY
1/CM	TRANSMITTANCE
675.701	0.72
684.112	0.72
692.523	0.716
700.935	0.702
709.346	0.662
717.757	0.711
726.168	0.686
734.58	0.5871
742.991	0.585
751.402	0.623
759.813	0.636
768.225	0.5391
776.636	0.2611
785.047	0.4737
793.458	0.656
801.87	0.693
810.281	0.6869
818.692	0.5901
827.103	0.677
835.515	0.567
843.926	0.59
852.337	0.624
860.748	0.56
869.16	0.7469
877.571	0.792
885.982	0.792
894.393	0.776
902.805	0.671
911.216	0.617
919.627	0.798
928.038	0.821
936.45	0.81
944.861	0.789
953.272	0.791
961.683	0.788
970.095	0.783
978.506	0.771
986.917	0.755
995.328	0.747
1003.74	0.744
1012.15	0.737
1020.56	0.728
1028.97	0.711
1037.38	0.699
1045.8	0.687
1054.21	0.656
1062.62	0.683
1071.03	0.702
1079.44	0.698
1087.85	0.693
1096.26	0.671
1104.67	0.648
1113.09	0.588
1121.5	0.659
1129.91	0.629
1138.32	0.609
1146.73	0.618
1155.14	0.564
1163.55	0.609
1171.96	0.594
1180.38	0.531
1188.79	0.5369
1197.2	0.569
1205.61	0.498
1214.02	0.572
1222.43	0.533
1230.84	0.546
1239.25	0.549
1247.67	0.552
1256.08	0.515
1264.49	0.472
1272.9	0.459
1281.31	0.351
1289.72	0.429
1298.13	0.402
1306.54	0.316
1314.96	0.229
1323.37	0.159
1331.78	0.123
1340.19	0.159
1348.6	0.306
1357.01	0.4319
1365.42	0.522
1373.83	0.611
1382.25	0.734
1390.66	0.738
1399.07	0.698
1407.48	0.576
1415.89	0.602
1424.3	0.5519
1432.71	0.415
1441.12	0.5339
1449.54	0.515
1457.95	0.501
1466.36	0.572
1474.77	0.548
1483.18	0.563
1491.59	0.468
1500	0.379
1508.41	0.292
1516.83	0.201
1525.24	0.2309
1533.65	0.402
1542.06	0.504
1550.47	0.606
1558.88	0.717
1567.29	0.717
1575.7	0.699
1584.12	0.654
1592.53	0.5149
1600.94	0.429
1609.35	0.522
1617.76	0.572
1626.17	0.451
1634.58	0.612
1642.99	0.779
1651.41	0.795
1659.82	0.788
1668.23	0.791
1676.64	0.779
1685.05	0.774
1693.46	0.764
1701.87	0.753
1710.28	0.747
1718.7	0.746
1727.11	0.741
1735.52	0.731
1743.93	0.74
1752.34	0.744
1760.75	0.746
1769.16	0.738
1777.57	0.735
1785.99	0.731
1794.4	0.719
1802.81	0.713
1811.22	0.707
1819.63	0.714
1828.04	0.711
1836.45	0.713
1844.86	0.705
1853.28	0.704
1861.69	0.699
1870.1	0.693
1878.51	0.689
1886.92	0.683
1895.33	0.678
1903.74	0.677
1912.15	0.671
1920.57	0.666
1928.98	0.665
1937.39	0.671
1945.8	0.669
1954.21	0.666
1962.62	0.663
1971.03	0.66
1979.44	0.662
1987.86	0.666
1996.27	0.666
2004.68	0.663
2013.09	0.6615
2021.5	0.6592
2029.91	0.657
2038.32	0.6555
2046.73	0.6505
2055.15	0.6485
2063.56	0.648
2071.97	0.645
2080.38	0.644
2088.79	0.642
2097.2	0.639
2105.61	0.636
2114.02	0.6354
2122.44	0.633
2130.85	0.6319
2139.26	0.6284
2147.67	0.626
2156.08	0.624
2164.49	0.6228
2172.9	0.6193
2181.31	0.617
2189.73	0.6142
2198.14	0.612
2206.55	0.612
2214.96	0.611
2223.37	0.6093
2231.78	0.6078
2240.19	0.6056
2248.6	0.6032
2257.02	0.6003
2265.43	0.599
2273.84	0.5966
2282.25	0.5947
2290.66	0.594
2299.07	0.5927
2307.48	0.591
2315.89	0.591
2324.31	0.5901
2332.72	0.5897
2341.13	0.5876
2349.54	0.587
2357.95	0.585
2366.36	0.585
2374.77	0.584
2383.18	0.582
2391.6	0.582
2400.01	0.582
2408.42	0.5801
2416.83	0.5753
2425.24	0.5691
2433.65	0.5668
2442.06	0.566
2450.47	0.566
2458.89	0.566
2467.3	0.566
2475.71	0.566
2484.12	0.564
2492.53	0.563
2500.94	0.563
2509.35	0.563
2517.76	0.5615
2526.18	0.561
2534.59	0.5607
2543	0.56
2551.41	0.5572
2559.82	0.5569
2568.23	0.5547
2576.64	0.5529
2585.05	0.552
2593.47	0.552
2601.88	0.552
2610.29	0.551
2618.7	0.549
2627.11	0.546
2635.52	0.546
2643.93	0.545
2652.34	0.545
2660.76	0.543
2669.17	0.54
2677.58	0.54
2685.99	0.539
2694.4	0.537
2702.81	0.537
2711.22	0.536
2719.63	0.5343
2728.05	0.5328
2736.46	0.5306
2744.87	0.5288
2753.28	0.5271
2761.69	0.5238
2770.1	0.522
2778.51	0.5198
2786.92	0.5162
2795.34	0.5147
2803.75	0.5112
2812.16	0.509
2820.57	0.5034
2828.98	0.5008
2837.39	0.498
2845.8	0.498
2854.21	0.498
2862.63	0.496
2871.04	0.495
2879.45	0.4936
2887.86	0.492
2896.27	0.4916
2904.68	0.49
2913.09	0.4863
2921.5	0.4831
2929.92	0.4698
2938.33	0.4606
2946.74	0.4563
2955.15	0.453
2963.56	0.4544
2971.97	0.4605
2980.38	0.4679
2988.79	0.475
2997.21	0.4832
3005.62	0.486
3014.03	0.486
3022.44	0.487
3030.85	0.486
3039.26	0.485
3047.67	0.4832
3056.08	0.478
3064.5	0.475
3072.91	0.474
3081.32	0.474
3089.73	0.472
3098.14	0.4687
3106.55	0.4639
3114.96	0.463
3123.37	0.463
3131.79	0.4636
3140.2	0.4656
3148.61	0.466
3157.02	0.468
3165.43	0.468
3173.84	0.4668
3182.25	0.4633
3190.66	0.463
3199.08	0.465
3207.49	0.463
3215.9	0.463
3224.31	0.462
3232.72	0.4596
3241.13	0.457
3249.54	0.457
3257.95	0.4558
3266.37	0.4522
3274.78	0.45
3283.19	0.4471
3291.6	0.447
3300.01	0.447
3308.42	0.445
3316.83	0.4441
3325.24	0.4407
3333.66	0.436
3342.07	0.429
3350.48	0.4261
3358.89	0.424
3367.3	0.4222
3375.71	0.4187
3384.12	0.417
3392.53	0.4134
3400.95	0.4053
3409.36	0.397
3417.77	0.3941
3426.18	0.393
3434.59	0.3905
3443	0.3886
3451.41	0.387
3459.82	0.3848
3468.24	0.383
3476.65	0.382
3485.06	0.382
3493.47	0.384
3501.88	0.385
3510.29	0.387
3518.7	0.387
3527.11	0.3885
3535.53	0.3905
3543.94	0.3925
3552.35	0.394
3560.76	0.3975
3569.17	0.399
3577.58	0.4
3585.99	0.4
3594.4	0.4006
3602.82	0.4025
3611.23	0.4046
3619.64	0.4081
3628.05	0.4096
3636.46	0.4131
3644.87	0.4148
3653.28	0.4172
3661.69	0.421
3670.11	0.423
3678.52	0.423
3686.93	0.423
3695.34	0.4233
3703.75	0.4266
3712.16	0.427
3720.57	0.429
3728.98	0.429
3737.4	0.429
3745.81	0.429
3754.22	0.429
3762.63	0.429
3771.04	0.429
3779.45	0.429
3787.86	0.429
3796.27	0.43
3804.69	0.432
3813.1	0.433
3821.51	0.433
3829.92	0.4326
3838.33	0.432
3846.74	0.4302
3855.15	0.43
3863.56	0.43
3871.98	0.43
3880.39	0.43
3888.8	0.43
3897.21	0.43
3905.62	0.43
3914.03	0.43
3922.44	0.43
3930.85	0.429
3939.27	0.429
3947.68	0.429
3956.09	0.429
3964.5	0.429
3972.91	0.429
3981.32	0.429
