Infrared Spectrum: 9-PHENYLANTHRACENE
Formula: C20 H14
CAS: 602-55-1
State: SOLID (KBr PELLET)
Melting point: 153 C
Boiling point: 4.7 C
Class: COBLENTZ
Instrument: Not specified, most likely a prism, grating, or hybrid spectrometer.
Sampling: TRANSMISSION
Resolution: 4
Origin: UNION CARBIDE CORPORATION (CARBON PRODUCTS DIVISION)
MICROMETERS	TRANSMITTANCE
2.027	0.166
2.0602	0.167
2.09339	0.171
2.12659	0.175
2.15979	0.179
2.19298	0.186
2.22618	0.189
2.25938	0.191
2.29257	0.194
2.32577	0.201
2.35896	0.202
2.39216	0.207
2.42536	0.214
2.45855	0.219
2.49175	0.223
2.52495	0.226
2.55814	0.229
2.59134	0.23
2.62454	0.233
2.65773	0.233
2.69093	0.242
2.72413	0.247
2.75732	0.25
2.79052	0.25
2.82372	0.25
2.85691	0.251
2.89011	0.251
2.92331	0.259
2.9565	0.27
2.9897	0.276
3.02289	0.283
3.05609	0.29
3.08929	0.3
3.12248	0.308
3.15568	0.314
3.18888	0.316
3.22207	0.318
3.25527	0.3
3.28847	0.303
3.32166	0.31
3.35486	0.318
3.38806	0.322
3.42125	0.327
3.45445	0.332
3.48765	0.339
3.52084	0.342
3.55404	0.347
3.58723	0.35
3.62043	0.355
3.65363	0.358
3.68682	0.362
3.72002	0.364
3.75322	0.368
3.78641	0.372
3.81961	0.376
3.85281	0.378
3.886	0.38
3.9192	0.384
3.9524	0.391
3.98559	0.392
4.01879	0.4
4.05199	0.403
4.08518	0.407
4.11838	0.412
4.15157	0.416
4.18477	0.418
4.21797	0.415
4.25116	0.416
4.28436	0.416
4.31756	0.419
4.35075	0.43
4.38395	0.432
4.41715	0.439
4.45034	0.442
4.48354	0.45
4.51674	0.455
4.54993	0.459
4.58313	0.462
4.61633	0.468
4.64952	0.471
4.68272	0.474
4.71592	0.476
4.74911	0.479
4.78231	0.483
4.8155	0.488
4.8487	0.491
4.8819	0.494
4.91509	0.494
4.94829	0.501
4.98149	0.501
5.01468	0.507
5.04788	0.507
5.08108	0.504
5.11427	0.503
5.14747	0.507
5.18067	0.507
5.21386	0.508
5.24706	0.511
5.28026	0.513
5.31345	0.523
5.34665	0.533
5.37984	0.535
5.41304	0.533
5.44624	0.533
5.47943	0.529
5.51263	0.532
5.54583	0.536
5.57902	0.543
5.61222	0.545
5.64542	0.544
5.67861	0.548
5.71181	0.552
5.74501	0.56
5.7782	0.56
5.8114	0.559
5.8446	0.56
5.87779	0.56
5.91099	0.56
5.94419	0.561
5.97738	0.563
6.01058	0.564
6.04377	0.575
6.07697	0.575
6.11017	0.565
6.14336	0.573
6.17656	0.577
6.20976	0.563
6.24295	0.575
6.27615	0.583
6.30935	0.581
6.34254	0.584
6.37574	0.585
6.40894	0.597
6.44213	0.596
6.47533	0.608
6.50853	0.624
6.54172	0.612
6.57492	0.611
6.60811	0.619
6.64131	0.624
6.67451	0.596
6.7077	0.607
6.7409	0.604
6.7741	0.62
6.80729	0.631
6.84049	0.629
6.87369	0.612
6.90688	0.426
6.94008	0.567
6.97328	0.609
7.00647	0.625
7.03967	0.633
7.07287	0.6
7.10606	0.651
7.13926	0.66
7.17245	0.649
7.20565	0.644
7.23885	0.649
7.27204	0.668
7.30524	0.667
7.33844	0.517
7.37163	0.609
7.40483	0.628
7.43803	0.632
7.47122	0.641
7.50442	0.651
7.53762	0.652
7.57081	0.645
7.60401	0.637
7.63721	0.64
7.6704	0.641
7.7036	0.659
7.7368	0.661
7.76999	0.66
7.80319	0.659
7.83638	0.659
7.86958	0.671
7.90278	0.673
7.93597	0.673
7.96917	0.679
8.00237	0.684
8.03556	0.688
8.06876	0.7
8.10196	0.703
8.13515	0.703
8.16835	0.701
8.20155	0.701
8.23474	0.705
8.26794	0.707
8.30114	0.719
8.33433	0.725
8.36753	0.723
8.40072	0.713
8.43392	0.719
8.46712	0.72
8.50031	0.72
8.53351	0.7
8.56671	0.611
8.5999	0.643
8.6331	0.681
8.6663	0.712
8.69949	0.724
8.73269	0.725
8.76589	0.711
8.79908	0.728
8.83228	0.731
8.86548	0.737
8.89867	0.745
8.93187	0.75
8.96506	0.681
8.99826	0.747
9.03146	0.749
9.06465	0.752
9.09785	0.757
9.13105	0.761
9.16424	0.762
9.19744	0.769
9.23064	0.77
9.26383	0.766
9.29703	0.709
9.33023	0.688
9.36342	0.729
9.39662	0.761
9.42982	0.777
9.46301	0.788
9.49621	0.79
9.52941	0.794
9.5626	0.798
9.5958	0.806
9.62899	0.81
9.66219	0.813
9.69539	0.768
9.72858	0.786
9.76178	0.788
9.79498	0.724
9.82817	0.597
9.86137	0.671
9.89457	0.737
9.92776	0.769
9.96096	0.756
9.99416	0.769
10.0274	0.78
10.0605	0.788
10.0937	0.801
10.1269	0.8
10.1601	0.802
10.1933	0.802
10.2265	0.802
10.2597	0.802
10.2929	0.802
10.3261	0.804
10.3593	0.809
10.3925	0.805
10.4257	0.764
10.4589	0.687
10.4921	0.723
10.5253	0.79
10.5585	0.81
10.5917	0.814
10.6249	0.82
10.6581	0.813
10.6913	0.628
10.7245	0.635
10.7577	0.74
10.7909	0.789
10.8241	0.8
10.8573	0.808
10.8905	0.82
10.9237	0.824
10.9569	0.824
10.9901	0.824
11.0232	0.825
11.0564	0.83
11.0896	0.832
11.1228	0.836
11.156	0.836
11.1892	0.838
11.2224	0.838
11.2556	0.834
11.2888	0.828
11.322	0.769
11.3552	0.462
11.3884	0.319
11.4216	0.615
11.4548	0.76
11.488	0.812
11.5212	0.825
11.5544	0.841
11.5876	0.844
11.6208	0.853
11.654	0.857
11.6872	0.832
11.7204	0.792
11.7536	0.796
11.7868	0.792
11.82	0.529
11.8532	0.391
11.8864	0.623
11.9196	0.754
11.9527	0.81
11.9859	0.833
12.0191	0.836
12.0523	0.838
12.0855	0.845
12.1187	0.86
12.1519	0.862
12.1851	0.873
12.2183	0.877
12.2515	0.88
12.2847	0.881
12.3179	0.881
12.3511	0.884
12.3843	0.886
12.4175	0.89
12.4507	0.893
12.4839	0.893
12.5171	0.893
12.5503	0.89
12.5835	0.88
12.6167	0.85
12.6499	0.724
12.6831	0.531
12.7163	0.663
12.7495	0.84
12.7827	0.88
12.8159	0.898
12.8491	0.905
12.8822	0.913
12.9154	0.916
12.9486	0.918
12.9818	0.92
13.015	0.929
13.0482	0.928
13.0814	0.929
13.1146	0.928
13.1478	0.882
13.181	0.719
13.2142	0.62
13.2474	0.455
13.2806	0.346
13.3138	0.48
13.347	0.613
13.3802	0.671
13.4134	0.687
13.4466	0.675
13.4798	0.579
13.513	0.291
13.5462	0.235
13.5794	0.201
13.6126	0.175
13.6458	0.29
13.679	0.382
13.7122	0.49
13.7454	0.607
13.7786	0.664
13.8118	0.713
13.8449	0.764
13.8781	0.786
13.9113	0.818
13.9445	0.83
13.9777	0.85
14.0109	0.861
14.0441	0.865
14.0773	0.86
14.1105	0.84
14.1437	0.784
14.1769	0.689
14.2101	0.492
14.2433	0.268
14.2765	0.219
14.3097	0.3
14.3429	0.443
14.3761	0.545
14.4093	0.607
14.4425	0.648
14.4757	0.669
14.5089	0.709
14.5421	0.731
14.5753	0.749
14.6085	0.761
14.6417	0.776
14.6749	0.785
14.7081	0.804
14.7413	0.806
14.7744	0.809
14.8076	0.81
14.8408	0.81
14.874	0.813
14.9072	0.816
14.9404	0.816
14.9736	0.816
15.0068	0.82
15.04	0.82
