Infrared Spectrum: 1,1'-BI-2-NAPHTHOL
Formula: C20 H14 O2
CAS: 602-09-5
State: SOLID (MINERAL OIL MULL)
Class: COBLENTZ
Instrument: Not specified, most likely a prism, grating, or hybrid spectrometer.
Sampling: TRANSMISSION
Resolution: 4
Origin: WYANDOTTE CHEMICALS CORP., WYANDOTTE, MICHIGAN, USA
MICROMETERS	TRANSMITTANCE
2.027	0.37
2.06782	0.365
2.10864	0.363
2.14945	0.355
2.19027	0.355
2.23109	0.367
2.27191	0.375
2.31272	0.38
2.35354	0.389
2.39436	0.403
2.43518	0.418
2.47599	0.43
2.51681	0.435
2.55763	0.437
2.59845	0.443
2.63926	0.457
2.68008	0.472
2.7209	0.489
2.76172	0.503
2.80253	0.51
2.84335	0.482
2.88417	0.387
2.92499	0.369
2.9658	0.272
3.00662	0.267
3.04744	0.336
3.08826	0.401
3.12907	0.426
3.16989	0.452
3.21071	0.469
3.25153	0.464
3.29234	0.413
3.33316	0.357
3.37398	0.192
3.4148	0.102
3.45561	0.103
3.49643	0.122
3.53725	0.297
3.57807	0.54
3.61888	0.603
3.6597	0.622
3.70052	0.63
3.74134	0.647
3.78215	0.656
3.82297	0.658
3.86379	0.67
3.90461	0.676
3.94542	0.695
3.98624	0.698
4.02706	0.702
4.06788	0.702
4.10869	0.719
4.14951	0.724
4.19033	0.726
4.23115	0.741
4.27196	0.748
4.31278	0.753
4.3536	0.76
4.39442	0.763
4.43523	0.767
4.47605	0.78
4.51687	0.79
4.55769	0.799
4.5985	0.804
4.63932	0.807
4.68014	0.812
4.72096	0.812
4.76177	0.819
4.80259	0.828
4.84341	0.836
4.88423	0.848
4.92505	0.852
4.96586	0.853
5.00668	0.857
5.0475	0.86
5.08832	0.862
5.12913	0.867
5.16995	0.85
5.21077	0.85
5.25159	0.85
5.2924	0.853
5.33322	0.872
5.37404	0.887
5.41486	0.899
5.45567	0.897
5.49649	0.892
5.53731	0.896
5.57813	0.904
5.61894	0.909
5.65976	0.901
5.70058	0.897
5.7414	0.896
5.78221	0.892
5.82303	0.884
5.86385	0.867
5.90467	0.843
5.94548	0.845
5.9863	0.85
6.02712	0.836
6.06794	0.843
6.10875	0.806
6.14957	0.319
6.19039	0.574
6.23121	0.284
6.27202	0.365
6.31284	0.63
6.35366	0.811
6.39448	0.85
6.43529	0.87
6.47611	0.88
6.51693	0.852
6.55775	0.634
6.59856	0.476
6.63938	0.688
6.6802	0.784
6.72102	0.739
6.76183	0.426
6.80265	0.251
6.84347	0.341
6.88429	0.54
6.9251	0.619
6.96592	0.75
7.00674	0.831
7.04756	0.843
7.08837	0.709
7.12919	0.62
7.17001	0.527
7.21083	0.278
7.25164	0.141
7.29246	0.333
7.33328	0.469
7.3741	0.503
7.41491	0.472
7.45573	0.569
7.49655	0.624
7.53737	0.411
7.57818	0.379
7.619	0.568
7.65982	0.656
7.70064	0.753
7.74145	0.79
7.78227	0.807
7.82309	0.75
7.86391	0.554
7.90473	0.731
7.94554	0.707
7.98636	0.578
8.02718	0.724
8.068	0.767
8.10881	0.7
8.14963	0.535
8.19045	0.272
8.23127	0.153
8.27208	0.176
8.3129	0.324
8.35372	0.448
8.39454	0.426
8.43535	0.295
8.47617	0.151
8.51699	0.085
8.55781	0.086
8.59862	0.154
8.63944	0.26
8.68026	0.202
8.72108	0.107
8.76189	0.107
8.80271	0.273
8.84353	0.35
8.88435	0.25
8.92516	0.335
8.96598	0.437
9.0068	0.539
9.04762	0.588
9.08843	0.61
9.12925	0.649
9.17007	0.675
9.21089	0.7
9.2517	0.71
9.29252	0.724
9.33334	0.727
9.37416	0.726
9.41497	0.739
9.45579	0.761
9.49661	0.77
9.53743	0.75
9.57824	0.748
9.61906	0.75
9.65988	0.756
9.7007	0.77
9.74151	0.768
9.78233	0.755
9.82315	0.778
9.86397	0.807
9.90478	0.819
9.9456	0.831
9.98642	0.833
10.0272	0.831
10.0681	0.824
10.1089	0.835
10.1497	0.792
10.1905	0.729
10.2313	0.715
10.2721	0.801
10.313	0.838
10.3538	0.811
10.3946	0.748
10.4354	0.637
10.4762	0.736
10.517	0.782
10.5579	0.828
10.5987	0.852
10.6395	0.889
10.6803	0.896
10.7211	0.897
10.762	0.823
10.8028	0.787
10.8436	0.85
10.8844	0.886
10.9252	0.899
10.966	0.909
11.0069	0.918
11.0477	0.923
11.0885	0.923
11.1293	0.925
11.1701	0.938
11.2109	0.945
11.2518	0.95
11.2926	0.955
11.3334	0.959
11.3742	0.965
11.415	0.967
11.4559	0.971
11.4967	0.964
11.5375	0.899
11.5783	0.768
11.6191	0.727
11.6599	0.823
11.7008	0.926
11.7416	0.947
11.7824	0.957
11.8232	0.955
11.864	0.955
11.9048	0.957
11.9457	0.954
11.9865	0.933
12.0273	0.875
12.0681	0.642
12.1089	0.348
12.1497	0.129
12.1906	0.185
12.2314	0.374
12.2722	0.442
12.313	0.292
12.3538	0.425
12.3947	0.756
12.4355	0.852
12.4763	0.899
12.5171	0.916
12.5579	0.923
12.5987	0.928
12.6396	0.92
12.6804	0.925
12.7212	0.92
12.762	0.814
12.8028	0.746
12.8436	0.821
12.8845	0.751
12.9253	0.668
12.9661	0.76
13.0069	0.846
13.0477	0.897
13.0886	0.908
13.1294	0.901
13.1702	0.821
13.211	0.576
13.2518	0.428
13.2926	0.244
13.3335	0.195
13.3743	0.414
13.4151	0.712
13.4559	0.799
13.4967	0.841
13.5375	0.86
13.5784	0.87
13.6192	0.867
13.66	0.853
13.7008	0.838
13.7416	0.799
13.7825	0.792
13.8233	0.782
13.8641	0.765
13.9049	0.772
13.9457	0.804
13.9865	0.841
14.0274	0.872
14.0682	0.901
14.109	0.921
14.1498	0.931
14.1906	0.94
14.2314	0.952
14.2723	0.957
14.3131	0.959
14.3539	0.959
14.3947	0.959
14.4355	0.957
14.4763	0.957
14.5172	0.954
14.558	0.948
14.5988	0.945
14.6396	0.94
14.6804	0.937
14.7213	0.926
14.7621	0.899
14.8029	0.836
14.8437	0.78
14.8845	0.741
14.9253	0.729
14.9662	0.736
15.007	0.751
15.0478	0.734
15.0886	0.709
15.1294	0.69
15.1702	0.7
15.2111	0.724
15.2519	0.743
15.2927	0.758
15.3335	0.775
15.3743	0.773
15.4152	0.77
15.456	0.768
15.4968	0.756
15.5376	0.751
15.5784	0.751
15.6192	0.741
15.6601	0.736
15.7009	0.721
15.7417	0.71
15.7825	0.695
15.8233	0.678
15.8641	0.658
15.905	0.637
15.9458	0.627
15.9866	0.61
