Infrared Spectrum: Pentafluorobenzoic acid
Formula: C7 H F5 O2
CAS: 602-94-8
State: SOLID (SPLIT MULL), FLUOROLUBE FOR 3800-1330 CM^-^1, NUJOL FOR 1330-400 CM^-^1
Melting point: 103 C
Boiling point: 220 C
Class: COBLENTZ II
Instrument: DOW KBr FOREPRISM-GRATING
Instrument parameters: BLAZED AT 3.5, 12.0, 20.0 MICRON AND CHANGED AT 5.0, 7.5, 14.9 MICRON
Sampling: TRANSMISSION
Resolution: 2
Origin: DOW CHEMICAL COMPANY
1/CM	TRANSMITTANCE
3814	0.8551
3805	0.8575
3796	0.8596
3787	0.8601
3778	0.8612
3769	0.8624
3760	0.8632
3751	0.8631
3742	0.8607
3733	0.8621
3724	0.8647
3715	0.8624
3706	0.8617
3697	0.8632
3688	0.8643
3679	0.8647
3670	0.8645
3661	0.865
3652	0.866
3643	0.8673
3634	0.8684
3625	0.8683
3616	0.8683
3607	0.8678
3598	0.8685
3589	0.8693
3580	0.87
3571	0.8706
3562	0.8712
3553	0.8715
3544	0.8718
3535	0.872
3526	0.8723
3517	0.8723
3508	0.8724
3499	0.8725
3490	0.8728
3481	0.8731
3472	0.8734
3463	0.8733
3454	0.8731
3445	0.8728
3436	0.8731
3427	0.8734
3418	0.8736
3409	0.8738
3400	0.8725
3391	0.8697
3382	0.8649
3373	0.859
3364	0.8534
3355	0.8521
3346	0.8502
3337	0.8482
3328	0.8459
3319	0.8435
3310	0.8388
3301	0.8303
3292	0.8218
3283	0.8134
3274	0.8051
3265	0.796
3256	0.7858
3247	0.7751
3238	0.7639
3229	0.7524
3220	0.7408
3211	0.7278
3202	0.7143
3193	0.7008
3184	0.6876
3175	0.6745
3166	0.661
3157	0.6469
3148	0.6328
3139	0.6169
3130	0.601
3121	0.5873
3112	0.5721
3103	0.5632
3094	0.5618
3085	0.5606
3076	0.5588
3067	0.557
3058	0.555
3049	0.5502
3040	0.54
3031	0.5326
3022	0.5246
3013	0.5187
3004	0.5182
2995	0.5277
2986	0.5357
2977	0.5387
2968	0.5403
2959	0.5364
2950	0.5312
2941	0.528
2932	0.5299
2923	0.5333
2914	0.5346
2905	0.5282
2896	0.5209
2887	0.5142
2878	0.51
2869	0.5081
2860	0.5098
2851	0.5151
2842	0.5219
2833	0.5315
2824	0.5415
2815	0.5535
2806	0.5659
2797	0.5776
2788	0.5887
2779	0.6015
2770	0.6139
2761	0.623
2752	0.6303
2743	0.6347
2734	0.632
2725	0.606
2716	0.6324
2707	0.6475
2698	0.6531
2689	0.6598
2680	0.6675
2671	0.6771
2662	0.6796
2653	0.6204
2644	0.5602
2635	0.5468
2626	0.5902
2617	0.6347
2608	0.6696
2599	0.701
2590	0.7038
2581	0.6794
2572	0.6282
2563	0.604
2554	0.6312
2545	0.6617
2536	0.6938
2527	0.7101
2518	0.7207
2509	0.7071
2500	0.6588
2491	0.6675
2482	0.696
2473	0.7221
2464	0.7388
2455	0.7465
2446	0.753
2437	0.7591
2428	0.7653
2419	0.7714
2410	0.7774
2401	0.7828
2392	0.7884
2383	0.7942
2374	0.8001
2365	0.8058
2356	0.8115
2347	0.8168
2338	0.8218
2329	0.8266
2320	0.8325
2311	0.8357
2302	0.8328
2293	0.8359
2284	0.8394
2275	0.8427
2266	0.8453
2257	0.8467
2248	0.846
2239	0.8418
2230	0.8455
2221	0.8575
2212	0.8628
2203	0.8668
2194	0.8694
2185	0.8703
2176	0.8668
2167	0.8651
2158	0.8673
2149	0.8696
2140	0.8708
2131	0.8717
2122	0.873
2113	0.8762
2104	0.8796
2095	0.8825
2086	0.8852
2077	0.8875
2068	0.8895
2059	0.8914
2050	0.8917
2041	0.892
2032	0.8924
2023	0.8921
2014	0.8921
2005	0.8924
1996	0.8914
1987	0.8911
1978	0.8914
1969	0.8888
1960	0.8858
1951	0.8839
1942	0.8861
1933	0.889
1924	0.8901
1915	0.892
1906	0.8955
1897	0.8968
1888	0.8927
1879	0.8896
1870	0.8875
1861	0.8852
1852	0.8842
1843	0.8828
1834	0.8633
1825	0.8625
1816	0.8756
1807	0.8773
1798	0.871
1789	0.866
1780	0.8603
1771	0.8503
1762	0.8282
1753	0.7907
1744	0.7355
1735	0.5078
1726	0.2341
1717	0.0679
1708	0.1223
1699	0.2974
1690	0.5386
1681	0.656
1672	0.759
1663	0.7847
1654	0.5565
1645	0.3696
1636	0.6079
1627	0.6353
1618	0.7308
1609	0.7768
1600	0.8099
1591	0.8225
1582	0.8235
1573	0.8499
1564	0.8574
1555	0.8293
1546	0.8234
1537	0.7535
1528	0.1585
1519	0.4801
1510	0.4302
1501	0.155
1492	0.0649
1483	0.34
1474	0.6174
1465	0.6904
1456	0.7311
1447	0.7351
1438	0.5593
1429	0.1498
1420	0.1987
1411	0.487
1402	0.4078
1393	0.5903
1384	0.7107
1375	0.7543
1366	0.7564
1357	0.7944
1348	0.7915
1339	0.745
1330	0.6992
1321	0.4162
1312	0.4553
1303	0.7339
1294	0.7725
1285	0.7845
1276	0.6953
1267	0.4784
1258	0.165
1249	0.3259
1240	0.5577
1231	0.6619
1222	0.7158
1213	0.7472
1204	0.775
1195	0.7918
1186	0.8031
1177	0.8074
1168	0.8124
1159	0.8327
1150	0.8334
1141	0.8242
1132	0.8557
1123	0.8566
1114	0.2578
1105	0.7265
1096	0.7992
1087	0.809
1078	0.8294
1069	0.8363
1060	0.8387
1051	0.8361
1042	0.8224
1033	0.7705
1024	0.6495
1015	0.4297
1006	0.1984
997	0.3216
988	0.3026
979	0.568
970	0.7378
961	0.7793
952	0.7971
943	0.7967
934	0.7476
925	0.6594
916	0.3509
907	0.609
898	0.7306
889	0.7958
880	0.8321
871	0.8568
862	0.8796
853	0.886
844	0.8871
835	0.888
826	0.892
817	0.8977
808	0.9024
799	0.9302
790	0.9352
781	0.9314
772	0.8917
763	0.9375
754	0.9466
745	0.9433
736	0.9137
727	0.4454
718	0.4669
709	0.8407
700	0.9078
691	0.9318
682	0.9491
673	0.9596
664	0.963
655	0.9364
646	0.9407
637	0.9368
628	0.9352
619	0.9347
610	0.9273
601	0.9281
592	0.9259
583	0.9099
574	0.9113
565	0.9038
556	0.8992
547	0.8977
538	0.8973
529	0.8971
520	0.8967
511	0.886
502	0.8783
493	0.8833
484	0.7449
475	0.5982
466	0.7801
457	0.8192
448	0.8204
439	0.8178
430	0.8186
421	0.8175
412	0.814
403	0.8069
394	0.801
