Infrared Spectrum: NITRO MESITYLENE
Formula: C9 H11 N O2
CAS: 603-71-4
State: SOLID (MINERAL OIL MULL)
Melting point: 44.5-46 C
Class: COBLENTZ
Instrument: Not specified, most likely a prism, grating, or hybrid spectrometer.
Sampling: TRANSMISSION
Resolution: 4
Origin: WYANDOTTE CHEMICALS CORP., WYANDOTTE, MICHIGAN, USA
MICROMETERS	TRANSMITTANCE
2.046	0.537
2.08574	0.537
2.12547	0.535
2.16521	0.53
2.20495	0.507
2.24469	0.517
2.28442	0.53
2.32416	0.533
2.3639	0.535
2.40364	0.533
2.44337	0.533
2.48311	0.535
2.52285	0.538
2.56258	0.543
2.60232	0.543
2.64206	0.552
2.6818	0.56
2.72153	0.553
2.76127	0.552
2.80101	0.548
2.84075	0.542
2.88048	0.545
2.92022	0.535
2.95996	0.533
2.99969	0.533
3.03943	0.533
3.07917	0.533
3.11891	0.532
3.15864	0.527
3.19838	0.52
3.23812	0.51
3.27785	0.462
3.31759	0.401
3.35733	0.147
3.39707	0.072
3.4368	0.114
3.47654	0.162
3.51628	0.195
3.55602	0.527
3.59575	0.575
3.63549	0.588
3.67523	0.568
3.71496	0.593
3.7547	0.601
3.79444	0.608
3.83418	0.613
3.87391	0.62
3.91365	0.633
3.95339	0.633
3.99313	0.64
4.03286	0.645
4.0726	0.64
4.11234	0.631
4.15207	0.63
4.19181	0.631
4.23155	0.643
4.27129	0.628
4.31102	0.636
4.35076	0.656
4.3905	0.693
4.43024	0.689
4.46997	0.689
4.50971	0.691
4.54945	0.696
4.58918	0.703
4.62892	0.704
4.66866	0.698
4.7084	0.706
4.74813	0.711
4.78787	0.716
4.82761	0.721
4.86735	0.726
4.90708	0.731
4.94682	0.731
4.98656	0.736
5.02629	0.739
5.06603	0.736
5.10577	0.741
5.14551	0.739
5.18524	0.734
5.22498	0.739
5.26472	0.747
5.30446	0.739
5.34419	0.751
5.38393	0.751
5.42367	0.757
5.4634	0.751
5.50314	0.759
5.54288	0.759
5.58262	0.757
5.62235	0.749
5.66209	0.728
5.70183	0.716
5.74156	0.679
5.7813	0.706
5.82104	0.709
5.86078	0.708
5.90051	0.719
5.94025	0.706
5.97999	0.699
6.01973	0.666
6.05946	0.666
6.0992	0.648
6.13894	0.61
6.17867	0.318
6.21841	0.232
6.25815	0.305
6.29789	0.308
6.33762	0.276
6.37736	0.243
6.4171	0.167
6.45684	0.132
6.49657	0.064
6.53631	0.067
6.57605	0.099
6.61578	0.131
6.65552	0.164
6.69526	0.192
6.735	0.169
6.77473	0.19
6.81447	0.182
6.85421	0.185
6.89395	0.232
6.93368	0.296
6.97342	0.424
7.01316	0.462
7.05289	0.524
7.09263	0.567
7.13237	0.613
7.17211	0.57
7.21184	0.366
7.25158	0.184
7.29132	0.097
7.33106	0.129
7.37079	0.253
7.41053	0.432
7.45027	0.545
7.49	0.63
7.52974	0.671
7.56948	0.698
7.60922	0.699
7.64895	0.573
7.68869	0.621
7.72843	0.606
7.76816	0.656
7.8079	0.711
7.84764	0.747
7.88738	0.762
7.92711	0.756
7.96685	0.736
8.00659	0.784
8.04633	0.794
8.08606	0.812
8.1258	0.829
8.16554	0.834
8.20527	0.839
8.24501	0.83
8.28475	0.834
8.32449	0.835
8.36422	0.83
8.40396	0.854
8.4437	0.796
8.48344	0.82
8.52317	0.839
8.56291	0.86
8.60265	0.875
8.64238	0.88
8.68212	0.888
8.72186	0.897
8.7616	0.907
8.80133	0.91
8.84107	0.912
8.88081	0.898
8.92055	0.89
8.96028	0.88
9.00002	0.87
9.03976	0.868
9.07949	0.849
9.11923	0.789
9.15897	0.797
9.19871	0.834
9.23844	0.83
9.27818	0.83
9.31792	0.829
9.35766	0.822
9.39739	0.797
9.43713	0.784
9.47687	0.771
9.5166	0.711
9.55634	0.611
9.59608	0.565
9.63582	0.621
9.67555	0.709
9.71529	0.766
9.75503	0.766
9.79477	0.772
9.8345	0.814
9.87424	0.844
9.91398	0.868
9.95371	0.878
9.99345	0.887
10.0332	0.89
10.0729	0.893
10.1127	0.898
10.1524	0.892
10.1921	0.893
10.2319	0.893
10.2716	0.887
10.3113	0.888
10.3511	0.895
10.3908	0.893
10.4306	0.89
10.4703	0.878
10.51	0.883
10.5498	0.888
10.5895	0.888
10.6292	0.882
10.669	0.88
10.7087	0.887
10.7485	0.887
10.7882	0.887
10.8279	0.888
10.8677	0.893
10.9074	0.888
10.9471	0.893
10.9869	0.892
11.0266	0.892
11.0664	0.892
11.1061	0.888
11.1458	0.887
11.1856	0.88
11.2253	0.868
11.265	0.862
11.3048	0.857
11.3445	0.847
11.3843	0.839
11.424	0.81
11.4637	0.776
11.5035	0.716
11.5432	0.611
11.5829	0.49
11.6227	0.359
11.6624	0.303
11.7022	0.3
11.7419	0.379
11.7816	0.545
11.8214	0.734
11.8611	0.829
11.9008	0.87
11.9406	0.776
11.9803	0.437
12.0201	0.119
12.0598	0.334
12.0995	0.641
12.1393	0.751
12.179	0.82
12.2187	0.839
12.2585	0.865
12.2982	0.888
12.3379	0.898
12.3777	0.91
12.4174	0.918
12.4572	0.923
12.4969	0.93
12.5366	0.936
12.5764	0.938
12.6161	0.941
12.6558	0.94
12.6956	0.941
12.7353	0.941
12.7751	0.941
12.8148	0.943
12.8545	0.941
12.8943	0.945
12.934	0.94
12.9737	0.936
13.0135	0.932
13.0532	0.923
13.093	0.927
13.1327	0.915
13.1724	0.92
13.2122	0.918
13.2519	0.915
13.2916	0.915
13.3314	0.918
13.3711	0.918
13.4109	0.908
13.4506	0.905
13.4903	0.905
13.5301	0.905
13.5698	0.9
13.6095	0.897
13.6493	0.89
13.689	0.885
13.7288	0.872
13.7685	0.865
13.8082	0.857
13.848	0.839
13.8877	0.827
13.9274	0.809
13.9672	0.799
14.0069	0.789
14.0467	0.787
14.0864	0.781
14.1261	0.791
14.1659	0.809
14.2056	0.815
14.2453	0.844
14.2851	0.86
14.3248	0.877
14.3645	0.887
14.4043	0.895
14.444	0.898
14.4838	0.902
14.5235	0.907
14.5632	0.903
14.603	0.898
14.6427	0.897
14.6824	0.895
14.7222	0.89
14.7619	0.888
14.8017	0.882
14.8414	0.873
14.8811	0.883
14.9209	0.873
14.9606	0.873
15.0003	0.842
15.0401	0.799
15.0798	0.777
15.1196	0.802
15.1593	0.842
15.199	0.84
15.2388	0.824
15.2785	0.812
15.3182	0.799
15.358	0.796
15.3977	0.784
15.4375	0.777
15.4772	0.764
15.5169	0.754
15.5567	0.747
15.5964	0.734
15.6361	0.731
15.6759	0.713
15.7156	0.709
15.7554	0.701
15.7951	0.686
15.8348	0.679
15.8746	0.673
15.9143	0.668
15.954	0.66
15.9938	0.641
