Infrared Spectrum: N,N-DIPHENYL CARBAMIC ACID, ETHYL ESTER
Formula: C15 H15 N O2
CAS: 603-52-1
State: SOLID (MINERAL OIL MULL)
Melting point: 69-71 C
Class: COBLENTZ
Instrument: Not specified, most likely a prism, grating, or hybrid spectrometer.
Sampling: TRANSMISSION
Resolution: 4
Origin: WYANDOTTE CHEMICALS CORP., WYANDOTTE, MICHIGAN, USA
MICROMETERS	TRANSMITTANCE
2.033	0.547
2.07277	0.548
2.11255	0.552
2.15232	0.553
2.1921	0.557
2.23187	0.561
2.27165	0.566
2.31142	0.57
2.35119	0.575
2.39097	0.58
2.43074	0.59
2.47052	0.595
2.51029	0.603
2.55007	0.611
2.58984	0.618
2.62961	0.628
2.66939	0.626
2.70916	0.631
2.74894	0.636
2.78871	0.638
2.82849	0.638
2.86826	0.633
2.90803	0.618
2.94781	0.618
2.98758	0.626
3.02736	0.629
3.06713	0.628
3.10691	0.618
3.14668	0.613
3.18645	0.603
3.22623	0.509
3.266	0.444
3.30578	0.247
3.34555	0.105
3.38533	0.09
3.4251	0.183
3.46487	0.183
3.50465	0.484
3.54442	0.719
3.5842	0.733
3.62397	0.748
3.66375	0.747
3.70352	0.757
3.74329	0.757
3.78307	0.761
3.82284	0.766
3.86262	0.771
3.90239	0.78
3.94217	0.801
3.98194	0.811
4.02171	0.813
4.06149	0.818
4.10126	0.814
4.14104	0.816
4.18081	0.821
4.22059	0.813
4.26036	0.818
4.30013	0.829
4.33991	0.849
4.37968	0.856
4.41946	0.854
4.45923	0.862
4.49901	0.866
4.53878	0.869
4.57855	0.88
4.61833	0.882
4.6581	0.885
4.69788	0.895
4.73765	0.899
4.77743	0.909
4.8172	0.905
4.85697	0.899
4.89675	0.912
4.93652	0.914
4.9763	0.917
5.01607	0.92
5.05584	0.922
5.09562	0.9
5.13539	0.874
5.17517	0.88
5.21494	0.907
5.25472	0.914
5.29449	0.907
5.33426	0.91
5.37404	0.905
5.41381	0.927
5.45359	0.932
5.49336	0.9
5.53314	0.867
5.57291	0.884
5.61268	0.88
5.65246	0.852
5.69223	0.75
5.73201	0.469
5.77178	0.066
5.81156	0.104
5.85133	0.249
5.8911	0.454
5.93088	0.538
5.97065	0.59
6.01043	0.654
6.0502	0.699
6.08998	0.71
6.12975	0.674
6.16952	0.5
6.2093	0.254
6.24907	0.528
6.28885	0.768
6.32862	0.798
6.3684	0.821
6.40817	0.803
6.44794	0.798
6.48772	0.738
6.52749	0.676
6.56727	0.543
6.60704	0.319
6.64682	0.082
6.68659	0.319
6.72636	0.282
6.76614	0.34
6.80591	0.236
6.84569	0.276
6.88546	0.409
6.92524	0.527
6.96501	0.6
7.00478	0.573
7.04456	0.383
7.08433	0.201
7.12411	0.262
7.16388	0.358
7.20366	0.335
7.24343	0.234
7.2832	0.13
7.32298	0.535
7.36275	0.548
7.40253	0.393
7.4423	0.251
7.48208	0.178
7.52185	0.095
7.56162	0.122
7.6014	0.071
7.64117	0.114
7.68095	0.18
7.72072	0.173
7.7605	0.12
7.80027	0.072
7.84004	0.064
7.87982	0.12
7.91959	0.249
7.95937	0.328
7.99914	0.477
8.03892	0.548
8.07869	0.51
8.11846	0.262
8.15824	0.152
8.19801	0.289
8.23779	0.424
8.27756	0.515
8.31734	0.573
8.35711	0.621
8.39688	0.654
8.43666	0.672
8.47643	0.527
8.51621	0.538
8.55598	0.651
8.59576	0.568
8.63553	0.694
8.6753	0.712
8.71508	0.775
8.75485	0.8
8.79463	0.809
8.8344	0.809
8.87418	0.79
8.91395	0.728
8.95372	0.621
8.9935	0.656
9.03327	0.725
9.07305	0.705
9.11282	0.642
9.1526	0.447
9.19237	0.287
9.23214	0.274
9.27192	0.251
9.31169	0.176
9.35147	0.166
9.39124	0.285
9.43102	0.454
9.47079	0.557
9.51056	0.628
9.55034	0.692
9.59011	0.687
9.62989	0.497
9.66966	0.35
9.70944	0.386
9.74921	0.547
9.78898	0.642
9.82876	0.704
9.86853	0.672
9.90831	0.662
9.94808	0.586
9.98786	0.647
10.0276	0.745
10.0674	0.748
10.1072	0.753
10.147	0.793
10.1867	0.803
10.2265	0.806
10.2663	0.795
10.306	0.728
10.3458	0.771
10.3856	0.798
10.4254	0.809
10.4651	0.814
10.5049	0.803
10.5447	0.775
10.5845	0.803
10.6242	0.834
10.664	0.842
10.7038	0.849
10.7436	0.861
10.7833	0.864
10.8231	0.867
10.8629	0.857
10.9027	0.836
10.9424	0.867
10.9822	0.885
11.022	0.887
11.0618	0.879
11.1015	0.834
11.1413	0.649
11.1811	0.728
11.2209	0.854
11.2606	0.877
11.3004	0.889
11.3402	0.899
11.38	0.907
11.4197	0.917
11.4595	0.919
11.4993	0.919
11.5391	0.914
11.5788	0.887
11.6186	0.814
11.6584	0.765
11.6981	0.811
11.7379	0.866
11.7777	0.879
11.8175	0.849
11.8572	0.885
11.897	0.905
11.9368	0.866
11.9766	0.885
12.0163	0.914
12.0561	0.925
12.0959	0.932
12.1357	0.928
12.1754	0.919
12.2152	0.884
12.255	0.867
12.2948	0.882
12.3345	0.91
12.3743	0.914
12.4141	0.909
12.4539	0.88
12.4936	0.829
12.5334	0.763
12.5732	0.801
12.613	0.864
12.6527	0.894
12.6925	0.905
12.7323	0.899
12.7721	0.892
12.8118	0.874
12.8516	0.847
12.8914	0.809
12.9312	0.742
12.9709	0.639
13.0107	0.418
13.0505	0.193
13.0902	0.107
13.13	0.1
13.1698	0.175
13.2096	0.276
13.2493	0.314
13.2891	0.259
13.3289	0.276
13.3687	0.436
13.4084	0.614
13.4482	0.737
13.488	0.798
13.5278	0.826
13.5675	0.842
13.6073	0.856
13.6471	0.871
13.6869	0.874
13.7266	0.887
13.7664	0.887
13.8062	0.894
13.846	0.902
13.8857	0.9
13.9255	0.902
13.9653	0.914
14.0051	0.919
14.0448	0.917
14.0846	0.904
14.1244	0.885
14.1642	0.828
14.2039	0.72
14.2437	0.555
14.2835	0.335
14.3233	0.203
14.363	0.185
14.4028	0.249
14.4426	0.294
14.4823	0.287
14.5221	0.262
14.5619	0.304
14.6017	0.451
14.6414	0.581
14.6812	0.692
14.721	0.747
14.7608	0.771
14.8005	0.778
14.8403	0.765
14.8801	0.705
14.9199	0.624
14.9596	0.561
14.9994	0.56
15.0392	0.613
15.079	0.705
15.1187	0.768
15.1585	0.798
15.1983	0.808
15.2381	0.813
15.2778	0.814
15.3176	0.816
15.3574	0.813
15.3972	0.808
15.4369	0.798
15.4767	0.798
15.5165	0.786
15.5563	0.778
15.596	0.783
15.6358	0.765
15.6756	0.745
15.7154	0.71
15.7551	0.667
15.7949	0.631
15.8347	0.601
15.8744	0.604
15.9142	0.628
15.954	0.644
15.9938	0.654
