Infrared Spectrum: TRIPHENYLPHOSPHINE
Formula: C18 H15 P
CAS: 603-35-0
State: SOLID (MINERAL OIL MULL)
Melting point: 78.8-80.8 C
Class: COBLENTZ
Instrument: PERKIN-ELMER
Sampling: TRANSMISSION
Resolution: 4
Origin: AMERICAN CYANAMID, J. GOVE. BOUND BROOK, N.J.
MICROMETERS	TRANSMITTANCE
2.02	0.189
2.06037	0.192
2.10075	0.201
2.14112	0.207
2.1815	0.209
2.22187	0.221
2.26224	0.228
2.30262	0.243
2.34299	0.248
2.38337	0.253
2.42374	0.261
2.46411	0.27
2.50449	0.271
2.54486	0.283
2.58524	0.292
2.62561	0.302
2.66598	0.305
2.70636	0.312
2.74673	0.32
2.78711	0.331
2.82748	0.342
2.86785	0.351
2.90823	0.358
2.9486	0.369
2.98897	0.378
3.02935	0.38
3.06972	0.381
3.1101	0.388
3.15047	0.391
3.19084	0.386
3.23122	0.339
3.27159	0.268
3.31197	0.241
3.35234	0.18
3.39271	0.123
3.43309	0.163
3.47346	0.201
3.51384	0.42
3.55421	0.579
3.59458	0.599
3.63496	0.601
3.67533	0.599
3.71571	0.592
3.75608	0.596
3.79645	0.599
3.83683	0.601
3.8772	0.609
3.91758	0.618
3.95795	0.625
3.99832	0.628
4.0387	0.63
4.07907	0.631
4.11945	0.643
4.15982	0.645
4.20019	0.645
4.24057	0.646
4.28094	0.65
4.32132	0.655
4.36169	0.67
4.40206	0.677
4.44244	0.677
4.48281	0.687
4.52319	0.694
4.56356	0.699
4.60393	0.701
4.64431	0.709
4.68468	0.716
4.72505	0.716
4.76543	0.721
4.8058	0.722
4.84618	0.728
4.88655	0.736
4.92692	0.741
4.9673	0.743
5.00767	0.741
5.04805	0.709
5.08842	0.695
5.12879	0.68
5.16917	0.733
5.20954	0.746
5.24992	0.719
5.29029	0.701
5.33066	0.692
5.37104	0.751
5.41141	0.766
5.45179	0.751
5.49216	0.744
5.53253	0.704
5.57291	0.765
5.61328	0.775
5.65366	0.76
5.69403	0.753
5.7344	0.766
5.77478	0.78
5.81515	0.792
5.85553	0.804
5.8959	0.802
5.93627	0.8
5.97665	0.782
6.01702	0.771
6.0574	0.78
6.09777	0.804
6.13814	0.817
6.17852	0.812
6.21889	0.804
6.25926	0.78
6.29964	0.753
6.34001	0.604
6.38039	0.731
6.42076	0.768
6.46113	0.793
6.50151	0.802
6.54188	0.814
6.58226	0.822
6.62263	0.822
6.663	0.809
6.70338	0.766
6.74375	0.655
6.78413	0.229
6.8245	0.317
6.86487	0.395
6.90525	0.491
6.94562	0.554
6.986	0.194
7.02637	0.476
7.06674	0.695
7.10712	0.775
7.14749	0.787
7.18787	0.763
7.22824	0.69
7.26861	0.616
7.30899	0.667
7.34936	0.736
7.38974	0.798
7.43011	0.812
7.47048	0.815
7.51086	0.809
7.55123	0.755
7.59161	0.748
7.63198	0.782
7.67235	0.635
7.71273	0.726
7.7531	0.785
7.79348	0.82
7.83385	0.761
7.87422	0.746
7.9146	0.75
7.95497	0.793
7.99534	0.814
8.03572	0.824
8.07609	0.842
8.11647	0.854
8.15684	0.869
8.19721	0.876
8.23759	0.881
8.27796	0.878
8.31834	0.875
8.35871	0.847
8.39908	0.847
8.43946	0.847
8.47983	0.82
8.52021	0.758
8.56058	0.766
8.60095	0.832
8.64133	0.844
8.6817	0.761
8.72208	0.751
8.76245	0.836
8.80282	0.866
8.8432	0.876
8.88357	0.875
8.92395	0.871
8.96432	0.851
9.00469	0.831
9.04507	0.809
9.08544	0.775
9.12582	0.753
9.16619	0.628
9.20656	0.366
9.24694	0.418
9.28731	0.641
9.32769	0.775
9.36806	0.646
9.40843	0.613
9.44881	0.748
9.48918	0.837
9.52956	0.881
9.56993	0.903
9.6103	0.91
9.65068	0.918
9.69105	0.923
9.73142	0.895
9.7718	0.527
9.81217	0.548
9.85255	0.778
9.89292	0.842
9.93329	0.854
9.97367	0.827
10.014	0.716
10.0544	0.677
10.0948	0.658
10.1352	0.792
10.1755	0.824
10.2159	0.854
10.2563	0.891
10.2967	0.898
10.337	0.866
10.3774	0.875
10.4178	0.898
10.4582	0.91
10.4985	0.912
10.5389	0.913
10.5793	0.915
10.6197	0.918
10.66	0.913
10.7004	0.908
10.7408	0.912
10.7811	0.915
10.8215	0.925
10.8619	0.918
10.9023	0.907
10.9426	0.827
10.983	0.834
11.0234	0.871
11.0638	0.866
11.1041	0.91
11.1445	0.937
11.1849	0.944
11.2253	0.945
11.2656	0.949
11.306	0.949
11.3464	0.952
11.3868	0.962
11.4271	0.957
11.4675	0.961
11.5079	0.964
11.5483	0.962
11.5886	0.962
11.629	0.961
11.6694	0.957
11.7097	0.903
11.7501	0.798
11.7905	0.797
11.8309	0.846
11.8712	0.91
11.9116	0.932
11.952	0.945
11.9924	0.954
12.0327	0.961
12.0731	0.961
12.1135	0.962
12.1539	0.962
12.1942	0.962
12.2346	0.964
12.275	0.962
12.3154	0.964
12.3557	0.964
12.3961	0.971
12.4365	0.971
12.4769	0.978
12.5172	0.981
12.5576	0.981
12.598	0.978
12.6383	0.979
12.6787	0.976
12.7191	0.979
12.7595	0.971
12.7998	0.961
12.8402	0.964
12.8806	0.961
12.921	0.956
12.9613	0.944
13.0017	0.937
13.0421	0.932
13.0825	0.92
13.1228	0.896
13.1632	0.824
13.2036	0.701
13.244	0.442
13.2843	0.197
13.3247	0.153
13.3651	0.145
13.4055	0.07
13.4458	0.042
13.4862	0.028
13.5266	0.03
13.567	0.168
13.6073	0.396
13.6477	0.582
13.6881	0.697
13.7284	0.76
13.7688	0.795
13.8092	0.809
13.8496	0.812
13.8899	0.798
13.9303	0.82
13.9707	0.841
14.0111	0.854
14.0514	0.856
14.0918	0.832
14.1322	0.778
14.1726	0.675
14.2129	0.498
14.2533	0.305
14.2937	0.152
14.3341	0.067
14.3744	0.032
14.4148	0.025
14.4552	0.018
14.4956	0.02
14.5359	0.042
14.5763	0.153
14.6167	0.304
14.657	0.405
14.6974	0.466
14.7378	0.527
14.7782	0.581
14.8185	0.618
14.8589	0.638
14.8993	0.646
14.9397	0.652
14.98	0.662
15.0204	0.673
15.0608	0.697
15.1012	0.739
15.1415	0.763
15.1819	0.782
15.2223	0.793
15.2627	0.802
15.303	0.82
15.3434	0.826
15.3838	0.826
15.4242	0.831
15.4645	0.834
15.5049	0.836
