Infrared Spectrum: Triphenylamine
Formula: C18 H15 N
CAS: 603-34-9
State: SOLUTION (10% CCl4 FOR 3800-1330, 10% CS2 FOR 1330-450 CM^-^1)
Class: COBLENTZ III
Instrument: DOW KBr FOREPRISM-GRATING
Instrument parameters: BLAZED AT 3.5, 12.0, 20.0 MICRON AND CHANGED AT 5.0, 7.5, 14.9 MICRON
Sampling: TRANSMISSION
Path length: 0.011 CM, 0.011 CM
Resolution: 2
Origin: DOW CHEMICAL COMPANY
1/CM	TRANSMITTANCE
3800	0.9089
3791	0.9149
3782	0.9156
3773	0.9133
3764	0.9125
3755	0.9154
3746	0.9177
3737	0.9207
3728	0.9223
3719	0.9203
3710	0.9178
3701	0.9114
3692	0.9061
3683	0.907
3674	0.9105
3665	0.9144
3656	0.9144
3647	0.9123
3638	0.9101
3629	0.9117
3620	0.9157
3611	0.9176
3602	0.919
3593	0.9226
3584	0.9259
3575	0.9259
3566	0.9225
3557	0.923
3548	0.9248
3539	0.9243
3530	0.925
3521	0.9233
3512	0.9231
3503	0.9227
3494	0.9225
3485	0.9223
3476	0.9222
3467	0.922
3458	0.9213
3449	0.9212
3440	0.9218
3431	0.9235
3422	0.9283
3413	0.931
3404	0.9318
3395	0.9318
3386	0.9316
3377	0.9303
3368	0.927
3359	0.9241
3350	0.9229
3341	0.9233
3332	0.9234
3323	0.9237
3314	0.9239
3305	0.9256
3296	0.924
3287	0.924
3278	0.9249
3269	0.925
3260	0.9245
3251	0.9235
3242	0.9223
3233	0.9206
3224	0.9186
3215	0.9165
3206	0.9125
3197	0.9082
3188	0.9023
3179	0.8973
3170	0.8975
3161	0.899
3152	0.9
3143	0.8981
3134	0.898
3125	0.8932
3116	0.8792
3107	0.8565
3098	0.7532
3089	0.5482
3080	0.5878
3071	0.457
3062	0.4309
3053	0.5054
3044	0.5438
3035	0.4018
3026	0.505
3017	0.6539
3008	0.7292
2999	0.8238
2990	0.8591
2981	0.8765
2972	0.8882
2963	0.8928
2954	0.8937
2945	0.8916
2936	0.891
2927	0.8865
2918	0.8786
2909	0.879
2900	0.8822
2891	0.8872
2882	0.8928
2873	0.8951
2864	0.895
2855	0.8938
2846	0.8928
2837	0.8962
2828	0.8988
2819	0.9021
2810	0.9022
2801	0.9044
2792	0.9042
2783	0.9036
2774	0.9005
2765	0.8967
2756	0.8995
2747	0.9026
2738	0.9054
2729	0.908
2720	0.91
2711	0.9115
2702	0.9126
2693	0.9135
2684	0.9134
2675	0.9119
2666	0.9096
2657	0.9079
2648	0.9035
2639	0.8948
2630	0.8858
2621	0.8746
2612	0.8614
2603	0.8538
2594	0.8605
2585	0.8697
2576	0.8738
2567	0.8753
2558	0.8728
2549	0.8664
2540	0.8765
2531	0.8864
2522	0.8856
2513	0.8825
2504	0.8812
2495	0.8831
2486	0.8854
2477	0.8899
2468	0.8883
2459	0.8859
2450	0.8857
2441	0.8929
2432	0.8987
2423	0.9004
2414	0.9029
2405	0.9063
2396	0.9067
2387	0.9081
2378	0.9137
2369	0.9186
2360	0.9216
2351	0.919
2342	0.9145
2333	0.9116
2324	0.9137
2315	0.9055
2306	0.8989
2297	0.9019
2288	0.9024
2279	0.9027
2270	0.9015
2261	0.9003
2252	0.8997
2243	0.8991
2234	0.9002
2225	0.9022
2216	0.9013
2207	0.8953
2198	0.8934
2189	0.8948
2180	0.8974
2171	0.9019
2162	0.9033
2153	0.9057
2144	0.9082
2135	0.9094
2126	0.9084
2117	0.906
2108	0.9043
2099	0.9029
2090	0.9016
2081	0.9004
2072	0.8996
2063	0.8969
2054	0.897
2045	0.893
2036	0.8909
2027	0.89
2018	0.8891
2009	0.8854
2000	0.8744
1991	0.861
1982	0.8788
1973	0.8852
1964	0.8853
1955	0.854
1946	0.8035
1937	0.7599
1928	0.7896
1919	0.8409
1910	0.8669
1901	0.8769
1892	0.8676
1883	0.8613
1874	0.8547
1865	0.819
1856	0.8056
1847	0.8205
1838	0.8627
1829	0.8789
1820	0.8744
1811	0.8665
1802	0.8509
1793	0.8023
1784	0.7936
1775	0.8362
1766	0.853
1757	0.858
1748	0.87
1739	0.8747
1730	0.8396
1721	0.8189
1712	0.8323
1703	0.8621
1694	0.8724
1685	0.8674
1676	0.8577
1667	0.8546
1658	0.835
1649	0.8212
1640	0.7709
1631	0.7291
1622	0.6667
1613	0.5356
1604	0.2928
1595	0.026
1586	0.0003
1577	0.2485
1568	0.5862
1559	0.6402
1550	0.6913
1541	0.7204
1532	0.7006
1523	0.6659
1514	0.5782
1505	0.2542
1496	0.0003
1487	0.0282
1478	0.1368
1469	0.6055
1460	0.5489
1451	0.7659
1442	0.7629
1433	0.8284
1424	0.8619
1415	0.8556
1406	0.822
1397	0.8131
1388	0.8371
1379	0.839
1370	0.8268
1361	0.8124
1352	0.7219
1343	0.3403
1334	0.1331
1325	0.2168
1316	0.223
1307	0.2657
1298	0.2509
1289	0.0797
1280	0.0089
1271	0.0798
1262	0.3859
1253	0.6505
1244	0.7784
1235	0.8399
1226	0.849
1217	0.8167
1208	0.8261
1199	0.8359
1190	0.8316
1181	0.7645
1172	0.4551
1163	0.7762
1154	0.6548
1145	0.855
1136	0.9096
1127	0.9277
1118	0.9275
1109	0.9049
1100	0.9243
1091	0.9204
1082	0.8307
1073	0.5207
1064	0.8586
1055	0.9173
1046	0.9235
1037	0.8915
1028	0.408
1019	0.8291
1010	0.8839
1001	0.7899
992	0.8342
983	0.8845
974	0.8725
965	0.8724
956	0.8604
947	0.8988
938	0.9014
929	0.8779
920	0.8571
911	0.8947
902	0.8703
893	0.6495
884	0.7934
875	0.862
866	0.8802
857	0.8807
848	0.8635
839	0.8586
830	0.8049
821	0.8525
812	0.8952
803	0.9044
794	0.9024
785	0.8953
776	0.8646
767	0.7571
758	0.2274
749	0.0055
740	0.4964
731	0.7869
722	0.8263
713	0.7856
704	0.46
695	0
686	0.6094
677	0.7881
668	0.8346
659	0.8685
650	0.9087
641	0.9296
632	0.8018
623	0.3316
614	0.5029
605	0.9284
596	0.9497
587	0.9557
578	0.9545
569	0.9524
560	0.9467
551	0.938
542	0.9289
533	0.9145
524	0.8581
515	0.558
506	0.2796
497	0.7647
488	0.8541
479	0.8813
470	0.8865
461	0.8885
452	0.887
