Infrared Spectrum: Alpha-d-GLUCOSE, PENTAACETATE
Formula: C16 H22 O11
CAS: 604-68-2
State: SOLID (SPLIT MULL)
Melting point: 111 C
Class: COBLENTZ III
Instrument: DOW KBr FOREPRISM-GRATING
Instrument parameters: BLAZED AT 3.5, 12.0, 20.0 MICRON AND CHANGED AT 5.0, 7.5, 14.9 MICRON
Sampling: TRANSMISSION
Resolution: 2
Origin: DOW CHEMICAL COMPANY
1/CM	TRANSMITTANCE
457	0.6828
466	0.7844
475	0.7775
484	0.6599
493	0.5515
502	0.7832
511	0.8414
520	0.8513
529	0.8563
538	0.8234
547	0.8227
556	0.8392
565	0.8556
574	0.8657
583	0.8455
592	0.8354
601	0.7601
610	0.6441
619	0.7728
628	0.8831
637	0.8748
646	0.8767
655	0.8903
664	0.8699
673	0.8571
682	0.7893
691	0.8506
700	0.8652
709	0.8486
718	0.7711
727	0.8108
736	0.8151
745	0.778
754	0.8551
763	0.8652
772	0.8655
781	0.8655
790	0.8692
799	0.8638
808	0.8628
817	0.8623
826	0.859
835	0.8451
844	0.7343
853	0.8445
862	0.8544
871	0.8475
880	0.7912
889	0.7425
898	0.7785
907	0.6715
916	0.6511
925	0.7361
934	0.349
943	0.3393
952	0.6801
961	0.7492
970	0.7284
979	0.5397
988	0.614
997	0.6471
1006	0.5404
1015	0.2964
1024	0.1291
1033	0.054
1042	0.046
1051	0.1614
1060	0.2197
1069	0.1534
1078	0.3738
1087	0.496
1096	0.485
1105	0.3858
1114	0.4168
1123	0.513
1132	0.3066
1141	0.2941
1150	0.4014
1159	0.5679
1168	0.3837
1177	0.5812
1186	0.5808
1195	0.5039
1204	0.3427
1213	0.136
1222	0.0264
1231	0.0084
1240	0.0096
1249	0.0118
1258	0.0375
1267	0.1373
1276	0.3606
1285	0.4633
1294	0.5652
1303	0.5772
1312	0.6524
1321	0.6915
1330	0.6658
1339	0.5496
1348	0.5289
1357	0.4839
1366	0.2268
1375	0.2253
1384	0.2194
1393	0.3704
1402	0.5991
1411	0.5833
1420	0.556
1429	0.4908
1438	0.5588
1447	0.6441
1456	0.6497
1465	0.7114
1474	0.7457
1483	0.7568
1492	0.7607
1501	0.7634
1510	0.7651
1519	0.7664
1528	0.7674
1537	0.7672
1546	0.7741
1555	0.7728
1564	0.7707
1573	0.7694
1582	0.7668
1591	0.7661
1600	0.7638
1609	0.7568
1618	0.7394
1627	0.721
1636	0.7124
1645	0.6872
1654	0.6596
1663	0.6574
1672	0.6379
1681	0.6019
1690	0.5533
1699	0.4737
1708	0.3689
1717	0.2558
1726	0.1491
1735	0.0217
1744	0.0076
1753	0.0283
1762	0.0475
1771	0.3226
1780	0.5309
1789	0.6215
1798	0.6685
1807	0.7046
1816	0.7349
1825	0.7518
1834	0.7743
1843	0.7951
1852	0.8107
1861	0.8218
1870	0.827
1879	0.8261
1888	0.8265
1897	0.8384
1906	0.8441
1915	0.8423
1924	0.8402
1933	0.8399
1942	0.844
1951	0.8423
1960	0.8375
1969	0.8428
1978	0.8464
1987	0.8524
1996	0.863
2005	0.8709
2014	0.8712
2023	0.8706
2032	0.8704
2041	0.8692
2050	0.868
2059	0.8657
2068	0.8634
2077	0.8615
2086	0.8598
2095	0.8548
2104	0.8492
2113	0.8435
2122	0.8377
2131	0.8363
2140	0.8368
2149	0.8362
2158	0.8334
2167	0.8317
2176	0.8334
2185	0.8355
2194	0.8374
2203	0.8395
2212	0.8418
2221	0.8403
2230	0.8343
2239	0.8288
2248	0.8224
2257	0.8183
2266	0.8156
2275	0.8125
2284	0.8087
2293	0.8064
2302	0.8046
2311	0.8036
2320	0.8005
2329	0.806
2338	0.8091
2347	0.8111
2356	0.8126
2365	0.8165
2374	0.8151
2383	0.8144
2392	0.8209
2401	0.8225
2410	0.824
2419	0.8242
2428	0.8225
2437	0.8246
2446	0.8239
2455	0.8241
2464	0.8263
2473	0.829
2482	0.8305
2491	0.8324
2500	0.8349
2509	0.8374
2518	0.8398
2527	0.842
2536	0.8442
2545	0.8453
2554	0.8461
2563	0.8465
2572	0.8465
2581	0.8459
2590	0.8447
2599	0.8433
2608	0.8421
2617	0.8409
2626	0.8395
2635	0.838
2644	0.8365
2653	0.8349
2662	0.8347
2671	0.8348
2680	0.8375
2689	0.834
2698	0.8311
2707	0.8288
2716	0.8271
2725	0.8258
2734	0.8256
2743	0.8261
2752	0.8268
2761	0.8273
2770	0.8274
2779	0.8264
2788	0.825
2797	0.8235
2806	0.8216
2815	0.819
2824	0.8164
2833	0.8135
2842	0.8061
2851	0.7994
2860	0.7941
2869	0.7975
2878	0.7949
2887	0.7897
2896	0.7832
2905	0.7743
2914	0.7617
2923	0.7165
2932	0.7048
2941	0.7148
2950	0.7231
2959	0.748
2968	0.6625
2977	0.7507
2986	0.7332
2995	0.7262
3004	0.7174
3013	0.7526
3022	0.7574
3031	0.7608
3040	0.7715
3049	0.7782
3058	0.7838
3067	0.7867
3076	0.7892
3085	0.7917
3094	0.7945
3103	0.7971
3112	0.7982
3121	0.7982
3130	0.7995
3139	0.8008
3148	0.8011
3157	0.8022
3166	0.8028
3175	0.8011
3184	0.8018
3193	0.8019
3202	0.8025
3211	0.8017
3220	0.8031
3229	0.8024
3238	0.801
3247	0.8004
3256	0.8
3265	0.7995
3274	0.7989
3283	0.7983
3292	0.7975
3301	0.7967
3310	0.7958
3319	0.7949
3328	0.7939
3337	0.793
3346	0.7922
3355	0.7915
3364	0.7908
3373	0.7899
3382	0.7888
3391	0.7874
3400	0.7856
3409	0.7832
3418	0.7797
3427	0.7765
3436	0.7737
3445	0.7699
3454	0.7584
3463	0.7515
3472	0.7595
3481	0.7585
3490	0.7621
3499	0.7672
3508	0.7755
3517	0.7797
3526	0.7818
3535	0.789
3544	0.7803
3553	0.779
3562	0.7784
3571	0.7771
3580	0.7786
3589	0.7815
3598	0.7824
3607	0.7821
3616	0.7815
3625	0.7796
3634	0.7775
3643	0.7755
3652	0.7728
3661	0.7701
3670	0.7811
3679	0.7834
3688	0.7835
3697	0.7825
3706	0.7858
3715	0.7871
3724	0.7891
3733	0.7915
3742	0.7906
3751	0.7882
3760	0.7868
3769	0.7865
3778	0.7871
3787	0.7881
3796	0.7858
