Infrared Spectrum: 9,10-DIMETHYL-PHENANTHRENE
Formula: C16 H14
CAS: 604-83-1
State: SOLID (1% IN KI)
Class: COBLENTZ
Instrument: Not specified, most likely a prism, grating, or hybrid spectrometer.
Sampling: TRANSMISSION
Resolution: 4
Origin: CENTRE D'ETUDES NUCLEAIRES DE GRENOBLE
MICROMETERS	TRANSMITTANCE
2.008	0.252
2.04796	0.257
2.08792	0.267
2.12787	0.278
2.16783	0.283
2.20779	0.293
2.24775	0.302
2.2877	0.312
2.32766	0.318
2.36762	0.33
2.40758	0.34
2.44753	0.35
2.48749	0.358
2.52745	0.365
2.56741	0.373
2.60736	0.38
2.64732	0.388
2.68728	0.398
2.72724	0.405
2.76719	0.414
2.80715	0.41
2.84711	0.39
2.88707	0.367
2.92702	0.352
2.96698	0.355
3.00694	0.367
3.0469	0.383
3.08685	0.398
3.12681	0.414
3.16677	0.429
3.20673	0.445
3.24669	0.449
3.28664	0.358
3.3266	0.363
3.36656	0.383
3.40652	0.417
3.44647	0.372
3.48643	0.372
3.52639	0.412
3.56635	0.457
3.6063	0.5
3.64626	0.522
3.68622	0.535
3.72618	0.545
3.76613	0.557
3.80609	0.565
3.84605	0.575
3.88601	0.585
3.92596	0.594
3.96592	0.602
4.00588	0.611
4.04584	0.619
4.08579	0.627
4.12575	0.637
4.16571	0.649
4.20567	0.657
4.24562	0.674
4.28558	0.689
4.32554	0.672
4.3655	0.659
4.40545	0.679
4.44541	0.697
4.48537	0.701
4.52533	0.706
4.56529	0.714
4.60524	0.721
4.6452	0.726
4.68516	0.734
4.72512	0.741
4.76507	0.747
4.80503	0.751
4.84499	0.754
4.88495	0.757
4.9249	0.764
4.96486	0.769
5.00482	0.772
5.04478	0.777
5.08473	0.782
5.12469	0.787
5.16465	0.761
5.20461	0.721
5.24456	0.746
5.28452	0.727
5.32448	0.789
5.36444	0.777
5.40439	0.799
5.44435	0.814
5.48431	0.803
5.52427	0.792
5.56422	0.803
5.60418	0.771
5.64414	0.796
5.6841	0.821
5.72406	0.816
5.76401	0.821
5.80397	0.828
5.84393	0.806
5.88389	0.811
5.92384	0.806
5.9638	0.799
6.00376	0.824
6.04372	0.821
6.08367	0.828
6.12363	0.811
6.16359	0.781
6.20355	0.754
6.2435	0.677
6.28346	0.547
6.32342	0.499
6.36338	0.679
6.40333	0.766
6.44329	0.814
6.48325	0.818
6.52321	0.824
6.56316	0.811
6.60312	0.821
6.64308	0.794
6.68304	0.781
6.72299	0.574
6.76295	0.467
6.80291	0.631
6.84287	0.669
6.88282	0.682
6.92278	0.647
6.96274	0.415
7.0027	0.353
7.04266	0.44
7.08261	0.562
7.12257	0.646
7.16253	0.701
7.20249	0.724
7.24244	0.689
7.2824	0.759
7.32236	0.799
7.36232	0.828
7.40227	0.826
7.44223	0.824
7.48219	0.843
7.52215	0.859
7.5621	0.824
7.60206	0.839
7.64202	0.617
7.68198	0.794
7.72193	0.866
7.76189	0.868
7.80185	0.843
7.84181	0.824
7.88176	0.881
7.92172	0.888
7.96168	0.879
8.00164	0.844
8.04159	0.636
8.08155	0.601
8.12151	0.816
8.16147	0.839
8.20143	0.823
8.24138	0.864
8.28134	0.873
8.3213	0.899
8.36126	0.906
8.40121	0.899
8.44117	0.859
8.48113	0.831
8.52109	0.899
8.56104	0.883
8.601	0.826
8.64096	0.721
8.68092	0.893
8.72087	0.908
8.76083	0.926
8.80079	0.931
8.84075	0.931
8.8807	0.929
8.92066	0.929
8.96062	0.933
9.00058	0.931
9.04053	0.931
9.08049	0.931
9.12045	0.931
9.16041	0.929
9.20036	0.929
9.24032	0.931
9.28028	0.936
9.32024	0.924
9.3602	0.926
9.40015	0.934
9.44011	0.938
9.48007	0.946
9.52003	0.949
9.55998	0.941
9.59994	0.861
9.6399	0.622
9.67986	0.716
9.71981	0.706
9.75977	0.754
9.79973	0.834
9.83969	0.851
9.87964	0.851
9.9196	0.876
9.95956	0.836
9.99952	0.864
10.0395	0.899
10.0794	0.911
10.1194	0.906
10.1593	0.904
10.1993	0.906
10.2393	0.936
10.2792	0.946
10.3192	0.939
10.3591	0.951
10.3991	0.958
10.439	0.964
10.479	0.964
10.519	0.889
10.5589	0.841
10.5989	0.828
10.6388	0.946
10.6788	0.966
10.7188	0.978
10.7587	0.983
10.7987	0.986
10.8386	0.989
10.8786	0.991
10.9185	0.991
10.9585	0.988
10.9985	0.986
11.0384	0.988
11.0784	0.993
11.1183	0.988
11.1583	0.981
11.1982	0.979
11.2382	0.976
11.2782	0.978
11.3181	0.981
11.3581	0.978
11.398	0.976
11.438	0.979
11.4779	0.978
11.5179	0.976
11.5579	0.944
11.5978	0.889
11.6378	0.939
11.6777	0.944
11.7177	0.954
11.7576	0.941
11.7976	0.956
11.8376	0.974
11.8775	0.978
11.9175	0.978
11.9574	0.974
11.9974	0.974
12.0374	0.974
12.0773	0.971
12.1173	0.969
12.1572	0.959
12.1972	0.956
12.2371	0.956
12.2771	0.953
12.3171	0.949
12.357	0.943
12.397	0.936
12.4369	0.931
12.4769	0.913
12.5168	0.853
12.5568	0.848
12.5968	0.891
12.6367	0.909
12.6767	0.908
12.7166	0.883
12.7566	0.834
12.7965	0.844
12.8365	0.869
12.8765	0.871
12.9164	0.859
12.9564	0.823
12.9963	0.732
13.0363	0.672
13.0763	0.435
13.1162	0.313
13.1562	0.455
13.1961	0.342
13.2361	0.131
13.276	0.043
13.316	0.033
13.356	0.035
13.3959	0.156
13.4359	0.398
13.4758	0.572
13.5158	0.704
13.5557	0.787
13.5957	0.816
13.6357	0.839
13.6756	0.851
13.7156	0.839
13.7555	0.782
13.7955	0.631
13.8354	0.357
13.8754	0.096
13.9154	0.051
13.9553	0.191
13.9953	0.392
14.0352	0.557
14.0752	0.637
14.1151	0.706
14.1551	0.747
14.1951	0.774
14.235	0.789
14.275	0.799
14.3149	0.806
14.3549	0.813
14.3949	0.818
14.4348	0.821
14.4748	0.824
14.5147	0.828
14.5547	0.829
14.5946	0.831
14.6346	0.833
14.6746	0.836
14.7145	0.838
14.7545	0.831
14.7944	0.821
14.8344	0.799
14.8743	0.786
14.9143	0.799
14.9543	0.823
14.9942	0.829
15.0342	0.838
15.0741	0.844
15.1141	0.851
15.154	0.851
15.194	0.851
15.234	0.851
15.2739	0.853
15.3139	0.854
15.3538	0.854
15.3938	0.854
15.4337	0.853
15.4737	0.853
15.5137	0.854
15.5536	0.854
15.5936	0.853
15.6335	0.853
15.6735	0.853
15.7135	0.853
15.7534	0.849
15.7934	0.848
15.8333	0.846
15.8733	0.844
