Infrared Spectrum: 1,1'-BINAPHTHYL
Formula: C20 H14
CAS: 604-53-5
State: SOLID (KBr PELLET)
Melting point: 160.5 C
Boiling point: ABOUT 360 C
Class: COBLENTZ
Instrument: Not specified, most likely a prism, grating, or hybrid spectrometer.
Sampling: TRANSMISSION
Resolution: 4
Origin: UNION CARBIDE CORPORATION (CARBON PRODUCTS DIVISION)
MICROMETERS	TRANSMITTANCE
2.027	0.758
2.06027	0.781
2.09353	0.802
2.1268	0.818
2.16006	0.821
2.19333	0.829
2.22659	0.844
2.25986	0.856
2.29312	0.862
2.32639	0.868
2.35965	0.868
2.39292	0.868
2.42618	0.87
2.45945	0.869
2.49271	0.87
2.52598	0.872
2.55924	0.87
2.59251	0.87
2.62577	0.872
2.65904	0.874
2.6923	0.874
2.72557	0.874
2.75883	0.873
2.7921	0.862
2.82537	0.854
2.85863	0.83
2.8919	0.828
2.92516	0.82
2.95843	0.82
2.99169	0.824
3.02496	0.83
3.05822	0.842
3.09149	0.856
3.12475	0.858
3.15802	0.858
3.19128	0.858
3.22455	0.858
3.25781	0.75
3.29108	0.701
3.32434	0.777
3.35761	0.821
3.39087	0.84
3.42414	0.849
3.4574	0.849
3.49067	0.849
3.52393	0.849
3.5572	0.857
3.59046	0.857
3.62373	0.857
3.657	0.857
3.69026	0.857
3.72353	0.857
3.75679	0.858
3.79006	0.858
3.82332	0.858
3.85659	0.861
3.88985	0.862
3.92312	0.864
3.95638	0.864
3.98965	0.865
4.02291	0.865
4.05618	0.865
4.08944	0.865
4.12271	0.865
4.15597	0.865
4.18924	0.865
4.2225	0.865
4.25577	0.865
4.28903	0.865
4.3223	0.864
4.35556	0.866
4.38883	0.868
4.4221	0.868
4.45536	0.868
4.48863	0.869
4.52189	0.869
4.55516	0.872
4.58842	0.872
4.62169	0.87
4.65495	0.868
4.68822	0.868
4.72148	0.868
4.75475	0.868
4.78801	0.868
4.82128	0.868
4.85454	0.868
4.88781	0.869
4.92107	0.869
4.95434	0.869
4.9876	0.869
5.02087	0.869
5.05413	0.87
5.0874	0.87
5.12066	0.86
5.15393	0.854
5.18719	0.844
5.22046	0.842
5.25373	0.85
5.28699	0.853
5.32026	0.856
5.35352	0.857
5.38679	0.862
5.42005	0.864
5.45332	0.864
5.48658	0.862
5.51985	0.857
5.55311	0.86
5.58638	0.868
5.61964	0.868
5.65291	0.87
5.68617	0.87
5.71944	0.873
5.7527	0.873
5.78597	0.873
5.81923	0.872
5.8525	0.87
5.88576	0.87
5.91903	0.874
5.95229	0.877
5.98556	0.878
6.01883	0.873
6.05209	0.872
6.08536	0.87
6.11862	0.872
6.15189	0.874
6.18515	0.876
6.21842	0.878
6.25168	0.752
6.28495	0.785
6.31821	0.826
6.35148	0.878
6.38474	0.878
6.41801	0.882
6.45127	0.888
6.48454	0.882
6.5178	0.884
6.55107	0.884
6.58433	0.882
6.6176	0.633
6.65086	0.729
6.68413	0.84
6.71739	0.868
6.75066	0.874
6.78392	0.876
6.81719	0.88
6.85046	0.878
6.88372	0.882
6.91699	0.882
6.95025	0.882
6.98352	0.882
7.01678	0.884
7.05005	0.882
7.08331	0.884
7.11658	0.881
7.14984	0.881
7.18311	0.818
7.21637	0.621
7.24964	0.664
7.2829	0.801
7.31617	0.86
7.34943	0.884
7.3827	0.889
7.41596	0.89
7.44923	0.89
7.48249	0.901
7.51576	0.902
7.54902	0.893
7.58229	0.893
7.61556	0.894
7.64882	0.897
7.68209	0.9
7.71535	0.9
7.74862	0.9
7.78188	0.901
7.81515	0.906
7.84841	0.906
7.88168	0.906
7.91494	0.904
7.94821	0.833
7.98147	0.829
8.01474	0.834
8.048	0.849
8.08127	0.869
8.11453	0.889
8.1478	0.893
8.18106	0.892
8.21433	0.878
8.24759	0.856
8.28086	0.856
8.31412	0.853
8.34739	0.837
8.38065	0.853
8.41392	0.873
8.44719	0.881
8.48045	0.881
8.51372	0.881
8.54698	0.881
8.58025	0.864
8.61351	0.848
8.64678	0.854
8.68004	0.868
8.71331	0.882
8.74657	0.886
8.77984	0.885
8.8131	0.885
8.84637	0.889
8.87963	0.894
8.9129	0.9
8.94616	0.901
8.97943	0.902
9.01269	0.905
9.04596	0.904
9.07922	0.904
9.11249	0.905
9.14575	0.905
9.17902	0.905
9.21229	0.905
9.24555	0.905
9.27882	0.904
9.31208	0.904
9.34535	0.902
9.37861	0.901
9.41188	0.902
9.44514	0.89
9.47841	0.89
9.51167	0.892
9.54494	0.892
9.5782	0.894
9.61147	0.896
9.64473	0.898
9.678	0.898
9.71126	0.898
9.74453	0.892
9.77779	0.886
9.81106	0.788
9.84432	0.748
9.87759	0.754
9.91085	0.828
9.94412	0.861
9.97738	0.878
10.0107	0.888
10.0439	0.894
10.0772	0.898
10.1104	0.9
10.1437	0.901
10.177	0.901
10.2102	0.9
10.2435	0.9
10.2768	0.888
10.31	0.78
10.3433	0.8
10.3766	0.862
10.4098	0.877
10.4431	0.878
10.4764	0.836
10.5096	0.837
10.5429	0.854
10.5762	0.866
10.6094	0.857
10.6427	0.86
10.676	0.88
10.7092	0.889
10.7425	0.898
10.7757	0.909
10.809	0.909
10.8423	0.91
10.8755	0.91
10.9088	0.91
10.9421	0.91
10.9753	0.912
11.0086	0.912
11.0419	0.912
11.0751	0.91
11.1084	0.91
11.1417	0.912
11.1749	0.914
11.2082	0.916
11.2415	0.916
11.2747	0.917
11.308	0.917
11.3413	0.917
11.3745	0.917
11.4078	0.917
11.4411	0.917
11.4743	0.917
11.5076	0.894
11.5408	0.888
11.5741	0.888
11.6074	0.888
11.6406	0.889
11.6739	0.89
11.7072	0.89
11.7404	0.892
11.7737	0.897
11.807	0.9
11.8402	0.901
11.8735	0.902
11.9068	0.904
11.94	0.905
11.9733	0.905
12.0066	0.905
12.0398	0.905
12.0731	0.905
12.1064	0.906
12.1396	0.906
12.1729	0.905
12.2062	0.905
12.2394	0.901
12.2727	0.896
12.3059	0.849
12.3392	0.778
12.3725	0.633
12.4057	0.338
12.439	0.174
12.4723	0.19
12.5055	0.517
12.5388	0.641
12.5721	0.739
12.6053	0.747
12.6386	0.747
12.6719	0.724
12.7051	0.564
12.7384	0.237
12.7717	0.07
12.8049	0.054
12.8382	0.054
12.8715	0.054
12.9047	0.243
12.938	0.363
12.9713	0.202
13.0045	0.121
13.0378	0.288
13.071	0.504
13.1043	0.616
13.1376	0.679
13.1708	0.715
13.2041	0.741
13.2374	0.753
13.2706	0.761
13.3039	0.772
13.3372	0.782
13.3704	0.792
13.4037	0.8
13.437	0.793
13.4702	0.773
13.5035	0.773
13.5368	0.764
13.57	0.765
13.6033	0.785
13.6366	0.826
13.6698	0.832
13.7031	0.84
13.7364	0.852
13.7696	0.866
13.8029	0.869
13.8361	0.872
13.8694	0.876
13.9027	0.876
13.9359	0.877
13.9692	0.876
14.0025	0.876
14.0357	0.878
14.069	0.878
14.1023	0.878
14.1355	0.878
14.1688	0.877
14.2021	0.876
14.2353	0.876
14.2686	0.877
14.3019	0.876
14.3351	0.874
14.3684	0.872
14.4017	0.87
14.4349	0.87
14.4682	0.868
14.5015	0.858
14.5347	0.853
14.568	0.846
14.6012	0.833
14.6345	0.824
14.6678	0.744
14.701	0.691
14.7343	0.696
14.7676	0.735
14.8008	0.756
14.8341	0.761
14.8674	0.768
14.9006	0.77
14.9339	0.772
14.9672	0.77
15.0004	0.716
15.0337	0.711
15.067	0.732
15.1002	0.749
15.1335	0.749
15.1668	0.75
15.2	0.745
15.2333	0.741
