Infrared Spectrum: 1-PHENYLNAPHTHALENE
Formula: C16 H12
CAS: 605-02-7
State: LIQUID
Class: COBLENTZ
Instrument: Not specified, most likely a prism, grating, or hybrid spectrometer.
Sampling: TRANSMISSION
Path length: 0.005 CM
Resolution: 4
Origin: ANDERSON PHYSICAL LABORATORY
1/CM	TRANSMITTANCE
671.963	0.581
680.374	0.596
688.785	0.5411
697.197	0.2072
705.608	0.047
714.019	0.1519
722.43	0.5469
730.842	0.52
739.253	0.26
747.664	0.343
756.075	0.162
764.486	0.025
772.898	0.026
781.309	0.031
789.72	0.062
798.131	0.1041
806.543	0.034
814.954	0.2029
823.365	0.509
831.776	0.523
840.187	0.659
848.599	0.588
857.01	0.6359
865.421	0.5811
873.832	0.4928
882.244	0.713
890.655	0.762
899.066	0.742
907.477	0.605
915.888	0.544
924.3	0.482
932.711	0.6718
941.122	0.753
949.533	0.729
957.945	0.5321
966.356	0.3491
974.767	0.3789
983.178	0.557
991.589	0.638
1000	0.671
1008.41	0.491
1016.82	0.599
1025.23	0.3252
1033.65	0.387
1042.06	0.4897
1050.47	0.714
1058.88	0.683
1067.29	0.571
1075.7	0.547
1084.11	0.351
1092.52	0.732
1100.94	0.751
1109.35	0.742
1117.76	0.6601
1126.17	0.5678
1134.58	0.759
1142.99	0.711
1151.4	0.585
1159.81	0.536
1168.23	0.399
1176.64	0.566
1185.05	0.4811
1193.46	0.3999
1201.87	0.65
1210.28	0.5601
1218.69	0.6139
1227.1	0.681
1235.51	0.75
1243.93	0.718
1252.34	0.568
1260.75	0.505
1269.16	0.698
1277.57	0.701
1285.98	0.698
1294.39	0.698
1302.8	0.723
1311.22	0.662
1319.63	0.605
1328.04	0.675
1336.45	0.563
1344.86	0.484
1353.27	0.6978
1361.68	0.762
1370.09	0.735
1378.51	0.6181
1386.92	0.584
1395.33	0.4021
1403.74	0.121
1412.15	0.409
1420.56	0.569
1428.97	0.579
1437.38	0.5081
1445.8	0.42
1454.21	0.2271
1462.62	0.3428
1471.03	0.547
1479.44	0.624
1487.85	0.527
1496.26	0.428
1504.67	0.139
1513.09	0.366
1521.5	0.4019
1529.91	0.6529
1538.32	0.696
1546.73	0.668
1555.14	0.666
1563.55	0.653
1571.96	0.605
1580.38	0.43
1588.79	0.37
1597.2	0.245
1605.61	0.3238
1614.02	0.4548
1622.43	0.668
1630.84	0.698
1639.25	0.739
1647.66	0.738
1656.08	0.744
1664.49	0.729
1672.9	0.698
1681.31	0.678
1689.72	0.669
1698.13	0.672
1706.54	0.671
1714.95	0.686
1723.37	0.738
1731.78	0.711
1740.19	0.715
1748.6	0.718
1757.01	0.678
1765.42	0.657
1773.83	0.663
1782.24	0.707
1790.66	0.756
1799.07	0.738
1807.48	0.605
1815.89	0.535
1824.3	0.609
1832.71	0.698
1841.12	0.711
1849.53	0.754
1857.95	0.762
1866.36	0.733
1874.77	0.672
1883.18	0.653
1891.59	0.665
1900	0.698
1908.41	0.704
1916.82	0.708
1925.24	0.656
1933.65	0.6
1942.06	0.576
1950.47	0.569
1958.88	0.553
1967.29	0.591
1975.7	0.671
1984.11	0.75
1992.52	0.825
2000.94	0.8825
2009.35	0.894
2017.76	0.8975
2026.17	0.899
2034.58	0.9025
2042.99	0.904
2051.4	0.904
2059.81	0.905
2068.23	0.905
2076.64	0.905
2085.05	0.905
2093.46	0.905
2101.87	0.905
2110.28	0.906
2118.69	0.907
2127.1	0.908
2135.52	0.908
2143.93	0.908
2152.34	0.908
2160.75	0.908
2169.16	0.91
2177.57	0.911
2185.98	0.911
2194.39	0.911
2202.81	0.9108
2211.22	0.909
2219.63	0.9048
2228.04	0.898
2236.45	0.8905
2244.86	0.8835
2253.27	0.881
2261.68	0.881
2270.1	0.881
2278.51	0.881
2286.92	0.883
2295.33	0.884
2303.74	0.886
2312.15	0.888
2320.56	0.889
2328.97	0.892
2337.39	0.895
2345.8	0.896
2354.21	0.8987
2362.62	0.899
2371.03	0.899
2379.44	0.8985
2387.85	0.8965
2396.26	0.892
2404.67	0.886
2413.09	0.8865
2421.5	0.8942
2429.91	0.898
2438.32	0.899
2446.73	0.899
2455.14	0.899
2463.55	0.899
2471.96	0.899
2480.38	0.899
2488.79	0.899
2497.2	0.899
2505.61	0.8995
2514.02	0.9
2522.43	0.899
2530.84	0.899
2539.25	0.899
2547.67	0.8985
2556.08	0.898
2564.49	0.898
2572.9	0.898
2581.31	0.898
2589.72	0.8987
2598.13	0.901
2606.54	0.902
2614.96	0.903
2623.37	0.9047
2631.78	0.905
2640.19	0.907
2648.6	0.908
2657.01	0.9095
2665.42	0.91
2673.83	0.911
2682.25	0.911
2690.66	0.911
2699.07	0.911
2707.48	0.913
2715.89	0.912
2724.3	0.911
2732.71	0.908
2741.12	0.907
2749.53	0.906
2757.95	0.9018
2766.36	0.898
2774.77	0.8958
2783.18	0.8895
2791.59	0.8838
2800	0.877
2808.41	0.8636
2816.82	0.8481
2825.24	0.822
2833.65	0.8011
2842.06	0.7778
2850.47	0.7655
2858.88	0.763
2867.29	0.763
2875.7	0.763
2884.11	0.7605
2892.53	0.7523
2900.94	0.735
2909.35	0.6939
2917.76	0.6577
2926.17	0.6292
2934.58	0.618
2942.99	0.617
2951.4	0.617
2959.82	0.6155
2968.23	0.6081
2976.64	0.588
2985.05	0.5437
2993.46	0.4733
3001.87	0.3726
3010.28	0.2903
3018.69	0.2256
3027.11	0.1724
3035.52	0.1253
3043.93	0.1008
3052.34	0.1005
3060.75	0.1032
3069.16	0.1189
3077.57	0.1453
3085.98	0.2025
3094.4	0.3169
3102.81	0.4119
3111.22	0.4814
3119.63	0.6347
3128.04	0.7749
3136.45	0.8139
3144.86	0.8317
3153.27	0.8415
3161.68	0.8507
3170.1	0.865
3178.51	0.8755
3186.92	0.879
3195.33	0.8825
3203.74	0.884
3212.15	0.8845
3220.56	0.8865
3228.97	0.889
3237.39	0.89
3245.8	0.892
3254.21	0.892
3262.62	0.8945
3271.03	0.896
3279.44	0.896
3287.85	0.896
3296.26	0.896
3304.68	0.896
3313.09	0.895
3321.5	0.894
3329.91	0.8923
3338.32	0.892
3346.73	0.892
3355.14	0.8925
3363.55	0.8945
3371.97	0.898
3380.38	0.8975
3388.79	0.894
3397.2	0.8923
3405.61	0.89
3414.02	0.89
3422.43	0.89
3430.84	0.8893
3439.26	0.887
3447.67	0.8855
3456.08	0.884
3464.49	0.884
3472.9	0.884
3481.31	0.8838
3489.72	0.8805
3498.13	0.8785
3506.54	0.874
3514.96	0.8675
3523.37	0.866
3531.78	0.866
3540.19	0.869
3548.6	0.8727
3557.01	0.8775
3565.42	0.88
3573.83	0.881
3582.25	0.881
3590.66	0.881
3599.07	0.881
3607.48	0.88
3615.89	0.88
3624.3	0.878
3632.71	0.877
3641.12	0.877
3649.54	0.877
3657.95	0.8775
3666.36	0.88
3674.77	0.88
3683.18	0.883
3691.59	0.8835
3700	0.884
3708.41	0.884
3716.83	0.884
3725.24	0.884
3733.65	0.8833
3742.06	0.883
3750.47	0.8825
3758.88	0.8805
3767.29	0.878
3775.7	0.874
3784.12	0.8705
3792.53	0.868
3800.94	0.866
3809.35	0.863
3817.76	0.863
3826.17	0.865
3834.58	0.865
3842.99	0.865
3851.41	0.865
3859.82	0.866
3868.23	0.8687
3876.64	0.871
3885.05	0.874
3893.46	0.8745
3901.87	0.8743
3910.28	0.874
3918.69	0.874
3927.11	0.873
3935.52	0.8695
3943.93	0.866
3952.34	0.8598
3960.75	0.8565
3969.16	0.8553
3977.57	0.8521
