Infrared Spectrum: Anthracene, 9,10-dichloro-
Formula: C14 H8 Cl2
CAS: 605-48-1
State: SOLUTION (1% CCl4 FOR 3800-1330, 1% CS2 FOR 1330-400 CM^-^1))
Class: COBLENTZ III
Instrument: BECKMAN IR-9 (GRATING)
Instrument parameters: ORDER CHANGES: 670, 1200, 2000 CM^-^1
Path length: 0.10 CM, 0.10 CM
Resolution: 2
Origin: DOW CHEMICAL COMPANY
1/CM	TRANSMITTANCE
405	0.3903
414	0.2964
423	0.1787
432	0.1902
441	0.3766
450	0.4315
459	0.5205
468	0.5964
477	0.6653
486	0.627
495	0.6953
504	0.7857
513	0.8097
522	0.8277
531	0.8394
540	0.8429
549	0.8593
558	0.8675
567	0.867
576	0.8594
585	0.8071
594	0.2017
603	0.5345
612	0.7694
621	0.7701
630	0.7248
639	0.6334
648	0.5177
657	0.4381
666	0.563
675	0.659
684	0.6888
693	0.7027
702	0.6428
711	0.7198
720	0.7341
729	0.7334
738	0.7246
747	0.5778
756	0.039
765	0.6757
774	0.7482
783	0.741
792	0.7344
801	0.742
810	0.7394
819	0.7675
828	0.7422
837	0.5122
846	0.2852
855	0.1297
864	0.1374
873	0.1925
882	0.3235
891	0.5242
900	0.7052
909	0.7718
918	0.8109
927	0.8228
936	0.6925
945	0.2053
954	0.3407
963	0.7609
972	0.7825
981	0.8332
990	0.8472
999	0.8548
1008	0.8474
1017	0.813
1026	0.3794
1035	0.7935
1044	0.817
1053	0.8262
1062	0.8388
1071	0.842
1080	0.8438
1089	0.844
1098	0.8438
1107	0.8321
1116	0.8432
1125	0.8444
1134	0.8393
1143	0.8293
1152	0.8059
1161	0.7141
1170	0.7698
1179	0.7956
1188	0.8172
1197	0.8078
1206	0.8257
1215	0.8161
1224	0.8341
1233	0.8451
1242	0.8348
1251	0.8153
1260	0.532
1269	0.1396
1278	0.7295
1287	0.808
1296	0.7985
1305	0.5181
1314	0.0118
1323	0.6539
1332	0.7391
1341	0.7323
1350	0.7756
1359	0.7613
1368	0.6636
1377	0.7698
1386	0.7682
1395	0.7445
1404	0.7282
1413	0.7447
1422	0.742
1431	0.6974
1440	0.1916
1449	0.6998
1458	0.7248
1467	0.6892
1476	0.6291
1485	0.4787
1494	0.3476
1503	0.1856
1512	0.0948
1521	0.0464
1530	0.0208
1539	0.01
1548	0.0032
1557	0.0003
1566	0.0007
1575	0.0033
1584	0.0113
1593	0.0452
1602	0.1656
1611	0.4023
1620	0.5051
1629	0.5752
1638	0.6808
1647	0.7415
1656	0.7592
1665	0.7885
1674	0.7937
1683	0.7954
1692	0.7913
1701	0.7588
1710	0.7262
1719	0.7863
1728	0.8075
1737	0.83
1746	0.812
1755	0.8361
1764	0.8421
1773	0.8425
1782	0.8364
1791	0.8276
1800	0.7616
1809	0.7571
1818	0.7535
1827	0.7205
1836	0.7814
1845	0.7845
1854	0.7825
1863	0.7821
1872	0.7992
1881	0.8155
1890	0.8233
1899	0.8243
1908	0.8084
1917	0.7894
1926	0.815
1935	0.7944
1944	0.8163
1953	0.74
1962	0.8076
1971	0.8107
1980	0.8101
1989	0.8074
1998	0.7967
2007	0.7938
2016	0.7947
2025	0.7963
2034	0.8057
2043	0.8213
2052	0.827
2061	0.8308
2070	0.8395
2079	0.8517
2088	0.8604
2097	0.8674
2106	0.8725
2115	0.8754
2124	0.878
2133	0.8787
2142	0.8794
2151	0.8787
2160	0.8777
2169	0.8765
2178	0.8754
2187	0.8739
2196	0.872
2205	0.8715
2214	0.8712
2223	0.8678
2232	0.8599
2241	0.8456
2250	0.8292
2259	0.7979
2268	0.7659
2277	0.7249
2286	0.6908
2295	0.6835
2304	0.6937
2313	0.7051
2322	0.7161
2331	0.7265
2340	0.7385
2349	0.7585
2358	0.784
2367	0.7957
2376	0.8172
2385	0.8374
2394	0.8515
2403	0.8611
2412	0.867
2421	0.8705
2430	0.8714
2439	0.8724
2448	0.8734
2457	0.8743
2466	0.8749
2475	0.8755
2484	0.8761
2493	0.8766
2502	0.8772
2511	0.8768
2520	0.8765
2529	0.8761
2538	0.8756
2547	0.8749
2556	0.8742
2565	0.8739
2574	0.8745
2583	0.8749
2592	0.8755
2601	0.8761
2610	0.8768
2619	0.8774
2628	0.878
2637	0.8791
2646	0.8802
2655	0.8814
2664	0.8828
2673	0.884
2682	0.8853
2691	0.8843
2700	0.881
2709	0.8769
2718	0.8762
2727	0.8774
2736	0.8792
2745	0.8795
2754	0.8796
2763	0.8803
2772	0.8813
2781	0.8822
2790	0.8828
2799	0.8829
2808	0.8829
2817	0.883
2826	0.8836
2835	0.8842
2844	0.8849
2853	0.8849
2862	0.885
2871	0.885
2880	0.8854
2889	0.8857
2898	0.8849
2907	0.884
2916	0.882
2925	0.8796
2934	0.8777
2943	0.877
2952	0.8771
2961	0.8775
2970	0.8772
2979	0.8743
2988	0.8645
2997	0.8444
3006	0.8438
3015	0.8487
3024	0.8535
3033	0.8397
3042	0.7719
3051	0.6839
3060	0.7118
3069	0.7719
3078	0.7768
3087	0.6139
3096	0.5979
3105	0.8112
3114	0.8536
3123	0.8617
3132	0.8661
3141	0.87
3150	0.8728
3159	0.8752
3168	0.8768
3177	0.8781
3186	0.8782
3195	0.8778
3204	0.8772
3213	0.8786
3222	0.8803
3231	0.8817
3240	0.8831
3249	0.8843
3258	0.8847
3267	0.885
3276	0.8854
3285	0.8856
3294	0.8858
3303	0.886
3312	0.8862
3321	0.8863
3330	0.8865
3339	0.8868
3348	0.8872
3357	0.8875
3366	0.8879
3375	0.8882
3384	0.8884
3393	0.8886
3402	0.8889
3411	0.8891
3420	0.8893
3429	0.8896
3438	0.89
3447	0.8904
3456	0.8908
3465	0.8911
3474	0.8915
3483	0.8919
3492	0.8926
3501	0.8933
3510	0.894
3519	0.8947
3528	0.8954
3537	0.896
3546	0.8965
3555	0.8968
3564	0.8972
3573	0.8976
3582	0.8981
3591	0.8988
3600	0.8996
3609	0.9003
3618	0.9012
3627	0.9029
3636	0.9047
3645	0.9064
3654	0.9081
3663	0.9092
3672	0.9099
3681	0.91
3690	0.9088
3699	0.907
3708	0.9053
3717	0.9052
3726	0.9051
3735	0.9059
3744	0.9067
3753	0.9075
3762	0.9084
3771	0.9097
3780	0.9111
3789	0.9135
3798	0.916
