Infrared Spectrum: BIS(2-ETHOXYETHYL)PHTHALATE
Formula: C16 H22 O6
CAS: 605-54-9
State: LIQUID
Melting point: 29-31 C
Class: COBLENTZ
Instrument: Not specified, most likely a prism, grating, or hybrid spectrometer.
Sampling: TRANSMISSION
Path length: 0.003 CM
Resolution: 4
Origin: WYANDOTTE CHEMICALS CORP., WYANDOTTE, MICHIGAN, USA
MICROMETERS	TRANSMITTANCE
2.027	0.996
2.06788	0.986
2.10875	0.989
2.14963	0.981
2.1905	0.946
2.23138	0.931
2.27226	0.948
2.31313	0.953
2.35401	0.939
2.39488	0.927
2.43576	0.931
2.47664	0.955
2.51751	0.965
2.55839	0.972
2.59926	0.967
2.64014	0.979
2.68102	0.962
2.72189	0.936
2.76277	0.915
2.80364	0.912
2.84452	0.909
2.8854	0.893
2.92627	0.845
2.96715	0.885
3.00802	0.898
3.0489	0.898
3.08978	0.898
3.13065	0.895
3.17153	0.891
3.2124	0.847
3.25328	0.711
3.29416	0.691
3.33503	0.09
3.37591	0.142
3.41678	0.181
3.45766	0.085
3.49854	0.142
3.53941	0.416
3.58029	0.586
3.62116	0.715
3.66204	0.737
3.70292	0.813
3.74379	0.9
3.78467	0.909
3.82555	0.898
3.86642	0.893
3.9073	0.902
3.94817	0.917
3.98905	0.921
4.02993	0.933
4.0708	0.929
4.11168	0.933
4.15255	0.926
4.19343	0.914
4.23431	0.914
4.27518	0.931
4.31606	0.936
4.35693	0.945
4.39781	0.945
4.43869	0.9
4.47956	0.919
4.52044	0.919
4.56131	0.927
4.60219	0.934
4.64307	0.931
4.68394	0.934
4.72482	0.914
4.76569	0.909
4.80657	0.91
4.84745	0.924
4.88832	0.929
4.9292	0.936
4.97007	0.936
5.01095	0.921
5.05183	0.876
5.0927	0.843
5.13358	0.83
5.17445	0.826
5.21533	0.847
5.25621	0.871
5.29708	0.89
5.33796	0.888
5.37883	0.885
5.41971	0.859
5.46059	0.854
5.50146	0.85
5.54234	0.821
5.58321	0.77
5.62409	0.667
5.66497	0.492
5.70584	0.094
5.74672	0.03
5.78759	0.029
5.82847	0.078
5.86935	0.283
5.91022	0.413
5.9511	0.56
5.99197	0.66
6.03285	0.699
6.07373	0.708
6.1146	0.727
6.15548	0.728
6.19635	0.36
6.23723	0.61
6.27811	0.377
6.31898	0.713
6.35986	0.771
6.40073	0.79
6.44161	0.773
6.48249	0.758
6.52336	0.753
6.56424	0.754
6.60511	0.704
6.64599	0.535
6.68687	0.272
6.72774	0.435
6.76862	0.421
6.80949	0.224
6.85037	0.126
6.89125	0.133
6.93212	0.283
6.973	0.456
7.01387	0.5
7.05475	0.519
7.09563	0.456
7.1365	0.324
7.17738	0.12
7.21825	0.12
7.25913	0.113
7.30001	0.212
7.34088	0.236
7.38176	0.259
7.42264	0.382
7.46351	0.31
7.50439	0.315
7.54526	0.312
7.58614	0.144
7.62702	0.037
7.66789	0.027
7.70877	0.025
7.74964	0.027
7.79052	0.029
7.8314	0.027
7.87227	0.025
7.91315	0.025
7.95402	0.027
7.9949	0.034
8.03578	0.054
8.07665	0.126
8.11753	0.267
8.1584	0.392
8.19928	0.451
8.24016	0.504
8.28103	0.524
8.32191	0.526
8.36278	0.523
8.40366	0.495
8.44454	0.391
8.48541	0.259
8.52629	0.234
8.56716	0.157
8.60804	0.104
8.64892	0.049
8.68979	0.027
8.73067	0.027
8.77154	0.029
8.81242	0.029
8.8533	0.027
8.89417	0.027
8.93505	0.027
8.97592	0.027
9.0168	0.029
9.05768	0.036
9.09855	0.053
9.13943	0.058
9.1803	0.056
9.22118	0.03
9.26206	0.027
9.30293	0.029
9.34381	0.029
9.38468	0.058
9.42556	0.12
9.46644	0.111
9.50731	0.096
9.54819	0.066
9.58906	0.051
9.62994	0.104
9.67082	0.152
9.71169	0.183
9.75257	0.233
9.79344	0.281
9.83432	0.361
9.8752	0.442
9.91607	0.512
9.95695	0.579
9.99782	0.626
10.0387	0.644
10.0796	0.651
10.1205	0.638
10.1613	0.62
10.2022	0.595
10.2431	0.578
10.284	0.571
10.3248	0.576
10.3657	0.578
10.4066	0.574
10.4475	0.588
10.4883	0.591
10.5292	0.545
10.5701	0.457
10.611	0.382
10.6518	0.37
10.6927	0.411
10.7336	0.461
10.7745	0.493
10.8153	0.495
10.8562	0.514
10.8971	0.583
10.938	0.65
10.9788	0.708
11.0197	0.744
11.0606	0.754
11.1015	0.756
11.1424	0.706
11.1832	0.679
11.2241	0.653
11.265	0.638
11.3059	0.608
11.3467	0.562
11.3876	0.509
11.4285	0.456
11.4694	0.42
11.5102	0.408
11.5511	0.397
11.592	0.365
11.6329	0.339
11.6737	0.341
11.7146	0.361
11.7555	0.384
11.7964	0.416
11.8372	0.463
11.8781	0.518
11.919	0.552
11.9599	0.576
12.0007	0.576
12.0416	0.579
12.0825	0.588
12.1234	0.603
12.1643	0.617
12.2051	0.627
12.246	0.612
12.2869	0.612
12.3278	0.615
12.3686	0.617
12.4095	0.619
12.4504	0.581
12.4913	0.519
12.5321	0.454
12.573	0.409
12.6139	0.387
12.6548	0.387
12.6956	0.394
12.7365	0.413
12.7774	0.427
12.8183	0.425
12.8591	0.427
12.9	0.421
12.9409	0.421
12.9818	0.421
13.0227	0.425
13.0635	0.425
13.1044	0.42
13.1453	0.384
13.1862	0.337
13.227	0.252
13.2679	0.176
13.3088	0.118
13.3497	0.087
13.3905	0.065
13.4314	0.063
13.4723	0.073
13.5132	0.104
13.554	0.156
13.5949	0.24
13.6358	0.336
13.6767	0.442
13.7175	0.524
13.7584	0.586
13.7993	0.62
13.8402	0.653
13.881	0.668
13.9219	0.672
13.9628	0.672
14.0037	0.651
14.0446	0.607
14.0854	0.54
14.1263	0.456
14.1672	0.372
14.2081	0.325
14.2489	0.319
14.2898	0.351
14.3307	0.404
14.3716	0.461
14.4124	0.502
14.4533	0.524
14.4942	0.55
14.5351	0.588
14.5759	0.634
14.6168	0.691
14.6577	0.732
14.6986	0.754
14.7394	0.77
14.7803	0.775
14.8212	0.775
14.8621	0.773
14.9029	0.759
14.9438	0.759
14.9847	0.749
15.0256	0.718
15.0665	0.629
15.1073	0.583
15.1482	0.586
15.1891	0.638
15.23	0.68
15.2708	0.704
15.3117	0.698
15.3526	0.663
15.3935	0.636
15.4343	0.62
15.4752	0.631
15.5161	0.648
15.557	0.682
15.5978	0.703
15.6387	0.718
15.6796	0.72
15.7205	0.715
15.7613	0.713
15.8022	0.71
15.8431	0.703
15.884	0.696
15.9248	0.692
15.9657	0.689
16.0066	0.679
