Infrared Spectrum: METHYL O-METHOXY BENZOATE
Formula: C9 H10 O3
CAS: 606-45-1
State: LIQUID
Boiling point: 116-118 C AT 8 mmHg
Class: COBLENTZ
Instrument: Not specified, most likely a prism, grating, or hybrid spectrometer.
Sampling: TRANSMISSION
Path length: 0.003 CM
Resolution: 4
Origin: WYANDOTTE CHEMICALS CORP., WYANDOTTE, MICHIGAN, USA
MICROMETERS	TRANSMITTANCE
2.07	0.965
2.10987	0.96
2.14973	0.945
2.1896	0.917
2.22946	0.93
2.26933	0.933
2.30919	0.936
2.34906	0.938
2.38893	0.941
2.42879	0.938
2.46866	0.951
2.50852	0.956
2.54839	0.963
2.58825	0.966
2.62812	0.971
2.66799	0.975
2.70785	0.933
2.74772	0.887
2.78758	0.875
2.82745	0.867
2.86731	0.9
2.90718	0.897
2.94705	0.897
2.98691	0.915
3.02678	0.902
3.06664	0.897
3.10651	0.882
3.14637	0.857
3.18624	0.835
3.22611	0.744
3.26597	0.651
3.30584	0.398
3.3457	0.412
3.38557	0.333
3.42543	0.545
3.4653	0.668
3.50517	0.63
3.54503	0.721
3.5849	0.895
3.62476	0.9
3.66463	0.905
3.70449	0.927
3.74436	0.941
3.78423	0.932
3.82409	0.905
3.86396	0.9
3.90382	0.905
3.94369	0.898
3.98355	0.902
4.02342	0.878
4.06329	0.922
4.10315	0.941
4.14302	0.93
4.18288	0.933
4.22275	0.933
4.26261	0.933
4.30248	0.943
4.34235	0.945
4.38221	0.956
4.42208	0.945
4.46194	0.918
4.50181	0.935
4.54167	0.946
4.58154	0.958
4.62141	0.948
4.66127	0.958
4.70114	0.943
4.741	0.932
4.78087	0.923
4.82073	0.887
4.8606	0.873
4.90047	0.875
4.94033	0.82
4.9802	0.815
5.02006	0.87
5.05993	0.928
5.09979	0.915
5.13966	0.875
5.17953	0.878
5.21939	0.857
5.25926	0.824
5.29912	0.89
5.33899	0.908
5.37885	0.917
5.41872	0.898
5.45859	0.875
5.49845	0.86
5.53832	0.825
5.57818	0.794
5.61805	0.756
5.65791	0.674
5.69778	0.386
5.73765	0.091
5.77751	0.031
5.81738	0.033
5.85724	0.039
5.89711	0.111
5.93697	0.293
5.97684	0.449
6.01671	0.58
6.05657	0.605
6.09644	0.6
6.1363	0.467
6.17617	0.154
6.21603	0.092
6.2559	0.147
6.29577	0.333
6.33563	0.653
6.3755	0.698
6.41536	0.761
6.45523	0.751
6.49509	0.728
6.53496	0.701
6.57483	0.585
6.61469	0.25
6.65456	0.024
6.69442	0.106
6.73429	0.203
6.77415	0.028
6.81402	0.048
6.85389	0.099
6.89375	0.046
6.93362	0.039
6.97348	0.21
7.01335	0.464
7.05321	0.6
7.09308	0.666
7.13295	0.696
7.17281	0.719
7.21268	0.711
7.25254	0.696
7.29241	0.653
7.33227	0.631
7.37214	0.625
7.41201	0.592
7.45187	0.507
7.49174	0.383
7.5316	0.22
7.57147	0.033
7.61133	0.029
7.6512	0.028
7.69107	0.029
7.73093	0.031
7.7708	0.034
7.81066	0.058
7.85053	0.036
7.89039	0.029
7.93026	0.028
7.97013	0.028
8.00999	0.031
8.04986	0.031
8.08972	0.061
8.12959	0.137
8.16945	0.207
8.20932	0.28
8.24919	0.343
8.28905	0.346
8.32892	0.258
8.36878	0.14
8.40865	0.096
8.44851	0.092
8.48838	0.225
8.52825	0.177
8.56811	0.101
8.60798	0.305
8.64784	0.363
8.68771	0.333
8.72757	0.16
8.76744	0.077
8.80731	0.034
8.84717	0.097
8.88704	0.364
8.9269	0.47
8.96677	0.454
9.00663	0.276
9.0465	0.082
9.08637	0.031
9.12623	0.026
9.1661	0.029
9.20596	0.029
9.24583	0.061
9.28569	0.21
9.32556	0.398
9.36543	0.474
9.40529	0.485
9.44516	0.252
9.48502	0.081
9.52489	0.19
9.56475	0.396
9.60462	0.437
9.64449	0.3
9.68435	0.117
9.72422	0.041
9.76408	0.039
9.80395	0.124
9.84381	0.316
9.88368	0.489
9.92355	0.61
9.96341	0.686
10.0033	0.744
10.0431	0.777
10.083	0.779
10.1229	0.776
10.1627	0.762
10.2026	0.747
10.2425	0.694
10.2823	0.621
10.3222	0.5
10.3621	0.454
10.4019	0.462
10.4418	0.532
10.4817	0.575
10.5215	0.597
10.5614	0.603
10.6013	0.645
10.6411	0.706
10.681	0.769
10.7209	0.796
10.7607	0.83
10.8006	0.844
10.8405	0.85
10.8803	0.854
10.9202	0.857
10.9601	0.86
10.9999	0.864
11.0398	0.864
11.0797	0.864
11.1195	0.865
11.1594	0.867
11.1992	0.868
11.2391	0.867
11.279	0.868
11.3188	0.865
11.3587	0.86
11.3986	0.854
11.4384	0.849
11.4783	0.82
11.5182	0.8
11.558	0.781
11.5979	0.754
11.6378	0.739
11.6776	0.724
11.7175	0.741
11.7574	0.756
11.7972	0.749
11.8371	0.772
11.877	0.737
11.9168	0.62
11.9567	0.482
11.9966	0.394
12.0364	0.344
12.0763	0.31
12.1162	0.439
12.156	0.601
12.1959	0.711
12.2358	0.761
12.2756	0.774
12.3155	0.784
12.3554	0.787
12.3952	0.784
12.4351	0.771
12.475	0.741
12.5148	0.686
12.5547	0.62
12.5945	0.552
12.6344	0.51
12.6743	0.475
12.7141	0.373
12.754	0.311
12.7939	0.318
12.8337	0.358
12.8736	0.354
12.9135	0.293
12.9533	0.212
12.9932	0.126
13.0331	0.063
13.0729	0.039
13.1128	0.038
13.1527	0.036
13.1925	0.033
13.2324	0.036
13.2723	0.043
13.3121	0.086
13.352	0.194
13.3919	0.338
13.4317	0.47
13.4716	0.555
13.5115	0.605
13.5513	0.641
13.5912	0.663
13.6311	0.679
13.6709	0.683
13.7108	0.684
13.7507	0.678
13.7905	0.661
13.8304	0.635
13.8703	0.61
13.9101	0.568
13.95	0.509
13.9898	0.456
14.0297	0.409
14.0696	0.363
14.1094	0.326
14.1493	0.298
14.1892	0.29
14.229	0.313
14.2689	0.363
14.3088	0.451
14.3486	0.542
14.3885	0.638
14.4284	0.679
14.4682	0.718
14.5081	0.766
14.548	0.777
14.5878	0.787
14.6277	0.799
14.6676	0.802
14.7074	0.804
14.7473	0.805
14.7872	0.805
14.827	0.81
14.8669	0.81
14.9068	0.804
14.9466	0.792
14.9865	0.771
15.0264	0.749
15.0662	0.696
15.1061	0.633
15.146	0.568
15.1858	0.495
15.2257	0.451
15.2656	0.467
15.3054	0.552
15.3453	0.633
15.3851	0.683
15.425	0.723
15.4649	0.744
15.5047	0.754
15.5446	0.766
15.5845	0.776
15.6243	0.777
15.6642	0.774
15.7041	0.771
15.7439	0.767
15.7838	0.764
15.8237	0.762
15.8635	0.762
15.9034	0.761
15.9433	0.757
15.9831	0.752
16.023	0.754
