Infrared Spectrum: 2,6-Dinitrotoluene
Formula: C 7 H 6 N 2 O 4
CAS: 606-20-2
State: solid
Instrument: Bruker IR Cube FTIR
Resolution: 0.96450084
Origin: Pacific Northwest National Laboratory Under IARPA Contract
1/cm	Reflectance
7498.99	0.905814
7481.63	0.841312
7464.27	0.795064
7446.91	0.764007
7429.55	0.783769
7412.19	0.759187
7394.84	0.753715
7377.48	0.707127
7360.12	0.732889
7342.76	0.712715
7325.4	0.705679
7308.04	0.744617
7290.68	0.745703
7273.32	0.766783
7255.96	0.754137
7238.6	0.755868
7221.24	0.775362
7203.88	0.772844
7186.52	0.761308
7169.16	0.749776
7151.8	0.761064
7134.44	0.766977
7117.08	0.759471
7099.72	0.783447
7082.36	0.806719
7065	0.801675
7047.64	0.800562
7030.28	0.798666
7012.92	0.785874
6995.56	0.78353
6978.2	0.786199
6960.84	0.777477
6943.48	0.769322
6926.12	0.761305
6908.76	0.736995
6891.4	0.708104
6874.04	0.690311
6856.68	0.663767
6839.32	0.565202
6821.96	0.568134
6804.6	0.498614
6787.24	0.360182
6769.88	0.287242
6752.52	0.314075
6735.16	0.369648
6717.8	0.332545
6700.44	0.491078
6683.08	0.48305
6665.72	0.405287
6648.36	0.374371
6631	0.441331
6613.64	0.503114
6596.28	0.489588
6578.92	0.564001
6561.56	0.59439
6544.2	0.608646
6526.85	0.622444
6509.49	0.626145
6492.13	0.611015
6474.77	0.588229
6457.41	0.601717
6440.05	0.587508
6422.69	0.608139
6405.33	0.623384
6387.97	0.634933
6370.61	0.631027
6353.25	0.637191
6335.89	0.64682
6318.53	0.643752
6301.17	0.62055
6283.81	0.598509
6266.45	0.571496
6249.09	0.536794
6231.73	0.575905
6214.37	0.582972
6197.01	0.581316
6179.65	0.568698
6162.29	0.55829
6144.93	0.522071
6127.57	0.457761
6110.21	0.414586
6092.85	0.28212
6075.49	0.255363
6058.13	0.253858
6040.77	0.274688
6023.41	0.22261
6006.05	0.261604
5988.69	0.232222
5971.33	0.189188
5953.97	0.184165
5936.61	0.197442
5919.25	0.216689
5901.89	0.179783
5884.53	0.23534
5867.17	0.155287
5849.81	0.193755
5832.45	0.183779
5815.09	0.240922
5797.73	0.245939
5780.37	0.200025
5763.01	0.152825
5745.65	0.233382
5728.29	0.233598
5710.93	0.157581
5693.57	0.206194
5676.21	0.265186
5658.86	0.231667
5641.5	0.254253
5624.14	0.294765
5606.78	0.292022
5589.42	0.315532
5572.06	0.315121
5554.7	0.335276
5537.34	0.33573
5519.98	0.323151
5502.62	0.306478
5485.26	0.247177
5467.9	0.266961
5450.54	0.25424
5433.18	0.266557
5415.82	0.225768
5398.46	0.196424
5381.1	0.175047
5363.74	0.121492
5346.38	0.0865406
5329.02	0.0511935
5311.66	0.0449737
5294.3	0.0351994
5276.94	0.0405792
5259.58	0.047438
5242.22	0.03705
5224.86	0.0416502
5207.5	0.0419341
5190.14	0.0336814
5172.78	0.053332
5155.42	0.0661966
5138.06	0.105505
5120.7	0.0849101
5103.34	0.0791819
5085.98	0.115894
5068.62	0.177698
5051.26	0.122224
5033.9	0.135199
5016.54	0.198625
4999.18	0.108229
4981.82	0.125329
4964.46	0.106362
4947.1	0.114207
4929.74	0.152197
4912.38	0.114698
4895.02	0.186804
4877.66	0.142478
4860.3	0.256419
4842.94	0.20422
4825.58	0.227698
4808.22	0.261687
4790.86	0.228959
4773.51	0.208742
4756.15	0.245331
4738.79	0.0495121
4721.43	0.187988
4704.07	0.1201
4686.71	0.12165
4669.35	0.160476
4651.99	0.108883
4634.63	0.120891
4617.27	0.0965905
4599.91	0.0881079
4582.55	0.033833
4565.19	0.0255274
4547.83	0.0209
4530.47	0.0148927
4513.11	0.0722213
4495.75	0.0346973
4478.39	0.0303242
4461.03	0.0307541
4443.67	0.0240427
4426.31	0.0550155
4408.95	0.0455871
4391.59	0.0494127
4374.23	0.0716387
4356.87	0.038283
4339.51	0.079897
4322.15	0.105937
4304.79	0.110101
4287.43	0.07119
4270.07	0.06218
4252.71	0.0895031
4235.35	0.117839
4217.99	0.107109
4200.63	0.0294429
4183.27	0.0703304
4165.91	0.0412508
4148.55	0.0653668
4131.19	0.0489256
4113.83	0.0630219
4096.47	0.050497
4079.11	0.163824
4061.75	0.182232
4044.39	0.889318
4027.03	0.83675
4009.67	0.82419
3992.31	0.805255
3974.95	0.865306
3957.59	0.803371
3940.23	0.810883
3922.87	0.710505
3905.52	0.774436
3888.16	0.713723
3870.8	0.761854
3853.44	0.792962
3836.08	0.826326
3818.72	0.835296
3801.36	0.790418
3784	0.811702
3766.64	0.835577
3749.28	0.823285
3731.92	0.798832
3714.56	0.794585
3697.2	0.80826
3679.84	0.816703
3662.48	0.818886
3645.12	0.850751
3627.76	0.84809
3610.4	0.854488
3593.04	0.855908
3575.68	0.846417
3558.32	0.84019
3540.96	0.841958
3523.6	0.840095
3506.24	0.830248
3488.88	0.822382
3471.52	0.815091
3454.16	0.773349
3436.8	0.759762
3419.44	0.729476
3402.08	0.688379
3384.72	0.611874
3367.36	0.574274
3350	0.49152
3332.64	0.340793
3315.28	0.295756
3297.92	0.332458
3280.56	0.380428
3263.2	0.431093
3245.84	0.52721
3228.48	0.496847
3211.12	0.423311
3193.76	0.450146
3176.4	0.508064
3159.04	0.494128
3141.68	0.500807
3124.32	0.615785
3106.96	0.646467
3089.6	0.655349
3072.24	0.660321
3054.88	0.662608
3037.53	0.647466
3020.17	0.632584
3002.81	0.644209
2985.45	0.648772
2968.09	0.651648
2950.73	0.676468
2933.37	0.667519
2916.01	0.673263
2898.65	0.677636
2881.29	0.689779
2863.93	0.677313
2846.57	0.647042
2829.21	0.622708
2811.85	0.624094
2794.49	0.541725
2777.13	0.612955
2759.77	0.610007
2742.41	0.616824
2725.05	0.601438
2707.69	0.580308
2690.33	0.537344
2672.97	0.480765
2655.61	0.40617
2638.25	0.228111
2620.89	0.26516
2603.53	0.276234
2586.17	0.224549
2568.81	0.249625
2551.45	0.267137
2534.09	0.208751
2516.73	0.185569
2499.37	0.204629
2482.01	0.184068
2464.65	0.166249
2447.29	0.221245
2429.93	0.211278
2412.57	0.165731
2395.21	0.201177
2377.85	0.219433
2360.49	0.246906
2343.13	0.234687
2325.77	0.16583
2308.41	0.174723
2291.05	0.239429
2273.69	0.214257
2256.33	0.217065
2238.97	0.2074
2221.61	0.270058
2204.25	0.229991
2186.89	0.264408
2169.53	0.286946
2152.18	0.324482
2134.82	0.309045
2117.46	0.369277
2100.1	0.332496
2082.74	0.34489
2065.38	0.331358
2048.02	0.298
2030.66	0.278343
2013.3	0.286681
1995.94	0.251507
1978.58	0.273068
1961.22	0.221916
1943.86	0.190061
1926.5	0.175494
1909.14	0.110755
1891.78	0.0790978
1874.42	0.0500471
1857.06	0.0408204
1839.7	0.0386256
1822.34	0.0489009
1804.98	0.0571354
1787.62	0.0540188
1770.26	0.0450502
1752.9	0.0414428
1735.54	0.035569
1718.18	0.0624691
1700.82	0.0864554
1683.46	0.0915975
1666.1	0.103319
1648.74	0.0896446
1631.38	0.128196
1614.02	0.169464
1596.66	0.0920489
1579.3	0.127963
1561.94	0.209425
1544.58	0.0912152
1527.22	0.122078
1509.86	0.0917498
1492.5	0.0946252
1475.14	0.191348
1457.78	0.147156
1440.42	0.212808
1423.06	0.168226
1405.7	0.294502
1388.34	0.182124
1370.98	0.283758
1353.62	0.258422
1336.26	0.217436
1318.9	0.235774
1301.54	0.204491
1284.19	0.0876883
1266.83	0.140145
1249.47	0.186464
1232.11	0.0695704
1214.75	0.157242
1197.39	0.170885
1180.03	0.0571011
1162.67	0.0896073
1145.31	0.0749629
1127.95	0.0335866
1110.59	0.0211166
1093.23	0.019491
1075.87	0.0471928
1058.51	0.0481373
1041.15	0.0350119
1023.79	0.0314049
1006.43	0.0310306
989.068	0.0219292
971.709	0.0499125
954.349	0.0427233
936.989	0.0495245
919.629	0.0696259
902.269	0.0352325
884.91	0.0719211
867.55	0.0706769
850.19	0.1005
832.83	0.107144
815.47	0.0431914
798.111	0.0782431
780.751	0.129697
763.391	0.115673
746.031	0.0415121
728.671	0.073967
711.312	0.0549025
693.952	0.0765948
676.592	0.0401974
659.232	0.0283265
641.872	0.0684533
624.513	0.164091
607.153	0.224749
