Infrared Spectrum: METHYL O-NITRO BENZOATE
Formula: C8 H7 N O4
CAS: 606-27-9
State: LIQUID
Boiling point: 150-151 C AT 10 mmHg
Class: COBLENTZ
Instrument: Not specified, most likely a prism, grating, or hybrid spectrometer.
Sampling: TRANSMISSION
Path length: 0.003 CM
Resolution: 4
Origin: WYANDOTTE CHEMICALS CORP., WYANDOTTE, MICHIGAN, USA
MICROMETERS	TRANSMITTANCE
2.061	0.961
2.09985	0.952
2.13871	0.957
2.17756	0.941
2.21642	0.957
2.25527	0.948
2.29413	0.948
2.33298	0.954
2.37184	0.956
2.41069	0.962
2.44955	0.961
2.4884	0.965
2.52726	0.97
2.56611	0.969
2.60497	0.962
2.64382	0.969
2.68268	0.956
2.72153	0.961
2.76039	0.97
2.79924	0.962
2.8381	0.959
2.87695	0.944
2.91581	0.928
2.95466	0.952
2.99352	0.97
3.03237	0.972
3.07123	0.967
3.11008	0.952
3.14894	0.93
3.18779	0.902
3.22665	0.795
3.2655	0.786
3.30436	0.764
3.34321	0.81
3.38207	0.606
3.42092	0.836
3.45978	0.79
3.49863	0.844
3.53749	0.893
3.57634	0.952
3.6152	0.954
3.65405	0.952
3.69291	0.956
3.73176	0.962
3.77062	0.964
3.80947	0.961
3.84833	0.951
3.88718	0.952
3.92604	0.954
3.96489	0.961
4.00375	0.974
4.0426	0.962
4.08146	0.972
4.12031	0.967
4.15917	0.961
4.19802	0.952
4.23688	0.944
4.27573	0.944
4.31459	0.951
4.35344	0.961
4.3923	0.964
4.43115	0.967
4.47001	0.969
4.50886	0.961
4.54772	0.97
4.58657	0.964
4.62543	0.978
4.66428	0.975
4.70314	0.974
4.74199	0.967
4.78085	0.957
4.8197	0.954
4.85856	0.948
4.89741	0.951
4.93627	0.965
4.97512	0.959
5.01398	0.954
5.05283	0.944
5.09169	0.92
5.13054	0.933
5.1694	0.902
5.20825	0.922
5.24711	0.933
5.28596	0.923
5.32482	0.928
5.36367	0.928
5.40253	0.922
5.44138	0.899
5.48023	0.888
5.51909	0.904
5.55794	0.889
5.5968	0.858
5.63565	0.758
5.67451	0.596
5.71336	0.27
5.75222	0.047
5.79107	0.037
5.82993	0.345
5.86878	0.575
5.90764	0.669
5.94649	0.732
5.98535	0.768
6.0242	0.795
6.06306	0.789
6.10191	0.76
6.14077	0.654
6.17962	0.481
6.21848	0.606
6.25733	0.554
6.29619	0.364
6.33504	0.445
6.3739	0.372
6.41275	0.079
6.45161	0.043
6.49046	0.032
6.52932	0.04
6.56817	0.175
6.60703	0.4
6.64588	0.573
6.68474	0.572
6.72359	0.406
6.76245	0.504
6.8013	0.526
6.84016	0.44
6.87901	0.249
6.91787	0.178
6.95672	0.124
6.99558	0.416
7.03443	0.656
7.07329	0.708
7.11214	0.685
7.151	0.638
7.18985	0.515
7.22871	0.319
7.26756	0.196
7.30642	0.1
7.34527	0.04
7.38413	0.024
7.42298	0.063
7.46184	0.286
7.50069	0.432
7.53955	0.429
7.5784	0.283
7.61726	0.123
7.65611	0.027
7.69497	0.025
7.73382	0.021
7.77268	0.025
7.81153	0.034
7.85039	0.079
7.88924	0.128
7.9281	0.068
7.96695	0.04
8.00581	0.264
8.04466	0.424
8.08352	0.599
8.12237	0.698
8.16123	0.756
8.20008	0.792
8.23894	0.784
8.27779	0.74
8.31665	0.632
8.3555	0.455
8.39436	0.398
8.43321	0.544
8.47207	0.67
8.51092	0.717
8.54978	0.667
8.58863	0.648
8.62749	0.688
8.66634	0.645
8.7052	0.538
8.74405	0.466
8.7829	0.303
8.82176	0.106
8.86061	0.05
8.89947	0.068
8.93832	0.233
8.97718	0.432
9.01603	0.623
9.05489	0.714
9.09374	0.753
9.1326	0.761
9.17145	0.732
9.21031	0.614
9.24916	0.294
9.28802	0.047
9.32687	0.136
9.36573	0.437
9.40458	0.666
9.44344	0.779
9.48229	0.834
9.52115	0.854
9.56	0.852
9.59886	0.74
9.63771	0.581
9.67657	0.729
9.71542	0.854
9.75428	0.888
9.79313	0.904
9.83199	0.915
9.87084	0.912
9.9097	0.91
9.94855	0.91
9.98741	0.901
10.0263	0.889
10.0651	0.891
10.104	0.902
10.1428	0.899
10.1817	0.893
10.2205	0.865
10.2594	0.81
10.2982	0.711
10.3371	0.581
10.376	0.474
10.4148	0.424
10.4537	0.382
10.4925	0.374
10.5314	0.437
10.5702	0.583
10.6091	0.716
10.6479	0.807
10.6868	0.863
10.7257	0.888
10.7645	0.907
10.8034	0.917
10.8422	0.918
10.8811	0.93
10.9199	0.93
10.9588	0.925
10.9976	0.93
11.0365	0.927
11.0753	0.928
11.1142	0.927
11.1531	0.922
11.1919	0.91
11.2308	0.896
11.2696	0.878
11.3085	0.863
11.3473	0.86
11.3862	0.875
11.425	0.893
11.4639	0.889
11.5028	0.891
11.5416	0.863
11.5805	0.792
11.6193	0.564
11.6582	0.247
11.697	0.196
11.7359	0.388
11.7747	0.714
11.8136	0.833
11.8524	0.868
11.8913	0.878
11.9302	0.881
11.969	0.868
12.0079	0.836
12.0467	0.755
12.0856	0.606
12.1244	0.421
12.1633	0.329
12.2021	0.437
12.241	0.641
12.2798	0.761
12.3187	0.8
12.3576	0.824
12.3964	0.818
12.4353	0.794
12.4741	0.734
12.513	0.64
12.5518	0.481
12.5907	0.34
12.6295	0.205
12.6684	0.162
12.7073	0.132
12.7461	0.175
12.785	0.251
12.8238	0.231
12.8627	0.207
12.9015	0.223
12.9404	0.277
12.9792	0.341
13.0181	0.397
13.0569	0.424
13.0958	0.458
13.1347	0.474
13.1735	0.494
13.2124	0.504
13.2512	0.505
13.2901	0.497
13.3289	0.473
13.3678	0.439
13.4066	0.382
13.4455	0.299
13.4844	0.226
13.5232	0.171
13.5621	0.126
13.6009	0.1
13.6398	0.095
13.6786	0.115
13.7175	0.141
13.7563	0.226
13.7952	0.316
13.834	0.413
13.8729	0.507
13.9118	0.564
13.9506	0.607
13.9895	0.641
14.0283	0.669
14.0672	0.674
14.106	0.677
14.1449	0.666
14.1837	0.633
14.2226	0.57
14.2615	0.46
14.3003	0.343
14.3392	0.262
14.378	0.239
14.4169	0.291
14.4557	0.351
14.4946	0.427
14.5334	0.52
14.5723	0.588
14.6111	0.662
14.65	0.726
14.6889	0.768
14.7277	0.795
14.7666	0.818
14.8054	0.831
14.8443	0.841
14.8831	0.844
14.922	0.844
14.9608	0.847
14.9997	0.839
15.0386	0.811
15.0774	0.808
15.1163	0.823
15.1551	0.849
15.194	0.847
15.2328	0.836
15.2717	0.826
15.3105	0.816
15.3494	0.807
15.3882	0.799
15.4271	0.764
15.466	0.724
15.5048	0.696
15.5437	0.669
15.5825	0.682
15.6214	0.716
15.6602	0.758
15.6991	0.781
15.7379	0.786
15.7768	0.786
15.8156	0.787
15.8545	0.786
15.8934	0.779
15.9322	0.777
15.9711	0.766
16.0099	0.76
