Infrared Spectrum: SALICYLIC ACID, n-PROPYL ESTER
Formula: C10 H12 O3
CAS: 607-90-9
State: SOLUTION (2% CCl4 FOR 3800-1330, 2% CS2 FOR 1330-400 CM^-^1)
Class: COBLENTZ III
Instrument: DOW KBr FOREPRISM-GRATING
Instrument parameters: BLAZED AT 3.5, 12.0, 20.0 MICRON AND CHANGED AT 5.0, 7.5, 14.9 MICRON
Sampling: TRANSMISSION
Path length: 0.011 CM, 0.011 CM
Resolution: 2
Origin: DOW CHEMICAL COMPANY
1/CM	TRANSMITTANCE
384	0.2827
393	0.3092
402	0.5307
411	0.6549
420	0.7624
429	0.818
438	0.8451
447	0.8727
456	0.8762
465	0.8853
474	0.8578
483	0.8906
492	0.8907
501	0.8832
510	0.8708
519	0.8524
528	0.7132
537	0.8345
546	0.8478
555	0.862
564	0.8373
573	0.8762
582	0.8768
591	0.8768
600	0.8713
609	0.8639
618	0.8647
627	0.8615
636	0.8432
645	0.8171
654	0.7939
663	0.6933
672	0.8062
681	0.8078
690	0.7668
699	0.5336
708	0.6396
717	0.5837
726	0.6205
735	0.7038
744	0.7535
753	0.6041
762	0.5601
771	0.7864
780	0.8125
789	0.8128
798	0.7908
807	0.7853
816	0.7984
825	0.8218
834	0.8021
843	0.7145
852	0.6578
861	0.5728
870	0.7082
879	0.7522
888	0.7735
897	0.7989
906	0.8053
915	0.7982
924	0.818
933	0.7765
942	0.7636
951	0.7941
960	0.7844
969	0.8449
978	0.9121
987	0.9278
996	0.9315
1005	0.9298
1014	0.9223
1023	0.9028
1032	0.731
1041	0.8992
1050	0.893
1059	0.9043
1068	0.8989
1077	0.8448
1086	0.4707
1095	0.728
1104	0.8881
1113	0.8811
1122	0.8437
1131	0.7292
1140	0.7268
1149	0.7426
1158	0.1793
1167	0.7943
1176	0.6758
1185	0.6665
1194	0.7419
1203	0.4812
1212	0.1859
1221	0.6174
1230	0.6326
1239	0.681
1248	0.3243
1257	0.6924
1266	0.7949
1275	0.7938
1284	0.6166
1293	0.4799
1302	0.2002
1311	0.5654
1320	0.6199
1329	0.6166
1338	0.6147
1347	0.7037
1356	0.726
1365	0.7999
1374	0.7982
1383	0.7488
1392	0.7035
1401	0.6318
1410	0.6656
1419	0.6972
1428	0.7446
1437	0.7871
1446	0.7967
1455	0.7568
1464	0.6379
1473	0.5406
1482	0.5508
1491	0.3354
1500	0.7211
1509	0.6638
1518	0.6585
1527	0.6294
1536	0.5772
1545	0.4738
1554	0.4542
1563	0.51
1572	0.5774
1581	0.5578
1590	0.4803
1599	0.6585
1608	0.6753
1617	0.439
1626	0.7706
1635	0.8497
1644	0.8287
1653	0.7586
1662	0.6662
1671	0.3971
1680	0.1245
1689	0.4822
1698	0.766
1707	0.8528
1716	0.8671
1725	0.8709
1734	0.8842
1743	0.8938
1752	0.8915
1761	0.9054
1770	0.9049
1779	0.9104
1788	0.9097
1797	0.9084
1806	0.9057
1815	0.9035
1824	0.9094
1833	0.9099
1842	0.9094
1851	0.9104
1860	0.9116
1869	0.9132
1878	0.9147
1887	0.9152
1896	0.9151
1905	0.9156
1914	0.9114
1923	0.9042
1932	0.9112
1941	0.911
1950	0.9048
1959	0.9248
1968	0.9127
1977	0.9093
1986	0.9063
1995	0.8782
2004	0.8982
2013	0.8993
2022	0.899
2031	0.8981
2040	0.8967
2049	0.8965
2058	0.897
2067	0.898
2076	0.8996
2085	0.9009
2094	0.901
2103	0.9005
2112	0.9003
2121	0.8989
2130	0.8974
2139	0.8959
2148	0.8944
2157	0.8933
2166	0.8921
2175	0.891
2184	0.8904
2193	0.8901
2202	0.8899
2211	0.8896
2220	0.8891
2229	0.8885
2238	0.8878
2247	0.8851
2256	0.8821
2265	0.8783
2274	0.8745
2283	0.8702
2292	0.8663
2301	0.8647
2310	0.8656
2319	0.8663
2328	0.867
2337	0.8677
2346	0.8684
2355	0.8702
2364	0.8728
2373	0.8757
2382	0.8792
2391	0.8805
2400	0.8817
2409	0.8814
2418	0.8811
2427	0.8808
2436	0.8806
2445	0.8806
2454	0.8807
2463	0.8804
2472	0.8798
2481	0.8791
2490	0.8785
2499	0.8777
2508	0.8768
2517	0.8761
2526	0.8756
2535	0.8751
2544	0.8747
2553	0.8742
2562	0.874
2571	0.8739
2580	0.8738
2589	0.8737
2598	0.8736
2607	0.8734
2616	0.8733
2625	0.8731
2634	0.8728
2643	0.8721
2652	0.8714
2661	0.8707
2670	0.87
2679	0.8691
2688	0.8682
2697	0.8671
2706	0.8663
2715	0.8654
2724	0.8645
2733	0.8636
2742	0.8625
2751	0.8616
2760	0.8607
2769	0.86
2778	0.8602
2787	0.86
2796	0.8592
2805	0.8568
2814	0.8538
2823	0.8513
2832	0.8488
2841	0.8455
2850	0.8355
2859	0.8266
2868	0.8232
2877	0.7745
2886	0.7699
2895	0.7865
2904	0.801
2913	0.804
2922	0.7747
2931	0.7462
2940	0.7254
2949	0.7388
2958	0.6864
2967	0.5921
2976	0.5792
2985	0.6741
2994	0.7707
3003	0.8061
3012	0.8156
3021	0.8151
3030	0.8142
3039	0.8131
3048	0.8054
3057	0.796
3066	0.7924
3075	0.7886
3084	0.7934
3093	0.7932
3102	0.7922
3111	0.7875
3120	0.7769
3129	0.7649
3138	0.7468
3147	0.7325
3156	0.7175
3165	0.7165
3174	0.7139
3183	0.7003
3192	0.6906
3201	0.6919
3210	0.699
3219	0.7161
3228	0.7367
3237	0.7518
3246	0.7695
3255	0.7832
3264	0.7975
3273	0.8053
3282	0.8133
3291	0.8199
3300	0.8267
3309	0.8341
3318	0.8405
3327	0.8449
3336	0.8489
3345	0.8523
3354	0.8557
3363	0.8595
3372	0.8631
3381	0.8659
3390	0.8686
3399	0.8699
3408	0.8706
3417	0.8703
3426	0.8701
3435	0.8702
3444	0.8706
3453	0.8711
3462	0.8725
3471	0.8741
3480	0.8746
3489	0.8748
3498	0.8744
3507	0.8743
3516	0.8746
3525	0.876
3534	0.8764
3543	0.8781
3552	0.8802
3561	0.8801
3570	0.8784
3579	0.87
3588	0.8788
3597	0.8798
3606	0.8801
3615	0.8799
3624	0.88
3633	0.8804
3642	0.8811
3651	0.8818
3660	0.8818
3669	0.8768
3678	0.8784
3687	0.8824
3696	0.8823
3705	0.8808
3714	0.8804
3723	0.8799
3732	0.8794
3741	0.8789
3750	0.8794
3759	0.8802
3768	0.8802
3777	0.8799
3786	0.8802
3795	0.8808
