Infrared Spectrum: DIETHYL BENZYL MALONATE
Formula: C14 H18 O4
CAS: 607-81-8
State: LIQUID
Boiling point: 167-168 C AT 12 mmHg
Class: COBLENTZ
Instrument: Not specified, most likely a prism, grating, or hybrid spectrometer.
Sampling: TRANSMISSION
Path length: 0.003 CM
Resolution: 4
Origin: WYANDOTTE CHEMICALS CORP., WYANDOTTE, MICHIGAN, USA
MICROMETERS	TRANSMITTANCE
2.135	0.951
2.17492	0.943
2.21484	0.931
2.25476	0.936
2.29469	0.946
2.33461	0.941
2.37453	0.931
2.41445	0.933
2.45437	0.95
2.49429	0.96
2.53422	0.955
2.57414	0.963
2.61406	0.953
2.65398	0.965
2.6939	0.95
2.73382	0.955
2.77374	0.951
2.81367	0.953
2.85359	0.946
2.89351	0.916
2.93343	0.918
2.97335	0.96
3.01327	0.961
3.0532	0.951
3.09312	0.955
3.13304	0.941
3.17296	0.935
3.21288	0.918
3.2528	0.8
3.29272	0.724
3.33265	0.393
3.37257	0.403
3.41249	0.524
3.45241	0.649
3.49233	0.769
3.53225	0.883
3.57218	0.915
3.6121	0.936
3.65202	0.943
3.69194	0.945
3.73186	0.955
3.77178	0.958
3.8117	0.955
3.85163	0.951
3.89155	0.95
3.93147	0.951
3.97139	0.953
4.01131	0.955
4.05123	0.951
4.09116	0.946
4.13108	0.951
4.171	0.948
4.21092	0.945
4.25084	0.94
4.29076	0.953
4.33068	0.956
4.37061	0.95
4.41053	0.953
4.45045	0.95
4.49037	0.948
4.53029	0.955
4.57021	0.946
4.61013	0.95
4.65006	0.951
4.68998	0.953
4.7299	0.95
4.76982	0.953
4.80974	0.95
4.84966	0.941
4.88959	0.941
4.92951	0.948
4.96943	0.938
5.00935	0.936
5.04927	0.933
5.08919	0.921
5.12911	0.923
5.16904	0.901
5.20896	0.911
5.24888	0.926
5.2888	0.915
5.32872	0.89
5.36864	0.88
5.40857	0.9
5.44849	0.906
5.48841	0.882
5.52833	0.845
5.56825	0.8
5.60817	0.752
5.64809	0.586
5.68802	0.269
5.72794	0.011
5.76786	0.021
5.80778	0.039
5.8477	0.392
5.88762	0.514
5.92755	0.659
5.96747	0.764
6.00739	0.802
6.04731	0.827
6.08723	0.865
6.12715	0.87
6.16707	0.845
6.207	0.7
6.24692	0.852
6.28684	0.863
6.32676	0.887
6.36668	0.88
6.4066	0.867
6.44653	0.87
6.48645	0.868
6.52637	0.872
6.56629	0.852
6.60621	0.827
6.64613	0.536
6.68605	0.581
6.72598	0.607
6.7659	0.49
6.80582	0.39
6.84574	0.275
6.88566	0.294
6.92558	0.373
6.96551	0.624
7.00543	0.707
7.04535	0.725
7.08527	0.7
7.12519	0.611
7.16511	0.468
7.20503	0.433
7.24496	0.433
7.28488	0.169
7.3248	0.215
7.36472	0.568
7.40464	0.406
7.44456	0.247
7.48449	0.166
7.52441	0.187
7.56433	0.224
7.60425	0.182
7.64417	0.169
7.68409	0.101
7.72401	0.098
7.76394	0.088
7.80386	0.064
7.84378	0.049
7.8837	0.059
7.92362	0.079
7.96354	0.098
8.00347	0.086
8.04339	0.053
8.08331	0.024
8.12323	0.018
8.16315	0.018
8.20307	0.031
8.24299	0.068
8.28292	0.091
8.32284	0.091
8.36276	0.083
8.40268	0.079
8.4426	0.078
8.48252	0.059
8.52244	0.049
8.56237	0.049
8.60229	0.043
8.64221	0.031
8.68213	0.021
8.72205	0.021
8.76197	0.056
8.8019	0.182
8.84182	0.393
8.88174	0.514
8.92166	0.516
8.96158	0.431
9.0015	0.438
9.04142	0.435
9.08135	0.315
9.12127	0.269
9.16119	0.365
9.20111	0.403
9.24103	0.388
9.28095	0.528
9.32088	0.533
9.3608	0.411
9.40072	0.295
9.44064	0.24
9.48056	0.284
9.52048	0.325
9.5604	0.308
9.60033	0.182
9.64025	0.099
9.68017	0.069
9.72009	0.116
9.76001	0.209
9.79993	0.287
9.83986	0.323
9.87978	0.373
9.9197	0.488
9.95962	0.596
9.99954	0.682
10.0395	0.725
10.0794	0.735
10.1193	0.744
10.1592	0.76
10.1991	0.769
10.2391	0.784
10.279	0.802
10.3189	0.803
10.3588	0.803
10.3988	0.799
10.4387	0.797
10.4786	0.8
10.5185	0.815
10.5584	0.842
10.5984	0.862
10.6383	0.875
10.6782	0.883
10.7181	0.895
10.7581	0.9
10.798	0.897
10.8379	0.888
10.8778	0.873
10.9177	0.833
10.9577	0.812
10.9976	0.822
11.0375	0.855
11.0774	0.888
11.1173	0.888
11.1573	0.903
11.1972	0.892
11.2371	0.885
11.277	0.872
11.317	0.84
11.3569	0.802
11.3968	0.75
11.4367	0.72
11.4766	0.676
11.5166	0.617
11.5565	0.558
11.5964	0.519
11.6363	0.495
11.6762	0.466
11.7162	0.491
11.7561	0.598
11.796	0.666
11.8359	0.754
11.8759	0.774
11.9158	0.777
11.9557	0.779
11.9956	0.805
12.0355	0.825
12.0755	0.857
12.1154	0.87
12.1553	0.872
12.1952	0.877
12.2351	0.868
12.2751	0.867
12.315	0.85
12.3549	0.838
12.3948	0.838
12.4348	0.833
12.4747	0.83
12.5146	0.827
12.5545	0.818
12.5944	0.799
12.6344	0.782
12.6743	0.77
12.7142	0.77
12.7541	0.782
12.794	0.8
12.834	0.818
12.8739	0.838
12.9138	0.837
12.9537	0.833
12.9937	0.822
13.0336	0.794
13.0735	0.745
13.1134	0.667
13.1533	0.574
13.1933	0.476
13.2332	0.372
13.2731	0.327
13.313	0.299
13.353	0.32
13.3929	0.367
13.4328	0.423
13.4727	0.491
13.5126	0.556
13.5526	0.619
13.5925	0.659
13.6324	0.712
13.6723	0.735
13.7122	0.754
13.7522	0.775
13.7921	0.777
13.832	0.792
13.8719	0.792
13.9119	0.789
13.9518	0.784
13.9917	0.77
14.0316	0.75
14.0715	0.72
14.1115	0.664
14.1514	0.584
14.1913	0.476
14.2312	0.357
14.2711	0.25
14.3111	0.197
14.351	0.176
14.3909	0.209
14.4308	0.292
14.4708	0.4
14.5107	0.549
14.5506	0.634
14.5905	0.687
14.6304	0.725
14.6704	0.742
14.7103	0.769
14.7502	0.774
14.7901	0.787
14.83	0.794
14.87	0.795
14.9099	0.803
14.9498	0.812
14.9897	0.799
15.0297	0.779
15.0696	0.78
15.1095	0.805
15.1494	0.825
15.1893	0.838
15.2293	0.825
15.2692	0.82
15.3091	0.823
15.349	0.818
15.3889	0.808
15.4289	0.8
15.4688	0.805
15.5087	0.803
15.5486	0.794
15.5886	0.794
15.6285	0.792
15.6684	0.789
15.7083	0.785
15.7482	0.784
15.7882	0.78
15.8281	0.777
15.868	0.774
15.9079	0.767
15.9478	0.759
15.9878	0.794
16.0277	0.757
