Infrared Spectrum: 8-NITROQUINOLINE
Formula: C9 H6 N2 O2
CAS: 607-35-2
State: SOLID (MINERAL OIL MULL)
Melting point: 87-89 C
Class: COBLENTZ
Instrument: Not specified, most likely a prism, grating, or hybrid spectrometer.
Sampling: TRANSMISSION
Resolution: 4
Origin: WYANDOTTE CHEMICALS CORP., WYANDOTTE, MICHIGAN, USA
MICROMETERS	TRANSMITTANCE
2.025	0.304
2.06212	0.303
2.09924	0.304
2.13635	0.304
2.17347	0.306
2.21059	0.306
2.24771	0.304
2.28482	0.303
2.32194	0.303
2.35906	0.306
2.39618	0.306
2.43329	0.309
2.47041	0.315
2.50753	0.32
2.54465	0.332
2.58177	0.334
2.61888	0.337
2.656	0.343
2.69312	0.343
2.73024	0.343
2.76735	0.342
2.80447	0.339
2.84159	0.339
2.87871	0.343
2.91582	0.342
2.95294	0.343
2.99006	0.345
3.02718	0.343
3.0643	0.34
3.10141	0.337
3.13853	0.332
3.17565	0.329
3.21277	0.325
3.24988	0.315
3.287	0.297
3.32412	0.117
3.36124	0.03
3.39835	0.03
3.43547	0.032
3.47259	0.035
3.50971	0.057
3.54683	0.275
3.58394	0.373
3.62106	0.4
3.65818	0.4
3.6953	0.396
3.73241	0.405
3.76953	0.414
3.80665	0.419
3.84377	0.427
3.88088	0.433
3.918	0.442
3.95512	0.45
3.99224	0.459
4.02936	0.467
4.06647	0.467
4.10359	0.467
4.14071	0.464
4.17783	0.465
4.21494	0.465
4.25206	0.442
4.28918	0.476
4.3263	0.496
4.36342	0.518
4.40053	0.515
4.43765	0.498
4.47477	0.501
4.51189	0.501
4.549	0.509
4.58612	0.513
4.62324	0.524
4.66036	0.53
4.69747	0.534
4.73459	0.538
4.77171	0.54
4.80883	0.547
4.84595	0.558
4.88306	0.561
4.92018	0.563
4.9573	0.569
4.99442	0.575
5.03153	0.583
5.06865	0.585
5.10577	0.586
5.14289	0.555
5.18	0.555
5.21712	0.571
5.25424	0.585
5.29136	0.58
5.32848	0.582
5.36559	0.588
5.40271	0.603
5.43983	0.608
5.47695	0.6
5.51406	0.595
5.55118	0.606
5.5883	0.616
5.62542	0.619
5.66253	0.623
5.69965	0.617
5.73677	0.591
5.77389	0.628
5.81101	0.622
5.84812	0.613
5.88524	0.648
5.92236	0.633
5.95948	0.628
5.99659	0.64
6.03371	0.642
6.07083	0.64
6.10795	0.496
6.14506	0.549
6.18218	0.521
6.2193	0.328
6.25642	0.484
6.29354	0.447
6.33065	0.297
6.36777	0.306
6.40489	0.317
6.44201	0.233
6.47912	0.054
6.51624	0.041
6.55336	0.105
6.59048	0.185
6.62759	0.147
6.66471	0.159
6.70183	0.238
6.73895	0.218
6.77607	0.066
6.81318	0.077
6.8503	0.136
6.88742	0.204
6.92454	0.32
6.96165	0.366
6.99877	0.427
7.03589	0.565
7.07301	0.599
7.11012	0.589
7.14724	0.495
7.18436	0.345
7.22148	0.123
7.2586	0.078
7.29571	0.091
7.33283	0.085
7.36995	0.095
7.40707	0.165
7.44418	0.227
7.4813	0.295
7.51842	0.34
7.55554	0.298
7.59265	0.366
7.62977	0.41
7.66689	0.43
7.70401	0.453
7.74113	0.473
7.77824	0.482
7.81536	0.49
7.85248	0.517
7.8896	0.53
7.92671	0.554
7.96383	0.569
8.00095	0.543
8.03807	0.53
8.07518	0.544
8.1123	0.583
8.14942	0.549
8.18654	0.461
8.22366	0.39
8.26077	0.495
8.29789	0.544
8.33501	0.563
8.37213	0.572
8.40924	0.58
8.44636	0.591
8.48348	0.592
8.5206	0.571
8.55772	0.526
8.59483	0.588
8.63195	0.605
8.66907	0.62
8.70619	0.64
8.7433	0.651
8.78042	0.62
8.81754	0.6
8.85466	0.65
8.89177	0.673
8.92889	0.684
8.96601	0.687
9.00313	0.685
9.04025	0.688
9.07736	0.698
9.11448	0.708
9.1516	0.712
9.18872	0.719
9.22583	0.718
9.26295	0.659
9.30007	0.517
9.33719	0.617
9.3743	0.665
9.41142	0.682
9.44854	0.66
9.48566	0.651
9.52278	0.67
9.55989	0.682
9.59701	0.691
9.63413	0.699
9.67125	0.662
9.70836	0.671
9.74548	0.695
9.7826	0.65
9.81972	0.619
9.85683	0.693
9.89395	0.707
9.93107	0.719
9.96819	0.722
10.0053	0.727
10.0424	0.722
10.0795	0.65
10.1167	0.5
10.1538	0.613
10.1909	0.687
10.228	0.701
10.2651	0.701
10.3022	0.712
10.3394	0.726
10.3765	0.726
10.4136	0.73
10.4507	0.73
10.4878	0.732
10.525	0.733
10.5621	0.744
10.5992	0.749
10.6363	0.76
10.6734	0.76
10.7105	0.763
10.7477	0.763
10.7848	0.772
10.8219	0.784
10.859	0.795
10.8961	0.787
10.9332	0.738
10.9704	0.739
11.0075	0.792
11.0446	0.815
11.0817	0.82
11.1188	0.821
11.156	0.825
11.1931	0.831
11.2302	0.832
11.2673	0.801
11.3044	0.755
11.3415	0.667
11.3787	0.366
11.4158	0.222
11.4529	0.391
11.49	0.515
11.5271	0.589
11.5642	0.623
11.6014	0.653
11.6385	0.656
11.6756	0.653
11.7127	0.656
11.7498	0.657
11.787	0.645
11.8241	0.648
11.8612	0.647
11.8983	0.605
11.9354	0.551
11.9725	0.472
12.0097	0.34
12.0468	0.199
12.0839	0.131
12.121	0.325
12.1581	0.585
12.1952	0.735
12.2324	0.797
12.2695	0.8
12.3066	0.772
12.3437	0.673
12.3808	0.625
12.418	0.724
12.4551	0.701
12.4922	0.653
12.5293	0.575
12.5664	0.455
12.6035	0.272
12.6407	0.153
12.6778	0.083
12.7149	0.085
12.752	0.176
12.7891	0.32
12.8263	0.5
12.8634	0.613
12.9005	0.678
12.9376	0.682
12.9747	0.63
13.0118	0.45
13.049	0.294
13.0861	0.134
13.1232	0.168
13.1603	0.27
13.1974	0.416
13.2345	0.52
13.2717	0.592
13.3088	0.651
13.3459	0.702
13.383	0.722
13.4201	0.747
13.4573	0.76
13.4944	0.766
13.5315	0.772
13.5686	0.78
13.6057	0.78
13.6428	0.781
13.68	0.783
13.7171	0.77
13.7542	0.732
13.7913	0.664
13.8284	0.56
13.8655	0.469
13.9027	0.456
13.9398	0.523
13.9769	0.626
14.014	0.732
14.0511	0.795
14.0883	0.832
14.1254	0.859
14.1625	0.888
14.1996	0.907
14.2367	0.917
14.2738	0.925
14.311	0.936
14.3481	0.938
14.3852	0.933
14.4223	0.938
14.4594	0.939
14.4965	0.927
14.5337	0.928
14.5708	0.924
14.6079	0.922
14.645	0.913
14.6821	0.91
14.7193	0.907
14.7564	0.9
14.7935	0.899
14.8306	0.897
14.8677	0.893
14.9048	0.891
14.942	0.891
14.9791	0.89
15.0162	0.873
15.0533	0.739
15.0904	0.701
15.1275	0.724
15.1647	0.769
15.2018	0.803
15.2389	0.828
15.276	0.826
15.3131	0.809
15.3503	0.78
15.3874	0.712
15.4245	0.625
15.4616	0.504
15.4987	0.41
15.5358	0.362
15.573	0.362
15.6101	0.4
15.6472	0.445
15.6843	0.484
15.7214	0.501
15.7585	0.527
15.7957	0.537
15.8328	0.546
15.8699	0.544
15.907	0.537
15.9441	0.537
15.9813	0.529
