Infrared Spectrum: FLUORENE, 2-NITRO-
Formula: C13 H9 N O2
CAS: 607-57-8
State: SOLID (OIL MULL)
Melting point: 158 C
Class: COBLENTZ III
Instrument: DOW KBr FOREPRISM-GRATING
Instrument parameters: BLAZED AT 3.5, 12.0, 20.0 MICRON AND CHANGED AT 5.0, 7.5, 14.9 MICRON
Sampling: TRANSMISSION
Resolution: 2
Origin: DOW CHEMICAL COMPANY
1/CM	TRANSMITTANCE
446	0.8991
455	0.9042
464	0.9081
473	0.917
482	0.9168
491	0.8912
500	0.9303
509	0.9394
518	0.9415
527	0.941
536	0.9328
545	0.9271
554	0.9394
563	0.9357
572	0.9475
581	0.9499
590	0.948
599	0.9467
608	0.9431
617	0.9409
626	0.9366
635	0.9009
644	0.9345
653	0.9321
662	0.9141
671	0.9221
680	0.9115
689	0.9164
698	0.9124
707	0.9021
716	0.8694
725	0.8447
734	0.7495
743	0.0584
752	0.7718
761	0.8937
770	0.8918
779	0.4593
788	0.8847
797	0.8496
806	0.8241
815	0.8983
824	0.8858
833	0.8554
842	0.6304
851	0.8771
860	0.8844
869	0.8667
878	0.8621
887	0.8361
896	0.8783
905	0.8623
914	0.7961
923	0.8644
932	0.7665
941	0.867
950	0.835
959	0.8391
968	0.8721
977	0.8837
986	0.8807
995	0.879
1004	0.8613
1013	0.8831
1022	0.8711
1031	0.8681
1040	0.8673
1049	0.8608
1058	0.8358
1067	0.7856
1076	0.7567
1085	0.8611
1094	0.8474
1103	0.8414
1112	0.8658
1121	0.8438
1130	0.8642
1139	0.859
1148	0.8386
1157	0.8491
1166	0.8421
1175	0.8334
1184	0.6132
1193	0.8271
1202	0.8309
1211	0.8523
1220	0.8564
1229	0.8368
1238	0.8445
1247	0.8371
1256	0.8217
1265	0.8048
1274	0.7906
1283	0.7619
1292	0.7118
1301	0.6241
1310	0.5737
1319	0.4737
1328	0.2122
1337	0.0248
1346	0.4039
1355	0.6674
1364	0.6931
1373	0.6596
1382	0.7247
1391	0.6217
1400	0.5824
1409	0.8064
1418	0.7758
1427	0.8018
1436	0.7221
1445	0.5402
1454	0.5037
1463	0.4719
1472	0.4568
1481	0.6788
1490	0.7864
1499	0.8018
1508	0.7444
1517	0.4082
1526	0.2301
1535	0.7769
1544	0.7737
1553	0.8156
1562	0.8303
1571	0.7981
1580	0.778
1589	0.6712
1598	0.7448
1607	0.7457
1616	0.6122
1625	0.8671
1634	0.8902
1643	0.9134
1652	0.8923
1661	0.8763
1670	0.8678
1679	0.8613
1688	0.87
1697	0.8644
1706	0.8515
1715	0.8284
1724	0.8328
1733	0.8399
1742	0.8607
1751	0.8613
1760	0.8667
1769	0.8624
1778	0.8688
1787	0.8656
1796	0.8566
1805	0.856
1814	0.8501
1823	0.8505
1832	0.8571
1841	0.8587
1850	0.8575
1859	0.8565
1868	0.8555
1877	0.8547
1886	0.8535
1895	0.8531
1904	0.8521
1913	0.8403
1922	0.8399
1931	0.8507
1940	0.8506
1949	0.8538
1958	0.8783
1967	0.8478
1976	0.8318
1985	0.8435
1994	0.8762
2003	0.8696
2012	0.8702
2021	0.8775
2030	0.8796
2039	0.8692
2048	0.863
2057	0.867
2066	0.8617
2075	0.8592
2084	0.8575
2093	0.8582
2102	0.8667
2111	0.8587
2120	0.8563
2129	0.8554
2138	0.8548
2147	0.8535
2156	0.8521
2165	0.8507
2174	0.8493
2183	0.8478
2192	0.8461
2201	0.8444
2210	0.8425
2219	0.8402
2228	0.8358
2237	0.8325
2246	0.8357
2255	0.8375
2264	0.8377
2273	0.8373
2282	0.8368
2291	0.8345
2300	0.832
2309	0.8294
2318	0.8233
2327	0.8244
2336	0.8246
2345	0.8228
2354	0.8217
2363	0.8215
2372	0.821
2381	0.8175
2390	0.8125
2399	0.8137
2408	0.8204
2417	0.8205
2426	0.8199
2435	0.8188
2444	0.8174
2453	0.8158
2462	0.8141
2471	0.8124
2480	0.8105
2489	0.8085
2498	0.8068
2507	0.8061
2516	0.8075
2525	0.8072
2534	0.8044
2543	0.8014
2552	0.7986
2561	0.7958
2570	0.793
2579	0.7906
2588	0.7884
2597	0.786
2606	0.7837
2615	0.7818
2624	0.7801
2633	0.7783
2642	0.7768
2651	0.7762
2660	0.7758
2669	0.7753
2678	0.7748
2687	0.7742
2696	0.7721
2705	0.7714
2714	0.7734
2723	0.7741
2732	0.7725
2741	0.7697
2750	0.7657
2759	0.761
2768	0.753
2777	0.7465
2786	0.7448
2795	0.7311
2804	0.7141
2813	0.6914
2822	0.6655
2831	0.6039
2840	0.3812
2849	0.154
2858	0.2102
2867	0.2616
2876	0.3409
2885	0.2849
2894	0.1999
2903	0.1134
2912	0.059
2921	0.0338
2930	0.0435
2939	0.141
2948	0.1352
2957	0.1404
2966	0.3782
2975	0.5233
2984	0.6468
2993	0.6771
3002	0.6915
3011	0.701
3020	0.7136
3029	0.7171
3038	0.718
3047	0.7188
3056	0.7232
3065	0.7155
3074	0.7145
3083	0.7203
3092	0.7026
3101	0.7164
3110	0.7415
3119	0.7456
3128	0.7471
3137	0.7478
3146	0.748
3155	0.7478
3164	0.748
3173	0.7481
3182	0.7481
3191	0.7481
3200	0.7487
3209	0.7519
3218	0.7547
3227	0.7567
3236	0.7582
3245	0.7582
3254	0.7583
3263	0.7586
3272	0.7591
3281	0.7596
3290	0.7596
3299	0.7594
3308	0.7581
3317	0.7567
3326	0.7551
3335	0.7541
3344	0.753
3353	0.7525
3362	0.7532
3371	0.7543
3380	0.7555
3389	0.7556
3398	0.7526
3407	0.749
3416	0.7458
3425	0.7426
3434	0.7401
3443	0.7376
3452	0.7356
3461	0.7339
3470	0.7321
3479	0.7305
3488	0.7289
3497	0.7274
3506	0.7258
3515	0.7242
3524	0.7228
3533	0.7215
3542	0.7201
3551	0.7188
3560	0.7175
3569	0.7165
3578	0.7157
3587	0.7147
3596	0.7137
3605	0.7125
3614	0.7112
3623	0.7101
3632	0.709
3641	0.7082
3650	0.7074
3659	0.7068
3668	0.7068
3677	0.7068
3686	0.7081
3695	0.7054
3704	0.7004
3713	0.6987
3722	0.6976
3731	0.6968
3740	0.6958
3749	0.6949
3758	0.6938
3767	0.6925
3776	0.6917
3785	0.691
3794	0.6905
