Infrared Spectrum: ISO-PROPYL SALICYLATE
Formula: C10 H12 O3
CAS: 607-85-2
State: LIQUID
Boiling point: 104-106 C AT 9 mmHg
Class: COBLENTZ
Instrument: Not specified, most likely a prism, grating, or hybrid spectrometer.
Sampling: TRANSMISSION
Path length: 0.003 CM
Resolution: 4
Origin: WYANDOTTE CHEMICALS CORP., WYANDOTTE, MICHIGAN, USA
MICROMETERS	TRANSMITTANCE
2.041	0.957
2.0819	0.958
2.12279	0.955
2.16369	0.952
2.20459	0.936
2.24548	0.95
2.28638	0.957
2.32728	0.953
2.36817	0.955
2.40907	0.96
2.44997	0.965
2.49086	0.969
2.53176	0.974
2.57266	0.979
2.61355	0.982
2.65445	0.991
2.69535	0.988
2.73624	0.984
2.77714	0.965
2.81804	0.919
2.85893	0.878
2.89983	0.806
2.94072	0.756
2.98162	0.753
3.02252	0.669
3.06341	0.494
3.10431	0.308
3.14521	0.234
3.1861	0.251
3.227	0.327
3.2679	0.412
3.30879	0.402
3.34969	0.392
3.39059	0.438
3.43148	0.585
3.47238	0.638
3.51328	0.736
3.55417	0.767
3.59507	0.792
3.63597	0.818
3.67686	0.833
3.71776	0.854
3.75866	0.875
3.79955	0.871
3.84045	0.885
3.88135	0.907
3.92224	0.905
3.96314	0.904
4.00404	0.904
4.04493	0.907
4.08583	0.907
4.12673	0.914
4.16762	0.933
4.20852	0.931
4.24942	0.916
4.29031	0.929
4.33121	0.941
4.37211	0.946
4.413	0.943
4.4539	0.945
4.4948	0.96
4.53569	0.95
4.57659	0.964
4.61748	0.974
4.65838	0.965
4.69928	0.955
4.74017	0.969
4.78107	0.957
4.82197	0.958
4.86286	0.965
4.90376	0.965
4.94466	0.97
4.98555	0.969
5.02645	0.967
5.06735	0.962
5.10824	0.95
5.14914	0.914
5.19004	0.909
5.23093	0.878
5.27183	0.922
5.31273	0.94
5.35362	0.952
5.39452	0.946
5.43542	0.929
5.47631	0.919
5.51721	0.892
5.55811	0.892
5.599	0.912
5.6399	0.892
5.6808	0.835
5.72169	0.794
5.76259	0.724
5.80349	0.594
5.84438	0.501
5.88528	0.273
5.92618	0.053
5.96707	0.027
6.00797	0.053
6.04887	0.231
6.08976	0.378
6.13066	0.202
6.17156	0.075
6.21245	0.26
6.25335	0.155
6.29424	0.404
6.33514	0.638
6.37604	0.676
6.41693	0.71
6.45783	0.695
6.49873	0.65
6.53962	0.582
6.58052	0.486
6.62142	0.369
6.66231	0.142
6.70321	0.032
6.74411	0.101
6.785	0.071
6.8259	0.162
6.8668	0.263
6.90769	0.258
6.94859	0.248
6.98949	0.232
7.03038	0.212
7.07128	0.188
7.11218	0.176
7.15307	0.133
7.19397	0.085
7.23487	0.037
7.27576	0.023
7.31666	0.029
7.35756	0.085
7.39845	0.131
7.43935	0.14
7.48025	0.159
7.52114	0.085
7.56204	0.061
7.60294	0.071
7.64383	0.022
7.68473	0.018
7.72563	0.027
7.76652	0.095
7.80742	0.219
7.84832	0.291
7.88921	0.311
7.93011	0.047
7.971	0.017
8.0119	0.032
8.0528	0.065
8.09369	0.056
8.13459	0.035
8.17549	0.015
8.21638	0.02
8.25728	0.023
8.29818	0.034
8.33907	0.056
8.37997	0.092
8.42087	0.078
8.46176	0.07
8.50266	0.116
8.54356	0.121
8.58445	0.042
8.62535	0.027
8.66625	0.152
8.70714	0.133
8.74804	0.152
8.78894	0.236
8.82983	0.378
8.87073	0.354
8.91163	0.244
8.95252	0.07
8.99342	0.015
9.03432	0.017
9.07521	0.073
9.11611	0.042
9.15701	0.018
9.1979	0.07
9.2388	0.234
9.2797	0.41
9.32059	0.515
9.36149	0.571
9.40239	0.623
9.44328	0.652
9.48418	0.681
9.52508	0.691
9.56597	0.69
9.60687	0.618
9.64776	0.4
9.68866	0.345
9.72956	0.619
9.77045	0.712
9.81135	0.761
9.85225	0.784
9.89314	0.799
9.93404	0.813
9.97494	0.82
10.0158	0.828
10.0567	0.828
10.0976	0.825
10.1385	0.823
10.1794	0.82
10.2203	0.816
10.2612	0.827
10.3021	0.835
10.343	0.837
10.3839	0.832
10.4248	0.804
10.4657	0.765
10.5066	0.734
10.5475	0.741
10.5884	0.782
10.6293	0.787
10.6702	0.789
10.7111	0.78
10.752	0.738
10.7929	0.684
10.8338	0.529
10.8747	0.32
10.9156	0.198
10.9565	0.308
10.9974	0.486
11.0382	0.69
11.0791	0.756
11.12	0.815
11.1609	0.827
11.2018	0.833
11.2427	0.837
11.2836	0.828
11.3245	0.823
11.3654	0.808
11.4063	0.784
11.4472	0.705
11.4881	0.541
11.529	0.303
11.5699	0.15
11.6108	0.313
11.6517	0.491
11.6926	0.657
11.7335	0.732
11.7744	0.763
11.8153	0.756
11.8562	0.722
11.8971	0.577
11.938	0.452
11.9789	0.547
12.0198	0.659
12.0607	0.719
12.1016	0.739
12.1425	0.753
12.1834	0.761
12.2242	0.765
12.2651	0.76
12.306	0.741
12.3469	0.705
12.3878	0.631
12.4287	0.496
12.4696	0.339
12.5105	0.212
12.5514	0.251
12.5923	0.38
12.6332	0.541
12.6741	0.604
12.715	0.626
12.7559	0.633
12.7968	0.625
12.8377	0.59
12.8786	0.546
12.9195	0.486
12.9604	0.39
13.0013	0.246
13.0422	0.125
13.0831	0.066
13.124	0.037
13.1649	0.034
13.2058	0.027
13.2467	0.03
13.2876	0.047
13.3285	0.075
13.3694	0.135
13.4103	0.171
13.4511	0.188
13.492	0.19
13.5329	0.186
13.5738	0.178
13.6147	0.176
13.6556	0.169
13.6965	0.167
13.7374	0.169
13.7783	0.174
13.8192	0.186
13.8601	0.196
13.901	0.203
13.9419	0.222
13.9828	0.241
14.0237	0.261
14.0646	0.273
14.1055	0.277
14.1464	0.289
14.1873	0.244
14.2282	0.164
14.2691	0.118
14.31	0.09
14.3509	0.125
14.3918	0.188
14.4327	0.265
14.4736	0.333
14.5145	0.393
14.5554	0.44
14.5963	0.474
14.6371	0.496
14.678	0.517
14.7189	0.535
14.7598	0.551
14.8007	0.559
14.8416	0.57
14.8825	0.566
14.9234	0.558
14.9643	0.529
15.0052	0.493
15.0461	0.455
15.087	0.424
15.1279	0.419
15.1688	0.464
15.2097	0.551
15.2506	0.601
15.2915	0.631
15.3324	0.655
15.3733	0.664
15.4142	0.667
15.4551	0.671
15.496	0.672
15.5369	0.672
15.5778	0.671
15.6187	0.672
15.6596	0.672
15.7005	0.667
15.7414	0.667
15.7823	0.659
15.8231	0.655
15.864	0.652
15.9049	0.648
15.9458	0.642
15.9867	0.645
