Infrared Spectrum: 5-METHYLISATIN
Formula: C9 H7 N O2
CAS: 608-05-9
State: SOLID (SPLIT MULL), FLUOROLUBE FOR 3800-1330 CM^-^1, NUJOL FOR 1330-400 CM^-^1
Class: COBLENTZ III
Instrument: DOW KBr FOREPRISM-GRATING
Instrument parameters: BLAZED AT 3.5, 12.0, 20.0 MICRON AND CHANGED AT 5.0, 7.5, 14.9 MICRON
Resolution: 2
Origin: DOW CHEMICAL COMPANY
1/CM	TRANSMITTANCE
386	0.7617
395	0.7769
404	0.7899
413	0.8002
422	0.8037
431	0.6652
440	0.8288
449	0.8305
458	0.6606
467	0.7834
476	0.8349
485	0.8488
494	0.8524
503	0.8511
512	0.8444
521	0.8341
530	0.8222
539	0.8027
548	0.7132
557	0.6832
566	0.7524
575	0.7373
584	0.7022
593	0.637
602	0.5594
611	0.4553
620	0.4164
629	0.5074
638	0.5981
647	0.4794
656	0.3774
665	0.4439
674	0.7263
683	0.7747
692	0.7893
701	0.7926
710	0.7821
719	0.7041
728	0.7123
737	0.4276
746	0.5997
755	0.7898
764	0.8027
773	0.7931
782	0.6615
791	0.7661
800	0.8434
809	0.8187
818	0.7323
827	0.7641
836	0.404
845	0.7761
854	0.8018
863	0.8059
872	0.8036
881	0.7955
890	0.779
899	0.685
908	0.7747
917	0.7714
926	0.766
935	0.7567
944	0.7443
953	0.7283
962	0.6852
971	0.6588
980	0.6122
989	0.7106
998	0.7038
1007	0.6595
1016	0.6539
1025	0.629
1034	0.6176
1043	0.6301
1052	0.598
1061	0.6095
1070	0.6148
1079	0.6105
1088	0.603
1097	0.5908
1106	0.5456
1115	0.5623
1124	0.4717
1133	0.1507
1142	0.5451
1151	0.6024
1160	0.5666
1169	0.5206
1178	0.4505
1187	0.3596
1196	0.1673
1205	0.3782
1214	0.5192
1223	0.5191
1232	0.4758
1241	0.5756
1250	0.5418
1259	0.4695
1268	0.514
1277	0.5023
1286	0.3168
1295	0.3503
1304	0.207
1313	0.2126
1322	0.5499
1331	0.6298
1340	0.607
1349	0.6322
1358	0.6573
1367	0.6646
1376	0.6633
1385	0.6606
1394	0.6742
1403	0.6719
1412	0.6596
1421	0.6524
1430	0.6332
1439	0.6283
1448	0.6474
1457	0.6498
1466	0.6379
1475	0.6053
1484	0.5117
1493	0.2216
1502	0.7318
1511	0.7671
1520	0.7791
1529	0.7608
1538	0.7502
1547	0.7365
1556	0.7191
1565	0.6972
1574	0.6758
1583	0.6455
1592	0.5946
1601	0.454
1610	0.5251
1619	0.4235
1628	0.2183
1637	0.5135
1646	0.7915
1655	0.7429
1664	0.699
1673	0.6753
1682	0.6387
1691	0.589
1700	0.5076
1709	0.3061
1718	0.3219
1727	0.4767
1736	0.263
1745	0.1981
1754	0.364
1763	0.6023
1772	0.7844
1781	0.8493
1790	0.8687
1799	0.8838
1808	0.8835
1817	0.8779
1826	0.8698
1835	0.8575
1844	0.846
1853	0.8344
1862	0.8253
1871	0.8321
1880	0.8271
1889	0.8249
1898	0.8208
1907	0.8115
1916	0.8034
1925	0.7989
1934	0.8053
1943	0.8037
1952	0.7994
1961	0.7958
1970	0.7913
1979	0.7868
1988	0.7824
1997	0.7781
2006	0.783
2015	0.7795
2024	0.7754
2033	0.7715
2042	0.7681
2051	0.7652
2060	0.7625
2069	0.76
2078	0.7574
2087	0.7553
2096	0.7524
2105	0.75
2114	0.7494
2123	0.7473
2132	0.7429
2141	0.7385
2150	0.7348
2159	0.7315
2168	0.7284
2177	0.7259
2186	0.7247
2195	0.7241
2204	0.723
2213	0.7194
2222	0.7138
2231	0.7059
2240	0.6991
2249	0.6928
2258	0.6864
2267	0.6804
2276	0.678
2285	0.6767
2294	0.6759
2303	0.675
2312	0.6729
2321	0.6698
2330	0.6754
2339	0.676
2348	0.6758
2357	0.6761
2366	0.6763
2375	0.6761
2384	0.6722
2393	0.6644
2402	0.6622
2411	0.6612
2420	0.6605
2429	0.6599
2438	0.66
2447	0.6601
2456	0.6604
2465	0.6608
2474	0.6613
2483	0.661
2492	0.6604
2501	0.6598
2510	0.6584
2519	0.657
2528	0.6557
2537	0.6544
2546	0.6528
2555	0.651
2564	0.6492
2573	0.6467
2582	0.6443
2591	0.6422
2600	0.6401
2609	0.6384
2618	0.6372
2627	0.6359
2636	0.6346
2645	0.6332
2654	0.6318
2663	0.6304
2672	0.6289
2681	0.627
2690	0.6248
2699	0.6217
2708	0.6189
2717	0.617
2726	0.6142
2735	0.6097
2744	0.609
2753	0.6098
2762	0.6102
2771	0.6077
2780	0.6022
2789	0.5949
2798	0.5889
2807	0.5866
2816	0.5858
2825	0.5844
2834	0.5809
2843	0.5752
2852	0.5698
2861	0.5656
2870	0.5633
2879	0.5626
2888	0.5584
2897	0.5506
2906	0.5428
2915	0.5353
2924	0.5368
2933	0.5494
2942	0.559
2951	0.5548
2960	0.5506
2969	0.55
2978	0.5503
2987	0.5511
2996	0.5534
3005	0.5571
3014	0.5622
3023	0.5629
3032	0.5626
3041	0.5622
3050	0.5613
3059	0.5593
3068	0.5569
3077	0.5539
3086	0.5507
3095	0.5475
3104	0.5442
3113	0.5399
3122	0.5357
3131	0.5315
3140	0.5269
3149	0.5221
3158	0.5169
3167	0.5097
3176	0.4996
3185	0.4867
3194	0.476
3203	0.4654
3212	0.4557
3221	0.4477
3230	0.443
3239	0.4397
3248	0.4331
3257	0.407
3266	0.3797
3275	0.3235
3284	0.2574
3293	0.2927
3302	0.4938
3311	0.5554
3320	0.5734
3329	0.5796
3338	0.5797
3347	0.5798
3356	0.5856
3365	0.5967
3374	0.6024
3383	0.6033
3392	0.6028
3401	0.6019
3410	0.6011
3419	0.6002
3428	0.5993
3437	0.5969
3446	0.5934
3455	0.5865
3464	0.5868
3473	0.5869
3482	0.5856
3491	0.5842
3500	0.5822
3509	0.5803
3518	0.5785
3527	0.5769
3536	0.5753
3545	0.5741
3554	0.5729
3563	0.5709
3572	0.5678
3581	0.5653
3590	0.5714
3599	0.5714
3608	0.5709
3617	0.5701
3626	0.5687
3635	0.5672
3644	0.5657
3653	0.5642
3662	0.5628
3671	0.5613
3680	0.5598
3689	0.5584
3698	0.5573
3707	0.5563
3716	0.5553
3725	0.5533
3734	0.5512
3743	0.5504
3752	0.5497
3761	0.5495
3770	0.5496
3779	0.5496
3788	0.5496
3797	0.5495
