Infrared Spectrum: DINITROMESITYLENE
Formula: C9 H10 N2 O4
CAS: 608-50-4
State: SOLID (MINERAL OIL MULL)
Melting point: 84-85 C
Class: COBLENTZ
Instrument: Not specified, most likely a prism, grating, or hybrid spectrometer.
Sampling: TRANSMISSION
Resolution: 4
Origin: WYANDOTTE CHEMICALS CORP., WYANDOTTE, MICHIGAN, USA
MICROMETERS	TRANSMITTANCE
2.153	0.544
2.19279	0.538
2.23258	0.539
2.27237	0.554
2.31216	0.559
2.35195	0.566
2.39174	0.571
2.43153	0.586
2.47132	0.584
2.51111	0.599
2.55091	0.609
2.5907	0.607
2.63049	0.624
2.67028	0.627
2.71007	0.64
2.74986	0.645
2.78965	0.634
2.82944	0.629
2.86923	0.622
2.90902	0.617
2.94881	0.612
2.9886	0.614
3.02839	0.617
3.06818	0.615
3.10797	0.61
3.14776	0.599
3.18755	0.594
3.22734	0.576
3.26713	0.514
3.30692	0.233
3.34672	0.067
3.38651	0.069
3.4263	0.087
3.46609	0.087
3.50588	0.331
3.54567	0.624
3.58546	0.693
3.62525	0.703
3.66504	0.685
3.70483	0.7
3.74462	0.713
3.78441	0.73
3.8242	0.738
3.86399	0.758
3.90378	0.763
3.94357	0.771
3.98336	0.778
4.02315	0.783
4.06294	0.778
4.10274	0.789
4.14253	0.779
4.18232	0.769
4.22211	0.773
4.2619	0.789
4.30169	0.811
4.34148	0.834
4.38127	0.847
4.42106	0.834
4.46085	0.831
4.50064	0.836
4.54043	0.852
4.58022	0.857
4.62001	0.859
4.6598	0.862
4.69959	0.862
4.73938	0.865
4.77917	0.877
4.81896	0.88
4.85876	0.879
4.89855	0.889
4.93834	0.889
4.97813	0.892
5.01792	0.899
5.05771	0.902
5.0975	0.905
5.13729	0.905
5.17708	0.903
5.21687	0.903
5.25666	0.903
5.29645	0.907
5.33624	0.908
5.37603	0.922
5.41582	0.92
5.45561	0.92
5.4954	0.923
5.53519	0.91
5.57498	0.915
5.61477	0.913
5.65457	0.913
5.69436	0.87
5.73415	0.88
5.77394	0.899
5.81373	0.889
5.85352	0.879
5.89331	0.879
5.9331	0.872
5.97289	0.85
6.01268	0.822
6.05247	0.799
6.09226	0.748
6.13205	0.703
6.17184	0.4
6.21163	0.251
6.25142	0.399
6.29121	0.433
6.331	0.41
6.37079	0.294
6.41059	0.197
6.45038	0.099
6.49017	0.061
6.52996	0.067
6.56975	0.067
6.60954	0.163
6.64933	0.248
6.68912	0.288
6.72891	0.248
6.7687	0.127
6.80849	0.125
6.84828	0.178
6.88807	0.274
6.92786	0.405
6.96765	0.549
7.00744	0.445
7.04723	0.337
7.08702	0.427
7.12681	0.326
7.16661	0.147
7.2064	0.19
7.24619	0.162
7.28598	0.079
7.32577	0.081
7.36556	0.149
7.40535	0.283
7.44514	0.4
7.48493	0.481
7.52472	0.546
7.56451	0.599
7.6043	0.614
7.64409	0.556
7.68388	0.63
7.72367	0.66
7.76346	0.66
7.80325	0.69
7.84304	0.708
7.88283	0.721
7.92263	0.746
7.96242	0.75
8.00221	0.758
8.042	0.745
8.08179	0.71
8.12158	0.763
8.16137	0.769
8.20116	0.766
8.24095	0.774
8.28074	0.778
8.32053	0.791
8.36032	0.798
8.40011	0.804
8.4399	0.809
8.47969	0.816
8.51948	0.802
8.55927	0.807
8.59906	0.816
8.63885	0.821
8.67864	0.826
8.71844	0.831
8.75823	0.834
8.79802	0.814
8.83781	0.846
8.8776	0.847
8.91739	0.852
8.95718	0.841
8.99697	0.844
9.03676	0.841
9.07655	0.837
9.11634	0.831
9.15613	0.822
9.19592	0.819
9.23571	0.814
9.2755	0.809
9.31529	0.817
9.35508	0.809
9.39487	0.799
9.43466	0.799
9.47446	0.799
9.51425	0.798
9.55404	0.708
9.59383	0.597
9.63362	0.6
9.67341	0.64
9.7132	0.678
9.75299	0.764
9.79278	0.802
9.83257	0.827
9.87236	0.841
9.91215	0.85
9.95194	0.86
9.99173	0.865
10.0315	0.867
10.0713	0.864
10.1111	0.872
10.1509	0.86
10.1907	0.869
10.2305	0.859
10.2703	0.857
10.3101	0.859
10.3498	0.864
10.3896	0.872
10.4294	0.867
10.4692	0.865
10.509	0.859
10.5488	0.862
10.5886	0.877
10.6284	0.879
10.6682	0.884
10.708	0.885
10.7478	0.887
10.7875	0.89
10.8273	0.895
10.8671	0.9
10.9069	0.902
10.9467	0.905
10.9865	0.913
11.0263	0.918
11.0661	0.922
11.1059	0.923
11.1457	0.91
11.1854	0.913
11.2252	0.907
11.265	0.9
11.3048	0.864
11.3446	0.773
11.3844	0.395
11.4242	0.504
11.464	0.677
11.5038	0.607
11.5436	0.359
11.5834	0.326
11.6231	0.508
11.6629	0.683
11.7027	0.768
11.7425	0.821
11.7823	0.852
11.8221	0.877
11.8619	0.89
11.9017	0.902
11.9415	0.902
11.9813	0.834
12.021	0.392
12.0608	0.549
12.1006	0.798
12.1404	0.857
12.1802	0.887
12.22	0.907
12.2598	0.918
12.2996	0.923
12.3394	0.927
12.3792	0.927
12.419	0.937
12.4587	0.93
12.4985	0.937
12.5383	0.93
12.5781	0.93
12.6179	0.938
12.6577	0.94
12.6975	0.93
12.7373	0.933
12.7771	0.933
12.8169	0.925
12.8566	0.92
12.8964	0.908
12.9362	0.872
12.976	0.751
13.0158	0.673
13.0556	0.778
13.0954	0.837
13.1352	0.826
13.175	0.822
13.2148	0.857
13.2546	0.889
13.2943	0.905
13.3341	0.91
13.3739	0.91
13.4137	0.913
13.4535	0.903
13.4933	0.9
13.5331	0.892
13.5729	0.899
13.6127	0.887
13.6525	0.89
13.6922	0.879
13.732	0.882
13.7718	0.884
13.8116	0.872
13.8514	0.869
13.8912	0.869
13.931	0.87
13.9708	0.882
14.0106	0.884
14.0504	0.885
14.0902	0.872
14.1299	0.837
14.1697	0.799
14.2095	0.756
14.2493	0.733
14.2891	0.728
14.3289	0.759
14.3687	0.783
14.4085	0.811
14.4483	0.819
14.4881	0.816
14.5279	0.794
14.5676	0.761
14.6074	0.741
14.6472	0.743
14.687	0.766
14.7268	0.796
14.7666	0.821
14.8064	0.831
14.8462	0.855
14.886	0.857
14.9258	0.869
14.9655	0.867
15.0053	0.85
15.0451	0.801
15.0849	0.783
15.1247	0.798
15.1645	0.821
15.2043	0.834
15.2441	0.839
15.2839	0.844
15.3237	0.852
15.3635	0.841
15.4032	0.834
15.443	0.819
15.4828	0.819
15.5226	0.809
15.5624	0.809
15.6022	0.791
15.642	0.783
15.6818	0.759
15.7216	0.746
15.7614	0.71
15.8011	0.675
15.8409	0.65
15.8807	0.645
15.9205	0.645
15.9603	0.657
16.0001	0.672
