Infrared Spectrum: BENZENE, PENTACHLORO-
Formula: C6 H Cl5
CAS: 608-93-5
State: SOLUTION (10% IN CCl4 FOR 3800-1333 AND 10% IN CS2 FOR 1333-450 CM^-^1) VS. SOLVENT
Melting point: 85 C
Class: COBLENTZ III
Instrument: DOW KBr FOREPRISM-GRATING
Instrument parameters: BLAZED AT 3.5, 12.0, 20.0 MICRON, CHANGED AT 5.0, 7.5, 14.9 MICRON
Sampling: TRANSMISSION
Path length: 0.011, 0.011 CM
Resolution: 4
Origin: DOW CHEMICAL COMPANY
1/CM	TRANSMITTANCE
448.643	1.1
457.329	1.086
466.015	1.072
474.702	1.062
483.388	1.058
492.074	1.055
500.76	1.048
509.447	1.04
518.133	1.027
526.819	0.789
535.505	1.014
544.191	1.001
552.878	0.96
561.564	0.726
570.25	0.953
578.936	1.019
587.622	1.024
596.309	1.019
604.995	1.016
613.681	1.013
622.367	1.016
631.054	1.014
639.74	1.01
648.426	1.005
657.112	0.99
665.798	0.968
674.485	0.7809
683.171	0.085
691.857	0.823
700.543	0.8469
709.229	0.963
717.916	1.005
726.602	1.012
735.288	1.013
743.974	1.021
752.661	1.019
761.347	1.013
770.033	1.013
778.719	1.004
787.405	1.004
796.092	0.982
804.778	0.974
813.464	0.896
822.15	0.1599
830.836	0.884
839.523	0.963
848.209	0.979
856.895	0.88
865.581	0.2182
874.268	0.911
882.954	0.971
891.64	0.985
900.326	0.989
909.012	0.989
917.699	0.985
926.385	0.985
935.071	0.971
943.757	0.968
952.443	0.989
961.13	0.991
969.816	0.985
978.502	0.998
987.188	0.998
995.875	1
1004.56	1.002
1013.25	1.004
1021.93	0.998
1030.62	1.002
1039.31	1.002
1047.99	0.987
1056.68	1
1065.36	0.99
1074.05	0.957
1082.74	0.8109
1091.42	0.8191
1100.11	0.986
1108.8	0.997
1117.48	0.998
1126.17	0.998
1134.85	1.006
1143.54	1.001
1152.23	0.991
1160.91	0.9099
1169.6	0.1262
1178.29	0.926
1186.97	0.983
1195.66	0.994
1204.34	0.895
1213.03	0.941
1221.72	0.959
1230.4	0.938
1239.09	0.971
1247.77	1.004
1256.46	1.004
1265.15	0.991
1273.83	0.993
1282.52	0.989
1291.21	0.974
1299.89	0.8071
1308.58	0.925
1317.26	0.866
1325.95	0.5589
1334.64	0.01
1343.32	0.4481
1352.01	0.8311
1360.7	0.952
1369.38	0.942
1378.07	0.921
1386.75	0.6919
1395.44	0.054
1404.13	0.0502
1412.81	0.6611
1421.5	0.816
1430.19	0.903
1438.87	0.891
1447.56	0.923
1456.24	0.957
1464.93	0.959
1473.62	0.993
1482.3	1
1490.99	0.994
1499.67	0.987
1508.36	0.98
1517.05	0.942
1525.73	0.7469
1534.42	0.694
1543.11	0.857
1551.79	0.845
1560.48	0.725
1569.16	0.991
1577.85	1.01
1586.54	1.01
1595.22	1.014
1603.91	1.013
1612.6	1.008
1621.28	1.005
1629.97	1.008
1638.65	1.01
1647.34	1.017
1656.03	1.012
1664.71	1.008
1673.4	1.005
1682.09	1
1690.77	1
1699.46	1.001
1708.14	1
1716.83	0.982
1725.52	0.941
1734.2	0.967
1742.89	0.987
1751.58	0.994
1760.26	0.995
1768.95	0.998
1777.63	1.001
1786.32	1
1795.01	1
1803.69	0.998
1812.38	0.995
1821.06	0.998
1829.75	0.995
1838.44	0.994
1847.12	0.994
1855.81	0.993
1864.5	0.991
1873.18	0.987
1881.87	0.993
1890.55	0.991
1899.24	0.995
1907.93	0.995
1916.61	0.993
1925.3	0.994
1933.99	0.998
1942.67	1.001
1951.36	1.002
1960.04	0.995
1968.73	0.995
1977.42	0.995
1986.1	0.997
1994.79	0.99
2003.48	1.013
2012.16	1.013
2020.85	1.013
2029.53	1.008
2038.22	1.019
2046.91	1.014
2055.59	1.005
2064.28	1.006
2072.97	1.002
2081.65	1.012
2090.34	1.004
2099.02	1.006
2107.71	1.01
2116.4	1.017
2125.08	1.012
2133.77	1.009
2142.45	1.01
2151.14	1.01
2159.83	1.006
2168.51	1.009
2177.2	1.01
2185.89	1.009
2194.57	1.008
2203.26	1.0061
2211.94	1
2220.63	1
2229.32	1.001
2238	1.0021
2246.69	1.006
2255.38	1.008
2264.06	1.0061
2272.75	1.004
2281.43	1.001
2290.12	1.004
2298.81	1.001
2307.49	1.0021
2316.18	1
2324.87	1.004
2333.55	0.998
2342.24	0.9945
2350.92	1.0039
2359.61	0.9948
2368.3	1.0089
2376.98	0.998
2385.67	1
2394.36	1
2403.04	1.002
2411.73	1
2420.41	1.0009
2429.1	1
2437.79	1.001
2446.47	1
2455.16	0.997
2463.84	0.998
2472.53	0.998
2481.22	0.998
2489.9	0.9999
2498.59	1
2507.28	1
2515.96	1
2524.65	1
2533.33	1.002
2542.02	1
2550.71	0.997
2559.39	0.9911
2568.08	0.991
2576.77	0.998
2585.45	1
2594.14	1
2602.82	0.998
2611.51	0.998
2620.2	0.995
2628.88	0.995
2637.57	0.998
2646.26	1
2654.94	1
2663.63	1
2672.31	0.997
2681	0.997
2689.69	0.9951
2698.37	0.994
2707.06	0.9941
2715.74	0.993
2724.43	0.994
2733.12	0.9931
2741.8	0.9929
2750.49	0.9901
2759.18	0.979
2767.86	0.9829
2776.55	0.99
2785.23	0.989
2793.92	0.9888
2802.61	0.9929
2811.29	0.9949
2819.98	0.9951
2828.67	0.993
2837.35	0.993
2846.04	0.9872
2854.72	0.9909
2863.41	0.994
2872.1	0.9949
2880.78	0.995
2889.47	0.993
2898.16	0.993
2906.84	0.9901
2915.53	0.9861
2924.21	0.99
2932.9	0.9909
2941.59	0.993
2950.27	0.991
2958.96	0.99
2967.65	0.994
2976.33	0.995
2985.02	0.9979
2993.7	1.0009
3002.39	1.0009
3011.08	0.9971
3019.76	0.9949
3028.45	1
3037.13	1
3045.82	0.9951
3054.51	0.9912
3063.19	0.9781
3071.88	0.9155
3080.57	0.9397
3089.25	0.9679
3097.94	0.9789
3106.62	0.9682
3115.31	0.9485
3124	0.9606
3132.68	0.986
3141.37	0.9948
3150.06	1.0009
3158.74	1.004
3167.43	1.004
3176.11	1.008
3184.8	1.0049
3193.49	1.01
3202.17	1.0118
3210.86	1.0099
3219.55	1.013
3228.23	1.013
3236.92	1.013
3245.6	1.013
3254.29	1.016
3262.98	1.0188
3271.66	1.0169
3280.35	1.02
3289.04	1.019
3297.72	1.019
3306.41	1.019
3315.09	1.0142
3323.78	1.0169
3332.47	1.017
3341.15	1.013
3349.84	1.014
3358.52	1.014
3367.21	1.014
3375.9	1.013
3384.58	1.0102
3393.27	1.009
3401.96	1.0118
3410.64	1.0081
3419.33	1.008
3428.01	1.0051
3436.7	1.008
3445.39	1.0081
3454.07	1.005
3462.76	1.009
3471.45	1.0118
3480.13	1.009
3488.82	1.009
3497.5	1.009
3506.19	1.0081
3514.88	1.006
3523.56	1.0078
3532.25	1.006
3540.94	1.005
3549.62	1.005
3558.31	1.0051
3566.99	1.009
3575.68	1.0062
3584.37	1.005
3593.05	1.008
3601.74	1.0062
3610.43	1.005
3619.11	1.006
3627.8	1.0011
3636.48	1.002
3645.17	1.004
3653.86	1.002
3662.54	1.001
3671.23	1.001
3679.91	1.002
3688.6	1.0049
3697.29	1.005
3705.97	1.004
3714.66	1.002
3723.35	1.001
3732.03	1.001
3740.72	1.001
3749.4	1.001
3758.09	1.002
3766.78	1.002
3775.46	1.001
3784.15	1.001
3792.84	1.001
