Infrared Spectrum: 2-Pentanol, 3-ethyl-
Formula: C7 H16 O
CAS: 609-27-8
State: SOLUTION (10% CCl4 FOR 3800-1330, 10% CS2 FOR 1330-460 CM^-^1) VS SOLVENT
Class: COBLENTZ III
Instrument: DOW KBr FOREPRISM-GRATING
Instrument parameters: BLAZED AT 3.5, 12.0, 20.0 MICRON AND CHANGED AT 5.0, 7.5, 14.9 MICRON
Sampling: TRANSMISSION
Path length: 0.011 CM, 0.011 CM
Resolution: 2
Origin: DOW CHEMICAL COMPANY
1/CM	TRANSMITTANCE
461	0.7729
470	0.7631
479	0.7498
488	0.7265
497	0.7324
506	0.7342
515	0.7401
524	0.7483
533	0.7532
542	0.7534
551	0.7509
560	0.7416
569	0.7288
578	0.7342
587	0.7251
596	0.7098
605	0.7207
614	0.7182
623	0.7271
632	0.7439
641	0.7568
650	0.7683
659	0.7796
668	0.7903
677	0.7873
686	0.7921
695	0.8081
704	0.8214
713	0.8308
722	0.818
731	0.7949
740	0.7941
749	0.8186
758	0.8554
767	0.8283
776	0.8007
785	0.8891
794	0.9
803	0.8888
812	0.8678
821	0.833
830	0.6829
839	0.8332
848	0.8863
857	0.8518
866	0.531
875	0.4807
884	0.8196
893	0.8687
902	0.8237
911	0.7029
920	0.7452
929	0.5818
938	0.3033
947	0.6516
956	0.8328
965	0.872
974	0.8775
983	0.8538
992	0.7456
1001	0.5431
1010	0.3759
1019	0.2985
1028	0.5071
1037	0.4344
1046	0.5635
1055	0.5989
1064	0.4889
1073	0.436
1082	0.3943
1091	0.3435
1100	0.2991
1109	0.421
1118	0.5055
1127	0.52
1136	0.5842
1145	0.5336
1154	0.4727
1163	0.5393
1172	0.717
1181	0.8067
1190	0.8272
1199	0.8218
1208	0.7885
1217	0.7353
1226	0.67
1235	0.6099
1244	0.557
1253	0.5503
1262	0.5684
1271	0.5853
1280	0.563
1289	0.5592
1298	0.5582
1307	0.5711
1316	0.6036
1325	0.639
1334	0.6197
1343	0.6394
1352	0.6205
1361	0.5825
1370	0.385
1379	0.1849
1388	0.3444
1397	0.5006
1406	0.5529
1415	0.5939
1424	0.6234
1433	0.6155
1442	0.5028
1451	0.3127
1460	0.1603
1469	0.1736
1478	0.5029
1487	0.7515
1496	0.7815
1505	0.8082
1514	0.8322
1523	0.8528
1532	0.8676
1541	0.8865
1550	0.8912
1559	0.8864
1568	0.8774
1577	0.8695
1586	0.8662
1595	0.864
1604	0.8585
1613	0.8528
1622	0.8482
1631	0.8464
1640	0.8493
1649	0.8538
1658	0.8554
1667	0.8567
1676	0.8589
1685	0.8577
1694	0.851
1703	0.8394
1712	0.8285
1721	0.8313
1730	0.8439
1739	0.857
1748	0.8627
1757	0.8668
1766	0.8689
1775	0.8718
1784	0.8742
1793	0.8765
1802	0.8785
1811	0.8806
1820	0.8828
1829	0.8851
1838	0.8866
1847	0.8853
1856	0.8839
1865	0.8823
1874	0.8806
1883	0.879
1892	0.8791
1901	0.8843
1910	0.8851
1919	0.8845
1928	0.8851
1937	0.8854
1946	0.8856
1955	0.8894
1964	0.8906
1973	0.8918
1982	0.8921
1991	0.8924
2000	0.9269
2009	0.9431
2018	0.9429
2027	0.9425
2036	0.9423
2045	0.9421
2054	0.9419
2063	0.9419
2072	0.9419
2081	0.942
2090	0.942
2099	0.9417
2108	0.9413
2117	0.9407
2126	0.9389
2135	0.937
2144	0.9355
2153	0.934
2162	0.9324
2171	0.9306
2180	0.9289
2189	0.9271
2198	0.925
2207	0.9229
2216	0.9213
2225	0.92
2234	0.9187
2243	0.9174
2252	0.9164
2261	0.9154
2270	0.9143
2279	0.9133
2288	0.9126
2297	0.9118
2306	0.9112
2315	0.9104
2324	0.9098
2333	0.9095
2342	0.9101
2351	0.9107
2360	0.9111
2369	0.9103
2378	0.9058
2387	0.8976
2396	0.8923
2405	0.8942
2414	0.8969
2423	0.8989
2432	0.9004
2441	0.901
2450	0.9007
2459	0.8967
2468	0.8941
2477	0.8932
2486	0.8933
2495	0.8929
2504	0.8925
2513	0.892
2522	0.8917
2531	0.89
2540	0.8881
2549	0.885
2558	0.8812
2567	0.8761
2576	0.8711
2585	0.867
2594	0.863
2603	0.8592
2612	0.8556
2621	0.852
2630	0.8487
2639	0.8453
2648	0.8426
2657	0.8409
2666	0.8392
2675	0.838
2684	0.836
2693	0.8327
2702	0.8273
2711	0.8195
2720	0.8099
2729	0.7992
2738	0.7899
2747	0.7931
2756	0.8059
2765	0.8079
2774	0.8053
2783	0.7982
2792	0.7853
2801	0.7711
2810	0.7532
2819	0.7284
2828	0.6962
2837	0.6497
2846	0.5831
2855	0.4701
2864	0.3134
2873	0.173
2882	0.0332
2891	0.0985
2900	0.1253
2909	0.1093
2918	0.0848
2927	0.0604
2936	0.0359
2945	0.0339
2954	0.0651
2963	0.0209
2972	0.0039
2981	0.0078
2990	0.08
2999	0.2355
3008	0.4674
3017	0.6476
3026	0.7144
3035	0.7493
3044	0.7724
3053	0.7897
3062	0.8021
3071	0.8111
3080	0.8167
3089	0.8204
3098	0.8214
3107	0.8214
3116	0.8205
3125	0.818
3134	0.8142
3143	0.8094
3152	0.8026
3161	0.7952
3170	0.7866
3179	0.7767
3188	0.7662
3197	0.7548
3206	0.7435
3215	0.7268
3224	0.7103
3233	0.6945
3242	0.6772
3251	0.6581
3260	0.6376
3269	0.6135
3278	0.5863
3287	0.5532
3296	0.521
3305	0.4953
3314	0.4704
3323	0.4371
3332	0.4141
3341	0.3916
3350	0.3707
3359	0.354
3368	0.3438
3377	0.3362
3386	0.3318
3395	0.3308
3404	0.3325
3413	0.3368
3422	0.343
3431	0.3522
3440	0.365
3449	0.3779
3458	0.3914
3467	0.4008
3476	0.408
3485	0.4151
3494	0.4264
3503	0.4379
3512	0.4531
3521	0.4707
3530	0.5114
3539	0.5797
3548	0.6248
3557	0.6738
3566	0.7175
3575	0.7567
3584	0.7737
3593	0.7772
3602	0.7687
3611	0.7142
3620	0.6274
3629	0.5405
3638	0.5303
3647	0.6441
3656	0.809
3665	0.8374
3674	0.8389
3683	0.8333
3692	0.839
3701	0.8559
3710	0.8668
3719	0.8731
3728	0.8768
3737	0.8801
3746	0.8817
3755	0.8827
3764	0.8839
3773	0.8856
3782	0.8873
3791	0.8887
3800	0.89
3809	0.8908
