Infrared Spectrum: 1-Iodo-2-nitrobenzene
Formula: C6 H4 I N O2
CAS: 609-73-4
State: SOLUTION (10% CCl4 FOR 3800-1350, 10% CS2 FOR 1350-420)
Class: COBLENTZ III
Instrument: DOW KBr FOREPRISM-GRATING
Instrument parameters: BLAZED AT 3.5, 12.0, 20.0 AND CHANGED AT 5.0, 7.5, 14.9 MICRON
Sampling: TRANSMISSION
Path length: 0.011 CM, 0.011 CM
Resolution: 2
Origin: DOW CHEMICAL COMPANY
1/CM	TRANSMITTANCE
3800	0.944
3791	0.9458
3782	0.9437
3773	0.9455
3764	0.9453
3755	0.9452
3746	0.9451
3737	0.9469
3728	0.9444
3719	0.9394
3710	0.9405
3701	0.9413
3692	0.9392
3683	0.9381
3674	0.9393
3665	0.9405
3656	0.9417
3647	0.9426
3638	0.9433
3629	0.944
3620	0.9468
3611	0.9475
3602	0.9463
3593	0.9478
3584	0.9482
3575	0.947
3566	0.9466
3557	0.9467
3548	0.9489
3539	0.9482
3530	0.9488
3521	0.9466
3512	0.9465
3503	0.9463
3494	0.9462
3485	0.946
3476	0.9458
3467	0.9454
3458	0.9452
3449	0.9449
3440	0.9446
3431	0.9443
3422	0.9448
3413	0.9452
3404	0.9457
3395	0.9462
3386	0.9467
3377	0.9471
3368	0.9477
3359	0.9481
3350	0.9485
3341	0.9489
3332	0.9493
3323	0.9497
3314	0.9502
3305	0.9526
3296	0.9512
3287	0.9515
3278	0.9532
3269	0.9539
3260	0.9537
3251	0.9537
3242	0.9534
3233	0.9531
3224	0.9528
3215	0.9529
3206	0.9507
3197	0.9512
3188	0.9505
3179	0.9467
3170	0.9432
3161	0.9403
3152	0.9405
3143	0.9386
3134	0.9401
3125	0.9387
3116	0.9357
3107	0.9322
3098	0.9199
3089	0.9047
3080	0.8992
3071	0.9055
3062	0.8528
3053	0.89
3044	0.9265
3035	0.938
3026	0.9301
3017	0.9318
3008	0.93
2999	0.9301
2990	0.9324
2981	0.9343
2972	0.9404
2963	0.9458
2954	0.9487
2945	0.9496
2936	0.9474
2927	0.9367
2918	0.9314
2909	0.9307
2900	0.9291
2891	0.9186
2882	0.9032
2873	0.8876
2864	0.8773
2855	0.8848
2846	0.9087
2837	0.9273
2828	0.9309
2819	0.9346
2810	0.9347
2801	0.9381
2792	0.9382
2783	0.9378
2774	0.9392
2765	0.939
2756	0.9389
2747	0.9387
2738	0.9385
2729	0.9381
2720	0.9372
2711	0.9356
2702	0.9335
2693	0.9313
2684	0.9299
2675	0.9295
2666	0.9307
2657	0.9368
2648	0.9403
2639	0.9429
2630	0.9446
2621	0.9438
2612	0.9397
2603	0.9359
2594	0.9337
2585	0.9328
2576	0.9325
2567	0.933
2558	0.9339
2549	0.936
2540	0.9389
2531	0.9409
2522	0.9438
2513	0.9429
2504	0.941
2495	0.9395
2486	0.9383
2477	0.9396
2468	0.9395
2459	0.9402
2450	0.9396
2441	0.9424
2432	0.9437
2423	0.9446
2414	0.9436
2405	0.9437
2396	0.94
2387	0.9363
2378	0.9336
2369	0.9376
2360	0.9455
2351	0.9515
2342	0.9517
2333	0.9505
2324	0.9554
2315	0.9544
2306	0.9532
2297	0.9541
2288	0.9517
2279	0.9487
2270	0.9456
2261	0.943
2252	0.9414
2243	0.9405
2234	0.9423
2225	0.9461
2216	0.9477
2207	0.9495
2198	0.9501
2189	0.9478
2180	0.9443
2171	0.9459
2162	0.9452
2153	0.9462
2144	0.9469
2135	0.9473
2126	0.9474
2117	0.9475
2108	0.9477
2099	0.9479
2090	0.948
2081	0.9478
2072	0.9475
2063	0.9458
2054	0.9439
2045	0.9383
2036	0.9368
2027	0.9402
2018	0.9414
2009	0.9417
2000	0.9419
1991	0.9378
1982	0.9326
1973	0.922
1964	0.9091
1955	0.9416
1946	0.9362
1937	0.9146
1928	0.9043
1919	0.9205
1910	0.9345
1901	0.9248
1892	0.9282
1883	0.9324
1874	0.9364
1865	0.9299
1856	0.9235
1847	0.9194
1838	0.9288
1829	0.9283
1820	0.9099
1811	0.9068
1802	0.9258
1793	0.9351
1784	0.9351
1775	0.9363
1766	0.9297
1757	0.926
1748	0.9313
1739	0.9289
1730	0.9209
1721	0.9181
1712	0.925
1703	0.9324
1694	0.935
1685	0.9298
1676	0.9247
1667	0.9238
1658	0.9167
1649	0.9039
1640	0.8946
1631	0.896
1622	0.8846
1613	0.8547
1604	0.7852
1595	0.5201
1586	0.2104
1577	0.3645
1568	0.5651
1559	0.579
1550	0.1234
1541	0.0461
1532	0.0053
1523	0.3774
1514	0.6061
1505	0.6816
1496	0.756
1487	0.8202
1478	0.8543
1469	0.8081
1460	0.3849
1451	0.8234
1442	0.8292
1433	0.7898
1424	0.8597
1415	0.8881
1406	0.8908
1397	0.8925
1388	0.8592
1379	0.8017
1370	0.6358
1361	0.2714
1352	0.0734
1343	0.0978
1334	0.5618
1325	0.7304
1316	0.7948
1307	0.8215
1298	0.7545
1289	0.7133
1280	0.8447
1271	0.8643
1262	0.8512
1253	0.6362
1244	0.8767
1235	0.9087
1226	0.9229
1217	0.9321
1208	0.9397
1199	0.9391
1190	0.9361
1181	0.906
1172	0.9115
1163	0.8497
1154	0.9034
1145	0.8962
1136	0.903
1127	0.9246
1118	0.9334
1109	0.8993
1100	0.9084
1091	0.9201
1082	0.9273
1073	0.9269
1064	0.9304
1055	0.9265
1046	0.9142
1037	0.8089
1028	0.5845
1019	0.5956
1010	0.8394
1001	0.9011
992	0.9117
983	0.9141
974	0.9165
965	0.9176
956	0.9129
947	0.8242
938	0.9133
929	0.9272
920	0.9306
911	0.9322
902	0.9303
893	0.9319
884	0.9392
875	0.9278
866	0.8906
857	0.703
848	0.5376
839	0.8879
830	0.9128
821	0.9184
812	0.9233
803	0.9247
794	0.9203
785	0.837
776	0.3729
767	0.8069
758	0.8541
749	0.8501
740	0.7867
731	0.238
722	0.5234
713	0.8288
704	0.864
695	0.4355
686	0.8238
677	0.9
668	0.953
659	0.9526
650	0.9135
641	0.9029
632	0.7505
623	0.9387
614	0.9528
605	0.9546
596	0.9577
587	0.9488
578	0.9388
569	0.9328
560	0.9312
551	0.9379
542	0.9405
533	0.9437
524	0.9424
515	0.9349
506	0.9258
497	0.9156
488	0.9054
479	0.8932
470	0.8771
461	0.8482
452	0.8034
443	0.7901
434	0.7875
425	0.7854
