Infrared Spectrum: Alpha-Cyclopropyl-2-thiophenemethanol
Formula: C8 H10 O S
CAS: 60942-21-4
State: LIQUID (NEAT)
Class: COBLENTZ II
Instrument: DOW KBr FOREPRISM-GRATING
Instrument parameters: BLAZED AT 3.5, 12.0, 20.0 MICRON AND CHANGED AT 5.0, 7.5, 14.9 MICRON
Sampling: TRANSMISSION
Path length: CAPILLARY
Resolution: 2
Origin: DOW CHEMICAL COMPANY
1/CM	TRANSMITTANCE
459	0.6545
468	0.6415
477	0.6328
486	0.6264
495	0.6283
504	0.6414
513	0.6446
522	0.6406
531	0.6465
540	0.6681
549	0.6774
558	0.6745
567	0.6718
576	0.6672
585	0.6597
594	0.655
603	0.6675
612	0.6821
621	0.683
630	0.6903
639	0.6714
648	0.6875
657	0.6936
666	0.6897
675	0.6626
684	0.5331
693	0.1943
702	0.1495
711	0.3077
720	0.4983
729	0.6384
738	0.6999
747	0.6931
756	0.6821
765	0.7564
774	0.75
783	0.7438
792	0.7491
801	0.7718
810	0.7598
819	0.6408
828	0.3718
837	0.4727
846	0.6304
855	0.4668
864	0.6625
873	0.8011
882	0.8135
891	0.8028
900	0.7826
909	0.6975
918	0.553
927	0.7276
936	0.5502
945	0.6875
954	0.7021
963	0.6864
972	0.7226
981	0.6682
990	0.5115
999	0.3627
1008	0.2856
1017	0.2777
1026	0.1633
1035	0.2926
1044	0.4008
1053	0.5176
1062	0.6719
1071	0.7119
1080	0.7418
1089	0.7746
1098	0.7217
1107	0.688
1116	0.6678
1125	0.649
1134	0.6228
1143	0.6545
1152	0.6518
1161	0.557
1170	0.6108
1179	0.6994
1188	0.7407
1197	0.7319
1206	0.7389
1215	0.6495
1224	0.5538
1233	0.5581
1242	0.6642
1251	0.6366
1260	0.5826
1269	0.5602
1278	0.5692
1287	0.5901
1296	0.5699
1305	0.6186
1314	0.6886
1323	0.7288
1332	0.7553
1341	0.7341
1350	0.658
1359	0.6471
1368	0.6769
1377	0.6746
1386	0.633
1395	0.6
1404	0.6074
1413	0.6336
1422	0.6375
1431	0.5279
1440	0.5892
1449	0.7246
1458	0.7356
1467	0.7587
1476	0.8241
1485	0.8418
1494	0.8489
1503	0.8488
1512	0.8497
1521	0.8446
1530	0.8161
1539	0.8224
1548	0.8487
1557	0.8592
1566	0.8646
1575	0.8646
1584	0.8605
1593	0.8539
1602	0.852
1611	0.8536
1620	0.8509
1629	0.8474
1638	0.847
1647	0.8503
1656	0.8566
1665	0.8541
1674	0.864
1683	0.87
1692	0.8734
1701	0.8716
1710	0.8677
1719	0.8633
1728	0.8593
1737	0.8673
1746	0.8686
1755	0.8702
1764	0.8693
1773	0.8677
1782	0.8628
1791	0.8499
1800	0.8591
1809	0.8702
1818	0.8752
1827	0.8752
1836	0.8737
1845	0.8718
1854	0.8702
1863	0.8736
1872	0.8697
1881	0.8694
1890	0.8762
1899	0.8765
1908	0.8714
1917	0.8649
1926	0.8621
1935	0.8648
1944	0.8685
1953	0.8635
1962	0.8756
1971	0.8689
1980	0.8718
1989	0.8818
1998	0.9514
2007	0.9552
2016	0.9545
2025	0.951
2034	0.9487
2043	0.9483
2052	0.9454
2061	0.9382
2070	0.9327
2079	0.9351
2088	0.9392
2097	0.9356
2106	0.9366
2115	0.9451
2124	0.9433
2133	0.949
2142	0.9463
2151	0.9415
2160	0.9394
2169	0.9393
2178	0.9424
2187	0.9413
2196	0.9386
2205	0.9368
2214	0.9357
2223	0.9366
2232	0.9388
2241	0.9423
2250	0.9383
2259	0.9343
2268	0.9335
2277	0.9333
2286	0.9333
2295	0.9337
2304	0.9341
2313	0.9342
2322	0.9342
2331	0.934
2340	0.9333
2349	0.9325
2358	0.9311
2367	0.9284
2376	0.926
2385	0.9245
2394	0.9249
2403	0.925
2412	0.9221
2421	0.9178
2430	0.9167
2439	0.9197
2448	0.9168
2457	0.914
2466	0.9121
2475	0.9104
2484	0.9097
2493	0.9104
2502	0.9109
2511	0.9043
2520	0.9028
2529	0.903
2538	0.9027
2547	0.9016
2556	0.8996
2565	0.8978
2574	0.8962
2583	0.8946
2592	0.8943
2601	0.8944
2610	0.8968
2619	0.8916
2628	0.8893
2637	0.887
2646	0.8849
2655	0.8832
2664	0.8815
2673	0.8803
2682	0.8796
2691	0.8795
2700	0.8814
2709	0.8814
2718	0.8807
2727	0.8796
2736	0.8786
2745	0.8766
2754	0.8739
2763	0.8695
2772	0.864
2781	0.858
2790	0.852
2799	0.8457
2808	0.839
2817	0.8264
2826	0.8128
2835	0.7991
2844	0.7742
2853	0.7457
2862	0.716
2871	0.7061
2880	0.7065
2889	0.7325
2898	0.7653
2907	0.794
2916	0.8199
2925	0.8341
2934	0.8456
2943	0.8482
2952	0.8421
2961	0.8407
2970	0.844
2979	0.8232
2988	0.7875
2997	0.7058
3006	0.4931
3015	0.6023
3024	0.7478
3033	0.8014
3042	0.8022
3051	0.7985
3060	0.7899
3069	0.6911
3078	0.6112
3087	0.609
3096	0.7049
3105	0.6924
3114	0.7198
3123	0.7596
3132	0.7611
3141	0.7557
3150	0.7445
3159	0.7296
3168	0.7122
3177	0.6988
3186	0.6724
3195	0.6428
3204	0.6204
3213	0.5945
3222	0.562
3231	0.5364
3240	0.5098
3249	0.489
3258	0.4712
3267	0.4531
3276	0.4268
3285	0.4054
3294	0.3879
3303	0.3739
3312	0.3608
3321	0.3473
3330	0.3359
3339	0.3266
3348	0.3198
3357	0.3151
3366	0.3117
3375	0.3119
3384	0.317
3393	0.3236
3402	0.3324
3411	0.3432
3420	0.3574
3429	0.3736
3438	0.3971
3447	0.422
3456	0.4519
3465	0.4852
3474	0.5183
3483	0.5454
3492	0.5747
3501	0.5929
3510	0.6034
3519	0.6103
3528	0.617
3537	0.623
3546	0.6296
3555	0.6465
3564	0.6801
3573	0.7046
3582	0.7271
3591	0.7588
3600	0.7931
3609	0.8225
3618	0.8425
3627	0.8468
3636	0.8499
3645	0.8536
3654	0.8597
3663	0.8656
3672	0.8715
3681	0.8762
3690	0.8787
3699	0.8773
3708	0.8748
3717	0.8736
3726	0.8743
3735	0.8753
3744	0.877
3753	0.8782
3762	0.8777
3771	0.8762
3780	0.8746
3789	0.8728
3798	0.8703
