Infrared Spectrum: BENZOIC ACID, o-NITRO-, ETHYL ESTER
Formula: C9 H9 N O4
CAS: 610-34-4
State: SOLUTION (10% CCl4 FOR 3800-1330, 10% CS2 FOR 1330-400 CM^-^1)
Class: COBLENTZ III
Instrument: DOW KBr FOREPRISM-GRATING
Instrument parameters: BLAZED AT 3.5, 12.0, 20.0 MICRON AND CHANGED AT 5.0, 7.5, 14.9 MICRON
Sampling: TRANSMISSION
Path length: 0.011 CM, 0.010 CM
Resolution: 2
Origin: DOW CHEMICAL COMPANY
1/CM	TRANSMITTANCE
382	0.2054
391	0.2243
400	0.2931
409	0.5573
418	0.6564
427	0.7036
436	0.7289
445	0.7395
454	0.74
463	0.7561
472	0.7694
481	0.7758
490	0.7807
499	0.7845
508	0.7865
517	0.7883
526	0.7884
535	0.7893
544	0.7851
553	0.7725
562	0.7462
571	0.7194
580	0.7622
589	0.8094
598	0.8147
607	0.8203
616	0.8015
625	0.8074
634	0.7915
643	0.6122
652	0.7274
661	0.8005
670	0.7912
679	0.7625
688	0.6465
697	0.3245
706	0.6054
715	0.664
724	0.4416
733	0.1388
742	0.41
751	0.6808
760	0.7088
769	0.6145
778	0.4068
787	0.2693
796	0.7853
805	0.827
814	0.8398
823	0.8383
832	0.8025
841	0.4498
850	0.526
859	0.4742
868	0.51
877	0.7491
886	0.8221
895	0.8783
904	0.8909
913	0.8954
922	0.8961
931	0.8937
940	0.8823
949	0.8185
958	0.8283
967	0.8646
976	0.8518
985	0.8078
994	0.7533
1003	0.5854
1012	0.447
1021	0.6091
1030	0.6064
1039	0.5535
1048	0.7483
1057	0.7119
1066	0.3534
1075	0.1811
1084	0.5883
1093	0.4687
1102	0.4774
1111	0.3284
1120	0.0901
1129	0.0683
1138	0.278
1147	0.4855
1156	0.5824
1165	0.5197
1174	0.4683
1183	0.6872
1192	0.73
1201	0.7437
1210	0.7442
1219	0.7175
1228	0.6698
1237	0.5753
1246	0.2572
1255	0.0314
1264	0.1873
1273	0.1037
1282	0.0447
1291	0.014
1300	0.0439
1309	0.2899
1318	0.5259
1327	0.5622
1336	0.5048
1345	0.1711
1354	0.0259
1363	0.0982
1372	0.1692
1381	0.4047
1390	0.4525
1399	0.6214
1408	0.6887
1417	0.7154
1426	0.7121
1435	0.6704
1444	0.4227
1453	0.594
1462	0.5201
1471	0.5241
1480	0.4537
1489	0.6207
1498	0.577
1507	0.4672
1516	0.391
1525	0.1222
1534	0.0104
1543	0.0063
1552	0.1114
1561	0.2939
1570	0.3897
1579	0.3259
1588	0.4792
1597	0.5665
1606	0.5333
1615	0.5588
1624	0.7347
1633	0.7658
1642	0.7782
1651	0.7788
1660	0.7728
1669	0.7626
1678	0.745
1687	0.6833
1696	0.6367
1705	0.5959
1714	0.3616
1723	0.0575
1732	0.0101
1741	0.0067
1750	0.1214
1759	0.5452
1768	0.6701
1777	0.7433
1786	0.7795
1795	0.7947
1804	0.8005
1813	0.8022
1822	0.8028
1831	0.8008
1840	0.7935
1849	0.8138
1858	0.8248
1867	0.8246
1876	0.8305
1885	0.8408
1894	0.8423
1903	0.8425
1912	0.8391
1921	0.8443
1930	0.8437
1939	0.8165
1948	0.8278
1957	0.943
1966	0.8259
1975	0.8058
1984	0.8187
1993	0.8346
2002	0.8282
2011	0.8296
2020	0.8314
2029	0.8331
2038	0.8338
2047	0.8344
2056	0.8355
2065	0.8367
2074	0.8373
2083	0.8363
2092	0.8357
2101	0.8354
2110	0.835
2119	0.8346
2128	0.8323
2137	0.8324
2146	0.8336
2155	0.8368
2164	0.8408
2173	0.8423
2182	0.8427
2191	0.8424
2200	0.8415
2209	0.8403
2218	0.8388
2227	0.8364
2236	0.8348
2245	0.8331
2254	0.8309
2263	0.8287
2272	0.8265
2281	0.8242
2290	0.8223
2299	0.8225
2308	0.8253
2317	0.8271
2326	0.8291
2335	0.8321
2344	0.8349
2353	0.8328
2362	0.8277
2371	0.8206
2380	0.8246
2389	0.8283
2398	0.8312
2407	0.833
2416	0.8337
2425	0.8352
2434	0.844
2443	0.8477
2452	0.8493
2461	0.8486
2470	0.8475
2479	0.8457
2488	0.8449
2497	0.8449
2506	0.8468
2515	0.8486
2524	0.8484
2533	0.8466
2542	0.8465
2551	0.8465
2560	0.8441
2569	0.8415
2578	0.8395
2587	0.8394
2596	0.8397
2605	0.841
2614	0.8431
2623	0.8461
2632	0.848
2641	0.8452
2650	0.846
2659	0.8458
2668	0.8418
2677	0.8409
2686	0.8432
2695	0.8464
2704	0.8442
2713	0.8416
2722	0.8397
2731	0.8393
2740	0.8401
2749	0.8433
2758	0.8431
2767	0.8424
2776	0.8466
2785	0.8458
2794	0.8404
2803	0.8356
2812	0.8318
2821	0.8297
2830	0.8286
2839	0.8268
2848	0.8032
2857	0.7591
2866	0.7156
2875	0.7291
2884	0.7134
2893	0.6755
2902	0.6908
2911	0.7487
2920	0.7068
2929	0.6499
2938	0.6911
2947	0.709
2956	0.6372
2965	0.6024
2974	0.4199
2983	0.43
2992	0.5277
3001	0.6465
3010	0.7588
3019	0.8126
3028	0.8185
3037	0.8172
3046	0.818
3055	0.8024
3064	0.7743
3073	0.7845
3082	0.8114
3091	0.8338
3100	0.8318
3109	0.8405
3118	0.8548
3127	0.8635
3136	0.8668
3145	0.8678
3154	0.8678
3163	0.8683
3172	0.8696
3181	0.8711
3190	0.8728
3199	0.8746
3208	0.876
3217	0.8771
3226	0.8784
3235	0.8795
3244	0.8809
3253	0.8821
3262	0.8836
3271	0.8847
3280	0.886
3289	0.8871
3298	0.8881
3307	0.8889
3316	0.8897
3325	0.8902
3334	0.8908
3343	0.8908
3352	0.8906
3361	0.8904
3370	0.8904
3379	0.8904
3388	0.8897
3397	0.8884
3406	0.8851
3415	0.8806
3424	0.8747
3433	0.8678
3442	0.8625
3451	0.8596
3460	0.8652
3469	0.8738
3478	0.8812
3487	0.8857
3496	0.8867
3505	0.8871
3514	0.8867
3523	0.8862
3532	0.886
3541	0.8858
3550	0.8856
3559	0.8855
3568	0.8854
3577	0.887
3586	0.8887
3595	0.8887
3604	0.888
3613	0.8871
3622	0.8867
3631	0.8864
3640	0.8861
3649	0.8854
3658	0.8845
3667	0.8832
3676	0.8812
3685	0.8814
3694	0.8847
3703	0.8843
3712	0.8837
3721	0.8828
3730	0.8818
3739	0.8813
3748	0.8807
3757	0.8802
3766	0.8798
3775	0.8792
3784	0.8778
3793	0.8755
