Infrared Spectrum: O-NITROPHENETOLE
Formula: C8 H9 N O3
CAS: 610-67-3
State: LIQUID
Melting point: 5-7 C
Class: COBLENTZ
Instrument: Not specified, most likely a prism, grating, or hybrid spectrometer.
Sampling: TRANSMISSION
Path length: CAPILLARY
Resolution: 4
Origin: WYANDOTTE CHEMICALS CORP., WYANDOTTE, MICHIGAN, USA
MICROMETERS	TRANSMITTANCE
2.034	0.989
2.0748	0.989
2.11559	0.982
2.15639	0.981
2.19719	0.964
2.23799	0.948
2.27878	0.964
2.31958	0.954
2.36038	0.948
2.40117	0.952
2.44197	0.959
2.48277	0.962
2.52356	0.96
2.56436	0.971
2.60516	0.971
2.64596	0.974
2.68675	0.965
2.72755	0.96
2.76835	0.952
2.80914	0.95
2.84994	0.96
2.89074	0.95
2.93154	0.936
2.97233	0.93
3.01313	0.925
3.05393	0.93
3.09472	0.911
3.13552	0.897
3.17632	0.877
3.21712	0.829
3.25791	0.732
3.29871	0.775
3.33951	0.373
3.3803	0.565
3.4211	0.58
3.4619	0.541
3.50269	0.7
3.54349	0.804
3.58429	0.851
3.62509	0.851
3.66588	0.848
3.70668	0.89
3.74748	0.899
3.78827	0.908
3.82907	0.908
3.86987	0.904
3.91067	0.892
3.95146	0.89
3.99226	0.885
4.03306	0.89
4.07385	0.919
4.11465	0.911
4.15545	0.904
4.19625	0.901
4.23704	0.902
4.27784	0.919
4.31864	0.94
4.35943	0.95
4.40023	0.948
4.44103	0.94
4.48182	0.945
4.52262	0.952
4.56342	0.955
4.60422	0.96
4.64501	0.954
4.68581	0.959
4.72661	0.952
4.7674	0.954
4.8082	0.959
4.849	0.943
4.8898	0.916
4.93059	0.926
4.97139	0.94
5.01219	0.959
5.05298	0.964
5.09378	0.955
5.13458	0.933
5.17538	0.901
5.21617	0.913
5.25697	0.908
5.29777	0.93
5.33856	0.942
5.37936	0.95
5.42016	0.955
5.46095	0.948
5.50175	0.928
5.54255	0.931
5.58335	0.918
5.62414	0.923
5.66494	0.933
5.70574	0.923
5.74653	0.921
5.78733	0.896
5.82813	0.882
5.86893	0.889
5.90972	0.87
5.95052	0.86
5.99132	0.858
6.03211	0.821
6.07291	0.766
6.11371	0.632
6.1545	0.287
6.1953	0.068
6.2361	0.27
6.2769	0.163
6.31769	0.427
6.35849	0.482
6.39929	0.357
6.44008	0.185
6.48088	0.063
6.52168	0.059
6.56248	0.068
6.60327	0.117
6.64407	0.144
6.68487	0.103
6.72566	0.153
6.76646	0.139
6.80726	0.333
6.84806	0.264
6.88885	0.303
6.92965	0.451
6.97045	0.638
7.01124	0.672
7.05204	0.643
7.09284	0.551
7.13363	0.267
7.17443	0.233
7.21523	0.371
7.25603	0.279
7.29682	0.117
7.33762	0.071
7.37842	0.063
7.41921	0.078
7.46001	0.202
7.50081	0.381
7.54161	0.441
7.5824	0.327
7.6232	0.158
7.664	0.151
7.70479	0.137
7.74559	0.09
7.78639	0.061
7.82719	0.064
7.86798	0.102
7.90878	0.112
7.94958	0.063
7.99037	0.068
8.03117	0.112
8.07197	0.258
8.11276	0.424
8.15356	0.557
8.19436	0.642
8.23516	0.705
8.27595	0.741
8.31675	0.761
8.35755	0.77
8.39834	0.758
8.43914	0.741
8.47994	0.679
8.52074	0.528
8.56153	0.172
8.60233	0.229
8.64313	0.378
8.68392	0.253
8.72472	0.402
8.76552	0.611
8.80632	0.703
8.84711	0.73
8.88791	0.703
8.92871	0.592
8.9695	0.281
9.0103	0.371
9.0511	0.534
9.09189	0.478
9.13269	0.31
9.17349	0.289
9.21429	0.442
9.25508	0.58
9.29588	0.649
9.33668	0.681
9.37747	0.674
9.41827	0.652
9.45907	0.579
9.49987	0.417
9.54066	0.218
9.58146	0.117
9.62226	0.08
9.66305	0.081
9.70385	0.122
9.74465	0.224
9.78544	0.354
9.82624	0.488
9.86704	0.604
9.90784	0.683
9.94863	0.73
9.98943	0.773
10.0302	0.8
10.071	0.816
10.1118	0.827
10.1526	0.829
10.1934	0.829
10.2342	0.838
10.275	0.846
10.3158	0.858
10.3566	0.865
10.3974	0.865
10.4382	0.86
10.479	0.846
10.5198	0.821
10.5606	0.775
10.6014	0.739
10.6422	0.715
10.683	0.708
10.7238	0.691
10.7646	0.603
10.8054	0.403
10.8462	0.27
10.887	0.318
10.9278	0.468
10.9686	0.606
11.0094	0.655
11.0502	0.652
11.091	0.621
11.1317	0.706
11.1725	0.804
11.2133	0.853
11.2541	0.877
11.2949	0.889
11.3357	0.896
11.3765	0.908
11.4173	0.911
11.4581	0.904
11.4989	0.896
11.5397	0.884
11.5805	0.865
11.6213	0.829
11.6621	0.756
11.7029	0.579
11.7437	0.187
11.7845	0.105
11.8253	0.262
11.8661	0.511
11.9069	0.679
11.9477	0.758
11.9885	0.809
12.0293	0.833
12.0701	0.844
12.1109	0.843
12.1517	0.853
12.1925	0.872
12.2333	0.872
12.2741	0.88
12.3149	0.87
12.3557	0.877
12.3965	0.873
12.4373	0.856
12.4781	0.822
12.5188	0.768
12.5596	0.703
12.6004	0.735
12.6412	0.778
12.682	0.792
12.7228	0.775
12.7636	0.727
12.8044	0.621
12.8452	0.477
12.886	0.328
12.9268	0.248
12.9676	0.206
13.0084	0.221
13.0492	0.303
13.09	0.383
13.1308	0.453
13.1716	0.471
13.2124	0.432
13.2532	0.349
13.294	0.229
13.3348	0.148
13.3756	0.107
13.4164	0.097
13.4572	0.097
13.498	0.107
13.5388	0.153
13.5796	0.258
13.6204	0.398
13.6612	0.526
13.702	0.628
13.7428	0.689
13.7836	0.744
13.8244	0.773
13.8652	0.79
13.9059	0.802
13.9467	0.81
13.9875	0.812
14.0283	0.805
14.0691	0.792
14.1099	0.771
14.1507	0.742
14.1915	0.715
14.2323	0.672
14.2731	0.642
14.3139	0.621
14.3547	0.614
14.3955	0.626
14.4363	0.654
14.4771	0.691
14.5179	0.732
14.5587	0.77
14.5995	0.793
14.6403	0.809
14.6811	0.819
14.7219	0.821
14.7627	0.812
14.8035	0.804
14.8443	0.785
14.8851	0.751
14.9259	0.691
14.9667	0.603
15.0075	0.529
15.0483	0.504
15.0891	0.502
15.1299	0.492
15.1707	0.495
15.2115	0.533
15.2523	0.606
15.2931	0.674
15.3338	0.72
15.3746	0.768
15.4154	0.785
15.4562	0.804
15.497	0.817
15.5378	0.816
15.5786	0.826
15.6194	0.821
15.6602	0.826
15.701	0.822
15.7418	0.821
15.7826	0.814
15.8234	0.807
15.8642	0.81
15.905	0.809
15.9458	0.802
15.9866	0.802
