Infrared Spectrum: 2,4-DINITROPHENETOLE
Formula: C8 H8 N2 O5
CAS: 610-54-8
State: SOLID (MINERAL OIL MULL)
Melting point: 85-86 C
Class: COBLENTZ
Instrument: Not specified, most likely a prism, grating, or hybrid spectrometer.
Sampling: TRANSMISSION
Resolution: 4
Origin: WYANDOTTE CHEMICALS CORP., WYANDOTTE, MICHIGAN, USA
MICROMETERS	TRANSMITTANCE
2.013	0.563
2.05275	0.566
2.09251	0.57
2.13226	0.576
2.17202	0.576
2.21177	0.571
2.25153	0.57
2.29128	0.581
2.33103	0.588
2.37079	0.6
2.41054	0.606
2.4503	0.608
2.49005	0.615
2.5298	0.623
2.56956	0.623
2.60931	0.636
2.64907	0.643
2.68882	0.648
2.72858	0.655
2.76833	0.645
2.80808	0.643
2.84784	0.638
2.88759	0.628
2.92735	0.63
2.9671	0.63
3.00685	0.636
3.04661	0.641
3.08636	0.64
3.12612	0.631
3.16587	0.586
3.20563	0.451
3.24538	0.478
3.28513	0.455
3.32489	0.118
3.36464	0.061
3.4044	0.075
3.44415	0.118
3.48391	0.15
3.52366	0.531
3.56341	0.668
3.60317	0.683
3.64292	0.691
3.68268	0.7
3.72243	0.715
3.76218	0.72
3.80194	0.728
3.84169	0.741
3.88145	0.74
3.9212	0.746
3.96096	0.77
4.00071	0.773
4.04046	0.775
4.08022	0.778
4.11997	0.78
4.15973	0.783
4.19948	0.786
4.23923	0.775
4.27899	0.785
4.31874	0.813
4.3585	0.845
4.39825	0.833
4.43801	0.826
4.47776	0.838
4.51751	0.846
4.55727	0.848
4.59702	0.846
4.63678	0.86
4.67653	0.861
4.71629	0.871
4.75604	0.875
4.79579	0.881
4.83555	0.863
4.8753	0.881
4.91506	0.891
4.95481	0.893
4.99456	0.906
5.03432	0.91
5.07407	0.916
5.11383	0.916
5.15358	0.92
5.19334	0.913
5.23309	0.886
5.27284	0.918
5.3126	0.93
5.35235	0.936
5.39211	0.941
5.43186	0.931
5.47162	0.913
5.51137	0.915
5.55112	0.926
5.59088	0.943
5.63063	0.943
5.67039	0.935
5.71014	0.945
5.74989	0.945
5.78965	0.935
5.8294	0.916
5.86916	0.93
5.90891	0.908
5.94867	0.901
5.98842	0.858
6.02817	0.835
6.06793	0.741
6.10768	0.415
6.14744	0.105
6.18719	0.165
6.22694	0.403
6.2667	0.486
6.30645	0.593
6.34621	0.541
6.38596	0.285
6.42572	0.141
6.46547	0.085
6.50522	0.086
6.54498	0.16
6.58473	0.27
6.62449	0.268
6.66424	0.341
6.704	0.398
6.74375	0.256
6.7835	0.176
6.82326	0.273
6.86301	0.315
6.90277	0.486
6.94252	0.64
6.98227	0.63
7.02203	0.581
7.06178	0.7
7.10154	0.65
7.14129	0.39
7.18105	0.501
7.2208	0.27
7.26055	0.18
7.30031	0.126
7.34006	0.098
7.37982	0.095
7.41957	0.135
7.45932	0.271
7.49908	0.416
7.53883	0.431
7.57859	0.33
7.61834	0.333
7.6581	0.185
7.69785	0.081
7.7376	0.075
7.77736	0.131
7.81711	0.236
7.85687	0.338
7.89662	0.403
7.93638	0.391
7.97613	0.51
8.01588	0.578
8.05564	0.613
8.09539	0.64
8.13515	0.658
8.1749	0.666
8.21465	0.69
8.25441	0.718
8.29416	0.738
8.33392	0.765
8.37367	0.78
8.41343	0.796
8.45318	0.803
8.49293	0.811
8.53269	0.801
8.57244	0.726
8.6122	0.28
8.65195	0.273
8.6917	0.368
8.73146	0.481
8.77121	0.566
8.81097	0.655
8.85072	0.708
8.89048	0.726
8.93023	0.665
8.96998	0.531
9.00974	0.708
9.04949	0.755
9.08925	0.77
9.129	0.781
9.16876	0.773
9.20851	0.751
9.24826	0.68
9.28802	0.46
9.32777	0.476
9.36753	0.625
9.40728	0.693
9.44703	0.718
9.48679	0.738
9.52654	0.73
9.5663	0.711
9.60605	0.671
9.64581	0.556
9.68556	0.34
9.72531	0.2
9.76507	0.263
9.80482	0.396
9.84458	0.52
9.88433	0.586
9.92409	0.651
9.96384	0.69
10.0036	0.711
10.0433	0.73
10.0831	0.74
10.1229	0.758
10.1626	0.766
10.2024	0.77
10.2421	0.773
10.2819	0.78
10.3216	0.776
10.3614	0.773
10.4011	0.793
10.4409	0.803
10.4806	0.815
10.5204	0.82
10.5602	0.82
10.5999	0.82
10.6397	0.796
10.6794	0.671
10.7192	0.35
10.7589	0.415
10.7987	0.561
10.8384	0.593
10.8782	0.503
10.9179	0.44
10.9577	0.42
10.9974	0.448
11.0372	0.521
11.077	0.666
11.1167	0.733
11.1565	0.78
11.1962	0.808
11.236	0.821
11.2757	0.831
11.3155	0.85
11.3552	0.863
11.395	0.866
11.4347	0.87
11.4745	0.878
11.5143	0.88
11.554	0.878
11.5938	0.873
11.6335	0.876
11.6733	0.873
11.713	0.853
11.7528	0.823
11.7925	0.756
11.8323	0.618
11.872	0.476
11.9118	0.491
11.9515	0.52
11.9913	0.328
12.0311	0.55
12.0708	0.69
12.1106	0.71
12.1503	0.596
12.1901	0.41
12.2298	0.431
12.2696	0.686
12.3093	0.811
12.3491	0.863
12.3888	0.885
12.4286	0.905
12.4684	0.903
12.5081	0.858
12.5479	0.81
12.5876	0.86
12.6274	0.9
12.6671	0.913
12.7069	0.926
12.7466	0.93
12.7864	0.918
12.8261	0.923
12.8659	0.921
12.9056	0.92
12.9454	0.911
12.9852	0.898
13.0249	0.891
13.0647	0.845
13.1044	0.776
13.1442	0.771
13.1839	0.81
13.2237	0.825
13.2634	0.815
13.3032	0.781
13.3429	0.688
13.3827	0.556
13.4225	0.338
13.4622	0.251
13.502	0.416
13.5417	0.611
13.5815	0.718
13.6212	0.771
13.661	0.803
13.7007	0.821
13.7405	0.828
13.7802	0.813
13.82	0.796
13.8598	0.766
13.8995	0.713
13.9393	0.65
13.979	0.575
14.0188	0.506
14.0585	0.478
14.0983	0.506
14.138	0.586
14.1778	0.651
14.2175	0.698
14.2573	0.733
14.297	0.743
14.3368	0.75
14.3766	0.715
14.4163	0.681
14.4561	0.646
14.4958	0.616
14.5356	0.613
14.5753	0.62
14.6151	0.65
14.6548	0.69
14.6946	0.725
14.7343	0.775
14.7741	0.803
14.8139	0.82
14.8536	0.833
14.8934	0.848
14.9331	0.853
14.9729	0.846
15.0126	0.81
15.0524	0.768
15.0921	0.78
15.1319	0.806
15.1716	0.83
15.2114	0.843
15.2511	0.841
15.2909	0.838
15.3307	0.828
15.3704	0.808
15.4102	0.781
15.4499	0.723
15.4897	0.668
15.5294	0.646
15.5692	0.655
15.6089	0.693
15.6487	0.73
15.6884	0.74
15.7282	0.738
15.768	0.741
15.8077	0.735
15.8475	0.721
15.8872	0.726
15.927	0.725
15.9667	0.708
