Infrared Spectrum: 2,4-DINITRO ACETANILIDE
Formula: C8 H7 N3 O5
CAS: 610-53-7
State: SOLID (MINERAL OIL MULL)
Class: COBLENTZ
Instrument: Not specified, most likely a prism, grating, or hybrid spectrometer.
Sampling: TRANSMISSION
Resolution: 4
Origin: DOW CHEMICAL COMPANY
MICROMETERS	TRANSMITTANCE
2.034	0.445
2.075	0.457
2.11599	0.469
2.15699	0.476
2.19798	0.483
2.23898	0.487
2.27998	0.488
2.32097	0.497
2.36197	0.509
2.40296	0.519
2.44396	0.528
2.48496	0.542
2.52595	0.552
2.56695	0.559
2.60794	0.566
2.64894	0.574
2.68994	0.583
2.73093	0.588
2.77193	0.596
2.81293	0.605
2.85392	0.612
2.89492	0.62
2.93591	0.588
2.97691	0.403
3.01791	0.567
3.0589	0.596
3.0999	0.608
3.14089	0.603
3.18189	0.557
3.22289	0.557
3.26388	0.581
3.30488	0.533
3.34587	0.408
3.38687	0.075
3.42787	0.092
3.46886	0.157
3.50986	0.531
3.55085	0.679
3.59185	0.708
3.63285	0.706
3.67384	0.713
3.71484	0.722
3.75583	0.727
3.79683	0.734
3.83783	0.747
3.87882	0.758
3.91982	0.765
3.96081	0.775
4.00181	0.775
4.04281	0.777
4.0838	0.783
4.1248	0.783
4.16579	0.792
4.20679	0.797
4.24779	0.804
4.28878	0.811
4.32978	0.816
4.37078	0.818
4.41177	0.825
4.45277	0.826
4.49376	0.833
4.53476	0.833
4.57576	0.828
4.61675	0.84
4.65775	0.845
4.69874	0.847
4.73974	0.852
4.78074	0.855
4.82173	0.866
4.86273	0.861
4.90372	0.871
4.94472	0.876
4.98572	0.874
5.02671	0.871
5.06771	0.873
5.1087	0.881
5.1497	0.886
5.1907	0.885
5.23169	0.886
5.27269	0.895
5.31368	0.895
5.35468	0.897
5.39568	0.878
5.43667	0.888
5.47767	0.897
5.51866	0.903
5.55966	0.893
5.60066	0.891
5.64165	0.895
5.68265	0.881
5.72365	0.85
5.76464	0.739
5.80564	0.55
5.84663	0.219
5.88763	0.789
5.92863	0.814
5.96962	0.823
6.01062	0.828
6.05161	0.783
6.09261	0.723
6.13361	0.584
6.1746	0.31
6.2156	0.18
6.25659	0.246
6.29759	0.603
6.33859	0.766
6.37958	0.708
6.42058	0.682
6.46157	0.638
6.50257	0.411
6.54357	0.288
6.58456	0.2
6.62556	0.102
6.66655	0.08
6.70755	0.272
6.74855	0.411
6.78954	0.308
6.83054	0.207
6.87153	0.217
6.91253	0.303
6.95353	0.445
6.99452	0.475
7.03552	0.485
7.07652	0.471
7.11751	0.392
7.15851	0.327
7.1995	0.324
7.2405	0.264
7.2815	0.313
7.32249	0.298
7.36349	0.142
7.40448	0.065
7.44548	0.109
7.48648	0.276
7.52747	0.411
7.56847	0.368
7.60946	0.264
7.65046	0.298
7.69146	0.509
7.73245	0.555
7.77345	0.562
7.81444	0.44
7.85544	0.248
7.89644	0.207
7.93743	0.499
7.97843	0.626
8.01942	0.663
8.06042	0.59
8.10142	0.457
8.14241	0.252
8.18341	0.298
8.2244	0.535
8.2654	0.598
8.3064	0.629
8.34739	0.684
8.38839	0.711
8.42938	0.73
8.47038	0.746
8.51138	0.759
8.55237	0.773
8.59337	0.782
8.63437	0.778
8.67536	0.711
8.71636	0.588
8.75735	0.303
8.79835	0.173
8.83935	0.406
8.88034	0.548
8.92134	0.612
8.96233	0.662
9.00333	0.708
9.04433	0.727
9.08532	0.744
9.12632	0.756
9.16731	0.765
9.20831	0.775
9.24931	0.766
9.2903	0.728
9.3313	0.679
9.37229	0.629
9.41329	0.586
9.45429	0.718
9.49528	0.754
9.53628	0.746
9.57727	0.708
9.61827	0.696
9.65927	0.734
9.70026	0.771
9.74126	0.782
9.78225	0.787
9.82325	0.777
9.86425	0.753
9.90524	0.696
9.94624	0.614
9.98724	0.554
10.0282	0.61
10.0692	0.687
10.1102	0.728
10.1512	0.765
10.1922	0.777
10.2332	0.783
10.2742	0.792
10.3152	0.792
10.3562	0.771
10.3972	0.753
10.4382	0.778
10.4792	0.801
10.5202	0.813
10.5612	0.819
10.6022	0.825
10.6432	0.83
10.6842	0.83
10.7252	0.797
10.7662	0.689
10.8072	0.615
10.8482	0.735
10.8891	0.668
10.9301	0.689
10.9711	0.794
11.0121	0.831
11.0531	0.842
11.0941	0.85
11.1351	0.855
11.1761	0.859
11.2171	0.862
11.2581	0.867
11.2991	0.871
11.3401	0.869
11.3811	0.871
11.4221	0.867
11.4631	0.854
11.5041	0.818
11.5451	0.735
11.5861	0.605
11.6271	0.432
11.6681	0.593
11.7091	0.771
11.7501	0.799
11.7911	0.749
11.8321	0.653
11.8731	0.531
11.914	0.732
11.955	0.785
11.996	0.785
12.037	0.732
12.078	0.698
12.119	0.758
12.16	0.802
12.201	0.823
12.242	0.835
12.283	0.84
12.324	0.845
12.365	0.845
12.406	0.849
12.447	0.85
12.488	0.852
12.529	0.852
12.57	0.852
12.611	0.845
12.652	0.843
12.693	0.84
12.734	0.837
12.775	0.831
12.816	0.831
12.857	0.825
12.898	0.813
12.939	0.777
12.9799	0.718
13.0209	0.704
13.0619	0.775
13.1029	0.79
13.1439	0.792
13.1849	0.783
13.2259	0.771
13.2669	0.751
13.3079	0.703
13.3489	0.603
13.3899	0.442
13.4309	0.329
13.4719	0.439
13.5129	0.583
13.5539	0.639
13.5949	0.651
13.6359	0.624
13.6769	0.567
13.7179	0.481
13.7589	0.37
13.7999	0.348
13.8409	0.421
13.8819	0.492
13.9229	0.509
13.9639	0.499
14.0048	0.476
14.0458	0.452
14.0868	0.435
14.1278	0.428
14.1688	0.439
14.2098	0.464
14.2508	0.497
14.2918	0.521
14.3328	0.542
14.3738	0.552
14.4148	0.55
14.4558	0.526
14.4968	0.493
14.5378	0.459
14.5788	0.442
14.6198	0.428
14.6608	0.418
14.7018	0.421
14.7428	0.447
14.7838	0.476
14.8248	0.506
14.8658	0.516
14.9068	0.518
14.9478	0.523
14.9888	0.533
15.0298	0.531
15.0707	0.526
15.1117	0.521
15.1527	0.518
15.1937	0.512
15.2347	0.507
15.2757	0.5
15.3167	0.497
15.3577	0.492
15.3987	0.485
15.4397	0.476
15.4807	0.468
15.5217	0.457
15.5627	0.451
15.6037	0.445
15.6447	0.439
15.6857	0.43
15.7267	0.423
15.7677	0.416
15.8087	0.409
15.8497	0.404
15.8907	0.401
