Infrared Spectrum: 6-CHLOROBENZOIC ACID, METHYL ESTER
Formula: C8 H7 Cl O2
CAS: 610-96-8
State: LIQUID
Boiling point: 109-111 C AT 9 mmHg
Class: COBLENTZ
Instrument: Not specified, most likely a prism, grating, or hybrid spectrometer.
Sampling: TRANSMISSION
Path length: CAPILLARY
Resolution: 4
Origin: WYANDOTTE CHEMICALS CORP., WYANDOTTE, MICHIGAN, USA
MICROMETERS	TRANSMITTANCE
2.02	0.962
2.0608	0.952
2.10159	0.953
2.14239	0.96
2.18319	0.96
2.22399	0.955
2.26478	0.95
2.30558	0.953
2.34638	0.941
2.38717	0.938
2.42797	0.941
2.46877	0.948
2.50956	0.952
2.55036	0.95
2.59116	0.953
2.63196	0.957
2.67275	0.948
2.71355	0.94
2.75435	0.931
2.79514	0.916
2.83594	0.916
2.87674	0.894
2.91754	0.882
2.95833	0.89
2.99913	0.883
3.03993	0.883
3.08072	0.882
3.12152	0.878
3.16232	0.873
3.20312	0.861
3.24391	0.805
3.28471	0.778
3.32551	0.745
3.3663	0.631
3.4071	0.784
3.4479	0.803
3.48869	0.805
3.52949	0.853
3.57029	0.883
3.61109	0.897
3.65188	0.899
3.69268	0.899
3.73348	0.911
3.77427	0.904
3.81507	0.911
3.85587	0.907
3.89667	0.914
3.93746	0.907
3.97826	0.919
4.01906	0.921
4.05985	0.919
4.10065	0.916
4.14145	0.912
4.18225	0.914
4.22304	0.911
4.26384	0.923
4.30464	0.933
4.34543	0.94
4.38623	0.931
4.42703	0.924
4.46782	0.93
4.50862	0.933
4.54942	0.933
4.59022	0.933
4.63101	0.933
4.67181	0.941
4.71261	0.933
4.7534	0.935
4.7942	0.93
4.835	0.928
4.8758	0.935
4.91659	0.95
4.95739	0.945
4.99819	0.952
5.03898	0.94
5.07978	0.936
5.12058	0.93
5.16138	0.919
5.20217	0.909
5.24297	0.918
5.28377	0.926
5.32456	0.935
5.36536	0.931
5.40616	0.928
5.44695	0.923
5.48775	0.904
5.52855	0.904
5.56935	0.892
5.61014	0.843
5.65094	0.786
5.69174	0.597
5.73253	0.141
5.77333	0.075
5.81413	0.192
5.85493	0.554
5.89572	0.687
5.93652	0.752
5.97732	0.774
6.01811	0.81
6.05891	0.82
6.09971	0.815
6.14051	0.812
6.1813	0.779
6.2221	0.423
6.2629	0.672
6.30369	0.75
6.34449	0.807
6.38529	0.849
6.42608	0.86
6.46688	0.844
6.50768	0.853
6.54848	0.863
6.58927	0.858
6.63007	0.831
6.67087	0.791
6.71166	0.667
6.75246	0.431
6.79326	0.605
6.83406	0.566
6.87485	0.457
6.91565	0.218
6.95645	0.235
6.99724	0.6
7.03804	0.759
7.07884	0.802
7.11964	0.827
7.16043	0.827
7.20123	0.817
7.24203	0.798
7.28282	0.798
7.32362	0.795
7.36442	0.803
7.40521	0.803
7.44601	0.795
7.48681	0.769
7.52761	0.716
7.5684	0.59
7.6092	0.363
7.65	0.136
7.69079	0.069
7.73159	0.102
7.77239	0.17
7.81319	0.18
7.85398	0.167
7.89478	0.216
7.93558	0.1
7.97637	0.073
8.01717	0.206
8.05797	0.424
8.09876	0.587
8.13956	0.656
8.18036	0.697
8.22116	0.715
8.26195	0.72
8.30275	0.689
8.34355	0.583
8.38434	0.479
8.42514	0.551
8.46594	0.651
8.50674	0.682
8.54753	0.672
8.58833	0.614
8.62913	0.677
8.66992	0.675
8.71072	0.605
8.75152	0.452
8.79232	0.317
8.83311	0.24
8.87391	0.174
8.91471	0.153
8.9555	0.192
8.9963	0.37
9.0371	0.607
9.07789	0.677
9.11869	0.692
9.15949	0.703
9.20029	0.732
9.24108	0.735
9.28188	0.715
9.32268	0.703
9.36347	0.686
9.40427	0.593
9.44507	0.336
9.48587	0.121
9.52666	0.298
9.56746	0.482
9.60826	0.399
9.64905	0.607
9.68985	0.709
9.73065	0.773
9.77145	0.793
9.81224	0.795
9.85304	0.795
9.89384	0.831
9.93463	0.848
9.97543	0.853
10.0162	0.861
10.057	0.854
10.0978	0.854
10.1386	0.849
10.1794	0.844
10.2202	0.832
10.261	0.796
10.3018	0.749
10.3426	0.675
10.3834	0.638
10.4242	0.624
10.465	0.662
10.5058	0.686
10.5466	0.728
10.5874	0.776
10.6282	0.829
10.669	0.858
10.7098	0.875
10.7506	0.885
10.7914	0.892
10.8322	0.89
10.873	0.902
10.9138	0.904
10.9546	0.902
10.9954	0.904
11.0362	0.902
11.077	0.906
11.1177	0.907
11.1585	0.906
11.1993	0.909
11.2401	0.911
11.2809	0.912
11.3217	0.906
11.3625	0.909
11.4033	0.904
11.4441	0.897
11.4849	0.892
11.5257	0.895
11.5665	0.904
11.6073	0.912
11.6481	0.914
11.6889	0.914
11.7297	0.912
11.7705	0.912
11.8113	0.911
11.8521	0.911
11.8929	0.914
11.9337	0.904
11.9745	0.889
12.0153	0.825
12.0561	0.754
12.0969	0.67
12.1377	0.629
12.1785	0.733
12.2193	0.825
12.2601	0.866
12.3009	0.889
12.3417	0.894
12.3825	0.902
12.4233	0.904
12.4641	0.911
12.5048	0.901
12.5456	0.882
12.5864	0.858
12.6272	0.808
12.668	0.781
12.7088	0.786
12.7496	0.812
12.7904	0.829
12.8312	0.843
12.872	0.844
12.9128	0.841
12.9536	0.827
12.9944	0.807
13.0352	0.764
13.076	0.699
13.1168	0.612
13.1576	0.506
13.1984	0.412
13.2392	0.303
13.28	0.228
13.3208	0.17
13.3616	0.151
13.4024	0.143
13.4432	0.18
13.484	0.29
13.5248	0.438
13.5656	0.61
13.6064	0.697
13.6472	0.752
13.688	0.774
13.7288	0.784
13.7696	0.778
13.8104	0.715
13.8512	0.626
13.892	0.551
13.9327	0.544
13.9735	0.629
14.0143	0.715
14.0551	0.778
14.0959	0.807
14.1367	0.815
14.1775	0.824
14.2183	0.815
14.2591	0.81
14.2999	0.788
14.3407	0.779
14.3815	0.759
14.4223	0.744
14.4631	0.725
14.5039	0.715
14.5447	0.72
14.5855	0.737
14.6263	0.754
14.6671	0.79
14.7079	0.813
14.7487	0.827
14.7895	0.836
14.8303	0.843
14.8711	0.841
14.9119	0.843
14.9527	0.841
14.9935	0.832
15.0343	0.813
15.0751	0.757
15.1159	0.715
15.1567	0.716
15.1975	0.762
15.2383	0.783
15.2791	0.802
15.3198	0.802
15.3606	0.796
15.4014	0.774
15.4422	0.749
15.483	0.725
15.5238	0.72
15.5646	0.752
15.6054	0.779
15.6462	0.798
15.687	0.805
15.7278	0.81
15.7686	0.812
15.8094	0.808
15.8502	0.805
15.891	0.81
15.9318	0.8
15.9726	0.803
