Infrared Spectrum: 4,4'-DIMETHYL BENZOPHENONE
Formula: C15 H14 O
CAS: 611-97-2
State: SOLUTION (10% CCl4 FOR 5000-1330, 10% CS2 FOR 1330-625 CM^-^1)
Class: COBLENTZ
Instrument: Not specified, most likely a prism, grating, or hybrid spectrometer.
Sampling: TRANSMISSION
Path length: 0.0123 CM, 0.0123 CM
Resolution: 4
Origin: DOW CHEMICAL COMPANY
MICROMETERS	TRANSMITTANCE
2.068	0.903
2.10894	0.899
2.14987	0.898
2.19081	0.906
2.23175	0.899
2.27268	0.891
2.31362	0.894
2.35456	0.901
2.39549	0.904
2.43643	0.882
2.47737	0.903
2.5183	0.903
2.55924	0.903
2.60018	0.901
2.64111	0.899
2.68205	0.901
2.72299	0.886
2.76392	0.886
2.80486	0.872
2.84579	0.876
2.88673	0.879
2.92767	0.879
2.9686	0.876
3.00954	0.855
3.05048	0.869
3.09141	0.869
3.13235	0.869
3.17329	0.847
3.21422	0.791
3.25516	0.699
3.2961	0.572
3.33703	0.64
3.37797	0.623
3.41891	0.597
3.45984	0.709
3.50078	0.826
3.54172	0.853
3.58265	0.869
3.62359	0.864
3.66453	0.874
3.70546	0.879
3.7464	0.881
3.78734	0.876
3.82827	0.867
3.86921	0.876
3.91015	0.881
3.95108	0.882
3.99202	0.884
4.03296	0.877
4.07389	0.865
4.11483	0.867
4.15576	0.881
4.1967	0.881
4.23764	0.864
4.27857	0.855
4.31951	0.842
4.36045	0.87
4.40138	0.877
4.44232	0.881
4.48326	0.882
4.52419	0.882
4.56513	0.882
4.60607	0.882
4.647	0.886
4.68794	0.889
4.72888	0.889
4.76981	0.886
4.81075	0.879
4.85169	0.882
4.89262	0.882
4.93356	0.882
4.9745	0.877
5.01543	0.874
5.05637	0.879
5.09731	0.87
5.13824	0.828
5.17918	0.782
5.22012	0.848
5.26105	0.872
5.30199	0.874
5.34293	0.874
5.38386	0.874
5.4248	0.872
5.46573	0.847
5.50667	0.82
5.54761	0.842
5.58854	0.853
5.62948	0.85
5.67042	0.847
5.71135	0.843
5.75229	0.828
5.79323	0.821
5.83416	0.78
5.8751	0.748
5.91604	0.658
5.95697	0.502
5.99791	0.156
6.03885	0.073
6.07978	0.487
6.12072	0.584
6.16166	0.458
6.20259	0.05
6.24353	0.337
6.28447	0.483
6.3254	0.431
6.36634	0.393
6.40728	0.426
6.44821	0.407
6.48915	0.466
6.53009	0.524
6.57102	0.567
6.61196	0.614
6.6529	0.653
6.69383	0.691
6.73477	0.692
6.77571	0.648
6.81664	0.602
6.85758	0.548
6.89851	0.553
6.93945	0.595
6.98039	0.629
7.02132	0.592
7.06226	0.488
7.1032	0.461
7.14413	0.704
7.18507	0.718
7.22601	0.667
7.26694	0.721
7.30788	0.762
7.34882	0.784
7.38975	0.779
7.43069	0.753
7.47163	0.714
7.51256	0.594
7.5535	0.286
7.59444	0.113
7.63537	0.422
7.67631	0.314
7.71725	0.105
7.75818	0.101
7.79912	0.047
7.84006	0.086
7.88099	0.376
7.92193	0.524
7.96287	0.495
8.0038	0.543
8.04474	0.657
8.08568	0.718
8.12661	0.741
8.16755	0.711
8.20848	0.634
8.24942	0.602
8.29036	0.748
8.33129	0.762
8.37223	0.706
8.41317	0.56
8.4541	0.308
8.49504	0.249
8.53598	0.682
8.57691	0.726
8.61785	0.718
8.65879	0.606
8.69972	0.509
8.74066	0.662
8.7816	0.741
8.82253	0.76
8.86347	0.75
8.90441	0.694
8.94534	0.594
8.98628	0.563
9.02722	0.701
9.06815	0.764
9.10909	0.765
9.15003	0.767
9.19096	0.775
9.2319	0.775
9.27284	0.782
9.31377	0.782
9.35471	0.775
9.39565	0.769
9.43658	0.753
9.47752	0.736
9.51846	0.701
9.55939	0.65
9.60033	0.604
9.64126	0.604
9.6822	0.653
9.72314	0.677
9.76407	0.592
9.80501	0.646
9.84595	0.764
9.88688	0.775
9.92782	0.78
9.96876	0.779
10.0097	0.769
10.0506	0.755
10.0916	0.752
10.1325	0.75
10.1734	0.755
10.2144	0.748
10.2553	0.713
10.2962	0.658
10.3372	0.648
10.3781	0.709
10.4191	0.648
10.46	0.5
10.5009	0.563
10.5419	0.657
10.5828	0.653
10.6237	0.587
10.6647	0.504
10.7056	0.376
10.7466	0.217
10.7875	0.081
10.8284	0.166
10.8694	0.49
10.9103	0.657
10.9512	0.728
10.9922	0.772
11.0331	0.784
11.074	0.792
11.115	0.796
11.1559	0.794
11.1969	0.786
11.2378	0.775
11.2787	0.762
11.3197	0.75
11.3606	0.733
11.4015	0.716
11.4425	0.702
11.4834	0.689
11.5243	0.674
11.5653	0.655
11.6062	0.633
11.6472	0.612
11.6881	0.58
11.729	0.531
11.77	0.438
11.8109	0.242
11.8518	0.196
11.8928	0.351
11.9337	0.38
11.9746	0.466
12.0156	0.611
12.0565	0.602
12.0975	0.526
12.1384	0.392
12.1793	0.237
12.2203	0.336
12.2612	0.512
12.3021	0.553
12.3431	0.59
12.384	0.646
12.425	0.662
12.4659	0.66
12.5068	0.672
12.5478	0.682
12.5887	0.699
12.6296	0.704
12.6706	0.624
12.7115	0.511
12.7524	0.453
12.7934	0.607
12.8343	0.702
12.8753	0.724
12.9162	0.733
12.9571	0.733
12.9981	0.726
13.039	0.713
13.0799	0.694
13.1209	0.665
13.1618	0.617
13.2027	0.553
13.2437	0.461
13.2846	0.258
13.3256	0.083
13.3665	0.018
13.4074	0.093
13.4484	0.327
13.4893	0.482
13.5302	0.594
13.5712	0.655
13.6121	0.684
13.653	0.696
13.694	0.701
13.7349	0.704
13.7759	0.706
13.8168	0.706
13.8577	0.699
13.8987	0.692
13.9396	0.691
13.9805	0.691
14.0215	0.694
14.0624	0.692
14.1034	0.687
14.1443	0.682
14.1852	0.677
14.2262	0.672
14.2671	0.668
14.308	0.658
14.349	0.651
14.3899	0.64
14.4308	0.624
14.4718	0.601
14.5127	0.572
14.5537	0.512
14.5946	0.438
14.6355	0.322
14.6765	0.256
14.7174	0.249
14.7583	0.315
14.7993	0.378
14.8402	0.434
14.8811	0.466
14.9221	0.485
14.963	0.502
15.004	0.507
15.0449	0.507
15.0858	0.502
15.1268	0.495
15.1677	0.485
15.2086	0.47
15.2496	0.458
15.2905	0.449
15.3314	0.446
15.3724	0.444
15.4133	0.443
15.4543	0.438
15.4952	0.434
15.5361	0.429
15.5771	0.424
15.618	0.417
15.6589	0.407
15.6999	0.397
15.7408	0.376
15.7817	0.358
15.8227	0.339
