Infrared Spectrum: BENZENE, 1-ETHYL-2-METHYL-
Formula: C9 H12
CAS: 611-14-3
State: LIQUID (NEAT)
Class: COBLENTZ III
Instrument: PERKIN-ELMER 521 (GRATING)
Sampling: TRANSMISSION
Path length: 0.0024 CM
Resolution: 4
Origin: STANDARD OIL OF OHIO
1/CM	TRANSMITTANCE
605.263	0.607
614.474	0.606
623.684	0.61
632.895	0.62
642.105	0.637
651.316	0.662
660.526	0.694
669.737	0.715
678.947	0.743
688.158	0.758
697.368	0.776
706.579	0.772
715.789	0.762
725	0.627
734.211	0.2288
743.421	0.092
752.632	0.1789
761.842	0.0391
771.053	0.2394
780.263	0.6359
789.474	0.666
798.684	0.5771
807.895	0.5538
817.105	0.818
826.316	0.8031
835.526	0.8409
844.737	0.882
853.948	0.882
863.158	0.864
872.369	0.831
881.579	0.881
890.79	0.892
900	0.892
909.211	0.892
918.421	0.891
927.632	0.884
936.842	0.833
946.053	0.7219
955.263	0.843
964.474	0.793
973.685	0.699
982.895	0.762
992.106	0.784
1001.32	0.833
1010.53	0.848
1019.74	0.832
1028.95	0.775
1038.16	0.5413
1047.37	0.6999
1056.58	0.6701
1065.79	0.41
1075	0.6977
1084.21	0.843
1093.42	0.867
1102.63	0.87
1111.84	0.857
1121.05	0.789
1130.26	0.7151
1139.47	0.8016
1148.68	0.852
1157.9	0.835
1167.11	0.826
1176.32	0.831
1185.53	0.813
1194.74	0.8609
1203.95	0.874
1213.16	0.871
1222.37	0.85
1231.58	0.873
1240.79	0.869
1250	0.847
1259.21	0.869
1268.42	0.869
1277.63	0.853
1286.84	0.822
1296.05	0.819
1305.26	0.831
1314.47	0.82
1323.68	0.814
1332.9	0.788
1342.11	0.775
1351.32	0.8019
1360.53	0.82
1369.74	0.781
1378.95	0.5962
1388.16	0.5109
1397.37	0.726
1406.58	0.766
1415.79	0.751
1425	0.704
1434.21	0.576
1443.42	0.5561
1452.63	0.4111
1461.84	0.223
1471.05	0.1222
1480.26	0.2139
1489.47	0.46
1498.69	0.3244
1507.9	0.2299
1517.11	0.7279
1526.32	0.788
1535.53	0.852
1544.74	0.873
1553.95	0.887
1563.16	0.887
1572.37	0.886
1581.58	0.871
1590.79	0.8101
1600	0.814
1609.21	0.797
1618.42	0.613
1627.63	0.8489
1636.84	0.887
1646.05	0.909
1655.26	0.911
1664.47	0.908
1673.69	0.904
1682.9	0.904
1692.11	0.901
1701.32	0.891
1710.53	0.912
1719.74	0.915
1728.95	0.898
1738.16	0.899
1747.37	0.921
1756.58	0.922
1765.79	0.921
1775	0.92
1784.21	0.918
1793.42	0.9
1802.63	0.837
1811.84	0.8639
1821.05	0.915
1830.26	0.912
1839.48	0.881
1848.69	0.888
1857.9	0.922
1867.11	0.921
1876.32	0.892
1885.53	0.892
1894.74	0.901
1903.95	0.862
1913.16	0.796
1922.37	0.839
1931.58	0.903
1940.79	0.898
1950	0.848
1959.21	0.8639
1968.42	0.913
1977.63	0.928
1986.84	0.93
1996.05	0.93
2005.26	0.921
2014.48	0.929
2023.69	0.929
2032.9	0.928
2042.11	0.926
2051.32	0.932
2060.53	0.929
2069.74	0.929
2078.95	0.929
2088.16	0.93
2097.37	0.9281
2106.58	0.9281
2115.79	0.928
2125	0.93
2134.21	0.93
2143.42	0.93
2152.63	0.929
2161.84	0.926
2171.05	0.926
2180.27	0.926
2189.48	0.926
2198.69	0.9253
2207.9	0.924
2217.11	0.924
2226.32	0.924
2235.53	0.9253
2244.74	0.925
2253.95	0.9257
2263.16	0.926
2272.37	0.925
2281.58	0.922
2290.79	0.922
2300	0.924
2309.21	0.9228
2318.42	0.9204
2327.63	0.9126
2336.84	0.921
2346.05	0.921
2355.27	0.922
2364.48	0.925
2373.69	0.925
2382.9	0.9245
2392.11	0.924
2401.32	0.9205
2410.53	0.917
2419.74	0.915
2428.95	0.9102
2438.16	0.9084
2447.37	0.9164
2456.58	0.92
2465.79	0.921
2475	0.921
2484.21	0.921
2493.42	0.921
2502.63	0.92
2511.84	0.918
2521.05	0.918
2530.27	0.918
2539.48	0.9194
2548.69	0.9195
2557.9	0.9177
2567.11	0.915
2576.32	0.913
2585.53	0.911
2594.74	0.909
2603.95	0.904
2613.16	0.909
2622.37	0.9088
2631.58	0.903
2640.79	0.904
2650	0.909
2659.21	0.912
2668.42	0.912
2677.63	0.911
2686.84	0.911
2696.06	0.9109
2705.27	0.904
2714.48	0.901
2723.69	0.8939
2732.9	0.8689
2742.11	0.835
2751.32	0.844
2760.53	0.874
2769.74	0.871
2778.95	0.867
2788.16	0.8601
2797.37	0.8481
2806.58	0.84
2815.79	0.8312
2825	0.8028
2834.21	0.7666
2843.42	0.7043
2852.63	0.6227
2861.84	0.5889
2871.06	0.423
2880.27	0.235
2889.48	0.1289
2898.69	0.236
2907.9	0.2584
2917.11	0.2562
2926.32	0.2171
2935.53	0.171
2944.74	0.0865
2953.95	0.1061
2963.16	0.1116
2972.37	0.043
2981.58	0.0301
2990.79	0.1224
3000	0.3232
3009.21	0.441
3018.42	0.387
3027.63	0.2264
3036.85	0.2525
3046.06	0.3869
3055.27	0.4156
3064.48	0.4243
3073.69	0.3727
3082.9	0.415
3092.11	0.5344
3101.32	0.7312
3110.53	0.7048
3119.74	0.7336
3128.95	0.842
3138.16	0.8615
3147.37	0.865
3156.58	0.862
3165.79	0.8614
3175	0.8723
3184.21	0.8864
3193.42	0.891
3202.63	0.898
3211.85	0.9
3221.06	0.9034
3230.27	0.911
3239.48	0.912
3248.69	0.9123
3257.9	0.9123
3267.11	0.913
3276.32	0.913
3285.53	0.913
3294.74	0.915
3303.95	0.915
3313.16	0.916
3322.37	0.916
3331.58	0.916
3340.79	0.916
3350	0.917
3359.21	0.915
3368.42	0.9152
3377.64	0.9147
3386.85	0.913
3396.06	0.913
3405.27	0.913
3414.48	0.913
3423.69	0.913
3432.9	0.912
3442.11	0.913
3451.32	0.9092
3460.53	0.911
3469.74	0.909
3478.95	0.909
3488.16	0.909
3497.37	0.907
3506.58	0.908
3515.79	0.908
3525	0.908
3534.21	0.909
3543.42	0.911
3552.64	0.913
3561.85	0.911
3571.06	0.909
3580.27	0.908
3589.48	0.9071
3598.69	0.909
3607.9	0.909
3617.11	0.909
3626.32	0.911
3635.53	0.911
3644.74	0.911
3653.95	0.9094
3663.16	0.908
3672.37	0.908
3681.58	0.908
3690.79	0.909
3700	0.908
3709.21	0.908
3718.42	0.908
3727.64	0.908
3736.85	0.908
3746.06	0.908
3755.27	0.909
3764.48	0.908
3773.69	0.907
3782.9	0.904
3792.11	0.903
3801.32	0.9018
3810.53	0.8988
3819.74	0.896
3828.95	0.8944
3838.16	0.8945
3847.37	0.895
3856.58	0.8945
3865.79	0.894
3875	0.893
3884.21	0.893
3893.43	0.8929
3902.64	0.894
3911.85	0.894
3921.06	0.892
3930.27	0.892
3939.48	0.894
3948.69	0.895
