Infrared Spectrum: 2,Alpha-DICHLORO TOLUENE
Formula: C7 H6 Cl2
CAS: 611-19-8
State: SOLUTION (10% CCl4 FOR 3800-1330, 10% CS2 FOR 1330-450 CM^-^1)
Class: COBLENTZ
Instrument: Not specified, most likely a prism, grating, or hybrid spectrometer.
Sampling: TRANSMISSION
Path length: 0.011 CM, 0.011 CM
Resolution: 4
Origin: DOW CHEMICAL COMPANY
1/CM	TRANSMITTANCE
456.687	0.827
465.806	0.923
474.924	0.95
484.043	0.969
493.161	0.976
502.28	0.971
511.398	0.9141
520.517	1.003
529.635	1.014
538.754	1.014
547.873	1.01
556.991	1.005
566.11	0.994
575.228	0.8911
584.347	0.9019
593.465	0.991
602.584	1.008
611.703	1.01
620.821	1.003
629.94	0.991
639.058	0.971
648.177	0.923
657.295	0.8771
666.414	0.7901
675.532	0.124
684.651	0.548
693.77	0.3458
702.888	0.7838
712.007	0.871
721.125	0.87
730.244	0.743
739.362	0.017
748.481	0.252
757.599	0.38
766.718	0.304
775.837	0.832
784.955	0.918
794.074	0.935
803.192	0.935
812.311	0.914
821.429	0.852
830.548	0.4472
839.667	0.88
848.785	0.841
857.904	0.759
867.022	0.759
876.141	0.827
885.259	0.875
894.378	0.921
903.496	0.916
912.615	0.889
921.734	0.944
930.852	0.953
939.971	0.937
949.089	0.827
958.208	0.927
967.326	0.946
976.445	0.944
985.564	0.951
994.682	0.951
1003.8	0.935
1012.92	0.909
1022.04	0.8729
1031.16	0.838
1040.27	0.532
1049.39	0.685
1058.51	0.2609
1067.63	0.7698
1076.75	0.905
1085.87	0.927
1094.99	0.905
1104.1	0.919
1113.22	0.912
1122.34	0.7981
1131.46	0.772
1140.58	0.891
1149.7	0.905
1158.82	0.877
1167.93	0.895
1177.05	0.923
1186.17	0.916
1195.29	0.925
1204.41	0.925
1213.53	0.74
1222.65	0.937
1231.76	0.953
1240.88	0.941
1250	0.912
1259.12	0.798
1268.24	0.444
1277.36	0.765
1286.48	0.496
1295.59	0.848
1304.71	0.791
1313.83	0.919
1322.95	0.951
1332.07	0.955
1341.19	0.96
1350.31	0.962
1359.42	0.967
1368.54	0.987
1377.66	0.971
1386.78	0.964
1395.9	0.951
1405.02	0.934
1414.14	0.893
1423.25	0.864
1432.37	0.774
1441.49	0.54
1450.61	0.1991
1459.73	0.822
1468.85	0.6861
1477.97	0.3157
1487.08	0.631
1496.2	0.704
1505.32	0.775
1514.44	0.741
1523.56	0.697
1532.68	0.649
1541.8	0.526
1550.91	0.492
1560.03	0.564
1569.15	0.581
1578.27	0.5
1587.39	0.645
1596.51	0.5671
1605.63	0.82
1614.74	0.895
1623.86	0.925
1632.98	0.946
1642.1	1
1651.22	0.996
1660.34	0.971
1669.46	0.962
1678.57	0.953
1687.69	0.951
1696.81	0.95
1705.93	0.932
1715.05	0.946
1724.17	0.948
1733.29	0.944
1742.4	0.951
1751.52	0.955
1760.64	0.96
1769.76	0.96
1778.88	0.962
1788	0.957
1797.12	0.941
1806.23	0.889
1815.35	0.941
1824.47	0.951
1833.59	0.941
1842.71	0.937
1851.83	0.951
1860.95	0.957
1870.06	0.96
1879.18	0.957
1888.3	0.946
1897.42	0.955
1906.54	0.959
1915.66	0.935
1924.78	0.912
1933.89	0.95
1943.01	0.959
1952.13	0.937
1961.25	0.95
1970.37	0.962
1979.49	0.966
1988.61	0.967
1997.72	0.966
2006.84	0.964
2015.96	0.964
2025.08	0.964
2034.2	0.964
2043.32	0.9599
2052.44	0.9621
2061.55	0.9659
2070.67	0.967
2079.79	0.9671
2088.91	0.973
2098.03	0.9709
2107.15	0.966
2116.27	0.967
2125.38	0.969
2134.5	0.9708
2143.62	0.969
2152.74	0.9708
2161.86	0.969
2170.98	0.969
2180.09	0.969
2189.21	0.969
2198.33	0.969
2207.45	0.967
2216.57	0.967
2225.69	0.967
2234.81	0.966
2243.92	0.9657
2253.04	0.962
2262.16	0.9586
2271.28	0.953
2280.4	0.9476
2289.52	0.944
2298.64	0.944
2307.75	0.944
2316.87	0.944
2325.99	0.9492
2335.11	0.9283
2344.23	0.9584
2353.35	0.9515
2362.47	0.9597
2371.58	0.9659
2380.7	0.9686
2389.82	0.964
2398.94	0.9684
2408.06	0.9684
2417.18	0.966
2426.3	0.9663
2435.41	0.969
2444.53	0.969
2453.65	0.969
2462.77	0.971
2471.89	0.969
2481.01	0.973
2490.13	0.9703
2499.24	0.969
2508.36	0.969
2517.48	0.971
2526.6	0.973
2535.72	0.975
2544.84	0.971
2553.96	0.975
2563.07	0.971
2572.19	0.967
2581.31	0.967
2590.43	0.9682
2599.55	0.967
2608.67	0.971
2617.79	0.971
2626.9	0.969
2636.02	0.9664
2645.14	0.966
2654.26	0.964
2663.38	0.9674
2672.5	0.973
2681.62	0.971
2690.73	0.969
2699.85	0.967
2708.97	0.964
2718.09	0.967
2727.21	0.968
2736.33	0.968
2745.45	0.968
2754.56	0.971
2763.68	0.971
2772.8	0.973
2781.92	0.9719
2791.04	0.976
2800.16	0.976
2809.28	0.976
2818.39	0.976
2827.51	0.9738
2836.63	0.971
2845.75	0.9678
2854.87	0.966
2863.99	0.959
2873.11	0.9292
2882.22	0.9601
2891.34	0.9703
2900.46	0.971
2909.58	0.973
2918.7	0.9717
2927.82	0.967
2936.94	0.9557
2946.05	0.938
2955.17	0.9293
2964.29	0.9008
2973.41	0.8011
2982.53	0.8625
2991.65	0.9341
3000.77	0.941
3009.88	0.9356
3019	0.9264
3028.12	0.8848
3037.24	0.9156
3046.36	0.927
3055.48	0.9088
3064.6	0.8384
3073.71	0.7925
3082.83	0.8115
3091.95	0.9155
3101.07	0.9499
3110.19	0.9741
3119.31	0.978
3128.43	0.982
3137.54	0.9846
3146.66	0.9804
3155.78	0.9824
3164.9	0.987
3174.02	0.992
3183.14	0.9937
3192.26	0.9977
3201.37	1.001
3210.49	1.001
3219.61	1.003
3228.73	1.0067
3237.85	1.008
3246.97	1.008
3256.09	1.01
3265.2	1.012
3274.32	1.0169
3283.44	1.0208
3292.56	1.023
3301.68	1.0258
3310.8	1.028
3319.92	1.028
3329.03	1.03
3338.15	1.0281
3347.27	1.0299
3356.39	1.033
3365.51	1.033
3374.63	1.039
3383.74	1.04
3392.86	1.042
3401.98	1.042
3411.1	1.039
3420.22	1.037
3429.34	1.033
3438.46	1.0299
3447.57	1.024
3456.69	1.024
3465.81	1.023
3474.93	1.019
3484.05	1.017
3493.17	1.0159
3502.29	1.0119
3511.4	1.0099
3520.52	1.0079
3529.64	1.001
3538.76	1.007
3547.88	1.0063
3557	1
3566.12	1.0008
3575.23	1.0027
3584.35	0.994
3593.47	1.005
3602.59	1.005
3611.71	1.005
3620.83	1.001
3629.95	1.0027
3639.06	1
3648.18	1.001
3657.3	0.9947
3666.42	1
3675.54	0.998
3684.66	1.0006
3693.78	0.9992
3702.89	0.9972
3712.01	1.0004
3721.13	1
3730.25	1.001
3739.37	1
3748.49	1.005
3757.61	1.0003
3766.72	1.003
3775.84	1.0003
3784.96	1
3794.08	1
