Infrared Spectrum: BENZOPHENONE, 4-METHOXY-
Formula: C14 H12 O2
CAS: 611-94-9
State: SOLID (OIL MULL)
Class: COBLENTZ
Instrument: Not specified, most likely a prism, grating, or hybrid spectrometer.
Sampling: TRANSMISSION
Resolution: 4
Origin: TENNESSEE EASTMAN COMPANY, RESEARCH LABORATORIES
MICROMETERS	TRANSMITTANCE
2.089	0.301
2.13001	0.296
2.17102	0.294
2.21203	0.294
2.25304	0.294
2.29405	0.292
2.33506	0.292
2.37607	0.292
2.41708	0.292
2.45809	0.294
2.4991	0.296
2.54011	0.297
2.58112	0.299
2.62213	0.299
2.66314	0.301
2.70415	0.302
2.74516	0.301
2.78617	0.302
2.82718	0.311
2.86819	0.314
2.9092	0.316
2.95021	0.321
2.99122	0.323
3.03223	0.325
3.07324	0.323
3.11425	0.325
3.15526	0.325
3.19627	0.325
3.23728	0.318
3.27829	0.289
3.3193	0.209
3.36031	0.061
3.40132	0.039
3.44233	0.051
3.48334	0.094
3.52435	0.349
3.56536	0.401
3.60637	0.409
3.64738	0.409
3.68839	0.409
3.7294	0.411
3.77041	0.413
3.81142	0.416
3.85243	0.423
3.89344	0.428
3.93445	0.437
3.97546	0.449
4.01647	0.45
4.05748	0.462
4.09849	0.471
4.1395	0.471
4.18051	0.471
4.22152	0.471
4.26253	0.475
4.30354	0.475
4.34455	0.481
4.38556	0.493
4.42657	0.5
4.46758	0.506
4.50859	0.512
4.5496	0.519
4.59061	0.526
4.63162	0.537
4.67263	0.543
4.71364	0.549
4.75465	0.549
4.79566	0.552
4.83667	0.554
4.87768	0.554
4.91869	0.555
4.9597	0.561
5.00071	0.573
5.04172	0.573
5.08273	0.574
5.12374	0.583
5.16475	0.588
5.20576	0.588
5.24677	0.592
5.28778	0.611
5.32879	0.619
5.3698	0.624
5.41081	0.629
5.45182	0.636
5.49283	0.641
5.53384	0.648
5.57484	0.655
5.61585	0.66
5.65686	0.674
5.69787	0.686
5.73888	0.698
5.77989	0.714
5.8209	0.719
5.86191	0.726
5.90292	0.731
5.94393	0.733
5.98494	0.6
6.02595	0.43
6.06696	0.325
6.10797	0.411
6.14898	0.499
6.18999	0.349
6.231	0.23
6.27201	0.302
6.31302	0.359
6.35403	0.395
6.39504	0.462
6.43605	0.497
6.47706	0.538
6.51807	0.566
6.55908	0.58
6.60009	0.485
6.6411	0.466
6.68211	0.499
6.72312	0.475
6.76413	0.266
6.80514	0.199
6.84615	0.218
6.88716	0.247
6.92817	0.442
6.96918	0.585
7.01019	0.597
7.0512	0.626
7.09221	0.647
7.13322	0.636
7.17423	0.545
7.21524	0.414
7.25625	0.418
7.29726	0.547
7.33827	0.645
7.37928	0.667
7.42029	0.617
7.4613	0.533
7.50231	0.447
7.54332	0.304
7.58433	0.265
7.62534	0.309
7.66635	0.39
7.70736	0.537
7.74837	0.449
7.78938	0.287
7.83039	0.387
7.8714	0.287
7.91241	0.197
7.95342	0.199
7.99443	0.287
8.03544	0.342
8.07645	0.392
8.11746	0.425
8.15847	0.459
8.19948	0.483
8.24049	0.504
8.2815	0.542
8.32251	0.58
8.36352	0.614
8.40453	0.493
8.44554	0.445
8.48655	0.349
8.52756	0.327
8.56857	0.411
8.60958	0.445
8.65059	0.327
8.6916	0.388
8.73261	0.449
8.77362	0.48
8.81463	0.492
8.85564	0.495
8.89665	0.488
8.93766	0.421
8.97867	0.44
9.01968	0.504
9.06069	0.537
9.1017	0.552
9.14271	0.561
9.18372	0.576
9.22473	0.576
9.26574	0.535
9.30675	0.557
9.34776	0.586
9.38877	0.607
9.42978	0.621
9.47079	0.628
9.5118	0.633
9.55281	0.633
9.59382	0.629
9.63483	0.598
9.67584	0.461
9.71685	0.342
9.75786	0.373
9.79887	0.49
9.83988	0.554
9.88089	0.595
9.9219	0.573
9.96291	0.543
10.0039	0.6
10.0449	0.611
10.0859	0.616
10.1269	0.633
10.168	0.631
10.209	0.617
10.25	0.614
10.291	0.624
10.332	0.635
10.373	0.666
10.414	0.654
10.455	0.628
10.496	0.672
10.537	0.702
10.5781	0.691
10.6191	0.483
10.6601	0.358
10.7011	0.481
10.7421	0.576
10.7831	0.576
10.8241	0.487
10.8651	0.471
10.9061	0.487
10.9471	0.549
10.9882	0.571
11.0292	0.592
11.0702	0.602
11.1112	0.617
11.1522	0.628
11.1932	0.633
11.2342	0.641
11.2752	0.648
11.3162	0.654
11.3572	0.657
11.3983	0.66
11.4393	0.666
11.4803	0.666
11.5213	0.666
11.5623	0.664
11.6033	0.641
11.6443	0.602
11.6853	0.547
11.7263	0.478
11.7673	0.371
11.8084	0.259
11.8494	0.347
11.8904	0.542
11.9314	0.641
11.9724	0.676
12.0134	0.703
12.0544	0.724
12.0954	0.736
12.1364	0.736
12.1774	0.721
12.2185	0.719
12.2595	0.729
12.3005	0.75
12.3415	0.762
12.3825	0.765
12.4235	0.74
12.4645	0.652
12.5055	0.537
12.5465	0.397
12.5875	0.399
12.6286	0.535
12.6696	0.628
12.7106	0.666
12.7516	0.685
12.7926	0.698
12.8336	0.702
12.8746	0.703
12.9156	0.71
12.9566	0.712
12.9976	0.712
13.0387	0.714
13.0797	0.714
13.1207	0.714
13.1617	0.712
13.2027	0.7
13.2437	0.667
13.2847	0.617
13.3257	0.526
13.3667	0.43
13.4077	0.354
13.4488	0.333
13.4898	0.392
13.5308	0.506
13.5718	0.607
13.6128	0.65
13.6538	0.671
13.6948	0.688
13.7358	0.691
13.7768	0.69
13.8178	0.691
13.8589	0.697
13.8999	0.7
13.9409	0.702
13.9819	0.697
14.0229	0.679
14.0639	0.636
14.1049	0.598
14.1459	0.531
14.1869	0.45
14.2279	0.37
14.269	0.302
14.31	0.28
14.351	0.282
14.392	0.308
14.433	0.354
14.474	0.421
14.515	0.476
14.556	0.506
14.597	0.531
14.638	0.537
14.6791	0.526
14.7201	0.502
14.7611	0.487
14.8021	0.487
14.8431	0.495
14.8841	0.511
14.9251	0.516
14.9661	0.516
15.0071	0.533
15.0481	0.543
15.0892	0.549
15.1302	0.549
15.1712	0.545
15.2122	0.54
15.2532	0.538
15.2942	0.531
15.3352	0.524
15.3762	0.514
15.4172	0.512
15.4582	0.506
15.4993	0.504
15.5403	0.495
15.5813	0.49
15.6223	0.487
15.6633	0.483
15.7043	0.476
15.7453	0.468
15.7863	0.454
15.8273	0.452
15.8683	0.447
15.9094	0.445
15.9504	0.444
