Infrared Spectrum: 2-CHLOROQUINOLINE
Formula: C9 H6 Cl N
CAS: 612-62-4
State: SOLID (MINERAL OIL MULL)
Melting point: 34-35 C
Class: COBLENTZ
Instrument: Not specified, most likely a prism, grating, or hybrid spectrometer.
Sampling: TRANSMISSION
Resolution: 4
Origin: WYANDOTTE CHEMICALS CORP., WYANDOTTE, MICHIGAN, USA
MICROMETERS	TRANSMITTANCE
2.031	0.6
2.06814	0.6
2.10527	0.6
2.14241	0.6
2.17954	0.6
2.21668	0.591
2.25382	0.582
2.29095	0.586
2.32809	0.588
2.36522	0.588
2.40236	0.583
2.4395	0.588
2.47663	0.591
2.51377	0.583
2.5509	0.596
2.58804	0.602
2.62518	0.599
2.66231	0.607
2.69945	0.605
2.73658	0.604
2.77372	0.605
2.81086	0.591
2.84799	0.585
2.88513	0.58
2.92226	0.559
2.9594	0.569
2.99653	0.563
3.03367	0.569
3.07081	0.56
3.10794	0.552
3.14508	0.527
3.18221	0.513
3.21935	0.49
3.25649	0.405
3.29362	0.392
3.33076	0.316
3.36789	0.093
3.40503	0.048
3.44217	0.06
3.4793	0.099
3.51644	0.111
3.55357	0.4
3.59071	0.535
3.62785	0.569
3.66498	0.582
3.70212	0.572
3.73925	0.577
3.77639	0.588
3.81353	0.596
3.85066	0.604
3.8878	0.602
3.92493	0.613
3.96207	0.625
3.99921	0.63
4.03634	0.631
4.07348	0.633
4.11061	0.635
4.14775	0.638
4.18489	0.639
4.22202	0.639
4.25916	0.63
4.29629	0.645
4.33343	0.659
4.37057	0.67
4.4077	0.669
4.44484	0.65
4.48197	0.664
4.51911	0.663
4.55625	0.672
4.59338	0.675
4.63052	0.67
4.66765	0.675
4.70479	0.681
4.74193	0.686
4.77906	0.689
4.8162	0.686
4.85333	0.686
4.89047	0.692
4.9276	0.69
4.96474	0.692
5.00188	0.697
5.03901	0.7
5.07615	0.706
5.11328	0.711
5.15042	0.703
5.18756	0.675
5.22469	0.67
5.26183	0.678
5.29896	0.701
5.3361	0.717
5.37324	0.712
5.41037	0.725
5.44751	0.7
5.48464	0.704
5.52178	0.695
5.55892	0.706
5.59605	0.726
5.63319	0.725
5.67032	0.711
5.70746	0.714
5.7446	0.725
5.78173	0.711
5.81887	0.717
5.856	0.706
5.89314	0.704
5.93028	0.712
5.96741	0.717
6.00455	0.715
6.04168	0.711
6.07882	0.718
6.11596	0.624
6.15309	0.482
6.19023	0.484
6.22736	0.531
6.2645	0.223
6.30164	0.451
6.33877	0.361
6.37591	0.38
6.41304	0.602
6.45018	0.619
6.48732	0.619
6.52445	0.649
6.56159	0.683
6.59872	0.545
6.63586	0.231
6.673	0.31
6.71013	0.5
6.74727	0.453
6.7844	0.25
6.82154	0.212
6.85867	0.251
6.89581	0.381
6.93295	0.532
6.97008	0.611
7.00722	0.364
7.04435	0.49
7.08149	0.608
7.11863	0.618
7.15576	0.625
7.1929	0.557
7.23003	0.442
7.26717	0.442
7.30431	0.541
7.34144	0.649
7.37858	0.666
7.41571	0.649
7.45285	0.614
7.48999	0.562
7.52712	0.673
7.56426	0.694
7.60139	0.714
7.63853	0.621
7.67567	0.649
7.7128	0.385
7.74994	0.427
7.78707	0.599
7.82421	0.658
7.86135	0.647
7.89848	0.645
7.93562	0.697
7.97275	0.715
8.00989	0.631
8.04703	0.686
8.08416	0.72
8.1213	0.7
8.15843	0.704
8.19557	0.712
8.23271	0.678
8.26984	0.645
8.30698	0.698
8.34411	0.756
8.38125	0.781
8.41839	0.801
8.45552	0.81
8.49266	0.812
8.52979	0.818
8.56693	0.826
8.60407	0.849
8.6412	0.79
8.67834	0.736
8.71547	0.684
8.75261	0.496
8.78974	0.116
8.82688	0.313
8.86402	0.591
8.90115	0.7
8.93829	0.742
8.97542	0.72
9.01256	0.577
9.0497	0.296
9.08683	0.124
9.12397	0.156
9.1611	0.333
9.19824	0.44
9.23538	0.476
9.27251	0.513
9.30965	0.551
9.34678	0.577
9.38392	0.59
9.42106	0.605
9.45819	0.618
9.49533	0.61
9.53246	0.633
9.5696	0.653
9.60674	0.659
9.64387	0.669
9.68101	0.669
9.71814	0.681
9.75528	0.689
9.79242	0.687
9.82955	0.649
9.86669	0.689
9.90382	0.715
9.94096	0.72
9.9781	0.731
10.0152	0.75
10.0524	0.756
10.0895	0.765
10.1266	0.767
10.1638	0.762
10.2009	0.763
10.238	0.748
10.2752	0.641
10.3123	0.641
10.3495	0.742
10.3866	0.779
10.4237	0.798
10.4609	0.791
10.498	0.75
10.5351	0.647
10.5723	0.604
10.6094	0.531
10.6465	0.295
10.6837	0.322
10.7208	0.482
10.758	0.591
10.7951	0.652
10.8322	0.687
10.8694	0.72
10.9065	0.74
10.9436	0.751
10.9808	0.763
11.0179	0.776
11.055	0.777
11.0922	0.779
11.1293	0.791
11.1664	0.796
11.2036	0.796
11.2407	0.799
11.2779	0.798
11.315	0.801
11.3521	0.796
11.3893	0.801
11.4264	0.773
11.4635	0.68
11.5007	0.605
11.5378	0.531
11.5749	0.72
11.6121	0.818
11.6492	0.815
11.6863	0.746
11.7235	0.517
11.7606	0.391
11.7978	0.392
11.8349	0.454
11.872	0.518
11.9092	0.546
11.9463	0.563
11.9834	0.546
12.0206	0.501
12.0577	0.468
12.0948	0.411
12.132	0.343
12.1691	0.263
12.2063	0.201
12.2434	0.135
12.2805	0.083
12.3177	0.111
12.3548	0.187
12.3919	0.254
12.4291	0.335
12.4662	0.465
12.5033	0.607
12.5405	0.706
12.5776	0.77
12.6147	0.815
12.6519	0.833
12.689	0.824
12.7262	0.788
12.7633	0.649
12.8004	0.377
12.8376	0.173
12.8747	0.217
12.9118	0.417
12.949	0.579
12.9861	0.512
13.0232	0.535
13.0604	0.681
13.0975	0.77
13.1347	0.812
13.1718	0.821
13.2089	0.689
13.2461	0.478
13.2832	0.327
13.3203	0.242
13.3575	0.19
13.3946	0.19
13.4317	0.22
13.4689	0.243
13.506	0.267
13.5431	0.333
13.5803	0.44
13.6174	0.562
13.6546	0.628
13.6917	0.678
13.7288	0.712
13.766	0.74
13.8031	0.767
13.8402	0.771
13.8774	0.779
13.9145	0.81
13.9516	0.822
13.9888	0.835
14.0259	0.854
14.0631	0.869
14.1002	0.883
14.1373	0.897
14.1745	0.908
14.2116	0.913
14.2487	0.917
14.2859	0.928
14.323	0.927
14.3601	0.923
14.3973	0.925
14.4344	0.928
14.4715	0.928
14.5087	0.925
14.5458	0.927
14.583	0.919
14.6201	0.916
14.6572	0.906
14.6944	0.902
14.7315	0.903
14.7686	0.892
14.8058	0.877
14.8429	0.872
14.88	0.869
14.9172	0.871
14.9543	0.858
14.9915	0.84
15.0286	0.785
15.0657	0.75
15.1029	0.74
15.14	0.777
15.1771	0.796
15.2143	0.809
15.2514	0.809
15.2885	0.802
15.3257	0.771
15.3628	0.754
15.3999	0.754
15.4371	0.751
15.4742	0.74
15.5114	0.742
15.5485	0.74
15.5856	0.739
15.6228	0.728
15.6599	0.712
15.697	0.701
15.7342	0.677
15.7713	0.644
15.8084	0.604
15.8456	0.586
15.8827	0.566
15.9198	0.577
15.957	0.59
15.9941	0.599
