Infrared Spectrum: Alpha-Phenyl-o-toluic acid
Formula: C14 H12 O2
CAS: 612-35-1
State: SOLUTION (10% CCl4 FOR 3800-1330, 10% CS2 FOR 1330-460 CM^-^1)
Melting point: 111 C
Class: COBLENTZ III
Instrument: DOW KBr FOREPRISM-GRATING
Instrument parameters: BLAZED AT 3.5, 12.0, 20.0 MICRON AND CHANGED AT 5.0, 7.5, 14.9 MICRON
Sampling: TRANSMISSION
Path length: 0.012 CM, 0.011 CM
Resolution: 2
Origin: DOW CHEMICAL COMPANY
1/CM	TRANSMITTANCE
3800	0.9762
3791	0.9765
3782	0.9734
3773	0.9744
3764	0.9754
3755	0.9777
3746	0.9816
3737	0.9866
3728	0.9826
3719	0.9779
3710	0.9781
3701	0.9773
3692	0.9741
3683	0.9715
3674	0.9707
3665	0.9693
3656	0.9677
3647	0.9661
3638	0.9657
3629	0.9677
3620	0.9706
3611	0.9662
3602	0.9619
3593	0.9653
3584	0.9642
3575	0.9501
3566	0.9565
3557	0.9475
3548	0.9299
3539	0.9051
3530	0.8945
3521	0.9016
3512	0.9142
3503	0.9262
3494	0.9316
3485	0.9301
3476	0.9256
3467	0.9191
3458	0.9123
3449	0.9064
3440	0.8999
3431	0.8933
3422	0.8869
3413	0.8796
3404	0.8708
3395	0.8601
3386	0.8479
3377	0.8359
3368	0.8203
3359	0.8085
3350	0.7919
3341	0.7723
3332	0.7513
3323	0.7291
3314	0.6972
3305	0.6697
3296	0.6419
3287	0.6202
3278	0.5996
3269	0.5761
3260	0.5505
3251	0.5228
3242	0.4952
3233	0.4674
3224	0.4402
3215	0.4103
3206	0.3825
3197	0.359
3188	0.3284
3179	0.3095
3170	0.2988
3161	0.2871
3152	0.2727
3143	0.2554
3134	0.2384
3125	0.2148
3116	0.1918
3107	0.158
3098	0.1337
3089	0.0918
3080	0.0794
3071	0.0729
3062	0.094
3053	0.1091
3044	0.0652
3035	0.0443
3026	0.0667
3017	0.0905
3008	0.1046
2999	0.1172
2990	0.1301
2981	0.1404
2972	0.1514
2963	0.1612
2954	0.168
2945	0.1656
2936	0.1553
2927	0.146
2918	0.1392
2909	0.1366
2900	0.1369
2891	0.1397
2882	0.1474
2873	0.1597
2864	0.1768
2855	0.1991
2846	0.2258
2837	0.2414
2828	0.2433
2819	0.2463
2810	0.2618
2801	0.2862
2792	0.3126
2783	0.3386
2774	0.3607
2765	0.3781
2756	0.3926
2747	0.4047
2738	0.411
2729	0.4135
2720	0.4151
2711	0.415
2702	0.4018
2693	0.3743
2684	0.3519
2675	0.3331
2666	0.3039
2657	0.2984
2648	0.3061
2639	0.3258
2630	0.3565
2621	0.3928
2612	0.4157
2603	0.4309
2594	0.4378
2585	0.4384
2576	0.4175
2567	0.4036
2558	0.3968
2549	0.3963
2540	0.4046
2531	0.4251
2522	0.4461
2513	0.4807
2504	0.5219
2495	0.5619
2486	0.5929
2477	0.6205
2468	0.6488
2459	0.6711
2450	0.694
2441	0.7101
2432	0.7251
2423	0.7389
2414	0.7495
2405	0.7616
2396	0.7729
2387	0.7849
2378	0.7973
2369	0.8067
2360	0.8144
2351	0.8239
2342	0.8298
2333	0.8353
2324	0.8447
2315	0.85
2306	0.8557
2297	0.8645
2288	0.871
2279	0.8767
2270	0.8804
2261	0.8843
2252	0.8875
2243	0.8877
2234	0.8866
2225	0.8875
2216	0.8885
2207	0.8914
2198	0.8943
2189	0.8971
2180	0.9019
2171	0.9082
2162	0.9109
2153	0.9139
2144	0.9152
2135	0.9146
2126	0.9133
2117	0.9108
2108	0.9066
2099	0.901
2090	0.8941
2081	0.8871
2072	0.886
2063	0.8887
2054	0.8891
2045	0.8877
2036	0.8918
2027	0.8939
2018	0.8923
2009	0.8877
2000	0.8554
1991	0.8716
1982	0.8663
1973	0.8451
1964	0.8256
1955	0.8315
1946	0.7807
1937	0.7895
1928	0.835
1919	0.843
1910	0.8428
1901	0.8403
1892	0.8353
1883	0.828
1874	0.8219
1865	0.8172
1856	0.813
1847	0.8068
1838	0.8019
1829	0.7948
1820	0.7986
1811	0.7938
1802	0.7507
1793	0.7743
1784	0.7739
1775	0.7576
1766	0.7567
1757	0.7346
1748	0.6127
1739	0.462
1730	0.478
1721	0.318
1712	0.0453
1703	-0.0036
1694	-0.0036
1685	-0.0036
1676	0.0436
1667	0.2363
1658	0.4311
1649	0.538
1640	0.6161
1631	0.656
1622	0.6639
1613	0.579
1604	0.233
1595	0.5209
1586	0.5346
1577	0.1994
1568	0.5719
1559	0.6494
1550	0.7147
1541	0.7747
1532	0.8143
1523	0.8071
1514	0.7861
1505	0.7071
1496	0.2012
1487	0.6017
1478	0.7836
1469	0.6474
1460	0.2523
1451	0.3265
1442	0.4855
1433	0.4856
1424	0.4199
1415	0.2141
1406	0.0943
1397	0.3884
1388	0.5379
1379	0.6817
1370	0.7373
1361	0.7517
1352	0.7433
1343	0.717
1334	0.6602
1325	0.5543
1316	0.3096
1307	0.0898
1298	0.0912
1289	0.117
1280	0.055
1271	0.0273
1262	0.0364
1253	0.1383
1244	0.4653
1235	0.6241
1226	0.7094
1217	0.763
1208	0.779
1199	0.7239
1190	0.7163
1181	0.6231
1172	0.7008
1163	0.6431
1154	0.7622
1145	0.4387
1136	0.5488
1127	0.8389
1118	0.8833
1109	0.8763
1100	0.8661
1091	0.7216
1082	0.3754
1073	0.5521
1064	0.8096
1055	0.7757
1046	0.7714
1037	0.8415
1028	0.7133
1019	0.8607
1010	0.8591
1001	0.8382
992	0.8332
983	0.7988
974	0.7635
965	0.6713
956	0.572
947	0.5017
938	0.4004
929	0.3688
920	0.3722
911	0.4153
902	0.4791
893	0.5469
884	0.5986
875	0.631
866	0.6696
857	0.692
848	0.6538
839	0.6334
830	0.7609
821	0.7663
812	0.7684
803	0.5473
794	0.6726
785	0.4996
776	0.565
767	0.746
758	0.729
749	0.2794
740	0.006
731	0.1133
722	0.4184
713	0.4771
704	0.3156
695	0.154
686	0.85
677	0.8875
668	0.802
659	0.2318
650	0.7816
641	0.8216
632	0.8283
623	0.6802
614	0.5459
605	0.8022
596	0.8502
587	0.823
578	0.6123
569	0.7562
560	0.6788
551	0.635
542	0.7476
533	0.8042
524	0.8335
515	0.8476
506	0.8511
497	0.8453
488	0.8198
479	0.6861
470	0.6818
461	0.6775
