Infrared Spectrum: Benzamide, N-methyl-
Formula: C8 H9 N O
CAS: 613-93-4
State: SOLUTION (10% CCl4 FOR 3800-1335, 10% CS2 FOR 1335-420 CM^-^1)
Class: COBLENTZ III
Instrument: DOW KBr FOREPRISM-GRATING
Instrument parameters: BLAZED AT 3.5, 12.0, 20.0 MICRON AND CHANGED AT 5.0, 7.5, 14.9 MICRON
Sampling: TRANSMISSION
Path length: 0.012 CM, 0.011 CM
Resolution: 2
Origin: DOW CHEMICAL COMPANY
1/CM	TRANSMITTANCE
3798	0.9362
3789	0.9392
3780	0.939
3771	0.9384
3762	0.9379
3753	0.9366
3744	0.9334
3735	0.9327
3726	0.9334
3717	0.9331
3708	0.9289
3699	0.9084
3690	0.8985
3681	0.9035
3672	0.9111
3663	0.9175
3654	0.9224
3645	0.9247
3636	0.9249
3627	0.9283
3618	0.928
3609	0.9272
3600	0.9247
3591	0.9241
3582	0.9201
3573	0.9136
3564	0.903
3555	0.8984
3546	0.8912
3537	0.8811
3528	0.8692
3519	0.8589
3510	0.8276
3501	0.7747
3492	0.7083
3483	0.6782
3474	0.684
3465	0.6982
3456	0.673
3447	0.6393
3438	0.6006
3429	0.5306
3420	0.4325
3411	0.2665
3402	0.1911
3393	0.1401
3384	0.1015
3375	0.0665
3366	0.0493
3357	0.0381
3348	0.0292
3339	0.0247
3330	0.0223
3321	0.0267
3312	0.0392
3303	0.0552
3294	0.0828
3285	0.1262
3276	0.1773
3267	0.2655
3258	0.3474
3249	0.4001
3240	0.4367
3231	0.4808
3222	0.5094
3213	0.5353
3204	0.5611
3195	0.5891
3186	0.6351
3177	0.6575
3168	0.6685
3159	0.6759
3150	0.6894
3141	0.6958
3132	0.6969
3123	0.6791
3114	0.6347
3105	0.5923
3096	0.5469
3087	0.4706
3078	0.45
3069	0.3859
3060	0.4738
3051	0.589
3042	0.5858
3033	0.5193
3024	0.594
3015	0.6382
3006	0.6378
2997	0.644
2988	0.651
2979	0.6073
2970	0.5254
2961	0.4462
2952	0.4105
2943	0.3737
2934	0.4099
2925	0.4771
2916	0.5416
2907	0.5324
2898	0.5105
2889	0.5531
2880	0.5661
2871	0.6004
2862	0.6582
2853	0.7012
2844	0.7484
2835	0.7822
2826	0.7968
2817	0.8013
2808	0.7579
2799	0.7554
2790	0.8069
2781	0.8417
2772	0.8665
2763	0.8799
2754	0.8857
2745	0.8895
2736	0.8926
2727	0.8943
2718	0.8946
2709	0.8948
2700	0.8969
2691	0.9056
2682	0.9151
2673	0.9187
2664	0.9177
2655	0.9217
2646	0.9232
2637	0.9207
2628	0.9225
2619	0.9209
2610	0.9161
2601	0.9147
2592	0.9192
2583	0.9227
2574	0.9239
2565	0.9217
2556	0.921
2547	0.9231
2538	0.9285
2529	0.9321
2520	0.9329
2511	0.9321
2502	0.9304
2493	0.9275
2484	0.9221
2475	0.9236
2466	0.9251
2457	0.9298
2448	0.9373
2439	0.9409
2430	0.9425
2421	0.9431
2412	0.9431
2403	0.946
2394	0.9452
2385	0.9484
2376	0.9621
2367	0.9642
2358	0.9695
2349	0.959
2340	0.962
2331	0.9647
2322	0.9545
2313	0.9443
2304	0.9573
2295	0.9667
2286	0.9654
2277	0.9612
2268	0.9539
2259	0.9506
2250	0.9456
2241	0.9452
2232	0.9442
2223	0.945
2214	0.942
2205	0.9416
2196	0.9411
2187	0.9371
2178	0.9165
2169	0.9072
2160	0.9191
2151	0.9208
2142	0.9281
2133	0.9327
2124	0.9355
2115	0.9375
2106	0.9393
2097	0.9372
2088	0.9419
2079	0.943
2070	0.9441
2061	0.9442
2052	0.9457
2043	0.943
2034	0.9415
2025	0.9402
2016	0.937
2007	0.932
1998	0.9233
1989	0.92
1980	0.9046
1971	0.8786
1962	0.8724
1953	0.8526
1944	0.9069
1935	0.9201
1926	0.9143
1917	0.8899
1908	0.8727
1899	0.8696
1890	0.8765
1881	0.9038
1872	0.9186
1863	0.9186
1854	0.9123
1845	0.9066
1836	0.8975
1827	0.8768
1818	0.8531
1809	0.8452
1800	0.8744
1791	0.8845
1782	0.8683
1773	0.8372
1764	0.8295
1755	0.8251
1746	0.8294
1737	0.7909
1728	0.7749
1719	0.7694
1710	0.7307
1701	0.6728
1692	0.6068
1683	0.3242
1674	0.058
1665	0.0089
1656	-0.0036
1647	-0.0036
1638	-0.0036
1629	-0.0036
1620	0.0185
1611	0.1237
1602	0.0399
1593	0.4155
1584	0.1904
1575	0.0219
1566	0.0483
1557	0.0295
1548	0.0028
1539	-0.0036
1530	0.0019
1521	0.0061
1512	0.0795
1503	0.2351
1494	0.222
1485	0.072
1476	0.329
1467	0.3754
1458	0.4095
1449	0.3816
1440	0.4581
1431	0.5463
1422	0.548
1413	0.0161
1404	0.1713
1395	0.391
1386	0.4818
1377	0.5421
1368	0.5567
1359	0.5554
1350	0.529
1341	0.4201
1332	0.3739
1323	0.1811
1314	0.0704
1305	0.0376
1296	0.0905
1287	0.2015
1278	0.2848
1269	0.3846
1260	0.4673
1251	0.5351
1242	0.5829
1233	0.6536
1224	0.6971
1215	0.6944
1206	0.7105
1197	0.7054
1188	0.6286
1179	0.542
1170	0.5411
1161	0.3292
1152	0.3748
1143	0.524
1134	0.6843
1125	0.7299
1116	0.7818
1107	0.7877
1098	0.7677
1089	0.7715
1080	0.7201
1071	0.5864
1062	0.7531
1053	0.8056
1044	0.827
1035	0.5692
1026	0.718
1017	0.7933
1008	0.5224
999	0.733
990	0.7622
981	0.7852
972	0.7985
963	0.8221
954	0.8394
945	0.8397
936	0.791
927	0.6642
918	0.7519
909	0.8376
900	0.861
891	0.8853
882	0.9112
873	0.9362
864	0.9688
855	0.9611
846	0.8079
837	0.6485
828	0.7721
819	0.8127
810	0.7729
801	0.5216
792	0.754
783	0.7718
774	0.7805
765	0.7745
756	0.7643
747	0.7537
738	0.6945
729	0.5552
720	0.2284
711	-0.0036
702	0.0034
693	0.0147
684	0.371
675	0.3038
666	0.35
657	0.4272
648	0.3988
639	0.4119
630	0.4549
621	0.5094
612	0.5176
603	0.5762
594	0.6227
585	0.6608
576	0.6894
567	0.7123
558	0.7304
549	0.7389
540	0.7519
531	0.7501
522	0.7351
513	0.7193
504	0.6828
495	0.683
486	0.6843
477	0.6878
468	0.6931
459	0.6997
450	0.7038
441	0.7076
432	0.7102
423	0.7108
414	0.7109
405	0.7091
396	0.6471
