Infrared Spectrum: METHYLETHYL ANILINE
Formula: C9 H13 N
CAS: 613-97-8
State: SOLUTION (10% CCl4 FOR 5000-1330, 10% CS2 FOR 1330-625 CM^-^1)
Class: COBLENTZ
Instrument: Not specified, most likely a prism, grating, or hybrid spectrometer.
Sampling: TRANSMISSION
Path length: 0.0110 CM, 0.0106 CM
Resolution: 4
Origin: DOW CHEMICAL COMPANY
MICROMETERS	TRANSMITTANCE
2.034	0.902
2.0751	0.902
2.11619	0.895
2.15729	0.903
2.19838	0.9
2.23948	0.888
2.28057	0.883
2.32167	0.891
2.36276	0.895
2.40386	0.891
2.44496	0.886
2.48605	0.902
2.52715	0.91
2.56824	0.909
2.60934	0.917
2.65043	0.924
2.69153	0.922
2.73262	0.922
2.77372	0.924
2.81482	0.922
2.85591	0.917
2.89701	0.891
2.9381	0.883
2.9792	0.883
3.02029	0.89
3.06139	0.886
3.10248	0.876
3.14358	0.866
3.18468	0.807
3.22577	0.66
3.26687	0.571
3.30796	0.542
3.34906	0.353
3.39015	0.276
3.43125	0.334
3.47234	0.382
3.51344	0.545
3.55454	0.502
3.59563	0.737
3.63673	0.843
3.67782	0.866
3.71892	0.871
3.76001	0.876
3.80111	0.878
3.8422	0.874
3.8833	0.876
3.9244	0.893
3.96549	0.907
4.00659	0.91
4.04768	0.924
4.08878	0.922
4.12987	0.926
4.17097	0.922
4.21207	0.921
4.25316	0.921
4.29426	0.922
4.33535	0.922
4.37645	0.926
4.41754	0.929
4.45864	0.926
4.49973	0.931
4.54083	0.945
4.58193	0.95
4.62302	0.95
4.66412	0.95
4.70521	0.95
4.74631	0.945
4.7874	0.929
4.8285	0.927
4.86959	0.933
4.91069	0.939
4.95179	0.939
4.99288	0.929
5.03398	0.927
5.07507	0.933
5.11617	0.927
5.15726	0.917
5.19836	0.866
5.23945	0.855
5.28055	0.89
5.32165	0.902
5.36274	0.912
5.40384	0.922
5.44493	0.915
5.48603	0.888
5.52712	0.878
5.56822	0.888
5.60931	0.893
5.65041	0.859
5.69151	0.83
5.7326	0.828
5.7737	0.804
5.81479	0.72
5.85589	0.734
5.89698	0.799
5.93808	0.816
5.97917	0.674
6.02027	0.581
6.06137	0.639
6.10246	0.699
6.14356	0.579
6.18465	0.31
6.22575	0.013
6.26684	0.075
6.30794	0.265
6.34903	0.298
6.39013	0.36
6.43123	0.392
6.47232	0.399
6.51342	0.428
6.55451	0.423
6.59561	0.267
6.6367	0.101
6.6778	0.072
6.71889	0.231
6.75999	0.375
6.80109	0.439
6.84218	0.487
6.88328	0.379
6.92437	0.53
6.96547	0.598
7.00656	0.608
7.04766	0.68
7.08875	0.674
7.12985	0.62
7.17095	0.5
7.21204	0.332
7.25314	0.154
7.29423	0.085
7.33533	0.157
7.37642	0.222
7.41752	0.166
7.45861	0.409
7.49971	0.595
7.54081	0.631
7.5819	0.62
7.623	0.535
7.66409	0.531
7.70519	0.548
7.74628	0.53
7.78738	0.433
7.82847	0.24
7.86957	0.132
7.91067	0.212
7.95176	0.463
7.99286	0.569
8.03395	0.622
8.07505	0.619
8.11614	0.514
8.15724	0.324
8.19833	0.19
8.23943	0.259
8.28053	0.439
8.32162	0.487
8.36272	0.384
8.40381	0.451
8.44491	0.619
8.486	0.662
8.5271	0.658
8.5682	0.533
8.60929	0.312
8.65039	0.269
8.69148	0.452
8.73258	0.548
8.77367	0.607
8.81477	0.653
8.85586	0.67
8.89696	0.66
8.93806	0.622
8.97915	0.602
9.02025	0.644
9.06134	0.677
9.10244	0.677
9.14353	0.648
9.18463	0.536
9.22572	0.423
9.26682	0.387
9.30792	0.444
9.34901	0.495
9.39011	0.476
9.4312	0.547
9.4723	0.682
9.51339	0.742
9.55449	0.754
9.59558	0.677
9.63668	0.502
9.67778	0.399
9.71887	0.576
9.75997	0.715
9.80106	0.756
9.84216	0.765
9.88325	0.758
9.92435	0.696
9.96544	0.602
10.0065	0.367
10.0476	0.231
10.0887	0.392
10.1298	0.61
10.1709	0.689
10.212	0.706
10.2531	0.735
10.2942	0.777
10.3353	0.801
10.3764	0.811
10.4175	0.819
10.4586	0.825
10.4997	0.826
10.5408	0.828
10.5819	0.83
10.623	0.837
10.6641	0.847
10.7052	0.85
10.7463	0.852
10.7874	0.855
10.8285	0.857
10.8695	0.859
10.9106	0.859
10.9517	0.857
10.9928	0.857
11.0339	0.84
11.075	0.821
11.1161	0.795
11.1572	0.723
11.1983	0.662
11.2394	0.663
11.2805	0.735
11.3216	0.751
11.3627	0.753
11.4038	0.739
11.4449	0.713
11.486	0.686
11.5271	0.641
11.5682	0.576
11.6093	0.493
11.6504	0.487
11.6915	0.542
11.7326	0.615
11.7736	0.694
11.8147	0.746
11.8558	0.778
11.8969	0.806
11.938	0.818
11.9791	0.826
12.0202	0.83
12.0613	0.831
12.1024	0.831
12.1435	0.83
12.1846	0.826
12.2257	0.818
12.2668	0.809
12.3079	0.795
12.349	0.778
12.3901	0.758
12.4312	0.744
12.4723	0.725
12.5134	0.698
12.5545	0.655
12.5956	0.59
12.6367	0.56
12.6778	0.595
12.7188	0.66
12.7599	0.716
12.801	0.735
12.8421	0.751
12.8832	0.753
12.9243	0.749
12.9654	0.711
13.0065	0.675
13.0476	0.65
13.0887	0.631
13.1298	0.596
13.1709	0.54
13.212	0.444
13.2531	0.324
13.2942	0.183
13.3353	0.053
13.3764	0.005
13.4175	0.001
13.4586	0.049
13.4997	0.154
13.5408	0.32
13.5819	0.449
13.6229	0.526
13.664	0.552
13.7051	0.55
13.7462	0.531
13.7873	0.567
13.8284	0.629
13.8695	0.658
13.9106	0.67
13.9517	0.672
13.9928	0.672
14.0339	0.665
14.075	0.651
14.1161	0.631
14.1572	0.602
14.1983	0.545
14.2394	0.492
14.2805	0.423
14.3216	0.343
14.3627	0.276
14.4038	0.18
14.4449	0.102
14.486	0.07
14.5271	0.085
14.5681	0.144
14.6092	0.252
14.6503	0.358
14.6914	0.42
14.7325	0.457
14.7736	0.476
14.8147	0.488
14.8558	0.499
14.8969	0.5
14.938	0.502
14.9791	0.507
15.0202	0.509
15.0613	0.507
15.1024	0.502
15.1435	0.5
15.1846	0.492
15.2257	0.481
15.2668	0.471
15.3079	0.468
15.349	0.464
15.3901	0.463
15.4312	0.463
15.4723	0.463
15.5133	0.459
15.5544	0.454
15.5955	0.452
15.6366	0.452
15.6777	0.452
15.7188	0.454
15.7599	0.452
15.801	0.452
15.8421	0.452
15.8832	0.452
15.9243	0.452
