Infrared Spectrum: 9,10-DIHYDROANTHRACENE
Formula: C14 H12
CAS: 613-31-0
State: SOLUTION (10% CCl4 FOR 3800-1330, 10% CS2 FOR 1330-400 CM^-^1)
Class: COBLENTZ III
Instrument: BECKMAN IR-9 (GRATING)
Instrument parameters: ORDER CHANGES: 670, 1200, 2000 CM^-^1
Sampling: TRANSMISSION
Path length: 0.011 CM, 0.011 CM
Resolution: 2
Origin: DOW CHEMICAL COMPANY
1/CM	TRANSMITTANCE
414.813	0.457
423.595	0.612
432.377	0.559
441.16	0.711
449.942	0.836
458.724	0.884
467.506	0.91
476.289	0.958
485.071	0.975
493.853	0.993
502.635	1.015
511.417	1.026
520.2	1.031
528.982	1.034
537.764	1.039
546.546	1.038
555.329	1.038
564.111	1.035
572.893	1.03
581.675	1.02
590.457	0.998
599.24	0.719
608.022	0.4271
616.804	0.929
625.586	0.975
634.369	0.95
643.151	0.958
651.933	0.938
660.715	0.958
669.497	0.982
678.28	1.002
687.062	1.01
695.844	0.997
704.626	0.967
713.409	0.883
722.191	0.321
730.973	0.2341
739.755	0.45
748.537	0.3209
757.32	0.0862
766.102	0.792
774.884	0.918
783.666	0.961
792.449	0.978
801.231	0.989
810.013	0.998
818.795	1.005
827.577	1.001
836.36	0.964
845.142	0.885
853.924	0.826
862.706	0.825
871.489	0.868
880.271	0.902
889.053	0.912
897.835	0.913
906.617	0.99
915.4	1.006
924.182	1.005
932.964	0.982
941.746	0.962
950.529	0.432
959.311	0.8481
968.093	0.956
976.875	0.968
985.657	0.983
994.44	0.984
1003.22	0.994
1012	0.997
1020.79	0.991
1029.57	0.979
1038.35	0.622
1047.13	0.978
1055.92	1.006
1064.7	1.005
1073.48	0.997
1082.26	0.997
1091.04	0.997
1099.83	0.997
1108.61	0.989
1117.39	0.7259
1126.17	0.946
1134.96	0.973
1143.74	0.939
1152.52	0.844
1161.3	0.884
1170.08	0.92
1178.87	0.8638
1187.65	0.927
1196.43	0.929
1205.21	0.7961
1214	0.946
1222.78	0.979
1231.56	0.984
1240.34	0.986
1249.12	0.99
1257.91	0.973
1266.69	0.932
1275.47	0.92
1284.25	0.8201
1293.04	0.96
1301.82	0.978
1310.6	0.982
1319.38	0.984
1328.16	0.953
1336.95	0.964
1345.73	0.975
1354.51	0.965
1363.29	0.989
1372.08	0.994
1380.86	0.986
1389.64	0.98
1398.42	0.951
1407.2	0.934
1415.99	0.873
1424.77	0.4491
1433.55	0.901
1442.33	0.8839
1451.12	0.145
1459.9	0.723
1468.68	0.659
1477.46	0.244
1486.24	0.306
1495.03	0.5711
1503.81	0.737
1512.59	0.763
1521.37	0.737
1530.16	0.681
1538.94	0.59
1547.72	0.531
1556.5	0.556
1565.28	0.633
1574.07	0.5809
1582.85	0.69
1591.63	0.774
1600.41	0.829
1609.2	0.865
1617.98	0.94
1626.76	0.978
1635.54	0.986
1644.32	0.986
1653.11	0.998
1661.89	0.994
1670.67	0.98
1679.45	0.976
1688.24	0.987
1697.02	0.973
1705.8	0.978
1714.58	0.997
1723.36	1.012
1732.15	1.015
1740.93	1.019
1749.71	1.02
1758.49	1.015
1767.28	1.015
1776.06	1.017
1784.84	1.001
1793.62	0.912
1802.4	0.951
1811.19	0.984
1819.97	0.971
1828.75	0.961
1837.53	0.953
1846.32	0.989
1855.1	0.998
1863.88	0.984
1872.66	0.997
1881.44	1.008
1890.23	0.989
1899.01	0.994
1907.79	0.914
1916.57	0.986
1925.36	0.951
1934.14	0.971
1942.92	0.912
1951.7	0.989
1960.48	1.012
1969.27	1.017
1978.05	1.019
1986.83	1.012
1995.61	0.9541
2004.4	1.01
2013.18	1.01
2021.96	1.0109
2030.74	1.015
2039.52	1.017
2048.31	1.0204
2057.09	1.023
2065.87	1.0132
2074.65	1.0236
2083.44	1.026
2092.22	1.027
2101	1.026
2109.78	1.026
2118.56	1.0253
2127.35	1.024
2136.13	1.024
2144.91	1.024
2153.69	1.024
2162.48	1.024
2171.26	1.024
2180.04	1.024
2188.82	1.024
2197.6	1.026
2206.39	1.026
2215.17	1.026
2223.95	1.024
2232.73	1.024
2241.52	1.021
2250.3	1.0186
2259.08	1.0088
2267.86	0.9996
2276.64	0.997
2285.43	1.0012
2294.21	1.002
2302.99	1.001
2311.77	0.9979
2320.56	0.994
2329.34	0.9983
2338.12	1.0063
2346.9	1.0161
2355.68	1.0211
2364.47	1.027
2373.25	1.02
2382.03	1.0211
2390.81	1.027
2399.6	1.028
2408.38	1.027
2417.16	1.027
2425.94	1.027
2434.72	1.0241
2443.51	1.023
2452.29	1.023
2461.07	1.023
2469.85	1.023
2478.64	1.0212
2487.42	1.021
2496.2	1.021
2504.98	1.023
2513.76	1.0258
2522.55	1.027
2531.33	1.027
2540.11	1.0262
2548.89	1.0232
2557.68	1.0175
2566.46	1.0146
2575.24	1.0226
2584.02	1.026
2592.8	1.0244
2601.59	1.0179
2610.37	1.0208
2619.15	1.017
2627.93	1.013
2636.72	1.0207
2645.5	1.0233
2654.28	1.0216
2663.06	1.0207
2671.84	1.024
2680.63	1.026
2689.41	1.0247
2698.19	1.024
2706.97	1.026
2715.75	1.0194
2724.54	1.0215
2733.32	1.023
2742.1	1.0154
2750.88	1.0072
2759.67	1.004
2768.45	1.0004
2777.23	0.9851
2786.01	0.9659
2794.79	0.9059
2803.58	0.7268
2812.36	0.5755
2821.14	0.6437
2829.92	0.904
2838.71	0.935
2847.49	0.9006
2856.27	0.7129
2865.05	0.7367
2873.83	0.8546
2882.62	0.9043
2891.4	0.9234
2900.18	0.8976
2908.96	0.8372
2917.75	0.7837
2926.53	0.7136
2935.31	0.6456
2944.09	0.7118
2952.87	0.8363
2961.66	0.908
2970.44	0.9383
2979.22	0.951
2988	0.9512
2996.79	0.8959
3005.57	0.7037
3014.35	0.5855
3023.13	0.3312
3031.91	0.5532
3040.7	0.6003
3049.48	0.6303
3058.26	0.7115
3067.04	0.5343
3075.83	0.6072
3084.61	0.7536
3093.39	0.8852
3102.17	0.921
3110.95	0.9183
3119.74	0.9721
3128.52	0.9913
3137.3	0.995
3146.08	0.9982
3154.87	1.001
3163.65	0.9997
3172.43	1.0012
3181.21	1.009
3189.99	1.006
3198.78	1.0039
3207.56	1.001
3216.34	1.008
3225.12	1.009
3233.91	1.012
3242.69	1.012
3251.47	1.012
3260.25	1.009
3269.03	1.008
3277.82	1.006
3286.6	1.0021
3295.38	1.002
3304.16	1.001
3312.95	1.002
3321.73	1.004
3330.51	1.006
3339.29	1.009
3348.07	1.01
3356.86	1.009
3365.64	1.006
3374.42	1.005
3383.2	1.0012
3391.99	0.9954
3400.77	0.9892
3409.55	0.984
3418.33	0.986
3427.11	0.987
3435.9	0.9908
3444.68	0.9938
3453.46	0.991
3462.24	0.9875
3471.03	0.986
3479.81	0.9897
3488.59	0.9937
3497.37	0.997
3506.15	1.0017
3514.94	1.002
3523.72	1.002
3532.5	1.004
3541.28	1.004
3550.07	1.006
3558.85	1.008
3567.63	1.009
3576.41	1.009
3585.19	1.008
3593.98	1.006
3602.76	1.005
3611.54	1.004
3620.32	1.002
3629.11	1.002
3637.89	1.005
3646.67	1.006
3655.45	1.006
3664.23	1.006
3673.02	1.006
3681.8	1.0045
3690.58	1.004
3699.36	1.002
3708.15	1.002
3716.93	1.0029
3725.71	1.006
3734.49	1.008
3743.27	1.008
3752.06	1.008
3760.84	1.008
3769.62	1.008
3778.4	1.006
3787.19	1.005
