Infrared Spectrum: 4,4'-DIMETHYLBIPHENYL
Formula: C14 H14
CAS: 613-33-2
State: SOLUTION (10% CCl4 FOR 3800-1330, 10% CS2 FOR 1330-400 CM^-^1)
Class: COBLENTZ III
Instrument: BECKMAN IR-9 (GRATING)
Instrument parameters: ORDER CHANGES: 670, 1200, 2000 CM^-^1
Sampling: TRANSMISSION
Path length: 0.010 CM, 0.012 CM
Resolution: 2
Origin: DOW CHEMICAL COMPANY
1/CM	TRANSMITTANCE
403.339	0.078
412.126	0.217
420.914	0.416
429.701	0.453
438.489	0.612
447.276	0.681
456.063	0.714
464.851	0.748
473.638	0.762
482.425	0.765
491.213	0.692
500	0.408
508.788	0.466
517.575	0.72
526.362	0.762
535.15	0.851
543.937	0.623
552.724	0.868
561.512	0.906
570.299	0.918
579.087	0.928
587.874	0.937
596.661	0.948
605.449	0.957
614.236	0.958
623.023	0.958
631.811	0.951
640.598	0.924
649.386	0.884
658.173	0.888
666.96	0.948
675.748	0.954
684.535	0.893
693.322	0.913
702.11	0.922
710.897	0.926
719.685	0.926
728.472	0.908
737.259	0.965
746.047	0.982
754.834	0.99
763.621	0.99
772.409	0.986
781.196	0.948
789.984	0.8619
798.771	0.2419
807.558	0.136
816.346	0.681
825.133	0.779
833.92	0.6189
842.708	0.718
851.495	0.797
860.283	0.771
869.07	0.804
877.857	0.852
886.645	0.899
895.432	0.943
904.219	0.962
913.007	0.973
921.794	0.977
930.582	0.971
939.369	0.903
948.156	0.928
956.944	0.935
965.731	0.92
974.518	0.948
983.306	0.947
992.093	0.931
1000.88	0.924
1009.67	0.481
1018.46	0.881
1027.24	0.84
1036.03	0.776
1044.82	0.758
1053.6	0.856
1062.39	0.9
1071.18	0.908
1079.97	0.913
1088.75	0.92
1097.54	0.915
1106.33	0.862
1115.12	0.733
1123.9	0.783
1132.69	0.845
1141.48	0.913
1150.27	0.929
1159.05	0.931
1167.84	0.924
1176.63	0.914
1185.42	0.7791
1194.2	0.908
1202.99	0.918
1211.78	0.924
1220.56	0.904
1229.35	0.955
1238.14	0.953
1246.93	0.92
1255.71	0.926
1264.5	0.924
1273.29	0.931
1282.08	0.948
1290.86	0.942
1299.65	0.933
1308.44	0.928
1317.23	0.873
1326.01	0.922
1334.8	0.921
1343.59	0.932
1352.38	0.933
1361.16	0.932
1369.95	0.929
1378.74	0.886
1387.53	0.893
1396.31	0.903
1405.1	0.841
1413.89	0.873
1422.67	0.863
1431.46	0.842
1440.25	0.777
1449.04	0.7
1457.82	0.689
1466.61	0.758
1475.4	0.801
1484.19	0.6879
1492.97	0.7
1501.76	0.2337
1510.55	0.5321
1519.34	0.675
1528.12	0.675
1536.91	0.617
1545.7	0.528
1554.49	0.489
1563.27	0.508
1572.06	0.591
1580.85	0.645
1589.63	0.671
1598.42	0.725
1607.21	0.79
1616	0.8
1624.78	0.79
1633.57	0.801
1642.36	0.826
1651.15	0.891
1659.93	0.914
1668.72	0.921
1677.51	0.908
1686.3	0.947
1695.08	0.961
1703.87	0.968
1712.66	0.972
1721.45	0.975
1730.23	0.979
1739.02	0.979
1747.81	0.979
1756.59	0.976
1765.38	0.976
1774.17	0.976
1782.96	0.976
1791.74	0.966
1800.53	0.924
1809.32	0.964
1818.11	0.976
1826.89	0.98
1835.68	0.98
1844.47	0.98
1853.26	0.977
1862.04	0.977
1870.83	0.976
1879.62	0.975
1888.41	0.972
1897.19	0.92
1905.98	0.8441
1914.77	0.924
1923.56	0.962
1932.34	0.976
1941.13	0.98
1949.92	0.979
1958.7	0.979
1967.49	0.979
1976.28	0.979
1985.07	0.977
1993.85	0.977
2002.64	0.9535
2011.43	0.9575
2020.22	1.0005
2029	1.001
2037.79	1.001
2046.58	1.001
2055.37	1.001
2064.15	1.001
2072.94	1.0005
2081.73	0.9961
2090.52	1.002
2099.3	1.002
2108.09	1.0015
2116.88	1.001
2125.66	1
2134.45	0.998
2143.24	0.998
2152.03	0.998
2160.81	0.998
2169.6	0.997
2178.39	0.997
2187.18	0.995
2195.96	0.994
2204.75	0.993
2213.54	0.991
2222.33	0.991
2231.11	0.993
2239.9	0.991
2248.69	0.988
2257.48	0.9864
2266.26	0.982
2275.05	0.977
2283.84	0.9724
2292.62	0.9654
2301.41	0.961
2310.2	0.958
2318.99	0.958
2327.77	0.9592
2336.56	0.968
2345.35	0.9726
2354.14	0.975
2362.92	0.977
2371.71	0.9813
2380.5	0.986
2389.29	0.987
2398.07	0.9781
2406.86	0.977
2415.65	0.977
2424.44	0.975
2433.22	0.975
2442.01	0.975
2450.8	0.973
2459.58	0.9723
2468.37	0.969
2477.16	0.969
2485.95	0.969
2494.73	0.969
2503.52	0.969
2512.31	0.969
2521.1	0.9711
2529.88	0.969
2538.67	0.969
2547.46	0.969
2556.25	0.969
2565.03	0.969
2573.82	0.966
2582.61	0.965
2591.4	0.9613
2600.18	0.9485
2608.97	0.947
2617.76	0.9532
2626.55	0.953
2635.33	0.953
2644.12	0.953
2652.91	0.955
2661.69	0.955
2670.48	0.955
2679.27	0.954
2688.06	0.953
2696.84	0.95
2705.63	0.9462
2714.42	0.9407
2723.21	0.9335
2731.99	0.9265
2740.78	0.9111
2749.57	0.8949
2758.36	0.9166
2767.14	0.9218
2775.93	0.925
2784.72	0.925
2793.51	0.9224
2802.29	0.9184
2811.08	0.9142
2819.87	0.911
2828.65	0.9044
2837.44	0.8938
2846.23	0.8779
2855.02	0.8303
2863.8	0.7275
2872.59	0.6599
2881.38	0.6808
2890.17	0.7038
2898.95	0.714
2907.74	0.7132
2916.53	0.6922
2925.32	0.4937
2934.1	0.4784
2942.89	0.613
2951.68	0.63
2960.47	0.6274
2969.25	0.6507
2978.04	0.662
2986.83	0.645
2995.61	0.649
3004.4	0.6331
3013.19	0.624
3021.98	0.6027
3030.76	0.3997
3039.55	0.4824
3048.34	0.6304
3057.13	0.633
3065.91	0.6598
3074.7	0.751
3083.49	0.7897
3092.28	0.7602
3101.06	0.7829
3109.85	0.8559
3118.64	0.8837
3127.43	0.8881
3136.21	0.8888
3145	0.899
3153.79	0.9
3162.58	0.9059
3171.36	0.907
3180.15	0.907
3188.94	0.908
3197.72	0.908
3206.51	0.91
3215.3	0.91
3224.09	0.91
3232.87	0.908
3241.66	0.907
3250.45	0.906
3259.24	0.906
3268.02	0.904
3276.81	0.903
3285.6	0.902
3294.39	0.902
3303.17	0.897
3311.96	0.892
3320.75	0.885
3329.54	0.88
3338.32	0.88
3347.11	0.881
3355.9	0.877
3364.68	0.874
3373.47	0.873
3382.26	0.873
3391.05	0.873
3399.83	0.874
3408.62	0.874
3417.41	0.874
3426.2	0.874
3434.98	0.874
3443.77	0.873
3452.56	0.874
3461.35	0.875
3470.13	0.877
3478.92	0.8821
3487.71	0.888
3496.5	0.892
3505.28	0.896
3514.07	0.9
3522.86	0.9031
3531.64	0.907
3540.43	0.9101
3549.22	0.9141
3558.01	0.92
3566.79	0.924
3575.58	0.926
3584.37	0.929
3593.16	0.9311
3601.94	0.933
3610.73	0.933
