Infrared Spectrum: 2-METHYLANTHRACENE
Formula: C15 H12
CAS: 613-12-7
State: SOLID (1.0% IN KBr PELLET)
Class: COBLENTZ
Instrument: Not specified, most likely a prism, grating, or hybrid spectrometer.
Sampling: TRANSMISSION
Path length: 0.0355 CM THICK
Resolution: 4
Origin: ANDERSON PHYSICAL LABORATORY
1/CM	TRANSMITTANCE
665.73	0.881
674.157	0.894
682.584	0.89
691.011	0.888
699.438	0.882
707.865	0.875
716.292	0.839
724.719	0.75
733.146	0.2911
741.573	0.5969
750	0.914
758.427	0.923
766.854	0.923
775.281	0.923
783.708	0.912
792.135	0.852
800.562	0.755
808.989	0.927
817.416	0.926
825.843	0.923
834.27	0.921
842.697	0.909
851.124	0.902
859.551	0.855
867.978	0.782
876.405	0.822
884.832	0.6241
893.259	0.147
901.686	0.669
910.112	0.854
918.539	0.93
926.966	0.93
935.393	0.915
943.82	0.878
952.247	0.708
960.674	0.738
969.101	0.915
977.528	0.918
985.955	0.917
994.382	0.903
1002.81	0.87
1011.24	0.881
1019.66	0.891
1028.09	0.864
1036.52	0.827
1044.94	0.861
1053.37	0.903
1061.8	0.912
1070.23	0.915
1078.65	0.915
1087.08	0.912
1095.51	0.911
1103.93	0.906
1112.36	0.908
1120.79	0.908
1129.21	0.903
1137.64	0.899
1146.07	0.9
1154.49	0.869
1162.92	0.855
1171.35	0.831
1179.78	0.902
1188.2	0.902
1196.63	0.906
1205.06	0.906
1213.48	0.906
1221.91	0.905
1230.34	0.9
1238.76	0.9
1247.19	0.9
1255.62	0.896
1264.05	0.875
1272.47	0.827
1280.9	0.89
1289.33	0.884
1297.75	0.87
1306.18	0.753
1314.61	0.878
1323.03	0.89
1331.46	0.882
1339.89	0.879
1348.32	0.873
1356.74	0.854
1365.17	0.821
1373.6	0.834
1382.02	0.816
1390.45	0.861
1398.88	0.86
1407.3	0.86
1415.73	0.864
1424.16	0.849
1432.59	0.83
1441.01	0.783
1449.44	0.767
1457.87	0.701
1466.29	0.725
1474.72	0.815
1483.15	0.821
1491.57	0.87
1500	0.878
1508.43	0.866
1516.86	0.86
1525.28	0.836
1533.71	0.807
1542.14	0.825
1550.56	0.867
1558.99	0.867
1567.42	0.872
1575.84	0.857
1584.27	0.852
1592.7	0.852
1601.13	0.848
1609.55	0.848
1617.98	0.813
1626.41	0.734
1634.83	0.729
1643.26	0.819
1651.69	0.86
1660.11	0.857
1668.54	0.852
1676.97	0.852
1685.39	0.84
1693.82	0.84
1702.25	0.843
1710.68	0.848
1719.1	0.851
1727.53	0.84
1735.96	0.842
1744.38	0.849
1752.81	0.845
1761.24	0.843
1769.66	0.846
1778.09	0.836
1786.52	0.828
1794.95	0.819
1803.37	0.83
1811.8	0.843
1820.23	0.848
1828.65	0.851
1837.08	0.846
1845.51	0.845
1853.93	0.845
1862.36	0.848
1870.79	0.848
1879.22	0.848
1887.64	0.846
1896.07	0.84
1904.5	0.834
1912.92	0.825
1921.35	0.815
1929.78	0.819
1938.2	0.827
1946.63	0.833
1955.06	0.836
1963.49	0.836
1971.91	0.836
1980.34	0.836
1988.77	0.836
1997.19	0.834
2005.62	0.827
2014.05	0.8242
2022.47	0.824
2030.9	0.821
2039.33	0.821
2047.76	0.821
2056.18	0.819
2064.61	0.8157
2073.04	0.8139
2081.46	0.8104
2089.89	0.8089
2098.32	0.8054
2106.74	0.804
2115.17	0.804
2123.6	0.803
2132.02	0.803
2140.45	0.801
2148.88	0.8
2157.31	0.795
2165.73	0.794
2174.16	0.789
2182.59	0.789
2191.01	0.789
2199.44	0.7873
2207.87	0.7854
2216.29	0.7833
2224.72	0.7799
2233.15	0.7766
2241.58	0.7734
2250	0.7713
2258.43	0.7677
2266.86	0.7646
2275.28	0.762
2283.71	0.762
2292.14	0.7603
2300.56	0.7508
2308.99	0.744
2317.42	0.743
2325.85	0.743
2334.27	0.743
2342.7	0.747
2351.13	0.747
2359.55	0.747
2367.98	0.747
2376.41	0.747
2384.83	0.7461
2393.26	0.7424
2401.69	0.738
2410.12	0.7373
2418.54	0.7351
2426.97	0.7336
2435.4	0.731
2443.82	0.729
2452.25	0.728
2460.68	0.7258
2469.1	0.723
2477.53	0.7205
2485.96	0.72
2494.39	0.719
2502.81	0.719
2511.24	0.717
2519.67	0.716
2528.09	0.716
2536.52	0.716
2544.95	0.7117
2553.37	0.71
2561.8	0.7094
2570.23	0.7054
2578.65	0.7012
2587.08	0.699
2595.51	0.698
2603.94	0.698
2612.36	0.698
2620.79	0.696
2629.22	0.6957
2637.64	0.6924
2646.07	0.6892
2654.5	0.6869
2662.92	0.686
2671.35	0.686
2679.78	0.686
2688.21	0.6858
2696.63	0.6813
2705.06	0.6714
2713.49	0.6681
2721.91	0.668
2730.34	0.6673
2738.77	0.6642
2747.19	0.6574
2755.62	0.653
2764.05	0.6523
2772.48	0.6504
2780.9	0.6418
2789.33	0.6324
2797.76	0.6228
2806.18	0.6086
2814.61	0.5904
2823.04	0.5637
2831.46	0.5459
2839.89	0.5393
2848.32	0.5275
2856.75	0.5132
2865.17	0.4983
2873.6	0.4873
2882.03	0.4811
2890.45	0.4773
2898.88	0.4671
2907.31	0.466
2915.73	0.468
2924.16	0.471
2932.59	0.4759
2941.02	0.4829
2949.44	0.4957
2957.87	0.5268
2966.3	0.5508
2974.72	0.555
2983.15	0.554
2991.58	0.5481
3000	0.5415
3008.43	0.54
3016.86	0.539
3025.29	0.5393
3033.71	0.5425
3042.14	0.548
3050.57	0.5632
3058.99	0.5843
3067.42	0.6061
3075.85	0.6148
3084.27	0.615
3092.7	0.6147
3101.13	0.6115
3109.55	0.609
3117.98	0.608
3126.41	0.6034
3134.84	0.5979
3143.26	0.5962
3151.69	0.593
3160.12	0.591
3168.54	0.5883
3176.97	0.5823
3185.4	0.5778
3193.82	0.5743
3202.25	0.572
3210.68	0.5675
3219.11	0.5628
3227.53	0.5593
3235.96	0.5574
3244.39	0.5497
3252.81	0.5478
3261.24	0.5439
3269.67	0.5381
3278.09	0.5343
3286.52	0.531
3294.95	0.5288
3303.38	0.5221
3311.8	0.5153
3320.23	0.5125
3328.66	0.5066
3337.08	0.5017
3345.51	0.4982
3353.94	0.4895
3362.36	0.4852
3370.79	0.481
3379.22	0.478
3387.65	0.477
3396.07	0.475
3404.5	0.474
3412.93	0.4749
3421.35	0.4784
3429.78	0.48
3438.21	0.481
3446.63	0.481
3455.06	0.481
3463.49	0.4835
3471.92	0.484
3480.34	0.486
3488.77	0.4897
3497.2	0.497
3505.62	0.4995
3514.05	0.501
3522.48	0.5062
3530.9	0.5095
3539.33	0.5145
3547.76	0.519
3556.18	0.5213
3564.61	0.5286
3573.04	0.5326
3581.47	0.539
3589.89	0.5406
3598.32	0.5441
3606.75	0.5476
3615.17	0.5491
3623.6	0.552
3632.03	0.554
3640.45	0.555
3648.88	0.555
3657.31	0.5547
3665.74	0.554
3674.16	0.554
3682.59	0.552
3691.02	0.552
3699.44	0.552
3707.87	0.5537
3716.3	0.554
3724.72	0.554
3733.15	0.554
3741.58	0.554
3750.01	0.554
3758.43	0.554
3766.86	0.554
3775.29	0.552
3783.71	0.551
3792.14	0.5502
3800.57	0.549
3808.99	0.549
3817.42	0.5489
3825.85	0.5472
3834.28	0.5453
3842.7	0.5432
3851.13	0.542
3859.56	0.5412
3867.98	0.5393
3876.41	0.5371
3884.84	0.537
3893.26	0.537
3901.69	0.5376
3910.12	0.537
3918.55	0.536
3926.97	0.536
3935.4	0.5346
3943.83	0.534
3952.25	0.534
3960.68	0.536
3969.11	0.5367
3977.53	0.54
3985.96	0.5398
