Infrared Spectrum: P-PHENYLANISOLE
Formula: C13 H12 O
CAS: 613-37-6
State: SOLID (MINERAL OIL MULL)
Melting point: 84-86 C
Class: COBLENTZ
Instrument: Not specified, most likely a prism, grating, or hybrid spectrometer.
Sampling: TRANSMISSION
Resolution: 4
Origin: WYANDOTTE CHEMICALS CORP., WYANDOTTE, MICHIGAN, USA
MICROMETERS	TRANSMITTANCE
2.027	0.562
2.06683	0.564
2.10666	0.569
2.14649	0.564
2.18631	0.567
2.22614	0.569
2.26597	0.581
2.3058	0.6
2.34563	0.619
2.38546	0.639
2.42529	0.652
2.46511	0.653
2.50494	0.665
2.54477	0.69
2.5846	0.663
2.62443	0.675
2.66426	0.688
2.70409	0.697
2.74391	0.708
2.78374	0.706
2.82357	0.703
2.8634	0.688
2.90323	0.697
2.94306	0.692
2.98289	0.705
3.02271	0.718
3.06254	0.72
3.10237	0.713
3.1422	0.708
3.18203	0.711
3.22186	0.642
3.26169	0.577
3.30152	0.428
3.34134	0.071
3.38117	0.051
3.421	0.099
3.46083	0.086
3.50066	0.317
3.54049	0.649
3.58032	0.695
3.62014	0.708
3.65997	0.715
3.6998	0.72
3.73963	0.726
3.77946	0.74
3.81929	0.748
3.85912	0.756
3.89894	0.761
3.93877	0.764
3.9786	0.769
4.01843	0.773
4.05826	0.776
4.09809	0.778
4.13792	0.793
4.17774	0.793
4.21757	0.773
4.2574	0.759
4.29723	0.804
4.33706	0.837
4.37689	0.827
4.41672	0.807
4.45654	0.817
4.49637	0.822
4.5362	0.834
4.57603	0.832
4.61586	0.812
4.65569	0.817
4.69552	0.827
4.73534	0.821
4.77517	0.821
4.815	0.817
4.85483	0.814
4.89466	0.799
4.93449	0.812
4.97432	0.824
5.01414	0.841
5.05397	0.821
5.0938	0.829
5.13363	0.811
5.17346	0.791
5.21329	0.831
5.25312	0.829
5.29295	0.773
5.33277	0.794
5.3726	0.841
5.41243	0.829
5.45226	0.859
5.49209	0.859
5.53192	0.85
5.57175	0.85
5.61157	0.874
5.6514	0.862
5.69123	0.847
5.73106	0.837
5.77089	0.85
5.81072	0.854
5.85055	0.86
5.89037	0.857
5.9302	0.837
5.97003	0.836
6.00986	0.821
6.04969	0.809
6.08952	0.857
6.12935	0.741
6.16917	0.279
6.209	0.649
6.24883	0.6
6.28866	0.74
6.32849	0.758
6.36832	0.839
6.40815	0.829
6.44797	0.812
6.4878	0.554
6.52763	0.342
6.56746	0.705
6.60729	0.774
6.64712	0.48
6.68695	0.172
6.72677	0.352
6.7666	0.21
6.80643	0.182
6.84626	0.198
6.88609	0.317
6.92592	0.435
6.96575	0.662
7.00557	0.71
7.0454	0.66
7.08523	0.658
7.12506	0.738
7.16489	0.705
7.20472	0.511
7.24455	0.417
7.28438	0.604
7.3242	0.703
7.36403	0.75
7.40386	0.721
7.44369	0.746
7.48352	0.766
7.52335	0.776
7.56318	0.655
7.603	0.721
7.64283	0.75
7.68266	0.658
7.72249	0.4
7.76232	0.301
7.80215	0.465
7.84198	0.304
7.8818	0.397
7.92163	0.503
7.96146	0.107
8.00129	0.21
8.04112	0.413
8.08095	0.587
8.12078	0.668
8.1606	0.711
8.20043	0.71
8.24026	0.645
8.28009	0.278
8.31992	0.256
8.35975	0.533
8.39958	0.483
8.4394	0.347
8.47923	0.587
8.51906	0.668
8.55889	0.73
8.59872	0.743
8.63855	0.718
8.67838	0.733
8.7182	0.779
8.75803	0.807
8.79786	0.723
8.83769	0.735
8.87752	0.708
8.91735	0.584
8.95718	0.733
8.997	0.784
9.03683	0.819
9.07666	0.822
9.11649	0.816
9.15632	0.819
9.19615	0.812
9.23598	0.788
9.2758	0.745
9.31563	0.789
9.35546	0.799
9.39529	0.802
9.43512	0.791
9.47495	0.75
9.51478	0.627
9.55461	0.352
9.59443	0.215
9.63426	0.165
9.67409	0.291
9.71392	0.557
9.75375	0.697
9.79358	0.74
9.83341	0.504
9.87323	0.649
9.91306	0.768
9.95289	0.649
9.99272	0.751
10.0325	0.745
10.0724	0.751
10.1122	0.793
10.152	0.798
10.1919	0.814
10.2317	0.814
10.2715	0.819
10.3113	0.821
10.3512	0.821
10.391	0.832
10.4308	0.827
10.4707	0.819
10.5105	0.821
10.5503	0.839
10.5901	0.85
10.63	0.849
10.6698	0.85
10.7096	0.847
10.7495	0.852
10.7893	0.864
10.8291	0.865
10.8689	0.869
10.9088	0.859
10.9486	0.86
10.9884	0.789
11.0283	0.769
11.0681	0.859
11.1079	0.872
11.1477	0.875
11.1876	0.882
11.2274	0.882
11.2672	0.88
11.3071	0.884
11.3469	0.89
11.3867	0.89
11.4265	0.899
11.4664	0.902
11.5062	0.895
11.546	0.905
11.5859	0.902
11.6257	0.899
11.6655	0.895
11.7053	0.88
11.7452	0.874
11.785	0.842
11.8248	0.807
11.8647	0.756
11.9045	0.662
11.9443	0.485
11.9841	0.183
12.024	0.081
12.0638	0.278
12.1036	0.605
12.1435	0.759
12.1833	0.824
12.2231	0.831
12.2629	0.811
12.3028	0.74
12.3426	0.677
12.3824	0.769
12.4223	0.748
12.4621	0.706
12.5019	0.789
12.5418	0.862
12.5816	0.882
12.6214	0.897
12.6612	0.902
12.7011	0.908
12.7409	0.9
12.7807	0.91
12.8206	0.895
12.8604	0.882
12.9002	0.849
12.94	0.807
12.9799	0.716
13.0197	0.533
13.0595	0.38
13.0994	0.19
13.1392	0.079
13.179	0.092
13.2188	0.274
13.2587	0.539
13.2985	0.688
13.3383	0.778
13.3782	0.804
13.418	0.831
13.4578	0.85
13.4976	0.859
13.5375	0.862
13.5773	0.859
13.6171	0.855
13.657	0.864
13.6968	0.859
13.7366	0.864
13.7764	0.855
13.8163	0.862
13.8561	0.832
13.8959	0.812
13.9358	0.738
13.9756	0.602
14.0154	0.549
14.0552	0.693
14.0951	0.799
14.1349	0.831
14.1747	0.834
14.2146	0.812
14.2544	0.758
14.2942	0.718
14.334	0.721
14.3739	0.687
14.4137	0.647
14.4535	0.577
14.4934	0.504
14.5332	0.408
14.573	0.309
14.6128	0.263
14.6527	0.299
14.6925	0.397
14.7323	0.533
14.7722	0.619
14.812	0.687
14.8518	0.708
14.8916	0.736
14.9315	0.768
14.9713	0.784
15.0111	0.774
15.051	0.74
15.0908	0.74
15.1306	0.766
15.1704	0.794
15.2103	0.817
15.2501	0.811
15.2899	0.811
15.3298	0.802
15.3696	0.798
15.4094	0.801
15.4492	0.789
15.4891	0.776
15.5289	0.768
15.5687	0.764
15.6086	0.764
15.6484	0.751
15.6882	0.74
15.728	0.718
15.7679	0.716
15.8077	0.711
15.8475	0.695
15.8874	0.677
15.9272	0.665
15.967	0.653
