Infrared Spectrum: GLYCERYL TRIBENZOATE
Formula: C24 H20 O6
CAS: 614-33-5
State: SOLID (MINERAL OIL MULL)
Melting point: 75-76 C
Class: COBLENTZ
Instrument: Not specified, most likely a prism, grating, or hybrid spectrometer.
Sampling: TRANSMISSION
Resolution: 4
Origin: WYANDOTTE CHEMICALS CORP., WYANDOTTE, MICHIGAN, USA
MICROMETERS	TRANSMITTANCE
2.02	0.59
2.05985	0.59
2.0997	0.601
2.13955	0.606
2.17939	0.603
2.21924	0.593
2.25909	0.598
2.29894	0.61
2.33879	0.613
2.37864	0.61
2.41849	0.623
2.45833	0.633
2.49818	0.633
2.53803	0.643
2.57788	0.65
2.61773	0.645
2.65758	0.65
2.69743	0.655
2.73727	0.661
2.77712	0.669
2.81697	0.663
2.85682	0.663
2.89667	0.658
2.93652	0.636
2.97637	0.656
3.01621	0.665
3.05606	0.661
3.09591	0.663
3.13576	0.656
3.17561	0.645
3.21546	0.638
3.25531	0.51
3.29516	0.51
3.335	0.344
3.37485	0.086
3.4147	0.089
3.45455	0.213
3.4944	0.179
3.53425	0.578
3.5741	0.777
3.61394	0.814
3.65379	0.812
3.69364	0.804
3.73349	0.809
3.77334	0.812
3.81319	0.812
3.85304	0.814
3.89288	0.827
3.93273	0.832
3.97258	0.837
4.01243	0.842
4.05228	0.852
4.09213	0.859
4.13198	0.859
4.17182	0.859
4.21167	0.859
4.25152	0.849
4.29137	0.834
4.33122	0.847
4.37107	0.87
4.41092	0.882
4.45076	0.882
4.49061	0.885
4.53046	0.887
4.57031	0.892
4.61016	0.897
4.65001	0.902
4.68986	0.907
4.7297	0.908
4.76955	0.908
4.8094	0.912
4.84925	0.918
4.8891	0.922
4.92895	0.932
4.9688	0.941
5.00864	0.941
5.04849	0.941
5.08834	0.925
5.12819	0.895
5.16804	0.912
5.20789	0.928
5.24774	0.923
5.28759	0.927
5.32743	0.97
5.36728	0.978
5.40713	0.986
5.44698	0.968
5.48683	0.96
5.52668	0.951
5.56653	0.955
5.60637	0.928
5.64622	0.903
5.68607	0.882
5.72592	0.761
5.76577	0.407
5.80562	0.039
5.84547	0.124
5.88531	0.28
5.92516	0.441
5.96501	0.48
6.00486	0.623
6.04471	0.643
6.08456	0.724
6.12441	0.767
6.16425	0.772
6.2041	0.525
6.24395	0.699
6.2838	0.613
6.32365	0.751
6.3635	0.776
6.40335	0.802
6.44319	0.809
6.48304	0.819
6.52289	0.832
6.56274	0.824
6.60259	0.822
6.64244	0.845
6.68229	0.731
6.72213	0.756
6.76198	0.65
6.80183	0.426
6.84168	0.358
6.88153	0.203
6.92138	0.419
6.96123	0.694
7.00107	0.762
7.04092	0.752
7.08077	0.782
7.12062	0.679
7.16047	0.668
7.20032	0.694
7.24017	0.543
7.28002	0.532
7.31986	0.497
7.35971	0.681
7.39956	0.703
7.43941	0.711
7.47926	0.684
7.51911	0.6
7.55896	0.447
7.5988	0.165
7.63865	0.373
7.6785	0.16
7.71835	0.072
7.7582	0.099
7.79805	0.217
7.8379	0.119
7.87774	0.064
7.91759	0.058
7.95744	0.087
7.99729	0.129
8.03714	0.184
8.07699	0.25
8.11684	0.361
8.15668	0.472
8.19653	0.563
8.23638	0.615
8.27623	0.648
8.31608	0.684
8.35593	0.718
8.39578	0.724
8.43562	0.729
8.47547	0.562
8.51532	0.346
8.55517	0.585
8.59502	0.621
8.63487	0.542
8.67472	0.49
8.71456	0.543
8.75441	0.64
8.79426	0.668
8.83411	0.603
8.87396	0.472
8.91381	0.167
8.95366	0.102
8.9935	0.127
9.03335	0.18
9.0732	0.223
9.11305	0.328
9.1529	0.446
9.19275	0.447
9.2326	0.31
9.27245	0.432
9.31229	0.376
9.35214	0.19
9.39199	0.373
9.43184	0.54
9.47169	0.615
9.51154	0.658
9.55139	0.689
9.59123	0.709
9.63108	0.729
9.67093	0.724
9.71078	0.51
9.75063	0.263
9.79048	0.427
9.83033	0.59
9.87017	0.598
9.91002	0.643
9.94987	0.693
9.98972	0.631
10.0296	0.708
10.0694	0.719
10.1093	0.688
10.1491	0.737
10.189	0.724
10.2288	0.751
10.2687	0.742
10.3085	0.744
10.3484	0.684
10.3882	0.512
10.4281	0.527
10.4679	0.645
10.5078	0.699
10.5476	0.723
10.5874	0.731
10.6273	0.693
10.6671	0.737
10.707	0.673
10.7468	0.635
10.7867	0.689
10.8265	0.679
10.8664	0.721
10.9062	0.762
10.9461	0.787
10.9859	0.804
11.0258	0.812
11.0656	0.817
11.1055	0.82
11.1453	0.822
11.1852	0.819
11.225	0.804
11.2649	0.779
11.3047	0.706
11.3446	0.641
11.3844	0.684
11.4243	0.746
11.4641	0.777
11.504	0.802
11.5438	0.815
11.5837	0.822
11.6235	0.809
11.6634	0.814
11.7032	0.825
11.7431	0.834
11.7829	0.83
11.8228	0.814
11.8626	0.756
11.9025	0.628
11.9423	0.718
11.9821	0.781
12.022	0.762
12.0618	0.686
12.1017	0.746
12.1415	0.809
12.1814	0.83
12.2212	0.852
12.2611	0.855
12.3009	0.859
12.3408	0.862
12.3806	0.865
12.4205	0.845
12.4603	0.733
12.5002	0.759
12.54	0.787
12.5799	0.844
12.6197	0.867
12.6596	0.872
12.6994	0.877
12.7393	0.888
12.7791	0.888
12.819	0.888
12.8588	0.89
12.8987	0.885
12.9385	0.888
12.9784	0.887
13.0182	0.89
13.0581	0.89
13.0979	0.892
13.1378	0.89
13.1776	0.887
13.2175	0.885
13.2573	0.878
13.2972	0.873
13.337	0.868
13.3769	0.862
13.4167	0.859
13.4565	0.852
13.4964	0.845
13.5362	0.839
13.5761	0.83
13.6159	0.82
13.6558	0.812
13.6956	0.799
13.7355	0.782
13.7753	0.767
13.8152	0.731
13.855	0.679
13.8949	0.613
13.9347	0.514
13.9746	0.406
14.0144	0.268
14.0543	0.15
14.0941	0.102
14.134	0.087
14.1738	0.079
14.2137	0.091
14.2535	0.121
14.2934	0.187
14.3332	0.275
14.3731	0.366
14.4129	0.459
14.4528	0.537
14.4926	0.587
14.5325	0.601
14.5723	0.587
14.6122	0.533
14.652	0.48
14.6919	0.475
14.7317	0.532
14.7716	0.577
14.8114	0.597
14.8512	0.633
14.8911	0.669
14.9309	0.688
14.9708	0.674
15.0106	0.631
15.0505	0.61
15.0903	0.633
15.1302	0.688
15.17	0.718
15.2099	0.726
15.2497	0.724
15.2896	0.721
15.3294	0.719
15.3693	0.708
15.4091	0.708
15.449	0.709
15.4888	0.699
15.5287	0.689
15.5685	0.691
15.6084	0.686
15.6482	0.684
15.6881	0.678
15.7279	0.671
15.7678	0.666
15.8076	0.656
15.8475	0.65
15.8873	0.64
15.9272	0.633
15.967	0.628
16.0069	0.618
