Infrared Spectrum: 5(6)-Methylbenzimidazole
Formula: C8 H8 N2
CAS: 614-97-1
State: SOLID (SPLIT MULL), FLUOROLUBE FOR 3800-1330 CM^-^1, NUJOL FOR 1330-460 CM^-^1
Melting point: 117 C
Class: COBLENTZ II
Instrument: DOW KBr FOREPRISM-GRATING
Instrument parameters: BLAZED AT 3.5, 12.0, 20.0 MICRON AND CHANGED AT 5.0, 7.5, 14.9 MICRON
Sampling: TRANSMISSION
Resolution: 2
Origin: DOW CHEMICAL COMPANY
1/CM	TRANSMITTANCE
3810	0.7
3801	0.7011
3792	0.7018
3783	0.7034
3774	0.7055
3765	0.7076
3756	0.7099
3747	0.7157
3738	0.7205
3729	0.7205
3720	0.72
3711	0.7193
3702	0.7183
3693	0.7176
3684	0.7218
3675	0.7261
3666	0.7282
3657	0.7292
3648	0.7299
3639	0.7301
3630	0.7321
3621	0.7346
3612	0.7382
3603	0.7403
3594	0.7406
3585	0.7365
3576	0.7343
3567	0.7374
3558	0.7394
3549	0.7408
3540	0.7425
3531	0.7441
3522	0.7458
3513	0.7478
3504	0.7496
3495	0.7514
3486	0.7526
3477	0.7536
3468	0.7546
3459	0.7561
3450	0.7576
3441	0.7592
3432	0.7605
3423	0.7617
3414	0.7628
3405	0.7639
3396	0.764
3387	0.764
3378	0.765
3369	0.7657
3360	0.7662
3351	0.7667
3342	0.7671
3333	0.7672
3324	0.7675
3315	0.7675
3306	0.7669
3297	0.7654
3288	0.7621
3279	0.7587
3270	0.7526
3261	0.7469
3252	0.7406
3243	0.7324
3234	0.7232
3225	0.7138
3216	0.7046
3207	0.695
3198	0.6824
3189	0.6668
3180	0.6434
3171	0.6065
3162	0.587
3153	0.5758
3144	0.5631
3135	0.5451
3126	0.4621
3117	0.4466
3108	0.4386
3099	0.4308
3090	0.4029
3081	0.3455
3072	0.3243
3063	0.3643
3054	0.3957
3045	0.3545
3036	0.3093
3027	0.2861
3018	0.2319
3009	0.279
3000	0.2977
2991	0.2849
2982	0.2607
2973	0.2707
2964	0.2807
2955	0.2943
2946	0.3151
2937	0.3312
2928	0.2742
2919	0.2492
2910	0.2517
2901	0.2535
2892	0.2532
2883	0.2692
2874	0.2762
2865	0.2609
2856	0.2427
2847	0.2423
2838	0.2375
2829	0.2246
2820	0.2042
2811	0.1624
2802	0.1498
2793	0.1557
2784	0.1674
2775	0.1722
2766	0.1691
2757	0.1695
2748	0.1819
2739	0.1862
2730	0.1857
2721	0.1857
2712	0.2052
2703	0.2283
2694	0.2446
2685	0.2453
2676	0.2253
2667	0.2122
2658	0.211
2649	0.2201
2640	0.2311
2631	0.2403
2622	0.2464
2613	0.2501
2604	0.2535
2595	0.2576
2586	0.2616
2577	0.2642
2568	0.2519
2559	0.259
2550	0.2851
2541	0.3001
2532	0.3189
2523	0.3364
2514	0.3524
2505	0.367
2496	0.3816
2487	0.3959
2478	0.4089
2469	0.4198
2460	0.4308
2451	0.4466
2442	0.4633
2433	0.4777
2424	0.4857
2415	0.4891
2406	0.5024
2397	0.5154
2388	0.5323
2379	0.5473
2370	0.5571
2361	0.5576
2352	0.5597
2343	0.5684
2334	0.5752
2325	0.5857
2316	0.6215
2307	0.6496
2298	0.6682
2289	0.686
2280	0.6962
2271	0.7069
2262	0.7183
2253	0.7314
2244	0.7426
2235	0.7536
2226	0.763
2217	0.7721
2208	0.7808
2199	0.7888
2190	0.7964
2181	0.8045
2172	0.8128
2163	0.8202
2154	0.828
2145	0.8343
2136	0.8389
2127	0.8423
2118	0.8452
2109	0.847
2100	0.8486
2091	0.8506
2082	0.8525
2073	0.8545
2064	0.8566
2055	0.8588
2046	0.8611
2037	0.8623
2028	0.8633
2019	0.8632
2010	0.8625
2001	0.8565
1992	0.8598
1983	0.8593
1974	0.8555
1965	0.8539
1956	0.8564
1947	0.8545
1938	0.85
1929	0.8442
1920	0.8395
1911	0.8339
1902	0.8304
1893	0.825
1884	0.8025
1875	0.7797
1866	0.8014
1857	0.8039
1848	0.7981
1839	0.7946
1830	0.7926
1821	0.7903
1812	0.789
1803	0.784
1794	0.7811
1785	0.7796
1776	0.7868
1767	0.7826
1758	0.7558
1749	0.754
1740	0.7301
1731	0.7425
1722	0.7467
1713	0.7469
1704	0.7724
1695	0.7808
1686	0.818
1677	0.8321
1668	0.8384
1659	0.8304
1650	0.8309
1641	0.8207
1632	0.8081
1623	0.6646
1614	0.7685
1605	0.8213
1596	0.8293
1587	0.7818
1578	0.8367
1569	0.8806
1560	0.8881
1551	0.8956
1542	0.9042
1533	0.9084
1524	0.8678
1515	0.8828
1506	0.8627
1497	0.683
1488	0.5507
1479	0.2394
1470	0.3157
1461	0.5029
1452	0.4458
1443	0.2426
1434	0.4489
1425	0.5223
1416	0.3971
1407	0.5486
1398	0.709
1389	0.769
1380	0.781
1371	0.7839
1362	0.7861
1353	0.7648
1344	0.5609
1335	0.5809
1326	0.7846
1317	0.806
1308	0.8075
1299	0.3866
1290	0.3366
1281	0.2723
1272	0.5938
1263	0.588
1254	0.4034
1245	0.4342
1236	0.7637
1227	0.7975
1218	0.7846
1209	0.7858
1200	0.774
1191	0.8514
1182	0.8321
1173	0.8392
1164	0.5483
1155	0.679
1146	0.83
1137	0.8578
1128	0.8474
1119	0.6259
1110	0.8735
1101	0.8967
1092	0.9039
1083	0.9085
1074	0.8995
1065	0.8983
1056	0.8897
1047	0.8749
1038	0.8393
1029	0.8335
1020	0.8673
1011	0.86
1002	0.7668
993	0.8418
984	0.8657
975	0.8525
966	0.7283
957	0.4273
948	0.3832
939	0.5748
930	0.6096
921	0.6749
912	0.6901
903	0.6828
894	0.6744
885	0.6722
876	0.5677
867	0.4177
858	0.5842
849	0.5678
840	0.7136
831	0.7508
822	0.7992
813	0.6649
804	0.4941
795	0.5003
786	0.8328
777	0.8787
768	0.8878
759	0.8158
750	0.7998
741	0.8556
732	0.8695
723	0.849
714	0.8753
705	0.9093
696	0.9264
687	0.943
678	0.9521
669	0.9407
660	0.9432
651	0.9386
642	0.9405
633	0.3373
624	0.8378
615	0.9097
606	0.6657
597	0.8413
588	0.8998
579	0.9091
570	0.9081
561	0.9018
552	0.8975
543	0.8913
534	0.8853
525	0.8801
516	0.8753
507	0.8713
498	0.8699
489	0.867
480	0.8134
471	0.8301
462	0.8344
