Infrared Spectrum: o-METHYLPHENETOLE
Formula: C9 H12 O
CAS: 614-71-1
State: SOLUTION (10% IN CCl4 FOR 3800-1335, 10% IN CS2 FOR 1335-400 CM^-^1)
Class: COBLENTZ III
Instrument: BECKMAN IR-9 (GRATING)
Instrument parameters: ORDER CHANGES: 670, 1200, 2000 CM^-^1
Sampling: TRANSMISSION
Path length: 0.010 CM, 0.010 CM
Resolution: 2
Origin: DOW CHEMICAL COMPANY
1/CM	TRANSMITTANCE
406.789	0.116
415.42	0.356
424.05	0.511
432.681	0.592
441.312	0.523
449.942	0.668
458.573	0.74
467.203	0.784
475.834	0.811
484.465	0.812
493.095	0.865
501.726	0.871
510.357	0.896
518.987	0.906
527.618	0.87
536.248	0.902
544.879	0.931
553.51	0.931
562.14	0.948
570.771	0.954
579.402	0.955
588.032	0.941
596.663	0.933
605.294	0.797
613.924	0.933
622.555	0.948
631.185	0.951
639.816	0.935
648.447	0.906
657.077	0.869
665.708	0.921
674.339	0.925
682.969	0.932
691.6	0.921
700.23	0.902
708.861	0.565
717.492	0.646
726.122	0.801
734.753	0.689
743.384	0.11
752.014	0.001
760.645	0.429
769.275	0.647
777.906	0.829
786.537	0.882
795.167	0.914
803.798	0.914
812.429	0.855
821.059	0.827
829.69	0.859
838.321	0.881
846.951	0.846
855.582	0.808
864.212	0.811
872.843	0.85
881.474	0.875
890.104	0.905
898.735	0.91
907.366	0.832
915.996	0.854
924.627	0.51
933.257	0.743
941.888	0.912
950.519	0.946
959.149	0.952
967.78	0.952
976.411	0.939
985.041	0.816
993.672	0.887
1002.3	0.923
1010.93	0.917
1019.56	0.869
1028.19	0.695
1036.83	0.411
1045.46	0.112
1054.09	0.2321
1062.72	0.68
1071.35	0.807
1079.98	0.851
1088.61	0.731
1097.24	0.797
1105.87	0.655
1114.5	0.5419
1123.13	0.043
1131.76	0.443
1140.39	0.746
1149.02	0.719
1157.65	0.5539
1166.28	0.765
1174.92	0.839
1183.55	0.6739
1192.18	0.425
1200.81	0.5241
1209.44	0.761
1218.07	0.742
1226.7	0.3489
1235.33	0.055
1243.96	0
1252.59	0.2421
1261.22	0.58
1269.85	0.696
1278.48	0.715
1287.11	0.443
1295.74	0.538
1304.37	0.546
1313.01	0.4842
1321.64	0.815
1330.27	0.883
1338.9	0.904
1347.53	0.912
1356.16	0.912
1364.79	0.831
1373.42	0.8209
1382.05	0.5649
1390.68	0.3001
1399.31	0.561
1407.94	0.766
1416.57	0.827
1425.2	0.758
1433.83	0.4729
1442.46	0.348
1451.1	0.48
1459.73	0.187
1468.36	0.4231
1476.99	0.044
1485.62	0.4377
1494.25	0.009
1502.88	0.292
1511.51	0.391
1520.14	0.56
1528.77	0.58
1537.4	0.556
1546.03	0.506
1554.66	0.469
1563.29	0.551
1571.92	0.601
1580.55	0.527
1589.19	0.2319
1597.82	0.3369
1606.45	0.3922
1615.08	0.819
1623.71	0.879
1632.34	0.894
1640.97	0.912
1649.6	0.933
1658.23	0.908
1666.86	0.859
1675.49	0.908
1684.12	0.935
1692.75	0.947
1701.38	0.962
1710.01	0.963
1718.64	0.959
1727.28	0.96
1735.91	0.964
1744.54	0.958
1753.17	0.955
1761.8	0.937
1770.43	0.936
1779.06	0.967
1787.69	0.966
1796.32	0.971
1804.95	0.956
1813.58	0.967
1822.21	0.975
1830.84	0.979
1839.47	0.959
1848.1	0.95
1856.73	0.963
1865.37	0.963
1874	0.956
1882.63	0.889
1891.26	0.936
1899.89	0.967
1908.52	0.978
1917.15	0.96
1925.78	0.919
1934.41	0.96
1943.04	0.958
1951.67	0.968
1960.3	0.97
1968.93	0.96
1977.56	0.951
1986.19	0.966
1994.83	0.967
2003.46	0.956
2012.09	0.956
2020.72	0.9704
2029.35	0.9854
2037.98	0.995
2046.61	0.9937
2055.24	0.9733
2063.87	0.964
2072.5	0.9728
2081.13	0.9875
2089.76	0.9987
2098.39	0.9992
2107.02	1.001
2115.65	1.002
2124.28	1.002
2132.92	1.002
2141.55	1.002
2150.18	1.002
2158.81	1.004
2167.44	1.0039
2176.07	1.0019
2184.7	1
2193.33	1
2201.96	1.001
2210.59	1.001
2219.22	1.001
2227.85	1.001
2236.48	0.999
2245.11	0.991
2253.74	0.9864
2262.37	0.9814
2271.01	0.9811
2279.64	0.982
2288.27	0.979
2296.9	0.979
2305.53	0.979
2314.16	0.981
2322.79	0.981
2331.42	0.981
2340.05	0.981
2348.68	0.981
2357.31	0.9852
2365.94	0.9876
2374.57	0.9934
2383.2	1.001
2391.83	1.001
2400.46	0.996
2409.1	0.9803
2417.73	0.977
2426.36	0.9817
2434.99	0.9867
2443.62	0.9908
2452.25	0.993
2460.88	0.9864
2469.51	0.9791
2478.14	0.9639
2486.77	0.9498
2495.4	0.9794
2504.03	0.9913
2512.66	0.997
2521.29	0.9939
2529.92	0.9757
2538.55	0.977
2547.19	0.977
2555.82	0.969
2564.45	0.983
2573.08	0.983
2581.71	0.983
2590.34	0.983
2598.97	0.982
2607.6	0.9795
2616.23	0.968
2624.86	0.9784
2633.49	0.991
2642.12	1.002
2650.75	1.002
2659.38	1.002
2668.01	1.002
2676.64	0.997
2685.28	0.9933
2693.91	1.0016
2702.54	0.9927
2711.17	0.9855
2719.8	0.9713
2728.43	0.9537
2737.06	0.8849
2745.69	0.9494
2754.32	0.962
2762.95	0.9604
2771.58	0.946
2780.21	0.9558
2788.84	0.9619
2797.47	0.9519
2806.1	0.9369
2814.74	0.9118
2823.37	0.9098
2832	0.8904
2840.63	0.8242
2849.26	0.7232
2857.89	0.6332
2866.52	0.5308
2875.15	0.4345
2883.78	0.503
2892.41	0.4968
2901.04	0.4123
2909.67	0.3721
2918.3	0.3655
2926.93	0.3383
2935.56	0.3782
2944.19	0.4405
2952.83	0.461
2961.46	0.4701
2970.09	0.3133
2978.72	0.1554
2987.35	0.3016
2995.98	0.6286
3004.61	0.7233
3013.24	0.6946
3021.87	0.5253
3030.5	0.5871
3039.13	0.708
3047.76	0.6889
3056.39	0.6785
3065.02	0.6806
3073.65	0.686
3082.28	0.7757
3090.92	0.8604
3099.55	0.8779
3108.18	0.866
3116.81	0.9243
3125.44	0.946
3134.07	0.958
3142.7	0.9604
3151.33	0.964
3159.96	0.967
3168.59	0.967
3177.22	0.966
3185.85	0.967
3194.48	0.97
3203.11	0.9736
3211.74	0.977
3220.37	0.9743
3229.01	0.9715
3237.64	0.971
3246.27	0.975
3254.9	0.975
3263.53	0.975
3272.16	0.975
3280.79	0.975
3289.42	0.975
3298.05	0.974
3306.68	0.974
3315.31	0.974
3323.94	0.974
3332.57	0.974
3341.2	0.973
3349.83	0.973
3358.46	0.9721
3367.1	0.973
3375.73	0.973
3384.36	0.973
3392.99	0.973
3401.62	0.973
3410.25	0.973
3418.88	0.971
3427.51	0.971
3436.14	0.971
3444.77	0.971
3453.4	0.973
3462.03	0.973
3470.66	0.97
3479.29	0.97
3487.92	0.97
3496.55	0.968
3505.19	0.968
3513.82	0.968
3522.45	0.9676
3531.08	0.968
3539.71	0.968
3548.34	0.968
3556.97	0.968
3565.6	0.968
3574.23	0.968
3582.86	0.9601
3591.49	0.9511
3600.12	0.967
3608.75	0.9664
3617.38	0.959
3626.01	0.962
3634.64	0.964
3643.28	0.9647
3651.91	0.964
3660.54	0.964
3669.17	0.964
3677.8	0.964
3686.43	0.963
3695.06	0.962
3703.69	0.96
3712.32	0.96
3720.95	0.959
3729.58	0.959
3738.21	0.959
3746.84	0.96
3755.47	0.96
3764.1	0.96
3772.74	0.96
3781.37	0.96
3790	0.959
3798.63	0.958
