Infrared Spectrum: Alpha-n-PROPYL BENZYL ALCOHOL
Formula: C10 H14 O
CAS: 614-14-2
State: LIQUID
Boiling point: 108-112 C AT 10 mmHg
Class: COBLENTZ
Instrument: Not specified, most likely a prism, grating, or hybrid spectrometer.
Sampling: TRANSMISSION
Path length: 0.003 CM
Resolution: 4
Origin: WYANDOTTE CHEMICALS CORP., WYANDOTTE, MICHIGAN, USA
MICROMETERS	TRANSMITTANCE
2	0.988
2.0408	0.981
2.08159	0.984
2.12239	0.988
2.16319	0.979
2.20399	0.955
2.24478	0.943
2.28558	0.947
2.32638	0.949
2.36717	0.925
2.40797	0.918
2.44877	0.947
2.48956	0.96
2.53036	0.964
2.57116	0.962
2.61196	0.942
2.65275	0.947
2.69355	0.916
2.73435	0.787
2.77514	0.544
2.81594	0.404
2.85674	0.285
2.89754	0.159
2.93833	0.103
2.97913	0.083
3.01993	0.098
3.06072	0.191
3.10152	0.346
3.14232	0.507
3.18312	0.619
3.22391	0.511
3.26471	0.402
3.30551	0.429
3.3463	0.222
3.3871	0.062
3.4279	0.122
3.46869	0.19
3.50949	0.247
3.55029	0.628
3.59109	0.726
3.63188	0.762
3.67268	0.769
3.71348	0.787
3.75427	0.801
3.79507	0.82
3.83587	0.826
3.87667	0.845
3.91746	0.867
3.95826	0.87
3.99906	0.87
4.03985	0.874
4.08065	0.881
4.12145	0.898
4.16225	0.884
4.20304	0.882
4.24384	0.901
4.28464	0.93
4.32543	0.928
4.36623	0.923
4.40703	0.915
4.44782	0.926
4.48862	0.92
4.52942	0.921
4.57022	0.93
4.61101	0.926
4.65181	0.926
4.69261	0.933
4.7334	0.935
4.7742	0.932
4.815	0.935
4.8558	0.932
4.89659	0.93
4.93739	0.93
4.97819	0.918
5.01898	0.913
5.05978	0.899
5.10058	0.872
5.14138	0.826
5.18217	0.84
5.22297	0.894
5.26377	0.879
5.30456	0.843
5.34536	0.84
5.38616	0.881
5.42695	0.893
5.46775	0.887
5.50855	0.84
5.54935	0.825
5.59014	0.886
5.63094	0.87
5.67174	0.847
5.71253	0.864
5.75333	0.862
5.79413	0.852
5.83493	0.789
5.87572	0.544
5.91652	0.334
5.95732	0.431
5.99811	0.701
6.03891	0.764
6.07971	0.779
6.12051	0.758
6.1613	0.634
6.2021	0.606
6.2429	0.684
6.28369	0.74
6.32449	0.794
6.36529	0.787
6.40608	0.764
6.44688	0.77
6.48768	0.777
6.52848	0.758
6.56927	0.723
6.61007	0.567
6.65087	0.325
6.69166	0.577
6.73246	0.531
6.77326	0.21
6.81406	0.162
6.85485	0.137
6.89565	0.327
6.93645	0.395
6.97724	0.427
7.01804	0.404
7.05884	0.358
7.09964	0.361
7.14043	0.373
7.18123	0.37
7.22203	0.273
7.26282	0.361
7.30362	0.344
7.34442	0.395
7.38521	0.405
7.42601	0.398
7.46681	0.398
7.50761	0.392
7.5484	0.348
7.5892	0.31
7.63	0.314
7.67079	0.339
7.71159	0.351
7.75239	0.334
7.79319	0.346
7.83398	0.385
7.87478	0.455
7.91558	0.448
7.95637	0.438
7.99717	0.449
8.03797	0.465
8.07877	0.485
8.11956	0.434
8.16036	0.325
8.20116	0.258
8.24195	0.329
8.28275	0.31
8.32355	0.312
8.36434	0.449
8.40514	0.517
8.44594	0.499
8.48674	0.572
8.52753	0.655
8.56833	0.662
8.60913	0.631
8.64992	0.687
8.69072	0.721
8.73152	0.714
8.77232	0.696
8.81311	0.629
8.85391	0.492
8.89471	0.368
8.9355	0.346
8.9763	0.268
9.0171	0.21
9.0579	0.314
9.09869	0.422
9.13949	0.488
9.18029	0.458
9.22108	0.376
9.26188	0.288
9.30268	0.261
9.34347	0.219
9.38427	0.171
9.42507	0.229
9.46587	0.349
9.50666	0.417
9.54746	0.383
9.58826	0.266
9.62905	0.146
9.66985	0.081
9.71065	0.061
9.75145	0.089
9.79224	0.146
9.83304	0.21
9.87384	0.273
9.91463	0.312
9.95543	0.258
9.99623	0.421
10.037	0.388
10.0778	0.331
10.1186	0.342
10.1594	0.393
10.2002	0.466
10.241	0.494
10.2818	0.461
10.3226	0.398
10.3634	0.346
10.4042	0.325
10.445	0.37
10.4858	0.47
10.5266	0.568
10.5674	0.643
10.6082	0.694
10.649	0.713
10.6898	0.726
10.7306	0.716
10.7714	0.709
10.8122	0.682
10.853	0.611
10.8938	0.516
10.9346	0.483
10.9754	0.548
11.0162	0.526
11.057	0.441
11.0977	0.466
11.1385	0.507
11.1793	0.56
11.2201	0.636
11.2609	0.687
11.3017	0.711
11.3425	0.711
11.3833	0.687
11.4241	0.667
11.4649	0.663
11.5057	0.648
11.5465	0.607
11.5873	0.558
11.6281	0.487
11.6689	0.46
11.7097	0.509
11.7505	0.59
11.7913	0.617
11.8321	0.638
11.8729	0.65
11.9137	0.667
11.9545	0.67
11.9953	0.655
12.0361	0.623
12.0769	0.595
12.1177	0.584
12.1585	0.563
12.1993	0.555
12.2401	0.582
12.2809	0.607
12.3217	0.628
12.3625	0.634
12.4033	0.638
12.4441	0.641
12.4849	0.638
12.5256	0.612
12.5664	0.584
12.6072	0.556
12.648	0.528
12.6888	0.485
12.7296	0.465
12.7704	0.478
12.8112	0.502
12.852	0.495
12.8928	0.456
12.9336	0.37
12.9744	0.235
13.0152	0.127
13.056	0.096
13.0968	0.084
13.1376	0.089
13.1784	0.105
13.2192	0.125
13.26	0.162
13.3008	0.205
13.3416	0.235
13.3824	0.263
13.4232	0.264
13.464	0.254
13.5048	0.23
13.5456	0.198
13.5864	0.196
13.6272	0.246
13.668	0.322
13.7088	0.392
13.7496	0.438
13.7904	0.468
13.8312	0.477
13.872	0.492
13.9127	0.487
13.9535	0.471
13.9943	0.449
14.0351	0.41
14.0759	0.356
14.1167	0.285
14.1575	0.2
14.1983	0.135
14.2391	0.1
14.2799	0.093
14.3207	0.088
14.3615	0.101
14.4023	0.122
14.4431	0.159
14.4839	0.203
14.5247	0.241
14.5655	0.29
14.6063	0.341
14.6471	0.382
14.6879	0.415
14.7287	0.441
14.7695	0.455
14.8103	0.456
14.8511	0.456
14.8919	0.458
14.9327	0.46
14.9735	0.47
15.0143	0.492
15.0551	0.504
15.0959	0.492
15.1367	0.492
15.1775	0.495
15.2183	0.502
15.2591	0.509
15.2998	0.519
15.3406	0.521
15.3814	0.526
15.4222	0.533
15.463	0.531
15.5038	0.536
15.5446	0.541
15.5854	0.543
15.6262	0.55
15.667	0.551
15.7078	0.548
15.7486	0.55
15.7894	0.55
15.8302	0.55
15.871	0.55
15.9118	0.55
15.9526	0.548
