Infrared Spectrum: M-NITROBENZYLIDENE ACETOPHENONE
Formula: C15 H11 N O3
CAS: 614-48-2
State: SOLID (MINERAL OIL MULL)
Melting point: 143-145 C
Class: COBLENTZ
Instrument: Not specified, most likely a prism, grating, or hybrid spectrometer.
Sampling: TRANSMISSION
Resolution: 4
Origin: WYANDOTTE CHEMICALS CORP., WYANDOTTE, MICHIGAN, USA
MICROMETERS	TRANSMITTANCE
2.02	0.437
2.05975	0.452
2.09951	0.484
2.13926	0.5
2.17901	0.507
2.21877	0.512
2.25852	0.532
2.29827	0.543
2.33803	0.548
2.37778	0.552
2.41753	0.578
2.45729	0.595
2.49704	0.605
2.5368	0.615
2.57655	0.62
2.6163	0.633
2.65606	0.648
2.69581	0.65
2.73556	0.653
2.77532	0.661
2.81507	0.671
2.85482	0.666
2.89458	0.665
2.93433	0.656
2.97408	0.671
3.01384	0.668
3.05359	0.678
3.09334	0.671
3.1331	0.671
3.17285	0.666
3.2126	0.601
3.25236	0.548
3.29211	0.611
3.33186	0.28
3.37162	0.096
3.41137	0.109
3.45113	0.179
3.49088	0.225
3.53063	0.575
3.57039	0.696
3.61014	0.728
3.64989	0.739
3.68965	0.751
3.7294	0.761
3.76915	0.771
3.80891	0.779
3.84866	0.786
3.88841	0.809
3.92817	0.812
3.96792	0.819
4.00767	0.825
4.04743	0.83
4.08718	0.829
4.12693	0.83
4.16669	0.835
4.20644	0.835
4.24619	0.827
4.28595	0.855
4.3257	0.87
4.36546	0.888
4.40521	0.893
4.44496	0.885
4.48472	0.893
4.52447	0.898
4.56422	0.907
4.60398	0.907
4.64373	0.918
4.68348	0.923
4.72324	0.927
4.76299	0.933
4.80274	0.94
4.8425	0.946
4.88225	0.948
4.922	0.953
4.96176	0.945
5.00151	0.941
5.04126	0.935
5.08102	0.92
5.12077	0.933
5.16053	0.955
5.20028	0.948
5.24003	0.941
5.27979	0.953
5.31954	0.965
5.35929	0.953
5.39905	0.945
5.4388	0.936
5.47855	0.941
5.51831	0.953
5.55806	0.956
5.59781	0.95
5.63757	0.955
5.67732	0.973
5.71707	0.953
5.75683	0.948
5.79658	0.941
5.83633	0.945
5.87609	0.943
5.91584	0.885
5.95559	0.587
5.99535	0.121
6.0351	0.567
6.07486	0.764
6.11461	0.703
6.15436	0.106
6.19412	0.27
6.23387	0.437
6.27362	0.351
6.31338	0.492
6.35313	0.691
6.39288	0.792
6.43264	0.721
6.47239	0.109
6.51214	0.117
6.5519	0.524
6.59165	0.656
6.6314	0.694
6.67116	0.678
6.71091	0.57
6.75066	0.54
6.79042	0.393
6.83017	0.414
6.86992	0.3
6.90968	0.575
6.94943	0.704
6.98919	0.786
7.02894	0.815
7.06869	0.827
7.10845	0.839
7.1482	0.832
7.18795	0.752
7.22771	0.577
7.26746	0.645
7.30721	0.61
7.34697	0.17
7.38672	0.081
7.42647	0.162
7.46623	0.414
7.50598	0.58
7.54573	0.391
7.58549	0.454
7.62524	0.52
7.66499	0.6
7.70475	0.451
7.7445	0.318
7.78425	0.572
7.82401	0.728
7.86376	0.776
7.90352	0.809
7.94327	0.814
7.98302	0.792
8.02278	0.774
8.06253	0.736
8.10228	0.63
8.14204	0.316
8.18179	0.22
8.22154	0.504
8.2613	0.665
8.30105	0.761
8.3408	0.82
8.38056	0.832
8.42031	0.797
8.46006	0.776
8.49982	0.84
8.53957	0.849
8.57932	0.857
8.61908	0.862
8.65883	0.892
8.69858	0.92
8.73834	0.927
8.77809	0.932
8.81785	0.932
8.8576	0.927
8.89735	0.905
8.93711	0.882
8.97686	0.835
9.01661	0.749
9.05637	0.678
9.09612	0.719
9.13587	0.739
9.17563	0.739
9.21538	0.669
9.25513	0.688
9.29489	0.766
9.33464	0.827
9.37439	0.859
9.41415	0.86
9.4539	0.878
9.49365	0.878
9.53341	0.877
9.57316	0.87
9.61292	0.844
9.65267	0.779
9.69242	0.8
9.73218	0.829
9.77193	0.648
9.81168	0.344
9.85144	0.49
9.89119	0.628
9.93094	0.563
9.9707	0.519
10.0104	0.378
10.0502	0.482
10.09	0.61
10.1297	0.489
10.1695	0.5
10.2092	0.477
10.249	0.689
10.2887	0.825
10.3285	0.862
10.3682	0.885
10.408	0.893
10.4477	0.907
10.4875	0.908
10.5272	0.912
10.567	0.912
10.6068	0.9
10.6465	0.873
10.6863	0.844
10.726	0.829
10.7658	0.83
10.8055	0.88
10.8453	0.804
10.885	0.771
10.9248	0.802
10.9645	0.85
11.0043	0.895
11.044	0.93
11.0838	0.946
11.1235	0.958
11.1633	0.96
11.2031	0.965
11.2428	0.956
11.2826	0.951
11.3223	0.958
11.3621	0.95
11.4018	0.923
11.4416	0.86
11.4813	0.711
11.5211	0.635
11.5608	0.673
11.6006	0.62
11.6403	0.641
11.6801	0.787
11.7198	0.83
11.7596	0.868
11.7994	0.91
11.8391	0.94
11.8789	0.953
11.9186	0.96
11.9584	0.976
11.9981	0.975
12.0379	0.971
12.0776	0.968
12.1174	0.968
12.1571	0.951
12.1969	0.93
12.2366	0.859
12.2764	0.786
12.3162	0.729
12.3559	0.572
12.3957	0.653
12.4354	0.834
12.4752	0.882
12.5149	0.796
12.5547	0.678
12.5944	0.769
12.6342	0.88
12.6739	0.898
12.7137	0.855
12.7534	0.756
12.7932	0.645
12.8329	0.328
12.8727	0.363
12.9125	0.686
12.9522	0.877
12.992	0.927
13.0317	0.943
13.0715	0.953
13.1112	0.95
13.151	0.945
13.1907	0.94
13.2305	0.94
13.2702	0.928
13.31	0.92
13.3497	0.912
13.3895	0.897
13.4292	0.862
13.469	0.804
13.5088	0.693
13.5485	0.467
13.5883	0.217
13.628	0.109
13.6678	0.167
13.7075	0.376
13.7473	0.621
13.787	0.759
13.8268	0.814
13.8665	0.839
13.9063	0.867
13.946	0.89
13.9858	0.902
14.0256	0.887
14.0653	0.85
14.1051	0.739
14.1448	0.563
14.1846	0.484
14.2243	0.575
14.2641	0.683
14.3038	0.724
14.3436	0.729
14.3833	0.736
14.4231	0.799
14.4628	0.842
14.5026	0.849
14.5423	0.799
14.5821	0.739
14.6219	0.679
14.6616	0.601
14.7014	0.477
14.7411	0.398
14.7809	0.454
14.8206	0.595
14.8604	0.691
14.9001	0.744
14.9399	0.759
14.9796	0.764
15.0194	0.719
15.0591	0.661
15.0989	0.553
15.1386	0.509
15.1784	0.502
15.2182	0.512
15.2579	0.512
15.2977	0.484
15.3374	0.48
15.3772	0.512
15.4169	0.577
15.4567	0.643
15.4964	0.701
15.5362	0.739
15.5759	0.761
15.6157	0.774
15.6554	0.776
15.6952	0.774
15.735	0.772
15.7747	0.769
15.8145	0.759
15.8542	0.744
15.894	0.736
15.9337	0.736
15.9735	0.719
