Infrared Spectrum: 3-Hexanol, 4-methyl-
Formula: C7 H16 O
CAS: 615-29-2
State: SOLUTION (10% CCl4 FOR 3800-1330, 10% CS2 FOR 1330-450 CM^-^1) VS SOLVENT
Class: COBLENTZ III
Instrument: DOW KBr FOREPRISM-GRATING
Instrument parameters: BLAZED AT 3.5, 12.0, 20.0 MICRON AND CHANGED AT 5.0, 7.5, 14.9 MICRON
Sampling: TRANSMISSION
Path length: 0.011 CM, 0.011 CM
Resolution: 2
Origin: DOW CHEMICAL COMPANY
1/CM	TRANSMITTANCE
456	0.7585
465	0.7438
474	0.7309
483	0.7178
492	0.7076
501	0.7188
510	0.7203
519	0.7191
528	0.7226
537	0.732
546	0.7374
555	0.7359
564	0.7334
573	0.7327
582	0.7388
591	0.738
600	0.7291
609	0.7221
618	0.7322
627	0.7481
636	0.7619
645	0.7745
654	0.7891
663	0.8094
672	0.8055
681	0.8142
690	0.8293
699	0.8424
708	0.8532
717	0.8618
726	0.8654
735	0.8652
744	0.8599
753	0.8466
762	0.8343
771	0.7712
780	0.7774
789	0.8292
798	0.8435
807	0.823
816	0.839
825	0.8481
834	0.8511
843	0.8635
852	0.7893
861	0.7231
870	0.8195
879	0.8626
888	0.8697
897	0.8671
906	0.8439
915	0.7646
924	0.6243
933	0.5244
942	0.3608
951	0.2205
960	0.1417
969	0.2317
978	0.3594
987	0.3498
996	0.6091
1005	0.6861
1014	0.6518
1023	0.5977
1032	0.5589
1041	0.6279
1050	0.6686
1059	0.6105
1068	0.5507
1077	0.533
1086	0.4744
1095	0.4398
1104	0.5404
1113	0.587
1122	0.618
1131	0.6005
1140	0.4777
1149	0.5003
1158	0.7012
1167	0.7332
1176	0.798
1185	0.7936
1194	0.7687
1203	0.725
1212	0.652
1221	0.5641
1230	0.5413
1239	0.5634
1248	0.5933
1257	0.6233
1266	0.6305
1275	0.632
1284	0.6142
1293	0.5842
1302	0.5809
1311	0.5958
1320	0.6219
1329	0.6593
1338	0.6639
1347	0.6481
1356	0.6178
1365	0.5655
1374	0.3106
1383	0.3628
1392	0.5343
1401	0.5822
1410	0.6259
1419	0.6542
1428	0.6512
1437	0.5511
1446	0.4071
1455	0.1164
1464	0.1014
1473	0.5711
1482	0.6976
1491	0.767
1500	0.8047
1509	0.8326
1518	0.8576
1527	0.875
1536	0.8931
1545	0.9016
1554	0.8994
1563	0.8932
1572	0.8867
1581	0.8802
1590	0.8773
1599	0.8712
1608	0.8636
1617	0.8557
1626	0.8501
1635	0.8555
1644	0.8634
1653	0.8673
1662	0.8652
1671	0.8668
1680	0.8689
1689	0.8697
1698	0.8693
1707	0.8688
1716	0.8682
1725	0.8674
1734	0.8672
1743	0.8722
1752	0.8787
1761	0.8833
1770	0.8876
1779	0.8892
1788	0.89
1797	0.8905
1806	0.8921
1815	0.8938
1824	0.8948
1833	0.8959
1842	0.8964
1851	0.8964
1860	0.8964
1869	0.8964
1878	0.896
1887	0.8955
1896	0.8947
1905	0.8932
1914	0.8917
1923	0.8921
1932	0.8924
1941	0.8928
1950	0.8941
1959	0.8993
1968	0.8935
1977	0.8936
1986	0.8954
1995	0.9123
2004	0.9463
2013	0.9464
2022	0.9467
2031	0.947
2040	0.9474
2049	0.9475
2058	0.9471
2067	0.9466
2076	0.9463
2085	0.9457
2094	0.9451
2103	0.9444
2112	0.9438
2121	0.9429
2130	0.942
2139	0.9407
2148	0.9395
2157	0.9382
2166	0.937
2175	0.9355
2184	0.934
2193	0.9325
2202	0.931
2211	0.929
2220	0.927
2229	0.925
2238	0.923
2247	0.9214
2256	0.92
2265	0.9184
2274	0.9171
2283	0.9158
2292	0.9146
2301	0.9153
2310	0.9168
2319	0.9192
2328	0.921
2337	0.9207
2346	0.9189
2355	0.9159
2364	0.9127
2373	0.9092
2382	0.906
2391	0.9038
2400	0.9027
2409	0.9029
2418	0.9038
2427	0.9047
2436	0.9056
2445	0.9061
2454	0.9066
2463	0.9069
2472	0.9068
2481	0.9068
2490	0.9064
2499	0.9054
2508	0.9045
2517	0.9028
2526	0.901
2535	0.8983
2544	0.8954
2553	0.8925
2562	0.8876
2571	0.882
2580	0.8762
2589	0.8691
2598	0.8622
2607	0.8573
2616	0.8547
2625	0.8532
2634	0.8519
2643	0.8508
2652	0.8502
2661	0.849
2670	0.8476
2679	0.8428
2688	0.8375
2697	0.8314
2706	0.8223
2715	0.8109
2724	0.7975
2733	0.7927
2742	0.7984
2751	0.81
2760	0.8108
2769	0.8057
2778	0.7972
2787	0.7832
2796	0.7637
2805	0.7355
2814	0.6999
2823	0.6605
2832	0.6047
2841	0.4811
2850	0.3766
2859	0.1593
2868	0.0952
2877	0.0334
2886	0.0905
2895	0.1326
2904	0.1252
2913	0.0798
2922	0.0457
2931	0.0307
2940	0.0373
2949	0.0637
2958	0.0188
2967	0.0084
2976	0.0166
2985	0.0986
2994	0.2806
3003	0.4331
3012	0.6658
3021	0.7251
3030	0.7499
3039	0.7822
3048	0.8011
3057	0.8137
3066	0.8222
3075	0.828
3084	0.8325
3093	0.836
3102	0.8387
3111	0.8399
3120	0.8396
3129	0.838
3138	0.8345
3147	0.8296
3156	0.8215
3165	0.8116
3174	0.8046
3183	0.7977
3192	0.7926
3201	0.7885
3210	0.7835
3219	0.7766
3228	0.7666
3237	0.752
3246	0.7361
3255	0.7178
3264	0.6956
3273	0.6682
3282	0.6338
3291	0.6018
3300	0.5728
3309	0.5445
3318	0.517
3327	0.4952
3336	0.4725
3345	0.4476
3354	0.4285
3363	0.4098
3372	0.3996
3381	0.393
3390	0.3898
3399	0.389
3408	0.3897
3417	0.3912
3426	0.3935
3435	0.3968
3444	0.4013
3453	0.4058
3462	0.4106
3471	0.4156
3480	0.4206
3489	0.4278
3498	0.4359
3507	0.4507
3516	0.4751
3525	0.5021
3534	0.5463
3543	0.6226
3552	0.6783
3561	0.7187
3570	0.7496
3579	0.7714
3588	0.7777
3597	0.7527
3606	0.6812
3615	0.6074
3624	0.5526
3633	0.5375
3642	0.6176
3651	0.7526
3660	0.8327
3669	0.8391
3678	0.8387
3687	0.8439
3696	0.859
3705	0.8681
3714	0.8737
3723	0.8766
3732	0.8794
3741	0.8818
3750	0.8837
3759	0.8849
3768	0.8859
3777	0.8862
3786	0.8866
3795	0.8867
3804	0.8869
3813	0.8868
