Infrared Spectrum: PHENOL, 2,4-DIBROMO-
Formula: C6 H4 Br2 O
CAS: 615-58-7
State: SOLUTION (5% CCl4 FOR 3800-1333, 5% CS2 FOR 1333-450 CM^-^1)
Class: COBLENTZ III
Instrument: Not specified, most likely a prism, grating, or hybrid spectrometer.
Sampling: TRANSMISSION
Path length: 0.010 CM, 0.010 CM
Resolution: 4
Origin: DOW CHEMICAL COMPANY
1/CM	TRANSMITTANCE
449.387	0.981
458.589	0.987
467.792	0.99
476.994	0.982
486.197	0.859
495.399	1.045
504.602	1.066
513.804	1.073
523.007	1.076
532.209	1.071
541.412	0.9109
550.614	1.085
559.816	1.092
569.019	1.089
578.221	1.093
587.424	1.102
596.626	1.085
605.829	1.063
615.031	1.038
624.234	0.576
633.436	1.051
642.639	1.028
651.841	1.015
661.044	1.039
670.246	1.031
679.448	0.6539
688.651	1.002
697.853	1.036
707.056	1.029
716.258	1.036
725.461	1.049
734.663	1.052
743.866	1.055
753.068	1.051
762.271	1.052
771.473	1.062
780.675	1.056
789.878	1.045
799.08	1.015
808.283	0.9629
817.485	0.3261
826.688	1.019
835.89	0.893
845.093	0.944
854.295	0.84
863.498	0.6129
872.7	0.934
881.902	1.002
891.105	1.038
900.307	1.062
909.51	1.063
918.712	1.058
927.915	1.056
937.117	1.041
946.32	1.053
955.522	1.063
964.725	1.059
973.927	1.061
983.13	1.062
992.332	1.061
1001.53	1.051
1010.74	1.041
1019.94	1.039
1029.14	1.024
1038.34	0.8148
1047.55	1.025
1056.75	1.026
1065.95	1.005
1075.15	0.8941
1084.36	1.011
1093.56	1.022
1102.76	1.036
1111.96	1.052
1121.17	1.025
1130.37	1.019
1139.57	1.004
1148.77	1.019
1157.98	0.987
1167.18	0.838
1176.38	0.5348
1185.58	0.1471
1194.79	0.705
1203.99	0.955
1213.19	1.026
1222.39	1.039
1231.6	1.019
1240.8	0.8838
1250	0.9281
1259.2	0.982
1268.41	0.852
1277.61	0.6049
1286.81	0.8971
1296.01	1.018
1305.22	1.004
1314.42	0.97
1323.62	0.72
1332.82	1.002
1342.03	1.028
1351.23	1.025
1360.43	1.024
1369.63	1.036
1378.84	1.038
1388.04	0.988
1397.24	0.887
1406.44	0.924
1415.65	1.009
1424.85	1.031
1434.05	1.025
1443.25	0.955
1452.45	0.742
1461.66	0.5891
1470.86	0.1938
1480.06	0.573
1489.26	0.7642
1498.47	0.873
1507.67	0.798
1516.87	0.742
1526.07	0.697
1535.28	0.598
1544.48	0.49
1553.68	0.495
1562.88	0.59
1572.09	0.609
1581.29	0.5591
1590.49	0.776
1599.69	0.911
1608.9	0.982
1618.1	1.019
1627.3	1.019
1636.5	1.049
1645.71	1.056
1654.91	1.046
1664.11	1.038
1673.31	1.041
1682.52	1.044
1691.72	1.039
1700.92	1.042
1710.12	1.039
1719.33	1.018
1728.53	1.025
1737.73	1.031
1746.93	1.036
1756.14	1.042
1765.34	1.048
1774.54	1.048
1783.74	1.039
1792.95	1.042
1802.15	1.035
1811.35	1.039
1820.55	1.041
1829.76	1.038
1838.96	1.036
1848.16	1.036
1857.36	1.032
1866.57	1.025
1875.77	1.001
1884.97	1.038
1894.17	1.036
1903.38	1.044
1912.58	1.045
1921.78	1.044
1930.98	1.048
1940.19	1.042
1949.39	1.042
1958.59	1.044
1967.79	1.039
1976.99	1.038
1986.2	1.035
1995.4	1.029
2004.6	1.0136
2013.8	1.0076
2023.01	1.0254
2032.21	1.025
2041.41	1.025
2050.61	1.0227
2059.82	1.022
2069.02	1.0243
2078.22	1.025
2087.42	1.0248
2096.63	1.022
2105.83	1.025
2115.03	1.026
2124.23	1.028
2133.44	1.028
2142.64	1.028
2151.84	1.026
2161.04	1.026
2170.25	1.0279
2179.45	1.028
2188.65	1.028
2197.85	1.026
2207.06	1.025
2216.26	1.025
2225.46	1.022
2234.66	1.022
2243.87	1.021
2253.07	1.0144
2262.27	1.0084
2271.47	1.002
2280.68	1.0004
2289.88	1
2299.08	1
2308.28	1.002
2317.49	1.0059
2326.69	1.009
2335.89	1.009
2345.09	1.011
2354.3	1.0183
2363.5	1.0213
2372.7	1.024
2381.9	1.022
2391.11	1.024
2400.31	1.022
2409.51	1.022
2418.71	1.0213
2427.92	1.025
2437.12	1.0219
2446.32	1.017
2455.52	1.011
2464.73	1.0188
2473.93	1.024
2483.13	1.024
2492.33	1.024
2501.53	1.0182
2510.74	1.018
2519.94	1.021
2529.14	1.024
2538.34	1.024
2547.55	1.024
2556.75	1.021
2565.95	1.0184
2575.15	1.018
2584.36	1.019
2593.56	1.022
2602.76	1.022
2611.96	1.024
2621.17	1.022
2630.37	1.021
2639.57	1.0186
2648.77	1.0183
2657.98	1.0213
2667.18	1.024
2676.38	1.024
2685.58	1.024
2694.79	1.022
2703.99	1.0207
2713.19	1.019
2722.39	1.022
2731.6	1.0219
2740.8	1.021
2750	1.018
2759.2	1.018
2768.41	1.017
2777.61	1.017
2786.81	1.018
2796.01	1.017
2805.22	1.015
2814.42	1.014
2823.62	1.014
2832.82	1.011
2842.03	1.005
2851.23	1.0087
2860.43	1.017
2869.63	1.015
2878.84	1.0129
2888.04	1.009
2897.24	1.008
2906.44	1.007
2915.65	1.007
2924.85	1.009
2934.05	1.011
2943.25	1.012
2952.46	1.015
2961.66	1.017
2970.86	1.017
2980.06	1.017
2989.27	1.0148
2998.47	1.012
3007.67	1.0107
3016.87	1.0079
3026.08	1.0049
3035.28	1.005
3044.48	1.007
3053.68	1.004
3062.88	0.99
3072.09	0.9979
3081.29	0.995
3090.49	0.9871
3099.69	0.9975
3108.9	1.007
3118.1	1.008
3127.3	1.009
3136.5	1.009
3145.71	1.009
3154.91	1.011
3164.11	1.012
3173.31	1.014
3182.52	1.0161
3191.72	1.017
3200.92	1.018
3210.12	1.018
3219.33	1.0174
3228.53	1.018
3237.73	1.021
3246.93	1.022
3256.14	1.024
3265.34	1.025
3274.54	1.025
3283.74	1.025
3292.95	1.024
3302.15	1.022
3311.35	1.022
3320.55	1.019
3329.76	1.017
3338.96	1.014
3348.16	1.015
3357.36	1.014
3366.57	1.012
3375.77	1.0092
3384.97	1.0071
3394.17	1.005
3403.38	1.004
3412.58	1.002
3421.78	1.0025
3430.98	1.001
3440.19	0.998
3449.39	0.995
3458.59	0.9914
3467.79	0.9852
3477	0.978
3486.2	0.9673
3495.4	0.9455
3504.6	0.889
3513.81	0.756
3523.01	0.4385
3532.21	0.3973
3541.41	0.5185
3550.62	0.8916
3559.82	0.9833
3569.02	1.001
3578.22	0.9963
3587.42	0.984
3596.63	0.982
3605.83	0.9914
3615.03	1.0041
3624.23	1.0071
3633.44	1.0091
3642.64	1.011
3651.84	1.009
3661.04	1.008
3670.25	1.009
3679.45	1.011
3688.65	1.0093
3697.85	1.008
3707.06	1.009
3716.26	1.0106
3725.46	1.011
3734.66	1.008
3743.87	1.004
3753.07	1.004
3762.27	1.005
3771.47	1.011
3780.68	1.0131
3789.88	1.015
