Infrared Spectrum: 1,2,4-TRIBROMOBENZENE
Formula: C6 H3 Br3
CAS: 615-54-3
State: SOLUTION (10% CCl4 FOR 3800-1330, 10% CS2 FOR 1330-450 CM^-^1)
Class: COBLENTZ
Instrument: Not specified, most likely a prism, grating, or hybrid spectrometer.
Sampling: TRANSMISSION
Path length: 0.011 CM, 0.012 CM
Resolution: 4
Origin: DOW CHEMICAL COMPANY
1/CM	TRANSMITTANCE
442.543	0.772
451.671	0.766
460.799	0.729
469.927	0.674
479.055	0.912
488.183	0.916
497.311	0.916
506.439	0.916
515.567	0.914
524.695	0.907
533.823	0.6901
542.951	0.953
552.079	0.966
561.207	0.975
570.335	0.978
579.463	0.978
588.591	0.978
597.719	0.978
606.847	0.976
615.975	0.975
625.103	0.971
634.231	0.96
643.359	0.935
652.487	0.911
661.615	0.93
670.743	0.96
679.871	0.8524
688.999	0.969
698.127	0.978
707.255	0.98
716.383	0.966
725.511	0.953
734.639	0.967
743.767	0.948
752.895	0.3801
762.023	0.935
771.151	0.8135
780.279	0.9339
789.407	0.964
798.535	0.932
807.663	0.2519
816.791	0.6807
825.919	0.95
835.047	0.955
844.175	0.921
853.303	0.797
862.43	0.754
871.558	0.314
880.686	0.852
889.814	0.932
898.942	0.976
908.07	0.998
917.198	1.001
926.326	1.001
935.454	1.001
944.582	0.987
953.71	0.994
962.838	0.987
971.966	0.998
981.094	1
990.222	0.994
999.35	0.971
1008.48	0.7331
1017.61	0.4158
1026.73	0.967
1035.86	0.976
1044.99	0.964
1054.12	0.8981
1063.25	0.9139
1072.37	0.919
1081.5	0.6027
1090.63	0.6378
1099.76	0.875
1108.89	0.546
1118.01	0.7901
1127.14	0.937
1136.27	0.925
1145.4	0.9049
1154.53	0.96
1163.65	0.976
1172.78	0.976
1181.91	0.955
1191.04	0.991
1200.17	0.987
1209.29	0.985
1218.42	0.996
1227.55	0.989
1236.68	0.985
1245.81	0.944
1254.93	0.882
1264.06	0.957
1273.19	0.978
1282.32	0.978
1291.45	0.978
1300.57	0.98
1309.7	0.991
1318.83	0.991
1327.96	0.989
1337.09	0.976
1346.21	0.948
1355.34	0.761
1364.47	0.4593
1373.6	0.951
1382.73	0.939
1391.85	0.969
1400.98	0.825
1410.11	0.944
1419.24	0.96
1428.37	0.896
1437.49	0.879
1446.62	0.2395
1455.75	0.6825
1464.88	0.932
1474.01	0.879
1483.13	0.866
1492.26	0.898
1501.39	0.845
1510.52	0.791
1519.65	0.738
1528.77	0.69
1537.9	0.588
1547.03	0.4191
1556.16	0.245
1565.29	0.524
1574.41	0.645
1583.54	0.683
1592.67	0.731
1601.8	0.822
1610.93	0.903
1620.05	0.941
1629.18	0.975
1638.31	1.001
1647.44	1.014
1656.57	1.005
1665.69	0.994
1674.82	1
1683.95	0.998
1693.08	0.994
1702.21	0.994
1711.33	0.985
1720.46	0.971
1729.59	0.953
1738.72	0.932
1747.85	0.959
1756.97	0.982
1766.1	0.994
1775.23	1
1784.36	1
1793.49	1
1802.61	1
1811.74	0.994
1820.87	0.989
1830	0.998
1839.13	0.991
1848.25	0.992
1857.38	0.992
1866.51	0.992
1875.64	0.991
1884.77	0.966
1893.89	0.966
1903.02	0.994
1912.15	1
1921.28	0.996
1930.41	0.996
1939.53	1
1948.66	1
1957.79	1
1966.92	1
1976.05	0.998
1985.17	0.998
1994.3	0.996
2003.43	0.985
2012.56	0.988
2021.69	0.991
2030.81	0.992
2039.94	0.992
2049.07	0.992
2058.2	0.9931
2067.33	0.9971
2076.45	1
2085.58	1
2094.71	1
2103.84	1
2112.96	0.9993
2122.09	0.9989
2131.22	1
2140.35	1
2149.48	1
2158.6	1
2167.73	1
2176.86	0.998
2185.99	1
2195.12	1
2204.24	1
2213.37	1
2222.5	1
2231.63	1
2240.76	0.9968
2249.88	0.992
2259.01	0.989
2268.14	0.985
2277.27	0.9807
2286.4	0.9767
2295.52	0.975
2304.65	0.976
2313.78	0.98
2322.91	0.9827
2332.04	0.9863
2341.16	0.9904
2350.29	0.996
2359.42	1.0007
2368.55	1.005
2377.68	1.003
2386.8	1.0003
2395.93	0.996
2405.06	0.998
2414.19	0.998
2423.32	0.998
2432.44	0.996
2441.57	1.0007
2450.7	1.001
2459.83	1.001
2468.96	1.001
2478.08	1.0002
2487.21	0.996
2496.34	0.991
2505.47	0.9935
2514.6	0.998
2523.72	1
2532.85	1
2541.98	1
2551.11	0.9984
2560.24	0.996
2569.36	0.9916
2578.49	0.994
2587.62	0.9956
2596.75	0.992
2605.88	0.9918
2615	0.9957
2624.13	0.9957
2633.26	0.992
2642.39	0.9954
2651.52	0.996
2660.64	0.996
2669.77	0.994
2678.9	0.9893
2688.03	0.9824
2697.16	0.9846
2706.28	0.991
2715.41	0.992
2724.54	0.992
2733.67	0.9893
2742.8	0.989
2751.92	0.987
2761.05	0.9852
2770.18	0.9832
2779.31	0.982
2788.44	0.9782
2797.56	0.9645
2806.69	0.9639
2815.82	0.975
2824.95	0.978
2834.08	0.978
2843.2	0.975
2852.33	0.96
2861.46	0.959
2870.59	0.959
2879.72	0.9551
2888.84	0.953
2897.97	0.951
2907.1	0.9431
2916.23	0.934
2925.36	0.932
2934.48	0.934
2943.61	0.941
2952.74	0.943
2961.87	0.946
2971	0.944
2980.12	0.948
2989.25	0.944
2998.38	0.9461
3007.51	0.953
3016.64	0.9531
3025.76	0.955
3034.89	0.9571
3044.02	0.9601
3053.15	0.9639
3062.28	0.9569
3071.4	0.9482
3080.53	0.9526
3089.66	0.9226
3098.79	0.9286
3107.92	0.9552
3117.04	0.96
3126.17	0.9643
3135.3	0.9732
3144.43	0.978
3153.56	0.982
3162.68	0.982
3171.81	0.9817
3180.94	0.98
3190.07	0.98
3199.2	0.98
3208.32	0.9803
3217.45	0.9833
3226.58	0.9873
3235.71	0.9912
3244.84	0.9943
3253.96	0.998
3263.09	1.0002
3272.22	1.001
3281.35	1.001
3290.48	1.001
3299.6	1.001
3308.73	1.001
3317.86	1.001
3326.99	1.001
3336.12	1.001
3345.24	1.001
3354.37	1.001
3363.5	1
3372.63	1
3381.76	1
3390.88	1
3400.01	0.998
3409.14	0.9975
3418.27	0.996
3427.4	0.996
3436.52	0.994
3445.65	0.994
3454.78	0.992
3463.91	0.992
3473.04	0.991
3482.16	0.991
3491.29	0.991
3500.42	0.991
3509.55	0.989
3518.68	0.989
3527.8	0.989
3536.93	0.989
3546.06	0.9896
3555.19	0.992
3564.32	0.994
3573.44	0.996
3582.57	0.998
3591.7	0.998
3600.83	1
3609.96	1
3619.08	1
3628.21	1
3637.34	1
3646.47	1
3655.6	1
3664.72	1
3673.85	1.0004
3682.98	1.001
3692.11	1.001
3701.24	1.001
3710.36	1.001
3719.49	1.001
3728.62	1.001
3737.75	1.001
3746.88	1.001
3756	1.001
3765.13	1.001
3774.26	1.001
