Infrared Spectrum: 2-(Methylthio)benzothiazole
Formula: C8 H7 N S2
CAS: 615-22-5
State: SOLUTION (10% CCl4 FOR 4000-1350, 10% CCl4 FOR 440-200, 10% CS2 FOR 1350-440 CM^-^1)
Class: COBLENTZ III
Instrument: BECKMAN IR-12 (GRATING)
Instrument parameters: FILTERS AT 303, 473, 790, 1036, 1880, 2930 CM^-^1. GRATING CHANGE: 300.5, 650.0, 2000.4 CM^-^1
Path length: 0.01 CM, 0.01 CM, AND 0.01 CM
Resolution: 2
Origin: BECKMAN INSTRUMENTS, KENNETH STINE
1/CM	TRANSMITTANCE
206	0.0069
216	0.0776
226	0.1651
236	0.2559
246	0.3654
256	0.448
266	0.5798
276	0.6462
286	0.7239
296	0.802
306	0.7977
316	0.8047
326	0.861
336	0.8752
346	0.9064
356	0.9242
366	0.8223
376	0.9098
386	0.938
396	0.9304
406	0.9055
416	0.9246
426	0.769
436	0.7391
446	0.7763
456	0.8113
466	0.8473
476	0.8678
486	0.889
496	0.9099
506	0.9138
516	0.9249
526	0.9266
536	0.9331
546	0.9383
556	0.9437
566	0.9427
576	0.9346
586	0.9282
596	0.9086
606	0.928
616	0.9288
626	0.9252
636	0.9174
646	0.8824
656	0.8653
666	0.8525
676	0.6288
686	0.926
696	0.9321
706	0.7562
716	0.8579
726	0.115
736	0.8715
746	0.8205
756	0.0253
766	0.7778
776	0.9019
786	0.9222
796	0.9257
806	0.9289
816	0.9312
826	0.9324
836	0.9288
846	0.8416
856	0.7723
866	0.8067
876	0.841
886	0.8646
896	0.9198
906	0.9334
916	0.9344
926	0.9094
936	0.7569
946	0.857
956	0.7121
966	0.5237
976	0.628
986	0.6916
996	0.4684
1006	0.0987
1016	0.4931
1026	0.5815
1036	0.8419
1046	0.8602
1056	0.869
1066	0.8837
1076	0.7737
1086	0.7168
1096	0.9082
1106	0.8992
1116	0.9061
1126	0.7201
1136	0.9149
1146	0.9248
1156	0.9047
1166	0.9178
1176	0.9088
1186	0.933
1196	0.9421
1206	0.9388
1216	0.9143
1226	0.8827
1236	0.7527
1246	0.8244
1256	0.9193
1266	0.913
1276	0.7381
1286	0.8928
1296	0.8907
1306	0.6724
1316	0.4648
1326	0.8329
1336	0.8937
1346	0.8749
1356	0.8691
1366	0.8545
1376	0.8491
1386	0.8612
1396	0.851
1406	0.8046
1416	0.5678
1426	0.2176
1436	0.0985
1446	0.3945
1456	0.4594
1466	0.0209
1476	0.5524
1486	0.7923
1496	0.8156
1506	0.7849
1516	0.7379
1526	0.7045
1536	0.6339
1546	0.5502
1556	0.5175
1566	0.5533
1576	0.6436
1586	0.6717
1596	0.6925
1606	0.8005
1616	0.8526
1626	0.89
1636	0.9077
1646	0.907
1656	0.8975
1666	0.9097
1676	0.9125
1686	0.8478
1696	0.8297
1706	0.8615
1716	0.9094
1726	0.9111
1736	0.9154
1746	0.9236
1756	0.9309
1766	0.9262
1776	0.9138
1786	0.867
1796	0.9178
1806	0.92
1816	0.9116
1826	0.8965
1836	0.9143
1846	0.9222
1856	0.9233
1866	0.9046
1876	0.9095
1886	0.9217
1896	0.9125
1906	0.8689
1916	0.9182
1926	0.9218
1936	0.9061
1946	0.876
1956	0.9224
1966	0.9279
1976	0.928
1986	0.9254
1996	0.9235
2006	0.9265
2016	0.9235
2026	0.9217
2036	0.9248
2046	0.9298
2056	0.9294
2066	0.9283
2076	0.9332
2086	0.9325
2096	0.9273
2106	0.9317
2116	0.9323
2126	0.9284
2136	0.9262
2146	0.9289
2156	0.9324
2166	0.9295
2176	0.9294
2186	0.933
2196	0.9325
2206	0.9303
2216	0.9323
2226	0.9352
2236	0.9334
2246	0.929
2256	0.9232
2266	0.9183
2276	0.9108
2286	0.9009
2296	0.9063
2306	0.9114
2316	0.9138
2326	0.9147
2336	0.9211
2346	0.928
2356	0.9278
2366	0.9289
2376	0.9312
2386	0.9248
2396	0.9219
2406	0.9247
2416	0.9256
2426	0.921
2436	0.9192
2446	0.9181
2456	0.9196
2466	0.9199
2476	0.918
2486	0.9197
2496	0.9224
2506	0.9206
2516	0.9228
2526	0.9246
2536	0.9222
2546	0.9204
2556	0.9207
2566	0.9208
2576	0.917
2586	0.9173
2596	0.9209
2606	0.9177
2616	0.9111
2626	0.91
2636	0.9178
2646	0.919
2656	0.9182
2666	0.9178
2676	0.9177
2686	0.9176
2696	0.9175
2706	0.9167
2716	0.9149
2726	0.9122
2736	0.9096
2746	0.9123
2756	0.9163
2766	0.9123
2776	0.9106
2786	0.9147
2796	0.9114
2806	0.9102
2816	0.8998
2826	0.895
2836	0.8925
2846	0.8817
2856	0.8747
2866	0.8854
2876	0.8822
2886	0.8792
2896	0.8862
2906	0.8807
2916	0.8623
2926	0.7186
2936	0.7349
2946	0.8694
2956	0.8837
2966	0.8855
2976	0.8834
2986	0.873
2996	0.8488
3006	0.8345
3016	0.851
3026	0.8426
3036	0.8354
3046	0.8312
3056	0.7522
3066	0.6749
3076	0.7581
3086	0.8591
3096	0.8778
3106	0.8841
3116	0.8815
3126	0.8798
3136	0.8856
3146	0.8927
3156	0.8947
3166	0.8945
3176	0.8945
3186	0.8944
3196	0.8944
3206	0.8947
3216	0.8946
3226	0.8944
3236	0.8942
3246	0.894
3256	0.8933
3266	0.8926
3276	0.8919
3286	0.8912
3296	0.89
3306	0.8889
3316	0.8877
3326	0.8865
3336	0.8853
3346	0.8841
3356	0.8828
3366	0.8814
3376	0.8786
3386	0.8757
3396	0.8728
3406	0.8696
3416	0.8672
3426	0.8684
3436	0.8709
3446	0.8744
3456	0.878
3466	0.8811
3476	0.884
3486	0.8868
3496	0.8894
3506	0.8916
3516	0.8928
3526	0.8939
3536	0.8945
3546	0.895
3556	0.8956
3566	0.8961
3576	0.8957
3586	0.8953
3596	0.8948
3606	0.8945
3616	0.8941
3626	0.8937
3636	0.8933
3646	0.893
3656	0.892
3666	0.8909
3676	0.8898
3686	0.8889
3696	0.8887
3706	0.8885
3716	0.8885
3726	0.8885
3736	0.8885
3746	0.8882
3756	0.8879
3766	0.8874
3776	0.8867
3786	0.8861
3796	0.8856
3806	0.8853
3816	0.885
3826	0.885
3836	0.8849
3846	0.8849
3856	0.8851
3866	0.8851
3876	0.8847
3886	0.8837
3896	0.882
3906	0.8801
3916	0.8789
3926	0.879
3936	0.8812
3946	0.8813
3956	0.8805
3966	0.8793
3976	0.879
3986	0.8795
3996	0.8818
