Infrared Spectrum: 2,5-Dibromotoluene
Formula: C7 H6 Br2
CAS: 615-59-8
State: SOLUTION (10% CCl4 FOR 2.0-7.5, 10% CS2 FOR 7.5-16.0 MICRON)
Class: COBLENTZ III
Instrument: BAIRD (PRISM)
Instrument parameters: NaCl PRISM
Sampling: TRANSMISSION
Path length: 0.013 CM, AND 0.012 CM
Resolution: 2
Origin: DOW CHEMICAL COMPANY
1/CM	TRANSMITTANCE
4000	0.9297
3991	0.9284
3982	0.9309
3973	0.9301
3964	0.9302
3955	0.9304
3946	0.9303
3937	0.9301
3928	0.9299
3919	0.9285
3910	0.9298
3901	0.9312
3892	0.9298
3883	0.9305
3874	0.9327
3865	0.9346
3856	0.936
3847	0.9373
3838	0.9384
3829	0.939
3820	0.9395
3811	0.9393
3802	0.9377
3793	0.9373
3784	0.934
3775	0.9312
3766	0.9304
3757	0.9291
3748	0.9309
3739	0.9347
3730	0.9382
3721	0.9405
3712	0.9422
3703	0.9444
3694	0.9437
3685	0.9422
3676	0.9416
3667	0.9396
3658	0.9377
3649	0.9357
3640	0.9342
3631	0.9346
3622	0.9339
3613	0.9331
3604	0.9323
3595	0.9317
3586	0.9314
3577	0.9311
3568	0.9293
3559	0.929
3550	0.9297
3541	0.9297
3532	0.9294
3523	0.9277
3514	0.9274
3505	0.927
3496	0.9267
3487	0.9264
3478	0.9261
3469	0.9257
3460	0.9254
3451	0.9251
3442	0.9246
3433	0.924
3424	0.9234
3415	0.9231
3406	0.9233
3397	0.9221
3388	0.9216
3379	0.921
3370	0.9214
3361	0.9192
3352	0.9183
3343	0.9175
3334	0.9164
3325	0.915
3316	0.9137
3307	0.9126
3298	0.9108
3289	0.9095
3280	0.9081
3271	0.9074
3262	0.9056
3253	0.9039
3244	0.9012
3235	0.8998
3226	0.8964
3217	0.8956
3208	0.893
3199	0.8927
3190	0.8907
3181	0.8892
3172	0.8889
3163	0.89
3154	0.8899
3145	0.8889
3136	0.8903
3127	0.8897
3118	0.8889
3109	0.8881
3100	0.8893
3091	0.8907
3082	0.8849
3073	0.8874
3064	0.8827
3055	0.8802
3046	0.88
3037	0.8848
3028	0.8765
3019	0.8747
3010	0.8721
3001	0.8683
2992	0.8613
2983	0.8446
2974	0.826
2965	0.8076
2956	0.7976
2947	0.7967
2938	0.7965
2929	0.7987
2920	0.8037
2911	0.8098
2902	0.8158
2893	0.8238
2884	0.8345
2875	0.8502
2866	0.8633
2857	0.8796
2848	0.882
2839	0.8832
2830	0.8832
2821	0.8861
2812	0.8891
2803	0.8958
2794	0.9003
2785	0.9039
2776	0.9085
2767	0.9123
2758	0.9144
2749	0.9156
2740	0.9157
2731	0.9153
2722	0.9141
2713	0.9128
2704	0.9125
2695	0.9139
2686	0.9165
2677	0.9193
2668	0.9219
2659	0.9243
2650	0.9247
2641	0.9252
2632	0.9256
2623	0.9246
2614	0.9234
2605	0.9227
2596	0.9219
2587	0.9214
2578	0.9208
2569	0.9212
2560	0.9231
2551	0.9273
2542	0.9288
2533	0.9293
2524	0.9298
2515	0.9299
2506	0.9299
2497	0.93
2488	0.9299
2479	0.9308
2470	0.9303
2461	0.9297
2452	0.9289
2443	0.9282
2434	0.9274
2425	0.9269
2416	0.9267
2407	0.9277
2398	0.9297
2389	0.9347
2380	0.9412
2371	0.9458
2362	0.9392
2353	0.9326
2344	0.9205
2335	0.9091
2326	0.9097
2317	0.9096
2308	0.9121
2299	0.9154
2290	0.9192
2281	0.9195
2272	0.9195
2263	0.9191
2254	0.9181
2245	0.9193
2236	0.9208
2227	0.9219
2218	0.9233
2209	0.926
2200	0.9283
2191	0.9285
2182	0.9295
2173	0.931
2164	0.9292
2155	0.9281
2146	0.9264
2137	0.9257
2128	0.926
2119	0.9263
2110	0.9266
2101	0.9267
2092	0.9272
2083	0.9274
2074	0.9273
2065	0.9272
2056	0.9283
2047	0.9261
2038	0.9256
2029	0.9246
2020	0.925
2011	0.9234
2002	0.9217
1993	0.9187
1984	0.9163
1975	0.915
1966	0.9175
1957	0.9195
1948	0.9181
1939	0.9186
1930	0.9189
1921	0.9179
1912	0.9153
1903	0.9121
1894	0.9054
1885	0.8892
1876	0.8827
1867	0.89
1858	0.8959
1849	0.9015
1840	0.9069
1831	0.9073
1822	0.9073
1813	0.9094
1804	0.9104
1795	0.9125
1786	0.9138
1777	0.9146
1768	0.9128
1759	0.9102
1750	0.9021
1741	0.8902
1732	0.8866
1723	0.8965
1714	0.9111
1705	0.9103
1696	0.914
1687	0.9065
1678	0.9028
1669	0.9027
1660	0.9019
1651	0.8989
1642	0.8932
1633	0.883
1624	0.856
1615	0.8292
1606	0.8381
1597	0.7892
1588	0.7292
1579	0.6482
1570	0.663
1561	0.6981
1552	0.6767
1543	0.6809
1534	0.6632
1525	0.6826
1516	0.7251
1507	0.7625
1498	0.7647
1489	0.7263
1480	0.5652
1471	0.3874
1462	0.2458
1453	0.5246
1444	0.5762
1435	0.6448
1426	0.7687
1417	0.7906
1408	0.7858
1399	0.765
1390	0.7547
1381	0.6553
1372	0.6929
1363	0.8287
1354	0.8967
1345	0.8986
1336	0.8931
1327	0.892
1318	0.8891
1309	0.8909
1300	0.8955
1291	0.8948
1282	0.8861
1273	0.8546
1264	0.8227
1255	0.8813
1246	0.8901
1237	0.8907
1228	0.8919
1219	0.8876
1210	0.8477
1201	0.7033
1192	0.8721
1183	0.893
1174	0.8903
1165	0.8891
1156	0.8829
1147	0.8749
1138	0.8147
1129	0.8462
1120	0.8482
1111	0.8318
1102	0.8395
1093	0.6207
1084	0.4361
1075	0.7878
1066	0.738
1057	0.5696
1048	0.7713
1039	0.7012
1030	0.2212
1021	0.2846
1012	0.7572
1003	0.7912
994	0.8129
985	0.8877
976	0.8839
967	0.885
958	0.8819
949	0.8792
940	0.8714
931	0.8714
922	0.8751
913	0.8786
904	0.878
895	0.8638
886	0.8425
877	0.7785
868	0.4357
859	0.6569
850	0.6204
841	0.6694
832	0.8023
823	0.8235
814	0.7241
805	0.1523
796	0.7383
787	0.819
778	0.8331
769	0.8027
760	0.8147
751	0.8059
742	0.7892
733	0.7752
724	0.7619
715	0.7401
706	0.7125
697	0.6867
688	0.6193
679	0.6026
670	0.5888
661	0.5595
652	0.5307
643	0.4942
634	0.4634
