Infrared Spectrum: 2-BROMOHEXANOIC ACID
Formula: C6 H11 Br O2
CAS: 616-05-7
State: LIQUID
Boiling point: 119-120 C AT 7 mmHg
Class: COBLENTZ
Instrument: Not specified, most likely a prism, grating, or hybrid spectrometer.
Sampling: TRANSMISSION
Path length: 0.003 CM
Resolution: 4
Origin: WYANDOTTE CHEMICALS CORP., WYANDOTTE, MICHIGAN, USA
MICROMETERS	TRANSMITTANCE
2.052	0.985
2.09179	0.986
2.13157	0.98
2.17136	0.985
2.21114	0.966
2.25093	0.961
2.29071	0.96
2.3305	0.955
2.37029	0.96
2.41007	0.961
2.44986	0.965
2.48964	0.971
2.52943	0.975
2.56921	0.975
2.609	0.968
2.64878	0.975
2.68857	0.968
2.72836	0.94
2.76814	0.923
2.80793	0.903
2.84771	0.87
2.8875	0.818
2.92728	0.774
2.96707	0.707
3.00686	0.647
3.04664	0.539
3.08643	0.398
3.12621	0.277
3.166	0.214
3.20578	0.172
3.24557	0.136
3.28536	0.124
3.32514	0.107
3.36493	0.033
3.40471	0.038
3.4445	0.074
3.48428	0.063
3.52407	0.137
3.56385	0.23
3.60364	0.299
3.64343	0.333
3.68321	0.335
3.723	0.348
3.76278	0.32
3.80257	0.352
3.84235	0.363
3.88214	0.373
3.92193	0.378
3.96171	0.398
4.0015	0.436
4.04128	0.513
4.08107	0.574
4.12085	0.624
4.16064	0.669
4.20042	0.696
4.24021	0.727
4.28	0.734
4.31978	0.747
4.35957	0.759
4.39935	0.795
4.43914	0.812
4.47892	0.825
4.51871	0.83
4.5585	0.842
4.59828	0.842
4.63807	0.845
4.67785	0.858
4.71764	0.862
4.75742	0.862
4.79721	0.863
4.837	0.868
4.87678	0.868
4.91657	0.865
4.95635	0.868
4.99614	0.865
5.03592	0.855
5.07571	0.848
5.11549	0.848
5.15528	0.847
5.19507	0.842
5.23485	0.832
5.27464	0.828
5.31442	0.823
5.35421	0.815
5.39399	0.8
5.43378	0.792
5.47357	0.779
5.51335	0.762
5.55314	0.74
5.59292	0.717
5.63271	0.662
5.67249	0.574
5.71228	0.323
5.75207	0.144
5.79185	0.023
5.83164	0.029
5.87142	0.053
5.91121	0.197
5.95099	0.358
5.99078	0.478
6.03056	0.551
6.07035	0.651
6.11014	0.702
6.14992	0.739
6.18971	0.759
6.22949	0.802
6.26928	0.818
6.30906	0.828
6.34885	0.833
6.38864	0.83
6.42842	0.842
6.46821	0.832
6.50799	0.833
6.54778	0.823
6.58756	0.837
6.62735	0.82
6.66713	0.812
6.70692	0.779
6.74671	0.704
6.78649	0.377
6.82628	0.303
6.86606	0.32
6.90585	0.287
6.94563	0.217
6.98542	0.172
7.02521	0.154
7.06499	0.25
7.10478	0.362
7.14456	0.495
7.18435	0.576
7.22413	0.496
7.26392	0.564
7.30371	0.664
7.34349	0.677
7.38328	0.654
7.42306	0.599
7.46285	0.576
7.50263	0.549
7.54242	0.496
7.5822	0.431
7.62199	0.35
7.66178	0.275
7.70156	0.202
7.74135	0.141
7.78113	0.146
7.82092	0.194
7.8607	0.204
7.90049	0.182
7.94028	0.217
7.98006	0.28
8.01985	0.275
8.05963	0.227
8.09942	0.262
8.1392	0.335
8.17899	0.38
8.21878	0.42
8.25856	0.415
8.29835	0.295
8.33813	0.242
8.37792	0.282
8.4177	0.33
8.45749	0.313
8.49727	0.272
8.53706	0.26
8.57685	0.312
8.61663	0.395
8.65642	0.504
8.6962	0.588
8.73599	0.654
8.77577	0.714
8.81556	0.752
8.85535	0.775
8.89513	0.76
8.93492	0.661
8.9747	0.579
9.01449	0.536
9.05427	0.617
9.09406	0.717
9.13385	0.807
9.17363	0.852
9.21342	0.875
9.2532	0.873
9.29299	0.858
9.33277	0.853
9.37256	0.857
9.41234	0.853
9.45213	0.838
9.49192	0.825
9.5317	0.802
9.57149	0.782
9.61127	0.762
9.65106	0.764
9.69084	0.775
9.73063	0.799
9.77042	0.817
9.8102	0.817
9.84999	0.823
9.88977	0.817
9.92956	0.789
9.96934	0.765
10.0091	0.76
10.0489	0.767
10.0887	0.76
10.1285	0.745
10.1683	0.724
10.2081	0.689
10.2478	0.662
10.2876	0.644
10.3274	0.626
10.3672	0.602
10.407	0.584
10.4468	0.549
10.4866	0.504
10.5263	0.478
10.5661	0.445
10.6059	0.42
10.6457	0.387
10.6855	0.348
10.7253	0.322
10.7651	0.31
10.8048	0.302
10.8446	0.299
10.8844	0.32
10.9242	0.345
10.964	0.362
11.0038	0.385
11.0436	0.405
11.0833	0.415
11.1231	0.441
11.1629	0.456
11.2027	0.483
11.2425	0.501
11.2823	0.511
11.3221	0.519
11.3618	0.533
11.4016	0.536
11.4414	0.546
11.4812	0.554
11.521	0.564
11.5608	0.564
11.6006	0.564
11.6403	0.576
11.6801	0.583
11.7199	0.601
11.7597	0.607
11.7995	0.612
11.8393	0.627
11.8791	0.642
11.9188	0.644
11.9586	0.661
11.9984	0.666
12.0382	0.674
12.078	0.677
12.1178	0.674
12.1576	0.676
12.1973	0.687
12.2371	0.677
12.2769	0.689
12.3167	0.692
12.3565	0.682
12.3963	0.669
12.4361	0.662
12.4758	0.664
12.5156	0.664
12.5554	0.656
12.5952	0.644
12.635	0.639
12.6748	0.626
12.7146	0.627
12.7543	0.649
12.7941	0.667
12.8339	0.682
12.8737	0.687
12.9135	0.702
12.9533	0.709
12.9931	0.717
13.0328	0.732
13.0726	0.73
13.1124	0.727
13.1522	0.722
13.192	0.705
13.2318	0.689
13.2716	0.674
13.3113	0.674
13.3511	0.671
13.3909	0.664
13.4307	0.662
13.4705	0.667
13.5103	0.659
13.5501	0.647
13.5898	0.626
13.6296	0.591
13.6694	0.559
13.7092	0.543
13.749	0.579
13.7888	0.652
13.8286	0.705
13.8683	0.744
13.9081	0.762
13.9479	0.767
13.9877	0.782
14.0275	0.787
14.0673	0.795
14.1071	0.794
14.1468	0.795
14.1866	0.789
14.2264	0.79
14.2662	0.785
14.306	0.782
14.3458	0.769
14.3856	0.764
14.4253	0.747
14.4651	0.739
14.5049	0.732
14.5447	0.71
14.5845	0.687
14.6243	0.644
14.664	0.604
14.7038	0.578
14.7436	0.543
14.7834	0.523
14.8232	0.503
14.863	0.496
14.9028	0.498
14.9425	0.509
14.9823	0.518
15.0221	0.526
15.0619	0.533
15.1017	0.551
15.1415	0.558
15.1813	0.566
15.221	0.564
15.2608	0.559
15.3006	0.554
15.3404	0.551
15.3802	0.556
15.42	0.554
15.4598	0.559
15.4995	0.573
15.5393	0.571
15.5791	0.581
15.6189	0.589
15.6587	0.589
15.6985	0.596
15.7383	0.599
15.778	0.609
15.8178	0.616
15.8576	0.611
15.8974	0.614
15.9372	0.617
15.977	0.617
