Infrared Spectrum: BUTANEDIOIC ACID, 2-METHYLENE-, DIMETHYL ESTER
Formula: C7 H10 O4
CAS: 617-52-7
State: SOLUTION (10% IN CCl4 FOR 3800-1300, 10% IN CS2 FOR 1300-650, AND 10% CCl4 FOR 650-240 CM^-^1) VERSUS SOLVENT
Class: COBLENTZ III
Instrument: PERKIN-ELMER 521 (GRATING)
Instrument parameters: FILTERS AT 3150, 2500, 2000, 1150, 700, 410; GRATING CHANGES AT 2000, 630 CM^-^1
Sampling: TRANSMISSION
Path length: 0.011, 0.010, AND 0.010 CM (CsBr CELL)
Resolution: 4
Origin: DOW CORNING CORP.
1/CM	TRANSMITTANCE
236.374	0.764
246.205	0.764
256.035	0.762
265.866	0.762
275.697	0.762
285.527	0.763
295.358	0.766
305.189	0.77
315.02	0.768
324.85	0.754
334.681	0.72
344.512	0.632
354.342	0.629
364.173	0.62
374.004	0.693
383.834	0.751
393.665	0.717
403.496	0.748
413.326	0.806
423.157	0.826
432.988	0.855
442.819	0.872
452.649	0.889
462.48	0.898
472.311	0.891
482.141	0.898
491.972	0.913
501.803	0.902
511.633	0.872
521.464	0.893
531.295	0.881
541.125	0.856
550.956	0.838
560.787	0.822
570.618	0.82
580.448	0.848
590.279	0.886
600.11	0.911
609.94	0.894
619.771	0.874
629.602	0.859
639.432	0.85
649.263	0.862
659.094	0.886
668.924	0.947
678.755	1.006
688.586	1.03
698.417	1.036
708.247	1.041
718.078	1.034
727.909	1.017
737.739	0.955
747.57	0.708
757.401	0.736
767.231	0.963
777.062	1.012
786.893	1.021
796.723	1.004
806.554	0.95
816.385	0.4329
826.216	0.779
836.046	0.601
845.877	0.6471
855.708	0.842
865.538	0.979
875.369	0.982
885.2	0.966
895.03	0.886
904.861	0.969
914.692	0.967
924.522	0.913
934.353	0.6439
944.184	0.502
954.015	0.267
963.845	0.6
973.676	0.85
983.507	0.889
993.337	0.745
1003.17	0.451
1013	0.4949
1022.83	0.248
1032.66	0.704
1042.49	0.931
1052.32	0.967
1062.15	0.967
1071.98	0.966
1081.81	0.947
1091.64	0.927
1101.47	0.881
1111.31	0.794
1121.14	0.6059
1130.97	0.2759
1140.8	0.017
1150.63	0.014
1160.46	0.049
1170.29	0.045
1180.12	0.042
1189.95	0.036
1199.78	0.016
1209.61	0.017
1219.44	0.072
1229.27	0.223
1239.1	0.294
1248.94	0.2009
1258.77	0.128
1268.6	0.203
1278.43	0.318
1288.26	0.229
1298.09	0.177
1307.92	0.127
1317.75	0.077
1327.58	0.013
1337.41	0.183
1347.24	0.098
1357.07	0.211
1366.9	0.4111
1376.73	0.573
1386.57	0.62
1396.4	0.617
1406.23	0.47
1416.06	0.498
1425.89	0.343
1435.72	0.419
1445.55	0.017
1455.38	0.22
1465.21	0.354
1475.04	0.553
1484.87	0.7
1494.7	0.772
1504.53	0.807
1514.36	0.838
1524.19	0.852
1534.03	0.859
1543.86	0.867
1553.69	0.868
1563.52	0.854
1573.35	0.85
1583.18	0.847
1593.01	0.84
1602.84	0.826
1612.67	0.815
1622.5	0.772
1632.33	0.657
1642.16	0.43
1651.99	0.359
1661.82	0.732
1671.66	0.752
1681.49	0.712
1691.32	0.617
1701.15	0.521
1710.98	0.362
1720.81	0.1099
1730.64	0
1740.47	0
1750.3	0
1760.13	0
1769.96	0.1471
1779.79	0.4341
1789.62	0.573
1799.45	0.649
1809.28	0.737
1819.12	0.795
1828.95	0.836
1838.78	0.863
1848.61	0.879
1858.44	0.893
1868.27	0.897
1878.1	0.894
1887.93	0.893
1897.76	0.882
1907.59	0.864
1917.42	0.859
1927.25	0.87
1937.08	0.891
1946.91	0.889
1956.75	0.89
1966.58	0.893
1976.41	0.893
1986.24	0.879
1996.07	0.874
2005.9	0.877
2015.73	0.891
2025.56	0.891
2035.39	0.885
2045.22	0.882
2055.05	0.8929
2064.88	0.9018
2074.71	0.903
2084.54	0.905
2094.37	0.905
2104.21	0.906
2114.04	0.9088
2123.87	0.913
2133.7	0.9168
2143.53	0.9149
2153.36	0.9207
2163.19	0.9229
2173.02	0.9268
2182.85	0.93
2192.68	0.9327
2202.51	0.931
2212.34	0.9308
2222.17	0.9326
2232	0.9338
2241.84	0.935
2251.67	0.937
2261.5	0.938
2271.33	0.933
2281.16	0.931
2290.99	0.93
2300.82	0.9337
2310.65	0.934
2320.48	0.9333
2330.31	0.9303
2340.14	0.929
2349.97	0.931
2359.8	0.9324
2369.63	0.933
2379.46	0.931
2389.3	0.9277
2399.13	0.926
2408.96	0.927
2418.79	0.929
2428.62	0.931
2438.45	0.931
2448.28	0.933
2458.11	0.934
2467.94	0.933
2477.77	0.9376
2487.6	0.935
2497.43	0.934
2507.26	0.934
2517.09	0.934
2526.93	0.934
2536.76	0.9334
2546.59	0.931
2556.42	0.933
2566.25	0.93
2576.08	0.93
2585.91	0.931
2595.74	0.933
2605.57	0.929
2615.4	0.931
2625.23	0.933
2635.06	0.9335
2644.89	0.9321
2654.72	0.9319
2664.56	0.934
2674.39	0.9359
2684.22	0.9374
2694.05	0.939
2703.88	0.941
2713.71	0.939
2723.54	0.939
2733.37	0.9398
2743.2	0.939
2753.03	0.939
2762.86	0.941
2772.69	0.939
2782.52	0.9377
2792.35	0.9357
2802.18	0.933
2812.02	0.9307
2821.85	0.9238
2831.68	0.9118
2841.51	0.8869
2851.34	0.7443
2861.17	0.7379
2871	0.8688
2880.83	0.867
2890.66	0.8377
2900.49	0.802
2910.32	0.7656
2920.15	0.7576
2929.98	0.7572
2939.81	0.6984
2949.65	0.635
2959.48	0.3898
2969.31	0.2463
2979.14	0.6487
2988.97	0.6953
2998.8	0.6425
3008.63	0.445
3018.46	0.5298
3028.29	0.621
3038.12	0.6202
3047.95	0.7262
3057.78	0.8178
3067.61	0.8667
3077.44	0.8901
3087.27	0.901
3097.11	0.902
3106.94	0.898
3116.77	0.8983
3126.6	0.9253
3136.43	0.9351
3146.26	0.938
3156.09	0.942
3165.92	0.943
3175.75	0.945
3185.58	0.946
3195.41	0.953
3205.24	0.959
3215.07	0.961
3224.9	0.961
3234.74	0.961
3244.57	0.961
3254.4	0.9611
3264.23	0.961
3274.06	0.958
3283.89	0.9551
3293.72	0.955
3303.55	0.9512
3313.38	0.9491
3323.21	0.949
3333.04	0.947
3342.87	0.945
3352.7	0.9393
3362.53	0.9353
3372.36	0.937
3382.2	0.9407
3392.03	0.939
3401.86	0.9372
3411.69	0.933
3421.52	0.9252
3431.35	0.9054
3441.18	0.899
3451.01	0.901
3460.84	0.898
3470.67	0.8932
3480.5	0.8948
3490.33	0.911
3500.16	0.9293
3509.99	0.9347
3519.83	0.9355
3529.66	0.9333
3539.49	0.929
3549.32	0.926
3559.15	0.923
3568.98	0.9244
3578.81	0.93
3588.64	0.9387
3598.47	0.9457
3608.3	0.949
3618.13	0.949
3627.96	0.947
3637.79	0.946
3647.62	0.946
3657.45	0.9454
3667.29	0.9424
3677.12	0.9384
3686.95	0.9344
3696.78	0.9373
3706.61	0.9586
3716.44	0.965
3726.27	0.967
3736.1	0.9681
3745.93	0.97
3755.76	0.971
3765.59	0.97
3775.42	0.971
3785.25	0.971
3795.08	0.973
