Infrared Spectrum: ETHYL DIBROMO ACETATE
Formula: C4 H6 Br2 O2
CAS: 617-33-4
State: SOLUTION (10% CCl4 FOR 2.5-7.5, 10% CS2 FOR 7.5-16 MICRON)
Class: COBLENTZ
Instrument: Not specified, most likely a prism, grating, or hybrid spectrometer.
Sampling: TRANSMISSION
Path length: 0.01 CM, 0.01 CM
Resolution: 4
Origin: DOW CHEMICAL COMPANY
MICROMETERS	TRANSMITTANCE
2	0.85
2.04006	0.85
2.08012	0.85
2.12019	0.852
2.16025	0.853
2.20031	0.853
2.24037	0.85
2.28043	0.853
2.32049	0.862
2.36056	0.863
2.40062	0.868
2.44068	0.873
2.48074	0.883
2.5208	0.888
2.56086	0.895
2.60093	0.897
2.64099	0.898
2.68105	0.898
2.72111	0.897
2.76117	0.895
2.80123	0.895
2.8413	0.872
2.88136	0.872
2.92142	0.875
2.96148	0.875
3.00154	0.875
3.0416	0.873
3.08167	0.873
3.12173	0.872
3.16179	0.875
3.20185	0.87
3.24191	0.858
3.28197	0.799
3.32204	0.669
3.3621	0.647
3.40216	0.794
3.44222	0.828
3.48228	0.873
3.52234	0.893
3.56241	0.901
3.60247	0.905
3.64253	0.911
3.68259	0.916
3.72265	0.92
3.76271	0.915
3.80278	0.921
3.84284	0.923
3.8829	0.925
3.92296	0.921
3.96302	0.925
4.00308	0.931
4.04315	0.941
4.08321	0.941
4.12327	0.94
4.16333	0.946
4.20339	0.95
4.24345	0.945
4.28352	0.933
4.32358	0.916
4.36364	0.926
4.4037	0.945
4.44376	0.95
4.48382	0.955
4.52389	0.958
4.56395	0.958
4.60401	0.958
4.64407	0.958
4.68413	0.955
4.72419	0.955
4.76426	0.955
4.80432	0.961
4.84438	0.961
4.88444	0.96
4.9245	0.958
4.96456	0.955
5.00463	0.955
5.04469	0.955
5.08475	0.955
5.12481	0.956
5.16487	0.956
5.20493	0.953
5.245	0.941
5.28506	0.935
5.32512	0.935
5.36518	0.925
5.40524	0.923
5.4453	0.916
5.48537	0.901
5.52543	0.89
5.56549	0.828
5.60555	0.657
5.64561	0.27
5.68567	0.132
5.72574	0.159
5.7658	0.137
5.80586	0.534
5.84592	0.752
5.88598	0.812
5.92604	0.875
5.96611	0.903
6.00617	0.905
6.04623	0.901
6.08629	0.903
6.12635	0.897
6.16641	0.862
6.20648	0.8
6.24654	0.72
6.2866	0.666
6.32666	0.641
6.36672	0.598
6.40678	0.513
6.44685	0.501
6.48691	0.573
6.52697	0.654
6.56703	0.699
6.60709	0.77
6.64715	0.822
6.68722	0.837
6.72728	0.762
6.76734	0.709
6.8074	0.724
6.84746	0.77
6.88752	0.725
6.92759	0.805
6.96765	0.832
7.00771	0.818
7.04777	0.815
7.08783	0.81
7.12789	0.752
7.16796	0.725
7.20802	0.78
7.24808	0.681
7.28814	0.591
7.3282	0.87
7.36826	0.877
7.40833	0.868
7.44839	0.852
7.48845	0.822
7.52851	0.775
7.56857	0.7
7.60863	0.596
7.6487	0.411
7.68876	0.362
7.72882	0.335
7.76888	0.214
7.80894	0.109
7.849	0.083
7.88907	0.081
7.92913	0.099
7.96919	0.317
8.00925	0.596
8.04931	0.691
8.08937	0.742
8.12944	0.765
8.1695	0.76
8.20956	0.719
8.24962	0.656
8.28968	0.626
8.32974	0.652
8.36981	0.705
8.40987	0.717
8.44993	0.672
8.48999	0.584
8.53005	0.553
8.57011	0.541
8.61018	0.441
8.65024	0.33
8.6903	0.22
8.73036	0.174
8.77042	0.149
8.81048	0.184
8.85055	0.31
8.89061	0.493
8.93067	0.566
8.97073	0.594
9.01079	0.627
9.05085	0.666
9.09092	0.686
9.13098	0.681
9.17104	0.735
9.2111	0.828
9.25116	0.865
9.29122	0.883
9.33129	0.888
9.37135	0.888
9.41141	0.883
9.45147	0.875
9.49153	0.853
9.53159	0.817
9.57166	0.772
9.61172	0.674
9.65178	0.503
9.69184	0.325
9.7319	0.284
9.77196	0.31
9.81203	0.436
9.85209	0.561
9.89215	0.712
9.93221	0.805
9.97227	0.853
10.0123	0.888
10.0524	0.91
10.0925	0.921
10.1325	0.935
10.1726	0.945
10.2126	0.955
10.2527	0.96
10.2928	0.958
10.3328	0.955
10.3729	0.946
10.413	0.926
10.453	0.898
10.4931	0.878
10.5331	0.863
10.5732	0.867
10.6133	0.882
10.6533	0.89
10.6934	0.888
10.7334	0.875
10.7735	0.877
10.8136	0.9
10.8536	0.916
10.8937	0.92
10.9338	0.921
10.9738	0.926
11.0139	0.925
11.0539	0.925
11.094	0.918
11.1341	0.91
11.1741	0.906
11.2142	0.898
11.2542	0.875
11.2943	0.858
11.3344	0.838
11.3744	0.825
11.4145	0.794
11.4546	0.769
11.4946	0.714
11.5347	0.642
11.5747	0.583
11.6148	0.576
11.6549	0.604
11.6949	0.657
11.735	0.705
11.775	0.747
11.8151	0.797
11.8552	0.82
11.8952	0.845
11.9353	0.863
11.9754	0.878
12.0154	0.885
12.0555	0.89
12.0955	0.897
12.1356	0.897
12.1757	0.897
12.2157	0.89
12.2558	0.877
12.2958	0.86
12.3359	0.85
12.376	0.845
12.416	0.84
12.4561	0.835
12.4962	0.83
12.5362	0.815
12.5763	0.797
12.6163	0.769
12.6564	0.729
12.6965	0.715
12.7365	0.714
12.7766	0.72
12.8167	0.739
12.8567	0.757
12.8968	0.779
12.9368	0.795
12.9769	0.807
13.017	0.815
13.057	0.82
13.0971	0.822
13.1371	0.825
13.1772	0.827
13.2173	0.827
13.2573	0.825
13.2974	0.82
13.3375	0.817
13.3775	0.812
13.4176	0.808
13.4576	0.803
13.4977	0.795
13.5378	0.787
13.5778	0.779
13.6179	0.767
13.6579	0.755
13.698	0.744
13.7381	0.729
13.7781	0.71
13.8182	0.696
13.8583	0.684
13.8983	0.657
13.9384	0.636
13.9784	0.609
14.0185	0.573
14.0586	0.544
14.0986	0.518
14.1387	0.496
14.1787	0.486
14.2188	0.483
14.2589	0.483
14.2989	0.485
14.339	0.49
14.3791	0.496
14.4191	0.506
14.4592	0.523
14.4992	0.536
14.5393	0.549
14.5794	0.559
14.6194	0.563
14.6595	0.564
14.6995	0.564
14.7396	0.564
14.7797	0.558
14.8197	0.554
14.8598	0.548
14.8999	0.546
14.9399	0.543
14.98	0.534
15.02	0.516
15.0601	0.501
15.1002	0.486
15.1402	0.481
15.1803	0.476
15.2204	0.471
15.2604	0.463
15.3005	0.456
15.3405	0.453
15.3806	0.446
15.4207	0.446
15.4607	0.443
15.5008	0.44
15.5408	0.436
15.5809	0.433
15.621	0.433
15.661	0.431
15.7011	0.428
15.7412	0.428
15.7812	0.426
15.8213	0.426
15.8613	0.426
15.9014	0.426
