Infrared Spectrum: Tetraethyl ethenetetracarboxylate
Formula: C 14 H 20 O 8
CAS: 6174-95-4
State: solid
Instrument: Bruker Tensor 37 FTIR
Resolution: 0.96450084
Origin: Pacific Northwest National Laboratory Under IARPA Contract
1/cm	Reflectance
7498.99	0.478587
7481.63	0.437427
7464.27	0.380291
7446.91	0.316989
7429.55	0.309091
7412.19	0.305791
7394.84	0.276282
7377.48	0.281409
7360.12	0.267144
7342.76	0.289435
7325.4	0.303552
7308.04	0.309798
7290.68	0.32752
7273.32	0.354954
7255.96	0.350502
7238.6	0.354231
7221.24	0.374163
7203.88	0.396007
7186.52	0.403802
7169.16	0.416046
7151.8	0.423939
7134.44	0.431089
7117.08	0.437462
7099.72	0.455148
7082.36	0.453932
7065	0.456238
7047.64	0.461621
7030.28	0.47949
7012.92	0.482204
6995.56	0.482664
6978.2	0.478951
6960.84	0.473251
6943.48	0.470198
6926.12	0.469289
6908.76	0.467672
6891.4	0.463373
6874.04	0.447927
6856.68	0.409783
6839.32	0.393899
6821.96	0.382942
6804.6	0.366199
6787.24	0.341407
6769.88	0.278541
6752.52	0.166274
6735.16	0.0823264
6717.8	0.103429
6700.44	0.119112
6683.08	0.115348
6665.72	0.0910809
6648.36	0.109105
6631	0.136762
6613.64	0.175458
6596.28	0.149284
6578.92	0.196599
6561.56	0.224286
6544.2	0.20913
6526.85	0.219313
6509.49	0.209608
6492.13	0.229934
6474.77	0.262595
6457.41	0.281945
6440.05	0.293323
6422.69	0.287817
6405.33	0.273399
6387.97	0.270258
6370.61	0.253942
6353.25	0.250505
6335.89	0.188622
6318.53	0.159995
6301.17	0.22056
6283.81	0.250895
6266.45	0.252457
6249.09	0.240126
6231.73	0.23997
6214.37	0.228899
6197.01	0.208093
6179.65	0.221853
6162.29	0.222032
6144.93	0.212661
6127.57	0.15521
6110.21	0.0812812
6092.85	0.12106
6075.49	0.10331
6058.13	0.130314
6040.77	0.13392
6023.41	0.12167
6006.05	0.0969294
5988.69	0.0544661
5971.33	0.0450809
5953.97	0.0457059
5936.61	0.0479558
5919.25	0.0426061
5901.89	0.0477579
5884.53	0.0443245
5867.17	0.0482226
5849.81	0.0498172
5832.45	0.0480457
5815.09	0.0478422
5797.73	0.047921
5780.37	0.0491205
5763.01	0.0513529
5745.65	0.0655626
5728.29	0.0777556
5710.93	0.0986868
5693.57	0.0942759
5676.21	0.0775948
5658.86	0.0931109
5641.5	0.077251
5624.14	0.0939092
5606.78	0.124037
5589.42	0.136757
5572.06	0.124582
5554.7	0.0921115
5537.34	0.0861761
5519.98	0.0794505
5502.62	0.0652645
5485.26	0.0390683
5467.9	0.0377753
5450.54	0.0468693
5433.18	0.0492174
5415.82	0.0567996
5398.46	0.0596791
5381.1	0.0526845
5363.74	0.0426734
5346.38	0.0419459
5329.02	0.0404217
5311.66	0.0390335
5294.3	0.0383782
5276.94	0.0373442
5259.58	0.0349597
5242.22	0.0355799
5224.86	0.0354615
5207.5	0.0356301
5190.14	0.0356878
5172.78	0.0363264
5155.42	0.0382416
5138.06	0.0401718
5120.7	0.0395453
5103.34	0.0485993
5085.98	0.054002
5068.62	0.0448588
5051.26	0.0415058
5033.9	0.0452417
5016.54	0.038258
4999.18	0.0388316
4981.82	0.0420858
4964.46	0.0417869
4947.1	0.0396768
4929.74	0.0389352
4912.38	0.0393276
4895.02	0.0394676
4877.66	0.0378773
4860.3	0.0386639
4842.94	0.0498865
4825.58	0.0382237
4808.22	0.035221
4790.86	0.0371925
4773.51	0.041257
4756.15	0.0452133
4738.79	0.037027
4721.43	0.0401722
4704.07	0.0332604
4686.71	0.0312614
4669.35	0.0305753
4651.99	0.0280547
4634.63	0.0243487
4617.27	0.103346
4599.91	0.0428263
4582.55	0.0365214
4565.19	0.0348378
4547.83	0.0337397
4530.47	0.032192
4513.11	0.0312203
4495.75	0.0284396
4478.39	0.0275728
4461.03	0.0285141
4443.67	0.0263844
4426.31	0.0279131
4408.95	0.0240894
4391.59	0.0698998
4374.23	0.118947
4356.87	0.0539598
4339.51	0.0428196
4322.15	0.0411032
4304.79	0.0367804
4287.43	0.0343767
4270.07	0.0344886
4252.71	0.0463558
4235.35	0.0404326
4217.99	0.0388983
4200.63	0.0366735
4183.27	0.0297471
4165.91	0.0358339
4148.55	0.0363066
4131.19	0.0378891
4113.83	0.0339892
4096.47	0.0401026
4079.11	0.0393997
4061.75	0.03829
4044.39	0.478829
4027.03	0.429321
4009.67	0.351125
3992.31	0.286331
3974.95	0.305393
3957.59	0.282849
3940.23	0.265421
3922.87	0.263144
3905.52	0.274627
3888.16	0.294297
3870.8	0.308977
3853.44	0.297468
3836.08	0.326867
3818.72	0.349722
3801.36	0.348606
3784	0.356894
3766.64	0.378225
3749.28	0.391793
3731.92	0.399318
3714.56	0.408259
3697.2	0.419976
3679.84	0.433349
3662.48	0.43993
3645.12	0.452866
3627.76	0.446071
3610.4	0.451007
3593.04	0.462626
3575.68	0.476141
3558.32	0.479686
3540.96	0.477638
3523.6	0.468521
3506.24	0.46976
3488.88	0.463733
3471.52	0.466149
3454.16	0.460892
3436.8	0.455277
3419.44	0.429447
3402.08	0.398372
3384.72	0.384864
3367.36	0.373203
3350	0.354977
3332.64	0.320353
3315.28	0.229976
3297.92	0.118588
3280.56	0.0759907
3263.2	0.084763
3245.84	0.117772
3228.48	0.102709
3211.12	0.0929395
3193.76	0.109483
3176.4	0.154388
3159.04	0.166194
3141.68	0.151092
3124.32	0.206179
3106.96	0.218949
3089.6	0.194661
3072.24	0.20911
3054.88	0.206066
3037.53	0.234377
3020.17	0.259701
3002.81	0.278925
2985.45	0.283085
2968.09	0.279202
2950.73	0.270821
2933.37	0.264653
2916.01	0.246424
2898.65	0.232661
2881.29	0.169298
2863.93	0.184522
2846.57	0.228441
2829.21	0.242756
2811.85	0.239924
2794.49	0.236005
2777.13	0.22987
2759.77	0.216691
2742.41	0.207562
2725.05	0.213722
2707.69	0.213013
2690.33	0.195801
2672.97	0.112408
2655.61	0.0931207
2638.25	0.111525
2620.89	0.113428
2603.53	0.127724
2586.17	0.124363
2568.81	0.11167
2551.45	0.0842025
2534.09	0.0490139
2516.73	0.043901
2499.37	0.0478457
2482.01	0.0436795
2464.65	0.0412397
2447.29	0.0454527
2429.93	0.0414144
2412.57	0.0520239
2395.21	0.0446431
2377.85	0.0430316
2360.49	0.0433361
2343.13	0.0453233
2325.77	0.0515215
2308.41	0.0528507
2291.05	0.0644082
2273.69	0.0810728
2256.33	0.0992439
2238.97	0.0870189
2221.61	0.0805666
2204.25	0.0823507
2186.89	0.0898522
2169.53	0.0977712
2152.18	0.121549
2134.82	0.131741
2117.46	0.114031
2100.1	0.0873268
2082.74	0.0820651
2065.38	0.0723585
2048.02	0.0560838
2030.66	0.0356187
2013.3	0.0395365
1995.94	0.0428487
1978.58	0.0501159
1961.22	0.0555742
1943.86	0.0571557
1926.5	0.0468397
1909.14	0.040419
1891.78	0.0398228
1874.42	0.0386067
1857.06	0.0374203
1839.7	0.0367359
1822.34	0.0350203
1804.98	0.0337303
1787.62	0.0346845
1770.26	0.0345828
1752.9	0.0342908
1735.54	0.0347095
1718.18	0.0354728
1700.82	0.03985
1683.46	0.0385352
1666.1	0.0393721
1648.74	0.0461147
1631.38	0.0487386
1614.02	0.0413174
1596.66	0.0403354
1579.3	0.0397992
1561.94	0.036607
1544.58	0.0394766
1527.22	0.042036
1509.86	0.0408258
1492.5	0.0362995
1475.14	0.038451
1457.78	0.0383089
1440.42	0.0373882
1423.06	0.0366873
1405.7	0.0418994
1388.34	0.0464964
1370.98	0.0363971
1353.62	0.0363334
1336.26	0.0366947
1318.9	0.0375666
1301.54	0.042627
1284.19	0.0359655
1266.83	0.0393106
1249.47	0.0314055
1232.11	0.0304557
1214.75	0.0292343
1197.39	0.0269215
1180.03	0.0274183
1162.67	0.0727262
1145.31	0.0389081
1127.95	0.0349114
1110.59	0.0335104
1093.23	0.0323299
1075.87	0.0314446
1058.51	0.0298206
1041.15	0.0302131
1023.79	0.0305623
1006.43	0.0272481
989.068	0.0258338
971.709	0.0254196
954.349	0.0261492
936.989	0.0828198
919.629	0.0720133
902.269	0.0468197
884.91	0.0410148
867.55	0.0378921
850.19	0.0341354
832.83	0.0322187
815.47	0.0540109
798.111	0.0407484
780.751	0.0386332
763.391	0.0385841
746.031	0.0353908
728.671	0.0409601
711.312	0.0346366
693.952	0.0341576
676.592	0.0388988
659.232	0.0400306
641.872	0.0422499
624.513	0.0409131
607.153	0.0360151
