Infrared Spectrum: BENZOYL IODIDE
Formula: C7 H5 I O
CAS: 618-38-2
State: SOLUTION (10% CCl4 FOR 4000-1330, 10% CS2 FOR 1330-450 CM^-^1)
Class: COBLENTZ III
Instrument: DOW KBr FOREPRISM-GRATING
Instrument parameters: BLAZED AT 3.5, 12.0, 20.0 MICRON AND CHANGED AT 5.0, 7.5, 14.9 MICRON
Sampling: TRANSMISSION
Path length: 0.011 CM, 0.012 CM
Resolution: 2
Origin: DOW CHEMICAL COMPANY
1/CM	TRANSMITTANCE
452	0.8348
461	0.8432
470	0.8518
479	0.8604
488	0.869
497	0.8755
506	0.8805
515	0.8825
524	0.8839
533	0.8771
542	0.8712
551	0.8766
560	0.8786
569	0.8715
578	0.8606
587	0.8297
596	0.7511
605	0.2332
614	0.2609
623	0.7311
632	0.6674
641	0.0316
650	0.4788
659	0.6841
668	0.6337
677	0.2316
686	0.5891
695	0.7362
704	0.8038
713	0.8328
722	0.8546
731	0.8554
740	0.8506
749	0.8266
758	0.4586
767	0.6345
776	0.7884
785	0.7534
794	0.5833
803	0.6306
812	0.5021
821	0.2219
830	0.0066
839	0.0366
848	0.4976
857	0.6028
866	0.6097
875	0.5069
884	0.6565
893	0.8354
902	0.8657
911	0.8661
920	0.8541
929	0.78
938	0.8668
947	0.8881
956	0.8878
965	0.873
974	0.8767
983	0.8674
992	0.8411
1001	0.6947
1010	0.8428
1019	0.8598
1028	0.7536
1037	0.889
1046	0.8899
1055	0.882
1064	0.842
1073	0.8433
1082	0.8611
1091	0.8457
1100	0.7744
1109	0.8764
1118	0.8707
1127	0.8593
1136	0.7955
1145	0.6611
1154	0.3244
1163	0.0065
1172	0.1342
1181	0.5855
1190	0.0461
1199	0.7338
1208	0.6414
1217	0.8188
1226	0.8602
1235	0.8363
1244	0.8668
1253	0.8766
1262	0.875
1271	0.8595
1280	0.842
1289	0.819
1298	0.8165
1307	0.7214
1316	0.539
1325	0.8468
1334	0.8284
1343	0.8625
1352	0.8924
1361	0.9018
1370	0.8903
1379	0.8721
1388	0.8436
1397	0.8757
1406	0.8656
1415	0.8362
1424	0.8513
1433	0.8464
1442	0.6465
1451	0.2871
1460	0.8497
1469	0.8498
1478	0.8211
1487	0.7943
1496	0.7683
1505	0.7419
1514	0.6771
1523	0.6177
1532	0.5628
1541	0.4568
1550	0.4474
1559	0.5106
1568	0.5449
1577	0.4495
1586	0.5412
1595	0.4477
1604	0.7341
1613	0.7955
1622	0.8371
1631	0.8448
1640	0.8498
1649	0.8207
1658	0.7394
1667	0.6955
1676	0.7526
1685	0.74
1694	0.6496
1703	0.6837
1712	0.7062
1721	0.6634
1730	0.6404
1739	0.4875
1748	0.0713
1757	0.0137
1766	0.0148
1775	0.082
1784	0.3907
1793	0.6574
1802	0.6878
1811	0.6701
1820	0.7772
1829	0.8206
1838	0.8294
1847	0.8586
1856	0.8633
1865	0.8656
1874	0.8692
1883	0.8699
1892	0.8604
1901	0.8411
1910	0.8474
1919	0.8577
1928	0.8596
1937	0.877
1946	0.8773
1955	0.8701
1964	0.8313
1973	0.86
1982	0.842
1991	0.8165
2000	0.8115
2009	0.8528
2018	0.853
2027	0.866
2036	0.8704
2045	0.871
2054	0.8715
2063	0.8724
2072	0.8731
2081	0.8734
2090	0.8736
2099	0.874
2108	0.8744
2117	0.8749
2126	0.8762
2135	0.878
2144	0.8788
2153	0.8782
2162	0.8788
2171	0.8793
2180	0.8798
2189	0.879
2198	0.878
2207	0.8767
2216	0.8751
2225	0.8731
2234	0.8701
2243	0.8668
2252	0.8635
2261	0.8608
2270	0.8583
2279	0.8551
2288	0.853
2297	0.8554
2306	0.849
2315	0.8371
2324	0.8273
2333	0.8602
2342	0.8518
2351	0.862
2360	0.8659
2369	0.8677
2378	0.8736
2387	0.8728
2396	0.8728
2405	0.8741
2414	0.875
2423	0.8755
2432	0.8755
2441	0.8752
2450	0.875
2459	0.875
2468	0.8751
2477	0.875
2486	0.8744
2495	0.8737
2504	0.8733
2513	0.873
2522	0.8727
2531	0.8717
2540	0.8711
2549	0.873
2558	0.8754
2567	0.8718
2576	0.864
2585	0.8565
2594	0.8527
2603	0.8584
2612	0.8691
2621	0.8696
2630	0.8686
2639	0.8684
2648	0.8686
2657	0.8692
2666	0.8704
2675	0.8732
2684	0.8775
2693	0.8785
2702	0.8784
2711	0.8778
2720	0.877
2729	0.8736
2738	0.8659
2747	0.8525
2756	0.8618
2765	0.871
2774	0.8708
2783	0.8711
2792	0.8712
2801	0.8711
2810	0.8711
2819	0.8704
2828	0.8697
2837	0.8688
2846	0.8678
2855	0.867
2864	0.8664
2873	0.866
2882	0.8657
2891	0.8643
2900	0.8616
2909	0.8557
2918	0.8528
2927	0.8613
2936	0.8705
2945	0.8711
2954	0.8714
2963	0.8728
2972	0.8737
2981	0.8716
2990	0.869
2999	0.8644
3008	0.8606
3017	0.857
3026	0.8525
3035	0.8474
3044	0.8411
3053	0.8178
3062	0.7492
3071	0.6964
3080	0.7964
3089	0.8161
3098	0.8501
3107	0.88
3116	0.8881
3125	0.8908
3134	0.8924
3143	0.8941
3152	0.8939
3161	0.8925
3170	0.8932
3179	0.8964
3188	0.8999
3197	0.9033
3206	0.9057
3215	0.9075
3224	0.909
3233	0.9101
3242	0.9113
3251	0.9123
3260	0.9131
3269	0.9139
3278	0.9146
3287	0.9152
3296	0.9155
3305	0.9154
3314	0.9151
3323	0.9132
3332	0.9115
3341	0.9099
3350	0.9083
3359	0.9078
3368	0.9125
3377	0.916
3386	0.9171
3395	0.9162
3404	0.9135
3413	0.9106
3422	0.9063
3431	0.9012
3440	0.8971
3449	0.897
3458	0.8971
3467	0.8927
3476	0.8848
3485	0.8745
3494	0.8628
3503	0.8518
3512	0.848
3521	0.8583
3530	0.8749
3539	0.8847
3548	0.8925
3557	0.8975
3566	0.8996
3575	0.9002
3584	0.9
3593	0.8997
3602	0.8994
3611	0.8988
3620	0.8982
3629	0.8973
3638	0.896
3647	0.8948
3656	0.8955
3665	0.8993
3674	0.9014
3683	0.9004
3692	0.8981
3701	0.896
3710	0.8959
3719	0.8958
3728	0.8958
3737	0.8956
3746	0.8957
3755	0.8944
3764	0.8968
3773	0.8925
3782	0.9204
3791	0.7951
