Infrared Spectrum: N,N-DIMETHYL-m-NITRO ANILINE
Formula: C8 H10 N2 O2
CAS: 619-31-8
State: SOLID (MINERAL OIL MULL)
Melting point: 60 C
Class: COBLENTZ
Instrument: Not specified, most likely a prism, grating, or hybrid spectrometer.
Sampling: TRANSMISSION
Resolution: 4
Origin: WYANDOTTE CHEMICALS CORP., WYANDOTTE, MICHIGAN, USA
MICROMETERS	TRANSMITTANCE
2.034	0.441
2.07494	0.443
2.11587	0.444
2.15681	0.441
2.19774	0.429
2.23868	0.421
2.27961	0.419
2.32055	0.422
2.36148	0.436
2.40242	0.438
2.44335	0.421
2.48429	0.441
2.52523	0.453
2.56616	0.458
2.6071	0.46
2.64803	0.46
2.68897	0.46
2.7299	0.446
2.77084	0.439
2.81177	0.434
2.85271	0.427
2.89365	0.426
2.93458	0.424
2.97552	0.421
3.01645	0.424
3.05739	0.424
3.09832	0.402
3.13926	0.393
3.18019	0.365
3.22113	0.329
3.26206	0.319
3.303	0.207
3.34394	0.066
3.38487	0.059
3.42581	0.061
3.46674	0.061
3.50768	0.135
3.54861	0.28
3.58955	0.385
3.63048	0.458
3.67142	0.448
3.71235	0.449
3.75329	0.461
3.79423	0.494
3.83516	0.505
3.8761	0.516
3.91703	0.526
3.95797	0.538
3.9989	0.551
4.03984	0.561
4.08077	0.55
4.12171	0.531
4.16265	0.563
4.20358	0.561
4.24452	0.521
4.28545	0.567
4.32639	0.609
4.36732	0.628
4.40826	0.597
4.44919	0.604
4.49013	0.619
4.53106	0.621
4.572	0.621
4.61294	0.623
4.65387	0.638
4.69481	0.643
4.73574	0.655
4.77668	0.674
4.81761	0.684
4.85855	0.689
4.89948	0.694
4.94042	0.701
4.98135	0.704
5.02229	0.721
5.06323	0.726
5.10416	0.728
5.1451	0.74
5.18603	0.692
5.22697	0.738
5.2679	0.755
5.30884	0.775
5.34977	0.777
5.39071	0.782
5.43165	0.779
5.47258	0.828
5.51352	0.831
5.55445	0.847
5.59539	0.881
5.63632	0.848
5.67726	0.867
5.71819	0.901
5.75913	0.899
5.80006	0.95
5.841	0.945
5.88194	0.949
5.92287	1.016
5.96381	0.952
6.00474	0.933
6.04568	0.724
6.08661	0.458
6.12755	0.264
6.16848	0.487
6.20942	0.847
6.25035	0.853
6.29129	0.456
6.33223	0.494
6.37316	0.46
6.4141	0.283
6.45503	0.115
6.49597	0.088
6.5369	0.103
6.57784	0.117
6.61877	0.132
6.65971	0.142
6.70065	0.127
6.74158	0.105
6.78252	0.074
6.82345	0.096
6.86439	0.096
6.90532	0.157
6.94626	0.327
6.98719	0.446
7.02813	0.331
7.06906	0.494
7.11	0.572
7.15094	0.601
7.19187	0.417
7.23281	0.224
7.27374	0.185
7.31468	0.098
7.35561	0.089
7.39655	0.083
7.43748	0.083
7.47842	0.088
7.51935	0.115
7.56029	0.139
7.60123	0.161
7.64216	0.196
7.6831	0.212
7.72403	0.259
7.76497	0.275
7.8059	0.28
7.84684	0.308
7.88777	0.344
7.92871	0.341
7.96965	0.307
8.01058	0.251
8.05152	0.144
8.09245	0.1
8.13339	0.164
8.17432	0.232
8.21526	0.275
8.25619	0.31
8.29713	0.353
8.33806	0.359
8.379	0.324
8.41994	0.3
8.46087	0.365
8.50181	0.375
8.54274	0.327
8.58368	0.348
8.62461	0.397
8.66555	0.417
8.70648	0.444
8.74742	0.458
8.78835	0.463
8.82929	0.465
8.87023	0.444
8.91116	0.451
8.9521	0.47
8.99303	0.432
9.03397	0.307
9.0749	0.424
9.11584	0.477
9.15677	0.497
9.19771	0.443
9.23865	0.446
9.27958	0.426
9.32052	0.307
9.36145	0.219
9.40239	0.3
9.44332	0.405
9.48426	0.465
9.52519	0.504
9.56613	0.517
9.60706	0.55
9.648	0.57
9.68894	0.585
9.72987	0.602
9.77081	0.621
9.81174	0.646
9.85268	0.682
9.89361	0.713
9.93455	0.716
9.97548	0.548
10.0164	0.32
10.0574	0.268
10.0983	0.339
10.1392	0.409
10.1802	0.468
10.2211	0.507
10.262	0.485
10.303	0.4
10.3439	0.397
10.3848	0.458
10.4258	0.499
10.4667	0.528
10.5076	0.551
10.5486	0.567
10.5895	0.578
10.6305	0.592
10.6714	0.597
10.7123	0.611
10.7533	0.614
10.7942	0.626
10.8351	0.646
10.8761	0.651
10.917	0.67
10.9579	0.689
10.9989	0.699
11.0398	0.709
11.0807	0.719
11.1217	0.733
11.1626	0.733
11.2035	0.709
11.2445	0.634
11.2854	0.779
11.3264	0.78
11.3673	0.5
11.4082	0.176
11.4492	0.234
11.4901	0.371
11.531	0.453
11.572	0.494
11.6129	0.504
11.6538	0.5
11.6948	0.485
11.7357	0.438
11.7766	0.336
11.8176	0.203
11.8585	0.11
11.8995	0.261
11.9404	0.483
11.9813	0.58
12.0223	0.665
12.0632	0.694
12.1041	0.713
12.1451	0.723
12.186	0.728
12.2269	0.74
12.2679	0.735
12.3088	0.745
12.3497	0.748
12.3907	0.741
12.4316	0.753
12.4725	0.752
12.5135	0.747
12.5544	0.736
12.5954	0.726
12.6363	0.682
12.6772	0.528
12.7182	0.247
12.7591	0.183
12.8	0.302
12.841	0.561
12.8819	0.471
12.9228	0.278
12.9638	0.28
13.0047	0.398
13.0456	0.455
13.0866	0.499
13.1275	0.517
13.1685	0.516
13.2094	0.517
13.2503	0.49
13.2913	0.465
13.3322	0.402
13.3731	0.341
13.4141	0.266
13.455	0.185
13.4959	0.101
13.5369	0.064
13.5778	0.078
13.6187	0.147
13.6597	0.244
13.7006	0.351
13.7415	0.427
13.7825	0.494
13.8234	0.539
13.8644	0.575
13.9053	0.621
13.9462	0.655
13.9872	0.701
14.0281	0.73
14.069	0.748
14.11	0.76
14.1509	0.772
14.1918	0.782
14.2328	0.794
14.2737	0.797
14.3146	0.799
14.3556	0.801
14.3965	0.799
14.4375	0.796
14.4784	0.789
14.5193	0.782
14.5603	0.775
14.6012	0.762
14.6421	0.743
14.6831	0.723
14.724	0.691
14.7649	0.631
14.8059	0.558
14.8468	0.461
14.8877	0.356
14.9287	0.302
14.9696	0.288
15.0105	0.312
15.0515	0.331
15.0924	0.346
15.1334	0.392
15.1743	0.497
15.2152	0.575
15.2562	0.601
15.2971	0.612
15.338	0.619
15.379	0.624
15.4199	0.626
15.4608	0.621
15.5018	0.609
15.5427	0.616
15.5836	0.614
15.6246	0.607
15.6655	0.604
15.7065	0.592
15.7474	0.578
15.7883	0.57
15.8293	0.555
15.8702	0.541
15.9111	0.536
15.9521	0.517
15.993	0.517
