Infrared Spectrum: Cinnamic acid, p-nitro-,
Formula: C9 H7 N O4
CAS: 619-89-6
State: SOLID (OIL MULL)
Melting point: 286 C (DECOMP.)
Class: COBLENTZ III
Instrument: BAIRD (GRATING)
Instrument parameters: NaCl PRISM
Path length: CAPILLARY
Resolution: 2
Origin: WYANDOTTE CHEMICALS CORP.
1/CM	TRANSMITTANCE
625	0.3695
634	0.4841
643	0.5403
652	0.7441
661	0.7092
670	0.6258
679	0.9039
688	0.9299
697	0.8203
706	0.2494
715	0.169
724	0.8434
733	0.9447
742	0.9841
751	0.9283
760	0.3743
769	0.9354
778	0.9563
787	0.9478
796	0.9219
805	0.8637
814	0.7655
823	0.5058
832	0.3463
841	0.1167
850	0.2842
859	0.4631
868	0.3413
877	0.6437
886	0.6433
895	0.5486
904	0.3719
913	0.2018
922	0.223
931	0.398
940	0.5287
949	0.5778
958	0.1528
967	0.5857
976	0.5254
985	0.0865
994	0.5175
1003	0.6464
1012	0.6063
1021	0.6538
1030	0.663
1039	0.6771
1048	0.6916
1057	0.685
1066	0.6688
1075	0.6498
1084	0.6664
1093	0.6759
1102	0.6077
1111	0.3922
1120	0.3598
1129	0.6471
1138	0.611
1147	0.5761
1156	0.5366
1165	0.5055
1174	0.4066
1183	0.303
1192	0.4184
1201	0.2918
1210	0.1617
1219	0.2259
1228	0.1061
1237	0.2713
1246	0.4096
1255	0.3464
1264	0.1939
1273	0.1604
1282	0.039
1291	0.0703
1300	0.0427
1309	0.0105
1318	0.0229
1327	0.0232
1336	0.0078
1345	0.0075
1354	0.0396
1363	0.2466
1372	0.2754
1381	0.3143
1390	0.424
1399	0.4202
1408	0.3081
1417	0.2466
1426	0.0412
1435	0.0853
1444	0.1861
1453	0.1342
1462	0.0899
1471	0.1191
1480	0.2713
1489	0.2834
1498	0.151
1507	0.1896
1516	0.0647
1525	0.0206
1534	0.0407
1543	0.2594
1552	0.4756
1561	0.4922
1570	0.451
1579	0.4086
1588	0.2631
1597	0.0986
1606	0.0678
1615	0.09
1624	0.017
1633	0.0084
1642	0.1641
1651	0.1862
1660	0.0805
1669	0.02
1678	0.0168
1687	0.0239
1696	0.0425
1705	0.0934
1714	0.7201
1723	0.7784
1732	0.9335
1741	0.9756
1750	0.9849
1759	0.9897
1768	0.9847
1777	0.9711
1786	0.9625
1795	0.9723
1804	0.9701
1813	0.9625
1822	0.9518
1831	0.936
1840	0.9317
1849	0.9314
1858	0.9315
1867	0.931
1876	0.9287
1885	0.9239
1894	0.9168
1903	0.9029
1912	0.9027
1921	0.9063
1930	0.906
1939	0.9047
1948	0.9021
1957	0.898
1966	0.8939
1975	0.8895
1984	0.8845
1993	0.8796
2002	0.8747
2011	0.8697
2020	0.8638
2029	0.8579
2038	0.852
2047	0.8462
2056	0.8405
2065	0.8348
2074	0.8292
2083	0.8236
2092	0.818
2101	0.8124
2110	0.8058
2119	0.799
2128	0.7923
2137	0.7858
2146	0.7796
2155	0.7736
2164	0.7675
2173	0.7615
2182	0.7556
2191	0.7498
2200	0.7441
2209	0.7384
2218	0.7328
2227	0.7273
2236	0.7217
2245	0.7164
2254	0.7136
2263	0.7112
2272	0.7092
2281	0.6978
2290	0.684
2299	0.6714
2308	0.6589
2317	0.6457
2326	0.6325
2335	0.6202
2344	0.6117
2353	0.6034
2362	0.5951
2371	0.587
2380	0.5796
2389	0.576
2398	0.5728
2407	0.5705
2416	0.5665
2425	0.5599
2434	0.5482
2443	0.5337
2452	0.5156
2461	0.5071
2470	0.4992
2479	0.4925
2488	0.4887
2497	0.4863
2506	0.4839
2515	0.482
2524	0.4785
2533	0.4662
2542	0.4672
2551	0.4683
2560	0.4695
2569	0.4704
2578	0.4698
2587	0.4667
2596	0.4607
2605	0.4528
2614	0.4475
2623	0.4433
2632	0.4405
2641	0.4397
2650	0.4407
2659	0.4419
2668	0.4461
2677	0.4503
2686	0.4555
2695	0.4604
2704	0.4599
2713	0.4563
2722	0.4514
2731	0.4382
2740	0.4192
2749	0.3996
2758	0.3718
2767	0.3461
2776	0.2853
2785	0.2049
2794	0.1251
2803	0.0542
2812	0.0506
2821	0.062
2830	0.0646
2839	0.062
2848	0.0474
2857	0.0314
2866	0.0246
2875	0.0197
2884	0.017
2893	0.0158
2902	0.0163
2911	0.017
2920	0.0204
2929	0.0744
2938	0.1319
2947	0.1891
2956	0.2438
2965	0.2836
2974	0.3074
2983	0.3271
2992	0.3529
3001	0.3681
3010	0.3822
3019	0.3961
3028	0.4086
3037	0.4181
3046	0.4274
3055	0.4352
3064	0.4421
3073	0.4643
3082	0.4991
3091	0.5051
3100	0.5109
3109	0.5152
3118	0.5184
3127	0.5216
3136	0.5243
3145	0.5265
3154	0.5287
3163	0.531
3172	0.534
3181	0.537
3190	0.5383
3199	0.5361
3208	0.5328
3217	0.5282
3226	0.5238
3235	0.5215
3244	0.5193
3253	0.5188
3262	0.5188
3271	0.5188
3280	0.5188
3289	0.5188
3298	0.5188
3307	0.5195
3316	0.52
3325	0.5205
3334	0.521
3343	0.5215
3352	0.5228
3361	0.5244
3370	0.5259
3379	0.5274
3388	0.5289
3397	0.5304
3406	0.5323
3415	0.5342
3424	0.536
3433	0.5374
3442	0.5377
3451	0.538
3460	0.5382
3469	0.5385
3478	0.5388
3487	0.5391
3496	0.5404
3505	0.5421
3514	0.5437
3523	0.5446
3532	0.5448
3541	0.5436
3550	0.5423
3559	0.5411
3568	0.5399
3577	0.5388
3586	0.5378
3595	0.537
3604	0.536
3613	0.535
3622	0.5339
3631	0.5323
3640	0.5308
3649	0.5293
3658	0.5277
3667	0.5261
3676	0.5242
3685	0.5218
3694	0.5196
3703	0.5173
3712	0.515
3721	0.5128
3730	0.5106
3739	0.5083
3748	0.5061
3757	0.5038
3766	0.5015
3775	0.4992
3784	0.497
3793	0.4947
3802	0.4925
3811	0.4902
3820	0.488
3829	0.4858
3838	0.4836
3847	0.4814
3856	0.4793
3865	0.4775
3874	0.4757
3883	0.474
3892	0.4723
3901	0.4705
3910	0.4688
3919	0.4671
3928	0.4654
3937	0.4637
3946	0.462
3955	0.4603
3964	0.4586
3973	0.4568
3982	0.455
3991	0.4533
4000	0.4517
