Infrared Spectrum: p-TOLUAMIDE
Formula: C8 H9 N O
CAS: 619-55-6
State: SOLID (MINERAL OIL MULL)
Melting point: 159-160 C
Class: COBLENTZ
Instrument: Not specified, most likely a prism, grating, or hybrid spectrometer.
Sampling: TRANSMISSION
Resolution: 4
Origin: WYANDOTTE CHEMICALS CORP., WYANDOTTE, MICHIGAN, USA
MICROMETERS	TRANSMITTANCE
2.047	0.488
2.08758	0.496
2.12816	0.505
2.16874	0.511
2.20932	0.518
2.2499	0.527
2.29048	0.537
2.33106	0.547
2.37164	0.559
2.41222	0.571
2.4528	0.585
2.49339	0.598
2.53397	0.61
2.57455	0.624
2.61513	0.642
2.65571	0.641
2.69629	0.649
2.73687	0.664
2.77745	0.671
2.81803	0.668
2.85861	0.654
2.89919	0.619
2.93977	0.559
2.98035	0.163
3.02093	0.064
3.06151	0.181
3.10209	0.079
3.14267	0.027
3.18325	0.056
3.22383	0.146
3.26441	0.18
3.30499	0.239
3.34557	0.037
3.38616	0.022
3.42674	0.054
3.46732	0.068
3.5079	0.147
3.54848	0.386
3.58906	0.491
3.62964	0.615
3.67022	0.62
3.7108	0.666
3.75138	0.695
3.79196	0.71
3.83254	0.722
3.87312	0.729
3.9137	0.751
3.95428	0.75
3.99486	0.76
4.03544	0.768
4.07602	0.778
4.1166	0.78
4.15718	0.773
4.19776	0.767
4.23835	0.773
4.27893	0.761
4.31951	0.797
4.36009	0.826
4.40067	0.824
4.44125	0.816
4.48183	0.823
4.52241	0.845
4.56299	0.853
4.60357	0.86
4.64415	0.874
4.68473	0.882
4.72531	0.892
4.76589	0.901
4.80647	0.911
4.84705	0.918
4.88763	0.914
4.92821	0.914
4.96879	0.921
5.00937	0.933
5.04995	0.928
5.09053	0.925
5.13112	0.923
5.1717	0.926
5.21228	0.918
5.25286	0.897
5.29344	0.923
5.33402	0.933
5.3746	0.938
5.41518	0.945
5.45576	0.942
5.49634	0.94
5.53692	0.911
5.5775	0.897
5.61808	0.886
5.65866	0.865
5.69924	0.833
5.73982	0.792
5.7804	0.751
5.82098	0.595
5.86156	0.496
5.90214	0.289
5.94272	0.105
5.98331	0.03
6.02389	0.085
6.06447	0.197
6.10505	0.158
6.14563	0.074
6.18621	0.039
6.22679	0.389
6.26737	0.503
6.30795	0.353
6.34853	0.081
6.38911	0.448
6.42969	0.494
6.47027	0.562
6.51085	0.603
6.55143	0.522
6.59201	0.573
6.63259	0.619
6.67317	0.603
6.71375	0.552
6.75433	0.438
6.79491	0.221
6.8355	0.163
6.87608	0.18
6.91666	0.202
6.95724	0.238
6.99782	0.183
7.0384	0.098
7.07898	0.027
7.11956	0.044
7.16014	0.04
7.20072	0.078
7.2413	0.1
7.28188	0.129
7.32246	0.229
7.36304	0.292
7.40362	0.352
7.4442	0.382
7.48478	0.411
7.52536	0.438
7.56594	0.452
7.60652	0.457
7.6471	0.45
7.68768	0.435
7.72827	0.44
7.76885	0.443
7.80943	0.428
7.85001	0.518
7.89059	0.561
7.93117	0.578
7.97175	0.59
8.01233	0.603
8.05291	0.625
8.09349	0.649
8.13407	0.678
8.17465	0.7
8.21523	0.71
8.25581	0.644
8.29639	0.698
8.33697	0.722
8.37755	0.7
8.41813	0.263
8.45871	0.465
8.49929	0.67
8.53987	0.719
8.58046	0.734
8.62104	0.722
8.66162	0.612
8.7022	0.423
8.74278	0.217
8.78336	0.445
8.82394	0.736
8.86452	0.613
8.9051	0.251
8.94568	0.44
8.98626	0.38
9.02684	0.602
9.06742	0.692
9.108	0.76
9.14858	0.778
9.18916	0.797
9.22974	0.806
9.27032	0.814
9.3109	0.823
9.35148	0.829
9.39206	0.835
9.43264	0.841
9.47323	0.84
9.51381	0.831
9.55439	0.802
9.59497	0.727
9.63555	0.763
9.67613	0.807
9.71671	0.852
9.75729	0.84
9.79787	0.498
9.83845	0.668
9.87903	0.823
9.91961	0.879
9.96019	0.892
10.0008	0.899
10.0414	0.899
10.0819	0.899
10.1225	0.897
10.1631	0.896
10.2037	0.892
10.2443	0.886
10.2848	0.85
10.3254	0.869
10.366	0.744
10.4066	0.838
10.4472	0.86
10.4877	0.816
10.5283	0.763
10.5689	0.778
10.6095	0.858
10.6501	0.899
10.6906	0.904
10.7312	0.909
10.7718	0.914
10.8124	0.921
10.853	0.926
10.8935	0.926
10.9341	0.923
10.9747	0.926
11.0153	0.931
11.0559	0.937
11.0964	0.94
11.137	0.94
11.1776	0.938
11.2182	0.931
11.2588	0.931
11.2993	0.93
11.3399	0.93
11.3805	0.93
11.4211	0.928
11.4617	0.926
11.5022	0.925
11.5428	0.923
11.5834	0.92
11.624	0.914
11.6646	0.903
11.7052	0.88
11.7457	0.826
11.7863	0.778
11.8269	0.576
11.8675	0.527
11.9081	0.462
11.9486	0.192
11.9892	0.284
12.0298	0.545
12.0704	0.63
12.111	0.668
12.1515	0.685
12.1921	0.687
12.2327	0.666
12.2733	0.627
12.3139	0.517
12.3544	0.535
12.395	0.579
12.4356	0.576
12.4762	0.528
12.5168	0.437
12.5573	0.357
12.5979	0.307
12.6385	0.289
12.6791	0.311
12.7197	0.375
12.7602	0.443
12.8008	0.52
12.8414	0.585
12.882	0.62
12.9226	0.653
12.9631	0.671
13.0037	0.683
13.0443	0.692
13.0849	0.697
13.1255	0.698
13.166	0.698
13.2066	0.698
13.2472	0.692
13.2878	0.678
13.3284	0.653
13.369	0.59
13.4095	0.462
13.4501	0.365
13.4907	0.329
13.5313	0.331
13.5719	0.34
13.6124	0.343
13.653	0.338
13.6936	0.321
13.7342	0.301
13.7748	0.29
13.8153	0.306
13.8559	0.346
13.8965	0.394
13.9371	0.437
13.9777	0.467
14.0182	0.491
14.0588	0.513
14.0994	0.518
14.14	0.511
14.1806	0.503
14.2211	0.489
14.2617	0.474
14.3023	0.457
14.3429	0.435
14.3835	0.409
14.424	0.386
14.4646	0.38
14.5052	0.386
14.5458	0.409
14.5864	0.445
14.6269	0.46
14.6675	0.454
14.7081	0.416
14.7487	0.374
14.7893	0.335
14.8298	0.318
14.8704	0.309
14.911	0.311
14.9516	0.318
14.9922	0.328
15.0327	0.338
15.0733	0.35
15.1139	0.357
15.1545	0.362
15.1951	0.369
15.2357	0.374
15.2762	0.377
15.3168	0.386
15.3574	0.392
15.398	0.399
15.4386	0.408
15.4791	0.418
15.5197	0.426
15.5603	0.437
15.6009	0.448
15.6415	0.46
15.682	0.479
15.7226	0.481
15.7632	0.46
15.8038	0.435
15.8444	0.409
15.8849	0.404
15.9255	0.414
15.9661	0.442
