Infrared Spectrum: 2-NORBORNANONE, 3-CHLORO-
Formula: C7 H9 Cl O
CAS: 61914-03-2
State: LIQUID (NEAT)
Class: COBLENTZ III
Instrument: CARY 90 (GRATING)
Instrument parameters: ORDER CHANGES: 3000, 2000, 1200 CM^-^1
Sampling: TRANSMISSION
Path length: 0.0025 CM
Resolution: 2
Origin: WESTERN REGIONAL RES. USDA
1/CM	TRANSMITTANCE
4000	0.9515
3991	0.9535
3982	0.9556
3973	0.9575
3964	0.9599
3955	0.9616
3946	0.9623
3937	0.9607
3928	0.9584
3919	0.9584
3910	0.959
3901	0.9613
3892	0.9637
3883	0.9654
3874	0.9671
3865	0.9687
3856	0.9692
3847	0.9696
3838	0.97
3829	0.9701
3820	0.9703
3811	0.9704
3802	0.9702
3793	0.9699
3784	0.9697
3775	0.9686
3766	0.9671
3757	0.9658
3748	0.9656
3739	0.9657
3730	0.9655
3721	0.9653
3712	0.962
3703	0.9578
3694	0.9527
3685	0.9471
3676	0.9407
3667	0.9351
3658	0.9343
3649	0.9378
3640	0.9411
3631	0.9442
3622	0.9458
3613	0.9448
3604	0.9435
3595	0.9398
3586	0.9358
3577	0.9286
3568	0.9215
3559	0.9131
3550	0.9025
3541	0.8898
3532	0.8693
3523	0.8494
3514	0.7738
3505	0.7175
3496	0.773
3487	0.8487
3478	0.9182
3469	0.9305
3460	0.9364
3451	0.9413
3442	0.9455
3433	0.9478
3424	0.9493
3415	0.9498
3406	0.951
3397	0.9527
3388	0.9545
3379	0.9563
3370	0.9584
3361	0.9605
3352	0.9618
3343	0.9628
3334	0.964
3325	0.9644
3316	0.9643
3307	0.964
3298	0.9637
3289	0.9633
3280	0.9624
3271	0.9613
3262	0.9602
3253	0.9585
3244	0.9556
3235	0.9527
3226	0.9498
3217	0.947
3208	0.9445
3199	0.9444
3190	0.9466
3181	0.9502
3172	0.9525
3163	0.9543
3154	0.954
3145	0.9523
3136	0.9496
3127	0.9461
3118	0.9409
3109	0.9347
3100	0.9263
3091	0.9166
3082	0.9045
3073	0.8903
3064	0.872
3055	0.8493
3046	0.8188
3037	0.7745
3028	0.7121
3019	0.6103
3010	0.4039
3001	0.2048
2992	0.0899
2983	0.039
2974	0.0313
2965	0.0312
2956	0.0371
2947	0.078
2938	0.2051
2929	0.2749
2920	0.3273
2911	0.4276
2902	0.5022
2893	0.3388
2884	0.1299
2875	0.1192
2866	0.5728
2857	0.7651
2848	0.8685
2839	0.9171
2830	0.9431
2821	0.9554
2812	0.9603
2803	0.9621
2794	0.9581
2785	0.9523
2776	0.9528
2767	0.9571
2758	0.9625
2749	0.9664
2740	0.97
2731	0.9727
2722	0.9718
2713	0.971
2704	0.9737
2695	0.9778
2686	0.9812
2677	0.9836
2668	0.9843
2659	0.9843
2650	0.9834
2641	0.9818
2632	0.9828
2623	0.9785
2614	0.977
2605	0.9765
2596	0.9765
2587	0.9767
2578	0.9766
2569	0.976
2560	0.9752
2551	0.9742
2542	0.9738
2533	0.9732
2524	0.9721
2515	0.971
2506	0.9675
2497	0.9638
2488	0.9598
2479	0.955
2470	0.9509
2461	0.9478
2452	0.9464
2443	0.9518
2434	0.9548
2425	0.9503
2416	0.9503
2407	0.9542
2398	0.9596
2389	0.9632
2380	0.9667
2371	0.9675
2362	0.9588
2353	0.9478
2344	0.9218
2335	0.9298
2326	0.9471
2317	0.9554
2308	0.9612
2299	0.9598
2290	0.9508
2281	0.939
2272	0.93
2263	0.9311
2254	0.9385
2245	0.953
2236	0.963
2227	0.9623
2218	0.9603
2209	0.9588
2200	0.9586
2191	0.9578
2182	0.9566
2173	0.9547
2164	0.9528
2155	0.9516
2146	0.9414
2137	0.9359
2128	0.9391
2119	0.9491
2110	0.9506
2101	0.9505
2092	0.9504
2083	0.9502
2074	0.9502
2065	0.9501
2056	0.9505
2047	0.9508
2038	0.9512
2029	0.9515
2020	0.9516
2011	0.9586
2002	0.969
1993	0.9647
1984	0.9573
1975	0.9625
1966	0.964
1957	0.9611
1948	0.9548
1939	0.9423
1930	0.9221
1921	0.9245
1912	0.9535
1903	0.9585
1894	0.9534
1885	0.941
1876	0.9177
1867	0.8895
1858	0.8863
1849	0.8728
1840	0.8332
1831	0.6832
1822	0.5031
1813	0.6408
1804	0.6589
1795	0.5421
1786	0.2561
1777	0.0221
1768	0.004
1759	0.0034
1750	0.0107
1741	0.1479
1732	0.315
1723	0.3912
1714	0.4375
1705	0.6412
1696	0.8008
1687	0.7612
1678	0.8015
1669	0.8621
1660	0.8628
1651	0.8675
1642	0.8967
1633	0.8961
1624	0.8678
1615	0.8396
1606	0.8218
1597	0.8965
1588	0.9306
1579	0.9414
1570	0.9395
1561	0.9337
1552	0.9367
1543	0.9453
1534	0.9478
1525	0.9468
1516	0.9443
1507	0.925
1498	0.8887
1489	0.8302
1480	0.6561
1471	0.5676
1462	0.5642
1453	0.1615
1444	0.5533
1435	0.7545
1426	0.8544
1417	0.868
1408	0.8618
1399	0.8656
1390	0.8781
1381	0.8751
1372	0.8858
1363	0.884
1354	0.891
1345	0.8967
1336	0.8936
1327	0.8606
1318	0.7482
1309	0.4223
1300	0.2722
1291	0.5184
1282	0.5387
1273	0.633
1264	0.7308
1255	0.5401
1246	0.5986
1237	0.4862
1228	0.5287
1219	0.4859
1210	0.6199
1201	0.4158
1192	0.5105
1183	0.3818
1174	0.1884
1165	0.6712
1156	0.7287
1147	0.6199
1138	0.7747
1129	0.7822
1120	0.545
1111	0.3374
1102	0.7592
1093	0.7485
1084	0.6095
1075	0.0381
1066	0.3736
1057	0.7242
1048	0.7447
1039	0.7549
1030	0.5417
1021	0.6933
1012	0.8095
1003	0.8198
994	0.8581
985	0.8355
976	0.8197
967	0.5919
958	0.5704
949	0.4371
940	0.0663
931	0.3854
922	0.7955
913	0.5094
904	0.4953
895	0.8065
886	0.7268
877	0.3503
868	0.4696
859	0.7115
850	0.4847
841	0.0693
832	0.383
823	0.7389
814	0.6933
805	0.4052
796	0.7001
787	0.7628
778	0.7988
769	0.8089
760	0.7469
751	0.1893
742	0.2589
733	0.6855
724	0.7521
715	0.7119
706	0.5888
697	0.2729
688	0.1548
679	0.5895
670	0.7192
661	0.6724
652	0.1692
643	0.3553
634	0.6241
625	0.7045
616	0.7468
607	0.7818
598	0.7871
589	0.7933
580	0.8046
571	0.7254
562	0.7465
553	0.7756
544	0.5235
535	0.6348
526	0.6858
517	0.7519
508	0.7575
499	0.7101
490	0.666
481	0.1034
472	0.3834
