Infrared Spectrum: BENZENAMINE
Formula: C6 H7 N
CAS: 62-53-3
State: SOLUTION (10% IN CCl4 FOR 3800-1300, 10% IN CS2 FOR 1300-650, 10% IN CCl4 FOR 650-250 CM^-^1) VERSUS SOLVENT
Class: COBLENTZ III
Instrument: PERKIN-ELMER 521 (GRATING)
Instrument parameters: FILTERS AT 3150, 2500, 2000, 1150, 700, 410; GRATING CHANGES AT 2000, 630 CM^-^1
Sampling: TRANSMISSION
Path length: 0.012, 0.011, AND 0.010 CM (CsBr CELL)
Resolution: 4
Origin: DOW CORNING CORP.
1/CM	TRANSMITTANCE
243.255	0.487
253.086	0.487
262.916	0.491
272.747	0.485
282.578	0.476
292.409	0.473
302.239	0.475
312.07	0.476
321.901	0.493
331.732	0.503
341.562	0.522
351.393	0.535
361.224	0.539
371.054	0.535
380.885	0.522
390.716	0.538
400.547	0.54
410.377	0.532
420.208	0.512
430.039	0.485
439.87	0.459
449.7	0.428
459.531	0.398
469.362	0.367
479.192	0.32
489.023	0.206
498.854	0.059
508.685	0.354
518.515	0.442
528.346	0.4401
538.177	0.469
548.007	0.424
557.838	0.395
567.669	0.381
577.5	0.371
587.33	0.366
597.161	0.363
606.992	0.361
616.823	0.357
626.653	0.371
636.484	0.377
646.315	0.378
656.145	0.386
665.976	0.379
675.807	0.348
685.638	0.0509
695.468	0.2221
705.299	0.48
715.13	0.511
724.961	0.467
734.791	0.249
744.622	0
754.453	0.099
764.283	0.315
774.114	0.459
783.945	0.519
793.776	0.536
803.606	0.518
813.437	0.538
823.268	0.544
833.099	0.692
842.929	0.712
852.76	0.708
862.591	0.628
872.421	0.327
882.252	0.602
892.083	0.71
901.914	0.742
911.744	0.75
921.575	0.755
931.406	0.757
941.237	0.751
951.067	0.746
960.898	0.736
970.729	0.748
980.559	0.732
990.39	0.6179
1000.22	0.779
1010.05	0.787
1019.88	0.7219
1029.71	0.6511
1039.54	0.71
1049.37	0.648
1059.21	0.688
1069.04	0.757
1078.87	0.77
1088.7	0.753
1098.53	0.722
1108.36	0.632
1118.19	0.672
1128.02	0.755
1137.85	0.723
1147.68	0.575
1157.51	0.663
1167.34	0.4879
1177.17	0.6611
1187	0.728
1196.84	0.769
1206.67	0.795
1216.5	0.79
1226.33	0.766
1236.16	0.724
1245.99	0.657
1255.82	0.471
1265.65	0.162
1275.48	0.041
1285.31	0.2801
1295.14	0.641
1304.97	0.597
1314.8	0.66
1324.63	0.624
1334.47	0.782
1344.3	0.829
1354.13	0.849
1363.96	0.841
1373.79	0.826
1383.62	0.864
1393.45	0.873
1403.28	0.869
1413.11	0.872
1422.94	0.86
1432.77	0.844
1442.6	0.818
1452.43	0.763
1462.26	0.5218
1472.1	0.565
1481.93	0.591
1491.76	0.0559
1501.59	0.083
1511.42	0.5691
1521.25	0.641
1531.08	0.723
1540.91	0.744
1550.74	0.6749
1560.57	0.64
1570.4	0.642
1580.23	0.5749
1590.06	0.2929
1599.9	0
1609.73	0.004
1619.56	0.001
1629.39	0.1151
1639.22	0.4451
1649.05	0.636
1658.88	0.724
1668.71	0.765
1678.54	0.766
1688.37	0.735
1698.2	0.758
1708.03	0.82
1717.86	0.852
1727.69	0.865
1737.53	0.861
1747.36	0.864
1757.19	0.852
1767.02	0.829
1776.85	0.849
1786.68	0.863
1796.51	0.863
1806.34	0.86
1816.17	0.842
1826	0.8
1835.83	0.824
1845.66	0.833
1855.49	0.864
1865.32	0.876
1875.16	0.873
1884.99	0.872
1894.82	0.864
1904.65	0.836
1914.48	0.7629
1924.31	0.7771
1934.14	0.82
1943.97	0.861
1953.8	0.883
1963.63	0.884
1973.46	0.888
1983.29	0.888
1993.12	0.885
2002.95	0.889
2012.79	0.892
2022.62	0.893
2032.45	0.897
2042.28	0.8995
2052.11	0.897
2061.94	0.8947
2071.77	0.8886
2081.6	0.884
2091.43	0.888
2101.26	0.8924
2111.09	0.897
2120.92	0.8996
2130.75	0.892
2140.59	0.8886
2150.42	0.889
2160.25	0.891
2170.08	0.8924
2179.91	0.892
2189.74	0.8993
2199.57	0.9013
2209.4	0.9
2219.23	0.9026
2229.06	0.903
2238.89	0.904
2248.72	0.903
2258.55	0.902
2268.38	0.903
2278.22	0.903
2288.05	0.897
2297.88	0.8945
2307.71	0.8918
2317.54	0.8958
2327.37	0.889
2337.2	0.893
2347.03	0.8928
2356.86	0.891
2366.69	0.8922
2376.52	0.9004
2386.35	0.897
2396.18	0.8955
2406.01	0.8888
2415.85	0.881
2425.68	0.8759
2435.51	0.8813
2445.34	0.8892
2455.17	0.893
2465	0.8911
2474.83	0.9
2484.66	0.891
2494.49	0.8921
2504.32	0.8948
2514.15	0.889
2523.98	0.887
2533.81	0.8839
2543.64	0.877
2553.48	0.876
2563.31	0.88
2573.14	0.88
2582.97	0.876
2592.8	0.875
2602.63	0.871
2612.46	0.864
2622.29	0.851
2632.12	0.851
2641.95	0.8548
2651.78	0.8689
2661.61	0.8749
2671.44	0.8799
2681.27	0.8909
2691.11	0.8911
2700.94	0.8814
2710.77	0.88
2720.6	0.877
2730.43	0.875
2740.26	0.8759
2750.09	0.8799
2759.92	0.881
2769.75	0.8726
2779.58	0.8835
2789.41	0.884
2799.24	0.8813
2809.07	0.8847
2818.91	0.8874
2828.74	0.8802
2838.57	0.8786
2848.4	0.8792
2858.23	0.8752
2868.06	0.864
2877.89	0.8515
2887.72	0.8402
2897.55	0.8298
2907.38	0.8287
2917.21	0.8367
2927.04	0.8429
2936.87	0.8557
2946.7	0.8523
2956.54	0.8466
2966.37	0.844
2976.2	0.837
2986.03	0.8256
2995.86	0.792
3005.69	0.7067
3015.52	0.484
3025.35	0.5171
3035.18	0.2831
3045.01	0.2443
3054.84	0.5653
3064.67	0.66
3074.5	0.4945
3084.33	0.5474
3094.17	0.5534
3104	0.6843
3113.83	0.7611
3123.66	0.8524
3133.49	0.8701
3143.32	0.875
3153.15	0.8755
3162.98	0.8725
3172.81	0.867
3182.64	0.8574
3192.47	0.8365
3202.3	0.798
3212.13	0.761
3221.96	0.7983
3231.8	0.8264
3241.63	0.8393
3251.46	0.8588
3261.29	0.8675
3271.12	0.869
3280.95	0.867
3290.78	0.8602
3300.61	0.8455
3310.44	0.8278
3320.27	0.8048
3330.1	0.7651
3339.93	0.7177
3349.76	0.6604
3359.6	0.5903
3369.43	0.4678
3379.26	0.3653
3389.09	0.3153
3398.92	0.3428
3408.75	0.5251
3418.58	0.6674
3428.41	0.6991
3438.24	0.6696
3448.07	0.5973
3457.9	0.5005
3467.73	0.4271
3477.56	0.4093
3487.39	0.4601
3497.23	0.5661
3507.06	0.7562
3516.89	0.8252
3526.72	0.8592
3536.55	0.8712
3546.38	0.8832
3556.21	0.8872
3566.04	0.8928
3575.87	0.9036
3585.7	0.9093
3595.53	0.902
3605.36	0.899
3615.19	0.902
3625.02	0.903
3634.86	0.904
3644.69	0.902
3654.52	0.9029
3664.35	0.902
3674.18	0.9002
3684.01	0.9
3693.84	0.902
3703.67	0.902
3713.5	0.902
3723.33	0.9019
3733.16	0.9
3742.99	0.9
3752.82	0.899
3762.65	0.8971
3772.49	0.899
3782.32	0.902
3792.15	0.9
