Infrared Spectrum: 2-Methylalanine
Formula: C4 H9 N O2
CAS: 62-57-7
State: SOLID (SPLIT MULL), FLUOROLUBE FOR 3800-1330 CM^-^1, NUJOL FOR 1330-460 CM^-^1
Class: COBLENTZ II
Instrument: DOW KBr FOREPRISM-GRATING
Instrument parameters: BLAZED AT 3.5, 12.0, 20.0 MICRON AND CHANGED AT 5.0, 7.5, 14.9 MICRON
Sampling: TRANSMISSION
Resolution: 2
Origin: DOW CHEMICAL COMPANY
1/CM	TRANSMITTANCE
3800	0.8685
3791	0.8685
3782	0.8685
3773	0.8685
3764	0.8696
3755	0.8708
3746	0.8717
3737	0.8725
3728	0.8728
3719	0.8731
3710	0.8731
3701	0.8725
3692	0.8718
3683	0.8725
3674	0.8754
3665	0.8767
3656	0.8758
3647	0.875
3638	0.8799
3629	0.8775
3620	0.8755
3611	0.8759
3602	0.877
3593	0.878
3584	0.8778
3575	0.8691
3566	0.8671
3557	0.8695
3548	0.8718
3539	0.8739
3530	0.8758
3521	0.8774
3512	0.8787
3503	0.8785
3494	0.8775
3485	0.8768
3476	0.8759
3467	0.8759
3458	0.8765
3449	0.877
3440	0.8775
3431	0.8778
3422	0.8781
3413	0.8787
3404	0.882
3395	0.8821
3386	0.8824
3377	0.883
3368	0.8836
3359	0.8839
3350	0.8843
3341	0.8828
3332	0.8813
3323	0.8797
3314	0.8777
3305	0.8738
3296	0.8698
3287	0.8655
3278	0.8611
3269	0.8567
3260	0.8521
3251	0.8467
3242	0.8402
3233	0.8295
3224	0.8156
3215	0.7994
3206	0.7791
3197	0.7571
3188	0.7375
3179	0.714
3170	0.6792
3161	0.6632
3152	0.6519
3143	0.6295
3134	0.6058
3125	0.5793
3116	0.5529
3107	0.523
3098	0.4896
3089	0.4371
3080	0.39
3071	0.342
3062	0.2969
3053	0.2346
3044	0.2057
3035	0.1934
3026	0.1992
3017	0.2255
3008	0.264
2999	0.3006
2990	0.3372
2981	0.3738
2972	0.4064
2963	0.3764
2954	0.4268
2945	0.4362
2936	0.4429
2927	0.4568
2918	0.4592
2909	0.4373
2900	0.4314
2891	0.4287
2882	0.4247
2873	0.4198
2864	0.416
2855	0.4145
2846	0.4198
2837	0.428
2828	0.425
2819	0.4105
2810	0.4309
2801	0.4626
2792	0.461
2783	0.4686
2774	0.5034
2765	0.5417
2756	0.5657
2747	0.5816
2738	0.596
2729	0.6022
2720	0.5985
2711	0.5837
2702	0.5741
2693	0.573
2684	0.591
2675	0.6135
2666	0.6357
2657	0.6603
2648	0.6784
2639	0.6735
2630	0.6089
2621	0.5346
2612	0.5057
2603	0.5341
2594	0.5841
2585	0.6277
2576	0.6496
2567	0.6618
2558	0.6717
2549	0.6746
2540	0.6944
2531	0.713
2522	0.7299
2513	0.7396
2504	0.7441
2495	0.7433
2486	0.7376
2477	0.7392
2468	0.7472
2459	0.7551
2450	0.7612
2441	0.7658
2432	0.7695
2423	0.773
2414	0.7758
2405	0.7784
2396	0.781
2387	0.7834
2378	0.7858
2369	0.7886
2360	0.7911
2351	0.7857
2342	0.7835
2333	0.7838
2324	0.7772
2315	0.7789
2306	0.7837
2297	0.7856
2288	0.7878
2279	0.7906
2270	0.7951
2261	0.8
2252	0.8064
2243	0.8134
2234	0.8206
2225	0.8285
2216	0.8343
2207	0.8347
2198	0.8338
2189	0.8302
2180	0.8293
2171	0.8333
2162	0.8359
2153	0.8328
2144	0.8265
2135	0.8263
2126	0.8263
2117	0.8201
2108	0.8091
2099	0.8074
2090	0.8107
2081	0.8144
2072	0.8196
2063	0.8303
2054	0.8404
2045	0.8482
2036	0.8553
2027	0.8615
2018	0.8661
2009	0.8707
2000	0.8683
1991	0.8618
1982	0.8639
1973	0.8674
1964	0.8713
1955	0.8743
1946	0.8694
1937	0.87
1928	0.873
1919	0.8775
1910	0.8792
1901	0.8806
1892	0.8775
1883	0.8771
1874	0.8747
1865	0.8711
1856	0.8724
1847	0.8786
1838	0.8815
1829	0.8804
1820	0.8788
1811	0.8794
1802	0.8723
1793	0.8674
1784	0.8665
1775	0.8685
1766	0.8686
1757	0.8664
1748	0.8615
1739	0.8528
1730	0.8353
1721	0.8233
1712	0.8156
1703	0.8045
1694	0.7861
1685	0.7797
1676	0.7583
1667	0.704
1658	0.6484
1649	0.3179
1640	0.1716
1631	0.2053
1622	0.4094
1613	0.531
1604	0.479
1595	0.3949
1586	0.2237
1577	0.1943
1568	0.4554
1559	0.4362
1550	0.1754
1541	0.1922
1532	0.4181
1523	0.5122
1514	0.6129
1505	0.6649
1496	0.6775
1487	0.6875
1478	0.6024
1469	0.5293
1460	0.5096
1451	0.6348
1442	0.6492
1433	0.7057
1424	0.6996
1415	0.2784
1406	0.5705
1397	0.6781
1388	0.6971
1379	0.5052
1370	0.1762
1361	0.5194
1352	0.5474
1343	0.5574
1334	0.5876
1325	0.6135
1316	0.6192
1307	0.5916
1298	0.2774
1289	0.4066
1280	0.2109
1271	0.2833
1262	0.529
1253	0.6115
1244	0.6568
1235	0.6626
1226	0.6675
1217	0.6575
1208	0.4674
1199	0.0896
1190	0.4568
1181	0.5699
1172	0.6247
1163	0.6948
1154	0.7124
1145	0.7301
1136	0.75
1127	0.7656
1118	0.776
1109	0.7767
1100	0.7621
1091	0.5629
1082	0.7583
1073	0.7692
1064	0.7803
1055	0.7934
1046	0.8018
1037	0.8071
1028	0.8061
1019	0.8078
1010	0.8061
1001	0.8064
992	0.8125
983	0.8125
974	0.8028
965	0.7955
956	0.7661
947	0.6394
938	0.7586
929	0.7889
920	0.7932
911	0.7785
902	0.6384
893	0.4492
884	0.7443
875	0.7925
866	0.8105
857	0.8208
848	0.8304
839	0.8399
830	0.8462
821	0.8495
812	0.8463
803	0.6599
794	0.4129
785	0.7351
776	0.8186
767	0.8356
758	0.8489
749	0.8431
740	0.8283
731	0.8067
722	0.7653
713	0.8394
704	0.866
695	0.8767
686	0.8857
677	0.8861
668	0.8765
659	0.8718
650	0.8688
641	0.8705
632	0.8724
623	0.861
614	0.7918
605	0.6054
596	0.8346
587	0.8443
578	0.8381
569	0.7955
560	0.5948
551	0.3488
542	0.5682
533	0.465
524	0.7505
515	0.7868
506	0.7917
497	0.7774
488	0.7558
479	0.7421
470	0.7311
461	0.7207
