Infrared Spectrum: P-NITROPHENYL, PHENYL ETHER
Formula: C12 H9 N O3
CAS: 620-88-2
State: SOLID (MINERAL OIL MULL)
Melting point: 55-58 C
Class: COBLENTZ
Instrument: Not specified, most likely a prism, grating, or hybrid spectrometer.
Sampling: TRANSMISSION
Resolution: 4
Origin: WYANDOTTE CHEMICALS CORP., WYANDOTTE, MICHIGAN, USA
MICROMETERS	TRANSMITTANCE
2.073	0.481
2.11281	0.481
2.15262	0.485
2.19243	0.485
2.23224	0.488
2.27205	0.491
2.31186	0.504
2.35167	0.511
2.39148	0.518
2.43129	0.523
2.4711	0.526
2.5109	0.529
2.55071	0.544
2.59052	0.533
2.63033	0.571
2.67014	0.561
2.70995	0.558
2.74976	0.571
2.78957	0.571
2.82938	0.566
2.86919	0.561
2.909	0.563
2.94881	0.561
2.98862	0.563
3.02843	0.571
3.06824	0.573
3.10805	0.576
3.14786	0.576
3.18767	0.571
3.22748	0.541
3.26729	0.526
3.3071	0.503
3.3469	0.24
3.38671	0.122
3.42652	0.164
3.46633	0.247
3.50614	0.289
3.54595	0.607
3.58576	0.657
3.62557	0.681
3.66538	0.674
3.70519	0.682
3.745	0.684
3.78481	0.689
3.82462	0.696
3.86443	0.712
3.90424	0.72
3.94405	0.725
3.98386	0.732
4.02367	0.742
4.06348	0.732
4.10329	0.724
4.1431	0.71
4.18291	0.737
4.22271	0.742
4.26252	0.707
4.30233	0.732
4.34214	0.762
4.38195	0.803
4.42176	0.81
4.46157	0.789
4.50138	0.805
4.54119	0.812
4.581	0.815
4.62081	0.817
4.66062	0.828
4.70043	0.835
4.74024	0.842
4.78005	0.845
4.81986	0.85
4.85967	0.862
4.89948	0.855
4.93929	0.872
4.9791	0.843
5.01891	0.867
5.05871	0.86
5.09852	0.868
5.13833	0.862
5.17814	0.868
5.21795	0.885
5.25776	0.868
5.29757	0.9
5.33738	0.906
5.37719	0.895
5.417	0.923
5.45681	0.911
5.49662	0.93
5.53643	0.943
5.57624	0.926
5.61605	0.93
5.65586	0.918
5.69567	0.94
5.73548	0.928
5.77529	0.938
5.8151	0.913
5.85491	0.935
5.89471	0.958
5.93452	0.933
5.97433	0.925
6.01414	0.933
6.05395	0.921
6.09376	0.928
6.13357	0.906
6.17338	0.646
6.21319	0.559
6.253	0.428
6.29281	0.282
6.33262	0.626
6.37243	0.699
6.41224	0.782
6.45205	0.704
6.49186	0.742
6.53167	0.691
6.57148	0.475
6.61129	0.262
6.6511	0.28
6.69091	0.217
6.73071	0.222
6.77052	0.35
6.81033	0.363
6.85014	0.43
6.88995	0.553
6.92976	0.629
6.96957	0.782
7.00938	0.797
7.04919	0.822
7.089	0.842
7.12881	0.863
7.16862	0.883
7.20843	0.797
7.24824	0.614
7.28805	0.694
7.32786	0.637
7.36767	0.549
7.40748	0.355
7.44729	0.161
7.4871	0.214
7.52691	0.279
7.56671	0.481
7.60652	0.611
7.64633	0.662
7.68614	0.686
7.72595	0.774
7.76576	0.752
7.80557	0.803
7.84538	0.832
7.88519	0.745
7.925	0.569
7.96481	0.335
8.00462	0.131
8.04443	0.136
8.08424	0.154
8.12405	0.22
8.16386	0.294
8.20367	0.377
8.24348	0.453
8.28329	0.534
8.3231	0.549
8.36291	0.353
8.40272	0.463
8.44252	0.599
8.48233	0.624
8.52214	0.629
8.56195	0.529
8.60176	0.33
8.64157	0.528
8.68138	0.598
8.72119	0.657
8.761	0.707
8.80081	0.737
8.84062	0.762
8.88043	0.784
8.92024	0.808
8.96005	0.644
8.99986	0.345
9.03967	0.425
9.07948	0.544
9.11929	0.626
9.1591	0.652
9.19891	0.671
9.23872	0.681
9.27852	0.679
9.31833	0.662
9.35814	0.661
9.39795	0.691
9.43776	0.705
9.47757	0.725
9.51738	0.744
9.55719	0.754
9.597	0.762
9.63681	0.772
9.67662	0.78
9.71643	0.785
9.75624	0.792
9.79605	0.712
9.83586	0.759
9.87567	0.79
9.91548	0.785
9.95529	0.787
9.9951	0.808
10.0349	0.813
10.0747	0.813
10.1145	0.784
10.1543	0.797
10.1941	0.802
10.234	0.815
10.2738	0.818
10.3136	0.803
10.3534	0.815
10.3932	0.813
10.433	0.832
10.4728	0.828
10.5126	0.818
10.5524	0.842
10.5922	0.847
10.632	0.848
10.6719	0.852
10.7117	0.85
10.7515	0.847
10.7913	0.848
10.8311	0.853
10.8709	0.858
10.9107	0.858
10.9505	0.86
10.9903	0.86
11.0301	0.802
11.07	0.661
11.1098	0.669
11.1496	0.794
11.1894	0.843
11.2292	0.867
11.269	0.885
11.3088	0.893
11.3486	0.888
11.3884	0.78
11.4282	0.456
11.468	0.265
11.5079	0.456
11.5477	0.607
11.5875	0.642
11.6273	0.602
11.6671	0.455
11.7069	0.367
11.7467	0.48
11.7865	0.639
11.8263	0.624
11.8661	0.622
11.906	0.717
11.9458	0.752
11.9856	0.777
12.0254	0.789
12.0652	0.79
12.105	0.828
12.1448	0.848
12.1846	0.858
12.2244	0.847
12.2642	0.805
12.304	0.827
12.3439	0.85
12.3837	0.857
12.4235	0.858
12.4633	0.857
12.5031	0.845
12.5429	0.832
12.5827	0.803
12.6225	0.749
12.6623	0.666
12.7021	0.639
12.742	0.76
12.7818	0.84
12.8216	0.865
12.8614	0.875
12.9012	0.88
12.941	0.878
12.9808	0.875
13.0206	0.857
13.0604	0.852
13.1002	0.825
13.14	0.792
13.1799	0.722
13.2197	0.583
13.2595	0.403
13.2993	0.247
13.3391	0.207
13.3789	0.338
13.4187	0.548
13.4585	0.664
13.4983	0.732
13.5381	0.774
13.578	0.8
13.6178	0.823
13.6576	0.833
13.6974	0.847
13.7372	0.852
13.777	0.858
13.8168	0.86
13.8566	0.862
13.8964	0.862
13.9362	0.857
13.976	0.872
14.0159	0.877
14.0557	0.883
14.0955	0.883
14.1353	0.882
14.1751	0.872
14.2149	0.86
14.2547	0.825
14.2945	0.745
14.3343	0.609
14.3741	0.539
14.414	0.584
14.4538	0.649
14.4936	0.656
14.5334	0.599
14.5732	0.531
14.613	0.528
14.6528	0.604
14.6926	0.672
14.7324	0.73
14.7722	0.764
14.812	0.775
14.8519	0.784
14.8917	0.787
14.9315	0.789
14.9713	0.787
15.0111	0.742
15.0509	0.687
15.0907	0.691
15.1305	0.734
15.1703	0.757
15.2101	0.75
15.25	0.735
15.2898	0.715
15.3296	0.694
15.3694	0.654
15.4092	0.617
15.449	0.601
15.4888	0.604
15.5286	0.617
15.5684	0.631
15.6082	0.642
15.648	0.639
15.6879	0.634
15.7277	0.619
15.7675	0.609
15.8073	0.598
15.8471	0.589
15.8869	0.578
15.9267	0.571
15.9665	0.563
