Infrared Spectrum: BENZENE, 1-ETHYL-3-METHYL-
Formula: C9 H12
CAS: 620-14-4
State: LIQUID (NEAT)
Class: COBLENTZ III
Instrument: PERKIN-ELMER 521 (GRATING)
Sampling: TRANSMISSION
Path length: 0.0025 CM
Resolution: 4
Origin: STANDARD OIL OF OHIO
1/CM	TRANSMITTANCE
581.223	0.639
590.393	0.633
599.564	0.635
608.734	0.644
617.904	0.66
627.075	0.676
636.245	0.697
645.415	0.71
654.586	0.715
663.756	0.724
672.926	0.685
682.096	0.4392
691.267	0.109
700.437	0.604
709.607	0.4852
718.778	0.7019
727.948	0.704
737.118	0.6371
746.289	0.4922
755.459	0.445
764.629	0.34
773.8	0.1181
782.97	0.104
792.14	0.3949
801.311	0.7649
810.481	0.828
819.651	0.862
828.822	0.872
837.992	0.87
847.162	0.86
856.333	0.832
865.503	0.6474
874.673	0.3641
883.843	0.591
893.014	0.6898
902.184	0.845
911.354	0.873
920.525	0.877
929.695	0.875
938.865	0.87
948.036	0.857
957.206	0.7981
966.376	0.797
975.547	0.826
984.717	0.8141
993.887	0.793
1003.06	0.815
1012.23	0.802
1021.4	0.754
1030.57	0.6461
1039.74	0.625
1048.91	0.573
1058.08	0.64
1067.25	0.791
1076.42	0.813
1085.59	0.7461
1094.76	0.684
1103.93	0.843
1113.1	0.865
1122.27	0.865
1131.44	0.862
1140.61	0.844
1149.78	0.746
1158.95	0.734
1168.12	0.8558
1177.29	0.877
1186.46	0.879
1195.63	0.875
1204.8	0.872
1213.97	0.866
1223.15	0.855
1232.32	0.848
1241.49	0.849
1250.66	0.857
1259.83	0.853
1269	0.835
1278.17	0.814
1287.34	0.806
1296.51	0.795
1305.68	0.78
1314.85	0.731
1324.02	0.725
1333.19	0.798
1342.36	0.792
1351.53	0.753
1360.7	0.6091
1369.87	0.533
1379.04	0.7009
1388.21	0.697
1397.38	0.674
1406.55	0.654
1415.72	0.603
1424.89	0.543
1434.06	0.459
1443.23	0.3341
1452.4	0.1691
1461.57	0.193
1470.74	0.3268
1479.91	0.403
1489.08	0.201
1498.25	0.4381
1507.43	0.616
1516.6	0.693
1525.77	0.724
1534.94	0.774
1544.11	0.776
1553.28	0.775
1562.45	0.768
1571.62	0.745
1580.79	0.677
1589.96	0.4498
1599.13	0.4921
1608.3	0.3231
1617.47	0.6041
1626.64	0.8169
1635.81	0.872
1644.98	0.873
1654.15	0.865
1663.32	0.86
1672.49	0.861
1681.66	0.873
1690.83	0.891
1700	0.907
1709.17	0.911
1718.34	0.909
1727.51	0.904
1736.68	0.895
1745.85	0.864
1755.02	0.849
1764.19	0.845
1773.36	0.819
1782.53	0.856
1791.7	0.889
1800.88	0.912
1810.05	0.912
1819.22	0.908
1828.39	0.902
1837.56	0.877
1846.73	0.842
1855.9	0.813
1865.07	0.8531
1874.24	0.904
1883.41	0.917
1892.58	0.915
1901.75	0.912
1910.92	0.903
1920.09	0.873
1929.26	0.813
1938.43	0.869
1947.6	0.916
1956.77	0.925
1965.94	0.926
1975.11	0.929
1984.28	0.93
1993.45	0.93
2002.62	0.929
2011.79	0.928
2020.96	0.925
2030.13	0.9288
2039.3	0.929
2048.47	0.929
2057.64	0.932
2066.81	0.933
2075.98	0.934
2085.16	0.9327
2094.33	0.9322
2103.5	0.932
2112.67	0.933
2121.84	0.93
2131.01	0.93
2140.18	0.9302
2149.35	0.93
2158.52	0.932
2167.69	0.9307
2176.86	0.9296
2186.03	0.9285
2195.2	0.928
2204.37	0.926
2213.54	0.925
2222.71	0.924
2231.88	0.925
2241.05	0.924
2250.22	0.92
2259.39	0.921
2268.56	0.924
2277.73	0.925
2286.9	0.922
2296.07	0.919
2305.24	0.915
2314.41	0.9125
2323.58	0.909
2332.75	0.9113
2341.92	0.9163
2351.09	0.917
2360.26	0.919
2369.43	0.92
2378.61	0.919
2387.78	0.9132
2396.95	0.9082
2406.12	0.911
2415.29	0.913
2424.46	0.9126
2433.63	0.9165
2442.8	0.92
2451.97	0.9156
2461.14	0.9087
2470.31	0.9062
2479.48	0.9125
2488.65	0.9222
2497.82	0.922
2506.99	0.92
2516.16	0.92
2525.33	0.921
2534.5	0.921
2543.67	0.922
2552.84	0.921
2562.01	0.922
2571.18	0.9206
2580.35	0.9126
2589.52	0.909
2598.69	0.907
2607.86	0.907
2617.03	0.906
2626.2	0.906
2635.37	0.907
2644.54	0.9118
2653.71	0.912
2662.89	0.912
2672.06	0.909
2681.23	0.9064
2690.4	0.903
2699.57	0.8986
2708.74	0.8957
2717.91	0.8785
2727.08	0.8399
2736.25	0.823
2745.42	0.877
2754.59	0.8721
2763.76	0.8611
2772.93	0.855
2782.1	0.8473
2791.27	0.8393
2800.44	0.8304
2809.61	0.8134
2818.78	0.7749
2827.95	0.7321
2837.12	0.6467
2846.29	0.5286
2855.46	0.3794
2864.63	0.2256
2873.8	0.1739
2882.97	0.1941
2892.14	0.2513
2901.31	0.216
2910.48	0.2063
2919.65	0.11
2928.82	0.0589
2937.99	0.0595
2947.17	0.147
2956.34	0.1148
2965.51	0.02
2974.68	0.0322
2983.85	0.1739
2993.02	0.3175
3002.19	0.3341
3011.36	0.2486
3020.53	0.1852
3029.7	0.1968
3038.87	0.262
3048.04	0.3356
3057.21	0.3315
3066.38	0.4902
3075.55	0.6504
3084.72	0.7066
3093.89	0.7498
3103.06	0.723
3112.23	0.777
3121.4	0.8492
3130.57	0.873
3139.74	0.8771
3148.91	0.8786
3158.08	0.879
3167.25	0.877
3176.42	0.8826
3185.59	0.888
3194.76	0.8984
3203.93	0.903
3213.1	0.9037
3222.27	0.906
3231.44	0.907
3240.62	0.908
3249.79	0.909
3258.96	0.909
3268.13	0.911
3277.3	0.909
3286.47	0.909
3295.64	0.911
3304.81	0.909
3313.98	0.909
3323.15	0.9102
3332.32	0.909
3341.49	0.911
3350.66	0.9106
3359.83	0.909
3369	0.909
3378.17	0.908
3387.34	0.907
3396.51	0.907
3405.68	0.907
3414.85	0.908
3424.02	0.907
3433.19	0.907
3442.36	0.906
3451.53	0.904
3460.7	0.904
3469.87	0.904
3479.04	0.904
3488.21	0.904
3497.38	0.903
3506.55	0.903
3515.72	0.903
3524.9	0.903
3534.07	0.9037
3543.24	0.904
3552.41	0.904
3561.58	0.906
3570.75	0.906
3579.92	0.906
3589.09	0.906
3598.26	0.906
3607.43	0.906
3616.6	0.906
3625.77	0.906
3634.94	0.904
3644.11	0.903
3653.28	0.903
3662.45	0.902
3671.62	0.9
3680.79	0.902
3689.96	0.899
3699.13	0.899
3708.3	0.899
3717.47	0.899
3726.64	0.898
3735.81	0.898
3744.98	0.898
3754.15	0.898
3763.32	0.899
3772.49	0.899
3781.66	0.899
3790.83	0.899
3800	0.899
3809.17	0.899
3818.35	0.899
3827.52	0.899
3836.69	0.899
3845.86	0.898
3855.03	0.896
3864.2	0.894
3873.37	0.892
3882.54	0.89
3891.71	0.8873
3900.88	0.8852
3910.05	0.882
3919.22	0.879
3928.39	0.877
3937.56	0.875
3946.73	0.872
3955.9	0.872
