Infrared Spectrum: PHENOL, 3-ETHYL-
Formula: C8 H10 O
CAS: 620-17-7
State: SOLUTION (10% IN CCl4 FOR 3800-1340, 10% IN CS2 FOR 1340-400 CM^-^1)
Class: COBLENTZ III
Instrument: DOW KBr FOREPRISM-GRATING
Instrument parameters: BLAZED AT 3.5, 12.0, 20.0 MICRON, CHANGED AT 5.0, 7.5, 14.9 MICRON
Sampling: TRANSMISSION
Path length: 0.011, 0.011 CM
Resolution: 4
Origin: DOW CHEMICAL COMPANY
1/CM	TRANSMITTANCE
380.8	0.518
389.501	0.519
398.201	0.54
406.902	0.624
415.603	0.715
424.304	0.761
433.004	0.767
441.705	0.727
450.406	0.563
459.106	0.677
467.807	0.835
476.508	0.865
485.209	0.878
493.909	0.884
502.61	0.88
511.311	0.869
520.011	0.832
528.712	0.831
537.413	0.712
546.114	0.772
554.814	0.843
563.515	0.844
572.216	0.838
580.916	0.831
589.617	0.851
598.318	0.814
607.019	0.813
615.719	0.809
624.42	0.802
633.121	0.794
641.821	0.775
650.522	0.753
659.223	0.767
667.924	0.793
676.624	0.783
685.325	0.703
694.026	0.07
702.726	0.521
711.427	0.712
720.128	0.741
728.829	0.5
737.529	0.749
746.23	0.774
754.931	0.723
763.631	0.617
772.332	0.439
781.033	0.235
789.734	0.253
798.434	0.522
807.135	0.823
815.836	0.869
824.536	0.876
833.237	0.839
841.938	0.847
850.639	0.582
859.339	0.462
868.04	0.375
876.741	0.472
885.441	0.707
894.142	0.793
902.843	0.448
911.543	0.234
920.244	0.813
928.945	0.934
937.646	0.964
946.346	0.971
955.047	0.964
963.748	0.93
972.448	0.922
981.149	0.794
989.85	0.791
998.551	0.873
1007.25	0.949
1015.95	0.967
1024.65	0.968
1033.35	0.953
1042.05	0.915
1050.75	0.752
1059.46	0.78
1068.16	0.838
1076.86	0.903
1085.56	0.889
1094.26	0.78
1102.96	0.877
1111.66	0.87
1120.36	0.858
1129.06	0.824
1137.76	0.723
1146.46	0.374
1155.16	0.057
1163.86	0.216
1172.56	0.523
1181.27	0.448
1189.97	0.327
1198.67	0.336
1207.37	0.349
1216.07	0.325
1224.77	0.293
1233.47	0.312
1242.17	0.355
1250.87	0.198
1259.57	0.186
1268.27	0.209
1276.97	0.172
1285.67	0.435
1294.37	0.621
1303.08	0.56
1311.78	0.442
1320.48	0.398
1329.18	0.414
1337.88	0.536
1346.58	0.529
1355.28	0.531
1363.98	0.568
1372.68	0.608
1381.38	0.631
1390.08	0.734
1398.78	0.797
1407.48	0.817
1416.18	0.794
1424.89	0.786
1433.59	0.74
1442.29	0.631
1450.99	0.293
1459.69	0.038
1468.39	0.297
1477.09	0.361
1485.79	0.357
1494.49	0.274
1503.19	0.4
1511.89	0.574
1520.59	0.552
1529.29	0.619
1537.99	0.563
1546.7	0.488
1555.4	0.476
1564.1	0.503
1572.8	0.489
1581.5	0.38
1590.2	0.063
1598.9	0.069
1607.6	0.216
1616.3	0.204
1625	0.421
1633.7	0.687
1642.4	0.832
1651.1	0.893
1659.8	0.91
1668.51	0.919
1677.21	0.921
1685.91	0.925
1694.61	0.926
1703.31	0.934
1712.01	0.944
1720.71	0.942
1729.41	0.931
1738.11	0.919
1746.81	0.927
1755.51	0.94
1764.21	0.953
1772.91	0.963
1781.61	0.97
1790.32	0.971
1799.02	0.972
1807.72	0.967
1816.42	0.96
1825.12	0.946
1833.82	0.936
1842.52	0.93
1851.22	0.955
1859.92	0.965
1868.62	0.967
1877.32	0.959
1886.02	0.963
1894.72	0.967
1903.42	0.963
1912.13	0.944
1920.83	0.919
1929.53	0.93
1938.23	0.961
1946.93	0.972
1955.63	0.975
1964.33	0.974
1973.03	0.968
1981.73	0.965
1990.43	0.96
1999.13	0.953
2007.83	0.9555
2016.53	0.96
2025.23	0.9645
2033.94	0.963
2042.64	0.9605
2051.34	0.96
2060.04	0.956
2068.74	0.9525
2077.44	0.952
2086.14	0.9645
2094.84	0.968
2103.54	0.968
2112.24	0.968
2120.94	0.967
2129.64	0.967
2138.34	0.963
2147.04	0.96
2155.75	0.956
2164.45	0.9564
2173.15	0.9554
2181.85	0.955
2190.55	0.953
2199.25	0.9566
2207.95	0.967
2216.65	0.9659
2225.35	0.964
2234.05	0.963
2242.75	0.963
2251.45	0.9604
2260.15	0.9566
2268.85	0.956
2277.56	0.955
2286.26	0.9506
2294.96	0.945
2303.66	0.945
2312.36	0.9404
2321.06	0.937
2329.76	0.937
2338.46	0.9428
2347.16	0.9516
2355.86	0.9468
2364.56	0.944
2373.26	0.945
2381.96	0.9486
2390.66	0.952
2399.37	0.949
2408.07	0.9467
2416.77	0.9427
2425.47	0.9387
2434.17	0.934
2442.87	0.9393
2451.57	0.945
2460.27	0.94
2468.97	0.937
2477.67	0.937
2486.37	0.933
2495.07	0.933
2503.77	0.933
2512.47	0.9353
2521.18	0.937
2529.88	0.936
2538.58	0.934
2547.28	0.933
2555.98	0.931
2564.68	0.93
2573.38	0.927
2582.08	0.927
2590.78	0.926
2599.48	0.923
2608.18	0.921
2616.88	0.921
2625.58	0.922
2634.28	0.9267
2642.99	0.93
2651.69	0.931
2660.39	0.93
2669.09	0.9263
2677.79	0.921
2686.49	0.917
2695.19	0.911
2703.89	0.9073
2712.59	0.9045
2721.29	0.9005
2729.99	0.8923
2738.69	0.8942
2747.39	0.903
2756.09	0.906
2764.8	0.906
2773.5	0.9045
2782.2	0.904
2790.9	0.902
2799.6	0.8975
2808.3	0.889
2817	0.8765
2825.7	0.8629
2834.4	0.8358
2843.1	0.8029
2851.8	0.7592
2860.5	0.6751
2869.2	0.5681
2877.9	0.4835
2886.61	0.5972
2895.31	0.632
2904.01	0.6086
2912.71	0.615
2921.41	0.5307
2930.11	0.415
2938.81	0.314
2947.51	0.4737
2956.21	0.5133
2964.91	0.3069
2973.61	0.1139
2982.31	0.2875
2991.01	0.5241
2999.71	0.6673
3008.42	0.715
3017.12	0.7067
3025.82	0.6557
3034.52	0.6286
3043.22	0.5581
3051.92	0.5683
3060.62	0.6197
3069.32	0.6737
3078.02	0.682
3086.72	0.6959
3095.42	0.708
3104.12	0.7071
3112.82	0.7079
3121.52	0.711
3130.23	0.71
3138.93	0.7074
3147.63	0.6991
3156.33	0.6805
3165.03	0.6571
3173.73	0.6325
3182.43	0.6055
3191.13	0.5746
3199.83	0.5413
3208.53	0.5123
3217.23	0.4912
3225.93	0.4706
3234.63	0.4407
3243.33	0.4106
3252.04	0.3873
3260.74	0.3703
3269.44	0.3443
3278.14	0.3272
3286.84	0.3122
3295.54	0.2991
3304.24	0.2812
3312.94	0.2721
3321.64	0.2582
3330.34	0.2501
3339.04	0.244
3347.74	0.24
3356.44	0.24
3365.14	0.243
3373.85	0.247
3382.55	0.251
3391.25	0.255
3399.95	0.263
3408.65	0.27
3417.35	0.278
3426.05	0.285
3434.75	0.2969
3443.45	0.3069
3452.15	0.317
3460.85	0.329
3469.55	0.342
3478.25	0.353
3486.95	0.37
3495.66	0.385
3504.36	0.409
3513.06	0.44
3521.76	0.469
3530.46	0.4971
3539.16	0.522
3547.86	0.5481
3556.56	0.5721
3565.26	0.6021
3573.96	0.6381
3582.66	0.654
3591.36	0.6427
3600.06	0.5566
3608.76	0.4722
3617.47	0.3174
3626.17	0.4189
3634.87	0.7208
3643.57	0.8424
3652.27	0.8622
3660.97	0.859
3669.67	0.8509
3678.37	0.8471
3687.07	0.8613
3695.77	0.8992
3704.47	0.9171
3713.17	0.9311
3721.87	0.9371
3730.57	0.9401
3739.28	0.9438
3747.98	0.9401
3756.68	0.9441
3765.38	0.946
3774.08	0.951
3782.78	0.952
3791.48	0.951
