Infrared Spectrum: TRIBENZYLAMINE
Formula: C21 H21 N
CAS: 620-40-6
Melting point: 93 C
Class: COBLENTZ
Instrument: Not specified, most likely a prism, grating, or hybrid spectrometer.
Sampling: TRANSMISSION
Resolution: 4
Origin: WYANDOTTE CHEMICALS CORP., WYANDOTTE, MICHIGAN, USA
MICROMETERS	TRANSMITTANCE
2.034	0.295
2.0748	0.292
2.11559	0.299
2.15639	0.297
2.19719	0.282
2.23799	0.265
2.27878	0.268
2.31958	0.267
2.36038	0.268
2.40117	0.27
2.44197	0.272
2.48277	0.273
2.52356	0.273
2.56436	0.277
2.60516	0.277
2.64596	0.29
2.68675	0.277
2.72755	0.273
2.76835	0.278
2.80914	0.278
2.84994	0.278
2.89074	0.278
2.93154	0.278
2.97233	0.268
3.01313	0.268
3.05393	0.267
3.09472	0.265
3.13552	0.255
3.17632	0.239
3.21712	0.243
3.25791	0.202
3.29871	0.168
3.33951	0.1
3.3803	0.034
3.4211	0.034
3.4619	0.035
3.50269	0.04
3.54349	0.139
3.58429	0.229
3.62509	0.282
3.66588	0.299
3.70668	0.29
3.74748	0.301
3.78827	0.309
3.82907	0.323
3.86987	0.316
3.91067	0.329
3.95146	0.34
3.99226	0.352
4.03306	0.357
4.07385	0.353
4.11465	0.353
4.15545	0.358
4.19624	0.362
4.23704	0.369
4.27784	0.37
4.31864	0.391
4.35943	0.403
4.40023	0.399
4.44103	0.399
4.48182	0.401
4.52262	0.404
4.56342	0.406
4.60422	0.411
4.64501	0.414
4.68581	0.426
4.72661	0.428
4.7674	0.438
4.8082	0.442
4.849	0.447
4.8898	0.452
4.93059	0.464
4.97139	0.454
5.01219	0.467
5.05298	0.472
5.09378	0.476
5.13458	0.472
5.17537	0.465
5.21617	0.457
5.25697	0.491
5.29777	0.498
5.33856	0.498
5.37936	0.488
5.42016	0.496
5.46095	0.505
5.50175	0.518
5.54255	0.498
5.58335	0.498
5.62414	0.517
5.66494	0.527
5.70574	0.518
5.74653	0.525
5.78733	0.54
5.82813	0.549
5.86893	0.549
5.90972	0.564
5.95052	0.566
5.99132	0.568
6.03211	0.569
6.07291	0.574
6.11371	0.585
6.1545	0.598
6.1953	0.518
6.2361	0.513
6.2769	0.515
6.31769	0.562
6.35849	0.571
6.39929	0.596
6.44008	0.588
6.48088	0.603
6.52168	0.61
6.56248	0.627
6.60327	0.632
6.64407	0.433
6.68487	0.224
6.72566	0.29
6.76646	0.124
6.80726	0.108
6.84805	0.095
6.88885	0.119
6.92965	0.27
6.97045	0.482
7.01124	0.566
7.05204	0.603
7.09284	0.612
7.13363	0.61
7.17443	0.549
7.21523	0.341
7.25603	0.171
7.29682	0.239
7.33762	0.302
7.37842	0.467
7.41921	0.527
7.46001	0.571
7.50081	0.588
7.54161	0.525
7.5824	0.505
7.6232	0.505
7.664	0.5
7.70479	0.564
7.74559	0.568
7.78639	0.6
7.82718	0.617
7.86798	0.651
7.90878	0.656
7.94958	0.598
7.99037	0.45
8.03117	0.362
8.07197	0.452
8.11276	0.534
8.15356	0.591
8.19436	0.615
8.23516	0.637
8.27595	0.59
8.31675	0.602
8.35755	0.63
8.39834	0.668
8.43914	0.69
8.47994	0.69
8.52073	0.675
8.56153	0.683
8.60233	0.709
8.64313	0.661
8.68392	0.698
8.72472	0.729
8.76552	0.738
8.80631	0.692
8.84711	0.559
8.88791	0.46
8.92871	0.425
8.9695	0.532
9.0103	0.595
9.0511	0.637
9.09189	0.678
9.13269	0.698
9.17349	0.717
9.21429	0.721
9.25508	0.61
9.29588	0.562
9.33668	0.52
9.37747	0.632
9.41827	0.702
9.45907	0.734
9.49986	0.748
9.54066	0.767
9.58146	0.773
9.62226	0.789
9.66305	0.732
9.70385	0.413
9.74465	0.539
9.78544	0.656
9.82624	0.717
9.86704	0.751
9.90784	0.778
9.94863	0.782
9.98943	0.799
10.0302	0.784
10.071	0.602
10.1118	0.505
10.1526	0.562
10.1934	0.607
10.2342	0.508
10.275	0.372
10.3158	0.355
10.3566	0.43
10.3974	0.5
10.4382	0.568
10.479	0.62
10.5198	0.661
10.5606	0.693
10.6014	0.712
10.6422	0.732
10.683	0.743
10.7238	0.76
10.7646	0.768
10.8054	0.778
10.8462	0.768
10.887	0.688
10.9278	0.653
10.9686	0.698
11.0094	0.704
11.0502	0.619
11.091	0.593
11.1317	0.673
11.1725	0.75
11.2133	0.77
11.2541	0.78
11.2949	0.787
11.3357	0.758
11.3765	0.68
11.4173	0.673
11.4581	0.731
11.4989	0.773
11.5397	0.799
11.5805	0.823
11.6213	0.828
11.6621	0.838
11.7029	0.841
11.7437	0.843
11.7845	0.841
11.8253	0.841
11.8661	0.828
11.9069	0.833
11.9477	0.858
11.9885	0.867
12.0293	0.872
12.0701	0.852
12.1109	0.823
12.1517	0.812
12.1925	0.819
12.2333	0.826
12.2741	0.833
12.3149	0.853
12.3557	0.869
12.3965	0.872
12.4373	0.863
12.4781	0.869
12.5188	0.892
12.5596	0.909
12.6004	0.925
12.6412	0.933
12.682	0.933
12.7228	0.937
12.7636	0.935
12.8044	0.938
12.8452	0.935
12.886	0.933
12.9268	0.928
12.9676	0.928
13.0084	0.921
13.0492	0.911
13.09	0.894
13.1308	0.853
13.1716	0.789
13.2124	0.688
13.2532	0.525
13.294	0.357
13.3348	0.236
13.3756	0.149
13.4164	0.119
13.4572	0.113
13.498	0.11
13.5388	0.112
13.5796	0.146
13.6204	0.214
13.6612	0.272
13.702	0.318
13.7428	0.346
13.7836	0.375
13.8244	0.443
13.8652	0.498
13.9059	0.551
13.9467	0.615
13.9875	0.67
14.0283	0.727
14.0691	0.751
14.1099	0.77
14.1507	0.758
14.1915	0.688
14.2323	0.547
14.2731	0.387
14.3139	0.251
14.3547	0.161
14.3955	0.136
14.4363	0.137
14.4771	0.178
14.5179	0.238
14.5587	0.299
14.5995	0.358
14.6403	0.409
14.6811	0.452
14.7219	0.486
14.7627	0.51
14.8035	0.525
14.8443	0.549
14.8851	0.556
14.9259	0.566
14.9667	0.552
15.0075	0.523
15.0483	0.513
15.0891	0.532
15.1299	0.566
15.1707	0.576
15.2115	0.576
15.2523	0.571
15.293	0.568
15.3338	0.556
15.3746	0.557
15.4154	0.549
15.4562	0.542
15.497	0.535
15.5378	0.527
15.5786	0.523
15.6194	0.517
15.6602	0.501
15.701	0.489
15.7418	0.484
15.7826	0.477
15.8234	0.462
15.8642	0.45
15.905	0.438
15.9458	0.423
