Infrared Spectrum: ETHYL-A-BENZYLACETOACETATE
Formula: C13 H16 O3
CAS: 620-79-1
Class: COBLENTZ
Instrument: Not specified, most likely a prism, grating, or hybrid spectrometer.
Sampling: TRANSMISSION
Path length: 0.0012 CM CELL
Resolution: 4
MICROMETERS	TRANSMITTANCE
2.014	0.89
2.04989	0.89
2.08579	0.89
2.12168	0.887
2.15757	0.88
2.19347	0.869
2.22936	0.875
2.26525	0.864
2.30114	0.848
2.33704	0.845
2.37293	0.852
2.40882	0.853
2.44472	0.848
2.48061	0.836
2.5165	0.85
2.5524	0.862
2.58829	0.864
2.62418	0.864
2.66007	0.871
2.69597	0.876
2.73186	0.871
2.76775	0.862
2.80365	0.853
2.83954	0.852
2.87543	0.836
2.91133	0.783
2.94722	0.802
2.98311	0.825
3.019	0.829
3.0549	0.832
3.09079	0.832
3.12668	0.829
3.16258	0.823
3.19847	0.802
3.23436	0.677
3.27026	0.558
3.30615	0.42
3.34204	0.271
3.37793	0.355
3.41383	0.399
3.44972	0.494
3.48561	0.621
3.52151	0.723
3.5574	0.776
3.59329	0.802
3.62919	0.813
3.66508	0.82
3.70097	0.836
3.73686	0.841
3.77276	0.848
3.80865	0.85
3.84454	0.85
3.88044	0.85
3.91633	0.852
3.95222	0.852
3.98812	0.852
4.02401	0.852
4.0599	0.852
4.09579	0.852
4.13169	0.852
4.16758	0.85
4.20347	0.848
4.23937	0.853
4.27526	0.86
4.31115	0.864
4.34705	0.853
4.38294	0.843
4.41883	0.848
4.45472	0.85
4.49062	0.852
4.52651	0.852
4.5624	0.852
4.5983	0.852
4.63419	0.852
4.67008	0.852
4.70598	0.852
4.74187	0.85
4.77776	0.85
4.81365	0.848
4.84955	0.839
4.88544	0.841
4.92133	0.839
4.95723	0.836
4.99312	0.829
5.02901	0.823
5.06491	0.809
5.1008	0.786
5.13669	0.776
5.17258	0.802
5.20848	0.815
5.24437	0.811
5.28026	0.79
5.31616	0.769
5.35205	0.776
5.38794	0.79
5.42384	0.801
5.45973	0.776
5.49562	0.741
5.53151	0.698
5.56741	0.679
5.6033	0.64
5.63919	0.542
5.67509	0.272
5.71098	0.058
5.74687	0.012
5.78277	0.008
5.81866	0.008
5.85455	0.01
5.89045	0.126
5.92634	0.299
5.96223	0.431
5.99812	0.515
6.03402	0.519
6.06991	0.443
6.1058	0.401
6.1417	0.468
6.17759	0.473
6.21348	0.45
6.24938	0.478
6.28527	0.603
6.32116	0.616
6.35705	0.695
6.39295	0.707
6.42884	0.718
6.46473	0.713
6.50063	0.714
6.53652	0.716
6.57241	0.714
6.60831	0.693
6.6442	0.637
6.68009	0.262
6.71598	0.357
6.75188	0.5
6.78777	0.408
6.82366	0.35
6.85956	0.297
6.89545	0.146
6.93134	0.177
6.96724	0.214
7.00313	0.267
7.03902	0.285
7.07491	0.313
7.11081	0.378
7.1467	0.362
7.18259	0.322
7.21849	0.297
7.25438	0.29
7.29027	0.204
7.32617	0.082
7.36206	0.073
7.39795	0.058
7.43384	0.165
7.46974	0.209
7.50563	0.195
7.54152	0.147
7.57742	0.142
7.61331	0.146
7.6492	0.146
7.6851	0.14
7.72099	0.133
7.75688	0.144
7.79277	0.146
7.82867	0.126
7.86456	0.084
7.90045	0.054
7.93635	0.019
7.97224	0.022
8.00813	0.019
8.04403	0.012
8.07992	0.021
8.11581	0.024
8.1517	0.024
8.1876	0.019
8.22349	0.015
8.25938	0.014
8.29528	0.014
8.33117	0.019
8.36706	0.035
8.40296	0.061
8.43885	0.079
8.47474	0.079
8.51063	0.072
8.54653	0.045
8.58242	0.028
8.61831	0.026
8.65421	0.022
8.6901	0.012
8.72599	0.014
8.76189	0.014
8.79778	0.019
8.83367	0.103
8.86956	0.228
8.90546	0.338
8.94135	0.39
8.97724	0.382
9.01314	0.355
9.04903	0.369
9.08492	0.375
9.12082	0.302
9.15671	0.248
9.1926	0.272
9.22849	0.292
9.26439	0.297
9.30028	0.346
9.33617	0.401
9.37207	0.366
9.40796	0.292
9.44385	0.244
9.47975	0.255
9.51564	0.316
9.55153	0.376
9.58743	0.399
9.62332	0.359
9.65921	0.286
9.6951	0.197
9.731	0.161
9.76689	0.165
9.80278	0.179
9.83868	0.188
9.87457	0.207
9.91046	0.274
9.94636	0.373
9.98225	0.445
10.0181	0.515
10.054	0.572
10.0899	0.591
10.1258	0.591
10.1617	0.591
10.1976	0.596
10.2335	0.603
10.2694	0.607
10.3053	0.6
10.3412	0.589
10.3771	0.589
10.413	0.591
10.4489	0.589
10.4848	0.579
10.5206	0.582
10.5565	0.612
10.5924	0.658
10.6283	0.7
10.6642	0.721
10.7001	0.737
10.736	0.744
10.7719	0.746
10.8078	0.737
10.8437	0.721
10.8796	0.702
10.9155	0.686
10.9514	0.681
10.9873	0.681
11.0231	0.695
11.059	0.713
11.0949	0.728
11.1308	0.737
11.1667	0.739
11.2026	0.742
11.2385	0.739
11.2744	0.737
11.3103	0.732
11.3462	0.721
11.3821	0.709
11.418	0.697
11.4539	0.681
11.4898	0.644
11.5256	0.596
11.5615	0.544
11.5974	0.51
11.6333	0.48
11.6692	0.457
11.7051	0.452
11.741	0.452
11.7769	0.484
11.8128	0.536
11.8487	0.575
11.8846	0.61
11.9205	0.647
11.9564	0.67
11.9923	0.677
12.0281	0.684
12.064	0.691
12.0999	0.698
12.1358	0.7
12.1717	0.711
12.2076	0.711
12.2435	0.711
12.2794	0.707
12.3153	0.698
12.3512	0.693
12.3871	0.681
12.423	0.658
12.4589	0.635
12.4948	0.614
12.5307	0.603
12.5665	0.6
12.6024	0.598
12.6383	0.6
12.6742	0.614
12.7101	0.632
12.746	0.642
12.7819	0.651
12.8178	0.667
12.8537	0.674
12.8896	0.677
12.9255	0.681
12.9614	0.681
12.9973	0.681
13.0332	0.667
13.069	0.646
13.1049	0.603
13.1408	0.526
13.1767	0.433
13.2126	0.32
13.2485	0.227
13.2844	0.156
13.3203	0.137
13.3562	0.132
13.3921	0.142
13.428	0.165
13.4639	0.216
13.4998	0.264
13.5357	0.306
13.5715	0.362
13.6074	0.389
13.6433	0.42
13.6792	0.443
13.7151	0.471
13.751	0.492
13.7869	0.505
13.8228	0.521
13.8587	0.544
13.8946	0.552
13.9305	0.565
13.9664	0.566
14.0023	0.563
14.0382	0.547
14.0741	0.494
14.1099	0.397
14.1458	0.32
14.1817	0.183
14.2176	0.109
14.2535	0.073
14.2894	0.056
14.3253	0.047
14.3612	0.08
14.3971	0.19
14.433	0.318
14.4689	0.433
14.5048	0.485
14.5407	0.524
14.5766	0.551
14.6124	0.575
14.6483	0.595
14.6842	0.6
14.7201	0.602
14.756	0.603
14.7919	0.602
14.8278	0.602
14.8637	0.602
14.8996	0.603
14.9355	0.605
14.9714	0.607
15.0073	0.609
15.0432	0.607
15.0791	0.602
15.1149	0.598
15.1508	0.598
15.1867	0.596
15.2226	0.596
15.2585	0.593
15.2944	0.591
15.3303	0.589
15.3662	0.589
15.4021	0.584
15.438	0.579
