Infrared Spectrum: Alpha-CHLORO-m-XYLENE
Formula: C8 H9 Cl
CAS: 620-19-9
State: SOLUTION (10% CCl4 FOR 5000-1330, 10% CS2 FOR 1330-625 CM^-^1)
Class: COBLENTZ
Instrument: Not specified, most likely a prism, grating, or hybrid spectrometer.
Sampling: TRANSMISSION
Path length: 0.0123 CM, 0.0120 CM
Resolution: 4
Origin: DOW CHEMICAL COMPANY
MICROMETERS	TRANSMITTANCE
2.014	0.868
2.05503	0.861
2.09607	0.856
2.1371	0.856
2.17814	0.857
2.21917	0.842
2.26021	0.84
2.30124	0.844
2.34228	0.856
2.38331	0.863
2.42435	0.852
2.46538	0.864
2.50642	0.864
2.54745	0.875
2.58849	0.876
2.62952	0.876
2.67056	0.878
2.71159	0.876
2.75263	0.863
2.79366	0.854
2.8347	0.847
2.87573	0.839
2.91677	0.839
2.9578	0.839
2.99884	0.839
3.03987	0.839
3.08091	0.839
3.12194	0.839
3.16298	0.823
3.20401	0.76
3.24505	0.66
3.28608	0.568
3.32712	0.628
3.36815	0.547
3.40918	0.652
3.45022	0.717
3.49125	0.825
3.53229	0.857
3.57332	0.864
3.61436	0.859
3.65539	0.859
3.69643	0.876
3.73746	0.881
3.7785	0.883
3.81953	0.88
3.86057	0.888
3.9016	0.881
3.94264	0.888
3.98367	0.886
4.02471	0.886
4.06574	0.886
4.10678	0.885
4.14781	0.89
4.18885	0.888
4.22988	0.881
4.27092	0.868
4.31195	0.869
4.35299	0.876
4.39402	0.888
4.43506	0.893
4.47609	0.897
4.51713	0.897
4.55816	0.898
4.5992	0.898
4.64023	0.9
4.68127	0.9
4.7223	0.9
4.76333	0.895
4.80437	0.9
4.8454	0.902
4.88644	0.897
4.92747	0.897
4.96851	0.897
5.00954	0.895
5.05058	0.898
5.09161	0.888
5.13265	0.857
5.17368	0.892
5.21472	0.892
5.25575	0.888
5.29679	0.878
5.33782	0.863
5.37886	0.863
5.41989	0.883
5.46093	0.892
5.50196	0.885
5.543	0.878
5.58403	0.868
5.62507	0.878
5.6661	0.873
5.70714	0.869
5.74817	0.885
5.78921	0.89
5.83024	0.876
5.87128	0.869
5.91231	0.864
5.95335	0.863
5.99438	0.861
6.03542	0.857
6.07645	0.844
6.11748	0.815
6.15852	0.669
6.19955	0.568
6.24059	0.609
6.28162	0.551
6.32266	0.578
6.36369	0.556
6.40473	0.498
6.44576	0.452
6.4868	0.496
6.52783	0.568
6.56887	0.595
6.6099	0.614
6.65094	0.599
6.69197	0.517
6.73301	0.631
6.77404	0.635
6.81508	0.58
6.85611	0.559
6.89715	0.535
6.93818	0.654
6.97922	0.722
7.02025	0.758
7.06129	0.782
7.10232	0.796
7.14336	0.808
7.18439	0.808
7.22543	0.748
7.26646	0.84
7.3075	0.852
7.34853	0.864
7.38956	0.864
7.4306	0.868
7.47163	0.863
7.51267	0.856
7.5537	0.833
7.59474	0.818
7.63577	0.806
7.67681	0.801
7.71784	0.785
7.75888	0.729
7.79991	0.604
7.84095	0.398
7.88198	0.481
7.92302	0.642
7.96405	0.707
8.00509	0.691
8.04612	0.799
8.08716	0.851
8.12819	0.866
8.16923	0.876
8.21026	0.881
8.2513	0.885
8.29233	0.89
8.33337	0.89
8.3744	0.886
8.41544	0.871
8.45647	0.854
8.49751	0.823
8.53854	0.808
8.57958	0.75
8.62061	0.688
8.66165	0.773
8.70268	0.82
8.74371	0.847
8.78475	0.875
8.82578	0.886
8.86682	0.89
8.90785	0.886
8.94889	0.875
8.98992	0.88
9.03096	0.878
9.07199	0.871
9.11303	0.821
9.15406	0.738
9.1951	0.761
9.23613	0.849
9.27717	0.871
9.3182	0.886
9.35924	0.886
9.40027	0.885
9.44131	0.88
9.48234	0.857
9.52338	0.828
9.56441	0.794
9.60545	0.779
9.64648	0.794
9.68752	0.833
9.72855	0.851
9.76959	0.864
9.81062	0.878
9.85166	0.881
9.89269	0.881
9.93373	0.878
9.97476	0.873
10.0158	0.871
10.0568	0.883
10.0979	0.892
10.1389	0.893
10.1799	0.902
10.221	0.9
10.262	0.895
10.303	0.89
10.3441	0.89
10.3851	0.902
10.4261	0.902
10.4672	0.902
10.5082	0.9
10.5492	0.897
10.5903	0.883
10.6313	0.868
10.6724	0.847
10.7134	0.82
10.7544	0.816
10.7955	0.837
10.8365	0.851
10.8775	0.857
10.9186	0.857
10.9596	0.851
11.0006	0.845
11.0417	0.849
11.0827	0.854
11.1237	0.854
11.1648	0.847
11.2058	0.827
11.2468	0.808
11.2879	0.767
11.3289	0.726
11.3699	0.691
11.411	0.688
11.452	0.729
11.493	0.744
11.5341	0.748
11.5751	0.748
11.6162	0.743
11.6572	0.738
11.6982	0.741
11.7393	0.761
11.7803	0.785
11.8213	0.816
11.8624	0.839
11.9034	0.842
11.9444	0.854
11.9855	0.868
12.0265	0.878
12.0675	0.88
12.1086	0.88
12.1496	0.876
12.1906	0.866
12.2317	0.851
12.2727	0.837
12.3137	0.83
12.3548	0.828
12.3958	0.832
12.4369	0.823
12.4779	0.808
12.5189	0.775
12.56	0.726
12.601	0.647
12.642	0.534
12.6831	0.419
12.7241	0.328
12.7651	0.309
12.8062	0.386
12.8472	0.465
12.8882	0.527
12.9293	0.577
12.9703	0.594
13.0113	0.618
13.0524	0.631
13.0934	0.642
13.1344	0.645
13.1755	0.647
13.2165	0.648
13.2575	0.642
13.2986	0.626
13.3396	0.607
13.3807	0.583
13.4217	0.546
13.4627	0.503
13.5038	0.445
13.5448	0.395
13.5858	0.38
13.6269	0.438
13.6679	0.476
13.7089	0.47
13.75	0.431
13.791	0.39
13.832	0.333
13.8731	0.265
13.9141	0.191
13.9551	0.109
13.9962	0.058
14.0372	0.025
14.0782	0.018
14.1193	0.049
14.1603	0.119
14.2013	0.21
14.2424	0.304
14.2834	0.381
14.3245	0.44
14.3655	0.47
14.4065	0.5
14.4476	0.513
14.4886	0.517
14.5296	0.503
14.5707	0.479
14.6117	0.445
14.6527	0.419
14.6938	0.409
14.7348	0.412
14.7758	0.441
14.8169	0.469
14.8579	0.486
14.8989	0.505
14.94	0.518
14.981	0.529
15.022	0.541
15.0631	0.537
15.1041	0.535
15.1452	0.53
15.1862	0.529
15.2272	0.517
15.2683	0.508
15.3093	0.505
15.3503	0.501
15.3914	0.5
15.4324	0.501
15.4734	0.501
15.5145	0.5
15.5555	0.5
15.5965	0.496
15.6376	0.493
15.6786	0.491
15.7196	0.491
15.7607	0.484
15.8017	0.481
15.8427	0.479
