Infrared Spectrum: Alpha-PHENOXYACETAMIDE
Formula: C8 H9 N O2
CAS: 621-88-5
State: SOLID (MINERAL OIL MULL)
Melting point: 101-102 C
Class: COBLENTZ
Instrument: Not specified, most likely a prism, grating, or hybrid spectrometer.
Sampling: TRANSMISSION
Resolution: 4
Origin: WYANDOTTE CHEMICALS CORP., WYANDOTTE, MICHIGAN, USA
MICROMETERS	TRANSMITTANCE
2.027	0.56
2.06683	0.567
2.10666	0.582
2.14649	0.587
2.18631	0.589
2.22614	0.595
2.26597	0.603
2.3058	0.612
2.34563	0.623
2.38546	0.618
2.42529	0.635
2.46512	0.64
2.50494	0.652
2.54477	0.66
2.5846	0.702
2.62443	0.673
2.66426	0.71
2.70409	0.712
2.74392	0.73
2.78375	0.747
2.82357	0.752
2.8634	0.648
2.90323	0.212
2.94306	0.564
2.98289	0.628
3.02272	0.602
3.06255	0.387
3.10238	0.342
3.1422	0.229
3.18203	0.188
3.22186	0.244
3.26169	0.277
3.30152	0.312
3.34135	0.168
3.38118	0.063
3.421	0.083
3.46083	0.173
3.50066	0.158
3.54049	0.49
3.58032	0.612
3.62015	0.642
3.65998	0.655
3.69981	0.675
3.73963	0.692
3.77946	0.71
3.81929	0.727
3.85912	0.74
3.89895	0.748
3.93878	0.753
3.97861	0.757
4.01844	0.772
4.05826	0.762
4.09809	0.762
4.13792	0.778
4.17775	0.785
4.21758	0.79
4.25741	0.782
4.29724	0.777
4.33707	0.793
4.37689	0.823
4.41672	0.841
4.45655	0.845
4.49638	0.851
4.53621	0.86
4.57604	0.863
4.61587	0.866
4.65569	0.871
4.69552	0.881
4.73535	0.89
4.77518	0.89
4.81501	0.891
4.85484	0.896
4.89467	0.866
4.9345	0.883
4.97432	0.901
5.01415	0.918
5.05398	0.916
5.09381	0.925
5.13364	0.931
5.17347	0.915
5.2133	0.871
5.25313	0.923
5.29295	0.943
5.33278	0.953
5.37261	0.943
5.41244	0.915
5.45227	0.888
5.4921	0.908
5.53193	0.888
5.57175	0.91
5.61158	0.885
5.65141	0.828
5.69124	0.815
5.73107	0.685
5.7709	0.505
5.81073	0.196
5.85056	0.081
5.89038	0.093
5.93021	0.096
5.97004	0.178
6.00987	0.387
6.0497	0.52
6.08953	0.582
6.12936	0.57
6.16919	0.417
6.20901	0.138
6.24884	0.131
6.28867	0.234
6.3285	0.457
6.36833	0.5
6.40816	0.612
6.44799	0.643
6.48782	0.76
6.52764	0.772
6.56747	0.72
6.6073	0.405
6.64713	0.166
6.68696	0.184
6.72679	0.231
6.76662	0.337
6.80644	0.292
6.84627	0.321
6.8861	0.387
6.92593	0.339
6.96576	0.344
7.00559	0.176
7.04542	0.128
7.08525	0.262
7.12507	0.45
7.1649	0.587
7.20473	0.572
7.24456	0.5
7.28439	0.625
7.32422	0.608
7.36405	0.201
7.40388	0.391
7.4437	0.54
7.48353	0.658
7.52336	0.703
7.56319	0.75
7.60302	0.782
7.64285	0.705
7.68268	0.615
7.72251	0.427
7.76233	0.575
7.80216	0.767
7.84199	0.727
7.88182	0.602
7.92165	0.397
7.96148	0.151
8.00131	0.063
8.04113	0.063
8.08096	0.069
8.12079	0.108
8.16062	0.168
8.20045	0.239
8.24028	0.311
8.28011	0.372
8.31994	0.442
8.35976	0.495
8.39959	0.529
8.43942	0.544
8.47925	0.337
8.51908	0.41
8.55891	0.514
8.59874	0.559
8.63857	0.442
8.67839	0.46
8.71822	0.544
8.75805	0.549
8.79788	0.532
8.83771	0.489
8.87754	0.419
8.91737	0.444
8.9572	0.527
8.99702	0.607
9.03685	0.647
9.07668	0.663
9.11651	0.637
9.15634	0.567
9.19617	0.357
9.236	0.336
9.27582	0.539
9.31565	0.652
9.35548	0.517
9.39531	0.211
9.43514	0.128
9.47497	0.193
9.5148	0.352
9.55463	0.462
9.59445	0.545
9.63428	0.618
9.67411	0.653
9.71394	0.675
9.75377	0.622
9.7936	0.635
9.83343	0.697
9.87326	0.73
9.91308	0.74
9.95291	0.747
9.99274	0.755
10.0326	0.742
10.0724	0.747
10.1122	0.773
10.1521	0.78
10.1919	0.782
10.2317	0.765
10.2715	0.727
10.3114	0.777
10.3512	0.797
10.391	0.798
10.4309	0.775
10.4707	0.737
10.5105	0.778
10.5503	0.808
10.5902	0.811
10.63	0.811
10.6698	0.808
10.7097	0.808
10.7495	0.806
10.7893	0.801
10.8291	0.798
10.869	0.795
10.9088	0.782
10.9486	0.755
10.9885	0.692
11.0283	0.7
11.0681	0.745
11.1079	0.768
11.1478	0.782
11.1876	0.765
11.2274	0.655
11.2673	0.437
11.3071	0.695
11.3469	0.768
11.3867	0.783
11.4266	0.787
11.4664	0.797
11.5062	0.806
11.5461	0.813
11.5859	0.811
11.6257	0.813
11.6655	0.815
11.7054	0.81
11.7452	0.803
11.785	0.797
11.8249	0.772
11.8647	0.733
11.9045	0.668
11.9443	0.57
11.9842	0.5
12.024	0.422
12.0638	0.376
12.1037	0.377
12.1435	0.362
12.1833	0.306
12.2231	0.299
12.263	0.321
12.3028	0.334
12.3426	0.377
12.3825	0.42
12.4223	0.445
12.4621	0.485
12.502	0.52
12.5418	0.56
12.5816	0.605
12.6214	0.638
12.6613	0.67
12.7011	0.692
12.7409	0.72
12.7808	0.727
12.8206	0.733
12.8604	0.735
12.9002	0.73
12.9401	0.717
12.9799	0.702
13.0197	0.673
13.0596	0.605
13.0994	0.444
13.1392	0.211
13.179	0.159
13.2189	0.232
13.2587	0.201
13.2985	0.153
13.3384	0.178
13.3782	0.291
13.418	0.445
13.4578	0.594
13.4977	0.685
13.5375	0.743
13.5773	0.775
13.6172	0.803
13.657	0.813
13.6968	0.818
13.7366	0.82
13.7765	0.821
13.8163	0.821
13.8561	0.821
13.896	0.821
13.9358	0.823
13.9756	0.831
14.0154	0.84
14.0553	0.84
14.0951	0.84
14.1349	0.838
14.1748	0.833
14.2146	0.823
14.2544	0.81
14.2942	0.78
14.3341	0.747
14.3739	0.672
14.4137	0.57
14.4536	0.425
14.4934	0.341
14.5332	0.334
14.573	0.452
14.6129	0.595
14.6527	0.685
14.6925	0.742
14.7324	0.762
14.7722	0.778
14.812	0.77
14.8518	0.767
14.8917	0.77
14.9315	0.762
14.9713	0.745
15.0112	0.71
15.051	0.663
15.0908	0.66
15.1306	0.708
15.1705	0.723
15.2103	0.723
15.2501	0.717
15.29	0.702
15.3298	0.692
15.3696	0.68
15.4094	0.672
15.4493	0.658
15.4891	0.645
15.5289	0.63
15.5688	0.633
15.6086	0.625
15.6484	0.617
15.6882	0.612
15.7281	0.597
15.7679	0.587
15.8077	0.575
15.8476	0.567
15.8874	0.555
15.9272	0.539
15.967	0.519
