Infrared Spectrum: ACETALDEHYDE, CHLORO-, DIETHYL ACETAL
Formula: C6 H13 Cl O2
CAS: 621-62-5
State: SOLUTION (10% CCl4 FOR 4000-1320, 10% CS2 FOR 1320-450 CM^-^1) VS SOLVENT
Class: COBLENTZ III
Instrument: CARY 90 (GRATING)
Instrument parameters: ORDER CHANGES: 3000, 2000, 1200 CM^-^1
Sampling: TRANSMISSION
Path length: 0.011 CM, AND 0.010 CM
Resolution: 2
Origin: WESTERN REGIONAL RES. USDA
1/CM	TRANSMITTANCE
3734	0.9345
3725	0.9341
3716	0.9338
3707	0.9339
3698	0.9342
3689	0.9347
3680	0.9353
3671	0.9342
3662	0.9327
3653	0.9286
3644	0.9245
3635	0.923
3626	0.922
3617	0.9213
3608	0.9207
3599	0.9192
3590	0.9175
3581	0.9158
3572	0.9139
3563	0.9124
3554	0.9121
3545	0.9121
3536	0.913
3527	0.9156
3518	0.9178
3509	0.9188
3500	0.9198
3491	0.92
3482	0.9191
3473	0.9181
3464	0.9182
3455	0.9185
3446	0.9188
3437	0.9206
3428	0.9225
3419	0.9245
3410	0.9267
3401	0.9287
3392	0.9295
3383	0.9302
3374	0.931
3365	0.9316
3356	0.9323
3347	0.9328
3338	0.9331
3329	0.933
3320	0.933
3311	0.9328
3302	0.9328
3293	0.9327
3284	0.9325
3275	0.9323
3266	0.9321
3257	0.9314
3248	0.93
3239	0.9285
3230	0.9271
3221	0.9259
3212	0.9259
3203	0.9258
3194	0.9251
3185	0.9262
3176	0.9275
3167	0.9289
3158	0.9268
3149	0.9236
3140	0.9204
3131	0.9181
3122	0.9159
3113	0.9134
3104	0.9107
3095	0.9071
3086	0.9028
3077	0.8981
3068	0.8935
3059	0.8883
3050	0.8793
3041	0.8464
3032	0.808
3023	0.773
3014	0.7067
3005	0.6461
2996	0.4137
2987	0.1799
2978	0.0447
2969	0.2196
2960	0.4166
2951	0.4734
2942	0.3498
2933	0.2393
2924	0.3093
2915	0.2644
2906	0.2372
2897	0.2477
2888	0.2349
2879	0.219
2870	0.2799
2861	0.436
2852	0.6078
2843	0.7184
2834	0.7525
2825	0.7715
2816	0.7851
2807	0.7933
2798	0.7967
2789	0.8028
2780	0.8246
2771	0.8407
2762	0.8475
2753	0.8525
2744	0.8568
2735	0.8631
2726	0.8795
2717	0.8947
2708	0.9021
2699	0.9046
2690	0.907
2681	0.9118
2672	0.9144
2663	0.9147
2654	0.9154
2645	0.9175
2636	0.9203
2627	0.9228
2618	0.924
2609	0.9254
2600	0.9283
2591	0.9312
2582	0.9337
2573	0.9359
2564	0.9381
2555	0.9395
2546	0.9406
2537	0.9417
2528	0.9425
2519	0.9425
2510	0.9425
2501	0.9425
2492	0.9417
2483	0.9409
2474	0.9402
2465	0.9393
2456	0.9385
2447	0.9375
2438	0.9368
2429	0.9363
2420	0.9359
2411	0.9356
2402	0.9361
2393	0.9375
2384	0.9395
2375	0.944
2366	0.9457
2357	0.9445
2348	0.9435
2339	0.9425
2330	0.9417
2321	0.9411
2312	0.9405
2303	0.9398
2294	0.9392
2285	0.9377
2276	0.9359
2267	0.9353
2258	0.936
2249	0.937
2240	0.938
2231	0.9389
2222	0.9393
2213	0.9394
2204	0.9384
2195	0.9366
2186	0.9349
2177	0.9331
2168	0.932
2159	0.9323
2150	0.9325
2141	0.933
2132	0.9337
2123	0.9343
2114	0.935
2105	0.9362
2096	0.9375
2087	0.9391
2078	0.9407
2069	0.9413
2060	0.9406
2051	0.9382
2042	0.9371
2033	0.9359
2024	0.9335
2015	0.9317
2006	0.9302
1997	0.9275
1988	0.923
1979	0.9173
1970	0.9115
1961	0.9085
1952	0.9135
1943	0.9185
1934	0.9217
1925	0.9244
1916	0.9265
1907	0.9283
1898	0.928
1889	0.927
1880	0.929
1871	0.9316
1862	0.9338
1853	0.9359
1844	0.9378
1835	0.9393
1826	0.9399
1817	0.9385
1808	0.9352
1799	0.9236
1790	0.9151
1781	0.9044
1772	0.8838
1763	0.8653
1754	0.8388
1745	0.789
1736	0.8019
1727	0.8782
1718	0.9045
1709	0.914
1700	0.9224
1691	0.928
1682	0.9332
1673	0.9292
1664	0.9273
1655	0.9244
1646	0.9203
1637	0.9145
1628	0.908
1619	0.9007
1610	0.8939
1601	0.8875
1592	0.8837
1583	0.8807
1574	0.8749
1565	0.8666
1556	0.862
1547	0.874
1538	0.8858
1529	0.8917
1520	0.8925
1511	0.8883
1502	0.8811
1493	0.8652
1484	0.6539
1475	0.7474
1466	0.7476
1457	0.5869
1448	0.4646
1439	0.5276
1430	0.432
1421	0.7571
1412	0.6826
1403	0.5895
1394	0.5035
1385	0.5245
1376	0.3055
1367	0.5846
1358	0.563
1349	0.4883
1340	0.4985
1331	0.7151
1322	0.8262
1313	0.8208
1304	0.7648
1295	0.7415
1286	0.7794
1277	0.7858
1268	0.7611
1259	0.6495
1250	0.7082
1241	0.7821
1232	0.7803
1223	0.6839
1214	0.4606
1205	0.445
1196	0.5344
1187	0.6112
1178	0.4999
1169	0.3018
1160	0.2395
1151	0.1964
1142	0.0546
1133	0.0362
1124	0.0458
1115	0.0575
1106	0.1304
1097	0.1948
1088	0.138
1079	0.0683
1070	0.009
1061	0.008
1052	0.0385
1043	0.1169
1034	0.2013
1025	0.1873
1016	0.2269
1007	0.3582
998	0.4706
989	0.5999
980	0.7588
971	0.8615
962	0.9021
953	0.9154
944	0.9216
935	0.8973
926	0.835
917	0.8771
908	0.8891
899	0.8153
890	0.751
881	0.8375
872	0.9202
863	0.936
854	0.9371
845	0.877
836	0.9018
827	0.838
818	0.764
809	0.8201
800	0.8155
791	0.743
782	0.6918
773	0.6903
764	0.1894
755	0.4941
746	0.8582
737	0.9314
728	0.9568
719	0.9588
710	0.9731
701	0.9862
692	0.9944
683	0.9943
674	0.9794
665	0.9594
656	0.9345
647	0.9587
638	0.9766
629	0.9921
620	1.0058
611	1.0041
602	0.9888
593	0.992
584	0.9996
575	0.9871
566	0.9631
557	0.9432
548	0.95
539	0.9675
530	0.9751
521	0.9809
512	0.9691
503	0.9621
