Infrared Spectrum: TRICAPROIN
Formula: C21 H38 O6
CAS: 621-70-5
State: SOLUTION (10% CCl4 FOR 2.0.7-7.6, 10% CS2 FOR 7.6-16.0 MICRON)
Class: COBLENTZ III
Instrument: PERKIN-ELMER 21 (GRATING)
Instrument parameters: NaCl PRISM
Sampling: TRANSMISSION
Path length: 0.010 CM, 0.010 CM
Resolution: 2
Origin: SMITH KLINE & FRENCH LABS.
MICROMETERS	TRANSMITTANCE
1.98	0.895
2.01887	0.895
2.05774	0.895
2.09661	0.894
2.13549	0.894
2.17436	0.892
2.21323	0.871
2.2521	0.849
2.29097	0.85
2.32984	0.859
2.36872	0.859
2.40759	0.862
2.44646	0.871
2.48533	0.882
2.5242	0.892
2.56307	0.898
2.60195	0.898
2.64082	0.898
2.67969	0.891
2.71856	0.883
2.75743	0.882
2.7963	0.868
2.83518	0.854
2.87405	0.845
2.91292	0.871
2.95179	0.877
2.99066	0.88
3.02953	0.882
3.06841	0.876
3.10728	0.871
3.14615	0.872
3.18502	0.872
3.22389	0.859
3.26276	0.837
3.30164	0.749
3.34051	0.419
3.37938	0.025
3.41825	0.185
3.45712	0.29
3.49599	0.66
3.53487	0.809
3.57374	0.844
3.61261	0.858
3.65148	0.853
3.69035	0.868
3.72922	0.871
3.7681	0.876
3.80697	0.884
3.84584	0.89
3.88471	0.894
3.92358	0.898
3.96245	0.9
4.00133	0.901
4.0402	0.901
4.07907	0.897
4.11794	0.9
4.15681	0.9
4.19568	0.9
4.23456	0.896
4.27343	0.895
4.3123	0.898
4.35117	0.9
4.39004	0.9
4.42891	0.901
4.46779	0.902
4.50666	0.902
4.54553	0.903
4.5844	0.902
4.62327	0.9
4.66214	0.897
4.70102	0.896
4.73989	0.894
4.77876	0.892
4.81763	0.889
4.8565	0.884
4.89537	0.882
4.93424	0.884
4.97312	0.889
5.01199	0.894
5.05086	0.898
5.08973	0.896
5.1286	0.894
5.16747	0.898
5.20635	0.894
5.24522	0.897
5.28409	0.9
5.32296	0.894
5.36183	0.878
5.4007	0.865
5.43958	0.851
5.47845	0.829
5.51732	0.8
5.55619	0.759
5.59506	0.681
5.63393	0.519
5.67281	0.191
5.71168	0.018
5.75055	0.009
5.78942	0.191
5.82829	0.45
5.86716	0.601
5.90604	0.69
5.94491	0.777
5.98378	0.818
6.02265	0.841
6.06152	0.848
6.10039	0.861
6.13927	0.864
6.17814	0.867
6.21701	0.88
6.25588	0.902
6.29475	0.92
6.33362	0.921
6.3725	0.924
6.41137	0.933
6.45024	0.932
6.48911	0.927
6.52798	0.916
6.56685	0.9
6.60573	0.886
6.6446	0.867
6.68347	0.847
6.72234	0.788
6.76121	0.672
6.80008	0.377
6.83896	0.262
6.87783	0.406
6.9167	0.474
6.95557	0.549
6.99444	0.56
7.03331	0.517
7.07219	0.608
7.11106	0.632
7.14993	0.599
7.1888	0.529
7.22767	0.344
7.26654	0.351
7.30542	0.403
7.34429	0.409
7.38316	0.418
7.42203	0.423
7.4609	0.469
7.49977	0.51
7.53865	0.45
7.57752	0.4
7.61639	0.392
7.65526	0.404
7.69413	0.382
7.733	0.341
7.77187	0.335
7.81075	0.339
7.84962	0.321
7.88849	0.316
7.92736	0.322
7.96623	0.269
8.0051	0.178
8.04398	0.117
8.08285	0.113
8.12172	0.114
8.16059	0.119
8.19946	0.139
8.23833	0.162
8.27721	0.179
8.31608	0.219
8.35495	0.239
8.39382	0.219
8.43269	0.128
8.47156	0.057
8.51044	0.01
8.54931	0
8.58818	0
8.62705	0
8.66592	0
8.70479	0
8.74367	0.062
8.78254	0.168
8.82141	0.282
8.86028	0.342
8.89915	0.341
8.93802	0.257
8.9769	0.144
9.01577	0.078
9.05464	0.066
9.09351	0.056
9.13238	0.05
9.17125	0.077
9.21013	0.175
9.249	0.339
9.28787	0.416
9.32674	0.429
9.36561	0.429
9.40448	0.438
9.44336	0.471
9.48223	0.528
9.5211	0.558
9.55997	0.557
9.59884	0.539
9.63771	0.518
9.67659	0.509
9.71546	0.527
9.75433	0.549
9.7932	0.554
9.83207	0.557
9.87094	0.57
9.90982	0.592
9.94869	0.608
9.98756	0.613
10.0264	0.613
10.0653	0.613
10.1042	0.612
10.143	0.6
10.1819	0.594
10.2208	0.59
10.2597	0.588
10.2985	0.572
10.3374	0.56
10.3763	0.557
10.4151	0.564
10.454	0.599
10.4929	0.637
10.5318	0.673
10.5706	0.709
10.6095	0.729
10.6484	0.737
10.6872	0.744
10.7261	0.746
10.765	0.746
10.8039	0.747
10.8427	0.746
10.8816	0.737
10.9205	0.723
10.9593	0.719
10.9982	0.72
11.0371	0.718
11.076	0.709
11.1148	0.706
11.1537	0.705
11.1926	0.709
11.2315	0.713
11.2703	0.713
11.3092	0.713
11.3481	0.713
11.3869	0.714
11.4258	0.717
11.4647	0.72
11.5036	0.725
11.5424	0.728
11.5813	0.729
11.6202	0.73
11.659	0.731
11.6979	0.736
11.7368	0.744
11.7757	0.754
11.8145	0.761
11.8534	0.771
11.8923	0.777
11.9311	0.782
11.97	0.791
12.0089	0.801
12.0478	0.809
12.0866	0.817
12.1255	0.827
12.1644	0.835
12.2032	0.839
12.2421	0.844
12.281	0.849
12.3199	0.851
12.3587	0.851
12.3976	0.853
12.4365	0.85
12.4753	0.847
12.5142	0.845
12.5531	0.844
12.592	0.844
12.6308	0.844
12.6697	0.843
12.7086	0.842
12.7474	0.838
12.7863	0.839
12.8252	0.839
12.8641	0.839
12.9029	0.839
12.9418	0.839
12.9807	0.842
13.0195	0.843
13.0584	0.842
13.0973	0.842
13.1362	0.842
13.175	0.842
13.2139	0.842
13.2528	0.836
13.2916	0.821
13.3305	0.812
13.3694	0.801
13.4083	0.785
13.4471	0.772
13.486	0.753
13.5249	0.725
13.5637	0.702
13.6026	0.684
13.6415	0.678
13.6804	0.684
13.7192	0.711
13.7581	0.723
13.797	0.749
13.8359	0.772
13.8747	0.791
13.9136	0.809
13.9525	0.818
13.9913	0.821
14.0302	0.829
14.0691	0.831
14.108	0.833
14.1468	0.838
14.1857	0.838
14.2246	0.838
14.2634	0.839
14.3023	0.843
14.3412	0.845
14.3801	0.845
14.4189	0.847
14.4578	0.849
14.4967	0.849
14.5355	0.85
14.5744	0.849
14.6133	0.85
14.6522	0.851
14.691	0.853
14.7299	0.853
14.7688	0.854
14.8076	0.851
14.8465	0.851
14.8854	0.849
14.9243	0.845
14.9631	0.845
15.002	0.844
15.0409	0.843
15.0797	0.839
15.1186	0.836
15.1575	0.835
15.1964	0.83
15.2352	0.824
15.2741	0.821
15.313	0.819
15.3518	0.819
15.3907	0.814
15.4296	0.813
15.4685	0.814
15.5073	0.813
15.5462	0.811
15.5851	0.803
15.6239	0.801
15.6628	0.8
15.7017	0.797
15.7406	0.791
15.7794	0.79
15.8183	0.789
