Infrared Spectrum: CARBAMIC ACID, BENZYL ESTER
Formula: C8 H9 N O2
CAS: 621-84-1
State: SOLID (0.8 mg / 650 mg KBr DISC)
Class: COBLENTZ III
Instrument: PERKIN-ELMER 21 (GRATING)
Instrument parameters: FILTER CHANGE AT 1020 CM^-^1
Sampling: TRANSMISSION
Resolution: 2
Origin: SOUTHERN RESEARCH INSTITUTE (W.C. COBURN, JR.)
1/CM	TRANSMITTANCE
611.853	0.655
621.003	0.661
630.154	0.668
639.304	0.6855
648.454	0.7108
657.605	0.716
666.755	0.7143
675.905	0.7061
685.056	0.6713
694.206	0.5449
703.356	0.6614
712.507	0.644
721.657	0.51
730.807	0.3356
739.958	0.418
749.108	0.7806
758.258	0.791
767.409	0.7811
776.559	0.6834
785.709	0.6402
794.859	0.7827
804.01	0.8102
813.16	0.826
822.31	0.8252
831.461	0.822
840.611	0.8186
849.761	0.8137
858.912	0.8047
868.062	0.7583
877.212	0.7111
886.363	0.7714
895.513	0.7588
904.663	0.6687
913.814	0.706
922.964	0.818
932.114	0.816
941.265	0.809
950.415	0.7999
959.565	0.791
968.716	0.7742
977.866	0.7513
987.016	0.739
996.167	0.7274
1005.32	0.6945
1014.47	0.6589
1023.62	0.6007
1032.77	0.6244
1041.92	0.5919
1051.07	0.5221
1060.22	0.3913
1069.37	0.2199
1078.52	0.2857
1087.67	0.2552
1096.82	0.44
1105.97	0.6181
1115.12	0.5505
1124.27	0.4971
1133.42	0.6351
1142.57	0.655
1151.72	0.6568
1160.87	0.663
1170.02	0.658
1179.17	0.6515
1188.32	0.646
1197.47	0.6414
1206.62	0.584
1215.77	0.631
1224.92	0.629
1234.08	0.6128
1243.23	0.5966
1252.38	0.5883
1261.53	0.5747
1270.68	0.5668
1279.83	0.5675
1288.98	0.5646
1298.13	0.5395
1307.28	0.479
1316.43	0.4641
1325.58	0.3643
1334.73	0.2663
1343.88	0.2025
1353.03	0.2388
1362.18	0.3455
1371.33	0.6415
1380.48	0.604
1389.63	0.416
1398.78	0.2746
1407.93	0.2219
1417.08	0.2398
1426.23	0.4361
1435.38	0.575
1444.53	0.3077
1453.68	0.4394
1462.83	0.6403
1471.98	0.6943
1481.13	0.7028
1490.28	0.6533
1499.43	0.6355
1508.58	0.7636
1517.74	0.773
1526.89	0.7712
1536.04	0.7643
1545.19	0.758
1554.34	0.7194
1563.49	0.7064
1572.64	0.673
1581.79	0.5996
1590.94	0.5728
1600.09	0.4403
1609.24	0.3782
1618.39	0.395
1627.54	0.5922
1636.69	0.5815
1645.84	0.4872
1654.99	0.416
1664.14	0.3355
1673.29	0.1829
1682.44	0.0993
1691.59	0.1243
1700.74	0.2257
1709.89	0.2977
1719.04	0.3877
1728.19	0.4764
1737.34	0.5481
1746.49	0.6021
1755.64	0.6526
1764.79	0.6962
1773.94	0.7258
1783.09	0.7596
1792.24	0.7777
1801.4	0.787
1810.55	0.7942
1819.7	0.8094
1828.85	0.824
1838	0.833
1847.15	0.8389
1856.3	0.839
1865.45	0.839
1874.6	0.8398
1883.75	0.8549
1892.9	0.861
1902.05	0.861
1911.2	0.858
1920.35	0.856
1929.5	0.852
1938.65	0.8392
1947.8	0.829
1956.95	0.8333
1966.1	0.8405
1975.25	0.8494
1984.4	0.852
1993.55	0.855
2002.7	0.857
2011.85	0.8611
2021	0.866
2030.15	0.869
2039.3	0.8701
2048.45	0.874
2057.6	0.8731
2066.75	0.8741
2075.9	0.875
2085.06	0.875
2094.21	0.877
2103.36	0.877
2112.51	0.875
2121.66	0.875
2130.81	0.871
2139.96	0.873
2149.11	0.874
2158.26	0.874
2167.41	0.874
2176.56	0.87
2185.71	0.869
2194.86	0.868
2204.01	0.861
2213.16	0.8579
2222.31	0.857
2231.46	0.857
2240.61	0.858
2249.76	0.8579
2258.91	0.857
2268.06	0.856
2277.21	0.8529
2286.36	0.8518
2295.51	0.849
2304.66	0.8429
2313.81	0.842
2322.96	0.842
2332.11	0.842
2341.26	0.846
2350.41	0.8481
2359.56	0.849
2368.72	0.8521
2377.87	0.853
2387.02	0.8519
2396.17	0.852
2405.32	0.851
2414.47	0.847
2423.62	0.843
2432.77	0.842
2441.92	0.842
2451.07	0.84
2460.22	0.839
2469.37	0.8391
2478.52	0.84
2487.67	0.8391
2496.82	0.8421
2505.97	0.842
2515.12	0.842
2524.27	0.84
2533.42	0.8399
2542.57	0.8389
2551.72	0.836
2560.87	0.836
2570.02	0.836
2579.17	0.836
2588.32	0.8339
2597.47	0.8309
2606.62	0.83
2615.77	0.83
2624.92	0.829
2634.07	0.827
2643.23	0.826
2652.38	0.826
2661.53	0.8249
2670.68	0.821
2679.83	0.8169
2688.98	0.8089
2698.13	0.8039
2707.28	0.8
2716.43	0.799
2725.58	0.799
2734.73	0.798
2743.88	0.7949
2753.03	0.787
2762.18	0.7739
2771.33	0.7579
2780.48	0.7418
2789.63	0.734
2798.78	0.7331
2807.93	0.739
2817.08	0.742
2826.23	0.742
2835.38	0.742
2844.53	0.739
2853.68	0.7389
2862.83	0.738
2871.98	0.734
2881.13	0.7319
2890.28	0.727
2899.43	0.7198
2908.58	0.7099
2917.73	0.6989
2926.89	0.6878
2936.04	0.681
2945.19	0.681
2954.34	0.683
2963.49	0.684
2972.64	0.684
2981.79	0.6787
2990.94	0.6537
3000.09	0.6279
3009.24	0.6168
3018.39	0.6079
3027.54	0.609
3036.69	0.6151
3045.84	0.6261
3054.99	0.635
3064.14	0.64
3073.29	0.639
3082.44	0.635
3091.59	0.6299
3100.74	0.623
3109.89	0.6189
3119.04	0.6099
3128.19	0.5998
3137.34	0.5919
3146.49	0.5778
3155.64	0.5557
3164.79	0.5196
3173.94	0.4898
3183.09	0.4679
3192.24	0.457
3201.39	0.4591
3210.55	0.464
3219.7	0.4639
3228.85	0.455
3238	0.4387
3247.15	0.4096
3256.3	0.3755
3265.45	0.3509
3274.6	0.3541
3283.75	0.3671
3292.9	0.382
3302.05	0.3839
3311.2	0.3758
3320.35	0.3577
3329.5	0.3359
3338.65	0.327
3347.8	0.331
3356.95	0.3572
3366.1	0.367
3375.25	0.3629
3384.4	0.3449
3393.55	0.3237
3402.7	0.2887
3411.85	0.265
3421	0.2609
3430.15	0.2601
3439.3	0.2724
3448.45	0.3155
3457.6	0.3664
3466.75	0.416
3475.9	0.4826
3485.05	0.5566
3494.21	0.6286
3503.36	0.6813
3512.51	0.7064
3521.66	0.7343
3530.81	0.7741
3539.96	0.7931
3549.11	0.8031
3558.26	0.815
3567.41	0.818
3576.56	0.82
3585.71	0.8221
3594.86	0.8311
3604.01	0.8361
3613.16	0.84
3622.31	0.842
3631.46	0.843
3640.61	0.848
3649.76	0.849
3658.91	0.849
3668.06	0.849
3677.21	0.849
3686.36	0.851
3695.51	0.851
3704.66	0.851
3713.81	0.851
3722.96	0.851
3732.11	0.851
3741.26	0.852
3750.41	0.851
3759.56	0.852
3768.71	0.852
3777.87	0.852
3787.02	0.852
3796.17	0.852
3805.32	0.852
3814.47	0.852
3823.62	0.851
3832.77	0.853
3841.92	0.852
3851.07	0.852
3860.22	0.852
3869.37	0.852
3878.52	0.852
3887.67	0.853
3896.82	0.853
3905.97	0.853
3915.12	0.853
3924.27	0.853
3933.42	0.853
3942.57	0.853
3951.72	0.853
3960.87	0.853
3970.02	0.853
3979.17	0.853
3988.32	0.853
3997.47	0.853
4006.62	0.853
4015.77	0.853
4024.92	0.853
