Infrared Spectrum: ETHANOL, Alpha-METHYL-2-THIOPHENE-
Formula: C7 H10 O S
CAS: 62119-81-7
State: LIQUID (NEAT)
Class: COBLENTZ III
Instrument: DOW KBr FOREPRISM-GRATING
Instrument parameters: BLAZED AT 3.5, 12.0, 20.0 MICRON AND CHANGED AT 5.0, 7.5, 14.9 MICRON
Sampling: TRANSMISSION
Path length: CAPILLARY
Resolution: 2
Origin: DOW CHEMICAL COMPANY
1/CM	TRANSMITTANCE
458	0.6637
467	0.6601
476	0.6556
485	0.6486
494	0.6324
503	0.5616
512	0.594
521	0.6937
530	0.6988
539	0.6941
548	0.6933
557	0.6924
566	0.679
575	0.6858
584	0.6903
593	0.6897
602	0.6801
611	0.6708
620	0.6603
629	0.6858
638	0.691
647	0.6941
656	0.6936
665	0.6801
674	0.6421
683	0.4384
692	0.1708
701	0.186
710	0.3377
719	0.5338
728	0.6396
737	0.7053
746	0.7153
755	0.7733
764	0.7884
773	0.7897
782	0.8025
791	0.8024
800	0.7824
809	0.6451
818	0.4798
827	0.6685
836	0.6932
845	0.6234
854	0.5179
863	0.8121
872	0.8321
881	0.8178
890	0.7924
899	0.8133
908	0.8148
917	0.796
926	0.7168
935	0.4314
944	0.5359
953	0.7922
962	0.8273
971	0.8316
980	0.8271
989	0.8194
998	0.8151
1007	0.7978
1016	0.7618
1025	0.6633
1034	0.6399
1043	0.5674
1052	0.4617
1061	0.5087
1070	0.4574
1079	0.3823
1088	0.4587
1097	0.553
1106	0.4775
1115	0.4225
1124	0.4228
1133	0.5365
1142	0.5629
1151	0.5364
1160	0.688
1169	0.7911
1178	0.7917
1187	0.7896
1196	0.7461
1205	0.6858
1214	0.7271
1223	0.7667
1232	0.7364
1241	0.6567
1250	0.5396
1259	0.5947
1268	0.6476
1277	0.6554
1286	0.6433
1295	0.659
1304	0.6542
1313	0.6514
1322	0.6632
1331	0.6978
1340	0.7012
1349	0.6467
1358	0.6682
1367	0.5867
1376	0.5088
1385	0.6329
1394	0.6376
1403	0.6351
1412	0.6285
1421	0.6238
1430	0.591
1439	0.53
1448	0.5944
1457	0.5628
1466	0.7164
1475	0.7858
1484	0.8158
1493	0.8406
1502	0.8405
1511	0.8411
1520	0.8441
1529	0.8311
1538	0.8015
1547	0.8551
1556	0.865
1565	0.8681
1574	0.8598
1583	0.8525
1592	0.8468
1601	0.8532
1610	0.8505
1619	0.8433
1628	0.8363
1637	0.8299
1646	0.8252
1655	0.8101
1664	0.8118
1673	0.8186
1682	0.8275
1691	0.8385
1700	0.8445
1709	0.8439
1718	0.8492
1727	0.8582
1736	0.8655
1745	0.868
1754	0.8704
1763	0.8721
1772	0.8671
1781	0.856
1790	0.8574
1799	0.8671
1808	0.878
1817	0.8836
1826	0.8862
1835	0.8873
1844	0.8868
1853	0.8856
1862	0.8838
1871	0.8824
1880	0.8814
1889	0.8812
1898	0.8818
1907	0.8839
1916	0.8858
1925	0.8867
1934	0.8857
1943	0.8849
1952	0.8843
1961	0.8839
1970	0.8836
1979	0.8828
1988	0.8811
1997	0.9094
2006	0.9283
2015	0.9292
2024	0.9297
2033	0.9292
2042	0.9289
2051	0.9286
2060	0.9285
2069	0.9284
2078	0.928
2087	0.9274
2096	0.927
2105	0.9262
2114	0.9255
2123	0.9248
2132	0.9241
2141	0.9234
2150	0.9228
2159	0.9221
2168	0.9216
2177	0.9218
2186	0.9223
2195	0.9225
2204	0.9227
2213	0.9223
2222	0.9218
2231	0.9221
2240	0.9238
2249	0.9241
2258	0.9234
2267	0.9225
2276	0.9218
2285	0.9214
2294	0.9211
2303	0.9244
2312	0.9239
2321	0.9194
2330	0.9177
2339	0.9178
2348	0.9204
2357	0.922
2366	0.9208
2375	0.9171
2384	0.9134
2393	0.9107
2402	0.909
2411	0.9071
2420	0.9059
2429	0.9047
2438	0.9035
2447	0.9021
2456	0.9009
2465	0.8997
2474	0.8986
2483	0.8975
2492	0.8965
2501	0.8955
2510	0.8945
2519	0.8934
2528	0.8924
2537	0.8915
2546	0.8906
2555	0.8897
2564	0.8888
2573	0.8868
2582	0.8847
2591	0.8825
2600	0.8808
2609	0.8797
2618	0.8786
2627	0.8762
2636	0.8732
2645	0.8701
2654	0.868
2663	0.867
2672	0.8673
2681	0.8678
2690	0.8644
2699	0.8595
2708	0.8545
2717	0.8513
2726	0.8491
2735	0.8485
2744	0.8493
2753	0.8495
2762	0.8481
2771	0.8439
2780	0.8395
2789	0.8334
2798	0.8274
2807	0.8182
2816	0.8091
2825	0.799
2834	0.7826
2843	0.7319
2852	0.6931
2861	0.6744
2870	0.6422
2879	0.596
2888	0.5908
2897	0.5828
2906	0.5394
2915	0.4993
2924	0.4908
2933	0.4633
2942	0.5542
2951	0.6624
2960	0.5747
2969	0.4412
2978	0.3849
2987	0.5057
2996	0.6372
3005	0.8111
3014	0.8284
3023	0.8298
3032	0.8242
3041	0.8101
3050	0.8003
3059	0.798
3068	0.7471
3077	0.7301
3086	0.7538
3095	0.7547
3104	0.7091
3113	0.7104
3122	0.7569
3131	0.7598
3140	0.7546
3149	0.7428
3158	0.7265
3167	0.7115
3176	0.6945
3185	0.6775
3194	0.6601
3203	0.641
3212	0.6216
3221	0.6019
3230	0.5749
3239	0.5489
3248	0.5228
3257	0.4942
3266	0.4672
3275	0.4474
3284	0.429
3293	0.4124
3302	0.3968
3311	0.3826
3320	0.3702
3329	0.3579
3338	0.3466
3347	0.3373
3356	0.3295
3365	0.3246
3374	0.3234
3383	0.3249
3392	0.3275
3401	0.3334
3410	0.3416
3419	0.3506
3428	0.3598
3437	0.3775
3446	0.4014
3455	0.4273
3464	0.4454
3473	0.4674
3482	0.4998
3491	0.531
3500	0.5599
3509	0.5875
3518	0.6112
3527	0.6199
3536	0.6233
3545	0.6266
3554	0.6379
3563	0.6595
3572	0.6944
3581	0.7247
3590	0.7561
3599	0.7815
3608	0.8039
3617	0.8181
3626	0.827
3635	0.8343
3644	0.8413
3653	0.8489
3662	0.8571
3671	0.8645
3680	0.8675
3689	0.8677
3698	0.8678
3707	0.87
3716	0.8733
3725	0.8748
3734	0.875
3743	0.8744
3752	0.8736
3761	0.8725
3770	0.8713
3779	0.8699
3788	0.8685
3797	0.8668
