Infrared Spectrum: P-ETHOXY PHENOL
Formula: C8 H10 O2
CAS: 622-62-8
State: SOLUTION (10% CCl4 FOR 5000-1330, 10% CS2 FOR 1330-625 CM^-^1)
Class: COBLENTZ
Instrument: Not specified, most likely a prism, grating, or hybrid spectrometer.
Sampling: TRANSMISSION
Path length: 0.0126 CM, 0.0120 CM
Resolution: 4
Origin: DOW CHEMICAL COMPANY
MICROMETERS	TRANSMITTANCE
2.034	0.837
2.07508	0.841
2.11615	0.841
2.15723	0.854
2.1983	0.858
2.23938	0.841
2.28046	0.844
2.32153	0.849
2.36261	0.861
2.40369	0.858
2.44476	0.858
2.48584	0.868
2.52691	0.868
2.56799	0.859
2.60907	0.866
2.65014	0.871
2.69122	0.863
2.7323	0.786
2.77337	0.63
2.81445	0.555
2.85552	0.427
2.8966	0.232
2.93768	0.16
2.97875	0.181
3.01983	0.225
3.0609	0.29
3.10198	0.393
3.14306	0.528
3.18413	0.6
3.22521	0.651
3.26629	0.62
3.30736	0.57
3.34844	0.367
3.38951	0.502
3.43059	0.441
3.47167	0.56
3.51274	0.755
3.55382	0.779
3.5949	0.81
3.63597	0.805
3.67705	0.818
3.71812	0.827
3.7592	0.846
3.80028	0.846
3.84135	0.841
3.88243	0.851
3.9235	0.847
3.96458	0.854
4.00566	0.832
4.04673	0.835
4.08781	0.858
4.12889	0.873
4.16996	0.882
4.21104	0.863
4.25211	0.866
4.29319	0.887
4.33427	0.888
4.37534	0.895
4.41642	0.924
4.4575	0.931
4.49857	0.933
4.53965	0.931
4.58072	0.933
4.6218	0.929
4.66288	0.928
4.70395	0.928
4.74503	0.926
4.78611	0.902
4.82718	0.888
4.86826	0.882
4.90933	0.89
4.95041	0.873
4.99149	0.871
5.03256	0.875
5.07364	0.882
5.11471	0.895
5.15579	0.902
5.19687	0.894
5.23794	0.911
5.27902	0.885
5.3201	0.871
5.36117	0.837
5.40225	0.825
5.44332	0.878
5.4844	0.89
5.52548	0.895
5.56655	0.911
5.60763	0.923
5.64871	0.917
5.68978	0.902
5.73086	0.88
5.77193	0.88
5.81301	0.888
5.85409	0.894
5.89516	0.888
5.93624	0.873
5.97731	0.873
6.01839	0.861
6.05947	0.839
6.10054	0.798
6.14162	0.745
6.1827	0.666
6.22377	0.579
6.26485	0.579
6.30592	0.557
6.347	0.516
6.38808	0.458
6.42915	0.393
6.47023	0.394
6.51131	0.37
6.55238	0.259
6.59346	0.087
6.63453	0.073
6.67561	0.261
6.71669	0.329
6.75776	0.246
6.79884	0.42
6.83991	0.27
6.88099	0.176
6.92207	0.215
6.96314	0.417
7.00422	0.582
7.0453	0.67
7.08637	0.586
7.12745	0.364
7.16852	0.299
7.2096	0.466
7.25068	0.468
7.29175	0.418
7.33283	0.384
7.37391	0.37
7.41498	0.413
7.45606	0.441
7.49713	0.5
7.53821	0.594
7.57929	0.606
7.62036	0.529
7.66144	0.495
7.70251	0.461
7.74359	0.56
7.78467	0.574
7.82574	0.543
7.86682	0.456
7.9079	0.379
7.94897	0.307
7.99005	0.241
8.03112	0.094
8.0722	0.02
8.11328	0.015
8.15435	0.022
8.19543	0.039
8.23651	0.047
8.27758	0.056
8.31866	0.105
8.35973	0.179
8.40081	0.225
8.44189	0.215
8.48296	0.165
8.52404	0.143
8.56512	0.215
8.60619	0.311
8.64727	0.439
8.68834	0.524
8.72942	0.579
8.7705	0.6
8.81157	0.605
8.85265	0.582
8.89372	0.485
8.9348	0.28
8.97588	0.259
9.01695	0.427
9.05803	0.441
9.09911	0.4
9.14018	0.463
9.18126	0.512
9.22233	0.582
9.26341	0.627
9.30449	0.632
9.34556	0.601
9.38664	0.536
9.42772	0.415
9.46879	0.23
9.50987	0.14
9.55094	0.188
9.59202	0.299
9.6331	0.369
9.67417	0.471
9.71525	0.56
9.75632	0.61
9.7974	0.654
9.83848	0.695
9.87955	0.671
9.92063	0.687
9.96171	0.75
10.0028	0.764
10.0439	0.774
10.0849	0.781
10.126	0.789
10.1671	0.793
10.2082	0.798
10.2492	0.801
10.2903	0.801
10.3314	0.8
10.3725	0.796
10.4135	0.791
10.4546	0.786
10.4957	0.779
10.5368	0.77
10.5778	0.76
10.6189	0.745
10.66	0.724
10.7011	0.68
10.7422	0.605
10.7832	0.497
10.8243	0.415
10.8654	0.492
10.9065	0.582
10.9475	0.61
10.9886	0.63
11.0297	0.634
11.0708	0.629
11.1118	0.627
11.1529	0.632
11.194	0.646
11.2351	0.644
11.2761	0.641
11.3172	0.637
11.3583	0.627
11.3994	0.617
11.4404	0.605
11.4815	0.594
11.5226	0.581
11.5637	0.569
11.6048	0.552
11.6458	0.529
11.6869	0.502
11.728	0.478
11.7691	0.447
11.8101	0.434
11.8512	0.439
11.8923	0.415
11.9334	0.353
11.9744	0.27
12.0155	0.189
12.0566	0.131
12.0977	0.088
12.1387	0.061
12.1798	0.049
12.2209	0.092
12.262	0.217
12.303	0.369
12.3441	0.473
12.3852	0.519
12.4263	0.541
12.4674	0.545
12.5084	0.535
12.5495	0.526
12.5906	0.509
12.6317	0.509
12.6727	0.533
12.7138	0.569
12.7549	0.598
12.796	0.617
12.837	0.632
12.8781	0.637
12.9192	0.632
12.9603	0.615
13.0013	0.6
13.0424	0.562
13.0835	0.507
13.1246	0.413
13.1656	0.28
13.2067	0.14
13.2478	0.114
13.2889	0.188
13.33	0.321
13.371	0.447
13.4121	0.519
13.4532	0.552
13.4943	0.567
13.5353	0.569
13.5764	0.564
13.6175	0.553
13.6586	0.538
13.6996	0.517
13.7407	0.487
13.7818	0.463
13.8229	0.454
13.8639	0.47
13.905	0.502
13.9461	0.524
13.9872	0.538
14.0282	0.541
14.0693	0.541
14.1104	0.538
14.1515	0.538
14.1926	0.543
14.2336	0.545
14.2747	0.55
14.3158	0.547
14.3569	0.54
14.3979	0.536
14.439	0.531
14.4801	0.526
14.5212	0.521
14.5622	0.514
14.6033	0.505
14.6444	0.5
14.6855	0.49
14.7265	0.485
14.7676	0.476
14.8087	0.466
14.8498	0.456
14.8908	0.447
14.9319	0.437
14.973	0.435
15.0141	0.434
15.0552	0.423
15.0962	0.41
15.1373	0.401
15.1784	0.393
15.2195	0.381
15.2605	0.372
15.3016	0.365
15.3427	0.358
15.3838	0.352
15.4248	0.345
15.4659	0.338
15.507	0.331
15.5481	0.323
15.5891	0.316
15.6302	0.316
15.6713	0.312
15.7124	0.311
15.7534	0.309
15.7945	0.304
15.8356	0.302
15.8767	0.302
15.9178	0.307
