Infrared Spectrum: BENZENE, 1-METHYL-4-ETHYL-
Formula: C9 H12
CAS: 622-96-8
State: SOLUTION (5% IN CCl4 FOR 3800-1330, 5% IN CS2 FOR 1330-450 CM^-^1)
Class: COBLENTZ III
Instrument: DOW KBr FOREPRISM-GRATING
Instrument parameters: BLAZED AT 3.5, 12.0, 20.0 MICRON, CHANGED AT 5.0, 7.5, 14.9 MICRON
Sampling: TRANSMISSION
Path length: 0.011, 0.011 CM
Resolution: 4
Origin: DOW CHEMICAL COMPANY
1/CM	TRANSMITTANCE
451.783	0.871
460.55	0.884
469.317	0.895
478.083	0.928
486.85	0.931
495.617	0.957
504.384	0.957
513.151	0.945
521.918	0.827
530.684	0.63
539.451	0.775
548.218	1.002
556.985	1.012
565.752	1.021
574.519	1.015
583.285	1.021
592.052	1.017
600.819	1.017
609.586	1.015
618.353	1.009
627.119	1
635.886	0.978
644.653	0.952
653.42	0.945
662.187	0.978
670.954	0.976
679.72	0.972
688.487	0.969
697.254	0.963
706.021	0.953
714.788	0.917
723.555	0.928
732.321	0.954
741.088	0.956
749.855	0.941
758.622	0.919
767.389	0.917
776.156	0.905
784.922	0.873
793.689	0.838
802.456	0.663
811.223	0.169
819.99	0.5641
828.756	0.834
837.523	0.872
846.29	0.821
855.057	0.797
863.824	0.83
872.591	0.871
881.357	0.91
890.124	0.952
898.891	0.969
907.658	0.975
916.425	0.976
925.192	0.968
933.958	0.949
942.725	0.968
951.492	0.956
960.259	0.924
969.026	0.928
977.792	0.957
986.559	0.964
995.326	0.969
1004.09	0.968
1012.86	0.956
1021.63	0.8231
1030.39	0.901
1039.16	0.863
1047.93	0.857
1056.69	0.842
1065.46	0.919
1074.23	0.95
1082.99	0.965
1091.76	0.968
1100.53	0.96
1109.29	0.93
1118.06	0.813
1126.83	0.975
1135.6	0.986
1144.36	0.989
1153.13	0.998
1161.9	0.991
1170.66	0.98
1179.43	0.95
1188.2	0.973
1196.96	0.976
1205.73	0.971
1214.5	0.913
1223.26	0.976
1232.03	0.978
1240.8	0.969
1249.56	0.973
1258.33	0.973
1267.1	0.968
1275.86	0.965
1284.63	0.96
1293.4	0.952
1302.17	0.934
1310.93	0.921
1319.7	0.915
1328.47	0.91
1337.23	0.912
1346	0.913
1354.77	0.9
1363.53	0.894
1372.3	0.841
1381.07	0.865
1389.83	0.919
1398.6	0.921
1407.37	0.898
1416.13	0.85
1424.9	0.845
1433.67	0.802
1442.43	0.726
1451.2	0.589
1459.97	0.643
1468.73	0.752
1477.5	0.816
1486.27	0.817
1495.04	0.784
1503.8	0.706
1512.57	0.4147
1521.34	0.491
1530.1	0.605
1538.87	0.549
1547.64	0.48
1556.4	0.501
1565.17	0.601
1573.94	0.658
1582.7	0.683
1591.47	0.738
1600.24	0.819
1609	0.887
1617.77	0.93
1626.54	0.946
1635.3	0.96
1644.07	0.965
1652.84	0.947
1661.6	0.956
1670.37	0.958
1679.14	0.956
1687.91	0.956
1696.67	0.954
1705.44	0.946
1714.21	0.91
1722.97	0.906
1731.74	0.935
1740.51	0.939
1749.27	0.936
1758.04	0.945
1766.81	0.953
1775.57	0.953
1784.34	0.945
1793.11	0.919
1801.87	0.945
1810.64	0.953
1819.41	0.952
1828.17	0.95
1836.94	0.949
1845.71	0.949
1854.47	0.946
1863.24	0.945
1872.01	0.945
1880.78	0.943
1889.54	0.913
1898.31	0.8521
1907.08	0.938
1915.84	0.952
1924.61	0.956
1933.38	0.96
1942.14	0.96
1950.91	0.958
1959.68	0.956
1968.44	0.96
1977.21	0.956
1985.98	0.954
1994.74	0.963
2003.51	0.967
2012.28	0.965
2021.04	0.968
2029.81	0.971
2038.58	0.971
2047.35	0.973
2056.11	0.975
2064.88	0.973
2073.65	0.973
2082.41	0.975
2091.18	0.973
2099.95	0.9731
2108.71	0.9751
2117.48	0.976
2126.25	0.975
2135.01	0.976
2143.78	0.975
2152.55	0.973
2161.31	0.973
2170.08	0.975
2178.85	0.975
2187.61	0.973
2196.38	0.972
2205.15	0.969
2213.91	0.971
2222.68	0.968
2231.45	0.968
2240.22	0.967
2248.98	0.963
2257.75	0.958
2266.52	0.9539
2275.28	0.95
2284.05	0.947
2292.82	0.9447
2301.58	0.942
2310.35	0.9435
2319.12	0.9503
2327.88	0.952
2336.65	0.95
2345.42	0.9562
2354.18	0.9578
2362.95	0.957
2371.72	0.9632
2380.48	0.9654
2389.25	0.968
2398.02	0.9666
2406.78	0.965
2415.55	0.965
2424.32	0.965
2433.09	0.9672
2441.85	0.968
2450.62	0.969
2459.39	0.968
2468.15	0.968
2476.92	0.968
2485.69	0.969
2494.45	0.969
2503.22	0.969
2511.99	0.969
2520.75	0.9665
2529.52	0.9655
2538.29	0.9713
2547.05	0.9717
2555.82	0.968
2564.59	0.9687
2573.35	0.967
2582.12	0.9647
2590.89	0.9616
2599.66	0.9656
2608.42	0.967
2617.19	0.9677
2625.96	0.9647
2634.72	0.9643
2643.49	0.968
2652.26	0.967
2661.02	0.968
2669.79	0.969
2678.56	0.968
2687.32	0.967
2696.09	0.965
2704.86	0.9646
2713.62	0.9593
2722.39	0.9498
2731.16	0.9314
2739.92	0.9547
2748.69	0.958
2757.46	0.957
2766.22	0.954
2774.99	0.953
2783.76	0.9526
2792.53	0.9512
2801.29	0.9466
2810.06	0.9378
2818.83	0.9228
2827.59	0.9092
2836.36	0.8708
2845.13	0.8242
2853.89	0.6905
2862.66	0.5924
2871.43	0.5517
2880.19	0.6525
2888.96	0.6759
2897.73	0.6524
2906.49	0.6582
2915.26	0.5613
2924.03	0.3921
2932.79	0.4303
2941.56	0.5635
2950.33	0.531
2959.09	0.3137
2967.86	0.2245
2976.63	0.387
2985.4	0.6409
2994.16	0.6695
3002.93	0.629
3011.7	0.6365
3020.46	0.6046
3029.23	0.7048
3038	0.7504
3046.76	0.709
3055.53	0.7539
3064.3	0.871
3073.06	0.9141
3081.83	0.9114
3090.6	0.8858
3099.36	0.8996
3108.13	0.9622
3116.9	0.971
3125.66	0.9684
3134.43	0.9661
3143.2	0.978
3151.97	0.9836
3160.73	0.984
3169.5	0.986
3178.27	0.986
3187.03	0.989
3195.8	0.9922
3204.57	0.994
3213.33	0.995
3222.1	0.997
3230.87	1
3239.63	1.001
3248.4	1.001
3257.17	1.0016
3265.93	1.0033
3274.7	1.006
3283.47	1.008
3292.23	1.008
3301	1.008
3309.77	1.006
3318.53	1.006
3327.3	1.0073
3336.07	1.008
3344.84	1.0087
3353.6	1.009
3362.37	1.009
3371.14	1.0097
3379.9	1.013
3388.67	1.0123
3397.44	1.01
3406.2	1.009
3414.97	1.0066
3423.74	1.004
3432.5	1.001
3441.27	1.001
3450.04	1
3458.8	0.998
3467.57	0.997
3476.34	0.994
3485.1	0.993
3493.87	0.991
3502.64	0.9893
3511.4	0.989
3520.17	0.989
3528.94	0.987
3537.71	0.9862
3546.47	0.986
3555.24	0.984
3564.01	0.9832
3572.77	0.983
3581.54	0.982
3590.31	0.98
3599.07	0.98
3607.84	0.979
3616.61	0.978
3625.37	0.9752
3634.14	0.975
3642.91	0.973
3651.67	0.972
3660.44	0.9728
3669.21	0.975
3677.97	0.9777
3686.74	0.98
3695.51	0.978
3704.28	0.9751
3713.04	0.973
3721.81	0.975
3730.58	0.975
3739.34	0.976
3748.11	0.978
3756.88	0.978
3765.64	0.978
3774.41	0.978
3783.18	0.978
3791.94	0.978
