Infrared Spectrum: TOLUENE, Alpha-TRIAZO-
Formula: C7 H7 N3
CAS: 622-79-7
State: LIQUID (NEAT)
Class: COBLENTZ III
Instrument: PERKIN-ELMER 21 (GRATING)
Instrument parameters: FILTER CHANGE AT ABOUT 1090 CM^-^1
Sampling: TRANSMISSION
Path length: CAPILLARY
Resolution: 2
Origin: SOUTHERN RESEARCH INSTITUTE
1/CM	TRANSMITTANCE
606.883	0.477
615.368	0.474
623.853	0.471
632.338	0.4592
640.822	0.4383
649.307	0.4084
657.792	0.3892
666.277	0.3784
674.762	0.358
683.247	0.3677
691.731	0.3526
700.216	0.2238
708.701	0.1652
717.186	0.3576
725.671	0.387
734.156	0.2896
742.641	0.2292
751.125	0.2282
759.61	0.2526
768.095	0.4894
776.58	0.6353
785.065	0.653
793.55	0.655
802.035	0.6353
810.519	0.6153
819.004	0.6121
827.489	0.5917
835.974	0.6126
844.459	0.629
852.944	0.627
861.428	0.6187
869.913	0.5536
878.398	0.4069
886.883	0.4453
895.368	0.5265
903.853	0.5525
912.338	0.573
920.822	0.562
929.307	0.5717
937.792	0.6094
946.277	0.626
954.762	0.608
963.247	0.591
971.731	0.5954
980.216	0.634
988.701	0.6436
997.186	0.6513
1005.67	0.628
1014.16	0.6596
1022.64	0.6541
1031.13	0.5513
1039.61	0.6296
1048.1	0.673
1056.58	0.6637
1065.06	0.6622
1073.55	0.6273
1082.03	0.5464
1090.52	0.5981
1099	0.6383
1107.49	0.6312
1115.97	0.6461
1124.46	0.657
1132.94	0.658
1141.43	0.6559
1149.91	0.6395
1158.4	0.6118
1166.88	0.6089
1175.37	0.5927
1183.85	0.5438
1192.34	0.4999
1200.82	0.388
1209.31	0.348
1217.79	0.4318
1226.28	0.436
1234.76	0.3615
1243.25	0.2838
1251.73	0.2101
1260.22	0.173
1268.7	0.1977
1277.19	0.2494
1285.67	0.2757
1294.16	0.3075
1302.64	0.3168
1311.13	0.3248
1319.61	0.3805
1328.1	0.4148
1336.58	0.42
1345.06	0.3959
1353.55	0.325
1362.03	0.4273
1370.52	0.5826
1379	0.6311
1387.49	0.629
1395.97	0.6387
1404.46	0.6507
1412.94	0.658
1421.43	0.656
1429.91	0.6344
1438.4	0.5903
1446.88	0.4948
1455.37	0.3633
1463.85	0.3754
1472.34	0.583
1480.82	0.641
1489.31	0.6198
1497.79	0.4806
1506.28	0.4486
1514.76	0.6615
1523.25	0.6784
1531.73	0.6755
1540.22	0.67
1548.7	0.67
1557.19	0.675
1565.67	0.675
1574.16	0.667
1582.64	0.6484
1591.13	0.6331
1599.61	0.641
1608.1	0.6157
1616.58	0.677
1625.06	0.677
1633.55	0.6763
1642.03	0.6817
1650.52	0.691
1659	0.687
1667.49	0.6888
1675.97	0.686
1684.46	0.692
1692.94	0.6846
1701.43	0.686
1709.91	0.6868
1718.4	0.6847
1726.88	0.6809
1735.37	0.68
1743.85	0.68
1752.34	0.671
1760.82	0.6772
1769.31	0.6819
1777.79	0.6789
1786.28	0.6749
1794.76	0.658
1803.25	0.646
1811.73	0.655
1820.22	0.674
1828.7	0.681
1837.19	0.681
1845.67	0.685
1854.16	0.676
1862.64	0.6701
1871.13	0.6621
1879.61	0.6589
1888.1	0.6639
1896.58	0.669
1905.06	0.6667
1913.55	0.677
1922.03	0.68
1930.52	0.6752
1939	0.6672
1947.49	0.6462
1955.97	0.633
1964.46	0.64
1972.94	0.6467
1981.43	0.6544
1989.91	0.657
1998.4	0.653
2006.88	0.6463
2015.37	0.6293
2023.85	0.6143
2032.34	0.5956
2040.82	0.5666
2049.31	0.5165
2057.79	0.4413
2066.28	0.3479
2074.76	0.2263
2083.25	0.1579
2091.73	0.1246
2100.22	0.0786
2108.7	0.0754
2117.19	0.0884
2125.67	0.122
2134.16	0.145
2142.64	0.1727
2151.13	0.2537
2159.61	0.3134
2168.1	0.364
2176.58	0.3984
2185.06	0.4247
2193.55	0.45
2202.03	0.463
2210.52	0.4917
2219	0.52
2227.49	0.5587
2235.97	0.5867
2244.46	0.6134
2252.94	0.629
2261.43	0.6444
2269.91	0.6557
2278.4	0.669
2286.88	0.6707
2295.37	0.673
2303.85	0.6697
2312.34	0.6677
2320.82	0.657
2329.31	0.658
2337.79	0.661
2346.28	0.6723
2354.76	0.671
2363.25	0.6737
2371.73	0.676
2380.22	0.679
2388.7	0.6867
2397.19	0.6857
2405.67	0.6743
2414.16	0.6703
2422.64	0.668
2431.13	0.6613
2439.61	0.6483
2448.1	0.6557
2456.58	0.6486
2465.06	0.65
2473.55	0.6527
2482.03	0.6513
2490.52	0.6507
2499	0.653
2507.49	0.653
2515.97	0.6557
2524.46	0.6627
2532.94	0.6687
2541.43	0.6737
2549.91	0.677
2558.4	0.6733
2566.88	0.673
2575.37	0.6767
2583.85	0.68
2592.34	0.68
2600.82	0.681
2609.31	0.688
2617.79	0.6917
2626.28	0.695
2634.76	0.6943
2643.25	0.691
2651.73	0.6917
2660.22	0.687
2668.7	0.6877
2677.19	0.691
2685.67	0.6977
2694.16	0.7024
2702.64	0.704
2711.13	0.703
2719.61	0.699
2728.1	0.6913
2736.58	0.687
2745.06	0.6927
2753.55	0.697
2762.03	0.6933
2770.52	0.686
2779	0.6866
2787.49	0.6814
2795.97	0.6793
2804.46	0.6737
2812.94	0.6673
2821.43	0.655
2829.91	0.6336
2838.4	0.6066
2846.88	0.577
2855.37	0.564
2863.85	0.561
2872.34	0.561
2880.82	0.561
2889.31	0.561
2897.79	0.56
2906.28	0.552
2914.76	0.5356
2923.25	0.534
2931.73	0.5487
2940.22	0.57
2948.7	0.5847
2957.19	0.596
2965.67	0.599
2974.16	0.599
2982.64	0.597
2991.13	0.5913
2999.61	0.5773
3008.1	0.5513
3016.58	0.525
3025.06	0.4777
3033.55	0.459
3042.03	0.4844
3050.52	0.5297
3059	0.536
3067.49	0.52
3075.97	0.5314
3084.46	0.556
3092.94	0.5797
3101.43	0.6244
3109.91	0.6487
3118.4	0.6697
3126.88	0.68
3135.37	0.6843
3143.85	0.6904
3152.34	0.691
3160.82	0.692
3169.31	0.693
3177.79	0.694
3186.28	0.689
3194.76	0.692
3203.25	0.6896
3211.73	0.6873
3220.22	0.684
3228.7	0.68
3237.19	0.676
3245.67	0.675
3254.16	0.6703
3262.64	0.6623
3271.13	0.654
3279.61	0.6493
3288.1	0.643
3296.58	0.6393
3305.06	0.64
3313.55	0.6467
3322.03	0.647
3330.52	0.64
3339	0.641
3347.49	0.648
3355.97	0.653
3364.46	0.655
3372.94	0.6567
3381.43	0.6604
3389.91	0.658
3398.4	0.673
3406.88	0.675
3415.37	0.675
3423.85	0.6757
3432.34	0.677
3440.82	0.677
3449.31	0.6763
3457.79	0.677
3466.28	0.679
3474.76	0.679
3483.25	0.6847
3491.73	0.688
3500.22	0.687
3508.7	0.688
3517.19	0.689
3525.67	0.691
3534.16	0.691
3542.64	0.687
3551.13	0.685
3559.61	0.686
3568.1	0.687
3576.58	0.6823
3585.06	0.6807
3593.55	0.686
3602.03	0.685
3610.52	0.681
3619	0.685
3627.49	0.6823
3635.97	0.68
3644.46	0.677
3652.94	0.677
3661.43	0.677
3669.91	0.677
3678.4	0.676
3686.88	0.676
3695.37	0.6783
3703.85	0.6817
3712.34	0.685
3720.82	0.6823
3729.31	0.677
3737.79	0.677
3746.28	0.676
3754.76	0.6883
3763.25	0.692
3771.73	0.6883
3780.22	0.6803
3788.7	0.679
3797.19	0.679
3805.67	0.681
3814.16	0.6843
