Infrared Spectrum: CYCLOHEXYL ACETATE
Formula: C8 H14 O2
CAS: 622-45-7
State: LIQUID
Boiling point: 47-50 C AT 7 mmHg
Class: COBLENTZ
Instrument: Not specified, most likely a prism, grating, or hybrid spectrometer.
Sampling: TRANSMISSION
Path length: 0.003 CM
Resolution: 4
Origin: WYANDOTTE CHEMICALS CORP., WYANDOTTE, MICHIGAN, USA
MICROMETERS	TRANSMITTANCE
2.02	0.971
2.05967	0.97
2.09935	0.98
2.13902	0.973
2.1787	0.963
2.21837	0.951
2.25804	0.945
2.29772	0.937
2.33739	0.953
2.37707	0.953
2.41674	0.96
2.45641	0.953
2.49609	0.953
2.53576	0.96
2.57544	0.963
2.61511	0.968
2.65478	0.973
2.69446	0.971
2.73413	0.976
2.77381	0.973
2.81348	0.961
2.85315	0.942
2.89283	0.942
2.9325	0.908
2.97218	0.925
3.01185	0.95
3.05152	0.953
3.0912	0.937
3.13087	0.935
3.17055	0.927
3.21022	0.932
3.24989	0.923
3.28957	0.892
3.32924	0.832
3.36892	0.445
3.40859	0.029
3.44826	0.35
3.48794	0.47
3.52761	0.198
3.56729	0.74
3.60696	0.889
3.64663	0.932
3.68631	0.96
3.72598	0.938
3.76566	0.91
3.80533	0.933
3.845	0.953
3.88468	0.955
3.92435	0.968
3.96403	0.975
4.0037	0.973
4.04337	0.958
4.08305	0.95
4.12272	0.96
4.1624	0.968
4.20207	0.965
4.24174	0.966
4.28142	0.968
4.32109	0.965
4.36077	0.961
4.40044	0.971
4.44011	0.971
4.47979	0.965
4.51946	0.955
4.55914	0.958
4.59881	0.968
4.63848	0.971
4.67816	0.968
4.71783	0.97
4.75751	0.958
4.79718	0.956
4.83685	0.975
4.87653	0.973
4.9162	0.971
4.95588	0.98
4.99555	0.973
5.03522	0.971
5.0749	0.97
5.11457	0.97
5.15425	0.97
5.19392	0.955
5.23359	0.943
5.27327	0.953
5.31294	0.953
5.35262	0.951
5.39229	0.945
5.43196	0.923
5.47164	0.903
5.51131	0.912
5.55099	0.88
5.59066	0.834
5.63033	0.713
5.67001	0.649
5.70968	0.413
5.74936	0.15
5.78903	0.026
5.8287	0.2
5.86838	0.408
5.90805	0.552
5.94773	0.683
5.9874	0.796
6.02707	0.824
6.06675	0.857
6.10642	0.895
6.1461	0.879
6.18577	0.895
6.22544	0.917
6.26512	0.925
6.30479	0.927
6.34447	0.912
6.38414	0.91
6.42381	0.908
6.46349	0.89
6.50316	0.867
6.54284	0.869
6.58251	0.874
6.62218	0.872
6.66186	0.865
6.70153	0.847
6.74121	0.811
6.78088	0.72
6.82055	0.506
6.86023	0.301
6.8999	0.316
6.93958	0.475
6.97925	0.538
7.01892	0.605
7.0586	0.693
7.09827	0.735
7.13795	0.72
7.17762	0.668
7.21729	0.44
7.25697	0.162
7.29664	0.258
7.33632	0.099
7.37599	0.302
7.41567	0.61
7.45534	0.751
7.49501	0.745
7.53469	0.748
7.57436	0.688
7.61404	0.743
7.65371	0.75
7.69338	0.725
7.73306	0.677
7.77273	0.576
7.81241	0.413
7.85208	0.241
7.89175	0.105
7.93143	0.048
7.9711	0.029
8.01078	0.024
8.05045	0.026
8.09012	0.029
8.1298	0.034
8.16947	0.061
8.20915	0.298
8.24882	0.448
8.28849	0.567
8.32817	0.642
8.36784	0.678
8.40752	0.73
8.44719	0.783
8.48686	0.822
8.52654	0.86
8.56621	0.88
8.60589	0.814
8.64556	0.786
8.68523	0.862
8.72491	0.887
8.76458	0.884
8.80426	0.849
8.84393	0.663
8.8836	0.501
8.92328	0.713
8.96295	0.86
9.00263	0.885
9.0423	0.864
9.08197	0.811
9.12165	0.781
9.16132	0.798
9.201	0.776
9.24067	0.735
9.28034	0.701
9.32002	0.69
9.35969	0.649
9.39937	0.591
9.43904	0.478
9.47871	0.324
9.51839	0.134
9.55806	0.038
9.59774	0.079
9.63741	0.218
9.67708	0.238
9.71676	0.173
9.75643	0.096
9.79611	0.087
9.83578	0.213
9.87545	0.324
9.91513	0.509
9.9548	0.602
9.99448	0.683
10.0341	0.753
10.0738	0.784
10.1135	0.804
10.1532	0.821
10.1928	0.812
10.2325	0.764
10.2722	0.672
10.3119	0.476
10.3515	0.375
10.3912	0.475
10.4309	0.581
10.4706	0.548
10.5102	0.557
10.5499	0.637
10.5896	0.753
10.6293	0.809
10.6689	0.842
10.7086	0.852
10.7483	0.827
10.788	0.75
10.8276	0.746
10.8673	0.791
10.907	0.821
10.9467	0.793
10.9863	0.693
11.026	0.552
11.0657	0.491
11.1053	0.513
11.145	0.584
11.1847	0.657
11.2244	0.614
11.264	0.64
11.3037	0.735
11.3434	0.774
11.3831	0.728
11.4227	0.801
11.4624	0.864
11.5021	0.882
11.5418	0.834
11.5814	0.821
11.6211	0.846
11.6608	0.892
11.7005	0.917
11.7401	0.928
11.7798	0.928
11.8195	0.922
11.8592	0.908
11.8988	0.867
11.9385	0.784
11.9782	0.812
12.0178	0.889
12.0575	0.928
12.0972	0.935
12.1369	0.923
12.1765	0.87
12.2162	0.842
12.2559	0.9
12.2956	0.928
12.3352	0.947
12.3749	0.955
12.4146	0.953
12.4543	0.928
12.4939	0.917
12.5336	0.884
12.5733	0.9
12.613	0.948
12.6526	0.965
12.6923	0.963
12.732	0.955
12.7717	0.968
12.8113	0.983
12.851	0.983
12.8907	0.986
12.9304	0.986
12.97	0.986
13.0097	0.99
13.0494	0.985
13.089	0.985
13.1287	0.985
13.1684	0.985
13.2081	0.985
13.2477	0.983
13.2874	0.98
13.3271	0.975
13.3668	0.973
13.4064	0.973
13.4461	0.97
13.4858	0.97
13.5255	0.97
13.5651	0.97
13.6048	0.97
13.6445	0.97
13.6842	0.97
13.7238	0.971
13.7635	0.975
13.8032	0.975
13.8429	0.971
13.8825	0.97
13.9222	0.965
13.9619	0.965
14.0016	0.965
14.0412	0.966
14.0809	0.968
14.1206	0.968
14.1602	0.963
14.1999	0.96
14.2396	0.96
14.2793	0.961
14.3189	0.961
14.3586	0.958
14.3983	0.956
14.438	0.953
14.4776	0.95
14.5173	0.947
14.557	0.942
14.5967	0.933
14.6363	0.93
14.676	0.928
14.7157	0.927
14.7554	0.923
14.795	0.915
14.8347	0.908
14.8744	0.91
14.9141	0.908
14.9537	0.902
14.9934	0.892
15.0331	0.875
15.0727	0.86
15.1124	0.854
15.1521	0.86
15.1918	0.86
15.2314	0.844
15.2711	0.827
15.3108	0.802
15.3505	0.774
15.3901	0.753
15.4298	0.741
15.4695	0.745
15.5092	0.758
15.5488	0.774
15.5885	0.791
15.6282	0.798
15.6679	0.796
15.7075	0.799
15.7472	0.801
15.7869	0.798
15.8266	0.793
15.8662	0.786
15.9059	0.781
15.9456	0.774
15.9853	0.768
