Infrared Spectrum: ANILINE, N-PROPYL-
Formula: C9 H13 N
CAS: 622-80-0
State: LIQUID (NEAT)
Class: COBLENTZ III
Instrument: BECKMAN IR-4 (HYBRID PRISM-GRATING)
Instrument parameters: NaCl PRISM
Sampling: TRANSMISSION
Path length: CAPILLARY
Resolution: 2
Origin: MONSANTO (J. FREEMAN)
1/CM	TRANSMITTANCE
3929.27	0.9095
3920.46	0.91
3911.66	0.9104
3902.85	0.9108
3894.05	0.9113
3885.24	0.9118
3876.44	0.9122
3867.63	0.9128
3858.83	0.9132
3850.02	0.9137
3841.22	0.9137
3832.41	0.9131
3823.6	0.9126
3814.8	0.9122
3805.99	0.9117
3797.19	0.9107
3788.38	0.9097
3779.58	0.9087
3770.77	0.9075
3761.97	0.9066
3753.16	0.9055
3744.36	0.9044
3735.55	0.903
3726.74	0.9017
3717.94	0.9004
3709.13	0.8991
3700.33	0.8978
3691.52	0.8965
3682.72	0.8954
3673.91	0.8946
3665.11	0.8937
3656.3	0.8927
3647.5	0.8918
3638.69	0.8909
3629.89	0.8899
3621.08	0.889
3612.27	0.8878
3603.47	0.8871
3594.66	0.8867
3585.86	0.8863
3577.05	0.886
3568.25	0.886
3559.44	0.886
3550.64	0.886
3541.83	0.8857
3533.03	0.8838
3524.22	0.8816
3515.41	0.8794
3506.61	0.875
3497.8	0.8696
3489	0.8614
3480.19	0.851
3471.39	0.8326
3462.58	0.8011
3453.78	0.762
3444.97	0.7227
3436.17	0.6832
3427.36	0.6435
3418.55	0.6038
3409.75	0.5637
3400.94	0.5307
3392.14	0.5283
3383.33	0.5377
3374.53	0.5732
3365.72	0.6107
3356.92	0.6484
3348.11	0.6862
3339.31	0.7243
3330.5	0.7627
3321.69	0.8011
3312.89	0.8399
3304.08	0.8709
3295.28	0.8787
3286.47	0.8858
3277.67	0.8923
3268.86	0.8968
3260.06	0.8986
3251.25	0.8993
3242.45	0.9001
3233.64	0.9007
3224.83	0.9008
3216.03	0.9009
3207.22	0.901
3198.42	0.901
3189.61	0.901
3180.81	0.9007
3172	0.9004
3163.2	0.9
3154.39	0.8964
3145.59	0.8906
3136.78	0.8704
3127.97	0.8442
3119.17	0.8178
3110.36	0.7913
3101.56	0.7646
3092.75	0.7379
3083.95	0.7109
3075.14	0.6837
3066.34	0.6565
3057.53	0.6291
3048.73	0.6037
3039.92	0.6083
3031.12	0.6214
3022.31	0.6312
3013.5	0.6491
3004.7	0.6689
2995.89	0.6801
2987.09	0.6271
2978.28	0.5473
2969.48	0.467
2960.67	0.3863
2951.87	0.3089
2943.06	0.3056
2934.26	0.3315
2925.45	0.3577
2916.64	0.4052
2907.84	0.456
2899.03	0.509
2890.23	0.4981
2881.42	0.4631
2872.62	0.4279
2863.81	0.4092
2855.01	0.4412
2846.2	0.5668
2837.4	0.6828
2828.59	0.7583
2819.78	0.7897
2810.98	0.8134
2802.17	0.8335
2793.37	0.854
2784.56	0.8765
2775.76	0.882
2766.95	0.8836
2758.15	0.8852
2749.34	0.8872
2740.54	0.8897
2731.73	0.8921
2722.92	0.8951
2714.12	0.8986
2705.31	0.902
2696.51	0.9056
2687.7	0.9091
2678.9	0.9122
2670.09	0.9154
2661.29	0.9179
2652.48	0.92
2643.68	0.9205
2634.87	0.9205
2626.06	0.918
2617.26	0.9148
2608.45	0.9096
2599.65	0.9076
2590.84	0.906
2582.04	0.9056
2573.23	0.9103
2564.43	0.9169
2555.62	0.9232
2546.82	0.9278
2538.01	0.9323
2529.2	0.935
2520.4	0.9364
2511.59	0.9379
2502.79	0.9391
2493.98	0.9395
2485.18	0.9399
2476.37	0.9403
2467.57	0.9406
2458.76	0.9408
2449.96	0.941
2441.15	0.9411
2432.35	0.9408
2423.54	0.9398
2414.73	0.9386
2405.93	0.9373
2397.12	0.9329
2388.32	0.9156
2379.51	0.9015
2370.71	0.8989
2361.9	0.9027
2353.1	0.9087
2344.29	0.9166
2335.49	0.9236
2326.68	0.9293
2317.87	0.9342
2309.07	0.9374
2300.26	0.9407
2291.46	0.9437
2282.65	0.9452
2273.85	0.9467
2265.04	0.9482
2256.24	0.949
2247.43	0.9491
2238.63	0.9492
2229.82	0.9493
2221.01	0.9493
2212.21	0.9489
2203.4	0.9485
2194.6	0.948
2185.79	0.9477
2176.99	0.9471
2168.18	0.9463
2159.38	0.9455
2150.57	0.9452
2141.77	0.9463
2132.96	0.9474
2124.15	0.9487
2115.35	0.9487
2106.54	0.9482
2097.74	0.9478
2088.93	0.9474
2080.13	0.9471
2071.32	0.9468
2062.52	0.9467
2053.71	0.9465
2044.91	0.9461
2036.1	0.9458
2027.29	0.9454
2018.49	0.9448
2009.68	0.9442
2000.88	0.9436
1992.07	0.9431
1983.27	0.9431
1974.46	0.9428
1965.66	0.9408
1956.85	0.9326
1948.05	0.9203
1939.24	0.9045
1930.43	0.8904
1921.63	0.8894
1912.82	0.9058
1904.02	0.9219
1895.21	0.9334
1886.41	0.9403
1877.6	0.9413
1868.8	0.9413
1859.99	0.9401
1851.19	0.9311
1842.38	0.9206
1833.58	0.9117
1824.77	0.9077
1815.96	0.9153
1807.16	0.9252
1798.35	0.9338
1789.55	0.934
1780.74	0.9286
1771.94	0.9229
1763.13	0.9261
1754.33	0.9328
1745.52	0.9383
1736.72	0.9381
1727.91	0.937
1719.1	0.9333
1710.3	0.9206
1701.49	0.9
1692.69	0.8921
1683.88	0.8786
1675.08	0.8793
1666.27	0.8818
1657.47	0.879
1648.66	0.857
1639.86	0.8149
1631.05	0.7041
1622.24	0.6235
1613.44	0.429
1604.63	0.2169
1595.83	0.0821
1587.02	0.2794
1578.22	0.5343
1569.41	0.7446
1560.61	0.7709
1551.8	0.7759
1543	0.7553
1534.19	0.6878
1525.38	0.5668
1516.58	0.3262
1507.77	0.1093
1498.97	0.1153
1490.16	0.3259
1481.36	0.4963
1472.55	0.4091
1463.75	0.4775
1454.94	0.5572
1446.14	0.6921
1437.33	0.663
1428.52	0.5241
1419.72	0.6982
1410.91	0.8363
1402.11	0.8422
1393.3	0.8121
1384.5	0.6609
1375.69	0.6531
1366.89	0.7356
1358.08	0.7592
1349.28	0.7483
1340.47	0.5985
1331.66	0.4351
1322.86	0.2962
1314.05	0.3251
1305.25	0.5334
1296.44	0.5837
1287.64	0.5925
1278.83	0.5741
1270.03	0.5589
1261.22	0.4474
1252.42	0.3522
1243.61	0.5821
1234.81	0.7026
1226	0.8146
1217.19	0.8673
1208.39	0.8582
1199.58	0.8223
1190.78	0.7788
1181.97	0.6083
1173.17	0.6051
1164.36	0.7729
1155.56	0.6116
1146.75	0.5621
1137.95	0.6037
1129.14	0.7759
1120.33	0.8457
1111.53	0.8315
1102.72	0.7851
1093.92	0.8122
1085.11	0.6974
1076.31	0.717
1067.5	0.7295
1058.7	0.8768
1049.89	0.9037
1041.09	0.8838
1032.28	0.7887
1023.47	0.8165
1014.67	0.9026
1005.86	0.8658
997.058	0.6983
988.253	0.692
979.447	0.8789
970.642	0.8969
961.836	0.9039
953.031	0.9122
944.225	0.9206
935.42	0.9232
926.615	0.9176
917.809	0.8988
909.004	0.877
900.198	0.8672
891.393	0.8677
882.587	0.8167
873.782	0.7846
864.977	0.6647
856.171	0.8116
847.366	0.8797
838.56	0.872
829.755	0.8571
820.949	0.853
812.144	0.843
803.338	0.8627
794.533	0.8533
785.728	0.8396
776.922	0.8141
768.117	0.7489
759.311	0.5439
750.506	0.1338
741.7	0.1973
732.895	0.6531
724.089	0.7643
715.284	0.7842
706.479	0.7606
697.673	0.497
688.868	0.2866
680.062	0.6968
671.257	0.6721
662.451	0.612
653.646	0.6701
644.84	0.6623
636.035	0.6583
