Infrared Spectrum: PHENETOLE, p-METHYL-
Formula: C9 H12 O
CAS: 622-60-6
State: LIQUID (NEAT)
Boiling point: 71-72 C AT 10 mmHg
Class: COBLENTZ III
Instrument: BAIRD (PRISM)
Instrument parameters: NaCl PRISM
Sampling: TRANSMISSION
Path length: 0.005 CM
Resolution: 2
Origin: WYANDOTTE CHEMICALS CORP.
MICROMETERS	TRANSMITTANCE
1.998	0.968
2.03709	0.964
2.07618	0.949
2.11526	0.932
2.15435	0.929
2.19344	0.914
2.23253	0.835
2.27162	0.803
2.3107	0.815
2.34979	0.841
2.38888	0.841
2.42797	0.798
2.46706	0.821
2.50614	0.851
2.54523	0.867
2.58432	0.873
2.62341	0.879
2.6625	0.884
2.70158	0.886
2.74067	0.89
2.77976	0.893
2.81885	0.895
2.85794	0.895
2.89702	0.895
2.93611	0.895
2.9752	0.895
3.01429	0.893
3.05338	0.882
3.09246	0.867
3.13155	0.841
3.17064	0.804
3.20973	0.755
3.24882	0.613
3.2879	0.377
3.32699	0.081
3.36608	0.034
3.40517	0.023
3.44426	0.023
3.48334	0.023
3.52243	0.029
3.56152	0.146
3.60061	0.418
3.6397	0.598
3.67878	0.598
3.71787	0.549
3.75696	0.776
3.79605	0.803
3.83514	0.804
3.87422	0.778
3.91331	0.751
3.9524	0.765
3.99149	0.702
4.03058	0.673
4.06966	0.734
4.10875	0.658
4.14784	0.695
4.18693	0.727
4.22602	0.728
4.2651	0.794
4.30419	0.828
4.34328	0.823
4.38237	0.815
4.42146	0.8
4.46054	0.791
4.49963	0.815
4.53872	0.834
4.57781	0.84
4.6169	0.842
4.65598	0.843
4.69507	0.843
4.73416	0.836
4.77325	0.834
4.81234	0.821
4.85142	0.802
4.89051	0.759
4.9296	0.722
4.96869	0.723
5.00778	0.735
5.04686	0.751
5.08595	0.739
5.12504	0.615
5.16413	0.601
5.20322	0.681
5.2423	0.691
5.28139	0.711
5.32048	0.71
5.35957	0.646
5.39866	0.465
5.43774	0.571
5.47683	0.637
5.51592	0.694
5.55501	0.775
5.59409	0.802
5.63318	0.787
5.67227	0.748
5.71136	0.699
5.75045	0.683
5.78953	0.716
5.82862	0.733
5.86771	0.751
5.9068	0.761
5.94589	0.754
5.98497	0.71
6.02406	0.592
6.06315	0.57
6.10224	0.415
6.14133	0.183
6.18041	0.02
6.2195	0.038
6.25859	0.128
6.29768	0.028
6.33677	0.191
6.37585	0.298
6.41494	0.313
6.45403	0.324
6.49312	0.314
6.53221	0.184
6.57129	0.125
6.61038	0.05
6.64947	0.035
6.68856	0.045
6.72765	0.056
6.76673	0.015
6.80582	0.052
6.84491	0.06
6.884	0.047
6.92309	0.027
6.96217	0.039
7.00126	0.143
7.04035	0.226
7.07944	0.242
7.11853	0.152
7.15761	0.034
7.1967	0.022
7.23579	0.025
7.27488	0.084
7.31397	0.23
7.35305	0.286
7.39214	0.41
7.43123	0.431
7.47032	0.402
7.50941	0.35
7.54849	0.316
7.58758	0.276
7.62667	0.164
7.66576	0.034
7.70485	0.015
7.74393	0.012
7.78302	0.011
7.82211	0.012
7.8612	0.024
7.90029	0.036
7.93937	0.019
7.97846	0.013
8.01755	0.012
8.05664	0.011
8.09573	0.009
8.13481	0.009
8.1739	0.009
8.21299	0.009
8.25208	0.024
8.29117	0.093
8.33025	0.202
8.36934	0.273
8.40843	0.305
8.44752	0.26
8.48661	0.083
8.52569	0.02
8.56478	0.029
8.60387	0.094
8.64296	0.111
8.68205	0.119
8.72113	0.173
8.76022	0.28
8.79931	0.318
8.8384	0.318
8.87749	0.223
8.91657	0.072
8.95566	0.022
8.99475	0.02
9.03384	0.029
9.07293	0.12
9.11201	0.197
9.1511	0.149
9.19019	0.095
9.22928	0.142
9.26837	0.186
9.30745	0.179
9.34654	0.154
9.38563	0.12
9.42472	0.054
9.46381	0.018
9.50289	0.015
9.54198	0.014
9.58107	0.013
9.62016	0.013
9.65925	0.015
9.69833	0.036
9.73742	0.085
9.77651	0.152
9.8156	0.237
9.85469	0.254
9.89377	0.181
9.93286	0.324
9.97195	0.449
10.011	0.504
10.0501	0.519
10.0892	0.52
10.1283	0.518
10.1674	0.517
10.2065	0.53
10.2456	0.56
10.2847	0.574
10.3237	0.589
10.3628	0.598
10.4019	0.598
10.441	0.595
10.4801	0.571
10.5192	0.539
10.5583	0.517
10.5974	0.515
10.6364	0.527
10.6755	0.533
10.7146	0.509
10.7537	0.427
10.7928	0.277
10.8319	0.095
10.871	0.027
10.9101	0.023
10.9491	0.076
10.9882	0.158
11.0273	0.246
11.0664	0.287
11.1055	0.296
11.1446	0.271
11.1837	0.273
11.2228	0.382
11.2619	0.45
11.3009	0.511
11.34	0.542
11.3791	0.558
11.4182	0.572
11.4573	0.582
11.4964	0.587
11.5355	0.59
11.5746	0.592
11.6136	0.587
11.6527	0.573
11.6918	0.556
11.7309	0.538
11.77	0.522
11.8091	0.502
11.8482	0.471
11.8873	0.426
11.9263	0.355
11.9654	0.273
12.0045	0.184
12.0436	0.105
12.0827	0.067
12.1218	0.036
12.1609	0.027
12.2	0.022
12.2391	0.022
12.2781	0.022
12.3172	0.022
12.3563	0.022
12.3954	0.022
12.4345	0.022
12.4736	0.022
12.5127	0.022
12.5518	0.022
12.5908	0.023
12.6299	0.054
12.669	0.141
12.7081	0.265
12.7472	0.379
12.7863	0.455
12.8254	0.52
12.8645	0.55
12.9035	0.567
12.9426	0.583
12.9817	0.589
13.0208	0.593
13.0599	0.593
13.099	0.592
13.1381	0.581
13.1772	0.55
13.2163	0.496
13.2553	0.414
13.2944	0.361
13.3335	0.348
13.3726	0.348
13.4117	0.35
13.4508	0.286
13.4899	0.148
13.529	0.066
13.568	0.052
13.6071	0.114
13.6462	0.245
13.6853	0.377
13.7244	0.488
13.7635	0.555
13.8026	0.597
13.8417	0.611
13.8807	0.617
13.9198	0.614
13.9589	0.598
13.998	0.549
14.0371	0.464
14.0762	0.395
14.1153	0.342
14.1544	0.348
14.1935	0.379
14.2325	0.389
14.2716	0.369
14.3107	0.363
14.3498	0.439
14.3889	0.528
14.428	0.589
14.4671	0.598
14.5062	0.599
14.5452	0.592
14.5843	0.597
14.6234	0.641
14.6625	0.674
14.7016	0.697
14.7407	0.714
14.7798	0.726
14.8189	0.727
14.8579	0.728
14.897	0.727
14.9361	0.727
14.9752	0.728
15.0143	0.73
15.0534	0.726
15.0925	0.718
15.1316	0.713
15.1707	0.718
15.2097	0.721
15.2488	0.721
15.2879	0.721
15.327	0.719
15.3661	0.718
15.4052	0.714
15.4443	0.708
15.4834	0.707
15.5224	0.699
15.5615	0.695
15.6006	0.685
15.6397	0.678
15.6788	0.656
15.7179	0.631
15.757	0.615
15.7961	0.61
15.8351	0.609
15.8742	0.609
15.9133	0.611
15.9524	0.613
15.9915	0.613
