Infrared Spectrum: 2-FURFURYL-ACETATE
Formula: C7 H8 O3
CAS: 623-17-6
State: SOLUTION (10% CCl4 FOR 5000-1330, 10% CS2 FOR 1330-625 CM^-^1)
Class: COBLENTZ
Instrument: Not specified, most likely a prism, grating, or hybrid spectrometer.
Sampling: TRANSMISSION
Path length: 0.0121 CM, 0.0121 CM
Resolution: 4
Origin: DOW CHEMICAL COMPANY
MICROMETERS	TRANSMITTANCE
2.041	0.869
2.08222	0.869
2.12344	0.873
2.16466	0.869
2.20587	0.852
2.24709	0.859
2.28831	0.862
2.32953	0.864
2.37075	0.873
2.41197	0.861
2.45319	0.85
2.49441	0.873
2.53562	0.873
2.57684	0.878
2.61806	0.878
2.65928	0.873
2.7005	0.876
2.74172	0.866
2.78294	0.85
2.82416	0.826
2.86537	0.835
2.90659	0.854
2.94781	0.855
2.98903	0.85
3.03025	0.85
3.07147	0.838
3.11269	0.83
3.1539	0.801
3.19512	0.807
3.23634	0.828
3.27756	0.794
3.31878	0.732
3.36	0.656
3.40122	0.804
3.44244	0.807
3.48365	0.835
3.52487	0.843
3.56609	0.852
3.60731	0.854
3.64853	0.849
3.68975	0.859
3.73097	0.862
3.77219	0.869
3.8134	0.866
3.85462	0.866
3.89584	0.876
3.93706	0.873
3.97828	0.871
4.0195	0.857
4.06072	0.862
4.10193	0.867
4.14315	0.871
4.18437	0.869
4.22559	0.852
4.26681	0.847
4.30803	0.854
4.34925	0.859
4.39047	0.866
4.43168	0.867
4.4729	0.869
4.51412	0.874
4.55534	0.878
4.59656	0.869
4.63778	0.864
4.679	0.869
4.72022	0.871
4.76143	0.862
4.80265	0.869
4.84387	0.852
4.88509	0.859
4.92631	0.864
4.96753	0.869
5.00875	0.861
5.04996	0.857
5.09118	0.859
5.1324	0.85
5.17362	0.857
5.21484	0.862
5.25606	0.854
5.29728	0.85
5.3385	0.833
5.37971	0.816
5.42093	0.801
5.46215	0.771
5.50337	0.739
5.54459	0.679
5.58581	0.607
5.62703	0.396
5.66825	0.106
5.70946	0.044
5.75068	0.15
5.7919	0.341
5.83312	0.473
5.87434	0.542
5.91556	0.639
5.95678	0.698
5.99799	0.734
6.03921	0.74
6.08043	0.747
6.12165	0.74
6.16287	0.682
6.20409	0.607
6.24531	0.593
6.28653	0.569
6.32774	0.535
6.36896	0.487
6.41018	0.415
6.4514	0.418
6.49262	0.497
6.53384	0.54
6.57506	0.55
6.61628	0.447
6.65749	0.432
6.69871	0.648
6.73993	0.656
6.78115	0.643
6.82237	0.607
6.86359	0.487
6.90481	0.439
6.94602	0.447
6.98724	0.548
7.02846	0.605
7.06968	0.622
7.1109	0.59
7.15212	0.516
7.19334	0.418
7.23456	0.186
7.27577	0.216
7.31699	0.283
7.35821	0.44
7.39943	0.658
7.44065	0.74
7.48187	0.756
7.52309	0.753
7.56431	0.739
7.60552	0.71
7.64674	0.66
7.68796	0.584
7.72918	0.463
7.7704	0.382
7.81162	0.392
7.85284	0.349
7.89405	0.298
7.93527	0.229
7.97649	0.109
8.01771	0.03
8.05893	0.015
8.10015	0.013
8.14137	0.015
8.18259	0.022
8.2238	0.027
8.26502	0.072
8.30624	0.214
8.34746	0.349
8.38868	0.471
8.4299	0.569
8.47112	0.612
8.51234	0.627
8.55355	0.62
8.59477	0.566
8.63599	0.331
8.67721	0.192
8.71843	0.473
8.75965	0.624
8.80087	0.684
8.84208	0.715
8.8833	0.723
8.92452	0.725
8.96574	0.72
9.00696	0.71
9.04818	0.701
9.0894	0.692
9.13062	0.672
9.17183	0.639
9.21305	0.548
9.25427	0.459
9.29549	0.511
9.33671	0.545
9.37793	0.535
9.41915	0.49
9.46036	0.427
9.50158	0.358
9.5428	0.31
9.58402	0.3
9.62524	0.269
9.66646	0.192
9.70768	0.096
9.7489	0.054
9.79011	0.06
9.83133	0.037
9.87255	0.066
9.91377	0.173
9.95499	0.253
9.99621	0.289
10.0374	0.3
10.0786	0.279
10.1199	0.24
10.1611	0.236
10.2023	0.301
10.2435	0.356
10.2847	0.372
10.326	0.334
10.3672	0.303
10.4084	0.332
10.4496	0.382
10.4908	0.457
10.5321	0.518
10.5733	0.562
10.6145	0.574
10.6557	0.564
10.6969	0.53
10.7381	0.457
10.7794	0.344
10.8206	0.209
10.8618	0.132
10.903	0.169
10.9442	0.291
10.9855	0.389
11.0267	0.466
11.0679	0.514
11.1091	0.562
11.1503	0.59
11.1916	0.596
11.2328	0.555
11.274	0.392
11.3152	0.423
11.3564	0.557
11.3976	0.584
11.4389	0.583
11.4801	0.578
11.5213	0.562
11.5625	0.542
11.6037	0.53
11.645	0.533
11.6862	0.55
11.7274	0.56
11.7686	0.579
11.8098	0.593
11.851	0.605
11.8923	0.608
11.9335	0.605
11.9747	0.595
12.0159	0.59
12.0571	0.588
12.0984	0.586
12.1396	0.571
12.1808	0.54
12.222	0.473
12.2632	0.377
12.3045	0.271
12.3457	0.219
12.3869	0.284
12.4281	0.406
12.4693	0.502
12.5105	0.559
12.5518	0.605
12.593	0.627
12.6342	0.644
12.6754	0.653
12.7166	0.656
12.7579	0.662
12.7991	0.663
12.8403	0.663
12.8815	0.662
12.9227	0.653
12.964	0.643
13.0052	0.62
13.0464	0.591
13.0876	0.555
13.1288	0.506
13.17	0.435
13.2113	0.351
13.2525	0.257
13.2937	0.19
13.3349	0.138
13.3761	0.097
13.4174	0.056
13.4586	0.029
13.4998	0.015
13.541	0.005
13.5822	0.005
13.6235	0.041
13.6647	0.116
13.7059	0.224
13.7471	0.312
13.7883	0.397
13.8295	0.463
13.8708	0.516
13.912	0.557
13.9532	0.581
13.9944	0.596
14.0356	0.608
14.0769	0.615
14.1181	0.619
14.1593	0.62
14.2005	0.622
14.2417	0.62
14.283	0.619
14.3242	0.62
14.3654	0.615
14.4066	0.614
14.4478	0.608
14.489	0.605
14.5303	0.602
14.5715	0.595
14.6127	0.59
14.6539	0.581
14.6951	0.574
14.7364	0.566
14.7776	0.559
14.8188	0.55
14.86	0.547
14.9012	0.533
14.9425	0.526
14.9837	0.519
15.0249	0.511
15.0661	0.499
15.1073	0.483
15.1485	0.468
15.1898	0.451
15.231	0.428
15.2722	0.406
15.3134	0.391
15.3546	0.382
15.3959	0.379
15.4371	0.377
15.4783	0.377
15.5195	0.38
15.5607	0.38
15.602	0.379
15.6432	0.375
15.6844	0.37
15.7256	0.365
15.7668	0.36
15.808	0.353
15.8493	0.349
15.8905	0.349
15.9317	0.36
