Infrared Spectrum: 2-PENTENAL, 2-METHYL-
Formula: C6 H10 O
CAS: 623-36-9
State: LIQUID
Class: COBLENTZ
Instrument: Not specified, most likely a prism, grating, or hybrid spectrometer.
Sampling: TRANSMISSION
Path length: 0.003 CM
Resolution: 4
Origin: TENNESSEE EASTMAN COMPANY, RESEARCH LABORATORIES
MICROMETERS	TRANSMITTANCE
2.027	0.938
2.06794	0.938
2.10887	0.938
2.14981	0.94
2.19074	0.935
2.23168	0.902
2.27261	0.89
2.31355	0.89
2.35448	0.899
2.39542	0.909
2.43635	0.921
2.47729	0.921
2.51823	0.926
2.55916	0.928
2.6001	0.936
2.64103	0.941
2.68197	0.945
2.7229	0.947
2.76384	0.948
2.80477	0.948
2.84571	0.948
2.88665	0.948
2.92758	0.94
2.96852	0.772
3.00945	0.851
3.05039	0.907
3.09132	0.911
3.13226	0.905
3.17319	0.888
3.21413	0.87
3.25506	0.772
3.296	0.623
3.33694	0.2
3.37787	0.076
3.41881	0.229
3.45974	0.201
3.50068	0.295
3.54161	0.218
3.58255	0.482
3.62348	0.488
3.66442	0.374
3.70535	0.362
3.74629	0.801
3.78723	0.9
3.82816	0.943
3.8691	0.945
3.91003	0.969
3.95097	0.977
3.9919	0.976
4.03284	0.976
4.07377	0.976
4.11471	0.962
4.15565	0.948
4.19658	0.962
4.23752	0.972
4.27845	0.974
4.31939	0.977
4.36032	0.982
4.40126	0.984
4.44219	0.991
4.48313	0.984
4.52406	0.97
4.565	0.977
4.60594	0.977
4.64687	0.955
4.68781	0.967
4.72874	0.972
4.76968	0.974
4.81061	0.974
4.85155	0.948
4.89248	0.948
4.93342	0.953
4.97435	0.974
5.01529	0.976
5.05623	0.97
5.09716	0.969
5.1381	0.952
5.17903	0.95
5.21997	0.952
5.2609	0.953
5.30184	0.953
5.34277	0.95
5.38371	0.948
5.42465	0.941
5.46558	0.917
5.50652	0.905
5.54745	0.895
5.58839	0.885
5.62932	0.852
5.67026	0.774
5.71119	0.632
5.75213	0.529
5.79306	0.427
5.834	0.181
5.87494	0.061
5.91587	0.027
5.95681	0.027
5.99774	0.056
6.03868	0.126
6.07961	0.047
6.12055	0.158
6.16148	0.4
6.20242	0.589
6.24335	0.729
6.28429	0.8
6.32523	0.822
6.36616	0.83
6.4071	0.835
6.44803	0.837
6.48897	0.83
6.5299	0.811
6.57084	0.791
6.61177	0.772
6.65271	0.728
6.69365	0.673
6.73458	0.579
6.77552	0.307
6.81645	0.141
6.85739	0.223
6.89832	0.282
6.93926	0.319
6.98019	0.365
7.02113	0.389
7.06206	0.254
7.103	0.194
7.14394	0.396
7.18487	0.43
7.22581	0.345
7.26674	0.408
7.30768	0.497
7.34861	0.264
7.38955	0.381
7.43048	0.659
7.47142	0.736
7.51235	0.76
7.55329	0.731
7.59423	0.6
7.63516	0.294
7.6761	0.406
7.71703	0.678
7.75797	0.747
7.7989	0.752
7.83984	0.7
7.88077	0.603
7.92171	0.533
7.96265	0.608
8.00358	0.656
8.04452	0.617
8.08545	0.476
8.12639	0.241
8.16732	0.078
8.20826	0.095
8.24919	0.36
8.29013	0.625
8.33106	0.712
8.372	0.77
8.41294	0.803
8.45387	0.815
8.49481	0.822
8.53574	0.829
8.57668	0.83
8.61761	0.83
8.65855	0.825
8.69948	0.82
8.74042	0.82
8.78135	0.82
8.82229	0.811
8.86323	0.796
8.90416	0.758
8.9451	0.69
8.98603	0.663
9.02697	0.7
9.0679	0.724
9.10884	0.726
9.14977	0.702
9.19071	0.642
9.23165	0.553
9.27258	0.42
9.31352	0.362
9.35445	0.384
9.39539	0.369
9.43632	0.264
9.47726	0.162
9.51819	0.082
9.55913	0.059
9.60006	0.08
9.641	0.198
9.68194	0.341
9.72287	0.456
9.76381	0.5
9.80474	0.509
9.84568	0.447
9.88661	0.348
9.92755	0.244
9.96848	0.181
10.0094	0.179
10.0504	0.244
10.0913	0.348
10.1322	0.466
10.1732	0.57
10.2141	0.651
10.255	0.705
10.296	0.752
10.3369	0.786
10.3778	0.811
10.4188	0.832
10.4597	0.847
10.5006	0.863
10.5416	0.873
10.5825	0.88
10.6235	0.888
10.6644	0.894
10.7053	0.895
10.7463	0.897
10.7872	0.897
10.8281	0.894
10.8691	0.861
10.91	0.822
10.9509	0.801
10.9919	0.813
11.0328	0.832
11.0737	0.842
11.1147	0.844
11.1556	0.837
11.1965	0.815
11.2375	0.782
11.2784	0.731
11.3194	0.664
11.3603	0.586
11.4012	0.49
11.4422	0.405
11.4831	0.345
11.524	0.328
11.565	0.369
11.6059	0.459
11.6468	0.557
11.6878	0.62
11.7287	0.651
11.7696	0.654
11.8106	0.623
11.8515	0.574
11.8925	0.495
11.9334	0.396
11.9743	0.292
12.0153	0.225
12.0562	0.222
12.0971	0.317
12.1381	0.434
12.179	0.545
12.2199	0.622
12.2609	0.678
12.3018	0.714
12.3427	0.741
12.3837	0.752
12.4246	0.762
12.4655	0.765
12.5065	0.76
12.5474	0.748
12.5884	0.716
12.6293	0.678
12.6702	0.637
12.7112	0.598
12.7521	0.56
12.793	0.535
12.834	0.514
12.8749	0.511
12.9158	0.514
12.9568	0.531
12.9977	0.553
13.0386	0.577
13.0796	0.601
13.1205	0.627
13.1615	0.647
13.2024	0.668
13.2433	0.683
13.2843	0.699
13.3252	0.712
13.3661	0.731
13.4071	0.745
13.448	0.76
13.4889	0.776
13.5299	0.789
13.5708	0.8
13.6117	0.818
13.6527	0.832
13.6936	0.839
13.7345	0.852
13.7755	0.861
13.8164	0.866
13.8574	0.875
13.8983	0.882
13.9392	0.887
13.9802	0.892
14.0211	0.897
14.062	0.899
14.103	0.899
14.1439	0.899
14.1848	0.899
14.2258	0.9
14.2667	0.9
14.3076	0.899
14.3486	0.899
14.3895	0.897
14.4305	0.892
14.4714	0.888
14.5123	0.883
14.5533	0.882
14.5942	0.878
14.6351	0.863
14.6761	0.861
14.717	0.851
14.7579	0.839
14.7989	0.829
14.8398	0.813
14.8807	0.806
14.9217	0.794
14.9626	0.781
15.0035	0.765
15.0445	0.741
15.0854	0.728
15.1264	0.711
15.1673	0.699
15.2082	0.683
15.2492	0.675
15.2901	0.661
15.331	0.647
15.372	0.641
15.4129	0.632
15.4538	0.63
15.4948	0.63
15.5357	0.63
15.5766	0.632
15.6176	0.634
15.6585	0.641
15.6995	0.646
15.7404	0.651
15.7813	0.658
15.8223	0.668
15.8632	0.671
15.9041	0.673
15.9451	0.676
15.986	0.68
