Infrared Spectrum: 1,4-Dicyanobenzene
Formula: C8 H4 N2
CAS: 623-26-7
State: SOLID (NUJOL MULL)
Class: COBLENTZ III
Instrument: DOW KBr FOREPRISM-GRATING
Instrument parameters: BLAZED AT 3.5, 12.0, 20.0 MICRON AND CHANGED AT 5.0, 7.5, 14.9 MICRON
Sampling: TRANSMISSION
Resolution: 2
Origin: DOW CHEMICAL COMPANY
1/CM	TRANSMITTANCE
423	0.826
432	0.8275
441	0.8298
450	0.8344
459	0.842
468	0.8527
477	0.8642
486	0.8725
495	0.8795
504	0.8864
513	0.886
522	0.8773
531	0.8618
540	0.8787
549	0.8682
558	0.3973
567	0.8058
576	0.8638
585	0.8811
594	0.8868
603	0.8897
612	0.8902
621	0.8865
630	0.8709
639	0.7475
648	0.8933
657	0.8917
666	0.8821
675	0.8843
684	0.8805
693	0.8728
702	0.863
711	0.8433
720	0.8191
729	0.8337
738	0.8421
747	0.8481
756	0.8491
765	0.8489
774	0.8488
783	0.8505
792	0.8511
801	0.8482
810	0.8437
819	0.8352
828	0.8175
837	0.7618
846	0.0997
855	0.7687
864	0.8001
873	0.7972
882	0.7872
891	0.819
900	0.8206
909	0.8202
918	0.8184
927	0.8155
936	0.8131
945	0.811
954	0.8088
963	0.8041
972	0.7957
981	0.8028
990	0.8007
999	0.7974
1008	0.7892
1017	0.7767
1026	0.7258
1035	0.785
1044	0.7776
1053	0.7725
1062	0.7698
1071	0.7681
1080	0.7748
1089	0.7844
1098	0.7838
1107	0.7869
1116	0.7826
1125	0.7887
1134	0.7854
1143	0.7783
1152	0.7753
1161	0.7725
1170	0.7653
1179	0.7542
1188	0.7528
1197	0.6525
1206	0.7808
1215	0.7912
1224	0.7892
1233	0.7825
1242	0.7717
1251	0.7593
1260	0.7461
1269	0.7261
1278	0.5381
1287	0.7265
1296	0.7274
1305	0.7365
1314	0.734
1323	0.7298
1332	0.7038
1341	0.7191
1350	0.7068
1359	0.6893
1368	0.6531
1377	0.5581
1386	0.6822
1395	0.6688
1404	0.6008
1413	0.675
1422	0.7148
1431	0.6858
1440	0.6244
1449	0.4983
1458	0.4121
1467	0.4335
1476	0.645
1485	0.6658
1494	0.6503
1503	0.4025
1512	0.7786
1521	0.7495
1530	0.7339
1539	0.7397
1548	0.7394
1557	0.7342
1566	0.7315
1575	0.7271
1584	0.7226
1593	0.7206
1602	0.7207
1611	0.7208
1620	0.7194
1629	0.7185
1638	0.7178
1647	0.7165
1656	0.7139
1665	0.7101
1674	0.7042
1683	0.6888
1692	0.6774
1701	0.6919
1710	0.7038
1719	0.7042
1728	0.7036
1737	0.7021
1746	0.7003
1755	0.6984
1764	0.6967
1773	0.695
1782	0.6921
1791	0.6881
1800	0.6781
1809	0.6628
1818	0.6684
1827	0.6825
1836	0.6892
1845	0.6901
1854	0.6887
1863	0.6855
1872	0.6825
1881	0.6801
1890	0.6782
1899	0.676
1908	0.6736
1917	0.6708
1926	0.6683
1935	0.6446
1944	0.6348
1953	0.6649
1962	0.6665
1971	0.6633
1980	0.6632
1989	0.6615
1998	0.6565
2007	0.6422
2016	0.6417
2025	0.641
2034	0.64
2043	0.6388
2052	0.6372
2061	0.6349
2070	0.6326
2079	0.6294
2088	0.6262
2097	0.6231
2106	0.62
2115	0.6162
2124	0.6125
2133	0.6087
2142	0.6042
2151	0.5994
2160	0.5948
2169	0.5892
2178	0.5832
2187	0.5762
2196	0.5652
2205	0.5494
2214	0.5231
2223	0.475
2232	0.1793
2241	0.5678
2250	0.6675
2259	0.6811
2268	0.6643
2277	0.6481
2286	0.6371
2295	0.6266
2304	0.6185
2313	0.6123
2322	0.6083
2331	0.6048
2340	0.6025
2349	0.6015
2358	0.6012
2367	0.6026
2376	0.6038
2385	0.6029
2394	0.6014
2403	0.5993
2412	0.597
2421	0.5945
2430	0.5917
2439	0.5887
2448	0.5857
2457	0.583
2466	0.5805
2475	0.578
2484	0.576
2493	0.5741
2502	0.5722
2511	0.5699
2520	0.5673
2529	0.5647
2538	0.5622
2547	0.5589
2556	0.5552
2565	0.5515
2574	0.5491
2583	0.5474
2592	0.546
2601	0.5449
2610	0.5435
2619	0.5415
2628	0.5396
2637	0.5377
2646	0.5346
2655	0.5312
2664	0.5284
2673	0.5265
2682	0.5245
2691	0.5226
2700	0.5214
2709	0.5204
2718	0.5195
2727	0.519
2736	0.5187
2745	0.5183
2754	0.5164
2763	0.5143
2772	0.5105
2781	0.5057
2790	0.4958
2799	0.4853
2808	0.4719
2817	0.4545
2826	0.428
2835	0.377
2844	0.0699
2853	0.0681
2862	0.1064
2871	0.1502
2880	0.1632
2889	0.1125
2898	0.062
2907	0.0299
2916	0.0148
2925	0.0144
2934	0.0342
2943	0.0416
2952	0.0425
2961	0.0506
2970	0.142
2979	0.299
2988	0.3482
2997	0.3648
3006	0.4043
3015	0.4116
3024	0.4119
3033	0.406
3042	0.375
3051	0.301
3060	0.4647
3069	0.4594
3078	0.45
3087	0.4141
3096	0.2932
3105	0.4292
3114	0.4355
3123	0.4398
3132	0.4482
3141	0.4489
3150	0.4488
3159	0.4487
3168	0.4488
3177	0.4488
3186	0.4487
3195	0.4485
3204	0.4482
3213	0.4471
3222	0.446
3231	0.4449
3240	0.4438
3249	0.4426
3258	0.4414
3267	0.4402
3276	0.439
3285	0.4378
3294	0.4366
3303	0.4358
3312	0.435
3321	0.4341
3330	0.4333
3339	0.4325
3348	0.4317
3357	0.4309
3366	0.4301
3375	0.4293
3384	0.4286
3393	0.4279
3402	0.4273
3411	0.4266
3420	0.426
3429	0.4258
3438	0.426
3447	0.426
3456	0.4262
3465	0.4257
3474	0.4252
3483	0.4247
3492	0.4243
3501	0.4239
3510	0.4235
3519	0.4231
3528	0.4225
3537	0.4218
3546	0.421
3555	0.4204
3564	0.4195
3573	0.4186
3582	0.4177
3591	0.4167
3600	0.4156
3609	0.4144
3618	0.4133
3627	0.4123
3636	0.4114
3645	0.4105
3654	0.4094
3663	0.408
3672	0.4066
3681	0.4053
3690	0.4043
3699	0.4032
3708	0.4037
3717	0.4043
3726	0.4052
3735	0.4059
3744	0.4073
3753	0.4115
