Infrared Spectrum: PROPIOLIC ACID, ETHYL ESTER
Formula: C5 H6 O2
CAS: 623-47-2
Class: COBLENTZ
Instrument: Not specified, most likely a prism, grating, or hybrid spectrometer.
Sampling: TRANSMISSION
Path length: 0.0030 CM CELL
Resolution: 4
Origin: TENNESSEE EASTMAN COMPANY, RESEARCH LABORATORIES
MICROMETERS	TRANSMITTANCE
2.116	0.877
2.15712	0.895
2.19824	0.9
2.23935	0.898
2.28047	0.895
2.32159	0.898
2.36271	0.9
2.40382	0.9
2.44494	0.9
2.48606	0.896
2.52718	0.872
2.5683	0.891
2.60941	0.905
2.65053	0.913
2.69165	0.92
2.73277	0.92
2.77388	0.913
2.815	0.903
2.85612	0.905
2.89724	0.889
2.93836	0.772
2.97947	0.812
3.02059	0.411
3.06171	0.029
3.10283	0.149
3.14394	0.59
3.18506	0.786
3.22618	0.845
3.2673	0.841
3.30842	0.543
3.34953	0.089
3.39065	0.316
3.43177	0.407
3.47289	0.648
3.514	0.803
3.55512	0.864
3.59624	0.886
3.63736	0.9
3.67848	0.908
3.71959	0.951
3.76071	0.96
3.80183	0.941
3.84295	0.932
3.88406	0.953
3.92518	0.965
3.9663	0.967
4.00742	0.958
4.04854	0.907
4.08965	0.886
4.13077	0.919
4.17189	0.946
4.21301	0.956
4.25412	0.958
4.29524	0.96
4.33636	0.96
4.37748	0.963
4.4186	0.958
4.45971	0.946
4.50083	0.939
4.54195	0.853
4.58307	0.648
4.62418	0.23
4.6653	0.03
4.70642	0.208
4.74754	0.714
4.78865	0.798
4.82977	0.925
4.87089	0.955
4.91201	0.963
4.95313	0.97
4.99424	0.986
5.03536	0.984
5.07648	0.981
5.1176	0.982
5.15871	0.986
5.19983	0.986
5.24095	0.982
5.28207	0.932
5.32319	0.905
5.3643	0.905
5.40542	0.907
5.44654	0.915
5.48766	0.903
5.52877	0.822
5.56989	0.764
5.61101	0.667
5.65213	0.524
5.69325	0.33
5.73436	0.082
5.77548	0.018
5.8166	0.018
5.85772	0.02
5.89883	0.055
5.93995	0.225
5.98107	0.395
6.02219	0.583
6.06331	0.703
6.10442	0.748
6.14554	0.798
6.18666	0.839
6.22778	0.87
6.26889	0.882
6.31001	0.882
6.35113	0.869
6.39225	0.848
6.43337	0.831
6.47448	0.753
6.5156	0.681
6.55672	0.624
6.59784	0.616
6.63895	0.593
6.68007	0.497
6.72119	0.24
6.76231	0.158
6.80343	0.173
6.84454	0.187
6.88566	0.185
6.92678	0.418
6.9679	0.475
7.00901	0.483
7.05013	0.438
7.09125	0.352
7.13237	0.237
7.17349	0.161
7.2146	0.216
7.25572	0.203
7.29684	0.06
7.33796	0.246
7.37907	0.462
7.42019	0.481
7.46131	0.459
7.50243	0.48
7.54355	0.38
7.58466	0.294
7.62578	0.168
7.6669	0.063
7.70802	0.063
7.74913	0.086
7.79025	0.061
7.83137	0.039
7.87249	0.02
7.91361	0.02
7.95472	0.02
7.99584	0.018
8.03696	0.018
8.07808	0.018
8.11919	0.018
8.16031	0.02
8.20143	0.02
8.24255	0.02
8.28367	0.039
8.32478	0.079
8.3659	0.122
8.40702	0.165
8.44814	0.197
8.48925	0.204
8.53037	0.251
8.57149	0.275
8.61261	0.285
8.65373	0.306
8.69484	0.302
8.73596	0.251
8.77708	0.232
8.8182	0.242
8.85931	0.249
8.90043	0.199
8.94155	0.172
8.98267	0.179
9.02379	0.187
9.0649	0.148
9.10602	0.141
9.14714	0.246
9.18826	0.285
9.22937	0.359
9.27049	0.454
9.31161	0.457
9.35273	0.347
9.39385	0.277
9.43496	0.258
9.47608	0.268
9.5172	0.277
9.55832	0.268
9.59943	0.216
9.64055	0.125
9.68167	0.058
9.72279	0.032
9.76391	0.029
9.80502	0.037
9.84614	0.096
9.88726	0.204
9.92838	0.38
9.96949	0.511
10.0106	0.636
10.0517	0.717
10.0928	0.76
10.134	0.793
10.1751	0.814
10.2162	0.829
10.2573	0.838
10.2984	0.838
10.3396	0.808
10.3807	0.724
10.4218	0.679
10.4629	0.654
10.504	0.65
10.5451	0.717
10.5863	0.772
10.6274	0.79
10.6685	0.791
10.7096	0.755
10.7507	0.662
10.7918	0.581
10.833	0.598
10.8741	0.666
10.9152	0.719
10.9563	0.738
10.9974	0.741
11.0386	0.762
11.0797	0.826
11.1208	0.857
11.1619	0.87
11.203	0.872
11.2441	0.872
11.2853	0.853
11.3264	0.827
11.3675	0.79
11.4086	0.731
11.4497	0.635
11.4909	0.456
11.532	0.294
11.5731	0.203
11.6142	0.179
11.6553	0.23
11.6964	0.37
11.7376	0.5
11.7787	0.598
11.8198	0.666
11.8609	0.714
11.902	0.75
11.9431	0.774
11.9843	0.793
12.0254	0.803
12.0665	0.803
12.1076	0.803
12.1487	0.8
12.1899	0.784
12.231	0.769
12.2721	0.752
12.3132	0.736
12.3543	0.712
12.3954	0.688
12.4366	0.66
12.4777	0.609
12.5188	0.537
12.5599	0.466
12.601	0.43
12.6421	0.432
12.6833	0.45
12.7244	0.457
12.7655	0.435
12.8066	0.383
12.8477	0.328
12.8889	0.258
12.93	0.192
12.9711	0.141
13.0122	0.101
13.0533	0.086
13.0944	0.079
13.1356	0.079
13.1767	0.08
13.2178	0.098
13.2589	0.161
13.3	0.232
13.3412	0.306
13.3823	0.376
13.4234	0.404
13.4645	0.419
13.5056	0.428
13.5467	0.428
13.5879	0.421
13.629	0.404
13.6701	0.39
13.7112	0.373
13.7523	0.358
13.7934	0.339
13.8346	0.328
13.8757	0.308
13.9168	0.297
13.9579	0.278
13.999	0.273
14.0402	0.266
14.0813	0.259
14.1224	0.254
14.1635	0.253
14.2046	0.251
14.2457	0.251
14.2869	0.251
14.328	0.256
14.3691	0.259
14.4102	0.268
14.4513	0.275
14.4924	0.283
14.5336	0.297
14.5747	0.306
14.6158	0.318
14.6569	0.327
14.698	0.342
14.7392	0.351
14.7803	0.363
14.8214	0.378
14.8625	0.387
14.9036	0.416
14.9447	0.456
14.9859	0.481
15.027	0.485
15.0681	0.478
15.1092	0.475
15.1503	0.495
15.1915	0.514
15.2326	0.537
15.2737	0.561
15.3148	0.581
15.3559	0.6
15.397	0.614
15.4382	0.631
15.4793	0.643
15.5204	0.662
15.5615	0.672
15.6026	0.681
15.6437	0.695
15.6849	0.705
15.726	0.712
15.7671	0.719
15.8082	0.724
15.8493	0.726
15.8905	0.733
15.9316	0.741
15.9727	0.745
