Infrared Spectrum: p-CHLOROBENZONITRILE
Formula: C7 H4 Cl N
CAS: 623-03-0
State: GAS (100 mmHg DILUTED TO A TOTAL PRESSURE OF ABOUT 1 ATMOSPHERE WITH NITROGEN)
Class: COBLENTZ
Instrument: DOW KBr FOREPRISM
Instrument parameters: GRATING BLAZED AT 3.5, 12.0, 20.0 MICRONS AND CHANGED AT 5.0, 7.5, 14.9 MICRONS
Sampling: TRANSMISSION
Path length: 500 CM
Resolution: 4
Origin: DOW CHEMICAL COMPANY
1/CM	TRANSMITTANCE
423.64	1.113
432.417	1.107
441.194	1.106
449.971	1.107
458.748	1.107
467.525	1.104
476.303	1.095
485.08	1.088
493.857	1.063
502.634	1.027
511.411	0.95
520.188	0.85
528.965	0.668
537.742	0.604
546.519	0.824
555.296	0.99
564.073	1.022
572.85	0.936
581.628	0.656
590.405	0.691
599.182	1.008
607.959	1.015
616.736	0.995
625.513	1.017
634.29	1.029
643.067	1.023
651.844	1.009
660.621	1.091
669.398	1.051
678.175	1.037
686.953	0.9361
695.73	1.03
704.507	1.049
713.284	1.074
722.061	1.08
730.838	1.06
739.615	1.008
748.392	0.959
757.169	0.8021
765.946	0.89
774.723	0.756
783.5	0.748
792.278	0.953
801.055	0.935
809.832	0.7439
818.609	0.447
827.386	0.303
836.163	0.334
844.94	0.422
853.717	0.788
862.494	0.904
871.271	0.946
880.048	0.97
888.826	0.959
897.603	0.97
906.38	0.984
915.157	0.97
923.934	0.966
932.711	0.961
941.488	0.959
950.265	0.961
959.042	0.957
967.819	0.955
976.596	0.957
985.373	0.955
994.151	0.943
1002.93	0.904
1011.7	0.5989
1020.48	0.392
1029.26	0.7521
1038.04	0.912
1046.81	0.903
1055.59	0.881
1064.37	0.819
1073.14	0.704
1081.92	0.587
1090.7	0.158
1099.48	0.158
1108.25	0.6931
1117.03	0.792
1125.81	0.791
1134.58	0.83
1143.36	0.863
1152.14	0.867
1160.92	0.838
1169.69	0.788
1178.47	0.776
1187.25	0.831
1196.02	0.852
1204.8	0.872
1213.58	0.863
1222.35	0.823
1231.13	0.796
1239.91	0.772
1248.69	0.751
1257.46	0.73
1266.24	0.744
1275.02	0.78
1283.79	0.802
1292.57	0.819
1301.35	0.831
1310.13	0.827
1318.9	0.821
1327.68	0.824
1336.46	0.819
1345.23	0.821
1354.01	0.791
1362.79	0.74
1371.57	0.747
1380.34	0.708
1389.12	0.633
1397.9	0.567
1406.67	0.611
1415.45	0.708
1424.23	0.762
1433	0.773
1441.78	0.783
1450.56	0.766
1459.34	0.73
1468.11	0.701
1476.89	0.3309
1485.67	0.096
1494.44	0.062
1503.22	0.1161
1512	0.7011
1520.78	0.716
1529.55	0.725
1538.33	0.705
1547.11	0.716
1555.88	0.718
1564.66	0.726
1573.44	0.719
1582.22	0.698
1590.99	0.4028
1599.77	0.132
1608.55	0.2201
1617.32	0.709
1626.1	0.748
1634.88	0.704
1643.65	0.682
1652.43	0.633
1661.21	0.662
1669.99	0.676
1678.76	0.656
1687.54	0.678
1696.32	0.698
1705.09	0.715
1713.87	0.701
1722.65	0.736
1731.43	0.709
1740.2	0.719
1748.98	0.693
1757.76	0.715
1766.53	0.716
1775.31	0.669
1784.09	0.675
1792.87	0.707
1801.64	0.734
1810.42	0.729
1819.2	0.748
1827.97	0.733
1836.75	0.745
1845.53	0.723
1854.3	0.751
1863.08	0.736
1871.86	0.725
1880.64	0.719
1889.41	0.685
1898.19	0.639
1906.97	0.606
1915.74	0.629
1924.52	0.705
1933.3	0.73
1942.08	0.719
1950.85	0.733
1959.63	0.729
1968.41	0.723
1977.18	0.73
1985.96	0.725
1994.74	0.723
2003.52	0.806
2012.29	0.801
2021.07	0.798
2029.85	0.794
2038.62	0.785
2047.4	0.784
2056.18	0.783
2064.95	0.779
2073.73	0.774
2082.51	0.776
2091.29	0.7741
2100.06	0.766
2108.84	0.7621
2117.62	0.759
2126.39	0.7561
2135.17	0.754
2143.95	0.752
2152.73	0.7481
2161.5	0.743
2170.28	0.7411
2179.06	0.7341
2187.83	0.73
2196.61	0.73
2205.39	0.7231
2214.17	0.7161
2222.94	0.6858
2231.72	0.4798
2240.5	0.3191
2249.27	0.4632
2258.05	0.708
2266.83	0.6982
2275.6	0.6901
2284.38	0.686
2293.16	0.685
2301.94	0.685
2310.71	0.685
2319.49	0.685
2328.27	0.685
2337.04	0.685
2345.82	0.683
2354.6	0.6802
2363.38	0.679
2372.15	0.678
2380.93	0.679
2389.71	0.685
2398.48	0.6859
2407.26	0.687
2416.04	0.689
2424.82	0.687
2433.59	0.686
2442.37	0.685
2451.15	0.6821
2459.92	0.679
2468.7	0.675
2477.48	0.6693
2486.25	0.6637
2495.03	0.658
2503.81	0.6513
2512.59	0.6434
2521.36	0.6428
2530.14	0.6433
2538.92	0.6428
2547.69	0.6524
2556.47	0.658
2565.25	0.6513
2574.03	0.6462
2582.8	0.6468
2591.58	0.6538
2600.36	0.654
2609.13	0.6538
2617.91	0.658
2626.69	0.656
2635.47	0.654
2644.24	0.651
2653.02	0.647
2661.8	0.6474
2670.57	0.6452
2679.35	0.6458
2688.13	0.6468
2696.91	0.6486
2705.68	0.645
2714.46	0.645
2723.24	0.6434
2732.01	0.639
2740.79	0.633
2749.57	0.6282
2758.34	0.6224
2767.12	0.6185
2775.9	0.62
2784.68	0.621
2793.45	0.624
2802.23	0.625
2811.01	0.6212
2819.78	0.6208
2828.56	0.622
2837.34	0.622
2846.12	0.6185
2854.89	0.614
2863.67	0.613
2872.45	0.61
2881.22	0.607
2890	0.606
2898.78	0.604
2907.56	0.6033
2916.33	0.6023
2925.11	0.6005
2933.89	0.6
2942.66	0.6
2951.44	0.602
2960.22	0.602
2968.99	0.602
2977.77	0.602
2986.55	0.6
2995.33	0.5966
3004.1	0.593
3012.88	0.5896
3021.66	0.5826
3030.43	0.5736
3039.21	0.5609
3047.99	0.555
3056.77	0.5566
3065.54	0.555
3074.32	0.5496
3083.1	0.5406
3091.87	0.5263
3100.65	0.517
3109.43	0.5335
3118.21	0.5754
3126.98	0.5863
3135.76	0.588
3144.54	0.587
3153.31	0.587
3162.09	0.585
3170.87	0.584
3179.64	0.5813
3188.42	0.581
3197.2	0.581
3205.98	0.582
3214.75	0.5833
3223.53	0.584
3232.31	0.584
3241.08	0.5827
3249.86	0.5827
3258.64	0.582
3267.42	0.581
3276.19	0.58
3284.97	0.578
3293.75	0.577
3302.52	0.577
3311.3	0.577
3320.08	0.577
3328.86	0.5758
3337.63	0.5758
3346.41	0.575
3355.19	0.575
3363.96	0.5744
3372.74	0.574
3381.52	0.571
3390.29	0.5678
3399.07	0.5624
3407.85	0.558
3416.63	0.5514
3425.4	0.551
3434.18	0.5502
3442.96	0.5652
3451.73	0.5649
3460.51	0.562
3469.29	0.559
3478.07	0.558
3486.84	0.556
3495.62	0.5526
3504.4	0.553
3513.17	0.5533
3521.95	0.548
3530.73	0.5514
3539.51	0.5485
3548.28	0.549
3557.06	0.5469
3565.84	0.543
3574.61	0.548
3583.39	0.544
3592.17	0.542
3600.94	0.537
3609.72	0.537
3618.5	0.5405
3627.28	0.54
3636.05	0.534
3644.83	0.526
3653.61	0.537
3662.38	0.5345
3671.16	0.533
3679.94	0.533
3688.72	0.5305
3697.49	0.527
3706.27	0.523
3715.05	0.519
3723.82	0.5155
3732.6	0.5165
3741.38	0.5245
3750.16	0.533
3758.93	0.535
3767.71	0.5345
3776.49	0.531
3785.26	0.527
3794.04	0.5314
