Infrared Spectrum: GLYCINE, ETHYL ESTER, HYDROCHLORIDE
Formula: C4 H10 Cl N O2
CAS: 623-33-6
State: SOLID (0.7 mg / 500 mg KBr DISC)
Class: COBLENTZ III
Instrument: PERKIN-ELMER 21 (GRATING)
Instrument parameters: FILTER CHANGE AT 1090 CM^-^1
Sampling: TRANSMISSION
Resolution: 4
Origin: SOUTHERN RESEARCH INST.
1/CM	TRANSMITTANCE
598.134	0.842
607.684	0.839
617.234	0.837
626.784	0.837
636.334	0.837
645.884	0.833
655.434	0.829
664.984	0.793
674.533	0.796
684.083	0.83
693.633	0.843
703.183	0.851
712.733	0.852
722.283	0.85
731.833	0.849
741.383	0.849
750.933	0.851
760.483	0.852
770.033	0.846
779.583	0.837
789.133	0.83
798.683	0.817
808.233	0.733
817.782	0.728
827.332	0.811
836.882	0.83
846.432	0.792
855.982	0.628
865.532	0.777
875.082	0.82
884.632	0.807
894.182	0.779
903.732	0.601
913.282	0.382
922.832	0.703
932.382	0.791
941.932	0.814
951.482	0.821
961.031	0.82
970.581	0.814
980.131	0.792
989.681	0.776
999.231	0.728
1008.78	0.615
1018.33	0.728
1027.88	0.779
1037.43	0.747
1046.98	0.637
1056.53	0.176
1066.08	0.411
1075.63	0.729
1085.18	0.753
1094.73	0.72
1104.28	0.566
1113.83	0.698
1123.38	0.738
1132.93	0.683
1142.48	0.499
1152.03	0.697
1161.58	0.738
1171.13	0.743
1180.68	0.747
1190.23	0.745
1199.78	0.729
1209.33	0.695
1218.88	0.66
1228.43	0.574
1237.98	0.429
1247.53	0.119
1257.08	0.102
1266.63	0.216
1276.18	0.497
1285.73	0.652
1295.28	0.679
1304.83	0.684
1314.38	0.599
1323.93	0.637
1333.48	0.774
1343.03	0.785
1352.58	0.786
1362.13	0.779
1371.68	0.758
1381.23	0.635
1390.78	0.5
1400.33	0.483
1409.88	0.611
1419.43	0.293
1428.98	0.542
1438.53	0.452
1448.08	0.716
1457.63	0.539
1467.18	0.471
1476.73	0.577
1486.28	0.666
1495.83	0.652
1505.38	0.478
1514.93	0.261
1524.48	0.315
1534.03	0.671
1543.58	0.612
1553.13	0.471
1562.68	0.448
1572.23	0.588
1581.78	0.515
1591.33	0.458
1600.88	0.608
1610.43	0.732
1619.98	0.752
1629.53	0.759
1639.08	0.772
1648.63	0.782
1658.18	0.784
1667.73	0.788
1677.28	0.792
1686.83	0.784
1696.38	0.771
1705.93	0.729
1715.48	0.696
1725.03	0.65
1734.58	0.521
1744.13	0.105
1753.68	0.154
1763.23	0.376
1772.78	0.6
1782.33	0.71
1791.88	0.753
1801.43	0.757
1810.98	0.754
1820.53	0.763
1830.08	0.778
1839.63	0.783
1849.18	0.784
1858.73	0.782
1868.28	0.785
1877.82	0.79
1887.37	0.793
1896.92	0.796
1906.47	0.8
1916.02	0.807
1925.57	0.813
1935.12	0.817
1944.67	0.818
1954.22	0.819
1963.77	0.824
1973.32	0.827
1982.87	0.829
1992.42	0.828
2001.97	0.827
2011.52	0.828
2021.07	0.83
2030.62	0.83
2040.17	0.829
2049.72	0.829
2059.27	0.832
2068.82	0.833
2078.37	0.834
2087.92	0.836
2097.47	0.837
2107.02	0.838
2116.57	0.839
2126.12	0.84
2135.67	0.841
2145.22	0.841
2154.77	0.843
2164.32	0.841
2173.87	0.837
2183.42	0.834
2192.97	0.834
2202.52	0.836
2212.07	0.837
2221.62	0.837
2231.17	0.837
2240.72	0.835
2250.27	0.833
2259.82	0.826
2269.37	0.822
2278.92	0.83
2288.47	0.833
2298.02	0.828
2307.57	0.825
2317.12	0.823
2326.67	0.822
2336.22	0.822
2345.77	0.821
2355.32	0.82
2364.87	0.818
2374.42	0.815
2383.97	0.811
2393.52	0.801
2403.07	0.76
2412.62	0.751
2422.17	0.776
2431.72	0.784
2441.27	0.786
2450.82	0.785
2460.37	0.782
2469.92	0.778
2479.47	0.766
2489.02	0.758
2498.57	0.758
2508.12	0.76
2517.67	0.763
2527.22	0.762
2536.77	0.755
2546.32	0.75
2555.87	0.743
2565.42	0.735
2574.97	0.707
2584.52	0.679
2594.07	0.649
2603.62	0.611
2613.17	0.562
2622.72	0.511
2632.27	0.524
2641.82	0.603
2651.37	0.615
2660.92	0.606
2670.47	0.611
2680.02	0.63
2689.57	0.64
2699.12	0.635
2708.67	0.619
2718.22	0.608
2727.77	0.601
2737.32	0.591
2746.87	0.574
2756.42	0.553
2765.97	0.51
2775.52	0.497
2785.07	0.483
2794.62	0.478
2804.17	0.46
2813.72	0.418
2823.27	0.384
2832.82	0.354
2842.37	0.326
2851.92	0.304
2861.47	0.293
2871.02	0.29
2880.57	0.286
2890.12	0.278
2899.67	0.266
2909.22	0.261
2918.77	0.257
2928.32	0.254
2937.87	0.251
2947.42	0.244
2956.97	0.217
2966.52	0.213
2976.07	0.234
2985.62	0.249
2995.17	0.253
3004.72	0.26
3014.27	0.261
3023.82	0.265
3033.37	0.27
3042.92	0.27
3052.47	0.268
3062.02	0.276
3071.57	0.281
3081.12	0.285
3090.67	0.286
3100.22	0.292
3109.77	0.301
3119.32	0.322
3128.87	0.358
3138.42	0.4
3147.97	0.441
3157.52	0.47
3167.07	0.49
3176.62	0.516
3186.17	0.524
3195.72	0.553
3205.27	0.573
3214.82	0.59
3224.37	0.62
3233.92	0.638
3243.47	0.646
3253.02	0.659
3262.57	0.669
3272.12	0.676
3281.67	0.685
3291.22	0.69
3300.76	0.691
3310.31	0.693
3319.86	0.692
3329.41	0.691
3338.96	0.69
3348.51	0.689
3358.06	0.687
3367.61	0.686
3377.16	0.682
3386.71	0.677
3396.26	0.676
3405.81	0.678
3415.36	0.678
3424.91	0.676
3434.46	0.675
3444.01	0.675
3453.56	0.675
3463.11	0.678
3472.66	0.683
3482.21	0.692
3491.76	0.701
3501.31	0.708
3510.86	0.714
3520.41	0.722
3529.96	0.726
3539.51	0.729
3549.06	0.732
3558.61	0.736
3568.16	0.743
3577.71	0.747
3587.26	0.753
3596.81	0.758
3606.36	0.762
3615.91	0.768
3625.46	0.77
3635.01	0.773
3644.56	0.773
3654.11	0.774
3663.66	0.774
3673.21	0.775
3682.76	0.776
3692.31	0.778
3701.86	0.778
3711.41	0.779
3720.96	0.779
3730.51	0.779
3740.06	0.779
3749.61	0.78
3759.16	0.78
3768.71	0.781
3778.26	0.781
3787.81	0.781
3797.36	0.781
3806.91	0.781
3816.46	0.781
3826.01	0.781
3835.56	0.781
3845.11	0.781
3854.66	0.78
3864.21	0.78
3873.76	0.78
3883.31	0.779
3892.86	0.778
3902.41	0.778
3911.96	0.777
3921.51	0.777
3931.06	0.777
3940.61	0.775
3950.16	0.775
3959.71	0.775
3969.26	0.775
3978.81	0.774
3988.36	0.774
3997.91	0.774
4007.46	0.774
