Infrared Spectrum: BENZONITRILE, 4-BROMO-
Formula: C7 H4 Br N
CAS: 623-00-7
State: SOLUTION (5% IN CCl4 FOR 3800-1330, 5% IN CS2 FOR 1330-400 CM^-^1)
Class: COBLENTZ III
Instrument: BECKMAN IR-9 (GRATING)
Instrument parameters: ORDER CHANGES AT 670, 1200, 2000 CM^-^1
Sampling: TRANSMISSION
Path length: 0.010, 0.010 CM
Resolution: 4
Origin: DOW CHEMICAL COMPANY
1/CM	TRANSMITTANCE
459.767	0.813
468.513	0.828
477.26	0.847
486.006	0.859
494.752	0.869
503.499	0.882
512.245	0.889
520.991	0.89
529.738	0.822
538.484	0.267
547.23	0.824
555.977	0.911
564.723	0.931
573.469	0.939
582.216	0.946
590.962	0.939
599.708	0.949
608.455	0.952
617.201	0.954
625.948	0.954
634.694	0.941
643.44	0.919
652.187	0.903
660.933	0.922
669.679	0.931
678.426	0.92
687.172	0.919
695.918	0.919
704.665	0.881
713.411	0.922
722.157	0.934
730.904	0.948
739.65	0.957
748.396	0.963
757.143	0.967
765.889	0.944
774.635	0.879
783.382	0.942
792.128	0.948
800.874	0.944
809.621	0.916
818.367	0.7079
827.113	0.32
835.86	0.811
844.606	0.877
853.352	0.907
862.099	0.926
870.845	0.938
879.591	0.948
888.338	0.954
897.084	0.961
905.83	0.968
914.577	0.968
923.323	0.972
932.07	0.969
940.816	0.965
949.562	0.953
958.309	0.956
967.055	0.957
975.801	0.964
984.548	0.964
993.294	0.963
1002.04	0.956
1010.79	0.806
1019.53	0.774
1028.28	0.948
1037.03	0.957
1045.77	0.949
1054.52	0.942
1063.26	0.858
1072.01	0.6529
1080.76	0.877
1089.5	0.894
1098.25	0.915
1107	0.953
1115.74	0.953
1124.49	0.978
1133.24	0.978
1141.98	0.982
1150.73	0.978
1159.47	0.971
1168.22	0.959
1176.97	0.948
1185.71	0.953
1194.46	0.965
1203.21	0.974
1211.95	0.975
1220.7	0.968
1229.45	0.963
1238.19	0.964
1246.94	0.924
1255.68	0.953
1264.43	0.963
1273.18	0.933
1281.92	0.93
1290.67	0.961
1299.42	0.949
1308.16	0.953
1316.91	0.954
1325.65	0.957
1334.4	0.954
1343.15	0.957
1351.89	0.952
1360.64	0.946
1369.39	0.939
1378.13	0.944
1386.88	0.934
1395.63	0.938
1404.37	0.901
1413.12	0.957
1421.86	0.972
1430.61	0.967
1439.36	0.967
1448.1	0.965
1456.85	0.96
1465.6	0.949
1474.34	0.907
1483.09	0.607
1491.84	0.754
1500.58	0.836
1509.33	0.803
1518.07	0.725
1526.82	0.68
1535.57	0.631
1544.31	0.545
1553.06	0.499
1561.81	0.553
1570.55	0.63
1579.3	0.664
1588.05	0.519
1596.79	0.742
1605.54	0.833
1614.28	0.873
1623.03	0.89
1631.78	0.896
1640.52	0.931
1649.27	0.923
1658.02	0.926
1666.76	0.944
1675.51	0.942
1684.26	0.956
1693	0.96
1701.75	0.961
1710.49	0.961
1719.24	0.964
1727.99	0.967
1736.73	0.964
1745.48	0.965
1754.23	0.96
1762.97	0.96
1771.72	0.959
1780.46	0.959
1789.21	0.952
1797.96	0.956
1806.7	0.957
1815.45	0.953
1824.2	0.953
1832.94	0.95
1841.69	0.95
1850.44	0.952
1859.18	0.948
1867.93	0.948
1876.67	0.953
1885.42	0.949
1894.17	0.952
1902.91	0.944
1911.66	0.923
1920.41	0.945
1929.15	0.954
1937.9	0.953
1946.65	0.954
1955.39	0.953
1964.14	0.949
1972.88	0.949
1981.63	0.948
1990.38	0.945
1999.12	0.924
2007.87	0.941
2016.62	0.948
2025.36	0.949
2034.11	0.9474
2042.86	0.946
2051.6	0.95
2060.35	0.948
2069.09	0.9484
2077.84	0.946
2086.59	0.948
2095.33	0.949
2104.08	0.95
2112.83	0.952
2121.57	0.949
2130.32	0.9484
2139.06	0.948
2147.81	0.9468
2156.56	0.946
2165.3	0.946
2174.05	0.9484
2182.8	0.9473
2191.54	0.945
2200.29	0.945
2209.04	0.9447
2217.78	0.944
2226.53	0.9426
2235.27	0.7254
2244.02	0.8999
2252.77	0.924
2261.51	0.929
2270.26	0.927
2279.01	0.926
2287.75	0.9193
2296.5	0.918
2305.25	0.9188
2313.99	0.9228
2322.74	0.9263
2331.48	0.93
2340.23	0.933
2348.98	0.937
2357.72	0.942
2366.47	0.9452
2375.22	0.948
2383.96	0.9522
2392.71	0.9444
2401.46	0.9393
2410.2	0.939
2418.95	0.942
2427.69	0.9407
2436.44	0.942
2445.19	0.941
2453.93	0.942
2462.68	0.9392
2471.43	0.941
2480.17	0.942
2488.92	0.942
2497.66	0.939
2506.41	0.9419
2515.16	0.942
2523.9	0.9421
2532.65	0.9391
2541.4	0.939
2550.14	0.9391
2558.89	0.937
2567.64	0.938
2576.38	0.941
2585.13	0.938
2593.87	0.941
2602.62	0.941
2611.37	0.938
2620.11	0.941
2628.86	0.942
2637.61	0.941
2646.35	0.944
2655.1	0.941
2663.85	0.941
2672.59	0.9389
2681.34	0.939
2690.08	0.9411
2698.83	0.9419
2707.58	0.941
2716.32	0.9408
2725.07	0.944
2733.82	0.9438
2742.56	0.939
2751.31	0.9419
2760.06	0.939
2768.8	0.939
2777.55	0.938
2786.29	0.937
2795.04	0.939
2803.79	0.944
2812.53	0.945
2821.28	0.948
2830.03	0.9464
2838.77	0.945
2847.52	0.944
2856.26	0.944
2865.01	0.942
2873.76	0.9442
2882.5	0.946
2891.25	0.9452
2900	0.946
2908.74	0.945
2917.49	0.945
2926.24	0.9435
2934.98	0.9425
2943.73	0.945
2952.47	0.9466
2961.22	0.945
2969.97	0.9443
2978.71	0.946
2987.46	0.948
2996.21	0.948
3004.95	0.9473
3013.7	0.946
3022.45	0.947
3031.19	0.946
3039.94	0.9461
3048.68	0.9456
3057.43	0.945
3066.18	0.944
3074.92	0.942
3083.67	0.9398
3092.42	0.9432
3101.16	0.9402
3109.91	0.938
3118.66	0.9414
3127.4	0.9401
3136.15	0.944
3144.89	0.941
3153.64	0.944
3162.39	0.945
3171.13	0.945
3179.88	0.943
3188.63	0.944
3197.37	0.944
3206.12	0.947
3214.87	0.945
3223.61	0.945
3232.36	0.9445
3241.1	0.9445
3249.85	0.9431
3258.6	0.942
3267.34	0.941
3276.09	0.939
3284.84	0.935
3293.58	0.9358
3302.33	0.9334
3311.07	0.931
3319.82	0.9294
3328.57	0.926
3337.31	0.926
3346.06	0.924
3354.81	0.924
3363.55	0.924
3372.3	0.9224
3381.05	0.9184
3389.79	0.916
3398.54	0.915
3407.28	0.916
3416.03	0.9143
3424.78	0.9134
3433.52	0.9157
3442.27	0.916
3451.02	0.9174
3459.76	0.9174
3468.51	0.918
3477.26	0.916
3486	0.918
3494.75	0.916
3503.49	0.9175
3512.24	0.919
3520.99	0.92
3529.73	0.9198
3538.48	0.923
3547.23	0.922
3555.97	0.922
3564.72	0.9204
3573.47	0.9228
3582.21	0.923
3590.96	0.9204
3599.7	0.9217
3608.45	0.924
3617.2	0.923
3625.94	0.922
3634.69	0.923
3643.44	0.9203
3652.18	0.9226
3660.93	0.9221
3669.67	0.92
3678.42	0.9229
3687.17	0.9202
3695.91	0.9199
3704.66	0.922
3713.41	0.92
3722.15	0.9181
3730.9	0.9199
3739.65	0.922
3748.39	0.92
3757.14	0.923
3765.88	0.9201
3774.63	0.919
3783.38	0.924
3792.12	0.923
3800.87	0.923
