Infrared Spectrum: BENZENE, 1,4-BIS(CHLOROMETHYL)-
Formula: C8 H8 Cl2
CAS: 623-25-6
State: SOLUTION (SATURATED IN CCl4 FOR 3800-1330 AND SATURATED IN CS2 FOR 1330-400 CM^-^1)
Class: COBLENTZ III
Instrument: DOW KBr FOREPRISM-GRATING
Instrument parameters: BLAZED AT 3.5, 12.0, 20.0 MICRON, CHANGED AT 5.0, 7.5, 14.9 MICRON
Sampling: TRANSMISSION
Path length: 0.022, 0.021 CM
Resolution: 4
Origin: DOW CHEMICAL COMPANY
1/CM	TRANSMITTANCE
383.487	0.115
392.178	0.122
400.869	0.158
409.56	0.423
418.251	0.63
426.942	0.739
435.633	0.797
444.323	0.836
453.014	0.827
461.705	0.862
470.396	0.892
479.087	0.903
487.778	0.913
496.469	0.91
505.16	0.869
513.851	0.869
522.542	0.959
531.233	0.979
539.924	0.98
548.615	0.959
557.306	0.941
565.996	1.002
574.687	1.012
583.378	1.012
592.069	1.008
600.76	1.002
609.451	0.993
618.142	0.976
626.833	0.932
635.524	0.881
644.215	0.819
652.906	0.758
661.597	0.706
670.288	0.608
678.978	0.548
687.669	0.332
696.36	0.146
705.051	0.232
713.742	0.456
722.433	0.652
731.124	0.722
739.815	0.722
748.506	0.642
757.197	0.623
765.888	0.293
774.579	0.353
783.27	0.698
791.961	0.756
800.651	0.869
809.342	0.853
818.033	0.774
826.724	0.695
835.415	0.725
844.106	0.69
852.797	0.626
861.488	0.676
870.179	0.759
878.87	0.832
887.561	0.898
896.252	0.947
904.943	0.938
913.633	0.925
922.324	0.926
931.015	0.96
939.706	0.972
948.397	0.963
957.088	0.964
965.779	0.974
974.47	0.98
983.161	0.986
991.852	0.983
1000.54	0.978
1009.23	0.975
1017.92	0.947
1026.62	0.961
1035.31	0.97
1044	0.972
1052.69	0.974
1061.38	0.974
1070.07	0.968
1078.76	0.967
1087.45	0.964
1096.14	0.955
1104.83	0.883
1113.52	0.82
1122.22	0.948
1130.91	0.952
1139.6	0.944
1148.29	0.913
1156.98	0.91
1165.67	0.914
1174.36	0.914
1183.05	0.898
1191.74	0.917
1200.43	0.918
1209.12	0.855
1217.82	0.88
1226.51	0.925
1235.2	0.891
1243.89	0.885
1252.58	0.797
1261.27	0.504
1269.96	0.198
1278.65	0.716
1287.34	0.854
1296.03	0.887
1304.73	0.895
1313.42	0.907
1322.11	0.914
1330.8	0.941
1339.49	0.964
1348.18	0.961
1356.87	0.976
1365.56	0.994
1374.25	0.993
1382.94	0.971
1391.63	0.97
1400.33	0.949
1409.02	0.873
1417.71	0.558
1426.4	0.813
1435.09	0.788
1443.78	0.658
1452.47	0.875
1461.16	0.932
1469.85	0.93
1478.54	0.9
1487.23	0.855
1495.93	0.743
1504.62	0.626
1513.31	0.467
1522	0.479
1530.69	0.425
1539.38	0.311
1548.07	0.256
1556.76	0.3
1565.45	0.396
1574.14	0.466
1582.83	0.487
1591.53	0.58
1600.22	0.72
1608.91	0.839
1617.6	0.894
1626.29	0.941
1634.98	0.956
1643.67	0.964
1652.36	0.956
1661.05	0.961
1669.74	0.971
1678.43	0.985
1687.13	0.991
1695.82	1
1704.51	1
1713.2	1.001
1721.89	1.001
1730.58	1.001
1739.27	1
1747.96	0.995
1756.65	0.993
1765.34	0.985
1774.04	0.978
1782.73	0.956
1791.42	0.955
1800.11	0.982
1808.8	0.982
1817.49	0.983
1826.18	0.983
1834.87	0.982
1843.56	0.979
1852.25	0.978
1860.94	0.976
1869.64	0.978
1878.33	0.978
1887.02	0.971
1895.71	0.955
1904.4	0.915
1913.09	0.93
1921.78	0.972
1930.47	0.985
1939.16	0.986
1947.85	0.985
1956.54	0.98
1965.24	0.976
1973.93	0.974
1982.62	0.97
1991.31	0.941
2000	0.964
2008.69	0.967
2017.38	0.97
2026.07	0.972
2034.76	0.974
2043.45	0.974
2052.14	0.971
2060.84	0.972
2069.53	0.974
2078.22	0.978
2086.91	0.98
2095.6	0.9819
2104.29	0.983
2112.98	0.9849
2121.67	0.985
2130.36	0.985
2139.05	0.986
2147.74	0.985
2156.44	0.986
2165.13	0.986
2173.82	0.986
2182.51	0.986
2191.2	0.985
2199.89	0.985
2208.58	0.982
2217.27	0.98
2225.96	0.98
2234.65	0.9781
2243.35	0.975
2252.04	0.9701
2260.73	0.9612
2269.42	0.9512
2278.11	0.9452
2286.8	0.9303
2295.49	0.919
2304.18	0.9317
2312.87	0.936
2321.56	0.9317
2330.25	0.949
2338.95	0.952
2347.64	0.9569
2356.33	0.9669
2365.02	0.9719
2373.71	0.9711
2382.4	0.9696
2391.09	0.9777
2399.78	0.9777
2408.47	0.9799
2417.16	0.9781
2425.85	0.978
2434.55	0.979
2443.24	0.98
2451.93	0.979
2460.62	0.979
2469.31	0.9789
2478	0.978
2486.69	0.9798
2495.38	0.979
2504.07	0.979
2512.76	0.979
2521.45	0.9763
2530.15	0.978
2538.84	0.978
2547.53	0.978
2556.22	0.978
2564.91	0.975
2573.6	0.974
2582.29	0.9712
2590.98	0.9684
2599.67	0.9694
2608.36	0.974
2617.05	0.976
2625.75	0.972
2634.44	0.971
2643.13	0.972
2651.82	0.972
2660.51	0.978
2669.2	0.976
2677.89	0.974
2686.58	0.971
2695.27	0.9662
2703.96	0.9534
2712.66	0.9586
2721.35	0.9655
2730.04	0.967
2738.73	0.968
2747.42	0.968
2756.11	0.968
2764.8	0.968
2773.49	0.968
2782.18	0.967
2790.87	0.968
2799.56	0.9645
2808.26	0.961
2816.95	0.956
2825.64	0.9535
2834.33	0.952
2843.02	0.947
2851.71	0.9333
2860.4	0.9141
2869.09	0.876
2877.78	0.912
2886.47	0.9432
2895.16	0.947
2903.86	0.9443
2912.55	0.9373
2921.24	0.9256
2929.93	0.9098
2938.62	0.8848
2947.31	0.8069
2956	0.6877
2964.69	0.6759
2973.38	0.8255
2982.07	0.875
2990.76	0.8592
2999.46	0.854
3008.15	0.8375
3016.84	0.8134
3025.53	0.8259
3034.22	0.763
3042.91	0.8507
3051.6	0.8307
3060.29	0.8177
3068.98	0.9039
3077.67	0.9327
3086.36	0.9253
3095.06	0.923
3103.75	0.9416
3112.44	0.9503
3121.13	0.9484
3129.82	0.9361
3138.51	0.9521
3147.2	0.963
3155.89	0.967
3164.58	0.968
3173.27	0.97
3181.97	0.971
3190.66	0.971
3199.35	0.9716
3208.04	0.971
3216.73	0.972
3225.42	0.971
3234.11	0.972
3242.8	0.974
3251.49	0.974
3260.18	0.9756
3268.87	0.976
3277.57	0.976
3286.26	0.975
3294.95	0.974
3303.64	0.974
3312.33	0.972
3321.02	0.97
3329.71	0.97
3338.4	0.971
3347.09	0.971
3355.78	0.971
3364.47	0.971
3373.17	0.97
3381.86	0.97
3390.55	0.97
3399.24	0.9704
3407.93	0.967
3416.62	0.971
3425.31	0.972
3434	0.974
3442.69	0.9755
3451.38	0.9769
3460.07	0.978
3468.77	0.979
3477.46	0.979
3486.15	0.979
3494.84	0.98
3503.53	0.98
3512.22	0.98
3520.91	0.98
3529.6	0.98
3538.29	0.98
3546.98	0.9825
3555.67	0.985
3564.37	0.984
3573.06	0.981
3581.75	0.984
3590.44	0.985
3599.13	0.982
3607.82	0.982
3616.51	0.982
3625.2	0.98
3633.89	0.9795
3642.58	0.979
3651.28	0.9785
3659.97	0.976
3668.66	0.978
3677.35	0.979
3686.04	0.9771
3694.73	0.975
3703.42	0.979
3712.11	0.982
3720.8	0.985
3729.49	0.9874
3738.18	0.989
3746.88	0.9895
3755.57	0.989
3764.26	0.9894
3772.95	0.991
3781.64	0.9906
3790.33	0.989
3799.02	0.991
