Infrared Spectrum: 1,2-PROPANEDIOL, DIACETATE
Formula: C7 H12 O4
CAS: 623-84-7
State: LIQUID (NEAT)
Class: COBLENTZ III
Instrument: PERKIN-ELMER 21 (GRATING)
Instrument parameters: FILTER AT ABOUT 10 MICRONS
Sampling: TRANSMISSION
Path length: CAPILLARY
Resolution: 2
1/CM	TRANSMITTANCE
4000	0.9291
3991	0.9295
3982	0.9299
3973	0.9303
3964	0.9308
3955	0.9313
3946	0.9317
3937	0.9321
3928	0.9324
3919	0.9327
3910	0.9331
3901	0.9334
3892	0.9338
3883	0.9342
3874	0.9345
3865	0.935
3856	0.9355
3847	0.9359
3838	0.9364
3829	0.9368
3820	0.9374
3811	0.9378
3802	0.9384
3793	0.9389
3784	0.9393
3775	0.9397
3766	0.9402
3757	0.9406
3748	0.941
3739	0.9411
3730	0.9412
3721	0.9413
3712	0.9414
3703	0.941
3694	0.9403
3685	0.9389
3676	0.9367
3667	0.9346
3658	0.9321
3649	0.9298
3640	0.9273
3631	0.9246
3622	0.9218
3613	0.9189
3604	0.916
3595	0.913
3586	0.9091
3577	0.9046
3568	0.8989
3559	0.895
3550	0.8918
3541	0.8899
3532	0.8891
3523	0.8886
3514	0.8881
3505	0.8878
3496	0.8875
3487	0.8875
3478	0.8875
3469	0.8877
3460	0.8888
3451	0.8902
3442	0.8925
3433	0.8948
3424	0.8973
3415	0.8997
3406	0.9021
3397	0.9047
3388	0.9071
3379	0.9097
3370	0.912
3361	0.9142
3352	0.9165
3343	0.9184
3334	0.9197
3325	0.9209
3316	0.922
3307	0.9232
3298	0.9241
3289	0.925
3280	0.9258
3271	0.9268
3262	0.9275
3253	0.9281
3244	0.9286
3235	0.9291
3226	0.9296
3217	0.9298
3208	0.9299
3199	0.9299
3190	0.9292
3181	0.9286
3172	0.9278
3163	0.9271
3154	0.9266
3145	0.9255
3136	0.9244
3127	0.9233
3118	0.922
3109	0.9206
3100	0.9191
3091	0.9174
3082	0.9154
3073	0.9121
3064	0.9074
3055	0.9021
3046	0.8957
3037	0.8859
3028	0.8724
3019	0.8171
3010	0.7753
3001	0.7667
2992	0.7537
2983	0.7451
2974	0.7393
2965	0.7378
2956	0.74
2947	0.7465
2938	0.7541
2929	0.7624
2920	0.7712
2911	0.7801
2902	0.7891
2893	0.7992
2884	0.8133
2875	0.83
2866	0.8403
2857	0.8488
2848	0.8582
2839	0.8678
2830	0.8771
2821	0.8848
2812	0.8903
2803	0.8947
2794	0.898
2785	0.9002
2776	0.9025
2767	0.9046
2758	0.9065
2749	0.9084
2740	0.9101
2731	0.9114
2722	0.9128
2713	0.9145
2704	0.9165
2695	0.9197
2686	0.9246
2677	0.9293
2668	0.932
2659	0.9344
2650	0.9362
2641	0.9374
2632	0.9381
2623	0.939
2614	0.9397
2605	0.9403
2596	0.941
2587	0.9415
2578	0.9418
2569	0.9414
2560	0.9409
2551	0.9395
2542	0.9382
2533	0.9375
2524	0.9371
2515	0.9368
2506	0.9368
2497	0.9349
2488	0.9324
2479	0.9298
2470	0.9289
2461	0.9293
2452	0.93
2443	0.9316
2434	0.933
2425	0.9335
2416	0.9341
2407	0.9348
2398	0.9354
2389	0.9357
2380	0.9361
2371	0.9365
2362	0.9368
2353	0.9371
2344	0.9373
2335	0.9374
2326	0.9375
2317	0.9375
2308	0.9377
2299	0.9378
2290	0.9378
2281	0.938
2272	0.938
2263	0.938
2254	0.938
2245	0.938
2236	0.938
2227	0.9378
2218	0.9375
2209	0.9373
2200	0.9368
2191	0.9358
2182	0.9335
2173	0.9323
2164	0.9317
2155	0.9317
2146	0.9318
2137	0.9317
2128	0.9311
2119	0.9298
2110	0.9274
2101	0.9254
2092	0.9233
2083	0.9214
2074	0.9209
2065	0.9207
2056	0.9245
2047	0.9278
2038	0.9304
2029	0.9318
2020	0.933
2011	0.9343
2002	0.9356
1993	0.9366
1984	0.9373
1975	0.9377
1966	0.9383
1957	0.938
1948	0.9371
1939	0.935
1930	0.9261
1921	0.9203
1912	0.9182
1903	0.9162
1894	0.9141
1885	0.9118
1876	0.9096
1867	0.9018
1858	0.8925
1849	0.8837
1840	0.8746
1831	0.8614
1822	0.8455
1813	0.8291
1804	0.8051
1795	0.7483
1786	0.6701
1777	0.5787
1768	0.3282
1759	0.1817
1750	0.1367
1741	0.1421
1732	0.3137
1723	0.488
1714	0.5943
1705	0.6646
1696	0.7492
1687	0.7755
1678	0.7949
1669	0.8122
1660	0.8183
1651	0.8243
1642	0.8349
1633	0.8475
1624	0.8624
1615	0.8775
1606	0.886
1597	0.8895
1588	0.8917
1579	0.8921
1570	0.8906
1561	0.885
1552	0.8868
1543	0.8798
1534	0.8712
1525	0.8631
1516	0.8612
1507	0.8457
1498	0.834
1489	0.8008
1480	0.7218
1471	0.6297
1462	0.5937
1453	0.5737
1444	0.5707
1435	0.5988
1426	0.6543
1417	0.6883
1408	0.6041
1399	0.5298
1390	0.4306
1381	0.2768
1372	0.336
1363	0.5992
1354	0.7196
1345	0.7836
1336	0.7988
1327	0.7803
1318	0.7204
1309	0.6821
1300	0.6171
1291	0.4912
1282	0.3942
1273	0.3005
1264	0.2535
1255	0.1804
1246	0.1521
1237	0.1331
1228	0.1213
1219	0.1813
1210	0.3414
1201	0.5916
1192	0.7093
1183	0.7508
1174	0.7171
1165	0.6406
1156	0.6874
1147	0.7297
1138	0.6951
1129	0.5774
1120	0.5576
1111	0.6844
1102	0.6701
1093	0.5085
1084	0.3878
1075	0.4512
1066	0.5112
1057	0.395
1048	0.3266
1039	0.4668
1030	0.4785
1021	0.4088
1012	0.508
1003	0.6804
994	0.7068
985	0.7218
976	0.7764
967	0.6355
958	0.529
949	0.7272
940	0.7988
931	0.8317
922	0.8561
913	0.7968
904	0.7446
895	0.7798
886	0.8224
877	0.8714
868	0.8918
859	0.8801
850	0.8266
841	0.8018
832	0.8378
823	0.7992
814	0.877
805	0.9103
796	0.919
787	0.9232
778	0.9178
769	0.9108
760	0.9042
751	0.8857
742	0.8698
733	0.8532
724	0.8351
715	0.8117
706	0.7932
697	0.7732
688	0.751
679	0.7064
