Infrared Spectrum: Ethyl sulfite
Formula: C4 H10 O3 S
CAS: 623-81-4
State: LIQUID (NEAT)
Boiling point: 156-158 C
Class: COBLENTZ III
Instrument: BAIRD (GRATING)
Instrument parameters: NaCl PRISM
Path length: 0.005 CM
Resolution: 2
Origin: WYANDOTTE CHEMICALS CORP.
1/CM	TRANSMITTANCE
626	0.6816
635	0.664
644	0.5968
653	0.4868
662	0.3757
671	0.2195
680	0.1566
689	0.1121
698	0.085
707	0.0647
716	0.0514
725	0.0443
734	0.0388
743	0.0407
752	0.0358
761	0.0573
770	0.1321
779	0.2228
788	0.3043
797	0.3403
806	0.2754
815	0.2776
824	0.4385
833	0.4617
842	0.3856
851	0.198
860	0.0429
869	0.0212
878	0.0233
887	0.0232
896	0.0229
905	0.0274
914	0.0295
923	0.094
932	0.2538
941	0.3686
950	0.4314
959	0.4179
968	0.3626
977	0.2268
986	0.068
995	0.0165
1004	0.0171
1013	0.0197
1022	0.0223
1031	0.0287
1040	0.0595
1049	0.1594
1058	0.2601
1067	0.3072
1076	0.308
1085	0.2737
1094	0.175
1103	0.0964
1112	0.2265
1121	0.452
1130	0.4847
1139	0.4508
1148	0.3173
1157	0.1389
1166	0.0701
1175	0.0546
1184	0.0194
1193	0.0132
1202	0.0148
1211	0.0162
1220	0.0185
1229	0.0675
1238	0.2911
1247	0.5128
1256	0.6454
1265	0.6761
1274	0.6634
1283	0.6211
1292	0.5757
1301	0.5924
1310	0.6798
1319	0.7558
1328	0.7584
1337	0.7287
1346	0.6997
1355	0.6511
1364	0.5034
1373	0.4064
1382	0.2767
1391	0.0521
1400	0.0738
1409	0.2612
1418	0.4451
1427	0.4829
1436	0.4423
1445	0.2553
1454	0.1125
1463	0.1564
1472	0.2224
1481	0.2004
1490	0.1783
1499	0.4243
1508	0.5818
1517	0.7031
1526	0.7691
1535	0.8115
1544	0.8246
1553	0.8261
1562	0.8229
1571	0.8154
1580	0.8036
1589	0.7897
1598	0.7736
1607	0.7513
1616	0.7278
1625	0.7181
1634	0.7199
1643	0.7311
1652	0.7827
1661	0.8218
1670	0.8418
1679	0.8538
1688	0.8682
1697	0.8726
1706	0.8737
1715	0.8735
1724	0.8743
1733	0.8752
1742	0.8756
1751	0.8765
1760	0.8786
1769	0.8823
1778	0.891
1787	0.9026
1796	0.9158
1805	0.9281
1814	0.9295
1823	0.9293
1832	0.9288
1841	0.9253
1850	0.9161
1859	0.904
1868	0.8859
1877	0.8659
1886	0.8649
1895	0.8729
1904	0.8963
1913	0.9157
1922	0.9299
1931	0.9371
1940	0.9384
1949	0.9395
1958	0.9403
1967	0.941
1976	0.9415
1985	0.942
1994	0.9426
2003	0.9431
2012	0.9437
2021	0.9443
2030	0.9441
2039	0.9436
2048	0.9429
2057	0.9423
2066	0.942
2075	0.9419
2084	0.9419
2093	0.942
2102	0.9424
2111	0.9435
2120	0.9441
2129	0.9418
2138	0.936
2147	0.9291
2156	0.9289
2165	0.9292
2174	0.9289
2183	0.9282
2192	0.9274
2201	0.9263
2210	0.9236
2219	0.9206
2228	0.9149
2237	0.9083
2246	0.9023
2255	0.9013
2264	0.9011
2273	0.9014
2282	0.9015
2291	0.8994
2300	0.8927
2309	0.8828
2318	0.8731
2327	0.8633
2336	0.8551
2345	0.8481
2354	0.844
2363	0.8413
2372	0.8411
2381	0.8436
2390	0.8499
2399	0.8591
2408	0.8706
2417	0.8849
2426	0.8982
2435	0.9033
2444	0.9017
2453	0.9007
2462	0.9025
2471	0.9058
2480	0.9096
2489	0.9138
2498	0.9197
2507	0.924
2516	0.9239
2525	0.9228
2534	0.9204
2543	0.9177
2552	0.915
2561	0.9127
2570	0.9108
2579	0.9094
2588	0.908
2597	0.9061
2606	0.9041
2615	0.9037
2624	0.9041
2633	0.9045
2642	0.9047
2651	0.9048
2660	0.9046
2669	0.9043
2678	0.9034
2687	0.9015
2696	0.8963
2705	0.8902
2714	0.8797
2723	0.8649
2732	0.8466
2741	0.8345
2750	0.8268
2759	0.8219
2768	0.8171
2777	0.8123
2786	0.8074
2795	0.8017
2804	0.792
2813	0.7731
2822	0.7507
2831	0.7177
2840	0.6933
2849	0.6753
2858	0.6564
2867	0.6307
2876	0.5812
2885	0.4819
2894	0.3831
2903	0.285
2912	0.1874
2921	0.1148
2930	0.1006
2939	0.0913
2948	0.0827
2957	0.0734
2966	0.0635
2975	0.0546
2984	0.0464
2993	0.0367
3002	0.0278
3011	0.0223
3020	0.0402
3029	0.1651
3038	0.2893
3047	0.4129
3056	0.5357
3065	0.6361
3074	0.6806
3083	0.7245
3092	0.7535
3101	0.7742
3110	0.7928
3119	0.8057
3128	0.8166
3137	0.8234
3146	0.8282
3155	0.8328
3164	0.8367
3173	0.8404
3182	0.8423
3191	0.8435
3200	0.8444
3209	0.8455
3218	0.8466
3227	0.8477
3236	0.8489
3245	0.8508
3254	0.8529
3263	0.8547
3272	0.8568
3281	0.8594
3290	0.8618
3299	0.8642
3308	0.8662
3317	0.8664
3326	0.8656
3335	0.864
3344	0.8623
3353	0.8614
3362	0.861
3371	0.8608
3380	0.861
3389	0.8612
3398	0.8614
3407	0.8616
3416	0.8618
3425	0.862
3434	0.8621
3443	0.8623
3452	0.8624
3461	0.8625
3470	0.8625
3479	0.8625
3488	0.8624
3497	0.862
3506	0.8614
3515	0.8607
3524	0.8601
3533	0.8579
3542	0.8555
3551	0.8529
3560	0.8492
3569	0.8457
3578	0.8421
3587	0.8386
3596	0.8351
3605	0.8319
3614	0.8292
3623	0.8283
3632	0.8282
3641	0.8288
3650	0.8307
3659	0.8346
3668	0.8391
3677	0.8438
3686	0.8485
3695	0.8519
3704	0.8549
3713	0.8559
3722	0.8561
3731	0.8562
3740	0.8566
3749	0.8571
3758	0.8579
3767	0.8614
3776	0.865
3785	0.8682
3794	0.8695
3803	0.87
3812	0.8706
3821	0.8708
3830	0.8704
3839	0.8701
3848	0.8692
3857	0.8677
3866	0.8663
3875	0.865
3884	0.8635
3893	0.862
3902	0.8604
3911	0.8589
3920	0.8577
3929	0.8565
3938	0.8554
3947	0.8544
3956	0.8535
3965	0.8528
3974	0.852
3983	0.8512
3992	0.8504
