Infrared Spectrum: PYRIMIDINE, 5-AMINO-4,6-DICHLORO-2-ETHYL-
Formula: C6 H7 Cl2 N3
CAS: 6237-96-3
State: SOLID (0.8 mg / 650 mg KBr DISC)
Class: COBLENTZ III
Instrument: PERKIN-ELMER 21 (GRATING)
Instrument parameters: FILTER CHANGE ABOUT 1020 CM^-^1
Sampling: TRANSMISSION
Resolution: 4
Origin: SOUTHERN RESEARCH INSTITUTE
1/CM	TRANSMITTANCE
603.73	0.675
612.345	0.6731
620.961	0.6701
629.576	0.668
638.192	0.667
646.807	0.667
655.422	0.667
664.038	0.6695
672.653	0.671
681.268	0.6767
689.884	0.6829
698.499	0.6929
707.115	0.7073
715.73	0.7252
724.345	0.736
732.961	0.742
741.576	0.7423
750.192	0.7366
758.807	0.7276
767.422	0.6971
776.038	0.596
784.653	0.4909
793.269	0.4546
801.884	0.4707
810.499	0.5824
819.115	0.7545
827.73	0.7783
836.345	0.7901
844.961	0.802
853.576	0.809
862.192	0.8051
870.807	0.7792
879.422	0.631
888.038	0.6034
896.653	0.7942
905.269	0.811
913.884	0.8204
922.499	0.8248
931.115	0.8263
939.73	0.8278
948.345	0.828
956.961	0.827
965.576	0.826
974.192	0.823
982.807	0.821
991.422	0.818
1000.04	0.8195
1008.65	0.8173
1017.27	0.8064
1025.88	0.7917
1034.5	0.7985
1043.11	0.7653
1051.73	0.6759
1060.35	0.5972
1068.96	0.6627
1077.58	0.757
1086.19	0.7238
1094.81	0.6484
1103.42	0.5671
1112.04	0.5859
1120.65	0.6405
1129.27	0.7044
1137.88	0.736
1146.5	0.6961
1155.11	0.6426
1163.73	0.794
1172.35	0.823
1180.96	0.824
1189.58	0.8228
1198.19	0.8018
1206.81	0.783
1215.42	0.8337
1224.04	0.864
1232.65	0.864
1241.27	0.856
1249.88	0.8406
1258.5	0.8245
1267.11	0.8601
1275.73	0.8595
1284.35	0.853
1292.96	0.848
1301.58	0.8359
1310.19	0.8238
1318.81	0.8086
1327.42	0.7837
1336.04	0.6874
1344.65	0.5595
1353.27	0.6016
1361.88	0.5715
1370.5	0.5251
1379.11	0.6309
1387.73	0.7077
1396.35	0.7875
1404.96	0.7594
1413.58	0.6685
1422.19	0.5596
1430.81	0.3091
1439.42	0.0936
1448.04	0.1545
1456.65	0.4328
1465.27	0.4166
1473.88	0.4374
1482.5	0.6929
1491.11	0.6858
1499.73	0.526
1508.35	0.2336
1516.96	0.0899
1525.58	0.4195
1534.19	0.7031
1542.81	0.757
1551.42	0.7151
1560.04	0.646
1568.65	0.6875
1577.27	0.733
1585.88	0.735
1594.5	0.6877
1603.11	0.4924
1611.73	0.3225
1620.35	0.3766
1628.96	0.5638
1637.58	0.7236
1646.19	0.7916
1654.81	0.8308
1663.42	0.8545
1672.04	0.8777
1680.65	0.8941
1689.27	0.902
1697.88	0.902
1706.5	0.902
1715.11	0.903
1723.73	0.906
1732.35	0.9107
1740.96	0.9103
1749.58	0.9122
1758.19	0.913
1766.81	0.915
1775.42	0.911
1784.04	0.911
1792.65	0.91
1801.27	0.911
1809.88	0.911
1818.5	0.913
1827.11	0.911
1835.73	0.909
1844.35	0.909
1852.96	0.908
1861.58	0.9097
1870.19	0.908
1878.81	0.906
1887.42	0.906
1896.04	0.9068
1904.65	0.906
1913.27	0.906
1921.88	0.906
1930.5	0.9059
1939.11	0.906
1947.73	0.908
1956.35	0.906
1964.96	0.9064
1973.58	0.9053
1982.19	0.9043
1990.81	0.905
1999.42	0.905
2008.04	0.905
2016.65	0.904
2025.27	0.904
2033.88	0.904
2042.5	0.904
2051.11	0.904
2059.73	0.905
2068.35	0.905
2076.96	0.905
2085.58	0.905
2094.19	0.904
2102.81	0.904
2111.42	0.904
2120.04	0.904
2128.65	0.904
2137.27	0.9045
2145.88	0.904
2154.5	0.904
2163.11	0.904
2171.73	0.904
2180.35	0.904
2188.96	0.904
2197.58	0.905
2206.19	0.904
2214.81	0.905
2223.42	0.906
2232.04	0.907
2240.65	0.9071
2249.27	0.906
2257.88	0.905
2266.5	0.905
2275.12	0.904
2283.73	0.904
2292.35	0.9045
2300.96	0.903
2309.58	0.9045
2318.19	0.906
2326.81	0.911
2335.42	0.916
2344.04	0.916
2352.65	0.92
2361.27	0.92
2369.88	0.9179
2378.5	0.909
2387.12	0.903
2395.73	0.902
2404.35	0.903
2412.96	0.9011
2421.58	0.903
2430.19	0.9025
2438.81	0.902
2447.42	0.902
2456.04	0.904
2464.65	0.9035
2473.27	0.903
2481.88	0.903
2490.5	0.903
2499.12	0.904
2507.73	0.904
2516.35	0.904
2524.96	0.904
2533.58	0.9045
2542.19	0.903
2550.81	0.903
2559.42	0.903
2568.04	0.903
2576.65	0.904
2585.27	0.903
2593.88	0.903
2602.5	0.904
2611.12	0.9009
2619.73	0.9
2628.35	0.899
2636.96	0.8985
2645.58	0.895
2654.19	0.8935
2662.81	0.891
2671.42	0.891
2680.04	0.8899
2688.65	0.887
2697.27	0.886
2705.88	0.886
2714.5	0.887
2723.12	0.887
2731.73	0.887
2740.35	0.887
2748.96	0.886
2757.58	0.884
2766.19	0.883
2774.81	0.8805
2783.42	0.8765
2792.04	0.872
2800.65	0.8634
2809.27	0.8555
2817.88	0.845
2826.5	0.8384
2835.12	0.8285
2843.73	0.8225
2852.35	0.8105
2860.96	0.7985
2869.58	0.798
2878.19	0.7985
2886.81	0.795
2895.42	0.788
2904.04	0.7775
2912.65	0.7615
2921.27	0.746
2929.88	0.741
2938.5	0.741
2947.12	0.7364
2955.73	0.7104
2964.35	0.695
2972.96	0.7046
2981.58	0.7516
2990.19	0.8003
2998.81	0.8285
3007.42	0.834
3016.04	0.834
3024.65	0.834
3033.27	0.834
3041.88	0.834
3050.5	0.8299
3059.12	0.824
3067.73	0.824
3076.35	0.823
3084.96	0.822
3093.58	0.8215
3102.19	0.817
3110.81	0.8109
3119.42	0.8055
3128.04	0.7995
3136.65	0.7899
3145.27	0.7819
3153.88	0.7639
3162.5	0.7429
3171.12	0.7335
3179.73	0.7175
3188.35	0.708
3196.96	0.705
3205.58	0.703
3214.19	0.705
3222.81	0.703
3231.42	0.7015
3240.04	0.698
3248.65	0.6849
3257.27	0.6663
3265.88	0.6444
3274.5	0.6155
3283.12	0.5904
3291.73	0.5699
3300.35	0.5495
3308.96	0.5267
3317.58	0.5074
3326.19	0.4969
3334.81	0.4775
3343.42	0.4725
3352.04	0.464
3360.65	0.462
3369.27	0.4615
3377.88	0.46
3386.5	0.4641
3395.12	0.472
3403.73	0.4821
3412.35	0.498
3420.96	0.5115
3429.58	0.5175
3438.19	0.517
3446.81	0.516
3455.42	0.514
3464.04	0.512
3472.65	0.514
3481.27	0.52
3489.88	0.5356
3498.5	0.5622
3507.12	0.5995
3515.73	0.6305
3524.35	0.6561
3532.96	0.6755
3541.58	0.6811
3550.19	0.6986
3558.81	0.7075
3567.42	0.7176
3576.04	0.741
3584.65	0.75
3593.27	0.7661
3601.88	0.7806
3610.5	0.7895
3619.12	0.798
3627.73	0.8055
3636.35	0.8141
3644.96	0.8191
3653.58	0.8225
3662.19	0.823
3670.81	0.823
3679.42	0.824
3688.04	0.827
3696.65	0.83
3705.27	0.833
3713.88	0.833
3722.5	0.833
3731.12	0.833
3739.73	0.833
3748.35	0.833
3756.96	0.8345
3765.58	0.837
3774.19	0.838
3782.81	0.837
3791.42	0.837
3800.04	0.835
3808.65	0.834
3817.27	0.8315
3825.88	0.8299
3834.5	0.829
3843.12	0.829
3851.73	0.829
3860.35	0.8299
3868.96	0.831
3877.58	0.831
3886.19	0.832
3894.81	0.833
3903.42	0.832
3912.04	0.831
