Infrared Spectrum: PYRIMIDINE, 4,6-DICHLORO-2-ETHYL-5-NITRO-
Formula: C6 H5 Cl2 N3 O2
CAS: 6237-95-2
State: LIQUID (NEAT)
Class: COBLENTZ III
Instrument: PERKIN-ELMER 21 (GRATING)
Instrument parameters: FILTER CHANGE AT ABOUT 1090 CM^-^1.
Sampling: TRANSMISSION
Path length: CAPILLARY
Resolution: 2
Origin: SOUTHERN RESEARCH INSTITUTE
1/CM	TRANSMITTANCE
609.692	0.601
618.857	0.598
628.023	0.6057
637.188	0.614
646.353	0.616
655.518	0.617
664.684	0.617
673.849	0.6275
683.014	0.6419
692.18	0.6518
701.345	0.6623
710.51	0.6796
719.676	0.691
728.841	0.6983
738.006	0.7072
747.171	0.7231
756.337	0.7359
765.502	0.745
774.667	0.7433
783.833	0.735
792.998	0.7226
802.163	0.7002
811.328	0.6243
820.494	0.6515
829.659	0.4403
838.824	0.2525
847.99	0.1134
857.155	0.5751
866.32	0.7062
875.485	0.6993
884.651	0.6313
893.816	0.5167
902.981	0.4403
912.147	0.7094
921.312	0.7732
930.477	0.7791
939.643	0.788
948.808	0.788
957.973	0.788
967.138	0.79
976.304	0.788
985.469	0.787
994.634	0.787
1003.8	0.788
1012.96	0.788
1022.13	0.788
1031.3	0.788
1040.46	0.788
1049.63	0.7782
1058.79	0.7524
1067.96	0.713
1077.12	0.7274
1086.29	0.7446
1095.45	0.7656
1104.62	0.7815
1113.78	0.787
1122.95	0.787
1132.11	0.79
1141.28	0.79
1150.44	0.79
1159.61	0.7829
1168.77	0.779
1177.94	0.767
1187.11	0.7687
1196.27	0.78
1205.44	0.78
1214.6	0.78
1223.77	0.779
1232.93	0.7718
1242.1	0.763
1251.26	0.7462
1260.43	0.7031
1269.59	0.6224
1278.76	0.683
1287.92	0.6663
1297.09	0.5948
1306.25	0.3518
1315.42	0.28
1324.58	0.4781
1333.75	0.4355
1342.92	0.3103
1352.08	0.2608
1361.25	0.2713
1370.41	0.3869
1379.58	0.5531
1388.74	0.609
1397.91	0.581
1407.07	0.5709
1416.24	0.5719
1425.4	0.6691
1434.57	0.5975
1443.73	0.6295
1452.9	0.655
1462.06	0.6146
1471.23	0.5488
1480.39	0.561
1489.56	0.6677
1498.73	0.6334
1507.89	0.4837
1517.06	0.1416
1526.22	0.073
1535.39	0.1255
1544.55	0.1063
1553.72	0.0237
1562.88	0.071
1572.05	0.1316
1581.21	0.3664
1590.38	0.5207
1599.54	0.6016
1608.71	0.6409
1617.87	0.6754
1627.04	0.7161
1636.2	0.7421
1645.37	0.7607
1654.54	0.7682
1663.7	0.7814
1672.87	0.7724
1682.03	0.7794
1691.2	0.7833
1700.36	0.788
1709.53	0.786
1718.69	0.7829
1727.86	0.7749
1737.02	0.774
1746.19	0.783
1755.35	0.7871
1764.52	0.788
1773.68	0.788
1782.85	0.788
1792.01	0.79
1801.18	0.79
1810.35	0.7915
1819.51	0.792
1828.68	0.792
1837.84	0.7943
1847.01	0.796
1856.17	0.799
1865.34	0.7999
1874.5	0.797
1883.67	0.795
1892.83	0.795
1902	0.799
1911.16	0.799
1920.33	0.799
1929.49	0.8
1938.66	0.8006
1947.82	0.803
1956.99	0.805
1966.16	0.797
1975.32	0.797
1984.49	0.799
1993.65	0.799
2002.82	0.7968
2011.98	0.7941
2021.15	0.7993
2030.31	0.808
2039.48	0.808
2048.64	0.808
2057.81	0.809
2066.97	0.8088
2076.14	0.8049
2085.3	0.801
2094.47	0.803
2103.63	0.807
2112.8	0.808
2121.97	0.809
2131.13	0.81
2140.3	0.8089
2149.46	0.8053
2158.63	0.81
2167.79	0.813
2176.96	0.812
2186.12	0.808
2195.29	0.809
2204.45	0.809
2213.62	0.809
2222.78	0.809
2231.95	0.809
2241.11	0.81
2250.28	0.81
2259.44	0.812
2268.61	0.813
2277.78	0.814
2286.94	0.816
2296.11	0.816
2305.27	0.816
2314.44	0.816
2323.6	0.816
2332.77	0.816
2341.93	0.816
2351.1	0.816
2360.26	0.816
2369.43	0.814
2378.59	0.813
2387.76	0.813
2396.92	0.812
2406.09	0.8117
2415.25	0.8089
2424.42	0.805
2433.59	0.803
2442.75	0.803
2451.92	0.804
2461.08	0.804
2470.25	0.807
2479.41	0.808
2488.58	0.809
2497.74	0.81
2506.91	0.808
2516.07	0.805
2525.24	0.807
2534.4	0.809
2543.57	0.81
2552.73	0.813
2561.9	0.81
2571.06	0.8077
2580.23	0.807
2589.4	0.8082
2598.56	0.8143
2607.73	0.8129
2616.89	0.812
2626.06	0.81
2635.22	0.81
2644.39	0.813
2653.55	0.818
2662.72	0.8079
2671.88	0.808
2681.05	0.812
2690.21	0.814
2699.38	0.813
2708.54	0.812
2717.71	0.808
2726.87	0.805
2736.04	0.805
2745.21	0.808
2754.37	0.809
2763.54	0.809
2772.7	0.8122
2781.87	0.814
2791.03	0.809
2800.2	0.8078
2809.36	0.807
2818.53	0.8036
2827.69	0.7965
2836.86	0.8
2846.02	0.801
2855.19	0.7895
2864.35	0.7748
2873.52	0.7687
2882.68	0.7609
2891.85	0.7498
2901.02	0.747
2910.18	0.7439
2919.35	0.7387
2928.51	0.735
2937.68	0.7309
2946.84	0.7127
2956.01	0.7146
2965.17	0.7257
2974.34	0.7094
2983.5	0.6695
2992.67	0.6726
3001.83	0.6974
3011	0.7272
3020.16	0.7809
3029.33	0.791
3038.49	0.795
3047.66	0.801
3056.82	0.801
3065.99	0.801
3075.16	0.803
3084.32	0.805
3093.49	0.804
3102.65	0.8038
3111.82	0.796
3120.98	0.8081
3130.15	0.8099
3139.31	0.808
3148.48	0.8039
3157.64	0.7942
3166.81	0.801
3175.97	0.8013
3185.14	0.805
3194.3	0.807
3203.47	0.8067
3212.63	0.804
3221.8	0.801
3230.97	0.801
3240.13	0.799
3249.3	0.796
3258.46	0.794
3267.63	0.7973
3276.79	0.8041
3285.96	0.804
3295.12	0.8027
3304.29	0.797
3313.45	0.7952
3322.62	0.7992
3331.78	0.8
3340.95	0.797
3350.11	0.797
3359.28	0.7959
3368.44	0.792
3377.61	0.7923
3386.78	0.797
3395.94	0.799
3405.11	0.7987
3414.27	0.792
3423.44	0.792
3432.6	0.792
3441.77	0.79
3450.93	0.79
3460.1	0.791
3469.26	0.791
3478.43	0.791
3487.59	0.79
3496.76	0.788
3505.92	0.79
3515.09	0.79
3524.25	0.791
3533.42	0.791
3542.59	0.791
3551.75	0.79
3560.92	0.787
3570.08	0.786
3579.25	0.7861
3588.41	0.787
3597.58	0.794
3606.74	0.795
3615.91	0.7961
3625.07	0.799
3634.24	0.801
3643.4	0.804
3652.57	0.8048
3661.73	0.8
3670.9	0.799
3680.06	0.797
3689.23	0.796
3698.4	0.795
3707.56	0.795
3716.73	0.795
3725.89	0.796
3735.06	0.799
3744.22	0.801
3753.39	0.8071
3762.55	0.814
3771.72	0.814
3780.88	0.81
3790.05	0.8049
3799.21	0.8071
3808.38	0.813
3817.54	0.816
3826.71	0.814
3835.87	0.8082
3845.04	0.814
3854.21	0.817
3863.37	0.817
3872.54	0.817
3881.7	0.817
3890.87	0.814
3900.03	0.8117
3909.2	0.81
3918.36	0.81
3927.53	0.8183
3936.69	0.8219
3945.86	0.8139
3955.02	0.809
3964.19	0.81
3973.35	0.817
3982.52	0.812
3991.68	0.809
4000.85	0.8129
4010.02	0.8013
4019.18	0.803
