Infrared Spectrum: ETHYLENE DIPALMITATE
Formula: C34 H66 O4
CAS: 624-03-3
State: SOLID (MINERAL OIL MULL)
Melting point: 68-70 C
Class: COBLENTZ
Instrument: Not specified, most likely a prism, grating, or hybrid spectrometer.
Sampling: TRANSMISSION
Resolution: 4
Origin: WYANDOTTE CHEMICALS CORP., WYANDOTTE, MICHIGAN, USA
MICROMETERS	TRANSMITTANCE
2.04	0.796
2.07981	0.798
2.11962	0.798
2.15943	0.791
2.19923	0.746
2.23904	0.71
2.27885	0.72
2.31866	0.713
2.35847	0.726
2.39828	0.761
2.43809	0.775
2.4779	0.78
2.5177	0.781
2.55751	0.796
2.59732	0.79
2.63713	0.803
2.67694	0.796
2.71675	0.786
2.75656	0.783
2.79636	0.785
2.83617	0.773
2.87598	0.751
2.91579	0.741
2.9556	0.76
2.99541	0.765
3.03522	0.775
3.07503	0.781
3.11483	0.773
3.15464	0.771
3.19445	0.77
3.23426	0.74
3.27407	0.65
3.31388	0.43
3.35369	0.09
3.39349	0.025
3.4333	0.028
3.47311	0.03
3.51292	0.065
3.55273	0.405
3.59254	0.633
3.63235	0.73
3.67215	0.723
3.71196	0.778
3.75177	0.77
3.79158	0.775
3.83139	0.801
3.8712	0.83
3.91101	0.858
3.95082	0.881
3.99062	0.89
4.03043	0.9
4.07024	0.903
4.11005	0.91
4.14986	0.91
4.18967	0.908
4.22948	0.896
4.26928	0.891
4.30909	0.9
4.3489	0.913
4.38871	0.93
4.42852	0.923
4.46833	0.926
4.50814	0.933
4.54795	0.936
4.58775	0.941
4.62756	0.948
4.66737	0.953
4.70718	0.951
4.74699	0.956
4.7868	0.96
4.82661	0.955
4.86641	0.946
4.90622	0.94
4.94603	0.941
4.98584	0.921
5.02565	0.943
5.06546	0.936
5.10527	0.953
5.14508	0.955
5.18488	0.958
5.22469	0.961
5.2645	0.958
5.30431	0.948
5.34412	0.953
5.38393	0.951
5.42374	0.935
5.46354	0.933
5.50335	0.911
5.54316	0.873
5.58297	0.85
5.62278	0.745
5.66259	0.7
5.7024	0.378
5.74221	0.03
5.78201	0.371
5.82182	0.481
5.86163	0.6
5.90144	0.698
5.94125	0.763
5.98106	0.793
6.02087	0.81
6.06067	0.831
6.10048	0.84
6.14029	0.853
6.1801	0.86
6.21991	0.866
6.25972	0.875
6.29953	0.876
6.33934	0.878
6.37914	0.886
6.41895	0.873
6.45876	0.876
6.49857	0.868
6.53838	0.858
6.57819	0.853
6.618	0.818
6.6578	0.756
6.69761	0.6
6.73742	0.265
6.77723	0.078
6.81704	0.09
6.85685	0.218
6.89666	0.386
6.93646	0.533
6.97627	0.49
7.01608	0.606
7.05589	0.441
7.0957	0.593
7.13551	0.478
7.17532	0.173
7.21513	0.196
7.25493	0.266
7.29474	0.355
7.33455	0.535
7.37436	0.501
7.41417	0.585
7.45398	0.551
7.49379	0.673
7.53359	0.725
7.5734	0.675
7.61321	0.455
7.65302	0.625
7.69283	0.671
7.73264	0.516
7.77245	0.468
7.81226	0.505
7.85206	0.26
7.89187	0.481
7.93168	0.646
7.97149	0.735
8.0113	0.548
8.05111	0.481
8.09092	0.706
8.13072	0.633
8.17053	0.313
8.21034	0.43
8.25015	0.64
8.28996	0.531
8.32977	0.21
8.36958	0.221
8.40939	0.441
8.44919	0.1
8.489	0.121
8.52881	0.246
8.56862	0.426
8.60843	0.53
8.64824	0.588
8.68805	0.621
8.72785	0.65
8.76766	0.701
8.80747	0.738
8.84728	0.731
8.88709	0.73
8.9269	0.613
8.96671	0.725
9.00652	0.771
9.04632	0.626
9.08613	0.678
9.12594	0.76
9.16575	0.781
9.20556	0.793
9.24537	0.798
9.28518	0.79
9.32498	0.751
9.36479	0.751
9.4046	0.738
9.44441	0.775
9.48422	0.72
9.52403	0.741
9.56384	0.775
9.60365	0.791
9.64345	0.701
9.68326	0.685
9.72307	0.788
9.76288	0.798
9.80269	0.753
9.8425	0.658
9.88231	0.681
9.92211	0.645
9.96192	0.676
10.0017	0.75
10.0415	0.641
10.0813	0.525
10.1212	0.631
10.161	0.746
10.2008	0.756
10.2406	0.713
10.2804	0.666
10.3202	0.738
10.36	0.785
10.3998	0.805
10.4396	0.81
10.4794	0.818
10.5192	0.821
10.5591	0.821
10.5989	0.821
10.6387	0.823
10.6785	0.818
10.7183	0.788
10.7581	0.748
10.7979	0.795
10.8377	0.821
10.8775	0.816
10.9173	0.801
10.9571	0.798
10.9969	0.808
11.0368	0.801
11.0766	0.758
11.1164	0.588
11.1562	0.351
11.196	0.486
11.2358	0.65
11.2756	0.693
11.3154	0.796
11.3552	0.83
11.395	0.845
11.4348	0.853
11.4747	0.86
11.5145	0.86
11.5543	0.86
11.5941	0.86
11.6339	0.858
11.6737	0.853
11.7135	0.843
11.7533	0.786
11.7931	0.661
11.8329	0.716
11.8727	0.828
11.9125	0.851
11.9524	0.858
11.9922	0.865
12.032	0.865
12.0718	0.871
12.1116	0.873
12.1514	0.875
12.1912	0.875
12.231	0.871
12.2708	0.861
12.3106	0.831
12.3504	0.793
12.3903	0.84
12.4301	0.865
12.4699	0.871
12.5097	0.871
12.5495	0.86
12.5893	0.838
12.6291	0.791
12.6689	0.78
12.7087	0.826
12.7485	0.806
12.7883	0.7
12.8281	0.563
12.868	0.72
12.9078	0.828
12.9476	0.848
12.9874	0.851
13.0272	0.851
13.067	0.846
13.1068	0.841
13.1466	0.821
13.1864	0.758
13.2262	0.741
13.266	0.79
13.3059	0.811
13.3457	0.8
13.3855	0.76
13.4253	0.67
13.4651	0.573
13.5049	0.566
13.5447	0.575
13.5845	0.535
13.6243	0.485
13.6641	0.396
13.7039	0.271
13.7437	0.296
13.7836	0.408
13.8234	0.486
13.8632	0.446
13.903	0.338
13.9428	0.343
13.9826	0.546
14.0224	0.675
14.0622	0.733
14.102	0.765
14.1418	0.783
14.1816	0.785
14.2214	0.783
14.2613	0.765
14.3011	0.751
14.3409	0.723
14.3807	0.698
14.4205	0.671
14.4603	0.67
14.5001	0.698
14.5399	0.725
14.5797	0.755
14.6195	0.775
14.6593	0.79
14.6992	0.803
14.739	0.81
14.7788	0.81
14.8186	0.811
14.8584	0.813
14.8982	0.811
14.938	0.815
14.9778	0.808
15.0176	0.775
15.0574	0.755
15.0972	0.778
15.137	0.801
15.1769	0.805
15.2167	0.798
15.2565	0.79
15.2963	0.783
15.3361	0.778
15.3759	0.771
15.4157	0.768
15.4555	0.76
15.4953	0.753
15.5351	0.748
15.5749	0.746
15.6148	0.738
15.6546	0.73
15.6944	0.726
15.7342	0.726
15.774	0.718
15.8138	0.711
15.8536	0.706
15.8934	0.701
15.9332	0.691
15.973	0.68
