Infrared Spectrum: 2-Butene, trans-
Formula: C4 H8
CAS: 624-64-6
State: GAS (150 mmHg, N2 ADDED, TOTAL PRESSURE 600 mmHg)
Class: COBLENTZ
Instrument: DOW KBr FOREPRISM-GRATING
Instrument parameters: GRATING CHANGED AT 5.0, 7.5, 15.0 MICRON
Sampling: TRANSMISSION
Path length: 5 CM
Resolution: 2
Origin: DOW CHEMICAL COMPANY
1/CM	TRANSMITTANCE
456	0.8984
465	0.8969
474	0.903
483	0.9146
492	0.9247
501	0.9309
510	0.932
519	0.9322
528	0.9338
537	0.9306
546	0.9233
555	0.9219
564	0.9266
573	0.9339
582	0.9415
591	0.9457
600	0.947
609	0.9455
618	0.9424
627	0.9411
636	0.9433
645	0.9497
654	0.9493
663	0.9447
672	0.9394
681	0.9344
690	0.9265
699	0.9174
708	0.9105
717	0.906
726	0.9021
735	0.8987
744	0.8957
753	0.8928
762	0.8914
771	0.8886
780	0.8839
789	0.8807
798	0.8786
807	0.8758
816	0.8727
825	0.8695
834	0.8664
843	0.864
852	0.8612
861	0.8537
870	0.8397
879	0.823
888	0.806
897	0.775
906	0.7141
915	0.6395
924	0.4605
933	0.2961
942	0.1631
951	0.1065
960	0.0224
969	0.042
978	0.0589
987	0.1059
996	0.3943
1005	0.5469
1014	0.6734
1023	0.7654
1032	0.7533
1041	0.6944
1050	0.5878
1059	0.6017
1068	0.5896
1077	0.6406
1086	0.8276
1095	0.8609
1104	0.873
1113	0.8778
1122	0.8797
1131	0.8768
1140	0.8698
1149	0.8693
1158	0.8637
1167	0.8496
1176	0.8325
1185	0.8186
1194	0.8162
1203	0.8203
1212	0.8333
1221	0.8335
1230	0.829
1239	0.8026
1248	0.804
1257	0.7975
1266	0.8073
1275	0.821
1284	0.7841
1293	0.6501
1302	0.6743
1311	0.602
1320	0.7668
1329	0.8154
1338	0.8181
1347	0.8062
1356	0.7777
1365	0.7223
1374	0.6459
1383	0.6075
1392	0.4735
1401	0.5175
1410	0.4813
1419	0.4237
1428	0.3629
1437	0.3289
1446	0.2399
1455	0.2473
1464	0.294
1473	0.2394
1482	0.3215
1491	0.4232
1500	0.4939
1509	0.6132
1518	0.7068
1527	0.7555
1536	0.7937
1545	0.813
1554	0.8256
1563	0.8203
1572	0.8169
1581	0.8153
1590	0.8152
1599	0.8167
1608	0.8192
1617	0.8178
1626	0.8227
1635	0.83
1644	0.829
1653	0.8382
1662	0.8238
1671	0.8188
1680	0.7935
1689	0.7423
1698	0.7562
1707	0.728
1716	0.7962
1725	0.8324
1734	0.8523
1743	0.8513
1752	0.8504
1761	0.8384
1770	0.7947
1779	0.7756
1788	0.7777
1797	0.8049
1806	0.8472
1815	0.8525
1824	0.8536
1833	0.8534
1842	0.8591
1851	0.8511
1860	0.8548
1869	0.8553
1878	0.8493
1887	0.8496
1896	0.8492
1905	0.8477
1914	0.8442
1923	0.8396
1932	0.838
1941	0.8444
1950	0.852
1959	0.8512
1968	0.8472
1977	0.8377
1986	0.8192
1995	0.8039
2004	0.8036
2013	0.8075
2022	0.8331
2031	0.8463
2040	0.8513
2049	0.8546
2058	0.8563
2067	0.8564
2076	0.8552
2085	0.8541
2094	0.8532
2103	0.8526
2112	0.8532
2121	0.8535
2130	0.8532
2139	0.8528
2148	0.8528
2157	0.8528
2166	0.8528
2175	0.8522
2184	0.8515
2193	0.851
2202	0.8511
2211	0.8511
2220	0.8504
2229	0.8492
2238	0.8473
2247	0.8466
2256	0.8474
2265	0.8494
2274	0.8504
2283	0.8488
2292	0.8478
2301	0.8484
2310	0.8507
2319	0.855
2328	0.86
2337	0.8585
2346	0.8554
2355	0.8527
2364	0.8501
2373	0.8459
2382	0.8394
2391	0.8402
2400	0.8435
2409	0.8361
2418	0.8266
2427	0.8164
2436	0.8063
2445	0.8097
2454	0.8185
2463	0.8308
2472	0.8399
2481	0.8405
2490	0.8406
2499	0.8481
2508	0.8465
2517	0.8432
2526	0.8434
2535	0.8468
2544	0.8526
2553	0.8566
2562	0.8565
2571	0.855
2580	0.8513
2589	0.8462
2598	0.8412
2607	0.8399
2616	0.8414
2625	0.8463
2634	0.85
2643	0.8511
2652	0.8505
2661	0.8493
2670	0.8464
2679	0.8424
2688	0.8379
2697	0.833
2706	0.8289
2715	0.8186
2724	0.7741
2733	0.6899
2742	0.655
2751	0.6144
2760	0.6862
2769	0.7579
2778	0.8013
2787	0.7893
2796	0.7732
2805	0.7526
2814	0.7218
2823	0.6681
2832	0.6596
2841	0.6405
2850	0.5208
2859	0.2468
2868	0.068
2877	0.082
2886	0.0425
2895	0.0513
2904	0.0607
2913	0.0394
2922	0.0121
2931	0.0094
2940	0.009
2949	0.0102
2958	0.0126
2967	0.0172
2976	0.0196
2985	0.0278
2994	0.0419
3003	0.0678
3012	0.0713
3021	0.0765
3030	0.0865
3039	0.0748
3048	0.1529
3057	0.2655
3066	0.3782
3075	0.4954
3084	0.5853
3093	0.6561
3102	0.6798
3111	0.7013
3120	0.718
3129	0.7319
3138	0.7457
3147	0.7588
3156	0.7707
3165	0.7794
3174	0.7842
3183	0.7931
3192	0.8023
3201	0.8112
3210	0.8216
3219	0.8312
3228	0.8345
3237	0.8355
3246	0.8325
3255	0.8291
3264	0.8305
3273	0.8335
3282	0.8429
3291	0.8465
3300	0.8464
3309	0.8464
3318	0.8465
3327	0.8465
3336	0.8465
3345	0.8466
3354	0.8466
3363	0.8466
3372	0.8466
3381	0.8462
3390	0.8459
3399	0.8453
3408	0.8447
3417	0.8441
3426	0.8434
3435	0.8427
3444	0.842
3453	0.843
3462	0.8447
3471	0.8468
3480	0.8511
3489	0.8536
3498	0.8552
3507	0.8563
3516	0.8574
3525	0.8586
3534	0.8597
3543	0.8607
3552	0.8614
3561	0.8622
3570	0.8629
3579	0.8635
3588	0.8641
3597	0.8645
3606	0.8641
3615	0.8637
3624	0.8662
3633	0.8681
3642	0.8682
3651	0.8628
3660	0.8592
3669	0.8555
3678	0.8509
3687	0.8516
3696	0.8595
3705	0.8606
3714	0.8614
3723	0.8627
3732	0.8638
3741	0.8589
3750	0.8558
3759	0.8542
3768	0.8526
3777	0.8553
3786	0.8603
3795	0.8524
