Infrared Spectrum: p-DIIODOBENZENE
Formula: C6 H4 I2
CAS: 624-38-4
State: SOLUTION (10% CCl4 FOR 3800-1330, 10% CS2 FOR 1330-400 CM^-^1))
Melting point: 128 C
Class: COBLENTZ III
Instrument: BECKMAN IR-9 (GRATING)
Instrument parameters: ORDER CHANGES: 670, 1200, 2000 CM^-^1
Path length: 0.011 CM, 0.011 CM
Resolution: 2
Origin: DOW CHEMICAL COMPANY
1/CM	TRANSMITTANCE
397	0.2303
406	0.1396
415	0.3932
424	0.554
433	0.6269
442	0.6751
451	0.6872
460	0.2509
469	0.7
478	0.7571
487	0.7819
496	0.7985
505	0.812
514	0.821
523	0.828
532	0.8338
541	0.8383
550	0.8416
559	0.8419
568	0.8417
577	0.8415
586	0.8413
595	0.8399
604	0.8388
613	0.8374
622	0.8359
631	0.8324
640	0.8227
649	0.8106
658	0.814
667	0.8346
676	0.8194
685	0.8009
694	0.8053
703	0.8123
712	0.8073
721	0.8363
730	0.8404
739	0.8424
748	0.8439
757	0.8452
766	0.8464
775	0.8432
784	0.8152
793	0.5446
802	0.3464
811	0.7464
820	0.8094
829	0.8332
838	0.8202
847	0.7389
856	0.705
865	0.7305
874	0.7711
883	0.8078
892	0.8435
901	0.8591
910	0.8592
919	0.8727
928	0.8691
937	0.8565
946	0.8527
955	0.8522
964	0.8478
973	0.8202
982	0.6775
991	0.0852
1000	0.5605
1009	0.8295
1018	0.8539
1027	0.8613
1036	0.8586
1045	0.8447
1054	0.8384
1063	0.4523
1072	0.8072
1081	0.8496
1090	0.8631
1099	0.7778
1108	0.8571
1117	0.8785
1126	0.8811
1135	0.8812
1144	0.8769
1153	0.8683
1162	0.8698
1171	0.8608
1180	0.8551
1189	0.8543
1198	0.8629
1207	0.8572
1216	0.8408
1225	0.8558
1234	0.8558
1243	0.8429
1252	0.8433
1261	0.8694
1270	0.8697
1279	0.8643
1288	0.8633
1297	0.8624
1306	0.8621
1315	0.8595
1324	0.8525
1333	0.8414
1342	0.8453
1351	0.8463
1360	0.8364
1369	0.7238
1378	0.7582
1387	0.8437
1396	0.8292
1405	0.8017
1414	0.8398
1423	0.8457
1432	0.8508
1441	0.8489
1450	0.8414
1459	0.615
1468	0.024
1477	0.7513
1486	0.7995
1495	0.7794
1504	0.7363
1513	0.6866
1522	0.6378
1531	0.5813
1540	0.4876
1549	0.4377
1558	0.4546
1567	0.5641
1576	0.5894
1585	0.6158
1594	0.6638
1603	0.7516
1612	0.7923
1621	0.7935
1630	0.8309
1639	0.844
1648	0.8491
1657	0.8542
1666	0.8573
1675	0.8599
1684	0.8576
1693	0.8602
1702	0.8633
1711	0.8653
1720	0.8649
1729	0.8584
1738	0.8627
1747	0.8598
1756	0.8702
1765	0.8707
1774	0.8466
1783	0.863
1792	0.8707
1801	0.8718
1810	0.8703
1819	0.868
1828	0.8652
1837	0.8632
1846	0.862
1855	0.8609
1864	0.8612
1873	0.8627
1882	0.8268
1891	0.7986
1900	0.8402
1909	0.8637
1918	0.8677
1927	0.8697
1936	0.8712
1945	0.8723
1954	0.8723
1963	0.872
1972	0.8715
1981	0.8713
1990	0.871
1999	0.8704
2008	0.8571
2017	0.8557
2026	0.857
2035	0.8586
2044	0.8598
2053	0.861
2062	0.8623
2071	0.8635
2080	0.8648
2089	0.8658
2098	0.8664
2107	0.8669
2116	0.8675
2125	0.8671
2134	0.8667
2143	0.8663
2152	0.866
2161	0.866
2170	0.8661
2179	0.8662
2188	0.8664
2197	0.8668
2206	0.8672
2215	0.8676
2224	0.867
2233	0.8654
2242	0.8625
2251	0.8596
2260	0.8561
2269	0.8501
2278	0.8431
2287	0.8351
2296	0.8366
2305	0.842
2314	0.8474
2323	0.8496
2332	0.8522
2341	0.8548
2350	0.8575
2359	0.8591
2368	0.8607
2377	0.862
2386	0.8629
2395	0.8629
2404	0.8636
2413	0.8649
2422	0.8658
2431	0.8667
2440	0.8672
2449	0.8672
2458	0.8672
2467	0.8665
2476	0.8655
2485	0.864
2494	0.8619
2503	0.8594
2512	0.8564
2521	0.8612
2530	0.8615
2539	0.8513
2548	0.8412
2557	0.8536
2566	0.8593
2575	0.8629
2584	0.8629
2593	0.8629
2602	0.8628
2611	0.8609
2620	0.8588
2629	0.857
2638	0.8562
2647	0.8565
2656	0.8569
2665	0.8572
2674	0.8575
2683	0.8566
2692	0.8561
2701	0.8561
2710	0.8561
2719	0.8566
2728	0.8573
2737	0.859
2746	0.8604
2755	0.8557
2764	0.8528
2773	0.8578
2782	0.8609
2791	0.857
2800	0.8467
2809	0.8599
2818	0.8631
2827	0.8626
2836	0.862
2845	0.8604
2854	0.859
2863	0.858
2872	0.858
2881	0.8567
2890	0.8555
2899	0.8539
2908	0.8523
2917	0.8495
2926	0.8488
2935	0.8518
2944	0.8562
2953	0.857
2962	0.8577
2971	0.8568
2980	0.8555
2989	0.854
2998	0.8528
3007	0.852
3016	0.8539
3025	0.8569
3034	0.8569
3043	0.8548
3052	0.8519
3061	0.8479
3070	0.8447
3079	0.8431
3088	0.8438
3097	0.8485
3106	0.8509
3115	0.8516
3124	0.852
3133	0.8522
3142	0.8524
3151	0.8527
3160	0.853
3169	0.8532
3178	0.8532
3187	0.8527
3196	0.8523
3205	0.8522
3214	0.8522
3223	0.8522
3232	0.8522
3241	0.8521
3250	0.8522
3259	0.8523
3268	0.8523
3277	0.8524
3286	0.8524
3295	0.852
3304	0.8516
3313	0.8512
3322	0.8508
3331	0.8504
3340	0.8501
3349	0.8501
3358	0.8501
3367	0.8501
3376	0.8501
3385	0.85
3394	0.8501
3403	0.8502
3412	0.8503
3421	0.8504
3430	0.8506
3439	0.8507
3448	0.8507
3457	0.8508
3466	0.8508
3475	0.8509
3484	0.8509
3493	0.8509
3502	0.8514
3511	0.8519
3520	0.8524
3529	0.8529
3538	0.8534
3547	0.8539
3556	0.8545
3565	0.855
3574	0.8555
3583	0.856
3592	0.8566
3601	0.8571
3610	0.8578
3619	0.8583
3628	0.8589
3637	0.8593
3646	0.8599
3655	0.8602
3664	0.86
3673	0.8598
3682	0.8564
3691	0.8525
3700	0.8512
3709	0.8525
3718	0.8544
3727	0.856
3736	0.8574
3745	0.8576
3754	0.8572
3763	0.8559
3772	0.855
3781	0.857
3790	0.8611
