Infrared Spectrum: CYCLOHEXANE, CIS-1,4-DIMETHYL-
Formula: C8 H16
CAS: 624-29-3
State: SOLUTION (10% CCl4 FOR 3800-1340, 10% CS2 FOR 1340-450 CM^-^1)
Class: COBLENTZ III
Instrument: DOW KBr FOREPRISM-GRATING
Instrument parameters: BLAZED AT 3.5, 12.0, 20.0 MICRON AND CHANGED AT 5.0, 7.5, 14.9 MICRON
Sampling: TRANSMISSION
Path length: 0.011 CM, 0.011 CM
Resolution: 2
Origin: DOW CHEMICAL COMPANY
1/CM	TRANSMITTANCE
452	0.8197
461	0.8201
470	0.8242
479	0.8356
488	0.8463
497	0.852
506	0.8546
515	0.8565
524	0.858
533	0.8604
542	0.863
551	0.8659
560	0.8687
569	0.8712
578	0.8736
587	0.8761
596	0.8771
605	0.8763
614	0.872
623	0.863
632	0.7761
641	0.8345
650	0.8466
659	0.8545
668	0.8791
677	0.8575
686	0.8568
695	0.8568
704	0.857
713	0.8573
722	0.8584
731	0.861
740	0.862
749	0.8538
758	0.7895
767	0.8601
776	0.8514
785	0.8371
794	0.8575
803	0.8589
812	0.8567
821	0.8525
830	0.8508
839	0.8136
848	0.7428
857	0.6464
866	0.7396
875	0.7756
884	0.8171
893	0.8468
902	0.8471
911	0.8325
920	0.7643
929	0.8366
938	0.8432
947	0.7708
956	0.8432
965	0.8301
974	0.8168
983	0.8253
992	0.7611
1001	0.5504
1010	0.8169
1019	0.851
1028	0.8558
1037	0.8564
1046	0.8334
1055	0.8425
1064	0.8555
1073	0.8432
1082	0.8147
1091	0.6785
1100	0.7284
1109	0.8393
1118	0.8515
1127	0.8528
1136	0.8494
1145	0.8409
1154	0.8178
1163	0.7315
1172	0.7901
1181	0.8268
1190	0.843
1199	0.8348
1208	0.8337
1217	0.8409
1226	0.8418
1235	0.8213
1244	0.7911
1253	0.7881
1262	0.7774
1271	0.7943
1280	0.799
1289	0.7533
1298	0.6814
1307	0.751
1316	0.7491
1325	0.7443
1334	0.6881
1343	0.8003
1352	0.8196
1361	0.7857
1370	0.5268
1379	0.2484
1388	0.7778
1397	0.8101
1406	0.8099
1415	0.7831
1424	0.7651
1433	0.6967
1442	0.3859
1451	0.3741
1460	0.1739
1469	0.3577
1478	0.7003
1487	0.7582
1496	0.7548
1505	0.7199
1514	0.6831
1523	0.6434
1532	0.6085
1541	0.5005
1550	0.4586
1559	0.4939
1568	0.5667
1577	0.621
1586	0.6369
1595	0.7218
1604	0.7934
1613	0.8297
1622	0.8499
1631	0.8587
1640	0.8646
1649	0.8674
1658	0.8663
1667	0.8648
1676	0.8641
1685	0.8665
1694	0.8697
1703	0.8728
1712	0.8689
1721	0.8746
1730	0.8728
1739	0.8713
1748	0.8721
1757	0.872
1766	0.8715
1775	0.8702
1784	0.8693
1793	0.8691
1802	0.8661
1811	0.8632
1820	0.8627
1829	0.864
1838	0.8639
1847	0.8634
1856	0.8636
1865	0.8646
1874	0.8657
1883	0.8666
1892	0.8675
1901	0.8691
1910	0.8705
1919	0.871
1928	0.8704
1937	0.8696
1946	0.8688
1955	0.8713
1964	0.8692
1973	0.8671
1982	0.8687
1991	0.8577
2000	0.8689
2009	0.8613
2018	0.8612
2027	0.8636
2036	0.8633
2045	0.8632
2054	0.8634
2063	0.8618
2072	0.8588
2081	0.8615
2090	0.8597
2099	0.8588
2108	0.8609
2117	0.864
2126	0.8628
2135	0.862
2144	0.8633
2153	0.8628
2162	0.8601
2171	0.8654
2180	0.868
2189	0.8675
2198	0.8661
2207	0.8644
2216	0.8628
2225	0.8614
2234	0.8598
2243	0.858
2252	0.8558
2261	0.8534
2270	0.8505
2279	0.8474
2288	0.8441
2297	0.8414
2306	0.8483
2315	0.8545
2324	0.8602
2333	0.8616
2342	0.8601
2351	0.8621
2360	0.8694
2369	0.8671
2378	0.8646
2387	0.8635
2396	0.8633
2405	0.8628
2414	0.8625
2423	0.8615
2432	0.8596
2441	0.8605
2450	0.8618
2459	0.8621
2468	0.8616
2477	0.8687
2486	0.8702
2495	0.8659
2504	0.8599
2513	0.8568
2522	0.8571
2531	0.8564
2540	0.853
2549	0.8541
2558	0.8558
2567	0.861
2576	0.8574
2585	0.8463
2594	0.829
2603	0.8186
2612	0.8128
2621	0.8111
2630	0.7792
2639	0.7794
2648	0.81
2657	0.7787
2666	0.7771
2675	0.7864
2684	0.7735
2693	0.8024
2702	0.8074
2711	0.7931
2720	0.7737
2729	0.8218
2738	0.8168
2747	0.8106
2756	0.8058
2765	0.8093
2774	0.7772
2783	0.7712
2792	0.7401
2801	0.7258
2810	0.6962
2819	0.6442
2828	0.5677
2837	0.3153
2846	0.0794
2855	0.0293
2864	0.0637
2873	0.0711
2882	0.0781
2891	0.0199
2900	0.0127
2909	0.0032
2918	0.0043
2927	0.0081
2936	0.0184
2945	0.0145
2954	0.0073
2963	0.0165
2972	0.1144
2981	0.398
2990	0.5934
2999	0.6988
3008	0.7782
3017	0.8087
3026	0.8217
3035	0.8301
3044	0.8371
3053	0.8414
3062	0.844
3071	0.8462
3080	0.8477
3089	0.848
3098	0.8481
3107	0.8473
3116	0.8463
3125	0.8446
3134	0.8412
3143	0.8392
3152	0.8414
3161	0.8456
3170	0.8514
3179	0.8573
3188	0.8628
3197	0.8674
3206	0.8717
3215	0.8746
3224	0.8774
3233	0.8794
3242	0.8801
3251	0.8786
3260	0.8759
3269	0.8742
3278	0.8752
3287	0.8771
3296	0.8798
3305	0.8821
3314	0.881
3323	0.8778
3332	0.8768
3341	0.8797
3350	0.8841
3359	0.8874
3368	0.8898
3377	0.8948
3386	0.8986
3395	0.8971
3404	0.8964
3413	0.8958
3422	0.8948
3431	0.8936
3440	0.8925
3449	0.8918
3458	0.8909
3467	0.8902
3476	0.8896
3485	0.8888
3494	0.8878
3503	0.886
3512	0.8837
3521	0.8811
3530	0.8806
3539	0.8809
3548	0.883
3557	0.8843
3566	0.8838
3575	0.8828
3584	0.8813
3593	0.8796
3602	0.8778
3611	0.8762
3620	0.8752
3629	0.8764
3638	0.8762
3647	0.8762
3656	0.8771
3665	0.8736
3674	0.8704
3683	0.8694
3692	0.8709
3701	0.8734
3710	0.8759
3719	0.8793
3728	0.8821
3737	0.8818
3746	0.8782
3755	0.8704
3764	0.8681
3773	0.8688
3782	0.8695
3791	0.8701
