Infrared Spectrum: 2-Butenedioic acid (E), dimethyl ester
Formula: C6 H8 O4
CAS: 624-49-7
State: SOLID (SPLIT MULL), FLUOROLUBE FOR 2.8-7.5 MICRON, NUJOL FOR 7.5-26 MICRON
Class: COBLENTZ III
Instrument: DOW KBr FOREPRISM-GRATING
Instrument parameters: BLAZED AT 3.5, 12.0, 20.0 MICRON AND CHANGED AT 5.0, 7.5, 14.9 MICRON
Sampling: TRANSMISSION
Resolution: 2
Origin: DOW CHEMICAL COMPANY
1/CM	TRANSMITTANCE
3610	0.7028
3601	0.7
3592	0.6968
3583	0.7031
3574	0.7046
3565	0.7048
3556	0.7051
3547	0.7057
3538	0.7062
3529	0.7065
3520	0.7067
3511	0.7071
3502	0.7075
3493	0.7085
3484	0.7095
3475	0.7104
3466	0.7107
3457	0.7101
3448	0.7055
3439	0.6636
3430	0.6837
3421	0.701
3412	0.7061
3403	0.708
3394	0.7091
3385	0.7103
3376	0.7134
3367	0.716
3358	0.7183
3349	0.7207
3340	0.7233
3331	0.7258
3322	0.7283
3313	0.7308
3304	0.7333
3295	0.7347
3286	0.7358
3277	0.7364
3268	0.7365
3259	0.7367
3250	0.7365
3241	0.7365
3232	0.7365
3223	0.7365
3214	0.736
3205	0.7354
3196	0.7345
3187	0.7334
3178	0.7325
3169	0.7317
3160	0.731
3151	0.7318
3142	0.7331
3133	0.7347
3124	0.7358
3115	0.7365
3106	0.7367
3097	0.7361
3088	0.7331
3079	0.5994
3070	0.7184
3061	0.7249
3052	0.7251
3043	0.7215
3034	0.7103
3025	0.6871
3016	0.693
3007	0.7164
2998	0.7275
2989	0.7305
2980	0.7251
2971	0.6518
2962	0.6425
2953	0.6835
2944	0.6865
2935	0.6864
2926	0.6904
2917	0.6992
2908	0.7094
2899	0.719
2890	0.7256
2881	0.7286
2872	0.7226
2863	0.7096
2854	0.7068
2845	0.7265
2836	0.739
2827	0.7471
2818	0.7515
2809	0.755
2800	0.7583
2791	0.7611
2782	0.7628
2773	0.7642
2764	0.7654
2755	0.7661
2746	0.7667
2737	0.7674
2728	0.7684
2719	0.7694
2710	0.7701
2701	0.7705
2692	0.7711
2683	0.7721
2674	0.7737
2665	0.7758
2656	0.778
2647	0.7799
2638	0.7814
2629	0.7826
2620	0.7831
2611	0.7837
2602	0.786
2593	0.7884
2584	0.7904
2575	0.7919
2566	0.7933
2557	0.7943
2548	0.7947
2539	0.7946
2530	0.7935
2521	0.7919
2512	0.7941
2503	0.7976
2494	0.7998
2485	0.8001
2476	0.799
2467	0.8014
2458	0.8074
2449	0.8093
2440	0.8098
2431	0.8101
2422	0.8108
2413	0.8118
2404	0.8122
2395	0.8124
2386	0.8125
2377	0.8128
2368	0.8125
2359	0.8117
2350	0.811
2341	0.8106
2332	0.8121
2323	0.8158
2314	0.8192
2305	0.8225
2296	0.8244
2287	0.8271
2278	0.8328
2269	0.8363
2260	0.8397
2251	0.8432
2242	0.8467
2233	0.8502
2224	0.8546
2215	0.858
2206	0.858
2197	0.856
2188	0.8578
2179	0.8654
2170	0.8721
2161	0.8775
2152	0.8816
2143	0.8851
2134	0.8877
2125	0.8817
2116	0.8716
2107	0.8615
2098	0.8591
2089	0.8742
2080	0.8882
2071	0.8923
2062	0.8947
2053	0.9018
2044	0.909
2035	0.9153
2026	0.9187
2017	0.9207
2008	0.921
1999	0.9156
1990	0.9191
1981	0.926
1972	0.9277
1963	0.9209
1954	0.9093
1945	0.9201
1936	0.9273
1927	0.9257
1918	0.9221
1909	0.9264
1900	0.9332
1891	0.925
1882	0.9097
1873	0.9262
1864	0.9382
1855	0.9378
1846	0.9361
1837	0.9275
1828	0.927
1819	0.9221
1810	0.9106
1801	0.891
1792	0.8661
1783	0.8299
1774	0.7867
1765	0.7411
1756	0.6545
1747	0.5396
1738	0.3609
1729	0.1968
1720	0.0889
1711	0.1669
1702	0.2954
1693	0.426
1684	0.481
1675	0.521
1666	0.5338
1657	0.601
1648	0.6651
1639	0.678
1630	0.7061
1621	0.7421
1612	0.7691
1603	0.7883
1594	0.801
1585	0.8154
1576	0.8295
1567	0.8392
1558	0.846
1549	0.8538
1540	0.8649
1531	0.8768
1522	0.8844
1513	0.8877
1504	0.8891
1495	0.8886
1486	0.8858
1477	0.8766
1468	0.8333
1459	0.7626
1450	0.5747
1441	0.3966
1432	0.4698
1423	0.6642
1414	0.7339
1405	0.7696
1396	0.7753
1387	0.764
1378	0.7369
1369	0.6801
1360	0.5912
1351	0.4814
1342	0.3962
1333	0.2959
1324	0.2444
1315	0.1369
1306	0.1373
1297	0.2222
1288	0.3126
1279	0.3944
1270	0.4947
1261	0.5424
1252	0.6024
1243	0.6611
1234	0.7019
1225	0.7191
1216	0.7168
1207	0.6558
1198	0.4812
1189	0.5589
1180	0.5572
1171	0.3693
1162	0.1715
1153	0.2201
1144	0.3596
1135	0.4875
1126	0.557
1117	0.6059
1108	0.6345
1099	0.6551
1090	0.6696
1081	0.6819
1072	0.6908
1063	0.6978
1054	0.7036
1045	0.7071
1036	0.7067
1027	0.7
1018	0.6724
1009	0.4064
1000	0.5136
991	0.3864
982	0.4758
973	0.6512
964	0.684
955	0.6985
946	0.7086
937	0.7169
928	0.7225
919	0.73
910	0.7331
901	0.7285
892	0.7108
883	0.566
874	0.6349
865	0.7408
856	0.7592
847	0.7668
838	0.7721
829	0.7765
820	0.78
811	0.7817
802	0.7821
793	0.7805
784	0.7631
775	0.6901
766	0.7343
757	0.7698
748	0.7778
739	0.7708
730	0.7575
721	0.7283
712	0.7593
703	0.794
694	0.8106
685	0.8143
676	0.8015
667	0.5917
658	0.7983
649	0.8051
640	0.8115
631	0.8201
622	0.8232
613	0.8249
604	0.8257
595	0.826
586	0.8258
577	0.8215
568	0.8184
559	0.8161
550	0.8138
541	0.8105
532	0.8056
523	0.7703
514	0.6746
505	0.7896
496	0.7896
487	0.7844
478	0.7743
469	0.7565
460	0.7332
451	0.7008
442	0.6788
433	0.6749
424	0.6746
415	0.6785
406	0.7068
