Infrared Spectrum: 2,5-DIMETHYLPYRROLE
Formula: C6 H9 N
CAS: 625-84-3
State: LIQUID (NEAT)
Class: COBLENTZ III
Instrument: BECKMAN IR-9 (GRATING)
Instrument parameters: ORDER CHANGES: 670, 1200, 2000 CM^-^1
Sampling: TRANSMISSION
Path length: CAPILLARY
Resolution: 2
Origin: DOW CHEMICAL COMPANY
1/CM	TRANSMITTANCE
401.611	0.286
410.242	0.145
418.872	0.102
427.503	0.049
436.133	0.026
444.764	0.009
453.395	0.002
462.025	0.001
470.656	0.001
479.286	0.001
487.917	0.001
496.548	0
505.178	0.001
513.809	0
522.44	0
531.07	0.001
539.701	0.006
548.331	0.014
556.962	0.025
565.593	0.04
574.223	0.056
582.854	0.103
591.484	0.166
600.115	0.236
608.746	0.286
617.376	0.338
626.007	0.358
634.637	0.276
643.268	0.165
651.899	0.172
660.529	0.314
669.16	0.482
677.79	0.591
686.421	0.631
695.052	0.633
703.682	0.655
712.313	0.662
720.944	0.669
729.574	0.659
738.205	0.603
746.835	0.322
755.466	0.038
764.097	0.009
772.727	0.006
781.358	0.029
789.988	0.271
798.619	0.509
807.25	0.591
815.88	0.631
824.511	0.662
833.141	0.727
841.772	0.788
850.403	0.83
859.033	0.853
867.664	0.866
876.294	0.869
884.925	0.877
893.556	0.879
902.186	0.888
910.817	0.892
919.448	0.889
928.078	0.881
936.709	0.869
945.339	0.846
953.97	0.814
962.601	0.822
971.231	0.763
979.862	0.806
988.492	0.197
997.123	0.741
1005.75	0.772
1014.38	0.78
1023.01	0.69
1031.65	0.211
1040.28	0.598
1048.91	0.744
1057.54	0.775
1066.17	0.784
1074.8	0.78
1083.43	0.768
1092.06	0.751
1100.69	0.727
1109.32	0.705
1117.95	0.685
1126.58	0.663
1135.21	0.642
1143.84	0.616
1152.47	0.603
1161.1	0.588
1169.74	0.561
1178.37	0.384
1187	0.388
1195.63	0.592
1204.26	0.698
1212.89	0.708
1221.52	0.698
1230.15	0.68
1238.78	0.658
1247.41	0.623
1256.04	0.47
1264.67	0.806
1273.3	0.845
1281.93	0.842
1290.56	0.83
1299.19	0.817
1307.82	0.809
1316.46	0.784
1325.09	0.756
1333.72	0.747
1342.35	0.723
1350.98	0.688
1359.61	0.631
1368.24	0.4499
1376.87	0.224
1385.5	0.217
1394.13	0.212
1402.76	0.341
1411.39	0.206
1420.02	0.31
1428.65	0.459
1437.28	0.409
1445.91	0.397
1454.55	0.471
1463.18	0.49
1471.81	0.651
1480.44	0.719
1489.07	0.735
1497.7	0.711
1506.33	0.512
1514.96	0.412
1523.59	0.669
1532.22	0.716
1540.85	0.756
1549.48	0.787
1558.11	0.806
1566.74	0.809
1575.37	0.741
1584	0.331
1592.63	0.237
1601.27	0.615
1609.9	0.659
1618.53	0.665
1627.16	0.721
1635.79	0.758
1644.42	0.783
1653.05	0.801
1661.68	0.801
1670.31	0.825
1678.94	0.869
1687.57	0.9
1696.2	0.912
1704.83	0.92
1713.46	0.936
1722.09	0.954
1730.72	0.962
1739.36	0.969
1747.99	0.973
1756.62	0.975
1765.25	0.975
1773.88	0.973
1782.51	0.97
1791.14	0.969
1799.77	0.97
1808.4	0.97
1817.03	0.974
1825.66	0.977
1834.29	0.979
1842.92	0.979
1851.55	0.977
1860.18	0.975
1868.81	0.975
1877.45	0.97
1886.08	0.977
1894.71	0.982
1903.34	0.986
1911.97	0.987
1920.6	0.993
1929.23	0.994
1937.86	0.993
1946.49	0.986
1955.12	0.977
1963.75	0.978
1972.38	0.983
1981.01	0.977
1989.64	0.969
1998.27	0.966
2006.9	0.969
2015.53	0.9772
2024.17	0.9805
2032.8	0.9702
2041.43	0.9772
2050.06	0.983
2058.69	0.986
2067.32	0.9746
2075.95	0.978
2084.58	0.9825
2093.21	0.987
2101.84	0.9833
2110.47	0.9758
2119.1	0.981
2127.73	0.9924
2136.36	0.998
2144.99	0.9945
2153.62	0.99
2162.26	0.991
2170.89	0.994
2179.52	0.987
2188.15	0.9859
2196.78	0.9789
2205.41	0.971
2214.04	0.974
2222.67	0.973
2231.3	0.9832
2239.93	0.9917
2248.56	0.9958
2257.19	1.0005
2265.82	1.002
2274.45	1.001
2283.08	1
2291.71	0.9917
2300.34	1.0031
2308.98	1.0135
2317.61	1.0202
2326.24	1.0277
2334.87	1.034
2343.5	1.0364
2352.13	1.0439
2360.76	1.064
2369.39	1.0491
2378.02	0.9864
2386.65	0.9786
2395.28	0.9698
2403.91	0.9579
2412.54	0.9357
2421.17	0.931
2429.8	0.9161
2438.43	0.883
2447.07	0.9097
2455.7	0.9332
2464.33	0.9489
2472.96	0.963
2481.59	0.9707
2490.22	0.975
2498.85	0.975
2507.48	0.9701
2516.11	0.967
2524.74	0.975
2533.37	0.983
2542	0.9779
2550.63	0.9752
2559.26	0.978
2567.89	0.9738
2576.52	0.964
2585.15	0.9415
2593.79	0.912
2602.42	0.9155
2611.05	0.9414
2619.68	0.948
2628.31	0.9332
2636.94	0.9078
2645.57	0.9
2654.2	0.8936
2662.83	0.8393
2671.46	0.8286
2680.09	0.8775
2688.72	0.9006
2697.35	0.9159
2705.98	0.916
2714.61	0.912
2723.24	0.889
2731.88	0.6983
2740.51	0.8567
2749.14	0.897
2757.77	0.8817
2766.4	0.858
2775.03	0.8812
2783.66	0.891
2792.29	0.888
2800.92	0.8639
2809.55	0.8001
2818.18	0.7123
2826.81	0.632
2835.44	0.5057
2844.07	0.4189
2852.7	0.3569
2861.33	0.3654
2869.97	0.391
2878.6	0.3147
2887.23	0.2276
2895.86	0.1889
2904.49	0.211
2913.12	0.1521
2921.75	0.1303
2930.38	0.2675
2939.01	0.3856
2947.64	0.4493
2956.27	0.4004
2964.9	0.3655
2973.53	0.4001
2982.16	0.5317
2990.79	0.6064
2999.42	0.6393
3008.05	0.675
3016.69	0.6998
3025.32	0.7192
3033.95	0.753
3042.58	0.759
3051.21	0.762
3059.84	0.76
3068.47	0.6935
3077.1	0.6402
3085.73	0.6886
3094.36	0.5554
3102.99	0.5807
3111.62	0.7349
3120.25	0.8229
3128.88	0.8542
3137.51	0.8644
3146.14	0.865
3154.78	0.8544
3163.41	0.8282
3172.04	0.7731
3180.67	0.7494
3189.3	0.7905
3197.93	0.8178
3206.56	0.817
3215.19	0.7981
3223.82	0.7765
3232.45	0.7501
3241.08	0.7249
3249.71	0.7003
3258.34	0.6654
3266.97	0.621
3275.6	0.5548
3284.23	0.4766
3292.86	0.3589
3301.5	0.2357
3310.13	0.1395
3318.76	0.0691
3327.39	0.0344
3336.02	0.0174
3344.65	0.0084
3353.28	0.004
3361.91	0.004
3370.54	0.004
3379.17	0.0058
3387.8	0.0157
3396.43	0.0496
3405.06	0.1428
3413.69	0.2431
3422.32	0.3197
3430.95	0.4004
3439.59	0.4572
3448.22	0.512
3456.85	0.572
3465.48	0.6085
3474.11	0.6636
3482.74	0.7502
3491.37	0.7774
3500	0.7865
3508.63	0.7935
3517.26	0.797
3525.89	0.8039
3534.52	0.814
3543.15	0.817
3551.78	0.819
3560.41	0.819
3569.04	0.819
3577.67	0.8102
3586.31	0.806
3594.94	0.8131
3603.57	0.8221
3612.2	0.8293
3620.83	0.8344
3629.46	0.845
3638.09	0.8483
3646.72	0.8567
3655.35	0.8661
3663.98	0.8709
3672.61	0.8774
3681.24	0.8861
3689.87	0.8941
3698.5	0.8966
3707.13	0.8997
3715.76	0.901
3724.4	0.903
3733.03	0.903
3741.66	0.901
3750.29	0.8991
3758.92	0.896
3767.55	0.891
3776.18	0.891
3784.81	0.889
3793.44	0.8835
3802.07	0.8808
