Infrared Spectrum: 3,5-DIBROMOPYRIDINE
Formula: C5 H3 Br2 N
CAS: 625-92-3
State: SOLID (MINERAL OIL MULL)
Melting point: 110-111 C
Class: COBLENTZ
Instrument: Not specified, most likely a prism, grating, or hybrid spectrometer.
Sampling: TRANSMISSION
Resolution: 4
Origin: WYANDOTTE CHEMICALS CORP., WYANDOTTE, MICHIGAN, USA
MICROMETERS	TRANSMITTANCE
2.012	0.265
2.04919	0.271
2.08637	0.27
2.12356	0.265
2.16075	0.263
2.19793	0.254
2.23512	0.251
2.27231	0.256
2.30949	0.26
2.34668	0.265
2.38387	0.268
2.42105	0.274
2.45824	0.277
2.49543	0.282
2.53261	0.291
2.5698	0.296
2.60699	0.291
2.64417	0.299
2.68136	0.307
2.71855	0.319
2.75573	0.318
2.79292	0.312
2.83011	0.309
2.86729	0.307
2.90448	0.298
2.94167	0.305
2.97885	0.301
3.01604	0.307
3.05323	0.309
3.09041	0.304
3.1276	0.296
3.16479	0.285
3.20197	0.262
3.23916	0.24
3.27635	0.186
3.31353	0.049
3.35072	0.01
3.38791	0.026
3.42509	0.021
3.46228	0.024
3.49947	0.037
3.53665	0.152
3.57384	0.254
3.61103	0.29
3.64821	0.287
3.6854	0.288
3.72259	0.298
3.75977	0.31
3.79696	0.327
3.83415	0.341
3.87134	0.358
3.90852	0.368
3.94571	0.385
3.9829	0.395
4.02008	0.408
4.05727	0.408
4.09446	0.414
4.13164	0.383
4.16883	0.358
4.20602	0.403
4.2432	0.406
4.28039	0.413
4.31758	0.431
4.35476	0.462
4.39195	0.467
4.42914	0.456
4.46632	0.462
4.50351	0.475
4.5407	0.473
4.57788	0.47
4.61507	0.484
4.65226	0.484
4.68944	0.486
4.72663	0.489
4.76382	0.504
4.801	0.51
4.83819	0.506
4.87538	0.521
4.91256	0.527
4.94975	0.526
4.98694	0.534
5.02412	0.541
5.06131	0.548
5.0985	0.548
5.13568	0.555
5.17287	0.541
5.21006	0.541
5.24724	0.552
5.28443	0.501
5.32162	0.492
5.3588	0.504
5.39599	0.523
5.43318	0.543
5.47036	0.557
5.50755	0.555
5.54474	0.531
5.58192	0.559
5.61911	0.571
5.6563	0.585
5.69348	0.557
5.73067	0.565
5.76786	0.59
5.80504	0.591
5.84223	0.577
5.87942	0.59
5.9166	0.579
5.95379	0.586
5.99098	0.604
6.02816	0.576
6.06535	0.59
6.10254	0.602
6.13972	0.618
6.17691	0.625
6.2141	0.636
6.25128	0.639
6.28847	0.627
6.32566	0.672
6.36284	0.647
6.40003	0.33
6.43722	0.267
6.4744	0.368
6.51159	0.45
6.54878	0.482
6.58596	0.492
6.62315	0.518
6.66034	0.501
6.69752	0.417
6.73471	0.296
6.7719	0.093
6.80908	0.059
6.84627	0.069
6.88346	0.127
6.92064	0.251
6.95783	0.453
6.99502	0.529
7.0322	0.204
7.06939	0.083
7.10658	0.24
7.14376	0.319
7.18095	0.285
7.21814	0.127
7.25532	0.097
7.29251	0.169
7.3297	0.312
7.36689	0.402
7.40407	0.425
7.44126	0.423
7.47845	0.472
7.51563	0.515
7.55282	0.507
7.59001	0.482
7.62719	0.465
7.66438	0.509
7.70157	0.49
7.73875	0.52
7.77594	0.562
7.81313	0.549
7.85031	0.555
7.8875	0.577
7.92469	0.597
7.96187	0.607
7.99906	0.611
8.03625	0.627
8.07343	0.641
8.11062	0.652
8.14781	0.653
8.18499	0.642
8.22218	0.605
8.25937	0.618
8.29655	0.638
8.33374	0.67
8.37093	0.689
8.40811	0.703
8.4453	0.701
8.48249	0.704
8.51967	0.694
8.55686	0.661
8.59405	0.692
8.63123	0.703
8.66842	0.683
8.70561	0.709
8.74279	0.698
8.77998	0.684
8.81717	0.631
8.85435	0.631
8.89154	0.664
8.92873	0.669
8.96591	0.425
9.0031	0.287
9.04029	0.444
9.07747	0.537
9.11466	0.472
9.15185	0.295
9.18903	0.111
9.22622	0.248
9.26341	0.378
9.30059	0.45
9.33778	0.501
9.37497	0.527
9.41215	0.506
9.44934	0.554
9.48653	0.602
9.52371	0.622
9.5609	0.635
9.59809	0.649
9.63527	0.658
9.67246	0.683
9.70965	0.718
9.74683	0.742
9.78402	0.759
9.82121	0.723
9.85839	0.47
9.89558	0.194
9.93277	0.111
9.96995	0.186
10.0071	0.336
10.0443	0.437
10.0815	0.486
10.1187	0.481
10.1559	0.468
10.1931	0.467
10.2303	0.503
10.2674	0.529
10.3046	0.548
10.3418	0.559
10.379	0.563
10.4162	0.552
10.4534	0.523
10.4906	0.479
10.5278	0.437
10.5649	0.459
10.6021	0.51
10.6393	0.56
10.6765	0.599
10.7137	0.618
10.7509	0.638
10.7881	0.653
10.8252	0.67
10.8624	0.667
10.8996	0.675
10.9368	0.692
10.974	0.698
11.0112	0.695
11.0484	0.698
11.0856	0.704
11.1227	0.714
11.1599	0.712
11.1971	0.709
11.2343	0.695
11.2715	0.667
11.3087	0.605
11.3459	0.482
11.383	0.26
11.4202	0.136
11.4574	0.208
11.4946	0.436
11.5318	0.639
11.569	0.717
11.6062	0.751
11.6434	0.785
11.6805	0.802
11.7177	0.805
11.7549	0.818
11.7921	0.822
11.8293	0.826
11.8665	0.83
11.9037	0.836
11.9408	0.847
11.978	0.855
12.0152	0.868
12.0524	0.877
12.0896	0.881
12.1268	0.891
12.164	0.905
12.2012	0.909
12.2383	0.917
12.2755	0.909
12.3127	0.917
12.3499	0.922
12.3871	0.931
12.4243	0.928
12.4615	0.93
12.4986	0.927
12.5358	0.923
12.573	0.925
12.6102	0.925
12.6474	0.919
12.6846	0.917
12.7218	0.914
12.759	0.911
12.7961	0.914
12.8333	0.902
12.8705	0.885
12.9077	0.88
12.9449	0.913
12.9821	0.923
13.0193	0.916
13.0565	0.855
13.0936	0.673
13.1308	0.375
13.168	0.198
13.2052	0.149
13.2424	0.169
13.2796	0.245
13.3168	0.344
13.3539	0.434
13.3911	0.51
13.4283	0.582
13.4655	0.618
13.5027	0.638
13.5399	0.647
13.5771	0.647
13.6143	0.65
13.6514	0.642
13.6886	0.636
13.7258	0.631
13.763	0.619
13.8002	0.616
13.8374	0.611
13.8746	0.618
13.9117	0.641
13.9489	0.675
13.9861	0.703
14.0233	0.736
14.0605	0.77
14.0977	0.774
14.1349	0.799
14.1721	0.798
14.2092	0.796
14.2464	0.79
14.2836	0.776
14.3208	0.754
14.358	0.728
14.3952	0.677
14.4324	0.604
14.4695	0.504
14.5067	0.375
14.5439	0.271
14.5811	0.189
14.6183	0.159
14.6555	0.206
14.6927	0.295
14.7299	0.408
14.767	0.504
14.8042	0.594
14.8414	0.639
14.8786	0.684
14.9158	0.708
14.953	0.722
14.9902	0.706
15.0273	0.658
15.0645	0.621
15.1017	0.614
15.1389	0.65
15.1761	0.678
15.2133	0.701
15.2505	0.708
15.2877	0.708
15.3248	0.701
15.362	0.678
15.3992	0.641
15.4364	0.579
15.4736	0.484
15.5108	0.378
15.548	0.33
15.5851	0.319
15.6223	0.358
15.6595	0.405
15.6967	0.437
15.7339	0.461
15.7711	0.465
15.8083	0.47
15.8455	0.475
15.8826	0.478
15.9198	0.473
15.957	0.475
15.9942	0.473
