Infrared Spectrum: 1-CHLORO-3-FLUORO-BENZENE
Formula: C6 H4 Cl F
CAS: 625-98-9
State: LIQUID
Boiling point: 123-125 C
Class: COBLENTZ
Instrument: Not specified, most likely a prism, grating, or hybrid spectrometer.
Sampling: TRANSMISSION
Path length: 0.003 CM
Resolution: 4
Origin: WYANDOTTE CHEMICALS CORP., WYANDOTTE, MICHIGAN, USA
MICROMETERS	TRANSMITTANCE
2.033	0.885
2.07273	0.895
2.11247	0.89
2.1522	0.9
2.19194	0.895
2.23167	0.888
2.27141	0.897
2.31114	0.892
2.35088	0.838
2.39061	0.885
2.43034	0.893
2.47008	0.893
2.50981	0.901
2.54955	0.903
2.58928	0.895
2.62902	0.9
2.66875	0.905
2.70848	0.906
2.74822	0.883
2.78795	0.883
2.82769	0.888
2.86742	0.873
2.90716	0.868
2.94689	0.867
2.98663	0.863
3.02636	0.858
3.06609	0.853
3.10583	0.837
3.14556	0.787
3.1853	0.772
3.22503	0.551
3.26477	0.747
3.3045	0.82
3.34424	0.843
3.38397	0.837
3.4237	0.848
3.46344	0.828
3.50317	0.84
3.54291	0.857
3.58264	0.867
3.62238	0.862
3.66211	0.847
3.70185	0.812
3.74158	0.858
3.78131	0.862
3.82105	0.88
3.86078	0.845
3.90052	0.87
3.94025	0.873
3.97999	0.868
4.01972	0.855
4.05945	0.799
4.09919	0.853
4.13892	0.835
4.17866	0.858
4.21839	0.867
4.25813	0.867
4.29786	0.858
4.3376	0.85
4.37733	0.838
4.41706	0.877
4.4568	0.87
4.49653	0.893
4.53627	0.893
4.576	0.893
4.61574	0.897
4.65547	0.893
4.69521	0.885
4.73494	0.88
4.77467	0.812
4.81441	0.845
4.85414	0.878
4.89388	0.893
4.93361	0.892
4.97335	0.895
5.01308	0.893
5.05282	0.893
5.09255	0.893
5.13228	0.888
5.17202	0.842
5.21175	0.729
5.25149	0.843
5.29122	0.862
5.33096	0.867
5.37069	0.872
5.41042	0.77
5.45016	0.774
5.48989	0.853
5.52963	0.888
5.56936	0.892
5.6091	0.848
5.64883	0.777
5.68857	0.77
5.7283	0.765
5.76803	0.739
5.80777	0.71
5.8475	0.725
5.88724	0.785
5.92697	0.79
5.96671	0.725
6.00644	0.709
6.04618	0.717
6.08591	0.687
6.12564	0.596
6.16538	0.167
6.20511	0.039
6.24485	0.043
6.28458	0.126
6.32432	0.406
6.36405	0.481
6.40379	0.569
6.44352	0.538
6.48325	0.423
6.52299	0.435
6.56272	0.569
6.60246	0.581
6.64219	0.504
6.68193	0.079
6.72166	0.044
6.76139	0.056
6.80113	0.24
6.84086	0.518
6.8806	0.456
6.92033	0.191
6.96007	0.098
6.9998	0.244
7.03954	0.411
7.07927	0.536
7.119	0.682
7.15874	0.795
7.19847	0.812
7.23821	0.83
7.27794	0.827
7.31768	0.842
7.35741	0.825
7.39715	0.779
7.43688	0.734
7.47661	0.717
7.51635	0.749
7.55608	0.759
7.59582	0.742
7.63555	0.71
7.67529	0.544
7.71502	0.491
7.75475	0.632
7.79449	0.634
7.83422	0.506
7.87396	0.069
7.91369	0.217
7.95343	0.511
7.99316	0.564
8.0329	0.4
8.07263	0.35
8.11236	0.099
8.1521	0.041
8.19183	0.051
8.23157	0.171
8.2713	0.363
8.31104	0.43
8.35077	0.637
8.39051	0.714
8.43024	0.732
8.46997	0.769
8.50971	0.78
8.54944	0.749
8.58918	0.631
8.62891	0.328
8.66865	0.539
8.70838	0.724
8.74812	0.757
8.78785	0.714
8.82758	0.676
8.86732	0.714
8.90705	0.739
8.94679	0.737
8.98652	0.697
9.02626	0.609
9.06599	0.395
9.10572	0.26
9.14546	0.227
9.18519	0.111
9.22493	0.182
9.26466	0.465
9.3044	0.5
9.34413	0.3
9.38387	0.061
9.4236	0.212
9.46333	0.519
9.50307	0.681
9.5428	0.735
9.58254	0.757
9.62227	0.764
9.66201	0.77
9.70174	0.774
9.74148	0.76
9.78121	0.737
9.82094	0.687
9.86068	0.622
9.90041	0.583
9.94015	0.378
9.97988	0.578
10.0196	0.714
10.0594	0.729
10.0991	0.712
10.1388	0.735
10.1786	0.737
10.2183	0.739
10.258	0.734
10.2978	0.715
10.3375	0.687
10.3772	0.694
10.417	0.74
10.4567	0.76
10.4964	0.777
10.5362	0.785
10.5759	0.789
10.6156	0.79
10.6554	0.789
10.6951	0.78
10.7348	0.769
10.7746	0.742
10.8143	0.74
10.854	0.735
10.8938	0.715
10.9335	0.681
10.9732	0.656
11.013	0.632
11.0527	0.586
11.0924	0.516
11.1322	0.348
11.1719	0.157
11.2116	0.059
11.2514	0.046
11.2911	0.044
11.3309	0.048
11.3706	0.041
11.4103	0.043
11.4501	0.071
11.4898	0.124
11.5295	0.111
11.5693	0.066
11.609	0.049
11.6487	0.044
11.6885	0.049
11.7282	0.059
11.7679	0.112
11.8077	0.262
11.8474	0.39
11.8871	0.508
11.9269	0.584
11.9666	0.631
12.0063	0.667
12.0461	0.679
12.0858	0.687
12.1255	0.691
12.1653	0.692
12.205	0.684
12.2447	0.681
12.2845	0.691
12.3242	0.689
12.3639	0.692
12.4037	0.671
12.4434	0.672
12.4831	0.667
12.5229	0.651
12.5626	0.626
12.6024	0.574
12.6421	0.518
12.6818	0.406
12.7216	0.255
12.7613	0.122
12.801	0.059
12.8408	0.054
12.8805	0.053
12.9202	0.058
12.96	0.056
12.9997	0.071
13.0394	0.161
13.0792	0.284
13.1189	0.392
13.1586	0.48
13.1984	0.544
13.2381	0.601
13.2778	0.631
13.3176	0.664
13.3573	0.691
13.397	0.714
13.4368	0.725
13.4765	0.749
13.5162	0.757
13.556	0.772
13.5957	0.774
13.6354	0.775
13.6752	0.779
13.7149	0.779
13.7547	0.787
13.7944	0.79
13.8341	0.79
13.8739	0.79
13.9136	0.787
13.9533	0.787
13.9931	0.787
14.0328	0.785
14.0725	0.787
14.1123	0.78
14.152	0.777
14.1917	0.77
14.2315	0.759
14.2712	0.757
14.3109	0.745
14.3507	0.737
14.3904	0.717
14.4301	0.699
14.4699	0.669
14.5096	0.634
14.5493	0.591
14.5891	0.524
14.6288	0.44
14.6685	0.367
14.7083	0.325
14.748	0.323
14.7877	0.342
14.8275	0.325
14.8672	0.287
14.9069	0.259
14.9467	0.269
14.9864	0.31
15.0262	0.392
15.0659	0.483
15.1056	0.518
15.1454	0.553
15.1851	0.599
15.2248	0.649
15.2646	0.674
15.3043	0.681
15.344	0.691
15.3838	0.705
15.4235	0.71
15.4632	0.717
15.503	0.719
15.5427	0.727
15.5824	0.727
15.6222	0.727
15.6619	0.724
15.7016	0.727
15.7414	0.719
15.7811	0.727
15.8208	0.724
15.8606	0.719
15.9003	0.719
15.94	0.719
15.9798	0.72
