Infrared Spectrum: DECENYL SUCCINIC ANHYDRIDE
Formula: C14 H22 O3
CAS: 62568-81-4
Class: COBLENTZ
Instrument: Not specified, most likely a grating spectrometer.
Sampling: TRANSMISSION
Path length: CAPILLARY FILM
Resolution: 4
Origin: STANDARD OIL OF OHIO
1/CM	TRANSMITTANCE
652.027	0.896
660.473	0.898
668.919	0.903
677.365	0.91
685.811	0.901
694.257	0.898
702.703	0.884
711.149	0.84
719.595	0.757
728.041	0.761
736.487	0.835
744.932	0.866
753.378	0.896
761.824	0.906
770.27	0.9
778.716	0.896
787.162	0.896
795.608	0.913
804.054	0.923
812.5	0.918
820.946	0.911
829.392	0.91
837.838	0.913
846.284	0.915
854.73	0.91
863.176	0.898
871.622	0.864
880.068	0.789
888.514	0.681
896.96	0.584
905.406	0.537
913.852	0.42
922.298	0.361
930.743	0.418
939.189	0.554
947.635	0.667
956.081	0.735
964.527	0.7
972.973	0.571
981.419	0.566
989.865	0.669
998.311	0.716
1006.76	0.7
1015.2	0.696
1023.65	0.701
1032.09	0.715
1040.54	0.659
1048.99	0.591
1057.43	0.516
1065.88	0.438
1074.32	0.422
1082.77	0.577
1091.22	0.723
1099.66	0.806
1108.11	0.842
1116.55	0.852
1125	0.854
1133.45	0.857
1141.89	0.855
1150.34	0.847
1158.78	0.823
1167.23	0.818
1175.68	0.808
1184.12	0.784
1192.57	0.752
1201.01	0.71
1209.46	0.65
1217.91	0.576
1226.35	0.501
1234.8	0.503
1243.24	0.569
1251.69	0.633
1260.14	0.71
1268.58	0.781
1277.03	0.803
1285.47	0.806
1293.92	0.806
1302.37	0.803
1310.81	0.808
1319.26	0.827
1327.7	0.838
1336.15	0.844
1344.6	0.85
1353.04	0.859
1361.49	0.861
1369.93	0.859
1378.38	0.859
1386.83	0.867
1395.27	0.847
1403.72	0.82
1412.16	0.774
1420.61	0.786
1429.05	0.808
1437.5	0.776
1445.95	0.781
1454.39	0.75
1462.84	0.742
1471.28	0.828
1479.73	0.903
1488.18	0.92
1496.62	0.922
1505.07	0.925
1513.51	0.925
1521.96	0.927
1530.41	0.925
1538.85	0.927
1547.3	0.925
1555.74	0.927
1564.19	0.923
1572.64	0.922
1581.08	0.922
1589.53	0.922
1597.97	0.922
1606.42	0.918
1614.87	0.916
1623.31	0.915
1631.76	0.911
1640.2	0.908
1648.65	0.905
1657.1	0.901
1665.54	0.901
1673.99	0.901
1682.43	0.901
1690.88	0.898
1699.33	0.888
1707.77	0.883
1716.22	0.877
1724.66	0.871
1733.11	0.854
1741.56	0.822
1750	0.786
1758.45	0.713
1766.89	0.6
1775.34	0.337
1783.78	0.152
1792.23	0.142
1800.68	0.254
1809.12	0.464
1817.57	0.606
1826.01	0.661
1834.46	0.664
1842.91	0.635
1851.35	0.584
1859.8	0.533
1868.24	0.474
1876.69	0.6
1885.14	0.772
1893.58	0.849
1902.03	0.877
1910.47	0.893
1918.92	0.9
1927.37	0.901
1935.81	0.903
1944.26	0.905
1952.7	0.91
1961.15	0.913
1969.6	0.913
1978.04	0.913
1986.49	0.913
1994.93	0.915
2003.38	0.913
2011.83	0.913
2020.27	0.913
2028.72	0.915
2037.16	0.916
2045.61	0.916
2054.06	0.916
2062.5	0.916
2070.95	0.916
2079.39	0.916
2087.84	0.916
2096.29	0.916
2104.73	0.913
2113.18	0.913
2121.62	0.911
2130.07	0.91
2138.51	0.911
2146.96	0.913
2155.41	0.913
2163.85	0.915
2172.3	0.915
2180.74	0.916
2189.19	0.916
2197.64	0.916
2206.08	0.916
2214.53	0.916
2222.97	0.916
2231.42	0.916
2239.87	0.916
2248.31	0.916
2256.76	0.916
2265.2	0.916
2273.65	0.916
2282.1	0.916
2290.54	0.918
2298.99	0.918
2307.43	0.922
2315.88	0.922
2324.33	0.922
2332.77	0.922
2341.22	0.923
2349.66	0.923
2358.11	0.923
2366.56	0.922
2375	0.918
2383.45	0.918
2391.89	0.918
2400.34	0.92
2408.79	0.916
2417.23	0.916
2425.68	0.918
2434.12	0.92
2442.57	0.92
2451.02	0.922
2459.46	0.92
2467.91	0.92
2476.35	0.918
2484.8	0.916
2493.25	0.918
2501.69	0.92
2510.14	0.922
2518.58	0.922
2527.03	0.922
2535.47	0.922
2543.92	0.922
2552.37	0.922
2560.81	0.922
2569.26	0.922
2577.7	0.922
2586.15	0.922
2594.6	0.92
2603.04	0.92
2611.49	0.918
2619.93	0.918
2628.38	0.918
2636.83	0.916
2645.27	0.916
2653.72	0.916
2662.16	0.916
2670.61	0.916
2679.06	0.916
2687.5	0.915
2695.95	0.915
2704.39	0.915
2712.84	0.915
2721.29	0.915
2729.73	0.913
2738.18	0.913
2746.62	0.913
2755.07	0.913
2763.52	0.911
2771.96	0.906
2780.41	0.903
2788.85	0.901
2797.3	0.898
2805.75	0.889
2814.19	0.879
2822.64	0.866
2831.08	0.837
2839.53	0.783
2847.98	0.683
2856.42	0.501
2864.87	0.477
2873.31	0.62
2881.76	0.657
2890.2	0.669
2898.65	0.618
2907.1	0.555
2915.54	0.479
2923.99	0.359
2932.43	0.288
2940.88	0.345
2949.33	0.481
2957.77	0.488
2966.22	0.489
2974.66	0.622
2983.11	0.744
2991.56	0.789
3000	0.803
3008.45	0.82
3016.89	0.832
3025.34	0.85
3033.79	0.859
3042.23	0.871
3050.68	0.886
3059.12	0.894
3067.57	0.901
3076.02	0.901
3084.46	0.905
3092.91	0.906
3101.35	0.908
3109.8	0.911
3118.25	0.911
3126.69	0.913
3135.14	0.913
3143.58	0.915
3152.03	0.915
3160.48	0.915
3168.92	0.913
3177.37	0.915
3185.81	0.915
3194.26	0.915
3202.71	0.915
3211.15	0.915
3219.6	0.915
3228.04	0.915
3236.49	0.916
3244.93	0.916
3253.38	0.916
3261.83	0.916
3270.27	0.916
3278.72	0.916
3287.16	0.916
3295.61	0.915
3304.06	0.916
3312.5	0.918
3320.95	0.92
3329.39	0.92
3337.84	0.922
3346.29	0.922
3354.73	0.922
3363.18	0.922
3371.62	0.922
3380.07	0.922
3388.52	0.922
3396.96	0.922
3405.41	0.922
3413.85	0.922
3422.3	0.922
3430.75	0.923
3439.19	0.923
3447.64	0.925
3456.08	0.925
3464.53	0.925
3472.98	0.927
3481.42	0.927
3489.87	0.927
3498.31	0.927
3506.76	0.927
3515.21	0.927
3523.65	0.925
3532.1	0.923
3540.54	0.923
3548.99	0.922
3557.44	0.92
3565.88	0.918
3574.33	0.916
3582.77	0.915
3591.22	0.915
3599.67	0.911
3608.11	0.908
3616.56	0.91
3625	0.911
3633.45	0.913
3641.89	0.918
3650.34	0.927
3658.79	0.927
3667.23	0.927
3675.68	0.928
3684.12	0.928
3692.57	0.928
3701.02	0.93
3709.46	0.93
3717.91	0.93
3726.35	0.93
3734.8	0.93
3743.25	0.928
3751.69	0.928
3760.14	0.928
3768.58	0.928
3777.03	0.928
3785.48	0.928
3793.92	0.93
3802.37	0.93
3810.81	0.93
3819.26	0.93
3827.71	0.928
3836.15	0.928
3844.6	0.928
3853.04	0.928
3861.49	0.928
3869.94	0.928
3878.38	0.928
3886.83	0.928
3895.27	0.928
3903.72	0.928
3912.17	0.928
3920.61	0.928
3929.06	0.928
3937.5	0.927
