Infrared Spectrum: ISOPHTHALONITRILE
Formula: C8 H4 N2
CAS: 626-17-5
State: SOLID (SPLIT MULL), FLUOROLUBE FOR 3800-1330 CM^-^1, NUJOL FOR 1330-400 CM^-^1
Melting point: 161 C
Class: COBLENTZ III
Instrument: BECKMAN IR-9 (GRATING)
Instrument parameters: ORDER CHANGES: 670, 1200, 2000 CM^-^1
Sampling: TRANSMISSION
Resolution: 2
Origin: DOW CHEMICAL COMPANY
1/CM	TRANSMITTANCE
401	0.66
410	0.6489
419	0.6481
428	0.6611
437	0.711
446	0.7582
455	0.7754
464	0.6553
473	0.8371
482	0.8502
491	0.8551
500	0.4836
509	0.5736
518	0.7937
527	0.8251
536	0.8511
545	0.859
554	0.8628
563	0.8654
572	0.8661
581	0.8661
590	0.8204
599	0.8688
608	0.8721
617	0.8704
626	0.875
635	0.8734
644	0.8797
653	0.8823
662	0.876
671	0.8135
680	0.2425
689	0.7106
698	0.8142
707	0.8106
716	0.8083
725	0.7342
734	0.7737
743	0.7831
752	0.8021
761	0.811
770	0.8215
779	0.8228
788	0.8275
797	0.8134
806	0.1139
815	0.573
824	0.7351
833	0.7603
842	0.7774
851	0.7843
860	0.7851
869	0.7756
878	0.7257
887	0.7837
896	0.6711
905	0.4535
914	0.6683
923	0.7254
932	0.7489
941	0.7518
950	0.7406
959	0.7503
968	0.7501
977	0.7464
986	0.7412
995	0.7385
1004	0.7249
1013	0.7475
1022	0.7498
1031	0.7422
1040	0.7425
1049	0.7424
1058	0.7354
1067	0.7248
1076	0.7241
1085	0.7218
1094	0.7206
1103	0.7121
1112	0.7046
1121	0.7117
1130	0.7061
1139	0.6935
1148	0.592
1157	0.6893
1166	0.6938
1175	0.6881
1184	0.5766
1193	0.7019
1202	0.7017
1211	0.6938
1220	0.6756
1229	0.6382
1238	0.6428
1247	0.656
1256	0.6718
1265	0.6641
1274	0.5737
1283	0.6521
1292	0.6408
1301	0.6488
1310	0.6465
1319	0.6461
1328	0.6524
1337	0.7071
1346	0.7062
1355	0.7436
1364	0.764
1373	0.7724
1382	0.7756
1391	0.7744
1400	0.7697
1409	0.7614
1418	0.7388
1427	0.6193
1436	0.7799
1445	0.7778
1454	0.7658
1463	0.7496
1472	0.7106
1481	0.1461
1490	0.8815
1499	0.8541
1508	0.8381
1517	0.8283
1526	0.8228
1535	0.8187
1544	0.814
1553	0.8078
1562	0.8001
1571	0.7845
1580	0.6571
1589	0.7948
1598	0.7611
1607	0.7728
1616	0.7765
1625	0.779
1634	0.7857
1643	0.7871
1652	0.7868
1661	0.7864
1670	0.786
1679	0.7856
1688	0.7851
1697	0.7847
1706	0.7843
1715	0.7839
1724	0.7772
1733	0.7756
1742	0.7531
1751	0.7283
1760	0.7371
1769	0.7603
1778	0.7718
1787	0.7715
1796	0.7657
1805	0.7511
1814	0.7453
1823	0.7631
1832	0.7686
1841	0.7701
1850	0.7687
1859	0.7651
1868	0.7601
1877	0.7531
1886	0.7414
1895	0.7415
1904	0.7495
1913	0.7507
1922	0.7456
1931	0.7257
1940	0.7081
1949	0.7357
1958	0.7451
1967	0.7411
1976	0.7351
1985	0.7186
1994	0.7261
2003	0.7257
2012	0.7235
2021	0.7214
2030	0.7193
2039	0.7158
2048	0.7122
2057	0.7084
2066	0.7045
2075	0.7006
2084	0.6968
2093	0.6935
2102	0.69
2111	0.6865
2120	0.6831
2129	0.6796
2138	0.6761
2147	0.6728
2156	0.6685
2165	0.6628
2174	0.6522
2183	0.6403
2192	0.6391
2201	0.6334
2210	0.6139
2219	0.544
2228	0.155
2237	0.343
2246	0.7725
2255	0.7207
2264	0.701
2273	0.6862
2282	0.6721
2291	0.661
2300	0.6618
2309	0.6638
2318	0.6633
2327	0.6621
2336	0.6606
2345	0.6589
2354	0.6576
2363	0.6556
2372	0.646
2381	0.637
2390	0.6364
2399	0.6378
2408	0.6347
2417	0.6321
2426	0.632
2435	0.6323
2444	0.6323
2453	0.6305
2462	0.6269
2471	0.6237
2480	0.6233
2489	0.6222
2498	0.6209
2507	0.6192
2516	0.6173
2525	0.6154
2534	0.614
2543	0.6126
2552	0.6112
2561	0.6095
2570	0.6075
2579	0.6055
2588	0.6042
2597	0.603
2606	0.6019
2615	0.6007
2624	0.5992
2633	0.5974
2642	0.595
2651	0.5921
2660	0.5894
2669	0.586
2678	0.5814
2687	0.5753
2696	0.5712
2705	0.5738
2714	0.5752
2723	0.5739
2732	0.5712
2741	0.5647
2750	0.5637
2759	0.5641
2768	0.5642
2777	0.5629
2786	0.561
2795	0.5573
2804	0.5554
2813	0.553
2822	0.5491
2831	0.5478
2840	0.5474
2849	0.5442
2858	0.5394
2867	0.535
2876	0.5319
2885	0.5135
2894	0.5183
2903	0.5176
2912	0.511
2921	0.5091
2930	0.508
2939	0.5071
2948	0.5069
2957	0.5064
2966	0.5053
2975	0.5037
2984	0.5015
2993	0.4953
3002	0.4868
3011	0.4774
3020	0.4744
3029	0.4677
3038	0.421
3047	0.4171
3056	0.4579
3065	0.3067
3074	0.2739
3083	0.4454
3092	0.4977
3101	0.4645
3110	0.472
3119	0.4854
3128	0.4878
3137	0.4877
3146	0.4873
3155	0.487
3164	0.4868
3173	0.4865
3182	0.486
3191	0.4854
3200	0.4845
3209	0.4831
3218	0.4818
3227	0.4808
3236	0.4798
3245	0.4787
3254	0.4775
3263	0.4762
3272	0.4751
3281	0.4734
3290	0.4716
3299	0.4698
3308	0.468
3317	0.4662
3326	0.4641
3335	0.4617
3344	0.4595
3353	0.4572
3362	0.4553
3371	0.453
3380	0.4486
3389	0.4466
3398	0.4465
3407	0.4456
3416	0.4446
3425	0.4428
3434	0.4407
3443	0.4383
3452	0.436
3461	0.4343
3470	0.4327
3479	0.4322
3488	0.4327
3497	0.4326
3506	0.432
3515	0.4312
3524	0.4306
3533	0.4299
3542	0.429
3551	0.428
3560	0.427
3569	0.426
3578	0.4251
3587	0.4242
3596	0.4232
3605	0.4223
3614	0.4214
3623	0.4204
3632	0.4195
3641	0.4185
3650	0.4175
3659	0.4165
3668	0.4155
3677	0.4145
3686	0.4135
3695	0.4125
3704	0.4116
3713	0.4107
3722	0.4098
3731	0.4089
3740	0.408
3749	0.4068
3758	0.4056
3767	0.4041
3776	0.4026
3785	0.4009
3794	0.3994
