Infrared Spectrum: 3-CHLORO PYRIDINE
Formula: C5 H4 Cl N
CAS: 626-60-8
State: SOLUTION (10% CCl4 FOR 2.5-7.5, 10% CS2 FOR 7.5-16 MICRON)
Class: COBLENTZ
Instrument: Not specified, most likely a prism, grating, or hybrid spectrometer.
Sampling: TRANSMISSION
Path length: 0.01 CM, 0.01 CM
Resolution: 4
Origin: DOW CHEMICAL COMPANY
MICROMETERS	TRANSMITTANCE
2.027	0.928
2.06727	0.925
2.10753	0.921
2.1478	0.918
2.18807	0.923
2.22833	0.925
2.2686	0.928
2.30887	0.926
2.34913	0.923
2.3894	0.926
2.42967	0.925
2.46993	0.928
2.5102	0.93
2.55047	0.935
2.59073	0.935
2.631	0.93
2.67127	0.933
2.71153	0.933
2.7518	0.941
2.79207	0.938
2.83233	0.931
2.8726	0.926
2.91287	0.923
2.95313	0.92
2.9934	0.921
3.03367	0.92
3.07393	0.913
3.1142	0.915
3.15447	0.913
3.19473	0.903
3.235	0.833
3.27527	0.731
3.31553	0.765
3.3558	0.84
3.39607	0.891
3.43633	0.911
3.4766	0.918
3.51687	0.92
3.55713	0.92
3.5974	0.92
3.63767	0.921
3.67793	0.923
3.7182	0.923
3.75847	0.925
3.79873	0.926
3.839	0.923
3.87927	0.918
3.91953	0.921
3.9598	0.92
4.00007	0.921
4.04033	0.916
4.0806	0.91
4.12087	0.915
4.16114	0.923
4.2014	0.926
4.24167	0.926
4.28194	0.926
4.3222	0.926
4.36247	0.928
4.40274	0.926
4.443	0.92
4.48327	0.916
4.52354	0.92
4.5638	0.923
4.60407	0.923
4.64434	0.926
4.6846	0.928
4.72487	0.926
4.76514	0.926
4.8054	0.926
4.84567	0.926
4.88594	0.921
4.9262	0.916
4.96647	0.915
5.00674	0.916
5.047	0.916
5.08727	0.906
5.12754	0.885
5.1678	0.906
5.20807	0.866
5.24834	0.873
5.2886	0.871
5.32887	0.893
5.36914	0.895
5.4094	0.88
5.44967	0.891
5.48994	0.885
5.5302	0.913
5.57047	0.916
5.61074	0.918
5.651	0.91
5.69127	0.908
5.73154	0.898
5.7718	0.89
5.81207	0.895
5.85234	0.885
5.8926	0.893
5.93287	0.913
5.97314	0.91
6.0134	0.91
6.05367	0.901
6.09394	0.9
6.1342	0.895
6.17447	0.891
6.21474	0.89
6.255	0.883
6.29527	0.853
6.33554	0.5
6.3758	0.453
6.41607	0.74
6.45634	0.835
6.4966	0.86
6.53687	0.883
6.57714	0.896
6.6174	0.901
6.65767	0.893
6.69794	0.883
6.7382	0.848
6.77847	0.443
6.81874	0.271
6.859	0.695
6.89927	0.83
6.93954	0.821
6.9798	0.785
7.02007	0.538
7.06034	0.181
7.1006	0.491
7.14087	0.555
7.18114	0.776
7.2214	0.805
7.26167	0.79
7.30194	0.86
7.3422	0.893
7.38247	0.898
7.42274	0.893
7.463	0.903
7.50327	0.886
7.54354	0.803
7.5838	0.695
7.62407	0.83
7.66434	0.89
7.7046	0.918
7.74487	0.926
7.78514	0.925
7.8254	0.925
7.86567	0.92
7.90594	0.911
7.9462	0.89
7.98647	0.885
8.02674	0.903
8.067	0.908
8.10727	0.886
8.14754	0.853
8.1878	0.861
8.22807	0.881
8.26834	0.88
8.30861	0.856
8.34887	0.796
8.38914	0.703
8.42941	0.693
8.46967	0.765
8.50994	0.846
8.55021	0.856
8.59047	0.818
8.63074	0.698
8.67101	0.703
8.71127	0.746
8.75154	0.788
8.79181	0.81
8.83207	0.773
8.87234	0.718
8.91261	0.595
8.95287	0.398
8.99314	0.328
9.03341	0.17
9.07367	0.065
9.11394	0.216
9.15421	0.363
9.19447	0.378
9.23474	0.59
9.27501	0.766
9.31527	0.813
9.35554	0.845
9.39581	0.875
9.43607	0.885
9.47634	0.888
9.51661	0.886
9.55687	0.868
9.59714	0.86
9.63741	0.845
9.67767	0.826
9.71794	0.803
9.75821	0.723
9.79847	0.54
9.83874	0.258
9.87901	0.091
9.91927	0.411
9.95954	0.683
9.99981	0.786
10.0401	0.823
10.0803	0.81
10.1206	0.833
10.1609	0.848
10.2011	0.856
10.2414	0.861
10.2817	0.868
10.3219	0.88
10.3622	0.888
10.4025	0.89
10.4427	0.89
10.483	0.886
10.5233	0.878
10.5635	0.858
10.6038	0.825
10.6441	0.765
10.6843	0.773
10.7246	0.816
10.7649	0.851
10.8051	0.861
10.8454	0.86
10.8857	0.831
10.9259	0.778
10.9662	0.75
11.0065	0.786
11.0467	0.836
11.087	0.873
11.1273	0.901
11.1675	0.918
11.2078	0.925
11.2481	0.928
11.2883	0.93
11.3286	0.931
11.3689	0.933
11.4091	0.935
11.4494	0.935
11.4897	0.935
11.5299	0.933
11.5702	0.933
11.6105	0.93
11.6507	0.931
11.691	0.931
11.7313	0.931
11.7715	0.931
11.8118	0.93
11.8521	0.93
11.8923	0.926
11.9326	0.923
11.9729	0.92
12.0131	0.913
12.0534	0.906
12.0937	0.895
12.1339	0.883
12.1742	0.873
12.2145	0.865
12.2547	0.858
12.295	0.848
12.3353	0.831
12.3755	0.805
12.4158	0.753
12.4561	0.675
12.4963	0.568
12.5366	0.4
12.5769	0.231
12.6171	0.116
12.6574	0.078
12.6977	0.225
12.7379	0.398
12.7782	0.57
12.8185	0.7
12.8587	0.776
12.899	0.81
12.9393	0.841
12.9795	0.858
13.0198	0.873
13.0601	0.883
13.1003	0.89
13.1406	0.896
13.1809	0.905
13.2211	0.91
13.2614	0.908
13.3017	0.91
13.3419	0.906
13.3822	0.9
13.4225	0.893
13.4627	0.881
13.503	0.865
13.5433	0.838
13.5835	0.798
13.6238	0.698
13.6641	0.516
13.7043	0.326
13.7446	0.306
13.7849	0.495
13.8251	0.651
13.8654	0.721
13.9057	0.751
13.9459	0.755
13.9862	0.74
14.0265	0.728
14.0667	0.708
14.107	0.666
14.1473	0.56
14.1875	0.391
14.2278	0.196
14.2681	0.105
14.3083	0.093
14.3486	0.126
14.3889	0.265
14.4291	0.39
14.4694	0.511
14.5097	0.603
14.5499	0.675
14.5902	0.725
14.6305	0.768
14.6707	0.803
14.711	0.826
14.7513	0.848
14.7915	0.871
14.8318	0.888
14.8721	0.903
14.9123	0.911
14.9526	0.918
14.9929	0.925
15.0331	0.931
15.0734	0.933
15.1137	0.936
15.1539	0.936
15.1942	0.938
15.2345	0.938
15.2747	0.938
15.315	0.938
15.3553	0.94
15.3955	0.94
15.4358	0.941
15.4761	0.943
15.5163	0.946
15.5566	0.948
15.5969	0.95
15.6371	0.953
15.6774	0.955
15.7177	0.956
15.7579	0.956
15.7982	0.958
15.8385	0.96
15.8787	0.958
15.919	0.96
15.9593	0.961
