Infrared Spectrum: 4-Methyl-1-pentanol
Formula: C6 H14 O
CAS: 626-89-1
State: SOLUTION (10% CCl4 FOR 3800-1335, 10% CS2 FOR 1335-460 CM^-^1)
Class: COBLENTZ II
Instrument: DOW KBr FOREPRISM-GRATING
Instrument parameters: BLAZED AT 3.5, 12.0, 20.0 MICRON AND CHANGED AT 5.0, 7.5, 14.9 MICRON
Sampling: TRANSMISSION
Path length: 0.012 CM, 0.011 CM
Resolution: 2
Origin: DOW CHEMICAL COMPANY
1/CM	TRANSMITTANCE
3800	0.8517
3791	0.8517
3782	0.8518
3773	0.8516
3764	0.8514
3755	0.8512
3746	0.8512
3737	0.8512
3728	0.8507
3719	0.8498
3710	0.8486
3701	0.845
3692	0.8363
3683	0.8217
3674	0.8095
3665	0.8105
3656	0.8101
3647	0.7176
3638	0.5902
3629	0.5942
3620	0.6258
3611	0.7264
3602	0.7605
3593	0.7657
3584	0.7453
3575	0.7067
3566	0.6637
3557	0.6204
3548	0.587
3539	0.5545
3530	0.5129
3521	0.4827
3512	0.4558
3503	0.4289
3494	0.4006
3485	0.3709
3476	0.3453
3467	0.3168
3458	0.2955
3449	0.2701
3440	0.2469
3431	0.2261
3422	0.2071
3413	0.1884
3404	0.1704
3395	0.1535
3386	0.1401
3377	0.13
3368	0.123
3359	0.1185
3350	0.1158
3341	0.1141
3332	0.1142
3323	0.1176
3314	0.1246
3305	0.138
3296	0.1546
3287	0.1726
3278	0.1889
3269	0.2062
3260	0.2327
3251	0.2527
3242	0.2746
3233	0.2977
3224	0.3295
3215	0.3634
3206	0.407
3197	0.4501
3188	0.4836
3179	0.5121
3170	0.5374
3161	0.5606
3152	0.5828
3143	0.6053
3134	0.6247
3125	0.6424
3116	0.659
3107	0.6744
3098	0.6885
3089	0.6974
3080	0.7031
3071	0.7078
3062	0.7114
3053	0.7131
3044	0.7094
3035	0.6978
3026	0.6705
3017	0.6241
3008	0.5407
2999	0.3508
2990	0.2709
2981	0.1517
2972	0.0102
2963	0.0041
2954	0.0065
2945	0.013
2936	0.0108
2927	0.0248
2918	0.0403
2909	0.0456
2900	0.0626
2891	0.0713
2882	0.0532
2873	0.0275
2864	0.0851
2855	0.1141
2846	0.2505
2837	0.382
2828	0.4592
2819	0.5323
2810	0.5953
2801	0.6428
2792	0.6728
2783	0.6897
2774	0.7004
2765	0.7078
2756	0.7153
2747	0.7214
2738	0.7132
2729	0.7067
2720	0.7101
2711	0.7401
2702	0.7551
2693	0.7668
2684	0.7782
2675	0.7864
2666	0.7924
2657	0.793
2648	0.7938
2639	0.796
2630	0.7984
2621	0.8008
2612	0.8048
2603	0.8088
2594	0.8132
2585	0.8175
2576	0.8218
2567	0.8262
2558	0.8305
2549	0.8347
2540	0.8384
2531	0.842
2522	0.8456
2513	0.8486
2504	0.8507
2495	0.8528
2486	0.855
2477	0.8568
2468	0.8583
2459	0.8595
2450	0.8609
2441	0.8616
2432	0.8623
2423	0.8631
2414	0.8641
2405	0.865
2396	0.866
2387	0.8677
2378	0.8699
2369	0.8725
2360	0.8792
2351	0.8854
2342	0.8837
2333	0.8825
2324	0.8815
2315	0.8811
2306	0.8811
2297	0.881
2288	0.8802
2279	0.8809
2270	0.8837
2261	0.8862
2252	0.8885
2243	0.8913
2234	0.8939
2225	0.896
2216	0.897
2207	0.8961
2198	0.8962
2189	0.8968
2180	0.898
2171	0.9
2162	0.9023
2153	0.9045
2144	0.9062
2135	0.9074
2126	0.9082
2117	0.9054
2108	0.9008
2099	0.8971
2090	0.8927
2081	0.8867
2072	0.8831
2063	0.8802
2054	0.8775
2045	0.8792
2036	0.8839
2027	0.8887
2018	0.8917
2009	0.8934
2000	0.8946
1991	0.8791
1982	0.8736
1973	0.8724
1964	0.8775
1955	0.8718
1946	0.8702
1937	0.8717
1928	0.8747
1919	0.8736
1910	0.8738
1901	0.8739
1892	0.8737
1883	0.8735
1874	0.8749
1865	0.8775
1856	0.8788
1847	0.8782
1838	0.8766
1829	0.8744
1820	0.8721
1811	0.8703
1802	0.8684
1793	0.8662
1784	0.8643
1775	0.8628
1766	0.8614
1757	0.8593
1748	0.8571
1739	0.8555
1730	0.8539
1721	0.8523
1712	0.8508
1703	0.85
1694	0.8492
1685	0.8484
1676	0.8478
1667	0.8477
1658	0.8456
1649	0.8442
1640	0.8398
1631	0.8378
1622	0.8392
1613	0.8447
1604	0.8504
1595	0.853
1586	0.8556
1577	0.858
1568	0.8621
1559	0.8694
1550	0.8725
1541	0.8646
1532	0.8499
1523	0.8307
1514	0.8093
1505	0.7836
1496	0.7275
1487	0.6561
1478	0.3345
1469	0.1332
1460	0.2849
1451	0.4397
1442	0.5131
1433	0.5004
1424	0.5388
1415	0.5283
1406	0.5125
1397	0.4874
1388	0.211
1379	0.4212
1370	0.2004
1361	0.5199
1352	0.5758
1343	0.5308
1334	0.5314
1325	0.5838
1316	0.6431
1307	0.6635
1298	0.6712
1289	0.6885
1280	0.6783
1271	0.7315
1262	0.7585
1253	0.7675
1244	0.7455
1235	0.7237
1226	0.7498
1217	0.7683
1208	0.7262
1199	0.6925
1190	0.7341
1181	0.7794
1172	0.6537
1163	0.7841
1154	0.8124
1145	0.7889
1136	0.7337
1127	0.6801
1118	0.7268
1109	0.7761
1100	0.7725
1091	0.7165
1082	0.5952
1073	0.2207
1064	0.1659
1055	0.0996
1046	0.2374
1037	0.2698
1028	0.3022
1019	0.2475
1010	0.348
1001	0.435
992	0.6664
983	0.7768
974	0.8284
965	0.8228
956	0.7996
947	0.7926
938	0.7567
929	0.8512
920	0.7876
911	0.8234
902	0.6661
893	0.6962
884	0.8089
875	0.7976
866	0.8386
857	0.8754
848	0.8692
839	0.8702
830	0.8613
821	0.8425
812	0.8171
803	0.839
794	0.8345
785	0.827
776	0.8075
767	0.7834
758	0.7546
749	0.7071
740	0.7356
731	0.7388
722	0.7284
713	0.7164
704	0.7041
695	0.6939
686	0.6862
677	0.6789
668	0.6937
659	0.6839
650	0.6778
641	0.6767
632	0.6775
623	0.6812
614	0.6874
605	0.6931
596	0.6989
587	0.703
578	0.7067
569	0.7107
560	0.715
551	0.7208
542	0.7308
533	0.7358
524	0.7119
515	0.6757
506	0.7062
497	0.7626
488	0.7811
479	0.7908
470	0.806
461	0.8311
