Infrared Spectrum: CYCLOHEXANE, IODO-
Formula: C6 H11 I
CAS: 626-62-0
State: SOLUTION (10% CCl4 FOR 3800-1330, 10% CS2 FOR 1330-400 CM^-^1)
Class: COBLENTZ III
Instrument: DOW KBr FOREPRISM-GRATING
Instrument parameters: BLAZED AT 3.5, 12.0, 20.0 MICRON AND CHANGED AT 5.0, 7.5, 14.9 MICRON
Sampling: TRANSMISSION
Path length: 0.011 CM, 0.011 CM
Resolution: 2
Origin: DOW CHEMICAL COMPANY
1/CM	TRANSMITTANCE
384	0.1303
393	0.1399
402	0.2078
411	0.5515
420	0.674
429	0.7206
438	0.7397
447	0.6998
456	0.8107
465	0.8262
474	0.8328
483	0.8323
492	0.8025
501	0.8745
510	0.8859
519	0.8905
528	0.9006
537	0.9023
546	0.9059
555	0.9089
564	0.9101
573	0.9117
582	0.9123
591	0.9107
600	0.9064
609	0.9007
618	0.8884
627	0.8643
636	0.6491
645	0.7234
654	0.2825
663	0.8216
672	0.884
681	0.8896
690	0.8949
699	0.8947
708	0.895
717	0.8925
726	0.904
735	0.9075
744	0.9057
753	0.9049
762	0.9053
771	0.9071
780	0.9012
789	0.8921
798	0.8731
807	0.6097
816	0.9021
825	0.8983
834	0.8824
843	0.7996
852	0.7121
861	0.6811
870	0.7668
879	0.6511
888	0.8488
897	0.8897
906	0.8918
915	0.8697
924	0.9035
933	0.9055
942	0.9039
951	0.9004
960	0.8884
969	0.8498
978	0.7021
987	0.4705
996	0.8267
1005	0.8032
1014	0.8558
1023	0.8424
1032	0.8636
1041	0.8628
1050	0.8602
1059	0.8491
1068	0.801
1077	0.8137
1086	0.748
1095	0.3614
1104	0.8046
1113	0.8492
1122	0.8546
1131	0.8534
1140	0.8443
1149	0.8265
1158	0.7061
1167	0.4538
1176	0.4262
1185	0.8172
1194	0.8533
1203	0.86
1212	0.8585
1221	0.8455
1230	0.8143
1239	0.69
1248	0.5665
1257	0.734
1266	0.7817
1275	0.8315
1284	0.8411
1293	0.8203
1302	0.8254
1311	0.8151
1320	0.7845
1329	0.7375
1338	0.8008
1347	0.7765
1356	0.8021
1365	0.8704
1374	0.8738
1383	0.8713
1392	0.884
1401	0.8836
1410	0.8718
1419	0.8524
1428	0.7721
1437	0.6824
1446	0.4503
1455	0.3432
1464	0.6928
1473	0.8447
1482	0.8491
1491	0.8244
1500	0.7843
1509	0.7478
1518	0.7053
1527	0.6654
1536	0.5848
1545	0.4881
1554	0.4672
1563	0.5155
1572	0.609
1581	0.6278
1590	0.6808
1599	0.7914
1608	0.8338
1617	0.8701
1626	0.8844
1635	0.892
1644	0.8946
1653	0.8958
1662	0.8954
1671	0.8949
1680	0.896
1689	0.8971
1698	0.8971
1707	0.8961
1716	0.8935
1725	0.8913
1734	0.8952
1743	0.9002
1752	0.8988
1761	0.8985
1770	0.898
1779	0.8968
1788	0.894
1797	0.8948
1806	0.8971
1815	0.8905
1824	0.8892
1833	0.8892
1842	0.8896
1851	0.8901
1860	0.8902
1869	0.8902
1878	0.8893
1887	0.8898
1896	0.8914
1905	0.8938
1914	0.8948
1923	0.8928
1932	0.8917
1941	0.8908
1950	0.8889
1959	0.8885
1968	0.8855
1977	0.8825
1986	0.8805
1995	0.8796
2004	0.8798
2013	0.8821
2022	0.8835
2031	0.8846
2040	0.8853
2049	0.8857
2058	0.8861
2067	0.8866
2076	0.8871
2085	0.8874
2094	0.8875
2103	0.8871
2112	0.887
2121	0.8866
2130	0.8863
2139	0.8859
2148	0.8855
2157	0.8843
2166	0.8832
2175	0.8828
2184	0.8851
2193	0.8857
2202	0.8862
2211	0.8862
2220	0.8845
2229	0.8812
2238	0.8778
2247	0.875
2256	0.8723
2265	0.8686
2274	0.8647
2283	0.8611
2292	0.862
2301	0.8631
2310	0.8639
2319	0.869
2328	0.8785
2337	0.8774
2346	0.8799
2355	0.8856
2364	0.886
2373	0.8824
2382	0.8792
2391	0.8764
2400	0.8761
2409	0.8751
2418	0.8739
2427	0.8748
2436	0.8763
2445	0.8777
2454	0.8767
2463	0.8747
2472	0.8742
2481	0.8748
2490	0.8756
2499	0.8744
2508	0.8734
2517	0.8728
2526	0.875
2535	0.8763
2544	0.8752
2553	0.8737
2562	0.8705
2571	0.8667
2580	0.8627
2589	0.8638
2598	0.8668
2607	0.8656
2616	0.8641
2625	0.8631
2634	0.8583
2643	0.8485
2652	0.8446
2661	0.8301
2670	0.8354
2679	0.8604
2688	0.8581
2697	0.8594
2706	0.8686
2715	0.8695
2724	0.8687
2733	0.8668
2742	0.8658
2751	0.864
2760	0.859
2769	0.8486
2778	0.8347
2787	0.8223
2796	0.8252
2805	0.8271
2814	0.8099
2823	0.7533
2832	0.6399
2841	0.6021
2850	0.2955
2859	0.1986
2868	0.4856
2877	0.5899
2886	0.6166
2895	0.5985
2904	0.5085
2913	0.4416
2922	0.2599
2931	0.0566
2940	0.0467
2949	0.0775
2958	0.2585
2967	0.4773
2976	0.7198
2985	0.7824
2994	0.8191
3003	0.8335
3012	0.8409
3021	0.8464
3030	0.8505
3039	0.8532
3048	0.8548
3057	0.8563
3066	0.856
3075	0.8555
3084	0.8554
3093	0.8554
3102	0.8553
3111	0.854
3120	0.8528
3129	0.8521
3138	0.8518
3147	0.852
3156	0.8536
3165	0.8556
3174	0.8581
3183	0.8608
3192	0.8637
3201	0.8652
3210	0.8656
3219	0.8646
3228	0.8638
3237	0.8632
3246	0.8627
3255	0.8638
3264	0.8656
3273	0.8678
3282	0.8691
3291	0.8692
3300	0.8691
3309	0.869
3318	0.8689
3327	0.8689
3336	0.8689
3345	0.8688
3354	0.8688
3363	0.8687
3372	0.8686
3381	0.8685
3390	0.8685
3399	0.8684
3408	0.8686
3417	0.8688
3426	0.869
3435	0.8692
3444	0.8699
3453	0.8705
3462	0.8712
3471	0.8717
3480	0.8721
3489	0.8724
3498	0.8728
3507	0.8728
3516	0.873
3525	0.873
3534	0.8725
3543	0.872
3552	0.8705
3561	0.868
3570	0.8641
3579	0.8561
3588	0.8707
3597	0.849
3606	0.8639
3615	0.8705
3624	0.8716
3633	0.8716
3642	0.8715
3651	0.8713
3660	0.8714
3669	0.8715
3678	0.8717
3687	0.8718
3696	0.8718
3705	0.8724
3714	0.873
3723	0.8735
3732	0.8741
3741	0.8747
3750	0.8753
3759	0.8756
3768	0.8759
3777	0.8758
3786	0.8756
