Infrared Spectrum: Dimethyl adipate
Formula: C8 H14 O4
CAS: 627-93-0
State: SOLUTION (10% CCl4 FOR 2.7-7.5, 10% CS2 FOR 7.5-26 MICRON) VS SOLVENT
Class: COBLENTZ III
Instrument: DOW KBr FOREPRISM-GRATING
Instrument parameters: BLAZED AT 3.5, 12.0, 20.0 MICRON AND CHANGED AT 5.0, 7.5, 14.9 MICRON
Sampling: TRANSMISSION
Path length: 0.011 CM, 0.011 CM
Resolution: 2
Origin: DOW CHEMICAL COMPANY
1/CM	TRANSMITTANCE
3800	0.8488
3791	0.8494
3782	0.8501
3773	0.8511
3764	0.8521
3755	0.8524
3746	0.8525
3737	0.8527
3728	0.8533
3719	0.8534
3710	0.8532
3701	0.8523
3692	0.8492
3683	0.8412
3674	0.8335
3665	0.8334
3656	0.8381
3647	0.8431
3638	0.8454
3629	0.8474
3620	0.8487
3611	0.8499
3602	0.8506
3593	0.8509
3584	0.8515
3575	0.8521
3566	0.8516
3557	0.8508
3548	0.8495
3539	0.8477
3530	0.8475
3521	0.8478
3512	0.8493
3503	0.8509
3494	0.8523
3485	0.8543
3476	0.8493
3467	0.8254
3458	0.8075
3449	0.8034
3440	0.8141
3431	0.8303
3422	0.8482
3413	0.8627
3404	0.8714
3395	0.8755
3386	0.8781
3377	0.8799
3368	0.8817
3359	0.8825
3350	0.8834
3341	0.8841
3332	0.8849
3323	0.8852
3314	0.8855
3305	0.8859
3296	0.8859
3287	0.8859
3278	0.8858
3269	0.8858
3260	0.8859
3251	0.886
3242	0.8864
3233	0.8865
3224	0.8864
3215	0.8864
3206	0.8863
3197	0.8856
3188	0.884
3179	0.8818
3170	0.8783
3161	0.8756
3152	0.8746
3143	0.8743
3134	0.8734
3125	0.8713
3116	0.8675
3107	0.8639
3098	0.8598
3089	0.8553
3080	0.8498
3071	0.8421
3062	0.8328
3053	0.8213
3044	0.8006
3035	0.7621
3026	0.6846
3017	0.5684
3008	0.575
2999	0.4712
2990	0.441
2981	0.4797
2972	0.4512
2963	0.244
2954	0.0896
2945	0.1784
2936	0.2843
2927	0.328
2918	0.3796
2909	0.4592
2900	0.5839
2891	0.6064
2882	0.6132
2873	0.5442
2864	0.5381
2855	0.5765
2846	0.6491
2837	0.5981
2828	0.7532
2819	0.7908
2810	0.8101
2801	0.8247
2792	0.834
2783	0.8407
2774	0.8465
2765	0.8502
2756	0.8535
2747	0.8564
2738	0.8585
2729	0.8605
2720	0.8607
2711	0.8607
2702	0.8606
2693	0.86
2684	0.8595
2675	0.8591
2666	0.8591
2657	0.8589
2648	0.8586
2639	0.8582
2630	0.8575
2621	0.8571
2612	0.8588
2603	0.8598
2594	0.8593
2585	0.858
2576	0.8568
2567	0.8585
2558	0.8603
2549	0.8613
2540	0.8623
2531	0.8633
2522	0.8646
2513	0.8659
2504	0.8673
2495	0.8681
2486	0.8688
2477	0.8694
2468	0.8701
2459	0.8702
2450	0.8704
2441	0.8705
2432	0.8704
2423	0.8696
2414	0.8677
2405	0.8657
2396	0.8645
2387	0.8632
2378	0.8635
2369	0.8637
2360	0.8644
2351	0.8653
2342	0.8667
2333	0.8671
2324	0.8668
2315	0.8637
2306	0.8635
2297	0.8648
2288	0.8664
2279	0.8678
2270	0.8694
2261	0.8708
2252	0.8724
2243	0.8739
2234	0.875
2225	0.8759
2216	0.8771
2207	0.8773
2198	0.8773
2189	0.877
2180	0.8778
2171	0.8847
2162	0.8813
2153	0.8793
2144	0.8783
2135	0.877
2126	0.8755
2117	0.8736
2108	0.8681
2099	0.8598
2090	0.8518
2081	0.8451
2072	0.8417
2063	0.8397
2054	0.8388
2045	0.8391
2036	0.84
2027	0.8411
2018	0.8418
2009	0.8421
2000	0.8425
1991	0.8443
1982	0.8465
1973	0.8502
1964	0.8536
1955	0.8567
1946	0.8594
1937	0.862
1928	0.8625
1919	0.863
1910	0.8633
1901	0.8634
1892	0.8633
1883	0.863
1874	0.8615
1865	0.8599
1856	0.8577
1847	0.854
1838	0.8504
1829	0.8462
1820	0.8353
1811	0.8086
1802	0.7834
1793	0.7468
1784	0.6832
1775	0.5982
1766	0.4627
1757	0.2433
1748	0.0626
1739	0.0036
1730	0.002
1721	0.0161
1712	0.2492
1703	0.431
1694	0.5085
1685	0.5985
1676	0.7034
1667	0.7397
1658	0.7618
1649	0.7812
1640	0.7968
1631	0.8068
1622	0.8108
1613	0.8124
1604	0.8137
1595	0.8151
1586	0.8149
1577	0.8138
1568	0.8133
1559	0.8137
1550	0.8175
1541	0.8213
1532	0.8207
1523	0.8135
1514	0.8019
1505	0.7886
1496	0.7696
1487	0.7418
1478	0.6937
1469	0.5777
1460	0.2419
1451	0.2563
1442	0.1276
1433	0.0989
1424	0.3784
1415	0.4598
1406	0.6166
1397	0.66
1388	0.5747
1379	0.342
1370	0.2333
1361	0.182
1352	0.2933
1343	0.3512
1334	0.3934
1325	0.4223
1316	0.3649
1307	0.3373
1298	0.356
1289	0.2988
1280	0.2366
1271	0.2312
1262	0.1535
1253	0.0943
1244	0.0797
1235	0.0812
1226	0.0901
1217	0.0752
1208	0.0602
1199	0.0453
1190	0.0336
1181	0.063
1172	0.0354
1163	0.0158
1154	0.0377
1145	0.0651
1136	0.0737
1127	0.2029
1118	0.4059
1109	0.5462
1100	0.5948
1091	0.5754
1082	0.3918
1073	0.4006
1064	0.4409
1055	0.497
1046	0.5521
1037	0.5762
1028	0.5793
1019	0.4995
1010	0.4785
1001	0.4776
992	0.4656
983	0.5966
974	0.5931
965	0.6606
956	0.758
947	0.7894
938	0.7854
929	0.7855
920	0.791
911	0.7376
902	0.7175
893	0.6978
884	0.6009
875	0.628
866	0.6751
857	0.6888
848	0.6871
839	0.6855
830	0.6893
821	0.6722
812	0.7428
803	0.7799
794	0.7798
785	0.759
776	0.7455
767	0.7364
758	0.7203
749	0.6937
740	0.7168
731	0.7482
722	0.7768
713	0.7871
704	0.7821
695	0.7749
686	0.7861
677	0.8026
668	0.8132
659	0.8139
650	0.7971
641	0.7895
632	0.785
623	0.7824
614	0.7812
605	0.7672
596	0.7611
587	0.7605
578	0.7541
569	0.7692
560	0.7865
551	0.7969
542	0.8058
533	0.8094
524	0.8057
515	0.8055
506	0.8054
497	0.8054
488	0.8024
479	0.7954
470	0.7918
461	0.7844
452	0.7688
443	0.7564
434	0.7515
425	0.7506
416	0.751
407	0.7518
398	0.7556
