Infrared Spectrum: 1,5-HEXADIENE, 2,5-DIMETHYL-
Formula: C8 H14
CAS: 627-58-7
State: SOLUTION (CCl4 FOR 3800-400) VS SOLVENT
Class: COBLENTZ III
Instrument: BECKMAN IR-9 (GRATING)
Instrument parameters: ORDER CHANGES: 670, 1200, 2000 CM^-^1
Sampling: TRANSMISSION
Path length: 0.010 CM
Resolution: 2
Origin: DOW CHEMICAL COMPANY
1/CM	TRANSMITTANCE
400	0.9068
409	0.9213
418	0.9255
427	0.8975
436	0.831
445	0.7771
454	0.7788
463	0.8278
472	0.8559
481	0.8636
490	0.8511
499	0.7721
508	0.7699
517	0.6651
526	0.5866
535	0.6584
544	0.7644
553	0.7793
562	0.7698
571	0.7454
580	0.8302
589	0.8516
598	0.8592
607	0.8668
616	0.8778
625	0.9021
634	0.9197
643	0.8932
652	0.8866
661	0.8868
670	0.9586
679	0.8386
688	0.8169
697	0.8146
706	0.8325
715	0.8711
724	0.9839
733	1.0184
742	1.0148
751	0.9959
760	0.9771
769	0.9586
778	0.94
787	0.9214
796	0.9028
805	0.8856
814	0.8735
823	0.9352
832	1.0177
841	1.0117
850	0.9741
859	0.9165
868	0.8562
877	0.7214
886	0.1384
895	0.0551
904	0.5424
913	0.689
922	0.7594
931	0.8048
940	0.8262
949	0.8389
958	0.8484
967	0.8571
976	0.8671
985	0.8878
994	0.8818
1003	0.855
1012	0.8631
1021	0.8525
1030	0.836
1039	0.8271
1048	0.8187
1057	0.8001
1066	0.8047
1075	0.8305
1084	0.8339
1093	0.8371
1102	0.8474
1111	0.8548
1120	0.8587
1129	0.8562
1138	0.8525
1147	0.8492
1156	0.8375
1165	0.8194
1174	0.8286
1183	0.8373
1192	0.8501
1201	0.854
1210	0.8543
1219	0.8451
1228	0.8358
1237	0.8544
1246	0.8542
1255	0.8536
1264	0.8478
1273	0.8118
1282	0.8006
1291	0.7651
1300	0.7618
1309	0.7549
1318	0.7828
1327	0.7868
1336	0.7939
1345	0.7915
1354	0.7771
1363	0.735
1372	0.6491
1381	0.4602
1390	0.6649
1399	0.6912
1408	0.6795
1417	0.6588
1426	0.5877
1435	0.4581
1444	0.2942
1453	0.2979
1462	0.4272
1471	0.6344
1480	0.7321
1489	0.7678
1498	0.7944
1507	0.8206
1516	0.8466
1525	0.8918
1534	0.8741
1543	0.8775
1552	0.8789
1561	0.8757
1570	0.8641
1579	0.8549
1588	0.8492
1597	0.8455
1606	0.8296
1615	0.8003
1624	0.77
1633	0.7349
1642	0.566
1651	0.2004
1660	0.5886
1669	0.711
1678	0.7656
1687	0.7846
1696	0.7981
1705	0.8062
1714	0.8108
1723	0.8146
1732	0.8158
1741	0.8153
1750	0.8144
1759	0.8125
1768	0.7999
1777	0.7665
1786	0.7287
1795	0.7556
1804	0.7925
1813	0.8075
1822	0.8143
1831	0.8169
1840	0.8188
1849	0.8191
1858	0.8192
1867	0.8183
1876	0.8172
1885	0.8167
1894	0.8161
1903	0.816
1912	0.8161
1921	0.8164
1930	0.8165
1939	0.8172
1948	0.8183
1957	0.8193
1966	0.8202
1975	0.8204
1984	0.8205
1993	0.8208
2002	0.8339
2011	0.8571
2020	0.8555
2029	0.8532
2038	0.8524
2047	0.8515
2056	0.8506
2065	0.85
2074	0.8495
2083	0.849
2092	0.8481
2101	0.8468
2110	0.8458
2119	0.8446
2128	0.8435
2137	0.8424
2146	0.8413
2155	0.8402
2164	0.8388
2173	0.8371
2182	0.8354
2191	0.8343
2200	0.8334
2209	0.8328
2218	0.8331
2227	0.8333
2236	0.8336
2245	0.8338
2254	0.8338
2263	0.8338
2272	0.8347
2281	0.8364
2290	0.8375
2299	0.8377
2308	0.8375
2317	0.8361
2326	0.8353
2335	0.8328
2344	0.829
2353	0.8259
2362	0.8241
2371	0.8228
2380	0.8201
2389	0.8221
2398	0.8252
2407	0.8262
2416	0.8265
2425	0.826
2434	0.8256
2443	0.8258
2452	0.8261
2461	0.8263
2470	0.8268
2479	0.8271
2488	0.8275
2497	0.8277
2506	0.8277
2515	0.8277
2524	0.8277
2533	0.8277
2542	0.8275
2551	0.8271
2560	0.827
2569	0.8267
2578	0.8262
2587	0.8255
2596	0.8247
2605	0.8239
2614	0.8234
2623	0.8228
2632	0.8223
2641	0.8216
2650	0.8209
2659	0.8201
2668	0.8194
2677	0.8186
2686	0.8182
2695	0.8178
2704	0.8171
2713	0.8144
2722	0.8019
2731	0.7689
2740	0.7931
2749	0.808
2758	0.8101
2767	0.8084
2776	0.8046
2785	0.7987
2794	0.7903
2803	0.7764
2812	0.7562
2821	0.7146
2830	0.6447
2839	0.5794
2848	0.4655
2857	0.4546
2866	0.4943
2875	0.5073
2884	0.453
2893	0.3743
2902	0.3058
2911	0.2608
2920	0.2534
2929	0.2534
2938	0.2044
2947	0.2327
2956	0.4202
2965	0.3714
2974	0.2379
2983	0.3544
2992	0.4706
3001	0.6027
3010	0.6745
3019	0.6928
3028	0.7078
3037	0.7246
3046	0.7258
3055	0.6971
3064	0.5678
3073	0.4308
3082	0.4136
3091	0.5758
3100	0.6947
3109	0.7264
3118	0.7432
3127	0.7567
3136	0.7647
3145	0.7701
3154	0.7747
3163	0.779
3172	0.7828
3181	0.7865
3190	0.7897
3199	0.7925
3208	0.7953
3217	0.7974
3226	0.7997
3235	0.8017
3244	0.8031
3253	0.8043
3262	0.8057
3271	0.8068
3280	0.8083
3289	0.8096
3298	0.811
3307	0.8122
3316	0.813
3325	0.8136
3334	0.8142
3343	0.8149
3352	0.8157
3361	0.8195
3370	0.8236
3379	0.8292
3388	0.8335
3397	0.8363
3406	0.8386
3415	0.8402
3424	0.8417
3433	0.8413
3442	0.8395
3451	0.8373
3460	0.835
3469	0.8327
3478	0.8304
3487	0.8296
3496	0.8324
3505	0.8362
3514	0.84
3523	0.8453
3532	0.8481
3541	0.8488
3550	0.8492
3559	0.8494
3568	0.8496
3577	0.8497
3586	0.8502
3595	0.8506
3604	0.8511
3613	0.8515
3622	0.852
3631	0.8524
3640	0.8527
3649	0.853
3658	0.8534
3667	0.8537
3676	0.8541
3685	0.8544
3694	0.8548
3703	0.855
3712	0.8554
3721	0.8558
3730	0.8562
3739	0.8566
3748	0.8571
3757	0.8575
3766	0.8578
3775	0.8581
3784	0.8587
3793	0.8592
