Infrared Spectrum: ETHYLENE DIMYRISTATE
Formula: C30 H58 O4
CAS: 627-84-9
State: SOLID (2 mg / 300 mg KBr PELLET)
Class: COBLENTZ
Instrument: PERKIN-ELMER
Sampling: TRANSMISSION
Resolution: 4
Origin: AIR MAT. LAB., WRIGHT-PAT. AFB
1/CM	TRANSMITTANCE
220.27	0.464
229.729	0.479
239.189	0.498
248.648	0.506
258.108	0.513
267.567	0.586
277.027	0.675
286.486	0.684
295.946	0.701
305.405	0.717
314.865	0.711
324.324	0.6401
333.784	0.667
343.243	0.758
352.703	0.755
362.162	0.733
371.622	0.738
381.081	0.793
390.541	0.792
400	0.797
409.46	0.798
418.919	0.797
428.379	0.765
437.838	0.798
447.298	0.817
456.757	0.817
466.217	0.82
475.676	0.817
485.136	0.814
494.595	0.82
504.055	0.82
513.514	0.822
522.974	0.807
532.433	0.829
541.893	0.829
551.352	0.829
560.812	0.829
570.271	0.826
579.731	0.817
589.19	0.802
598.65	0.782
608.109	0.822
617.569	0.831
627.028	0.834
636.488	0.837
645.947	0.837
655.407	0.837
664.866	0.831
674.326	0.822
683.785	0.8
693.245	0.736
702.704	0.7819
712.164	0.76
721.623	0.613
731.083	0.5249
740.542	0.768
750.002	0.699
759.461	0.824
768.921	0.834
778.38	0.758
787.84	0.809
797.299	0.831
806.759	0.82
816.218	0.76
825.678	0.836
835.137	0.836
844.597	0.831
854.056	0.809
863.516	0.829
872.975	0.819
882.435	0.8
891.894	0.6681
901.354	0.68
910.813	0.775
920.273	0.814
929.732	0.819
939.192	0.819
948.651	0.814
958.111	0.805
967.57	0.766
977.03	0.768
986.489	0.6581
995.949	0.738
1005.41	0.716
1014.87	0.7279
1024.33	0.736
1033.79	0.729
1043.25	0.748
1052.71	0.6991
1062.17	0.739
1071.62	0.755
1081.08	0.724
1090.54	0.613
1100	0.712
1109.46	0.6701
1118.92	0.619
1128.38	0.677
1137.84	0.643
1147.3	0.597
1156.76	0.528
1166.22	0.3359
1175.68	0.0501
1185.14	0.244
1194.6	0.2968
1204.06	0.4097
1213.52	0.621
1222.98	0.3168
1232.44	0.5718
1241.9	0.638
1251.36	0.4201
1260.81	0.5909
1270.27	0.3979
1279.73	0.1951
1289.19	0.626
1298.65	0.592
1308.11	0.548
1317.57	0.672
1327.03	0.6299
1336.49	0.55
1345.95	0.579
1355.41	0.581
1364.87	0.489
1374.33	0.498
1383.79	0.1939
1393.25	0.4269
1402.71	0.577
1412.17	0.523
1421.63	0.5761
1431.09	0.636
1440.55	0.655
1450	0.4269
1459.46	0.319
1468.92	0.309
1478.38	0.597
1487.84	0.685
1497.3	0.701
1506.76	0.712
1516.22	0.714
1525.68	0.717
1535.14	0.716
1544.6	0.717
1554.06	0.711
1563.52	0.711
1572.98	0.706
1582.44	0.704
1591.9	0.699
1601.36	0.694
1610.82	0.69
1620.28	0.69
1629.74	0.689
1639.19	0.689
1648.65	0.687
1658.11	0.689
1667.57	0.667
1677.03	0.658
1686.49	0.64
1695.95	0.576
1705.41	0.548
1714.87	0.498
1724.33	0.4099
1733.79	0.03
1743.25	0.042
1752.71	0.3851
1762.17	0.532
1771.63	0.54
1781.09	0.576
1790.55	0.635
1800.01	0.645
1809.47	0.66
1818.93	0.668
1828.38	0.677
1837.84	0.679
1847.3	0.679
1856.76	0.68
1866.22	0.68
1875.68	0.68
1885.14	0.68
1894.6	0.679
1904.06	0.68
1913.52	0.679
1922.98	0.677
1932.44	0.677
1941.9	0.677
1951.36	0.672
1960.82	0.672
1970.28	0.668
1979.74	0.668
1989.2	0.668
1998.66	0.665
2008.12	0.665
2017.57	0.659
2027.03	0.658
2036.49	0.6609
2045.95	0.662
2055.41	0.6591
2064.87	0.658
2074.33	0.66
2083.79	0.6618
2093.25	0.66
2102.71	0.66
2112.17	0.66
2121.63	0.66
2131.09	0.657
2140.55	0.655
2150.01	0.6537
2159.47	0.6578
2168.93	0.6563
2178.39	0.652
2187.85	0.652
2197.3	0.65
2206.76	0.6494
2216.22	0.648
2225.68	0.646
2235.14	0.6435
2244.6	0.641
2254.06	0.641
2263.52	0.64
2272.98	0.6358
2282.44	0.6296
2291.9	0.628
2301.36	0.6226
2310.82	0.619
2320.28	0.619
2329.74	0.621
2339.2	0.621
2348.66	0.621
2358.12	0.621
2367.58	0.621
2377.04	0.623
2386.49	0.623
2395.95	0.621
2405.41	0.6184
2414.87	0.618
2424.33	0.618
2433.79	0.618
2443.25	0.616
2452.71	0.618
2462.17	0.616
2471.63	0.614
2481.09	0.609
2490.55	0.608
2500.01	0.603
2509.47	0.601
2518.93	0.599
2528.39	0.597
2537.85	0.5981
2547.31	0.596
2556.77	0.589
2566.23	0.5909
2575.68	0.5882
2585.14	0.5822
2594.6	0.5802
2604.06	0.5761
2613.52	0.572
2622.98	0.57
2632.44	0.569
2641.9	0.569
2651.36	0.57
2660.82	0.57
2670.28	0.57
2679.74	0.569
2689.2	0.567
2698.66	0.5642
2708.12	0.5584
2717.58	0.5509
2727.04	0.5477
2736.5	0.545
2745.96	0.543
2755.42	0.5405
2764.87	0.5373
2774.33	0.5278
2783.79	0.5176
2793.25	0.4966
2802.71	0.4746
2812.17	0.4514
2821.63	0.4127
2831.09	0.3491
2840.55	0.1908
2850.01	0.0206
2859.47	0.1339
2868.93	0.163
2878.39	0.2204
2887.85	0.1562
2897.31	0.0999
2906.77	0.0499
2916.23	0.0182
2925.69	0.0337
2935.15	0.0714
2944.61	0.1405
2954.06	0.0811
2963.52	0.1601
2972.98	0.2605
2982.44	0.3578
2991.9	0.4
3001.36	0.415
3010.82	0.42
3020.28	0.4384
3029.74	0.447
3039.2	0.4499
3048.66	0.457
3058.12	0.4629
3067.58	0.4669
3077.04	0.467
3086.5	0.469
3095.96	0.476
3105.42	0.478
3114.88	0.478
3124.34	0.478
3133.8	0.479
3143.25	0.479
3152.71	0.479
3162.17	0.478
3171.63	0.4753
3181.09	0.474
3190.55	0.472
3200.01	0.4736
3209.47	0.4717
3218.93	0.4694
3228.39	0.467
3237.85	0.466
3247.31	0.466
3256.77	0.464
3266.23	0.462
3275.69	0.459
3285.15	0.457
3294.61	0.4546
3304.07	0.4518
3313.53	0.449
3322.99	0.445
3332.44	0.4427
3341.9	0.439
3351.36	0.435
3360.82	0.4284
3370.28	0.423
3379.74	0.4198
3389.2	0.4158
3398.66	0.413
3408.12	0.412
3417.58	0.41
3427.04	0.408
3436.5	0.4069
3445.96	0.402
3455.42	0.398
3464.88	0.3971
3474.34	0.4051
3483.8	0.41
3493.26	0.412
3502.72	0.413
3512.18	0.413
3521.63	0.416
3531.09	0.418
3540.55	0.418
3550.01	0.4219
3559.47	0.422
3568.93	0.423
3578.39	0.425
3587.85	0.425
3597.31	0.4238
3606.77	0.4288
3616.23	0.43
3625.69	0.4338
3635.15	0.4333
3644.61	0.4337
3654.07	0.4357
3663.53	0.437
3672.99	0.437
3682.45	0.437
3691.91	0.437
3701.37	0.434
3710.82	0.43
3720.28	0.427
3729.74	0.423
3739.2	0.423
3748.66	0.423
3758.12	0.4235
3767.58	0.423
3777.04	0.4223
3786.5	0.42
3795.96	0.418
3805.42	0.418
3814.88	0.417
3824.34	0.415
3833.8	0.413
3843.26	0.4128
3852.72	0.412
3862.18	0.41
3871.64	0.41
3881.1	0.408
3890.56	0.41
3900.01	0.4079
3909.47	0.407
3918.93	0.407
3928.39	0.405
3937.85	0.403
3947.31	0.402
3956.77	0.402
3966.23	0.402
3975.69	0.4
3985.15	0.399
