Infrared Spectrum: ETHYL PALMITATE
Formula: C18 H36 O2
CAS: 628-97-7
State: LIQUID
Boiling point: 21-23 C
Class: COBLENTZ
Instrument: Not specified, most likely a prism, grating, or hybrid spectrometer.
Sampling: TRANSMISSION
Path length: 0.003 CM
Resolution: 4
Origin: WYANDOTTE CHEMICALS CORP., WYANDOTTE, MICHIGAN, USA
MICROMETERS	TRANSMITTANCE
2.053	0.978
2.093	0.978
2.133	0.978
2.17301	0.973
2.21301	0.95
2.25301	0.943
2.29301	0.943
2.33301	0.943
2.37302	0.941
2.41302	0.951
2.45302	0.963
2.49302	0.968
2.53302	0.971
2.57302	0.976
2.61303	0.973
2.65303	0.976
2.69303	0.978
2.73303	0.976
2.77303	0.976
2.81304	0.973
2.85304	0.975
2.89304	0.966
2.93304	0.963
2.97304	0.971
3.01305	0.976
3.05305	0.976
3.09305	0.975
3.13305	0.963
3.17305	0.953
3.21306	0.95
3.25306	0.935
3.29306	0.888
3.33306	0.522
3.37306	0.064
3.41306	0.048
3.45307	0.164
3.49307	0.122
3.53307	0.373
3.57307	0.739
3.61307	0.872
3.65308	0.908
3.69308	0.913
3.73308	0.928
3.77308	0.923
3.81308	0.936
3.85309	0.946
3.89309	0.958
3.93309	0.968
3.97309	0.97
4.01309	0.975
4.0531	0.978
4.0931	0.978
4.1331	0.978
4.1731	0.978
4.2131	0.976
4.25311	0.976
4.29311	0.98
4.33311	0.978
4.37311	0.981
4.41311	0.978
4.45311	0.976
4.49312	0.98
4.53312	0.98
4.57312	0.981
4.61312	0.983
4.65312	0.983
4.69313	0.985
4.73313	0.985
4.77313	0.985
4.81313	0.985
4.85313	0.985
4.89314	0.983
4.93314	0.98
4.97314	0.976
5.01314	0.971
5.05314	0.98
5.09315	0.976
5.13315	0.985
5.17315	0.985
5.21315	0.985
5.25315	0.985
5.29315	0.98
5.33316	0.976
5.37316	0.978
5.41316	0.978
5.45316	0.978
5.49316	0.976
5.53317	0.97
5.57317	0.955
5.61317	0.922
5.65317	0.864
5.69317	0.731
5.73318	0.247
5.77318	0.14
5.81318	0.57
5.85318	0.764
5.89318	0.814
5.93319	0.882
5.97319	0.918
6.01319	0.93
6.05319	0.93
6.09319	0.946
6.13319	0.95
6.1732	0.951
6.2132	0.953
6.2532	0.955
6.2932	0.958
6.3332	0.953
6.37321	0.953
6.41321	0.953
6.45321	0.95
6.49321	0.94
6.53321	0.932
6.57322	0.93
6.61322	0.922
6.65322	0.9
6.69322	0.849
6.73322	0.737
6.77323	0.495
6.81323	0.313
6.85323	0.411
6.89323	0.507
6.93323	0.593
6.97324	0.681
7.01324	0.694
7.05324	0.724
7.09324	0.797
7.13324	0.779
7.17324	0.701
7.21325	0.66
7.25325	0.492
7.29325	0.412
7.33325	0.626
7.37325	0.696
7.41326	0.62
7.45326	0.646
7.49326	0.698
7.53326	0.694
7.57326	0.643
7.61327	0.608
7.65327	0.575
7.69327	0.558
7.73327	0.603
7.77327	0.618
7.81328	0.613
7.85328	0.582
7.89328	0.558
7.93328	0.502
7.97328	0.449
8.01328	0.414
8.05329	0.407
8.09329	0.412
8.13329	0.436
8.17329	0.447
8.21329	0.437
8.2533	0.417
8.2933	0.396
8.3333	0.349
8.3733	0.301
8.4133	0.248
8.45331	0.195
8.49331	0.162
8.53331	0.189
8.57331	0.22
8.61331	0.245
8.65332	0.321
8.69332	0.407
8.73332	0.527
8.77332	0.643
8.81332	0.719
8.85332	0.719
8.89333	0.613
8.93333	0.524
8.97333	0.497
9.01333	0.567
9.05333	0.601
9.09334	0.583
9.13334	0.6
9.17334	0.665
9.21334	0.716
9.25334	0.747
9.29335	0.754
9.33335	0.757
9.37335	0.749
9.41335	0.741
9.45335	0.721
9.49336	0.698
9.53336	0.655
9.57336	0.595
9.61336	0.522
9.65336	0.495
9.69337	0.522
9.73337	0.583
9.77337	0.655
9.81337	0.713
9.85337	0.779
9.89337	0.822
9.93338	0.865
9.97338	0.89
10.0134	0.908
10.0534	0.918
10.0934	0.927
10.1334	0.932
10.1734	0.933
10.2134	0.932
10.2534	0.936
10.2934	0.928
10.3334	0.936
10.3734	0.94
10.4134	0.94
10.4534	0.936
10.4934	0.933
10.5334	0.927
10.5734	0.922
10.6134	0.913
10.6534	0.905
10.6934	0.897
10.7334	0.893
10.7734	0.898
10.8134	0.902
10.8534	0.903
10.8934	0.907
10.9334	0.908
10.9734	0.917
11.0134	0.922
11.0534	0.923
11.0934	0.927
11.1334	0.928
11.1734	0.925
11.2134	0.927
11.2534	0.923
11.2934	0.918
11.3334	0.92
11.3734	0.918
11.4134	0.918
11.4534	0.917
11.4935	0.902
11.5335	0.89
11.5735	0.872
11.6135	0.86
11.6535	0.847
11.6935	0.842
11.7335	0.849
11.7735	0.86
11.8135	0.875
11.8535	0.888
11.8935	0.9
11.9335	0.912
11.9735	0.92
12.0135	0.925
12.0535	0.928
12.0935	0.93
12.1335	0.932
12.1735	0.932
12.2135	0.932
12.2535	0.932
12.2935	0.932
12.3335	0.93
12.3735	0.923
12.4135	0.918
12.4535	0.91
12.4935	0.91
12.5335	0.91
12.5735	0.908
12.6135	0.908
12.6535	0.908
12.6935	0.908
12.7335	0.902
12.7735	0.9
12.8135	0.898
12.8535	0.898
12.8935	0.898
12.9335	0.9
12.9735	0.902
13.0135	0.902
13.0535	0.897
13.0935	0.897
13.1335	0.897
13.1735	0.893
13.2135	0.892
13.2535	0.89
13.2935	0.888
13.3335	0.885
13.3735	0.882
13.4135	0.878
13.4535	0.873
13.4935	0.868
13.5335	0.862
13.5736	0.857
13.6136	0.852
13.6536	0.845
13.6936	0.832
13.7336	0.815
13.7736	0.791
13.8136	0.761
13.8536	0.729
13.8936	0.701
13.9336	0.691
13.9736	0.724
14.0136	0.766
14.0536	0.799
14.0936	0.822
14.1336	0.849
14.1736	0.864
14.2136	0.875
14.2536	0.883
14.2936	0.892
14.3336	0.9
14.3736	0.905
14.4136	0.905
14.4536	0.907
14.4936	0.907
14.5336	0.907
14.5736	0.905
14.6136	0.905
14.6536	0.903
14.6936	0.903
14.7336	0.902
14.7736	0.902
14.8136	0.9
14.8536	0.9
14.8936	0.898
14.9336	0.897
14.9736	0.897
15.0136	0.887
15.0536	0.86
15.0936	0.839
15.1336	0.857
15.1736	0.878
15.2136	0.88
15.2536	0.873
15.2936	0.867
15.3336	0.86
15.3736	0.857
15.4136	0.849
15.4536	0.84
15.4936	0.837
15.5336	0.832
15.5736	0.827
15.6136	0.822
15.6536	0.815
15.6937	0.815
15.7337	0.814
15.7737	0.807
15.8137	0.802
15.8537	0.797
15.8937	0.792
15.9337	0.791
15.9737	0.784
