Infrared Spectrum: PENTANE, 1,5-DICHLORO-
Formula: C5 H10 Cl2
CAS: 628-76-2
State: LIQUID (NEAT)
Boiling point: 64-65 C AT 11 mmHg
Class: COBLENTZ III
Instrument: BAIRD (GRATING)
Instrument parameters: NaCl PRISM
Sampling: TRANSMISSION
Path length: 0.005 CM
Resolution: 2
Origin: WYANDOTTE CHEMICALS CORP.
1/CM	TRANSMITTANCE
4000	0.9159
3991	0.9162
3982	0.9166
3973	0.9168
3964	0.9173
3955	0.9175
3946	0.918
3937	0.9183
3928	0.9186
3919	0.9189
3910	0.9193
3901	0.9199
3892	0.9208
3883	0.9217
3874	0.9228
3865	0.9246
3856	0.9262
3847	0.9278
3838	0.9285
3829	0.9285
3820	0.9286
3811	0.9286
3802	0.9286
3793	0.9283
3784	0.928
3775	0.9277
3766	0.9274
3757	0.9271
3748	0.9266
3739	0.9262
3730	0.9258
3721	0.9253
3712	0.9243
3703	0.9232
3694	0.9218
3685	0.9198
3676	0.9177
3667	0.9154
3658	0.9128
3649	0.9107
3640	0.9102
3631	0.9097
3622	0.9092
3613	0.9095
3604	0.9103
3595	0.9111
3586	0.9118
3577	0.9121
3568	0.9125
3559	0.9128
3550	0.9133
3541	0.9138
3532	0.9139
3523	0.9141
3514	0.9142
3505	0.9144
3496	0.9145
3487	0.9146
3478	0.9148
3469	0.915
3460	0.9151
3451	0.9153
3442	0.9153
3433	0.9153
3424	0.9152
3415	0.9152
3406	0.9152
3397	0.9152
3388	0.9151
3379	0.9151
3370	0.915
3361	0.9148
3352	0.9146
3343	0.9145
3334	0.9143
3325	0.9142
3316	0.9138
3307	0.9135
3298	0.913
3289	0.9127
3280	0.9123
3271	0.9116
3262	0.9106
3253	0.9093
3244	0.9061
3235	0.9027
3226	0.8994
3217	0.8965
3208	0.8949
3199	0.8942
3190	0.8935
3181	0.893
3172	0.8923
3163	0.8916
3154	0.891
3145	0.8901
3136	0.8883
3127	0.8856
3118	0.8828
3109	0.8785
3100	0.8728
3091	0.8649
3082	0.8534
3073	0.8434
3064	0.832
3055	0.8117
3046	0.7818
3037	0.7408
3028	0.6808
3019	0.6345
3010	0.463
3001	0.4106
2992	0.3137
2983	0.2294
2974	0.1446
2965	0.0603
2956	0.0353
2947	0.0335
2938	0.034
2929	0.0375
2920	0.0436
2911	0.062
2902	0.0872
2893	0.1109
2884	0.1288
2875	0.1253
2866	0.1073
2857	0.1064
2848	0.1594
2839	0.2351
2830	0.3113
2821	0.388
2812	0.4652
2803	0.5492
2794	0.7015
2785	0.7398
2776	0.7672
2767	0.7958
2758	0.8046
2749	0.8065
2740	0.8085
2731	0.8103
2722	0.8121
2713	0.8139
2704	0.8157
2695	0.8175
2686	0.8228
2677	0.8309
2668	0.8403
2659	0.849
2650	0.857
2641	0.8645
2632	0.8707
2623	0.8728
2614	0.8742
2605	0.8745
2596	0.8743
2587	0.8743
2578	0.8773
2569	0.8812
2560	0.8831
2551	0.8851
2542	0.8863
2533	0.8867
2524	0.8859
2515	0.8848
2506	0.8828
2497	0.8802
2488	0.8782
2479	0.8771
2470	0.8759
2461	0.8762
2452	0.8771
2443	0.8781
2434	0.8784
2425	0.8787
2416	0.8783
2407	0.8775
2398	0.8766
2389	0.875
2380	0.8728
2371	0.871
2362	0.8695
2353	0.868
2344	0.8682
2335	0.8694
2326	0.8707
2317	0.872
2308	0.8734
2299	0.8741
2290	0.8749
2281	0.8757
2272	0.8758
2263	0.876
2254	0.8761
2245	0.876
2236	0.8758
2227	0.8757
2218	0.8755
2209	0.8756
2200	0.8759
2191	0.8761
2182	0.8763
2173	0.8759
2164	0.8756
2155	0.8753
2146	0.8753
2137	0.8752
2128	0.8763
2119	0.8789
2110	0.8824
2101	0.8842
2092	0.8862
2083	0.8867
2074	0.887
2065	0.8874
2056	0.8871
2047	0.8868
2038	0.8864
2029	0.886
2020	0.8858
2011	0.8854
2002	0.8852
1993	0.8849
1984	0.8847
1975	0.8845
1966	0.8857
1957	0.8875
1948	0.8894
1939	0.8913
1930	0.8931
1921	0.8939
1912	0.8947
1903	0.8954
1894	0.8962
1885	0.8968
1876	0.8973
1867	0.898
1858	0.8985
1849	0.8983
1840	0.898
1831	0.8975
1822	0.8968
1813	0.8964
1804	0.8957
1795	0.8951
1786	0.8946
1777	0.894
1768	0.8932
1759	0.8915
1750	0.8882
1741	0.8843
1732	0.8811
1723	0.8792
1714	0.8787
1705	0.8785
1696	0.8778
1687	0.8773
1678	0.8771
1669	0.877
1660	0.876
1651	0.8746
1642	0.8714
1633	0.8604
1624	0.8435
1615	0.8394
1606	0.8401
1597	0.8412
1588	0.8411
1579	0.8397
1570	0.8373
1561	0.8351
1552	0.8335
1543	0.8321
1534	0.8308
1525	0.8233
1516	0.8053
1507	0.7719
1498	0.7314
1489	0.6774
1480	0.534
1471	0.1562
1462	0.0812
1453	0.0521
1444	0.0802
1435	0.1479
1426	0.4697
1417	0.6621
1408	0.6986
1399	0.7049
1390	0.7024
1381	0.6547
1372	0.5969
1363	0.5719
1354	0.4822
1345	0.4138
1336	0.453
1327	0.2111
1318	0.0738
1309	0.0361
1300	0.0872
1291	0.0757
1282	0.074
1273	0.2596
1264	0.365
1255	0.2202
1246	0.2218
1237	0.473
1228	0.6272
1219	0.6682
1210	0.6724
1201	0.7158
1192	0.7168
1183	0.7148
1174	0.7418
1165	0.7407
1156	0.7437
1147	0.7696
1138	0.7675
1129	0.7667
1120	0.7694
1111	0.7847
1102	0.7818
1093	0.7187
1084	0.6519
1075	0.649
1066	0.6069
1057	0.5645
1048	0.5395
1039	0.5249
1030	0.5607
1021	0.6173
1012	0.5347
1003	0.3925
994	0.4495
985	0.4949
976	0.5095
967	0.5999
958	0.5851
949	0.5412
940	0.6187
931	0.6658
922	0.6719
913	0.596
904	0.3847
895	0.4633
886	0.5751
877	0.6182
868	0.6235
859	0.6662
850	0.6796
841	0.6339
832	0.5492
823	0.5681
814	0.6524
805	0.6932
796	0.6828
787	0.5922
778	0.4364
769	0.363
760	0.218
751	0.0908
742	0.0561
733	0.0642
724	0.0686
715	0.0911
706	0.2769
697	0.4833
688	0.5887
679	0.6171
670	0.5912
661	0.4441
652	0.3062
643	0.3609
634	0.5091
