Infrared Spectrum: ACETIC ACID, n-AMYL ESTER
Formula: C7 H14 O2
CAS: 628-63-7
State: LIQUID
Class: COBLENTZ
Instrument: Not specified, most likely a prism, grating, or hybrid spectrometer.
Sampling: TRANSMISSION
Path length: 0.0025 CM
Resolution: 4
Origin: INFRACORD
MICROMETERS	TRANSMITTANCE
2.53	0.936
2.56543	0.936
2.60085	0.934
2.63628	0.936
2.6717	0.937
2.70713	0.933
2.74255	0.918
2.77798	0.88
2.8134	0.849
2.84883	0.854
2.88426	0.864
2.91968	0.899
2.95511	0.904
2.99053	0.906
3.02596	0.902
3.06138	0.909
3.09681	0.906
3.13223	0.899
3.16766	0.895
3.20309	0.898
3.23851	0.893
3.27394	0.868
3.30936	0.8
3.34479	0.511
3.38021	0.156
3.41564	0.246
3.45107	0.4
3.48649	0.411
3.52192	0.703
3.55734	0.842
3.59277	0.893
3.62819	0.9
3.66362	0.898
3.69904	0.901
3.73447	0.907
3.7699	0.919
3.80532	0.917
3.84075	0.917
3.87617	0.921
3.9116	0.928
3.94702	0.931
3.98245	0.928
4.01787	0.92
4.0533	0.92
4.08873	0.925
4.12415	0.928
4.15958	0.928
4.195	0.928
4.23043	0.934
4.26585	0.934
4.30128	0.933
4.3367	0.928
4.37213	0.93
4.40756	0.928
4.44298	0.928
4.47841	0.928
4.51383	0.928
4.54926	0.927
4.58468	0.925
4.62011	0.924
4.65553	0.921
4.69096	0.915
4.72639	0.917
4.76181	0.922
4.79724	0.925
4.83266	0.924
4.86809	0.919
4.90351	0.921
4.93894	0.926
4.97437	0.924
5.00979	0.922
5.04522	0.922
5.08064	0.922
5.11607	0.921
5.15149	0.919
5.18692	0.917
5.22234	0.919
5.25777	0.912
5.2932	0.915
5.32862	0.905
5.36405	0.901
5.39947	0.901
5.4349	0.9
5.47032	0.893
5.50575	0.88
5.54117	0.861
5.5766	0.832
5.61203	0.793
5.64745	0.732
5.68288	0.526
5.7183	0.265
5.75373	0.072
5.78915	0.036
5.82458	0.182
5.86	0.45
5.89543	0.627
5.93086	0.723
5.96628	0.784
6.00171	0.822
6.03713	0.836
6.07256	0.84
6.10798	0.851
6.14341	0.864
6.17883	0.875
6.21426	0.89
6.24969	0.888
6.28511	0.898
6.32054	0.896
6.35596	0.896
6.39139	0.896
6.42681	0.889
6.46224	0.882
6.49766	0.874
6.53309	0.874
6.56852	0.866
6.60394	0.868
6.63937	0.844
6.67479	0.841
6.71022	0.828
6.74564	0.798
6.78107	0.72
6.8165	0.594
6.85192	0.413
6.88735	0.404
6.92277	0.507
6.9582	0.598
6.99362	0.619
7.02905	0.636
7.06447	0.686
7.0999	0.71
7.13533	0.726
7.17075	0.665
7.20618	0.501
7.2416	0.392
7.27703	0.368
7.31245	0.304
7.34788	0.24
7.3833	0.336
7.41873	0.614
7.45416	0.745
7.48958	0.78
7.52501	0.797
7.56043	0.795
7.59586	0.792
7.63128	0.768
7.66671	0.74
7.70213	0.694
7.73756	0.664
7.77299	0.606
7.80841	0.513
7.84384	0.449
7.87926	0.356
7.91469	0.276
7.95011	0.206
7.98554	0.107
8.02096	0.08
8.05639	0.058
8.09182	0.047
8.12724	0.047
8.16267	0.053
8.19809	0.117
8.23352	0.266
8.26894	0.414
8.30437	0.558
8.3398	0.645
8.37522	0.693
8.41065	0.747
8.44607	0.774
8.4815	0.784
8.51692	0.779
8.55235	0.755
8.58777	0.75
8.6232	0.783
8.65863	0.791
8.69405	0.789
8.72948	0.783
8.7649	0.787
8.80033	0.778
8.83575	0.76
8.87118	0.752
8.9066	0.713
8.94203	0.677
8.97746	0.716
9.01288	0.729
9.04831	0.72
9.08373	0.723
9.11916	0.744
9.15458	0.763
9.19001	0.759
9.22543	0.751
9.26086	0.736
9.29629	0.706
9.33171	0.665
9.36714	0.618
9.40256	0.573
9.43799	0.483
9.47341	0.393
9.50884	0.332
9.54426	0.318
9.57969	0.313
9.61512	0.298
9.65054	0.297
9.68597	0.318
9.72139	0.331
9.75682	0.348
9.79224	0.38
9.82767	0.433
9.8631	0.468
9.89852	0.516
9.93395	0.6
9.96937	0.651
10.0048	0.696
10.0402	0.732
10.0756	0.732
10.1111	0.729
10.1465	0.723
10.1819	0.688
10.2174	0.671
10.2528	0.686
10.2882	0.691
10.3236	0.707
10.3591	0.718
10.3945	0.72
10.4299	0.716
10.4653	0.716
10.5008	0.708
10.5362	0.742
10.5716	0.774
10.607	0.8
10.6425	0.81
10.6779	0.831
10.7133	0.83
10.7487	0.822
10.7842	0.816
10.8196	0.802
10.855	0.79
10.8904	0.787
10.9259	0.787
10.9613	0.789
10.9967	0.79
11.0321	0.791
11.0676	0.793
11.103	0.796
11.1384	0.799
11.1738	0.804
11.2093	0.822
11.2447	0.829
11.2801	0.83
11.3155	0.835
11.351	0.841
11.3864	0.842
11.4218	0.843
11.4572	0.85
11.4927	0.847
11.5281	0.841
11.5635	0.842
11.5989	0.844
11.6344	0.841
11.6698	0.84
11.7052	0.841
11.7407	0.837
11.7761	0.838
11.8115	0.844
11.8469	0.838
11.8824	0.837
11.9178	0.837
11.9532	0.837
11.9886	0.837
12.0241	0.842
12.0595	0.843
12.0949	0.838
12.1303	0.832
12.1658	0.822
12.2012	0.811
12.2366	0.811
12.272	0.818
12.3075	0.828
12.3429	0.837
12.3783	0.844
12.4137	0.86
12.4492	0.861
12.4846	0.859
12.52	0.861
12.5554	0.866
12.5909	0.868
12.6263	0.868
12.6617	0.867
12.6971	0.863
12.7326	0.861
12.768	0.856
12.8034	0.851
12.8388	0.836
12.8743	0.825
12.9097	0.815
12.9451	0.811
12.9805	0.81
13.016	0.815
13.0514	0.821
13.0868	0.834
13.1222	0.843
13.1577	0.85
13.1931	0.851
13.2285	0.85
13.264	0.85
13.2994	0.848
13.3348	0.849
13.3702	0.848
13.4057	0.843
13.4411	0.835
13.4765	0.836
13.5119	0.835
13.5474	0.831
13.5828	0.834
13.6182	0.834
13.6536	0.83
13.6891	0.824
13.7245	0.823
13.7599	0.818
13.7953	0.825
13.8308	0.825
13.8662	0.824
13.9016	0.827
13.937	0.822
13.9725	0.822
14.0079	0.818
14.0433	0.818
14.0787	0.818
14.1142	0.816
14.1496	0.812
14.185	0.811
14.2204	0.809
14.2559	0.805
14.2913	0.802
14.3267	0.8
14.3621	0.791
14.3976	0.787
14.433	0.79
14.4684	0.786
14.5038	0.783
14.5393	0.783
14.5747	0.78
14.6101	0.777
14.6455	0.77
14.681	0.768
14.7164	0.765
14.7518	0.759
14.7873	0.753
14.8227	0.746
14.8581	0.74
14.8935	0.735
14.929	0.732
14.9644	0.728
