Infrared Spectrum: DIETHYLENE GLYCOL DIACETATE
Formula: C8 H14 O5
CAS: 628-68-2
State: SOLUTION (10% CCl4 FOR 2.5-7.5, 10% CS2 FOR 7.5-16 MICRON)
Class: COBLENTZ
Instrument: Not specified, most likely a prism, grating, or hybrid spectrometer.
Sampling: TRANSMISSION
Path length: 0.01 CM, 0.01 CM
Resolution: 4
Origin: DOW CHEMICAL COMPANY
MICROMETERS	TRANSMITTANCE
2.013	0.899
2.05319	0.901
2.09338	0.901
2.13357	0.903
2.17377	0.901
2.21396	0.879
2.25415	0.872
2.29434	0.876
2.33453	0.879
2.37472	0.882
2.41491	0.882
2.4551	0.886
2.4953	0.889
2.53549	0.892
2.57568	0.899
2.61587	0.908
2.65606	0.903
2.69625	0.901
2.73644	0.896
2.77663	0.891
2.81683	0.882
2.85702	0.854
2.89721	0.857
2.9374	0.896
2.97759	0.894
3.01778	0.897
3.05797	0.903
3.09817	0.899
3.13836	0.899
3.17855	0.897
3.21874	0.882
3.25893	0.866
3.29912	0.814
3.33931	0.704
3.3795	0.488
3.4197	0.463
3.45989	0.423
3.50008	0.608
3.54027	0.757
3.58046	0.816
3.62065	0.842
3.66084	0.851
3.70103	0.879
3.74123	0.899
3.78142	0.906
3.82161	0.904
3.8618	0.904
3.90199	0.909
3.94218	0.904
3.98237	0.903
4.02257	0.892
4.06276	0.896
4.10295	0.904
4.14314	0.904
4.18333	0.894
4.22352	0.889
4.26371	0.896
4.3039	0.897
4.3441	0.891
4.38429	0.892
4.42448	0.897
4.46467	0.897
4.50486	0.897
4.54505	0.899
4.58524	0.901
4.62544	0.904
4.66563	0.904
4.70582	0.896
4.74601	0.886
4.7862	0.876
4.82639	0.866
4.86658	0.881
4.90677	0.876
4.94697	0.881
4.98716	0.876
5.02735	0.891
5.06754	0.891
5.10773	0.889
5.14792	0.886
5.18811	0.879
5.2283	0.872
5.2685	0.856
5.30869	0.862
5.34888	0.856
5.38907	0.846
5.42926	0.836
5.46945	0.816
5.50964	0.772
5.54984	0.722
5.59003	0.632
5.63022	0.513
5.67041	0.22
5.7106	0.07
5.75079	0.045
5.79098	0.12
5.83117	0.317
5.87137	0.494
5.91156	0.642
5.95175	0.712
5.99194	0.755
6.03213	0.757
6.07232	0.769
6.11251	0.814
6.1527	0.822
6.1929	0.804
6.23309	0.735
6.27328	0.653
6.31347	0.617
6.35366	0.593
6.39385	0.553
6.43404	0.494
6.47424	0.483
6.51443	0.553
6.55462	0.591
6.59481	0.627
6.635	0.665
6.67519	0.704
6.71538	0.69
6.75557	0.642
6.79577	0.561
6.83596	0.481
6.87615	0.403
6.91634	0.399
6.95653	0.403
6.99672	0.494
7.03691	0.553
7.0771	0.571
7.1173	0.521
7.15749	0.372
7.19768	0.244
7.23787	0.17
7.27806	0.11
7.31825	0.122
7.35844	0.342
7.39864	0.627
7.43883	0.707
7.47902	0.712
7.51921	0.709
7.5594	0.688
7.59959	0.657
7.63978	0.553
7.67997	0.453
7.72017	0.376
7.76036	0.311
7.80055	0.24
7.84074	0.183
7.88093	0.15
7.92112	0.091
7.96131	0.043
8.0015	0.026
8.0417	0.016
8.08189	0.015
8.12208	0.016
8.16227	0.02
8.20246	0.041
8.24265	0.183
8.28284	0.337
8.32304	0.483
8.36323	0.591
8.40342	0.65
8.44361	0.672
8.4838	0.68
8.52399	0.668
8.56418	0.613
8.60437	0.543
8.64457	0.421
8.68476	0.252
8.72495	0.13
8.76514	0.065
8.80533	0.061
8.84552	0.09
8.88571	0.19
8.92591	0.314
8.9661	0.404
9.00629	0.469
9.04648	0.488
9.08667	0.479
9.12686	0.454
9.16705	0.426
9.20724	0.404
9.24744	0.356
9.28763	0.284
9.32782	0.212
9.36801	0.133
9.4082	0.066
9.44839	0.041
9.48858	0.033
9.52877	0.045
9.56897	0.07
9.60916	0.118
9.64935	0.212
9.68954	0.339
9.72973	0.481
9.76992	0.573
9.81011	0.628
9.85031	0.648
9.8905	0.643
9.93069	0.607
9.97088	0.585
10.0111	0.585
10.0513	0.623
10.0915	0.663
10.1316	0.673
10.1718	0.673
10.212	0.633
10.2522	0.583
10.2924	0.506
10.3326	0.454
10.3728	0.429
10.413	0.439
10.4532	0.466
10.4934	0.489
10.5336	0.516
10.5737	0.56
10.6139	0.612
10.6541	0.638
10.6943	0.663
10.7345	0.677
10.7747	0.687
10.8149	0.704
10.8551	0.717
10.8953	0.729
10.9355	0.735
10.9757	0.737
11.0159	0.739
11.056	0.74
11.0962	0.75
11.1364	0.77
11.1766	0.78
11.2168	0.782
11.257	0.78
11.2972	0.762
11.3374	0.745
11.3776	0.722
11.4178	0.695
11.458	0.657
11.4981	0.625
11.5383	0.583
11.5785	0.551
11.6187	0.506
11.6589	0.496
11.6991	0.489
11.7393	0.498
11.7795	0.521
11.8197	0.555
11.8599	0.588
11.9001	0.632
11.9403	0.667
11.9804	0.705
12.0206	0.734
12.0608	0.755
12.101	0.77
12.1412	0.775
12.1814	0.78
12.2216	0.79
12.2618	0.792
12.302	0.797
12.3422	0.802
12.3824	0.812
12.4225	0.822
12.4627	0.829
12.5029	0.836
12.5431	0.841
12.5833	0.849
12.6235	0.869
12.6637	0.877
12.7039	0.886
12.7441	0.896
12.7843	0.901
12.8245	0.908
12.8647	0.916
12.9048	0.921
12.945	0.923
12.9852	0.923
13.0254	0.926
13.0656	0.926
13.1058	0.924
13.146	0.923
13.1862	0.921
13.2264	0.918
13.2666	0.916
13.3068	0.913
13.3469	0.909
13.3871	0.908
13.4273	0.903
13.4675	0.899
13.5077	0.896
13.5479	0.891
13.5881	0.889
13.6283	0.881
13.6685	0.874
13.7087	0.872
13.7489	0.867
13.7891	0.864
13.8292	0.857
13.8694	0.851
13.9096	0.847
13.9498	0.841
13.99	0.839
14.0302	0.831
14.0704	0.827
14.1106	0.822
14.1508	0.811
14.191	0.806
14.2312	0.801
14.2713	0.79
14.3115	0.785
14.3517	0.782
14.3919	0.774
14.4321	0.767
14.4723	0.759
14.5125	0.75
14.5527	0.742
14.5929	0.732
14.6331	0.727
14.6733	0.717
14.7135	0.709
14.7536	0.698
14.7938	0.69
14.834	0.68
14.8742	0.672
14.9144	0.667
14.9546	0.655
14.9948	0.64
15.035	0.625
15.0752	0.61
15.1154	0.598
15.1556	0.585
15.1957	0.566
15.2359	0.548
15.2761	0.538
15.3163	0.53
15.3565	0.52
15.3967	0.51
15.4369	0.496
15.4771	0.481
15.5173	0.468
15.5575	0.458
15.5977	0.446
15.6379	0.438
15.678	0.428
15.7182	0.424
15.7584	0.423
15.7986	0.423
15.8388	0.421
15.879	0.421
