Infrared Spectrum: 2-NONANOL
Formula: C9 H20 O
CAS: 628-99-9
State: SOLUTION (10% CCl4 FOR 3800-1330, 10% CS2 FOR 1330-450 CM^-^1)
Class: COBLENTZ III
Instrument: DOW KBr FOREPRISM-GRATING
Instrument parameters: BLAZED AT 3.5, 12.0, 20.0 MICRON AND CHANGED AT 5.0, 7.5, 14.9 MICRON
Sampling: TRANSMISSION
Path length: 0.011 CM, 0.010 CM
Resolution: 2
Origin: DOW CHEMICAL COMPANY
1/CM	TRANSMITTANCE
451	0.7385
460	0.7441
469	0.7504
478	0.7612
487	0.7675
496	0.7749
505	0.7901
514	0.794
523	0.7911
532	0.7894
541	0.7905
550	0.7965
559	0.8048
568	0.8051
577	0.8057
586	0.8071
595	0.8058
604	0.8001
613	0.7969
622	0.798
631	0.7904
640	0.779
649	0.7674
658	0.7775
667	0.8008
676	0.805
685	0.8115
694	0.8115
703	0.8037
712	0.7617
721	0.6575
730	0.7939
739	0.8172
748	0.8571
757	0.8628
766	0.8505
775	0.8718
784	0.8864
793	0.8952
802	0.8799
811	0.8436
820	0.8317
829	0.8301
838	0.769
847	0.6805
856	0.7292
865	0.7811
874	0.8014
883	0.7998
892	0.8217
901	0.8133
910	0.8011
919	0.7122
928	0.6703
937	0.6585
946	0.7091
955	0.8106
964	0.81
973	0.7515
982	0.6742
991	0.6878
1000	0.6928
1009	0.6832
1018	0.7061
1027	0.691
1036	0.6561
1045	0.5895
1054	0.5905
1063	0.5689
1072	0.515
1081	0.5543
1090	0.5952
1099	0.5788
1108	0.4788
1117	0.4957
1126	0.503
1135	0.476
1144	0.4887
1153	0.6367
1162	0.7398
1171	0.7734
1180	0.7617
1189	0.7911
1198	0.8086
1207	0.7906
1216	0.7828
1225	0.7855
1234	0.7222
1243	0.6901
1252	0.6825
1261	0.6906
1270	0.6868
1279	0.6617
1288	0.6299
1297	0.6106
1306	0.6048
1315	0.62
1324	0.6404
1333	0.6464
1342	0.6266
1351	0.6224
1360	0.6028
1369	0.464
1378	0.2704
1387	0.5478
1396	0.5709
1405	0.5879
1414	0.6152
1423	0.6328
1432	0.6027
1441	0.5495
1450	0.4054
1459	0.2593
1468	0.2316
1477	0.5354
1486	0.7332
1495	0.7369
1504	0.7154
1513	0.6824
1522	0.6435
1531	0.5942
1540	0.5204
1549	0.4579
1558	0.4936
1567	0.5754
1576	0.6188
1585	0.6431
1594	0.7028
1603	0.7699
1612	0.8198
1621	0.8321
1630	0.8412
1639	0.8525
1648	0.8613
1657	0.8675
1666	0.8694
1675	0.8706
1684	0.8702
1693	0.8668
1702	0.8618
1711	0.8562
1720	0.8614
1729	0.871
1738	0.8792
1747	0.8842
1756	0.8871
1765	0.8909
1774	0.8936
1783	0.8933
1792	0.8924
1801	0.8914
1810	0.8889
1819	0.8871
1828	0.8874
1837	0.8881
1846	0.8861
1855	0.8861
1864	0.8868
1873	0.8892
1882	0.8902
1891	0.8901
1900	0.8896
1909	0.8899
1918	0.8908
1927	0.8918
1936	0.893
1945	0.8938
1954	0.8986
1963	0.8925
1972	0.893
1981	0.8906
1990	0.8868
1999	0.8836
2008	0.8824
2017	0.8833
2026	0.8847
2035	0.8848
2044	0.8853
2053	0.888
2062	0.8906
2071	0.8925
2080	0.8939
2089	0.8939
2098	0.8925
2107	0.89
2116	0.8892
2125	0.8891
2134	0.889
2143	0.889
2152	0.8895
2161	0.8898
2170	0.8901
2179	0.8895
2188	0.8883
2197	0.8871
2206	0.8865
2215	0.8859
2224	0.885
2233	0.8838
2242	0.8836
2251	0.8833
2260	0.8803
2269	0.8758
2278	0.8717
2287	0.8683
2296	0.8654
2305	0.8641
2314	0.8695
2323	0.8833
2332	0.8842
2341	0.8825
2350	0.8797
2359	0.8781
2368	0.8768
2377	0.8756
2386	0.8747
2395	0.8739
2404	0.8732
2413	0.8725
2422	0.8718
2431	0.8713
2440	0.8704
2449	0.8694
2458	0.8684
2467	0.8675
2476	0.8671
2485	0.8657
2494	0.8641
2503	0.8625
2512	0.8602
2521	0.8564
2530	0.8533
2539	0.8516
2548	0.8496
2557	0.8478
2566	0.8449
2575	0.8404
2584	0.8338
2593	0.8278
2602	0.822
2611	0.8171
2620	0.8122
2629	0.8072
2638	0.8021
2647	0.7955
2656	0.7886
2665	0.7835
2674	0.7844
2683	0.7871
2692	0.7897
2701	0.7898
2710	0.7815
2719	0.7761
2728	0.7618
2737	0.7661
2746	0.7742
2755	0.773
2764	0.7668
2773	0.7525
2782	0.7362
2791	0.7118
2800	0.6874
2809	0.656
2818	0.6144
2827	0.5252
2836	0.4733
2845	0.2623
2854	0.0307
2863	0.0395
2872	0.0866
2881	0.1687
2890	0.1677
2899	0.0971
2908	0.0429
2917	0.0121
2926	0.004
2935	0.0052
2944	0.0485
2953	0.0325
2962	0.0177
2971	0.0498
2980	0.1639
2989	0.3896
2998	0.5712
3007	0.6565
3016	0.7161
3025	0.7361
3034	0.7511
3043	0.7601
3052	0.7654
3061	0.7697
3070	0.773
3079	0.7741
3088	0.7725
3097	0.7705
3106	0.7671
3115	0.7611
3124	0.7534
3133	0.7424
3142	0.7274
3151	0.7119
3160	0.6976
3169	0.6839
3178	0.671
3187	0.6554
3196	0.637
3205	0.6106
3214	0.5838
3223	0.561
3232	0.5405
3241	0.5193
3250	0.4904
3259	0.461
3268	0.4337
3277	0.4064
3286	0.383
3295	0.3607
3304	0.336
3313	0.315
3322	0.301
3331	0.2911
3340	0.2851
3349	0.2829
3358	0.2835
3367	0.2868
3376	0.2931
3385	0.3026
3394	0.3153
3403	0.3273
3412	0.34
3421	0.3546
3430	0.3716
3439	0.3896
3448	0.4091
3457	0.4301
3466	0.4538
3475	0.476
3484	0.4983
3493	0.5206
3502	0.5554
3511	0.5812
3520	0.6155
3529	0.6481
3538	0.6865
3547	0.7135
3556	0.7447
3565	0.7647
3574	0.76
3583	0.7695
3592	0.7546
3601	0.6846
3610	0.6555
3619	0.6086
3628	0.6647
3637	0.8114
3646	0.8174
3655	0.8125
3664	0.7958
3673	0.8041
3682	0.8297
3691	0.843
3700	0.8478
3709	0.8498
3718	0.8516
3727	0.8518
3736	0.852
3745	0.8518
3754	0.8518
3763	0.8521
3772	0.8525
3781	0.853
3790	0.8536
3799	0.8541
