Infrared Spectrum: AMYL ACETYLENE
Formula: C7 H12
CAS: 628-71-7
State: SOLUTION (10% CCl4 FOR 3800-1333, 10% CS2 FOR 1333-450 CM^-^1)
Boiling point: 98 C AT 740 mmHg
Class: COBLENTZ III
Instrument: Not specified, most likely a prism, grating, or hybrid spectrometer.
Sampling: TRANSMISSION
Path length: 0.011 CM, 0.011 CM
Resolution: 4
Origin: DOW CHEMICAL COMPANY
1/CM	TRANSMITTANCE
449.959	0.965
458.503	0.965
467.046	0.969
475.59	0.969
484.133	0.965
492.677	0.965
501.22	0.944
509.764	0.903
518.307	0.927
526.851	0.897
535.394	0.942
543.938	0.9141
552.481	0.923
561.025	0.994
569.568	1.001
578.112	0.986
586.655	0.96
595.199	0.903
603.743	0.7491
612.286	0.4012
620.83	0.013
629.373	0.003
637.917	0.026
646.46	0.3869
655.004	0.7279
663.547	0.882
672.091	0.939
680.634	0.98
689.178	0.998
697.721	1.001
706.265	0.998
714.808	0.9251
723.352	0.7881
731.896	0.95
740.439	0.986
748.983	0.998
757.526	0.986
766.07	0.982
774.613	1.001
783.157	0.996
791.7	1.028
800.244	1.034
808.787	1.036
817.331	1.036
825.874	1.03
834.418	1.007
842.961	0.944
851.505	0.874
860.048	0.889
868.592	0.922
877.136	0.954
885.679	1.003
894.223	1.038
902.766	1.039
911.31	1.0379
919.853	1.043
928.397	1.041
936.94	1.026
945.484	1.019
954.027	0.99
962.571	0.994
971.114	0.982
979.658	1.024
988.201	1.028
996.745	1.032
1005.29	1.036
1013.83	1.032
1022.38	1.022
1030.92	1.015
1039.46	1.028
1048.01	1.026
1056.55	1.022
1065.09	1.001
1073.64	1.003
1082.18	1.005
1090.72	0.992
1099.27	0.944
1107.81	0.901
1116.35	0.9539
1124.9	0.956
1133.44	0.967
1141.98	0.982
1150.53	1.011
1159.07	1.011
1167.62	1.005
1176.16	0.994
1184.7	0.982
1193.25	0.969
1201.79	0.96
1210.33	0.939
1218.88	0.874
1227.42	0.7752
1235.96	0.5871
1244.51	0.57
1253.05	0.7139
1261.59	0.813
1270.14	0.834
1278.68	0.847
1287.23	0.857
1295.77	0.866
1304.31	0.882
1312.86	0.878
1321.4	0.817
1329.94	0.823
1338.49	0.866
1347.03	0.88
1355.57	0.925
1364.12	0.8781
1372.66	0.8531
1381.2	0.6738
1389.75	0.933
1398.29	0.963
1406.83	0.933
1415.38	0.895
1423.92	0.8041
1432.47	0.475
1441.01	0.667
1449.55	0.5262
1458.1	0.353
1466.64	0.2851
1475.18	0.779
1483.73	0.859
1492.27	0.857
1500.81	0.832
1509.36	0.792
1517.9	0.75
1526.44	0.716
1534.99	0.6311
1543.53	0.5281
1552.07	0.543
1560.62	0.631
1569.16	0.701
1577.71	0.724
1586.25	0.76
1594.79	0.8569
1603.34	0.933
1611.88	0.986
1620.42	1.003
1628.97	1.024
1637.51	1.038
1646.05	1.032
1654.6	1.019
1663.14	1.017
1671.68	1.009
1680.23	1.013
1688.77	1.011
1697.31	1.003
1705.86	1.001
1714.4	0.998
1722.95	0.986
1731.49	0.988
1740.03	1
1748.58	1.009
1757.12	1.013
1765.66	1.017
1774.21	1.017
1782.75	1.015
1791.29	1.015
1799.84	1.013
1808.38	1.015
1816.92	1.013
1825.47	1.011
1834.01	1.009
1842.55	1.011
1851.1	1.007
1859.64	1.009
1868.19	1.013
1876.73	1.015
1885.27	1.013
1893.82	1.015
1902.36	1.017
1910.9	1.017
1919.45	1.015
1927.99	1.015
1936.53	1.017
1945.08	1.02
1953.62	1.019
1962.16	1.017
1970.71	1.015
1979.25	1.013
1987.79	1.011
1996.34	1.013
2004.88	1.011
2013.43	1.01
2021.97	1.02
2030.51	1.0161
2039.06	1.013
2047.6	1.0139
2056.14	1.0112
2064.69	1.0098
2073.23	1.011
2081.77	1.0042
2090.32	0.9817
2098.86	0.9635
2107.4	0.8637
2115.95	0.6413
2124.49	0.9458
2133.03	1.0016
2141.58	1.0086
2150.12	1.009
2158.67	1.009
2167.21	1.007
2175.75	1.011
2184.3	1.013
2192.84	1.0115
2201.38	1.009
2209.93	1.011
2218.47	1.011
2227.01	1.009
2235.56	1.003
2244.1	1.0017
2252.64	1
2261.19	0.9954
2269.73	0.9877
2278.27	0.984
2286.82	0.984
2295.36	0.9904
2303.91	0.9882
2312.45	0.9951
2320.99	1.005
2329.54	0.9938
2338.08	1.0051
2346.62	1.009
2355.17	1.011
2363.71	1.009
2372.25	1.009
2380.8	1.007
2389.34	1.005
2397.88	1.0041
2406.43	1.003
2414.97	1.003
2423.51	1.003
2432.06	1.005
2440.6	1.007
2449.15	1.007
2457.69	1.009
2466.23	1.009
2474.78	1.009
2483.32	1.011
2491.86	1.0093
2500.41	1.0084
2508.95	1.0054
2517.49	1.001
2526.04	1.001
2534.58	1.0007
2543.12	1
2551.67	0.9955
2560.21	0.9925
2568.75	0.992
2577.3	0.994
2585.84	0.994
2594.39	0.992
2602.93	0.988
2611.47	0.984
2620.02	0.9783
2628.56	0.965
2637.1	0.963
2645.65	0.9591
2654.19	0.956
2662.73	0.954
2671.28	0.9582
2679.82	0.9642
2688.36	0.9733
2696.91	0.9779
2705.45	0.9648
2713.99	0.9489
2722.54	0.939
2731.08	0.942
2739.63	0.95
2748.17	0.955
2756.71	0.956
2765.26	0.953
2773.8	0.9414
2782.34	0.9216
2790.89	0.9101
2799.43	0.8869
2807.97	0.8595
2816.52	0.8069
2825.06	0.7786
2833.6	0.6335
2842.15	0.4445
2850.69	0.2832
2859.23	0.0713
2867.78	0.115
2876.32	0.0934
2884.87	0.372
2893.41	0.3325
2901.95	0.1547
2910.5	0.0873
2919.04	0.0383
2927.58	0.01
2936.13	0.011
2944.67	0.0165
2953.21	0.0132
2961.76	0
2970.3	0.0563
2978.84	0.3694
2987.39	0.6535
2995.93	0.7576
3004.47	0.8421
3013.02	0.8773
3021.56	0.9063
3030.11	0.9269
3038.65	0.939
3047.19	0.9484
3055.74	0.958
3064.28	0.963
3072.82	0.971
3081.37	0.9781
3089.91	0.9841
3098.45	0.987
3107	0.992
3115.54	0.997
3124.08	0.998
3132.63	0.998
3141.17	1
3149.71	1.003
3158.26	1.003
3166.8	1.005
3175.35	1.0069
3183.89	1.0078
3192.43	1.009
3200.98	1.009
3209.52	1.009
3218.06	1.009
3226.61	1.0073
3235.15	1.0043
3243.69	1.0002
3252.24	0.994
3260.78	0.9799
3269.32	0.953
3277.87	0.8981
3286.41	0.828
3294.95	0.5862
3303.5	0.457
3312.04	0.2377
3320.59	0.0002
3329.13	0.3256
3337.67	0.7742
3346.22	0.8587
3354.76	0.8987
3363.3	0.9424
3371.85	0.9843
3380.39	1.002
3388.93	1.0113
3397.48	1.0143
3406.02	1.0191
3414.56	1.022
3423.11	1.022
3431.65	1.022
3440.19	1.022
3448.74	1.022
3457.28	1.022
3465.83	1.022
3474.37	1.02
3482.91	1.019
3491.46	1.017
3500	1.018
3508.54	1.02
3517.09	1.02
3525.63	1.019
3534.17	1.017
3542.72	1.017
3551.26	1.0179
3559.8	1.019
3568.35	1.017
3576.89	1.015
3585.43	1.015
3593.98	1.015
3602.52	1.011
3611.07	1.011
3619.61	1.009
3628.15	1.0074
3636.7	1.0056
3645.24	1.007
3653.78	1.009
3662.33	1.009
3670.87	1.009
3679.41	1.0055
3687.96	1.004
3696.5	0.998
3705.04	1.0094
3713.59	1.011
3722.13	1.013
3730.67	1.015
3739.22	1.015
3747.76	1.0117
3756.31	1.007
3764.85	1.0057
3773.39	1.003
3781.94	1.003
3790.48	1.001
