Infrared Spectrum: 1,8-Octanediol
Formula: C8 H18 O2
CAS: 629-41-4
State: SOLID (SPLIT MULL), FLUOROLUBE FOR 3800-1330 CM^-^1, NUJOL FOR 1330-450 CM^-^1
Melting point: 61 C
Class: COBLENTZ II
Instrument: DOW KBr FOREPRISM-GRATING
Instrument parameters: BLAZED AT 3.5, 12.0, 20.0 MICRON AND CHANGED AT 5.0, 7.5, 14.9 MICRON
Sampling: TRANSMISSION
Resolution: 2
Origin: DOW CHEMICAL COMPANY
1/CM	TRANSMITTANCE
3812	0.7099
3803	0.7125
3794	0.7156
3785	0.7187
3776	0.7242
3767	0.7251
3758	0.7285
3749	0.7322
3740	0.7364
3731	0.741
3722	0.7453
3713	0.7486
3704	0.7499
3695	0.7454
3686	0.7518
3677	0.7606
3668	0.7647
3659	0.7668
3650	0.7718
3641	0.7774
3632	0.7833
3623	0.7886
3614	0.7931
3605	0.7967
3596	0.8001
3587	0.8039
3578	0.8075
3569	0.8104
3560	0.813
3551	0.8135
3542	0.8101
3533	0.804
3524	0.7967
3515	0.7875
3506	0.7748
3497	0.7592
3488	0.7374
3479	0.7001
3470	0.6568
3461	0.5966
3452	0.5218
3443	0.4348
3434	0.3479
3425	0.2609
3416	0.1809
3407	0.0891
3398	0.0828
3389	0.1104
3380	0.1348
3371	0.1406
3362	0.1289
3353	0.1031
3344	0.0824
3335	0.0767
3326	0.1024
3317	0.1257
3308	0.1504
3299	0.1748
3290	0.1992
3281	0.2235
3272	0.2481
3263	0.2725
3254	0.2969
3245	0.3212
3236	0.3457
3227	0.37
3218	0.3946
3209	0.4176
3200	0.4397
3191	0.458
3182	0.4786
3173	0.4986
3164	0.5154
3155	0.5307
3146	0.5451
3137	0.5585
3128	0.5691
3119	0.5792
3110	0.5883
3101	0.5986
3092	0.6089
3083	0.618
3074	0.6271
3065	0.6379
3056	0.6492
3047	0.6585
3038	0.6665
3029	0.6738
3020	0.6812
3011	0.6892
3002	0.6971
2993	0.7042
2984	0.7054
2975	0.5945
2966	0.5936
2957	0.5339
2948	0.2659
2939	0.1049
2930	0.2016
2921	0.2289
2912	0.2544
2903	0.2682
2894	0.262
2885	0.3453
2876	0.4255
2867	0.2396
2858	0.0739
2849	0.1301
2840	0.1974
2831	0.2538
2822	0.3246
2813	0.406
2804	0.46
2795	0.484
2786	0.506
2777	0.517
2768	0.5245
2759	0.5305
2750	0.5375
2741	0.5457
2732	0.56
2723	0.5652
2714	0.5749
2705	0.5915
2696	0.5943
2687	0.5889
2678	0.5883
2669	0.6065
2660	0.6204
2651	0.622
2642	0.624
2633	0.629
2624	0.6454
2615	0.6611
2606	0.671
2597	0.6722
2588	0.6738
2579	0.678
2570	0.6815
2561	0.6846
2552	0.6878
2543	0.6911
2534	0.6945
2525	0.6962
2516	0.6948
2507	0.6921
2498	0.6904
2489	0.6888
2480	0.69
2471	0.6939
2462	0.6991
2453	0.7047
2444	0.7089
2435	0.7067
2426	0.7037
2417	0.7097
2408	0.7135
2399	0.7115
2390	0.7062
2381	0.7053
2372	0.7101
2363	0.7153
2354	0.7158
2345	0.7083
2336	0.7076
2327	0.7084
2318	0.6985
2309	0.7098
2300	0.7151
2291	0.7208
2282	0.725
2273	0.7308
2264	0.7367
2255	0.7425
2246	0.7484
2237	0.7548
2228	0.7621
2219	0.7685
2210	0.7748
2201	0.7775
2192	0.7771
2183	0.7806
2174	0.7855
2165	0.7893
2156	0.7918
2147	0.7933
2138	0.798
2129	0.7993
2120	0.8006
2111	0.8018
2102	0.804
2093	0.8061
2084	0.811
2075	0.8142
2066	0.8051
2057	0.8165
2048	0.8168
2039	0.8128
2030	0.8088
2021	0.8121
2012	0.825
2003	0.8244
1994	0.7778
1985	0.8089
1976	0.8141
1967	0.8165
1958	0.8175
1949	0.818
1940	0.8198
1931	0.8241
1922	0.829
1913	0.8262
1904	0.8257
1895	0.8288
1886	0.8242
1877	0.8224
1868	0.8228
1859	0.8217
1850	0.8243
1841	0.8306
1832	0.8328
1823	0.8335
1814	0.8337
1805	0.8328
1796	0.8306
1787	0.8347
1778	0.8391
1769	0.8407
1760	0.8408
1751	0.8346
1742	0.8238
1733	0.8284
1724	0.8445
1715	0.8483
1706	0.8495
1697	0.8512
1688	0.8537
1679	0.854
1670	0.8533
1661	0.8535
1652	0.8538
1643	0.8545
1634	0.8561
1625	0.8585
1616	0.8595
1607	0.8596
1598	0.8593
1589	0.8601
1580	0.8646
1571	0.8634
1562	0.8615
1553	0.8615
1544	0.8617
1535	0.8616
1526	0.8621
1517	0.8591
1508	0.856
1499	0.8513
1490	0.8466
1481	0.6428
1472	0.7586
1463	0.6356
1454	0.5062
1445	0.6524
1436	0.6739
1427	0.7437
1418	0.7797
1409	0.7875
1400	0.7853
1391	0.7725
1382	0.7184
1373	0.4228
1364	0.5218
1355	0.1951
1346	0.2999
1337	0.4124
1328	0.5459
1319	0.6067
1310	0.6471
1301	0.6294
1292	0.5598
1283	0.6024
1274	0.6521
1265	0.6601
1256	0.676
1247	0.6742
1238	0.6889
1229	0.6915
1220	0.6891
1211	0.6845
1202	0.6788
1193	0.7007
1184	0.6783
1175	0.6868
1166	0.6951
1157	0.7185
1148	0.7314
1139	0.7389
1130	0.7532
1121	0.7601
1112	0.7581
1103	0.7524
1094	0.7411
1085	0.7035
1076	0.6334
1067	0.4564
1058	0.3308
1049	0.0834
1040	0.1592
1031	0.2899
1022	0.3999
1013	0.6102
1004	0.6741
995	0.7222
986	0.6981
977	0.1126
968	0.48
959	0.6066
950	0.6738
941	0.7085
932	0.7267
923	0.7432
914	0.7569
905	0.7664
896	0.774
887	0.7732
878	0.7861
869	0.7906
860	0.7851
851	0.7968
842	0.7955
833	0.7984
824	0.8003
815	0.801
806	0.8018
797	0.7974
788	0.7989
779	0.7906
770	0.7808
761	0.7722
752	0.7694
743	0.7551
734	0.6784
725	0.663
716	0.629
707	0.7271
698	0.7565
689	0.7528
680	0.7355
671	0.7158
662	0.6794
653	0.6221
644	0.541
635	0.4505
626	0.3848
617	0.4874
608	0.6093
599	0.6819
590	0.7119
581	0.7232
572	0.7335
563	0.7498
554	0.7678
545	0.7837
536	0.7933
527	0.7965
518	0.7914
509	0.6543
500	0.786
491	0.788
482	0.7987
473	0.7984
464	0.7945
455	0.7899
