Infrared Spectrum: HEXANE, 1,6-DIBROMO-
Formula: C6 H12 Br2
CAS: 629-03-8
State: SOLUTION (10% IN CCl4 FOR 3800-1340, AND 10% IN CS2 FOR 1340-450 CM^-^1)
Class: COBLENTZ III
Instrument: DOW KBr FOREPRISM-GRATING
Instrument parameters: BLAZED AT 3.5, 12.0, 20.0 MICRON, CHANGED AT 5.0, 7.5, 14.9 MICRON
Sampling: TRANSMISSION
Path length: 0.011, 0.011 CM
Resolution: 4
Origin: DOW CHEMICAL COMPANY
1/CM	TRANSMITTANCE
449.592	0.433
458.292	0.924
466.993	0.938
475.693	0.945
484.394	0.953
493.094	0.955
501.794	0.962
510.495	0.967
519.195	0.972
527.895	0.977
536.596	0.979
545.296	0.981
553.997	0.977
562.697	0.914
571.397	0.612
580.098	0.843
588.798	0.987
597.499	1.016
606.199	1.03
614.899	1.036
623.6	1.025
632.3	1.006
641	0.942
649.701	0.729
658.401	0.75
667.102	0.875
675.802	0.966
684.502	0.973
693.203	0.976
701.903	0.973
710.604	0.966
719.304	0.923
728.004	0.758
736.705	0.839
745.405	0.924
754.105	0.941
762.806	0.958
771.506	0.959
780.207	0.958
788.907	0.956
797.607	0.947
806.308	0.928
815.008	0.945
823.709	0.94
832.409	0.941
841.109	0.898
849.81	0.846
858.51	0.786
867.21	0.824
875.911	0.863
884.611	0.887
893.312	0.888
902.012	0.903
910.712	0.938
919.413	0.947
928.113	0.955
936.814	0.958
945.514	0.952
954.214	0.955
962.915	0.959
971.615	0.951
980.315	0.962
989.016	0.97
997.716	0.967
1006.42	0.958
1015.12	0.952
1023.82	0.951
1032.52	0.902
1041.22	0.923
1049.92	0.935
1058.62	0.93
1067.32	0.93
1076.02	0.94
1084.72	0.944
1093.42	0.953
1102.12	0.953
1110.82	0.956
1119.52	0.96
1128.22	0.966
1136.92	0.96
1145.62	0.951
1154.32	0.958
1163.02	0.956
1171.72	0.947
1180.42	0.94
1189.12	0.923
1197.83	0.912
1206.53	0.803
1215.23	0.711
1223.93	0.757
1232.63	0.87
1241.33	0.76
1250.03	0.271
1258.73	0.524
1267.43	0.622
1276.13	0.8
1284.83	0.721
1293.53	0.767
1302.23	0.778
1310.93	0.778
1319.63	0.854
1328.33	0.9
1337.03	0.921
1345.73	0.891
1354.43	0.892
1363.13	0.907
1371.83	0.916
1380.53	0.914
1389.23	0.945
1397.93	0.948
1406.63	0.944
1415.33	0.934
1424.04	0.913
1432.74	0.8168
1441.44	0.626
1450.14	0.718
1458.84	0.654
1467.54	0.619
1476.24	0.838
1484.94	0.881
1493.64	0.867
1502.34	0.834
1511.04	0.778
1519.74	0.725
1528.44	0.677
1537.14	0.629
1545.84	0.517
1554.54	0.47
1563.24	0.548
1571.94	0.615
1580.64	0.658
1589.34	0.682
1598.04	0.753
1606.74	0.838
1615.44	0.892
1624.14	0.927
1632.84	0.941
1641.54	0.953
1650.25	0.952
1658.95	0.956
1667.65	0.952
1676.35	0.955
1685.05	0.956
1693.75	0.958
1702.45	0.956
1711.15	0.96
1719.85	0.963
1728.55	0.962
1737.25	0.958
1745.95	0.955
1754.65	0.96
1763.35	0.956
1772.05	0.96
1780.75	0.955
1789.45	0.956
1798.15	0.956
1806.85	0.953
1815.55	0.955
1824.25	0.951
1832.95	0.949
1841.65	0.951
1850.35	0.949
1859.05	0.947
1867.75	0.947
1876.46	0.951
1885.16	0.952
1893.86	0.951
1902.56	0.951
1911.26	0.953
1919.96	0.953
1928.66	0.953
1937.36	0.955
1946.06	0.953
1954.76	0.953
1963.46	0.955
1972.16	0.953
1980.86	0.952
1989.56	0.952
1998.26	0.952
2006.96	0.949
2015.66	0.96
2024.36	0.951
2033.06	0.949
2041.76	0.9579
2050.46	0.9521
2059.16	0.949
2067.86	0.955
2076.56	0.956
2085.26	0.955
2093.96	0.9591
2102.67	0.9598
2111.37	0.9581
2120.07	0.9578
2128.77	0.96
2137.47	0.958
2146.17	0.9581
2154.87	0.958
2163.57	0.9551
2172.27	0.955
2180.97	0.9533
2189.67	0.9528
2198.37	0.956
2207.07	0.953
2215.77	0.9558
2224.47	0.956
2233.17	0.956
2241.87	0.955
2250.57	0.951
2259.27	0.949
2267.97	0.9472
2276.67	0.94
2285.37	0.9372
2294.07	0.934
2302.77	0.934
2311.47	0.935
2320.17	0.938
2328.87	0.9407
2337.58	0.9385
2346.28	0.9381
2354.98	0.951
2363.68	0.947
2372.38	0.9504
2381.08	0.953
2389.78	0.9574
2398.48	0.9593
2407.18	0.9597
2415.88	0.96
2424.58	0.9613
2433.28	0.963
2441.98	0.9626
2450.68	0.962
2459.38	0.965
2468.08	0.9631
2476.78	0.963
2485.48	0.9656
2494.18	0.966
2502.88	0.963
2511.58	0.966
2520.28	0.967
2528.98	0.967
2537.68	0.967
2546.38	0.966
2555.08	0.9681
2563.79	0.969
2572.49	0.9641
2581.19	0.9665
2589.89	0.967
2598.59	0.964
2607.29	0.966
2615.99	0.966
2624.69	0.965
2633.39	0.963
2642.09	0.963
2650.79	0.962
2659.49	0.96
2668.19	0.959
2676.89	0.962
2685.59	0.958
2694.29	0.9526
2702.99	0.952
2711.69	0.955
2720.39	0.9608
2729.09	0.959
2737.79	0.96
2746.49	0.9612
2755.19	0.96
2763.89	0.9594
2772.59	0.96
2781.29	0.962
2790	0.956
2798.7	0.952
2807.4	0.949
2816.1	0.9447
2824.8	0.938
2833.5	0.9217
2842.2	0.8947
2850.9	0.7294
2859.6	0.7478
2868.3	0.4993
2877	0.6029
2885.7	0.681
2894.4	0.7321
2903.1	0.6774
2911.8	0.642
2920.5	0.5917
2929.2	0.4865
2937.9	0.3136
2946.6	0.2258
2955.3	0.3455
2964	0.4397
2972.7	0.4101
2981.4	0.5346
2990.1	0.7463
2998.8	0.849
3007.5	0.8692
3016.21	0.8039
3024.91	0.8069
3033.61	0.8981
3042.31	0.9402
3051.01	0.9485
3059.71	0.955
3068.41	0.958
3077.11	0.9603
3085.81	0.962
3094.51	0.9651
3103.21	0.97
3111.91	0.97
3120.61	0.9731
3129.31	0.976
3138.01	0.976
3146.71	0.9761
3155.41	0.977
3164.11	0.9791
3172.81	0.983
3181.51	0.983
3190.21	0.98
3198.91	0.983
3207.61	0.983
3216.31	0.984
3225.01	0.984
3233.71	0.984
3242.42	0.987
3251.12	0.984
3259.82	0.986
3268.52	0.99
3277.22	0.99
3285.92	0.9899
3294.62	0.987
3303.32	0.987
3312.02	0.9881
3320.72	0.99
3329.42	0.99
3338.12	0.991
3346.82	0.99
3355.52	0.993
3364.22	0.993
3372.92	0.994
3381.62	0.994
3390.32	0.993
3399.02	0.991
3407.72	0.9913
3416.42	0.993
3425.12	0.9939
3433.82	0.995
3442.52	0.99
3451.22	0.9932
3459.92	0.987
3468.63	0.9843
3477.33	0.986
3486.03	0.993
3494.73	0.9878
3503.43	0.9908
3512.13	0.988
3520.83	0.984
3529.53	0.9925
3538.23	0.994
3546.93	0.99
3555.63	0.994
3564.33	0.997
3573.03	0.9943
3581.73	0.9873
3590.43	0.9822
3599.13	0.991
3607.83	0.9867
3616.53	0.9861
3625.23	0.9867
3633.93	0.9846
3642.63	0.981
3651.33	0.9854
3660.03	0.981
3668.73	0.982
3677.43	0.987
3686.13	0.986
3694.84	0.9804
3703.54	0.9796
3712.24	0.988
3720.94	0.988
3729.64	0.9889
3738.34	0.997
3747.04	0.9944
3755.74	0.995
3764.44	0.9918
3773.14	0.9962
3781.84	0.9944
3790.54	0.995
3799.24	0.9904
