Infrared Spectrum: N-PROPYL DISULFIDE
Formula: C6 H14 S2
CAS: 629-19-6
State: LIQUID
Boiling point: 193-195 C
Class: COBLENTZ
Instrument: Not specified, most likely a prism, grating, or hybrid spectrometer.
Sampling: TRANSMISSION
Path length: 0.005 CM
Resolution: 4
Origin: WYANDOTTE CHEMICALS CORP., WYANDOTTE, MICHIGAN, USA
MICROMETERS	TRANSMITTANCE
2.031	0.996
2.06809	0.995
2.10517	0.995
2.14226	0.987
2.17934	0.913
2.21643	0.832
2.25352	0.834
2.2906	0.849
2.32769	0.852
2.36477	0.879
2.40186	0.897
2.43894	0.902
2.47603	0.916
2.51312	0.933
2.5502	0.933
2.58729	0.93
2.62437	0.93
2.66146	0.927
2.69855	0.919
2.73563	0.934
2.77272	0.927
2.8098	0.931
2.84689	0.934
2.88397	0.933
2.92106	0.919
2.95815	0.916
2.99523	0.908
3.03232	0.905
3.0694	0.883
3.10649	0.846
3.14358	0.798
3.18066	0.803
3.21775	0.784
3.25483	0.719
3.29192	0.592
3.329	0.165
3.36609	0.027
3.40318	0.026
3.44026	0.032
3.47735	0.04
3.51443	0.184
3.55152	0.461
3.58861	0.599
3.62569	0.758
3.66278	0.721
3.69986	0.812
3.73695	0.806
3.77403	0.778
3.81112	0.826
3.84821	0.845
3.88529	0.866
3.92238	0.868
3.95946	0.874
3.99655	0.862
4.03364	0.854
4.07072	0.851
4.10781	0.859
4.14489	0.863
4.18198	0.84
4.21906	0.829
4.25615	0.869
4.29324	0.876
4.33032	0.88
4.36741	0.868
4.40449	0.862
4.44158	0.846
4.47867	0.84
4.51575	0.846
4.55284	0.837
4.58992	0.852
4.62701	0.871
4.66409	0.865
4.70118	0.862
4.73827	0.86
4.77535	0.846
4.81244	0.86
4.84952	0.866
4.88661	0.863
4.9237	0.869
4.96078	0.86
4.99787	0.854
5.03495	0.859
5.07204	0.866
5.10912	0.873
5.14621	0.873
5.1833	0.869
5.22038	0.862
5.25747	0.865
5.29455	0.869
5.33164	0.866
5.36873	0.863
5.40581	0.866
5.4429	0.866
5.47998	0.868
5.51707	0.856
5.55415	0.869
5.59124	0.86
5.62833	0.857
5.66541	0.852
5.7025	0.849
5.73958	0.843
5.77667	0.832
5.81376	0.839
5.85084	0.828
5.88793	0.82
5.92501	0.806
5.9621	0.801
5.99918	0.806
6.03627	0.809
6.07336	0.801
6.11044	0.814
6.14753	0.795
6.18461	0.786
6.2217	0.789
6.25879	0.784
6.29587	0.789
6.33296	0.777
6.37004	0.781
6.40713	0.76
6.44422	0.755
6.4813	0.733
6.51839	0.722
6.55547	0.695
6.59256	0.667
6.62964	0.63
6.66673	0.563
6.70382	0.442
6.7409	0.321
6.77799	0.08
6.81507	0.035
6.85216	0.034
6.88925	0.06
6.92633	0.1
6.96342	0.16
7.0005	0.243
7.03759	0.137
7.07467	0.187
7.11176	0.383
7.14885	0.448
7.18593	0.368
7.22302	0.103
7.2601	0.117
7.29719	0.399
7.33428	0.554
7.37136	0.619
7.40845	0.58
7.44553	0.357
7.48262	0.351
7.5197	0.475
7.55679	0.575
7.59388	0.592
7.63096	0.572
7.66805	0.47
7.70513	0.226
7.74222	0.043
7.77931	0.151
7.81639	0.421
7.85348	0.543
7.89056	0.592
7.92765	0.592
7.96473	0.554
8.00182	0.45
8.03891	0.32
8.07599	0.092
8.11308	0.03
8.15016	0.057
8.18725	0.204
8.22434	0.32
8.26142	0.461
8.29851	0.513
8.33559	0.6
8.37268	0.634
8.40976	0.69
8.44685	0.736
8.48394	0.767
8.52102	0.783
8.55811	0.781
8.59519	0.755
8.63228	0.701
8.66937	0.667
8.70645	0.678
8.74354	0.746
8.78062	0.77
8.81771	0.787
8.85479	0.795
8.89188	0.783
8.92897	0.767
8.96605	0.758
9.00314	0.75
9.04022	0.707
9.07731	0.623
9.1144	0.441
9.15148	0.348
9.18857	0.417
9.22565	0.518
9.26274	0.523
9.29982	0.571
9.33691	0.626
9.374	0.633
9.41108	0.577
9.44817	0.441
9.48525	0.304
9.52234	0.323
9.55943	0.459
9.59651	0.527
9.6336	0.555
9.67068	0.535
9.70777	0.603
9.74485	0.695
9.78194	0.729
9.81903	0.724
9.85611	0.712
9.8932	0.732
9.93028	0.749
9.96737	0.739
10.0045	0.726
10.0415	0.741
10.0786	0.77
10.1157	0.798
10.1528	0.797
10.1899	0.797
10.227	0.798
10.2641	0.801
10.3011	0.801
10.3382	0.795
10.3753	0.794
10.4124	0.777
10.4495	0.761
10.4866	0.746
10.5237	0.739
10.5607	0.761
10.5978	0.773
10.6349	0.792
10.672	0.795
10.7091	0.794
10.7462	0.794
10.7833	0.783
10.8203	0.775
10.8574	0.77
10.8945	0.767
10.9316	0.76
10.9687	0.746
11.0058	0.71
11.0429	0.665
11.0799	0.575
11.117	0.397
11.1541	0.308
11.1912	0.332
11.2283	0.352
11.2654	0.396
11.3025	0.495
11.3395	0.591
11.3766	0.656
11.4137	0.702
11.4508	0.729
11.4879	0.738
11.525	0.755
11.5621	0.761
11.5991	0.755
11.6362	0.752
11.6733	0.749
11.7104	0.733
11.7475	0.719
11.7846	0.685
11.8217	0.665
11.8587	0.64
11.8958	0.647
11.9329	0.643
11.97	0.63
12.0071	0.595
12.0442	0.543
12.0813	0.503
12.1183	0.504
12.1554	0.561
12.1925	0.617
12.2296	0.671
12.2667	0.702
12.3038	0.716
12.3409	0.73
12.3779	0.726
12.415	0.722
12.4521	0.705
12.4892	0.668
12.5263	0.626
12.5634	0.557
12.6005	0.459
12.6376	0.4
12.6746	0.38
12.7117	0.329
12.7488	0.249
12.7859	0.182
12.823	0.21
12.8601	0.323
12.8972	0.456
12.9342	0.53
12.9713	0.588
13.0084	0.631
13.0455	0.657
13.0826	0.681
13.1197	0.699
13.1568	0.704
13.1938	0.699
13.2309	0.696
13.268	0.688
13.3051	0.667
13.3422	0.654
13.3793	0.626
13.4164	0.591
13.4534	0.552
13.4905	0.507
13.5276	0.475
13.5647	0.431
13.6018	0.376
13.6389	0.332
13.676	0.298
13.713	0.314
13.7501	0.385
13.7872	0.475
13.8243	0.549
13.8614	0.595
13.8985	0.633
13.9356	0.657
13.9726	0.671
14.0097	0.681
14.0468	0.682
14.0839	0.676
14.121	0.66
14.1581	0.634
14.1952	0.613
14.2322	0.594
14.2693	0.592
14.3064	0.6
14.3435	0.626
14.3806	0.651
14.4177	0.682
14.4548	0.705
14.4918	0.716
14.5289	0.729
14.566	0.735
14.6031	0.743
14.6402	0.75
14.6773	0.749
14.7144	0.75
14.7514	0.753
14.7885	0.747
14.8256	0.747
14.8627	0.753
14.8998	0.747
14.9369	0.747
14.974	0.753
15.011	0.732
15.0481	0.726
15.0852	0.739
15.1223	0.744
15.1594	0.744
15.1965	0.743
15.2336	0.739
15.2706	0.741
15.3077	0.729
15.3448	0.724
15.3819	0.718
15.419	0.727
15.4561	0.719
15.4932	0.726
15.5302	0.715
15.5673	0.721
15.6044	0.718
15.6415	0.718
15.6786	0.715
15.7157	0.704
15.7528	0.691
15.7898	0.687
15.8269	0.673
15.864	0.665
15.9011	0.659
15.9382	0.656
15.9753	0.653
