Infrared Spectrum: 1-Chloroheptane
Formula: C7 H15 Cl
CAS: 629-06-1
State: SOLUTION (10% CCl4 FOR 2-7.6, 10% CS2 FOR 7.6-16 MICRON)
Class: COBLENTZ III
Instrument: BAIRD (GRATING)
Instrument parameters: NaCl PRISM
Sampling: TRANSMISSION
Path length: 0.012 CM, AND 0.012 CM
Resolution: 2
Origin: DOW CHEMICAL COMPANY
1/CM	TRANSMITTANCE
4000	0.8789
3991	0.8792
3982	0.8816
3973	0.8816
3964	0.8817
3955	0.8817
3946	0.8812
3937	0.8805
3928	0.8802
3919	0.8793
3910	0.8799
3901	0.8813
3892	0.8814
3883	0.8824
3874	0.8839
3865	0.8851
3856	0.8862
3847	0.8872
3838	0.8881
3829	0.8892
3820	0.8901
3811	0.8905
3802	0.8908
3793	0.8923
3784	0.8922
3775	0.8913
3766	0.8915
3757	0.8909
3748	0.8901
3739	0.8898
3730	0.8898
3721	0.8892
3712	0.8888
3703	0.8886
3694	0.8873
3685	0.8862
3676	0.886
3667	0.8856
3658	0.8853
3649	0.8849
3640	0.8846
3631	0.8854
3622	0.8856
3613	0.8859
3604	0.8863
3595	0.8868
3586	0.8881
3577	0.8898
3568	0.8906
3559	0.8925
3550	0.8953
3541	0.8978
3532	0.8992
3523	0.8996
3514	0.9008
3505	0.9011
3496	0.9006
3487	0.9001
3478	0.8994
3469	0.8983
3460	0.8973
3451	0.8963
3442	0.8952
3433	0.8944
3424	0.8935
3415	0.8927
3406	0.8925
3397	0.8918
3388	0.8921
3379	0.8924
3370	0.8935
3361	0.894
3352	0.8953
3343	0.8961
3334	0.8959
3325	0.8957
3316	0.8953
3307	0.895
3298	0.8945
3289	0.8946
3280	0.8951
3271	0.8959
3262	0.8961
3253	0.8961
3244	0.8957
3235	0.8947
3226	0.8916
3217	0.89
3208	0.8867
3199	0.8865
3190	0.8857
3181	0.885
3172	0.8849
3163	0.8856
3154	0.8852
3145	0.8845
3136	0.8853
3127	0.8853
3118	0.8845
3109	0.8835
3100	0.8839
3091	0.8829
3082	0.8757
3073	0.872
3064	0.8638
3055	0.8509
3046	0.8287
3037	0.8093
3028	0.7872
3019	0.7688
3010	0.7264
3001	0.6651
2992	0.5667
2983	0.5138
2974	0.3935
2965	0.2793
2956	0.1641
2947	0.0596
2938	0.0513
2929	0.0547
2920	0.0788
2911	0.1493
2902	0.219
2893	0.2435
2884	0.2402
2875	0.2291
2866	0.2279
2857	0.2992
2848	0.4229
2839	0.5481
2830	0.6682
2821	0.7321
2812	0.7774
2803	0.8082
2794	0.8295
2785	0.8459
2776	0.8558
2767	0.862
2758	0.8654
2749	0.8666
2740	0.8669
2731	0.8665
2722	0.8661
2713	0.867
2704	0.8722
2695	0.8745
2686	0.8751
2677	0.8747
2668	0.8744
2659	0.8775
2650	0.8852
2641	0.8876
2632	0.8906
2623	0.8956
2614	0.8989
2605	0.9001
2596	0.9
2587	0.9016
2578	0.904
2569	0.9083
2560	0.9108
2551	0.9126
2542	0.913
2533	0.9131
2524	0.9152
2515	0.9184
2506	0.9186
2497	0.9163
2488	0.9148
2479	0.9149
2470	0.9143
2461	0.9156
2452	0.9167
2443	0.9174
2434	0.9174
2425	0.917
2416	0.9159
2407	0.9126
2398	0.908
2389	0.9053
2380	0.9075
2371	0.9132
2362	0.9148
2353	0.9199
2344	0.9219
2335	0.9221
2326	0.925
2317	0.9215
2308	0.9185
2299	0.9183
2290	0.9207
2281	0.921
2272	0.9205
2263	0.9198
2254	0.9187
2245	0.919
2236	0.9197
2227	0.9203
2218	0.9212
2209	0.9228
2200	0.9238
2191	0.9241
2182	0.9248
2173	0.9262
2164	0.9259
2155	0.9265
2146	0.927
2137	0.9275
2128	0.9278
2119	0.9281
2110	0.9283
2101	0.9286
2092	0.9288
2083	0.9286
2074	0.9286
2065	0.9284
2056	0.9291
2047	0.9276
2038	0.9267
2029	0.9258
2020	0.9261
2011	0.9258
2002	0.9261
1993	0.9257
1984	0.9258
1975	0.9258
1966	0.9268
1957	0.9277
1948	0.9263
1939	0.9267
1930	0.927
1921	0.9277
1912	0.9288
1903	0.93
1894	0.9299
1885	0.9287
1876	0.9292
1867	0.9279
1858	0.9283
1849	0.9252
1840	0.9265
1831	0.9287
1822	0.9316
1813	0.9342
1804	0.9331
1795	0.9319
1786	0.9308
1777	0.9313
1768	0.9367
1759	0.9365
1750	0.9306
1741	0.9291
1732	0.9295
1723	0.9296
1714	0.9297
1705	0.9299
1696	0.9303
1687	0.931
1678	0.9311
1669	0.9354
1660	0.9378
1651	0.9307
1642	0.9332
1633	0.9309
1624	0.9166
1615	0.9038
1606	0.8534
1597	0.8134
1588	0.7913
1579	0.7822
1570	0.7528
1561	0.7241
1552	0.7081
1543	0.6977
1534	0.7578
1525	0.767
1516	0.7937
1507	0.8168
1498	0.8336
1489	0.8299
1480	0.7723
1471	0.4693
1462	0.3508
1453	0.4849
1444	0.5918
1435	0.7012
1426	0.8109
1417	0.8624
1408	0.8751
1399	0.8759
1390	0.8278
1381	0.7171
1372	0.8196
1363	0.8482
1354	0.8423
1345	0.8185
1336	0.8422
1327	0.7522
1318	0.6796
1309	0.612
1300	0.6474
1291	0.6377
1282	0.6076
1273	0.755
1264	0.8114
1255	0.7739
1246	0.8279
1237	0.8716
1228	0.9062
1219	0.9081
1210	0.9184
1201	0.9227
1192	0.9238
1183	0.9306
1174	0.9232
1165	0.9248
1156	0.9306
1147	0.9363
1138	0.9432
1129	0.936
1120	0.9199
1111	0.9083
1102	0.9083
1093	0.9114
1084	0.9236
1075	0.9172
1066	0.9058
1057	0.8821
1048	0.8881
1039	0.9043
1030	0.9126
1021	0.9097
1012	0.9068
1003	0.9095
994	0.8923
985	0.8719
976	0.8929
967	0.899
958	0.8847
949	0.9103
940	0.9127
931	0.9118
922	0.9159
913	0.9089
904	0.8787
895	0.8624
886	0.859
877	0.8584
868	0.8333
859	0.8176
850	0.8261
841	0.8626
832	0.8574
823	0.8832
814	0.8894
805	0.8706
796	0.8262
787	0.8053
778	0.8262
769	0.7958
760	0.7427
751	0.7001
742	0.6568
733	0.5125
724	0.4044
715	0.5766
706	0.6668
697	0.6846
688	0.6698
679	0.6324
670	0.5839
661	0.4571
652	0.2896
643	0.3685
634	0.3904
