Infrared Spectrum: 1-Hexadecene
Formula: C16 H32
CAS: 629-73-2
State: LIQUID (NEAT)
Class: COBLENTZ III
Instrument: BECKMAN IR-12 (GRATING)
Instrument parameters: GRATING
Sampling: TRANSMISSION
Path length: 0.00286 CM
Resolution: 2
Origin: COLGATE-PALMOLIVE COMPANY (KELLENBACH)
1/CM	TRANSMITTANCE
402	0.7424
411	0.7795
420	0.8239
429	0.8688
438	0.9037
447	0.9181
456	0.9373
465	0.9518
474	0.9606
483	0.9711
492	0.9556
501	0.9656
510	0.9675
519	0.9644
528	0.9566
537	0.9453
546	0.9237
555	0.8893
564	0.9283
573	0.9437
582	0.9478
591	0.9471
600	0.9432
609	0.927
618	0.8948
627	0.8155
636	0.77
645	0.8275
654	0.9147
663	0.9506
672	0.9631
681	0.9617
690	0.9466
699	0.9153
708	0.8466
717	0.5724
726	0.5782
735	0.7492
744	0.8038
753	0.8432
762	0.8563
771	0.8654
780	0.8748
789	0.8852
798	0.8948
807	0.8964
816	0.8949
825	0.8923
834	0.8865
843	0.8797
852	0.8699
861	0.8586
870	0.8462
879	0.8258
888	0.7845
897	0.6738
906	0.1401
915	0.3882
924	0.6932
933	0.7789
942	0.8067
951	0.8227
960	0.8006
969	0.7765
978	0.7502
987	0.4295
996	0.4674
1005	0.7292
1014	0.7695
1023	0.7964
1032	0.8133
1041	0.8238
1050	0.8281
1059	0.829
1068	0.8279
1077	0.824
1086	0.8329
1095	0.8441
1104	0.856
1113	0.8634
1122	0.8578
1131	0.8615
1140	0.8688
1149	0.8718
1158	0.8708
1167	0.8669
1176	0.8658
1185	0.8655
1194	0.8641
1203	0.8618
1212	0.8595
1221	0.8585
1230	0.8545
1239	0.8492
1248	0.8418
1257	0.8319
1266	0.8177
1275	0.8
1284	0.7804
1293	0.7575
1302	0.7329
1311	0.7572
1320	0.7909
1329	0.8021
1338	0.762
1347	0.7017
1356	0.7141
1365	0.6646
1374	0.6053
1383	0.6826
1392	0.7991
1401	0.7977
1410	0.6883
1419	0.6917
1428	0.5942
1437	0.367
1446	0.3352
1455	0.1428
1464	0.0866
1473	0.5791
1482	0.7657
1491	0.794
1500	0.8254
1509	0.8212
1518	0.8485
1527	0.8588
1536	0.8549
1545	0.8561
1554	0.863
1563	0.8762
1572	0.889
1581	0.8935
1590	0.8927
1599	0.8876
1608	0.8771
1617	0.8554
1626	0.8407
1635	0.6198
1644	0.5058
1653	0.8007
1662	0.8631
1671	0.8814
1680	0.8838
1689	0.8892
1698	0.8914
1707	0.8923
1716	0.8914
1725	0.9051
1734	0.9008
1743	0.9004
1752	0.903
1761	0.9049
1770	0.9045
1779	0.9039
1788	0.9011
1797	0.8952
1806	0.8824
1815	0.8218
1824	0.8249
1833	0.8837
1842	0.899
1851	0.9059
1860	0.9095
1869	0.9113
1878	0.9106
1887	0.9091
1896	0.9085
1905	0.9079
1914	0.9076
1923	0.9077
1932	0.908
1941	0.9085
1950	0.9089
1959	0.9083
1968	0.9064
1977	0.9019
1986	0.9045
1995	0.9077
2004	0.9064
2013	0.903
2022	0.9003
2031	0.8977
2040	0.8971
2049	0.8968
2058	0.899
2067	0.9009
2076	0.9009
2085	0.9024
2094	0.9043
2103	0.9053
2112	0.9059
2121	0.9059
2130	0.9057
2139	0.9049
2148	0.9035
2157	0.902
2166	0.9009
2175	0.9
2184	0.8992
2193	0.8992
2202	0.9024
2211	0.904
2220	0.9047
2229	0.9047
2238	0.904
2247	0.9032
2256	0.9023
2265	0.9014
2274	0.9005
2283	0.8995
2292	0.8986
2301	0.8977
2310	0.8963
2319	0.8944
2328	0.8924
2337	0.8905
2346	0.8879
2355	0.8845
2364	0.8831
2373	0.882
2382	0.8936
2391	0.9008
2400	0.9023
2409	0.9019
2418	0.901
2427	0.9001
2436	0.8991
2445	0.8983
2454	0.8975
2463	0.8968
2472	0.8962
2481	0.8954
2490	0.8928
2499	0.8898
2508	0.887
2517	0.8842
2526	0.8809
2535	0.8788
2544	0.8789
2553	0.8776
2562	0.8728
2571	0.8668
2580	0.8602
2589	0.8523
2598	0.8438
2607	0.8392
2616	0.8316
2625	0.8205
2634	0.8162
2643	0.8114
2652	0.805
2661	0.7954
2670	0.7799
2679	0.773
2688	0.7789
2697	0.796
2706	0.8037
2715	0.7968
2724	0.7865
2733	0.7799
2742	0.7863
2751	0.7856
2760	0.7802
2769	0.7715
2778	0.7521
2787	0.7103
2796	0.6501
2805	0.5894
2814	0.5233
2823	0.3501
2832	0.0852
2841	0.0167
2850	0.003
2859	0.0153
2868	0.0393
2877	0.0522
2886	0.0298
2895	0.0091
2904	0.0013
2913	0.0004
2922	0.0002
2931	0.0008
2940	0.0052
2949	0.0114
2958	0.0262
2967	0.1553
2976	0.2691
2985	0.3726
2994	0.4202
3003	0.5367
3012	0.5756
3021	0.6313
3030	0.7007
3039	0.7306
3048	0.7302
3057	0.6347
3066	0.5374
3075	0.4548
3084	0.6078
3093	0.7675
3102	0.8192
3111	0.8316
3120	0.8412
3129	0.8503
3138	0.8569
3147	0.8615
3156	0.8645
3165	0.8671
3174	0.8707
3183	0.874
3192	0.8771
3201	0.8803
3210	0.884
3219	0.8879
3228	0.8923
3237	0.8942
3246	0.8957
3255	0.8966
3264	0.8975
3273	0.8975
3282	0.8973
3291	0.8971
3300	0.897
3309	0.8969
3318	0.8968
3327	0.8967
3336	0.8962
3345	0.8956
3354	0.895
3363	0.8944
3372	0.894
3381	0.8944
3390	0.8948
3399	0.8951
3408	0.8956
3417	0.8959
3426	0.8963
3435	0.8967
3444	0.8971
3453	0.8975
3462	0.8979
3471	0.8983
3480	0.8991
3489	0.8999
3498	0.9005
3507	0.9006
3516	0.9008
3525	0.9009
3534	0.9009
3543	0.9009
3552	0.9009
3561	0.8999
3570	0.8983
3579	0.8966
3588	0.8944
3597	0.892
3606	0.8876
3615	0.8845
3624	0.8834
3633	0.887
3642	0.8875
3651	0.8834
3660	0.8894
3669	0.8932
3678	0.8913
3687	0.8889
3696	0.8879
3705	0.8877
3714	0.8888
3723	0.8897
3732	0.8886
3741	0.8859
3750	0.8828
3759	0.8864
3768	0.8932
3777	0.8954
3786	0.8957
3795	0.8935
3804	0.8887
3813	0.8828
3822	0.8762
3831	0.8761
3840	0.8792
3849	0.886
3858	0.8832
3867	0.8786
3876	0.8761
3885	0.8762
3894	0.877
3903	0.879
3912	0.8809
3921	0.8821
3930	0.8835
3939	0.8841
3948	0.8845
3957	0.8831
3966	0.8804
3975	0.8772
3984	0.8755
3993	0.874
