Infrared Spectrum: n-Tetradecane
Formula: C14 H30
CAS: 629-59-4
State: SOLUTION (10% CCl4 FOR 3800-1330, 10% CS2 FOR 1330-450 CM^-^1)
Class: COBLENTZ III
Instrument: DOW KBr FOREPRISM-GRATING
Instrument parameters: BLAZED AT 3.5, 12.0, 20.0 MICRON AND CHANGED AT 5.0, 7.5, 14.9 MICRON
Sampling: TRANSMISSION
Path length: 0.011 CM, 0.011 CM
Resolution: 2
Origin: DOW CHEMICAL COMPANY
1/CM	TRANSMITTANCE
3792	0.9198
3783	0.919
3774	0.921
3765	0.9209
3756	0.9208
3747	0.9206
3738	0.9215
3729	0.9211
3720	0.9211
3711	0.9242
3702	0.9249
3693	0.9211
3684	0.9205
3675	0.9227
3666	0.9218
3657	0.9194
3648	0.9183
3639	0.9194
3630	0.9231
3621	0.9222
3612	0.9214
3603	0.9246
3594	0.9284
3585	0.9311
3576	0.9324
3567	0.9329
3558	0.9343
3549	0.9352
3540	0.9359
3531	0.9373
3522	0.9367
3513	0.9375
3504	0.938
3495	0.9381
3486	0.9382
3477	0.9381
3468	0.938
3459	0.9378
3450	0.9377
3441	0.9375
3432	0.9373
3423	0.937
3414	0.9369
3405	0.9367
3396	0.9366
3387	0.9364
3378	0.9362
3369	0.9362
3360	0.936
3351	0.936
3342	0.9371
3333	0.9356
3324	0.9353
3315	0.9349
3306	0.9357
3297	0.933
3288	0.9312
3279	0.9307
3270	0.9288
3261	0.9279
3252	0.9269
3243	0.9261
3234	0.9248
3225	0.9209
3216	0.9186
3207	0.9141
3198	0.9114
3189	0.909
3180	0.906
3171	0.9042
3162	0.9031
3153	0.9022
3144	0.8995
3135	0.8995
3126	0.8987
3117	0.8981
3108	0.8971
3099	0.8978
3090	0.8968
3081	0.8861
3072	0.8812
3063	0.8691
3054	0.8581
3045	0.8461
3036	0.835
3027	0.8111
3018	0.7888
3009	0.7583
3000	0.7234
2991	0.6802
2982	0.5137
2973	0.3577
2964	0.0211
2955	0.0127
2946	0.0178
2937	0.0047
2928	0.0002
2919	0.0001
2910	0
2901	0.0119
2892	0.0459
2883	0.13
2874	0.1123
2865	0.0616
2856	0.0151
2847	0.015
2838	0.2849
2829	0.5238
2820	0.6794
2811	0.7185
2802	0.7617
2793	0.7957
2784	0.8211
2775	0.8402
2766	0.8549
2757	0.8605
2748	0.8631
2739	0.8601
2730	0.8482
2721	0.8575
2712	0.8667
2703	0.873
2694	0.8754
2685	0.8683
2676	0.8603
2667	0.8572
2658	0.864
2649	0.87
2640	0.8744
2631	0.8787
2622	0.8845
2613	0.889
2604	0.8935
2595	0.8972
2586	0.9008
2577	0.9041
2568	0.9072
2559	0.9102
2550	0.9137
2541	0.917
2532	0.9194
2523	0.9214
2514	0.9236
2505	0.9257
2496	0.9276
2487	0.929
2478	0.9317
2469	0.9329
2460	0.9337
2451	0.9339
2442	0.9339
2433	0.9333
2424	0.9326
2415	0.9322
2406	0.9335
2397	0.9332
2388	0.9344
2379	0.9337
2370	0.934
2361	0.9304
2352	0.9335
2343	0.9312
2334	0.9284
2325	0.9294
2316	0.9285
2307	0.9274
2298	0.9283
2289	0.9294
2280	0.9293
2271	0.9287
2262	0.9309
2253	0.9307
2244	0.9313
2235	0.9324
2226	0.9335
2217	0.9335
2208	0.9343
2199	0.9351
2190	0.9346
2181	0.935
2172	0.9368
2163	0.9357
2154	0.9357
2145	0.9357
2136	0.9353
2127	0.9345
2118	0.9342
2109	0.934
2100	0.9344
2091	0.9351
2082	0.9356
2073	0.9335
2064	0.9289
2055	0.9291
2046	0.9278
2037	0.9293
2028	0.9338
2019	0.9298
2010	0.9248
2001	0.9311
1992	0.9414
1983	0.9432
1974	0.9439
1965	0.9463
1956	0.9473
1947	0.9444
1938	0.9454
1929	0.9452
1920	0.9432
1911	0.9427
1902	0.9439
1893	0.944
1884	0.9437
1875	0.9465
1866	0.9447
1857	0.9417
1848	0.9406
1839	0.9448
1830	0.9451
1821	0.943
1812	0.9456
1803	0.9437
1794	0.9458
1785	0.946
1776	0.9439
1767	0.9444
1758	0.9445
1749	0.9428
1740	0.9434
1731	0.9456
1722	0.9456
1713	0.9462
1704	0.9487
1695	0.9474
1686	0.9446
1677	0.9472
1668	0.9502
1659	0.9476
1650	0.9532
1641	0.9551
1632	0.9524
1623	0.9447
1614	0.9446
1605	0.9372
1596	0.921
1587	0.8786
1578	0.8817
1569	0.8579
1560	0.8472
1551	0.8237
1542	0.8848
1533	0.9089
1524	0.9059
1515	0.9083
1506	0.9083
1497	0.8903
1488	0.8647
1479	0.7625
1470	0.1658
1461	0.2775
1452	0.5269
1443	0.6788
1434	0.8266
1425	0.8708
1416	0.8878
1407	0.8965
1398	0.8984
1389	0.8712
1380	0.5863
1371	0.7985
1362	0.8592
1353	0.8569
1344	0.8589
1335	0.8921
1326	0.8942
1317	0.8699
1308	0.8486
1299	0.8492
1290	0.8737
1281	0.9092
1272	0.9283
1263	0.933
1254	0.9361
1245	0.9439
1236	0.9511
1227	0.9543
1218	0.9563
1209	0.9609
1200	0.9608
1191	0.9597
1182	0.9392
1173	0.9528
1164	0.9563
1155	0.9559
1146	0.9449
1137	0.9468
1128	0.9603
1119	0.9686
1110	0.9589
1101	0.9514
1092	0.9494
1083	0.9362
1074	0.9301
1065	0.9377
1056	0.9441
1047	0.9519
1038	0.9563
1029	0.9585
1020	0.9607
1011	0.9681
1002	0.9664
993	0.96
984	0.9612
975	0.9632
966	0.9652
957	0.9654
948	0.9697
939	0.9651
930	0.9685
921	0.9661
912	0.9594
903	0.95
894	0.936
885	0.9294
876	0.9239
867	0.9216
858	0.9371
849	0.9815
840	0.9812
831	0.9735
822	0.9748
813	0.9703
804	0.976
795	0.9734
786	0.9608
777	0.9507
768	0.9417
759	0.933
750	0.9268
741	0.8908
732	0.837
723	0.6493
714	0.8523
705	0.9263
696	0.9736
687	0.9927
678	1.0026
669	1.0057
660	0.9853
651	0.9897
642	0.9857
633	0.9877
624	0.9935
615	0.9981
606	0.9995
597	1.0012
588	0.9993
579	0.9969
570	0.9984
561	0.9993
552	0.9978
543	0.9958
534	0.9917
525	0.9883
516	0.9826
507	0.9773
498	0.9714
489	0.9645
480	0.9571
471	0.9504
462	0.9431
