Infrared Spectrum: CYCLOOCTATETRAENE
Formula: C8 H8
CAS: 629-20-9
Class: COBLENTZ
Instrument: Not specified, most likely a prism, grating, or hybrid spectrometer.
Sampling: TRANSMISSION
Path length: 0.0043 CM
Resolution: 4
MICROMETERS	TRANSMITTANCE
1.001	0.969
1.04085	0.967
1.08071	0.966
1.12056	0.967
1.16042	0.966
1.20027	0.963
1.24013	0.962
1.27998	0.965
1.31984	0.966
1.35969	0.965
1.39954	0.959
1.4394	0.966
1.47925	0.962
1.51911	0.95
1.55896	0.929
1.59882	0.919
1.63867	0.958
1.67852	0.957
1.71838	0.95
1.75823	0.959
1.79809	0.958
1.83794	0.958
1.8778	0.954
1.91765	0.955
1.95751	0.957
1.99736	0.957
2.03721	0.947
2.07707	0.938
2.11692	0.933
2.15678	0.949
2.19663	0.939
2.23649	0.927
2.27634	0.937
2.31619	0.933
2.35605	0.934
2.3959	0.941
2.43576	0.931
2.47561	0.901
2.51547	0.859
2.55532	0.855
2.59518	0.913
2.63503	0.921
2.67488	0.913
2.71474	0.889
2.75459	0.889
2.79445	0.914
2.8343	0.929
2.87416	0.934
2.91401	0.934
2.95387	0.922
2.99372	0.915
3.03357	0.907
3.07343	0.871
3.11328	0.907
3.15314	0.907
3.19299	0.883
3.23285	0.74
3.2727	0.381
3.31255	0.037
3.35241	0.258
3.39226	0.47
3.43212	0.802
3.47197	0.838
3.51183	0.717
3.55168	0.851
3.59154	0.874
3.63139	0.851
3.67124	0.917
3.7111	0.926
3.75095	0.918
3.79081	0.921
3.83066	0.907
3.87052	0.918
3.91037	0.926
3.95022	0.93
3.99008	0.931
4.02993	0.93
4.06979	0.902
4.10964	0.879
4.1495	0.91
4.18935	0.897
4.22921	0.891
4.26906	0.891
4.30891	0.889
4.34877	0.905
4.38862	0.923
4.42848	0.925
4.46833	0.933
4.50819	0.93
4.54804	0.927
4.5879	0.923
4.62775	0.921
4.6676	0.927
4.70746	0.931
4.74731	0.934
4.78717	0.935
4.82702	0.931
4.86688	0.929
4.90673	0.922
4.94658	0.897
4.98644	0.874
5.02629	0.914
5.06615	0.91
5.106	0.898
5.14586	0.856
5.18571	0.759
5.22557	0.826
5.26542	0.881
5.30527	0.874
5.34513	0.848
5.38498	0.836
5.42484	0.748
5.46469	0.877
5.50455	0.905
5.5444	0.901
5.58426	0.824
5.62411	0.778
5.66396	0.822
5.70382	0.61
5.74367	0.713
5.78353	0.598
5.82338	0.756
5.86324	0.814
5.90309	0.81
5.94294	0.85
5.9828	0.84
6.02265	0.78
6.06251	0.411
6.10236	0.239
6.14222	0.459
6.18207	0.625
6.22193	0.651
6.26178	0.729
6.30163	0.794
6.34149	0.772
6.38134	0.815
6.4212	0.89
6.46105	0.905
6.50091	0.915
6.54076	0.922
6.58061	0.917
6.62047	0.918
6.66032	0.905
6.70018	0.891
6.74003	0.89
6.77989	0.882
6.81974	0.886
6.8596	0.87
6.89945	0.839
6.9393	0.814
6.97916	0.831
7.01901	0.854
7.05887	0.842
7.09872	0.763
7.13858	0.537
7.17843	0.717
7.21829	0.836
7.25814	0.864
7.29799	0.887
7.33785	0.872
7.3777	0.867
7.41756	0.883
7.45741	0.889
7.49727	0.895
7.53712	0.891
7.57697	0.882
7.61683	0.889
7.65668	0.893
7.69654	0.891
7.73639	0.883
7.77625	0.858
7.8161	0.848
7.85596	0.844
7.89581	0.836
7.93566	0.826
7.97552	0.82
8.01537	0.806
8.05523	0.756
8.09508	0.695
8.13494	0.53
8.17479	0.278
8.21464	0.358
8.2545	0.502
8.29435	0.441
8.33421	0.47
8.37406	0.684
8.41392	0.745
8.45377	0.783
8.49363	0.8
8.53348	0.818
8.57333	0.82
8.61319	0.835
8.65304	0.862
8.6929	0.872
8.73275	0.881
8.77261	0.882
8.81246	0.886
8.85232	0.891
8.89217	0.894
8.93202	0.895
8.97188	0.897
9.01173	0.895
9.05159	0.89
9.09144	0.891
9.1313	0.891
9.17115	0.887
9.211	0.885
9.25086	0.881
9.29071	0.878
9.33057	0.872
9.37042	0.859
9.41028	0.856
9.45013	0.848
9.48999	0.827
9.52984	0.796
9.56969	0.762
9.60955	0.737
9.6494	0.732
9.68926	0.745
9.72911	0.766
9.76897	0.784
9.80882	0.791
9.84867	0.798
9.88853	0.799
9.92838	0.791
9.96824	0.768
10.0081	0.717
10.0479	0.671
10.0878	0.641
10.1277	0.661
10.1675	0.676
10.2074	0.665
10.2472	0.64
10.2871	0.565
10.3269	0.437
10.3668	0.482
10.4066	0.585
10.4465	0.637
10.4863	0.628
10.5262	0.561
10.5661	0.401
10.6059	0.211
10.6458	0.364
10.6856	0.574
10.7255	0.701
10.7653	0.763
10.8052	0.787
10.845	0.796
10.8849	0.8
10.9247	0.788
10.9646	0.767
11.0045	0.745
11.0443	0.762
11.0842	0.794
11.124	0.816
11.1639	0.823
11.2037	0.814
11.2436	0.8
11.2834	0.807
11.3233	0.819
11.3631	0.819
11.403	0.811
11.4429	0.802
11.4827	0.808
11.5226	0.818
11.5624	0.824
11.6023	0.826
11.6421	0.823
11.682	0.819
11.7218	0.816
11.7617	0.811
11.8015	0.808
11.8414	0.806
11.8812	0.799
11.9211	0.787
11.961	0.779
12.0008	0.762
12.0407	0.739
12.0805	0.716
12.1204	0.687
12.1602	0.648
12.2001	0.602
12.2399	0.537
12.2798	0.47
12.3196	0.358
12.3595	0.233
12.3994	0.093
12.4392	0.001
12.4791	0
12.5189	0
12.5588	0
12.5986	0.004
12.6385	0.072
12.6783	0.171
12.7182	0.286
12.758	0.382
12.7979	0.457
12.8378	0.49
12.8776	0.498
12.9175	0.521
12.9573	0.59
12.9972	0.639
13.037	0.68
13.0769	0.692
13.1167	0.7
13.1566	0.7
13.1964	0.705
13.2363	0.713
13.2762	0.725
13.316	0.735
13.3559	0.74
13.3957	0.741
13.4356	0.74
13.4754	0.737
13.5153	0.732
13.5551	0.725
13.595	0.72
13.6348	0.717
13.6747	0.715
13.7146	0.712
13.7544	0.716
13.7943	0.708
13.8341	0.705
13.874	0.705
13.9138	0.703
13.9537	0.696
13.9935	0.687
14.0334	0.672
14.0732	0.66
14.1131	0.64
14.1529	0.618
14.1928	0.596
14.2327	0.56
14.2725	0.512
14.3124	0.463
14.3522	0.429
14.3921	0.402
14.4319	0.371
14.4718	0.326
14.5116	0.272
14.5515	0.208
14.5913	0.132
14.6312	0.068
14.6711	0.013
14.7109	0
14.7508	0
14.7906	0
14.8305	0
14.8703	0
14.9102	0
14.95	0
14.9899	0
15.0297	0
15.0696	0
15.1095	0.004
15.1493	0.009
15.1892	0.026
15.229	0.048
15.2689	0.07
15.3087	0.097
15.3486	0.12
15.3884	0.143
15.4283	0.161
15.4681	0.171
15.508	0.169
15.5479	0.157
15.5877	0.144
15.6276	0.131
15.6674	0.127
15.7073	0.14
15.7471	0.153
15.787	0.169
15.8268	0.176
15.8667	0.188
