Infrared Spectrum: OCTYNE-1
Formula: C8 H14
CAS: 629-05-0
State: SOLUTION (10% CCl4 FOR 3800-1330, 10% CS2 FOR 1330-450 CM^-^1)
Boiling point: 173-174 C AT 740 mmHg
Class: COBLENTZ
Instrument: Not specified, most likely a prism, grating, or hybrid spectrometer.
Sampling: TRANSMISSION
Path length: 0.0108 CM, 0.0105 CM
Resolution: 4
Origin: DOW CHEMICAL COMPANY
1/CM	TRANSMITTANCE
454.442	0.904
463.554	0.906
472.665	0.907
481.777	0.907
490.889	0.911
500	0.907
509.112	0.909
518.224	0.913
527.335	0.913
536.447	0.911
545.558	0.929
554.67	0.92
563.782	0.941
572.893	0.962
582.005	0.957
591.117	0.934
600.228	0.8931
609.34	0.7551
618.452	0.3452
627.563	0.005
636.675	0.049
645.787	0.3768
654.898	0.7208
664.01	0.833
673.122	0.902
682.233	0.941
691.345	0.955
700.456	0.95
709.568	0.911
718.68	0.765
727.791	0.845
736.903	0.902
746.015	0.929
755.126	0.921
764.238	0.888
773.35	0.913
782.461	0.8861
791.573	0.89
800.685	0.975
809.796	0.976
818.908	0.992
828.02	0.987
837.131	0.96
846.243	0.907
855.354	0.828
864.466	0.845
873.578	0.884
882.689	0.916
891.801	0.945
900.913	0.975
910.024	0.98
919.136	0.989
928.248	0.978
937.359	0.955
946.471	0.971
955.583	0.978
964.694	0.991
973.806	0.996
982.918	0.996
992.029	0.994
1001.14	0.985
1010.25	0.98
1019.36	0.968
1028.48	0.96
1037.59	0.957
1046.7	0.953
1055.81	0.955
1064.92	0.948
1074.03	0.946
1083.15	0.96
1092.26	0.959
1101.37	0.953
1110.48	0.909
1119.59	0.872
1128.7	0.907
1137.82	0.923
1146.93	0.936
1156.04	0.957
1165.15	0.953
1174.26	0.952
1183.37	0.941
1192.49	0.955
1201.6	0.946
1210.71	0.943
1219.82	0.909
1228.93	0.828
1238.04	0.6751
1247.16	0.618
1256.27	0.725
1265.38	0.812
1274.49	0.819
1283.6	0.828
1292.71	0.829
1301.83	0.82
1310.94	0.829
1320.05	0.835
1329.16	0.783
1338.27	0.891
1347.38	0.879
1356.5	0.875
1365.61	0.906
1374.72	0.843
1383.83	0.7849
1392.94	0.95
1402.05	0.959
1411.16	0.941
1420.28	0.909
1429.39	0.787
1438.5	0.67
1447.61	0.613
1456.72	0.368
1465.83	0.324
1474.95	0.6609
1484.06	0.854
1493.17	0.856
1502.28	0.831
1511.39	0.79
1520.5	0.744
1529.62	0.703
1538.73	0.613
1547.84	0.523
1556.95	0.537
1566.06	0.645
1575.17	0.702
1584.29	0.723
1593.4	0.7921
1602.51	0.891
1611.62	0.953
1620.73	0.985
1629.84	1.001
1638.96	1.019
1648.07	1.028
1657.18	1.012
1666.29	1.005
1675.4	1
1684.51	0.998
1693.63	0.996
1702.74	0.992
1711.85	0.985
1720.96	0.973
1730.07	0.971
1739.18	0.98
1748.3	0.996
1757.41	1
1766.52	1.003
1775.63	1.007
1784.74	1.003
1793.85	1.005
1802.97	1.003
1812.08	1.005
1821.19	0.996
1830.3	0.996
1839.41	0.996
1848.52	0.996
1857.64	0.996
1866.75	1.003
1875.86	1.001
1884.97	1.001
1894.08	1.007
1903.19	1.007
1912.31	1.007
1921.42	1.008
1930.53	1.008
1939.64	1.01
1948.75	1.008
1957.86	1.01
1966.98	1.007
1976.09	1.007
1985.2	1
1994.31	1
2003.42	0.998
2012.53	0.998
2021.65	1.001
2030.76	1.007
2039.87	1.0061
2048.98	1.0004
2058.09	1.007
2067.2	0.998
2076.32	1.0038
2085.43	1
2094.54	0.9973
2103.65	0.9733
2112.76	0.8876
2121.87	0.7253
2130.99	0.9786
2140.1	0.9966
2149.21	0.998
2158.32	1
2167.43	0.9998
2176.54	0.9985
2185.66	1.0035
2194.77	1.0046
2203.88	0.9996
2212.99	1.0014
2222.1	1.0047
2231.21	1.0027
2240.32	1.0009
2249.44	0.9995
2258.55	0.9937
2267.66	0.984
2276.77	0.98
2285.88	0.976
2294.99	0.976
2304.11	0.9781
2313.22	0.985
2322.33	0.987
2331.44	0.989
2340.55	0.996
2349.66	0.998
2358.78	1.001
2367.89	0.998
2377	0.996
2386.11	0.996
2395.22	0.994
2404.33	0.9978
2413.45	0.998
2422.56	1
2431.67	0.9977
2440.78	1
2449.89	0.998
2459	0.998
2468.12	0.9964
2477.23	0.996
2486.34	0.996
2495.45	0.996
2504.56	0.9965
2513.67	0.994
2522.79	0.991
2531.9	0.991
2541.01	0.987
2550.12	0.9856
2559.23	0.9827
2568.34	0.978
2577.46	0.975
2586.57	0.975
2595.68	0.973
2604.79	0.9698
2613.9	0.964
2623.01	0.96
2632.13	0.9525
2641.24	0.9469
2650.35	0.9455
2659.46	0.9375
2668.57	0.93
2677.68	0.925
2686.8	0.9323
2695.91	0.9525
2705.02	0.9517
2714.13	0.9401
2723.24	0.9271
2732.35	0.927
2741.47	0.936
2750.58	0.937
2759.69	0.9353
2768.8	0.929
2777.91	0.915
2787.02	0.8944
2796.14	0.8799
2805.25	0.8438
2814.36	0.805
2823.47	0.7478
2832.58	0.6408
2841.69	0.4567
2850.81	0.1386
2859.92	0.0199
2869.03	0.1112
2878.14	0.1873
2887.25	0.3029
2896.36	0.1734
2905.48	0.0538
2914.59	0.0093
2923.7	0.001
2932.81	0.0012
2941.92	0.0073
2951.03	0.0241
2960.15	0.0191
2969.26	0.0426
2978.37	0.3492
2987.48	0.6706
2996.59	0.765
3005.7	0.8399
3014.81	0.8698
3023.93	0.8977
3033.04	0.9129
3042.15	0.9286
3051.26	0.9388
3060.37	0.9525
3069.48	0.9568
3078.6	0.9638
3087.71	0.975
3096.82	0.9817
3105.93	0.9848
3115.04	0.9886
3124.15	0.991
3133.27	0.991
3142.38	0.992
3151.49	0.996
3160.6	0.9995
3169.71	0.996
3178.82	0.996
3187.94	1
3197.05	1
3206.16	1.001
3215.27	1.005
3224.38	1.005
3233.49	1.005
3242.61	1.0025
3251.72	1.0004
3260.83	0.9898
3269.94	0.977
3279.05	0.9363
3288.16	0.8862
3297.28	0.6566
3306.39	0.611
3315.5	0.2614
3324.61	0.1071
3333.72	0.6599
3342.83	0.9009
3351.95	0.9238
3361.06	0.9591
3370.17	0.9892
3379.28	1.0004
3388.39	1.0074
3397.5	1.0144
3406.62	1.017
3415.73	1.021
3424.84	1.021
3433.95	1.017
3443.06	1.0147
3452.17	1.015
3461.29	1.014
3470.4	1.014
3479.51	1.0115
3488.62	1.0085
3497.73	1.012
3506.84	1.012
3515.96	1.01
3525.07	1.01
3534.18	1.008
3543.29	1.008
3552.4	1.005
3561.51	1.008
3570.63	1.0079
3579.74	1
3588.85	1
3597.96	1.0001
3607.07	1.0009
3616.18	1.0001
3625.3	0.9999
3634.41	0.991
3643.52	0.9961
3652.63	0.996
3661.74	0.992
3670.85	1
3679.97	0.9981
3689.08	0.998
3698.19	0.9939
3707.3	0.998
3716.41	1.001
3725.52	1.001
3734.64	1.003
3743.75	1.0068
3752.86	1.0071
3761.97	1.001
