Infrared Spectrum: N-HEPTYL BROMIDE
Formula: C7 H15 Br
CAS: 629-04-9
State: LIQUID
Boiling point: 174-5 C
Class: COBLENTZ
Instrument: Not specified, most likely a prism, grating, or hybrid spectrometer.
Sampling: TRANSMISSION
Path length: 0.0037 CM
Resolution: 4
Origin: CONTINENTAL OIL CO. (HAROLD F. SMITH)
MICROMETERS	TRANSMITTANCE
2.025	0.982
2.06213	0.989
2.09927	0.987
2.1364	0.979
2.17353	0.97
2.21067	0.921
2.2478	0.899
2.28493	0.874
2.32207	0.877
2.3592	0.888
2.39633	0.894
2.43347	0.9
2.4706	0.916
2.50773	0.928
2.54487	0.944
2.582	0.952
2.61913	0.953
2.65627	0.959
2.6934	0.955
2.73053	0.95
2.76767	0.942
2.8048	0.938
2.84193	0.959
2.87907	0.955
2.9162	0.953
2.95333	0.953
2.99047	0.953
3.0276	0.952
3.06473	0.95
3.10186	0.934
3.139	0.911
3.17613	0.907
3.21326	0.893
3.2504	0.868
3.28753	0.797
3.32466	0.537
3.3618	0.219
3.39893	0.023
3.43606	0.029
3.4732	0.041
3.51033	0.083
3.54746	0.309
3.5846	0.705
3.62173	0.818
3.65886	0.808
3.696	0.849
3.73313	0.825
3.77026	0.863
3.8074	0.885
3.84453	0.9
3.88166	0.914
3.9188	0.925
3.95593	0.93
3.99306	0.939
4.0302	0.939
4.06733	0.939
4.10446	0.938
4.1416	0.933
4.17873	0.933
4.21586	0.952
4.253	0.959
4.29013	0.961
4.32726	0.936
4.3644	0.941
4.40153	0.936
4.43866	0.936
4.4758	0.939
4.51293	0.939
4.55006	0.938
4.5872	0.941
4.62433	0.947
4.66146	0.95
4.6986	0.953
4.73573	0.95
4.77286	0.955
4.81	0.952
4.84713	0.952
4.88426	0.948
4.9214	0.945
4.95853	0.952
4.99566	0.952
5.0328	0.956
5.06993	0.959
5.10706	0.959
5.1442	0.958
5.18133	0.959
5.21846	0.959
5.25559	0.961
5.29273	0.959
5.32986	0.962
5.36699	0.961
5.40413	0.967
5.44126	0.965
5.47839	0.967
5.51553	0.962
5.55266	0.967
5.58979	0.965
5.62693	0.969
5.66406	0.967
5.70119	0.97
5.73833	0.972
5.77546	0.958
5.81259	0.959
5.84973	0.965
5.88686	0.953
5.92399	0.958
5.96113	0.952
5.99826	0.953
6.03539	0.959
6.07253	0.95
6.10966	0.948
6.14679	0.945
6.18393	0.941
6.22106	0.941
6.25819	0.941
6.29533	0.938
6.33246	0.941
6.36959	0.933
6.40673	0.939
6.44386	0.922
6.48099	0.93
6.51813	0.907
6.55526	0.908
6.59239	0.882
6.62953	0.856
6.66666	0.815
6.70379	0.712
6.74093	0.585
6.77806	0.103
6.81519	0.083
6.85233	0.116
6.88946	0.19
6.92659	0.239
6.96373	0.261
7.00086	0.38
7.03799	0.67
7.07513	0.756
7.11226	0.791
7.14939	0.798
7.18653	0.75
7.22366	0.496
7.26079	0.427
7.29792	0.633
7.33506	0.679
7.37219	0.685
7.40932	0.701
7.44646	0.681
7.48359	0.693
7.52072	0.733
7.55786	0.743
7.59499	0.674
7.63212	0.617
7.66926	0.518
7.70639	0.431
7.74352	0.459
7.78066	0.472
7.81779	0.444
7.85492	0.39
7.89206	0.25
7.92919	0.187
7.96632	0.342
8.00346	0.266
8.04059	0.187
8.07772	0.269
8.11486	0.281
8.15199	0.256
8.18912	0.442
8.22626	0.673
8.26339	0.653
8.30052	0.462
8.33766	0.606
8.37479	0.722
8.41192	0.791
8.44906	0.82
8.48619	0.842
8.52332	0.828
8.56046	0.854
8.59759	0.871
8.63472	0.866
8.67186	0.869
8.70899	0.882
8.74612	0.902
8.78326	0.911
8.82039	0.911
8.85752	0.907
8.89466	0.891
8.93179	0.852
8.96892	0.821
9.00606	0.818
9.04319	0.837
9.08032	0.852
9.11746	0.848
9.15459	0.825
9.19172	0.823
9.22886	0.832
9.26599	0.829
9.30312	0.832
9.34026	0.829
9.37739	0.812
9.41452	0.781
9.45165	0.77
9.48879	0.784
9.52592	0.812
9.56305	0.842
9.60019	0.856
9.63732	0.86
9.67445	0.86
9.71159	0.856
9.74872	0.862
9.78585	0.868
9.82299	0.863
9.86012	0.851
9.89725	0.846
9.93439	0.848
9.97152	0.84
10.0087	0.834
10.0458	0.821
10.0829	0.801
10.1201	0.794
10.1572	0.783
10.1943	0.775
10.2315	0.778
10.2686	0.8
10.3057	0.815
10.3429	0.815
10.38	0.801
10.4171	0.773
10.4543	0.772
10.4914	0.789
10.5285	0.809
10.5657	0.832
10.6028	0.849
10.6399	0.857
10.6771	0.849
10.7142	0.832
10.7513	0.831
10.7885	0.832
10.8256	0.835
10.8627	0.849
10.8999	0.86
10.937	0.86
10.9741	0.848
11.0113	0.82
11.0484	0.781
11.0855	0.76
11.1227	0.743
11.1598	0.739
11.1969	0.753
11.2341	0.772
11.2712	0.78
11.3083	0.783
11.3455	0.812
11.3826	0.842
11.4197	0.86
11.4569	0.874
11.494	0.873
11.5311	0.866
11.5683	0.865
11.6054	0.863
11.6425	0.868
11.6797	0.874
11.7168	0.885
11.7539	0.893
11.7911	0.891
11.8282	0.886
11.8653	0.876
11.9025	0.871
11.9396	0.857
11.9767	0.84
12.0139	0.828
12.051	0.821
12.0881	0.823
12.1253	0.834
12.1624	0.852
12.1995	0.865
12.2367	0.879
12.2738	0.888
12.3109	0.891
12.3481	0.893
12.3852	0.897
12.4223	0.893
12.4595	0.88
12.4966	0.863
12.5337	0.84
12.5708	0.811
12.608	0.766
12.6451	0.722
12.6822	0.71
12.7194	0.73
12.7565	0.767
12.7936	0.795
12.8308	0.812
12.8679	0.814
12.905	0.814
12.9422	0.801
12.9793	0.792
13.0164	0.783
13.0536	0.764
13.0907	0.749
13.1278	0.738
13.165	0.735
13.2021	0.73
13.2392	0.721
13.2764	0.712
13.3135	0.698
13.3506	0.688
13.3878	0.679
13.4249	0.671
13.462	0.662
13.4992	0.659
13.5363	0.659
13.5734	0.647
13.6106	0.6
13.6477	0.541
13.6848	0.481
13.722	0.396
13.7591	0.332
13.7962	0.317
13.8334	0.348
13.8705	0.424
13.9076	0.526
13.9448	0.595
13.9819	0.651
14.019	0.695
14.0562	0.729
14.0933	0.76
14.1304	0.786
14.1676	0.809
14.2047	0.826
14.2418	0.839
14.279	0.849
14.3161	0.857
14.3532	0.862
14.3904	0.868
14.4275	0.869
14.4646	0.873
14.5018	0.873
14.5389	0.876
14.576	0.877
14.6132	0.876
14.6503	0.873
14.6874	0.868
14.7246	0.866
14.7617	0.86
14.7988	0.852
14.836	0.848
14.8731	0.829
14.9102	0.82
14.9474	0.784
14.9845	0.758
15.0216	0.729
15.0588	0.719
15.0959	0.708
15.133	0.691
15.1702	0.664
15.2073	0.623
15.2444	0.571
15.2816	0.503
15.3187	0.448
15.3558	0.393
15.393	0.356
15.4301	0.318
15.4672	0.306
15.5044	0.309
15.5415	0.323
15.5786	0.356
15.6158	0.404
15.6529	0.445
15.69	0.489
15.7272	0.537
15.7643	0.572
15.8014	0.605
15.8386	0.631
15.8757	0.65
15.9128	0.664
15.95	0.676
15.9871	0.687
