Infrared Spectrum: PHOSPHONIC ACID, (2-CHLOROETHYL)-, BIS(2-CHLOROETHYL) ESTER
Formula: C6 H12 Cl3 O3 P
CAS: 6294-34-4
Boiling point: 170.2 C AT 5 mmHg
Class: COBLENTZ
Instrument: Not specified, most likely a prism, grating, or hybrid spectrometer.
Sampling: TRANSMISSION
Path length: SMEAR
Resolution: 4
Origin: TENNESSEE EASTMAN COMPANY, RESEARCH LABORATORIES
MICROMETERS	TRANSMITTANCE
2.054	0.955
2.09398	0.956
2.13395	0.958
2.17393	0.96
2.2139	0.958
2.25388	0.92
2.29386	0.916
2.33383	0.928
2.37381	0.928
2.41379	0.93
2.45376	0.95
2.49374	0.951
2.53371	0.95
2.57369	0.961
2.61367	0.963
2.65364	0.963
2.69362	0.976
2.7336	0.966
2.77357	0.953
2.81355	0.93
2.85352	0.898
2.8935	0.875
2.93348	0.875
2.97345	0.92
3.01343	0.936
3.05341	0.95
3.09338	0.953
3.13336	0.955
3.17333	0.956
3.21331	0.953
3.25329	0.928
3.29326	0.886
3.33324	0.755
3.37322	0.58
3.41319	0.563
3.45317	0.713
3.49314	0.841
3.53312	0.883
3.5731	0.931
3.61307	0.94
3.65305	0.93
3.69302	0.94
3.733	0.958
3.77298	0.961
3.81295	0.965
3.85293	0.97
3.89291	0.971
3.93288	0.973
3.97286	0.98
4.01283	0.975
4.05281	0.97
4.09279	0.968
4.13276	0.968
4.17274	0.971
4.21272	0.976
4.25269	1.011
4.29267	1.003
4.33264	0.991
4.37262	0.971
4.4126	0.981
4.45257	0.981
4.49255	0.981
4.53253	0.985
4.5725	0.993
4.61248	0.996
4.65245	0.996
4.69243	0.993
4.73241	0.991
4.77238	0.998
4.81236	0.998
4.85234	0.996
4.89231	0.991
4.93229	0.99
4.97226	0.99
5.01224	0.995
5.05222	1
5.09219	1
5.13217	0.995
5.17214	0.993
5.21212	0.988
5.2521	0.988
5.29207	0.986
5.33205	0.97
5.37203	0.965
5.412	0.968
5.45198	0.963
5.49195	0.97
5.53193	0.971
5.57191	0.973
5.61188	0.963
5.65186	0.981
5.69184	0.968
5.73181	0.975
5.77179	0.96
5.81176	0.96
5.85174	0.968
5.89172	0.983
5.93169	0.966
5.97167	0.975
6.01165	0.971
6.05162	0.973
6.0916	0.966
6.13157	0.961
6.17155	0.965
6.21153	0.97
6.2515	0.983
6.29148	0.993
6.33146	1.001
6.37143	0.998
6.41141	0.995
6.45138	0.986
6.49136	0.983
6.53134	0.981
6.57131	0.978
6.61129	0.975
6.65127	0.963
6.69124	0.953
6.73122	0.883
6.77119	0.821
6.81117	0.696
6.85115	0.626
6.89112	0.59
6.9311	0.663
6.97107	0.548
7.01105	0.653
7.05103	0.725
7.091	0.745
7.13098	0.75
7.17096	0.693
7.21093	0.688
7.25091	0.778
7.29088	0.863
7.33086	0.9
7.37084	0.9
7.41081	0.895
7.45079	0.866
7.49077	0.798
7.53074	0.651
7.57072	0.423
7.61069	0.243
7.65067	0.216
7.69065	0.313
7.73062	0.46
7.7706	0.421
7.81058	0.293
7.85055	0.203
7.89053	0.143
7.9305	0.101
7.97048	0.09
8.01046	0.08
8.05043	0.085
8.09041	0.168
8.13039	0.326
8.17036	0.383
8.21034	0.366
8.25031	0.373
8.29029	0.393
8.33027	0.385
8.37024	0.421
8.41022	0.54
8.45019	0.675
8.49017	0.74
8.53015	0.776
8.57012	0.795
8.6101	0.801
8.65008	0.8
8.69005	0.793
8.73003	0.756
8.77	0.72
8.80998	0.666
8.84996	0.621
8.88993	0.595
8.92991	0.546
8.96989	0.448
9.00986	0.333
9.04984	0.206
9.08981	0.115
9.12979	0.085
9.16977	0.07
9.20974	0.066
9.24972	0.065
9.2897	0.065
9.32967	0.071
9.36965	0.105
9.40962	0.151
9.4496	0.168
9.48958	0.14
9.52955	0.095
9.56953	0.071
9.60951	0.061
9.64948	0.055
9.68946	0.045
9.72943	0.043
9.76941	0.043
9.80939	0.043
9.84936	0.05
9.88934	0.06
9.92931	0.085
9.96929	0.123
10.0093	0.175
10.0492	0.236
10.0892	0.261
10.1292	0.271
10.1692	0.265
10.2091	0.226
10.2491	0.16
10.2891	0.108
10.3291	0.081
10.3691	0.085
10.409	0.101
10.449	0.123
10.489	0.128
10.529	0.13
10.5689	0.135
10.6089	0.151
10.6489	0.181
10.6889	0.213
10.7288	0.231
10.7688	0.236
10.8088	0.24
10.8488	0.245
10.8887	0.251
10.9287	0.261
10.9687	0.278
11.0087	0.328
11.0486	0.365
11.0886	0.438
11.1286	0.508
11.1686	0.571
11.2086	0.611
11.2485	0.635
11.2885	0.645
11.3285	0.643
11.3685	0.633
11.4084	0.616
11.4484	0.596
11.4884	0.573
11.5284	0.555
11.5683	0.546
11.6083	0.526
11.6483	0.513
11.6883	0.505
11.7282	0.488
11.7682	0.461
11.8082	0.446
11.8482	0.443
11.8881	0.453
11.9281	0.48
11.9681	0.491
12.0081	0.5
12.0481	0.498
12.088	0.475
12.128	0.448
12.168	0.438
12.208	0.43
12.2479	0.423
12.2879	0.411
12.3279	0.4
12.3679	0.391
12.4078	0.393
12.4478	0.42
12.4878	0.433
12.5278	0.445
12.5677	0.446
12.6077	0.425
12.6477	0.401
12.6877	0.368
12.7277	0.345
12.7676	0.34
12.8076	0.343
12.8476	0.363
12.8876	0.39
12.9275	0.418
12.9675	0.44
13.0075	0.453
13.0475	0.471
13.0874	0.481
13.1274	0.495
13.1674	0.506
13.2074	0.52
13.2473	0.533
13.2873	0.555
13.3273	0.57
13.3673	0.588
13.4072	0.608
13.4472	0.623
13.4872	0.628
13.5272	0.63
13.5672	0.63
13.6071	0.63
13.6471	0.623
13.6871	0.62
13.7271	0.616
13.767	0.616
13.807	0.616
13.847	0.616
13.887	0.615
13.9269	0.613
13.9669	0.606
14.0069	0.598
14.0469	0.585
14.0868	0.581
14.1268	0.578
14.1668	0.58
14.2068	0.583
14.2467	0.591
14.2867	0.603
14.3267	0.621
14.3667	0.631
14.4067	0.646
14.4466	0.665
14.4866	0.678
14.5266	0.688
14.5666	0.695
14.6065	0.696
14.6465	0.693
14.6865	0.68
14.7265	0.64
14.7664	0.6
14.8064	0.556
14.8464	0.495
14.8864	0.431
14.9263	0.401
14.9663	0.388
15.0063	0.378
15.0463	0.37
15.0862	0.368
15.1262	0.375
15.1662	0.413
15.2062	0.448
15.2462	0.49
15.2861	0.526
15.3261	0.558
15.3661	0.581
15.4061	0.591
15.446	0.606
15.486	0.633
15.526	0.646
15.566	0.655
15.6059	0.668
15.6459	0.675
15.6859	0.683
15.7259	0.693
15.7658	0.698
15.8058	0.7
15.8458	0.705
15.8858	0.708
15.9257	0.711
15.9657	0.713
16.0057	0.713
