Infrared Spectrum: n-HEXYL SULFIDE
Formula: C12 H26 S
CAS: 6294-31-1
State: LIQUID
Boiling point: 126-129 C AT 9 mmHg
Class: COBLENTZ
Instrument: Not specified, most likely a prism, grating, or hybrid spectrometer.
Sampling: TRANSMISSION
Path length: 0.005 CM
Resolution: 4
Origin: WYANDOTTE CHEMICALS CORP., WYANDOTTE, MICHIGAN, USA
MICROMETERS	TRANSMITTANCE
2.025	0.992
2.06212	0.998
2.09923	0.989
2.13635	0.984
2.17347	0.939
2.21059	0.823
2.2477	0.809
2.28482	0.819
2.32194	0.822
2.35906	0.826
2.39617	0.846
2.43329	0.879
2.47041	0.904
2.50753	0.901
2.54464	0.904
2.58176	0.901
2.61888	0.91
2.656	0.908
2.69311	0.902
2.73023	0.911
2.76735	0.905
2.80446	0.925
2.84158	0.925
2.8787	0.924
2.91582	0.921
2.95293	0.908
2.99005	0.902
3.02717	0.904
3.06429	0.897
3.1014	0.859
3.13852	0.816
3.17564	0.809
3.21276	0.797
3.24987	0.721
3.28699	0.598
3.32411	0.289
3.36122	0.027
3.39834	0.023
3.43546	0.027
3.47258	0.027
3.50969	0.032
3.54681	0.2
3.58393	0.489
3.62105	0.656
3.65816	0.649
3.69528	0.678
3.7324	0.697
3.76952	0.698
3.80663	0.741
3.84375	0.769
3.88087	0.808
3.91799	0.817
3.9551	0.823
3.99222	0.826
4.02934	0.85
4.06645	0.851
4.10357	0.856
4.14069	0.842
4.17781	0.84
4.21492	0.84
4.25204	0.85
4.28916	0.865
4.32628	0.853
4.36339	0.851
4.40051	0.845
4.43763	0.851
4.47475	0.851
4.51186	0.845
4.54898	0.846
4.5861	0.843
4.62322	0.85
4.66033	0.848
4.69745	0.845
4.73457	0.851
4.77168	0.856
4.8088	0.863
4.84592	0.862
4.88304	0.853
4.92015	0.856
4.95727	0.851
4.99439	0.843
5.03151	0.85
5.06862	0.862
5.10574	0.867
5.14286	0.867
5.17998	0.863
5.21709	0.862
5.25421	0.862
5.29133	0.867
5.32845	0.865
5.36556	0.871
5.40268	0.868
5.4398	0.871
5.47691	0.862
5.51403	0.867
5.55115	0.86
5.58827	0.865
5.62538	0.863
5.6625	0.862
5.69962	0.86
5.73674	0.85
5.77385	0.843
5.81097	0.839
5.84809	0.836
5.88521	0.833
5.92232	0.826
5.95944	0.823
5.99656	0.822
6.03367	0.826
6.07079	0.822
6.10791	0.819
6.14503	0.817
6.18214	0.812
6.21926	0.812
6.25638	0.812
6.2935	0.808
6.33061	0.797
6.36773	0.797
6.40485	0.78
6.44197	0.775
6.47908	0.755
6.5162	0.748
6.55332	0.727
6.59044	0.707
6.62755	0.65
6.66467	0.608
6.70179	0.497
6.7389	0.35
6.77602	0.038
6.81314	0.038
6.85026	0.047
6.88737	0.078
6.92449	0.109
6.96161	0.182
6.99873	0.267
7.03584	0.302
7.07296	0.5
7.11008	0.581
7.1472	0.585
7.18431	0.548
7.22143	0.231
7.25855	0.213
7.29567	0.421
7.33278	0.493
7.3699	0.491
7.40702	0.468
7.44413	0.443
7.48125	0.553
7.51837	0.618
7.55549	0.562
7.5926	0.443
7.62972	0.363
7.66684	0.321
7.70396	0.323
7.74107	0.293
7.77819	0.253
7.81531	0.34
7.85243	0.462
7.88954	0.381
7.92666	0.267
7.96378	0.282
8.0009	0.329
8.03801	0.298
8.07513	0.352
8.11225	0.537
8.14936	0.632
8.18648	0.593
8.2236	0.443
8.26072	0.353
8.29783	0.462
8.33495	0.562
8.37207	0.633
8.40919	0.658
8.4463	0.659
8.48342	0.642
8.52054	0.649
8.55766	0.683
8.59477	0.717
8.63189	0.752
8.66901	0.777
8.70612	0.802
8.74324	0.812
8.78036	0.817
8.81748	0.812
8.85459	0.808
8.89171	0.766
8.92883	0.667
8.96595	0.639
9.00306	0.649
9.04018	0.656
9.0773	0.672
9.11442	0.669
9.15153	0.681
9.18865	0.69
9.22577	0.697
9.26289	0.697
9.3	0.697
9.33712	0.703
9.37424	0.703
9.41135	0.723
9.44847	0.712
9.48559	0.673
9.52271	0.67
9.55982	0.707
9.59694	0.727
9.63406	0.737
9.67118	0.737
9.70829	0.741
9.74541	0.752
9.78253	0.746
9.81965	0.729
9.85676	0.727
9.89388	0.721
9.931	0.712
9.96812	0.692
10.0052	0.678
10.0423	0.663
10.0795	0.65
10.1166	0.644
10.1537	0.652
10.1908	0.656
10.2279	0.669
10.2651	0.669
10.3022	0.672
10.3393	0.659
10.3764	0.649
10.4135	0.672
10.4506	0.689
10.4878	0.707
10.5249	0.743
10.562	0.766
10.5991	0.775
10.6362	0.788
10.6733	0.788
10.7105	0.782
10.7476	0.766
10.7847	0.763
10.8218	0.748
10.8589	0.727
10.896	0.709
10.9332	0.701
10.9703	0.715
11.0074	0.727
11.0445	0.738
11.0816	0.735
11.1188	0.732
11.1559	0.712
11.193	0.661
11.2301	0.629
11.2672	0.619
11.3043	0.652
11.3415	0.672
11.3786	0.672
11.4157	0.67
11.4528	0.658
11.4899	0.663
11.527	0.672
11.5642	0.675
11.6013	0.67
11.6384	0.661
11.6755	0.653
11.7126	0.659
11.7497	0.663
11.7869	0.67
11.824	0.697
11.8611	0.712
11.8982	0.726
11.9353	0.732
11.9725	0.74
12.0096	0.746
12.0467	0.746
12.0838	0.732
12.1209	0.727
12.158	0.715
12.1952	0.707
12.2323	0.704
12.2694	0.692
12.3065	0.681
12.3436	0.663
12.3807	0.658
12.4179	0.652
12.455	0.658
12.4921	0.659
12.5292	0.656
12.5663	0.638
12.6034	0.619
12.6406	0.612
12.6777	0.621
12.7148	0.632
12.7519	0.632
12.789	0.636
12.8262	0.632
12.8633	0.632
12.9004	0.618
12.9375	0.604
12.9746	0.602
13.0117	0.598
13.0489	0.573
13.086	0.562
13.1231	0.542
13.1602	0.533
13.1973	0.522
13.2344	0.517
13.2716	0.517
13.3087	0.513
13.3458	0.493
13.3829	0.482
13.42	0.462
13.4571	0.443
13.4943	0.428
13.5314	0.401
13.5685	0.383
13.6056	0.353
13.6427	0.343
13.6799	0.318
13.717	0.293
13.7541	0.264
13.7912	0.245
13.8283	0.244
13.8654	0.273
13.9026	0.312
13.9397	0.343
13.9768	0.38
14.0139	0.421
14.051	0.452
14.0881	0.499
14.1253	0.527
14.1624	0.57
14.1995	0.591
14.2366	0.618
14.2737	0.636
14.3108	0.658
14.348	0.672
14.3851	0.69
14.4222	0.701
14.4593	0.718
14.4964	0.723
14.5336	0.727
14.5707	0.729
14.6078	0.737
14.6449	0.737
14.682	0.735
14.7191	0.735
14.7563	0.732
14.7934	0.732
14.8305	0.737
14.8676	0.737
14.9047	0.737
14.9418	0.74
14.979	0.735
15.0161	0.712
15.0532	0.709
15.0903	0.717
15.1274	0.731
15.1645	0.731
15.2017	0.726
15.2388	0.726
15.2759	0.726
15.313	0.712
15.3501	0.71
15.3872	0.703
15.4244	0.7
15.4615	0.701
15.4986	0.701
15.5357	0.701
15.5728	0.706
15.61	0.704
15.6471	0.71
15.6842	0.71
15.7213	0.707
15.7584	0.698
15.7955	0.689
15.8327	0.692
15.8698	0.684
15.9069	0.687
15.944	0.689
15.9811	0.68
