Infrared Spectrum: 2-CHLORO-3-AMINOPYRIDINE
Formula: C5 H5 Cl N2
CAS: 6298-19-7
State: SOLUTION (7% IN CHCl3)
Class: COBLENTZ
Instrument: PERKIN-ELMER
Sampling: TRANSMISSION
Path length: 0.010 CM CELL
Resolution: 4
Origin: ABBOTT LABORATORIES - WASHBURN
MICROMETERS	TRANSMITTANCE
2.507	0.88
2.54015	0.878
2.57331	0.877
2.60646	0.88
2.63962	0.8802
2.67277	0.8832
2.70593	0.887
2.73908	0.885
2.77224	0.893
2.80539	0.8829
2.83855	0.8266
2.8717	0.575
2.90486	0.6575
2.93801	0.482
2.97117	0.5871
3.00432	0.6862
3.03748	0.7484
3.07063	0.8122
3.10379	0.8129
3.13694	0.797
3.1701	0.8171
3.20325	0.845
3.23641	0.8519
3.26956	0.8017
3.30272	0.7633
3.33587	0.494
3.36903	0.6312
3.40218	0.7858
3.43534	0.8492
3.46849	0.8701
3.50165	0.8902
3.5348	0.895
3.56796	0.897
3.60111	0.898
3.63427	0.903
3.66742	0.907
3.70058	0.907
3.73373	0.907
3.76689	0.907
3.80004	0.907
3.8332	0.908
3.86635	0.907
3.89951	0.907
3.93266	0.8917
3.96582	0.872
3.99897	0.875
4.03213	0.87
4.06528	0.868
4.09844	0.867
4.13159	0.867
4.16475	0.868
4.1979	0.8684
4.23106	0.877
4.26421	0.883
4.29737	0.8921
4.33052	0.893
4.36368	0.893
4.39683	0.8896
4.42999	0.885
4.46314	0.885
4.4963	0.885
4.52945	0.883
4.56261	0.8829
4.59576	0.8818
4.62892	0.878
4.66207	0.872
4.69523	0.872
4.72838	0.867
4.76154	0.868
4.79469	0.8728
4.82785	0.872
4.861	0.87
4.89416	0.873
4.92731	0.87
4.96047	0.87
4.99362	0.87
5.02678	0.867
5.05993	0.867
5.09309	0.868
5.12624	0.868
5.1594	0.867
5.19255	0.8456
5.22571	0.8345
5.25886	0.8518
5.29202	0.8608
5.32517	0.8597
5.35833	0.8484
5.39148	0.84
5.42464	0.852
5.45779	0.855
5.49095	0.857
5.5241	0.8541
5.55726	0.8391
5.59041	0.837
5.62357	0.8412
5.65672	0.8497
5.68988	0.854
5.72303	0.854
5.75619	0.8544
5.78934	0.854
5.8225	0.854
5.85565	0.8535
5.88881	0.8419
5.92196	0.83
5.95512	0.8319
5.98827	0.832
6.02143	0.8148
6.05458	0.7945
6.08774	0.7533
6.12089	0.6423
6.15405	0.3773
6.1872	0.1337
6.22036	0.1103
6.25351	0.4797
6.28667	0.5957
6.31982	0.6166
6.35298	0.5772
6.38613	0.317
6.41929	0.5102
6.45244	0.7014
6.4856	0.7635
6.51875	0.7813
6.55191	0.784
6.58506	0.7853
6.61822	0.788
6.65137	0.7866
6.68453	0.786
6.71768	0.784
6.75084	0.7835
6.78399	0.7734
6.81715	0.6127
6.8503	0.2361
6.88346	0.1789
6.91661	0.2902
6.94977	0.32
6.98292	0.2496
7.01608	0.09
7.04923	0.3947
7.08239	0.5491
7.11554	0.6998
7.1487	0.743
7.18185	0.7763
7.21501	0.8077
7.24816	0.815
7.28132	0.7933
7.31447	0.7988
7.34763	0.8099
7.38078	0.8167
7.41394	0.826
7.44709	0.8211
7.48025	0.8107
7.5134	0.809
7.54656	0.8004
7.57971	0.7334
7.61287	0.4332
7.64602	0.341
7.67918	0.4995
7.71233	0.6359
7.74549	0.7095
7.77864	0.7341
7.8118	0.731
7.84495	0.718
7.87811	0.7093
7.91126	0.608
7.94442	0.5563
7.97757	0.6342
8.01073	0.6676
8.04388	0.6686
8.07704	0.6346
8.11019	0.5881
8.14335	0.523
8.1765	0.474
8.20966	0.4741
8.24281	0.4801
8.27597	0.49
8.30912	0.4948
8.34228	0.5042
8.37543	0.5449
8.40859	0.6331
8.44174	0.7098
8.4749	0.7565
8.50805	0.759
8.54121	0.7585
8.57436	0.759
8.60752	0.7727
8.64067	0.7807
8.67383	0.7638
8.70698	0.7285
8.74014	0.6456
8.77329	0.5891
8.80645	0.577
8.8396	0.4231
8.87276	0.5073
8.90591	0.5878
8.93907	0.63
8.97222	0.5313
9.00538	0.3635
9.03853	0.2286
9.07169	0.142
9.10484	0.134
9.138	0.1453
9.17115	0.3134
9.20431	0.4424
9.23746	0.5435
9.27062	0.5906
9.30377	0.625
9.33693	0.64
9.37008	0.5991
9.40324	0.6244
9.43639	0.653
9.46955	0.6239
9.5027	0.598
9.53586	0.615
9.56901	0.618
9.60217	0.6128
9.63532	0.5802
9.66848	0.5799
9.70163	0.6294
9.73479	0.7162
9.76794	0.757
9.8011	0.7816
9.83425	0.7915
9.86741	0.7965
9.90056	0.7994
9.93372	0.8
9.96687	0.797
10	0.796
10.0332	0.792
10.0663	0.786
10.0995	0.789
10.1326	0.796
10.1658	0.799
10.199	0.802
10.2321	0.802
10.2653	0.802
10.2984	0.8
10.3316	0.7995
10.3647	0.797
10.3979	0.794
10.431	0.7849
10.4642	0.7719
10.4974	0.771
10.5305	0.784
10.5637	0.791
10.5968	0.792
10.63	0.7923
10.6631	0.794
10.6963	0.796
10.7294	0.7964
10.7626	0.796
10.7957	0.794
10.8289	0.791
10.8621	0.787
10.8952	0.781
10.9284	0.7769
10.9615	0.776
10.9947	0.776
11.0278	0.776
11.061	0.772
11.0941	0.7718
11.1273	0.7714
11.1605	0.767
11.1936	0.7699
11.2268	0.7679
11.2599	0.769
11.2931	0.767
11.3262	0.766
11.3594	0.766
11.3925	0.764
11.4257	0.764
11.4588	0.764
11.492	0.764
11.5252	0.7575
11.5583	0.7524
11.5915	0.7417
11.6246	0.7239
11.6578	0.7052
11.6909	0.6799
11.7241	0.666
11.7572	0.6883
11.7904	0.688
11.8236	0.6825
11.8567	0.6693
11.8899	0.658
11.923	0.6647
11.9562	0.674
11.9893	0.6926
12.0225	0.7079
12.0556	0.721
12.0888	0.7216
12.1219	0.7142
12.1551	0.6971
12.1883	0.6812
12.2214	0.6623
12.2546	0.658
12.2877	0.6615
12.3209	0.6685
12.354	0.671
12.3872	0.6681
12.4203	0.6615
12.4535	0.646
12.4867	0.6302
12.5198	0.6035
12.553	0.581
12.5861	0.55
12.6193	0.547
12.6524	0.547
12.6856	0.547
12.7187	0.547
12.7519	0.547
12.785	0.548
12.8182	0.5529
12.8514	0.55
12.8845	0.552
12.9177	0.552
12.9508	0.56
12.984	0.5627
13.0171	0.5727
13.0503	0.578
13.0834	0.5762
13.1166	0.575
13.1498	0.577
13.1829	0.5772
13.2161	0.578
13.2492	0.578
13.2824	0.5832
13.3155	0.585
13.3487	0.5897
13.3818	0.592
13.415	0.5965
13.4481	0.601
13.4813	0.6106
13.5145	0.6171
13.5476	0.6188
13.5808	0.6253
13.6139	0.631
13.6471	0.6352
13.6802	0.6408
13.7134	0.6412
13.7465	0.6482
13.7797	0.655
13.8129	0.6577
13.846	0.661
13.8792	0.6624
13.9123	0.669
13.9455	0.669
13.9786	0.668
14.0118	0.668
14.0449	0.666
14.0781	0.6557
14.1112	0.643
14.1444	0.643
14.1776	0.641
14.2107	0.638
14.2439	0.631
14.277	0.6213
14.3102	0.607
14.3433	0.6
14.3765	0.6
14.4096	0.5948
14.4428	0.5825
14.476	0.5761
14.5091	0.5659
14.5423	0.5417
14.5754	0.508
14.6086	0.4677
14.6417	0.3828
14.6749	0.331
14.708	0.313
14.7412	0.3148
14.7743	0.3453
14.8075	0.3805
14.8407	0.404
14.8738	0.4243
14.907	0.4365
14.9401	0.4449
14.9733	0.4513
15.0064	0.4628
15.0396	0.4795
15.0727	0.489
15.1059	0.489
15.1391	0.487
15.1722	0.4753
15.2054	0.474
15.2385	0.477
15.2717	0.4895
15.3048	0.512
15.338	0.5286
15.3711	0.5325
15.4043	0.5374
15.4374	0.5412
15.4706	0.5393
