Infrared Spectrum: Lactose (anhydrous)
Formula: C 12 H 22 O 11
CAS: 63-42-3
State: solid
Instrument: Bruker Tensor 37 FTIR
Resolution: 0.96450084
Origin: Pacific Northwest National Laboratory Under IARPA Contract
1/cm	Reflectance
7498.99	0.722482
7481.63	0.715252
7464.27	0.707213
7446.91	0.689628
7429.55	0.685411
7412.19	0.679526
7394.84	0.675372
7377.48	0.676482
7360.12	0.674387
7342.76	0.664722
7325.4	0.655541
7308.04	0.646105
7290.68	0.62766
7273.32	0.600138
7255.96	0.568914
7238.6	0.528256
7221.24	0.496456
7203.88	0.467161
7186.52	0.441211
7169.16	0.427604
7151.8	0.413151
7134.44	0.403605
7117.08	0.405389
7099.72	0.406004
7082.36	0.411867
7065	0.422452
7047.64	0.432922
7030.28	0.439187
7012.92	0.442246
6995.56	0.441842
6978.2	0.433407
6960.84	0.424259
6943.48	0.417369
6926.12	0.417636
6908.76	0.423574
6891.4	0.433453
6874.04	0.441931
6856.68	0.454197
6839.32	0.471735
6821.96	0.495576
6804.6	0.503629
6787.24	0.510899
6769.88	0.521294
6752.52	0.53227
6735.16	0.539378
6717.8	0.532874
6700.44	0.534313
6683.08	0.532485
6665.72	0.532591
6648.36	0.530277
6631	0.520345
6613.64	0.527618
6596.28	0.532326
6578.92	0.539267
6561.56	0.537537
6544.2	0.539522
6526.85	0.543737
6509.49	0.540527
6492.13	0.540533
6474.77	0.545364
6457.41	0.553977
6440.05	0.567945
6422.69	0.573519
6405.33	0.576592
6387.97	0.572425
6370.61	0.565542
6353.25	0.547103
6335.89	0.524891
6318.53	0.536403
6301.17	0.541174
6283.81	0.534139
6266.45	0.523378
6249.09	0.507475
6231.73	0.478125
6214.37	0.434863
6197.01	0.371455
6179.65	0.307388
6162.29	0.275705
6144.93	0.253777
6127.57	0.219842
6110.21	0.227272
6092.85	0.253267
6075.49	0.289724
6058.13	0.311547
6040.77	0.333546
6023.41	0.347867
6006.05	0.362687
5988.69	0.370605
5971.33	0.352376
5953.97	0.31323
5936.61	0.295226
5919.25	0.302134
5901.89	0.286949
5884.53	0.28945
5867.17	0.265229
5849.81	0.280016
5832.45	0.280263
5815.09	0.266863
5797.73	0.246729
5780.37	0.225209
5763.01	0.194814
5745.65	0.183248
5728.29	0.193341
5710.93	0.204907
5693.57	0.215447
5676.21	0.231313
5658.86	0.228237
5641.5	0.233075
5624.14	0.231894
5606.78	0.219809
5589.42	0.188331
5572.06	0.139787
5554.7	0.0853453
5537.34	0.0494462
5519.98	0.0302281
5502.62	0.0241463
5485.26	0.0221871
5467.9	0.023229
5450.54	0.0231927
5433.18	0.0234783
5415.82	0.023911
5398.46	0.0248131
5381.1	0.0267233
5363.74	0.0282639
5346.38	0.0305848
5329.02	0.0347115
5311.66	0.0399463
5294.3	0.046731
5276.94	0.055045
5259.58	0.0616135
5242.22	0.04651
5224.86	0.041054
5207.5	0.0317086
5190.14	0.0303779
5172.78	0.0410976
5155.42	0.0469017
5138.06	0.0527302
5120.7	0.0608871
5103.34	0.0635142
5085.98	0.0648079
5068.62	0.0682833
5051.26	0.0764729
5033.9	0.0920203
5016.54	0.0962284
4999.18	0.0861378
4981.82	0.0949487
4964.46	0.114823
4947.1	0.134574
4929.74	0.142119
4912.38	0.144136
4895.02	0.152181
4877.66	0.147377
4860.3	0.146132
4842.94	0.137177
4825.58	0.135691
4808.22	0.150315
4790.86	0.143489
4773.51	0.141027
4756.15	0.153241
4738.79	0.169839
4721.43	0.194016
4704.07	0.184887
4686.71	0.193268
4669.35	0.177178
4651.99	0.172198
4634.63	0.154015
4617.27	0.144853
4599.91	0.128511
4582.55	0.0943563
4565.19	0.0938836
4547.83	0.0899699
4530.47	0.0781597
4513.11	0.0583548
4495.75	0.0322654
4478.39	0.0213103
4461.03	0.0204278
4443.67	0.0252207
4426.31	0.0227874
4408.95	0.0258034
4391.59	0.024899
4374.23	0.0221965
4356.87	0.0237752
4339.51	0.0204016
4322.15	0.0197776
4304.79	0.0212327
4287.43	0.0265203
4270.07	0.0282158
4252.71	0.0308717
4235.35	0.0452248
4217.99	0.0553835
4200.63	0.0300508
4183.27	0.0521756
4165.91	0.046083
4148.55	0.036977
4131.19	0.0255699
4113.83	0.024634
4096.47	0.0260088
4079.11	0.0221213
4061.75	0.0205406
4044.39	0.721664
4027.03	0.713388
4009.67	0.703352
3992.31	0.685794
3974.95	0.685501
3957.59	0.67851
3940.23	0.674927
3922.87	0.676398
3905.52	0.677943
3888.16	0.663031
3870.8	0.657143
3853.44	0.645684
3836.08	0.624798
3818.72	0.598649
3801.36	0.565678
3784	0.526565
3766.64	0.49847
3749.28	0.469755
3731.92	0.446548
3714.56	0.432566
3697.2	0.419395
3679.84	0.413839
3662.48	0.41619
3645.12	0.417388
3627.76	0.425318
3610.4	0.434963
3593.04	0.44561
3575.68	0.450634
3558.32	0.452534
3540.96	0.452192
3523.6	0.44161
3506.24	0.432545
3488.88	0.428541
3471.52	0.429863
3454.16	0.439482
3436.8	0.448443
3419.44	0.456865
3402.08	0.470177
3384.72	0.490619
3367.36	0.508592
3350	0.517023
3332.64	0.524239
3315.28	0.534469
3297.92	0.545482
3280.56	0.55137
3263.2	0.535805
3245.84	0.524101
3228.48	0.542254
3211.12	0.533512
3193.76	0.537292
3176.4	0.530057
3159.04	0.540007
3141.68	0.543456
3124.32	0.548465
3106.96	0.543654
3089.6	0.550139
3072.24	0.552589
3054.88	0.549363
3037.53	0.551748
3020.17	0.556121
3002.81	0.56831
2985.45	0.579221
2968.09	0.583135
2950.73	0.58485
2933.37	0.579869
2916.01	0.571022
2898.65	0.549202
2881.29	0.535932
2863.93	0.5485
2846.57	0.549789
2829.21	0.541683
2811.85	0.529431
2794.49	0.510865
2777.13	0.477915
2759.77	0.430863
2742.41	0.357831
2725.05	0.307368
2707.69	0.280122
2690.33	0.252991
2672.97	0.22707
2655.61	0.237458
2638.25	0.277937
2620.89	0.305528
2603.53	0.331461
2586.17	0.348582
2568.81	0.365831
2551.45	0.375932
2534.09	0.382071
2516.73	0.349656
2499.37	0.336228
2482.01	0.293634
2464.65	0.29319
2447.29	0.297382
2429.93	0.288471
2412.57	0.26922
2395.21	0.294519
2377.85	0.29144
2360.49	0.279132
2343.13	0.250942
2325.77	0.222241
2308.41	0.196961
2291.05	0.193265
2273.69	0.209771
2256.33	0.214483
2238.97	0.230727
2221.61	0.242271
2204.25	0.236837
2186.89	0.242016
2169.53	0.237965
2152.18	0.218045
2134.82	0.183621
2117.46	0.12553
2100.1	0.0755076
2082.74	0.0430297
2065.38	0.027739
2048.02	0.0233389
2030.66	0.0224526
2013.3	0.0231486
1995.94	0.0237694
1978.58	0.0241501
1961.22	0.0240757
1943.86	0.0254062
1926.5	0.0271685
1909.14	0.0295758
1891.78	0.0324524
1874.42	0.0367173
1857.06	0.0425572
1839.7	0.0505756
1822.34	0.0591386
1804.98	0.0646151
1787.62	0.0449304
1770.26	0.0429288
1752.9	0.0293353
1735.54	0.0341577
1718.18	0.0463588
1700.82	0.0496444
1683.46	0.0562749
1666.1	0.0650731
1648.74	0.0648934
1631.38	0.0681876
1614.02	0.0726927
1596.66	0.0836374
1579.3	0.0982528
1561.94	0.0978349
1544.58	0.0900639
1527.22	0.101652
1509.86	0.119961
1492.5	0.143561
1475.14	0.13997
1457.78	0.14762
1440.42	0.153504
1423.06	0.158659
1405.7	0.153045
1388.34	0.141707
1370.98	0.137909
1353.62	0.150383
1336.26	0.148125
1318.9	0.152546
1301.54	0.162272
1284.19	0.181234
1266.83	0.202914
1249.47	0.193647
1232.11	0.199011
1214.75	0.18006
1197.39	0.172647
1180.03	0.151465
1162.67	0.143892
1145.31	0.120511
1127.95	0.0919801
1110.59	0.096216
1093.23	0.0879095
1075.87	0.0727268
1058.51	0.0508811
1041.15	0.0239408
1023.79	0.0208563
1006.43	0.021521
989.068	0.0259245
971.709	0.0212098
954.349	0.0213301
936.989	0.0251565
919.629	0.0240302
902.269	0.0228381
884.91	0.0163213
867.55	0.0166303
850.19	0.0225365
832.83	0.0261234
815.47	0.029355
798.111	0.0241415
780.751	0.0501046
763.391	0.0568065
746.031	0.0259587
728.671	0.059114
711.312	0.0517024
693.952	0.0276203
676.592	0.0245804
659.232	0.0237539
641.872	0.0243534
624.513	0.0221216
607.153	0.0201787
