Infrared Spectrum: Tetraphenylmethane
Formula: C25 H20
CAS: 630-76-2
State: SOLID (SPLIT MULL), FLUOROLUBE FOR 3800-1330 CM^-^1, NUJOL FOR 1330-250 CM^-^1
Class: COBLENTZ III
Instrument: PERKIN-ELMER 521 (GRATING)
Instrument parameters: FILTERS AT 3150, 2500, 2000, 1150, 700, 410. GRATING CHANGES: 2000, 630 CM^-^1
Sampling: TRANSMISSION
Resolution: 2
Origin: DOW CORNING CORP.
1/CM	TRANSMITTANCE
3804	0.5834
3795	0.5839
3786	0.5845
3777	0.5854
3768	0.5869
3759	0.5884
3750	0.5898
3741	0.5904
3732	0.5906
3723	0.5915
3714	0.593
3705	0.5945
3696	0.596
3687	0.598
3678	0.6003
3669	0.6017
3660	0.6017
3651	0.6018
3642	0.6029
3633	0.6046
3624	0.6062
3615	0.6074
3606	0.6083
3597	0.6091
3588	0.6099
3579	0.6109
3570	0.612
3561	0.613
3552	0.614
3543	0.6152
3534	0.6166
3525	0.618
3516	0.6194
3507	0.6207
3498	0.622
3489	0.6233
3480	0.6246
3471	0.6258
3462	0.6271
3453	0.6283
3444	0.6296
3435	0.6308
3426	0.6321
3417	0.6333
3408	0.6346
3399	0.6358
3390	0.6373
3381	0.6391
3372	0.6408
3363	0.6426
3354	0.6445
3345	0.6465
3336	0.649
3327	0.6515
3318	0.654
3309	0.6562
3300	0.6587
3291	0.661
3282	0.6634
3273	0.666
3264	0.6688
3255	0.6715
3246	0.6737
3237	0.6755
3228	0.6774
3219	0.6794
3210	0.6819
3201	0.6834
3192	0.6839
3183	0.6839
3174	0.6837
3165	0.6836
3156	0.6836
3147	0.6837
3138	0.6864
3129	0.706
3120	0.7148
3111	0.7065
3102	0.6911
3093	0.6254
3084	0.5843
3075	0.6422
3066	0.5777
3057	0.5483
3048	0.6172
3039	0.5966
3030	0.5377
3021	0.5858
3012	0.638
3003	0.6751
2994	0.6915
2985	0.7006
2976	0.7075
2967	0.7128
2958	0.7162
2949	0.7178
2940	0.716
2931	0.7155
2922	0.7182
2913	0.7225
2904	0.7271
2895	0.7325
2886	0.7376
2877	0.7399
2868	0.741
2859	0.7425
2850	0.7462
2841	0.7501
2832	0.7539
2823	0.7565
2814	0.759
2805	0.7614
2796	0.764
2787	0.7664
2778	0.768
2769	0.7694
2760	0.7708
2751	0.7721
2742	0.7738
2733	0.7756
2724	0.7775
2715	0.7793
2706	0.7811
2697	0.783
2688	0.7841
2679	0.7846
2670	0.7851
2661	0.786
2652	0.7872
2643	0.7885
2634	0.7898
2625	0.791
2616	0.793
2607	0.7951
2598	0.7975
2589	0.8007
2580	0.804
2571	0.8071
2562	0.8095
2553	0.8115
2544	0.8135
2535	0.8153
2526	0.8171
2517	0.8185
2508	0.819
2499	0.8194
2490	0.8199
2481	0.8202
2472	0.8203
2463	0.8204
2454	0.8205
2445	0.8206
2436	0.8211
2427	0.8215
2418	0.8218
2409	0.8221
2400	0.8225
2391	0.8218
2382	0.8211
2373	0.8207
2364	0.8204
2355	0.8201
2346	0.821
2337	0.8233
2328	0.8264
2319	0.8228
2310	0.8202
2301	0.8199
2292	0.8221
2283	0.8253
2274	0.8262
2265	0.8275
2256	0.8294
2247	0.8328
2238	0.8393
2229	0.8478
2220	0.8528
2211	0.857
2202	0.8601
2193	0.8605
2184	0.8602
2175	0.864
2166	0.8681
2157	0.8733
2148	0.8796
2139	0.8843
2130	0.8871
2121	0.8881
2112	0.8891
2103	0.89
2094	0.8917
2085	0.8937
2076	0.8958
2067	0.8978
2058	0.8998
2049	0.9016
2040	0.9035
2031	0.9055
2022	0.9075
2013	0.9089
2004	0.908
1995	0.8866
1986	0.8717
1977	0.8568
1968	0.8552
1959	0.8425
1950	0.8606
1941	0.8701
1932	0.8741
1923	0.8732
1914	0.8664
1905	0.8605
1896	0.8645
1887	0.8762
1878	0.8753
1869	0.8723
1860	0.8721
1851	0.8838
1842	0.8853
1833	0.8751
1824	0.8671
1815	0.8577
1806	0.885
1797	0.8918
1788	0.8803
1779	0.8704
1770	0.8805
1761	0.8931
1752	0.8912
1743	0.8908
1734	0.8945
1725	0.9027
1716	0.9043
1707	0.8988
1698	0.8935
1689	0.8941
1680	0.8954
1671	0.8973
1662	0.8989
1653	0.8996
1644	0.8994
1635	0.8992
1626	0.8978
1617	0.8841
1608	0.8541
1599	0.7115
1590	0.5822
1581	0.8048
1572	0.8389
1563	0.8867
1554	0.893
1545	0.9043
1536	0.9148
1527	0.9135
1518	0.8985
1509	0.8938
1500	0.8578
1491	0.1959
1482	0.5089
1473	0.7289
1464	0.824
1455	0.8187
1446	0.6508
1437	0.6608
1428	0.8471
1419	0.8597
1410	0.8592
1401	0.8475
1392	0.8458
1383	0.869
1374	0.871
1365	0.8731
1356	0.8737
1347	0.8727
1338	0.872
1329	0.8577
1320	0.793
1311	0.8165
1302	0.7897
1293	0.8165
1284	0.8266
1275	0.818
1266	0.8294
1257	0.8401
1248	0.8497
1239	0.8578
1230	0.8625
1221	0.8632
1212	0.8605
1203	0.8502
1194	0.8333
1185	0.6983
1176	0.8008
1167	0.8334
1158	0.8383
1149	0.8377
1140	0.8597
1131	0.866
1122	0.8686
1113	0.871
1104	0.8753
1095	0.8771
1086	0.7993
1077	0.8158
1068	0.8686
1059	0.8755
1050	0.8748
1041	0.7468
1032	0.7771
1023	0.8413
1014	0.8727
1005	0.7707
996	0.8728
987	0.8418
978	0.8765
969	0.8773
960	0.8842
951	0.8925
942	0.8737
933	0.877
924	0.8989
915	0.9035
906	0.9082
897	0.8742
888	0.8711
879	0.9148
870	0.9217
861	0.9128
852	0.9068
843	0.859
834	0.9196
825	0.9382
816	0.9413
807	0.9414
798	0.9388
789	0.9335
780	0.9113
771	0.3046
762	0.7268
753	0.2337
744	0.7994
735	0.8568
726	0.846
717	0.8531
708	0.3084
699	0.7671
690	0.8874
681	0.8441
672	0.9458
663	0.9691
654	0.9788
645	0.9723
636	0.3199
627	0.96
618	0.9275
609	0.9728
600	0.9838
591	0.9868
582	0.9882
573	0.9868
564	0.9815
555	0.9831
546	0.9846
537	0.9728
528	0.868
519	0.9771
510	0.9821
501	0.9217
492	0.9312
483	0.9967
474	1.0037
465	1.0088
456	1.0146
447	0.9484
438	0.9537
429	0.9585
420	0.9571
411	0.9581
402	0.9605
393	0.9609
384	0.9617
375	0.9618
366	0.9616
357	0.9612
348	0.9597
339	0.951
330	0.9424
321	0.9406
312	0.9325
303	0.91
294	0.8616
285	0.8458
276	0.8125
267	0.7681
258	0.7394
