Infrared Spectrum: Hexacosane
Formula: C26 H54
CAS: 630-01-3
State: SOLUTION (10% CCl4 FOR 3800-1330, 10% CS2 FOR 1330-450 CM^-^1)
Class: COBLENTZ III
Instrument: BECKMAN IR-9 (GRATING)
Instrument parameters: ORDER CHANGES: 670, 1200, 2000 CM^-^1
Sampling: TRANSMISSION
Path length: 0.010 CM, 0.011 CM
Resolution: 2
Origin: DOW CHEMICAL COMPANY
1/CM	TRANSMITTANCE
404	0.1228
413	0.2785
422	0.5317
431	0.6019
440	0.6556
449	0.7046
458	0.7437
467	0.7769
476	0.7998
485	0.8175
494	0.8325
503	0.843
512	0.8492
521	0.8505
530	0.8516
539	0.8524
548	0.8521
557	0.8508
566	0.8493
575	0.8481
584	0.8444
593	0.8307
602	0.8411
611	0.8354
620	0.8321
629	0.8277
638	0.8185
647	0.805
656	0.7917
665	0.7984
674	0.8158
683	0.8178
692	0.8096
701	0.7869
710	0.7198
719	0.5258
728	0.6273
737	0.7083
746	0.7421
755	0.7641
764	0.7738
773	0.7805
782	0.7875
791	0.7922
800	0.7961
809	0.7988
818	0.8025
827	0.8041
836	0.7904
845	0.7485
854	0.6921
863	0.6957
872	0.7344
881	0.7664
890	0.7948
899	0.8125
908	0.8224
917	0.8295
926	0.8331
935	0.835
944	0.835
953	0.8345
962	0.8332
971	0.8315
980	0.832
989	0.8312
998	0.8301
1007	0.8278
1016	0.8252
1025	0.8228
1034	0.8199
1043	0.816
1052	0.8119
1061	0.8061
1070	0.8006
1079	0.7968
1088	0.7975
1097	0.8068
1106	0.8115
1115	0.8124
1124	0.8125
1133	0.8124
1142	0.8118
1151	0.8099
1160	0.8078
1169	0.8068
1178	0.8065
1187	0.8056
1196	0.8044
1205	0.8138
1214	0.8161
1223	0.8169
1232	0.8165
1241	0.8137
1250	0.8051
1259	0.7947
1268	0.7826
1277	0.769
1286	0.7525
1295	0.7336
1304	0.7025
1313	0.7104
1322	0.7411
1331	0.7435
1340	0.7446
1349	0.7346
1358	0.7238
1367	0.6991
1376	0.6798
1385	0.7521
1394	0.7743
1403	0.7768
1412	0.7718
1421	0.7557
1430	0.7039
1439	0.6132
1448	0.5569
1457	0.3632
1466	0.2394
1475	0.5978
1484	0.7165
1493	0.7161
1502	0.6849
1511	0.6484
1520	0.6086
1529	0.5657
1538	0.4901
1547	0.4345
1556	0.4384
1565	0.5058
1574	0.5577
1583	0.577
1592	0.6222
1601	0.7012
1610	0.7443
1619	0.7656
1628	0.7775
1637	0.7841
1646	0.7895
1655	0.7936
1664	0.7967
1673	0.7996
1682	0.8021
1691	0.8046
1700	0.8067
1709	0.8087
1718	0.8101
1727	0.8111
1736	0.8118
1745	0.8122
1754	0.8128
1763	0.813
1772	0.8133
1781	0.8128
1790	0.8121
1799	0.8115
1808	0.8108
1817	0.8101
1826	0.8097
1835	0.8092
1844	0.8087
1853	0.8085
1862	0.8084
1871	0.8083
1880	0.8082
1889	0.8087
1898	0.8091
1907	0.8099
1916	0.8108
1925	0.8118
1934	0.8122
1943	0.8128
1952	0.8131
1961	0.8132
1970	0.8122
1979	0.8101
1988	0.8097
1997	0.789
2006	0.8117
2015	0.8122
2024	0.8134
2033	0.8148
2042	0.8161
2051	0.8171
2060	0.8184
2069	0.8193
2078	0.8201
2087	0.8204
2096	0.8202
2105	0.82
2114	0.8198
2123	0.8195
2132	0.8188
2141	0.8181
2150	0.8175
2159	0.8171
2168	0.8168
2177	0.8162
2186	0.8158
2195	0.8154
2204	0.8149
2213	0.8139
2222	0.8125
2231	0.8111
2240	0.8095
2249	0.8075
2258	0.8057
2267	0.8041
2276	0.8026
2285	0.8017
2294	0.8015
2303	0.8028
2312	0.8051
2321	0.8078
2330	0.8112
2339	0.8139
2348	0.8162
2357	0.8191
2366	0.8245
2375	0.8221
2384	0.8126
2393	0.8139
2402	0.8154
2411	0.816
2420	0.8161
2429	0.8158
2438	0.8154
2447	0.8148
2456	0.8138
2465	0.8128
2474	0.8124
2483	0.8118
2492	0.8115
2501	0.8108
2510	0.8101
2519	0.8094
2528	0.8082
2537	0.8069
2546	0.806
2555	0.8047
2564	0.8031
2573	0.8006
2582	0.7975
2591	0.7943
2600	0.7911
2609	0.7878
2618	0.7847
2627	0.7815
2636	0.7778
2645	0.7736
2654	0.7694
2663	0.7641
2672	0.7592
2681	0.7576
2690	0.7601
2699	0.7685
2708	0.7735
2717	0.7721
2726	0.7661
2735	0.7617
2744	0.7644
2753	0.7641
2762	0.7615
2771	0.7534
2780	0.7408
2789	0.7234
2798	0.703
2807	0.6681
2816	0.6296
2825	0.5758
2834	0.3944
2843	0.1181
2852	0.0301
2861	0.0407
2870	0.1919
2879	0.2562
2888	0.1985
2897	0.1026
2906	0.0584
2915	0.0324
2924	0.0214
2933	0.0189
2942	0.0208
2951	0.0882
2960	0.0865
2969	0.3889
2978	0.5381
2987	0.5901
2996	0.6564
3005	0.6997
3014	0.7161
3023	0.7299
3032	0.7425
3041	0.7522
3050	0.7592
3059	0.7648
3068	0.7699
3077	0.774
3086	0.7768
3095	0.7797
3104	0.7817
3113	0.7834
3122	0.7841
3131	0.7847
3140	0.7841
3149	0.7828
3158	0.7815
3167	0.7795
3176	0.7775
3185	0.7749
3194	0.7734
3203	0.7741
3212	0.7767
3221	0.779
3230	0.779
3239	0.7775
3248	0.7761
3257	0.7744
3266	0.7739
3275	0.7734
3284	0.773
3293	0.7725
3302	0.7721
3311	0.7717
3320	0.7715
3329	0.7715
3338	0.7725
3347	0.7769
3356	0.7808
3365	0.7832
3374	0.7843
3383	0.7845
3392	0.7847
3401	0.7849
3410	0.7851
3419	0.7851
3428	0.7857
3437	0.786
3446	0.7865
3455	0.7872
3464	0.7882
3473	0.789
3482	0.7899
3491	0.7901
3500	0.7906
3509	0.7908
3518	0.7908
3527	0.7908
3536	0.7908
3545	0.7907
3554	0.7904
3563	0.7901
3572	0.7897
3581	0.7882
3590	0.7867
3599	0.7846
3608	0.7822
3617	0.7818
3626	0.7821
3635	0.7825
3644	0.783
3653	0.7834
3662	0.7836
3671	0.7836
3680	0.7837
3689	0.7837
3698	0.7838
3707	0.7837
3716	0.7836
3725	0.7834
3734	0.7831
3743	0.7826
3752	0.7824
3761	0.7821
3770	0.7819
3779	0.7818
3788	0.7825
3797	0.7834
3806	0.7841
