Infrared Spectrum: DIETHYL DIBROMOMALONATE
Formula: C7 H10 Br2 O4
CAS: 631-22-1
State: LIQUID
Boiling point: 114-115 C AT 10 mmHg
Class: COBLENTZ
Instrument: Not specified, most likely a prism, grating, or hybrid spectrometer.
Sampling: TRANSMISSION
Path length: CAPILLARY
Resolution: 4
Origin: WYANDOTTE CHEMICALS CORP., WYANDOTTE, MICHIGAN, USA
MICROMETERS	TRANSMITTANCE
2.034	0.974
2.07494	0.97
2.11587	0.969
2.15681	0.972
2.19774	0.957
2.23868	0.957
2.27961	0.962
2.32055	0.96
2.36148	0.96
2.40242	0.972
2.44335	0.967
2.48429	0.972
2.52522	0.972
2.56616	0.977
2.60709	0.97
2.64803	0.988
2.68896	0.984
2.7299	0.977
2.77084	0.948
2.81177	0.952
2.85271	0.926
2.89364	0.938
2.93458	0.936
2.97551	0.946
3.01645	0.948
3.05738	0.931
3.09832	0.936
3.13925	0.936
3.18019	0.936
3.22112	0.931
3.26206	0.922
3.30299	0.739
3.34393	0.57
3.38486	0.741
3.4258	0.78
3.46673	0.845
3.50767	0.893
3.54861	0.929
3.58954	0.943
3.63048	0.94
3.67141	0.941
3.71235	0.955
3.75328	0.964
3.79422	0.972
3.83515	0.972
3.87609	0.977
3.91702	0.967
3.95796	0.969
3.99889	0.969
4.03983	0.965
4.08076	0.95
4.1217	0.952
4.16263	0.957
4.20357	0.957
4.24451	0.95
4.28544	0.976
4.32638	0.989
4.36731	1
4.40825	0.984
4.44918	0.984
4.49012	0.981
4.53105	0.979
4.57199	0.981
4.61292	0.979
4.65386	0.982
4.69479	0.986
4.73573	0.984
4.77666	0.984
4.8176	0.972
4.85853	0.977
4.89947	0.977
4.94041	0.982
4.98134	0.981
5.02228	0.989
5.06321	0.979
5.10415	0.986
5.14508	0.982
5.18602	0.986
5.22695	0.982
5.26789	0.979
5.30882	0.969
5.34976	0.964
5.39069	0.97
5.43163	0.958
5.47256	0.938
5.5135	0.917
5.55443	0.892
5.59537	0.835
5.63631	0.546
5.67724	0.073
5.71818	0.097
5.75911	0.21
5.80005	0.553
5.84098	0.768
5.88192	0.828
5.92285	0.868
5.96379	0.883
6.00472	0.895
6.04566	0.904
6.08659	0.91
6.12753	0.909
6.16846	0.917
6.2094	0.924
6.25033	0.934
6.29127	0.945
6.3322	0.943
6.37314	0.94
6.41408	0.928
6.45501	0.917
6.49595	0.907
6.53688	0.916
6.57782	0.91
6.61875	0.902
6.65969	0.888
6.70062	0.82
6.74156	0.66
6.78249	0.551
6.82343	0.63
6.86436	0.575
6.9053	0.592
6.94623	0.77
6.98717	0.821
7.0281	0.839
7.06904	0.818
7.10998	0.765
7.15091	0.619
7.19185	0.63
7.23278	0.717
7.27372	0.525
7.31465	0.582
7.35559	0.83
7.39652	0.864
7.43746	0.852
7.47839	0.828
7.51933	0.785
7.56026	0.705
7.6012	0.578
7.64213	0.438
7.68307	0.313
7.724	0.33
7.76494	0.34
7.80588	0.277
7.84681	0.205
7.88775	0.128
7.92868	0.083
7.96962	0.065
8.01055	0.068
8.05149	0.077
8.09242	0.094
8.13336	0.131
8.17429	0.176
8.21523	0.19
8.25616	0.16
8.2971	0.143
8.33803	0.222
8.37897	0.366
8.4199	0.537
8.46084	0.599
8.50178	0.602
8.54271	0.589
8.58365	0.606
8.62458	0.602
8.66552	0.619
8.70645	0.652
8.74739	0.688
8.78832	0.731
8.82926	0.777
8.87019	0.811
8.91113	0.785
8.95206	0.732
8.993	0.732
9.03393	0.695
9.07487	0.547
9.1158	0.522
9.15674	0.643
9.19767	0.732
9.23861	0.768
9.27955	0.779
9.32048	0.779
9.36142	0.768
9.40235	0.748
9.44329	0.7
9.48422	0.631
9.52516	0.506
9.56609	0.383
9.60703	0.248
9.64796	0.196
9.6889	0.171
9.72983	0.164
9.77077	0.179
9.8117	0.243
9.85264	0.335
9.89357	0.462
9.93451	0.594
9.97545	0.674
10.0164	0.743
10.0573	0.758
10.0983	0.761
10.1392	0.76
10.1801	0.782
10.2211	0.792
10.262	0.815
10.3029	0.828
10.3439	0.851
10.3848	0.859
10.4257	0.863
10.4667	0.851
10.5076	0.835
10.5485	0.828
10.5895	0.827
10.6304	0.832
10.6713	0.851
10.7123	0.869
10.7532	0.898
10.7942	0.907
10.8351	0.904
10.876	0.907
10.917	0.909
10.9579	0.909
10.9988	0.916
11.0398	0.917
11.0807	0.912
11.1216	0.922
11.1626	0.919
11.2035	0.909
11.2444	0.892
11.2854	0.854
11.3263	0.773
11.3672	0.659
11.4082	0.532
11.4491	0.5
11.4901	0.551
11.531	0.609
11.5719	0.631
11.6129	0.607
11.6538	0.575
11.6947	0.57
11.7357	0.645
11.7766	0.763
11.8175	0.837
11.8585	0.876
11.8994	0.898
11.9403	0.917
11.9813	0.914
12.0222	0.898
12.0631	0.868
12.1041	0.821
12.145	0.77
12.186	0.739
12.2269	0.702
12.2678	0.691
12.3088	0.69
12.3497	0.703
12.3906	0.708
12.4316	0.71
12.4725	0.695
12.5134	0.72
12.5544	0.767
12.5953	0.82
12.6362	0.851
12.6772	0.871
12.7181	0.886
12.759	0.902
12.8	0.898
12.8409	0.892
12.8819	0.893
12.9228	0.895
12.9637	0.902
13.0047	0.905
13.0456	0.9
13.0865	0.902
13.1275	0.89
13.1684	0.878
13.2093	0.861
13.2503	0.839
13.2912	0.818
13.3321	0.797
13.3731	0.775
13.414	0.767
13.4549	0.755
13.4959	0.761
13.5368	0.768
13.5778	0.78
13.6187	0.789
13.6596	0.796
13.7006	0.809
13.7415	0.828
13.7824	0.842
13.8234	0.854
13.8643	0.861
13.9052	0.871
13.9462	0.868
13.9871	0.876
14.028	0.88
14.069	0.88
14.1099	0.885
14.1508	0.886
14.1918	0.886
14.2327	0.883
14.2737	0.881
14.3146	0.875
14.3555	0.869
14.3965	0.863
14.4374	0.849
14.4783	0.84
14.5193	0.827
14.5602	0.808
14.6011	0.794
14.6421	0.775
14.683	0.751
14.7239	0.746
14.7649	0.736
14.8058	0.731
14.8467	0.739
14.8877	0.739
14.9286	0.739
14.9696	0.748
15.0105	0.756
15.0514	0.753
15.0924	0.731
15.1333	0.708
15.1742	0.731
15.2152	0.76
15.2561	0.787
15.297	0.789
15.338	0.792
15.3789	0.796
15.4198	0.787
15.4608	0.777
15.5017	0.775
15.5426	0.76
15.5836	0.758
15.6245	0.743
15.6655	0.727
15.7064	0.712
15.7473	0.707
15.7883	0.696
15.8292	0.693
15.8701	0.702
15.9111	0.707
15.952	0.72
15.9929	0.744
