Infrared Spectrum: ETHANE-1,1,2,2-TETRACARBOXYLIC ACID, TETRAETHYL ESTER
Formula: C14 H22 O8
CAS: 632-56-4
State: SOLID (NUJOL MULL)
Class: COBLENTZ
Instrument: PERKIN-ELMER
Sampling: TRANSMISSION
Resolution: 4
Origin: ABBOTT LABORATORIES - WASHBURN
MICROMETERS	TRANSMITTANCE
2.045	0.875
2.08458	0.882
2.12415	0.882
2.16373	0.892
2.2033	0.895
2.24288	0.906
2.28246	0.911
2.32203	0.8971
2.36161	0.8652
2.40118	0.855
2.44076	0.86
2.48034	0.8719
2.51991	0.874
2.55949	0.8889
2.59906	0.8949
2.63864	0.897
2.67822	0.901
2.71779	0.901
2.75737	0.895
2.79695	0.894
2.83652	0.89
2.8761	0.8871
2.91567	0.8749
2.95525	0.8601
2.99483	0.8821
3.0344	0.8921
3.07398	0.894
3.11355	0.8938
3.15313	0.89
3.19271	0.879
3.23228	0.889
3.27186	0.8849
3.31143	0.8548
3.35101	0.7377
3.39059	0.3744
3.43016	0.0898
3.46974	0.0429
3.50931	0.0731
3.54889	0.105
3.58847	0.4262
3.62804	0.7431
3.66762	0.8069
3.70719	0.823
3.74677	0.8319
3.78635	0.832
3.82592	0.842
3.8655	0.847
3.90507	0.847
3.94465	0.8569
3.98423	0.854
4.0238	0.8639
4.06338	0.857
4.10296	0.855
4.14253	0.8502
4.18211	0.85
4.22168	0.8451
4.26126	0.843
4.30084	0.84
4.34041	0.8371
4.37999	0.828
4.41956	0.818
4.45914	0.8132
4.49872	0.813
4.53829	0.81
4.57787	0.8077
4.61744	0.7999
4.65702	0.7929
4.6966	0.788
4.73617	0.786
4.77575	0.7831
4.81532	0.783
4.8549	0.7799
4.89448	0.775
4.93405	0.77
4.97363	0.766
5.0132	0.7651
5.05278	0.761
5.09236	0.7588
5.13193	0.756
5.17151	0.755
5.21108	0.7459
5.25066	0.7363
5.29024	0.722
5.32981	0.713
5.36939	0.706
5.40897	0.6931
5.44854	0.6684
5.48812	0.6424
5.52769	0.6112
5.56727	0.5734
5.60685	0.5103
5.64642	0.4402
5.686	0.3248
5.72557	0.1868
5.76515	0.093
5.80473	0.0975
5.8443	0.1616
5.88388	0.358
5.92345	0.4854
5.96303	0.5947
6.00261	0.6442
6.04218	0.6686
6.08176	0.6904
6.12133	0.715
6.16091	0.736
6.20049	0.7427
6.24006	0.7523
6.27964	0.756
6.31921	0.7624
6.35879	0.761
6.39837	0.7561
6.43794	0.751
6.47752	0.7488
6.51709	0.748
6.55667	0.738
6.59625	0.7328
6.63582	0.7193
6.6754	0.7066
6.71497	0.684
6.75455	0.6395
6.79413	0.5035
6.8337	0.217
6.87328	0.1811
6.91286	0.2049
6.95243	0.2812
6.99201	0.4024
7.03158	0.5381
7.07116	0.5701
7.11074	0.5622
7.15031	0.5307
7.18989	0.4611
7.22946	0.4204
7.26904	0.348
7.30862	0.2092
7.34819	0.176
7.38777	0.3898
7.42734	0.483
7.46692	0.4451
7.5065	0.3914
7.54607	0.3243
7.58565	0.2264
7.62522	0.1411
7.6648	0.095
7.70438	0.1027
7.74395	0.1693
7.78353	0.2089
7.8231	0.1635
7.86268	0.1103
7.90226	0.1182
7.94183	0.2092
7.98141	0.3225
8.02098	0.4089
8.06056	0.467
8.10014	0.518
8.13971	0.5629
8.17929	0.5935
8.21887	0.6089
8.25844	0.61
8.29802	0.5853
8.33759	0.4849
8.37717	0.3046
8.41675	0.178
8.45632	0.1612
8.4959	0.244
8.53547	0.3296
8.57505	0.358
8.61463	0.3421
8.6542	0.3379
8.69378	0.2869
8.73335	0.1878
8.77293	0.132
8.81251	0.2062
8.85208	0.3125
8.89166	0.4043
8.93123	0.4729
8.97081	0.5024
9.01039	0.4965
9.04996	0.4952
9.08954	0.5259
9.12911	0.533
9.16869	0.5458
9.20827	0.5767
9.24784	0.6157
9.28742	0.6308
9.32699	0.639
9.36657	0.644
9.40615	0.651
9.44572	0.642
9.4853	0.63
9.52488	0.6069
9.56445	0.572
9.60403	0.5332
9.6436	0.431
9.68318	0.3035
9.72276	0.2027
9.76233	0.1621
9.80191	0.168
9.84148	0.2411
9.88106	0.3371
9.92064	0.4285
9.96021	0.4906
9.99979	0.5409
10.0394	0.5777
10.0789	0.5978
10.1185	0.6313
10.1581	0.6411
10.1977	0.6514
10.2372	0.6594
10.2768	0.6641
10.3164	0.6737
10.356	0.676
10.3955	0.6675
10.4351	0.6458
10.4747	0.605
10.5143	0.5478
10.5539	0.5001
10.5934	0.5419
10.633	0.6039
10.6726	0.6401
10.7122	0.657
10.7517	0.677
10.7913	0.684
10.8309	0.6983
10.8705	0.703
10.91	0.703
10.9496	0.7042
10.9892	0.7139
11.0288	0.723
11.0683	0.723
11.1079	0.726
11.1475	0.7232
11.1871	0.728
11.2266	0.726
11.2662	0.7288
11.3058	0.7287
11.3454	0.728
11.3849	0.7233
11.4245	0.7139
11.4641	0.6923
11.5037	0.651
11.5433	0.5818
11.5828	0.5153
11.6224	0.4964
11.662	0.5365
11.7016	0.6135
11.7411	0.6573
11.7807	0.6775
11.8203	0.7033
11.8599	0.7168
11.8994	0.7192
11.939	0.7278
11.9786	0.7325
12.0182	0.736
12.0577	0.736
12.0973	0.728
12.1369	0.706
12.1765	0.677
12.216	0.676
12.2556	0.6865
12.2952	0.7016
12.3348	0.7028
12.3744	0.6893
12.4139	0.6762
12.4535	0.672
12.4931	0.676
12.5327	0.681
12.5722	0.686
12.6118	0.701
12.6514	0.709
12.691	0.7186
12.7305	0.723
12.7701	0.7304
12.8097	0.7262
12.8493	0.7289
12.8888	0.729
12.9284	0.731
12.968	0.7268
13.0076	0.7256
13.0471	0.719
13.0867	0.721
13.1263	0.7217
13.1659	0.725
13.2054	0.723
13.245	0.726
13.2846	0.7216
13.3242	0.7192
13.3638	0.719
13.4033	0.716
13.4429	0.711
13.4825	0.7034
13.5221	0.694
13.5616	0.692
13.6012	0.6873
13.6408	0.682
13.6804	0.674
13.7199	0.669
13.7595	0.664
13.7991	0.6525
13.8387	0.6433
13.8782	0.6262
13.9178	0.634
13.9574	0.6421
13.997	0.6602
14.0365	0.6718
14.0761	0.6747
14.1157	0.6731
14.1553	0.669
14.1949	0.6665
14.2344	0.6453
14.274	0.6255
14.3136	0.62
14.3532	0.6251
14.3927	0.639
14.4323	0.642
14.4719	0.6537
14.5115	0.6563
14.551	0.66
14.5906	0.6584
14.6302	0.656
14.6698	0.657
14.7093	0.6562
14.7489	0.6514
14.7885	0.6501
14.8281	0.644
14.8676	0.6398
14.9072	0.634
14.9468	0.6274
14.9864	0.624
15.0259	0.6281
15.0655	0.6184
15.1051	0.6138
15.1447	0.6068
15.1843	0.6043
15.2238	0.6
15.2634	0.5976
15.303	0.5866
15.3426	0.583
15.3821	0.5783
15.4217	0.5687
