Infrared Spectrum: Serine, N-carboxy-, dibenzyl ester, chloroacetate (ester)
Formula: C20 H20 Cl N O6
CAS: 6335-07-5
State: SOLID (1 mg / 650 mg KBr DISC)
Class: COBLENTZ III
Instrument: PERKIN-ELMER 21 (GRATING)
Instrument parameters: FILTER CHANGE ABOUT 1090 CM^-^1
Sampling: TRANSMISSION
Resolution: 2
Origin: SOUTHERN RESEARCH INSTITUTE
1/CM	TRANSMITTANCE
603.914	0.744
612.957	0.7472
621.999	0.7418
631.042	0.7318
640.085	0.7273
649.128	0.7158
658.17	0.7069
667.213	0.6892
676.256	0.6643
685.299	0.6339
694.341	0.4903
703.384	0.346
712.427	0.7018
721.47	0.7232
730.512	0.6739
739.555	0.5699
748.598	0.4926
757.641	0.4677
766.683	0.5975
775.726	0.7248
784.769	0.6931
793.812	0.8046
802.854	0.8087
811.897	0.8288
820.94	0.8218
829.983	0.7623
839.025	0.823
848.068	0.8226
857.111	0.8207
866.154	0.8203
875.196	0.8066
884.239	0.7793
893.282	0.7713
902.325	0.7701
911.367	0.6925
920.41	0.7487
929.453	0.7526
938.496	0.7264
947.538	0.7024
956.581	0.6429
965.624	0.6518
974.667	0.6931
983.709	0.7193
992.752	0.7228
1001.79	0.7094
1010.84	0.6787
1019.88	0.6569
1028.92	0.6022
1037.97	0.5161
1047.01	0.4666
1056.05	0.4206
1065.09	0.3313
1074.14	0.4108
1083.18	0.478
1092.22	0.509
1101.26	0.6713
1110.31	0.7497
1119.35	0.771
1128.39	0.77
1137.44	0.758
1146.48	0.7226
1155.52	0.6808
1164.56	0.6352
1173.61	0.5947
1182.65	0.5645
1191.69	0.5272
1200.74	0.4212
1209.78	0.3386
1218.82	0.3104
1227.86	0.3269
1236.91	0.3872
1245.95	0.4779
1254.99	0.5018
1264.03	0.4555
1273.08	0.479
1282.12	0.545
1291.16	0.6059
1300.21	0.6258
1309.25	0.6342
1318.29	0.6136
1327.33	0.5581
1336.38	0.4779
1345.42	0.4022
1354.46	0.3681
1363.5	0.4379
1372.55	0.6602
1381.59	0.6997
1390.63	0.6891
1399.68	0.5743
1408.72	0.5965
1417.76	0.6525
1426.8	0.7008
1435.85	0.7526
1444.89	0.7711
1453.93	0.7527
1462.97	0.6362
1472.02	0.6307
1481.06	0.7102
1490.1	0.7779
1499.15	0.7356
1508.19	0.6399
1517.23	0.6243
1526.27	0.5702
1535.32	0.4867
1544.36	0.3825
1553.4	0.449
1562.44	0.5672
1571.49	0.6931
1580.53	0.7464
1589.57	0.7845
1598.62	0.8008
1607.66	0.7957
1616.7	0.7803
1625.74	0.7693
1634.79	0.7512
1643.83	0.7189
1652.87	0.6643
1661.92	0.5637
1670.96	0.4349
1680	0.2442
1689.04	0.2535
1698.09	0.3509
1707.13	0.442
1716.17	0.4423
1725.21	0.4307
1734.26	0.3993
1743.3	0.2544
1752.34	0.3786
1761.39	0.5075
1770.43	0.6094
1779.47	0.6996
1788.51	0.8047
1797.56	0.8252
1806.6	0.8392
1815.64	0.85
1824.68	0.8697
1833.73	0.8833
1842.77	0.8935
1851.81	0.9061
1860.86	0.9106
1869.9	0.9133
1878.94	0.9156
1887.98	0.918
1897.03	0.9203
1906.07	0.9235
1915.11	0.9269
1924.15	0.9293
1933.2	0.9307
1942.24	0.9314
1951.28	0.9294
1960.33	0.9234
1969.37	0.9237
1978.41	0.9302
1987.45	0.9388
1996.5	0.9473
2005.54	0.9556
2014.58	0.9552
2023.62	0.9514
2032.67	0.9531
2041.71	0.959
2050.75	0.9562
2059.8	0.9574
2068.84	0.958
2077.88	0.9587
2086.92	0.9594
2095.97	0.9601
2105.01	0.9613
2114.05	0.9629
2123.09	0.9627
2132.14	0.9621
2141.18	0.9613
2150.22	0.9587
2159.27	0.9584
2168.31	0.964
2177.35	0.9647
2186.39	0.9653
2195.44	0.9659
2204.48	0.9664
2213.52	0.9677
2222.57	0.9707
2231.61	0.9695
2240.65	0.9689
2249.69	0.9719
2258.74	0.972
2267.78	0.9712
2276.82	0.9747
2285.86	0.9685
2294.91	0.9616
2303.95	0.9579
2312.99	0.947
2322.04	0.942
2331.08	0.9469
2340.12	0.9509
2349.16	0.9512
2358.21	0.9535
2367.25	0.956
2376.29	0.9586
2385.33	0.9592
2394.38	0.96
2403.42	0.9615
2412.46	0.9587
2421.51	0.9584
2430.55	0.9612
2439.59	0.9593
2448.63	0.9573
2457.68	0.9588
2466.72	0.9638
2475.76	0.9641
2484.8	0.9622
2493.85	0.9603
2502.89	0.9584
2511.93	0.9541
2520.98	0.9515
2530.02	0.9536
2539.06	0.9597
2548.1	0.9595
2557.15	0.9569
2566.19	0.9553
2575.23	0.9552
2584.27	0.9544
2593.32	0.9532
2602.36	0.9574
2611.4	0.964
2620.45	0.9586
2629.49	0.9541
2638.53	0.9534
2647.57	0.9522
2656.62	0.9511
2665.66	0.9493
2674.7	0.9486
2683.75	0.9481
2692.79	0.9488
2701.83	0.9509
2710.87	0.9515
2719.92	0.9516
2728.96	0.9486
2738	0.9444
2747.04	0.939
2756.09	0.9336
2765.13	0.9285
2774.17	0.9254
2783.22	0.9248
2792.26	0.9284
2801.3	0.9403
2810.34	0.9322
2819.39	0.9271
2828.43	0.9125
2837.47	0.9107
2846.51	0.9069
2855.56	0.8981
2864.6	0.885
2873.64	0.8707
2882.69	0.8534
2891.73	0.8408
2900.77	0.8384
2909.81	0.8401
2918.86	0.8278
2927.9	0.797
2936.94	0.7777
2945.98	0.773
2955.03	0.7801
2964.07	0.8073
2973.11	0.8345
2982.16	0.8564
2991.2	0.8666
3000.24	0.8649
3009.28	0.8609
3018.33	0.8406
3027.37	0.8156
3036.41	0.7987
3045.45	0.7999
3054.5	0.8117
3063.54	0.8196
3072.58	0.8238
3081.63	0.8421
3090.67	0.8641
3099.71	0.8834
3108.75	0.8937
3117.8	0.9043
3126.84	0.9039
3135.88	0.899
3144.93	0.893
3153.97	0.8898
3163.01	0.8857
3172.05	0.8813
3181.1	0.8765
3190.14	0.8618
3199.18	0.8529
3208.22	0.8457
3217.27	0.8384
3226.31	0.8279
3235.35	0.8079
3244.4	0.7909
3253.44	0.771
3262.48	0.7509
3271.52	0.7299
3280.57	0.7061
3289.61	0.6781
3298.65	0.6478
3307.69	0.6062
3316.74	0.5597
3325.78	0.5268
3334.82	0.5103
3343.87	0.5152
3352.91	0.5262
3361.95	0.5508
3370.99	0.5785
3380.04	0.6023
3389.08	0.6261
3398.12	0.6441
3407.16	0.6503
3416.21	0.6502
3425.25	0.6482
3434.29	0.646
3443.34	0.6458
3452.38	0.6484
3461.42	0.6519
3470.46	0.6571
3479.51	0.6623
3488.55	0.6677
3497.59	0.6727
3506.63	0.6784
3515.68	0.6845
3524.72	0.6892
3533.76	0.694
3542.81	0.6989
3551.85	0.7059
3560.89	0.7132
3569.93	0.7247
3578.98	0.7455
3588.02	0.7844
3597.06	0.8134
3606.11	0.8342
3615.15	0.8551
3624.19	0.8676
3633.23	0.887
3642.28	0.8976
3651.32	0.9078
3660.36	0.9167
3669.4	0.9312
3678.45	0.9372
3687.49	0.9385
3696.53	0.9413
3705.58	0.9377
3714.62	0.9404
3723.66	0.9479
3732.7	0.9512
3741.75	0.9533
3750.79	0.9542
3759.83	0.9544
3768.87	0.9537
3777.92	0.9499
3786.96	0.9461
3796	0.9446
3805.05	0.9449
3814.09	0.9475
3823.13	0.9516
3832.17	0.9541
3841.22	0.9522
3850.26	0.9485
3859.3	0.9445
3868.34	0.9429
3877.39	0.9438
3886.43	0.9449
3895.47	0.9467
3904.52	0.9484
3913.56	0.9491
3922.6	0.9485
3931.64	0.9456
3940.69	0.9417
3949.73	0.9392
3958.77	0.9454
3967.81	0.9489
3976.86	0.9478
3985.9	0.949
3994.94	0.9499
4003.99	0.947
