Infrared Spectrum: BENZENE, 1,2,3,4-TETRACHLORO-
Formula: C6 H2 Cl4
CAS: 634-66-2
State: SOLUTION (10% IN CCl4 FOR 3800-1340 AND 10% IN CS2 FOR 1340-400 CM^-^1)
Class: COBLENTZ III
Instrument: DOW KBr FOREPRISM-GRATING
Instrument parameters: BLAZED AT 3.5, 12.0, 20.0 MICRON, CHANGED AT 5.0, 7.5, 14.9 MICRON
Sampling: TRANSMISSION
Path length: 0.011, 0.011 CM
Resolution: 4
Origin: DOW CHEMICAL COMPANY
1/CM	TRANSMITTANCE
382.599	0.559
391.299	0.564
400	0.607
408.7	0.734
417.401	0.831
426.101	0.871
434.801	0.899
443.502	0.924
452.202	0.932
460.903	0.948
469.603	0.947
478.304	0.898
487.004	0.943
495.704	0.945
504.405	0.919
513.105	0.758
521.806	0.919
530.506	0.962
539.206	0.968
547.907	0.952
556.607	0.762
565.308	0.963
574.008	0.966
582.708	0.964
591.409	0.956
600.109	0.873
608.81	0.2871
617.51	0.915
626.21	0.938
634.911	0.93
643.611	0.9
652.312	0.892
661.012	0.925
669.713	0.936
678.413	0.938
687.113	0.936
695.814	0.936
704.514	0.936
713.215	0.934
721.915	0.933
730.615	0.933
739.316	0.911
748.016	0.891
756.717	0.875
765.417	0.652
774.117	0.1131
782.818	0.848
791.518	0.846
800.219	0.5069
808.919	0.4921
817.62	0.814
826.32	0.674
835.02	0.2591
843.721	0.721
852.421	0.724
861.122	0.78
869.822	0.827
878.522	0.865
887.223	0.907
895.923	0.925
904.624	0.929
913.324	0.929
922.024	0.922
930.725	0.909
939.425	0.914
948.126	0.929
956.826	0.929
965.527	0.93
974.227	0.93
982.927	0.929
991.628	0.925
1000.33	0.914
1009.03	0.926
1017.73	0.932
1026.43	0.932
1035.13	0.929
1043.83	0.919
1052.53	0.871
1061.23	0.829
1069.93	0.3908
1078.63	0.917
1087.33	0.928
1096.03	0.919
1104.73	0.911
1113.43	0.898
1122.13	0.805
1130.83	0.9
1139.53	0.895
1148.24	0.85
1156.94	0.654
1165.64	0.2298
1174.34	0.2564
1183.04	0.708
1191.74	0.891
1200.44	0.875
1209.14	0.93
1217.84	0.947
1226.54	0.943
1235.24	0.926
1243.94	0.956
1252.64	0.955
1261.34	0.993
1270.04	1.008
1278.74	1.017
1287.44	1.018
1296.14	1.014
1304.84	1.014
1313.54	1.004
1322.24	0.976
1330.94	0.776
1339.64	0.702
1348.34	0.5598
1357.04	0.099
1365.75	0.7481
1374.45	0.856
1383.15	0.88
1391.85	0.922
1400.55	0.892
1409.25	0.7759
1417.95	0.2698
1426.65	0.4543
1435.35	0.5409
1444.05	0.7101
1452.75	0.925
1461.45	0.957
1470.15	0.953
1478.85	0.937
1487.55	0.883
1496.25	0.853
1504.95	0.799
1513.65	0.755
1522.35	0.701
1531.05	0.583
1539.75	0.5
1548.45	0.4769
1557.15	0.5911
1565.85	0.689
1574.56	0.721
1583.26	0.782
1591.96	0.86
1600.66	0.907
1609.36	0.907
1618.06	0.96
1626.76	0.975
1635.46	0.983
1644.16	0.975
1652.86	0.981
1661.56	0.975
1670.26	0.976
1678.96	0.968
1687.66	0.975
1696.36	0.978
1705.06	0.985
1713.76	0.981
1722.46	0.972
1731.16	0.964
1739.86	0.979
1748.56	0.985
1757.26	0.987
1765.96	0.985
1774.66	0.987
1783.37	0.986
1792.07	0.986
1800.77	0.983
1809.47	0.982
1818.17	0.981
1826.87	0.979
1835.57	0.976
1844.27	0.975
1852.97	0.967
1861.67	0.9049
1870.37	0.949
1879.07	0.978
1887.77	0.979
1896.47	0.978
1905.17	0.983
1913.87	0.983
1922.57	0.978
1931.27	0.979
1939.97	0.982
1948.67	1.001
1957.37	0.976
1966.07	0.975
1974.77	0.972
1983.47	0.964
1992.17	0.966
2000.88	0.959
2009.58	0.955
2018.28	0.955
2026.98	0.961
2035.68	0.9981
2044.38	0.9625
2053.08	0.963
2061.78	0.9626
2070.48	0.962
2079.18	0.9634
2087.88	0.9636
2096.58	0.964
2105.28	0.964
2113.98	0.966
2122.68	0.964
2131.38	0.964
2140.08	0.9626
2148.78	0.963
2157.48	0.963
2166.18	0.962
2174.88	0.9627
2183.58	0.964
2192.28	0.9653
2200.98	0.962
2209.69	0.96
2218.39	0.966
2227.09	0.966
2235.79	0.966
2244.49	0.9627
2253.19	0.9614
2261.89	0.9544
2270.59	0.949
2279.29	0.9504
2287.99	0.945
2296.69	0.943
2305.39	0.943
2314.09	0.944
2322.79	0.9497
2331.49	0.9512
2340.19	0.9562
2348.89	0.9558
2357.59	0.9552
2366.29	0.962
2374.99	0.963
2383.69	0.9632
2392.39	0.968
2401.09	0.971
2409.79	0.972
2418.5	0.972
2427.2	0.974
2435.9	0.9737
2444.6	0.975
2453.3	0.9723
2462	0.975
2470.7	0.9757
2479.4	0.974
2488.1	0.9749
2496.8	0.97
2505.5	0.9711
2514.2	0.975
2522.9	0.975
2531.6	0.9751
2540.3	0.9759
2549	0.9751
2557.7	0.976
2566.4	0.976
2575.1	0.976
2583.8	0.9739
2592.5	0.9721
2601.2	0.972
2609.9	0.972
2618.6	0.972
2627.3	0.97
2636.01	0.974
2644.71	0.972
2653.41	0.972
2662.11	0.975
2670.81	0.974
2679.51	0.972
2688.21	0.971
2696.91	0.974
2705.61	0.975
2714.31	0.9741
2723.01	0.971
2731.71	0.9709
2740.41	0.971
2749.11	0.974
2757.81	0.971
2766.51	0.97
2775.21	0.9671
2783.91	0.9576
2792.61	0.959
2801.31	0.967
2810.01	0.97
2818.71	0.968
2827.41	0.97
2836.11	0.97
2844.82	0.9718
2853.52	0.9704
2862.22	0.966
2870.92	0.967
2879.62	0.967
2888.32	0.967
2897.02	0.967
2905.72	0.9664
2914.42	0.968
2923.12	0.9662
2931.82	0.962
2940.52	0.9628
2949.22	0.962
2957.92	0.962
2966.62	0.96
2975.32	0.962
2984.02	0.96
2992.72	0.9614
3001.42	0.963
3010.12	0.963
3018.82	0.964
3027.52	0.964
3036.22	0.963
3044.92	0.963
3053.63	0.958
3062.33	0.954
3071.03	0.9454
3079.73	0.9319
3088.43	0.9446
3097.13	0.951
3105.83	0.952
3114.53	0.949
3123.23	0.9458
3131.93	0.9462
3140.63	0.9526
3149.33	0.9582
3158.03	0.96
3166.73	0.96
3175.43	0.9626
3184.13	0.9624
3192.83	0.9625
3201.53	0.963
3210.23	0.962
3218.93	0.962
3227.63	0.963
3236.33	0.962
3245.03	0.96
3253.73	0.96
3262.43	0.9625
3271.14	0.963
3279.84	0.963
3288.54	0.962
3297.24	0.96
3305.94	0.962
3314.64	0.962
3323.34	0.96
3332.04	0.957
3340.74	0.957
3349.44	0.957
3358.14	0.957
3366.84	0.957
3375.54	0.956
3384.24	0.956
3392.94	0.956
3401.64	0.956
3410.34	0.957
3419.04	0.957
3427.74	0.959
3436.44	0.957
3445.14	0.956
3453.84	0.9543
3462.54	0.955
3471.24	0.9543
3479.95	0.953
3488.65	0.953
3497.35	0.955
3506.05	0.953
3514.75	0.952
3523.45	0.955
3532.15	0.955
3540.85	0.9553
3549.55	0.953
3558.25	0.953
3566.95	0.953
3575.65	0.953
3584.35	0.953
3593.05	0.953
3601.75	0.953
3610.45	0.952
3619.15	0.952
3627.85	0.952
3636.55	0.952
3645.25	0.952
3653.95	0.9518
3662.65	0.951
3671.35	0.951
3680.05	0.9512
3688.76	0.9533
3697.46	0.956
3706.16	0.9561
3714.86	0.957
3723.56	0.957
3732.26	0.957
3740.96	0.956
3749.66	0.956
3758.36	0.956
3767.06	0.956
3775.76	0.956
3784.46	0.955
3793.16	0.9549
