Infrared Spectrum: ANILINE, 2,4,6-TRICHLORO-
Formula: C6 H4 Cl3 N
CAS: 634-93-5
State: SOLID (SPLIT MULL)
Class: COBLENTZ III
Instrument: BECKMAN IR-9 (GRATING)
Instrument parameters: ORDER CHANGES: 670, 1200, 2000 CM^-^1
Sampling: TRANSMISSION
Resolution: 2
Origin: DOW CHEMICAL COMPANY
1/CM	TRANSMITTANCE
3816	0.6125
3807	0.614
3798	0.6158
3789	0.6176
3780	0.6196
3771	0.6217
3762	0.6238
3753	0.6258
3744	0.6279
3735	0.63
3726	0.6321
3717	0.6343
3708	0.6365
3699	0.6387
3690	0.6408
3681	0.6428
3672	0.6449
3663	0.6464
3654	0.6471
3645	0.6481
3636	0.6491
3627	0.6494
3618	0.6492
3609	0.6482
3600	0.6461
3591	0.6418
3582	0.6551
3573	0.6569
3564	0.6575
3555	0.6578
3546	0.6575
3537	0.6571
3528	0.6534
3519	0.646
3510	0.6462
3501	0.6476
3492	0.6468
3483	0.6389
3474	0.4366
3465	0.4958
3456	0.5857
3447	0.6293
3438	0.4224
3429	0.5176
3420	0.6084
3411	0.6309
3402	0.6437
3393	0.641
3384	0.2549
3375	0.3462
3366	0.4924
3357	0.5864
3348	0.4945
3339	0.4232
3330	0.4629
3321	0.5314
3312	0.5645
3303	0.5828
3294	0.599
3285	0.6125
3276	0.6227
3267	0.6315
3258	0.6375
3249	0.6435
3240	0.6485
3231	0.6534
3222	0.6562
3213	0.6591
3204	0.6606
3195	0.6593
3186	0.6565
3177	0.6584
3168	0.6646
3159	0.6707
3150	0.6761
3141	0.6815
3132	0.6864
3123	0.6903
3114	0.6937
3105	0.6954
3096	0.6949
3087	0.6642
3078	0.6086
3069	0.6608
3060	0.6969
3051	0.7025
3042	0.7058
3033	0.7084
3024	0.711
3015	0.7137
3006	0.7164
2997	0.7193
2988	0.7222
2979	0.7241
2970	0.7258
2961	0.7268
2952	0.7271
2943	0.7274
2934	0.7286
2925	0.7298
2916	0.7311
2907	0.7332
2898	0.7351
2889	0.7371
2880	0.7386
2871	0.7378
2862	0.7355
2853	0.7341
2844	0.7396
2835	0.7451
2826	0.7494
2817	0.753
2808	0.7565
2799	0.7591
2790	0.7608
2781	0.7625
2772	0.7641
2763	0.7655
2754	0.7669
2745	0.7684
2736	0.7694
2727	0.7705
2718	0.7715
2709	0.7725
2700	0.7738
2691	0.7751
2682	0.7764
2673	0.7778
2664	0.7796
2655	0.7812
2646	0.7831
2637	0.7849
2628	0.7856
2619	0.7861
2610	0.7854
2601	0.7845
2592	0.7851
2583	0.7875
2574	0.7901
2565	0.7922
2556	0.7936
2547	0.7944
2538	0.7943
2529	0.7941
2520	0.7944
2511	0.7946
2502	0.7951
2493	0.7961
2484	0.7969
2475	0.7975
2466	0.798
2457	0.7983
2448	0.7983
2439	0.7983
2430	0.7982
2421	0.7975
2412	0.7968
2403	0.7961
2394	0.7951
2385	0.7941
2376	0.7932
2367	0.7925
2358	0.7915
2349	0.7905
2340	0.7889
2331	0.7881
2322	0.7883
2313	0.7898
2304	0.7917
2295	0.7941
2286	0.7968
2277	0.7994
2268	0.8025
2259	0.8055
2250	0.809
2241	0.8134
2232	0.8178
2223	0.8221
2214	0.8261
2205	0.8289
2196	0.83
2187	0.8317
2178	0.8338
2169	0.8361
2160	0.8385
2151	0.8408
2142	0.8431
2133	0.8455
2124	0.8481
2115	0.8507
2106	0.8521
2097	0.8535
2088	0.8549
2079	0.8565
2070	0.8597
2061	0.8627
2052	0.8646
2043	0.8664
2034	0.8683
2025	0.8702
2016	0.8711
2007	0.8708
1998	0.8688
1989	0.8688
1980	0.87
1971	0.8704
1962	0.8707
1953	0.8717
1944	0.8727
1935	0.8733
1926	0.8745
1917	0.8762
1908	0.8778
1899	0.8783
1890	0.8778
1881	0.8773
1872	0.8767
1863	0.8764
1854	0.8771
1845	0.88
1836	0.8833
1827	0.8847
1818	0.8854
1809	0.8858
1800	0.8873
1791	0.8868
1782	0.8871
1773	0.8927
1764	0.8948
1755	0.8924
1746	0.8841
1737	0.8692
1728	0.8421
1719	0.8496
1710	0.8839
1701	0.8956
1692	0.9
1683	0.901
1674	0.8971
1665	0.889
1656	0.8744
1647	0.8416
1638	0.7842
1629	0.6197
1620	0.4491
1611	0.4734
1602	0.6441
1593	0.7433
1584	0.7521
1575	0.5908
1566	0.6465
1557	0.4547
1548	0.8057
1539	0.8501
1530	0.8627
1521	0.8739
1512	0.8721
1503	0.8639
1494	0.8503
1485	0.8323
1476	0.1537
1467	0.1974
1458	0.5991
1449	0.6023
1440	0.716
1431	0.781
1422	0.7207
1413	0.7643
1404	0.8045
1395	0.3609
1386	0.7325
1377	0.7725
1368	0.7821
1359	0.7732
1350	0.7274
1341	0.705
1332	0.7194
1323	0.7282
1314	0.7265
1305	0.6949
1296	0.547
1287	0.6651
1278	0.6818
1269	0.7115
1260	0.7317
1251	0.7375
1242	0.7407
1233	0.7406
1224	0.7121
1215	0.6849
1206	0.7032
1197	0.7372
1188	0.7468
1179	0.7418
1170	0.7345
1161	0.7321
1152	0.7299
1143	0.7092
1134	0.7351
1125	0.7315
1116	0.7224
1107	0.7091
1098	0.685
1089	0.656
1080	0.5542
1071	0.537
1062	0.6747
1053	0.7187
1044	0.7298
1035	0.7341
1026	0.7372
1017	0.74
1008	0.744
999	0.7476
990	0.7475
981	0.7437
972	0.7424
963	0.7434
954	0.7454
945	0.7457
936	0.7438
927	0.7428
918	0.741
909	0.7342
900	0.7253
891	0.7143
882	0.6991
873	0.6071
864	0.5351
855	0.0891
846	0.7408
837	0.7454
828	0.7401
819	0.7275
810	0.6434
801	0.6745
792	0.472
783	0.4647
774	0.6871
765	0.6925
756	0.6857
747	0.6746
738	0.5401
729	0.4922
720	0.5076
711	0.4279
702	0.6067
693	0.6074
684	0.5989
675	0.596
666	0.6002
657	0.6006
648	0.5924
639	0.5871
630	0.5844
621	0.5869
612	0.5933
603	0.6031
594	0.6167
585	0.6258
576	0.6359
567	0.6421
558	0.3709
549	0.5791
540	0.6382
531	0.6425
522	0.6388
513	0.6277
504	0.611
495	0.6059
486	0.5887
477	0.5691
468	0.5516
459	0.539
450	0.5351
441	0.5094
432	0.4825
423	0.4735
414	0.4566
405	0.458
