Infrared Spectrum: 1,2,3,4-TETRAHYDROQUINOLINE
Formula: C9 H11 N
CAS: 635-46-1
State: LIQUID
Melting point: 14.5-16 C
Class: COBLENTZ
Instrument: Not specified, most likely a prism, grating, or hybrid spectrometer.
Sampling: TRANSMISSION
Path length: 0.003 CM
Resolution: 4
Origin: WYANDOTTE CHEMICALS CORP., WYANDOTTE, MICHIGAN, USA
MICROMETERS	TRANSMITTANCE
2.041	0.968
2.08095	0.966
2.1209	0.973
2.16084	0.975
2.20079	0.951
2.24074	0.946
2.28069	0.936
2.32063	0.943
2.36058	0.948
2.40053	0.946
2.44048	0.946
2.48042	0.941
2.52037	0.938
2.56032	0.94
2.60027	0.94
2.64021	0.941
2.68016	0.94
2.72011	0.933
2.76006	0.925
2.8	0.905
2.83995	0.88
2.8799	0.76
2.91985	0.331
2.95979	0.206
2.99974	0.449
3.03969	0.698
3.07964	0.841
3.11958	0.863
3.15953	0.885
3.19948	0.831
3.23943	0.527
3.27937	0.402
3.31932	0.5
3.35927	0.071
3.39922	0.138
3.43916	0.291
3.47911	0.227
3.51906	0.166
3.55901	0.474
3.59895	0.643
3.6389	0.821
3.67885	0.835
3.7188	0.85
3.75874	0.856
3.79869	0.851
3.83864	0.881
3.87859	0.88
3.91853	0.886
3.95848	0.915
3.99843	0.918
4.03838	0.926
4.07832	0.923
4.11827	0.923
4.15822	0.913
4.19817	0.933
4.23811	0.941
4.27806	0.958
4.31801	0.96
4.35796	0.941
4.3979	0.931
4.43785	0.94
4.4778	0.943
4.51775	0.948
4.55769	0.933
4.59764	0.933
4.63759	0.936
4.67754	0.953
4.71748	0.95
4.75743	0.951
4.79738	0.946
4.83733	0.936
4.87727	0.935
4.91722	0.931
4.95717	0.925
4.99712	0.931
5.03706	0.935
5.07701	0.933
5.11696	0.931
5.15691	0.928
5.19685	0.903
5.2368	0.861
5.27675	0.85
5.3167	0.835
5.35664	0.873
5.39659	0.89
5.43654	0.896
5.47649	0.908
5.51643	0.89
5.55638	0.868
5.59633	0.851
5.63628	0.85
5.67622	0.856
5.71617	0.895
5.75612	0.903
5.79607	0.9
5.83601	0.89
5.87596	0.86
5.91591	0.831
5.95586	0.798
5.9958	0.823
6.03575	0.798
6.0757	0.722
6.11565	0.512
6.15559	0
6.19554	0.163
6.23549	0.099
6.27544	0.366
6.31538	0.67
6.35533	0.717
6.39528	0.732
6.43523	0.702
6.47517	0.625
6.51512	0.46
6.55507	0.079
6.59502	0.033
6.63496	0.034
6.67491	0.049
6.71486	0.168
6.75481	0.088
6.79475	0.332
6.8347	0.356
6.87465	0.231
6.9146	0.302
6.95454	0.55
6.99449	0.683
7.03444	0.742
7.07439	0.77
7.11433	0.778
7.15428	0.758
7.19423	0.747
7.23418	0.705
7.27412	0.487
7.31407	0.186
7.35402	0.141
7.39397	0.427
7.43392	0.267
7.47386	0.351
7.51381	0.489
7.55376	0.188
7.59371	0.033
7.63365	0.081
7.6736	0.326
7.71355	0.402
7.7535	0.207
7.79344	0.126
7.83339	0.104
7.87334	0.111
7.91329	0.242
7.95323	0.352
7.99318	0.341
8.03313	0.589
8.07308	0.67
8.11302	0.727
8.15297	0.742
8.19292	0.72
8.23287	0.655
8.27281	0.51
8.31276	0.507
8.35271	0.492
8.39266	0.274
8.4326	0.291
8.47255	0.354
8.5125	0.549
8.55245	0.645
8.59239	0.555
8.63234	0.396
8.67229	0.668
8.71224	0.762
8.75218	0.783
8.79213	0.78
8.83208	0.755
8.87203	0.492
8.91197	0.415
8.95192	0.645
8.99187	0.607
9.03182	0.349
9.07176	0.153
9.11171	0.324
9.15166	0.577
9.19161	0.647
9.23155	0.625
9.2715	0.594
9.31145	0.67
9.3514	0.735
9.39134	0.782
9.43129	0.803
9.47124	0.816
9.51119	0.823
9.55113	0.816
9.59108	0.748
9.63103	0.464
9.67098	0.642
9.71092	0.742
9.75087	0.773
9.79082	0.752
9.83077	0.658
9.87071	0.369
9.91066	0.324
9.95061	0.61
9.99056	0.732
10.0305	0.782
10.0705	0.806
10.1104	0.811
10.1503	0.813
10.1903	0.816
10.2302	0.81
10.2702	0.803
10.3101	0.795
10.3501	0.782
10.39	0.778
10.43	0.758
10.4699	0.748
10.5099	0.727
10.5498	0.702
10.5898	0.723
10.6297	0.737
10.6697	0.71
10.7096	0.62
10.7496	0.537
10.7895	0.53
10.8295	0.645
10.8694	0.763
10.9093	0.8
10.9493	0.81
10.9892	0.82
11.0292	0.823
11.0691	0.821
11.1091	0.818
11.149	0.815
11.189	0.806
11.2289	0.792
11.2689	0.773
11.3088	0.737
11.3488	0.665
11.3887	0.617
11.4287	0.58
11.4686	0.585
11.5086	0.66
11.5485	0.705
11.5885	0.738
11.6284	0.752
11.6684	0.743
11.7083	0.722
11.7482	0.692
11.7882	0.647
11.8281	0.617
11.8681	0.594
11.908	0.603
11.948	0.648
11.9879	0.687
12.0279	0.725
12.0678	0.713
12.1078	0.643
12.1477	0.557
12.1877	0.52
12.2276	0.542
12.2676	0.582
12.3075	0.62
12.3475	0.635
12.3874	0.647
12.4274	0.658
12.4673	0.667
12.5072	0.667
12.5472	0.668
12.5871	0.658
12.6271	0.662
12.667	0.652
12.707	0.643
12.7469	0.633
12.7869	0.63
12.8268	0.608
12.8668	0.585
12.9067	0.554
12.9467	0.505
12.9866	0.465
13.0266	0.379
13.0665	0.279
13.1065	0.199
13.1464	0.113
13.1864	0.059
13.2263	0.044
13.2663	0.041
13.3062	0.036
13.3461	0.039
13.3861	0.039
13.426	0.041
13.466	0.044
13.5059	0.059
13.5459	0.113
13.5858	0.176
13.6258	0.289
13.6657	0.354
13.7057	0.412
13.7456	0.437
13.7856	0.439
13.8255	0.417
13.8655	0.372
13.9054	0.307
13.9454	0.259
13.9853	0.247
14.0253	0.297
14.0652	0.377
14.1052	0.457
14.1451	0.524
14.185	0.545
14.225	0.565
14.2649	0.574
14.3049	0.579
14.3448	0.579
14.3848	0.577
14.4247	0.574
14.4647	0.572
14.5046	0.57
14.5446	0.569
14.5845	0.569
14.6245	0.569
14.6644	0.569
14.7044	0.565
14.7443	0.557
14.7843	0.559
14.8242	0.557
14.8642	0.557
14.9041	0.554
14.944	0.554
14.984	0.564
15.0239	0.569
15.0639	0.57
15.1038	0.567
15.1438	0.557
15.1837	0.552
15.2237	0.56
15.2636	0.565
15.3036	0.572
15.3435	0.575
15.3835	0.58
15.4234	0.587
15.4634	0.599
15.5033	0.607
15.5433	0.623
15.5832	0.635
15.6232	0.643
15.6631	0.662
15.7031	0.67
15.743	0.683
15.7829	0.693
15.8229	0.7
15.8628	0.708
15.9028	0.713
15.9427	0.718
15.9827	0.722
