Infrared Spectrum: Benzenamine, 2-methyl-, hydrochloride
Formula: C7 H10 Cl N
CAS: 636-21-5
State: SOLID (SPLIT MULL), HALOCARBON FOR 3800-1340 CM^-^1, NUJOL FOR 1340-400 CM^-^1
Melting point: 215 C
Class: COBLENTZ II
Instrument: PERKIN-ELMER 180 (GRATING)
Instrument parameters: GRATINGS: 2000, 1000, 500, 250 CM^-^1; FILTER CHANGE: 2970, 2000, 1485, 1000, 743, 500, 372, 250, 186 CM^-^1.
Sampling: TRANSMISSION
Resolution: 2
Origin: K. K. DEB-NCI FREDERICK CANCER RESEARCH CENTER
1/CM	TRANSMITTANCE
401	0.6931
410	0.7208
419	0.7083
428	0.5064
437	0.5834
446	0.4879
455	0.7945
464	0.8302
473	0.846
482	0.8598
491	0.8676
500	0.8497
509	0.5613
518	0.6715
527	0.8665
536	0.8803
545	0.8837
554	0.8834
563	0.8773
572	0.8457
581	0.8111
590	0.8764
599	0.8823
608	0.8828
617	0.8845
626	0.8867
635	0.8862
644	0.8835
653	0.8806
662	0.8796
671	0.8807
680	0.8836
689	0.8842
698	0.807
707	0.8687
716	0.8487
725	0.8303
734	0.8319
743	0.7937
752	0.0609
761	0.8037
770	0.8484
779	0.8636
788	0.8661
797	0.866
806	0.8659
815	0.8646
824	0.8523
833	0.8507
842	0.8561
851	0.8515
860	0.8432
869	0.8082
878	0.8357
887	0.8424
896	0.8438
905	0.8507
914	0.8469
923	0.845
932	0.8419
941	0.8304
950	0.8022
959	0.8298
968	0.8263
977	0.82
986	0.8151
995	0.7991
1004	0.809
1013	0.7769
1022	0.7507
1031	0.7184
1040	0.6388
1049	0.7764
1058	0.7848
1067	0.7577
1076	0.4974
1085	0.7672
1094	0.784
1103	0.7862
1112	0.7839
1121	0.7044
1130	0.7076
1139	0.6272
1148	0.4621
1157	0.7379
1166	0.7426
1175	0.6981
1184	0.7888
1193	0.7921
1202	0.8022
1211	0.7985
1220	0.8077
1229	0.7571
1238	0.7982
1247	0.8113
1256	0.8108
1265	0.8081
1274	0.8049
1283	0.7996
1292	0.7555
1301	0.7872
1310	0.6194
1319	0.766
1328	0.9125
1337	0.9166
1346	0.9195
1355	0.9189
1364	0.9096
1373	0.8712
1382	0.8905
1391	0.9027
1400	0.8948
1409	0.8912
1418	0.8803
1427	0.8766
1436	0.8705
1445	0.8132
1454	0.7468
1463	0.6214
1472	0.7818
1481	0.7296
1490	0.3926
1499	0.4413
1508	0.6784
1517	0.6647
1526	0.8929
1535	0.9164
1544	0.9162
1553	0.9021
1562	0.8723
1571	0.8093
1580	0.7024
1589	0.7329
1598	0.7602
1607	0.7746
1616	0.8671
1625	0.886
1634	0.8735
1643	0.9214
1652	0.9194
1661	0.9136
1670	0.9247
1679	0.9259
1688	0.9226
1697	0.9251
1706	0.9337
1715	0.9317
1724	0.9272
1733	0.9202
1742	0.9189
1751	0.9217
1760	0.9164
1769	0.9223
1778	0.9205
1787	0.9128
1796	0.899
1805	0.8907
1814	0.9091
1823	0.9175
1832	0.9159
1841	0.9106
1850	0.9077
1859	0.9124
1868	0.9075
1877	0.8965
1886	0.892
1895	0.8902
1904	0.886
1913	0.8831
1922	0.8617
1931	0.8679
1940	0.8553
1949	0.8591
1958	0.8596
1967	0.8455
1976	0.8492
1985	0.8167
1994	0.7824
2003	0.7473
2012	0.6845
2021	0.6531
2030	0.7035
2039	0.6977
2048	0.779
2057	0.8508
2066	0.8557
2075	0.8477
2084	0.8604
2093	0.8719
2102	0.8713
2111	0.8603
2120	0.8623
2129	0.8749
2138	0.8656
2147	0.8528
2156	0.8613
2165	0.8599
2174	0.8519
2183	0.8488
2192	0.8293
2201	0.8292
2210	0.8268
2219	0.8355
2228	0.8379
2237	0.8314
2246	0.8186
2255	0.8202
2264	0.8112
2273	0.7989
2282	0.7721
2291	0.7844
2300	0.7996
2309	0.802
2318	0.801
2327	0.798
2336	0.7941
2345	0.7904
2354	0.7857
2363	0.7809
2372	0.7758
2381	0.77
2390	0.7643
2399	0.7584
2408	0.7516
2417	0.7447
2426	0.737
2435	0.7255
2444	0.7146
2453	0.7043
2462	0.7058
2471	0.7021
2480	0.6956
2489	0.6874
2498	0.6757
2507	0.6577
2516	0.633
2525	0.6021
2534	0.5623
2543	0.5088
2552	0.4171
2561	0.4369
2570	0.4213
2579	0.3362
2588	0.3565
2597	0.3877
2606	0.2833
2615	0.1834
2624	0.2058
2633	0.331
2642	0.4563
2651	0.5452
2660	0.5594
2669	0.5278
2678	0.5081
2687	0.4668
2696	0.408
2705	0.3805
2714	0.3524
2723	0.333
2732	0.3514
2741	0.3609
2750	0.3785
2759	0.3318
2768	0.2942
2777	0.2818
2786	0.2569
2795	0.2273
2804	0.1978
2813	0.1682
2822	0.1387
2831	0.134
2840	0.1257
2849	0.1207
2858	0.121
2867	0.1242
2876	0.1296
2885	0.1417
2894	0.1584
2903	0.1723
2912	0.1629
2921	0.1496
2930	0.1934
2939	0.243
2948	0.2734
2957	0.3246
2966	0.3758
2975	0.427
2984	0.4777
2993	0.5036
3002	0.5171
3011	0.54
3020	0.5471
3029	0.5284
3038	0.5303
3047	0.5784
3056	0.6193
3065	0.6411
3074	0.66
3083	0.6682
3092	0.6727
3101	0.6989
3110	0.7354
3119	0.759
3128	0.7654
3137	0.7652
3146	0.7595
3155	0.7694
3164	0.774
3173	0.7712
3182	0.7713
3191	0.7763
3200	0.7829
3209	0.7984
3218	0.8035
3227	0.8048
3236	0.8053
3245	0.8055
3254	0.8047
3263	0.8031
3272	0.801
3281	0.7986
3290	0.7959
3299	0.793
3308	0.7901
3317	0.7873
3326	0.7846
3335	0.7818
3344	0.7799
3353	0.7779
3362	0.776
3371	0.7742
3380	0.7725
3389	0.7708
3398	0.7692
3407	0.7674
3416	0.7657
3425	0.764
3434	0.7636
3443	0.7631
3452	0.7628
3461	0.7623
3470	0.7622
3479	0.7621
3488	0.762
3497	0.7618
3506	0.7617
3515	0.7616
3524	0.7614
3533	0.7612
3542	0.7609
3551	0.7606
3560	0.7604
3569	0.7601
3578	0.7597
3587	0.759
3596	0.7584
3605	0.7578
3614	0.7572
3623	0.7562
3632	0.7552
3641	0.7542
3650	0.7532
3659	0.7521
3668	0.7508
3677	0.7494
3686	0.748
3695	0.7466
3704	0.7452
3713	0.7435
3722	0.7417
3731	0.7399
3740	0.7382
3749	0.7364
3758	0.7346
3767	0.7328
3776	0.7309
3785	0.7294
3794	0.7283
