Infrared Spectrum: 2,4,5-TRICHLORO ANILINE
Formula: C6 H4 Cl3 N
CAS: 636-30-6
State: SOLUTION (10% CCl4 FOR 5000-1330, 10% CS2 FOR 1330-625 CM^-^1)
Class: COBLENTZ
Instrument: Not specified, most likely a prism, grating, or hybrid spectrometer.
Sampling: TRANSMISSION
Path length: 0.0118 CM, 0.0111 CM
Resolution: 4
Origin: DOW CHEMICAL COMPANY
MICROMETERS	TRANSMITTANCE
2.06	0.863
2.10006	0.864
2.14012	0.856
2.18017	0.863
2.22023	0.863
2.26029	0.863
2.30035	0.859
2.34041	0.856
2.38046	0.858
2.42052	0.858
2.46058	0.858
2.50064	0.859
2.54069	0.859
2.58075	0.863
2.62081	0.866
2.66087	0.869
2.70093	0.869
2.74098	0.859
2.78104	0.831
2.8211	0.719
2.86116	0.577
2.90122	0.664
2.94127	0.58
2.98133	0.848
3.02139	0.844
3.06145	0.844
3.10151	0.826
3.14156	0.839
3.18162	0.838
3.22168	0.821
3.26174	0.854
3.30179	0.866
3.34185	0.879
3.38191	0.881
3.42197	0.881
3.46203	0.874
3.50208	0.878
3.54214	0.884
3.5822	0.881
3.62226	0.883
3.66232	0.883
3.70237	0.881
3.74243	0.879
3.78249	0.884
3.82255	0.889
3.8626	0.881
3.90266	0.881
3.94272	0.888
3.98278	0.889
4.02284	0.896
4.06289	0.898
4.10295	0.898
4.14301	0.894
4.18307	0.891
4.22313	0.879
4.26318	0.874
4.30324	0.871
4.3433	0.879
4.38336	0.886
4.42342	0.889
4.46347	0.896
4.50353	0.898
4.54359	0.894
4.58365	0.893
4.6237	0.893
4.66376	0.893
4.70382	0.893
4.74388	0.893
4.78394	0.893
4.82399	0.898
4.86405	0.901
4.90411	0.899
4.94417	0.893
4.98423	0.883
5.02428	0.883
5.06434	0.893
5.1044	0.896
5.14446	0.894
5.18452	0.899
5.22457	0.894
5.26463	0.898
5.30469	0.896
5.34475	0.894
5.3848	0.891
5.42486	0.888
5.46492	0.884
5.50498	0.881
5.54504	0.884
5.58509	0.888
5.62515	0.886
5.66521	0.876
5.70527	0.873
5.74533	0.864
5.78538	0.869
5.82544	0.859
5.8655	0.849
5.90556	0.849
5.94562	0.838
5.98567	0.814
6.02573	0.799
6.06579	0.716
6.10585	0.585
6.1459	0.328
6.18596	0.076
6.22602	0.35
6.26608	0.47
6.30614	0.455
6.34619	0.46
6.38625	0.425
6.42631	0.372
6.46637	0.347
6.50643	0.357
6.54648	0.427
6.58654	0.515
6.6266	0.579
6.66666	0.52
6.70671	0.237
6.74677	0.076
6.78683	0.125
6.82689	0.243
6.86695	0.315
6.907	0.692
6.94706	0.794
6.98712	0.826
7.02718	0.828
7.06724	0.838
7.10729	0.829
7.14735	0.769
7.18741	0.417
7.22747	0.225
7.26753	0.651
7.30758	0.732
7.34764	0.714
7.3877	0.701
7.42776	0.716
7.46781	0.711
7.50787	0.741
7.54793	0.849
7.58799	0.873
7.62805	0.864
7.6681	0.796
7.70816	0.641
7.74822	0.621
7.78828	0.671
7.82834	0.624
7.86839	0.726
7.90845	0.782
7.94851	0.813
7.98857	0.796
8.02863	0.646
8.06868	0.627
8.10874	0.706
8.1488	0.771
8.18886	0.821
8.22891	0.843
8.26897	0.866
8.30903	0.879
8.34909	0.888
8.38915	0.894
8.4292	0.896
8.46926	0.893
8.50932	0.861
8.54938	0.829
8.58944	0.831
8.62949	0.859
8.66955	0.849
8.70961	0.759
8.74967	0.494
8.78973	0.464
8.82978	0.694
8.86984	0.727
8.9099	0.739
8.94996	0.759
8.99001	0.789
9.03007	0.762
9.07013	0.671
9.11019	0.497
9.15025	0.262
9.1903	0.186
9.23036	0.375
9.27042	0.454
9.31048	0.454
9.35054	0.45
9.39059	0.439
9.43065	0.454
9.47071	0.555
9.51077	0.726
9.55082	0.816
9.59088	0.851
9.63094	0.876
9.671	0.879
9.71106	0.881
9.75111	0.886
9.79117	0.893
9.83123	0.899
9.87129	0.899
9.91135	0.899
9.9514	0.896
9.99146	0.898
10.0315	0.899
10.0716	0.899
10.1116	0.898
10.1517	0.894
10.1918	0.886
10.2318	0.884
10.2719	0.883
10.3119	0.884
10.352	0.884
10.392	0.886
10.4321	0.884
10.4722	0.878
10.5122	0.869
10.5523	0.861
10.5923	0.848
10.6324	0.808
10.6724	0.711
10.7125	0.642
10.7526	0.766
10.7926	0.828
10.8327	0.834
10.8727	0.801
10.9128	0.709
10.9529	0.726
10.9929	0.808
11.033	0.824
11.073	0.823
11.1131	0.811
11.1531	0.782
11.1932	0.737
11.2333	0.674
11.2733	0.659
11.3134	0.662
11.3534	0.629
11.3935	0.532
11.4335	0.365
11.4736	0.16
11.5137	0.168
11.5537	0.395
11.5938	0.537
11.6338	0.58
11.6739	0.597
11.714	0.616
11.754	0.626
11.7941	0.627
11.8341	0.602
11.8742	0.537
11.9142	0.459
11.9543	0.492
11.9944	0.647
12.0344	0.722
12.0745	0.766
12.1145	0.781
12.1546	0.791
12.1946	0.799
12.2347	0.799
12.2748	0.799
12.3148	0.796
12.3549	0.784
12.3949	0.764
12.435	0.752
12.4751	0.754
12.5151	0.769
12.5552	0.776
12.5952	0.779
12.6353	0.777
12.6753	0.774
12.7154	0.772
12.7555	0.769
12.7955	0.769
12.8356	0.771
12.8756	0.772
12.9157	0.772
12.9557	0.771
12.9958	0.769
13.0359	0.766
13.0759	0.762
13.116	0.759
13.156	0.759
13.1961	0.757
13.2362	0.751
13.2762	0.741
13.3163	0.734
13.3563	0.731
13.3964	0.731
13.4364	0.712
13.4765	0.677
13.5166	0.592
13.5566	0.462
13.5967	0.38
13.6367	0.36
13.6768	0.455
13.7168	0.522
13.7569	0.564
13.797	0.587
13.837	0.597
13.8771	0.604
13.9171	0.606
13.9572	0.607
13.9973	0.604
14.0373	0.601
14.0774	0.599
14.1174	0.597
14.1575	0.592
14.1975	0.587
14.2376	0.582
14.2777	0.577
14.3177	0.572
14.3578	0.565
14.3978	0.557
14.4379	0.55
14.4779	0.542
14.518	0.532
14.5581	0.522
14.5981	0.51
14.6382	0.475
14.6782	0.407
14.7183	0.333
14.7584	0.237
14.7984	0.2
14.8385	0.212
14.8785	0.253
14.9186	0.297
14.9586	0.337
14.9987	0.368
15.0388	0.392
15.0788	0.395
15.1189	0.397
15.1589	0.397
15.199	0.395
15.239	0.392
15.2791	0.388
15.3192	0.383
15.3592	0.377
15.3993	0.373
15.4393	0.37
15.4794	0.368
15.5195	0.368
15.5595	0.368
15.5996	0.368
15.6396	0.37
15.6797	0.373
15.7197	0.373
15.7598	0.373
15.7999	0.375
15.8399	0.377
15.88	0.378
