Infrared Spectrum: Morpholine, 4-[3-(p-n-butoxyphenoxy )propyl]-, hydrochloride
Formula: C17 H28 Cl N O3
CAS: 637-58-1
State: SOLID (NUJOL MULL)
Class: COBLENTZ III
Instrument: PERKIN-ELMER 21 (GRATING)
Instrument parameters: FILTER AT ABOUT 10 MICRONS
Resolution: 2
Origin: ABBOTT LABORATORIES
1/CM	TRANSMITTANCE
669	0.7273
678	0.7323
687	0.7409
696	0.7375
705	0.7195
714	0.6593
723	0.6483
732	0.631
741	0.6746
750	0.657
759	0.6449
768	0.5973
777	0.5837
786	0.7571
795	0.7485
804	0.682
813	0.6752
822	0.4179
831	0.5335
840	0.7292
849	0.7297
858	0.7106
867	0.6433
876	0.6377
885	0.6288
894	0.6533
903	0.5041
912	0.7112
921	0.6878
930	0.6054
939	0.6528
948	0.6251
957	0.6396
966	0.6056
975	0.6692
984	0.672
993	0.6353
1002	0.5666
1011	0.4685
1020	0.4303
1029	0.2472
1038	0.2198
1047	0.5328
1056	0.5815
1065	0.5058
1074	0.4137
1083	0.4728
1092	0.2415
1101	0.2067
1110	0.4229
1119	0.4625
1128	0.6297
1137	0.6111
1146	0.5604
1155	0.6484
1164	0.649
1173	0.632
1182	0.5639
1191	0.4525
1200	0.3031
1209	0.1407
1218	0.0812
1227	0.1111
1236	0.325
1245	0.5125
1254	0.5005
1263	0.4705
1272	0.4957
1281	0.453
1290	0.5876
1299	0.5928
1308	0.6278
1317	0.6256
1326	0.6208
1335	0.5864
1344	0.5572
1353	0.497
1362	0.4117
1371	0.2811
1380	0.474
1389	0.4938
1398	0.4965
1407	0.4514
1416	0.4554
1425	0.416
1434	0.2486
1443	0.0989
1452	0.0761
1461	0.1158
1470	0.2744
1479	0.4326
1488	0.478
1497	0.1288
1506	0.2551
1515	0.536
1524	0.6452
1533	0.6744
1542	0.711
1551	0.7467
1560	0.7738
1569	0.7832
1578	0.7871
1587	0.789
1596	0.7893
1605	0.7856
1614	0.7761
1623	0.7669
1632	0.7578
1641	0.7613
1650	0.7794
1659	0.787
1668	0.7916
1677	0.793
1686	0.7929
1695	0.7926
1704	0.7924
1713	0.792
1722	0.7915
1731	0.7904
1740	0.7884
1749	0.7875
1758	0.7874
1767	0.7862
1776	0.7853
1785	0.7844
1794	0.7835
1803	0.7825
1812	0.7813
1821	0.7791
1830	0.7758
1839	0.7695
1848	0.7611
1857	0.752
1866	0.7547
1875	0.7694
1884	0.7731
1893	0.7738
1902	0.7737
1911	0.773
1920	0.7719
1929	0.7708
1938	0.7682
1947	0.7642
1956	0.7594
1965	0.7546
1974	0.7499
1983	0.7452
1992	0.7406
2001	0.7373
2010	0.7341
2019	0.731
2028	0.729
2037	0.7271
2046	0.7264
2055	0.7265
2064	0.7268
2073	0.7272
2082	0.7279
2091	0.7288
2100	0.7299
2109	0.7291
2118	0.7273
2127	0.7245
2136	0.7205
2145	0.7154
2154	0.7099
2163	0.7039
2172	0.6962
2181	0.6885
2190	0.6808
2199	0.6726
2208	0.6642
2217	0.6558
2226	0.6468
2235	0.6379
2244	0.6288
2253	0.6162
2262	0.6031
2271	0.5875
2280	0.5678
2289	0.5456
2298	0.5202
2307	0.4933
2316	0.47
2325	0.4552
2334	0.444
2343	0.4363
2352	0.4311
2361	0.4269
2370	0.4233
2379	0.4158
2388	0.3969
2397	0.3633
2406	0.3245
2415	0.284
2424	0.2235
2433	0.2118
2442	0.2045
2451	0.202
2460	0.2056
2469	0.258
2478	0.3115
2487	0.3144
2496	0.3015
2505	0.2875
2514	0.2783
2523	0.2761
2532	0.2766
2541	0.2797
2550	0.2868
2559	0.3203
2568	0.3602
2577	0.3999
2586	0.4392
2595	0.4783
2604	0.5139
2613	0.5184
2622	0.5157
2631	0.5057
2640	0.5004
2649	0.5151
2658	0.5332
2667	0.5596
2676	0.5644
2685	0.5663
2694	0.5676
2703	0.5684
2712	0.5688
2721	0.5692
2730	0.5685
2739	0.567
2748	0.5621
2757	0.5524
2766	0.5387
2775	0.5244
2784	0.5124
2793	0.4408
2802	0.3604
2811	0.2805
2820	0.2011
2829	0.1222
2838	0.0445
2847	0.0106
2856	0.0036
2865	0.0021
2874	0.0021
2883	0.0026
2892	0.0035
2901	0.0052
2910	0.0086
2919	0.0148
2928	0.0263
2937	0.0601
2946	0.1751
2955	0.2943
2964	0.4078
2973	0.4497
2982	0.4855
2991	0.5164
3000	0.5597
3009	0.5784
3018	0.5942
3027	0.605
3036	0.6153
3045	0.6245
3054	0.6321
3063	0.6379
3072	0.6402
3081	0.6422
3090	0.6437
3099	0.6452
3108	0.6466
3117	0.6493
3126	0.6524
3135	0.6554
3144	0.6579
3153	0.6593
3162	0.6595
3171	0.6596
3180	0.6594
3189	0.6591
3198	0.6589
3207	0.6584
3216	0.6578
3225	0.6573
3234	0.6568
3243	0.6563
3252	0.656
3261	0.6557
3270	0.6554
3279	0.655
3288	0.655
3297	0.6551
3306	0.6553
3315	0.6554
3324	0.6555
3333	0.6557
3342	0.656
3351	0.6564
3360	0.6568
3369	0.6573
3378	0.6577
3387	0.6582
3396	0.6588
3405	0.6593
3414	0.6599
3423	0.6604
3432	0.6607
3441	0.6609
3450	0.6612
3459	0.6611
3468	0.6604
3477	0.6598
3486	0.6587
3495	0.6569
3504	0.6552
3513	0.6536
3522	0.6521
3531	0.6509
3540	0.6502
3549	0.6496
3558	0.649
3567	0.6487
3576	0.6484
3585	0.6481
3594	0.6478
3603	0.6474
3612	0.6471
3621	0.6467
3630	0.6464
3639	0.646
3648	0.6452
3657	0.6444
3666	0.6435
3675	0.6428
3684	0.6415
3693	0.6398
3702	0.6382
3711	0.6364
3720	0.6344
3729	0.6323
3738	0.6304
3747	0.6288
3756	0.6271
3765	0.6255
3774	0.624
3783	0.6231
3792	0.6221
3801	0.6211
3810	0.6202
3819	0.6195
3828	0.6189
3837	0.6183
3846	0.618
3855	0.6176
3864	0.6171
3873	0.6162
3882	0.6153
3891	0.6145
3900	0.6136
3909	0.6127
3918	0.6118
3927	0.6109
3936	0.6101
3945	0.6093
3954	0.6084
3963	0.6076
3972	0.6067
3981	0.6058
3990	0.605
3999	0.6046
