Infrared Spectrum: PHENYL PROPIOLIC ACID
Formula: C9 H6 O2
CAS: 637-44-5
Class: COBLENTZ
Instrument: Not specified, most likely a prism, grating, or hybrid spectrometer.
Sampling: TRANSMISSION
Resolution: 4
MICROMETERS	TRANSMITTANCE
1.827	0.639
1.8603	0.647
1.8936	0.657
1.9269	0.669
1.9602	0.679
1.9935	0.688
2.02679	0.7
2.06009	0.708
2.09339	0.715
2.12669	0.724
2.15999	0.732
2.19329	0.739
2.22659	0.741
2.25989	0.744
2.29319	0.755
2.32649	0.763
2.35979	0.771
2.39308	0.779
2.42638	0.787
2.45968	0.798
2.49298	0.804
2.52628	0.807
2.55958	0.815
2.59288	0.824
2.62618	0.835
2.65948	0.839
2.69278	0.844
2.72608	0.85
2.75937	0.855
2.79267	0.858
2.82597	0.858
2.85927	0.858
2.89257	0.851
2.92587	0.85
2.95917	0.856
2.99247	0.847
3.02577	0.81
3.05907	0.771
3.09237	0.739
3.12566	0.667
3.15896	0.601
3.19226	0.544
3.22556	0.453
3.25886	0.406
3.29216	0.374
3.32546	0.256
3.35876	0.141
3.39206	0.069
3.42536	0.153
3.45866	0.155
3.49195	0.24
3.52525	0.375
3.55855	0.434
3.59185	0.514
3.62515	0.521
3.65845	0.479
3.69175	0.43
3.72505	0.467
3.75835	0.514
3.79165	0.509
3.82495	0.399
3.85824	0.398
3.89154	0.467
3.92484	0.542
3.95814	0.557
3.99144	0.586
4.02474	0.64
4.05804	0.677
4.09134	0.7
4.12464	0.704
4.15794	0.744
4.19124	0.806
4.22454	0.822
4.25783	0.827
4.29113	0.839
4.32443	0.852
4.35773	0.85
4.39103	0.74
4.42433	0.332
4.45763	0.141
4.49093	0.163
4.52423	0.112
4.55753	0.387
4.59083	0.561
4.62412	0.676
4.65742	0.701
4.69072	0.717
4.72402	0.775
4.75732	0.804
4.79062	0.819
4.82392	0.831
4.85722	0.823
4.89052	0.823
4.92382	0.84
4.95712	0.852
4.99041	0.859
5.02371	0.866
5.05701	0.86
5.09031	0.854
5.12361	0.872
5.15691	0.874
5.19021	0.867
5.22351	0.844
5.25681	0.816
5.29011	0.81
5.32341	0.823
5.3567	0.832
5.39	0.838
5.4233	0.848
5.4566	0.859
5.4899	0.855
5.5232	0.847
5.5565	0.854
5.5898	0.844
5.6231	0.842
5.6564	0.836
5.6897	0.843
5.72299	0.847
5.75629	0.842
5.78959	0.806
5.82289	0.745
5.85619	0.508
5.88949	0.179
5.92279	0.022
5.95609	0.044
5.98939	0.105
6.02269	0.334
6.05599	0.495
6.08928	0.588
6.12258	0.683
6.15588	0.732
6.18918	0.775
6.22248	0.775
6.25578	0.766
6.28908	0.831
6.32238	0.855
6.35568	0.859
6.38898	0.863
6.42228	0.864
6.45557	0.866
6.48887	0.866
6.52217	0.846
6.55547	0.822
6.58877	0.819
6.62207	0.824
6.65537	0.783
6.68867	0.548
6.72197	0.683
6.75527	0.822
6.78857	0.713
6.82186	0.622
6.85516	0.661
6.88846	0.675
6.92176	0.606
6.95506	0.692
6.98836	0.467
7.02166	0.169
7.05496	0.185
7.08826	0.394
7.12156	0.624
7.15486	0.744
7.18815	0.78
7.22145	0.752
7.25475	0.713
7.28805	0.811
7.32135	0.846
7.35465	0.863
7.38795	0.86
7.42125	0.846
7.45455	0.815
7.48785	0.748
7.52115	0.653
7.55444	0.457
7.58774	0.165
7.62104	0.074
7.65434	0.093
7.68764	0.235
7.72094	0.414
7.75424	0.471
7.78754	0.596
7.82084	0.735
7.85414	0.83
7.88744	0.855
7.92073	0.863
7.95403	0.883
7.98733	0.889
8.02063	0.871
8.05393	0.792
8.08723	0.727
8.12053	0.744
8.15383	0.76
8.18713	0.562
8.22043	0.26
8.25373	0.077
8.28703	0.151
8.32032	0.395
8.35362	0.604
8.38692	0.715
8.42022	0.788
8.45352	0.605
8.48682	0.636
8.52012	0.679
8.55342	0.743
8.58672	0.891
8.62002	0.898
8.65332	0.933
8.68661	0.942
8.71991	0.951
8.75321	0.955
8.78651	0.958
8.81981	0.955
8.85311	0.951
8.88641	0.945
8.91971	0.945
8.95301	0.957
8.98631	0.969
9.01961	0.974
9.0529	0.974
9.0862	0.975
9.1195	0.966
9.1528	0.955
9.1861	0.974
9.2194	0.977
9.2527	0.979
9.286	0.979
9.3193	0.975
9.3526	0.961
9.3859	0.955
9.41919	0.971
9.45249	0.977
9.48579	0.979
9.51909	0.978
9.55239	0.975
9.58569	0.97
9.61899	0.966
9.65229	0.958
9.68559	0.95
9.71889	0.887
9.75219	0.688
9.78548	0.826
9.81878	0.926
9.85208	0.945
9.88538	0.947
9.91868	0.954
9.95198	0.949
9.98528	0.939
10.0186	0.796
10.0519	0.894
10.0852	0.958
10.1185	0.955
10.1518	0.954
10.1851	0.954
10.2184	0.949
10.2517	0.943
10.285	0.935
10.3183	0.926
10.3516	0.915
10.3849	0.902
10.4182	0.887
10.4515	0.881
10.4848	0.875
10.5181	0.864
10.5514	0.846
10.5847	0.82
10.618	0.776
10.6513	0.732
10.6846	0.675
10.7179	0.613
10.7512	0.57
10.7845	0.546
10.8178	0.508
10.8511	0.425
10.8844	0.363
10.9177	0.43
10.951	0.512
10.9843	0.566
11.0176	0.628
11.0509	0.673
11.0841	0.72
11.1174	0.766
11.1507	0.796
11.184	0.819
11.2173	0.843
11.2506	0.858
11.2839	0.877
11.3172	0.889
11.3505	0.903
11.3838	0.915
11.4171	0.926
11.4504	0.933
11.4837	0.938
11.517	0.942
11.5503	0.946
11.5836	0.949
11.6169	0.953
11.6502	0.954
11.6835	0.955
11.7168	0.955
11.7501	0.955
11.7834	0.957
11.8167	0.958
11.85	0.958
11.8833	0.961
11.9166	0.962
11.9499	0.962
11.9832	0.965
12.0165	0.963
12.0498	0.963
12.0831	0.963
12.1164	0.962
12.1497	0.959
12.183	0.957
12.2163	0.955
12.2496	0.954
12.2829	0.955
12.3162	0.961
12.3495	0.963
12.3828	0.97
12.4161	0.973
12.4494	0.974
12.4827	0.978
12.516	0.979
12.5493	0.983
12.5826	0.986
12.6159	0.987
12.6492	0.989
12.6825	0.989
12.7158	0.99
12.7491	0.99
12.7824	0.991
12.8157	0.994
12.849	0.994
12.8823	0.994
12.9156	0.993
12.9489	0.99
12.9822	0.99
13.0155	0.987
13.0488	0.982
13.0821	0.973
13.1154	0.955
13.1487	0.93
13.182	0.878
13.2153	0.732
13.2486	0.467
13.2819	0.255
13.3152	0.28
13.3485	0.411
13.3818	0.584
13.4151	0.665
13.4484	0.767
13.4817	0.824
13.515	0.808
13.5483	0.772
13.5816	0.774
13.6149	0.818
13.6482	0.874
13.6815	0.909
13.7148	0.926
13.7481	0.935
13.7814	0.939
13.8147	0.946
13.848	0.946
13.8813	0.945
13.9146	0.953
13.9479	0.959
13.9812	0.967
14.0145	0.973
14.0478	0.977
14.0811	0.978
14.1144	0.982
14.1477	0.982
14.181	0.982
14.2143	0.979
14.2476	0.973
14.2809	0.965
14.3142	0.955
14.3475	0.947
14.3808	0.939
14.4141	0.934
14.4474	0.925
14.4807	0.906
14.514	0.878
14.5473	0.78
14.5806	0.669
14.6139	0.529
14.6472	0.49
14.6805	0.51
14.7138	0.588
14.7471	0.683
14.7803	0.79
14.8136	0.858
14.8469	0.882
14.8802	0.903
14.9135	0.918
14.9468	0.935
14.9801	0.959
15.0134	0.975
15.0467	0.975
15.08	0.971
15.1133	0.971
