Infrared Spectrum: tert-Butyl Ethyl Ether
Formula: ( C H3)3 C O C2 H5
CAS: 637-92-3
State: gas
Melting point: -94 C
Boiling point: 73.1 C
Class: IUPAC A
Instrument: IFS66V (Bruker)
Instrument parameters: KBr Beam splitter; MCT Detector; Multipass cell
Sampling: 1 L/min Flow
Resolution: 1.9290
Temperature: 23 C
Pressure: 101.3 kPa
Origin: NIST, Anayltical Chemistry Division, 301-975-3108
cm-1	(micromol/mol)-1m-1 (base 10)
574.687	-1.02874e-07
583.365	-1.72969e-07
592.043	1.24504e-07
600.721	-1.71872e-07
609.4	1.23712e-07
618.078	1.83521e-07
626.756	1.48196e-07
635.434	1.42159e-07
644.112	-4.90888e-08
652.79	1.0364e-07
661.469	-3.56593e-08
670.147	5.87312e-08
678.825	1.64025e-07
687.503	3.56185e-07
696.181	5.59093e-07
704.859	9.72083e-07
713.537	2.01624e-06
722.216	5.61461e-06
730.894	1.55083e-05
739.572	2.33309e-05
748.25	1.92827e-05
756.928	5.31785e-06
765.606	2.11739e-06
774.285	1.66525e-06
782.963	1.57862e-06
791.641	1.4972e-06
800.319	1.70335e-06
808.997	2.34427e-06
817.675	3.32688e-06
826.353	7.10473e-06
835.032	2.41342e-05
843.71	6.02944e-05
852.388	6.39926e-05
861.066	3.25856e-05
869.744	7.11411e-06
878.422	2.65907e-06
887.101	2.69067e-06
895.779	3.70608e-06
904.457	6.64208e-06
913.135	9.24137e-06
921.813	1.0102e-05
930.491	9.43826e-06
939.169	2.05059e-05
947.848	6.17445e-05
956.526	0.00011604
965.204	0.000102693
973.882	2.97083e-05
982.56	6.73827e-06
991.238	4.46314e-06
999.917	5.58097e-06
1008.59	1.10653e-05
1017.27	2.50244e-05
1025.95	3.1383e-05
1034.63	2.41763e-05
1043.31	2.05784e-05
1051.99	3.85405e-05
1060.66	9.90014e-05
1069.34	0.000283812
1078.02	0.000518479
1086.7	0.000470649
1095.38	0.000174106
1104.05	0.000121176
1112.73	0.000279108
1121.41	0.000367706
1130.09	0.000246603
1138.77	6.99778e-05
1147.45	5.16578e-05
1156.12	6.31212e-05
1164.8	6.39024e-05
1173.48	5.96275e-05
1182.16	7.55594e-05
1190.84	0.000193148
1199.51	0.000475271
1208.19	0.000650807
1216.87	0.000404544
1225.55	0.000151694
1234.23	0.000154047
1242.9	0.000168261
1251.58	0.000153484
1260.26	0.00012517
1268.94	7.79286e-05
1277.62	3.86826e-05
1286.3	2.29575e-05
1294.97	1.70349e-05
1303.65	1.33242e-05
1312.33	9.81949e-06
1321.01	8.90965e-06
1329.69	7.84327e-06
1338.36	9.20025e-06
1347.04	3.2881e-05
1355.72	0.000146555
1364.4	0.000297712
1373.08	0.000234229
1381.76	0.000129627
1390.43	0.000196744
1399.11	0.000192786
1407.79	7.17892e-05
1416.47	2.56192e-05
1425.15	2.03764e-05
1433.82	2.8283e-05
1442.5	4.59799e-05
1451.18	6.13094e-05
1459.86	7.22554e-05
1468.54	7.72779e-05
1477.22	6.23697e-05
1485.89	6.18593e-05
1494.57	4.79505e-05
1503.25	2.44697e-05
1511.93	7.58466e-06
1520.61	4.69402e-06
1529.28	2.97284e-06
1537.96	2.74312e-06
1546.64	2.43689e-06
1555.32	2.41788e-06
1564	2.60292e-06
1572.67	2.58039e-06
1581.35	2.9778e-06
1590.03	3.12594e-06
1598.71	2.69947e-06
1607.39	1.84933e-06
1616.07	2.35154e-06
1624.74	1.59748e-06
1633.42	2.0708e-06
1642.1	2.7243e-06
1650.78	2.92347e-06
1659.46	2.78871e-06
1668.13	2.3977e-06
1676.81	2.54973e-06
1685.49	4.40123e-06
1694.17	4.25526e-06
1702.85	4.67504e-06
1711.53	3.37925e-06
1720.2	2.07568e-06
1728.88	1.97946e-06
1737.56	2.77299e-06
1746.24	3.36108e-06
1754.92	3.83456e-06
1763.59	3.14197e-06
1772.27	2.88217e-06
1780.95	2.15256e-06
1789.63	3.085e-06
1798.31	6.01452e-06
1806.98	8.76948e-06
1815.66	8.27726e-06
1824.34	4.80489e-06
1833.02	3.27309e-06
1841.7	2.15154e-06
1850.38	2.06198e-06
1859.05	2.1706e-06
1867.73	2.09251e-06
1876.41	1.65255e-06
1885.09	1.60618e-06
1893.77	2.06394e-06
1902.44	3.2118e-06
1911.12	5.76582e-06
1919.8	9.51982e-06
1928.48	1.14788e-05
1937.16	8.5149e-06
1945.84	3.55702e-06
1954.51	2.98795e-06
1963.19	3.94282e-06
1971.87	4.01626e-06
1980.55	2.67976e-06
1989.23	1.40966e-06
1997.9	1.01758e-06
2006.58	9.3925e-07
2015.26	1.00402e-06
2023.94	1.13653e-06
2032.62	1.56019e-06
2041.3	2.45642e-06
2049.97	3.31994e-06
2058.65	3.00389e-06
2067.33	1.55863e-06
2076.01	1.04953e-06
2084.69	1.2626e-06
2093.36	1.77677e-06
2102.04	2.46492e-06
2110.72	2.47846e-06
2119.4	1.80708e-06
2128.08	1.62608e-06
2136.75	1.84246e-06
2145.43	1.95607e-06
2154.11	2.22439e-06
2162.79	2.67481e-06
2171.47	3.01602e-06
2180.15	3.42251e-06
2188.82	4.48564e-06
2197.5	5.14367e-06
2206.18	4.2254e-06
2214.86	2.55228e-06
2223.54	2.00372e-06
2232.21	2.27094e-06
2240.89	2.58265e-06
2249.57	2.17715e-06
2258.25	2.17818e-06
2266.93	3.1471e-06
2275.61	3.84627e-06
2284.28	3.35767e-06
2292.96	2.42916e-06
2301.64	1.56639e-06
2310.32	1.54091e-06
2319	1.90368e-06
2327.67	2.41093e-06
2336.35	2.70669e-06
2345.03	2.48945e-06
2353.71	2.0577e-06
2362.39	1.58213e-06
2371.06	1.7546e-06
2379.74	2.09658e-06
2388.42	2.08475e-06
2397.1	1.82361e-06
2405.78	1.6756e-06
2414.46	1.64224e-06
2423.13	1.54444e-06
2431.81	1.91422e-06
2440.49	2.52986e-06
2449.17	2.68407e-06
2457.85	2.15143e-06
2466.52	1.74009e-06
2475.2	1.51766e-06
2483.88	1.27048e-06
2492.56	1.09673e-06
2501.24	8.91224e-07
2509.92	7.61303e-07
2518.59	8.54713e-07
2527.27	8.23329e-07
2535.95	8.41838e-07
2544.63	9.72843e-07
2553.31	1.30615e-06
2561.98	1.5951e-06
2570.66	1.85235e-06
2579.34	2.01117e-06
2588.02	2.38316e-06
2596.7	3.39972e-06
2605.38	5.22226e-06
2614.05	7.54644e-06
2622.73	9.38111e-06
2631.41	8.93214e-06
2640.09	6.63121e-06
2648.77	5.03734e-06
2657.44	4.74314e-06
2666.12	4.75841e-06
2674.8	4.6439e-06
2683.48	4.53305e-06
2692.16	4.72706e-06
2700.83	5.6011e-06
2709.51	9.28802e-06
2718.19	1.53664e-05
2726.87	1.91123e-05
2735.55	1.9951e-05
2744.23	1.84567e-05
2752.9	1.49099e-05
2761.58	1.42302e-05
2770.26	1.70429e-05
2778.94	1.82545e-05
2787.62	1.69986e-05
2796.29	1.58262e-05
2804.97	1.80433e-05
2813.65	2.34217e-05
2822.33	3.01563e-05
2831.01	3.65362e-05
2839.69	4.68516e-05
2848.36	6.02216e-05
2857.04	8.10613e-05
2865.72	0.000129853
2874.4	0.00022476
2883.08	0.000316561
2891.75	0.000345499
2900.43	0.0003431
2909.11	0.000288765
2917.79	0.000234593
2926.47	0.000216686
2935.14	0.000286509
2943.82	0.000317102
2952.5	0.000264895
2961.18	0.000257456
2969.86	0.000603518
2978.54	0.0011582
2987.21	0.00122566
2995.89	0.000525754
3004.57	0.000106614
3013.25	3.43209e-05
3021.93	3.04177e-05
3030.6	2.62658e-05
3039.28	1.66243e-05
3047.96	9.27719e-06
3056.64	6.46459e-06
3065.32	6.18712e-06
3074	6.76003e-06
3082.67	7.55754e-06
3091.35	7.41154e-06
3100.03	6.17995e-06
3108.71	4.83626e-06
3117.39	4.22798e-06
3126.06	4.03715e-06
3134.74	4.0209e-06
3143.42	4.10962e-06
3152.1	4.57647e-06
3160.78	5.64733e-06
3169.46	7.38387e-06
3178.13	9.03191e-06
3186.81	9.20709e-06
3195.49	8.10352e-06
3204.17	7.49729e-06
3212.85	7.94649e-06
3221.52	8.77481e-06
3230.2	9.21442e-06
3238.88	8.4505e-06
3247.56	6.29396e-06
3256.24	3.68833e-06
3264.91	2.24925e-06
3273.59	1.79989e-06
3282.27	1.60748e-06
3290.95	1.57435e-06
3299.63	1.8568e-06
3308.31	2.85739e-06
3316.98	3.74202e-06
3325.66	3.65581e-06
3334.34	2.76198e-06
3343.02	1.73516e-06
3351.7	1.0418e-06
3360.37	7.09466e-07
3369.05	5.80458e-07
3377.73	6.55153e-07
3386.41	7.27275e-07
3395.09	8.33426e-07
3403.77	9.88416e-07
3412.44	1.27051e-06
3421.12	2.10849e-06
3429.8	3.05396e-06
3438.48	2.94364e-06
3447.16	1.97976e-06
3455.83	1.06421e-06
3464.51	7.73714e-07
3473.19	9.64871e-07
3481.87	1.23184e-06
3490.55	1.21337e-06
3499.22	7.01224e-07
3507.9	2.75352e-07
3516.58	4.21312e-08
3525.26	5.03457e-08
3533.94	2.66462e-08
3542.62	7.43108e-08
3551.29	6.1467e-08
3559.97	1.24906e-07
3568.65	2.5067e-07
3577.33	7.50511e-09
3586.01	2.34765e-07
3594.68	1.07744e-07
3603.36	1.37169e-08
3612.04	2.93982e-07
3620.72	6.28385e-08
3629.4	1.16345e-06
3638.08	2.65564e-07
3646.75	7.87431e-07
3655.43	5.02581e-07
3664.11	2.63887e-07
3672.79	3.82895e-07
3681.47	3.4187e-07
3690.14	4.96376e-07
3698.82	7.72563e-07
3707.5	1.37286e-06
3716.18	1.78394e-06
3724.86	1.65294e-06
3733.54	6.20681e-07
3742.21	7.87875e-07
3750.89	1.22439e-07
3759.57	8.24464e-07
3768.25	4.83932e-07
3776.93	5.49963e-07
3785.6	8.59739e-07
3794.28	9.5983e-07
3802.96	1.00073e-06
3811.64	1.21502e-06
3820.32	1.60016e-06
3828.99	1.23726e-06
3837.67	2.92885e-06
3846.35	1.23431e-06
3855.03	1.86079e-06
3863.71	1.20366e-06
3872.39	1.50327e-06
3881.06	2.13002e-06
3889.74	2.23082e-06
3898.42	2.38623e-06
3907.1	1.9918e-06
3915.78	1.62219e-06
3924.45	1.68595e-06
3933.13	1.89271e-06
3941.81	2.13337e-06
3950.49	2.46654e-06
3959.17	2.57529e-06
3967.85	2.4049e-06
