Infrared Spectrum: THIOACETANILIDE
Formula: C8 H9 N S
CAS: 637-53-6
State: SOLID (MINERAL OIL MULL)
Class: COBLENTZ
Instrument: Not specified, most likely a prism, grating, or hybrid spectrometer.
Sampling: TRANSMISSION
Resolution: 4
Origin: DOW CHEMICAL COMPANY
MICROMETERS	TRANSMITTANCE
2.014	0.652
2.05517	0.669
2.09635	0.676
2.13752	0.683
2.1787	0.696
2.21987	0.693
2.26105	0.684
2.30222	0.698
2.34339	0.708
2.38457	0.724
2.42574	0.732
2.46692	0.739
2.50809	0.744
2.54927	0.75
2.59044	0.77
2.63162	0.756
2.67279	0.773
2.71396	0.78
2.75514	0.789
2.79631	0.791
2.83749	0.784
2.87866	0.78
2.91984	0.784
2.96101	0.78
3.00218	0.765
3.04336	0.702
3.08453	0.517
3.12571	0.388
3.16688	0.488
3.20806	0.554
3.24923	0.541
3.29041	0.409
3.33158	0.277
3.37275	0.073
3.41393	0.131
3.4551	0.217
3.49628	0.616
3.53745	0.738
3.57863	0.763
3.6198	0.777
3.66097	0.789
3.70215	0.779
3.74332	0.815
3.7845	0.82
3.82567	0.825
3.86685	0.842
3.90802	0.852
3.9492	0.859
3.99037	0.861
4.03154	0.864
4.07272	0.866
4.11389	0.866
4.15507	0.854
4.19624	0.864
4.23742	0.876
4.27859	0.88
4.31976	0.88
4.36094	0.88
4.40211	0.883
4.44329	0.883
4.48446	0.886
4.52564	0.888
4.56681	0.888
4.60799	0.892
4.64916	0.893
4.69033	0.892
4.73151	0.893
4.77268	0.898
4.81386	0.897
4.85503	0.9
4.89621	0.902
4.93738	0.907
4.97855	0.909
5.01973	0.898
5.0609	0.902
5.10208	0.9
5.14325	0.91
5.18443	0.909
5.2256	0.912
5.26678	0.91
5.30795	0.898
5.34912	0.912
5.3903	0.914
5.43147	0.912
5.47265	0.919
5.51382	0.914
5.555	0.912
5.59617	0.921
5.63734	0.921
5.67852	0.914
5.71969	0.909
5.76087	0.919
5.80204	0.916
5.84322	0.914
5.88439	0.9
5.92557	0.893
5.96674	0.89
6.00791	0.885
6.04909	0.897
6.09026	0.907
6.13144	0.902
6.17261	0.888
6.21379	0.823
6.25496	0.664
6.29613	0.863
6.33731	0.88
6.37848	0.856
6.41966	0.78
6.46083	0.635
6.50201	0.474
6.54318	0.558
6.58436	0.727
6.62553	0.744
6.6667	0.597
6.70788	0.597
6.74905	0.654
6.79023	0.525
6.8314	0.429
6.87258	0.429
6.91375	0.462
6.95492	0.582
6.9961	0.609
7.03727	0.63
7.07845	0.63
7.11962	0.571
7.1608	0.518
7.20197	0.39
7.24315	0.207
7.28432	0.157
7.32549	0.198
7.36667	0.354
7.40784	0.511
7.44902	0.592
7.49019	0.657
7.53137	0.715
7.57254	0.758
7.61371	0.773
7.65489	0.791
7.69606	0.76
7.73724	0.773
7.77841	0.82
7.81959	0.837
7.86076	0.852
7.90194	0.859
7.94311	0.861
7.98428	0.859
8.02546	0.847
8.06663	0.803
8.10781	0.732
8.14898	0.72
8.19016	0.801
8.23133	0.857
8.2725	0.864
8.31368	0.866
8.35485	0.868
8.39603	0.864
8.4372	0.842
8.47838	0.796
8.51955	0.726
8.56073	0.696
8.6019	0.583
8.64307	0.481
8.68425	0.39
8.72542	0.505
8.7666	0.678
8.80777	0.743
8.84895	0.77
8.89012	0.785
8.93129	0.804
8.97247	0.811
9.01364	0.815
9.05482	0.813
9.09599	0.815
9.13717	0.835
9.17834	0.854
9.21952	0.863
9.26069	0.861
9.30186	0.839
9.34304	0.811
9.38421	0.845
9.42539	0.868
9.46656	0.873
9.50774	0.876
9.54891	0.878
9.59008	0.881
9.63126	0.88
9.67243	0.861
9.71361	0.813
9.75478	0.803
9.79596	0.825
9.83713	0.842
9.8783	0.852
9.91948	0.849
9.96065	0.809
10.0018	0.773
10.043	0.816
10.0842	0.856
10.1254	0.876
10.1665	0.886
10.2077	0.898
10.2489	0.904
10.29	0.905
10.3312	0.9
10.3724	0.898
10.4136	0.907
10.4547	0.914
10.4959	0.916
10.5371	0.916
10.5783	0.919
10.6194	0.921
10.6606	0.919
10.7018	0.919
10.743	0.919
10.7841	0.924
10.8253	0.926
10.8665	0.922
10.9077	0.91
10.9488	0.893
10.99	0.888
11.0312	0.905
11.0724	0.924
11.1135	0.941
11.1547	0.943
11.1959	0.943
11.2371	0.946
11.2782	0.952
11.3194	0.948
11.3606	0.955
11.4018	0.96
11.4429	0.955
11.4841	0.96
11.5253	0.962
11.5665	0.962
11.6076	0.96
11.6488	0.955
11.69	0.95
11.7312	0.931
11.7723	0.89
11.8135	0.873
11.8547	0.89
11.8958	0.914
11.937	0.94
11.9782	0.943
12.0194	0.94
12.0605	0.95
12.1017	0.96
12.1429	0.96
12.1841	0.95
12.2252	0.945
12.2664	0.948
12.3076	0.946
12.3488	0.95
12.3899	0.952
12.4311	0.952
12.4723	0.95
12.5135	0.95
12.5546	0.943
12.5958	0.94
12.637	0.936
12.6782	0.928
12.7193	0.919
12.7605	0.902
12.8017	0.881
12.8429	0.847
12.884	0.765
12.9252	0.688
12.9664	0.65
13.0076	0.64
13.0487	0.652
13.0899	0.732
13.1311	0.808
13.1723	0.839
13.2134	0.856
13.2546	0.84
13.2958	0.835
13.337	0.823
13.3781	0.808
13.4193	0.794
13.4605	0.768
13.5016	0.748
13.5428	0.731
13.584	0.71
13.6252	0.696
13.6663	0.686
13.7075	0.679
13.7487	0.674
13.7899	0.672
13.831	0.659
13.8722	0.64
13.9134	0.58
13.9546	0.489
13.9957	0.395
14.0369	0.321
14.0781	0.256
14.1193	0.188
14.1604	0.152
14.2016	0.167
14.2428	0.234
14.284	0.32
14.3251	0.404
14.3663	0.464
14.4075	0.496
14.4487	0.513
14.4898	0.529
14.531	0.547
14.5722	0.577
14.6134	0.602
14.6545	0.626
14.6957	0.631
14.7369	0.64
14.7781	0.645
14.8192	0.643
14.8604	0.64
14.9016	0.635
14.9428	0.631
14.9839	0.628
15.0251	0.625
15.0663	0.618
15.1075	0.611
15.1486	0.606
15.1898	0.601
15.231	0.599
15.2721	0.595
15.3133	0.589
15.3545	0.583
15.3957	0.577
15.4368	0.57
15.478	0.559
15.5192	0.547
15.5604	0.537
15.6015	0.523
15.6427	0.508
15.6839	0.508
15.7251	0.496
15.7662	0.489
15.8074	0.491
15.8486	0.486
15.8898	0.486
15.9309	0.486
