Infrared Spectrum: n-BUTYLETHYLSULFIDE
Formula: C6 H14 S
CAS: 638-46-0
State: LIQUID
Boiling point: 143-144 C
Class: COBLENTZ
Instrument: Not specified, most likely a prism, grating, or hybrid spectrometer.
Sampling: TRANSMISSION
Path length: 0.003 CM
Resolution: 4
Origin: WYANDOTTE CHEMICALS CORP., WYANDOTTE, MICHIGAN, USA
MICROMETERS	TRANSMITTANCE
2.031	0.945
2.06814	0.953
2.10527	0.964
2.14241	0.959
2.17954	0.92
2.21668	0.9
2.25382	0.928
2.29095	0.919
2.32809	0.939
2.36522	0.944
2.40236	0.95
2.4395	0.94
2.47663	0.95
2.51377	0.959
2.5509	0.964
2.58804	0.968
2.62518	0.968
2.66231	0.968
2.69945	0.967
2.73658	0.961
2.77372	0.962
2.81086	0.964
2.84799	0.954
2.88513	0.958
2.92226	0.953
2.9594	0.947
2.99653	0.94
3.03367	0.937
3.07081	0.914
3.10794	0.886
3.14508	0.864
3.18221	0.858
3.21935	0.822
3.25649	0.748
3.29362	0.571
3.33076	0.094
3.36789	0.034
3.40503	0.066
3.44217	0.119
3.4793	0.13
3.51644	0.468
3.55357	0.756
3.59071	0.821
3.62785	0.832
3.66498	0.826
3.70212	0.866
3.73925	0.878
3.77639	0.891
3.81353	0.917
3.85066	0.917
3.8878	0.931
3.92493	0.934
3.96207	0.937
3.99921	0.934
4.03634	0.937
4.07348	0.928
4.11061	0.931
4.14775	0.927
4.18489	0.925
4.22202	0.931
4.25916	0.95
4.29629	0.964
4.33343	0.967
4.37057	0.968
4.4077	0.954
4.44484	0.958
4.48197	0.956
4.51911	0.956
4.55625	0.944
4.59338	0.951
4.63052	0.958
4.66765	0.961
4.70479	0.958
4.74193	0.962
4.77906	0.964
4.8162	0.961
4.85333	0.965
4.89047	0.964
4.9276	0.964
4.96474	0.964
5.00188	0.961
5.03901	0.948
5.07615	0.964
5.11328	0.959
5.15042	0.967
5.18756	0.958
5.22469	0.965
5.26183	0.961
5.29896	0.965
5.3361	0.965
5.37324	0.967
5.41037	0.967
5.44751	0.967
5.48464	0.967
5.52178	0.958
5.55892	0.965
5.59605	0.959
5.63319	0.959
5.67032	0.954
5.70746	0.958
5.7446	0.94
5.78173	0.923
5.81887	0.922
5.856	0.928
5.89314	0.922
5.93028	0.908
5.96741	0.909
6.00455	0.908
6.04168	0.897
6.07882	0.9
6.11596	0.895
6.15309	0.891
6.19023	0.899
6.22736	0.9
6.2645	0.897
6.30164	0.892
6.33877	0.9
6.37591	0.886
6.41304	0.881
6.45018	0.85
6.48732	0.861
6.52445	0.854
6.56159	0.838
6.59872	0.807
6.63586	0.774
6.673	0.701
6.71013	0.602
6.74727	0.425
6.7844	0.177
6.82154	0.155
6.85867	0.232
6.89581	0.336
6.93295	0.423
6.97008	0.442
7.00722	0.562
7.04435	0.689
7.08149	0.74
7.11863	0.737
7.15576	0.704
7.1929	0.512
7.23003	0.358
7.26717	0.638
7.30431	0.726
7.34144	0.754
7.37858	0.767
7.41571	0.774
7.45285	0.796
7.48999	0.827
7.52712	0.821
7.56426	0.804
7.60139	0.723
7.63853	0.681
7.67567	0.658
7.7128	0.65
7.74994	0.644
7.78707	0.559
7.82421	0.464
7.86135	0.236
7.89848	0.17
7.93562	0.437
7.97275	0.619
8.00989	0.684
8.04703	0.701
8.08416	0.618
8.1213	0.445
8.15843	0.427
8.19557	0.694
8.23271	0.768
8.26984	0.795
8.30698	0.815
8.34411	0.821
8.38125	0.821
8.41839	0.858
8.45552	0.885
8.49266	0.9
8.52979	0.914
8.56693	0.922
8.60407	0.93
8.6412	0.933
8.67834	0.939
8.71547	0.945
8.75261	0.958
8.78974	0.942
8.82688	0.917
8.86402	0.9
8.90115	0.875
8.93829	0.844
8.97542	0.793
9.01256	0.72
9.0497	0.697
9.08683	0.739
9.12397	0.729
9.1611	0.704
9.19824	0.689
9.23538	0.725
9.27251	0.742
9.30965	0.763
9.34678	0.76
9.38392	0.76
9.42106	0.759
9.45819	0.736
9.49533	0.72
9.53246	0.748
9.5696	0.776
9.60674	0.793
9.64387	0.795
9.68101	0.799
9.71814	0.795
9.75528	0.804
9.79242	0.805
9.82955	0.815
9.86669	0.795
9.90382	0.793
9.94096	0.812
9.9781	0.812
10.0152	0.81
10.0524	0.802
10.0895	0.781
10.1266	0.75
10.1638	0.698
10.2009	0.666
10.238	0.635
10.2752	0.586
10.3123	0.618
10.3495	0.697
10.3866	0.77
10.4237	0.813
10.4609	0.844
10.498	0.866
10.5351	0.877
10.5723	0.886
10.6094	0.886
10.6465	0.891
10.6837	0.888
10.7208	0.883
10.758	0.875
10.7951	0.857
10.8322	0.824
10.8694	0.809
10.9065	0.765
10.9436	0.745
10.9808	0.748
11.0179	0.798
11.055	0.829
11.0922	0.838
11.1293	0.841
11.1664	0.826
11.2036	0.843
11.2407	0.854
11.2779	0.878
11.315	0.868
11.3521	0.846
11.3893	0.84
11.4264	0.847
11.4635	0.861
11.5007	0.878
11.5378	0.885
11.5749	0.908
11.6121	0.9
11.6492	0.906
11.6863	0.908
11.7235	0.905
11.7606	0.905
11.7978	0.905
11.8349	0.897
11.872	0.905
11.9092	0.906
11.9463	0.902
11.9834	0.906
12.0206	0.903
12.0577	0.897
12.0948	0.897
12.132	0.894
12.1691	0.894
12.2063	0.892
12.2434	0.885
12.2805	0.88
12.3177	0.874
12.3548	0.866
12.3919	0.858
12.4291	0.852
12.4662	0.833
12.5033	0.813
12.5405	0.802
12.5776	0.776
12.6147	0.751
12.6519	0.72
12.689	0.687
12.7262	0.672
12.7633	0.663
12.8004	0.686
12.8376	0.729
12.8747	0.753
12.9118	0.767
12.949	0.767
12.9861	0.77
13.0232	0.76
13.0604	0.745
13.0975	0.722
13.1347	0.714
13.1718	0.701
13.2089	0.686
13.2461	0.677
13.2832	0.656
13.3203	0.625
13.3575	0.602
13.3946	0.576
13.4317	0.555
13.4689	0.563
13.506	0.604
13.5431	0.65
13.5803	0.683
13.6174	0.708
13.6546	0.722
13.6917	0.729
13.7288	0.725
13.766	0.739
13.8031	0.748
13.8402	0.75
13.8774	0.762
13.9145	0.781
13.9516	0.787
13.9888	0.809
14.0259	0.824
14.0631	0.833
14.1002	0.852
14.1373	0.858
14.1745	0.871
14.2116	0.866
14.2487	0.874
14.2859	0.871
14.323	0.875
14.3601	0.874
14.3973	0.869
14.4344	0.866
14.4715	0.864
14.5087	0.843
14.5458	0.847
14.583	0.849
14.6201	0.849
14.6572	0.85
14.6944	0.846
14.7315	0.846
14.7686	0.849
14.8058	0.844
14.8429	0.843
14.88	0.847
14.9172	0.841
14.9543	0.84
14.9915	0.826
15.0286	0.812
15.0657	0.813
15.1029	0.816
15.14	0.829
15.1771	0.818
15.2143	0.81
15.2514	0.809
15.2885	0.804
15.3257	0.791
15.3628	0.79
15.3999	0.788
15.4371	0.787
15.4742	0.788
15.5114	0.793
15.5485	0.795
15.5856	0.787
15.6228	0.781
15.6599	0.788
15.697	0.777
15.7342	0.779
15.7713	0.762
15.8084	0.763
15.8456	0.762
15.8827	0.757
15.9198	0.754
15.957	0.757
15.9941	0.754
