Infrared Spectrum: 1-Iodohexane
Formula: C6 H13 I
CAS: 638-45-9
State: SOLUTION (10% CCl4 FOR 3800-1335, 10% CS2 FOR 1335-450 CM^-^1)
Class: COBLENTZ III
Instrument: DOW KBr FOREPRISM-GRATING
Instrument parameters: BLAZED AT 3.5, 12.0, 20.0 MICRON AND CHANGED AT 5.0, 7.5, 14.9 MICRON
Sampling: TRANSMISSION
Path length: 0.011 CM, 0.011 CM
Resolution: 2
Origin: DOW CHEMICAL COMPANY
1/CM	TRANSMITTANCE
3814	0.912
3805	0.9121
3796	0.9115
3787	0.9111
3778	0.9106
3769	0.9108
3760	0.9118
3751	0.9118
3742	0.9121
3733	0.9123
3724	0.9136
3715	0.9136
3706	0.9147
3697	0.9143
3688	0.913
3679	0.9114
3670	0.911
3661	0.9091
3652	0.9091
3643	0.9094
3634	0.9099
3625	0.9122
3616	0.9136
3607	0.9157
3598	0.9172
3589	0.9195
3580	0.9209
3571	0.9198
3562	0.9196
3553	0.9191
3544	0.9189
3535	0.9194
3526	0.9188
3517	0.9195
3508	0.9206
3499	0.9217
3490	0.9233
3481	0.9249
3472	0.9265
3463	0.9282
3454	0.9301
3445	0.9324
3436	0.9349
3427	0.9367
3418	0.938
3409	0.9387
3400	0.9391
3391	0.9392
3382	0.9392
3373	0.9378
3364	0.9357
3355	0.9343
3346	0.9346
3337	0.9358
3328	0.9352
3319	0.9355
3310	0.9361
3301	0.9319
3292	0.9291
3283	0.9276
3274	0.9261
3265	0.9247
3256	0.9225
3247	0.9221
3238	0.9208
3229	0.9189
3220	0.9171
3211	0.9152
3202	0.9128
3193	0.9122
3184	0.91
3175	0.9092
3166	0.9088
3157	0.909
3148	0.9078
3139	0.9084
3130	0.9069
3121	0.906
3112	0.9025
3103	0.902
3094	0.9043
3085	0.8987
3076	0.897
3067	0.8919
3058	0.8875
3049	0.8818
3040	0.8811
3031	0.8688
3022	0.8466
3013	0.8061
3004	0.778
2995	0.7393
2986	0.6119
2977	0.2423
2968	0.099
2959	0.1474
2950	0.2458
2941	0.0904
2932	0.0628
2923	0.088
2914	0.2766
2905	0.3956
2896	0.4592
2887	0.5182
2878	0.3265
2869	0.3758
2860	0.285
2851	0.4307
2842	0.6265
2833	0.6421
2824	0.7948
2815	0.8232
2806	0.8398
2797	0.8509
2788	0.8594
2779	0.8683
2770	0.874
2761	0.8785
2752	0.881
2743	0.8809
2734	0.8771
2725	0.8752
2716	0.8783
2707	0.8845
2698	0.8862
2689	0.8857
2680	0.8835
2671	0.8826
2662	0.8838
2653	0.8859
2644	0.8865
2635	0.8878
2626	0.8899
2617	0.8904
2608	0.8894
2599	0.8893
2590	0.8899
2581	0.8919
2572	0.8938
2563	0.8955
2554	0.8971
2545	0.898
2536	0.8982
2527	0.8983
2518	0.8986
2509	0.8987
2500	0.8992
2491	0.8994
2482	0.8998
2473	0.901
2464	0.9013
2455	0.9005
2446	0.9014
2437	0.9013
2428	0.9012
2419	0.9008
2410	0.8999
2401	0.8996
2392	0.8986
2383	0.8991
2374	0.9006
2365	0.8979
2356	0.9129
2347	0.9102
2338	0.8962
2329	0.8941
2320	0.8942
2311	0.8936
2302	0.8931
2293	0.894
2284	0.8933
2275	0.891
2266	0.8914
2257	0.8913
2248	0.8922
2239	0.8935
2230	0.8948
2221	0.8954
2212	0.8964
2203	0.8968
2194	0.8975
2185	0.8972
2176	0.8989
2167	0.8983
2158	0.8987
2149	0.8992
2140	0.8997
2131	0.8999
2122	0.8992
2113	0.9002
2104	0.9004
2095	0.9007
2086	0.901
2077	0.9008
2068	0.9006
2059	0.9001
2050	0.9006
2041	0.8988
2032	0.8979
2023	0.8975
2014	0.8963
2005	0.8951
1996	0.8654
1987	0.8846
1978	0.8837
1969	0.886
1960	0.9076
1951	0.8887
1942	0.8871
1933	0.8874
1924	0.8879
1915	0.8871
1906	0.8866
1897	0.8851
1888	0.8829
1879	0.8826
1870	0.883
1861	0.8822
1852	0.882
1843	0.8823
1834	0.8815
1825	0.8816
1816	0.8826
1807	0.8822
1798	0.8823
1789	0.8839
1780	0.8867
1771	0.8875
1762	0.8873
1753	0.8866
1744	0.881
1735	0.8751
1726	0.879
1717	0.8791
1708	0.8792
1699	0.8795
1690	0.8824
1681	0.8878
1672	0.893
1663	0.8998
1654	0.9106
1645	0.9254
1636	0.9126
1627	0.8984
1618	0.888
1609	0.873
1600	0.8585
1591	0.828
1582	0.7946
1573	0.788
1564	0.7479
1555	0.7093
1546	0.6763
1537	0.7122
1528	0.754
1519	0.7749
1510	0.7885
1501	0.8044
1492	0.8193
1483	0.8253
1474	0.7846
1465	0.4748
1456	0.5196
1447	0.6414
1438	0.7296
1429	0.6894
1420	0.7905
1411	0.8475
1402	0.8674
1393	0.8679
1384	0.8661
1375	0.7319
1366	0.8134
1357	0.838
1348	0.8288
1339	0.8215
1330	0.8362
1321	0.8499
1312	0.845
1303	0.794
1294	0.8004
1285	0.8059
1276	0.7525
1267	0.7746
1258	0.8121
1249	0.791
1240	0.7752
1231	0.8036
1222	0.6853
1213	0.4556
1204	0.7786
1195	0.8418
1186	0.7491
1177	0.5636
1168	0.4521
1159	0.7887
1150	0.8625
1141	0.8876
1132	0.9077
1123	0.924
1114	0.9287
1105	0.9051
1096	0.8924
1087	0.9031
1078	0.8835
1069	0.887
1060	0.8954
1051	0.9017
1042	0.8938
1033	0.901
1024	0.9086
1015	0.9136
1006	0.915
997	0.9127
988	0.9122
979	0.908
970	0.8832
961	0.8756
952	0.8821
943	0.8843
934	0.9012
925	0.912
916	0.9103
907	0.9067
898	0.9021
889	0.8954
880	0.8821
871	0.8653
862	0.8482
853	0.8277
844	0.8292
835	0.8568
826	0.8936
817	0.9023
808	0.9017
799	0.8894
790	0.8772
781	0.8737
772	0.8843
763	0.8897
754	0.884
745	0.869
736	0.8579
727	0.7881
718	0.7506
709	0.859
700	0.8938
691	0.903
682	0.9136
673	0.9175
664	0.9375
655	0.921
646	0.9143
637	0.9265
628	0.937
619	0.9444
610	0.93
601	0.8515
592	0.8535
583	0.9068
574	0.9316
565	0.9421
556	0.9463
547	0.9472
538	0.9475
529	0.9437
520	0.9313
511	0.8911
502	0.8818
493	0.9001
484	0.9084
475	0.9042
466	0.8982
457	0.8941
