Infrared Spectrum: ETHANOL, 2-[p-(1,1-DIMETHYLPROPYL)PHENOXY]-
Formula: C13 H20 O2
CAS: 6382-07-6
State: LIQUID (NEAT)
Class: COBLENTZ III
Instrument: BAIRD (PRISM)
Instrument parameters: NaCl PRISM
Sampling: TRANSMISSION
Path length: CAPILLARY
Resolution: 2
Origin: WYANDOTTE CHEMICALS CORP.
MICROMETERS	TRANSMITTANCE
1.995	0.69
2.0341	0.692
2.0732	0.695
2.1123	0.6949
2.1514	0.6953
2.1905	0.685
2.2296	0.6996
2.2687	0.7082
2.3078	0.7044
2.3469	0.7066
2.386	0.712
2.4251	0.7107
2.4642	0.7263
2.5033	0.729
2.5424	0.731
2.5815	0.7375
2.6206	0.7368
2.6597	0.736
2.6988	0.716
2.7379	0.662
2.777	0.5904
2.8161	0.5203
2.8552	0.4514
2.8943	0.3844
2.9334	0.3271
2.9725	0.2961
3.0116	0.2969
3.0507	0.3402
3.0898	0.4146
3.1289	0.4902
3.168	0.5587
3.2071	0.603
3.2462	0.569
3.2853	0.5577
3.3244	0.4065
3.3635	0.1249
3.4026	0.113
3.4417	0.1906
3.4808	0.246
3.5199	0.5007
3.559	0.6414
3.5981	0.6895
3.6372	0.7118
3.6763	0.7266
3.7154	0.7517
3.7545	0.762
3.7936	0.7696
3.8327	0.771
3.8718	0.7816
3.9109	0.7829
3.95	0.779
3.9891	0.786
4.0282	0.795
4.0673	0.7898
4.1064	0.802
4.1455	0.8052
4.1846	0.8114
4.2237	0.839
4.2628	0.853
4.3019	0.8449
4.341	0.845
4.3801	0.828
4.4192	0.8424
4.4583	0.847
4.4974	0.8516
4.5365	0.854
4.5756	0.8576
4.6147	0.854
4.6538	0.856
4.6929	0.86
4.732	0.855
4.7711	0.8525
4.8102	0.847
4.8493	0.848
4.8884	0.848
4.9275	0.8446
4.9666	0.8516
5.0057	0.8593
5.0448	0.8627
5.0839	0.854
5.123	0.856
5.1621	0.8551
5.2012	0.8681
5.2403	0.8599
5.2794	0.8528
5.3185	0.8396
5.3576	0.8532
5.3967	0.8605
5.4358	0.8723
5.4749	0.875
5.514	0.8802
5.5531	0.887
5.5922	0.8799
5.6313	0.887
5.6704	0.8675
5.7095	0.8564
5.7486	0.8558
5.7877	0.8542
5.8268	0.855
5.8659	0.8416
5.905	0.844
5.9441	0.8279
5.9832	0.823
6.0223	0.7945
6.0614	0.7681
6.1005	0.7091
6.1396	0.3868
6.1787	0.436
6.2178	0.6973
6.2569	0.6297
6.296	0.7293
6.3351	0.8014
6.3742	0.7938
6.4133	0.8101
6.4524	0.7449
6.4915	0.6601
6.5306	0.3192
6.5697	0.0868
6.6088	0.3206
6.6479	0.4884
6.687	0.4865
6.7261	0.4345
6.7652	0.3295
6.8043	0.2728
6.8434	0.2826
6.8825	0.4633
6.9216	0.5692
6.9607	0.6103
6.9998	0.6042
7.0389	0.5489
7.078	0.5695
7.1171	0.585
7.1562	0.5403
7.1953	0.4205
7.2344	0.403
7.2735	0.4364
7.3126	0.4355
7.3517	0.6129
7.3908	0.659
7.4299	0.6529
7.469	0.6137
7.5081	0.6102
7.5472	0.6019
7.5863	0.5353
7.62539	0.3789
7.66449	0.3551
7.70359	0.3158
7.74269	0.3082
7.78179	0.3744
7.82089	0.4501
7.85999	0.4319
7.89909	0.298
7.93819	0.0965
7.97729	0.0458
8.01639	0.0455
8.05549	0.1023
8.09459	0.176
8.13369	0.2533
8.17279	0.3488
8.21189	0.4357
8.25099	0.4919
8.29009	0.5261
8.32919	0.5304
8.36829	0.3649
8.40739	0.1676
8.44649	0.2477
8.48559	0.504
8.52469	0.6089
8.56379	0.6956
8.60289	0.7533
8.64199	0.7792
8.68109	0.7798
8.72019	0.7791
8.75929	0.7888
8.79839	0.789
8.83749	0.7518
8.87659	0.6429
8.91569	0.57
8.95479	0.596
8.99389	0.6387
9.03299	0.5738
9.07209	0.5032
9.11119	0.4081
9.15029	0.3245
9.18939	0.2695
9.22849	0.23
9.26759	0.2458
9.30669	0.2828
9.34579	0.3067
9.38489	0.2736
9.42399	0.228
9.46309	0.2239
9.50219	0.2279
9.54129	0.2231
9.58039	0.231
9.61949	0.2563
9.65859	0.3283
9.69769	0.4289
9.73679	0.5059
9.77589	0.5774
9.81499	0.6145
9.85409	0.5671
9.89319	0.5432
9.93229	0.5996
9.97139	0.6919
10.0105	0.7587
10.0496	0.7974
10.0887	0.806
10.1278	0.828
10.1669	0.8491
10.206	0.8531
10.2451	0.871
10.2842	0.8793
10.3233	0.8719
10.3624	0.8798
10.4015	0.872
10.4406	0.8648
10.4797	0.858
10.5188	0.8497
10.5579	0.8551
10.597	0.8549
10.6361	0.8389
10.6752	0.7898
10.7143	0.7372
10.7534	0.6768
10.7925	0.6178
10.8316	0.5026
10.8707	0.4005
10.9098	0.3853
10.9489	0.4163
10.988	0.467
11.0271	0.5357
11.0662	0.5774
11.1053	0.5738
11.1444	0.5568
11.1835	0.5478
11.2226	0.5588
11.2617	0.5915
11.3008	0.637
11.3399	0.7007
11.379	0.7546
11.4181	0.792
11.4572	0.8021
11.4963	0.8192
11.5354	0.8535
11.5745	0.858
11.6136	0.8652
11.6527	0.8658
11.6918	0.871
11.7309	0.8529
11.77	0.8308
11.8091	0.7955
11.8482	0.7046
11.8873	0.6534
11.9264	0.5603
11.9655	0.4577
12.0046	0.3935
12.0437	0.277
12.0828	0.2115
12.1219	0.2188
12.161	0.2776
12.2001	0.4008
12.2392	0.5279
12.2783	0.604
12.3174	0.6322
12.3565	0.6316
12.3956	0.618
12.4347	0.6252
12.4738	0.6382
12.5129	0.6627
12.552	0.705
12.5911	0.7361
12.6302	0.7663
12.6693	0.7739
12.7084	0.77
12.7475	0.7628
12.7866	0.7268
12.8257	0.6698
12.8648	0.63
12.9039	0.6237
12.943	0.6768
12.9821	0.7383
13.0212	0.7713
13.0603	0.8082
13.0994	0.8184
13.1385	0.837
13.1776	0.836
13.2167	0.838
13.2558	0.839
13.2949	0.8357
13.334	0.8269
13.3731	0.8229
13.4122	0.822
13.4513	0.8231
13.4904	0.8259
13.5295	0.8274
13.5686	0.8318
13.6077	0.8238
13.6468	0.8117
13.6859	0.7786
13.725	0.759
13.7641	0.7591
13.8032	0.7803
13.8423	0.801
13.8814	0.806
13.9205	0.808
13.9596	0.8078
13.9987	0.806
14.0378	0.803
14.0769	0.7999
14.116	0.7949
14.1551	0.792
14.1942	0.794
14.2333	0.791
14.2724	0.789
14.3115	0.787
14.3506	0.785
14.3897	0.784
14.4288	0.782
14.4679	0.78
14.507	0.778
14.5461	0.776
14.5852	0.776
14.6243	0.7729
14.6634	0.764
14.7025	0.7546
14.7416	0.7466
14.7807	0.742
14.8198	0.726
14.8589	0.7144
14.898	0.6798
14.9371	0.6667
14.9762	0.6488
15.0153	0.6351
15.0544	0.6431
15.0935	0.6607
15.1326	0.6794
15.1717	0.6923
15.2108	0.692
15.2499	0.7051
15.289	0.726
15.3281	0.729
15.3672	0.725
15.4063	0.725
15.4454	0.729
15.4845	0.729
15.5236	0.731
15.5627	0.732
15.6018	0.731
15.6409	0.728
15.68	0.7259
15.7191	0.723
15.7582	0.725
15.7973	0.726
15.8364	0.731
15.8755	0.731
15.9146	0.731
15.9537	0.733
