Infrared Spectrum: FORMIC ACID
Formula: C H2 O2
CAS: 64-18-6
State: GAS (20 mmHg, N2 ADDED, TOTAL PRESSURE 600 mmHg)
Class: COBLENTZ
Instrument: DOW KBr FOREPRISM-GRATING
Instrument parameters: GRATING CHANGED AT 5.0, 7.5, 14.9 MICRON
Sampling: TRANSMISSION
Path length: 5 CM
Resolution: 2
Origin: DOW CHEMICAL COMPANY
1/CM	TRANSMITTANCE
456.951	0.915
466.368	0.915
475.785	0.918
485.202	0.922
494.619	0.924
504.037	0.92
513.454	0.911
522.871	0.905
532.288	0.905
541.705	0.899
551.122	0.897
560.539	0.892
569.956	0.888
579.373	0.867
588.79	0.831
598.208	0.789
607.625	0.724
617.042	0.6232
626.459	0.638
635.876	0.5481
645.293	0.445
654.71	0.634
664.127	0.647
673.544	0.653
682.961	0.6301
692.379	0.539
701.796	0.529
711.213	0.5898
720.63	0.7709
730.047	0.873
739.464	0.894
748.881	0.907
758.298	0.911
767.715	0.913
777.132	0.911
786.55	0.907
795.967	0.907
805.384	0.901
814.801	0.892
824.218	0.871
833.635	0.852
843.052	0.829
852.469	0.8
861.886	0.76
871.304	0.6951
880.721	0.632
890.138	0.577
899.555	0.5141
908.972	0.487
918.389	0.46
927.806	0.455
937.223	0.495
946.64	0.617
956.057	0.745
965.475	0.861
974.892	0.903
984.309	0.907
993.726	0.899
1003.14	0.89
1012.56	0.88
1021.98	0.873
1031.39	0.844
1040.81	0.815
1050.23	0.762
1059.65	0.6931
1069.06	0.59
1078.48	0.397
1087.9	0.308
1097.31	0.4149
1106.73	0.42
1116.15	0.245
1125.57	0.3778
1134.98	0.686
1144.4	0.741
1153.82	0.705
1163.23	0.657
1172.65	0.571
1182.07	0.4391
1191.49	0.2311
1200.9	0.098
1210.32	0.063
1219.74	0.065
1229.15	0.155
1238.57	0.3901
1247.99	0.737
1257.4	0.817
1266.82	0.794
1276.24	0.766
1285.66	0.766
1295.07	0.796
1304.49	0.823
1313.91	0.821
1323.32	0.81
1332.74	0.789
1342.16	0.728
1351.58	0.588
1360.99	0.445
1370.41	0.4599
1379.83	0.6888
1389.24	0.758
1398.66	0.7711
1408.08	0.802
1417.5	0.813
1426.91	0.844
1436.33	0.8151
1445.75	0.861
1455.16	0.869
1464.58	0.871
1474	0.855
1483.42	0.909
1492.83	0.8901
1502.25	0.909
1511.67	0.888
1521.08	0.8479
1530.5	0.884
1539.92	0.892
1549.33	0.873
1558.75	0.8291
1568.17	0.886
1577.59	0.8061
1587	0.871
1596.42	0.855
1605.84	0.85
1615.25	0.838
1624.67	0.819
1634.09	0.813
1643.51	0.806
1652.92	0.6532
1662.34	0.741
1671.76	0.712
1681.17	0.6629
1690.59	0.619
1700.01	0.487
1709.43	0.3878
1718.84	0.1511
1728.26	0.012
1737.68	0
1747.09	0
1756.51	0.01
1765.93	0.094
1775.35	0.1726
1784.76	0.186
1794.18	0.237
1803.6	0.5353
1813.01	0.842
1822.43	0.873
1831.85	0.888
1841.27	0.871
1850.68	0.892
1860.1	0.882
1869.52	0.867
1878.93	0.859
1888.35	0.836
1897.77	0.825
1907.18	0.815
1916.6	0.813
1926.02	0.84
1935.44	0.867
1944.85	0.873
1954.27	0.878
1963.69	0.873
1973.1	0.884
1982.52	0.894
1991.94	0.901
2001.36	0.912
2010.77	0.915
2020.19	0.915
2029.61	0.9092
2039.02	0.905
2048.44	0.905
2057.86	0.903
2067.28	0.901
2076.69	0.897
2086.11	0.897
2095.53	0.8993
2104.94	0.901
2114.36	0.897
2123.78	0.9
2133.2	0.903
2142.61	0.9119
2152.03	0.9148
2161.45	0.9142
2170.86	0.9113
2180.28	0.9098
2189.7	0.907
2199.12	0.907
2208.53	0.9036
2217.95	0.901
2227.37	0.9075
2236.78	0.915
2246.2	0.915
2255.62	0.913
2265.03	0.913
2274.45	0.911
2283.87	0.909
2293.29	0.913
2302.7	0.907
2312.12	0.9014
2321.54	0.8985
2330.95	0.8948
2340.37	0.8916
2349.79	0.8807
2359.21	0.871
2368.62	0.863
2378.04	0.859
2387.46	0.8534
2396.87	0.846
2406.29	0.8212
2415.71	0.8045
2425.13	0.8047
2434.54	0.8125
2443.96	0.8338
2453.38	0.85
2462.79	0.8585
2472.21	0.8529
2481.63	0.8471
2491.05	0.8355
2500.46	0.8285
2509.88	0.8179
2519.3	0.8038
2528.71	0.786
2538.13	0.7623
2547.55	0.7309
2556.96	0.6799
2566.38	0.6447
2575.8	0.636
2585.22	0.6513
2594.63	0.6724
2604.05	0.657
2613.47	0.6334
2622.88	0.6373
2632.3	0.6764
2641.72	0.705
2651.14	0.715
2660.55	0.72
2669.97	0.7133
2679.39	0.6811
2688.8	0.6545
2698.22	0.6347
2707.64	0.605
2717.06	0.5733
2726.47	0.565
2735.89	0.574
2745.31	0.5807
2754.72	0.5599
2764.14	0.5368
2773.56	0.5288
2782.98	0.516
2792.39	0.5061
2801.81	0.5001
2811.23	0.5
2820.64	0.5038
2830.06	0.5237
2839.48	0.5159
2848.9	0.479
2858.31	0.4352
2867.73	0.3792
2877.15	0.331
2886.56	0.346
2895.98	0.378
2905.4	0.3494
2914.81	0.3063
2924.23	0.2182
2933.65	0.1225
2943.07	0.063
2952.48	0.0754
2961.9	0.2803
2971.32	0.3802
2980.73	0.3413
2990.15	0.2971
2999.57	0.2348
3008.99	0.2119
3018.4	0.1967
3027.82	0.2318
3037.24	0.2635
3046.65	0.279
3056.07	0.2719
3065.49	0.2731
3074.91	0.2398
3084.32	0.1978
3093.74	0.163
3103.16	0.1424
3112.57	0.1525
3121.99	0.1709
3131.41	0.172
3140.83	0.1766
3150.24	0.2145
3159.66	0.224
3169.08	0.226
3178.49	0.232
3187.91	0.237
3197.33	0.2459
3206.75	0.2572
3216.16	0.2759
3225.58	0.3135
3235	0.3546
3244.41	0.3763
3253.83	0.3931
3263.25	0.4044
3272.66	0.4194
3282.08	0.4383
3291.5	0.4493
3300.92	0.4734
3310.33	0.5021
3319.75	0.5306
3329.17	0.5519
3338.58	0.5778
3348	0.604
3357.42	0.6307
3366.84	0.6506
3376.25	0.6635
3385.67	0.6694
3395.09	0.693
3404.5	0.7108
3413.92	0.738
3423.34	0.7612
3432.76	0.7731
3442.17	0.7841
3451.59	0.7979
3461.01	0.8066
3470.42	0.8148
3479.84	0.8204
3489.26	0.825
3498.68	0.8224
3508.09	0.819
3517.51	0.8162
3526.93	0.8046
3536.34	0.7801
3545.76	0.7746
3555.18	0.7945
3564.59	0.815
3574.01	0.796
3583.43	0.7998
3592.85	0.8375
3602.26	0.8582
3611.68	0.8727
3621.1	0.8981
3630.51	0.9283
3639.93	0.9338
3649.35	0.9564
3658.77	0.9566
3668.18	0.9764
3677.6	0.9774
3687.02	0.9882
3696.43	0.9887
3705.85	0.988
3715.27	0.991
3724.69	0.9797
3734.1	0.957
3743.52	1
3752.94	0.997
3762.35	1.002
