Infrared Spectrum: Tetracycline HCl
Formula: C 22 H 24 N 2 O 8 - H Cl
CAS: 64-75-5
State: solid
Instrument: Bruker Tensor 37 FTIR
Resolution: 0.96450084
Origin: Pacific Northwest National Laboratory Under IARPA Contract
1/cm	Reflectance
7498.99	0.640354
7481.63	0.626378
7464.27	0.626586
7446.91	0.631133
7429.55	0.608129
7412.19	0.600605
7394.84	0.605559
7377.48	0.609225
7360.12	0.610511
7342.76	0.600806
7325.4	0.604023
7308.04	0.598336
7290.68	0.601691
7273.32	0.597201
7255.96	0.580368
7238.6	0.593419
7221.24	0.594187
7203.88	0.590967
7186.52	0.583287
7169.16	0.570613
7151.8	0.560882
7134.44	0.543163
7117.08	0.523774
7099.72	0.506891
7082.36	0.500085
7065	0.492996
7047.64	0.481871
7030.28	0.469262
7012.92	0.456622
6995.56	0.440091
6978.2	0.437074
6960.84	0.449957
6943.48	0.45741
6926.12	0.454571
6908.76	0.462019
6891.4	0.459433
6874.04	0.457147
6856.68	0.462097
6839.32	0.46224
6821.96	0.460184
6804.6	0.449669
6787.24	0.415489
6769.88	0.36613
6752.52	0.356188
6735.16	0.388631
6717.8	0.397782
6700.44	0.399123
6683.08	0.399049
6665.72	0.391494
6648.36	0.399016
6631	0.408631
6613.64	0.395635
6596.28	0.381595
6578.92	0.388641
6561.56	0.399388
6544.2	0.395063
6526.85	0.402694
6509.49	0.402679
6492.13	0.399048
6474.77	0.400559
6457.41	0.398029
6440.05	0.397834
6422.69	0.394984
6405.33	0.389983
6387.97	0.381795
6370.61	0.363875
6353.25	0.334271
6335.89	0.347959
6318.53	0.362147
6301.17	0.353822
6283.81	0.340464
6266.45	0.32293
6249.09	0.303533
6231.73	0.289674
6214.37	0.277022
6197.01	0.265533
6179.65	0.262286
6162.29	0.246953
6144.93	0.233568
6127.57	0.197959
6110.21	0.175256
6092.85	0.166219
6075.49	0.166212
6058.13	0.167979
6040.77	0.171052
6023.41	0.175019
6006.05	0.167116
5988.69	0.142723
5971.33	0.135765
5953.97	0.131471
5936.61	0.13072
5919.25	0.142422
5901.89	0.156493
5884.53	0.13629
5867.17	0.144731
5849.81	0.141776
5832.45	0.144744
5815.09	0.148338
5797.73	0.132889
5780.37	0.150609
5763.01	0.151201
5745.65	0.154375
5728.29	0.155817
5710.93	0.155105
5693.57	0.153418
5676.21	0.148565
5658.86	0.153965
5641.5	0.161784
5624.14	0.162202
5606.78	0.158613
5589.42	0.14295
5572.06	0.100362
5554.7	0.0715958
5537.34	0.0982835
5519.98	0.0816099
5502.62	0.0583578
5485.26	0.043927
5467.9	0.036707
5450.54	0.0302859
5433.18	0.0255683
5415.82	0.0266249
5398.46	0.0280849
5381.1	0.0296286
5363.74	0.0311175
5346.38	0.0314658
5329.02	0.0295872
5311.66	0.0288305
5294.3	0.0288306
5276.94	0.0296009
5259.58	0.0294353
5242.22	0.0286642
5224.86	0.0312524
5207.5	0.0322501
5190.14	0.0321841
5172.78	0.029987
5155.42	0.0304677
5138.06	0.0287648
5120.7	0.0290914
5103.34	0.0303631
5085.98	0.0289288
5068.62	0.0301586
5051.26	0.0313116
5033.9	0.0325293
5016.54	0.0333223
4999.18	0.0345611
4981.82	0.0376188
4964.46	0.0398743
4947.1	0.0398281
4929.74	0.043594
4912.38	0.0459466
4895.02	0.0470648
4877.66	0.0475883
4860.3	0.0483696
4842.94	0.0492201
4825.58	0.0504471
4808.22	0.0507369
4790.86	0.0519673
4773.51	0.0533747
4756.15	0.0528036
4738.79	0.0530943
4721.43	0.0517142
4704.07	0.0513131
4686.71	0.0464155
4669.35	0.0480844
4651.99	0.0431082
4634.63	0.0373403
4617.27	0.0267851
4599.91	0.0207805
4582.55	0.0235164
4565.19	0.0207629
4547.83	0.0248662
4530.47	0.026129
4513.11	0.0248519
4495.75	0.0258429
4478.39	0.0243699
4461.03	0.0251961
4443.67	0.0227486
4426.31	0.0261949
4408.95	0.0244873
4391.59	0.0248264
4374.23	0.0240916
4356.87	0.0277711
4339.51	0.0245745
4322.15	0.0239115
4304.79	0.0284517
4287.43	0.0261678
4270.07	0.0241918
4252.71	0.0245414
4235.35	0.0237784
4217.99	0.0274807
4200.63	0.0326799
4183.27	0.0212708
4165.91	0.0304923
4148.55	0.0260701
4131.19	0.0262692
4113.83	0.0257882
4096.47	0.0262664
4079.11	0.0327339
4061.75	0.0371783
4044.39	0.63625
4027.03	0.624593
4009.67	0.621848
3992.31	0.62443
3974.95	0.608517
3957.59	0.604985
3940.23	0.602153
3922.87	0.604061
3905.52	0.612281
3888.16	0.605188
3870.8	0.602365
3853.44	0.600198
3836.08	0.602053
3818.72	0.594719
3801.36	0.588014
3784	0.595084
3766.64	0.59677
3749.28	0.588568
3731.92	0.585177
3714.56	0.574535
3697.2	0.561872
3679.84	0.545159
3662.48	0.525975
3645.12	0.50938
3627.76	0.503162
3610.4	0.494479
3593.04	0.484345
3575.68	0.475531
3558.32	0.457663
3540.96	0.449183
3523.6	0.448397
3506.24	0.458119
3488.88	0.463375
3471.52	0.461926
3454.16	0.466346
3436.8	0.467481
3419.44	0.466157
3402.08	0.471592
3384.72	0.46833
3367.36	0.465233
3350	0.452535
3332.64	0.403877
3315.28	0.354323
3297.92	0.382448
3280.56	0.400685
3263.2	0.390105
3245.84	0.407417
3228.48	0.40396
3211.12	0.398594
3193.76	0.410984
3176.4	0.412557
3159.04	0.401414
3141.68	0.391517
3124.32	0.40411
3106.96	0.407144
3089.6	0.405485
3072.24	0.410051
3054.88	0.409287
3037.53	0.407758
3020.17	0.408124
3002.81	0.406312
2985.45	0.405953
2968.09	0.40277
2950.73	0.396344
2933.37	0.386284
2916.01	0.365244
2898.65	0.342474
2881.29	0.368332
2863.93	0.369499
2846.57	0.359059
2829.21	0.343348
2811.85	0.326235
2794.49	0.306515
2777.13	0.294853
2759.77	0.280603
2742.41	0.271971
2725.05	0.265316
2707.69	0.249584
2690.33	0.23187
2672.97	0.191045
2655.61	0.175734
2638.25	0.170747
2620.89	0.172919
2603.53	0.17383
2586.17	0.179013
2568.81	0.179279
2551.45	0.164144
2534.09	0.135028
2516.73	0.129155
2499.37	0.135258
2482.01	0.128147
2464.65	0.150083
2447.29	0.156517
2429.93	0.139789
2412.57	0.151094
2395.21	0.151149
2377.85	0.150235
2360.49	0.148672
2343.13	0.148242
2325.77	0.158946
2308.41	0.156793
2291.05	0.156826
2273.69	0.1608
2256.33	0.160466
2238.97	0.153423
2221.61	0.154743
2204.25	0.160449
2186.89	0.169264
2169.53	0.163497
2152.18	0.161525
2134.82	0.138629
2117.46	0.0884692
2100.1	0.0962973
2082.74	0.0975424
2065.38	0.0766519
2048.02	0.0538643
2030.66	0.0428639
2013.3	0.0354544
1995.94	0.0282291
1978.58	0.0267614
1961.22	0.0270964
1943.86	0.028306
1926.5	0.0304422
1909.14	0.0316275
1891.78	0.0314023
1874.42	0.0293768
1857.06	0.0283717
1839.7	0.0290134
1822.34	0.0298232
1804.98	0.0292693
1787.62	0.029731
1770.26	0.0300819
1752.9	0.0321828
1735.54	0.0313836
1718.18	0.0306256
1700.82	0.0303463
1683.46	0.028803
1666.1	0.0296261
1648.74	0.0302271
1631.38	0.0294021
1614.02	0.0306782
1596.66	0.0317586
1579.3	0.0328938
1561.94	0.0334736
1544.58	0.0354869
1527.22	0.0387183
1509.86	0.0403059
1492.5	0.0421742
1475.14	0.044806
1457.78	0.0465295
1440.42	0.0471532
1423.06	0.0484303
1405.7	0.0498484
1388.34	0.0495855
1370.98	0.0510422
1353.62	0.0519629
1336.26	0.0528882
1318.9	0.0539204
1301.54	0.0527881
1284.19	0.0466417
1266.83	0.0521034
1249.47	0.0505525
1232.11	0.0494254
1214.75	0.0471675
1197.39	0.0419835
1180.03	0.0344114
1162.67	0.024112
1145.31	0.0197044
1127.95	0.0226089
1110.59	0.0228183
1093.23	0.0251527
1075.87	0.0246006
1058.51	0.0248903
1041.15	0.0238499
1023.79	0.0261328
1006.43	0.0239997
989.068	0.022443
971.709	0.0245118
954.349	0.025063
936.989	0.0243877
919.629	0.0224293
902.269	0.0266449
884.91	0.0267584
867.55	0.0248454
850.19	0.0285589
832.83	0.0231448
815.47	0.0274886
798.111	0.0291531
780.751	0.0235571
763.391	0.0304755
746.031	0.0276146
728.671	0.0255726
711.312	0.027137
693.952	0.0252859
676.592	0.0226388
659.232	0.0226205
641.872	0.0260923
624.513	0.030733
607.153	0.0333087
