Infrared Spectrum: 21-HYDROXY PROGESTERONE
Formula: C21 H30 O3
CAS: 64-85-7
State: SOLID (KBr PELLET)
Class: COBLENTZ
Instrument: PERKIN-ELMER
Sampling: TRANSMISSION
Resolution: 4
Origin: ABBOTT LABORATORIES - WASHBURN
MICROMETERS	TRANSMITTANCE
2.507	0.56
2.54034	0.563
2.57367	0.5648
2.60701	0.5671
2.64034	0.57
2.67368	0.573
2.70701	0.577
2.74035	0.578
2.77368	0.578
2.80702	0.5716
2.84035	0.5285
2.87369	0.431
2.90702	0.51
2.94036	0.533
2.97369	0.55
3.00703	0.5602
3.04036	0.5673
3.0737	0.5821
3.10703	0.588
3.14037	0.595
3.1737	0.6
3.20704	0.598
3.24037	0.6
3.27371	0.5978
3.30704	0.572
3.34038	0.4723
3.37371	0.269
3.40705	0.2476
3.44038	0.271
3.47372	0.2902
3.50705	0.336
3.54039	0.3877
3.57372	0.5106
3.60706	0.5437
3.64039	0.5681
3.67373	0.5851
3.70706	0.59
3.7404	0.603
3.77373	0.603
3.80707	0.6082
3.8404	0.6161
3.87374	0.6161
3.90707	0.626
3.94041	0.628
3.97375	0.6332
4.00708	0.6382
4.04042	0.6459
4.07375	0.643
4.10709	0.643
4.14042	0.645
4.17376	0.651
4.20709	0.6562
4.24043	0.6549
4.27376	0.648
4.3071	0.656
4.34043	0.65
4.37377	0.66
4.4071	0.6632
4.44044	0.6681
4.47377	0.673
4.50711	0.674
4.54044	0.676
4.57378	0.6746
4.60711	0.6792
4.64045	0.683
4.67378	0.6861
4.70712	0.688
4.74045	0.689
4.77379	0.694
4.80712	0.7012
4.84046	0.699
4.87379	0.7041
4.90713	0.704
4.94046	0.709
4.9738	0.711
5.00713	0.7131
5.04047	0.718
5.0738	0.723
5.10714	0.721
5.14047	0.7232
5.17381	0.7278
5.20714	0.736
5.24048	0.7369
5.27381	0.739
5.30715	0.741
5.34048	0.742
5.37382	0.744
5.40715	0.7516
5.44049	0.754
5.47383	0.7566
5.50716	0.757
5.5405	0.756
5.57383	0.753
5.60717	0.7551
5.6405	0.7416
5.67384	0.7292
5.70717	0.7072
5.74051	0.6686
5.77384	0.6236
5.80718	0.5677
5.84051	0.443
5.87385	0.2644
5.90718	0.1791
5.94052	0.3151
5.97385	0.1783
6.00719	0.1172
6.04052	0.1818
6.07386	0.2809
6.10719	0.3299
6.14053	0.385
6.17386	0.3558
6.2072	0.3272
6.24053	0.4194
6.27387	0.4824
6.3072	0.5079
6.34054	0.5355
6.37387	0.5541
6.40721	0.5641
6.44054	0.5711
6.47388	0.5806
6.50721	0.587
6.54055	0.6019
6.57388	0.6021
6.60722	0.6104
6.64055	0.615
6.67389	0.618
6.70722	0.616
6.74056	0.6075
6.77389	0.5695
6.80723	0.5238
6.84056	0.5183
6.8739	0.4831
6.90724	0.3607
6.94057	0.4213
6.97391	0.444
7.00724	0.3857
7.04058	0.4737
7.07391	0.4467
7.10725	0.435
7.14058	0.4506
7.17392	0.47
7.20725	0.371
7.24059	0.3728
7.27392	0.4071
7.30726	0.4691
7.34059	0.4813
7.37393	0.4097
7.40726	0.3726
7.4406	0.4111
7.47393	0.4754
7.50727	0.4808
7.5406	0.4224
7.57394	0.5126
7.60727	0.5507
7.64061	0.578
7.67394	0.5663
7.70728	0.5489
7.74061	0.4566
7.77395	0.4546
7.80728	0.4462
7.84062	0.3703
7.87395	0.3261
7.90729	0.3913
7.94062	0.4765
7.97396	0.514
8.00729	0.5085
8.04063	0.4636
8.07396	0.459
8.1073	0.3656
8.14063	0.2816
8.17397	0.3434
8.2073	0.3779
8.24064	0.4071
8.27397	0.4478
8.30731	0.4366
8.34065	0.4429
8.37398	0.4184
8.40732	0.4
8.44065	0.4426
8.47399	0.4484
8.50732	0.4905
8.54066	0.5252
8.57399	0.5472
8.60733	0.5631
8.64066	0.5809
8.674	0.588
8.70733	0.587
8.74067	0.5952
8.774	0.606
8.80734	0.5914
8.84067	0.5519
8.87401	0.543
8.90734	0.553
8.94068	0.5161
8.97401	0.4761
9.00735	0.4882
9.04068	0.5429
9.07402	0.5676
9.10735	0.5814
9.14069	0.588
9.17402	0.5663
9.20736	0.538
9.24069	0.5388
9.27403	0.4867
9.30736	0.3795
9.3407	0.2565
9.37403	0.2634
9.40737	0.336
9.4407	0.3007
9.47404	0.2803
9.50737	0.3571
9.54071	0.408
9.57404	0.4634
9.60738	0.4694
9.64071	0.447
9.67405	0.4678
9.70738	0.4935
9.74072	0.4841
9.77406	0.5186
9.80739	0.518
9.84073	0.5292
9.87406	0.5496
9.9074	0.557
9.94073	0.5152
9.97407	0.4975
10.0074	0.495
10.0407	0.5255
10.0741	0.5423
10.1074	0.5128
10.1407	0.5307
10.1741	0.5618
10.2074	0.5848
10.2407	0.5932
10.2741	0.5843
10.3074	0.5726
10.3408	0.572
10.3741	0.5736
10.4074	0.578
10.4408	0.5828
10.4741	0.5719
10.5074	0.5355
10.5408	0.504
10.5741	0.4682
10.6074	0.47
10.6408	0.5104
10.6741	0.5454
10.7074	0.5678
10.7408	0.5847
10.7741	0.597
10.8074	0.5996
10.8408	0.6108
10.8741	0.625
10.9074	0.6285
10.9408	0.623
10.9741	0.6236
11.0075	0.6022
11.0408	0.5161
11.0741	0.512
11.1075	0.5461
11.1408	0.5206
11.1741	0.48
11.2075	0.4958
11.2408	0.5561
11.2741	0.5737
11.3075	0.5936
11.3408	0.6016
11.3741	0.6143
11.4075	0.626
11.4408	0.6356
11.4741	0.6446
11.5075	0.6356
11.5408	0.6039
11.5742	0.5191
11.6075	0.4319
11.6408	0.3378
11.6742	0.3997
11.7075	0.4741
11.7408	0.5512
11.7742	0.587
11.8075	0.6124
11.8408	0.6275
11.8742	0.6303
11.9075	0.6065
11.9408	0.593
11.9742	0.6023
12.0075	0.613
12.0408	0.616
12.0742	0.6156
12.1075	0.6176
12.1408	0.616
12.1742	0.6348
12.2075	0.6447
12.2409	0.656
12.2742	0.6589
12.3075	0.665
12.3409	0.6715
12.3742	0.679
12.4075	0.6782
12.4409	0.6843
12.4742	0.688
12.5075	0.688
12.5409	0.691
12.5742	0.6939
12.6075	0.701
12.6409	0.699
12.6742	0.7027
12.7075	0.6988
12.7409	0.703
12.7742	0.701
12.8076	0.6895
12.8409	0.6724
12.8742	0.6339
12.9076	0.608
12.9409	0.6245
12.9742	0.6514
13.0076	0.6685
13.0409	0.6784
13.0742	0.6818
13.1076	0.6749
13.1409	0.6786
13.1742	0.6724
13.2076	0.669
13.2409	0.673
13.2742	0.6833
13.3076	0.689
13.3409	0.6916
13.3742	0.6982
13.4076	0.699
13.4409	0.6931
13.4743	0.6861
13.5076	0.6781
13.5409	0.6562
13.5743	0.6578
13.6076	0.6673
13.6409	0.6855
13.6743	0.6926
13.7076	0.6988
13.7409	0.704
13.7743	0.704
13.8076	0.7124
13.8409	0.716
13.8743	0.718
13.9076	0.716
13.9409	0.7169
13.9743	0.7201
14.0076	0.726
14.0409	0.726
14.0743	0.7254
14.1076	0.7233
14.141	0.723
14.1743	0.7204
14.2076	0.7187
14.241	0.7075
14.2743	0.701
14.3076	0.6909
14.341	0.6779
14.3743	0.679
14.4076	0.678
14.441	0.6809
14.4743	0.6862
14.5076	0.6828
14.541	0.6734
14.5743	0.6491
14.6076	0.61
14.641	0.5684
14.6743	0.5779
14.7077	0.63
14.741	0.6618
14.7743	0.6776
14.8077	0.6926
14.841	0.7035
14.8743	0.708
14.9077	0.7149
14.941	0.718
14.9743	0.7242
