Infrared Spectrum: 2,5-Difluorobenzonitrile
Formula: C7 H3 F2 N
CAS: 64248-64-2
State: SOLUTION (10% CCl4 FOR 3800-1330, 10% CS2 FOR 1330-400 CM^-^1)
Class: COBLENTZ III
Instrument: DOW KBr FOREPRISM-GRATING
Instrument parameters: BLAZED AT 3.5, 12.0, 20.0 MICRON AND CHANGED AT 5.0, 7.5, 14.9 MICRON
Sampling: TRANSMISSION
Path length: 0.010 CM, 0.011 CM
Resolution: 2
Origin: DOW CHEMICAL COMPANY
1/CM	TRANSMITTANCE
3800	0.8583
3791	0.8551
3782	0.8543
3773	0.8548
3764	0.8555
3755	0.8563
3746	0.8571
3737	0.8581
3728	0.8596
3719	0.861
3710	0.8625
3701	0.8641
3692	0.8659
3683	0.8667
3674	0.8656
3665	0.8633
3656	0.863
3647	0.8634
3638	0.8648
3629	0.8664
3620	0.8681
3611	0.8696
3602	0.8712
3593	0.872
3584	0.8684
3575	0.8666
3566	0.8677
3557	0.869
3548	0.8709
3539	0.872
3530	0.8718
3521	0.8712
3512	0.8702
3503	0.8714
3494	0.8731
3485	0.8747
3476	0.8764
3467	0.8778
3458	0.8791
3449	0.8802
3440	0.8815
3431	0.8825
3422	0.8839
3413	0.8851
3404	0.8864
3395	0.8874
3386	0.888
3377	0.8885
3368	0.8891
3359	0.8896
3350	0.8902
3341	0.8906
3332	0.8911
3323	0.8915
3314	0.892
3305	0.8921
3296	0.8921
3287	0.8921
3278	0.8921
3269	0.8921
3260	0.892
3251	0.8917
3242	0.8915
3233	0.8909
3224	0.89
3215	0.8891
3206	0.8875
3197	0.8861
3188	0.8844
3179	0.8821
3170	0.8794
3161	0.8768
3152	0.8712
3143	0.8567
3134	0.8215
3125	0.8183
3116	0.829
3107	0.8308
3098	0.7619
3089	0.6154
3080	0.6891
3071	0.7936
3062	0.8175
3053	0.8409
3044	0.8547
3035	0.8628
3026	0.8695
3017	0.8739
3008	0.8774
2999	0.8803
2990	0.8821
2981	0.884
2972	0.8858
2963	0.8873
2954	0.8884
2945	0.8895
2936	0.8906
2927	0.8904
2918	0.8832
2909	0.8771
2900	0.8801
2891	0.8761
2882	0.8732
2873	0.8739
2864	0.8752
2855	0.877
2846	0.8788
2837	0.8768
2828	0.8757
2819	0.8763
2810	0.876
2801	0.8749
2792	0.8737
2783	0.8727
2774	0.8721
2765	0.8706
2756	0.8671
2747	0.8656
2738	0.8643
2729	0.8625
2720	0.8636
2711	0.8653
2702	0.8671
2693	0.8684
2684	0.8692
2675	0.8701
2666	0.871
2657	0.8718
2648	0.8716
2639	0.8709
2630	0.87
2621	0.8678
2612	0.8649
2603	0.859
2594	0.8564
2585	0.8592
2576	0.8608
2567	0.8604
2558	0.8575
2549	0.8588
2540	0.8595
2531	0.8598
2522	0.8567
2513	0.8523
2504	0.8545
2495	0.8552
2486	0.8508
2477	0.8528
2468	0.8544
2459	0.8553
2450	0.8523
2441	0.854
2432	0.857
2423	0.8582
2414	0.8563
2405	0.8449
2396	0.8464
2387	0.8555
2378	0.8633
2369	0.8689
2360	0.8736
2351	0.8768
2342	0.878
2333	0.8778
2324	0.8761
2315	0.8731
2306	0.8686
2297	0.8618
2288	0.8475
2279	0.8464
2270	0.8478
2261	0.5415
2252	0.4815
2243	0.7335
2234	0.8266
2225	0.8456
2216	0.8475
2207	0.8475
2198	0.8524
2189	0.8574
2180	0.8618
2171	0.8647
2162	0.8641
2153	0.8644
2144	0.8644
2135	0.8628
2126	0.8638
2117	0.8651
2108	0.8662
2099	0.8655
2090	0.8637
2081	0.8613
2072	0.8584
2063	0.8528
2054	0.8477
2045	0.8436
2036	0.8463
2027	0.8533
2018	0.8583
2009	0.8616
2000	0.8642
1991	0.8639
1982	0.8637
1973	0.8649
1964	0.8687
1955	0.8717
1946	0.8748
1937	0.8778
1928	0.8807
1919	0.8775
1910	0.8712
1901	0.8659
1892	0.8588
1883	0.8115
1874	0.8115
1865	0.8494
1856	0.8686
1847	0.8793
1838	0.8762
1829	0.8786
1820	0.8788
1811	0.8749
1802	0.8773
1793	0.8782
1784	0.8778
1775	0.8775
1766	0.8625
1757	0.8397
1748	0.8106
1739	0.8349
1730	0.8742
1721	0.8866
1712	0.8834
1703	0.8821
1694	0.8762
1685	0.8798
1676	0.8812
1667	0.8784
1658	0.8599
1649	0.8078
1640	0.8332
1631	0.8415
1622	0.8371
1613	0.8407
1604	0.7748
1595	0.6691
1586	0.7294
1577	0.8015
1568	0.8521
1559	0.8684
1550	0.8709
1541	0.7665
1532	0.756
1523	0.7685
1514	0.6091
1505	0.0438
1496	0.0462
1487	0.3391
1478	0.2662
1469	0.6262
1460	0.7947
1451	0.8174
1442	0.8203
1433	0.788
1424	0.2517
1415	0.4731
1406	0.7448
1397	0.8049
1388	0.8176
1379	0.8076
1370	0.8154
1361	0.8117
1352	0.8118
1343	0.8275
1334	0.8414
1325	0.8415
1316	0.7915
1307	0.7004
1298	0.6668
1289	0.6783
1280	0.6678
1271	0.5041
1262	0.4844
1253	0.0343
1244	0.5597
1235	0.5899
1226	0.6914
1217	0.1794
1208	0.1119
1199	0.311
1190	0.3768
1181	0.506
1172	0.7651
1163	0.8118
1154	0.8228
1145	0.7339
1136	0.1864
1127	0.7455
1118	0.8172
1109	0.8261
1100	0.6755
1091	0.7491
1082	0.8395
1073	0.8592
1064	0.8687
1055	0.8698
1046	0.8702
1037	0.8709
1028	0.8748
1019	0.8765
1010	0.8743
1001	0.8675
992	0.8667
983	0.87
974	0.8699
965	0.7995
956	0.8268
947	0.365
938	0.7386
929	0.82
920	0.8506
911	0.8514
902	0.7935
893	0.7291
884	0.4198
875	0.1772
866	0.7021
857	0.7792
848	0.7414
839	0.5488
830	0.0675
821	0.5012
812	0.7628
803	0.7401
794	0.7388
785	0.1196
776	0.4678
767	0.7405
758	0.8193
749	0.8176
740	0.8017
731	0.7853
722	0.8101
713	0.2146
704	0.7683
695	0.8121
686	0.8305
677	0.8393
668	0.8405
659	0.8359
650	0.8264
641	0.8324
632	0.8365
623	0.837
614	0.8346
605	0.82
596	0.6696
587	0.8193
578	0.83
569	0.8321
560	0.8337
551	0.8334
542	0.8214
533	0.8187
524	0.8305
515	0.8358
506	0.8069
497	0.5762
488	0.4858
479	0.6312
470	0.766
461	0.7849
452	0.793
443	0.7565
434	0.7675
425	0.7776
416	0.7811
407	0.7812
398	0.7815
389	0.7828
