Infrared Spectrum: O-PHTHALALDEHYDE
Formula: C8 H6 O2
CAS: 643-79-8
State: SOLID (KBr PELLET)
Class: COBLENTZ
Instrument: PERKIN-ELMER
Sampling: TRANSMISSION
Resolution: 4
Origin: STANDARD OIL OF OHIO
MICROMETERS	TRANSMITTANCE
2.02	0.845
2.05384	0.848
2.08768	0.85
2.12151	0.852
2.15535	0.852
2.18919	0.853
2.22303	0.855
2.25686	0.862
2.2907	0.867
2.32454	0.869
2.35838	0.869
2.39221	0.872
2.42605	0.876
2.45989	0.879
2.49373	0.882
2.52756	0.879
2.5614	0.881
2.59524	0.886
2.62908	0.891
2.66292	0.893
2.69675	0.886
2.73059	0.864
2.76443	0.799
2.79827	0.682
2.8321	0.631
2.86594	0.59
2.89978	0.578
2.93362	0.584
2.96745	0.631
3.00129	0.707
3.03513	0.75
3.06897	0.782
3.1028	0.814
3.13664	0.837
3.17048	0.845
3.20432	0.837
3.23815	0.821
3.27199	0.831
3.30583	0.85
3.33967	0.864
3.37351	0.86
3.40734	0.789
3.44118	0.75
3.47502	0.726
3.50886	0.77
3.54269	0.821
3.57653	0.818
3.61037	0.767
3.64421	0.85
3.67804	0.876
3.71188	0.889
3.74572	0.898
3.77956	0.91
3.81339	0.911
3.84723	0.918
3.88107	0.921
3.91491	0.926
3.94875	0.928
3.98258	0.93
4.01642	0.928
4.05026	0.926
4.0841	0.928
4.11793	0.93
4.15177	0.923
4.18561	0.916
4.21945	0.92
4.25328	0.921
4.28712	0.921
4.32096	0.923
4.3548	0.925
4.38863	0.926
4.42247	0.928
4.45631	0.93
4.49015	0.932
4.52398	0.932
4.55782	0.932
4.59166	0.932
4.6255	0.932
4.65934	0.93
4.69317	0.928
4.72701	0.928
4.76085	0.926
4.79469	0.923
4.82852	0.916
4.86236	0.913
4.8962	0.915
4.93004	0.903
4.96387	0.887
4.99771	0.894
5.03155	0.901
5.06539	0.901
5.09922	0.903
5.13306	0.913
5.1669	0.916
5.20074	0.92
5.23458	0.916
5.26841	0.915
5.30225	0.918
5.33609	0.92
5.36993	0.91
5.40376	0.91
5.4376	0.915
5.47144	0.908
5.50528	0.887
5.53911	0.857
5.57295	0.767
5.60679	0.602
5.64063	0.548
5.67446	0.599
5.7083	0.628
5.74214	0.519
5.77598	0.31
5.80981	0.246
5.84365	0.079
5.87749	0.008
5.91133	0.011
5.94517	0.064
5.979	0.325
6.01284	0.475
6.04668	0.589
6.08052	0.653
6.11435	0.689
6.14819	0.702
6.18203	0.706
6.21587	0.534
6.2497	0.208
6.28354	0.485
6.31738	0.303
6.35122	0.684
6.38505	0.752
6.41889	0.843
6.45273	0.857
6.48657	0.874
6.52041	0.893
6.55424	0.901
6.58808	0.908
6.62192	0.908
6.65576	0.864
6.68959	0.835
6.72343	0.826
6.75727	0.842
6.79111	0.859
6.82494	0.859
6.85878	0.758
6.89262	0.821
6.92646	0.867
6.96029	0.891
6.99413	0.911
7.02797	0.911
7.06181	0.898
7.09564	0.797
7.12948	0.809
7.16332	0.859
7.19716	0.881
7.231	0.894
7.26483	0.893
7.29867	0.882
7.33251	0.877
7.36635	0.877
7.40018	0.884
7.43402	0.896
7.46786	0.908
7.5017	0.904
7.53553	0.893
7.56937	0.85
7.60321	0.631
7.63705	0.565
7.67088	0.713
7.70472	0.769
7.73856	0.762
7.7724	0.723
7.80624	0.638
7.84007	0.3
7.87391	0.39
7.90775	0.675
7.94159	0.73
7.97542	0.753
8.00926	0.769
8.0431	0.774
8.07694	0.782
8.11077	0.787
8.14461	0.774
8.17845	0.714
8.21229	0.604
8.24612	0.414
8.27996	0.202
8.3138	0.045
8.34764	0.027
8.38147	0.083
8.41531	0.205
8.44915	0.468
8.48299	0.602
8.51683	0.702
8.55066	0.748
8.5845	0.764
8.61834	0.772
8.65218	0.811
8.68601	0.85
8.71985	0.867
8.75369	0.876
8.78753	0.876
8.82136	0.869
8.8552	0.862
8.88904	0.865
8.92288	0.865
8.95671	0.857
8.99055	0.845
9.02439	0.821
9.05823	0.787
9.09207	0.782
9.1259	0.784
9.15974	0.769
9.19358	0.764
9.22742	0.762
9.26125	0.757
9.29509	0.752
9.32893	0.748
9.36277	0.75
9.3966	0.752
9.43044	0.757
9.46428	0.76
9.49812	0.774
9.53195	0.782
9.56579	0.786
9.59963	0.789
9.63347	0.811
9.66731	0.83
9.70114	0.831
9.73498	0.823
9.76882	0.804
9.80266	0.78
9.83649	0.76
9.87033	0.747
9.90417	0.743
9.93801	0.74
9.97184	0.718
10.0057	0.694
10.0395	0.702
10.0734	0.743
10.1072	0.772
10.141	0.791
10.1749	0.803
10.2087	0.806
10.2425	0.808
10.2764	0.808
10.3102	0.801
10.3441	0.791
10.3779	0.786
10.4117	0.789
10.4456	0.801
10.4794	0.806
10.5132	0.809
10.5471	0.809
10.5809	0.809
10.6148	0.804
10.6486	0.803
10.6824	0.801
10.7163	0.797
10.7501	0.794
10.7839	0.796
10.8178	0.801
10.8516	0.813
10.8855	0.826
10.9193	0.833
10.9531	0.835
10.987	0.838
11.0208	0.843
11.0546	0.85
11.0885	0.85
11.1223	0.847
11.1562	0.838
11.19	0.833
11.2238	0.835
11.2577	0.838
11.2915	0.84
11.3253	0.842
11.3592	0.845
11.393	0.847
11.4269	0.843
11.4607	0.837
11.4945	0.82
11.5284	0.704
11.5622	0.504
11.5961	0.295
11.6299	0.23
11.6637	0.5
11.6976	0.633
11.7314	0.731
11.7652	0.796
11.7991	0.816
11.8329	0.83
11.8668	0.838
11.9006	0.84
11.9344	0.833
11.9683	0.816
12.0021	0.779
12.0359	0.752
12.0698	0.738
12.1036	0.713
12.1375	0.668
12.1713	0.585
12.2051	0.502
12.239	0.422
12.2728	0.358
12.3066	0.32
12.3405	0.329
12.3743	0.385
12.4082	0.448
12.442	0.5
12.4758	0.567
12.5097	0.629
12.5435	0.674
12.5773	0.702
12.6112	0.719
12.645	0.724
12.6789	0.721
12.7127	0.709
12.7465	0.689
12.7804	0.651
12.8142	0.601
12.848	0.533
12.8819	0.465
12.9157	0.368
12.9496	0.275
12.9834	0.195
13.0172	0.135
13.0511	0.113
13.0849	0.106
13.1187	0.156
13.1526	0.213
13.1864	0.275
13.2203	0.353
13.2541	0.441
13.2879	0.5
13.3218	0.55
13.3556	0.601
13.3894	0.634
13.4233	0.672
13.4571	0.701
13.491	0.719
13.5248	0.735
13.5586	0.748
13.5925	0.758
13.6263	0.769
13.6601	0.779
13.694	0.791
13.7278	0.801
13.7617	0.808
13.7955	0.809
13.8293	0.809
13.8632	0.799
13.897	0.789
13.9308	0.774
13.9647	0.76
13.9985	0.753
14.0324	0.752
14.0662	0.758
14.1	0.762
14.1339	0.77
14.1677	0.78
14.2015	0.791
14.2354	0.803
14.2692	0.809
14.3031	0.811
14.3369	0.809
14.3707	0.806
14.4046	0.797
14.4384	0.787
14.4722	0.786
14.5061	0.787
14.5399	0.791
14.5738	0.801
14.6076	0.806
14.6414	0.813
14.6753	0.816
14.7091	0.818
14.7429	0.818
14.7768	0.816
14.8106	0.813
14.8445	0.811
14.8783	0.808
14.9121	0.801
14.946	0.796
14.9798	0.789
15.0137	0.777
15.0475	0.767
15.0813	0.75
15.1152	0.73
15.149	0.702
15.1828	0.677
15.2167	0.65
15.2505	0.621
15.2844	0.599
15.3182	0.604
15.352	0.638
15.3859	0.68
