Infrared Spectrum: ACETIC ACID, 2,4-DINITROPHENYL-
Formula: C8 H6 N2 O6
CAS: 643-43-6
State: SOLID (SPLIT MULL)
Melting point: 189 C
Class: COBLENTZ III
Instrument: DOW KBr FOREPRISM-GRATING
Instrument parameters: BLAZED AT 3.5, 12.0, 20.0 MICRON AND CHANGED AT 5.0, 7.5, 14.9 MICRON
Sampling: TRANSMISSION
Resolution: 2
Origin: DOW CHEMICAL COMPANY
1/CM	TRANSMITTANCE
454	0.7695
463	0.7695
472	0.7676
481	0.774
490	0.7771
499	0.7919
508	0.8091
517	0.8053
526	0.8032
535	0.8118
544	0.8228
553	0.8233
562	0.8297
571	0.839
580	0.8375
589	0.8356
598	0.8386
607	0.8425
616	0.844
625	0.8453
634	0.8439
643	0.8371
652	0.794
661	0.7604
670	0.9018
679	0.9485
688	0.9387
697	0.8909
706	0.6688
715	0.6019
724	0.8433
733	0.8878
742	0.7133
751	0.9216
760	0.9139
769	0.9199
778	0.9347
787	0.9375
796	0.935
805	0.9283
814	0.9099
823	0.6472
832	0.8816
841	0.8994
850	0.8357
859	0.8842
868	0.8871
877	0.8554
886	0.7758
895	0.6964
904	0.5912
913	0.6994
922	0.6467
931	0.8882
940	0.9
949	0.8208
958	0.9284
967	0.9331
976	0.924
985	0.9535
994	0.9544
1003	0.9549
1012	0.9565
1021	0.9568
1030	0.9551
1039	0.9531
1048	0.9497
1057	0.9207
1066	0.8078
1075	0.9317
1084	0.9408
1093	0.9457
1102	0.9484
1111	0.9406
1120	0.8894
1129	0.9064
1138	0.9061
1147	0.7828
1156	0.9124
1165	0.9138
1174	0.8998
1183	0.8827
1192	0.8042
1201	0.6756
1210	0.8562
1219	0.8068
1228	0.7199
1237	0.4528
1246	0.371
1255	0.8378
1264	0.8575
1273	0.7462
1282	0.6152
1291	0.8217
1300	0.8359
1309	0.8212
1318	0.7711
1327	0.6853
1336	0.4575
1345	0.3649
1354	0.0735
1363	0.3714
1372	0.6765
1381	0.7387
1390	0.7443
1399	0.5393
1408	0.6474
1417	0.6018
1426	0.6999
1435	0.5089
1444	0.5212
1453	0.7415
1462	0.7826
1471	0.7801
1480	0.7575
1489	0.7391
1498	0.7251
1507	0.603
1516	0.4246
1525	0.2111
1534	0.0719
1543	0.154
1552	0.7058
1561	0.77
1570	0.7861
1579	0.7831
1588	0.7712
1597	0.688
1606	0.4565
1615	0.6405
1624	0.8146
1633	0.818
1642	0.8155
1651	0.8017
1660	0.7901
1669	0.7484
1678	0.6428
1687	0.3807
1696	0.1223
1705	0.2263
1714	0.564
1723	0.7604
1732	0.8103
1741	0.8224
1750	0.8401
1759	0.8483
1768	0.8546
1777	0.862
1786	0.862
1795	0.8603
1804	0.8594
1813	0.8628
1822	0.8599
1831	0.8589
1840	0.8708
1849	0.8734
1858	0.875
1867	0.8752
1876	0.8753
1885	0.8736
1894	0.8764
1903	0.8785
1912	0.8778
1921	0.8785
1930	0.8783
1939	0.8777
1948	0.8748
1957	0.8614
1966	0.8794
1975	0.8771
1984	0.8748
1993	0.8628
2002	0.8686
2011	0.865
2020	0.864
2029	0.863
2038	0.8621
2047	0.8617
2056	0.8611
2065	0.8604
2074	0.8598
2083	0.8585
2092	0.8571
2101	0.856
2110	0.8551
2119	0.8541
2128	0.8525
2137	0.8511
2146	0.8497
2155	0.8492
2164	0.8477
2173	0.8452
2182	0.8425
2191	0.8402
2200	0.8396
2209	0.8378
2218	0.8344
2227	0.8284
2236	0.8217
2245	0.8161
2254	0.8164
2263	0.8164
2272	0.8157
2281	0.8136
2290	0.811
2299	0.8081
2308	0.8057
2317	0.8033
2326	0.801
2335	0.7986
2344	0.7978
2353	0.8007
2362	0.8007
2371	0.8008
2380	0.8032
2389	0.8045
2398	0.8035
2407	0.8008
2416	0.7978
2425	0.7949
2434	0.7903
2443	0.7851
2452	0.7798
2461	0.7756
2470	0.775
2479	0.7765
2488	0.7708
2497	0.7655
2506	0.7626
2515	0.7635
2524	0.7565
2533	0.7421
2542	0.7311
2551	0.7221
2560	0.7167
2569	0.7225
2578	0.7349
2587	0.7318
2596	0.7174
2605	0.7017
2614	0.7033
2623	0.7015
2632	0.6925
2641	0.6889
2650	0.6801
2659	0.688
2668	0.709
2677	0.719
2686	0.7126
2695	0.704
2704	0.6958
2713	0.6926
2722	0.6904
2731	0.6793
2740	0.6689
2749	0.6665
2758	0.6742
2767	0.6836
2776	0.6934
2785	0.6889
2794	0.6825
2803	0.6754
2812	0.6653
2821	0.6526
2830	0.6425
2839	0.6312
2848	0.6126
2857	0.6025
2866	0.5973
2875	0.5912
2884	0.5917
2893	0.6
2902	0.6019
2911	0.5927
2920	0.5868
2929	0.5868
2938	0.5834
2947	0.5758
2956	0.5889
2965	0.603
2974	0.6073
2983	0.6235
2992	0.6348
3001	0.6149
3010	0.5998
3019	0.5925
3028	0.5925
3037	0.5993
3046	0.6068
3055	0.5995
3064	0.5896
3073	0.6096
3082	0.6053
3091	0.5918
3100	0.5577
3109	0.5401
3118	0.5246
3127	0.6391
3136	0.6617
3145	0.6771
3154	0.691
3163	0.7028
3172	0.7144
3181	0.7248
3190	0.734
3199	0.7412
3208	0.7486
3217	0.7553
3226	0.7618
3235	0.7683
3244	0.7748
3253	0.7811
3262	0.7868
3271	0.7921
3280	0.7964
3289	0.7999
3298	0.8028
3307	0.8053
3316	0.8078
3325	0.8097
3334	0.8115
3343	0.8133
3352	0.8151
3361	0.8167
3370	0.8182
3379	0.8196
3388	0.8197
3397	0.8196
3406	0.8183
3415	0.8167
3424	0.8154
3433	0.8147
3442	0.814
3451	0.8132
3460	0.8126
3469	0.8122
3478	0.8119
3487	0.811
3496	0.8098
3505	0.8084
3514	0.8076
3523	0.8071
3532	0.8065
3541	0.806
3550	0.8054
3559	0.8044
3568	0.8028
3577	0.8007
3586	0.7989
3595	0.7971
3604	0.7957
3613	0.7945
3622	0.7933
3631	0.7924
3640	0.7915
3649	0.7904
3658	0.7886
3667	0.7851
3676	0.7808
3685	0.7822
3694	0.7878
3703	0.7869
3712	0.7847
3721	0.783
3730	0.7819
3739	0.7812
3748	0.7807
3757	0.7806
3766	0.7806
3775	0.7804
3784	0.7803
