Infrared Spectrum: BIPHENYL, 4-METHYL-
Formula: C13 H12
CAS: 644-08-6
State: SOLUTION (10% IN CCl4 FOR 3800-1300, 2% IN CS2 FOR 1300-650, AND 10% IN CCl4 FOR 650-240 CM^-^1) VERSUS SOLVENT
Melting point: 49 C
Boiling point: 267 C
Class: COBLENTZ II
Instrument: PERKIN-ELMER 521 (GRATING)
Instrument parameters: GRATING CHANGES AT 2000, 630 CM^-^1
Sampling: TRANSMISSION
Path length: 0.010, 0.011, AND 0.020 CM (CsBr CELL)
Resolution: 4
Origin: DOW CORNING CORP.
1/CM	TRANSMITTANCE
251.923	0.818
261.086	0.818
270.249	0.818
279.412	0.82
288.575	0.82
297.738	0.836
306.901	0.849
316.063	0.846
325.226	0.85
334.389	0.832
343.552	0.817
352.715	0.827
361.878	0.829
371.041	0.82
380.204	0.808
389.367	0.774
398.53	0.715
407.693	0.587
416.856	0.716
426.019	0.756
435.182	0.765
444.344	0.77
453.507	0.756
462.67	0.746
471.833	0.74
480.996	0.6561
490.159	0.4631
499.322	0.321
508.485	0.445
517.648	0.632
526.811	0.727
535.974	0.734
545.137	0.5311
554.3	0.6839
563.462	0.6636
572.625	0.787
581.788	0.811
590.951	0.837
600.114	0.864
609.277	0.879
618.44	0.888
627.603	0.884
636.766	0.878
645.929	0.881
655.092	0.877
664.255	0.874
673.418	0.878
682.58	0.868
691.743	0.784
700.906	0.626
710.069	0.827
719.232	0.872
728.395	0.867
737.558	0.849
746.721	0.813
755.884	0.5512
765.047	0.769
774.21	0.864
783.373	0.875
792.536	0.873
801.699	0.868
810.861	0.849
820.024	0.6831
829.187	0.7979
838.35	0.856
847.513	0.859
856.676	0.856
865.839	0.859
875.002	0.856
884.165	0.855
893.328	0.85
902.491	0.846
911.654	0.821
920.817	0.848
929.979	0.849
939.142	0.845
948.305	0.846
957.468	0.848
966.631	0.848
975.794	0.848
984.957	0.846
994.12	0.839
1003.28	0.827
1012.45	0.8436
1021.61	0.846
1030.77	0.836
1039.93	0.811
1049.1	0.844
1058.26	0.845
1067.42	0.837
1076.59	0.827
1085.75	0.854
1094.91	0.855
1104.08	0.843
1113.24	0.843
1122.4	0.848
1131.56	0.863
1140.73	0.863
1149.89	0.856
1159.05	0.856
1168.22	0.848
1177.38	0.839
1186.54	0.843
1195.7	0.855
1204.87	0.858
1214.03	0.859
1223.19	0.863
1232.36	0.854
1241.52	0.86
1250.68	0.864
1259.84	0.864
1269.01	0.863
1278.17	0.859
1287.33	0.851
1296.5	0.839
1305.66	0.802
1314.82	0.825
1323.99	0.82
1333.15	0.824
1342.31	0.816
1351.47	0.82
1360.64	0.827
1369.8	0.811
1378.96	0.759
1388.13	0.787
1397.29	0.779
1406.45	0.721
1415.61	0.735
1424.78	0.74
1433.94	0.681
1443.1	0.592
1452.27	0.6479
1461.43	0.687
1470.59	0.693
1479.76	0.5781
1488.92	0.249
1498.08	0.637
1507.24	0.754
1516.41	0.6529
1525.57	0.6671
1534.73	0.82
1543.9	0.855
1553.06	0.85
1562.22	0.843
1571.38	0.794
1580.55	0.811
1589.71	0.806
1598.87	0.7299
1608.04	0.6921
1617.2	0.77
1626.36	0.81
1635.52	0.822
1644.69	0.822
1653.85	0.793
1663.01	0.8
1672.18	0.818
1681.34	0.837
1690.5	0.832
1699.67	0.83
1708.83	0.85
1717.99	0.853
1727.15	0.846
1736.32	0.834
1745.48	0.825
1754.64	0.834
1763.81	0.853
1772.97	0.851
1782.13	0.843
1791.29	0.816
1800.46	0.802
1809.62	0.843
1818.78	0.85
1827.95	0.862
1837.11	0.867
1846.27	0.865
1855.43	0.86
1864.6	0.84
1873.76	0.807
1882.92	0.83
1892.09	0.8
1901.25	0.76
1910.41	0.822
1919.58	0.859
1928.74	0.858
1937.9	0.829
1947.06	0.806
1956.23	0.831
1965.39	0.859
1974.55	0.864
1983.72	0.865
1992.88	0.867
2002.04	0.872
2011.2	0.878
2020.37	0.8769
2029.53	0.8746
2038.69	0.879
2047.86	0.8784
2057.02	0.878
2066.18	0.877
2075.35	0.874
2084.51	0.873
2093.67	0.872
2102.83	0.87
2112	0.87
2121.16	0.87
2130.32	0.869
2139.49	0.863
2148.65	0.8673
2157.81	0.8688
2166.97	0.8687
2176.14	0.8675
2185.3	0.8724
2194.46	0.8702
2203.63	0.8734
2212.79	0.8702
2221.95	0.867
2231.11	0.865
2240.28	0.865
2249.44	0.865
2258.6	0.865
2267.77	0.865
2276.93	0.864
2286.09	0.8639
2295.26	0.863
2304.42	0.8599
2313.58	0.8596
2322.74	0.864
2331.91	0.8593
2341.07	0.862
2350.23	0.863
2359.4	0.859
2368.56	0.8627
2377.72	0.864
2386.88	0.863
2396.05	0.862
2405.21	0.86
2414.37	0.859
2423.54	0.859
2432.7	0.86
2441.86	0.86
2451.03	0.86
2460.19	0.859
2469.35	0.858
2478.51	0.859
2487.68	0.8585
2496.84	0.856
2506	0.854
2515.17	0.854
2524.33	0.855
2533.49	0.858
2542.65	0.858
2551.82	0.856
2560.98	0.855
2570.14	0.854
2579.31	0.85
2588.47	0.85
2597.63	0.8524
2606.79	0.853
2615.96	0.854
2625.12	0.8553
2634.28	0.856
2643.45	0.856
2652.61	0.858
2661.77	0.859
2670.94	0.856
2680.1	0.855
2689.26	0.8541
2698.42	0.854
2707.59	0.8531
2716.75	0.8477
2725.91	0.8321
2735.08	0.831
2744.24	0.85
2753.4	0.852
2762.56	0.851
2771.73	0.8494
2780.89	0.8459
2790.05	0.8394
2799.22	0.8349
2808.38	0.8346
2817.54	0.8333
2826.71	0.816
2835.87	0.8058
2845.03	0.7782
2854.19	0.7195
2863.36	0.6402
2872.52	0.6651
2881.68	0.6875
2890.85	0.693
2900.01	0.692
2909.17	0.6527
2918.33	0.5513
2927.5	0.523
2936.66	0.6267
2945.82	0.6314
2954.99	0.6398
2964.15	0.646
2973.31	0.645
2982.47	0.6276
2991.64	0.622
3000.8	0.6065
3009.96	0.6
3019.13	0.5255
3028.29	0.3956
3037.45	0.3991
3046.62	0.5023
3055.78	0.4805
3064.94	0.484
3074.1	0.5443
3083.27	0.5632
3092.43	0.6277
3101.59	0.7288
3110.76	0.786
3119.92	0.8015
3129.08	0.8128
3138.24	0.8094
3147.41	0.8236
3156.57	0.8343
3165.73	0.8427
3174.9	0.8467
3184.06	0.8528
3193.22	0.854
3202.39	0.855
3211.55	0.8544
3220.71	0.8589
3229.87	0.86
3239.04	0.862
3248.2	0.862
3257.36	0.863
3266.53	0.864
3275.69	0.8651
3284.85	0.867
3294.01	0.867
3303.18	0.865
3312.34	0.864
3321.5	0.864
3330.67	0.864
3339.83	0.865
3348.99	0.867
3358.15	0.867
3367.32	0.868
3376.48	0.869
3385.64	0.87
3394.81	0.869
3403.97	0.869
3413.13	0.869
3422.3	0.87
3431.46	0.8718
3440.62	0.872
3449.78	0.8721
3458.95	0.872
3468.11	0.872
3477.27	0.874
3486.44	0.877
3495.6	0.877
3504.76	0.878
3513.92	0.881
3523.09	0.881
3532.25	0.8784
3541.41	0.878
3550.58	0.878
3559.74	0.881
3568.9	0.882
3578.06	0.886
3587.23	0.886
3596.39	0.8828
3605.55	0.881
3614.72	0.883
3623.88	0.8888
3633.04	0.8887
3642.21	0.8878
3651.37	0.892
3660.53	0.889
3669.69	0.894
3678.86	0.8921
3688.02	0.891
3697.18	0.8919
3706.35	0.8924
3715.51	0.894
3724.67	0.8965
3733.83	0.9
3743	0.902
3752.16	0.897
3761.32	0.8935
3770.49	0.8929
3779.65	0.891
3788.81	0.892
3797.98	0.8928
