Infrared Spectrum: HYDROCINNAMONITRILE
Formula: C9 H9 N
CAS: 645-59-0
State: LIQUID
Boiling point: 161-164 C AT 60 mmHg
Class: COBLENTZ
Instrument: Not specified, most likely a prism, grating, or hybrid spectrometer.
Sampling: TRANSMISSION
Path length: 0.005 CM
Resolution: 4
Origin: WYANDOTTE CHEMICALS CORP., WYANDOTTE, MICHIGAN, USA
MICROMETERS	TRANSMITTANCE
2.051	0.945
2.09055	0.931
2.1301	0.956
2.16965	0.941
2.20921	0.893
2.24876	0.9
2.28831	0.905
2.32786	0.908
2.36741	0.858
2.40696	0.822
2.44652	0.9
2.48607	0.903
2.52562	0.911
2.56517	0.933
2.60472	0.935
2.64427	0.931
2.68383	0.873
2.72338	0.813
2.76293	0.808
2.80248	0.779
2.84203	0.76
2.88158	0.813
2.92113	0.865
2.96069	0.885
3.00024	0.878
3.03979	0.901
3.07934	0.86
3.11889	0.85
3.15844	0.803
3.198	0.705
3.23755	0.287
3.2771	0.144
3.31665	0.38
3.3562	0.28
3.39575	0.134
3.43531	0.508
3.47486	0.4
3.51441	0.676
3.55396	0.807
3.59351	0.847
3.63306	0.906
3.67261	0.915
3.71217	0.918
3.75172	0.887
3.79127	0.877
3.83082	0.867
3.87037	0.9
3.90992	0.916
3.94948	0.916
3.98903	0.915
4.02858	0.93
4.06813	0.928
4.10768	0.903
4.14723	0.893
4.18679	0.897
4.22634	0.911
4.26589	0.921
4.30544	0.9
4.34499	0.883
4.38454	0.87
4.42409	0.82
4.46365	0.692
4.5032	0.142
4.54275	0.519
4.5823	0.878
4.62185	0.883
4.6614	0.918
4.70096	0.928
4.74051	0.958
4.78006	0.953
4.81961	0.968
4.85916	0.956
4.89871	0.955
4.93827	0.945
4.97782	0.931
5.01737	0.918
5.05692	0.848
5.09647	0.735
5.13602	0.637
5.17557	0.74
5.21513	0.853
5.25468	0.832
5.29423	0.757
5.33378	0.712
5.37333	0.74
5.41288	0.855
5.45244	0.835
5.49199	0.72
5.53154	0.657
5.57109	0.797
5.61064	0.825
5.65019	0.835
5.68975	0.797
5.7293	0.799
5.76885	0.83
5.8084	0.71
5.84795	0.681
5.8875	0.725
5.92705	0.744
5.96661	0.77
6.00616	0.772
6.04571	0.769
6.08526	0.707
6.12481	0.624
6.16436	0.197
6.20392	0.42
6.24347	0.506
6.28302	0.749
6.32257	0.779
6.36212	0.759
6.40167	0.734
6.44123	0.759
6.48078	0.765
6.52033	0.727
6.55988	0.604
6.59943	0.229
6.63898	0.049
6.67853	0.426
6.71809	0.551
6.75764	0.408
6.79719	0.172
6.83674	0.028
6.87629	0.117
6.91584	0.169
6.9554	0.041
6.99495	0.074
7.0345	0.37
7.07405	0.529
7.1136	0.568
7.15315	0.574
7.19271	0.634
7.23226	0.677
7.27181	0.674
7.31136	0.591
7.35091	0.519
7.39046	0.392
7.43002	0.313
7.46957	0.465
7.50912	0.607
7.54867	0.637
7.58822	0.621
7.62777	0.652
7.66732	0.7
7.70688	0.674
7.74643	0.651
7.78598	0.671
7.82553	0.681
7.86508	0.669
7.90463	0.671
7.94419	0.702
7.98374	0.724
8.02329	0.72
8.06284	0.691
8.10239	0.578
8.14194	0.451
8.1815	0.549
8.22105	0.662
8.2606	0.651
8.30015	0.646
8.3397	0.629
8.37925	0.563
8.4188	0.519
8.45836	0.529
8.49791	0.594
8.53746	0.634
8.57701	0.576
8.61656	0.559
8.65611	0.654
8.69567	0.692
8.73522	0.709
8.77477	0.725
8.81432	0.729
8.85387	0.7
8.89342	0.619
8.93298	0.563
8.97253	0.566
9.01208	0.632
9.05163	0.669
9.09118	0.676
9.13073	0.588
9.17028	0.335
9.20984	0.068
9.24939	0.272
9.28894	0.596
9.32849	0.676
9.36804	0.719
9.40759	0.729
9.44715	0.722
9.4867	0.705
9.52625	0.697
9.5658	0.654
9.60535	0.491
9.6449	0.176
9.68446	0.274
9.72401	0.528
9.76356	0.609
9.80311	0.621
9.84266	0.596
9.88221	0.579
9.92176	0.524
9.96132	0.566
10.0009	0.551
10.0404	0.513
10.08	0.485
10.1195	0.476
10.1591	0.456
10.1986	0.436
10.2382	0.463
10.2777	0.546
10.3173	0.632
10.3568	0.679
10.3964	0.729
10.4359	0.744
10.4755	0.747
10.515	0.74
10.5546	0.712
10.5941	0.662
10.6337	0.601
10.6732	0.556
10.7128	0.436
10.7523	0.348
10.7919	0.481
10.8315	0.593
10.871	0.619
10.9106	0.617
10.9501	0.571
10.9897	0.463
11.0292	0.397
11.0688	0.478
11.1083	0.619
11.1479	0.697
11.1874	0.74
11.227	0.767
11.2665	0.77
11.3061	0.779
11.3456	0.785
11.3852	0.792
11.4247	0.799
11.4643	0.805
11.5038	0.802
11.5434	0.799
11.5829	0.79
11.6225	0.775
11.662	0.745
11.7016	0.714
11.7411	0.676
11.7807	0.659
11.8202	0.656
11.8598	0.684
11.8993	0.714
11.9389	0.749
11.9784	0.757
12.018	0.752
12.0575	0.735
12.0971	0.692
12.1367	0.659
12.1762	0.629
12.2158	0.641
12.2553	0.662
12.2949	0.689
12.3344	0.694
12.374	0.696
12.4135	0.692
12.4531	0.7
12.4926	0.705
12.5322	0.7
12.5717	0.687
12.6113	0.666
12.6508	0.639
12.6904	0.602
12.7299	0.563
12.7695	0.506
12.809	0.435
12.8486	0.352
12.8881	0.275
12.9277	0.182
12.9672	0.109
13.0068	0.059
13.0463	0.038
13.0859	0.033
13.1254	0.033
13.165	0.033
13.2045	0.033
13.2441	0.033
13.2836	0.033
13.3232	0.033
13.3628	0.033
13.4023	0.033
13.4419	0.034
13.4814	0.034
13.521	0.036
13.5605	0.041
13.6001	0.043
13.6396	0.046
13.6792	0.049
13.7187	0.054
13.7583	0.064
13.7978	0.081
13.8374	0.106
13.8769	0.132
13.9165	0.159
13.956	0.172
13.9956	0.179
14.0351	0.157
14.0747	0.129
14.1142	0.091
14.1538	0.071
14.1933	0.064
14.2329	0.061
14.2724	0.063
14.312	0.066
14.3515	0.071
14.3911	0.074
14.4306	0.079
14.4702	0.111
14.5097	0.172
14.5493	0.265
14.5889	0.353
14.6284	0.446
14.668	0.495
14.7075	0.521
14.7471	0.533
14.7866	0.534
14.8262	0.526
14.8657	0.518
14.9053	0.523
14.9448	0.543
14.9844	0.579
15.0239	0.642
15.0635	0.702
15.103	0.719
15.1426	0.735
15.1821	0.749
15.2217	0.759
15.2612	0.764
15.3008	0.769
15.3403	0.767
15.3799	0.774
15.4194	0.775
15.459	0.772
15.4985	0.765
15.5381	0.762
15.5776	0.762
15.6172	0.762
15.6567	0.76
15.6963	0.76
15.7358	0.75
15.7754	0.749
15.815	0.752
15.8545	0.74
15.8941	0.732
15.9336	0.739
15.9732	0.734
16.0127	0.734
