Infrared Spectrum: 2-HEXENAL, 2-ETHYL-
Formula: C8 H14 O
CAS: 645-62-5
State: LIQUID (NEAT)
Class: COBLENTZ III
Instrument: BECKMAN IR-4 (HYBRID PRISM-GRATING)
Sampling: TRANSMISSION
Path length: 0.002 CM
Resolution: 4
Origin: UNIVERSITY OF FLORIDA
MICROMETERS	TRANSMITTANCE
1.019	0.79
1.05574	0.79
1.09247	0.791
1.12921	0.793
1.16595	0.797
1.20268	0.799
1.23942	0.8
1.27616	0.801
1.31289	0.803
1.34963	0.804
1.38637	0.804
1.42311	0.804
1.45984	0.804
1.49658	0.806
1.53332	0.8
1.57005	0.799
1.60679	0.803
1.64353	0.809
1.68026	0.812
1.717	0.813
1.75374	0.819
1.79047	0.82
1.82721	0.823
1.86395	0.823
1.90068	0.823
1.93742	0.824
1.97416	0.824
2.0109	0.825
2.04763	0.825
2.08437	0.822
2.12111	0.814
2.15784	0.81
2.19458	0.8
2.23132	0.771
2.26805	0.762
2.30479	0.776
2.34153	0.79
2.37826	0.796
2.415	0.799
2.45174	0.799
2.48847	0.801
2.52521	0.811
2.56195	0.821
2.59869	0.822
2.63542	0.819
2.67216	0.812
2.7089	0.806
2.74563	0.798
2.78237	0.798
2.81911	0.796
2.85584	0.786
2.89258	0.79
2.92932	0.792
2.96605	0.791
3.00279	0.773
3.03953	0.687
3.07626	0.761
3.113	0.77
3.14974	0.766
3.18648	0.76
3.22321	0.741
3.25995	0.739
3.29669	0.705
3.33342	0.616
3.37016	0.019
3.4069	0.012
3.44363	0.107
3.48037	0.055
3.51711	0.26
3.55384	0.211
3.59058	0.375
3.62732	0.475
3.66405	0.391
3.70079	0.306
3.73753	0.593
3.77427	0.731
3.811	0.782
3.84774	0.793
3.88448	0.801
3.92121	0.805
3.95795	0.807
3.99469	0.811
4.03142	0.812
4.06816	0.812
4.1049	0.806
4.14163	0.801
4.17837	0.806
4.21511	0.812
4.25184	0.82
4.28858	0.822
4.32532	0.822
4.36206	0.821
4.39879	0.82
4.43553	0.82
4.47227	0.822
4.509	0.821
4.54574	0.819
4.58248	0.814
4.61921	0.815
4.65595	0.814
4.69269	0.813
4.72942	0.82
4.76616	0.821
4.8029	0.821
4.83963	0.814
4.87637	0.813
4.91311	0.811
4.94985	0.81
4.98658	0.806
5.02332	0.802
5.06006	0.803
5.09679	0.809
5.13353	0.815
5.17027	0.814
5.207	0.808
5.24374	0.803
5.28048	0.802
5.31721	0.8
5.35395	0.794
5.39069	0.789
5.42742	0.785
5.46416	0.78
5.5009	0.776
5.53764	0.759
5.57437	0.737
5.61111	0.717
5.64785	0.688
5.68458	0.661
5.72132	0.601
5.75806	0.519
5.79479	0.441
5.83153	0.326
5.86827	0.057
5.905	0.002
5.94174	0.002
5.97848	0.056
6.01521	0.211
6.05195	0.097
6.08869	0.034
6.12543	0.28
6.16216	0.449
6.1989	0.572
6.23564	0.66
6.27237	0.7
6.30911	0.703
6.34585	0.707
6.38258	0.713
6.41932	0.721
6.45606	0.729
6.49279	0.731
6.52953	0.732
6.56627	0.726
6.603	0.723
6.63974	0.71
6.67648	0.694
6.71322	0.661
6.74995	0.596
6.78669	0.305
6.82343	0.047
6.86016	0.109
6.8969	0.179
6.93364	0.305
6.97037	0.402
7.00711	0.457
7.04385	0.515
7.08058	0.507
7.11732	0.369
7.15406	0.4
7.19079	0.49
7.22753	0.317
7.26427	0.199
7.30101	0.306
7.33774	0.374
7.37448	0.541
7.41122	0.611
7.44795	0.579
7.48469	0.511
7.52143	0.541
7.55816	0.609
7.5949	0.645
7.63164	0.633
7.66837	0.644
7.70511	0.649
7.74185	0.626
7.77858	0.515
7.81532	0.321
7.85206	0.376
7.8888	0.543
7.92553	0.588
7.96227	0.594
7.99901	0.593
8.03574	0.552
8.07248	0.445
8.10922	0.358
8.14595	0.394
8.18269	0.473
8.21943	0.509
8.25616	0.439
8.2929	0.2
8.32964	0.138
8.36637	0.205
8.40311	0.286
8.43985	0.432
8.47658	0.565
8.51332	0.646
8.55006	0.683
8.5868	0.695
8.62353	0.698
8.66027	0.691
8.69701	0.688
8.73374	0.688
8.77048	0.695
8.80722	0.697
8.84395	0.698
8.88069	0.694
8.91743	0.687
8.95416	0.656
8.9909	0.619
9.02764	0.617
9.06437	0.631
9.10111	0.625
9.13785	0.594
9.17459	0.498
9.21132	0.342
9.24806	0.083
9.2848	0.093
9.32153	0.223
9.35827	0.311
9.39501	0.192
9.43174	0.051
9.46848	0.161
9.50522	0.324
9.54195	0.446
9.57869	0.535
9.61543	0.583
9.65216	0.63
9.6889	0.669
9.72564	0.687
9.76238	0.687
9.79911	0.68
9.83585	0.656
9.87259	0.617
9.90932	0.576
9.94606	0.561
9.9828	0.551
10.0195	0.562
10.0563	0.594
10.093	0.605
10.1297	0.544
10.1665	0.448
10.2032	0.392
10.24	0.326
10.2767	0.411
10.3134	0.542
10.3502	0.639
10.3869	0.683
10.4236	0.713
10.4604	0.724
10.4971	0.735
10.5338	0.746
10.5706	0.75
10.6073	0.752
10.6441	0.753
10.6808	0.751
10.7175	0.748
10.7543	0.745
10.791	0.735
10.8277	0.724
10.8645	0.709
10.9012	0.684
10.938	0.644
10.9747	0.584
11.0114	0.485
11.0482	0.38
11.0849	0.314
11.1216	0.316
11.1584	0.37
11.1951	0.43
11.2319	0.47
11.2686	0.483
11.3053	0.513
11.3421	0.555
11.3788	0.605
11.4155	0.654
11.4523	0.682
11.489	0.697
11.5257	0.702
11.5625	0.7
11.5992	0.698
11.636	0.693
11.6727	0.684
11.7094	0.671
11.7462	0.658
11.7829	0.648
11.8196	0.639
11.8564	0.632
11.8931	0.629
11.9299	0.622
11.9666	0.618
12.0033	0.616
12.0401	0.618
12.0768	0.619
12.1135	0.62
12.1503	0.621
12.187	0.62
12.2237	0.614
12.2605	0.605
12.2972	0.587
12.334	0.555
12.3707	0.515
12.4074	0.456
12.4442	0.358
12.4809	0.229
12.5176	0.105
12.5544	0.089
12.5911	0.124
12.6279	0.21
12.6646	0.296
12.7013	0.353
12.7381	0.381
12.7748	0.38
12.8115	0.378
12.8483	0.379
12.885	0.38
12.9217	0.38
12.9585	0.384
12.9952	0.402
13.032	0.425
13.0687	0.44
13.1054	0.466
13.1422	0.504
13.1789	0.544
13.2156	0.571
13.2524	0.582
13.2891	0.578
13.3259	0.563
13.3626	0.56
13.3993	0.567
13.4361	0.579
13.4728	0.582
13.5095	0.581
13.5463	0.583
13.583	0.589
13.6197	0.6
13.6565	0.611
13.6932	0.626
13.73	0.643
13.7667	0.651
13.8034	0.661
13.8402	0.671
13.8769	0.678
13.9136	0.684
13.9504	0.689
13.9871	0.696
14.0239	0.698
14.0606	0.699
14.0973	0.7
14.1341	0.7
14.1708	0.7
14.2075	0.7
14.2443	0.7
14.281	0.7
14.3177	0.699
14.3545	0.697
14.3912	0.695
14.428	0.691
14.4647	0.691
14.5014	0.689
14.5382	0.688
14.5749	0.685
14.6116	0.68
14.6484	0.676
14.6851	0.671
14.7219	0.667
14.7586	0.662
14.7953	0.655
14.8321	0.648
14.8688	0.643
14.9055	0.639
14.9423	0.637
14.979	0.627
