Infrared Spectrum: HYDROCINNAMOYL CHLORIDE
Formula: C9 H9 Cl O
CAS: 645-45-4
State: LIQUID
Boiling point: 119-120 C AT 10 mmHg
Class: COBLENTZ
Instrument: Not specified, most likely a prism, grating, or hybrid spectrometer.
Sampling: TRANSMISSION
Path length: 0.003 CM
Resolution: 4
Origin: WYANDOTTE CHEMICALS CORP., WYANDOTTE, MICHIGAN, USA
MICROMETERS	TRANSMITTANCE
2.041	0.967
2.08186	0.962
2.12271	0.965
2.16357	0.96
2.20442	0.952
2.24528	0.931
2.28613	0.948
2.32699	0.945
2.36784	0.919
2.4087	0.935
2.44956	0.936
2.49041	0.936
2.53127	0.943
2.57212	0.948
2.61298	0.962
2.65383	0.952
2.69469	0.938
2.73554	0.906
2.7764	0.87
2.81726	0.914
2.85811	0.906
2.89897	0.899
2.93982	0.894
2.98068	0.899
3.02153	0.855
3.06239	0.816
3.10325	0.77
3.1441	0.737
3.18496	0.671
3.22581	0.458
3.26667	0.335
3.30752	0.54
3.34838	0.461
3.38923	0.378
3.43009	0.558
3.47095	0.57
3.5118	0.696
3.55266	0.727
3.59351	0.739
3.63437	0.746
3.67522	0.764
3.71608	0.759
3.75693	0.759
3.79779	0.77
3.83865	0.775
3.8795	0.792
3.92036	0.812
3.96121	0.816
4.00207	0.838
4.04292	0.848
4.08378	0.858
4.12463	0.856
4.16549	0.868
4.20635	0.867
4.2472	0.897
4.28806	0.902
4.32891	0.904
4.36977	0.88
4.41062	0.889
4.45148	0.899
4.49233	0.897
4.53319	0.879
4.57405	0.899
4.6149	0.899
4.65576	0.914
4.69661	0.908
4.73747	0.918
4.77832	0.914
4.81918	0.918
4.86004	0.909
4.90089	0.916
4.94175	0.908
4.9826	0.908
5.02346	0.889
5.06431	0.863
5.10517	0.831
5.14602	0.773
5.18688	0.761
5.22774	0.778
5.26859	0.713
5.30945	0.678
5.3503	0.614
5.39116	0.558
5.43201	0.49
5.47287	0.294
5.51372	0.044
5.55458	0.042
5.59544	0.044
5.63629	0.076
5.67715	0.284
5.718	0.386
5.75886	0.454
5.79971	0.264
5.84057	0.182
5.88142	0.54
5.92228	0.662
5.96314	0.725
6.00399	0.751
6.04485	0.778
6.0857	0.79
6.12656	0.775
6.16741	0.591
6.20827	0.618
6.24913	0.696
6.28998	0.807
6.33084	0.838
6.37169	0.827
6.41255	0.816
6.4534	0.8
6.49426	0.812
6.53511	0.809
6.57597	0.717
6.61683	0.367
6.65768	0.41
6.69854	0.7
6.73939	0.73
6.78025	0.669
6.8211	0.289
6.86196	0.27
6.90281	0.386
6.94367	0.47
6.98453	0.444
7.02538	0.436
7.06624	0.327
7.10709	0.201
7.14795	0.402
7.1888	0.55
7.22966	0.647
7.27051	0.642
7.31137	0.599
7.35223	0.562
7.39308	0.597
7.43394	0.584
7.47479	0.57
7.51565	0.62
7.5565	0.632
7.59736	0.608
7.63821	0.568
7.67907	0.531
7.71993	0.509
7.76078	0.473
7.80164	0.441
7.84249	0.436
7.88335	0.448
7.9242	0.48
7.96506	0.534
8.00592	0.577
8.04677	0.613
8.08763	0.632
8.12848	0.62
8.16934	0.574
8.21019	0.54
8.25105	0.546
8.2919	0.579
8.33276	0.541
8.37362	0.495
8.41447	0.494
8.45533	0.439
8.49618	0.444
8.53704	0.516
8.57789	0.582
8.61875	0.577
8.6596	0.611
8.70046	0.666
8.74132	0.683
8.78217	0.7
8.82303	0.696
8.86388	0.706
8.90474	0.7
8.94559	0.698
8.98645	0.688
9.0273	0.713
9.06816	0.706
9.10902	0.679
9.14987	0.638
9.19073	0.524
9.23158	0.369
9.27244	0.451
9.31329	0.529
9.35415	0.531
9.395	0.48
9.43586	0.395
9.47672	0.323
9.51757	0.235
9.55843	0.131
9.59928	0.091
9.64014	0.088
9.68099	0.08
9.72185	0.093
9.76271	0.139
9.80356	0.223
9.84442	0.321
9.88527	0.398
9.92613	0.378
9.96698	0.345
10.0078	0.359
10.0487	0.349
10.0895	0.308
10.1304	0.27
10.1713	0.235
10.2121	0.195
10.253	0.175
10.2938	0.144
10.3347	0.112
10.3755	0.074
10.4164	0.052
10.4573	0.052
10.4981	0.056
10.539	0.091
10.5798	0.141
10.6207	0.214
10.6615	0.257
10.7024	0.291
10.7432	0.308
10.7841	0.316
10.825	0.318
10.8658	0.282
10.9067	0.216
10.9475	0.16
10.9884	0.143
11.0292	0.161
11.0701	0.24
11.1109	0.311
11.1518	0.339
11.1927	0.303
11.2335	0.262
11.2744	0.245
11.3152	0.269
11.3561	0.318
11.3969	0.386
11.4378	0.41
11.4786	0.402
11.5195	0.361
11.5604	0.366
11.6012	0.4
11.6421	0.456
11.6829	0.507
11.7238	0.548
11.7646	0.545
11.8055	0.509
11.8463	0.427
11.8872	0.356
11.9281	0.323
11.9689	0.345
12.0098	0.402
12.0506	0.485
12.0915	0.545
12.1323	0.591
12.1732	0.625
12.214	0.657
12.2549	0.706
12.2958	0.718
12.3366	0.72
12.3775	0.717
12.4183	0.71
12.4592	0.727
12.5	0.747
12.5409	0.761
12.5817	0.758
12.6226	0.747
12.6635	0.727
12.7043	0.698
12.7452	0.667
12.786	0.637
12.8269	0.603
12.8677	0.56
12.9086	0.509
12.9494	0.434
12.9903	0.374
13.0312	0.304
13.072	0.262
13.1129	0.264
13.1537	0.265
13.1946	0.245
13.2354	0.201
13.2763	0.149
13.3171	0.134
13.358	0.122
13.3989	0.141
13.4397	0.149
13.4806	0.172
13.5214	0.199
13.5623	0.229
13.6031	0.229
13.644	0.243
13.6848	0.233
13.7257	0.207
13.7666	0.151
13.8074	0.127
13.8483	0.093
13.8891	0.097
13.93	0.097
13.9708	0.097
14.0117	0.102
14.0525	0.115
14.0934	0.139
14.1343	0.149
14.1751	0.163
14.216	0.166
14.2568	0.143
14.2977	0.134
14.3385	0.122
14.3794	0.131
14.4202	0.139
14.4611	0.158
14.502	0.209
14.5428	0.241
14.5837	0.279
14.6245	0.282
14.6654	0.275
14.7062	0.279
14.7471	0.299
14.7879	0.323
14.8288	0.359
14.8697	0.388
14.9105	0.429
14.9514	0.458
14.9922	0.505
15.0331	0.541
15.0739	0.567
15.1148	0.553
15.1556	0.56
15.1965	0.587
15.2374	0.632
15.2782	0.649
15.3191	0.669
15.3599	0.672
15.4008	0.676
15.4416	0.688
15.4825	0.691
15.5233	0.689
15.5642	0.689
15.6051	0.698
15.6459	0.689
15.6868	0.701
15.7276	0.698
15.7685	0.706
15.8093	0.698
15.8502	0.698
15.891	0.693
15.9319	0.706
15.9728	0.698
