Infrared Spectrum: 2-Pentene, trans-
Formula: C5 H10
CAS: 646-04-8
State: GAS (60 mmHg, N2 ADDED, TOTAL PRESSURE 600 mmHg)
Class: COBLENTZ
Instrument: DOW KBr FOREPRISM-GRATING
Instrument parameters: GRATING CHANGED AT 5.0, 7.5, 15.0 MICRON
Sampling: TRANSMISSION
Path length: 5 CM
Resolution: 2
Origin: DOW CHEMICAL COMPANY
1/CM	TRANSMITTANCE
459	0.8628
468	0.8624
477	0.8592
486	0.856
495	0.8543
504	0.8537
513	0.8533
522	0.8539
531	0.8545
540	0.8561
549	0.8576
558	0.8593
567	0.8618
576	0.8649
585	0.8686
594	0.8713
603	0.8738
612	0.8763
621	0.8779
630	0.8792
639	0.8796
648	0.8786
657	0.8781
666	0.8809
675	0.8772
684	0.8776
693	0.8779
702	0.876
711	0.8737
720	0.8703
729	0.8666
738	0.8606
747	0.8553
756	0.8547
765	0.8594
774	0.8645
783	0.8547
792	0.8451
801	0.8389
810	0.8403
819	0.8489
828	0.8544
837	0.8536
846	0.8521
855	0.8446
864	0.8341
873	0.8276
882	0.8265
891	0.8284
900	0.829
909	0.8212
918	0.7793
927	0.6868
936	0.4669
945	0.2841
954	0.1999
963	0.1954
972	0.1741
981	0.3025
990	0.4605
999	0.6551
1008	0.7166
1017	0.7463
1026	0.7772
1035	0.8108
1044	0.8057
1053	0.7892
1062	0.7599
1071	0.7242
1080	0.7226
1089	0.7387
1098	0.7889
1107	0.8313
1116	0.8535
1125	0.8597
1134	0.8612
1143	0.8567
1152	0.8549
1161	0.8579
1170	0.86
1179	0.8602
1188	0.8696
1197	0.8675
1206	0.8605
1215	0.8529
1224	0.8465
1233	0.8433
1242	0.8406
1251	0.8413
1260	0.8398
1269	0.8286
1278	0.8005
1287	0.6984
1296	0.6861
1305	0.697
1314	0.7669
1323	0.7849
1332	0.7677
1341	0.7422
1350	0.7219
1359	0.664
1368	0.6174
1377	0.5693
1386	0.5518
1395	0.5751
1404	0.6558
1413	0.6981
1422	0.6634
1431	0.5794
1440	0.4632
1449	0.3977
1458	0.3498
1467	0.3555
1476	0.4292
1485	0.5366
1494	0.645
1503	0.7403
1512	0.787
1521	0.8137
1530	0.8223
1539	0.8215
1548	0.831
1557	0.8302
1566	0.8419
1575	0.8402
1584	0.8497
1593	0.8506
1602	0.8473
1611	0.8433
1620	0.8396
1629	0.8365
1638	0.8374
1647	0.8286
1656	0.8306
1665	0.8232
1674	0.8174
1683	0.813
1692	0.8237
1701	0.8147
1710	0.8038
1719	0.798
1728	0.8235
1737	0.8313
1746	0.824
1755	0.8137
1764	0.8112
1773	0.8163
1782	0.8325
1791	0.8356
1800	0.8433
1809	0.8516
1818	0.8549
1827	0.8483
1836	0.8449
1845	0.845
1854	0.8471
1863	0.8499
1872	0.8532
1881	0.8574
1890	0.8606
1899	0.8619
1908	0.8627
1917	0.8626
1926	0.8617
1935	0.8595
1944	0.8593
1953	0.8593
1962	0.8596
1971	0.8578
1980	0.8559
1989	0.8525
1998	0.8498
2007	0.8515
2016	0.8565
2025	0.8629
2034	0.8652
2043	0.8657
2052	0.8663
2061	0.867
2070	0.8675
2079	0.8678
2088	0.8682
2097	0.8683
2106	0.8684
2115	0.8685
2124	0.8683
2133	0.868
2142	0.8678
2151	0.8677
2160	0.8677
2169	0.8677
2178	0.8677
2187	0.8677
2196	0.8678
2205	0.8679
2214	0.868
2223	0.8678
2232	0.8669
2241	0.866
2250	0.8642
2259	0.8652
2268	0.8668
2277	0.8691
2286	0.8699
2295	0.8695
2304	0.8681
2313	0.8657
2322	0.8629
2331	0.8602
2340	0.8608
2349	0.8655
2358	0.8689
2367	0.8661
2376	0.8618
2385	0.856
2394	0.8525
2403	0.8543
2412	0.861
2421	0.868
2430	0.869
2439	0.868
2448	0.8666
2457	0.8654
2466	0.8655
2475	0.8662
2484	0.8676
2493	0.8689
2502	0.869
2511	0.8673
2520	0.8649
2529	0.8631
2538	0.8639
2547	0.8679
2556	0.8688
2565	0.8685
2574	0.8667
2583	0.8628
2592	0.8595
2601	0.857
2610	0.8575
2619	0.8583
2628	0.8625
2637	0.8656
2646	0.8644
2655	0.8618
2664	0.859
2673	0.8559
2682	0.8528
2691	0.8492
2700	0.8446
2709	0.8381
2718	0.8232
2727	0.7961
2736	0.7664
2745	0.7605
2754	0.7861
2763	0.8162
2772	0.8115
2781	0.8039
2790	0.7957
2799	0.7863
2808	0.7737
2817	0.7508
2826	0.6888
2835	0.6181
2844	0.5257
2853	0.3563
2862	0.1495
2871	0.108
2880	0.0861
2889	0.0818
2898	0.088
2907	0.0865
2916	0.0725
2925	0.0377
2934	0.023
2943	0.0191
2952	0.0148
2961	0.0098
2970	0.0099
2979	0.0186
2988	0.055
2997	0.1369
3006	0.2326
3015	0.309
3024	0.3213
3033	0.3345
3042	0.3839
3051	0.5478
3060	0.645
3069	0.7012
3078	0.7691
3087	0.798
3096	0.8039
3105	0.8036
3114	0.7993
3123	0.7961
3132	0.7959
3141	0.7978
3150	0.7999
3159	0.8024
3168	0.8073
3177	0.8212
3186	0.8371
3195	0.8509
3204	0.8599
3213	0.8637
3222	0.8657
3231	0.8667
3240	0.8677
3249	0.8688
3258	0.8698
3267	0.8724
3276	0.8764
3285	0.8796
3294	0.8809
3303	0.8806
3312	0.8802
3321	0.8796
3330	0.8789
3339	0.8776
3348	0.8764
3357	0.8752
3366	0.8743
3375	0.8735
3384	0.8738
3393	0.8751
3402	0.8776
3411	0.8773
3420	0.8768
3429	0.8769
3438	0.8772
3447	0.8771
3456	0.8774
3465	0.8784
3474	0.8793
3483	0.8803
3492	0.8812
3501	0.8817
3510	0.8822
3519	0.8831
3528	0.8839
3537	0.8845
3546	0.8846
3555	0.8848
3564	0.8852
3573	0.8846
3582	0.884
3591	0.8827
3600	0.8814
3609	0.8805
3618	0.8798
3627	0.879
3636	0.878
3645	0.8767
3654	0.8753
3663	0.8732
3672	0.8743
3681	0.8766
3690	0.8781
3699	0.8776
3708	0.8771
3717	0.8767
3726	0.8775
3735	0.8797
3744	0.8809
3753	0.8808
3762	0.8809
3771	0.8791
3780	0.8761
3789	0.8761
