Infrared Spectrum: PIMELONITRILE
Formula: C7 H10 N2
CAS: 646-20-8
State: LIQUID
Melting point: 135-137 C AT 4 mmHg
Class: COBLENTZ
Instrument: Not specified, most likely a prism, grating, or hybrid spectrometer.
Sampling: TRANSMISSION
Path length: 0.005 CM
Resolution: 4
Origin: WYANDOTTE CHEMICALS CORP., WYANDOTTE, MICHIGAN, USA
MICROMETERS	TRANSMITTANCE
2.056	0.972
2.09478	0.967
2.13356	0.966
2.17234	0.938
2.21112	0.764
2.2499	0.838
2.28868	0.829
2.32746	0.867
2.36624	0.898
2.40502	0.875
2.4438	0.851
2.48258	0.883
2.52136	0.898
2.56014	0.903
2.59891	0.908
2.63769	0.908
2.67647	0.88
2.71525	0.729
2.75403	0.611
2.79281	0.637
2.83159	0.619
2.87037	0.672
2.90915	0.793
2.94793	0.85
2.98671	0.861
3.02549	0.859
3.06427	0.841
3.10305	0.819
3.14183	0.777
3.18061	0.73
3.21939	0.74
3.25817	0.679
3.29695	0.606
3.33573	0.233
3.37451	0.012
3.41329	0.024
3.45207	0.085
3.49085	0.043
3.52963	0.259
3.56841	0.595
3.60718	0.711
3.64596	0.75
3.68474	0.77
3.72352	0.762
3.7623	0.756
3.80108	0.762
3.83986	0.767
3.87864	0.804
3.91742	0.816
3.9562	0.824
3.99498	0.811
4.03376	0.812
4.07254	0.829
4.11132	0.833
4.1501	0.832
4.18888	0.832
4.22766	0.812
4.26644	0.817
4.30522	0.816
4.344	0.808
4.38278	0.795
4.42156	0.711
4.46034	0.496
4.49912	0.28
4.5379	0.137
4.57668	0.5
4.61545	0.745
4.65423	0.767
4.69301	0.806
4.73179	0.816
4.77057	0.867
4.80935	0.87
4.84813	0.869
4.88691	0.866
4.92569	0.85
4.96447	0.846
5.00325	0.846
5.04203	0.858
5.08081	0.853
5.11959	0.867
5.15837	0.867
5.19715	0.875
5.23593	0.87
5.27471	0.867
5.31349	0.869
5.35227	0.867
5.39105	0.869
5.42983	0.867
5.46861	0.864
5.50739	0.859
5.54617	0.845
5.58495	0.85
5.62373	0.858
5.6625	0.866
5.70128	0.864
5.74006	0.858
5.77884	0.841
5.81762	0.833
5.8564	0.835
5.89518	0.796
5.93396	0.779
5.97274	0.782
6.01152	0.767
6.0503	0.69
6.08908	0.637
6.12786	0.64
6.16664	0.698
6.20542	0.74
6.2442	0.764
6.28298	0.769
6.32176	0.777
6.36054	0.782
6.39932	0.766
6.4381	0.756
6.47688	0.735
6.51566	0.729
6.55444	0.716
6.59322	0.69
6.632	0.658
6.67077	0.617
6.70955	0.511
6.74833	0.267
6.78711	0.014
6.82589	0.029
6.86467	0.051
6.90345	0.082
6.94223	0.037
6.98101	0.02
7.01979	0.051
7.05857	0.235
7.09735	0.429
7.13613	0.498
7.17491	0.53
7.21369	0.456
7.25247	0.432
7.29125	0.42
7.33003	0.319
7.36881	0.237
7.40759	0.303
7.44637	0.254
7.48515	0.222
7.52393	0.33
7.56271	0.44
7.60149	0.45
7.64027	0.44
7.67904	0.487
7.71782	0.503
7.7566	0.572
7.79538	0.608
7.83416	0.566
7.87294	0.509
7.91172	0.516
7.9505	0.55
7.98928	0.535
8.02806	0.512
8.06684	0.551
8.10562	0.562
8.1444	0.617
8.18318	0.635
8.22196	0.603
8.26074	0.582
8.29952	0.619
8.3383	0.646
8.37708	0.654
8.41586	0.667
8.45464	0.683
8.49342	0.704
8.5322	0.695
8.57098	0.677
8.60976	0.661
8.64854	0.661
8.68732	0.679
8.72609	0.696
8.76487	0.698
8.80365	0.708
8.84243	0.717
8.88121	0.714
8.91999	0.712
8.95877	0.704
8.99755	0.69
9.03633	0.67
9.07511	0.609
9.11389	0.524
9.15267	0.553
9.19145	0.617
9.23023	0.63
9.26901	0.593
9.30779	0.514
9.34657	0.545
9.38535	0.612
9.42413	0.65
9.46291	0.691
9.50169	0.724
9.54047	0.737
9.57925	0.743
9.61803	0.724
9.65681	0.685
9.69559	0.674
9.73436	0.672
9.77314	0.675
9.81192	0.687
9.8507	0.701
9.88948	0.738
9.92826	0.762
9.96704	0.772
10.0058	0.775
10.0446	0.761
10.0834	0.746
10.1222	0.733
10.1609	0.725
10.1997	0.73
10.2385	0.743
10.2773	0.75
10.3161	0.754
10.3548	0.745
10.3936	0.73
10.4324	0.716
10.4712	0.687
10.51	0.662
10.5487	0.648
10.5875	0.645
10.6263	0.643
10.6651	0.619
10.7039	0.58
10.7426	0.567
10.7814	0.558
10.8202	0.559
10.859	0.548
10.8978	0.556
10.9365	0.612
10.9753	0.67
11.0141	0.704
11.0529	0.725
11.0917	0.743
11.1304	0.748
11.1692	0.743
11.208	0.729
11.2468	0.722
11.2855	0.708
11.3243	0.68
11.3631	0.656
11.4019	0.641
11.4407	0.638
11.4794	0.645
11.5182	0.643
11.557	0.633
11.5958	0.617
11.6346	0.583
11.6733	0.566
11.7121	0.559
11.7509	0.55
11.7897	0.54
11.8285	0.551
11.8672	0.561
11.906	0.588
11.9448	0.612
11.9836	0.622
12.0224	0.632
12.0611	0.629
12.0999	0.627
12.1387	0.629
12.1775	0.635
12.2163	0.651
12.255	0.666
12.2938	0.691
12.3326	0.711
12.3714	0.732
12.4102	0.724
12.4489	0.727
12.4877	0.727
12.5265	0.724
12.5653	0.709
12.6041	0.691
12.6428	0.68
12.6816	0.675
12.7204	0.669
12.7592	0.662
12.798	0.656
12.8367	0.641
12.8755	0.625
12.9143	0.6
12.9531	0.58
12.9919	0.562
13.0306	0.54
13.0694	0.519
13.1082	0.501
13.147	0.474
13.1858	0.448
13.2245	0.425
13.2633	0.417
13.3021	0.419
13.3409	0.427
13.3796	0.427
13.4184	0.424
13.4572	0.401
13.496	0.38
13.5348	0.351
13.5735	0.32
13.6123	0.291
13.6511	0.243
13.6899	0.222
13.7287	0.212
13.7674	0.22
13.8062	0.27
13.845	0.348
13.8838	0.441
13.9226	0.509
13.9613	0.57
14.0001	0.611
14.0389	0.646
14.0777	0.667
14.1165	0.691
14.1552	0.706
14.194	0.72
14.2328	0.727
14.2716	0.733
14.3104	0.738
14.3491	0.743
14.3879	0.748
14.4267	0.75
14.4655	0.748
14.5043	0.75
14.543	0.754
14.5818	0.753
14.6206	0.753
14.6594	0.753
14.6982	0.758
14.7369	0.753
14.7757	0.751
14.8145	0.75
14.8533	0.751
14.8921	0.751
14.9308	0.743
14.9696	0.733
15.0084	0.719
15.0472	0.704
15.086	0.727
15.1247	0.725
15.1635	0.73
15.2023	0.732
15.2411	0.727
15.2799	0.729
15.3186	0.732
15.3574	0.724
15.3962	0.719
15.435	0.717
15.4737	0.716
15.5125	0.714
15.5513	0.712
15.5901	0.709
15.6289	0.701
15.6676	0.698
15.7064	0.698
15.7452	0.695
15.784	0.696
15.8228	0.688
15.8615	0.685
15.9003	0.68
15.9391	0.682
15.9779	0.68
