Infrared Spectrum: Aniline, 2-tert-butyl-6-chloro-
Formula: C10 H14 Cl N
CAS: 64985-31-5
State: LIQUID (NEAT)
Class: COBLENTZ III
Instrument: BECKMAN IR-4 (HYBRID PRISM-GRATING)
Instrument parameters: NaCl PRISM
Sampling: TRANSMISSION
Path length: CAPILLARY
Resolution: 2
Origin: MONSANTO (J. FREEMAN)
1/CM	TRANSMITTANCE
625.36	0.7203
634.107	0.709
642.853	0.6942
651.6	0.6899
660.346	0.6966
669.093	0.6995
677.84	0.7124
686.586	0.7245
695.333	0.737
704.08	0.7427
712.826	0.691
721.573	0.4763
730.319	0.2378
739.066	0.3121
747.813	0.413
756.559	0.6449
765.306	0.5647
774.053	0.3748
782.799	0.7542
791.546	0.8069
800.292	0.8001
809.039	0.635
817.786	0.5706
826.532	0.7069
835.279	0.8093
844.025	0.7993
852.772	0.6286
861.519	0.8175
870.265	0.7558
879.012	0.713
887.759	0.841
896.505	0.8629
905.252	0.8875
913.998	0.8908
922.745	0.8588
931.492	0.8206
940.238	0.8739
948.985	0.8444
957.731	0.8916
966.478	0.9167
975.225	0.9221
983.971	0.925
992.718	0.9255
1001.46	0.9198
1010.21	0.9009
1018.96	0.8562
1027.7	0.8575
1036.45	0.7962
1045.2	0.6438
1053.94	0.5177
1062.69	0.412
1071.44	0.4436
1080.18	0.4477
1088.93	0.5472
1097.68	0.6348
1106.42	0.8122
1115.17	0.8383
1123.92	0.7739
1132.66	0.9161
1141.41	0.9342
1150.16	0.9077
1158.9	0.8344
1167.65	0.8326
1176.4	0.9222
1185.14	0.8852
1193.89	0.7292
1202.64	0.8147
1211.38	0.9047
1220.13	0.9038
1228.88	0.8812
1237.62	0.7786
1246.37	0.5853
1255.12	0.3573
1263.86	0.3583
1272.61	0.4628
1281.36	0.737
1290.1	0.7664
1298.85	0.5984
1307.6	0.6625
1316.34	0.7298
1325.09	0.8612
1333.84	0.9275
1342.58	0.9402
1351.33	0.9149
1360.08	0.7844
1368.82	0.49
1377.57	0.8169
1386.32	0.8473
1395.06	0.6592
1403.81	0.6031
1412.56	0.7458
1421.3	0.6943
1430.05	0.4043
1438.8	0.1253
1447.54	0.2817
1456.29	0.4484
1465.04	0.3463
1473.78	0.3371
1482.53	0.4331
1491.28	0.5688
1500.02	0.6145
1508.77	0.4675
1517.52	0.5017
1526.26	0.7932
1535.01	0.8546
1543.75	0.847
1552.5	0.8179
1561.25	0.7713
1569.99	0.6698
1578.74	0.6648
1587.49	0.5816
1596.23	0.527
1604.98	0.2756
1613.73	0.139
1622.47	0.2076
1631.22	0.42
1639.97	0.63
1648.71	0.7189
1657.46	0.8592
1666.21	0.8732
1674.95	0.8833
1683.7	0.8986
1692.45	0.928
1701.19	0.9533
1709.94	0.9645
1718.69	0.9716
1727.43	0.9761
1736.18	0.9742
1744.93	0.97
1753.67	0.9655
1762.42	0.9689
1771.17	0.9706
1779.91	0.9668
1788.66	0.9576
1797.41	0.9495
1806.15	0.9545
1814.9	0.9612
1823.65	0.9591
1832.39	0.948
1841.14	0.9348
1849.89	0.9312
1858.63	0.9449
1867.38	0.956
1876.13	0.9559
1884.87	0.9475
1893.62	0.9387
1902.37	0.9316
1911.11	0.9391
1919.86	0.9536
1928.61	0.9662
1937.35	0.9717
1946.1	0.9733
1954.85	0.9743
1963.59	0.9749
1972.34	0.9754
1981.09	0.9753
1989.83	0.9749
1998.58	0.9745
2007.33	0.9743
2016.07	0.9741
2024.82	0.9739
2033.57	0.9737
2042.31	0.9734
2051.06	0.9732
2059.81	0.973
2068.55	0.9728
2077.3	0.9728
2086.05	0.9728
2094.79	0.9718
2103.54	0.9706
2112.29	0.9694
2121.03	0.9671
2129.78	0.9674
2138.52	0.9682
2147.27	0.9699
2156.02	0.9713
2164.76	0.9722
2173.51	0.9715
2182.26	0.97
2191	0.9701
2199.75	0.9711
2208.5	0.9717
2217.24	0.9719
2225.99	0.9715
2234.74	0.9709
2243.48	0.9703
2252.23	0.9698
2260.98	0.9688
2269.72	0.9676
2278.47	0.9666
2287.22	0.9655
2295.96	0.9646
2304.71	0.9637
2313.46	0.9628
2322.2	0.962
2330.95	0.9616
2339.7	0.9612
2348.44	0.9613
2357.19	0.9615
2365.94	0.9618
2374.68	0.9621
2383.43	0.9625
2392.18	0.963
2400.92	0.9633
2409.67	0.9636
2418.42	0.9638
2427.16	0.9641
2435.91	0.9643
2444.66	0.9645
2453.4	0.9647
2462.15	0.9648
2470.9	0.9645
2479.64	0.9642
2488.39	0.9636
2497.14	0.9622
2505.88	0.9608
2514.63	0.9595
2523.38	0.9581
2532.12	0.9562
2540.87	0.9536
2549.62	0.9511
2558.36	0.9481
2567.11	0.9433
2575.86	0.9388
2584.6	0.9364
2593.35	0.9365
2602.1	0.9366
2610.84	0.9372
2619.59	0.9381
2628.34	0.9396
2637.08	0.9448
2645.83	0.9476
2654.58	0.9477
2663.32	0.9477
2672.07	0.9475
2680.82	0.9469
2689.56	0.9464
2698.31	0.9453
2707.06	0.9441
2715.8	0.9423
2724.55	0.9398
2733.3	0.936
2742.04	0.9329
2750.79	0.9318
2759.53	0.9325
2768.28	0.9333
2777.03	0.9345
2785.77	0.9353
2794.52	0.9352
2803.27	0.9326
2812.01	0.9235
2820.76	0.9095
2829.51	0.8958
2838.25	0.88
2847	0.859
2855.75	0.8146
2864.49	0.7906
2873.24	0.7529
2881.99	0.6417
2890.73	0.5293
2899.48	0.4872
2908.23	0.4813
2916.97	0.4679
2925.72	0.4504
2934.47	0.4316
2943.21	0.4127
2951.96	0.3382
2960.71	0.2416
2969.45	0.2015
2978.2	0.2557
2986.95	0.3342
2995.69	0.4122
3004.44	0.4897
3013.19	0.5668
3021.93	0.6435
3030.68	0.7196
3039.43	0.7965
3048.17	0.8157
3056.92	0.8195
3065.67	0.8171
3074.41	0.8048
3083.16	0.7925
3091.91	0.7852
3100.65	0.7937
3109.4	0.8274
3118.15	0.863
3126.89	0.8893
3135.64	0.8932
3144.39	0.8946
3153.13	0.894
3161.88	0.8923
3170.63	0.8898
3179.37	0.8861
3188.12	0.8819
3196.87	0.8777
3205.61	0.8773
3214.36	0.8794
3223.11	0.8839
3231.85	0.8883
3240.6	0.8913
3249.35	0.893
3258.09	0.8941
3266.84	0.8935
3275.59	0.8916
3284.33	0.8889
3293.08	0.8848
3301.83	0.8793
3310.57	0.8729
3319.32	0.8662
3328.07	0.8393
3336.81	0.7907
3345.56	0.7423
3354.3	0.6942
3363.05	0.6463
3371.8	0.5987
3380.54	0.5513
3389.29	0.5041
3398.04	0.4676
3406.78	0.4824
3415.53	0.5361
3424.28	0.5895
3433.02	0.6427
3441.77	0.6957
3450.52	0.7378
3459.26	0.7426
3468.01	0.7344
3476.76	0.6901
3485.5	0.6579
3494.25	0.626
3503	0.5943
3511.74	0.5626
3520.49	0.5314
3529.24	0.521
3537.98	0.5503
3546.73	0.627
3555.48	0.7033
3564.22	0.7744
3572.97	0.7973
3581.72	0.8222
3590.46	0.849
3599.21	0.878
3607.96	0.8854
3616.7	0.8901
3625.45	0.8938
3634.2	0.8964
3642.94	0.8978
3651.69	0.8989
3660.44	0.8997
3669.18	0.8997
3677.93	0.8999
3686.68	0.8999
3695.42	0.8997
3704.17	0.8995
3712.92	0.8994
3721.66	0.8992
3730.41	0.8989
3739.16	0.8987
3747.9	0.8982
3756.65	0.8977
3765.4	0.8973
3774.14	0.8968
3782.89	0.8963
3791.64	0.8958
3800.38	0.8952
3809.13	0.8947
3817.88	0.8941
3826.62	0.8936
3835.37	0.893
3844.12	0.8923
3852.86	0.8915
3861.61	0.8907
3870.36	0.89
3879.1	0.8893
3887.85	0.8884
3896.6	0.8877
