Infrared Spectrum: BENZOIC ACID
Formula: C7 H6 O2
CAS: 65-85-0
State: SOLID (VAPOR AT 160 C)
Class: COBLENTZ
Instrument: DOW KBr FOREPRISM
Instrument parameters: GRATING BLAZED AT 3.5, 12.0, 20.0 MICRONS AND CHANGED AT 5.0, 7.5, 14.9 MICRONS
Sampling: TRANSMISSION
Path length: 100 CM
Resolution: 4
Origin: DOW CHEMICAL COMPANY
1/CM	TRANSMITTANCE
453.372	0.911
462.17	0.919
470.967	0.946
479.765	0.962
488.563	0.968
497.36	0.964
506.158	0.957
514.956	0.948
523.753	0.947
532.551	0.937
541.349	0.917
550.147	0.871
558.944	0.853
567.742	0.795
576.54	0.748
585.337	0.835
594.135	0.937
602.933	0.982
611.73	0.976
620.528	0.816
629.326	0.748
638.123	0.723
646.921	0.957
655.719	0.946
664.516	0.966
673.314	0.991
682.112	0.954
690.909	0.85
699.707	0.705
708.505	0.597
717.303	0.507
726.1	0.63
734.898	0.827
743.696	0.934
752.493	0.893
761.291	0.825
770.089	0.799
778.886	0.876
787.684	0.937
796.482	0.91
805.279	0.881
814.077	0.839
822.875	0.868
831.672	0.926
840.47	0.946
849.268	0.954
858.065	0.961
866.863	0.973
875.661	0.98
884.459	0.983
893.256	0.982
902.054	0.983
910.852	0.983
919.649	0.982
928.447	0.98
937.245	0.976
946.042	0.976
954.84	0.984
963.638	0.984
972.435	0.987
981.233	0.982
990.031	0.97
998.828	0.946
1007.63	0.867
1016.42	0.691
1025.22	0.629
1034.02	0.652
1042.82	0.817
1051.61	0.753
1060.41	0.583
1069.21	0.499
1078.01	0.365
1086.81	0.355
1095.6	0.45
1104.4	0.727
1113.2	0.807
1122	0.84
1130.79	0.864
1139.59	0.874
1148.39	0.869
1157.19	0.828
1165.98	0.5018
1174.78	0.373
1183.58	0.295
1192.38	0.526
1201.18	0.784
1209.97	0.917
1218.77	0.951
1227.57	0.937
1236.37	0.915
1245.16	0.871
1253.96	0.784
1262.76	0.713
1271.56	0.724
1280.35	0.745
1289.15	0.767
1297.95	0.853
1306.75	0.893
1315.55	0.867
1324.34	0.816
1333.14	0.792
1341.94	0.611
1350.74	0.522
1359.53	0.531
1368.33	0.767
1377.13	0.829
1385.93	0.836
1394.72	0.843
1403.52	0.871
1412.32	0.903
1421.12	0.923
1429.91	0.932
1438.71	0.922
1447.51	0.882
1456.31	0.876
1465.11	0.878
1473.9	0.951
1482.7	0.923
1491.5	0.908
1500.3	0.941
1509.09	0.952
1517.89	0.958
1526.69	0.955
1535.49	0.95
1544.28	0.944
1553.08	0.937
1561.88	0.928
1570.68	0.923
1579.48	0.908
1588.27	0.872
1597.07	0.77
1605.87	0.832
1614.67	0.871
1623.46	0.933
1632.26	0.944
1641.06	0.944
1649.86	0.952
1658.65	0.95
1667.45	0.954
1676.25	0.951
1685.05	0.943
1693.85	0.923
1702.64	0.894
1711.44	0.857
1720.24	0.834
1729.04	0.847
1737.83	0.786
1746.63	0.4888
1755.43	0.105
1764.23	0.089
1773.02	0.1991
1781.82	0.6771
1790.62	0.876
1799.42	0.912
1808.22	0.9
1817.01	0.886
1825.81	0.89
1834.61	0.926
1843.41	0.944
1852.2	0.957
1861	0.959
1869.8	0.961
1878.6	0.961
1887.39	0.958
1896.19	0.955
1904.99	0.951
1913.79	0.946
1922.59	0.944
1931.38	0.948
1940.18	0.95
1948.98	0.946
1957.78	0.946
1966.57	0.944
1975.37	0.941
1984.17	0.939
1992.97	0.937
2001.76	0.937
2010.56	0.937
2019.36	0.937
2028.16	0.939
2036.96	0.939
2045.75	0.94
2054.55	0.94
2063.35	0.941
2072.15	0.941
2080.94	0.941
2089.74	0.943
2098.54	0.943
2107.34	0.943
2116.13	0.943
2124.93	0.943
2133.73	0.941
2142.53	0.941
2151.32	0.939
2160.12	0.941
2168.92	0.944
2177.72	0.9472
2186.52	0.951
2195.31	0.952
2204.11	0.954
2212.91	0.957
2221.71	0.958
2230.5	0.9572
2239.3	0.958
2248.1	0.958
2256.9	0.959
2265.69	0.959
2274.49	0.954
2283.29	0.962
2292.09	0.9611
2300.89	0.9583
2309.68	0.962
2318.48	0.9653
2327.28	0.9667
2336.08	0.969
2344.87	0.969
2353.67	0.966
2362.47	0.966
2371.27	0.9672
2380.06	0.9708
2388.86	0.964
2397.66	0.966
2406.46	0.964
2415.26	0.9654
2424.05	0.968
2432.85	0.966
2441.65	0.965
2450.45	0.97
2459.24	0.9655
2468.04	0.969
2476.84	0.969
2485.64	0.968
2494.43	0.9685
2503.23	0.971
2512.03	0.968
2520.83	0.968
2529.63	0.968
2538.42	0.968
2547.22	0.968
2556.02	0.968
2564.82	0.9712
2573.61	0.9724
2582.41	0.969
2591.21	0.969
2600.01	0.9696
2608.8	0.972
2617.6	0.969
2626.4	0.9656
2635.2	0.972
2644	0.9723
2652.79	0.9706
2661.59	0.968
2670.39	0.9714
2679.19	0.968
2687.98	0.968
2696.78	0.9693
2705.58	0.9745
2714.38	0.972
2723.17	0.97
2731.97	0.972
2740.77	0.973
2749.57	0.973
2758.37	0.972
2767.16	0.972
2775.96	0.9658
2784.76	0.969
2793.56	0.97
2802.35	0.972
2811.15	0.9728
2819.95	0.973
2828.75	0.9703
2837.54	0.9663
2846.34	0.9641
2855.14	0.9638
2863.94	0.9662
2872.74	0.966
2881.53	0.964
2890.33	0.964
2899.13	0.962
2907.93	0.9581
2916.72	0.957
2925.52	0.955
2934.32	0.954
2943.12	0.952
2951.91	0.951
2960.71	0.934
2969.51	0.918
2978.31	0.9341
2987.1	0.958
2995.9	0.964
3004.7	0.9639
3013.5	0.9589
3022.3	0.9547
3031.09	0.9437
3039.89	0.9272
3048.69	0.9067
3057.49	0.8929
3066.28	0.8735
3075.08	0.8421
3083.88	0.8468
3092.68	0.877
3101.47	0.9123
3110.27	0.9236
3119.07	0.9508
3127.87	0.9642
3136.67	0.973
3145.46	0.975
3154.26	0.975
3163.06	0.9752
3171.86	0.976
3180.65	0.976
3189.45	0.9775
3198.25	0.979
3207.05	0.98
3215.84	0.9805
3224.64	0.982
3233.44	0.983
3242.24	0.9833
3251.04	0.986
3259.83	0.987
3268.63	0.9873
3277.43	0.988
3286.23	0.99
3295.02	0.9903
3303.82	0.9934
3312.62	0.993
3321.42	0.9922
3330.21	0.99
3339.01	0.9918
3347.81	0.993
3356.61	0.991
3365.41	0.9918
3374.2	0.994
3383	0.995
3391.8	0.997
3400.6	0.997
3409.39	0.997
3418.19	0.997
3426.99	0.997
3435.79	0.998
3444.58	0.999
3453.38	0.998
3462.18	0.9959
3470.98	0.994
3479.78	0.9935
3488.57	0.9889
3497.37	0.9779
3506.17	0.976
3514.97	0.9832
3523.76	0.9936
3532.56	0.9992
3541.36	0.997
3550.16	0.9875
3558.95	0.9688
3567.75	0.6567
3576.55	0.4024
3585.35	0.4687
3594.15	0.8435
3602.94	0.981
3611.74	0.995
3620.54	0.998
3629.34	0.998
3638.13	0.998
3646.93	1.0003
3655.73	0.9985
3664.53	1.001
3673.32	1
3682.12	0.9985
3690.92	0.9978
3699.72	1.002
3708.52	1.002
3717.31	1.001
3726.11	1.004
3734.91	1.0088
3743.71	1.011
3752.5	1.009
3761.3	1.009
3770.1	1.009
3778.9	1.009
3787.69	1.009
3796.49	1.0119
