Infrared Spectrum: 4,4'-OXYDIBENZONITRILE
Formula: C14 H8 O N2
CAS: 6508-04-9
State: SOLID (KBr PELLET)
Class: COBLENTZ
Instrument: PERKIN-ELMER
Sampling: TRANSMISSION
Resolution: 4
Origin: STANDARD OIL OF OHIO
1/CM	TRANSMITTANCE
309.536	0.857
318.987	0.847
328.439	0.835
337.89	0.81
347.342	0.772
356.793	0.688
366.245	0.776
375.696	0.791
385.148	0.784
394.599	0.772
404.051	0.771
413.502	0.735
422.954	0.757
432.405	0.744
441.857	0.728
451.308	0.6911
460.76	0.71
470.211	0.6222
479.663	0.6498
489.114	0.728
498.566	0.727
508.017	0.723
517.469	0.696
526.92	0.64
536.372	0.6111
545.823	0.0331
555.275	0.1939
564.726	0.332
574.178	0.6589
583.629	0.703
593.081	0.71
602.532	0.72
611.984	0.727
621.435	0.732
630.887	0.728
640.338	0.723
649.789	0.747
659.241	0.752
668.692	0.745
678.144	0.728
687.595	0.723
697.047	0.727
706.498	0.6031
715.95	0.664
725.401	0.6501
734.853	0.632
744.304	0.71
753.756	0.781
763.207	0.777
772.659	0.771
782.11	0.766
791.562	0.752
801.013	0.715
810.465	0.661
819.916	0.2798
829.368	0.315
838.819	0.018
848.271	0.2364
857.722	0.4073
867.174	0.593
876.625	0.028
886.077	0.6548
895.528	0.754
904.98	0.759
914.431	0.757
923.883	0.73
933.334	0.752
942.786	0.7401
952.237	0.6467
961.689	0.769
971.14	0.749
980.591	0.7539
990.043	0.755
999.494	0.747
1008.95	0.6203
1018.4	0.469
1027.85	0.752
1037.3	0.747
1046.75	0.745
1056.2	0.742
1065.65	0.737
1075.11	0.723
1084.56	0.706
1094.01	0.654
1103.46	0.3813
1112.91	0.391
1122.36	0.538
1131.82	0.652
1141.27	0.593
1150.72	0.4331
1160.17	0.1131
1169.62	0.0338
1179.07	0.5229
1188.52	0.544
1197.98	0.432
1207.43	0.252
1216.88	0.271
1226.33	0.1181
1235.78	0.001
1245.23	0.005
1254.68	0.013
1264.14	0.1739
1273.59	0.169
1283.04	0.1
1292.49	0.2128
1301.94	0.291
1311.39	0.455
1320.84	0.655
1330.3	0.662
1339.75	0.706
1349.2	0.713
1358.65	0.693
1368.1	0.664
1377.55	0.652
1387.01	0.661
1396.46	0.664
1405.91	0.601
1415.36	0.4268
1424.81	0.5619
1434.26	0.652
1443.71	0.625
1453.17	0.596
1462.62	0.533
1472.07	0.442
1481.52	0.2274
1490.97	0.006
1500.42	0.028
1509.87	0.1099
1519.33	0.3008
1528.78	0.41
1538.23	0.605
1547.68	0.618
1557.13	0.462
1566.58	0.42
1576.04	0.25
1585.49	0.006
1594.94	0.018
1604.39	0.3641
1613.84	0.4638
1623.29	0.583
1632.74	0.579
1642.2	0.589
1651.65	0.615
1661.1	0.628
1670.55	0.65
1680	0.674
1689.45	0.691
1698.9	0.73
1708.36	0.764
1717.81	0.774
1727.26	0.769
1736.71	0.766
1746.16	0.776
1755.61	0.777
1765.06	0.779
1774.52	0.777
1783.97	0.757
1793.42	0.722
1802.87	0.766
1812.32	0.762
1821.77	0.777
1831.23	0.789
1840.68	0.788
1850.13	0.786
1859.58	0.783
1869.03	0.784
1878.48	0.755
1887.93	0.733
1897.39	0.722
1906.84	0.705
1916.29	0.676
1925.74	0.6569
1935.19	0.688
1944.64	0.708
1954.09	0.749
1963.55	0.755
1973	0.745
1982.45	0.744
1991.9	0.752
2001.35	0.767
2010.8	0.764
2020.25	0.758
2029.71	0.75
2039.16	0.714
2048.61	0.703
2058.06	0.7214
2067.51	0.7381
2076.96	0.728
2086.42	0.7535
2095.87	0.766
2105.32	0.767
2114.77	0.7699
2124.22	0.7691
2133.67	0.767
2143.12	0.7622
2152.58	0.7561
2162.03	0.7521
2171.48	0.7209
2180.93	0.7398
2190.38	0.7088
2199.83	0.6637
2209.28	0.4788
2218.74	0.0165
2228.19	0.1406
2237.64	0.5669
2247.09	0.7463
2256.54	0.7708
2265.99	0.7716
2275.45	0.7661
2284.9	0.766
2294.35	0.767
2303.8	0.7652
2313.25	0.7611
2322.7	0.757
2332.15	0.7522
2341.61	0.7462
2351.06	0.7373
2360.51	0.7276
2369.96	0.7204
2379.41	0.7049
2388.86	0.7045
2398.31	0.6978
2407.77	0.6881
2417.22	0.7017
2426.67	0.7156
2436.12	0.7067
2445.57	0.6524
2455.02	0.6684
2464.47	0.7296
2473.93	0.7156
2483.38	0.7002
2492.83	0.7227
2502.28	0.732
2511.73	0.735
2521.18	0.7333
2530.64	0.729
2540.09	0.7155
2549.54	0.6954
2558.99	0.6894
2568.44	0.6754
2577.89	0.6644
2587.34	0.6735
2596.8	0.7108
2606.25	0.7356
2615.7	0.742
2625.15	0.744
2634.6	0.7404
2644.05	0.7306
2653.5	0.7222
2662.96	0.722
2672.41	0.725
2681.86	0.7264
2691.31	0.725
2700.76	0.7273
2710.21	0.727
2719.66	0.7245
2729.12	0.722
2738.57	0.7131
2748.02	0.705
2757.47	0.6989
2766.92	0.6932
2776.37	0.6888
2785.83	0.688
2795.28	0.6855
2804.73	0.6833
2814.18	0.676
2823.63	0.6644
2833.08	0.6222
2842.53	0.5382
2851.99	0.5377
2861.44	0.628
2870.89	0.6373
2880.34	0.6241
2889.79	0.6008
2899.24	0.5768
2908.69	0.48
2918.15	0.465
2927.6	0.5195
2937.05	0.5674
2946.5	0.6114
2955.95	0.616
2965.4	0.618
2974.86	0.6153
2984.31	0.598
2993.76	0.6094
3003.21	0.6226
3012.66	0.625
3022.11	0.6193
3031.56	0.6076
3041.02	0.5288
3050.47	0.5408
3059.92	0.484
3069.37	0.5164
3078.82	0.4941
3088.27	0.4754
3097.72	0.3624
3107.18	0.5519
3116.63	0.5963
3126.08	0.6
3135.53	0.5957
3144.98	0.593
3154.43	0.5931
3163.88	0.596
3173.34	0.5886
3182.79	0.5834
3192.24	0.577
3201.69	0.5802
3211.14	0.581
3220.59	0.577
3230.05	0.5708
3239.5	0.5648
3248.95	0.5588
3258.4	0.5528
3267.85	0.5488
3277.3	0.5404
3286.75	0.5348
3296.21	0.5246
3305.66	0.5107
3315.11	0.5018
3324.56	0.4806
3334.01	0.4649
3343.46	0.4499
3352.91	0.4245
3362.37	0.401
3371.82	0.3795
3381.27	0.3587
3390.72	0.3405
3400.17	0.3279
3409.62	0.3224
3419.07	0.3251
3428.53	0.3341
3437.98	0.338
3447.43	0.3422
3456.88	0.3471
3466.33	0.3536
3475.78	0.3641
3485.24	0.3776
3494.69	0.3861
3504.14	0.397
3513.59	0.4061
3523.04	0.4181
3532.49	0.4271
3541.94	0.4401
3551.4	0.4541
3560.85	0.4665
3570.3	0.483
3579.75	0.5035
3589.2	0.52
3598.65	0.5395
3608.1	0.554
3617.56	0.5714
3627.01	0.5929
3636.46	0.5994
3645.91	0.6149
3655.36	0.621
3664.81	0.627
3674.26	0.6291
3683.72	0.63
3693.17	0.6325
3702.62	0.633
3712.07	0.6325
3721.52	0.632
3730.97	0.632
3740.43	0.632
3749.88	0.632
3759.33	0.632
3768.78	0.6291
3778.23	0.625
3787.68	0.6211
3797.13	0.616
3806.59	0.613
3816.04	0.615
3825.49	0.616
3834.94	0.618
3844.39	0.618
3853.84	0.618
3863.29	0.618
3872.75	0.616
3882.2	0.6156
3891.65	0.615
