Infrared Spectrum: Anisole, 4-nitro-2-(trifluoromethyl)-
Formula: C8 H6 F3 N O3
CAS: 654-76-2
State: SOLUTION (10% CCl4 FOR 3800-1330, 10% CS2 FOR 1330-400)
Class: COBLENTZ III
Instrument: BECKMAN IR-9 (GRATING)
Instrument parameters: ORDER CHANGES: 670, 1200, 2000 CM^-^1
Sampling: TRANSMISSION
Path length: 0.010 CM, 0.012 CM
Resolution: 2
Origin: DOW CHEMICAL COMPANY
1/CM	TRANSMITTANCE
395	0.1912
404	0.1814
413	0.2609
422	0.4334
431	0.536
440	0.6049
449	0.6599
458	0.7043
467	0.7358
476	0.745
485	0.7821
494	0.7964
503	0.7829
512	0.8024
521	0.7633
530	0.7372
539	0.7847
548	0.839
557	0.8618
566	0.8726
575	0.8785
584	0.88
593	0.8776
602	0.871
611	0.8603
620	0.8435
629	0.7861
638	0.3024
647	0.7386
656	0.7551
665	0.7117
674	0.251
683	0.3261
692	0.758
701	0.8001
710	0.8192
719	0.8227
728	0.7916
737	0.3457
746	0.7534
755	0.5532
764	0.7232
773	0.7963
782	0.8362
791	0.8478
800	0.7896
809	0.7222
818	0.8093
827	0.2861
836	0.5166
845	0.7554
854	0.7118
863	0.675
872	0.7045
881	0.74
890	0.765
899	0.3361
908	0.7979
917	0.5692
926	0.3943
935	0.7801
944	0.8153
953	0.8129
962	0.8115
971	0.8231
980	0.8242
989	0.8251
998	0.7982
1007	0.7248
1016	0.5037
1025	0.1444
1034	0.6169
1043	0.4699
1052	0.0259
1061	0.4098
1070	0.6364
1079	0.7013
1088	0.728
1097	0.6986
1106	0.5699
1115	0.2759
1124	0.0075
1133	0.1785
1142	0.0165
1151	0.0015
1160	0.0315
1169	0.0692
1178	0.3576
1187	0.2681
1196	0.6148
1205	0.6833
1214	0.7108
1223	0.7315
1232	0.7064
1241	0.696
1250	0.6563
1259	0.4101
1268	0.2911
1277	0.0261
1286	0.0032
1295	0.0176
1304	0.3785
1313	0.493
1322	0.4413
1331	0.0342
1340	0.0059
1349	0.0066
1358	0.0477
1367	0.499
1376	0.6697
1385	0.7065
1394	0.7051
1403	0.6948
1412	0.6965
1421	0.4402
1430	0.2222
1439	0.2068
1448	0.4157
1457	0.4334
1466	0.2141
1475	0.4533
1484	0.4126
1493	0.2281
1502	0.0047
1511	0.2334
1520	0.1931
1529	0.0255
1538	0.0083
1547	0.2204
1556	0.3446
1565	0.3983
1574	0.4643
1583	0.4582
1592	0.2691
1601	0.0057
1610	0.1595
1619	0.0732
1628	0.1507
1637	0.5755
1646	0.6917
1655	0.7401
1664	0.7645
1673	0.8016
1682	0.818
1691	0.828
1700	0.8354
1709	0.8498
1718	0.8571
1727	0.8603
1736	0.8612
1745	0.862
1754	0.8597
1763	0.8645
1772	0.8736
1781	0.8693
1790	0.856
1799	0.8638
1808	0.8729
1817	0.8684
1826	0.8586
1835	0.8399
1844	0.8122
1853	0.8315
1862	0.8622
1871	0.8686
1880	0.8678
1889	0.8621
1898	0.8593
1907	0.8441
1916	0.8088
1925	0.8248
1934	0.8515
1943	0.8584
1952	0.8576
1961	0.856
1970	0.8544
1979	0.8543
1988	0.8563
1997	0.8566
2006	0.8563
2015	0.8526
2024	0.8442
2033	0.8422
2042	0.8254
2051	0.8139
2060	0.8333
2069	0.8501
2078	0.8501
2087	0.8377
2096	0.8421
2105	0.8565
2114	0.8597
2123	0.8622
2132	0.8649
2141	0.8655
2150	0.8668
2159	0.8684
2168	0.8641
2177	0.8578
2186	0.853
2195	0.8547
2204	0.8579
2213	0.8633
2222	0.8611
2231	0.8553
2240	0.8503
2249	0.8477
2258	0.8456
2267	0.8401
2276	0.8349
2285	0.8321
2294	0.8298
2303	0.8294
2312	0.8297
2321	0.8309
2330	0.8324
2339	0.8348
2348	0.8372
2357	0.8397
2366	0.8422
2375	0.8443
2384	0.8465
2393	0.8451
2402	0.8421
2411	0.8387
2420	0.8358
2429	0.8341
2438	0.8316
2447	0.8224
2456	0.8117
2465	0.8073
2474	0.8083
2483	0.8157
2492	0.8253
2501	0.8261
2510	0.8249
2519	0.8215
2528	0.8171
2537	0.8115
2546	0.8014
2555	0.7834
2564	0.7581
2573	0.7668
2582	0.7856
2591	0.7986
2600	0.798
2609	0.7957
2618	0.7913
2627	0.7859
2636	0.7884
2645	0.793
2654	0.797
2663	0.7972
2672	0.7922
2681	0.7907
2690	0.8017
2699	0.8092
2708	0.809
2717	0.8078
2726	0.8057
2735	0.8038
2744	0.8013
2753	0.7968
2762	0.7895
2771	0.7854
2780	0.7854
2789	0.7861
2798	0.7888
2807	0.7931
2816	0.7921
2825	0.785
2834	0.7726
2843	0.7209
2852	0.598
2861	0.6792
2870	0.7065
2879	0.7102
2888	0.7207
2897	0.7372
2906	0.7173
2915	0.7064
2924	0.7078
2933	0.7057
2942	0.68
2951	0.5656
2960	0.5887
2969	0.6717
2978	0.6218
2987	0.5992
2996	0.6761
3005	0.7431
3014	0.7564
3023	0.7162
3032	0.6886
3041	0.7446
3050	0.7725
3059	0.7763
3068	0.776
3077	0.772
3086	0.7561
3095	0.7001
3104	0.5811
3113	0.6854
3122	0.7366
3131	0.7366
3140	0.7297
3149	0.7413
3158	0.7629
3167	0.7771
3176	0.7883
3185	0.7987
3194	0.8057
3203	0.8094
3212	0.8112
3221	0.8111
3230	0.8106
3239	0.81
3248	0.8125
3257	0.8159
3266	0.8199
3275	0.8239
3284	0.8273
3293	0.8286
3302	0.8294
3311	0.8302
3320	0.83
3329	0.8296
3338	0.8295
3347	0.8294
3356	0.8293
3365	0.8294
3374	0.8296
3383	0.8297
3392	0.8299
3401	0.8305
3410	0.8312
3419	0.8318
3428	0.8325
3437	0.8348
3446	0.8372
3455	0.8396
3464	0.8422
3473	0.8453
3482	0.8477
3491	0.85
3500	0.8521
3509	0.8532
3518	0.8543
3527	0.8553
3536	0.8564
3545	0.8573
3554	0.8582
3563	0.8591
3572	0.8598
3581	0.8604
3590	0.861
3599	0.8661
3608	0.871
3617	0.8721
3626	0.8728
3635	0.8736
3644	0.8745
3653	0.8756
3662	0.8768
3671	0.878
3680	0.8792
3689	0.8803
3698	0.8815
3707	0.8826
3716	0.8837
3725	0.8845
3734	0.8851
3743	0.8856
3752	0.8862
3761	0.8868
3770	0.8877
3779	0.8885
3788	0.8893
3797	0.89
