Infrared Spectrum: Uracil
Formula: C4 H4 N2 O2
CAS: 66-22-8
State: SOLID (0.7 mg / 650 mg KBr DISC)
Class: COBLENTZ III
Instrument: PERKIN-ELMER 21 (GRATING)
Instrument parameters: FILTER CHANGE ABOUT 1030 CM^-^1
Resolution: 2
Origin: SOUTHERN RESEARCH INSTITUTE
1/CM	TRANSMITTANCE
600.06	0.7438
609.109	0.7448
618.158	0.7441
627.207	0.7412
636.256	0.7409
645.305	0.7404
654.354	0.7396
663.403	0.7384
672.452	0.7365
681.501	0.7316
690.549	0.7267
699.598	0.725
708.647	0.7101
717.696	0.6876
726.745	0.6693
735.794	0.6589
744.843	0.6452
753.892	0.5574
762.941	0.3673
771.99	0.4528
781.039	0.3993
790.088	0.3674
799.137	0.2941
808.186	0.2704
817.235	0.2432
826.284	0.1648
835.333	0.186
844.382	0.1857
853.43	0.1935
862.479	0.2255
871.528	0.2999
880.577	0.4237
889.626	0.5344
898.675	0.611
907.724	0.6846
916.773	0.7288
925.822	0.7477
934.871	0.7602
943.92	0.763
952.969	0.7626
962.018	0.7599
971.067	0.7447
980.116	0.6841
989.165	0.5412
998.214	0.486
1007.26	0.5008
1016.31	0.761
1025.36	0.7912
1034.41	0.7954
1043.46	0.7929
1052.51	0.7905
1061.56	0.7869
1070.61	0.7836
1079.65	0.7806
1088.7	0.7726
1097.75	0.7543
1106.8	0.7765
1115.85	0.7835
1124.9	0.7856
1133.95	0.7839
1143	0.779
1152.05	0.7731
1161.09	0.767
1170.14	0.7583
1179.19	0.74
1188.24	0.7044
1197.29	0.6629
1206.34	0.6116
1215.39	0.4441
1224.44	0.307
1233.49	0.0726
1242.54	0.0649
1251.58	0.3048
1260.63	0.7341
1269.68	0.7914
1278.73	0.8036
1287.78	0.8091
1296.83	0.8029
1305.88	0.7893
1314.93	0.7822
1323.98	0.7778
1333.02	0.7676
1342.07	0.7557
1351.12	0.7336
1360.17	0.717
1369.22	0.702
1378.27	0.6471
1387.32	0.5351
1396.37	0.3117
1405.42	0.4925
1414.47	0.1748
1423.51	0.1333
1432.56	0.3767
1441.61	0.3707
1450.66	0.232
1459.71	0.1931
1468.76	0.4305
1477.81	0.5833
1486.86	0.5584
1495.91	0.5089
1504.95	0.3872
1514	0.3626
1523.05	0.4022
1532.1	0.4252
1541.15	0.4247
1550.2	0.4192
1559.25	0.378
1568.3	0.3233
1577.35	0.2938
1586.39	0.2661
1595.44	0.2156
1604.49	0.1434
1613.54	0.0826
1622.59	0.0426
1631.64	0.0233
1640.69	0.0103
1649.74	0.0077
1658.79	0.0067
1667.84	0.0076
1676.88	0.011
1685.93	0.0178
1694.98	0.0197
1704.03	0.0112
1713.08	0.0105
1722.13	0.0118
1731.18	0.0143
1740.23	0.0253
1749.28	0.0574
1758.32	0.0679
1767.37	0.0898
1776.42	0.1368
1785.47	0.1649
1794.52	0.2299
1803.57	0.2821
1812.62	0.4559
1821.67	0.6052
1830.72	0.6734
1839.77	0.7307
1848.81	0.7522
1857.86	0.7663
1866.91	0.7818
1875.96	0.7999
1885.01	0.815
1894.06	0.8278
1903.11	0.8332
1912.16	0.8331
1921.21	0.8323
1930.25	0.8319
1939.3	0.8305
1948.35	0.8291
1957.4	0.8276
1966.45	0.8228
1975.5	0.8104
1984.55	0.7926
1993.6	0.7843
2002.65	0.795
2011.7	0.8064
2020.74	0.8208
2029.79	0.8569
2038.84	0.8688
2047.89	0.8763
2056.94	0.8783
2065.99	0.8776
2075.04	0.8734
2084.09	0.8702
2093.14	0.8702
2102.18	0.8711
2111.23	0.8737
2120.28	0.8782
2129.33	0.8804
2138.38	0.88
2147.43	0.8782
2156.48	0.8755
2165.53	0.8715
2174.58	0.8668
2183.63	0.8631
2192.67	0.8601
2201.72	0.8587
2210.77	0.8585
2219.82	0.8538
2228.87	0.852
2237.92	0.8565
2246.97	0.8622
2256.02	0.867
2265.07	0.8669
2274.11	0.8633
2283.16	0.8569
2292.21	0.8494
2301.26	0.8383
2310.31	0.8244
2319.36	0.8212
2328.41	0.8199
2337.46	0.8189
2346.51	0.8184
2355.56	0.8177
2364.6	0.8164
2373.65	0.812
2382.7	0.7968
2391.75	0.7837
2400.8	0.7805
2409.85	0.7785
2418.9	0.7759
2427.95	0.7715
2437	0.7645
2446.04	0.7474
2455.09	0.7489
2464.14	0.7554
2473.19	0.7649
2482.24	0.778
2491.29	0.7793
2500.34	0.777
2509.39	0.774
2518.44	0.7684
2527.49	0.7624
2536.53	0.7563
2545.58	0.7523
2554.63	0.7514
2563.68	0.7469
2572.73	0.7341
2581.78	0.7128
2590.83	0.6926
2599.88	0.679
2608.93	0.6723
2617.97	0.6692
2627.02	0.665
2636.07	0.6584
2645.12	0.6512
2654.17	0.6391
2663.22	0.6177
2672.27	0.5868
2681.32	0.5621
2690.37	0.5512
2699.42	0.5364
2708.46	0.5064
2717.51	0.4533
2726.56	0.4344
2735.61	0.4303
2744.66	0.4268
2753.71	0.4137
2762.76	0.3766
2771.81	0.3274
2780.86	0.2917
2789.9	0.2559
2798.95	0.2369
2808	0.2308
2817.05	0.2272
2826.1	0.2228
2835.15	0.1956
2844.2	0.1759
2853.25	0.1731
2862.3	0.1726
2871.35	0.1482
2880.39	0.1262
2889.44	0.108
2898.49	0.0908
2907.54	0.0721
2916.59	0.0608
2925.64	0.0675
2934.69	0.0729
2943.74	0.0825
2952.79	0.0803
2961.83	0.0742
2970.88	0.0714
2979.93	0.07
2988.98	0.0719
2998.03	0.0728
3007.08	0.0635
3016.13	0.058
3025.18	0.0561
3034.23	0.0515
3043.28	0.0471
3052.32	0.0428
3061.37	0.0372
3070.42	0.0305
3079.47	0.0274
3088.52	0.0262
3097.57	0.0281
3106.62	0.029
3115.67	0.0306
3124.72	0.0347
3133.76	0.0407
3142.81	0.0462
3151.86	0.0604
3160.91	0.067
3169.96	0.0784
3179.01	0.1015
3188.06	0.123
3197.11	0.1403
3206.16	0.1493
3215.2	0.1528
3224.25	0.1646
3233.3	0.196
3242.35	0.2331
3251.4	0.2758
3260.45	0.3189
3269.5	0.3643
3278.55	0.4131
3287.6	0.4595
3296.65	0.4937
3305.69	0.5204
3314.74	0.5437
3323.79	0.5694
3332.84	0.5835
3341.89	0.5987
3350.94	0.6111
3359.99	0.6181
3369.04	0.6197
3378.09	0.6185
3387.13	0.6181
3396.18	0.6179
3405.23	0.6183
3414.28	0.6206
3423.33	0.6234
3432.38	0.6285
3441.43	0.6345
3450.48	0.6401
3459.53	0.6458
3468.58	0.6512
3477.62	0.657
3486.67	0.6645
3495.72	0.6725
3504.77	0.6827
3513.82	0.6982
3522.87	0.7088
3531.92	0.7213
3540.97	0.7323
3550.02	0.7407
3559.06	0.7471
3568.11	0.753
3577.16	0.7588
3586.21	0.7655
3595.26	0.7746
3604.31	0.7842
3613.36	0.7938
3622.41	0.8035
3631.46	0.8173
3640.51	0.8283
3649.55	0.8353
3658.6	0.8369
3667.65	0.8382
3676.7	0.8396
3685.75	0.8412
3694.8	0.8425
3703.85	0.8437
3712.9	0.8458
3721.95	0.8479
3730.99	0.8502
3740.04	0.8522
3749.09	0.8525
3758.14	0.8543
3767.19	0.8588
3776.24	0.8634
3785.29	0.8674
3794.34	0.8693
3803.39	0.8661
3812.44	0.858
3821.48	0.8485
3830.53	0.841
3839.58	0.8375
3848.63	0.835
3857.68	0.8347
3866.73	0.8349
3875.78	0.8359
3884.83	0.8376
3893.88	0.8396
3902.92	0.8415
3911.97	0.8434
