Infrared Spectrum: 2,4-NONANEDIOL, 5-ETHYL-3-METHYL-
Formula: C12 H26 O2
CAS: 6628-31-5
State: SOLUTION (10% CCl4 FOR 3800-1330, 10% CS2 FOR 1330-460 CM^-^1)
Class: COBLENTZ III
Instrument: DOW KBr FOREPRISM-GRATING
Instrument parameters: BLAZED AT 3.5, 12.0, 20.0 MICRON AND CHANGED AT 5.0, 7.5, 14.9 MICRON
Sampling: TRANSMISSION
Path length: 0.011 CM, 0.011 CM
Resolution: 2
Origin: DOW CHEMICAL COMPANY
1/CM	TRANSMITTANCE
460	0.6648
469	0.6632
478	0.663
487	0.6617
496	0.6545
505	0.6472
514	0.6439
523	0.6396
532	0.6342
541	0.6379
550	0.6393
559	0.64
568	0.6478
577	0.65
586	0.6507
595	0.6575
604	0.6615
613	0.6612
622	0.665
631	0.6676
640	0.6542
649	0.6405
658	0.6514
667	0.6814
676	0.7025
685	0.7112
694	0.71
703	0.7121
712	0.7158
721	0.6865
730	0.6695
739	0.7382
748	0.7567
757	0.7471
766	0.7055
775	0.7026
784	0.7158
793	0.7689
802	0.8003
811	0.8065
820	0.7961
829	0.7824
838	0.7556
847	0.6654
856	0.6428
865	0.6646
874	0.7008
883	0.7403
892	0.7251
901	0.6954
910	0.5825
919	0.5288
928	0.5467
937	0.6656
946	0.6381
955	0.5798
964	0.5692
973	0.5853
982	0.5169
991	0.4602
1000	0.4233
1009	0.4779
1018	0.5214
1027	0.5533
1036	0.5739
1045	0.5625
1054	0.5494
1063	0.5328
1072	0.5094
1081	0.4772
1090	0.43
1099	0.4074
1108	0.4145
1117	0.4514
1126	0.4951
1135	0.5288
1144	0.5254
1153	0.5237
1162	0.5433
1171	0.6937
1180	0.7328
1189	0.7182
1198	0.6883
1207	0.6676
1216	0.6605
1225	0.6493
1234	0.6357
1243	0.6153
1252	0.5935
1261	0.5741
1270	0.5566
1279	0.5394
1288	0.5248
1297	0.5122
1306	0.5017
1315	0.4935
1324	0.4897
1333	0.5066
1342	0.5279
1351	0.536
1360	0.548
1369	0.528
1378	0.3446
1387	0.403
1396	0.4994
1405	0.496
1414	0.4619
1423	0.4308
1432	0.4378
1441	0.4275
1450	0.3504
1459	0.1815
1468	0.1546
1477	0.4744
1486	0.5846
1495	0.6496
1504	0.6512
1513	0.6292
1522	0.5981
1531	0.5641
1540	0.5054
1549	0.4424
1558	0.4554
1567	0.5373
1576	0.5801
1585	0.5971
1594	0.6439
1603	0.733
1612	0.7731
1621	0.7864
1630	0.7967
1639	0.8076
1648	0.8143
1657	0.8144
1666	0.8057
1675	0.7947
1684	0.776
1693	0.7401
1702	0.6585
1711	0.623
1720	0.6808
1729	0.7481
1738	0.7864
1747	0.8142
1756	0.8282
1765	0.8374
1774	0.8424
1783	0.8441
1792	0.8456
1801	0.8473
1810	0.8478
1819	0.8483
1828	0.848
1837	0.8471
1846	0.846
1855	0.846
1864	0.8474
1873	0.8483
1882	0.8483
1891	0.8475
1900	0.8475
1909	0.8475
1918	0.8481
1927	0.8491
1936	0.85
1945	0.8505
1954	0.8504
1963	0.8503
1972	0.8504
1981	0.8504
1990	0.8497
1999	0.8492
2008	0.8736
2017	0.8734
2026	0.8728
2035	0.8723
2044	0.8721
2053	0.8721
2062	0.8721
2071	0.8728
2080	0.8768
2089	0.8795
2098	0.8798
2107	0.8795
2116	0.8791
2125	0.8785
2134	0.8787
2143	0.8787
2152	0.8771
2161	0.8762
2170	0.8791
2179	0.88
2188	0.8791
2197	0.8777
2206	0.8762
2215	0.8741
2224	0.872
2233	0.8701
2242	0.8683
2251	0.8665
2260	0.8633
2269	0.8592
2278	0.8559
2287	0.8532
2296	0.8525
2305	0.8545
2314	0.8575
2323	0.8584
2332	0.8577
2341	0.8584
2350	0.86
2359	0.8644
2368	0.8625
2377	0.8602
2386	0.8588
2395	0.8577
2404	0.8575
2413	0.8575
2422	0.858
2431	0.8575
2440	0.8571
2449	0.8559
2458	0.8546
2467	0.8531
2476	0.8516
2485	0.8497
2494	0.8478
2503	0.8456
2512	0.842
2521	0.8383
2530	0.8344
2539	0.8302
2548	0.8261
2557	0.8218
2566	0.8171
2575	0.8121
2584	0.8072
2593	0.8021
2602	0.7968
2611	0.7915
2620	0.788
2629	0.7846
2638	0.7811
2647	0.7775
2656	0.7732
2665	0.7688
2674	0.7643
2683	0.7636
2692	0.7639
2701	0.763
2710	0.7558
2719	0.7465
2728	0.7355
2737	0.7347
2746	0.746
2755	0.7511
2764	0.7448
2773	0.736
2782	0.7225
2791	0.7051
2800	0.6888
2809	0.6658
2818	0.6352
2827	0.5979
2836	0.5568
2845	0.4795
2854	0.2537
2863	0.1155
2872	0.0706
2881	0.097
2890	0.1396
2899	0.1346
2908	0.1037
2917	0.0532
2926	0.0235
2935	0.0175
2944	0.0576
2953	0.0413
2962	0.0135
2971	0.0193
2980	0.0544
2989	0.2002
2998	0.4287
3007	0.5728
3016	0.6475
3025	0.6824
3034	0.696
3043	0.7051
3052	0.7115
3061	0.7137
3070	0.7135
3079	0.7114
3088	0.7056
3097	0.6976
3106	0.6875
3115	0.6768
3124	0.6648
3133	0.6511
3142	0.6325
3151	0.612
3160	0.5935
3169	0.5742
3178	0.5541
3187	0.5341
3196	0.5141
3205	0.4948
3214	0.4753
3223	0.4546
3232	0.4327
3241	0.4097
3250	0.3853
3259	0.3612
3268	0.338
3277	0.3169
3286	0.2974
3295	0.2785
3304	0.2573
3313	0.2403
3322	0.23
3331	0.2217
3340	0.215
3349	0.2095
3358	0.2089
3367	0.2107
3376	0.214
3385	0.2184
3394	0.2237
3403	0.2314
3412	0.2421
3421	0.2569
3430	0.2756
3439	0.296
3448	0.3144
3457	0.3321
3466	0.3545
3475	0.3749
3484	0.3989
3493	0.422
3502	0.445
3511	0.4689
3520	0.4971
3529	0.5404
3538	0.5969
3547	0.6451
3556	0.6848
3565	0.7182
3574	0.7444
3583	0.7611
3592	0.7588
3601	0.7495
3610	0.7268
3619	0.7271
3628	0.7775
3637	0.8384
3646	0.8502
3655	0.8497
3664	0.8458
3673	0.8532
3682	0.8663
3691	0.8736
3700	0.8782
3709	0.8813
3718	0.8848
3727	0.8895
3736	0.892
3745	0.8873
3754	0.8871
3763	0.8877
3772	0.8885
3781	0.8894
3790	0.8903
