Infrared Spectrum: BENZALDEHYDE, 2-BROMO-
Formula: C7 H5 Br O
CAS: 6630-33-7
State: SOLUTION (10% IN CCl4 FOR 3800-1333, 10% IN CS2 FOR 1333-450 CM^-^1)
Class: COBLENTZ III
Instrument: DOW KBr FOREPRISM-GRATING
Instrument parameters: BLAZED AT 3.5, 12.0, 20.0 MICRON, CHANGED AT 5.0, 7.5, 14.9 MICRON
Sampling: TRANSMISSION
Path length: 0.011, 0.011 CM
Resolution: 4
Origin: DOW CHEMICAL COMPANY
1/CM	TRANSMITTANCE
447.43	0.993
456.192	0.991
464.953	0.984
473.715	0.99
482.477	0.975
491.238	1.034
500	1.041
508.762	1.045
517.523	1.045
526.285	1.049
535.047	1.047
543.809	1.047
552.57	1.047
561.332	1.046
570.094	1.049
578.855	1.042
587.617	1.039
596.379	1.03
605.14	1.021
613.902	1.005
622.664	0.935
631.425	0.495
640.187	0.923
648.949	0.923
657.71	0.941
666.472	0.957
675.234	0.906
683.996	0.778
692.757	0.641
701.519	0.911
710.281	0.943
719.042	0.938
727.804	0.915
736.566	0.874
745.327	0.578
754.089	0.009
762.851	0.4581
771.612	0.871
780.374	0.922
789.136	0.938
797.897	0.941
806.659	0.909
815.421	0.705
824.182	0.1981
832.944	0.835
841.706	0.849
850.468	0.801
859.229	0.782
867.991	0.793
876.753	0.861
885.514	0.928
894.276	0.964
903.038	0.984
911.799	0.987
920.561	0.986
929.323	0.984
938.084	0.978
946.846	0.941
955.608	0.934
964.369	0.956
973.131	0.969
981.893	0.965
990.654	0.954
999.416	0.896
1008.18	0.816
1016.94	0.764
1025.7	0.487
1034.46	0.692
1043.22	0.3509
1051.99	0.894
1060.75	0.952
1069.51	0.968
1078.27	0.969
1087.03	0.965
1095.79	0.954
1104.56	0.897
1113.32	0.871
1122.08	0.942
1130.84	0.932
1139.6	0.942
1148.36	0.93
1157.13	0.835
1165.89	0.909
1174.65	0.894
1183.41	0.749
1192.17	0.504
1200.93	0.192
1209.7	0.867
1218.46	0.937
1227.22	0.948
1235.98	0.922
1244.74	0.908
1253.51	0.833
1262.27	0.2119
1271.03	0.689
1279.79	0.853
1288.55	0.812
1297.31	0.852
1306.08	0.932
1314.84	0.971
1323.6	0.978
1332.36	0.976
1341.12	0.976
1349.88	0.963
1358.65	0.957
1367.41	0.943
1376.17	0.891
1384.93	0.705
1393.69	0.48
1402.45	0.891
1411.22	0.898
1419.98	0.861
1428.74	0.708
1437.5	0.537
1446.26	0.491
1455.02	0.748
1463.79	0.6791
1472.55	0.746
1481.31	0.89
1490.07	0.902
1498.83	0.863
1507.59	0.816
1516.36	0.757
1525.12	0.709
1533.88	0.645
1542.64	0.529
1551.4	0.481
1560.16	0.522
1568.93	0.324
1577.69	0.525
1586.45	0.099
1595.21	0.5301
1603.97	0.812
1612.73	0.871
1621.5	0.857
1630.26	0.889
1639.02	0.818
1647.78	0.803
1656.54	0.839
1665.3	0.782
1674.07	0.77
1682.83	0.647
1691.59	0.224
1700.35	0.008
1709.11	0.0991
1717.87	0.577
1726.64	0.689
1735.4	0.823
1744.16	0.879
1752.92	0.917
1761.68	0.952
1770.44	0.968
1779.21	0.976
1787.97	0.968
1796.73	0.974
1805.49	0.964
1814.25	0.946
1823.01	0.934
1831.78	0.971
1840.54	0.976
1849.3	0.957
1858.06	0.96
1866.82	0.967
1875.58	0.979
1884.35	0.982
1893.11	0.982
1901.87	0.976
1910.63	0.974
1919.39	0.983
1928.15	0.969
1936.92	0.938
1945.68	0.975
1954.44	0.974
1963.2	0.964
1971.96	0.958
1980.72	0.975
1989.49	0.979
1998.25	0.99
2007.01	0.997
2015.77	1.002
2024.53	1.01
2033.3	1.025
2042.06	1.027
2050.82	1.027
2059.58	1.027
2068.34	1.028
2077.1	1.027
2085.87	1.023
2094.63	1.032
2103.39	1.034
2112.15	1.035
2120.91	1.032
2129.67	1.031
2138.44	1.031
2147.2	1.03
2155.96	1.028
2164.72	1.028
2173.48	1.03
2182.24	1.031
2191.01	1.03
2199.77	1.028
2208.53	1.027
2217.29	1.025
2226.05	1.024
2234.81	1.0229
2243.58	1.02
2252.34	1.021
2261.1	1.012
2269.86	1.0039
2278.62	1
2287.38	0.9981
2296.15	1.001
2304.91	1.0011
2313.67	1.004
2322.43	1.008
2331.19	1.016
2339.95	1.02
2348.72	1.0231
2357.48	1.0268
2366.24	1.027
2375	1.0198
2383.76	1.0149
2392.52	1.012
2401.29	1.016
2410.05	1.015
2418.81	1.0149
2427.57	1.0172
2436.33	1.0191
2445.09	1.0169
2453.86	1.0129
2462.62	1.0102
2471.38	1.013
2480.14	1.0089
2488.9	1.013
2497.66	1.01
2506.43	1.01
2515.19	1.0099
2523.95	1.0078
2532.71	1.005
2541.47	1.004
2550.23	1.0022
2559	1.0019
2567.76	0.998
2576.52	1
2585.28	1.001
2594.04	1
2602.8	1.004
2611.57	0.9979
2620.33	0.9949
2629.09	0.9912
2637.85	0.997
2646.61	0.994
2655.37	0.9928
2664.14	0.993
2672.9	0.993
2681.66	0.993
2690.42	0.9909
2699.18	0.989
2707.94	0.986
2716.71	0.9754
2725.47	0.9626
2734.23	0.9375
2742.99	0.8867
2751.75	0.8539
2760.51	0.9366
2769.28	0.9697
2778.04	0.9763
2786.8	0.983
2795.56	0.9817
2804.32	0.9705
2813.09	0.9566
2821.85	0.932
2830.61	0.8936
2839.37	0.8713
2848.13	0.7774
2856.89	0.7558
2865.66	0.634
2874.42	0.6838
2883.18	0.883
2891.94	0.9429
2900.7	0.9631
2909.46	0.9711
2918.23	0.9843
2926.99	0.984
2935.75	0.9798
2944.51	0.978
2953.27	0.9788
2962.03	0.9684
2970.8	0.9625
2979.56	0.9568
2988.32	0.953
2997.08	0.953
3005.84	0.954
3014.6	0.9455
3023.37	0.9355
3032.13	0.943
3040.89	0.942
3049.65	0.9343
3058.41	0.9049
3067.17	0.841
3075.94	0.8122
3084.7	0.9092
3093.46	0.9329
3102.22	0.9535
3110.98	0.9614
3119.74	0.965
3128.51	0.9626
3137.27	0.949
3146.03	0.9648
3154.79	0.972
3163.55	0.9742
3172.31	0.9752
3181.08	0.979
3189.84	0.9792
3198.6	0.9816
3207.36	0.98
3216.12	0.982
3224.88	0.986
3233.65	0.987
3242.41	0.989
3251.17	0.99
3259.93	0.9886
3268.69	0.9862
3277.45	0.99
3286.22	0.991
3294.98	0.99
3303.74	0.989
3312.5	0.991
3321.26	0.99
3330.02	0.9884
3338.79	0.983
3347.55	0.9672
3356.31	0.976
3365.07	0.975
3373.83	0.9665
3382.59	0.9405
3391.36	0.9341
3400.12	0.9673
3408.88	0.9877
3417.64	0.995
3426.4	0.997
3435.16	0.997
3443.93	0.997
3452.69	0.997
3461.45	0.997
3470.21	0.9965
3478.97	0.995
3487.73	0.9938
3496.5	0.991
3505.26	0.99
3514.02	0.9898
3522.78	0.987
3531.54	0.986
3540.3	0.9875
3549.07	0.9897
3557.83	0.989
3566.59	0.99
3575.35	0.9893
3584.11	0.991
3592.88	0.991
3601.64	0.993
3610.4	0.991
3619.16	0.991
3627.92	0.9937
3636.68	0.994
3645.45	0.997
3654.21	0.9947
3662.97	0.994
3671.73	0.995
3680.49	0.9907
3689.25	0.99
3698.02	0.991
3706.78	0.989
3715.54	0.9943
3724.3	1.001
3733.06	1.0053
3741.82	1.0047
3750.59	0.9977
3759.35	0.995
3768.11	0.994
3776.87	0.995
3785.63	0.997
3794.39	1.001
