Infrared Spectrum: 2-PYRAZOLIN-5-ONE, 3-TERT-BUTYL-1-PHENYL-
Formula: C13 H16 N2 O
CAS: 6631-89-6
State: SOLID (PELLET)
Class: COBLENTZ
Instrument: Not specified, most likely a prism, grating, or hybrid spectrometer.
Sampling: TRANSMISSION
Resolution: 4
Origin: TENNESSEE EASTMAN COMPANY, RESEARCH LABORATORIES
MICROMETERS	TRANSMITTANCE
2.02	0.779
2.05986	0.769
2.09971	0.772
2.13957	0.772
2.17943	0.777
2.21929	0.779
2.25914	0.786
2.299	0.787
2.33886	0.787
2.37871	0.791
2.41857	0.794
2.45843	0.796
2.49829	0.799
2.53814	0.799
2.578	0.799
2.61786	0.8
2.65771	0.802
2.69757	0.802
2.73743	0.799
2.77729	0.782
2.81714	0.771
2.857	0.752
2.89686	0.731
2.93672	0.733
2.97657	0.761
3.01643	0.789
3.05629	0.796
3.09614	0.799
3.136	0.802
3.17586	0.804
3.21572	0.807
3.25557	0.786
3.29543	0.774
3.33529	0.681
3.37514	0.517
3.415	0.585
3.45486	0.674
3.49472	0.781
3.53457	0.799
3.57443	0.8
3.61429	0.8
3.65414	0.8
3.694	0.802
3.73386	0.804
3.77372	0.804
3.81357	0.805
3.85343	0.809
3.89329	0.812
3.93314	0.824
3.973	0.832
4.01286	0.84
4.05272	0.845
4.09257	0.855
4.13243	0.865
4.17229	0.87
4.21215	0.873
4.252	0.872
4.29186	0.87
4.33172	0.873
4.37157	0.88
4.41143	0.893
4.45129	0.898
4.49115	0.907
4.531	0.908
4.57086	0.91
4.61072	0.913
4.65057	0.917
4.69043	0.92
4.73029	0.922
4.77015	0.927
4.81	0.93
4.84986	0.938
4.88972	0.943
4.92957	0.94
4.96943	0.94
5.00929	0.945
5.04915	0.943
5.089	0.936
5.12886	0.93
5.16872	0.935
5.20857	0.938
5.24843	0.936
5.28829	0.936
5.32815	0.933
5.368	0.933
5.40786	0.935
5.44772	0.936
5.48757	0.936
5.52743	0.925
5.56729	0.908
5.60715	0.91
5.647	0.9
5.68686	0.849
5.72672	0.739
5.76658	0.346
5.80643	0.067
5.84629	0.407
5.88615	0.751
5.926	0.791
5.96586	0.8
6.00572	0.819
6.04558	0.817
6.08543	0.754
6.12529	0.636
6.16515	0.666
6.205	0.575
6.24486	0.242
6.28472	0.533
6.32458	0.635
6.36443	0.708
6.40429	0.762
6.44415	0.809
6.484	0.817
6.52386	0.827
6.56372	0.766
6.60358	0.402
6.64343	0.131
6.68329	0.524
6.72315	0.568
6.763	0.674
6.80286	0.66
6.84272	0.628
6.88258	0.774
6.92243	0.809
6.96229	0.839
7.00215	0.83
7.04201	0.802
7.08186	0.741
7.12172	0.655
7.16158	0.641
7.20143	0.542
7.24129	0.527
7.28115	0.587
7.32101	0.407
7.36086	0.233
7.40072	0.533
7.44058	0.565
7.48043	0.626
7.52029	0.346
7.56015	0.116
7.60001	0.255
7.63986	0.555
7.67972	0.749
7.71958	0.83
7.75943	0.878
7.79929	0.895
7.83915	0.91
7.87901	0.913
7.91886	0.912
7.95872	0.865
7.99858	0.734
8.03843	0.802
8.07829	0.847
8.11815	0.859
8.15801	0.845
8.19786	0.877
8.23772	0.888
8.27758	0.844
8.31744	0.819
8.35729	0.553
8.39715	0.603
8.43701	0.792
8.47686	0.86
8.51672	0.845
8.55658	0.893
8.59644	0.912
8.63629	0.905
8.67615	0.905
8.71601	0.935
8.75586	0.936
8.79572	0.938
8.83558	0.867
8.87544	0.815
8.91529	0.87
8.95515	0.88
8.99501	0.86
9.03486	0.849
9.07472	0.605
9.11458	0.611
9.15444	0.854
9.19429	0.908
9.23415	0.938
9.27401	0.943
9.31386	0.943
9.35372	0.925
9.39358	0.855
9.43344	0.922
9.47329	0.953
9.51315	0.956
9.55301	0.961
9.59286	0.951
9.63272	0.923
9.67258	0.852
9.71244	0.844
9.75229	0.905
9.79215	0.94
9.83201	0.948
9.87187	0.95
9.91172	0.95
9.95158	0.953
9.99144	0.953
10.0313	0.956
10.0712	0.961
10.111	0.97
10.1509	0.973
10.1907	0.973
10.2306	0.973
10.2704	0.973
10.3103	0.973
10.3502	0.971
10.39	0.953
10.4299	0.923
10.4697	0.945
10.5096	0.968
10.5494	0.976
10.5893	0.975
10.6292	0.966
10.669	0.965
10.7089	0.965
10.7487	0.963
10.7886	0.963
10.8284	0.945
10.8683	0.855
10.9082	0.85
10.948	0.887
10.9879	0.817
11.0277	0.597
11.0676	0.543
11.1074	0.809
11.1473	0.9
11.1872	0.94
11.227	0.97
11.2669	0.981
11.3067	0.98
11.3466	0.98
11.3864	0.981
11.4263	0.98
11.4662	0.98
11.506	0.98
11.5459	0.981
11.5857	0.985
11.6256	0.986
11.6654	0.988
11.7053	0.983
11.7452	0.976
11.785	0.976
11.8249	0.968
11.8647	0.951
11.9046	0.917
11.9444	0.799
11.9843	0.777
12.0242	0.774
12.064	0.724
12.1039	0.85
12.1437	0.91
12.1836	0.94
12.2234	0.951
12.2633	0.953
12.3032	0.958
12.343	0.951
12.3829	0.951
12.4227	0.953
12.4626	0.953
12.5024	0.941
12.5423	0.912
12.5822	0.883
12.622	0.842
12.6619	0.82
12.7017	0.849
12.7416	0.877
12.7814	0.897
12.8213	0.915
12.8612	0.92
12.901	0.922
12.9409	0.918
12.9807	0.883
13.0206	0.791
13.0604	0.57
13.1003	0.33
13.1402	0.374
13.18	0.56
13.2199	0.535
13.2597	0.336
13.2996	0.333
13.3394	0.608
13.3793	0.774
13.4192	0.85
13.459	0.88
13.4989	0.908
13.5387	0.92
13.5786	0.928
13.6184	0.935
13.6583	0.936
13.6982	0.938
13.738	0.938
13.7779	0.938
13.8177	0.936
13.8576	0.93
13.8974	0.93
13.9373	0.933
13.9772	0.935
14.017	0.935
14.0569	0.935
14.0967	0.935
14.1366	0.93
14.1764	0.915
14.2163	0.883
14.2562	0.845
14.296	0.784
14.3359	0.691
14.3757	0.562
14.4156	0.446
14.4554	0.411
14.4953	0.472
14.5352	0.59
14.575	0.698
14.6149	0.746
14.6547	0.772
14.6946	0.774
14.7344	0.771
14.7743	0.749
14.8142	0.737
14.854	0.734
14.8939	0.741
14.9337	0.741
14.9736	0.736
15.0134	0.734
15.0533	0.749
15.0932	0.762
15.133	0.761
15.1729	0.749
15.2127	0.729
15.2526	0.714
15.2924	0.703
15.3323	0.691
15.3722	0.678
15.412	0.663
15.4519	0.656
15.4917	0.646
15.5316	0.638
15.5714	0.628
15.6113	0.623
15.6512	0.61
15.691	0.6
15.7309	0.59
15.7707	0.583
15.8106	0.575
15.8504	0.565
15.8903	0.558
15.9302	0.553
15.97	0.547
