Infrared Spectrum: 2,4-DICHLOROPHENYL-N,N-DIMETHYL CARBAMATE
Formula: C9 H9 Cl2 N O2
CAS: 6639-32-3
State: SOLUTION (10% CCl4 FOR 5000-1330, 10% CS2 FOR 1330-625 CM^-^1)
Class: COBLENTZ
Instrument: Not specified, most likely a prism, grating, or hybrid spectrometer.
Sampling: TRANSMISSION
Path length: 0.0120 CM, 0.0111 CM
Resolution: 4
Origin: DOW CHEMICAL COMPANY
MICROMETERS	TRANSMITTANCE
2.047	0.883
2.08706	0.88
2.12711	0.882
2.16717	0.878
2.20722	0.867
2.24728	0.867
2.28733	0.87
2.32739	0.872
2.36744	0.872
2.4075	0.88
2.44755	0.887
2.48761	0.89
2.52766	0.892
2.56772	0.898
2.60777	0.9
2.64783	0.9
2.68788	0.898
2.72794	0.893
2.76799	0.88
2.80805	0.878
2.8481	0.867
2.88816	0.859
2.92821	0.867
2.96827	0.87
3.00832	0.873
3.04838	0.87
3.08844	0.872
3.12849	0.872
3.16855	0.842
3.2086	0.829
3.24866	0.825
3.28871	0.814
3.32877	0.756
3.36882	0.517
3.40888	0.633
3.44893	0.719
3.48899	0.797
3.52904	0.837
3.5691	0.878
3.60915	0.885
3.64921	0.893
3.68926	0.902
3.72932	0.903
3.76937	0.905
3.80943	0.903
3.84948	0.903
3.88954	0.902
3.92959	0.897
3.96965	0.897
4.0097	0.9
4.04976	0.898
4.08982	0.905
4.12987	0.905
4.16993	0.905
4.20998	0.9
4.25004	0.892
4.29009	0.883
4.33015	0.882
4.3702	0.892
4.41026	0.9
4.45031	0.905
4.49037	0.91
4.53042	0.91
4.57048	0.903
4.61053	0.9
4.65059	0.898
4.69064	0.897
4.7307	0.895
4.77075	0.897
4.81081	0.897
4.85086	0.907
4.89092	0.902
4.93097	0.89
4.97103	0.87
5.01108	0.89
5.05114	0.892
5.0912	0.9
5.13125	0.905
5.17131	0.903
5.21136	0.897
5.25142	0.88
5.29147	0.855
5.33153	0.852
5.37158	0.875
5.41164	0.883
5.45169	0.878
5.49175	0.839
5.5318	0.799
5.57186	0.757
5.61191	0.704
5.65197	0.505
5.69202	0.22
5.73208	0.044
5.77213	0.082
5.81219	0.334
5.85224	0.608
5.8923	0.681
5.93235	0.771
5.97241	0.802
6.01247	0.802
6.05252	0.807
6.09258	0.82
6.13263	0.809
6.17269	0.771
6.21274	0.714
6.2528	0.514
6.29285	0.417
6.33291	0.449
6.37296	0.475
6.41302	0.449
6.45307	0.422
6.49313	0.441
6.53318	0.462
6.57324	0.464
6.61329	0.452
6.65335	0.381
6.6934	0.313
6.73346	0.149
6.77351	0.066
6.81357	0.165
6.85362	0.205
6.89368	0.197
6.93373	0.393
6.97379	0.585
7.01385	0.507
7.0539	0.379
7.09396	0.321
7.13401	0.212
7.17407	0.041
7.21412	0.038
7.25418	0.16
7.29423	0.454
7.33429	0.64
7.37434	0.729
7.4144	0.769
7.45445	0.787
7.49451	0.792
7.53456	0.799
7.57462	0.792
7.61467	0.791
7.65473	0.792
7.69478	0.769
7.73484	0.737
7.77489	0.653
7.81495	0.553
7.855	0.542
7.89506	0.51
7.93511	0.336
7.97517	0.117
8.01523	0.117
8.05528	0.215
8.09534	0.149
8.13539	0.046
8.17545	0.147
8.2155	0.401
8.25556	0.515
8.29561	0.545
8.33567	0.538
8.37572	0.5
8.41578	0.446
8.45583	0.354
8.49589	0.243
8.53594	0.116
8.576	0.043
8.61605	0.019
8.65611	0.018
8.69616	0.059
8.73622	0.102
8.77627	0.087
8.81633	0.097
8.85638	0.303
8.89644	0.436
8.93649	0.517
8.97655	0.538
9.01661	0.525
9.05666	0.411
9.09672	0.134
9.13677	0.082
9.17683	0.419
9.21688	0.598
9.25694	0.63
9.29699	0.65
9.33705	0.618
9.3771	0.527
9.41716	0.339
9.45721	0.222
9.49727	0.545
9.53732	0.668
9.57738	0.721
9.61743	0.756
9.65749	0.777
9.69754	0.786
9.7376	0.792
9.77765	0.792
9.81771	0.769
9.85776	0.724
9.89782	0.592
9.93787	0.432
9.97793	0.363
10.018	0.552
10.058	0.686
10.0981	0.774
10.1382	0.809
10.1782	0.83
10.2183	0.847
10.2583	0.854
10.2984	0.86
10.3384	0.864
10.3785	0.867
10.4185	0.87
10.4586	0.87
10.4986	0.87
10.5387	0.87
10.5788	0.865
10.6188	0.85
10.6589	0.842
10.6989	0.852
10.739	0.867
10.779	0.87
10.8191	0.873
10.8591	0.873
10.8992	0.873
10.9393	0.87
10.9793	0.867
11.0194	0.86
11.0594	0.855
11.0995	0.85
11.1395	0.84
11.1796	0.83
11.2196	0.812
11.2597	0.799
11.2998	0.774
11.3398	0.749
11.3799	0.719
11.4199	0.658
11.46	0.552
11.5	0.386
11.5401	0.174
11.5801	0.097
11.6202	0.19
11.6602	0.247
11.7003	0.325
11.7404	0.437
11.7804	0.514
11.8205	0.592
11.8605	0.656
11.9006	0.701
11.9406	0.733
11.9807	0.757
12.0207	0.769
12.0608	0.774
12.1009	0.779
12.1409	0.776
12.181	0.769
12.221	0.754
12.2611	0.741
12.3011	0.711
12.3412	0.673
12.3812	0.611
12.4213	0.52
12.4614	0.401
12.5014	0.29
12.5415	0.339
12.5815	0.52
12.6216	0.593
12.6616	0.645
12.7017	0.693
12.7417	0.721
12.7818	0.734
12.8218	0.739
12.8619	0.731
12.902	0.704
12.942	0.656
12.9821	0.585
13.0221	0.548
13.0622	0.525
13.1022	0.462
13.1423	0.361
13.1823	0.278
13.2224	0.25
13.2625	0.258
13.3025	0.28
13.3426	0.28
13.3826	0.263
13.4227	0.278
13.4627	0.363
13.5028	0.466
13.5428	0.557
13.5829	0.616
13.623	0.653
13.663	0.679
13.7031	0.701
13.7431	0.709
13.7832	0.716
13.8232	0.723
13.8633	0.726
13.9033	0.728
13.9434	0.729
13.9835	0.716
14.0235	0.708
14.0636	0.708
14.1036	0.713
14.1437	0.714
14.1837	0.711
14.2238	0.701
14.2638	0.686
14.3039	0.673
14.3439	0.668
14.384	0.666
14.4241	0.669
14.4641	0.673
14.5042	0.673
14.5442	0.666
14.5843	0.661
14.6243	0.655
14.6644	0.648
14.7044	0.638
14.7445	0.631
14.7846	0.623
14.8246	0.613
14.8647	0.605
14.9047	0.595
14.9448	0.573
14.9848	0.54
15.0249	0.499
15.0649	0.47
15.105	0.466
15.1451	0.47
15.1851	0.484
15.2252	0.492
15.2652	0.492
15.3053	0.49
15.3453	0.487
15.3854	0.485
15.4254	0.482
15.4655	0.48
15.5055	0.479
15.5456	0.475
15.5857	0.472
15.6257	0.469
15.6658	0.467
15.7058	0.467
15.7459	0.461
15.7859	0.457
15.826	0.454
15.866	0.447
15.9061	0.444
