Infrared Spectrum: BARBITURIC ACID
Formula: C4 H4 N2 O3
CAS: 67-52-7
State: SOLID (SPLIT MULL)
Melting point: 245 C
Class: COBLENTZ III
Instrument: DOW KBr FOREPRISM-GRATING
Instrument parameters: BLAZED AT 3.5, 12.0, 20.0 MICRON AND CHANGED AT 5.0, 7.5, 14.9 MICRON
Sampling: TRANSMISSION
Resolution: 2
Origin: DOW CHEMICAL COMPANY
1/CM	TRANSMITTANCE
449	0.7921
458	0.7883
467	0.728
476	0.6336
485	0.7787
494	0.7071
503	0.365
512	0.6561
521	0.7771
530	0.8124
539	0.7876
548	0.718
557	0.8454
566	0.8738
575	0.8803
584	0.882
593	0.8777
602	0.872
611	0.838
620	0.8739
629	0.8131
638	0.7551
647	0.8577
656	0.7739
665	0.874
674	0.8318
683	0.8282
692	0.8233
701	0.8131
710	0.7847
719	0.7317
728	0.7317
737	0.7391
746	0.7378
755	0.7265
764	0.6526
773	0.5931
782	0.5575
791	0.5143
800	0.473
809	0.4662
818	0.5388
827	0.614
836	0.6637
845	0.6978
854	0.7255
863	0.7525
872	0.7714
881	0.7784
890	0.7819
899	0.7861
908	0.7821
917	0.7621
926	0.7243
935	0.6831
944	0.7668
953	0.775
962	0.7876
971	0.7901
980	0.7905
989	0.7905
998	0.788
1007	0.7815
1016	0.7607
1025	0.6994
1034	0.622
1043	0.7434
1052	0.7808
1061	0.7785
1070	0.7751
1079	0.7734
1088	0.7732
1097	0.7711
1106	0.7684
1115	0.7689
1124	0.7615
1133	0.7515
1142	0.7389
1151	0.7251
1160	0.7062
1169	0.6387
1178	0.6472
1187	0.6612
1196	0.6543
1205	0.6772
1214	0.6762
1223	0.6304
1232	0.4838
1241	0.3782
1250	0.2856
1259	0.3077
1268	0.6471
1277	0.6291
1286	0.5117
1295	0.6219
1304	0.6166
1313	0.5628
1322	0.4796
1331	0.365
1340	0.2418
1349	0.2225
1358	0.2439
1367	0.1783
1376	0.2179
1385	0.2133
1394	0.4747
1403	0.5244
1412	0.3434
1421	0.2206
1430	0.2979
1439	0.4558
1448	0.5301
1457	0.4855
1466	0.6619
1475	0.7971
1484	0.8097
1493	0.7995
1502	0.7821
1511	0.7706
1520	0.7647
1529	0.7436
1538	0.7389
1547	0.7431
1556	0.7603
1565	0.7508
1574	0.7437
1583	0.7241
1592	0.7078
1601	0.6905
1610	0.668
1619	0.6411
1628	0.609
1637	0.5602
1646	0.4886
1655	0.3896
1664	0.293
1673	0.1498
1682	0.0636
1691	0.035
1700	0.0316
1709	0.0342
1718	0.0367
1727	0.0584
1736	0.1912
1745	0.16
1754	0.1611
1763	0.2173
1772	0.4524
1781	0.6262
1790	0.7203
1799	0.7655
1808	0.7961
1817	0.8125
1826	0.8233
1835	0.83
1844	0.8321
1853	0.8228
1862	0.8267
1871	0.8414
1880	0.8531
1889	0.8584
1898	0.8584
1907	0.8604
1916	0.8649
1925	0.8709
1934	0.8761
1943	0.8787
1952	0.8856
1961	0.8805
1970	0.8784
1979	0.8803
1988	0.8836
1997	0.9043
2006	0.9023
2015	0.9002
2024	0.8984
2033	0.8949
2042	0.8911
2051	0.8868
2060	0.8815
2069	0.8795
2078	0.8839
2087	0.8875
2096	0.8899
2105	0.8903
2114	0.8891
2123	0.8877
2132	0.8865
2141	0.8849
2150	0.8828
2159	0.8805
2168	0.879
2177	0.878
2186	0.8774
2195	0.8756
2204	0.8736
2213	0.8714
2222	0.8692
2231	0.8668
2240	0.8638
2249	0.8606
2258	0.8577
2267	0.8551
2276	0.8525
2285	0.8521
2294	0.8511
2303	0.8468
2312	0.8454
2321	0.8483
2330	0.8489
2339	0.8418
2348	0.844
2357	0.8471
2366	0.8463
2375	0.8431
2384	0.841
2393	0.8412
2402	0.8421
2411	0.8421
2420	0.8402
2429	0.835
2438	0.8281
2447	0.8228
2456	0.8235
2465	0.8259
2474	0.8293
2483	0.8325
2492	0.8358
2501	0.8391
2510	0.8423
2519	0.8421
2528	0.8386
2537	0.8345
2546	0.8308
2555	0.8282
2564	0.8261
2573	0.8239
2582	0.8221
2591	0.8202
2600	0.8184
2609	0.8171
2618	0.8162
2627	0.8162
2636	0.8115
2645	0.8064
2654	0.8017
2663	0.7995
2672	0.8005
2681	0.8011
2690	0.8008
2699	0.7975
2708	0.7949
2717	0.7914
2726	0.7861
2735	0.7799
2744	0.7705
2753	0.7608
2762	0.7504
2771	0.7376
2780	0.7165
2789	0.6968
2798	0.6822
2807	0.6676
2816	0.6517
2825	0.6353
2834	0.6204
2843	0.6053
2852	0.592
2861	0.5686
2870	0.5417
2879	0.5505
2888	0.6023
2897	0.6555
2906	0.6676
2915	0.6705
2924	0.6626
2933	0.6518
2942	0.6408
2951	0.627
2960	0.6121
2969	0.6006
2978	0.6002
2987	0.5934
2996	0.5812
3005	0.5662
3014	0.5429
3023	0.5106
3032	0.4873
3041	0.4615
3050	0.4133
3059	0.363
3068	0.3364
3077	0.3103
3086	0.2829
3095	0.2737
3104	0.285
3113	0.3085
3122	0.349
3131	0.3838
3140	0.3903
3149	0.3821
3158	0.3654
3167	0.351
3176	0.3386
3185	0.3275
3194	0.3177
3203	0.3097
3212	0.3208
3221	0.3379
3230	0.3657
3239	0.4064
3248	0.4619
3257	0.5056
3266	0.5498
3275	0.6012
3284	0.6618
3293	0.7011
3302	0.7425
3311	0.7781
3320	0.7999
3329	0.8153
3338	0.8249
3347	0.8311
3356	0.8357
3365	0.8368
3374	0.8365
3383	0.835
3392	0.8325
3401	0.8296
3410	0.8267
3419	0.8245
3428	0.8228
3437	0.8211
3446	0.8188
3455	0.8161
3464	0.8134
3473	0.8105
3482	0.8115
3491	0.8141
3500	0.8128
3509	0.8106
3518	0.8081
3527	0.8051
3536	0.8044
3545	0.805
3554	0.8078
3563	0.8091
3572	0.8105
3581	0.8121
3590	0.8132
3599	0.8134
3608	0.8128
3617	0.811
3626	0.809
3635	0.8128
3644	0.8124
3653	0.8107
3662	0.8098
3671	0.8085
3680	0.8071
3689	0.805
3698	0.8034
3707	0.8021
3716	0.8015
3725	0.801
3734	0.8003
3743	0.7988
3752	0.7971
3761	0.7954
3770	0.7938
3779	0.7933
3788	0.7871
