Infrared Spectrum: PYRAZOLE, 3,5-DIMETHYL-
Formula: C5 H8 N2
CAS: 67-51-6
State: SOLID (1 mg / 650 mg KBr DISC)
Class: COBLENTZ III
Instrument: PERKIN-ELMER 521 (GRATING)
Instrument parameters: GRATING CHANGES AT 2000, 630 CM^-^1
Sampling: TRANSMISSION
Resolution: 4
Origin: SOUTHERN RES. INSTITUTE
1/CM	TRANSMITTANCE
246.627	0.505
255.777	0.53
264.926	0.581
274.076	0.662
283.226	0.72
292.376	0.766
301.525	0.801
310.675	0.83
319.825	0.851
328.975	0.862
338.124	0.865
347.274	0.871
356.424	0.895
365.574	0.912
374.723	0.916
383.873	0.913
393.023	0.902
402.173	0.771
411.322	0.702
420.472	0.891
429.622	0.952
438.771	0.953
447.921	0.949
457.071	0.947
466.221	0.944
475.37	0.943
484.52	0.942
493.67	0.94
502.82	0.938
511.969	0.935
521.119	0.932
530.269	0.93
539.419	0.926
548.568	0.918
557.718	0.915
566.868	0.911
576.018	0.909
585.167	0.908
594.317	0.889
603.467	0.905
612.616	0.879
621.766	0.874
630.916	0.87
640.066	0.867
649.215	0.864
658.365	0.83
667.515	0.672
676.665	0.864
685.814	0.862
694.964	0.856
704.114	0.846
713.264	0.828
722.413	0.794
731.563	0.545
740.713	0.477
749.863	0.808
759.012	0.793
768.162	0.729
777.312	0.211
786.461	0.613
795.611	0.672
804.761	0.628
813.911	0.555
823.06	0.442
832.21	0.305
841.36	0.21
850.51	0.215
859.659	0.31
868.809	0.405
877.959	0.542
887.109	0.622
896.258	0.667
905.408	0.704
914.558	0.718
923.708	0.727
932.857	0.729
942.007	0.733
951.157	0.735
960.307	0.732
969.456	0.71
978.606	0.669
987.756	0.65
996.905	0.606
1006.06	0.217
1015.2	0.482
1024.35	0.143
1033.5	0.467
1042.65	0.655
1051.8	0.702
1060.95	0.769
1070.1	0.786
1079.25	0.786
1088.4	0.79
1097.55	0.793
1106.7	0.788
1115.85	0.779
1125	0.775
1134.15	0.757
1143.3	0.596
1152.45	0.499
1161.6	0.699
1170.75	0.808
1179.9	0.808
1189.05	0.805
1198.2	0.802
1207.35	0.797
1216.5	0.778
1225.65	0.761
1234.8	0.754
1243.95	0.736
1253.1	0.701
1262.25	0.637
1271.4	0.619
1280.55	0.676
1289.7	0.594
1298.85	0.126
1308	0.215
1317.15	0.528
1326.3	0.66
1335.45	0.688
1344.6	0.676
1353.75	0.673
1362.89	0.628
1372.04	0.544
1381.19	0.499
1390.34	0.496
1399.49	0.451
1408.64	0.36
1417.79	0.299
1426.94	0.287
1436.09	0.371
1445.24	0.425
1454.39	0.411
1463.54	0.323
1472.69	0.33
1481.84	0.212
1490.99	0.333
1500.14	0.486
1509.29	0.609
1518.44	0.65
1527.59	0.676
1536.74	0.646
1545.89	0.59
1555.04	0.566
1564.19	0.566
1573.34	0.5
1582.49	0.4
1591.64	0.154
1600.79	0.3
1609.94	0.476
1619.09	0.543
1628.24	0.559
1637.39	0.553
1646.54	0.531
1655.69	0.515
1664.84	0.522
1673.99	0.56
1683.14	0.594
1692.29	0.622
1701.44	0.628
1710.58	0.663
1719.73	0.693
1728.88	0.699
1738.03	0.718
1747.18	0.731
1756.33	0.741
1765.48	0.75
1774.63	0.757
1783.78	0.764
1792.93	0.769
1802.08	0.77
1811.23	0.769
1820.38	0.779
1829.53	0.785
1838.68	0.788
1847.83	0.786
1856.98	0.783
1866.13	0.78
1875.28	0.778
1884.43	0.78
1893.58	0.787
1902.73	0.79
1911.88	0.792
1921.03	0.792
1930.18	0.789
1939.33	0.784
1948.48	0.782
1957.63	0.779
1966.78	0.778
1975.93	0.772
1985.08	0.757
1994.23	0.749
2003.38	0.756
2012.53	0.759
2021.68	0.757
2030.83	0.754
2039.98	0.751
2049.13	0.749
2058.27	0.744
2067.42	0.739
2076.57	0.738
2085.72	0.738
2094.87	0.735
2104.02	0.731
2113.17	0.724
2122.32	0.724
2131.47	0.724
2140.62	0.721
2149.77	0.723
2158.92	0.723
2168.07	0.721
2177.22	0.723
2186.37	0.723
2195.52	0.716
2204.67	0.71
2213.82	0.707
2222.97	0.705
2232.12	0.702
2241.27	0.699
2250.42	0.692
2259.57	0.681
2268.72	0.67
2277.87	0.667
2287.02	0.668
2296.17	0.666
2305.32	0.659
2314.47	0.657
2323.62	0.656
2332.77	0.652
2341.92	0.648
2351.07	0.647
2360.22	0.641
2369.37	0.634
2378.52	0.622
2387.67	0.613
2396.82	0.605
2405.96	0.597
2415.11	0.591
2424.26	0.579
2433.41	0.568
2442.56	0.56
2451.71	0.558
2460.86	0.556
2470.01	0.55
2479.16	0.538
2488.31	0.526
2497.46	0.513
2506.61	0.51
2515.76	0.511
2524.91	0.511
2534.06	0.505
2543.21	0.492
2552.36	0.475
2561.51	0.455
2570.66	0.439
2579.81	0.419
2588.96	0.386
2598.11	0.35
2607.26	0.37
2616.41	0.387
2625.56	0.383
2634.71	0.374
2643.86	0.364
2653.01	0.357
2662.16	0.346
2671.31	0.324
2680.46	0.308
2689.61	0.291
2698.76	0.259
2707.91	0.236
2717.06	0.207
2726.21	0.205
2735.36	0.207
2744.51	0.201
2753.66	0.179
2762.8	0.156
2771.95	0.141
2781.1	0.136
2790.25	0.141
2799.4	0.15
2808.55	0.145
2817.7	0.118
2826.85	0.105
2836	0.095
2845.15	0.082
2854.3	0.071
2863.45	0.062
2872.6	0.062
2881.75	0.072
2890.9	0.105
2900.05	0.112
2909.2	0.094
2918.35	0.078
2927.5	0.075
2936.65	0.074
2945.8	0.089
2954.95	0.109
2964.1	0.122
2973.25	0.117
2982.4	0.114
2991.55	0.115
3000.7	0.154
3009.85	0.175
3019	0.138
3028.15	0.103
3037.3	0.103
3046.45	0.138
3055.6	0.184
3064.75	0.198
3073.9	0.185
3083.05	0.147
3092.2	0.116
3101.35	0.091
3110.49	0.113
3119.64	0.123
3128.79	0.084
3137.94	0.118
3147.09	0.155
3156.24	0.202
3165.39	0.264
3174.54	0.274
3183.69	0.194
3192.84	0.123
3201.99	0.105
3211.14	0.141
3220.29	0.201
3229.44	0.245
3238.59	0.29
3247.74	0.321
3256.89	0.358
3266.04	0.416
3275.19	0.462
3284.34	0.497
3293.49	0.522
3302.64	0.54
3311.79	0.551
3320.94	0.558
3330.09	0.578
3339.24	0.593
3348.39	0.602
3357.54	0.604
3366.69	0.605
3375.84	0.605
3384.99	0.604
3394.14	0.604
3403.29	0.604
3412.44	0.605
3421.59	0.606
3430.74	0.608
3439.89	0.61
3449.04	0.613
3458.18	0.616
3467.33	0.625
3476.48	0.628
3485.63	0.629
3494.78	0.63
3503.93	0.635
3513.08	0.639
3522.23	0.646
3531.38	0.65
3540.53	0.656
3549.68	0.66
3558.83	0.666
3567.98	0.669
3577.13	0.676
3586.28	0.682
3595.43	0.688
3604.58	0.691
3613.73	0.695
3622.88	0.699
3632.03	0.701
3641.18	0.704
3650.33	0.704
3659.48	0.704
3668.63	0.704
3677.78	0.704
3686.93	0.703
3696.08	0.701
3705.23	0.7
3714.38	0.7
3723.53	0.7
3732.68	0.701
3741.83	0.701
3750.98	0.698
3760.13	0.696
3769.28	0.694
3778.43	0.694
3787.58	0.694
3796.73	0.694
