Infrared Spectrum: 2-PROPANOL
Formula: C3 H8 O
CAS: 67-63-0
State: GAS (VAPOR)
Class: COBLENTZ
Instrument: PERKIN-ELMER 21 (GRATING)
Sampling: TRANSMISSION
Path length: 10 CM
Resolution: 4
MICROMETERS	TRANSMITTANCE
2.006	0.756
2.03929	0.755
2.07258	0.756
2.10588	0.755
2.13917	0.753
2.17246	0.763
2.20575	0.768
2.23905	0.772
2.27234	0.772
2.30563	0.769
2.33892	0.756
2.37221	0.739
2.40551	0.75
2.4388	0.762
2.47209	0.76
2.50538	0.759
2.53868	0.763
2.57197	0.772
2.60526	0.772
2.63855	0.774
2.67184	0.774
2.70514	0.776
2.73843	0.765
2.77172	0.499
2.80501	0.741
2.83831	0.757
2.8716	0.77
2.90489	0.769
2.93818	0.766
2.97148	0.772
3.00477	0.776
3.03806	0.788
3.07135	0.79
3.10464	0.771
3.13794	0.759
3.17123	0.764
3.20452	0.778
3.23781	0.784
3.27111	0.783
3.3044	0.75
3.33769	0.202
3.37098	0.051
3.40427	0.079
3.43757	0.164
3.47086	0.165
3.50415	0.285
3.53744	0.541
3.57074	0.642
3.60403	0.689
3.63732	0.709
3.67061	0.728
3.7039	0.743
3.7372	0.75
3.77049	0.744
3.80378	0.743
3.83707	0.757
3.87037	0.781
3.90366	0.79
3.93695	0.799
3.97024	0.801
4.00353	0.802
4.03683	0.802
4.07012	0.802
4.10341	0.807
4.1367	0.807
4.17	0.809
4.20329	0.813
4.23658	0.822
4.26987	0.827
4.30316	0.828
4.33646	0.831
4.36975	0.822
4.40304	0.819
4.43633	0.825
4.46963	0.825
4.50292	0.827
4.53621	0.821
4.5695	0.819
4.6028	0.818
4.63609	0.819
4.66938	0.819
4.70267	0.819
4.73596	0.827
4.76926	0.825
4.80255	0.825
4.83584	0.822
4.86913	0.824
4.90243	0.826
4.93572	0.827
4.96901	0.827
5.0023	0.831
5.03559	0.832
5.06889	0.831
5.10218	0.832
5.13547	0.831
5.16876	0.834
5.20206	0.829
5.23535	0.819
5.26864	0.815
5.30193	0.814
5.33522	0.82
5.36852	0.831
5.40181	0.829
5.4351	0.831
5.46839	0.832
5.50169	0.834
5.53498	0.832
5.56827	0.833
5.60156	0.818
5.63485	0.803
5.66815	0.79
5.70144	0.79
5.73473	0.804
5.76802	0.819
5.80132	0.818
5.83461	0.824
5.8679	0.824
5.90119	0.827
5.93449	0.826
5.96778	0.826
6.00107	0.828
6.03436	0.824
6.06765	0.829
6.10095	0.827
6.13424	0.828
6.16753	0.831
6.20082	0.827
6.23412	0.824
6.26741	0.825
6.3007	0.826
6.33399	0.826
6.36728	0.829
6.40058	0.829
6.43387	0.832
6.46716	0.831
6.50045	0.834
6.53375	0.828
6.56704	0.825
6.60033	0.812
6.63362	0.799
6.66691	0.711
6.70021	0.639
6.7335	0.588
6.76679	0.546
6.80008	0.489
6.83338	0.437
6.86667	0.463
6.89996	0.527
6.93325	0.57
6.96654	0.601
6.99984	0.618
7.03313	0.602
7.06642	0.523
7.09971	0.37
7.13301	0.216
7.1663	0.123
7.19959	0.099
7.23288	0.087
7.26617	0.104
7.29947	0.178
7.33276	0.262
7.36605	0.323
7.39934	0.379
7.43264	0.426
7.46593	0.478
7.49922	0.497
7.53251	0.526
7.56581	0.577
7.5991	0.614
7.63239	0.65
7.66568	0.663
7.69897	0.669
7.73227	0.667
7.76556	0.645
7.79885	0.607
7.83214	0.555
7.86544	0.451
7.89873	0.351
7.93202	0.282
7.96531	0.261
7.9986	0.214
8.0319	0.224
8.06519	0.25
8.09848	0.269
8.13177	0.317
8.16507	0.401
8.19836	0.486
8.23165	0.543
8.26494	0.598
8.29823	0.621
8.33153	0.632
8.36482	0.621
8.39811	0.586
8.4314	0.513
8.4647	0.41
8.49799	0.33
8.53128	0.261
8.56457	0.2
8.59786	0.159
8.63116	0.137
8.66445	0.11
8.69774	0.102
8.73103	0.099
8.76433	0.118
8.79762	0.147
8.83091	0.168
8.8642	0.192
8.89749	0.217
8.93079	0.255
8.96408	0.285
8.99737	0.318
9.03066	0.349
9.06396	0.363
9.09725	0.354
9.13054	0.312
9.16383	0.262
9.19713	0.206
9.23042	0.192
9.26371	0.178
9.297	0.171
9.33029	0.164
9.36359	0.161
9.39688	0.183
9.43017	0.223
9.46346	0.25
9.49676	0.299
9.53005	0.368
9.56334	0.428
9.59663	0.495
9.62992	0.55
9.66322	0.589
9.69651	0.626
9.7298	0.655
9.76309	0.686
9.79639	0.696
9.82968	0.708
9.86297	0.719
9.89626	0.727
9.92955	0.732
9.96285	0.734
9.99614	0.739
10.0294	0.738
10.0627	0.732
10.096	0.732
10.1293	0.721
10.1626	0.693
10.1959	0.639
10.2292	0.556
10.2625	0.418
10.2958	0.287
10.3291	0.2
10.3624	0.16
10.3956	0.154
10.4289	0.158
10.4622	0.126
10.4955	0.111
10.5288	0.109
10.5621	0.12
10.5954	0.152
10.6287	0.159
10.662	0.173
10.6953	0.216
10.7286	0.271
10.7619	0.35
10.7952	0.431
10.8284	0.508
10.8617	0.58
10.895	0.64
10.9283	0.689
10.9616	0.717
10.9949	0.745
11.0282	0.756
11.0615	0.771
11.0948	0.784
11.1281	0.793
11.1614	0.802
11.1947	0.806
11.228	0.808
11.2612	0.813
11.2945	0.814
11.3278	0.816
11.3611	0.819
11.3944	0.821
11.4277	0.821
11.461	0.82
11.4943	0.82
11.5276	0.82
11.5609	0.819
11.5942	0.82
11.6275	0.818
11.6608	0.814
11.694	0.81
11.7273	0.807
11.7606	0.804
11.7939	0.802
11.8272	0.797
11.8605	0.789
11.8938	0.777
11.9271	0.751
11.9604	0.721
11.9937	0.694
12.027	0.663
12.0603	0.64
12.0936	0.629
12.1268	0.621
12.1601	0.621
12.1934	0.621
12.2267	0.607
12.26	0.607
12.2933	0.602
12.3266	0.596
12.3599	0.605
12.3932	0.614
12.4265	0.623
12.4598	0.632
12.4931	0.639
12.5263	0.646
12.5596	0.664
12.5929	0.69
12.6262	0.713
12.6595	0.737
12.6928	0.753
12.7261	0.774
12.7594	0.783
12.7927	0.794
12.826	0.801
12.8593	0.807
12.8926	0.81
12.9259	0.82
12.9591	0.816
12.9924	0.819
13.0257	0.818
13.059	0.819
13.0923	0.816
13.1256	0.818
13.1589	0.816
13.1922	0.815
13.2255	0.812
13.2588	0.812
13.2921	0.807
13.3254	0.809
13.3587	0.804
13.3919	0.806
13.4252	0.803
13.4585	0.803
13.4918	0.803
13.5251	0.802
13.5584	0.8
13.5917	0.795
13.625	0.794
13.6583	0.79
13.6916	0.788
13.7249	0.788
13.7582	0.784
13.7915	0.783
13.8247	0.781
13.858	0.781
13.8913	0.778
13.9246	0.777
13.9579	0.776
13.9912	0.771
14.0245	0.77
14.0578	0.766
14.0911	0.76
14.1244	0.76
14.1577	0.758
14.191	0.756
14.2243	0.753
14.2575	0.751
14.2908	0.75
14.3241	0.749
14.3574	0.746
14.3907	0.744
14.424	0.744
14.4573	0.743
14.4906	0.739
14.5239	0.736
14.5572	0.731
14.5905	0.73
14.6238	0.73
14.6571	0.725
14.6903	0.722
14.7236	0.72
14.7569	0.714
14.7902	0.712
14.8235	0.713
14.8568	0.705
14.8901	0.702
14.9234	0.7
14.9567	0.699
14.99	0.693
