Infrared Spectrum: DIMETHYL KETONE
Formula: C3 H6 O
CAS: 67-64-1
State: GAS (VAPOR)
Class: COBLENTZ
Instrument: PERKIN-ELMER 21 (GRATING)
Sampling: TRANSMISSION
Path length: 10 CM
Resolution: 4
MICROMETERS	TRANSMITTANCE
2.003	0.793
2.03623	0.795
2.06946	0.797
2.10268	0.797
2.13591	0.792
2.16914	0.798
2.20237	0.798
2.2356	0.799
2.26883	0.793
2.30205	0.785
2.33528	0.787
2.36851	0.83
2.40174	0.829
2.43497	0.829
2.4682	0.837
2.50142	0.829
2.53465	0.841
2.56788	0.841
2.60111	0.839
2.63434	0.838
2.66757	0.842
2.70079	0.838
2.73402	0.837
2.76725	0.839
2.80048	0.837
2.83371	0.833
2.86693	0.798
2.90016	0.803
2.93339	0.832
2.96662	0.841
2.99985	0.843
3.03308	0.842
3.0663	0.843
3.09953	0.841
3.13276	0.838
3.16599	0.82
3.19922	0.774
3.23245	0.734
3.26567	0.62
3.2989	0.584
3.33213	0.584
3.36536	0.6
3.39859	0.661
3.43182	0.761
3.46504	0.778
3.49827	0.788
3.5315	0.812
3.56473	0.818
3.59796	0.827
3.63119	0.832
3.66441	0.832
3.69764	0.837
3.73087	0.838
3.7641	0.841
3.79733	0.839
3.83055	0.836
3.86378	0.829
3.89701	0.83
3.93024	0.837
3.96347	0.838
3.9967	0.843
4.02992	0.842
4.06315	0.839
4.09638	0.838
4.12961	0.838
4.16284	0.837
4.19607	0.842
4.22929	0.845
4.26252	0.846
4.29575	0.846
4.32898	0.846
4.36221	0.843
4.39544	0.838
4.42866	0.831
4.46189	0.836
4.49512	0.843
4.52835	0.843
4.56158	0.842
4.5948	0.836
4.62803	0.822
4.66126	0.817
4.69449	0.819
4.72772	0.829
4.76095	0.833
4.79417	0.842
4.8274	0.844
4.86063	0.846
4.89386	0.848
4.92709	0.844
4.96032	0.842
4.99354	0.836
5.02677	0.839
5.06	0.841
5.09323	0.845
5.12646	0.841
5.15969	0.845
5.19291	0.843
5.22614	0.843
5.25937	0.841
5.2926	0.838
5.32583	0.836
5.35906	0.831
5.39228	0.825
5.42551	0.814
5.45874	0.793
5.49197	0.748
5.5252	0.677
5.55842	0.55
5.59165	0.429
5.62488	0.214
5.65811	0.091
5.69134	0.045
5.72457	0.036
5.75779	0.049
5.79102	0.136
5.82425	0.398
5.85748	0.65
5.89071	0.721
5.92394	0.769
5.95716	0.793
5.99039	0.804
6.02362	0.812
6.05685	0.818
6.09008	0.82
6.12331	0.819
6.15653	0.818
6.18976	0.817
6.22299	0.807
6.25622	0.801
6.28945	0.793
6.32267	0.784
6.3559	0.772
6.38913	0.767
6.42236	0.754
6.45559	0.752
6.48882	0.75
6.52204	0.748
6.55527	0.749
6.5885	0.747
6.62173	0.742
6.65496	0.735
6.68819	0.714
6.72141	0.678
6.75464	0.642
6.78787	0.601
6.8211	0.569
6.85433	0.507
6.88756	0.482
6.92078	0.473
6.95401	0.474
6.98724	0.485
7.02047	0.51
7.0537	0.543
7.08693	0.565
7.12015	0.551
7.15338	0.438
7.18661	0.249
7.21984	0.142
7.25307	0.097
7.28629	0.092
7.31952	0.126
7.35275	0.15
7.38598	0.2
7.41921	0.379
7.45244	0.527
7.48566	0.6
7.51889	0.671
7.55212	0.723
7.58535	0.753
7.61858	0.776
7.65181	0.791
7.68503	0.803
7.71826	0.809
7.75149	0.816
7.78472	0.816
7.81795	0.817
7.85118	0.816
7.8844	0.814
7.91763	0.809
7.95086	0.785
7.98409	0.756
8.01732	0.641
8.05054	0.431
8.08377	0.187
8.117	0.111
8.15023	0.116
8.18346	0.13
8.21669	0.087
8.24991	0.137
8.28314	0.134
8.31637	0.162
8.3496	0.301
8.38283	0.454
8.41606	0.619
8.44928	0.703
8.48251	0.759
8.51574	0.79
8.54897	0.803
8.5822	0.813
8.61543	0.816
8.64865	0.818
8.68188	0.818
8.71511	0.813
8.74834	0.816
8.78157	0.814
8.8148	0.811
8.84802	0.801
8.88125	0.795
8.91448	0.786
8.94771	0.776
8.98094	0.773
9.01416	0.774
9.04739	0.773
9.08062	0.778
9.11385	0.763
9.14708	0.723
9.18031	0.767
9.21353	0.788
9.24676	0.792
9.27999	0.798
9.31322	0.801
9.34645	0.803
9.37968	0.804
9.4129	0.807
9.44613	0.814
9.47936	0.816
9.51259	0.818
9.54582	0.818
9.57905	0.82
9.61227	0.823
9.6455	0.825
9.67873	0.824
9.71196	0.829
9.74519	0.827
9.77841	0.831
9.81164	0.83
9.84487	0.832
9.8781	0.829
9.91133	0.831
9.94456	0.831
9.97778	0.832
10.011	0.831
10.0442	0.832
10.0775	0.832
10.1107	0.83
10.1439	0.833
10.1772	0.831
10.2104	0.83
10.2436	0.83
10.2768	0.83
10.3101	0.829
10.3433	0.83
10.3765	0.829
10.4098	0.829
10.443	0.824
10.4762	0.826
10.5094	0.824
10.5427	0.824
10.5759	0.823
10.6091	0.819
10.6423	0.817
10.6756	0.814
10.7088	0.806
10.742	0.803
10.7753	0.792
10.8085	0.781
10.8417	0.775
10.8749	0.767
10.9082	0.754
10.9414	0.747
10.9746	0.742
11.0079	0.733
11.0411	0.725
11.0743	0.723
11.1075	0.72
11.1408	0.721
11.174	0.72
11.2072	0.736
11.2405	0.739
11.2737	0.741
11.3069	0.756
11.3401	0.766
11.3734	0.771
11.4066	0.773
11.4398	0.779
11.4731	0.792
11.5063	0.806
11.5395	0.817
11.5727	0.831
11.606	0.835
11.6392	0.837
11.6724	0.845
11.7057	0.845
11.7389	0.848
11.7721	0.846
11.8053	0.846
11.8386	0.846
11.8718	0.851
11.905	0.851
11.9383	0.85
11.9715	0.852
12.0047	0.85
12.0379	0.849
12.0712	0.851
12.1044	0.852
12.1376	0.85
12.1709	0.848
12.2041	0.851
12.2373	0.846
12.2705	0.848
12.3038	0.843
12.337	0.845
12.3702	0.844
12.4034	0.843
12.4367	0.839
12.4699	0.831
12.5031	0.83
12.5364	0.826
12.5696	0.825
12.6028	0.819
12.636	0.816
12.6693	0.814
12.7025	0.806
12.7357	0.804
12.769	0.807
12.8022	0.81
12.8354	0.804
12.8686	0.803
12.9019	0.805
12.9351	0.804
12.9683	0.799
13.0016	0.803
13.0348	0.803
13.068	0.801
13.1012	0.803
13.1345	0.805
13.1677	0.804
13.2009	0.806
13.2342	0.807
13.2674	0.809
13.3006	0.807
13.3338	0.813
13.3671	0.81
13.4003	0.813
13.4335	0.814
13.4668	0.814
13.5	0.817
13.5332	0.814
13.5664	0.813
13.5997	0.813
13.6329	0.805
13.6661	0.804
13.6994	0.806
13.7326	0.804
13.7658	0.803
13.799	0.803
13.8323	0.803
13.8655	0.799
13.8987	0.799
13.9319	0.795
13.9652	0.79
13.9984	0.786
14.0316	0.785
14.0649	0.785
14.0981	0.785
14.1313	0.779
14.1645	0.775
14.1978	0.776
14.231	0.773
14.2642	0.769
14.2975	0.765
14.3307	0.76
14.3639	0.759
14.3971	0.756
14.4304	0.755
14.4636	0.752
14.4968	0.749
14.5301	0.744
14.5633	0.741
14.5965	0.739
14.6297	0.734
14.663	0.727
14.6962	0.724
14.7294	0.72
14.7627	0.716
14.7959	0.71
14.8291	0.705
14.8623	0.703
14.8956	0.702
14.9288	0.701
14.962	0.699
14.9953	0.697
