Infrared Spectrum: ETHYLENE TETRA CARBONITRILE
Formula: C6 N4
CAS: 670-54-2
State: SOLID (KBr PELLET)
Class: COBLENTZ
Instrument: Not specified, most likely a prism, grating, or hybrid spectrometer.
Sampling: TRANSMISSION
Resolution: 4
Origin: TENNESSEE EASTMAN COMPANY, RESEARCH LABORATORIES
MICROMETERS	TRANSMITTANCE
2.027	0.666
2.06798	0.668
2.10895	0.675
2.14993	0.683
2.19091	0.695
2.23188	0.707
2.27286	0.717
2.31384	0.723
2.35481	0.729
2.39579	0.738
2.43677	0.745
2.47774	0.752
2.51872	0.758
2.5597	0.762
2.60067	0.769
2.64165	0.774
2.68263	0.779
2.7236	0.776
2.76458	0.716
2.80556	0.637
2.84653	0.581
2.88751	0.519
2.92849	0.476
2.96946	0.511
3.01044	0.601
3.05142	0.659
3.09239	0.695
3.13337	0.724
3.17435	0.752
3.21532	0.772
3.2563	0.794
3.29728	0.803
3.33825	0.811
3.37923	0.811
3.42021	0.8
3.46118	0.813
3.50216	0.818
3.54314	0.834
3.58411	0.844
3.62509	0.852
3.66607	0.861
3.70704	0.864
3.74802	0.868
3.78899	0.87
3.82997	0.875
3.87095	0.876
3.91192	0.883
3.9529	0.89
3.99388	0.895
4.03485	0.89
4.07583	0.895
4.11681	0.904
4.15778	0.905
4.19876	0.89
4.23974	0.878
4.28071	0.878
4.32169	0.882
4.36267	0.894
4.40364	0.883
4.44462	0.389
4.4856	0.757
4.52657	0.671
4.56755	0.868
4.60853	0.912
4.6495	0.919
4.69048	0.919
4.73146	0.923
4.77243	0.926
4.81341	0.926
4.85439	0.929
4.89536	0.933
4.93634	0.938
4.97732	0.938
5.01829	0.936
5.05927	0.941
5.10025	0.943
5.14122	0.947
5.1822	0.95
5.22318	0.952
5.26415	0.952
5.30513	0.955
5.34611	0.955
5.38708	0.957
5.42806	0.957
5.46904	0.958
5.51001	0.96
5.55099	0.96
5.59197	0.96
5.63294	0.958
5.67392	0.955
5.7149	0.952
5.75587	0.935
5.79685	0.909
5.83783	0.876
5.8788	0.847
5.91978	0.88
5.96076	0.895
6.00173	0.882
6.04271	0.856
6.08369	0.827
6.12466	0.796
6.16564	0.788
6.20662	0.8
6.24759	0.827
6.28857	0.856
6.32955	0.878
6.37052	0.89
6.4115	0.904
6.45248	0.921
6.49345	0.921
6.53443	0.924
6.57541	0.924
6.61638	0.931
6.65736	0.935
6.69834	0.94
6.73931	0.941
6.78029	0.935
6.82127	0.926
6.86224	0.926
6.90322	0.923
6.9442	0.921
6.98517	0.923
7.02615	0.924
7.06712	0.921
7.1081	0.912
7.14908	0.9
7.19005	0.888
7.23103	0.882
7.27201	0.876
7.31298	0.876
7.35396	0.876
7.39494	0.876
7.43591	0.88
7.47689	0.887
7.51787	0.9
7.55884	0.909
7.59982	0.912
7.6408	0.917
7.68177	0.923
7.72275	0.926
7.76373	0.931
7.8047	0.933
7.84568	0.938
7.88666	0.943
7.92763	0.943
7.96861	0.943
8.00959	0.948
8.05056	0.95
8.09154	0.945
8.13252	0.883
8.17349	0.948
8.21447	0.95
8.25545	0.95
8.29642	0.935
8.3374	0.935
8.37838	0.943
8.41935	0.935
8.46033	0.902
8.50131	0.894
8.54228	0.863
8.58326	0.764
8.62424	0.218
8.66521	0.063
8.70619	0.393
8.74717	0.735
8.78814	0.758
8.82912	0.887
8.8701	0.916
8.91107	0.899
8.95205	0.494
8.99303	0.497
9.034	0.781
9.07498	0.866
9.11596	0.902
9.15693	0.861
9.19791	0.529
9.23889	0.663
9.27986	0.829
9.32084	0.907
9.36182	0.938
9.40279	0.945
9.44377	0.947
9.48475	0.947
9.52572	0.947
9.5667	0.947
9.60768	0.943
9.64865	0.933
9.68963	0.933
9.73061	0.904
9.77158	0.851
9.81256	0.835
9.85354	0.87
9.89451	0.907
9.93549	0.929
9.97647	0.935
10.0174	0.947
10.0584	0.947
10.0994	0.947
10.1404	0.945
10.1813	0.943
10.2223	0.945
10.2633	0.943
10.3043	0.931
10.3453	0.899
10.3862	0.762
10.4272	0.288
10.4682	0.314
10.5092	0.661
10.5501	0.796
10.5911	0.844
10.6321	0.851
10.6731	0.769
10.714	0.606
10.755	0.598
10.796	0.709
10.837	0.815
10.878	0.851
10.9189	0.695
10.9599	0.629
11.0009	0.823
11.0419	0.892
11.0828	0.928
11.1238	0.943
11.1648	0.95
11.2058	0.95
11.2467	0.952
11.2877	0.952
11.3287	0.953
11.3697	0.955
11.4106	0.955
11.4516	0.955
11.4926	0.955
11.5336	0.957
11.5746	0.955
11.6155	0.955
11.6565	0.955
11.6975	0.947
11.7385	0.936
11.7794	0.936
11.8204	0.935
11.8614	0.936
11.9024	0.935
11.9433	0.933
11.9843	0.933
12.0253	0.929
12.0663	0.912
12.1072	0.88
12.1482	0.861
12.1892	0.873
12.2302	0.89
12.2712	0.888
12.3121	0.863
12.3531	0.818
12.3941	0.705
12.4351	0.49
12.476	0.505
12.517	0.683
12.558	0.776
12.599	0.847
12.6399	0.88
12.6809	0.902
12.7219	0.921
12.7629	0.935
12.8039	0.936
12.8448	0.936
12.8858	0.936
12.9268	0.94
12.9678	0.943
13.0087	0.943
13.0497	0.943
13.0907	0.943
13.1317	0.943
13.1726	0.943
13.2136	0.943
13.2546	0.943
13.2956	0.943
13.3365	0.943
13.3775	0.945
13.4185	0.945
13.4595	0.945
13.5005	0.943
13.5414	0.943
13.5824	0.941
13.6234	0.941
13.6644	0.941
13.7053	0.933
13.7463	0.926
13.7873	0.924
13.8283	0.923
13.8692	0.923
13.9102	0.921
13.9512	0.914
13.9922	0.911
14.0332	0.904
14.0741	0.899
14.1151	0.9
14.1561	0.888
14.1971	0.871
14.238	0.854
14.279	0.835
14.32	0.817
14.361	0.806
14.4019	0.801
14.4429	0.801
14.4839	0.808
14.5249	0.813
14.5658	0.822
14.6068	0.829
14.6478	0.834
14.6888	0.839
14.7298	0.839
14.7707	0.839
14.8117	0.83
14.8527	0.827
14.8937	0.825
14.9346	0.825
14.9756	0.827
15.0166	0.827
15.0576	0.827
15.0985	0.827
15.1395	0.827
15.1805	0.823
15.2215	0.822
15.2625	0.818
15.3034	0.817
15.3444	0.813
15.3854	0.811
15.4264	0.805
15.4673	0.8
15.5083	0.796
15.5493	0.794
15.5903	0.794
15.6312	0.791
15.6722	0.789
15.7132	0.786
15.7542	0.786
15.7951	0.782
15.8361	0.779
15.8771	0.777
15.9181	0.776
15.9591	0.774
