Infrared Spectrum: 1-PHENYLPROPYNE
Formula: C9 H8
CAS: 673-32-5
State: LIQUID
Class: COBLENTZ
Instrument: PERKIN-ELMER
Sampling: TRANSMISSION
Path length: 0.0012 CM CELL
Resolution: 4
Origin: ABBOTT LABORATORIES - WASHBURN
MICROMETERS	TRANSMITTANCE
2.023	0.846
2.05714	0.8461
2.09129	0.846
2.12543	0.848
2.15958	0.8467
2.19372	0.836
2.22786	0.8385
2.26201	0.841
2.29615	0.8397
2.33029	0.8252
2.36444	0.8296
2.39858	0.838
2.43273	0.839
2.46687	0.8295
2.50101	0.7976
2.53516	0.8341
2.5693	0.839
2.60344	0.8429
2.63759	0.844
2.67173	0.844
2.70588	0.843
2.74002	0.839
2.77416	0.8366
2.80831	0.833
2.84245	0.833
2.8766	0.833
2.91074	0.838
2.94488	0.839
2.97903	0.838
3.01317	0.8303
3.04731	0.805
3.08146	0.8217
3.1156	0.826
3.14975	0.8236
3.18389	0.8099
3.21803	0.7748
3.25218	0.5692
3.28632	0.49
3.32046	0.6022
3.35461	0.681
3.38875	0.6508
3.4229	0.5278
3.45704	0.6775
3.49118	0.7236
3.52533	0.6922
3.55947	0.8081
3.59361	0.8263
3.62776	0.838
3.6619	0.823
3.69605	0.8199
3.73019	0.8392
3.76433	0.848
3.79848	0.848
3.83262	0.846
3.86677	0.844
3.90091	0.846
3.93505	0.848
3.9692	0.846
4.00334	0.846
4.03748	0.844
4.07163	0.8384
4.10577	0.8386
4.13992	0.843
4.17406	0.8421
4.2082	0.841
4.24235	0.851
4.27649	0.8474
4.31063	0.8305
4.34478	0.824
4.37892	0.833
4.41307	0.8331
4.44721	0.7608
4.48135	0.6839
4.5155	0.792
4.54964	0.7391
4.58379	0.8279
4.61793	0.8452
4.65207	0.85
4.68622	0.851
4.72036	0.851
4.7545	0.851
4.78865	0.851
4.82279	0.851
4.85694	0.85
4.89108	0.8334
4.92522	0.8152
4.95937	0.8444
4.99351	0.85
5.02765	0.844
5.0618	0.8285
5.09594	0.7874
5.13009	0.7534
5.16423	0.73
5.19837	0.8019
5.23252	0.829
5.26666	0.8168
5.3008	0.7804
5.33495	0.7559
5.36909	0.782
5.40324	0.8215
5.43738	0.836
5.47152	0.827
5.50567	0.8088
5.53981	0.7897
5.57396	0.7755
5.6081	0.8004
5.64224	0.814
5.67639	0.817
5.71053	0.7799
5.74467	0.7781
5.77882	0.8021
5.81296	0.8194
5.84711	0.8258
5.88125	0.8312
5.91539	0.822
5.94954	0.8119
5.98368	0.7727
6.01782	0.7514
6.05197	0.7971
6.08611	0.8042
6.12026	0.824
6.1544	0.814
6.18854	0.7998
6.22269	0.7205
6.25683	0.4366
6.29098	0.5863
6.32512	0.7222
6.35926	0.6671
6.39341	0.6695
6.42755	0.751
6.46169	0.766
6.49584	0.7677
6.52998	0.737
6.56413	0.7323
6.59827	0.725
6.63241	0.667
6.66656	0.6487
6.7007	0.3424
6.73484	0.1834
6.76899	0.5687
6.80313	0.6599
6.83728	0.6581
6.87142	0.6319
6.90556	0.5358
6.93971	0.3326
6.97385	0.3081
7.00799	0.4888
7.04214	0.5625
7.07628	0.6139
7.11043	0.65
7.14457	0.6721
7.17871	0.686
7.21286	0.6858
7.247	0.6464
7.28115	0.553
7.31529	0.6393
7.34943	0.6781
7.38358	0.7181
7.41772	0.751
7.45186	0.759
7.48601	0.764
7.52015	0.7608
7.5543	0.744
7.58844	0.754
7.62258	0.7641
7.65673	0.768
7.69087	0.7751
7.72501	0.775
7.75916	0.7674
7.7933	0.7406
7.82745	0.732
7.86159	0.717
7.89573	0.7459
7.92988	0.6758
7.96402	0.7357
7.99817	0.7873
8.03231	0.793
8.06645	0.797
8.1006	0.807
8.13474	0.8071
8.16888	0.81
8.20303	0.8068
8.23717	0.805
8.27132	0.8093
8.30546	0.812
8.3396	0.81
8.37375	0.8141
8.40789	0.814
8.44203	0.8097
8.47618	0.7948
8.51032	0.751
8.54447	0.734
8.57861	0.7731
8.61275	0.78
8.6469	0.7626
8.68104	0.741
8.71518	0.7708
8.74933	0.7906
8.78347	0.8041
8.81762	0.814
8.85176	0.812
8.8859	0.8161
8.92005	0.8192
8.95419	0.824
8.98834	0.821
9.02248	0.819
9.05662	0.8069
9.09077	0.7798
9.12491	0.7701
9.15905	0.785
9.1932	0.7879
9.22734	0.7868
9.26149	0.781
9.29563	0.7508
9.32977	0.6656
9.36392	0.424
9.39806	0.5785
9.4322	0.6794
9.46635	0.741
9.50049	0.761
9.53464	0.7611
9.56878	0.766
9.60292	0.764
9.63707	0.7487
9.67121	0.7106
9.70536	0.5924
9.7395	0.449
9.77364	0.5538
9.80779	0.6514
9.84193	0.7083
9.87607	0.7322
9.91022	0.7511
9.94436	0.756
9.97851	0.758
10.0126	0.7439
10.0468	0.7591
10.0809	0.7732
10.1151	0.773
10.1492	0.773
10.1834	0.773
10.2175	0.7731
10.2517	0.776
10.2858	0.7699
10.3199	0.726
10.3541	0.6976
10.3882	0.7486
10.4224	0.776
10.4565	0.79
10.4907	0.7981
10.5248	0.797
10.559	0.8041
10.5931	0.807
10.6272	0.812
10.6614	0.8099
10.6955	0.809
10.7297	0.8019
10.7638	0.7949
10.798	0.7758
10.8321	0.7531
10.8662	0.7266
10.9004	0.6469
10.9345	0.5288
10.9687	0.4629
11.0028	0.5075
11.037	0.6033
11.0711	0.6744
11.1053	0.735
11.1394	0.7645
11.1735	0.7811
11.2077	0.7931
11.2418	0.8039
11.276	0.7972
11.3101	0.805
11.3443	0.8041
11.3784	0.8089
11.4125	0.795
11.4467	0.781
11.4808	0.7779
11.515	0.773
11.5491	0.776
11.5833	0.778
11.6174	0.778
11.6516	0.776
11.6857	0.7699
11.7198	0.7678
11.754	0.761
11.7881	0.759
11.8223	0.758
11.8564	0.754
11.8906	0.751
11.9247	0.752
11.9588	0.759
11.993	0.7685
12.0271	0.776
12.0613	0.781
12.0954	0.7879
12.1296	0.788
12.1637	0.7869
12.1979	0.7871
12.232	0.7871
12.2661	0.787
12.3003	0.7852
12.3344	0.787
12.3686	0.78
12.4027	0.7801
12.4369	0.781
12.471	0.7748
12.5051	0.771
12.5393	0.771
12.5734	0.7657
12.6076	0.759
12.6417	0.759
12.6759	0.754
12.71	0.751
12.7442	0.7403
12.7783	0.727
12.8124	0.71
12.8466	0.6929
12.8807	0.6708
12.9149	0.6548
12.949	0.6347
12.9832	0.6073
13.0173	0.5573
13.0514	0.4878
13.0856	0.3888
13.1197	0.2517
13.1539	0.1204
13.188	0.046
13.2222	0.0098
13.2563	0.006
13.2905	0.008
13.3246	0.01
13.3587	0.0325
13.3929	0.1744
13.427	0.3425
13.4612	0.4492
13.4953	0.5126
13.5295	0.5542
13.5636	0.5771
13.5977	0.5941
13.6319	0.6063
13.666	0.6302
13.7002	0.6453
13.7343	0.6572
13.7685	0.666
13.8026	0.671
13.8368	0.672
13.8709	0.672
13.905	0.672
13.9392	0.669
13.9733	0.6637
14.0075	0.6567
14.0416	0.6489
14.0758	0.632
14.1099	0.6154
14.144	0.5965
14.1782	0.5646
14.2123	0.5095
14.2465	0.4215
14.2806	0.2787
14.3148	0.1825
14.3489	0.165
14.3831	0.1642
14.4172	0.1248
14.4513	0.0762
14.4855	0.0239
14.5196	0.011
14.5538	0.0112
14.5879	0.0312
14.6221	0.1859
14.6562	0.2775
14.6904	0.3634
14.7245	0.4272
14.7586	0.4612
14.7928	0.4824
14.8269	0.5
14.8611	0.5043
14.8952	0.5111
14.9294	0.514
14.9635	0.517
14.9976	0.5258
15.0318	0.4816
15.0659	0.4683
15.1001	0.4926
15.1342	0.5053
15.1684	0.514
15.2025	0.521
15.2367	0.5209
15.2708	0.522
15.3049	0.521
15.3391	0.517
15.3732	0.5158
15.4074	0.507
15.4415	0.5067
