Infrared Spectrum: PHOSPHONODICHLORIDIC ACID, METHYL-
Formula: C H3 Cl2 O P
CAS: 676-97-1
State: SOLUTION (10% IN CCl4 FOR 3800-1333, 10% IN CS2 FOR 1333-460 CM^-^1)
Class: COBLENTZ III
Instrument: DOW KBr FOREPRISM-GRATING
Instrument parameters: BLAZED AT 3.5, 12.0, 20.0 MICRON, CHANGED AT 5.0, 7.5, 14.9 MICRON
Sampling: TRANSMISSION
Path length: 0.011, 0.011 CM
Resolution: 4
Origin: DOW CHEMICAL COMPANY
1/CM	TRANSMITTANCE
456.534	0.881
465.057	0.88
473.579	0.868
482.102	0.79
490.625	0.306
499.148	0.047
507.67	0.589
516.193	0.712
524.716	0.573
533.239	0.203
541.761	0
550.284	0
558.807	0.234
567.33	0.715
575.852	0.894
584.375	0.949
592.898	0.98
601.42	0.998
609.943	0.997
618.466	0.996
626.989	0.989
635.511	0.968
644.034	0.933
652.557	0.898
661.08	0.933
669.602	0.958
678.125	0.977
686.648	0.985
695.171	0.985
703.693	0.98
712.216	0.98
720.739	0.97
729.262	0.956
737.784	0.906
746.307	0.695
754.83	0.166
763.352	0.213
771.875	0.398
780.398	0.756
788.921	0.909
797.443	0.952
805.966	0.96
814.489	0.97
823.012	0.968
831.534	0.957
840.057	0.914
848.58	0.813
857.103	0.764
865.625	0.76
874.148	0.704
882.671	0.406
891.193	0.027
899.716	0.245
908.239	0.707
916.762	0.888
925.284	0.937
933.807	0.96
942.33	0.966
950.853	0.976
959.375	0.976
967.898	0.977
976.421	0.985
984.944	0.99
993.466	0.997
1001.99	1
1010.51	1
1019.03	0.993
1027.56	0.973
1036.08	0.968
1044.6	0.98
1053.13	0.998
1061.65	1.001
1070.17	0.993
1078.69	0.982
1087.22	0.99
1095.74	1
1104.26	1.001
1112.78	1.003
1121.31	1.006
1129.83	1.014
1138.35	1.003
1146.88	1.013
1155.4	1.018
1163.92	1.017
1172.44	1.007
1180.97	0.988
1189.49	0.998
1198.01	0.997
1206.53	0.986
1215.06	0.974
1223.58	0.954
1232.1	0.912
1240.63	0.845
1249.15	0.672
1257.67	0.547
1266.19	0.2709
1274.72	0.009
1283.24	0.057
1291.76	0.455
1300.28	0.079
1308.81	0.407
1317.33	0.794
1325.85	0.869
1334.38	0.893
1342.9	0.933
1351.42	0.934
1359.94	0.926
1368.47	0.936
1376.99	0.93
1385.51	0.916
1394.03	0.886
1402.56	0.805
1411.08	0.709
1419.6	0.93
1428.13	0.956
1436.65	0.957
1445.17	0.961
1453.69	0.964
1462.22	0.96
1470.74	0.954
1479.26	0.945
1487.78	0.914
1496.31	0.877
1504.83	0.822
1513.35	0.762
1521.88	0.716
1530.4	0.669
1538.92	0.597
1547.44	0.523
1555.97	0.509
1564.49	0.587
1573.01	0.659
1581.53	0.677
1590.06	0.717
1598.58	0.792
1607.1	0.869
1615.63	0.914
1624.15	0.941
1632.67	0.954
1641.19	0.962
1649.72	0.968
1658.24	0.968
1666.76	0.976
1675.29	0.976
1683.81	0.976
1692.33	0.976
1700.85	0.977
1709.38	0.977
1717.9	0.972
1726.42	0.974
1734.94	0.969
1743.47	0.969
1751.99	0.974
1760.51	0.976
1769.04	0.976
1777.56	0.976
1786.08	0.976
1794.6	0.968
1803.13	0.97
1811.65	0.974
1820.17	0.974
1828.69	0.974
1837.22	0.972
1845.74	0.972
1854.26	0.972
1862.79	0.969
1871.31	0.976
1879.83	0.976
1888.35	0.976
1896.88	0.976
1905.4	0.977
1913.92	0.976
1922.44	0.978
1930.97	0.978
1939.49	0.978
1948.01	0.977
1956.54	0.977
1965.06	0.976
1973.58	0.974
1982.1	0.977
1990.63	0.974
1999.15	0.978
2007.67	0.976
2016.19	0.976
2024.72	0.977
2033.24	0.978
2041.76	0.976
2050.29	0.9735
2058.81	0.9645
2067.33	0.9535
2075.85	0.9671
2084.38	0.974
2092.9	0.9811
2101.42	0.984
2109.94	0.985
2118.47	0.985
2126.99	0.9871
2135.51	0.989
2144.04	0.985
2152.56	0.984
2161.08	0.984
2169.6	0.9793
2178.13	0.981
2186.65	0.981
2195.17	0.9706
2203.69	0.9512
2212.22	0.964
2220.74	0.9766
2229.26	0.982
2237.79	0.9832
2246.31	0.984
2254.83	0.9774
2263.35	0.976
2271.88	0.9734
2280.4	0.9671
2288.92	0.9587
2297.44	0.949
2305.97	0.9526
2314.49	0.9633
2323.01	0.977
2331.54	0.98
2340.06	0.9793
2348.58	0.985
2357.1	0.985
2365.63	0.982
2374.15	0.98
2382.67	0.98
2391.19	0.98
2399.72	0.9807
2408.24	0.984
2416.76	0.9826
2425.29	0.982
2433.81	0.9794
2442.33	0.9834
2450.85	0.984
2459.38	0.9813
2467.9	0.977
2476.42	0.978
2484.94	0.977
2493.47	0.977
2501.99	0.977
2510.51	0.977
2519.04	0.9723
2527.56	0.968
2536.08	0.968
2544.6	0.961
2553.13	0.96
2561.65	0.9675
2570.17	0.968
2578.69	0.9705
2587.22	0.972
2595.74	0.972
2604.26	0.97
2612.79	0.9756
2621.31	0.978
2629.83	0.978
2638.35	0.9772
2646.88	0.973
2655.4	0.9768
2663.92	0.9784
2672.44	0.978
2680.97	0.978
2689.49	0.978
2698.01	0.977
2706.54	0.974
2715.06	0.978
2723.58	0.978
2732.1	0.978
2740.63	0.978
2749.15	0.9806
2757.67	0.9811
2766.2	0.9797
2774.72	0.977
2783.24	0.9779
2791.76	0.978
2800.29	0.978
2808.81	0.976
2817.33	0.976
2825.85	0.978
2834.38	0.978
2842.9	0.977
2851.42	0.9731
2859.95	0.972
2868.47	0.973
2876.99	0.978
2885.51	0.9742
2894.04	0.973
2902.56	0.9623
2911.08	0.9406
2919.6	0.844
2928.13	0.7326
2936.65	0.9276
2945.17	0.9539
2953.7	0.961
2962.22	0.962
2970.74	0.961
2979.26	0.9541
2987.79	0.9341
2996.31	0.8693
3004.83	0.8438
3013.35	0.842
3021.88	0.8937
3030.4	0.9439
3038.92	0.958
3047.45	0.964
3055.97	0.966
3064.49	0.973
3073.01	0.974
3081.54	0.974
3090.06	0.976
3098.58	0.98
3107.1	0.981
3115.63	0.982
3124.15	0.982
3132.67	0.982
3141.2	0.9841
3149.72	0.986
3158.24	0.986
3166.76	0.986
3175.29	0.985
3183.81	0.986
3192.33	0.989
3200.85	0.9839
3209.38	0.981
3217.9	0.9841
3226.42	0.9881
3234.95	0.9878
3243.47	0.988
3251.99	0.985
3260.51	0.99
3269.04	0.9921
3277.56	0.9929
3286.08	0.9918
3294.6	0.99
3303.13	0.994
3311.65	0.994
3320.17	0.993
3328.7	0.9921
3337.22	0.998
3345.74	0.9969
3354.26	0.997
3362.79	0.998
3371.31	0.998
3379.83	0.998
3388.35	0.998
3396.88	0.9978
3405.4	0.998
3413.92	0.998
3422.45	0.998
3430.97	0.998
3439.49	0.998
3448.01	0.998
3456.54	0.9978
3465.06	0.997
3473.58	0.997
3482.1	0.997
3490.63	0.997
3499.15	0.9968
3507.67	0.992
3516.2	0.9944
3524.72	0.997
3533.24	0.994
3541.76	1
3550.29	0.9968
3558.81	0.996
3567.33	0.9955
3575.85	0.9758
3584.38	0.994
3592.9	0.9975
3601.42	0.97
3609.95	0.9973
3618.47	1
3626.99	1
3635.51	1
3644.04	1
3652.56	0.9977
3661.08	0.9954
3669.6	0.992
3678.13	1.0025
3686.65	1.0091
3695.17	1.001
3703.7	0.998
3712.22	1
3720.74	1
3729.26	1.002
3737.79	1
3746.31	1
3754.83	0.9987
3763.35	1.0023
3771.88	1.003
3780.4	1.005
3788.92	1.0024
