Infrared Spectrum: PHOSPHORODICHLORIDIC ACID, METHYL ESTER
Formula: C H3 Cl2 O2 P
CAS: 677-24-7
State: SOLUTION (10% IN CCl4 FOR 3800-1340, 10% IN CS2 FOR 1340-470 CM^-^1)
Class: COBLENTZ III
Instrument: DOW KBr FOREPRISM-GRATING
Instrument parameters: BLAZED AT 3.5, 12.0, 20.0 MICRON, CHANGED AT 5.0, 7.5, 14.9 MICRON
Sampling: TRANSMISSION
Path length: 0.011, 0.011 CM
Resolution: 4
Origin: DOW CHEMICAL COMPANY
1/CM	TRANSMITTANCE
470.17	0.994
478.693	0.986
487.216	0.97
495.738	0.936
504.261	0.822
512.784	0.288
521.307	0.648
529.829	0.677
538.352	0.38
546.875	0.151
555.398	0.362
563.92	0.399
572.443	0.054
580.966	0.001
589.489	0.179
598.011	0.046
606.534	0.011
615.057	0.342
623.58	0.72
632.102	0.869
640.625	0.925
649.148	0.934
657.671	0.965
666.193	0.986
674.716	0.984
683.239	0.982
691.762	0.982
700.284	0.986
708.807	0.985
717.33	0.986
725.853	0.988
734.375	0.98
742.898	0.962
751.421	0.97
759.944	0.937
768.466	0.882
776.989	0.862
785.512	0.745
794.035	0.388
802.557	0.047
811.08	0.215
819.603	0.593
828.126	0.788
836.648	0.864
845.171	0.884
853.694	0.92
862.217	0.937
870.739	0.952
879.262	0.97
887.785	0.982
896.308	0.985
904.83	0.984
913.353	0.977
921.876	0.974
930.399	0.972
938.921	0.968
947.444	0.957
955.967	0.94
964.49	0.928
973.012	0.904
981.535	0.87
990.058	0.821
998.581	0.709
1007.1	0.511
1015.63	0.158
1024.15	0.011
1032.67	0.038
1041.19	0.211
1049.72	0.129
1058.24	0.029
1066.76	0.218
1075.29	0.5
1083.81	0.629
1092.33	0.72
1100.85	0.782
1109.38	0.817
1117.9	0.837
1126.42	0.85
1134.94	0.85
1143.47	0.83
1151.99	0.796
1160.51	0.756
1169.04	0.659
1177.56	0.509
1186.08	0.643
1194.6	0.769
1203.13	0.789
1211.65	0.805
1220.17	0.833
1228.7	0.845
1237.22	0.833
1245.74	0.809
1254.26	0.724
1262.79	0.76
1271.31	0.703
1279.83	0.585
1288.35	0.109
1296.88	0.029
1305.4	0.057
1313.92	0.05
1322.45	0.4351
1330.97	0.805
1339.49	0.866
1348.01	0.91
1356.54	0.925
1365.06	0.946
1373.58	0.966
1382.1	0.988
1390.63	0.976
1399.15	0.973
1407.67	0.964
1416.2	0.952
1424.72	0.932
1433.24	0.886
1441.76	0.7129
1450.29	0.572
1458.81	0.611
1467.33	0.774
1475.85	0.856
1484.38	0.913
1492.9	0.937
1501.42	0.953
1509.95	0.961
1518.47	0.972
1526.99	0.973
1535.51	0.982
1544.04	0.992
1552.56	0.989
1561.08	0.98
1569.61	0.973
1578.13	0.977
1586.65	0.981
1595.17	0.982
1603.7	0.982
1612.22	0.985
1620.74	0.992
1629.26	0.992
1637.79	0.993
1646.31	0.992
1654.83	0.994
1663.36	0.993
1671.88	0.994
1680.4	0.993
1688.92	0.993
1697.45	0.99
1705.97	0.992
1714.49	0.992
1723.01	0.992
1731.54	0.992
1740.06	0.993
1748.58	0.996
1757.11	0.998
1765.63	1
1774.15	1
1782.67	1
1791.2	1
1799.72	0.997
1808.24	0.989
1816.77	0.97
1825.29	0.94
1833.81	0.914
1842.33	0.934
1850.86	0.95
1859.38	0.948
1867.9	0.96
1876.42	0.986
1884.95	0.996
1893.47	0.998
1901.99	1
1910.52	1
1919.04	1
1927.56	1
1936.08	1
1944.61	1
1953.13	0.998
1961.65	0.998
1970.17	0.994
1978.7	0.992
1987.22	0.99
1995.74	0.982
2004.27	0.9925
2012.79	0.993
2021.31	0.9925
2029.83	0.993
2038.36	0.992
2046.88	0.992
2055.4	0.99
2063.93	0.992
2072.45	0.9895
2080.97	0.992
2089.49	0.99
2098.02	0.99
2106.54	0.989
2115.06	0.988
2123.58	0.9869
2132.11	0.9871
2140.63	0.988
2149.15	0.988
2157.68	0.988
2166.2	0.988
2174.72	0.9917
2183.24	0.9854
2191.77	0.985
2200.29	0.985
2208.81	0.9828
2217.33	0.981
2225.86	0.9814
2234.38	0.977
2242.9	0.976
2251.43	0.974
2259.95	0.972
2268.47	0.974
2276.99	0.976
2285.52	0.974
2294.04	0.976
2302.56	0.976
2311.08	0.977
2319.61	0.9846
2328.13	0.988
2336.65	0.99
2345.18	0.989
2353.7	0.988
2362.22	0.9893
2370.74	0.982
2379.27	0.976
2387.79	0.97
2396.31	0.9706
2404.84	0.9714
2413.36	0.97
2421.88	0.97
2430.4	0.9683
2438.93	0.968
2447.45	0.968
2455.97	0.9643
2464.49	0.961
2473.02	0.96
2481.54	0.9573
2490.06	0.956
2498.59	0.954
2507.11	0.953
2515.63	0.9505
2524.15	0.948
2532.68	0.9475
2541.2	0.946
2549.72	0.9442
2558.24	0.941
2566.77	0.938
2575.29	0.932
2583.81	0.9282
2592.34	0.928
2600.86	0.928
2609.38	0.9252
2617.9	0.924
2626.43	0.925
2634.95	0.928
2643.47	0.9316
2652	0.9338
2660.52	0.9368
2669.04	0.937
2677.56	0.9378
2686.09	0.937
2694.61	0.938
2703.13	0.938
2711.65	0.938
2720.18	0.94
2728.7	0.94
2737.22	0.938
2745.75	0.938
2754.27	0.938
2762.79	0.94
2771.31	0.938
2779.84	0.938
2788.36	0.9371
2796.88	0.936
2805.4	0.934
2813.93	0.9331
2822.45	0.9321
2830.97	0.9291
2839.5	0.9222
2848.02	0.8895
2856.54	0.7609
2865.06	0.8852
2873.59	0.9127
2882.11	0.917
2890.63	0.9121
2899.15	0.8942
2907.68	0.8901
2916.2	0.892
2924.72	0.892
2933.25	0.889
2941.77	0.8723
2950.29	0.7916
2958.81	0.5114
2967.34	0.7019
2975.86	0.8477
2984.38	0.8808
2992.91	0.885
3001.43	0.8662
3009.95	0.849
3018.47	0.845
3027	0.854
3035.52	0.86
3044.04	0.885
3052.56	0.91
3061.09	0.918
3069.61	0.926
3078.13	0.93
3086.66	0.934
3095.18	0.94
3103.7	0.944
3112.22	0.9451
3120.75	0.952
3129.27	0.954
3137.79	0.956
3146.31	0.96
3154.84	0.961
3163.36	0.9641
3171.88	0.9661
3180.41	0.968
3188.93	0.969
3197.45	0.972
3205.97	0.974
3214.5	0.974
3223.02	0.977
3231.54	0.977
3240.07	0.978
3248.59	0.98
3257.11	0.981
3265.63	0.981
3274.16	0.982
3282.68	0.984
3291.2	0.984
3299.72	0.984
3308.25	0.985
3316.77	0.986
3325.29	0.986
3333.82	0.988
3342.34	0.988
3350.86	0.988
3359.38	0.988
3367.91	0.989
3376.43	0.989
3384.95	0.989
3393.47	0.989
3402	0.989
3410.52	0.99
3419.04	0.99
3427.57	0.99
3436.09	0.992
3444.61	0.992
3453.13	0.992
3461.66	0.992
3470.18	0.9922
3478.7	0.993
3487.22	0.9932
3495.75	0.993
3504.27	0.993
3512.79	0.994
3521.32	0.993
3529.84	0.9928
3538.36	0.993
3546.88	0.993
3555.41	0.992
3563.93	0.99
3572.45	0.9898
3580.98	0.989
3589.5	0.989
3598.02	0.988
3606.54	0.988
3615.07	0.988
3623.59	0.986
3632.11	0.986
3640.63	0.985
3649.16	0.984
3657.68	0.986
3666.2	0.985
3674.73	0.985
3683.25	0.986
3691.77	0.986
3700.29	0.9853
3708.82	0.985
3717.34	0.985
3725.86	0.985
3734.38	0.984
3742.91	0.982
3751.43	0.982
3759.95	0.981
3768.48	0.982
3777	0.9827
3785.52	0.982
3794.04	0.9833
