Infrared Spectrum: PROPANE, 1,2,2,3-TETRACHLORO-1,1,3,3-TETRAFLUORO-
Formula: C3 Cl4 F4
CAS: 677-68-9
State: SOLUTION (10% CCl4 FOR 3800-1340, 10% CS2 FOR 1340-450 CM^-^1)
Class: COBLENTZ III
Instrument: DOW KBr FOREPRISM-GRATING
Instrument parameters: BLAZED AT 3.5, 12.0, 20.0 MICRON AND CHANGED AT 5.0, 7.5, 14.9 MICRON
Sampling: TRANSMISSION
Path length: 0.011 CM, 0.011 CM
Resolution: 2
Origin: DOW CHEMICAL COMPANY
1/CM	TRANSMITTANCE
451	0.7695
460	0.7785
469	0.7917
478	0.7999
487	0.8065
496	0.8118
505	0.8164
514	0.8202
523	0.8245
532	0.8298
541	0.8332
550	0.836
559	0.8378
568	0.8386
577	0.8389
586	0.837
595	0.8313
604	0.804
613	0.5803
622	0.6066
631	0.6408
640	0.7582
649	0.7696
658	0.7911
667	0.8121
676	0.8147
685	0.8021
694	0.7844
703	0.7506
712	0.4652
721	0.2728
730	0.7301
739	0.7987
748	0.7841
757	0.7332
766	0.491
775	0.0202
784	0.4862
793	0.616
802	0.5549
811	0.2119
820	0.5737
829	0.6383
838	0.6468
847	0.4046
856	0.123
865	0.5109
874	0.5641
883	0.5162
892	0.3444
901	0.0831
910	0.2851
919	0.4788
928	0.7612
937	0.8125
946	0.8193
955	0.825
964	0.8214
973	0.7948
982	0.7532
991	0.4334
1000	0.5694
1009	0.6285
1018	0.4059
1027	0.4974
1036	0.0727
1045	0.3032
1054	0.0595
1063	0.337
1072	0.4981
1081	0.6806
1090	0.6875
1099	0.7358
1108	0.7357
1117	0.7021
1126	0.6069
1135	0.3978
1144	0.0337
1153	0.0588
1162	0.0069
1171	0.0037
1180	0.0047
1189	0.0477
1198	0.5836
1207	0.7299
1216	0.7642
1225	0.79
1234	0.8032
1243	0.7918
1252	0.8025
1261	0.7996
1270	0.8038
1279	0.8111
1288	0.8076
1297	0.7998
1306	0.8065
1315	0.8045
1324	0.8015
1333	0.8035
1342	0.8263
1351	0.8325
1360	0.8478
1369	0.8424
1378	0.8348
1387	0.8308
1396	0.8341
1405	0.8344
1414	0.8337
1423	0.8323
1432	0.8312
1441	0.8299
1450	0.8285
1459	0.8271
1468	0.823
1477	0.8072
1486	0.7856
1495	0.7537
1504	0.7132
1513	0.6691
1522	0.6179
1531	0.5584
1540	0.4666
1549	0.416
1558	0.4866
1567	0.55
1576	0.581
1585	0.6137
1594	0.6941
1603	0.75
1612	0.79
1621	0.8176
1630	0.8282
1639	0.8335
1648	0.8401
1657	0.8443
1666	0.8427
1675	0.8441
1684	0.8433
1693	0.8438
1702	0.8457
1711	0.847
1720	0.8488
1729	0.8497
1738	0.8468
1747	0.8447
1756	0.8418
1765	0.839
1774	0.84
1783	0.8395
1792	0.8414
1801	0.8382
1810	0.8339
1819	0.833
1828	0.8346
1837	0.8352
1846	0.8321
1855	0.8347
1864	0.8375
1873	0.8378
1882	0.8384
1891	0.8399
1900	0.8394
1909	0.8385
1918	0.8371
1927	0.8367
1936	0.8378
1945	0.837
1954	0.8371
1963	0.8368
1972	0.836
1981	0.8364
1990	0.836
1999	0.831
2008	0.8385
2017	0.8462
2026	0.8477
2035	0.8452
2044	0.8439
2053	0.8443
2062	0.8445
2071	0.8448
2080	0.8461
2089	0.8474
2098	0.8488
2107	0.8502
2116	0.8512
2125	0.8509
2134	0.8488
2143	0.8464
2152	0.8428
2161	0.8392
2170	0.8337
2179	0.8291
2188	0.8364
2197	0.843
2206	0.8439
2215	0.8478
2224	0.8498
2233	0.8504
2242	0.8488
2251	0.8427
2260	0.8332
2269	0.8211
2278	0.8119
2287	0.8104
2296	0.8141
2305	0.8182
2314	0.8241
2323	0.8317
2332	0.8332
2341	0.8344
2350	0.8392
2359	0.8446
2368	0.8487
2377	0.8514
2386	0.8533
2395	0.8536
2404	0.8533
2413	0.8559
2422	0.8578
2431	0.858
2440	0.8581
2449	0.8581
2458	0.8581
2467	0.8581
2476	0.8581
2485	0.8581
2494	0.8586
2503	0.8595
2512	0.8597
2521	0.8581
2530	0.857
2539	0.8575
2548	0.8592
2557	0.8589
2566	0.8585
2575	0.8578
2584	0.8574
2593	0.8571
2602	0.8582
2611	0.8584
2620	0.8567
2629	0.8559
2638	0.8574
2647	0.8588
2656	0.8587
2665	0.8584
2674	0.8582
2683	0.858
2692	0.8578
2701	0.8578
2710	0.8581
2719	0.8582
2728	0.8582
2737	0.8582
2746	0.8582
2755	0.86
2764	0.862
2773	0.8632
2782	0.8623
2791	0.8603
2800	0.8585
2809	0.8592
2818	0.8607
2827	0.8597
2836	0.8571
2845	0.8545
2854	0.8594
2863	0.8598
2872	0.8587
2881	0.8571
2890	0.8557
2899	0.8537
2908	0.8514
2917	0.8499
2926	0.8506
2935	0.8532
2944	0.855
2953	0.8554
2962	0.8555
2971	0.8557
2980	0.8567
2989	0.8578
2998	0.8586
3007	0.8584
3016	0.858
3025	0.8558
3034	0.8546
3043	0.8546
3052	0.8547
3061	0.8561
3070	0.8575
3079	0.8589
3088	0.8588
3097	0.859
3106	0.8598
3115	0.8603
3124	0.8605
3133	0.861
3142	0.8617
3151	0.8617
3160	0.8613
3169	0.8607
3178	0.8606
3187	0.8606
3196	0.8607
3205	0.861
3214	0.8614
3223	0.8617
3232	0.8615
3241	0.8614
3250	0.8617
3259	0.8624
3268	0.8654
3277	0.8651
3286	0.8643
3295	0.8628
3304	0.8618
3313	0.861
3322	0.8601
3331	0.8593
3340	0.8586
3349	0.8601
3358	0.8611
3367	0.8617
3376	0.8618
3385	0.8611
3394	0.8603
3403	0.8606
3412	0.8618
3421	0.8625
3430	0.8632
3439	0.8635
3448	0.8633
3457	0.8627
3466	0.8623
3475	0.8618
3484	0.8615
3493	0.8612
3502	0.8612
3511	0.862
3520	0.8637
3529	0.864
3538	0.863
3547	0.8618
3556	0.8614
3565	0.8516
3574	0.832
3583	0.8581
3592	0.848
3601	0.8478
3610	0.8625
3619	0.8621
3628	0.8621
3637	0.8662
3646	0.8663
3655	0.8658
3664	0.8645
3673	0.8603
3682	0.8575
3691	0.8634
3700	0.8652
3709	0.8671
3718	0.8694
3727	0.8723
3736	0.8684
3745	0.8668
3754	0.8667
3763	0.8671
3772	0.8685
3781	0.8703
3790	0.8697
