Infrared Spectrum: BENZENE, 1,4-BIS(TRICHLOROMETHYL)-
Formula: C8 H4 Cl6
CAS: 68-36-0
State: SOLUTION (10% IN CCl4 FOR 3800-1330 AND 10% IN CS2 FOR 1330-400 CM^-^1)
Class: COBLENTZ III
Instrument: DOW KBr FOREPRISM-GRATING
Instrument parameters: BLAZED AT 3.5, 12.0, 20.0 MICRON, CHANGED AT 5.0, 7.5, 14.9 MICRON
Sampling: TRANSMISSION
Path length: 0.011, 0.010CM
Resolution: 4
Origin: DOW CHEMICAL COMPANY
1/CM	TRANSMITTANCE
399.13	0.191
407.826	0.145
416.521	0.447
425.217	0.626
433.913	0.688
442.608	0.584
451.304	0.804
460	0.849
468.695	0.866
477.391	0.885
486.086	0.9
494.782	0.914
503.478	0.927
512.173	0.936
520.869	0.944
529.565	0.951
538.26	0.914
546.956	0.952
555.652	0.968
564.347	0.976
573.043	0.982
581.739	0.985
590.434	0.985
599.13	0.985
607.825	0.985
616.521	0.982
625.217	0.98
633.912	0.971
642.608	0.947
651.304	0.929
659.999	0.922
668.695	0.937
677.391	0.869
686.086	0.822
694.782	0.812
703.478	0.769
712.173	0.75
720.869	0.713
729.565	0.122
738.26	0.004
746.956	0.052
755.651	0.468
764.347	0.576
773.043	0.519
781.738	0.379
790.434	0.062
799.13	0.133
807.825	0.603
816.521	0.667
825.217	0.677
833.912	0.618
842.608	0.438
851.304	0.061
859.999	0.375
868.695	0.76
877.391	0.838
886.086	0.877
894.782	0.915
903.477	0.948
912.173	0.959
920.869	0.966
929.564	0.961
938.26	0.959
946.956	0.956
955.651	0.953
964.347	0.953
973.043	0.957
981.738	0.955
990.434	0.956
999.13	0.963
1007.83	0.964
1016.52	0.952
1025.22	0.917
1033.91	0.949
1042.61	0.952
1051.3	0.953
1060	0.955
1068.69	0.955
1077.39	0.955
1086.09	0.955
1094.78	0.955
1103.48	0.952
1112.17	0.951
1120.87	0.949
1129.56	0.944
1138.26	0.933
1146.96	0.927
1155.65	0.933
1164.35	0.93
1173.04	0.923
1181.74	0.839
1190.43	0.235
1199.13	0.546
1207.83	0.802
1216.52	0.83
1225.22	0.898
1233.91	0.932
1242.61	0.942
1251.3	0.947
1260	0.96
1268.69	0.966
1277.39	0.966
1286.09	0.963
1294.78	0.959
1303.48	0.956
1312.17	0.952
1320.87	0.947
1329.56	0.942
1338.26	0.941
1346.96	0.922
1355.65	0.888
1364.35	0.838
1373.04	0.881
1381.74	0.902
1390.43	0.904
1399.13	0.841
1407.82	0.332
1416.52	0.877
1425.22	0.911
1433.91	0.921
1442.61	0.93
1451.3	0.94
1460	0.938
1468.69	0.929
1477.39	0.913
1486.09	0.828
1494.78	0.841
1503.48	0.694
1512.17	0.725
1520.87	0.709
1529.56	0.664
1538.26	0.576
1546.96	0.493
1555.65	0.49
1564.35	0.573
1573.04	0.638
1581.74	0.658
1590.43	0.707
1599.13	0.793
1607.82	0.857
1616.52	0.888
1625.22	0.913
1633.91	0.923
1642.61	0.927
1651.3	0.927
1660	0.933
1668.69	0.934
1677.39	0.906
1686.09	0.921
1694.78	0.936
1703.48	0.945
1712.17	0.947
1720.87	0.951
1729.56	0.951
1738.26	0.949
1746.96	0.945
1755.65	0.947
1764.35	0.955
1773.04	0.951
1781.74	0.941
1790.43	0.911
1799.13	0.94
1807.82	0.944
1816.52	0.948
1825.22	0.952
1833.91	0.951
1842.61	0.945
1851.3	0.949
1860	0.952
1868.69	0.952
1877.39	0.955
1886.09	0.955
1894.78	0.955
1903.48	0.949
1912.17	0.908
1920.87	0.906
1929.56	0.944
1938.26	0.955
1946.95	0.956
1955.65	0.956
1964.35	0.956
1973.04	0.957
1981.74	0.952
1990.43	0.955
1999.13	0.955
2007.82	0.953
2016.52	0.956
2025.22	0.956
2033.91	0.953
2042.61	0.952
2051.3	0.956
2060	0.96
2068.69	0.9621
2077.39	0.961
2086.09	0.9581
2094.78	0.9564
2103.48	0.9604
2112.17	0.9634
2120.87	0.9649
2129.56	0.963
2138.26	0.963
2146.95	0.964
2155.65	0.966
2164.35	0.966
2173.04	0.966
2181.74	0.9652
2190.43	0.964
2199.13	0.963
2207.82	0.963
2216.52	0.964
2225.22	0.964
2233.91	0.964
2242.61	0.963
2251.3	0.961
2260	0.957
2268.69	0.955
2277.39	0.9517
2286.09	0.9463
2294.78	0.942
2303.48	0.9407
2312.17	0.94
2320.87	0.942
2329.56	0.941
2338.26	0.941
2346.95	0.9413
2355.65	0.944
2364.35	0.942
2373.04	0.94
2381.74	0.9434
2390.43	0.9523
2399.13	0.956
2407.82	0.9563
2416.52	0.959
2425.22	0.961
2433.91	0.963
2442.61	0.963
2451.3	0.964
2460	0.964
2468.69	0.964
2477.39	0.964
2486.08	0.964
2494.78	0.966
2503.48	0.967
2512.17	0.966
2520.87	0.9672
2529.56	0.967
2538.26	0.967
2546.95	0.967
2555.65	0.964
2564.35	0.964
2573.04	0.964
2581.74	0.964
2590.43	0.964
2599.13	0.9627
2607.82	0.961
2616.52	0.961
2625.22	0.961
2633.91	0.96
2642.61	0.9599
2651.3	0.959
2660	0.957
2668.69	0.957
2677.39	0.9559
2686.08	0.955
2694.78	0.9572
2703.48	0.96
2712.17	0.96
2720.87	0.96
2729.56	0.96
2738.26	0.96
2746.95	0.96
2755.65	0.96
2764.35	0.96
2773.04	0.959
2781.74	0.957
2790.43	0.9508
2799.13	0.9339
2807.82	0.9343
2816.52	0.947
2825.22	0.9491
2833.91	0.952
2842.61	0.953
2851.3	0.953
2860	0.955
2868.69	0.953
2877.39	0.955
2886.08	0.955
2894.78	0.955
2903.48	0.953
2912.17	0.953
2920.87	0.952
2929.56	0.952
2938.26	0.951
2946.95	0.951
2955.65	0.952
2964.35	0.952
2973.04	0.952
2981.74	0.952
2990.43	0.952
2999.13	0.951
3007.82	0.949
3016.52	0.948
3025.21	0.9471
3033.91	0.947
3042.61	0.945
3051.3	0.942
3060	0.941
3068.69	0.938
3077.39	0.936
3086.08	0.933
3094.78	0.932
3103.48	0.93
3112.17	0.93
3120.87	0.93
3129.56	0.93
3138.26	0.932
3146.95	0.932
3155.65	0.933
3164.35	0.934
3173.04	0.9357
3181.74	0.937
3190.43	0.94
3199.13	0.941
3207.82	0.9384
3216.52	0.937
3225.21	0.937
3233.91	0.9362
3242.61	0.934
3251.3	0.933
3260	0.933
3268.69	0.933
3277.39	0.933
3286.08	0.933
3294.78	0.933
3303.48	0.933
3312.17	0.933
3320.87	0.9322
3329.56	0.932
3338.26	0.93
3346.95	0.93
3355.65	0.9293
3364.35	0.929
3373.04	0.927
3381.74	0.927
3390.43	0.927
3399.13	0.926
3407.82	0.925
3416.52	0.925
3425.21	0.9257
3433.91	0.926
3442.61	0.9267
3451.3	0.927
3460	0.927
3468.69	0.927
3477.39	0.926
3486.08	0.925
3494.78	0.923
3503.48	0.922
3512.17	0.922
3520.87	0.922
3529.56	0.9243
3538.26	0.925
3546.95	0.926
3555.65	0.927
3564.34	0.927
3573.04	0.927
3581.74	0.927
3590.43	0.929
3599.13	0.929
3607.82	0.929
3616.52	0.929
3625.21	0.929
3633.91	0.929
3642.61	0.929
3651.3	0.9296
3660	0.93
3668.69	0.93
3677.39	0.93
3686.08	0.93
3694.78	0.929
3703.48	0.929
3712.17	0.927
3720.87	0.926
3729.56	0.926
3738.26	0.926
3746.95	0.926
3755.65	0.927
3764.34	0.927
3773.04	0.927
3781.74	0.929
3790.43	0.928
