Infrared Spectrum: Hypoxanthine
Formula: C5 H4 N4 O
CAS: 68-94-0
State: SOLID (1.4 mg / 400 mg KBr DISC)
Class: COBLENTZ III
Instrument: PERKIN-ELMER 180 (GRATING)
Instrument parameters: GRATINGS: 2000, 1000, 500, 250 CM^-^1; FILTER CHANGE: 2970, 2000, 1485, 1000, 743, 500, 372, 250, 186 CM^-^1.
Sampling: TRANSMISSION
Resolution: 2
Origin: K. K. DEB-NCI FREDERICK CANCER RESEARCH CENTER
1/CM	TRANSMITTANCE
407	0.9553
416	0.959
425	0.9617
434	0.9646
443	0.962
452	0.9562
461	0.9569
470	0.9547
479	0.9485
488	0.943
497	0.9344
506	0.9208
515	0.8791
524	0.776
533	0.8778
542	0.8759
551	0.7364
560	0.5241
569	0.5474
578	0.9547
587	0.9527
596	0.9383
605	0.9103
614	0.8122
623	0.7679
632	0.7425
641	0.7115
650	0.5166
659	0.8899
668	0.9359
677	0.9352
686	0.9247
695	0.8908
704	0.8522
713	0.8832
722	0.8856
731	0.8869
740	0.8794
749	0.8709
758	0.86
767	0.8454
776	0.8256
785	0.7684
794	0.5299
803	0.8073
812	0.801
821	0.7766
830	0.7537
839	0.7309
848	0.698
857	0.6491
866	0.5899
875	0.4725
884	0.2984
893	0.2781
902	0.4625
911	0.4959
920	0.6098
929	0.6956
938	0.6598
947	0.5969
956	0.5341
965	0.3876
974	0.5606
983	0.7929
992	0.827
1001	0.8365
1010	0.8388
1019	0.8373
1028	0.8342
1037	0.8305
1046	0.8266
1055	0.8227
1064	0.8154
1073	0.796
1082	0.7675
1091	0.739
1100	0.7109
1109	0.7151
1118	0.6812
1127	0.5894
1136	0.4383
1145	0.5929
1154	0.4701
1163	0.7467
1172	0.8034
1181	0.7689
1190	0.6996
1199	0.6095
1208	0.4373
1217	0.3977
1226	0.7028
1235	0.7968
1244	0.8344
1253	0.8157
1262	0.7781
1271	0.6299
1280	0.6972
1289	0.8022
1298	0.8004
1307	0.7961
1316	0.7728
1325	0.7294
1334	0.6419
1343	0.4901
1352	0.5159
1361	0.6108
1370	0.5716
1379	0.7266
1388	0.6651
1397	0.636
1406	0.6031
1415	0.47
1424	0.4569
1433	0.7385
1442	0.7018
1451	0.6603
1460	0.5974
1469	0.48
1478	0.6294
1487	0.7039
1496	0.6868
1505	0.6502
1514	0.604
1523	0.6249
1532	0.6161
1541	0.5918
1550	0.5607
1559	0.479
1568	0.382
1577	0.2981
1586	0.3656
1595	0.5082
1604	0.5044
1613	0.4771
1622	0.4119
1631	0.3468
1640	0.2816
1649	0.2165
1658	0.1513
1667	0.0962
1676	0.1143
1685	0.1767
1694	0.2575
1703	0.3382
1712	0.419
1721	0.4997
1730	0.5805
1739	0.6612
1748	0.7108
1757	0.6994
1766	0.6771
1775	0.7063
1784	0.7445
1793	0.7331
1802	0.7143
1811	0.6944
1820	0.6957
1829	0.7025
1838	0.7043
1847	0.6999
1856	0.6962
1865	0.702
1874	0.7079
1883	0.7145
1892	0.7189
1901	0.7243
1910	0.7295
1919	0.7383
1928	0.7536
1937	0.7692
1946	0.7783
1955	0.784
1964	0.787
1973	0.7869
1982	0.7794
1991	0.7747
2000	0.785
2009	0.7989
2018	0.803
2027	0.8031
2036	0.8027
2045	0.8023
2054	0.8006
2063	0.7959
2072	0.7901
2081	0.7825
2090	0.7788
2099	0.7777
2108	0.7747
2117	0.7684
2126	0.7609
2135	0.7538
2144	0.7472
2153	0.7408
2162	0.7344
2171	0.7259
2180	0.7175
2189	0.7065
2198	0.6953
2207	0.6855
2216	0.6757
2225	0.666
2234	0.6562
2243	0.6461
2252	0.6361
2261	0.6263
2270	0.6165
2279	0.6062
2288	0.596
2297	0.5866
2306	0.5768
2315	0.5642
2324	0.5541
2333	0.5468
2342	0.5401
2351	0.5344
2360	0.5317
2369	0.5228
2378	0.5133
2387	0.5089
2396	0.5045
2405	0.4986
2414	0.4933
2423	0.488
2432	0.4825
2441	0.4751
2450	0.4655
2459	0.4541
2468	0.4415
2477	0.4307
2486	0.4241
2495	0.4205
2504	0.4159
2513	0.4079
2522	0.3984
2531	0.3957
2540	0.3972
2549	0.4016
2558	0.4069
2567	0.4131
2576	0.4191
2585	0.4193
2594	0.4117
2603	0.3935
2612	0.3898
2621	0.3893
2630	0.3894
2639	0.3907
2648	0.3923
2657	0.3931
2666	0.3904
2675	0.3843
2684	0.3799
2693	0.3821
2702	0.388
2711	0.3902
2720	0.3831
2729	0.376
2738	0.3691
2747	0.3628
2756	0.359
2765	0.3597
2774	0.3657
2783	0.3647
2792	0.3551
2801	0.3443
2810	0.3461
2819	0.3551
2828	0.3651
2837	0.3678
2846	0.3599
2855	0.3571
2864	0.3625
2873	0.366
2882	0.3645
2891	0.3679
2900	0.3837
2909	0.3844
2918	0.3781
2927	0.3701
2936	0.3724
2945	0.3852
2954	0.3924
2963	0.3996
2972	0.4253
2981	0.4326
2990	0.4282
2999	0.4297
3008	0.4415
3017	0.4386
3026	0.4243
3035	0.3956
3044	0.3842
3053	0.3977
3062	0.4311
3071	0.4601
3080	0.4767
3089	0.4879
3098	0.494
3107	0.5177
3116	0.5368
3125	0.4976
3134	0.4895
3143	0.5491
3152	0.5688
3161	0.5974
3170	0.6168
3179	0.6311
3188	0.6392
3197	0.6609
3206	0.6855
3215	0.7053
3224	0.7168
3233	0.7184
3242	0.7151
3251	0.7118
3260	0.7148
3269	0.7233
3278	0.7374
3287	0.7505
3296	0.759
3305	0.7607
3314	0.7602
3323	0.7562
3332	0.7514
3341	0.7448
3350	0.7438
3359	0.7438
3368	0.7423
3377	0.7402
3386	0.7377
3395	0.7358
3404	0.7344
3413	0.7329
3422	0.7325
3431	0.7321
3440	0.7322
3449	0.733
3458	0.7339
3467	0.7347
3476	0.7357
3485	0.7356
3494	0.7331
3503	0.7338
3512	0.7378
3521	0.7413
3530	0.7446
3539	0.7477
3548	0.7506
3557	0.7534
3566	0.7562
3575	0.7583
3584	0.7604
3593	0.7625
3602	0.7646
3611	0.7659
3620	0.7674
3629	0.7687
3638	0.7687
3647	0.7684
3656	0.768
3665	0.766
3674	0.765
3683	0.7652
3692	0.7657
3701	0.7661
3710	0.7656
3719	0.7639
3728	0.762
3737	0.7601
3746	0.7585
3755	0.757
3764	0.7557
3773	0.7543
3782	0.753
