Infrared Spectrum: Diethyl methylphosphonate (DEMP)
Formula: C 5 H 13 O 3 P
CAS: 683-08-9
State: liquid
Instrument: Bruker Tensor 27 FTIR
Resolution: 0.48212986
Origin: Pacific Northwest National Laboratory Under IARPA Contract
1/cm	dispersion index
7797.49	1.40159
7778.93	1.40159
7760.37	1.40158
7741.81	1.40157
7723.24	1.40156
7704.68	1.40155
7686.12	1.40154
7667.56	1.40153
7649	1.40151
7630.44	1.4015
7611.88	1.40149
7593.31	1.40147
7574.75	1.40147
7556.19	1.40146
7537.63	1.40145
7519.07	1.40144
7500.51	1.40143
7481.95	1.40142
7463.38	1.40141
7444.82	1.40139
7426.26	1.40137
7407.7	1.40136
7389.14	1.40134
7370.58	1.40133
7352.02	1.40131
7333.46	1.40129
7314.89	1.40128
7296.33	1.40126
7277.77	1.40124
7259.21	1.40122
7240.65	1.40121
7222.09	1.40119
7203.53	1.40117
7184.96	1.40115
7166.4	1.40113
7147.84	1.40111
7129.28	1.40109
7110.72	1.40107
7092.16	1.40104
7073.6	1.40102
7055.03	1.401
7036.47	1.40098
7017.91	1.40095
6999.35	1.40093
6980.79	1.4009
6962.23	1.40087
6943.67	1.40084
6925.1	1.40081
6906.54	1.40076
6887.98	1.40072
6869.42	1.40072
6850.86	1.40075
6832.3	1.40071
6813.74	1.40067
6795.17	1.40067
6776.61	1.40068
6758.05	1.40063
6739.49	1.4006
6720.93	1.40058
6702.37	1.40053
6683.81	1.4005
6665.25	1.40046
6646.68	1.40043
6628.12	1.40039
6609.56	1.40035
6591	1.40031
6572.44	1.40027
6553.88	1.40022
6535.32	1.40018
6516.75	1.40014
6498.19	1.4001
6479.63	1.40006
6461.07	1.40002
6442.51	1.39996
6423.95	1.39991
6405.39	1.39986
6386.82	1.39981
6368.26	1.39975
6349.7	1.39969
6331.14	1.39963
6312.58	1.39957
6294.02	1.3995
6275.46	1.39943
6256.89	1.39935
6238.33	1.39927
6219.77	1.39918
6201.21	1.39909
6182.65	1.39898
6164.09	1.39883
6145.53	1.39864
6126.96	1.39836
6108.4	1.39849
6089.84	1.39895
6071.28	1.3988
6052.72	1.3989
6034.16	1.39883
6015.6	1.39877
5997.03	1.39855
5978.47	1.3984
5959.91	1.39836
5941.35	1.39822
5922.79	1.39826
5904.23	1.3983
5885.67	1.39809
5867.11	1.39803
5848.54	1.39776
5829.98	1.39788
5811.42	1.39748
5792.86	1.39762
5774.3	1.39735
5755.74	1.39717
5737.18	1.39694
5718.61	1.39665
5700.05	1.39638
5681.49	1.39605
5662.93	1.39602
5644.37	1.39586
5625.81	1.39574
5607.25	1.39545
5588.68	1.39504
5570.12	1.39458
5551.56	1.39405
5533	1.39354
5514.44	1.39307
5495.88	1.39239
5477.32	1.39117
5458.75	1.38946
5440.19	1.38685
5421.63	1.38198
5403.07	1.3668
5384.51	1.41106
5365.95	1.39986
5347.39	1.41524
5328.82	1.40899
5310.26	1.40437
5291.7	1.40179
5273.14	1.40024
5254.58	1.39976
5236.02	1.39833
5217.46	1.39732
5198.89	1.39684
5180.33	1.39595
5161.77	1.39518
5143.21	1.39451
5124.65	1.3943
5106.09	1.39361
5087.53	1.39284
5068.97	1.39209
5050.4	1.39162
5031.84	1.39093
5013.28	1.38997
4994.72	1.38973
4976.16	1.38869
4957.6	1.38796
4939.04	1.38729
4920.47	1.38607
4901.91	1.38497
4883.35	1.38353
4864.79	1.38243
4846.23	1.38068
4827.67	1.379
4809.11	1.37859
4790.54	1.37678
4771.98	1.37513
4753.42	1.37381
4734.86	1.371
4716.3	1.36813
4697.74	1.36399
4679.18	1.35847
4660.61	1.3511
4642.05	1.33843
4623.49	1.33303
4604.93	1.33569
4586.37	1.33571
4567.81	1.29607
4549.25	1.3233
4530.68	1.15972
4512.12	1.51315
4493.56	1.36493
4475	1.34791
4456.44	1.25401
4437.88	1.12576
4419.32	1.26708
4400.75	1.52589
4382.19	1.42096
4363.63	1.67578
4345.07	1.59022
4326.51	1.50499
4307.95	1.38745
4289.39	1.5087
4270.83	1.52085
4252.26	1.52471
4233.7	1.49553
4215.14	1.4765
4196.58	1.46134
4178.02	1.44286
4159.46	1.38145
4140.9	1.51828
4122.33	1.50231
4103.77	1.50959
4085.21	3.31786e-05
4066.65	4.3133e-05
4048.09	4.94678e-05
4029.53	3.71008e-05
4010.97	3.19732e-05
3992.4	4.25295e-05
3973.84	4.70552e-05
3955.28	4.85633e-05
3936.72	4.85633e-05
3918.16	5.48964e-05
3899.6	7.32956e-05
3881.04	8.65686e-05
3862.47	8.89812e-05
3843.91	8.56625e-05
3825.35	9.38079e-05
3806.79	9.01883e-05
3788.23	7.60107e-05
3769.67	6.12312e-05
3751.11	4.70552e-05
3732.54	3.89099e-05
3713.98	3.67983e-05
3695.42	3.40848e-05
3676.86	3.10687e-05
3658.3	3.01625e-05
3639.74	3.19732e-05
3621.18	3.04651e-05
3602.61	2.75995e-05
3584.05	2.79005e-05
3565.49	2.92888e-05
3546.93	2.85946e-05
3528.37	2.49442e-05
3509.81	2.15058e-05
3491.25	1.79768e-05
3472.69	1.47504e-05
3454.12	1.16728e-05
3435.56	9.2295e-06
3417	7.93342e-06
3398.44	8.17452e-06
3379.88	7.38975e-06
3361.32	7.66159e-06
3342.76	7.48036e-06
3324.19	8.86867e-06
3305.63	9.83304e-06
3287.07	9.89291e-06
3268.51	7.0273e-06
3249.95	3.52902e-06
3231.39	3.28793e-06
3212.83	1.44785e-05
3194.26	9.56169e-05
3175.7	0.0002588
3157.14	0.000282628
3138.58	0.000158659
3120.02	0.000189425
3101.46	0.000285645
3082.9	0.000244925
3064.33	0.000136638
3045.77	0.000136035
3027.21	0.000100745
3008.65	6.9375e-05
2990.09	8.17419e-05
2971.53	8.02339e-05
2952.97	6.63589e-05
2934.4	5.33884e-05
2915.84	4.61491e-05
2897.28	4.55456e-05
2878.72	4.49437e-05
2860.16	5.18803e-05
2841.6	5.94206e-05
2823.04	6.03267e-05
2804.47	7.20901e-05
2785.91	8.53616e-05
2767.35	6.84705e-05
2748.79	5.33884e-05
2730.23	5.24839e-05
2711.67	5.21829e-05
2693.11	4.76572e-05
2674.55	5.03723e-05
2655.98	6.03267e-05
2637.42	6.87714e-05
2618.86	6.42473e-05
2600.3	7.0883e-05
2581.74	8.11384e-05
2563.18	8.38535e-05
2544.62	9.74275e-05
2526.05	0.000105872
2507.49	0.00013875
2488.93	0.000162579
2470.37	0.000197569
2451.81	0.000297106
2433.25	0.0007028
2414.69	0.00246433
2396.12	0.0022562
2377.56	0.00202696
2359	0.00156848
2340.44	0.00139957
2321.88	0.0012397
2303.32	0.000823453
2284.76	0.0011462
2266.19	0.00112508
2247.63	0.00139655
2229.07	0.00155943
2210.51	0.0015534
2191.95	0.000995383
2173.39	0.00113715
2154.83	0.000974269
2136.26	0.00114017
2117.7	0.000817421
2099.14	0.00093204
2080.58	0.000591196
2062.02	0.00061231
2043.46	0.000443398
2024.9	0.000440382
2006.33	0.000539919
1987.77	0.000859648
1969.21	0.00166199
1950.65	0.00152324
1932.09	0.00157753
1913.53	0.00117636
1894.97	0.000895844
1876.41	0.000853616
1857.84	0.000980301
1839.28	0.00130908
1820.72	0.00178566
1802.16	0.00142672
1783.6	0.000977285
1765.04	0.00110699
1746.48	0.00207522
1727.91	0.00464512
1709.35	0.016831
1690.79	0.152625
1672.23	0.0548969
1653.67	0.0693752
1635.11	0.0228335
1616.55	0.00766143
1597.98	0.00380055
1579.42	0.00355925
1560.86	0.00322745
1542.3	0.00120049
1523.74	0.00121256
1505.18	0.00174343
1486.62	0.000889812
1468.05	0.000847583
1449.49	0.00144481
1430.93	0.00207824
1412.37	0.00121256
1393.81	0.0008506
1375.25	0.00122462
1356.69	0.0017374
1338.12	0.00146291
1319.56	0.00121859
1301	0.00254275
1282.44	0.00143576
1263.88	0.00252164
1245.32	0.00195457
1226.76	0.00124574
1208.19	0.00158356
1189.63	0.00187011
1171.07	0.00262117
1152.51	0.00229843
1133.95	0.00500708
1115.39	0.00886795
1096.83	0.00705817
1078.27	0.00862665
1059.7	0.00699784
1041.14	0.00663588
1022.58	0.00600246
1004.02	0.0048261
985.458	0.00428316
966.897	0.00681686
948.335	0.017374
929.774	0.0407202
911.213	0.0585164
892.651	0.0868698
874.09	0.0136036
855.528	0.325762
836.967	0.139655
818.406	0.696768
799.844	0.0374023
781.283	0.202093
762.721	0.0868698
744.16	0.239797
725.599	1.1281
707.037	0.416251
688.476	0.769159
669.915	0.624376
651.353	0.313696
632.792	0.0361957
614.23	0.0757094
595.669	0.176454
577.108	0.0784241
558.546	0.145085
539.985	0.012578
521.423	0.00401169
502.862	0.00431332
484.301	0.00808371
465.739	0.0254577
447.178	0.389104
428.616	0.0947122
410.055	0.0714866
