Infrared Spectrum: ACETAMIDE, N,N-DIETHYL-
Formula: C6 H13 N O
CAS: 685-91-6
State: LIQUID (NEAT)
Boiling point: 65 C AT 10 mmHg
Class: COBLENTZ III
Instrument: DOW KBr FOREPRISM-GRATING
Instrument parameters: BLAZED AT 3.5, 12.0, 20.0 MICRON AND CHANGED AT 5.0, 7.5, 14.9 MICRON
Sampling: TRANSMISSION
Path length: CAPILLARY
Resolution: 2
Origin: DOW CHEMICAL COMPANY
1/CM	TRANSMITTANCE
452	0.7449
461	0.7411
470	0.7365
479	0.7232
488	0.6918
497	0.653
506	0.6751
515	0.7339
524	0.7474
533	0.7535
542	0.7581
551	0.7561
560	0.7505
569	0.7326
578	0.6668
587	0.5004
596	0.6818
605	0.6293
614	0.5747
623	0.7208
632	0.7754
641	0.795
650	0.8065
659	0.8142
668	0.8217
677	0.8095
686	0.8161
695	0.8165
704	0.7676
713	0.8193
722	0.8425
731	0.8495
740	0.8512
749	0.8516
758	0.851
767	0.845
776	0.8047
785	0.6334
794	0.5866
803	0.7661
812	0.8462
821	0.8651
830	0.8747
839	0.878
848	0.8804
857	0.8816
866	0.8815
875	0.8804
884	0.8778
893	0.8718
902	0.8336
911	0.7028
920	0.8475
929	0.8513
938	0.8021
947	0.7165
956	0.8294
965	0.8348
974	0.8204
983	0.6946
992	0.5862
1001	0.7257
1010	0.7817
1019	0.7395
1028	0.5296
1037	0.3207
1046	0.648
1055	0.7299
1064	0.6908
1073	0.4832
1082	0.499
1091	0.5495
1100	0.5034
1109	0.7465
1118	0.8264
1127	0.8471
1136	0.8386
1145	0.8281
1154	0.7954
1163	0.6233
1172	0.6499
1181	0.8175
1190	0.8318
1199	0.8196
1208	0.7648
1217	0.5567
1226	0.398
1235	0.7421
1244	0.7638
1253	0.7436
1262	0.6814
1271	0.4206
1280	0.1572
1289	0.335
1298	0.5589
1307	0.4728
1316	0.4665
1325	0.7005
1334	0.6791
1343	0.5091
1352	0.3832
1361	0.2375
1370	0.3214
1379	0.2665
1388	0.4829
1397	0.5146
1406	0.4186
1415	0.2207
1424	0.1072
1433	0.1185
1442	0.1391
1451	0.1488
1460	0.156
1469	0.2883
1478	0.2835
1487	0.2484
1496	0.3516
1505	0.621
1514	0.6842
1523	0.7105
1532	0.7271
1541	0.7514
1550	0.755
1559	0.7399
1568	0.7075
1577	0.6592
1586	0.5894
1595	0.4705
1604	0.2972
1613	0.1181
1622	0.0701
1631	0.0625
1640	0.0667
1649	0.0809
1658	0.1189
1667	0.2709
1676	0.5155
1685	0.68
1694	0.74
1703	0.774
1712	0.8021
1721	0.8206
1730	0.8199
1739	0.8067
1748	0.8201
1757	0.8517
1766	0.8557
1775	0.8567
1784	0.8635
1793	0.8696
1802	0.8713
1811	0.8721
1820	0.8736
1829	0.8771
1838	0.8801
1847	0.8798
1856	0.8792
1865	0.8778
1874	0.8763
1883	0.8807
1892	0.8832
1901	0.8835
1910	0.8812
1919	0.878
1928	0.8743
1937	0.8754
1946	0.8747
1955	0.8816
1964	0.8778
1973	0.8713
1982	0.8688
1991	0.8954
2000	0.8967
2009	0.8966
2018	0.8957
2027	0.8937
2036	0.8898
2045	0.8854
2054	0.8823
2063	0.8794
2072	0.8771
2081	0.8752
2090	0.8757
2099	0.8762
2108	0.8768
2117	0.8764
2126	0.8742
2135	0.8698
2144	0.8709
2153	0.8721
2162	0.8733
2171	0.8738
2180	0.8758
2189	0.8788
2198	0.881
2207	0.8818
2216	0.8825
2225	0.883
2234	0.8828
2243	0.8825
2252	0.8821
2261	0.8815
2270	0.8821
2279	0.884
2288	0.885
2297	0.8842
2306	0.8828
2315	0.8808
2324	0.8796
2333	0.8786
2342	0.8777
2351	0.8778
2360	0.8781
2369	0.8784
2378	0.8789
2387	0.879
2396	0.8785
2405	0.8778
2414	0.8768
2423	0.8753
2432	0.8738
2441	0.8721
2450	0.874
2459	0.8768
2468	0.8792
2477	0.8809
2486	0.8817
2495	0.882
2504	0.8815
2513	0.8791
2522	0.8749
2531	0.8725
2540	0.8733
2549	0.8754
2558	0.8784
2567	0.882
2576	0.8817
2585	0.8812
2594	0.8803
2603	0.8793
2612	0.8782
2621	0.877
2630	0.8759
2639	0.8748
2648	0.8737
2657	0.8725
2666	0.8709
2675	0.8691
2684	0.8662
2693	0.8618
2702	0.8585
2711	0.8564
2720	0.8552
2729	0.8543
2738	0.8535
2747	0.8536
2756	0.8539
2765	0.8534
2774	0.852
2783	0.8402
2792	0.8292
2801	0.8171
2810	0.8065
2819	0.7961
2828	0.7835
2837	0.7636
2846	0.7428
2855	0.7093
2864	0.6605
2873	0.5036
2882	0.4707
2891	0.5112
2900	0.4953
2909	0.4759
2918	0.4434
2927	0.3918
2936	0.2631
2945	0.311
2954	0.3952
2963	0.3504
2972	0.207
2981	0.1607
2990	0.1875
2999	0.2991
3008	0.4432
3017	0.6749
3026	0.7201
3035	0.7518
3044	0.7745
3053	0.7907
3062	0.7983
3071	0.8046
3080	0.809
3089	0.8133
3098	0.8165
3107	0.8191
3116	0.8212
3125	0.8225
3134	0.8235
3143	0.8244
3152	0.8238
3161	0.823
3170	0.82
3179	0.8165
3188	0.811
3197	0.8037
3206	0.7964
3215	0.7882
3224	0.7798
3233	0.7698
3242	0.7582
3251	0.7464
3260	0.7342
3269	0.7221
3278	0.7144
3287	0.7131
3296	0.713
3305	0.7119
3314	0.7107
3323	0.7085
3332	0.696
3341	0.6831
3350	0.6689
3359	0.6528
3368	0.6343
3377	0.618
3386	0.6022
3395	0.5845
3404	0.5662
3413	0.5503
3422	0.5328
3431	0.5176
3440	0.4968
3449	0.4853
3458	0.4757
3467	0.4662
3476	0.4584
3485	0.4534
3494	0.4504
3503	0.4482
3512	0.4473
3521	0.4472
3530	0.4476
3539	0.4497
3548	0.4538
3557	0.4609
3566	0.4762
3575	0.5097
3584	0.5333
3593	0.5668
3602	0.5924
3611	0.6239
3620	0.6668
3629	0.6958
3638	0.7118
3647	0.7505
3656	0.7782
3665	0.7998
3674	0.8108
3683	0.8136
3692	0.8138
3701	0.8392
3710	0.8612
3719	0.8662
3728	0.8678
3737	0.8691
3746	0.8695
3755	0.8698
3764	0.8704
3773	0.871
3782	0.8717
3791	0.8725
3800	0.8733
3809	0.874
