Infrared Spectrum: n-BUTYL BORATE
Formula: C12 H27 O3 B
CAS: 688-74-4
State: SOLUTION (10% CCl4 FOR 3800-1333, 10% CS2 FOR 1333-450 CM^-^1)
Class: COBLENTZ III
Instrument: DOW KBr FOREPRISM-GRATING
Instrument parameters: BLAZED AT 3.5, 12.0, 20.0 MICRON AND CHANGED AT 5.0, 7.5, 14.9 MICRON
Sampling: TRANSMISSION
Path length: 0.011 CM, 0.011 CM
Resolution: 4
Origin: DOW CHEMICAL COMPANY
1/CM	TRANSMITTANCE
453.338	0.92
462.443	0.923
471.547	0.928
480.652	0.927
489.757	0.921
498.862	0.923
507.966	0.944
517.071	0.975
526.176	0.98
535.281	0.962
544.385	0.952
553.49	0.96
562.595	0.966
571.7	0.957
580.804	0.952
589.909	0.95
599.014	0.984
608.119	1
617.223	0.998
626.328	0.984
635.433	0.959
644.538	0.8981
653.642	0.6822
662.747	0.101
671.852	0.3459
680.957	0.721
690.061	0.5412
699.166	0.7489
708.271	0.889
717.376	0.896
726.48	0.847
735.585	0.8151
744.69	0.754
753.794	0.831
762.899	0.889
772.004	0.895
781.109	0.909
790.213	0.911
799.318	0.911
808.423	0.889
817.528	0.866
826.632	0.909
835.737	0.856
844.842	0.856
853.947	0.666
863.051	0.74
872.156	0.786
881.261	0.829
890.366	0.888
899.47	0.911
908.575	0.879
917.68	0.944
926.785	0.944
935.889	0.928
944.994	0.888
954.099	0.7369
963.204	0.5871
972.308	0.552
981.413	0.724
990.518	0.817
999.622	0.653
1008.73	0.547
1017.83	0.444
1026.94	0.278
1036.04	0.378
1045.15	0.408
1054.25	0.523
1063.36	0.2501
1072.46	0.076
1081.57	0.378
1090.67	0.605
1099.77	0.696
1108.88	0.698
1117.98	0.52
1127.09	0.687
1136.19	0.761
1145.3	0.753
1154.4	0.737
1163.51	0.813
1172.61	0.847
1181.72	0.893
1190.82	0.889
1199.93	0.88
1209.03	0.854
1218.14	0.79
1227.24	0.5105
1236.35	0.403
1245.45	0.518
1254.56	0.321
1263.66	0.277
1272.76	0.483
1281.87	0.474
1290.97	0.0712
1300.08	0.031
1309.18	0.051
1318.29	0.026
1327.39	0.001
1336.5	0.001
1345.6	0.001
1354.71	0.001
1363.81	0.007
1372.92	0.033
1382.02	0.193
1391.13	0.376
1400.23	0.442
1409.34	0.1896
1418.44	0.001
1427.55	0.019
1436.65	0.023
1445.75	0.099
1454.86	0.1999
1463.96	0.161
1473.07	0.234
1482.17	0.099
1491.28	0.072
1500.38	0.367
1509.49	0.616
1518.59	0.651
1527.7	0.644
1536.8	0.593
1545.91	0.506
1555.01	0.481
1564.12	0.561
1573.22	0.635
1582.33	0.68
1591.43	0.705
1600.54	0.788
1609.64	0.87
1618.74	0.918
1627.85	0.948
1636.95	0.966
1646.06	0.982
1655.16	0.98
1664.27	0.976
1673.37	0.971
1682.48	0.966
1691.58	0.96
1700.69	0.964
1709.79	0.969
1718.9	0.96
1728	0.962
1737.11	0.973
1746.21	0.976
1755.32	0.98
1764.42	0.98
1773.53	0.98
1782.63	0.98
1791.73	0.98
1800.84	0.98
1809.94	0.98
1819.05	0.978
1828.15	0.978
1837.26	0.978
1846.36	0.978
1855.47	0.982
1864.57	0.982
1873.68	0.985
1882.78	0.985
1891.89	0.987
1900.99	0.985
1910.1	0.985
1919.2	0.987
1928.31	0.987
1937.41	0.987
1946.52	0.991
1955.62	0.991
1964.73	0.989
1973.83	0.982
1982.93	0.982
1992.04	0.98
2001.14	0.976
2010.25	0.978
2019.35	0.978
2028.46	0.977
2037.56	0.9741
2046.67	0.971
2055.77	0.969
2064.88	0.969
2073.98	0.973
2083.09	0.9712
2092.19	0.9671
2101.3	0.9631
2110.4	0.9629
2119.51	0.966
2128.61	0.968
2137.72	0.969
2146.82	0.973
2155.92	0.976
2165.03	0.978
2174.13	0.976
2183.24	0.9756
2192.34	0.975
2201.45	0.9754
2210.55	0.9788
2219.66	0.9827
2228.76	0.985
2237.87	0.987
2246.97	0.987
2256.08	0.987
2265.18	0.985
2274.29	0.982
2283.39	0.98
2292.5	0.9774
2301.6	0.9767
2310.71	0.9786
2319.81	0.9856
2328.91	0.9913
2338.02	0.9966
2347.12	1
2356.23	1
2365.33	1.003
2374.44	1.003
2383.54	0.996
2392.65	0.994
2401.75	0.992
2410.86	0.992
2419.96	0.992
2429.07	0.994
2438.17	0.998
2447.28	0.998
2456.38	0.996
2465.49	0.994
2474.59	0.9944
2483.7	0.998
2492.8	0.998
2501.9	0.998
2511.01	0.996
2520.11	0.996
2529.22	0.996
2538.32	0.9956
2547.43	0.9906
2556.53	0.9837
2565.64	0.982
2574.74	0.9797
2583.85	0.9758
2592.95	0.975
2602.06	0.975
2611.16	0.971
2620.27	0.969
2629.37	0.9663
2638.48	0.9657
2647.58	0.9618
2656.69	0.9518
2665.79	0.941
2674.89	0.941
2684	0.9388
2693.1	0.9338
2702.21	0.9298
2711.31	0.923
2720.42	0.9208
2729.52	0.9103
2738.63	0.8983
2747.73	0.9091
2756.84	0.916
2765.94	0.914
2775.05	0.9018
2784.15	0.8748
2793.26	0.8288
2802.36	0.824
2811.47	0.8179
2820.57	0.7857
2829.68	0.7437
2838.78	0.6458
2847.88	0.474
2856.99	0.467
2866.09	0.071
2875.2	0.019
2884.3	0.0984
2893.41	0.179
2902.51	0.0675
2911.62	0.049
2920.72	0.0441
2929.83	0.0106
2938.93	0.008
2948.04	0.012
2957.14	0.0052
2966.25	0.003
2975.35	0.0098
2984.46	0.1611
2993.56	0.5266
3002.67	0.6866
3011.77	0.7678
3020.88	0.8229
3029.98	0.8621
3039.08	0.8887
3048.19	0.9106
3057.29	0.9277
3066.4	0.9404
3075.5	0.9526
3084.61	0.9616
3093.71	0.9725
3102.82	0.9777
3111.92	0.984
3121.03	0.987
3130.13	0.991
3139.24	0.992
3148.34	0.992
3157.45	0.992
3166.55	0.992
3175.66	0.994
3184.76	0.996
3193.87	0.998
3202.97	1
3212.07	1
3221.18	1.0008
3230.28	1.0046
3239.39	1.0078
3248.49	1.0115
3257.6	1.0135
3266.7	1.014
3275.81	1.015
3284.91	1.0165
3294.02	1.017
3303.12	1.019
3312.23	1.019
3321.33	1.019
3330.44	1.019
3339.54	1.019
3348.65	1.019
3357.75	1.0176
3366.86	1.019
3375.96	1.019
3385.06	1.021
3394.17	1.021
3403.27	1.021
3412.38	1.021
3421.48	1.019
3430.59	1.017
3439.69	1.014
3448.8	1.012
3457.9	1.01
3467.01	1.008
3476.11	1.008
3485.22	1.0074
3494.32	1.007
3503.43	1.007
3512.53	1.007
3521.64	1.007
3530.74	1.0058
3539.85	1.0012
3548.95	1
3558.05	1.001
3567.16	1.0022
3576.26	1.001
3585.37	1.001
3594.47	1.001
3603.58	1.0021
3612.68	0.9993
3621.79	0.994
3630.89	0.9929
3640	0.9879
3649.1	0.9818
3658.21	0.9699
3667.31	0.968
3676.42	0.9856
3685.52	0.996
3694.63	0.998
3703.73	1
3712.84	1
3721.94	1
3731.04	1
3740.15	1
3749.25	1
3758.36	1
3767.46	1
3776.57	1
3785.67	1
