Infrared Spectrum: D-Mannitol
Formula: C 6 H 14 O 6
CAS: 69-65-8
State: solid
Instrument: Bruker Tensor 37 FTIR
Resolution: 0.96450084
Origin: Pacific Northwest National Laboratory Under IARPA Contract
1/cm	Reflectance
7498.03	0.782954
7480.67	0.776923
7463.31	0.767586
7445.95	0.750899
7428.59	0.72996
7411.23	0.711648
7393.87	0.703565
7376.51	0.702864
7359.15	0.705452
7341.79	0.704958
7324.43	0.709711
7307.07	0.708476
7289.71	0.706256
7272.35	0.700861
7254.99	0.682345
7237.63	0.67278
7220.27	0.653528
7202.91	0.624059
7185.55	0.58901
7168.19	0.546878
7150.83	0.502087
7133.47	0.464494
7116.11	0.428357
7098.75	0.402063
7081.39	0.390144
7064.03	0.393298
7046.67	0.402507
7029.31	0.40772
7011.96	0.411804
6994.6	0.412356
6977.24	0.406903
6959.88	0.395101
6942.52	0.37218
6925.16	0.35565
6907.8	0.35023
6890.44	0.357729
6873.08	0.366862
6855.72	0.389365
6838.36	0.407038
6821	0.418658
6803.64	0.43237
6786.28	0.447185
6768.92	0.459945
6751.56	0.471073
6734.2	0.477237
6716.84	0.432492
6699.48	0.471743
6682.12	0.473007
6664.76	0.460364
6647.4	0.469352
6630.04	0.486887
6612.68	0.500989
6595.32	0.483006
6577.96	0.508602
6560.6	0.528845
6543.24	0.534983
6525.88	0.548126
6508.52	0.558978
6491.16	0.563696
6473.8	0.56715
6456.44	0.580997
6439.08	0.602618
6421.72	0.611956
6404.36	0.608612
6387	0.60359
6369.64	0.600716
6352.28	0.603939
6334.92	0.605658
6317.56	0.598436
6300.2	0.592966
6282.84	0.582691
6265.48	0.569563
6248.12	0.549001
6230.76	0.50105
6213.4	0.442378
6196.04	0.360145
6178.68	0.277507
6161.32	0.215472
6143.97	0.187534
6126.61	0.204316
6109.25	0.199776
6091.89	0.218381
6074.53	0.239286
6057.17	0.256879
6039.81	0.30969
6022.45	0.336113
6005.09	0.346268
5987.73	0.367949
5970.37	0.335165
5953.01	0.282811
5935.65	0.314425
5918.29	0.306735
5900.93	0.305949
5883.57	0.319009
5866.21	0.317979
5848.85	0.308742
5831.49	0.310115
5814.13	0.301452
5796.77	0.242957
5779.41	0.199866
5762.05	0.159629
5744.69	0.156674
5727.33	0.244677
5709.97	0.247472
5692.61	0.252034
5675.25	0.246498
5657.89	0.251414
5640.53	0.245955
5623.17	0.234857
5605.81	0.205279
5588.45	0.184402
5571.09	0.158239
5553.73	0.106962
5536.37	0.0597196
5519.01	0.0375484
5501.65	0.0281868
5484.29	0.0242661
5466.93	0.0229593
5449.57	0.0376173
5432.21	0.0304259
5414.85	0.0363632
5397.49	0.052946
5380.13	0.0423699
5362.77	0.0447428
5345.41	0.043227
5328.05	0.0429351
5310.69	0.0439645
5293.33	0.0459495
5275.97	0.0486284
5258.62	0.049814
5241.26	0.0364816
5223.9	0.0350901
5206.54	0.034746
5189.18	0.0387476
5171.82	0.042154
5154.46	0.0442305
5137.1	0.0472838
5119.74	0.0466646
5102.38	0.0476806
5085.02	0.0500243
5067.66	0.0507961
5050.3	0.0588041
5032.94	0.0650921
5015.58	0.0683432
4998.22	0.0732263
4980.86	0.0834271
4963.5	0.097893
4946.14	0.114583
4928.78	0.114089
4911.42	0.117161
4894.06	0.125332
4876.7	0.161428
4859.34	0.165705
4841.98	0.165821
4824.62	0.156161
4807.26	0.154549
4789.9	0.1482
4772.54	0.137703
4755.18	0.133272
4737.82	0.149491
4720.46	0.14685
4703.1	0.13275
4685.74	0.14697
4668.38	0.152655
4651.02	0.137209
4633.66	0.131495
4616.3	0.115697
4598.94	0.107902
4581.58	0.0939287
4564.22	0.0810446
4546.86	0.0695873
4529.5	0.0575459
4512.14	0.0431775
4494.78	0.0278282
4477.42	0.0235275
4460.06	0.0278661
4442.7	0.0299736
4425.34	0.0312755
4407.98	0.0247554
4390.63	0.0285842
4373.27	0.0285215
4355.91	0.0285594
4338.55	0.0359149
4321.19	0.0333203
4303.83	0.0206531
4286.47	0.0557948
4269.11	0.029831
4251.75	0.0514548
4234.39	0.0585001
4217.03	0.0298037
4199.67	0.0472432
4182.31	0.0316574
4164.95	0.0483762
4147.59	0.033953
4130.23	0.0341815
4112.87	0.0286839
4095.51	0.0321637
4078.15	0.0266373
4060.79	0.035786
4043.43	0.782437
4026.07	0.773503
4008.71	0.757054
3991.35	0.73938
3973.99	0.716138
3956.63	0.701884
3939.27	0.698596
3921.91	0.700153
3904.55	0.698342
3887.19	0.702362
3869.83	0.702866
3852.47	0.701955
3835.11	0.698301
3817.75	0.688037
3800.39	0.653759
3783.03	0.65814
3765.67	0.636362
3748.31	0.605141
3730.95	0.567149
3713.59	0.519817
3696.23	0.477821
3678.87	0.439306
3661.51	0.407535
3644.15	0.38358
3626.79	0.37628
3609.43	0.38135
3592.07	0.388941
3574.71	0.393913
3557.35	0.398804
3539.99	0.397814
3522.64	0.388936
3505.28	0.375721
3487.92	0.352386
3470.56	0.342908
3453.2	0.338787
3435.84	0.346196
3418.48	0.358976
3401.12	0.382397
3383.76	0.397064
3366.4	0.407987
3349.04	0.425465
3331.68	0.437337
3314.32	0.45093
3296.96	0.460285
3279.6	0.461783
3262.24	0.423169
3244.88	0.456614
3227.52	0.45447
3210.16	0.453764
3192.8	0.460449
3175.44	0.4829
3158.08	0.482821
3140.72	0.473565
3123.36	0.500424
3106	0.512781
3088.64	0.524631
3071.28	0.534435
3053.92	0.54852
3036.56	0.547016
3019.2	0.556996
3001.84	0.574755
2984.48	0.5936
2967.12	0.598358
2949.76	0.592441
2932.4	0.58952
2915.04	0.587094
2897.68	0.592143
2880.32	0.588828
2862.96	0.581955
2845.6	0.576089
2828.24	0.564426
2810.88	0.550918
2793.52	0.520064
2776.16	0.467903
2758.8	0.404054
2741.44	0.314861
2724.08	0.249737
2706.72	0.184917
2689.36	0.186824
2672	0.196073
2654.64	0.192561
2637.29	0.216539
2619.93	0.234477
2602.57	0.258354
2585.21	0.309596
2567.85	0.326376
2550.49	0.340608
2533.13	0.361535
2515.77	0.265031
2498.41	0.285889
2481.05	0.305528
2463.69	0.283702
2446.33	0.290137
2428.97	0.307828
2411.61	0.305524
2394.25	0.300758
2376.89	0.30374
2359.53	0.265537
2342.17	0.202668
2324.81	0.185193
2307.45	0.145854
2290.09	0.181112
2272.73	0.231717
2255.37	0.23361
2238.01	0.242746
2220.65	0.241789
2203.29	0.263417
2185.93	0.226853
2168.57	0.216212
2151.21	0.188273
2133.85	0.172609
2116.49	0.138638
2099.13	0.0852319
2081.77	0.0484771
2064.41	0.032657
2047.05	0.0265033
2029.69	0.0233816
2012.33	0.0242016
1994.97	0.0348979
1977.61	0.0320737
1960.25	0.0392717
1942.89	0.0511464
1925.53	0.0412673
1908.17	0.0426409
1890.81	0.0418548
1873.45	0.0422601
1856.09	0.0438768
1838.73	0.0454616
1821.37	0.0478595
1804.01	0.047787
1786.65	0.0345117
1769.3	0.0373854
1751.94	0.0344356
1734.58	0.0390988
1717.22	0.0419911
1699.86	0.0441318
1682.5	0.0465464
1665.14	0.0461463
1647.78	0.0475667
1630.42	0.0487834
1613.06	0.0515687
1595.7	0.0582111
1578.34	0.0653815
1560.98	0.0654844
1543.62	0.0739014
1526.26	0.0818214
1508.9	0.100394
1491.54	0.11285
1474.18	0.107122
1456.82	0.119175
1439.46	0.133587
1422.1	0.157771
1404.74	0.157196
1387.38	0.162385
1370.02	0.150368
1352.66	0.15375
1335.3	0.135445
1317.94	0.147877
1300.58	0.118789
1283.22	0.129988
1265.86	0.143544
1248.5	0.119428
1231.14	0.152245
1213.78	0.137283
1196.42	0.133801
1179.06	0.121593
1161.7	0.109914
1144.34	0.100797
1126.98	0.0871658
1109.62	0.0760968
1092.26	0.0637993
1074.9	0.0522313
1057.54	0.0376934
1040.18	0.0277057
1022.82	0.0231001
1005.46	0.0301895
988.104	0.031198
970.744	0.0328559
953.384	0.0256302
936.025	0.0286632
918.665	0.028982
901.305	0.0309071
883.945	0.036115
866.585	0.0312478
849.226	0.055896
831.866	0.0404925
814.506	0.0653327
797.146	0.0566239
779.786	0.04272
762.427	0.0413857
745.067	0.033363
727.707	0.0462954
710.347	0.0461095
692.987	0.0292607
675.628	0.0331778
658.268	0.0325228
640.908	0.0309512
623.548	0.0244549
606.188	0.0342557
