Infrared Spectrum: SALICYLIC ACID
Formula: C7 H6 O3
CAS: 69-72-7
State: SOLID (KBr PELLET)
Class: COBLENTZ
Instrument: PERKIN-ELMER
Sampling: TRANSMISSION
Resolution: 4
Origin: PHILIP MORRIS, M. BALES
MICROMETERS	TRANSMITTANCE
2.047	0.709
2.08064	0.711
2.11429	0.712
2.14793	0.712
2.18158	0.712
2.21522	0.712
2.24887	0.714
2.28251	0.716
2.31616	0.717
2.3498	0.719
2.38345	0.721
2.41709	0.722
2.45074	0.724
2.48438	0.724
2.51803	0.722
2.55167	0.724
2.58531	0.726
2.61896	0.726
2.6526	0.717
2.68625	0.739
2.71989	0.716
2.75354	0.701
2.78718	0.648
2.82083	0.484
2.85447	0.371
2.88812	0.29
2.92176	0.231
2.95541	0.207
2.98905	0.212
3.0227	0.275
3.05634	0.346
3.08998	0.346
3.12363	0.317
3.15727	0.302
3.19092	0.287
3.22456	0.266
3.25821	0.251
3.29185	0.239
3.3255	0.241
3.35914	0.271
3.39279	0.305
3.42643	0.341
3.46008	0.359
3.49372	0.417
3.52737	0.456
3.56101	0.489
3.59465	0.54
3.6283	0.582
3.66194	0.606
3.69559	0.619
3.72923	0.638
3.76288	0.646
3.79652	0.655
3.83017	0.657
3.86381	0.65
3.89746	0.648
3.9311	0.657
3.96475	0.663
3.99839	0.667
4.03204	0.67
4.06568	0.675
4.09932	0.68
4.13297	0.689
4.16661	0.694
4.20026	0.707
4.2339	0.733
4.26755	0.743
4.30119	0.729
4.33484	0.724
4.36848	0.724
4.40213	0.739
4.43577	0.746
4.46942	0.746
4.50306	0.748
4.53671	0.75
4.57035	0.751
4.60399	0.753
4.63764	0.751
4.67128	0.751
4.70493	0.75
4.73857	0.746
4.77222	0.744
4.80586	0.743
4.83951	0.741
4.87315	0.741
4.9068	0.739
4.94044	0.741
4.97409	0.743
5.00773	0.741
5.04138	0.738
5.07502	0.739
5.10866	0.741
5.14231	0.743
5.17595	0.743
5.2096	0.751
5.24324	0.753
5.27689	0.761
5.31053	0.761
5.34418	0.768
5.37782	0.758
5.41147	0.768
5.44511	0.753
5.47876	0.748
5.5124	0.758
5.54605	0.76
5.57969	0.758
5.61334	0.753
5.64698	0.741
5.68062	0.736
5.71427	0.724
5.74791	0.685
5.78156	0.603
5.8152	0.552
5.84885	0.402
5.88249	0.331
5.91614	0.206
5.94978	0.207
5.98343	0.19
6.01707	0.141
6.05072	0.209
6.08436	0.317
6.11801	0.371
6.15165	0.331
6.18529	0.206
6.21894	0.194
6.25258	0.307
6.28623	0.361
6.31987	0.361
6.35352	0.43
6.38716	0.501
6.42081	0.555
6.45445	0.567
6.4881	0.604
6.52174	0.587
6.55539	0.604
6.58903	0.594
6.62268	0.582
6.65632	0.542
6.68996	0.486
6.72361	0.226
6.75725	0.236
6.7909	0.309
6.82454	0.3
6.85819	0.344
6.89183	0.371
6.92548	0.347
6.95912	0.407
6.99277	0.415
7.02641	0.407
7.06006	0.398
7.0937	0.4
7.12735	0.4
7.16099	0.39
7.19463	0.363
7.22828	0.363
7.26192	0.358
7.29557	0.347
7.32921	0.363
7.36286	0.393
7.3965	0.42
7.43015	0.425
7.46379	0.423
7.49744	0.412
7.53108	0.41
7.56473	0.429
7.59837	0.471
7.63202	0.478
7.66566	0.457
7.6993	0.457
7.73295	0.461
7.76659	0.491
7.80024	0.53
7.83388	0.525
7.86753	0.461
7.90117	0.429
7.93482	0.423
7.96846	0.381
8.00211	0.239
8.03575	0.211
8.0694	0.219
8.10304	0.233
8.13669	0.251
8.17033	0.253
8.20397	0.251
8.23762	0.238
8.27126	0.209
8.30491	0.207
8.33855	0.219
8.3722	0.266
8.40584	0.314
8.43949	0.344
8.47313	0.366
8.50678	0.407
8.54042	0.445
8.57407	0.461
8.60771	0.376
8.64136	0.25
8.675	0.302
8.70864	0.447
8.74229	0.489
8.77593	0.491
8.80958	0.506
8.84322	0.501
8.87687	0.515
8.91051	0.562
8.94416	0.594
8.9778	0.616
9.01145	0.631
9.04509	0.64
9.07874	0.641
9.11238	0.643
9.14603	0.631
9.17967	0.599
9.21331	0.55
9.24696	0.56
9.2806	0.614
9.31425	0.648
9.34789	0.667
9.38154	0.675
9.41518	0.677
9.44883	0.677
9.48247	0.677
9.51612	0.665
9.54976	0.655
9.58341	0.645
9.61705	0.603
9.6507	0.525
9.68434	0.483
9.71798	0.548
9.75163	0.586
9.78527	0.596
9.81892	0.606
9.85256	0.618
9.88621	0.633
9.91985	0.652
9.9535	0.67
9.98714	0.69
10.0208	0.695
10.0544	0.707
10.0881	0.711
10.1217	0.716
10.1554	0.719
10.189	0.724
10.2227	0.728
10.2563	0.728
10.2899	0.733
10.3236	0.728
10.3572	0.728
10.3909	0.726
10.4245	0.721
10.4582	0.716
10.4918	0.712
10.5255	0.717
10.5591	0.728
10.5927	0.736
10.6264	0.741
10.66	0.744
10.6937	0.748
10.7273	0.748
10.761	0.748
10.7946	0.746
10.8283	0.744
10.8619	0.743
10.8955	0.741
10.9292	0.741
10.9628	0.734
10.9965	0.734
11.0301	0.728
11.0638	0.724
11.0974	0.719
11.1311	0.712
11.1647	0.707
11.1984	0.694
11.232	0.69
11.2656	0.685
11.2993	0.684
11.3329	0.682
11.3666	0.684
11.4002	0.685
11.4339	0.682
11.4675	0.677
11.5012	0.662
11.5348	0.65
11.5684	0.631
11.6021	0.641
11.6357	0.645
11.6694	0.646
11.703	0.621
11.7367	0.557
11.7703	0.528
11.804	0.55
11.8376	0.609
11.8712	0.66
11.9049	0.677
11.9385	0.682
11.9722	0.684
12.0058	0.679
12.0395	0.677
12.0731	0.672
12.1068	0.667
12.1404	0.662
12.174	0.652
12.2077	0.636
12.2413	0.626
12.275	0.609
12.3086	0.589
12.3423	0.572
12.3759	0.562
12.4096	0.55
12.4432	0.548
12.4768	0.548
12.5105	0.56
12.5441	0.576
12.5778	0.606
12.6114	0.626
12.6451	0.628
12.6787	0.618
12.7124	0.592
12.746	0.577
12.7796	0.564
12.8133	0.554
12.8469	0.537
12.8806	0.513
12.9142	0.481
12.9479	0.447
12.9815	0.408
13.0152	0.375
13.0488	0.334
13.0825	0.277
13.1161	0.241
13.1497	0.192
13.1834	0.165
13.217	0.165
13.2507	0.175
13.2843	0.182
13.318	0.201
13.3516	0.248
13.3853	0.32
13.4189	0.398
13.4525	0.454
13.4862	0.481
13.5198	0.5
13.5535	0.506
13.5871	0.51
13.6208	0.511
13.6544	0.511
13.6881	0.511
13.7217	0.511
13.7553	0.506
13.789	0.503
13.8226	0.503
13.8563	0.501
13.8899	0.5
13.9236	0.493
13.9572	0.489
13.9909	0.488
14.0245	0.484
14.0581	0.476
14.0918	0.466
14.1254	0.459
14.1591	0.447
14.1927	0.434
14.2264	0.418
14.26	0.407
14.2937	0.396
14.3273	0.388
14.3609	0.378
14.3946	0.38
14.4282	0.388
14.4619	0.402
14.4955	0.415
14.5292	0.427
14.5628	0.439
14.5965	0.444
14.6301	0.451
14.6638	0.457
14.6974	0.457
14.731	0.454
14.7647	0.452
14.7983	0.447
14.832	0.447
14.8656	0.44
14.8993	0.435
14.9329	0.434
14.9666	0.434
15.0002	0.437
15.0338	0.407
15.0675	0.402
15.1011	0.4
15.1348	0.391
15.1684	0.376
15.2021	0.371
15.2357	0.371
15.2694	0.364
15.303	0.349
