Infrared Spectrum: 2-PENTENE, 4-METHYL-CIS-
Formula: C6 H12
CAS: 691-38-3
State: SOLUTION (10% CCl4 FOR 3800-1330, 10% CS2 FOR 1330-450 CM^-^1)
Class: COBLENTZ III
Instrument: DOW KBr FOREPRISM-GRATING
Instrument parameters: BLAZED AT 3.5, 12.0, 20.0 MICRON AND CHANGED AT 5.0, 7.5, 14.9 MICRON
Sampling: TRANSMISSION
Path length: 0.011 CM, 0.011 CM
Resolution: 2
Origin: DOW CHEMICAL COMPANY
1/CM	TRANSMITTANCE
453	1.0186
462	1.0204
471	1.0194
480	1.0075
489	0.9347
498	0.8942
507	1.0421
516	1.0759
525	1.0967
534	1.112
543	1.1305
552	1.1325
561	1.1277
570	1.113
579	1.0854
588	1.0223
597	0.9531
606	1.0956
615	1.1021
624	1.0964
633	1.0827
642	1.0615
651	1.0418
660	1.045
669	1.0564
678	1.0551
687	1.0147
696	0.9392
705	0.7815
714	0.302
723	0.0251
732	0.4785
741	0.8761
750	0.994
759	1.0377
768	1.0593
777	1.0684
786	1.0714
795	1.0797
804	1.0753
813	1.0435
822	0.8734
831	1.049
840	1.0434
849	0.9801
858	0.9168
867	0.9407
876	0.9778
885	1.0151
894	1.0441
903	1.0357
912	1.0351
921	1.0128
930	1.0236
939	0.9668
948	0.8165
957	0.4119
966	0.7507
975	0.9528
984	1.0203
993	1.034
1002	1.055
1011	1.0535
1020	1.0424
1029	0.9951
1038	0.9837
1047	1.0404
1056	1.0516
1065	1.0499
1074	1.0425
1083	1.0231
1092	0.9623
1101	0.7067
1110	0.7808
1119	0.9834
1128	1.0293
1137	1.0256
1146	0.9953
1155	0.9487
1164	0.8701
1173	0.9748
1182	1.0317
1191	1.0697
1200	1.0712
1209	1.063
1218	1.0598
1227	1.0698
1236	1.0603
1245	1.0321
1254	1.0005
1263	0.9936
1272	1.0142
1281	1.0011
1290	0.962
1299	0.7158
1308	0.7662
1317	0.9393
1326	0.9581
1335	0.9552
1344	0.9481
1353	0.918
1362	0.5566
1371	0.6707
1380	0.6146
1389	0.8275
1398	0.7664
1407	0.6239
1416	0.7146
1425	0.7828
1434	0.7368
1443	0.5224
1452	0.3789
1461	0.2117
1470	0.2388
1479	0.7094
1488	0.8292
1497	0.8284
1506	0.8008
1515	0.7639
1524	0.7278
1533	0.6791
1542	0.5909
1551	0.531
1560	0.589
1569	0.6969
1578	0.7293
1587	0.7533
1596	0.8397
1605	0.9188
1614	0.964
1623	0.9753
1632	0.9707
1641	0.961
1650	0.918
1659	0.7774
1668	0.9231
1677	0.9271
1686	0.9186
1695	0.9457
1704	0.9753
1713	0.9914
1722	0.9899
1731	0.994
1740	0.9944
1749	0.9939
1758	0.998
1767	1.0084
1776	1.0131
1785	1.0142
1794	1.0132
1803	1.0135
1812	1.0134
1821	1.0116
1830	1.0113
1839	1.0111
1848	1.0066
1857	1.0061
1866	1.0091
1875	1.0124
1884	1.0149
1893	1.016
1902	1.0164
1911	1.0162
1920	1.016
1929	1.0158
1938	1.0159
1947	1.0177
1956	1.0159
1965	1.0116
1974	1.0102
1983	1.0028
1992	0.996
2001	0.9725
2010	0.9853
2019	0.997
2028	1.0058
2037	1.002
2046	0.9994
2055	0.9985
2064	0.9991
2073	1.0023
2082	1.0075
2091	1.0095
2100	1.0103
2109	1.0106
2118	1.0107
2127	1.0104
2136	1.0101
2145	1.0098
2154	1.0094
2163	1.0089
2172	1.0085
2181	1.0078
2190	1.0073
2199	1.0066
2208	1.0062
2217	1.0058
2226	1.0056
2235	1.0045
2244	1.0032
2253	0.9974
2262	0.9893
2271	0.9812
2280	0.9766
2289	0.9789
2298	0.9828
2307	0.985
2316	0.9841
2325	0.9697
2334	1.0007
2343	0.9847
2352	0.9941
2361	1.0486
2370	0.9601
2379	0.9965
2388	0.9975
2397	0.9981
2406	0.9995
2415	1.0012
2424	1.0028
2433	1.0018
2442	0.9981
2451	0.9948
2460	0.9948
2469	0.9975
2478	0.9996
2487	0.9997
2496	0.9997
2505	0.9998
2514	0.9998
2523	0.9994
2532	0.9975
2541	0.9943
2550	0.9887
2559	0.9798
2568	0.9686
2577	0.9805
2586	0.9839
2595	0.9788
2604	0.9753
2613	0.9817
2622	0.9898
2631	0.9927
2640	0.9918
2649	0.9899
2658	0.988
2667	0.9853
2676	0.9816
2685	0.9755
2694	0.9655
2703	0.9465
2712	0.9347
2721	0.9368
2730	0.9518
2739	0.9525
2748	0.9457
2757	0.95
2766	0.9502
2775	0.9467
2784	0.9397
2793	0.9204
2802	0.8824
2811	0.8725
2820	0.8697
2829	0.8392
2838	0.7571
2847	0.6373
2856	0.4129
2865	0.0864
2874	0.1489
2883	0.3286
2892	0.304
2901	0.2094
2910	0.1287
2919	0.0629
2928	0.0492
2937	0.0599
2946	0.0639
2955	0.004
2964	0.0004
2973	0.0092
2982	0.1411
2991	0.3271
3000	0.2893
3009	0.0879
3018	0.2042
3027	0.5152
3036	0.6848
3045	0.8
3054	0.8456
3063	0.8602
3072	0.8659
3081	0.8977
3090	0.9389
3099	0.95
3108	0.9533
3117	0.9549
3126	0.955
3135	0.9541
3144	0.9528
3153	0.951
3162	0.9484
3171	0.9483
3180	0.9507
3189	0.9553
3198	0.9609
3207	0.9666
3216	0.9735
3225	0.9807
3234	0.9871
3243	0.992
3252	0.9954
3261	0.9975
3270	0.9978
3279	0.9981
3288	0.9971
3297	0.9949
3306	0.9912
3315	0.9932
3324	1.0005
3333	1.0075
3342	1.0068
3351	1.0052
3360	1.004
3369	1.0034
3378	1.0031
3387	1.0049
3396	1.0094
3405	1.0104
3414	1.0103
3423	1.0096
3432	1.0089
3441	1.0078
3450	1.0065
3459	1.0052
3468	1.0051
3477	1.0052
3486	1.0053
3495	1.0055
3504	1.0058
3513	1.006
3522	1.0062
3531	1.0062
3540	1.0063
3549	1.0063
3558	1.0063
3567	1.0062
3576	1.0061
3585	1.0059
3594	1.0058
3603	1.0056
3612	1.0054
3621	1.005
3630	1.0048
3639	1.0047
3648	1.0048
3657	1.005
3666	1.0051
3675	1.0052
3684	1.0051
3693	1.005
3702	1.0048
3711	1.0041
3720	1.0034
3729	1.0024
3738	1.0013
3747	0.9999
3756	0.9975
3765	0.9912
3774	0.9906
3783	0.9934
3792	0.9971
