Infrared Spectrum: 1-AMINO-1-METHYL HEPTANE
Formula: C8 H19 N
CAS: 693-16-3
State: LIQUID
Class: COBLENTZ
Instrument: PERKIN-ELMER
Sampling: TRANSMISSION
Resolution: 4
MICROMETERS	TRANSMITTANCE
2.012	0.937
2.04879	0.926
2.08557	0.917
2.12236	0.937
2.15915	0.929
2.19594	0.931
2.23272	0.928
2.26951	0.921
2.3063	0.872
2.34309	0.817
2.37987	0.825
2.41666	0.831
2.45345	0.848
2.49023	0.868
2.52702	0.886
2.56381	0.892
2.6006	0.898
2.63738	0.901
2.67417	0.905
2.71096	0.891
2.74774	0.856
2.78453	0.84
2.82132	0.791
2.85811	0.716
2.89489	0.655
2.93168	0.606
2.96847	0.493
3.00526	0.483
3.04204	0.464
3.07883	0.506
3.11562	0.558
3.1524	0.58
3.18919	0.655
3.22598	0.687
3.26277	0.683
3.29955	0.635
3.33634	0.433
3.37313	0.203
3.40992	0.107
3.4467	0.071
3.48349	0.071
3.52028	0.07
3.55706	0.232
3.59385	0.54
3.63064	0.633
3.66743	0.649
3.70421	0.693
3.741	0.71
3.77779	0.707
3.81458	0.73
3.85136	0.761
3.88815	0.807
3.92494	0.852
3.96172	0.869
3.99851	0.879
4.0353	0.892
4.07209	0.892
4.10887	0.892
4.14566	0.894
4.18245	0.892
4.21923	0.892
4.25602	0.88
4.29281	0.888
4.3296	0.894
4.36638	0.903
4.40317	0.9
4.43996	0.901
4.47675	0.894
4.51353	0.895
4.55032	0.894
4.58711	0.898
4.62389	0.898
4.66068	0.903
4.69747	0.905
4.73426	0.906
4.77104	0.911
4.80783	0.909
4.84462	0.903
4.88141	0.903
4.91819	0.901
4.95498	0.9
4.99177	0.903
5.02855	0.906
5.06534	0.901
5.10213	0.901
5.13892	0.901
5.1757	0.901
5.21249	0.895
5.24928	0.897
5.28606	0.892
5.32285	0.897
5.35964	0.894
5.39643	0.894
5.43321	0.898
5.47	0.894
5.50679	0.895
5.54358	0.894
5.58036	0.894
5.61715	0.889
5.65394	0.892
5.69072	0.882
5.72751	0.875
5.7643	0.869
5.80109	0.862
5.83787	0.851
5.87466	0.817
5.91145	0.787
5.94824	0.751
5.98502	0.707
6.02181	0.661
6.0586	0.618
6.09538	0.529
6.13217	0.447
6.16896	0.39
6.20575	0.375
6.24253	0.376
6.27932	0.399
6.31611	0.437
6.35289	0.491
6.38968	0.528
6.42647	0.572
6.46326	0.609
6.50004	0.646
6.53683	0.67
6.57362	0.675
6.61041	0.686
6.64719	0.687
6.68398	0.679
6.72077	0.65
6.75755	0.554
6.79434	0.405
6.83113	0.171
6.86792	0.133
6.9047	0.166
6.94149	0.313
6.97828	0.398
7.01507	0.546
7.05185	0.617
7.08864	0.655
7.12543	0.661
7.16221	0.62
7.199	0.418
7.23579	0.254
7.27258	0.18
7.30936	0.196
7.34615	0.318
7.38294	0.392
7.41973	0.379
7.45651	0.341
7.4933	0.401
7.53009	0.54
7.56687	0.591
7.60366	0.601
7.64045	0.615
7.67724	0.629
7.71402	0.632
7.75081	0.646
7.7876	0.681
7.82438	0.707
7.86117	0.701
7.89796	0.689
7.93475	0.689
7.97153	0.69
8.00832	0.707
8.04511	0.721
8.0819	0.713
8.11868	0.698
8.15547	0.699
8.19226	0.693
8.22904	0.695
8.26583	0.704
8.30262	0.709
8.33941	0.707
8.37619	0.699
8.41298	0.672
8.44977	0.658
8.48656	0.653
8.52334	0.66
8.56013	0.655
8.59692	0.632
8.6337	0.551
8.67049	0.439
8.70728	0.376
8.74407	0.399
8.78085	0.441
8.81764	0.464
8.85443	0.474
8.89121	0.477
8.928	0.503
8.96479	0.569
9.00158	0.647
9.03836	0.666
9.07515	0.644
9.11194	0.598
9.14873	0.583
9.18551	0.565
9.2223	0.566
9.25909	0.58
9.29587	0.578
9.33266	0.58
9.36945	0.577
9.40624	0.58
9.44302	0.545
9.47981	0.551
9.5166	0.569
9.55339	0.569
9.59017	0.581
9.62696	0.588
9.66375	0.592
9.70053	0.597
9.73732	0.615
9.77411	0.612
9.8109	0.615
9.84768	0.62
9.88447	0.633
9.92126	0.641
9.95805	0.644
9.99483	0.663
10.0316	0.676
10.0684	0.684
10.1052	0.684
10.142	0.684
10.1788	0.669
10.2156	0.66
10.2523	0.643
10.2891	0.64
10.3259	0.627
10.3627	0.623
10.3995	0.621
10.4363	0.612
10.4731	0.603
10.5099	0.594
10.5466	0.583
10.5834	0.574
10.6202	0.568
10.657	0.562
10.6938	0.545
10.7306	0.537
10.7674	0.52
10.8042	0.497
10.8409	0.473
10.8777	0.456
10.9145	0.436
10.9513	0.413
10.9881	0.392
11.0249	0.373
11.0617	0.347
11.0984	0.338
11.1352	0.32
11.172	0.303
11.2088	0.283
11.2456	0.274
11.2824	0.255
11.3192	0.246
11.356	0.235
11.3927	0.228
11.4295	0.218
11.4663	0.212
11.5031	0.206
11.5399	0.199
11.5767	0.194
11.6135	0.188
11.6503	0.18
11.687	0.174
11.7238	0.168
11.7606	0.171
11.7974	0.166
11.8342	0.165
11.871	0.16
11.9078	0.168
11.9446	0.171
11.9813	0.166
12.0181	0.162
12.0549	0.15
12.0917	0.14
12.1285	0.131
12.1653	0.124
12.2021	0.127
12.2389	0.124
12.2756	0.124
12.3124	0.117
12.3492	0.108
12.386	0.117
12.4228	0.125
12.4596	0.12
12.4964	0.124
12.5332	0.134
12.5699	0.139
12.6067	0.142
12.6435	0.147
12.6803	0.162
12.7171	0.171
12.7539	0.18
12.7907	0.185
12.8275	0.197
12.8642	0.215
12.901	0.24
12.9378	0.261
12.9746	0.303
13.0114	0.318
13.0482	0.343
13.085	0.367
13.1217	0.382
13.1585	0.396
13.1953	0.416
13.2321	0.419
13.2689	0.434
13.3057	0.437
13.3425	0.444
13.3793	0.456
13.416	0.462
13.4528	0.473
13.4896	0.483
13.5264	0.493
13.5632	0.502
13.6	0.508
13.6368	0.499
13.6736	0.503
13.7103	0.5
13.7471	0.479
13.7839	0.445
13.8207	0.413
13.8575	0.382
13.8943	0.378
13.9311	0.401
13.9679	0.434
14.0046	0.499
14.0414	0.525
14.0782	0.565
14.115	0.589
14.1518	0.603
14.1886	0.618
14.2254	0.63
14.2622	0.635
14.2989	0.649
14.3357	0.658
14.3725	0.661
14.4093	0.669
14.4461	0.673
14.4829	0.676
14.5197	0.683
14.5565	0.692
14.5932	0.692
14.63	0.69
14.6668	0.693
14.7036	0.704
14.7404	0.701
14.7772	0.698
14.814	0.698
14.8507	0.696
14.8875	0.696
14.9243	0.702
14.9611	0.698
14.9979	0.699
15.0347	0.702
15.0715	0.705
15.1083	0.707
15.145	0.707
15.1818	0.705
15.2186	0.701
15.2554	0.705
15.2922	0.698
15.329	0.701
15.3658	0.696
15.4026	0.699
15.4393	0.69
15.4761	0.701
15.5129	0.696
15.5497	0.689
