Infrared Spectrum: Imidazole-4-carboxamide, 5-(3,3-dibenzyltriazeno)-
Formula: C18 H18 N6 O
CAS: 6939-30-6
State: SOLID (0.1 mg / 650 mg KBr DISC)
Class: COBLENTZ III
Instrument: PERKIN-ELMER 221 (GRATING)
Instrument parameters: FILTER AT 980 CM^-^1. GRATING 4000-1428 CM^-^1, NaCl PRISM 1428-650 CM^-^1
Sampling: TRANSMISSION
Resolution: 2
Origin: SOUTHERN RESEARCH INSTITUTE
1/CM	TRANSMITTANCE
553.707	0.8454
561.739	0.9379
569.772	0.8219
577.804	0.7398
585.836	0.9304
593.869	0.9301
601.901	0.9234
609.933	0.9162
617.966	0.9072
625.998	0.8733
634.03	0.7203
642.063	0.8261
650.095	0.8335
658.127	0.9113
666.16	0.914
674.192	0.8813
682.224	0.7907
690.257	0.5276
698.289	0.5772
706.321	0.7304
714.354	0.8678
722.386	0.6777
730.418	0.5711
738.451	0.7423
746.483	0.5415
754.515	0.7001
762.548	0.8841
770.58	0.8895
778.612	0.8792
786.645	0.8379
794.677	0.8117
802.709	0.777
810.742	0.7942
818.774	0.8194
826.806	0.8267
834.839	0.8094
842.871	0.8049
850.903	0.7737
858.936	0.748
866.968	0.7085
875.001	0.7503
883.033	0.8159
891.065	0.8002
899.098	0.7497
907.13	0.7275
915.162	0.7291
923.195	0.7611
931.227	0.787
939.259	0.7746
947.292	0.747
955.324	0.7652
963.356	0.8049
971.389	0.8327
979.421	0.8107
987.453	0.6813
995.486	0.657
1003.52	0.8299
1011.55	0.8688
1019.58	0.8533
1027.61	0.7765
1035.65	0.851
1043.68	0.8432
1051.71	0.8314
1059.74	0.8014
1067.78	0.5551
1075.81	0.5374
1083.84	0.6687
1091.87	0.7615
1099.91	0.764
1107.94	0.7839
1115.97	0.8138
1124	0.8136
1132.04	0.7949
1140.07	0.7535
1148.1	0.6529
1156.13	0.6338
1164.16	0.6583
1172.2	0.6096
1180.23	0.5415
1188.26	0.4121
1196.29	0.5195
1204.33	0.6742
1212.36	0.7646
1220.39	0.7609
1228.42	0.7757
1236.46	0.8096
1244.49	0.8038
1252.52	0.7627
1260.55	0.6824
1268.59	0.6866
1276.62	0.6327
1284.65	0.5952
1292.68	0.6467
1300.71	0.6561
1308.75	0.6024
1316.78	0.4094
1324.81	0.2982
1332.84	0.223
1340.88	0.2552
1348.91	0.3803
1356.94	0.6804
1364.97	0.6795
1373.01	0.6289
1381.04	0.5033
1389.07	0.4598
1397.1	0.4607
1405.13	0.4686
1413.17	0.4309
1421.2	0.3766
1429.23	0.3423
1437.26	0.3362
1445.3	0.2439
1453.33	0.4532
1461.36	0.5432
1469.39	0.6866
1477.43	0.6831
1485.46	0.6186
1493.49	0.5867
1501.52	0.7471
1509.56	0.7524
1517.59	0.8221
1525.62	0.8212
1533.65	0.7659
1541.68	0.7236
1549.72	0.7313
1557.75	0.7509
1565.78	0.7555
1573.81	0.709
1581.85	0.6641
1589.88	0.6102
1597.91	0.5338
1605.94	0.4072
1613.98	0.4507
1622.01	0.552
1630.04	0.549
1638.07	0.445
1646.1	0.278
1654.14	0.0797
1662.17	0.203
1670.2	0.4196
1678.23	0.7101
1686.27	0.8537
1694.3	0.8804
1702.33	0.8865
1710.36	0.8889
1718.4	0.89
1726.43	0.8899
1734.46	0.8898
1742.49	0.8892
1750.53	0.8882
1758.56	0.8864
1766.59	0.8843
1774.62	0.8818
1782.65	0.8782
1790.69	0.8733
1798.72	0.8685
1806.75	0.8697
1814.78	0.8712
1822.82	0.8731
1830.85	0.8749
1838.88	0.8769
1846.91	0.8789
1854.95	0.8804
1862.98	0.8827
1871.01	0.8838
1879.04	0.884
1887.08	0.8893
1895.11	0.8912
1903.14	0.8917
1911.17	0.8917
1919.2	0.8908
1927.24	0.8895
1935.27	0.8883
1943.3	0.8879
1951.33	0.8886
1959.37	0.8909
1967.4	0.8944
1975.43	0.8974
1983.46	0.8995
1991.5	0.9004
1999.53	0.9004
2007.56	0.8996
2015.59	0.8987
2023.62	0.8979
2031.66	0.8972
2039.69	0.8965
2047.72	0.8958
2055.75	0.8951
2063.79	0.8947
2071.82	0.8946
2079.85	0.8945
2087.88	0.8936
2095.92	0.8923
2103.95	0.8909
2111.98	0.8897
2120.01	0.8886
2128.05	0.8874
2136.08	0.8855
2144.11	0.8837
2152.14	0.8815
2160.17	0.8789
2168.21	0.8764
2176.24	0.8741
2184.27	0.8718
2192.3	0.8697
2200.34	0.8669
2208.37	0.8636
2216.4	0.8602
2224.43	0.8567
2232.47	0.8531
2240.5	0.8495
2248.53	0.8456
2256.56	0.8418
2264.59	0.838
2272.63	0.8342
2280.66	0.8306
2288.69	0.8269
2296.72	0.8214
2304.76	0.8103
2312.79	0.7909
2320.82	0.7784
2328.85	0.7728
2336.89	0.7694
2344.92	0.7665
2352.95	0.7648
2360.98	0.7632
2369.02	0.762
2377.05	0.7601
2385.08	0.7575
2393.11	0.7541
2401.14	0.7487
2409.18	0.7419
2417.21	0.733
2425.24	0.7243
2433.27	0.7186
2441.31	0.7143
2449.34	0.7095
2457.37	0.7049
2465.4	0.7003
2473.44	0.6948
2481.47	0.6831
2489.5	0.6816
2497.53	0.6734
2505.57	0.6654
2513.6	0.6604
2521.63	0.6524
2529.66	0.6453
2537.69	0.6406
2545.73	0.6373
2553.76	0.6348
2561.79	0.6319
2569.82	0.627
2577.86	0.6226
2585.89	0.6188
2593.92	0.615
2601.95	0.6155
2609.99	0.6195
2618.02	0.6258
2626.05	0.6301
2634.08	0.6306
2642.11	0.6307
2650.15	0.6303
2658.18	0.6306
2666.21	0.6315
2674.24	0.6329
2682.28	0.6353
2690.31	0.6334
2698.34	0.6275
2706.37	0.6221
2714.41	0.617
2722.44	0.6101
2730.47	0.6012
2738.5	0.5911
2746.54	0.585
2754.57	0.5828
2762.6	0.5847
2770.63	0.5874
2778.66	0.5872
2786.7	0.583
2794.73	0.5812
2802.76	0.5756
2810.79	0.5734
2818.83	0.5736
2826.86	0.5757
2834.89	0.5793
2842.92	0.5845
2850.96	0.5973
2858.99	0.6241
2867.02	0.6373
2875.05	0.6418
2883.08	0.6445
2891.12	0.6461
2899.15	0.6458
2907.18	0.6434
2915.21	0.6374
2923.25	0.6288
2931.28	0.6198
2939.31	0.6115
2947.34	0.602
2955.38	0.5962
2963.41	0.595
2971.44	0.599
2979.47	0.6086
2987.51	0.6185
2995.54	0.6201
3003.57	0.6184
3011.6	0.6105
3019.63	0.5924
3027.67	0.5809
3035.7	0.5801
3043.73	0.5806
3051.76	0.583
3059.8	0.5869
3067.83	0.5913
3075.86	0.5941
3083.89	0.5926
3091.93	0.587
3099.96	0.5662
3107.99	0.5422
3116.02	0.5196
3124.06	0.4979
3132.09	0.4921
3140.12	0.4909
3148.15	0.4927
3156.18	0.4984
3164.22	0.5067
3172.25	0.5219
3180.28	0.5558
3188.31	0.5848
3196.35	0.5984
3204.38	0.6228
3212.41	0.6471
3220.44	0.6753
3228.48	0.6815
3236.51	0.676
3244.54	0.6684
3252.57	0.6609
3260.6	0.657
3268.64	0.6601
3276.67	0.6655
3284.7	0.6706
3292.73	0.6675
3300.77	0.6514
3308.8	0.6297
3316.83	0.6217
3324.86	0.6187
3332.9	0.6141
3340.93	0.5839
3348.96	0.5342
3356.99	0.4422
3365.03	0.3502
3373.06	0.3056
3381.09	0.307
3389.12	0.3635
3397.15	0.5024
3405.19	0.5423
3413.22	0.5692
3421.25	0.5911
3429.28	0.6099
3437.32	0.6255
3445.35	0.6369
3453.38	0.6464
3461.41	0.6547
3469.45	0.6599
3477.48	0.6642
3485.51	0.6696
3493.54	0.6865
3501.57	0.7036
3509.61	0.7133
3517.64	0.7226
3525.67	0.7287
3533.7	0.7349
3541.74	0.7411
3549.77	0.7481
3557.8	0.7551
3565.83	0.7621
3573.87	0.7691
3581.9	0.7831
3589.93	0.8014
3597.96	0.8127
3606	0.8218
3614.03	0.8295
3622.06	0.8366
3630.09	0.8426
3638.12	0.8479
3646.16	0.8515
3654.19	0.8527
3662.22	0.8529
3670.25	0.8527
3678.29	0.8527
3686.32	0.8527
3694.35	0.8527
3702.38	0.8528
3710.42	0.8528
3718.45	0.8528
3726.48	0.8526
3734.51	0.8525
3742.55	0.8525
3750.58	0.8527
3758.61	0.8539
