Infrared Spectrum: PYRIDINE-1-OXIDE
Formula: C5 H5 N O
CAS: 694-59-7
State: SATURATED SOLUTION (CCl4 FOR 3800-1330, CS2 FOR 1330-450 CM^-^1)
Class: COBLENTZ
Instrument: Not specified, most likely a prism, grating, or hybrid spectrometer.
Sampling: TRANSMISSION
Path length: 0.0115 CM, 0.0109 CM
Resolution: 4
Origin: DOW CHEMICAL COMPANY
1/CM	TRANSMITTANCE
448.63	0.868
457.762	0.868
466.895	0.831
476.027	0.8798
485.16	0.978
494.292	0.991
503.425	0.987
512.557	0.9391
521.69	0.959
530.822	0.996
539.955	0.989
549.087	0.7141
558.219	0.987
567.352	1.005
576.484	1.007
585.617	1.007
594.749	0.998
603.882	1.003
613.014	1.001
622.147	0.987
631.279	0.982
640.412	0.955
649.544	0.916
658.677	0.861
667.809	0.877
676.941	0.4671
686.074	0.8999
695.206	0.959
704.339	0.968
713.471	0.969
722.604	0.971
731.736	0.971
740.869	0.964
750.001	0.928
759.134	0.563
768.266	0.68
777.398	0.9019
786.531	0.944
795.663	0.953
804.796	0.955
813.928	0.937
823.061	0.921
832.193	0.9
841.326	0.792
850.458	0.777
859.591	0.788
868.723	0.827
877.855	0.854
886.988	0.799
896.12	0.895
905.253	0.95
914.385	0.971
923.518	0.978
932.65	0.984
941.783	0.98
950.915	0.98
960.048	0.98
969.18	0.976
978.313	0.975
987.445	0.973
996.577	0.96
1005.71	0.902
1014.84	0.236
1023.97	0.817
1033.11	0.955
1042.24	0.953
1051.37	0.966
1060.5	0.959
1069.64	0.932
1078.77	0.973
1087.9	0.973
1097.03	0.975
1106.17	0.973
1115.3	0.973
1124.43	0.969
1133.56	0.975
1142.7	0.957
1151.83	0.944
1160.96	0.911
1170.09	0.3802
1179.23	0.893
1188.36	0.849
1197.49	0.955
1206.62	0.973
1215.76	0.969
1224.89	0.944
1234.02	0.927
1243.15	0.895
1252.29	0.804
1261.42	0.4856
1270.55	0.1041
1279.68	0.179
1288.82	0.8079
1297.95	0.92
1307.08	0.95
1316.21	0.953
1325.35	0.959
1334.48	0.959
1343.61	0.966
1352.74	0.978
1361.88	0.992
1371.01	0.996
1380.14	0.984
1389.27	0.964
1398.41	0.96
1407.54	0.93
1416.67	0.95
1425.8	0.952
1434.94	0.936
1444.07	0.9
1453.2	0.7665
1462.33	0.015
1471.47	0.357
1480.6	0.657
1489.73	0.6351
1498.86	0.788
1508	0.781
1517.13	0.737
1526.26	0.682
1535.39	0.6119
1544.52	0.504
1553.66	0.422
1562.79	0.483
1571.92	0.605
1581.05	0.637
1590.19	0.6461
1599.32	0.683
1608.45	0.28
1617.58	0.774
1626.72	0.932
1635.85	0.973
1644.98	1.001
1654.11	0.994
1663.25	0.987
1672.38	0.985
1681.51	0.978
1690.64	0.971
1699.78	0.957
1708.91	0.944
1718.04	0.941
1727.17	0.964
1736.31	0.973
1745.44	0.978
1754.57	0.982
1763.7	0.976
1772.84	0.971
1781.97	0.975
1791.1	0.975
1800.23	0.975
1809.37	0.969
1818.5	0.973
1827.63	0.973
1836.76	0.952
1845.9	0.952
1855.03	0.937
1864.16	0.952
1873.29	0.971
1882.43	0.973
1891.56	0.976
1900.69	0.976
1909.82	0.973
1918.96	0.946
1928.09	0.964
1937.22	0.953
1946.35	0.962
1955.49	0.976
1964.62	0.976
1973.75	0.976
1982.88	0.976
1992.02	0.975
2001.15	0.9675
2010.28	0.957
2019.41	0.9639
2028.55	0.973
2037.68	0.976
2046.81	0.976
2055.94	0.976
2065.07	0.976
2074.21	0.9711
2083.34	0.9642
2092.47	0.9536
2101.6	0.943
2110.74	0.9533
2119.87	0.9658
2129	0.9789
2138.13	0.982
2147.27	0.982
2156.4	0.982
2165.53	0.982
2174.66	0.982
2183.8	0.982
2192.93	0.982
2202.06	0.982
2211.19	0.982
2220.33	0.98
2229.46	0.978
2238.59	0.975
2247.72	0.973
2256.86	0.969
2265.99	0.96
2275.12	0.9526
2284.25	0.9436
2293.39	0.9353
2302.52	0.9307
2311.65	0.9377
2320.78	0.9433
2329.92	0.9507
2339.05	0.953
2348.18	0.962
2357.31	0.9605
2366.45	0.9523
2375.58	0.96
2384.71	0.966
2393.84	0.968
2402.98	0.968
2412.11	0.968
2421.24	0.966
2430.37	0.9612
2439.51	0.955
2448.64	0.941
2457.77	0.9539
2466.9	0.9721
2476.04	0.9687
2485.17	0.962
2494.3	0.953
2503.43	0.9427
2512.57	0.9335
2521.7	0.9305
2530.83	0.9362
2539.96	0.9535
2549.1	0.9667
2558.23	0.9784
2567.36	0.9804
2576.49	0.982
2585.62	0.982
2594.76	0.98
2603.89	0.978
2613.02	0.976
2622.15	0.9746
2631.29	0.971
2640.42	0.9694
2649.55	0.9752
2658.68	0.978
2667.82	0.98
2676.95	0.98
2686.08	0.978
2695.21	0.98
2704.35	0.98
2713.48	0.9759
2722.61	0.971
2731.74	0.975
2740.88	0.9751
2750.01	0.9759
2759.14	0.9751
2768.27	0.9704
2777.41	0.9535
2786.54	0.9733
2795.67	0.9782
2804.8	0.98
2813.94	0.9782
2823.07	0.98
2832.2	0.984
2841.33	0.984
2850.47	0.985
2859.6	0.982
2868.73	0.98
2877.86	0.98
2887	0.9821
2896.13	0.9841
2905.26	0.984
2914.39	0.9869
2923.53	0.9819
2932.66	0.976
2941.79	0.978
2950.92	0.978
2960.06	0.98
2969.19	0.978
2978.32	0.975
2987.45	0.971
2996.59	0.962
3005.72	0.95
3014.85	0.927
3023.98	0.944
3033.12	0.9341
3042.25	0.9121
3051.38	0.905
3060.51	0.8961
3069.65	0.8684
3078.78	0.8519
3087.91	0.8679
3097.04	0.9014
3106.18	0.9111
3115.31	0.8885
3124.44	0.8953
3133.57	0.949
3142.7	0.9675
3151.84	0.9708
3160.97	0.969
3170.1	0.9778
3179.23	0.9838
3188.37	0.9868
3197.5	0.9888
3206.63	0.987
3215.76	0.9908
3224.9	0.994
3234.03	0.9998
3243.16	1.001
3252.29	1.001
3261.43	1.001
3270.56	1.001
3279.69	1.003
3288.82	1.003
3297.96	1.003
3307.09	1.003
3316.22	1.003
3325.35	1.001
3334.49	1
3343.62	0.998
3352.75	0.9997
3361.88	1
3371.02	1.0026
3380.15	1.001
3389.28	1.003
3398.41	1.0046
3407.55	1.003
3416.68	1.003
3425.81	1.003
3434.94	1.0002
3444.08	0.998
3453.21	0.996
3462.34	0.996
3471.47	0.996
3480.61	0.996
3489.74	0.9945
3498.87	0.994
3508	0.991
3517.14	0.991
3526.27	0.992
3535.4	0.992
3544.53	0.9935
3553.67	0.996
3562.8	0.9966
3571.93	0.994
3581.06	0.994
3590.2	0.991
3599.33	0.9974
3608.46	0.998
3617.59	0.998
3626.73	0.998
3635.86	0.998
3644.99	0.998
3654.12	0.998
3663.25	0.996
3672.39	0.9897
3681.52	0.98
3690.65	0.984
3699.78	0.9953
3708.92	1.001
3718.05	1.001
3727.18	1.0004
3736.31	0.998
3745.45	0.996
3754.58	0.9932
3763.71	0.9992
3772.84	1.001
3781.98	1.001
