Infrared Spectrum: BENZENE, 1-BROMO-2-CHLORO-
Formula: C6 H4 Br Cl
CAS: 694-80-4
State: SOLUTION (10% IN CCl4 FOR 3800-1333 AND 10% IN CS2 FOR 1333-450 CM^-^1)
Class: COBLENTZ III
Instrument: DOW KBr FOREPRISM-GRATING
Instrument parameters: BLAZED AT 3.5, 12.0, 20.0 MICRON, CHANGED AT 5.0, 7.5, 14.9 MICRON
Sampling: TRANSMISSION
Path length: 0.011, 0.011 CM
Resolution: 4
Origin: DOW CHEMICAL COMPANY
1/CM	TRANSMITTANCE
447.774	0.978
456.46	0.983
465.146	0.993
473.833	1.013
482.519	1.025
491.205	1.034
499.891	1.038
508.578	1.042
517.264	1.042
525.95	1.042
534.636	1.046
543.322	1.046
552.009	1.046
560.695	1.05
569.381	1.049
578.067	1.046
586.754	1.047
595.44	1.042
604.126	1.038
612.812	1.036
621.498	1.031
630.185	1.012
638.871	0.961
647.557	0.5339
656.243	0.912
664.93	0.957
673.616	0.969
682.302	0.993
690.988	0.99
699.674	0.995
708.361	0.965
717.047	0.712
725.733	0.761
734.419	0.71
743.106	0.2299
751.792	0.158
760.478	0.824
769.164	0.959
777.85	0.986
786.537	0.98
795.223	1.006
803.909	1.005
812.595	0.987
821.282	1.001
829.968	0.984
838.654	0.95
847.34	0.871
856.026	0.795
864.713	0.833
873.399	0.886
882.085	0.933
890.771	0.978
899.458	1.004
908.144	1.012
916.83	1.006
925.516	0.995
934.202	0.957
942.889	0.963
951.575	1
960.261	1.001
968.947	0.991
977.634	0.989
986.32	0.983
995.006	0.944
1003.69	0.92
1012.38	0.818
1021.06	0.1819
1029.75	0.77
1038.44	0.6581
1047.12	0.987
1055.81	1.002
1064.5	1
1073.18	1.001
1081.87	0.994
1090.55	0.979
1099.24	0.897
1107.93	0.753
1116.61	0.664
1125.3	0.481
1133.99	0.918
1142.67	0.979
1151.36	0.965
1160.04	0.953
1168.73	0.983
1177.42	0.986
1186.1	1.013
1194.79	1.023
1203.48	1.025
1212.16	1.034
1220.85	1.032
1229.53	1.032
1238.22	1.006
1246.91	0.915
1255.59	0.848
1264.28	0.982
1272.97	0.987
1281.65	0.997
1290.34	1.005
1299.02	1.01
1307.71	1.015
1316.4	1.013
1325.08	1.01
1333.77	1.009
1342.45	1.008
1351.14	1
1359.83	1
1368.51	1.025
1377.2	1.024
1385.89	1.008
1394.57	1.01
1403.26	0.9519
1411.94	0.945
1420.63	0.914
1429.32	0.7349
1438	0.7052
1446.69	0.6729
1455.38	0.0211
1464.06	0.7661
1472.75	0.841
1481.43	0.839
1490.12	0.892
1498.81	0.867
1507.49	0.814
1516.18	0.773
1524.87	0.728
1533.55	0.6639
1542.24	0.541
1550.92	0.499
1559.61	0.553
1568.3	0.5509
1576.98	0.504
1585.67	0.698
1594.36	0.774
1603.04	0.854
1611.73	0.956
1620.41	0.989
1629.1	1.01
1637.79	1.038
1646.47	1.05
1655.16	1.028
1663.85	1.013
1672.53	1.006
1681.22	0.991
1689.9	0.983
1698.59	1
1707.28	0.995
1715.96	1
1724.65	1
1733.33	1.002
1742.02	0.997
1750.71	1.001
1759.39	1.001
1768.08	1
1776.77	0.993
1785.45	0.978
1794.14	0.931
1802.82	0.982
1811.51	0.991
1820.2	0.984
1828.88	0.961
1837.57	0.983
1846.26	0.989
1854.94	0.987
1863.63	0.986
1872.31	0.983
1881	0.965
1889.69	0.984
1898.37	0.987
1907.06	0.969
1915.75	0.914
1924.43	0.982
1933.12	0.99
1941.8	0.979
1950.49	0.939
1959.18	0.983
1967.86	0.991
1976.55	0.991
1985.24	0.987
1993.92	1.004
2002.61	1.02
2011.29	1.0175
2019.98	1.024
2028.67	1.0153
2037.35	1.0254
2046.04	1.0266
2054.73	1.017
2063.41	1.017
2072.1	1.0204
2080.78	1.0199
2089.47	1.024
2098.16	1.0166
2106.84	1.0046
2115.53	1.019
2124.21	1.017
2132.9	1.0156
2141.59	1.015
2150.27	1.0142
2158.96	1.013
2167.65	1.013
2176.33	1.012
2185.02	1.012
2193.7	1.0096
2202.39	1.0113
2211.08	1.0096
2219.76	1.0086
2228.45	1.0073
2237.14	1.0024
2245.82	1.0033
2254.51	1
2263.19	0.9977
2271.88	0.9937
2280.57	0.9827
2289.25	0.9754
2297.94	0.9753
2306.63	0.9823
2315.31	1.005
2324	0.9902
2332.68	1.001
2341.37	1.005
2350.06	1.001
2358.74	1
2367.43	1
2376.12	0.9985
2384.8	0.995
2393.49	1
2402.17	1.0008
2410.86	0.998
2419.55	1.0012
2428.23	1.0008
2436.92	1
2445.61	1.0002
2454.29	1.001
2462.98	1
2471.66	1.0002
2480.35	1.005
2489.04	1.002
2497.72	1.0012
2506.41	1.001
2515.09	1
2523.78	0.9997
2532.47	0.9927
2541.15	0.9823
2549.84	0.9933
2558.53	0.997
2567.21	0.997
2575.9	0.997
2584.58	0.9939
2593.27	0.9891
2601.96	0.998
2610.64	0.9982
2619.33	1.002
2628.02	1.001
2636.7	1.0011
2645.39	1.002
2654.07	1.002
2662.76	1.001
2671.45	1.002
2680.13	1.002
2688.82	1.0009
2697.51	0.9969
2706.19	0.995
2714.88	1.0001
2723.56	1.001
2732.25	1.002
2740.94	1.004
2749.62	1.002
2758.31	1.004
2767	1.004
2775.68	1.004
2784.37	1.004
2793.05	1.002
2801.74	1.002
2810.43	1.002
2819.11	1.001
2827.8	1
2836.49	1.002
2845.17	0.9999
2853.86	0.9939
2862.54	1
2871.23	1.002
2879.92	1.004
2888.6	1.004
2897.29	1.002
2905.97	1.0001
2914.66	0.9942
2923.35	0.993
2932.03	1
2940.72	1.0038
2949.41	1.004
2958.09	1.002
2966.78	1.002
2975.46	1.001
2984.15	0.998
2992.84	1.0009
3001.52	1.0014
3010.21	1.0001
3018.9	0.9971
3027.58	1
3036.27	1
3044.95	0.9905
3053.64	0.9693
3062.33	0.8993
3071.01	0.8261
3079.7	0.8908
3088.39	0.9793
3097.07	1.0018
3105.76	1.0058
3114.44	1.008
3123.13	1.01
3131.82	1.0104
3140.5	1.0026
3149.19	1.0091
3157.88	1.0186
3166.56	1.02
3175.25	1.021
3183.93	1.025
3192.62	1.0255
3201.31	1.027
3209.99	1.03
3218.68	1.031
3227.37	1.031
3236.05	1.034
3244.74	1.034
3253.42	1.0358
3262.11	1.0387
3270.8	1.0387
3279.48	1.0414
3288.17	1.042
3296.85	1.042
3305.54	1.045
3314.23	1.047
3322.91	1.045
3331.6	1.045
3340.29	1.045
3348.97	1.045
3357.66	1.045
3366.34	1.046
3375.03	1.047
3383.72	1.047
3392.4	1.0497
3401.09	1.05
3409.78	1.049
3418.46	1.049
3427.15	1.047
3435.83	1.047
3444.52	1.0394
3453.21	1.04
3461.89	1.036
3470.58	1.034
3479.27	1.0314
3487.95	1.03
3496.64	1.0261
3505.32	1.021
3514.01	1.024
3522.7	1.0195
3531.38	1.016
3540.07	1.015
3548.76	1.015
3557.44	1.015
3566.13	1.015
3574.81	1.0125
3583.5	1.012
3592.19	1.012
3600.87	1.011
3609.56	1.0105
3618.25	1.008
3626.93	1.0035
3635.62	1.0015
3644.3	0.9994
3652.99	1
3661.68	1.0005
3670.36	1.0024
3679.05	1.005
3687.73	1.0045
3696.42	1.0091
3705.11	0.9993
3713.79	1
3722.48	0.993
3731.17	0.9953
3739.85	1
3748.54	1
3757.22	1.0004
3765.91	0.9976
3774.6	0.9946
3783.28	0.995
3791.97	0.997
