Infrared Spectrum: 2-Bromo-5-fluorobenzoic acid, methyl ester
Formula: C8 H6 Br F O2
CAS: 6942-39-8
State: SOLUTION (10% CCl4 FOR 3800-1330, 10% CS2 FOR 1330-460 CM^-^1)
Class: COBLENTZ III
Instrument: DOW KBr FOREPRISM-GRATING
Instrument parameters: BLAZED AT 3.5, 12.0, 20.0 MICRON AND CHANGED AT 5.0, 7.5, 14.9 MICRON
Sampling: TRANSMISSION
Path length: 0.010 CM, 0.011 CM
Resolution: 2
Origin: DOW CHEMICAL COMPANY
1/CM	TRANSMITTANCE
3800	0.9081
3791	0.9089
3782	0.9075
3773	0.9087
3764	0.909
3755	0.9086
3746	0.9076
3737	0.9079
3728	0.9072
3719	0.9054
3710	0.9062
3701	0.9058
3692	0.9037
3683	0.9022
3674	0.9033
3665	0.9053
3656	0.9061
3647	0.9065
3638	0.9063
3629	0.9061
3620	0.9062
3611	0.9051
3602	0.903
3593	0.9022
3584	0.8998
3575	0.8913
3566	0.8927
3557	0.8943
3548	0.896
3539	0.8953
3530	0.8955
3521	0.8937
3512	0.8931
3503	0.8922
3494	0.8907
3485	0.8864
3476	0.8801
3467	0.8747
3458	0.8762
3449	0.8783
3440	0.8812
3431	0.8843
3422	0.8876
3413	0.8907
3404	0.8932
3395	0.8954
3386	0.897
3377	0.8979
3368	0.8982
3359	0.8985
3350	0.8987
3341	0.8989
3332	0.8991
3323	0.8993
3314	0.8996
3305	0.9012
3296	0.9006
3287	0.901
3278	0.9027
3269	0.9035
3260	0.9041
3251	0.9046
3242	0.905
3233	0.9048
3224	0.9047
3215	0.9042
3206	0.9026
3197	0.9029
3188	0.9021
3179	0.8998
3170	0.8985
3161	0.8982
3152	0.8982
3143	0.8962
3134	0.8961
3125	0.8935
3116	0.8801
3107	0.8525
3098	0.8523
3089	0.8525
3080	0.8282
3071	0.8539
3062	0.8699
3053	0.8696
3044	0.8547
3035	0.8303
3026	0.8202
3017	0.8157
3008	0.7672
2999	0.7828
2990	0.8215
2981	0.8466
2972	0.8414
2963	0.6391
2954	0.4892
2945	0.8136
2936	0.8659
2927	0.8755
2918	0.8786
2909	0.8636
2900	0.86
2891	0.8688
2882	0.8799
2873	0.8855
2864	0.8813
2855	0.8586
2846	0.854
2837	0.8717
2828	0.8889
2819	0.903
2810	0.9113
2801	0.9157
2792	0.9175
2783	0.9183
2774	0.9198
2765	0.9201
2756	0.9205
2747	0.9205
2738	0.9204
2729	0.9201
2720	0.9184
2711	0.9168
2702	0.9159
2693	0.9165
2684	0.9171
2675	0.9175
2666	0.9179
2657	0.9196
2648	0.9196
2639	0.92
2630	0.9207
2621	0.9214
2612	0.9211
2603	0.9207
2594	0.9205
2585	0.9202
2576	0.9201
2567	0.9172
2558	0.9183
2549	0.921
2540	0.9223
2531	0.9197
2522	0.9174
2513	0.9155
2504	0.9157
2495	0.9169
2486	0.9188
2477	0.9212
2468	0.9222
2459	0.9233
2450	0.9232
2441	0.9246
2432	0.9248
2423	0.9241
2414	0.9229
2405	0.921
2396	0.9174
2387	0.9195
2378	0.9241
2369	0.9266
2360	0.9284
2351	0.9323
2342	0.9333
2333	0.9338
2324	0.9368
2315	0.9348
2306	0.9303
2297	0.9286
2288	0.929
2279	0.9288
2270	0.9271
2261	0.9256
2252	0.9247
2243	0.923
2234	0.9221
2225	0.9219
2216	0.9203
2207	0.92
2198	0.9192
2189	0.9169
2180	0.9165
2171	0.917
2162	0.9154
2153	0.9148
2144	0.9142
2135	0.9128
2126	0.9061
2117	0.9042
2108	0.9062
2099	0.9073
2090	0.9078
2081	0.9078
2072	0.9097
2063	0.9107
2054	0.9119
2045	0.9094
2036	0.908
2027	0.9058
2018	0.904
2009	0.9015
2000	0.8975
1991	0.888
1982	0.8972
1973	0.8992
1964	0.8988
1955	0.9022
1946	0.9005
1937	0.9042
1928	0.906
1919	0.906
1910	0.9037
1901	0.8873
1892	0.8562
1883	0.8743
1874	0.8891
1865	0.8958
1856	0.8979
1847	0.8934
1838	0.8882
1829	0.8805
1820	0.8701
1811	0.8598
1802	0.8418
1793	0.8192
1784	0.7776
1775	0.6874
1766	0.592
1757	0.324
1748	0.0131
1739	0.0413
1730	0.0745
1721	0.167
1712	0.4704
1703	0.6753
1694	0.7497
1685	0.795
1676	0.8211
1667	0.836
1658	0.8475
1649	0.8463
1640	0.836
1631	0.8546
1622	0.8458
1613	0.7952
1604	0.6359
1595	0.6501
1586	0.434
1577	0.4076
1568	0.6545
1559	0.6818
1550	0.7125
1541	0.7838
1532	0.7803
1523	0.7835
1514	0.7971
1505	0.7892
1496	0.7576
1487	0.6429
1478	0.2673
1469	0.064
1460	0.3272
1451	0.486
1442	0.2602
1433	0.4682
1424	0.7595
1415	0.7455
1406	0.2348
1397	0.4387
1388	0.6926
1379	0.8184
1370	0.835
1361	0.8203
1352	0.8135
1343	0.8147
1334	0.7993
1325	0.7327
1316	0.5196
1307	0.1637
1298	0.0285
1289	0.2227
1280	0.4081
1271	0.1963
1262	0.1417
1253	0.2391
1244	0.0178
1235	0.4345
1226	0.5575
1217	0.3866
1208	0.1456
1199	0.0185
1190	0.2355
1181	0.5058
1172	0.6998
1163	0.7569
1154	0.7542
1145	0.7411
1136	0.7087
1127	0.2655
1118	0.5485
1109	0.5842
1100	0.3665
1091	0.1863
1082	0.6644
1073	0.7409
1064	0.7734
1055	0.7784
1046	0.7461
1037	0.3981
1028	0.4292
1019	0.7673
1010	0.8224
1001	0.7941
992	0.5629
983	0.3471
974	0.634
965	0.845
956	0.8718
947	0.8703
938	0.8705
929	0.878
920	0.8724
911	0.8392
902	0.8169
893	0.7137
884	0.3974
875	0.5244
866	0.747
857	0.8021
848	0.8219
839	0.8417
830	0.7693
821	0.3222
812	0.5629
803	0.7987
794	0.4644
785	0.7165
776	0.3833
767	0.8083
758	0.8515
749	0.8791
740	0.8787
731	0.8933
722	0.8988
713	0.8964
704	0.8907
695	0.8794
686	0.8722
677	0.8851
668	0.7364
659	0.84
650	0.8355
641	0.8362
632	0.828
623	0.6272
614	0.3394
605	0.7118
596	0.7546
587	0.7512
578	0.7286
569	0.7076
560	0.6945
551	0.7127
542	0.7569
533	0.7834
524	0.7737
515	0.7748
506	0.7749
497	0.7436
488	0.7123
479	0.7077
470	0.7151
461	0.7204
