Infrared Spectrum: 4-Picoline, 2-amino-
Formula: C6 H8 N2
CAS: 695-34-1
State: SOLID (0.9 mg / 650 mg KBr DISC)
Class: COBLENTZ III
Instrument: PERKIN-ELMER 221 (GRATING)
Instrument parameters: FILTER AT 980 CM^-^1. GRATING 4000-1428 CM^-^1, NaCl PRISM 1428-650 CM^-^1
Resolution: 2
Origin: SOUTHERN RESEARCH INSTITUTE
1/CM	TRANSMITTANCE
546.36	0.5243
555.374	0.6399
564.388	0.7078
573.403	0.7807
582.417	0.8273
591.431	0.8685
600.445	0.8877
609.459	0.8836
618.474	0.879
627.488	0.8743
636.502	0.8555
645.516	0.8332
654.53	0.8095
663.545	0.7798
672.559	0.746
681.573	0.6834
690.587	0.6163
699.602	0.5647
708.616	0.5462
717.63	0.5711
726.644	0.6343
735.658	0.6964
744.673	0.7471
753.687	0.6341
762.701	0.6444
771.715	0.5802
780.729	0.6102
789.744	0.2038
798.758	0.4121
807.772	0.6983
816.786	0.7408
825.8	0.763
834.815	0.7736
843.829	0.7692
852.843	0.7354
861.857	0.442
870.871	0.7265
879.886	0.7711
888.9	0.7847
897.914	0.7898
906.928	0.7939
915.943	0.7969
924.957	0.794
933.971	0.7444
942.985	0.6376
951.999	0.8032
961.014	0.7578
970.028	0.7746
979.042	0.7162
988.056	0.4859
997.07	0.7353
1006.08	0.7369
1015.1	0.7442
1024.11	0.7625
1033.13	0.7334
1042.14	0.7161
1051.16	0.7561
1060.17	0.7769
1069.18	0.7641
1078.2	0.7522
1087.21	0.7676
1096.23	0.783
1105.24	0.7951
1114.26	0.8014
1123.27	0.7947
1132.28	0.7987
1141.3	0.7991
1150.31	0.7948
1159.33	0.787
1168.34	0.7497
1177.35	0.4269
1186.37	0.8057
1195.38	0.8245
1204.4	0.8224
1213.41	0.813
1222.43	0.8006
1231.44	0.7547
1240.45	0.7393
1249.47	0.7477
1258.48	0.6611
1267.5	0.3978
1276.51	0.6277
1285.53	0.698
1294.54	0.6453
1303.55	0.2652
1312.57	0.7814
1321.58	0.7926
1330.6	0.6338
1339.61	0.6926
1348.62	0.7041
1357.64	0.6827
1366.65	0.5343
1375.67	0.6805
1384.68	0.6878
1393.7	0.6609
1402.71	0.6187
1411.72	0.5725
1420.74	0.4455
1429.75	0.32
1438.77	0.1847
1447.78	0.1808
1456.79	0.2669
1465.81	0.16
1474.82	0.4527
1483.84	0.3956
1492.85	0.3378
1501.87	0.5242
1510.88	0.5278
1519.89	0.5103
1528.91	0.4561
1537.92	0.3744
1546.94	0.282
1555.95	0.2465
1564.97	0.3788
1573.98	0.3968
1582.99	0.4615
1592.01	0.4817
1601.02	0.2532
1610.04	0.0263
1619.05	0.1445
1628.06	0.19
1637.08	0.0439
1646.09	0.0368
1655.11	0.2339
1664.12	0.4655
1673.14	0.6753
1682.15	0.7547
1691.16	0.7824
1700.18	0.7937
1709.19	0.8039
1718.21	0.8332
1727.22	0.8582
1736.24	0.8676
1745.25	0.8612
1754.26	0.8713
1763.28	0.8913
1772.29	0.9063
1781.31	0.91
1790.32	0.91
1799.33	0.9085
1808.35	0.9075
1817.36	0.906
1826.38	0.9037
1835.39	0.9004
1844.41	0.8977
1853.42	0.8948
1862.43	0.8924
1871.45	0.8841
1880.46	0.8793
1889.48	0.8833
1898.49	0.8776
1907.51	0.8646
1916.52	0.7824
1925.53	0.8678
1934.55	0.8717
1943.56	0.8663
1952.58	0.8609
1961.59	0.8646
1970.6	0.8653
1979.62	0.8667
1988.63	0.8768
1997.65	0.8659
2006.66	0.8536
2015.68	0.8474
2024.69	0.8459
2033.7	0.8446
2042.72	0.8427
2051.73	0.8405
2060.75	0.8377
2069.76	0.8334
2078.78	0.8276
2087.79	0.8199
2096.8	0.8153
2105.82	0.8132
2114.83	0.8077
2123.85	0.8177
2132.86	0.8224
2141.87	0.8239
2150.89	0.826
2159.9	0.8265
2168.92	0.8254
2177.93	0.822
2186.95	0.8148
2195.96	0.8058
2204.97	0.7969
2213.99	0.7952
2223	0.802
2232.02	0.81
2241.03	0.8125
2250.05	0.8096
2259.06	0.8151
2268.07	0.814
2277.09	0.8109
2286.1	0.8135
2295.12	0.8105
2304.13	0.8028
2313.14	0.794
2322.16	0.7863
2331.17	0.7848
2340.19	0.7831
2349.2	0.7798
2358.22	0.7757
2367.23	0.7726
2376.24	0.7703
2385.26	0.7699
2394.27	0.7688
2403.29	0.7666
2412.3	0.7697
2421.32	0.7763
2430.33	0.7756
2439.34	0.7658
2448.36	0.7651
2457.37	0.7706
2466.39	0.7729
2475.4	0.7943
2484.41	0.7136
2493.43	0.7631
2502.44	0.7627
2511.46	0.7584
2520.47	0.7539
2529.49	0.7493
2538.5	0.7453
2547.51	0.7412
2556.53	0.7363
2565.54	0.7316
2574.56	0.7281
2583.57	0.7219
2592.59	0.7143
2601.6	0.7052
2610.61	0.7037
2619.63	0.707
2628.64	0.702
2637.66	0.6958
2646.67	0.6882
2655.68	0.6814
2664.7	0.675
2673.71	0.6636
2682.73	0.6445
2691.74	0.6209
2700.76	0.6087
2709.77	0.6143
2718.78	0.6333
2727.8	0.6482
2736.81	0.6585
2745.83	0.6545
2754.84	0.6333
2763.86	0.6087
2772.87	0.5844
2781.88	0.6202
2790.9	0.6226
2799.91	0.6203
2808.93	0.6115
2817.94	0.5994
2826.95	0.5875
2835.97	0.5497
2844.98	0.511
2854	0.5197
2863.01	0.5279
2872.03	0.5133
2881.04	0.4885
2890.05	0.4575
2899.07	0.4075
2908.08	0.3275
2917.1	0.3604
2926.11	0.424
2935.13	0.4184
2944.14	0.4129
2953.15	0.4161
2962.17	0.4026
2971.18	0.3955
2980.2	0.3927
2989.21	0.3888
2998.22	0.3846
3007.24	0.3679
3016.25	0.3604
3025.27	0.3296
3034.28	0.3262
3043.3	0.2974
3052.31	0.2687
3061.32	0.2846
3070.34	0.2913
3079.35	0.278
3088.37	0.2539
3097.38	0.2143
3106.39	0.1732
3115.41	0.1332
3124.42	0.1012
3133.44	0.0842
3142.45	0.093
3151.47	0.1138
3160.48	0.1391
3169.49	0.1707
3178.51	0.2031
3187.52	0.2327
3196.54	0.2708
3205.55	0.3194
3214.57	0.3555
3223.58	0.4076
3232.59	0.4365
3241.61	0.4294
3250.62	0.4091
3259.64	0.3925
3268.65	0.3659
3277.66	0.3313
3286.68	0.2636
3295.69	0.1914
3304.71	0.2026
3313.72	0.2626
3322.74	0.3612
3331.75	0.4017
3340.76	0.4082
3349.78	0.4069
3358.79	0.3947
3367.81	0.3766
3376.82	0.3497
3385.84	0.3123
3394.85	0.2663
3403.86	0.2213
3412.88	0.1771
3421.89	0.0752
3430.91	0.0148
3439.92	0.066
3448.93	0.1987
3457.95	0.2833
3466.96	0.3683
3475.98	0.4186
3484.99	0.4536
3494.01	0.479
3503.02	0.495
3512.03	0.5054
3521.05	0.5161
3530.06	0.5269
3539.08	0.5363
3548.09	0.547
3557.11	0.5593
3566.12	0.569
3575.13	0.5861
3584.15	0.5936
3593.16	0.6014
3602.18	0.6107
3611.19	0.6236
3620.2	0.6363
3629.22	0.6467
3638.23	0.657
3647.25	0.6652
3656.26	0.6803
3665.28	0.6883
3674.29	0.6928
3683.3	0.6949
3692.32	0.7007
3701.33	0.6992
3710.35	0.6982
3719.36	0.6973
3728.38	0.6958
3737.39	0.6938
3746.4	0.6915
3755.42	0.6895
3764.43	0.6876
3773.45	0.6847
3782.46	0.6799
3791.47	0.6765
3800.49	0.6734
