Infrared Spectrum: CYCLOHEXANE, ISOPROPYL-
Formula: C9 H18
CAS: 696-29-7
State: SOLUTION (10% CCl4 FOR 3800-1330, 10% CS2 FOR 1330-400 CM^-^1)
Class: COBLENTZ III
Instrument: DOW KBr FOREPRISM-GRATING
Instrument parameters: BLAZED AT 3.5, 12.0, 20.0 MICRON AND CHANGED AT 5.0, 7.5, 14.9 MICRON
Sampling: TRANSMISSION
Path length: 0.011 CM, 0.011 CM
Resolution: 2
Origin: DOW CHEMICAL COMPANY
1/CM	TRANSMITTANCE
383	0.299
392	0.348
401	0.528
410	0.7033
419	0.9187
428	0.9566
437	0.9856
446	1.0059
455	1.0187
464	1.0264
473	1.0277
482	1.0231
491	1.0183
500	1.0065
509	1.0139
518	1.0225
527	1.0141
536	0.997
545	1.004
554	1.0128
563	1.0168
572	0.9938
581	1.0225
590	1.0262
599	1.0268
608	1.0252
617	1.0231
626	1.0171
635	1.0037
644	0.9848
653	0.9875
662	1.0051
671	1.01
680	1.0083
689	1.006
698	0.9854
707	1
716	0.9964
725	0.9895
734	0.98
743	0.9807
752	0.9928
761	0.9894
770	0.9794
779	0.962
788	0.9791
797	0.9788
806	0.9792
815	0.9783
824	0.9433
833	0.9138
842	0.9112
851	0.7219
860	0.7468
869	0.8505
878	0.8553
887	0.6896
896	0.848
905	0.9525
914	0.9236
923	0.9468
932	0.966
941	0.9471
950	0.9411
959	0.9675
968	0.9762
977	0.9757
986	0.9686
995	0.8548
1004	0.9301
1013	0.8609
1022	0.901
1031	0.9271
1040	0.9418
1049	0.9494
1058	0.9115
1067	0.9014
1076	0.8473
1085	0.9018
1094	0.9166
1103	0.9455
1112	0.95
1121	0.9406
1130	1.0535
1139	1.0642
1148	1.0532
1157	0.9871
1166	1.0171
1175	0.9721
1184	1.0196
1193	0.9284
1202	1.0332
1211	1.0548
1220	1.053
1229	1.0235
1238	0.9928
1247	1.0254
1256	0.9763
1265	0.9106
1274	0.9918
1283	0.9896
1292	0.8865
1301	0.9796
1310	0.9747
1319	0.9318
1328	0.9324
1337	0.8749
1346	0.9262
1355	0.9207
1364	0.7918
1373	0.6055
1382	0.7707
1391	0.8126
1400	0.9296
1409	0.9524
1418	0.947
1427	0.9256
1436	0.8648
1445	0.4314
1454	0.2798
1463	0.4557
1472	0.342
1481	0.6657
1490	0.8618
1499	0.8611
1508	0.8238
1517	0.7774
1526	0.7348
1535	0.684
1544	0.5566
1553	0.5429
1562	0.616
1571	0.7071
1580	0.7205
1589	0.7704
1598	0.8485
1607	0.9351
1616	0.9505
1625	0.963
1634	0.965
1643	0.9691
1652	0.932
1661	0.9378
1670	0.9412
1679	0.9633
1688	0.9827
1697	0.9818
1706	0.9963
1715	1.0012
1724	1.0085
1733	0.9961
1742	1.0052
1751	1.0105
1760	1.0131
1769	1.0042
1778	1.0124
1787	1.0135
1796	1.0144
1805	1.0141
1814	1.0134
1823	1.0128
1832	1.0116
1841	1.0104
1850	1.0094
1859	1.0098
1868	1.0106
1877	1.0117
1886	1.0131
1895	1.0144
1904	1.0154
1913	1.0165
1922	1.0175
1931	1.0183
1940	1.0173
1949	1.0159
1958	1.021
1967	1.0132
1976	1.0124
1985	1.0115
1994	1.0058
2003	1.0084
2012	1.0145
2021	1.0168
2030	1.0141
2039	1.0078
2048	1.0099
2057	1.0116
2066	1.0125
2075	1.0133
2084	1.0133
2093	1.0125
2102	1.0113
2111	1.0099
2120	1.0085
2129	1.0071
2138	1.0055
2147	1.0038
2156	1.0014
2165	0.9989
2174	0.9967
2183	0.9947
2192	0.9927
2201	0.9906
2210	0.9885
2219	0.9871
2228	0.9858
2237	0.9855
2246	0.9882
2255	0.9846
2264	0.9804
2273	0.976
2282	0.9723
2291	0.9706
2300	0.9701
2309	0.9689
2318	0.9661
2327	0.964
2336	0.9661
2345	0.9686
2354	0.9643
2363	0.9598
2372	0.9636
2381	0.9668
2390	0.9705
2399	0.9721
2408	0.9724
2417	0.9711
2426	0.9692
2435	0.9731
2444	0.9766
2453	0.9771
2462	0.9757
2471	0.9721
2480	0.9662
2489	0.9665
2498	0.9711
2507	0.9697
2516	0.9661
2525	0.9602
2534	0.9591
2543	0.959
2552	0.9549
2561	0.947
2570	0.9363
2579	0.9208
2588	0.9013
2597	0.8887
2606	0.8973
2615	0.9102
2624	0.9041
2633	0.8973
2642	0.8997
2651	0.882
2660	0.8415
2669	0.8602
2678	0.8837
2687	0.8893
2696	0.8844
2705	0.8903
2714	0.8912
2723	0.8852
2732	0.8915
2741	0.9094
2750	0.9054
2759	0.891
2768	0.8833
2777	0.8554
2786	0.7701
2795	0.7861
2804	0.7808
2813	0.7282
2822	0.6525
2831	0.3564
2840	0.1743
2849	0.022
2858	0.0697
2867	0.0768
2876	0.1829
2885	0.1483
2894	0.0609
2903	0.0335
2912	0.0205
2921	0.0147
2930	0.016
2939	0.027
2948	0.031
2957	0.0233
2966	0.0575
2975	0.2563
2984	0.5073
2993	0.659
3002	0.7725
3011	0.824
3020	0.8478
3029	0.868
3038	0.8807
3047	0.8902
3056	0.8965
3065	0.9013
3074	0.9042
3083	0.9064
3092	0.908
3101	0.9089
3110	0.9086
3119	0.906
3128	0.9027
3137	0.8983
3146	0.8947
3155	0.8931
3164	0.8931
3173	0.894
3182	0.8956
3191	0.8975
3200	0.9005
3209	0.9041
3218	0.9071
3227	0.9104
3236	0.914
3245	0.9182
3254	0.922
3263	0.9257
3272	0.9281
3281	0.9302
3290	0.9309
3299	0.9308
3308	0.9297
3317	0.9268
3326	0.924
3335	0.9214
3344	0.9188
3353	0.9174
3362	0.9162
3371	0.9151
3380	0.9145
3389	0.9138
3398	0.9135
3407	0.913
3416	0.9136
3425	0.9152
3434	0.9183
3443	0.9225
3452	0.9278
3461	0.9335
3470	0.9401
3479	0.9467
3488	0.9523
3497	0.9564
3506	0.958
3515	0.9588
3524	0.9593
3533	0.9597
3542	0.96
3551	0.9603
3560	0.9607
3569	0.9607
3578	0.9605
3587	0.9602
3596	0.96
3605	0.9598
3614	0.9597
3623	0.9596
3632	0.9595
3641	0.9592
3650	0.9589
3659	0.9586
3668	0.9583
3677	0.9577
3686	0.9571
3695	0.9562
3704	0.9551
3713	0.9538
3722	0.9514
3731	0.9482
3740	0.9459
3749	0.9517
3758	0.9575
3767	0.9593
3776	0.9571
3785	0.9534
3794	0.9542
