Infrared Spectrum: 1,5-PENTANEDIOL, DIACETATE
Formula: C9 H16 O4
CAS: 6963-44-6
Class: COBLENTZ
Instrument: Not specified, most likely a prism, grating, or hybrid spectrometer.
Sampling: TRANSMISSION
Path length: SMEAR
Resolution: 4
Origin: TENNESSEE EASTMAN COMPANY, RESEARCH LABORATORIES
MICROMETERS	TRANSMITTANCE
2.02	0.944
2.05901	0.944
2.09802	0.944
2.13703	0.944
2.17604	0.944
2.21506	0.943
2.25407	0.93
2.29308	0.928
2.33209	0.928
2.3711	0.928
2.41011	0.928
2.44912	0.93
2.48813	0.93
2.52714	0.93
2.56616	0.936
2.60517	0.94
2.64418	0.938
2.68319	0.944
2.7222	0.933
2.76121	0.91
2.80022	0.907
2.83923	0.907
2.87825	0.91
2.91726	0.899
2.95627	0.927
2.99528	0.936
3.03429	0.94
3.0733	0.94
3.11231	0.94
3.15132	0.94
3.19033	0.94
3.22935	0.933
3.26836	0.918
3.30737	0.878
3.34638	0.726
3.38539	0.448
3.4244	0.594
3.46341	0.688
3.50242	0.779
3.54143	0.889
3.58045	0.922
3.61946	0.927
3.65847	0.93
3.69748	0.93
3.73649	0.93
3.7755	0.933
3.81451	0.938
3.85352	0.94
3.89254	0.94
3.93155	0.944
3.97056	0.948
4.00957	0.949
4.04858	0.946
4.08759	0.943
4.1266	0.941
4.16561	0.943
4.20462	0.944
4.24364	0.969
4.28265	0.974
4.32166	0.97
4.36067	0.959
4.39968	0.949
4.43869	0.952
4.4777	0.952
4.51671	0.952
4.55572	0.952
4.59474	0.949
4.63375	0.946
4.67276	0.938
4.71177	0.936
4.75078	0.936
4.78979	0.936
4.8288	0.936
4.86781	0.936
4.90682	0.936
4.94584	0.936
4.98485	0.936
5.02386	0.938
5.06287	0.938
5.10188	0.938
5.14089	0.938
5.1799	0.935
5.21891	0.935
5.25793	0.928
5.29694	0.925
5.33595	0.92
5.37496	0.917
5.41397	0.917
5.45298	0.907
5.49199	0.891
5.531	0.863
5.57001	0.833
5.60903	0.776
5.64804	0.688
5.68705	0.431
5.72606	0.184
5.76507	0.147
5.80408	0.288
5.84309	0.513
5.8821	0.611
5.92111	0.683
5.96013	0.756
5.99914	0.802
6.03815	0.807
6.07716	0.815
6.11617	0.834
6.15518	0.854
6.19419	0.865
6.2332	0.876
6.27222	0.894
6.31123	0.897
6.35024	0.904
6.38925	0.902
6.42826	0.897
6.46727	0.896
6.50628	0.883
6.54529	0.883
6.5843	0.873
6.62332	0.867
6.66233	0.855
6.70134	0.821
6.74035	0.73
6.77936	0.638
6.81837	0.611
6.85738	0.609
6.89639	0.627
6.9354	0.62
6.97442	0.622
7.01343	0.675
7.05244	0.717
7.09145	0.726
7.13046	0.659
7.16947	0.513
7.20848	0.458
7.24749	0.479
7.2865	0.429
7.32552	0.316
7.36453	0.447
7.40354	0.67
7.44255	0.771
7.48156	0.805
7.52057	0.803
7.55958	0.792
7.59859	0.75
7.63761	0.708
7.67662	0.667
7.71563	0.633
7.75464	0.564
7.79365	0.465
7.83266	0.382
7.87167	0.311
7.91068	0.26
7.94969	0.225
7.98871	0.179
8.02772	0.15
8.06673	0.142
8.10574	0.142
8.14475	0.157
8.18376	0.239
8.22277	0.359
8.26178	0.473
8.30079	0.564
8.33981	0.636
8.37882	0.692
8.41783	0.74
8.45684	0.779
8.49585	0.803
8.53486	0.818
8.57387	0.824
8.61288	0.831
8.6519	0.834
8.69091	0.834
8.72992	0.834
8.76893	0.834
8.80794	0.834
8.84695	0.831
8.88596	0.826
8.92497	0.82
8.96398	0.816
9.003	0.81
9.04201	0.799
9.08102	0.781
9.12003	0.766
9.15904	0.737
9.19805	0.677
9.23706	0.611
9.27607	0.538
9.31508	0.5
9.3541	0.487
9.39311	0.476
9.43212	0.413
9.47113	0.359
9.51014	0.346
9.54915	0.348
9.58816	0.338
9.62717	0.319
9.66618	0.322
9.7052	0.376
9.74421	0.44
9.78322	0.499
9.82223	0.564
9.86124	0.623
9.90025	0.67
9.93926	0.713
9.97827	0.745
10.0173	0.769
10.0563	0.777
10.0953	0.781
10.1343	0.782
10.1733	0.774
10.2123	0.755
10.2514	0.745
10.2904	0.74
10.3294	0.739
10.3684	0.74
10.4074	0.74
10.4464	0.748
10.4854	0.76
10.5244	0.771
10.5634	0.776
10.6025	0.784
10.6415	0.8
10.6805	0.808
10.7195	0.813
10.7585	0.82
10.7975	0.824
10.8365	0.831
10.8755	0.834
10.9145	0.837
10.9536	0.837
10.9926	0.837
11.0316	0.836
11.0706	0.826
11.1096	0.82
11.1486	0.82
11.1876	0.82
11.2266	0.82
11.2656	0.821
11.3047	0.821
11.3437	0.821
11.3827	0.816
11.4217	0.81
11.4607	0.807
11.4997	0.802
11.5387	0.805
11.5777	0.813
11.6167	0.818
11.6558	0.823
11.6948	0.829
11.7338	0.841
11.7728	0.852
11.8118	0.86
11.8508	0.863
11.8898	0.867
11.9288	0.867
11.9678	0.867
12.0069	0.865
12.0459	0.865
12.0849	0.865
12.1239	0.865
12.1629	0.865
12.2019	0.867
12.2409	0.873
12.2799	0.883
12.3189	0.896
12.358	0.899
12.397	0.907
12.436	0.907
12.475	0.907
12.514	0.907
12.553	0.907
12.592	0.904
12.631	0.899
12.67	0.894
12.7091	0.884
12.7481	0.881
12.7871	0.878
12.8261	0.876
12.8651	0.876
12.9041	0.876
12.9431	0.876
12.9821	0.878
13.0211	0.881
13.0602	0.881
13.0992	0.883
13.1382	0.883
13.1772	0.883
13.2162	0.883
13.2552	0.883
13.2942	0.881
13.3332	0.875
13.3722	0.868
13.4113	0.86
13.4503	0.847
13.4893	0.833
13.5283	0.823
13.5673	0.82
13.6063	0.82
13.6453	0.82
13.6843	0.82
13.7233	0.823
13.7624	0.824
13.8014	0.828
13.8404	0.829
13.8794	0.831
13.9184	0.833
13.9574	0.831
13.9964	0.831
14.0354	0.833
14.0744	0.831
14.1135	0.831
14.1525	0.831
14.1915	0.831
14.2305	0.829
14.2695	0.828
14.3085	0.823
14.3475	0.821
14.3865	0.82
14.4255	0.82
14.4646	0.816
14.5036	0.815
14.5426	0.813
14.5816	0.811
14.6206	0.81
14.6596	0.807
14.6986	0.802
14.7376	0.8
14.7766	0.792
14.8157	0.782
14.8547	0.776
14.8937	0.771
14.9327	0.764
14.9717	0.761
15.0107	0.76
15.0497	0.758
15.0887	0.747
15.1277	0.734
15.1668	0.724
15.2058	0.716
15.2448	0.708
15.2838	0.703
15.3228	0.696
15.3618	0.692
15.4008	0.685
15.4398	0.68
15.4788	0.679
15.5179	0.67
15.5569	0.661
15.5959	0.654
15.6349	0.649
15.6739	0.646
15.7129	0.643
15.7519	0.641
15.7909	0.64
15.8299	0.64
15.869	0.641
15.908	0.64
15.947	0.64
15.986	0.64
