Infrared Spectrum: PHENYL-N,N-DIMETHYL CARBAMATE
Formula: C9 H11 N O2
CAS: 6969-90-0
State: SOLUTION (10% CCl4 FOR 5000-1330, 10% CS2 FOR 1330-625 CM^-^1)
Class: COBLENTZ
Instrument: Not specified, most likely a prism, grating, or hybrid spectrometer.
Sampling: TRANSMISSION
Path length: 0.0120 CM, 0.0119 CM
Resolution: 4
Origin: DOW CHEMICAL COMPANY
MICROMETERS	TRANSMITTANCE
2.062	0.899
2.10309	0.89
2.14419	0.889
2.18528	0.887
2.22638	0.875
2.26747	0.867
2.30856	0.879
2.34966	0.884
2.39075	0.884
2.43185	0.873
2.47294	0.897
2.51403	0.909
2.55513	0.904
2.59622	0.908
2.63732	0.902
2.67841	0.902
2.7195	0.899
2.7606	0.899
2.80169	0.897
2.84279	0.88
2.88388	0.872
2.92498	0.858
2.96607	0.875
3.00716	0.882
3.04826	0.884
3.08935	0.882
3.13045	0.879
3.17154	0.87
3.21263	0.788
3.25373	0.696
3.29482	0.65
3.33592	0.739
3.37701	0.502
3.4181	0.381
3.4592	0.606
3.50029	0.712
3.54139	0.79
3.58248	0.846
3.62357	0.88
3.66467	0.896
3.70576	0.901
3.74686	0.902
3.78795	0.902
3.82904	0.901
3.87014	0.892
3.91123	0.896
3.95233	0.904
3.99342	0.902
4.03451	0.899
4.07561	0.901
4.1167	0.885
4.1578	0.897
4.19889	0.899
4.23999	0.885
4.28108	0.877
4.32217	0.885
4.36327	0.892
4.40436	0.908
4.44546	0.901
4.48655	0.901
4.52764	0.904
4.56874	0.897
4.60983	0.896
4.65093	0.908
4.69202	0.901
4.73311	0.901
4.77421	0.909
4.8153	0.904
4.8564	0.897
4.89749	0.856
4.93858	0.848
4.97968	0.836
5.02077	0.88
5.06187	0.901
5.10296	0.88
5.14405	0.87
5.18515	0.855
5.22624	0.896
5.26734	0.899
5.30843	0.88
5.34952	0.851
5.39062	0.838
5.43171	0.863
5.47281	0.855
5.5139	0.827
5.555	0.792
5.59609	0.742
5.63718	0.681
5.67828	0.534
5.71937	0.301
5.76047	0.057
5.80156	0.034
5.84265	0.132
5.88375	0.354
5.92484	0.555
5.96594	0.649
6.00703	0.713
6.04812	0.722
6.08922	0.759
6.13031	0.763
6.17141	0.729
6.2125	0.616
6.25359	0.364
6.29469	0.471
6.33578	0.507
6.37688	0.49
6.41797	0.431
6.45906	0.383
6.50016	0.385
6.54125	0.391
6.58235	0.39
6.62344	0.374
6.66453	0.275
6.70563	0.08
6.74672	0.102
6.78782	0.148
6.82891	0.177
6.87	0.172
6.9111	0.195
6.95219	0.393
6.99329	0.565
7.03438	0.482
7.07548	0.281
7.11657	0.233
7.15766	0.102
7.19876	0.022
7.23985	0.054
7.28095	0.258
7.32204	0.451
7.36313	0.606
7.40423	0.674
7.44532	0.703
7.48642	0.729
7.52751	0.749
7.5686	0.751
7.6097	0.741
7.65079	0.706
7.69189	0.667
7.73298	0.63
7.77407	0.579
7.81517	0.497
7.85626	0.521
7.89736	0.614
7.93845	0.638
7.97954	0.606
8.02064	0.533
8.06173	0.385
8.10283	0.269
8.14392	0.197
8.18501	0.073
8.22611	0.022
8.2672	0.017
8.3083	0.02
8.34939	0.054
8.39049	0.086
8.43158	0.081
8.47267	0.042
8.51377	0.018
8.55486	0.013
8.59596	0.015
8.63705	0.018
8.67814	0.042
8.71924	0.139
8.76033	0.248
8.80143	0.357
8.84252	0.458
8.88361	0.522
8.92471	0.58
8.9658	0.621
9.0069	0.655
9.04799	0.671
9.08908	0.691
9.13018	0.717
9.17127	0.734
9.21237	0.739
9.25346	0.722
9.29455	0.654
9.33565	0.497
9.37674	0.42
9.41784	0.478
9.45893	0.584
9.50002	0.666
9.54112	0.725
9.58221	0.759
9.62331	0.771
9.6644	0.747
9.7055	0.589
9.74659	0.422
9.78768	0.495
9.82878	0.543
9.86987	0.485
9.91097	0.505
9.95206	0.528
9.99315	0.637
10.0342	0.712
10.0753	0.742
10.1164	0.802
10.1575	0.834
10.1986	0.851
10.2397	0.862
10.2808	0.872
10.3219	0.877
10.363	0.88
10.4041	0.877
10.4452	0.875
10.4863	0.879
10.5274	0.887
10.5685	0.894
10.6096	0.896
10.6507	0.892
10.6918	0.882
10.7328	0.88
10.7739	0.884
10.815	0.887
10.8561	0.879
10.8972	0.855
10.9383	0.822
10.9794	0.744
11.0205	0.608
11.0616	0.558
11.1027	0.688
11.1438	0.781
11.1849	0.816
11.226	0.827
11.2671	0.827
11.3082	0.817
11.3493	0.797
11.3904	0.788
11.4314	0.781
11.4725	0.77
11.5136	0.759
11.5547	0.742
11.5958	0.727
11.6369	0.705
11.678	0.678
11.7191	0.637
11.7602	0.529
11.8013	0.31
11.8424	0.168
11.8835	0.277
11.9246	0.461
11.9657	0.575
12.0068	0.657
12.0479	0.713
12.089	0.724
12.13	0.724
12.1711	0.72
12.2122	0.735
12.2533	0.764
12.2944	0.788
12.3355	0.804
12.3766	0.81
12.4177	0.817
12.4588	0.819
12.4999	0.816
12.541	0.816
12.5821	0.809
12.6232	0.805
12.6643	0.8
12.7054	0.795
12.7465	0.79
12.7875	0.78
12.8286	0.763
12.8697	0.749
12.9108	0.729
12.9519	0.698
12.993	0.664
13.0341	0.603
13.0752	0.534
13.1163	0.446
13.1574	0.325
13.1985	0.194
13.2396	0.097
13.2807	0.052
13.3218	0.042
13.3629	0.03
13.404	0.018
13.4451	0.049
13.4861	0.206
13.5272	0.379
13.5683	0.522
13.6094	0.594
13.6505	0.643
13.6916	0.674
13.7327	0.7
13.7738	0.708
13.8149	0.72
13.856	0.724
13.8971	0.725
13.9382	0.725
13.9793	0.722
14.0204	0.715
14.0615	0.708
14.1026	0.701
14.1437	0.691
14.1847	0.679
14.2258	0.66
14.2669	0.633
14.308	0.597
14.3491	0.519
14.3902	0.437
14.4313	0.296
14.4724	0.173
14.5135	0.112
14.5546	0.137
14.5957	0.243
14.6368	0.373
14.6779	0.466
14.719	0.522
14.7601	0.55
14.8012	0.563
14.8423	0.568
14.8833	0.57
14.9244	0.568
14.9655	0.565
15.0066	0.56
15.0477	0.548
15.0888	0.533
15.1299	0.516
15.171	0.5
15.2121	0.488
15.2532	0.477
15.2943	0.468
15.3354	0.463
15.3765	0.461
15.4176	0.459
15.4587	0.458
15.4998	0.453
15.5409	0.448
15.5819	0.441
15.623	0.429
15.6641	0.419
15.7052	0.412
15.7463	0.408
15.7874	0.403
15.8285	0.403
15.8696	0.403
