Infrared Spectrum: Purine, 6-Octylthio-
Formula: C13 H20 N4 S
CAS: 6974-89-6
State: SOLID (0.8 mg / 650 mg KBr DISC)
Class: COBLENTZ III
Instrument: PERKIN-ELMER 21 (GRATING)
Instrument parameters: FILTER CHANGE ABOUT 1025 CM^-^1
Sampling: TRANSMISSION
Resolution: 2
Origin: SOUTHERN RESEARCH INSTITUTE
1/CM	TRANSMITTANCE
602	0.4598
611.032	0.5758
620.064	0.5597
629.095	0.5053
638.127	0.4426
647.159	0.6103
656.191	0.762
665.222	0.7572
674.254	0.7527
683.286	0.7605
692.318	0.757
701.35	0.7417
710.381	0.6703
719.413	0.657
728.445	0.752
737.477	0.7446
746.509	0.7389
755.54	0.746
764.572	0.7434
773.604	0.7125
782.636	0.6406
791.667	0.6783
800.699	0.7505
809.731	0.7195
818.763	0.7465
827.795	0.7459
836.826	0.7023
845.858	0.6567
854.89	0.6147
863.922	0.3751
872.954	0.5377
881.985	0.7656
891.017	0.7676
900.049	0.7523
909.081	0.6888
918.112	0.4958
927.144	0.7473
936.176	0.7952
945.208	0.7997
954.24	0.8412
963.271	0.8555
972.303	0.8378
981.335	0.7983
990.367	0.7877
999.398	0.6373
1008.43	0.7536
1017.46	0.868
1026.49	0.8783
1035.53	0.8528
1044.56	0.8529
1053.59	0.8534
1062.62	0.853
1071.65	0.8513
1080.68	0.8472
1089.72	0.8345
1098.75	0.8111
1107.78	0.7317
1116.81	0.6972
1125.84	0.8295
1134.88	0.8348
1143.91	0.809
1152.94	0.761
1161.97	0.8331
1171	0.8247
1180.03	0.8111
1189.07	0.7954
1198.1	0.7332
1207.13	0.7639
1216.16	0.7638
1225.19	0.5768
1234.22	0.6375
1243.26	0.6416
1252.29	0.6544
1261.32	0.5048
1270.35	0.4793
1279.38	0.6365
1288.42	0.5543
1297.45	0.7411
1306.48	0.7103
1315.51	0.4083
1324.54	0.0927
1333.57	0.3931
1342.61	0.7636
1351.64	0.7806
1360.67	0.7812
1369.7	0.7544
1378.73	0.5691
1387.77	0.3361
1396.8	0.5993
1405.83	0.6698
1414.86	0.4867
1423.89	0.4984
1432.92	0.6028
1441.96	0.488
1450.99	0.5843
1460.02	0.6299
1469.05	0.5207
1478.08	0.4757
1487.11	0.7887
1496.15	0.7944
1505.18	0.7867
1514.21	0.7726
1523.24	0.7399
1532.27	0.6968
1541.31	0.6309
1550.34	0.5553
1559.37	0.2692
1568.4	0.0697
1577.43	0.2428
1586.46	0.2798
1595.5	0.2481
1604.53	0.5595
1613.56	0.7604
1622.59	0.7876
1631.62	0.8004
1640.66	0.8276
1649.69	0.8448
1658.72	0.8536
1667.75	0.8662
1676.78	0.8757
1685.81	0.8789
1694.85	0.8812
1703.88	0.8821
1712.91	0.8815
1721.94	0.8831
1730.97	0.8835
1740	0.8826
1749.04	0.8785
1758.07	0.8726
1767.1	0.8649
1776.13	0.8496
1785.16	0.8165
1794.2	0.7872
1803.23	0.8267
1812.26	0.8628
1821.29	0.8757
1830.32	0.8858
1839.35	0.8871
1848.39	0.8872
1857.42	0.8856
1866.45	0.8813
1875.48	0.8737
1884.51	0.8533
1893.55	0.8543
1902.58	0.8941
1911.61	0.8951
1920.64	0.8953
1929.67	0.8954
1938.7	0.896
1947.74	0.8968
1956.77	0.8974
1965.8	0.8974
1974.83	0.897
1983.86	0.8961
1992.89	0.8953
2001.93	0.8949
2010.96	0.8948
2019.99	0.8939
2029.02	0.8931
2038.05	0.8916
2047.09	0.8899
2056.12	0.8882
2065.15	0.8867
2074.18	0.8854
2083.21	0.8841
2092.24	0.8829
2101.28	0.882
2110.31	0.8812
2119.34	0.8801
2128.37	0.8789
2137.4	0.8776
2146.43	0.8762
2155.47	0.8753
2164.5	0.8748
2173.53	0.874
2182.56	0.8727
2191.59	0.8713
2200.63	0.8689
2209.66	0.8656
2218.69	0.8623
2227.72	0.8599
2236.75	0.8594
2245.78	0.8594
2254.82	0.8594
2263.85	0.8592
2272.88	0.8576
2281.91	0.8543
2290.94	0.8489
2299.98	0.8414
2309.01	0.8354
2318.04	0.832
2327.07	0.831
2336.1	0.8276
2345.13	0.819
2354.17	0.8189
2363.2	0.8203
2372.23	0.8141
2381.26	0.8041
2390.29	0.7991
2399.32	0.7991
2408.36	0.8014
2417.39	0.8001
2426.42	0.7976
2435.45	0.7956
2444.48	0.7913
2453.52	0.7854
2462.55	0.7789
2471.58	0.7719
2480.61	0.7638
2489.64	0.7546
2498.67	0.7456
2507.71	0.7467
2516.74	0.7506
2525.77	0.7554
2534.8	0.7535
2543.83	0.7515
2552.87	0.7501
2561.9	0.7453
2570.93	0.7401
2579.96	0.7402
2588.99	0.7391
2598.02	0.7317
2607.06	0.7198
2616.09	0.7057
2625.12	0.6884
2634.15	0.6743
2643.18	0.6613
2652.21	0.6491
2661.25	0.6447
2670.28	0.6439
2679.31	0.6439
2688.34	0.6442
2697.37	0.6445
2706.41	0.6416
2715.44	0.6308
2724.47	0.6195
2733.5	0.6062
2742.53	0.5869
2751.56	0.562
2760.6	0.54
2769.63	0.5069
2778.66	0.4705
2787.69	0.4347
2796.72	0.424
2805.76	0.4264
2814.79	0.4228
2823.82	0.3967
2832.85	0.3331
2841.88	0.2804
2850.91	0.2857
2859.95	0.3204
2868.98	0.33
2878.01	0.3225
2887.04	0.2816
2896.07	0.211
2905.1	0.1669
2914.14	0.146
2923.17	0.1633
2932.2	0.217
2941.23	0.2598
2950.26	0.2657
2959.3	0.2998
2968.33	0.3765
2977.36	0.4218
2986.39	0.4483
2995.42	0.449
3004.45	0.4299
3013.49	0.3917
3022.52	0.3609
3031.55	0.345
3040.58	0.3384
3049.61	0.332
3058.65	0.3197
3067.68	0.2972
3076.71	0.2722
3085.74	0.264
3094.77	0.2904
3103.8	0.3051
3112.84	0.3197
3121.87	0.3372
3130.9	0.3543
3139.93	0.3706
3148.96	0.3814
3157.99	0.3861
3167.03	0.3905
3176.06	0.4035
3185.09	0.4229
3194.12	0.4498
3203.15	0.4885
3212.19	0.5098
3221.22	0.5458
3230.25	0.5945
3239.28	0.6227
3248.31	0.6446
3257.34	0.665
3266.38	0.6953
3275.41	0.7185
3284.44	0.7333
3293.47	0.7427
3302.5	0.7489
3311.54	0.7512
3320.57	0.7514
3329.6	0.75
3338.63	0.7475
3347.66	0.7443
3356.69	0.7406
3365.73	0.7348
3374.76	0.7288
3383.79	0.7198
3392.82	0.7123
3401.85	0.7058
3410.88	0.7026
3419.92	0.702
3428.95	0.7017
3437.98	0.7019
3447.01	0.7034
3456.04	0.7054
3465.08	0.7085
3474.11	0.7118
3483.14	0.7156
3492.17	0.7208
3501.2	0.7264
3510.23	0.7328
3519.27	0.7401
3528.3	0.7476
3537.33	0.7548
3546.36	0.7595
3555.39	0.7628
3564.42	0.7657
3573.46	0.7687
3582.49	0.773
3591.52	0.7775
3600.55	0.7825
3609.58	0.7873
3618.62	0.7922
3627.65	0.7954
3636.68	0.7965
3645.71	0.7971
3654.74	0.7971
3663.77	0.7971
3672.81	0.7973
3681.84	0.7978
3690.87	0.7983
3699.9	0.7988
3708.93	0.7991
3717.97	0.7994
3727	0.7997
3736.03	0.8001
3745.06	0.8005
3754.09	0.8008
3763.12	0.8002
3772.16	0.7995
3781.19	0.7988
3790.22	0.7973
3799.25	0.7957
3808.28	0.7941
3817.31	0.7922
3826.35	0.7903
3835.38	0.7888
3844.41	0.7882
3853.44	0.7875
3862.47	0.7868
3871.51	0.7861
3880.54	0.7852
3889.57	0.7846
3898.6	0.784
3907.63	0.7834
3916.66	0.7834
3925.7	0.7837
3934.73	0.784
3943.76	0.784
3952.79	0.784
3961.82	0.7841
3970.86	0.7842
3979.89	0.7842
3988.92	0.7841
3997.95	0.7836
4006.98	0.7824
