Infrared Spectrum: 1-PROPANONE, 1-(4-HYDROXYPHENYL)-
Formula: C9 H10 O2
CAS: 70-70-2
State: SOLID (KBr DISC) VS KBr
Class: COBLENTZ III
Instrument: PERKIN-ELMER 21 (GRATING)
Instrument parameters: FILTER AT ABOUT 10 MICRONS
Sampling: TRANSMISSION
Resolution: 2
1/CM	TRANSMITTANCE
4000	0.5415
3991	0.5431
3982	0.5448
3973	0.5464
3964	0.5482
3955	0.5499
3946	0.5516
3937	0.5534
3928	0.5552
3919	0.5574
3910	0.5596
3901	0.5618
3892	0.5641
3883	0.5662
3874	0.5685
3865	0.5708
3856	0.5731
3847	0.5753
3838	0.5776
3829	0.5799
3820	0.5823
3811	0.5846
3802	0.587
3793	0.5894
3784	0.592
3775	0.5947
3766	0.5974
3757	0.6
3748	0.6027
3739	0.6054
3730	0.6078
3721	0.6102
3712	0.6125
3703	0.6149
3694	0.6173
3685	0.6198
3676	0.6226
3667	0.6254
3658	0.6284
3649	0.6312
3640	0.6341
3631	0.6375
3622	0.641
3613	0.6446
3604	0.6483
3595	0.6521
3586	0.6562
3577	0.6606
3568	0.665
3559	0.6695
3550	0.674
3541	0.6789
3532	0.6842
3523	0.6899
3514	0.6982
3505	0.7096
3496	0.7178
3487	0.7226
3478	0.7261
3469	0.7286
3460	0.7304
3451	0.7314
3442	0.7317
3433	0.7308
3424	0.7281
3415	0.7208
3406	0.6871
3397	0.6041
3388	0.591
3379	0.5733
3370	0.5546
3361	0.5334
3352	0.5075
3343	0.4834
3334	0.4655
3325	0.4421
3316	0.4235
3307	0.4073
3298	0.3875
3289	0.3706
3280	0.3442
3271	0.3177
3262	0.2911
3253	0.2195
3244	0.2026
3235	0.1899
3226	0.18
3217	0.1716
3208	0.1645
3199	0.1584
3190	0.153
3181	0.1491
3172	0.1476
3163	0.1482
3154	0.1537
3145	0.1632
3136	0.1846
3127	0.1985
3118	0.2108
3109	0.223
3100	0.2352
3091	0.2475
3082	0.2599
3073	0.2724
3064	0.2849
3055	0.2975
3046	0.3102
3037	0.3229
3028	0.3358
3019	0.3487
3010	0.3616
3001	0.3747
2992	0.3809
2983	0.3784
2974	0.3708
2965	0.3728
2956	0.382
2947	0.3857
2938	0.3836
2929	0.3796
2920	0.3784
2911	0.3789
2902	0.3823
2893	0.3922
2884	0.4073
2875	0.4239
2866	0.439
2857	0.4547
2848	0.4686
2839	0.4784
2830	0.4826
2821	0.4845
2812	0.4828
2803	0.4803
2794	0.4816
2785	0.4898
2776	0.5016
2767	0.516
2758	0.5269
2749	0.5343
2740	0.5348
2731	0.5344
2722	0.5341
2713	0.5342
2704	0.5347
2695	0.5351
2686	0.5355
2677	0.536
2668	0.5453
2659	0.5567
2650	0.5675
2641	0.577
2632	0.5854
2623	0.591
2614	0.5935
2605	0.5942
2596	0.586
2587	0.5841
2578	0.5846
2569	0.5893
2560	0.5972
2551	0.6083
2542	0.6174
2533	0.6208
2524	0.621
2515	0.6221
2506	0.6246
2497	0.6324
2488	0.637
2479	0.6371
2470	0.6262
2461	0.6174
2452	0.6167
2443	0.6181
2434	0.6302
2425	0.6411
2416	0.6544
2407	0.6654
2398	0.6732
2389	0.6798
2380	0.6854
2371	0.6871
2362	0.6875
2353	0.6878
2344	0.6885
2335	0.6893
2326	0.691
2317	0.6975
2308	0.7062
2299	0.7168
2290	0.7293
2281	0.736
2272	0.7406
2263	0.7442
2254	0.7481
2245	0.7521
2236	0.7568
2227	0.7612
2218	0.7653
2209	0.7694
2200	0.7731
2191	0.7758
2182	0.7792
2173	0.7826
2164	0.7864
2155	0.7907
2146	0.7946
2137	0.7972
2128	0.7965
2119	0.7955
2110	0.7972
2101	0.7996
2092	0.803
2083	0.8096
2074	0.8156
2065	0.8175
2056	0.8218
2047	0.8255
2038	0.8278
2029	0.8266
2020	0.8259
2011	0.8275
2002	0.8317
1993	0.8371
1984	0.8415
1975	0.846
1966	0.8501
1957	0.8512
1948	0.8425
1939	0.8489
1930	0.8632
1921	0.8662
1912	0.8637
1903	0.8687
1894	0.8715
1885	0.8585
1876	0.8662
1867	0.8801
1858	0.8904
1849	0.895
1840	0.8954
1831	0.8941
1822	0.8944
1813	0.9017
1804	0.9038
1795	0.8986
1786	0.9012
1777	0.9089
1768	0.9109
1759	0.9125
1750	0.9118
1741	0.9088
1732	0.9133
1723	0.9193
1714	0.9064
1705	0.8886
1696	0.8485
1687	0.7462
1678	0.5249
1669	0.2655
1660	0.1775
1651	0.2973
1642	0.5915
1633	0.6776
1624	0.5079
1615	0.2811
1606	0.1562
1597	0.2342
1588	0.1759
1579	0.1171
1570	0.0997
1561	0.1694
1552	0.3527
1543	0.4097
1534	0.5495
1525	0.514
1516	0.3259
1507	0.4725
1498	0.5645
1489	0.6002
1480	0.605
1471	0.5698
1462	0.5397
1453	0.5354
1444	0.6112
1435	0.6281
1426	0.6379
1417	0.6126
1408	0.4358
1399	0.5242
1390	0.4
1381	0.3908
1372	0.3334
1363	0.2203
1354	0.2439
1345	0.4907
1336	0.5809
1327	0.6662
1318	0.7305
1309	0.7818
1300	0.6715
1291	0.327
1282	0.341
1273	0.5925
1264	0.654
1255	0.5909
1246	0.3145
1237	0.0933
1228	0.0813
1219	0.0926
1210	0.1712
1201	0.2958
1192	0.4866
1183	0.6531
1174	0.1058
1165	0.1602
1156	0.335
1147	0.4422
1138	0.5057
1129	0.5436
1120	0.595
1111	0.5189
1102	0.6185
1093	0.6661
1084	0.5553
1075	0.6134
1066	0.6708
1057	0.6974
1048	0.7271
1039	0.7494
1030	0.7575
1021	0.5505
1012	0.5437
1003	0.7086
994	0.7545
985	0.7704
976	0.7553
967	0.8112
958	0.5955
949	0.571
940	0.6638
931	0.7691
922	0.7895
913	0.8068
904	0.8136
895	0.8207
886	0.8323
877	0.83
868	0.8028
859	0.3998
850	0.7522
841	0.7831
832	0.7774
823	0.6734
814	0.6834
805	0.35
796	0.4822
787	0.7558
778	0.7911
769	0.7621
760	0.6344
751	0.5133
742	0.541
733	0.5095
724	0.6508
715	0.6126
706	0.6542
697	0.7268
688	0.7803
679	0.8045
670	0.8151
