Infrared Spectrum: ANILINE, 2,3,5,6-TETRAFLUORO-
Formula: C6 H3 F4 N
CAS: 700-17-4
State: SOLUTION (10% CCl4 FOR 3800-1330, 10% CS2 FOR 1330-400)
Boiling point: 158 C
Class: COBLENTZ III
Instrument: BECKMAN IR-9 (GRATING)
Instrument parameters: ORDER CHANGES: 670, 1200, 2000 CM^-^1
Sampling: TRANSMISSION
Path length: 0.010 CM, 0.011 CM
Resolution: 2
Origin: DOW CHEMICAL COMPANY
1/CM	TRANSMITTANCE
398	0.1979
407	0.1124
416	0.2494
425	0.3718
434	0.4157
443	0.4434
452	0.4573
461	0.4666
470	0.5175
479	0.5257
488	0.5367
497	0.5535
506	0.5683
515	0.5849
524	0.6062
533	0.623
542	0.6418
551	0.6598
560	0.5112
569	0.6441
578	0.6912
587	0.6601
596	0.5921
605	0.6141
614	0.6252
623	0.624
632	0.6147
641	0.5997
650	0.5844
659	0.5878
668	0.4807
677	0.6377
686	0.6604
695	0.6754
704	0.6628
713	0.1242
722	0.5503
731	0.6328
740	0.6637
749	0.6821
758	0.6918
767	0.6948
776	0.6865
785	0.6347
794	0.2168
803	0.1796
812	0.5939
821	0.6481
830	0.6765
839	0.7031
848	0.6569
857	0.6187
866	0.6015
875	0.1945
884	0.0096
893	0.1928
902	0.4445
911	0.6439
920	0.7081
929	0.7562
938	0.7445
947	0.6128
956	0.7194
965	0.7403
974	0.7261
983	0.7947
992	0.811
1001	0.815
1010	0.7869
1019	0.7328
1028	0.7732
1037	0.7578
1046	0.6622
1055	0.7143
1064	0.7098
1073	0.5435
1082	0.0477
1091	0.095
1100	0.1725
1109	0.3927
1118	0.5518
1127	0.6912
1136	0.7588
1145	0.6337
1154	0.4028
1163	0.169
1172	0.0082
1181	0.3225
1190	0.6129
1199	0.6935
1208	0.6539
1217	0.6375
1226	0.7768
1235	0.7996
1244	0.8125
1253	0.7681
1262	0.432
1271	0.2887
1280	0.7271
1289	0.8045
1298	0.8267
1307	0.8296
1316	0.8187
1325	0.8396
1334	0.8474
1343	0.8389
1352	0.731
1361	0.8075
1370	0.8371
1379	0.8421
1388	0.8259
1397	0.5269
1406	0.7695
1415	0.833
1424	0.8335
1433	0.8167
1442	0.7645
1451	0.6876
1460	0.756
1469	0.7482
1478	0.6537
1487	0.5506
1496	0.1712
1505	0.0007
1514	0.0289
1523	0.0022
1532	0.0012
1541	0.1993
1550	0.2634
1559	0.375
1568	0.4596
1577	0.512
1586	0.4902
1595	0.3572
1604	0.2705
1613	0.2703
1622	0.5422
1631	0.6437
1640	0.6468
1649	0.2596
1658	0.002
1667	0.275
1676	0.5715
1685	0.7308
1694	0.7589
1703	0.7841
1712	0.8218
1721	0.8408
1730	0.8481
1739	0.843
1748	0.846
1757	0.8421
1766	0.856
1775	0.8546
1784	0.8601
1793	0.872
1802	0.8654
1811	0.8575
1820	0.8468
1829	0.8523
1838	0.8388
1847	0.8596
1856	0.8721
1865	0.8725
1874	0.8712
1883	0.8675
1892	0.8587
1901	0.8748
1910	0.8787
1919	0.8816
1928	0.8794
1937	0.8744
1946	0.8759
1955	0.882
1964	0.8816
1973	0.8727
1982	0.8656
1991	0.8648
2000	0.8654
2009	0.8671
2018	0.8691
2027	0.8681
2036	0.8651
2045	0.8609
2054	0.862
2063	0.8649
2072	0.8677
2081	0.8728
2090	0.8758
2099	0.8768
2108	0.8712
2117	0.8731
2126	0.8787
2135	0.8798
2144	0.8789
2153	0.8752
2162	0.8805
2171	0.8814
2180	0.8738
2189	0.8628
2198	0.8633
2207	0.8652
2216	0.8671
2225	0.8645
2234	0.8559
2243	0.8531
2252	0.8604
2261	0.8686
2270	0.8654
2279	0.85
2288	0.8536
2297	0.8632
2306	0.8681
2315	0.87
2324	0.8716
2333	0.8727
2342	0.8741
2351	0.8818
2360	0.8854
2369	0.8868
2378	0.8836
2387	0.8799
2396	0.8801
2405	0.8861
2414	0.886
2423	0.886
2432	0.8847
2441	0.8813
2450	0.8856
2459	0.889
2468	0.8891
2477	0.8824
2486	0.868
2495	0.8527
2504	0.8444
2513	0.8796
2522	0.8842
2531	0.8842
2540	0.8843
2549	0.883
2558	0.8818
2567	0.8832
2576	0.8634
2585	0.8495
2594	0.8605
2603	0.8768
2612	0.8757
2621	0.8671
2630	0.8567
2639	0.8521
2648	0.872
2657	0.881
2666	0.884
2675	0.8795
2684	0.8753
2693	0.8798
2702	0.8811
2711	0.8803
2720	0.8834
2729	0.8918
2738	0.8905
2747	0.8883
2756	0.8844
2765	0.8773
2774	0.8699
2783	0.8786
2792	0.8818
2801	0.8878
2810	0.8901
2819	0.8918
2828	0.8928
2837	0.8928
2846	0.8928
2855	0.8921
2864	0.8912
2873	0.8905
2882	0.8898
2891	0.8884
2900	0.8852
2909	0.8767
2918	0.8647
2927	0.8589
2936	0.8781
2945	0.8836
2954	0.8842
2963	0.8834
2972	0.881
2981	0.8815
2990	0.8857
2999	0.8871
3008	0.8883
3017	0.8891
3026	0.8906
3035	0.8848
3044	0.8823
3053	0.8805
3062	0.8815
3071	0.8753
3080	0.8355
3089	0.6318
3098	0.7344
3107	0.8447
3116	0.8533
3125	0.852
3134	0.8502
3143	0.8501
3152	0.853
3161	0.853
3170	0.8475
3179	0.8302
3188	0.8264
3197	0.8437
3206	0.8517
3215	0.8578
3224	0.8632
3233	0.8714
3242	0.8757
3251	0.8599
3260	0.8554
3269	0.8662
3278	0.8778
3287	0.8824
3296	0.8825
3305	0.8797
3314	0.8764
3323	0.8724
3332	0.8667
3341	0.8589
3350	0.8475
3359	0.8303
3368	0.7936
3377	0.7248
3386	0.5989
3395	0.3906
3404	0.1058
3413	0.2192
3422	0.4944
3431	0.7208
3440	0.7789
3449	0.7892
3458	0.7867
3467	0.7403
3476	0.6482
3485	0.4912
3494	0.3237
3503	0.2717
3512	0.4587
3521	0.6731
3530	0.7851
3539	0.8367
3548	0.8511
3557	0.8573
3566	0.862
3575	0.8624
3584	0.8674
3593	0.8809
3602	0.8812
3611	0.8867
3620	0.8937
3629	0.894
3638	0.8942
3647	0.8939
3656	0.8937
3665	0.8933
3674	0.893
3683	0.8927
3692	0.8925
3701	0.8925
3710	0.8924
3719	0.8928
3728	0.8933
3737	0.8938
3746	0.8937
3755	0.8934
3764	0.8932
3773	0.8928
3782	0.8927
3791	0.8924
3800	0.8923
