Infrared Spectrum: BENZENE, 1-CHLORO-4-PHENOXY-
Formula: C12 H9 Cl O
CAS: 7005-72-3
State: SOLUTION (10% IN CCl4 FOR 3800-1340, 10% IN CS2 FOR 1340-300 CM^-^1)
Class: COBLENTZ III
Instrument: PERKIN-ELMER 180
Sampling: TRANSMISSION
Path length: 0.009, 0.011 CM
Resolution: 4
Origin: DOW CHEMICAL COMPANY
1/CM	TRANSMITTANCE
300	0.002
310.132	0.011
320.265	0.022
330.397	0.049
340.53	0.089
350.662	0.14
360.795	0.192
370.927	0.202
381.06	0.044
391.192	0.011
401.325	0.128
411.457	0.4498
421.59	0.6269
431.722	0.705
441.854	0.76
451.987	0.831
462.119	0.862
472.252	0.86
482.384	0.767
492.517	0.2691
502.649	0.693
512.782	0.9169
522.914	0.967
533.047	0.984
543.179	0.989
553.312	0.992
563.444	0.992
573.576	0.987
583.709	0.949
593.841	0.875
603.974	0.95
614.106	0.9489
624.239	0.964
634.371	0.925
644.504	0.884
654.636	0.6971
664.769	0.8058
674.901	0.902
685.034	0.5841
695.166	0.4899
705.298	0.808
715.431	0.8679
725.563	0.905
735.696	0.845
745.828	0.5183
755.961	0.101
766.093	0.7639
776.226	0.785
786.358	0.67
796.491	0.67
806.623	0.737
816.756	0.6031
826.888	0.2672
837.02	0.306
847.153	0.4509
857.285	0.66
867.418	0.3563
877.55	0.7399
887.683	0.829
897.815	0.823
907.948	0.849
918.08	0.947
928.213	0.96
938.345	0.956
948.478	0.95
958.61	0.957
968.742	0.957
978.875	0.951
989.007	0.949
999.14	0.939
1009.27	0.4329
1019.4	0.8031
1029.54	0.9369
1039.67	0.967
1049.8	0.954
1059.93	0.8721
1070.07	0.636
1080.2	0.56
1090.33	0.246
1100.46	0.5399
1110.6	0.804
1120.73	0.91
1130.86	0.92
1140.99	0.8871
1151.13	0.7601
1161.26	0.232
1171.39	0.824
1181.52	0.778
1191.66	0.601
1201.79	0.694
1211.92	0.581
1222.05	0.1873
1232.19	0.004
1242.32	0.02
1252.45	0.4027
1262.58	0.577
1272.72	0.4401
1282.85	0.616
1292.98	0.724
1303.11	0.827
1313.25	0.884
1323.38	0.869
1333.51	0.85
1343.64	0.929
1353.78	0.917
1363.91	0.92
1374.04	0.934
1384.17	0.919
1394.31	0.894
1404.44	0.862
1414.57	0.898
1424.7	0.7701
1434.84	0.874
1444.97	0.86
1455.1	0.728
1465.23	0.5302
1475.37	0.0511
1485.5	0.026
1495.63	0.264
1505.76	0.54
1515.9	0.581
1526.03	0.558
1536.16	0.519
1546.29	0.464
1556.43	0.498
1566.56	0.528
1576.69	0.2682
1586.82	0.126
1596.96	0.547
1607.09	0.694
1617.22	0.845
1627.35	0.891
1637.48	0.901
1647.62	0.905
1657.75	0.919
1667.88	0.941
1678.01	0.953
1688.15	0.953
1698.28	0.95
1708.41	0.94
1718.54	0.932
1728.68	0.924
1738.81	0.935
1748.94	0.935
1759.07	0.936
1769.21	0.941
1779.34	0.932
1789.47	0.948
1799.6	0.965
1809.74	0.968
1819.87	0.966
1830	0.965
1840.13	0.951
1850.27	0.939
1860.4	0.925
1870.53	0.889
1880.66	0.862
1890.8	0.92
1900.93	0.94
1911.06	0.953
1921.19	0.949
1931.33	0.918
1941.46	0.925
1951.59	0.935
1961.72	0.953
1971.86	0.956
1981.99	0.957
1992.12	0.949
2002.25	0.941
2012.39	0.9329
2022.52	0.9208
2032.65	0.9033
2042.78	0.9278
2052.92	0.9456
2063.05	0.9388
2073.18	0.9284
2083.31	0.9534
2093.45	0.9587
2103.58	0.9643
2113.71	0.9688
2123.84	0.972
2133.98	0.973
2144.11	0.973
2154.24	0.973
2164.37	0.972
2174.51	0.9691
2184.64	0.972
2194.77	0.973
2204.9	0.9745
2215.04	0.973
2225.17	0.9654
2235.3	0.9618
2245.43	0.9574
2255.57	0.9507
2265.7	0.9433
2275.83	0.94
2285.96	0.94
2296.09	0.94
2306.23	0.94
2316.36	0.94
2326.49	0.9427
2336.62	0.949
2346.76	0.9501
2356.89	0.9406
2367.02	0.9507
2377.15	0.953
2387.29	0.944
2397.42	0.9255
2407.55	0.9391
2417.68	0.9393
2427.82	0.9056
2437.95	0.9049
2448.08	0.9379
2458.21	0.9473
2468.35	0.9417
2478.48	0.9521
2488.61	0.959
2498.74	0.96
2508.88	0.964
2519.01	0.9622
2529.14	0.963
2539.27	0.962
2549.41	0.9586
2559.54	0.9551
2569.67	0.954
2579.8	0.959
2589.94	0.9635
2600.07	0.966
2610.2	0.9634
2620.33	0.9631
2630.47	0.966
2640.6	0.9661
2650.73	0.968
2660.86	0.967
2671	0.966
2681.13	0.962
2691.26	0.964
2701.39	0.966
2711.53	0.967
2721.66	0.9647
2731.79	0.963
2741.92	0.9634
2752.06	0.966
2762.19	0.9636
2772.32	0.9601
2782.45	0.962
2792.59	0.966
2802.72	0.964
2812.85	0.9589
2822.98	0.9554
2833.12	0.95
2843.25	0.9464
2853.38	0.9462
2863.51	0.9487
2873.65	0.9515
2883.78	0.9557
2893.91	0.955
2904.04	0.9558
2914.17	0.9557
2924.31	0.9513
2934.44	0.954
2944.57	0.9579
2954.7	0.958
2964.84	0.956
2974.97	0.952
2985.1	0.95
2995.23	0.9485
3005.37	0.9318
3015.5	0.9083
3025.63	0.8575
3035.76	0.8218
3045.9	0.7424
3056.03	0.8317
3066.16	0.7967
3076.29	0.7825
3086.43	0.8343
3096.56	0.8468
3106.69	0.9008
3116.82	0.9373
3126.96	0.9454
3137.09	0.9489
3147.22	0.9494
3157.35	0.95
3167.49	0.951
3177.62	0.95
3187.75	0.95
3197.88	0.951
3208.02	0.953
3218.15	0.953
3228.28	0.953
3238.41	0.953
3248.55	0.953
3258.68	0.953
3268.81	0.953
3278.94	0.9525
3289.08	0.951
3299.21	0.9507
3309.34	0.9492
3319.47	0.9484
3329.61	0.949
3339.74	0.9466
3349.87	0.9479
3360	0.9485
3370.14	0.947
3380.27	0.947
3390.4	0.947
3400.53	0.9486
3410.67	0.948
3420.8	0.948
3430.93	0.948
3441.06	0.948
3451.2	0.947
3461.33	0.947
3471.46	0.946
3481.59	0.947
3491.73	0.947
3501.86	0.947
3511.99	0.9473
3522.12	0.9479
3532.26	0.949
3542.39	0.9491
3552.52	0.95
3562.65	0.954
3572.78	0.953
3582.92	0.95
3593.05	0.9506
3603.18	0.955
3613.31	0.955
3623.45	0.9539
3633.58	0.951
3643.71	0.951
3653.84	0.953
3663.98	0.9532
3674.11	0.955
3684.24	0.955
3694.37	0.9532
3704.51	0.953
3714.64	0.9549
3724.77	0.957
3734.9	0.957
3745.04	0.957
3755.17	0.9599
3765.3	0.963
3775.43	0.963
3785.57	0.962
3795.7	0.9599
3805.83	0.959
3815.96	0.96
3826.1	0.9594
3836.23	0.957
3846.36	0.956
3856.49	0.958
3866.63	0.9562
3876.76	0.9525
3886.89	0.953
3897.02	0.9563
3907.16	0.957
3917.29	0.957
3927.42	0.956
3937.55	0.955
3947.69	0.956
3957.82	0.956
3967.95	0.956
3978.08	0.957
3988.22	0.957
3998.35	0.957
