Infrared Spectrum: TOLUENE, m-CHLORO-Alpha,Alpha-DIBROMO-
Formula: C7 H5 Br2 Cl
CAS: 70288-97-0
State: SOLUTION (10% CCl4 FOR 3800-1335, 10% CS2 FOR 1335-460 CM^-^1)
Class: COBLENTZ III
Instrument: DOW KBr FOREPRISM-GRATING
Instrument parameters: BLAZED AT 3.5, 12.0, 20.0 MICRON AND CHANGED AT 5.0, 7.5, 14.9 MICRON
Sampling: TRANSMISSION
Path length: 0.010 CM, 0.011 CM
Resolution: 2
Origin: DOW CHEMICAL COMPANY
1/CM	TRANSMITTANCE
458	0.7261
467	0.7338
476	0.74
485	0.7443
494	0.7465
503	0.7464
512	0.7292
521	0.6536
530	0.468
539	0.7375
548	0.7687
557	0.7676
566	0.7547
575	0.6175
584	0.4932
593	0.7821
602	0.7946
611	0.791
620	0.7745
629	0.6826
638	0.5215
647	0.4667
656	0.3776
665	0.5435
674	0.6864
683	0.5238
692	0.0097
701	0.4159
710	0.5486
719	0.6957
728	0.7912
737	0.8205
746	0.8384
755	0.8435
764	0.8404
773	0.8097
782	0.5627
791	0.7649
800	0.8338
809	0.8378
818	0.8417
827	0.8038
836	0.814
845	0.7651
854	0.6887
863	0.6807
872	0.5657
881	0.4765
890	0.5553
899	0.7911
908	0.834
917	0.8474
926	0.8549
935	0.8597
944	0.8614
953	0.8587
962	0.8514
971	0.8554
980	0.8568
989	0.8499
998	0.7225
1007	0.837
1016	0.8213
1025	0.8111
1034	0.8038
1043	0.7997
1052	0.7907
1061	0.7785
1070	0.7096
1079	0.5356
1088	0.6169
1097	0.6458
1106	0.7514
1115	0.7478
1124	0.7289
1133	0.6628
1142	0.1923
1151	0.6811
1160	0.7193
1169	0.7169
1178	0.4919
1187	0.7646
1196	0.7965
1205	0.7628
1214	0.5658
1223	0.506
1232	0.3998
1241	0.7494
1250	0.8231
1259	0.8318
1268	0.8258
1277	0.8065
1286	0.7745
1295	0.7905
1304	0.8172
1313	0.8394
1322	0.8475
1331	0.8448
1340	0.8707
1349	0.8643
1358	0.8543
1367	0.865
1376	0.8777
1385	0.8773
1394	0.8558
1403	0.766
1412	0.7874
1421	0.6572
1430	0.5693
1439	0.7357
1448	0.8455
1457	0.8292
1466	0.755
1475	0.4907
1484	0.7687
1493	0.7531
1502	0.7242
1511	0.7028
1520	0.6648
1529	0.6088
1538	0.5506
1547	0.4693
1556	0.4649
1565	0.4892
1574	0.3826
1583	0.4998
1592	0.5552
1601	0.6347
1610	0.8051
1619	0.8401
1628	0.8523
1637	0.8604
1646	0.8663
1655	0.8694
1664	0.8708
1673	0.8699
1682	0.8617
1691	0.8488
1700	0.8571
1709	0.8678
1718	0.8744
1727	0.8751
1736	0.8692
1745	0.8568
1754	0.8516
1763	0.854
1772	0.8683
1781	0.8681
1790	0.865
1799	0.8597
1808	0.8628
1817	0.8739
1826	0.8761
1835	0.8741
1844	0.8699
1853	0.8652
1862	0.859
1871	0.8471
1880	0.8577
1889	0.8733
1898	0.8752
1907	0.875
1916	0.8753
1925	0.8716
1934	0.8534
1943	0.8578
1952	0.8732
1961	0.8766
1970	0.8743
1979	0.8742
1988	0.8716
1997	0.871
2006	0.8718
2015	0.8736
2024	0.8757
2033	0.8781
2042	0.8804
2051	0.8814
2060	0.8805
2069	0.8806
2078	0.8837
2087	0.8834
2096	0.8818
2105	0.8814
2114	0.882
2123	0.8825
2132	0.8825
2141	0.8828
2150	0.8833
2159	0.8836
2168	0.8839
2177	0.8838
2186	0.8837
2195	0.8839
2204	0.8845
2213	0.8851
2222	0.8856
2231	0.8856
2240	0.8856
2249	0.8839
2258	0.8786
2267	0.8723
2276	0.8665
2285	0.8614
2294	0.8606
2303	0.8643
2312	0.8725
2321	0.8821
2330	0.888
2339	0.8908
2348	0.8915
2357	0.8915
2366	0.8907
2375	0.8898
2384	0.8893
2393	0.8891
2402	0.8892
2411	0.8897
2420	0.8897
2429	0.8889
2438	0.8884
2447	0.8881
2456	0.8878
2465	0.8877
2474	0.8877
2483	0.8878
2492	0.8877
2501	0.8874
2510	0.887
2519	0.8868
2528	0.8875
2537	0.888
2546	0.8884
2555	0.8886
2564	0.889
2573	0.8893
2582	0.8897
2591	0.8901
2600	0.8905
2609	0.8905
2618	0.8902
2627	0.8898
2636	0.8894
2645	0.8888
2654	0.8883
2663	0.8877
2672	0.887
2681	0.8862
2690	0.8855
2699	0.8848
2708	0.8846
2717	0.8844
2726	0.8843
2735	0.884
2744	0.883
2753	0.8816
2762	0.8803
2771	0.8789
2780	0.8768
2789	0.8791
2798	0.8805
2807	0.8789
2816	0.8758
2825	0.875
2834	0.8754
2843	0.8761
2852	0.8764
2861	0.8751
2870	0.8734
2879	0.8714
2888	0.8711
2897	0.8709
2906	0.8706
2915	0.8701
2924	0.8688
2933	0.8659
2942	0.8661
2951	0.8666
2960	0.8684
2969	0.8701
2978	0.8701
2987	0.8687
2996	0.8628
3005	0.8532
3014	0.8421
3023	0.8403
3032	0.8443
3041	0.8474
3050	0.846
3059	0.8337
3068	0.8055
3077	0.8171
3086	0.851
3095	0.8568
3104	0.8618
3113	0.868
3122	0.8725
3131	0.8742
3140	0.8748
3149	0.8743
3158	0.8739
3167	0.8733
3176	0.8727
3185	0.872
3194	0.8716
3203	0.8713
3212	0.8711
3221	0.8708
3230	0.8705
3239	0.8702
3248	0.8694
3257	0.8686
3266	0.8678
3275	0.8671
3284	0.8668
3293	0.8665
3302	0.8664
3311	0.8661
3320	0.8661
3329	0.8661
3338	0.8661
3347	0.8662
3356	0.8662
3365	0.866
3374	0.8649
3383	0.8637
3392	0.8624
3401	0.8608
3410	0.8593
3419	0.8587
3428	0.8582
3437	0.8575
3446	0.8571
3455	0.8567
3464	0.8564
3473	0.8564
3482	0.8563
3491	0.8563
3500	0.8563
3509	0.8566
3518	0.857
3527	0.8573
3536	0.8575
3545	0.8586
3554	0.8597
3563	0.8606
3572	0.8571
3581	0.8613
3590	0.8646
3599	0.8614
3608	0.8662
3617	0.8692
3626	0.8688
3635	0.8684
3644	0.8681
3653	0.8678
3662	0.8675
3671	0.8671
3680	0.8671
3689	0.8675
3698	0.8678
3707	0.8682
3716	0.8689
3725	0.8696
3734	0.8702
3743	0.8708
3752	0.8714
3761	0.872
3770	0.8724
3779	0.8721
3788	0.8718
3797	0.8721
