Infrared Spectrum: 4'-(Trifluoromethyl)acetophenone
Formula: C9 H7 F3 O
CAS: 709-63-7
State: SOLUTION (10% CCl4 FOR 3800-1330, 10% CS2 FOR 1330-460 CM^-^1)
Class: COBLENTZ III
Instrument: DOW KBr FOREPRISM-GRATING
Instrument parameters: BLAZED AT 3.5, 12.0, 20.0 MICRON AND CHANGED AT 5.0, 7.5, 14.9 MICRON
Sampling: TRANSMISSION
Path length: 0.010 CM, 0.010 CM
Resolution: 2
Origin: DOW CHEMICAL COMPANY
1/CM	TRANSMITTANCE
3810	0.9157
3801	0.9132
3792	0.9135
3783	0.9121
3774	0.9135
3765	0.9142
3756	0.9168
3747	0.9198
3738	0.9223
3729	0.9224
3720	0.9216
3711	0.9208
3702	0.916
3693	0.909
3684	0.9101
3675	0.9124
3666	0.9141
3657	0.9149
3648	0.9154
3639	0.9157
3630	0.917
3621	0.9177
3612	0.9179
3603	0.9176
3594	0.9183
3585	0.9188
3576	0.9191
3567	0.9185
3558	0.919
3549	0.9194
3540	0.9194
3531	0.9203
3522	0.9187
3513	0.9187
3504	0.9181
3495	0.9174
3486	0.9169
3477	0.9161
3468	0.9155
3459	0.9147
3450	0.9144
3441	0.9145
3432	0.9143
3423	0.9135
3414	0.9124
3405	0.9088
3396	0.8936
3387	0.8605
3378	0.8597
3369	0.8845
3360	0.8984
3351	0.9058
3342	0.9115
3333	0.913
3324	0.9156
3315	0.9174
3306	0.9193
3297	0.9161
3288	0.9171
3279	0.9198
3270	0.9209
3261	0.922
3252	0.9224
3243	0.9227
3234	0.9225
3225	0.9209
3216	0.9216
3207	0.9197
3198	0.9196
3189	0.9196
3180	0.918
3171	0.9165
3162	0.9119
3153	0.9037
3144	0.9
3135	0.9021
3126	0.9016
3117	0.899
3108	0.8937
3099	0.8888
3090	0.8786
3081	0.8579
3072	0.8541
3063	0.8714
3054	0.8952
3045	0.9026
3036	0.9049
3027	0.8322
3018	0.8266
3009	0.8662
3000	0.8921
2991	0.8954
2982	0.8756
2973	0.8665
2964	0.8843
2955	0.8966
2946	0.8894
2937	0.8883
2928	0.8929
2919	0.9021
2910	0.9126
2901	0.92
2892	0.9163
2883	0.9148
2874	0.9189
2865	0.9227
2856	0.9253
2847	0.9257
2838	0.9279
2829	0.929
2820	0.9307
2811	0.9306
2802	0.9335
2793	0.9349
2784	0.9361
2775	0.9372
2766	0.9391
2757	0.941
2748	0.9431
2739	0.944
2730	0.9448
2721	0.9454
2712	0.946
2703	0.9465
2694	0.9472
2685	0.9467
2676	0.9446
2667	0.9395
2658	0.9327
2649	0.9295
2640	0.9307
2631	0.9357
2622	0.9417
2613	0.9444
2604	0.9459
2595	0.9473
2586	0.9487
2577	0.9503
2568	0.9524
2559	0.9544
2550	0.9555
2541	0.956
2532	0.954
2523	0.9507
2514	0.9496
2505	0.949
2496	0.9521
2487	0.9554
2478	0.9567
2469	0.9533
2460	0.9525
2451	0.9533
2442	0.9542
2433	0.9552
2424	0.9565
2415	0.9583
2406	0.9607
2397	0.9593
2388	0.9596
2379	0.9637
2370	0.968
2361	0.9673
2352	0.974
2343	0.9735
2334	0.9711
2325	0.9589
2316	0.9503
2307	0.9401
2298	0.9358
2289	0.9489
2280	0.9519
2271	0.9507
2262	0.9543
2253	0.9561
2244	0.9537
2235	0.953
2226	0.9542
2217	0.956
2208	0.9558
2199	0.9563
2190	0.959
2181	0.962
2172	0.9654
2163	0.9637
2154	0.9619
2145	0.9585
2136	0.9544
2127	0.9494
2118	0.9491
2109	0.9536
2100	0.958
2091	0.9608
2082	0.9619
2073	0.9613
2064	0.9581
2055	0.953
2046	0.9511
2037	0.9531
2028	0.9532
2019	0.9525
2010	0.9499
2001	0.9459
1992	0.9133
1983	0.9142
1974	0.9101
1965	0.9069
1956	0.8988
1947	0.8991
1938	0.8846
1929	0.8759
1920	0.8917
1911	0.873
1902	0.897
1893	0.9135
1884	0.9145
1875	0.911
1866	0.9033
1857	0.9042
1848	0.9048
1839	0.9067
1830	0.905
1821	0.8764
1812	0.8847
1803	0.8905
1794	0.8904
1785	0.8741
1776	0.8848
1767	0.8839
1758	0.868
1749	0.8584
1740	0.8554
1731	0.8474
1722	0.799
1713	0.6255
1704	0.3022
1695	0.0001
1686	0.2893
1677	0.6528
1668	0.7674
1659	0.7702
1650	0.8349
1641	0.8589
1632	0.8691
1623	0.8713
1614	0.8671
1605	0.8873
1596	0.8107
1587	0.6858
1578	0.6646
1569	0.7553
1560	0.7878
1551	0.829
1542	0.8599
1533	0.8363
1524	0.801
1515	0.5582
1506	0.7869
1497	0.8606
1488	0.8724
1479	0.8923
1470	0.8785
1461	0.8615
1452	0.8351
1443	0.7951
1434	0.6206
1425	0.5248
1416	0.3887
1407	0.1678
1398	0.7677
1389	0.8075
1380	0.7372
1371	0.6145
1362	0.2402
1353	0.4645
1344	0.5179
1335	0.1312
1326	0.0099
1317	0.0093
1308	0.0913
1299	0.3774
1290	0.6256
1281	0.6792
1272	0.4689
1263	0.0123
1254	0.1607
1245	0.2809
1236	0.4952
1227	0.5119
1218	0.6068
1209	0.6245
1200	0.6513
1191	0.5699
1182	0.2502
1173	0.0109
1164	0.0107
1155	0.1299
1146	0.0726
1137	0.0079
1128	0.0037
1119	0.2273
1110	0.0284
1101	0.3834
1092	0.6083
1083	0.2089
1074	0.1982
1065	0.3364
1056	0.2864
1047	0.7783
1038	0.8239
1029	0.8262
1020	0.6795
1011	0.4079
1002	0.8229
993	0.8517
984	0.8508
975	0.8043
966	0.6482
957	0.3696
948	0.6393
939	0.8299
930	0.8643
921	0.8698
912	0.8716
903	0.8775
894	0.8868
885	0.9001
876	0.8735
867	0.8126
858	0.6799
849	0.0466
840	0.3454
831	0.2438
822	0.7494
813	0.8419
804	0.8668
795	0.8797
786	0.8853
777	0.8876
768	0.8908
759	0.8866
750	0.8859
741	0.8477
732	0.8732
723	0.6995
714	0.713
705	0.8648
696	0.8803
687	0.8889
678	0.8883
669	0.8622
660	0.8287
651	0.8304
642	0.8255
633	0.795
624	0.6467
615	0.2597
606	0.3735
597	0.7444
588	0.7897
579	0.8021
570	0.8171
561	0.8222
552	0.8169
543	0.8139
534	0.8114
525	0.8078
516	0.7814
507	0.5994
498	0.6371
489	0.7063
480	0.7253
471	0.7367
462	0.7381
