Infrared Spectrum: Cytosine
Formula: C4 H5 N3 O
CAS: 71-30-7
State: SOLID (1.2 mg / 380 mg KBr DISC)
Class: COBLENTZ II
Instrument: PERKIN-ELMER 180 (GRATING)
Instrument parameters: GRATINGS: 2000, 1000, 500, 250 CM^-^1; FILTER CHANGE: 2970, 2000, 1485, 1000, 743, 500, 372, 250, 186 CM^-^1.
Sampling: TRANSMISSION
Resolution: 2
Origin: K. K. DEB-NCI FREDERICK CANCER RESEARCH CENTER
1/CM	TRANSMITTANCE
407	0.7173
416	0.6643
425	0.5069
434	0.6184
443	0.5041
452	0.6003
461	0.6385
470	0.5919
479	0.5297
488	0.4894
497	0.4473
506	0.4239
515	0.4198
524	0.4363
533	0.4172
542	0.5131
551	0.3379
560	0.4854
569	0.5436
578	0.6466
587	0.65
596	0.6257
605	0.3825
614	0.6636
623	0.7306
632	0.7646
641	0.7793
650	0.7801
659	0.7788
668	0.7676
677	0.748
686	0.7287
695	0.6676
704	0.6062
713	0.672
722	0.7284
731	0.722
740	0.6895
749	0.6494
758	0.5961
767	0.5677
776	0.5489
785	0.3424
794	0.2664
803	0.4461
812	0.5292
821	0.4855
830	0.4974
839	0.5695
848	0.6467
857	0.7052
866	0.7398
875	0.7604
884	0.774
893	0.7841
902	0.7905
911	0.7939
920	0.7957
929	0.7952
938	0.7905
947	0.7824
956	0.7599
965	0.6844
974	0.6133
983	0.7028
992	0.6627
1001	0.6086
1010	0.6266
1019	0.626
1028	0.6885
1037	0.6925
1046	0.6859
1055	0.6776
1064	0.6695
1073	0.6605
1082	0.6479
1091	0.6334
1100	0.6131
1109	0.6163
1118	0.6152
1127	0.6019
1136	0.5774
1145	0.5487
1154	0.5199
1163	0.511
1172	0.5408
1181	0.5498
1190	0.5403
1199	0.5244
1208	0.5046
1217	0.4669
1226	0.3765
1235	0.2774
1244	0.295
1253	0.4299
1262	0.535
1271	0.4797
1280	0.246
1289	0.6104
1298	0.6814
1307	0.664
1316	0.642
1325	0.6332
1334	0.6105
1343	0.5745
1352	0.5276
1361	0.4507
1370	0.3629
1379	0.5988
1388	0.65
1397	0.6292
1406	0.5843
1415	0.531
1424	0.4926
1433	0.4396
1442	0.3855
1451	0.3104
1460	0.1781
1469	0.167
1478	0.3157
1487	0.4109
1496	0.323
1505	0.2408
1514	0.298
1523	0.3202
1532	0.3031
1541	0.2304
1550	0.3286
1559	0.5035
1568	0.5076
1577	0.4719
1586	0.3945
1595	0.3147
1604	0.2349
1613	0.1609
1622	0.1654
1631	0.1313
1640	0.127
1649	0.1099
1658	0.1038
1667	0.1051
1676	0.1189
1685	0.1798
1694	0.2222
1703	0.261
1712	0.3477
1721	0.4282
1730	0.5135
1739	0.5798
1748	0.6473
1757	0.6879
1766	0.7219
1775	0.7556
1784	0.7808
1793	0.7979
1802	0.8146
1811	0.8229
1820	0.8251
1829	0.8479
1838	0.8624
1847	0.8707
1856	0.8751
1865	0.8773
1874	0.8784
1883	0.8827
1892	0.8873
1901	0.8888
1910	0.8878
1919	0.8847
1928	0.8798
1937	0.876
1946	0.8733
1955	0.8608
1964	0.8605
1973	0.8629
1982	0.8507
1991	0.8443
2000	0.8366
2009	0.848
2018	0.8539
2027	0.8586
2036	0.8659
2045	0.8623
2054	0.8543
2063	0.8453
2072	0.8437
2081	0.8428
2090	0.8422
2099	0.8387
2108	0.8327
2117	0.827
2126	0.8202
2135	0.8127
2144	0.8062
2153	0.8041
2162	0.8001
2171	0.794
2180	0.7863
2189	0.7778
2198	0.7681
2207	0.756
2216	0.7478
2225	0.7381
2234	0.7236
2243	0.7142
2252	0.7161
2261	0.7127
2270	0.7041
2279	0.6953
2288	0.6911
2297	0.6878
2306	0.683
2315	0.6753
2324	0.6678
2333	0.6599
2342	0.6518
2351	0.6437
2360	0.6357
2369	0.6276
2378	0.6195
2387	0.6114
2396	0.6033
2405	0.5953
2414	0.5872
2423	0.5791
2432	0.571
2441	0.5629
2450	0.5549
2459	0.5468
2468	0.5387
2477	0.5308
2486	0.5234
2495	0.5162
2504	0.5091
2513	0.502
2522	0.495
2531	0.4878
2540	0.4811
2549	0.4749
2558	0.4706
2567	0.4678
2576	0.4617
2585	0.4543
2594	0.4457
2603	0.4357
2612	0.4267
2621	0.4198
2630	0.4116
2639	0.4026
2648	0.3944
2657	0.3865
2666	0.3787
2675	0.3703
2684	0.3639
2693	0.3632
2702	0.368
2711	0.3752
2720	0.3786
2729	0.3769
2738	0.3718
2747	0.3658
2756	0.3595
2765	0.3524
2774	0.3438
2783	0.3383
2792	0.3366
2801	0.346
2810	0.3673
2819	0.3805
2828	0.3795
2837	0.378
2846	0.384
2855	0.393
2864	0.4059
2873	0.4177
2882	0.4315
2891	0.4476
2900	0.4549
2909	0.4504
2918	0.4412
2927	0.4376
2936	0.439
2945	0.4483
2954	0.4599
2963	0.4608
2972	0.4597
2981	0.4577
2990	0.4535
2999	0.4477
3008	0.4483
3017	0.4549
3026	0.4571
3035	0.4551
3044	0.4483
3053	0.4411
3062	0.4361
3071	0.4315
3080	0.4277
3089	0.4219
3098	0.4084
3107	0.383
3116	0.3575
3125	0.3318
3134	0.3062
3143	0.2806
3152	0.255
3161	0.2293
3170	0.219
3179	0.2273
3188	0.2714
3197	0.3209
3206	0.3616
3215	0.4014
3224	0.4316
3233	0.4439
3242	0.4466
3251	0.4445
3260	0.4385
3269	0.4315
3278	0.4241
3287	0.4166
3296	0.4077
3305	0.3943
3314	0.3719
3323	0.3495
3332	0.3271
3341	0.3047
3350	0.2823
3359	0.2599
3368	0.2375
3377	0.2098
3386	0.2071
3395	0.2552
3404	0.3456
3413	0.4359
3422	0.5032
3431	0.6011
3440	0.6548
3449	0.6944
3458	0.7375
3467	0.7762
3476	0.8003
3485	0.8202
3494	0.8423
3503	0.8581
3512	0.8693
3521	0.8775
3530	0.8831
3539	0.8873
3548	0.8906
3557	0.8928
3566	0.8943
3575	0.8956
3584	0.8968
3593	0.898
3602	0.8995
3611	0.901
3620	0.9025
3629	0.8998
3638	0.8985
3647	0.8967
3656	0.8938
3665	0.8879
3674	0.8858
3683	0.8908
3692	0.8916
3701	0.8907
3710	0.8892
3719	0.8872
3728	0.8852
3737	0.8832
3746	0.881
3755	0.8788
3764	0.8767
3773	0.8743
3782	0.8717
