Infrared Spectrum: 4-(ETHYLTHIO)BUTRIC ACID
Formula: C6 H12 O2 S
CAS: 71057-15-3
State: SOLUTION (10% CCl4 FOR 3800-1330, 10% CS2 FOR 1330-450 CM^-^1)
Class: COBLENTZ III
Instrument: DOW KBr FOREPRISM-GRATING
Instrument parameters: BLAZED AT 3.5, 12.0, 20.0 MICRON AND CHANGED AT 5.0, 7.5, 14.9 MICRON
Sampling: TRANSMISSION
Path length: 0.011 CM, 0.011 CM
Resolution: 2
Origin: DOW CHEMICAL COMPANY
1/CM	TRANSMITTANCE
457.093	0.877
465.85	0.87
474.606	0.865
483.363	0.853
492.119	0.855
500.876	0.876
509.632	0.895
518.389	0.932
527.145	0.962
535.902	0.991
544.659	1.013
553.415	1.024
562.172	1.027
570.928	1.024
579.685	1.017
588.441	0.998
597.198	0.973
605.955	0.955
614.711	0.951
623.468	0.917
632.224	0.913
640.981	0.909
649.737	0.877
658.494	0.876
667.25	0.887
676.007	0.902
684.764	0.954
693.52	0.979
702.277	1.005
711.033	1.016
719.79	1.002
728.546	0.975
737.303	0.957
746.06	0.902
754.816	0.889
763.573	0.892
772.329	0.871
781.086	0.779
789.842	0.808
798.599	0.885
807.355	0.917
816.112	0.917
824.869	0.876
833.625	0.84
842.382	0.794
851.138	0.688
859.895	0.681
868.651	0.679
877.408	0.626
886.165	0.604
894.921	0.586
903.678	0.523
912.434	0.439
921.191	0.37
929.947	0.342
938.704	0.356
947.46	0.438
956.217	0.546
964.974	0.586
973.73	0.643
982.487	0.741
991.243	0.873
1000	0.904
1008.76	0.921
1017.51	0.944
1026.27	0.951
1035.03	0.947
1043.78	0.944
1052.54	0.936
1061.3	0.906
1070.05	0.968
1078.81	0.997
1087.57	1.02
1096.32	1.015
1105.08	0.975
1113.84	0.889
1122.59	0.842
1131.35	0.736
1140.1	0.643
1148.86	0.692
1157.62	0.812
1166.37	0.82
1175.13	0.763
1183.89	0.641
1192.64	0.589
1201.4	0.615
1210.16	0.632
1218.91	0.513
1227.67	0.246
1236.43	0.095
1245.18	0.141
1253.94	0.242
1262.7	0.235
1271.45	0.319
1280.21	0.276
1288.97	0.206
1297.72	0.213
1306.48	0.314
1315.24	0.345
1323.99	0.582
1332.75	0.615
1341.51	0.621
1350.26	0.651
1359.02	0.702
1367.78	0.742
1376.53	0.577
1385.29	0.679
1394.05	0.614
1402.8	0.391
1411.56	0.151
1420.31	0.165
1429.07	0.199
1437.83	0.227
1446.58	0.235
1455.34	0.254
1464.1	0.566
1472.85	0.741
1481.61	0.78
1490.37	0.782
1499.12	0.763
1507.88	0.727
1516.64	0.683
1525.39	0.646
1534.15	0.584
1542.91	0.488
1551.66	0.465
1560.42	0.542
1569.18	0.611
1577.93	0.632
1586.69	0.658
1595.45	0.728
1604.2	0.794
1612.96	0.822
1621.72	0.823
1630.47	0.809
1639.23	0.78
1647.99	0.738
1656.74	0.676
1665.5	0.615
1674.26	0.526
1683.01	0.378
1691.77	0.141
1700.52	0.004
1709.28	0
1718.04	0.004
1726.79	0.128
1735.55	0.285
1744.31	0.4
1753.06	0.505
1761.82	0.628
1770.58	0.717
1779.33	0.742
1788.09	0.765
1796.85	0.776
1805.6	0.786
1814.36	0.79
1823.12	0.794
1831.87	0.8
1840.63	0.815
1849.39	0.829
1858.14	0.84
1866.9	0.848
1875.66	0.855
1884.41	0.858
1893.17	0.862
1901.93	0.865
1910.68	0.87
1919.44	0.871
1928.2	0.873
1936.95	0.876
1945.71	0.877
1954.47	0.88
1963.22	0.884
1971.98	0.891
1980.73	0.896
1989.49	0.9
1998.25	0.904
2007	0.907
2015.76	0.91
2024.52	0.9129
2033.27	0.914
2042.03	0.9169
2050.79	0.918
2059.54	0.92
2068.3	0.921
2077.06	0.921
2085.81	0.92
2094.57	0.917
2103.33	0.9166
2112.08	0.917
2120.84	0.915
2129.6	0.911
2138.35	0.906
2147.11	0.904
2155.87	0.902
2164.62	0.9037
2173.38	0.906
2182.14	0.906
2190.89	0.903
2199.65	0.9007
2208.41	0.898
2217.16	0.893
2225.92	0.892
2234.68	0.891
2243.43	0.891
2252.19	0.888
2260.94	0.8793
2269.7	0.8694
2278.46	0.8609
2287.21	0.859
2295.97	0.859
2304.73	0.86
2313.48	0.86
2322.24	0.858
2331	0.855
2339.75	0.8541
2348.51	0.8516
2357.27	0.8462
2366.02	0.8406
2374.78	0.8336
2383.54	0.8266
2392.29	0.8153
2401.05	0.807
2409.81	0.791
2418.56	0.7788
2427.32	0.769
2436.08	0.7594
2444.83	0.7482
2453.59	0.7375
2462.35	0.7205
2471.1	0.7083
2479.86	0.692
2488.62	0.673
2497.37	0.6577
2506.13	0.6415
2514.89	0.6148
2523.64	0.5876
2532.4	0.5551
2541.15	0.5235
2549.91	0.5054
2558.67	0.4867
2567.42	0.4729
2576.18	0.468
2584.94	0.468
2593.69	0.468
2602.45	0.4609
2611.21	0.449
2619.96	0.436
2628.72	0.425
2637.48	0.4171
2646.23	0.3925
2654.99	0.3801
2663.75	0.378
2672.5	0.3879
2681.26	0.4035
2690.02	0.4139
2698.77	0.4237
2707.53	0.425
2716.29	0.4212
2725.04	0.418
2733.8	0.415
2742.56	0.415
2751.31	0.414
2760.07	0.413
2768.83	0.4075
2777.58	0.4005
2786.34	0.3936
2795.09	0.382
2803.85	0.3596
2812.61	0.3319
2821.36	0.2954
2830.12	0.2787
2838.88	0.2496
2847.63	0.2215
2856.39	0.198
2865.15	0.1594
2873.9	0.152
2882.66	0.1509
2891.42	0.1287
2900.17	0.1041
2908.93	0.0684
2917.69	0.0565
2926.44	0.0575
2935.2	0.0749
2943.96	0.082
2952.71	0.0721
2961.47	0.06
2970.23	0.057
2978.98	0.0666
2987.74	0.1201
2996.5	0.157
3005.25	0.1724
3014.01	0.1713
3022.77	0.1643
3031.52	0.159
3040.28	0.1596
3049.04	0.1686
3057.79	0.1776
3066.55	0.1873
3075.3	0.1943
3084.06	0.1995
3092.82	0.2034
3101.57	0.209
3110.33	0.2202
3119.09	0.2312
3127.84	0.2453
3136.6	0.2574
3145.36	0.2764
3154.11	0.2975
3162.87	0.3141
3171.63	0.3305
3180.38	0.3513
3189.14	0.3672
3197.9	0.3814
3206.65	0.4041
3215.41	0.424
3224.17	0.446
3232.92	0.469
3241.68	0.4927
3250.44	0.5187
3259.19	0.5448
3267.95	0.5708
3276.71	0.5988
3285.46	0.6219
3294.22	0.6469
3302.98	0.6734
3311.73	0.6998
3320.49	0.7198
3329.25	0.733
3338	0.7445
3346.76	0.7578
3355.51	0.7758
3364.27	0.7976
3373.03	0.8188
3381.78	0.8405
3390.54	0.8547
3399.3	0.8692
3408.05	0.8801
3416.81	0.8917
3425.57	0.901
3434.32	0.91
3443.08	0.9166
3451.84	0.9273
3460.59	0.9303
3469.35	0.938
3478.11	0.942
3486.86	0.9452
3495.62	0.946
3504.38	0.9403
3513.13	0.9315
3521.89	0.923
3530.65	0.9335
3539.4	0.953
3548.16	0.9665
3556.92	0.972
3565.67	0.971
3574.43	0.9583
3583.19	0.977
3591.94	0.976
3600.7	0.9794
3609.46	0.983
3618.21	0.984
3626.97	0.984
3635.72	0.986
3644.48	0.98
3653.24	0.9767
3661.99	0.973
3670.75	0.9753
3679.51	0.9793
3688.26	0.9845
3697.02	0.987
3705.78	0.9885
3714.53	0.9954
3723.29	0.9984
3732.05	1
3740.8	1
3749.56	0.998
3758.32	0.998
3767.07	0.9982
3775.83	1.0001
3784.59	1.001
3793.34	1
