Infrared Spectrum: 1-Phenyl-2-norbornanol, acetate
Formula: C15 H18 O2
CAS: 71173-15-4
State: SOLUTION (10% CCl4 FOR 3800-1335, 10% CS2 FOR 1335-460 CM^-^1)
Class: COBLENTZ III
Instrument: DOW KBr FOREPRISM-GRATING
Instrument parameters: BLAZED AT 3.5, 12.0, 20.0 MICRON AND CHANGED AT 5.0, 7.5, 14.9 MICRON
Sampling: TRANSMISSION
Path length: 0.010 CM, 0.010 CM
Resolution: 2
Temperature: 43 C
Origin: DOW CHEMICAL COMPANY
1/CM	TRANSMITTANCE
3800	0.9393
3791	0.9407
3782	0.9386
3773	0.9398
3764	0.94
3755	0.9405
3746	0.9413
3737	0.944
3728	0.9442
3719	0.9389
3710	0.9406
3701	0.9391
3692	0.9365
3683	0.9388
3674	0.9448
3665	0.9481
3656	0.9419
3647	0.9435
3638	0.9452
3629	0.9458
3620	0.9467
3611	0.94
3602	0.9317
3593	0.9247
3584	0.9188
3575	0.929
3566	0.934
3557	0.935
3548	0.9362
3539	0.9335
3530	0.9319
3521	0.9277
3512	0.9254
3503	0.9227
3494	0.9194
3485	0.9162
3476	0.9123
3467	0.9038
3458	0.9013
3449	0.9066
3440	0.9112
3431	0.9164
3422	0.9198
3413	0.9221
3404	0.9236
3395	0.9245
3386	0.9252
3377	0.9255
3368	0.9259
3359	0.9264
3350	0.9269
3341	0.9275
3332	0.928
3323	0.9287
3314	0.9295
3305	0.9318
3296	0.9303
3287	0.9306
3278	0.9321
3269	0.9327
3260	0.933
3251	0.9332
3242	0.9337
3233	0.9342
3224	0.9342
3215	0.9343
3206	0.9325
3197	0.9338
3188	0.934
3179	0.9319
3170	0.932
3161	0.9321
3152	0.9317
3143	0.9275
3134	0.9235
3125	0.9061
3116	0.8676
3107	0.8461
3098	0.7324
3089	0.7752
3080	0.7155
3071	0.6428
3062	0.7077
3053	0.6633
3044	0.5662
3035	0.7024
3026	0.7592
3017	0.7828
3008	0.6542
2999	0.4772
2990	0.3009
2981	0.0839
2972	0.0158
2963	0.0296
2954	0.121
2945	0.382
2936	0.5023
2927	0.5598
2918	0.62
2909	0.7324
2900	0.7288
2891	0.3961
2882	0.3144
2873	0.6464
2864	0.8434
2855	0.8937
2846	0.9157
2837	0.927
2828	0.9333
2819	0.9375
2810	0.9386
2801	0.942
2792	0.9428
2783	0.9434
2774	0.9455
2765	0.9467
2756	0.948
2747	0.9492
2738	0.9501
2729	0.9508
2720	0.9516
2711	0.9524
2702	0.9521
2693	0.9518
2684	0.9516
2675	0.9513
2666	0.9524
2657	0.9553
2648	0.9556
2639	0.9563
2630	0.9582
2621	0.9613
2612	0.9629
2603	0.9641
2594	0.9649
2585	0.9656
2576	0.9663
2567	0.9666
2558	0.967
2549	0.9672
2540	0.9676
2531	0.9678
2522	0.9682
2513	0.9678
2504	0.9673
2495	0.9664
2486	0.9656
2477	0.967
2468	0.9667
2459	0.9666
2450	0.9652
2441	0.9675
2432	0.9683
2423	0.9692
2414	0.9702
2405	0.9726
2396	0.9727
2387	0.9765
2378	0.9863
2369	0.9901
2360	0.991
2351	0.9938
2342	0.9905
2333	0.9774
2324	0.9692
2315	0.963
2306	0.9617
2297	0.9636
2288	0.9635
2279	0.9651
2270	0.965
2261	0.9657
2252	0.966
2243	0.9649
2234	0.9634
2225	0.963
2216	0.9605
2207	0.9552
2198	0.9554
2189	0.9571
2180	0.9557
2171	0.9547
2162	0.9532
2153	0.9554
2144	0.9583
2135	0.9592
2126	0.9578
2117	0.9563
2108	0.9546
2099	0.9531
2090	0.9522
2081	0.9508
2072	0.9501
2063	0.9509
2054	0.9554
2045	0.9571
2036	0.9565
2027	0.9534
2018	0.9462
2009	0.9309
2000	0.9138
1991	0.9337
1982	0.9357
1973	0.9335
1964	0.9155
1955	0.9191
1946	0.8817
1937	0.9091
1928	0.9285
1919	0.9322
1910	0.933
1901	0.9241
1892	0.9069
1883	0.8932
1874	0.9038
1865	0.8811
1856	0.9003
1847	0.9038
1838	0.9032
1829	0.8854
1820	0.8663
1811	0.8669
1802	0.836
1793	0.8545
1784	0.8569
1775	0.8217
1766	0.5739
1757	0.2252
1748	-0.0036
1739	-0.0036
1730	-0.0036
1721	0.2786
1712	0.6381
1703	0.7573
1694	0.7693
1685	0.8197
1676	0.8548
1667	0.8569
1658	0.8641
1649	0.8782
1640	0.8921
1631	0.9068
1622	0.8993
1613	0.7895
1604	0.715
1595	0.807
1586	0.8135
1577	0.8721
1568	0.8079
1559	0.7935
1550	0.8991
1541	0.9312
1532	0.9286
1523	0.8891
1514	0.8725
1505	0.4379
1496	0.8281
1487	0.8483
1478	0.8271
1469	0.8402
1460	0.5119
1451	0.3972
1442	0.564
1433	0.7021
1424	0.7772
1415	0.8288
1406	0.8533
1397	0.8409
1388	0.5673
1379	0.0988
1370	0.4488
1361	0.5474
1352	0.692
1343	0.8147
1334	0.6556
1325	0.7882
1316	0.7325
1307	0.6181
1298	0.732
1289	0.7087
1280	0.5565
1271	0.4463
1262	0.2686
1253	-0.0036
1244	-0.0036
1235	-0.0036
1226	0.2162
1217	0.2198
1208	0.6446
1199	0.7462
1190	0.5669
1181	0.6613
1172	0.8154
1163	0.777
1154	0.5673
1145	0.6892
1136	0.8314
1127	0.8625
1118	0.8577
1109	0.804
1100	0.8115
1091	0.8067
1082	0.6226
1073	0.4814
1064	0.4741
1055	0.6085
1046	0.2766
1037	-0.0036
1028	0.2667
1019	0.5077
1010	0.6694
1001	0.7639
992	0.8329
983	0.8658
974	0.6227
965	0.8316
956	0.7925
947	0.679
938	0.7572
929	0.8534
920	0.8789
911	0.6552
902	0.812
893	0.9029
884	0.9217
875	0.916
866	0.765
857	0.7211
848	0.8631
839	0.8908
830	0.9296
821	0.9094
812	0.9132
803	0.9363
794	0.8695
785	0.8849
776	0.8802
767	0.465
758	0.039
749	0.7733
740	0.895
731	0.9202
722	0.901
713	0.7309
704	0.217
695	0.2711
686	0.8598
677	0.8915
668	0.7888
659	0.8555
650	0.8788
641	0.8495
632	0.8255
623	0.7985
614	0.7064
605	0.6888
596	0.8305
587	0.8676
578	0.8776
569	0.8734
560	0.8609
551	0.8188
542	0.402
533	0.7967
524	0.8421
515	0.8467
506	0.6956
497	0.7872
488	0.8119
479	0.8126
470	0.8133
