Infrared Spectrum: o-Bromobenzoyl chloride
Formula: C7 H4 Br Cl O
CAS: 7154-66-7
State: SOLUTION (10% CCl4 FOR 3800-1330, 10% CS2 FOR 1330-400 CM^-^1)
Class: COBLENTZ III
Instrument: DOW KBr FOREPRISM-GRATING
Instrument parameters: BLAZED AT 3.5, 12.0, 20.0 MICRON AND CHANGED AT 5.0, 7.5, 14.9 MICRON
Sampling: TRANSMISSION
Path length: 0.011 CM, 0.012 CM
Resolution: 2
Origin: DOW CHEMICAL COMPANY
1/CM	TRANSMITTANCE
3800	0.9212
3791	0.9225
3782	0.9205
3773	0.9198
3764	0.918
3755	0.9138
3746	0.9115
3737	0.9155
3728	0.9204
3719	0.9207
3710	0.9217
3701	0.9252
3692	0.9257
3683	0.9236
3674	0.9186
3665	0.9219
3656	0.9195
3647	0.9183
3638	0.9221
3629	0.9205
3620	0.9204
3611	0.9203
3602	0.9195
3593	0.919
3584	0.9155
3575	0.9096
3566	0.9047
3557	0.9082
3548	0.9128
3539	0.9141
3530	0.9103
3521	0.905
3512	0.9052
3503	0.9089
3494	0.9143
3485	0.9196
3476	0.922
3467	0.9238
3458	0.9249
3449	0.9253
3440	0.9259
3431	0.9259
3422	0.926
3413	0.926
3404	0.926
3395	0.9264
3386	0.9271
3377	0.9277
3368	0.9284
3359	0.9287
3350	0.9292
3341	0.9295
3332	0.9291
3323	0.9287
3314	0.9283
3305	0.9293
3296	0.9276
3287	0.9271
3278	0.9278
3269	0.9275
3260	0.9268
3251	0.9263
3242	0.9259
3233	0.9254
3224	0.9241
3215	0.9226
3206	0.9199
3197	0.9191
3188	0.9175
3179	0.9145
3170	0.9127
3161	0.9116
3152	0.9112
3143	0.9092
3134	0.9102
3125	0.91
3116	0.909
3107	0.9076
3098	0.9066
3089	0.9013
3080	0.876
3071	0.8458
3062	0.8571
3053	0.8815
3044	0.9022
3035	0.9105
3026	0.9033
3017	0.9064
3008	0.9075
2999	0.9084
2990	0.9091
2981	0.908
2972	0.9093
2963	0.9126
2954	0.915
2945	0.9172
2936	0.9214
2927	0.9222
2918	0.9215
2909	0.921
2900	0.9207
2891	0.9203
2882	0.9201
2873	0.9196
2864	0.9188
2855	0.9181
2846	0.9149
2837	0.9144
2828	0.9151
2819	0.9176
2810	0.9181
2801	0.9198
2792	0.9189
2783	0.9168
2774	0.9171
2765	0.9169
2756	0.9169
2747	0.9171
2738	0.9171
2729	0.9171
2720	0.9174
2711	0.918
2702	0.9191
2693	0.9198
2684	0.9194
2675	0.9172
2666	0.9155
2657	0.9159
2648	0.9151
2639	0.915
2630	0.9155
2621	0.9169
2612	0.9174
2603	0.9178
2594	0.9182
2585	0.9172
2576	0.9156
2567	0.9156
2558	0.9175
2549	0.9194
2540	0.9213
2531	0.9224
2522	0.9231
2513	0.9239
2504	0.924
2495	0.9241
2486	0.9227
2477	0.9223
2468	0.9217
2459	0.9225
2450	0.9228
2441	0.9241
2432	0.9242
2423	0.9239
2414	0.9238
2405	0.9235
2396	0.9215
2387	0.9202
2378	0.921
2369	0.9186
2360	0.9203
2351	0.9236
2342	0.9165
2333	0.9172
2324	0.924
2315	0.9257
2306	0.926
2297	0.9281
2288	0.9287
2279	0.9283
2270	0.9274
2261	0.9267
2252	0.9271
2243	0.9276
2234	0.9284
2225	0.93
2216	0.9298
2207	0.9309
2198	0.932
2189	0.9318
2180	0.9328
2171	0.9352
2162	0.9348
2153	0.9354
2144	0.9363
2135	0.9371
2126	0.9372
2117	0.9369
2108	0.9363
2099	0.9351
2090	0.933
2081	0.9307
2072	0.9286
2063	0.9266
2054	0.9266
2045	0.926
2036	0.9276
2027	0.9297
2018	0.9306
2009	0.9306
2000	0.939
1991	0.9495
1982	0.9506
1973	0.9351
1964	0.938
1955	0.9548
1946	0.9426
1937	0.9168
1928	0.9279
1919	0.9406
1910	0.9386
1901	0.9431
1892	0.9466
1883	0.9486
1874	0.9478
1865	0.9401
1856	0.9278
1847	0.9132
1838	0.8935
1829	0.8481
1820	0.7311
1811	0.6322
1802	0.3504
1793	0.0256
1784	0.021
1775	0.2126
1766	0.4836
1757	0.6004
1748	0.5949
1739	0.5531
1730	0.5517
1721	0.672
1712	0.8013
1703	0.8677
1694	0.9063
1685	0.9249
1676	0.9306
1667	0.9383
1658	0.9466
1649	0.9468
1640	0.9394
1631	0.9236
1622	0.93
1613	0.9368
1604	0.8865
1595	0.7155
1586	0.3026
1577	0.6634
1568	0.5449
1559	0.6872
1550	0.7705
1541	0.7878
1532	0.8691
1523	0.8534
1514	0.8884
1505	0.9172
1496	0.9131
1487	0.9106
1478	0.9005
1469	0.4574
1460	0.6067
1451	0.8746
1442	0.455
1433	0.5678
1424	0.7828
1415	0.9138
1406	0.9333
1397	0.911
1388	0.9454
1379	0.9339
1370	0.9236
1361	0.9258
1352	0.9416
1343	0.9391
1334	0.9338
1325	0.9367
1316	0.9383
1307	0.9339
1298	0.9225
1289	0.8336
1280	0.753
1271	0.8105
1262	0.5265
1253	0.8836
1244	0.907
1235	0.877
1226	0.8208
1217	0.7133
1208	0.5596
1199	0.0888
1190	0.1579
1181	0.3298
1172	0.5682
1163	0.5506
1154	0.8731
1145	0.9011
1136	0.8946
1127	0.4684
1118	0.8775
1109	0.9186
1100	0.9382
1091	0.9513
1082	0.9378
1073	0.9308
1064	0.879
1055	0.8273
1046	0.5862
1037	0.5865
1028	0.7291
1019	0.8841
1010	0.8489
1001	0.9327
992	0.937
983	0.9286
974	0.9333
965	0.9342
956	0.9122
947	0.8695
938	0.8622
929	0.8768
920	0.8753
911	0.8414
902	0.7877
893	0.6291
884	0.3287
875	0.0602
866	0.0294
857	0.022
848	0.4486
839	0.6495
830	0.8077
821	0.8628
812	0.8995
803	0.9195
794	0.9274
785	0.9261
776	0.8771
767	0.2597
758	0.6677
749	0.8757
740	0.889
731	0.7708
722	0.0613
713	0.6926
704	0.6854
695	0.4952
686	0.0269
677	0.5332
668	0.8098
659	0.8015
650	0.6562
641	0.1654
632	0.65
623	0.8805
614	0.9405
605	0.9733
596	0.9826
587	0.9914
578	0.9951
569	0.9956
560	0.9927
551	0.9832
542	0.9501
533	0.9536
524	0.9778
515	0.9862
506	0.9901
497	0.9886
488	0.9629
479	0.8393
470	0.494
461	0.8816
452	0.9147
443	0.7472
434	0.7831
425	0.8216
416	0.7595
407	0.6147
398	0.3018
389	0.2323
