Infrared Spectrum: Benzaldehyde, o-(n-hexyloxy)-,
Formula: C13 H18 O2
CAS: 7162-59-6
State: LIQUID (NEAT)
Class: COBLENTZ III
Instrument: PERKIN-ELMER 21 (GRATING)
Instrument parameters: FILTER AT ABOUT 10 MICRONS
Path length: CAPILLARY
Resolution: 2
1/CM	TRANSMITTANCE
666	0.7461
675	0.7769
684	0.8058
693	0.8195
702	0.8214
711	0.7922
720	0.6625
729	0.6976
738	0.7193
747	0.4731
756	0.1001
765	0.2899
774	0.6434
783	0.7784
792	0.7902
801	0.7197
810	0.7454
819	0.7058
828	0.5575
837	0.5465
846	0.6508
855	0.7057
864	0.8033
873	0.8452
882	0.8543
891	0.8491
900	0.8549
909	0.8608
918	0.8367
927	0.7575
936	0.6358
945	0.7116
954	0.7958
963	0.7963
972	0.7796
981	0.7358
990	0.6448
999	0.5408
1008	0.4357
1017	0.4309
1026	0.5681
1035	0.5105
1044	0.5123
1053	0.6402
1062	0.6896
1071	0.7313
1080	0.7701
1089	0.7242
1098	0.4048
1107	0.7029
1116	0.6926
1125	0.7237
1134	0.7433
1143	0.6815
1152	0.4089
1161	0.2859
1170	0.6298
1179	0.4184
1188	0.3675
1197	0.5366
1206	0.5846
1215	0.4641
1224	0.2702
1233	0.0752
1242	0.038
1251	0.21
1260	0.4383
1269	0.4532
1278	0.1832
1287	0.1031
1296	0.2347
1305	0.4497
1314	0.7031
1323	0.7726
1332	0.7907
1341	0.7904
1350	0.7829
1359	0.7518
1368	0.6342
1377	0.32
1386	0.2815
1395	0.4827
1404	0.6848
1413	0.7394
1422	0.7256
1431	0.6493
1440	0.5524
1449	0.2935
1458	0.1306
1467	0.2171
1476	0.2404
1485	0.1679
1494	0.6006
1503	0.7237
1512	0.7853
1521	0.8125
1530	0.8275
1539	0.8315
1548	0.8254
1557	0.8
1566	0.766
1575	0.6447
1584	0.4378
1593	0.2655
1602	0.0413
1611	0.3188
1620	0.6434
1629	0.7119
1638	0.6629
1647	0.5963
1656	0.5657
1665	0.527
1674	0.3754
1683	0.1834
1692	0.0277
1701	0.2223
1710	0.5142
1719	0.7384
1728	0.7767
1737	0.8057
1746	0.815
1755	0.8323
1764	0.8477
1773	0.8606
1782	0.8689
1791	0.8621
1800	0.8614
1809	0.8647
1818	0.8692
1827	0.8753
1836	0.8814
1845	0.8853
1854	0.8862
1863	0.8856
1872	0.8835
1881	0.8794
1890	0.8754
1899	0.8715
1908	0.8677
1917	0.8639
1926	0.859
1935	0.8597
1944	0.8639
1953	0.867
1962	0.8698
1971	0.8708
1980	0.8693
1989	0.8672
1998	0.8666
2007	0.87
2016	0.871
2025	0.8707
2034	0.8702
2043	0.873
2052	0.8776
2061	0.8799
2070	0.8812
2079	0.8831
2088	0.8854
2097	0.8874
2106	0.8888
2115	0.8902
2124	0.8914
2133	0.8924
2142	0.8932
2151	0.8932
2160	0.8932
2169	0.8928
2178	0.892
2187	0.8912
2196	0.8903
2205	0.8891
2214	0.8879
2223	0.8868
2232	0.8856
2241	0.8842
2250	0.8828
2259	0.8813
2268	0.8799
2277	0.8786
2286	0.8778
2295	0.877
2304	0.8762
2313	0.8754
2322	0.8747
2331	0.8742
2340	0.8738
2349	0.8733
2358	0.873
2367	0.8731
2376	0.8731
2385	0.8732
2394	0.8733
2403	0.8732
2412	0.8729
2421	0.8726
2430	0.8723
2439	0.8716
2448	0.8698
2457	0.868
2466	0.8669
2475	0.8672
2484	0.8676
2493	0.8688
2502	0.8684
2511	0.867
2520	0.8657
2529	0.8644
2538	0.8622
2547	0.8597
2556	0.8572
2565	0.8548
2574	0.8523
2583	0.8494
2592	0.8467
2601	0.8439
2610	0.8412
2619	0.8383
2628	0.8353
2637	0.8324
2646	0.8295
2655	0.8265
2664	0.823
2673	0.8195
2682	0.816
2691	0.8125
2700	0.8073
2709	0.7997
2718	0.7894
2727	0.7688
2736	0.7489
2745	0.7469
2754	0.7604
2763	0.7747
2772	0.7779
2781	0.7772
2790	0.7741
2799	0.7659
2808	0.7485
2817	0.7247
2826	0.6421
2835	0.5124
2844	0.3835
2853	0.2694
2862	0.2718
2871	0.3022
2880	0.3324
2889	0.3407
2898	0.3008
2907	0.2395
2916	0.1785
2925	0.1551
2934	0.156
2943	0.1884
2952	0.2102
2961	0.23
2970	0.3514
2979	0.5795
2988	0.7146
2997	0.7459
3006	0.7601
3015	0.7659
3024	0.7687
3033	0.7709
3042	0.7723
3051	0.7729
3060	0.7735
3069	0.7742
3078	0.7823
3087	0.8077
3096	0.8389
3105	0.8496
3114	0.8567
3123	0.8592
3132	0.8614
3141	0.8635
3150	0.8657
3159	0.8678
3168	0.8699
3177	0.8712
3186	0.872
3195	0.8728
3204	0.8731
3213	0.873
3222	0.8729
3231	0.8728
3240	0.8726
3249	0.8716
3258	0.8704
3267	0.8691
3276	0.8678
3285	0.8658
3294	0.8633
3303	0.8609
3312	0.8579
3321	0.8549
3330	0.8551
3339	0.8563
3348	0.8581
3357	0.8613
3366	0.8671
3375	0.872
3384	0.8752
3393	0.8771
3402	0.8781
3411	0.8791
3420	0.8799
3429	0.8799
3438	0.88
3447	0.8801
3456	0.8802
3465	0.8802
3474	0.8802
3483	0.8802
3492	0.8802
3501	0.8802
3510	0.8803
3519	0.8806
3528	0.8808
3537	0.8811
3546	0.8813
3555	0.8816
3564	0.8819
3573	0.8822
3582	0.8826
3591	0.8831
3600	0.8835
3609	0.884
3618	0.8845
3627	0.8849
3636	0.8853
3645	0.8858
3654	0.8862
3663	0.8864
3672	0.8867
3681	0.8869
3690	0.8871
3699	0.887
3708	0.8868
3717	0.8865
3726	0.8861
3735	0.8859
3744	0.8856
3753	0.8854
3762	0.8851
3771	0.8848
3780	0.8846
3789	0.8843
3798	0.8841
3807	0.8838
3816	0.8836
3825	0.8834
3834	0.8832
3843	0.8831
3852	0.883
3861	0.8828
3870	0.8826
3879	0.8826
3888	0.8825
3897	0.8824
3906	0.8823
3915	0.8822
3924	0.8821
3933	0.882
3942	0.8819
3951	0.8818
3960	0.8818
3969	0.8816
3978	0.8816
3987	0.8815
3996	0.8814
