Infrared Spectrum: 1,3,5-TRIISOPROPYL BENZENE
Formula: C15 H24
CAS: 717-74-8
State: LIQUID
Class: COBLENTZ
Instrument: PERKIN-ELMER
Sampling: TRANSMISSION
Path length: 0.0024 CM
Resolution: 4
Origin: STANDARD OIL OF OHIO
1/CM	TRANSMITTANCE
594.808	0.585
603.261	0.578
611.714	0.578
620.167	0.5839
628.62	0.5919
637.073	0.6089
645.527	0.6395
653.98	0.6647
662.433	0.6955
670.886	0.7154
679.339	0.7358
687.792	0.7616
696.245	0.7738
704.698	0.7444
713.151	0.2883
721.604	0.3936
730.057	0.8076
738.51	0.8415
746.964	0.8567
755.417	0.8687
763.87	0.8757
772.323	0.879
780.776	0.882
789.229	0.882
797.682	0.887
806.135	0.889
814.588	0.8619
823.041	0.8048
831.494	0.7452
839.948	0.8556
848.401	0.8744
856.854	0.852
865.307	0.7052
873.76	0.061
882.213	0.6653
890.666	0.7737
899.119	0.8454
907.572	0.8508
916.025	0.8064
924.478	0.6243
932.931	0.5734
941.385	0.4749
949.838	0.663
958.291	0.7678
966.744	0.8473
975.197	0.878
983.65	0.886
992.103	0.882
1000.56	0.8833
1009.01	0.886
1017.46	0.8827
1025.92	0.882
1034.37	0.879
1042.82	0.8715
1051.27	0.8253
1059.73	0.7382
1068.18	0.723
1076.63	0.6577
1085.09	0.7779
1093.54	0.6327
1101.99	0.5874
1110.45	0.5951
1118.9	0.7996
1127.35	0.831
1135.81	0.831
1144.26	0.8099
1152.71	0.8216
1161.16	0.856
1169.62	0.849
1178.07	0.7802
1186.52	0.4475
1194.98	0.6618
1203.43	0.8474
1211.88	0.864
1220.34	0.867
1228.79	0.8581
1237.24	0.8263
1245.7	0.6845
1254.15	0.7618
1262.6	0.7977
1271.05	0.7702
1279.51	0.8204
1287.96	0.7918
1296.41	0.6754
1304.87	0.4711
1313.32	0.3945
1321.77	0.5635
1330.23	0.691
1338.68	0.707
1347.13	0.6601
1355.59	0.4143
1364.04	0.3826
1372.49	0.5402
1380.95	0.271
1389.4	0.6289
1397.85	0.7197
1406.3	0.7187
1414.76	0.6946
1423.21	0.6395
1431.66	0.608
1440.12	0.4234
1448.57	0.2292
1457.02	0.1477
1465.48	0.0737
1473.93	0.1476
1482.38	0.5757
1490.84	0.7549
1499.29	0.8119
1507.74	0.8539
1516.19	0.8565
1524.65	0.8208
1533.1	0.8336
1541.55	0.8874
1550.01	0.891
1558.46	0.8852
1566.91	0.8786
1575.37	0.8574
1583.82	0.7803
1592.27	0.6091
1600.73	0.2418
1609.18	0.0904
1617.63	0.5819
1626.08	0.8107
1634.54	0.8775
1642.99	0.8912
1651.44	0.9012
1659.9	0.904
1668.35	0.903
1676.8	0.901
1685.26	0.899
1693.71	0.9059
1702.16	0.904
1710.62	0.906
1719.07	0.904
1727.52	0.9079
1735.97	0.899
1744.43	0.8858
1752.88	0.8303
1761.33	0.7269
1769.79	0.8479
1778.24	0.782
1786.69	0.877
1795.15	0.901
1803.6	0.916
1812.05	0.916
1820.51	0.9199
1828.96	0.923
1837.41	0.921
1845.86	0.921
1854.32	0.923
1862.77	0.925
1871.22	0.923
1879.68	0.925
1888.13	0.925
1896.58	0.925
1905.04	0.925
1913.49	0.925
1921.94	0.925
1930.4	0.923
1938.85	0.923
1947.3	0.923
1955.76	0.923
1964.21	0.921
1972.66	0.92
1981.11	0.918
1989.57	0.918
1998.02	0.9093
2006.47	0.9197
2014.93	0.92
2023.38	0.92
2031.83	0.92
2040.29	0.921
2048.74	0.921
2057.19	0.921
2065.65	0.92
2074.1	0.92
2082.55	0.921
2091	0.921
2099.46	0.921
2107.91	0.921
2116.36	0.921
2124.82	0.92
2133.27	0.92
2141.72	0.92
2150.18	0.92
2158.63	0.921
2167.08	0.921
2175.54	0.918
2183.99	0.913
2192.44	0.913
2200.89	0.915
2209.35	0.915
2217.8	0.9158
2226.25	0.9152
2234.71	0.915
2243.16	0.9102
2251.61	0.908
2260.07	0.913
2268.52	0.913
2276.97	0.911
2285.43	0.9032
2293.88	0.9057
2302.33	0.9096
2310.78	0.9127
2319.24	0.915
2327.69	0.915
2336.14	0.915
2344.6	0.915
2353.05	0.9114
2361.5	0.9013
2369.96	0.8982
2378.41	0.896
2386.86	0.899
2395.32	0.9007
2403.77	0.904
2412.22	0.906
2420.67	0.908
2429.13	0.91
2437.58	0.91
2446.03	0.91
2454.49	0.9044
2462.94	0.899
2471.39	0.8956
2479.85	0.901
2488.3	0.898
2496.75	0.901
2505.21	0.904
2513.66	0.906
2522.11	0.906
2530.57	0.904
2539.02	0.903
2547.47	0.901
2555.92	0.899
2564.38	0.8943
2572.83	0.8844
2581.28	0.8707
2589.74	0.8513
2598.19	0.84
2606.64	0.8563
2615.1	0.8733
2623.55	0.8806
2632	0.8837
2640.46	0.8886
2648.91	0.8862
2657.36	0.884
2665.81	0.884
2674.27	0.8868
2682.72	0.891
2691.17	0.889
2699.63	0.8843
2708.08	0.8707
2716.53	0.8389
2724.99	0.8285
2733.44	0.8446
2741.89	0.862
2750.35	0.8525
2758.8	0.8214
2767.25	0.8325
2775.7	0.835
2784.16	0.83
2792.61	0.8214
2801.06	0.7907
2809.52	0.7405
2817.97	0.738
2826.42	0.721
2834.88	0.7097
2843.33	0.6675
2851.78	0.5652
2860.24	0.407
2868.69	0.1862
2877.14	0.0325
2885.59	0.0709
2894.05	0.0612
2902.5	0.0687
2910.95	0.0806
2919.41	0.0847
2927.86	0.0504
2936.31	0.0253
2944.77	0.0278
2953.22	0.0237
2961.67	0.01
2970.13	0.01
2978.58	0.0108
2987.03	0.1284
2995.48	0.3465
3003.94	0.444
3012.39	0.465
3020.84	0.3858
3029.3	0.3803
3037.75	0.5057
3046.2	0.6156
3054.66	0.623
3063.11	0.6367
3071.56	0.715
3080.02	0.7869
3088.47	0.8371
3096.92	0.8546
3105.37	0.8598
3113.83	0.86
3122.28	0.865
3130.73	0.8686
3139.19	0.872
3147.64	0.8692
3156.09	0.867
3164.55	0.8592
3173	0.8503
3181.45	0.84
3189.91	0.8333
3198.36	0.833
3206.81	0.8367
3215.27	0.8428
3223.72	0.8528
3232.17	0.8633
3240.62	0.8717
3249.08	0.879
3257.53	0.882
3265.98	0.886
3274.44	0.889
3282.89	0.893
3291.34	0.8957
3299.8	0.899
3308.25	0.898
3316.7	0.898
3325.16	0.898
3333.61	0.898
3342.06	0.898
3350.51	0.899
3358.97	0.899
3367.42	0.899
3375.87	0.899
3384.33	0.8982
3392.78	0.8982
3401.23	0.896
3409.69	0.896
3418.14	0.896
3426.59	0.898
3435.05	0.898
3443.5	0.899
3451.95	0.8982
3460.4	0.899
3468.86	0.898
3477.31	0.896
3485.76	0.896
3494.22	0.891
3502.67	0.891
3511.12	0.891
3519.58	0.8938
3528.03	0.898
3536.48	0.8964
3544.94	0.898
3553.39	0.899
3561.84	0.899
3570.29	0.8988
3578.75	0.898
3587.2	0.8938
3595.65	0.899
3604.11	0.899
3612.56	0.903
3621.01	0.904
3629.47	0.903
3637.92	0.903
3646.37	0.9032
3654.83	0.901
3663.28	0.901
3671.73	0.8994
3680.18	0.9007
3688.64	0.899
3697.09	0.899
3705.54	0.899
3714	0.899
3722.45	0.899
3730.9	0.899
3739.36	0.899
3747.81	0.899
3756.26	0.8982
3764.72	0.898
3773.17	0.8964
3781.62	0.889
3790.08	0.887
3798.53	0.886
3806.98	0.881
3815.43	0.881
3823.89	0.881
3832.34	0.8837
3840.79	0.884
3849.25	0.884
3857.7	0.884
3866.15	0.884
3874.61	0.882
3883.06	0.8837
3891.51	0.884
3899.97	0.884
3908.42	0.884
3916.87	0.8837
3925.32	0.886
3933.78	0.886
