Infrared Spectrum: ENDRIN
Formula: C12 H8 Cl6 O
CAS: 72-20-8
State: SOLUTION (10% IN CCl4 FOR 3800-1330, 10% IN CS2 FOR 1330-400 CM^-^1) VS SOLVENT
Class: COBLENTZ II
Instrument: DOW KBr FOREPRISM-GRATING
Instrument parameters: BLAZED AT 3.5, 12.0, 20.0 MICRON, CHANGED AT 5.0, 7.5, 14.9 MICRON
Sampling: TRANSMISSION
Path length: 0.011, 0.012 CM
Resolution: 4
Origin: DOW CHEMICAL COMPANY
1/CM	TRANSMITTANCE
388.571	0.995
397.142	0.992
405.714	0.991
414.285	0.988
422.857	0.986
431.428	0.986
440	0.988
448.571	0.991
457.143	0.985
465.714	0.935
474.285	0.958
482.857	1.013
491.428	1.013
500	1.01
508.571	1.013
517.143	1.008
525.714	1.001
534.285	0.986
542.857	0.98
551.428	0.955
560	0.723
568.571	0.936
577.143	0.8443
585.714	0.964
594.286	0.992
602.857	0.967
611.428	0.972
620	0.98
628.571	1.001
637.143	1
645.714	0.992
654.286	0.985
662.857	0.983
671.428	0.964
680	0.8522
688.571	0.6516
697.143	0.966
705.714	0.958
714.286	0.913
722.857	0.6021
731.429	0.8418
740	0.919
748.571	0.7881
757.143	0.129
765.714	0.9569
774.286	0.969
782.857	0.985
791.429	0.989
800	0.982
808.571	0.858
817.143	0.966
825.714	0.973
834.286	0.95
842.857	0.8831
851.429	0.5822
860	0.5065
868.572	0.942
877.143	0.897
885.714	0.6381
894.286	0.398
902.857	0.842
911.429	0.379
920	0.8569
928.572	0.958
937.143	0.932
945.714	0.7041
954.286	0.7831
962.857	0.902
971.429	0.926
980	0.75
988.572	0.852
997.143	0.854
1005.71	0.6422
1014.29	0.6687
1022.86	0.854
1031.43	0.7791
1040	0.488
1048.57	0.3011
1057.14	0.701
1065.71	0.786
1074.29	0.554
1082.86	0.7039
1091.43	0.848
1100	0.81
1108.57	0.748
1117.14	0.533
1125.71	0.882
1134.29	0.857
1142.86	0.901
1151.43	0.917
1160	0.9
1168.57	0.8321
1177.14	0.5771
1185.71	0.6328
1194.29	0.911
1202.86	0.944
1211.43	0.952
1220	0.938
1228.57	0.801
1237.14	0.861
1245.71	0.85
1254.29	0.7263
1262.86	0.87
1271.43	0.877
1280	0.855
1288.57	0.7951
1297.14	0.545
1305.71	0.939
1314.29	0.957
1322.86	0.966
1331.43	0.964
1340	0.955
1348.57	0.927
1357.14	0.911
1365.71	0.892
1374.29	0.7221
1382.86	0.9
1391.43	0.938
1400	0.938
1408.57	0.938
1417.14	0.963
1425.72	0.972
1434.29	0.972
1442.86	0.963
1451.43	0.914
1460	0.8854
1468.57	0.964
1477.14	0.976
1485.72	0.982
1494.29	0.983
1502.86	0.992
1511.43	0.992
1520	1
1528.57	1.001
1537.14	1.008
1545.72	1.007
1554.29	1.001
1562.86	0.991
1571.43	0.986
1580	0.983
1588.57	0.941
1597.14	0.6921
1605.72	0.8748
1614.29	0.977
1622.86	0.979
1631.43	0.979
1640	0.988
1648.57	0.988
1657.14	0.986
1665.72	0.983
1674.29	0.982
1682.86	0.991
1691.43	0.994
1700	0.991
1708.57	0.986
1717.14	0.991
1725.72	0.989
1734.29	0.989
1742.86	0.957
1751.43	0.914
1760	0.952
1768.57	0.991
1777.14	0.994
1785.72	0.995
1794.29	0.997
1802.86	0.995
1811.43	0.995
1820	0.997
1828.57	0.997
1837.14	0.997
1845.72	0.995
1854.29	0.992
1862.86	0.995
1871.43	0.997
1880	0.994
1888.57	0.995
1897.14	0.995
1905.72	0.994
1914.29	0.994
1922.86	0.994
1931.43	0.995
1940	0.992
1948.57	0.991
1957.14	0.986
1965.72	0.991
1974.29	0.986
1982.86	0.982
1991.43	0.969
2000	0.983
2008.57	0.986
2017.14	0.989
2025.72	0.991
2034.29	0.989
2042.86	0.988
2051.43	0.986
2060	0.986
2068.57	0.985
2077.14	0.985
2085.72	0.986
2094.29	0.9886
2102.86	0.989
2111.43	0.988
2120	0.988
2128.57	0.988
2137.14	0.988
2145.72	0.9854
2154.29	0.9863
2162.86	0.986
2171.43	0.988
2180	0.9867
2188.57	0.988
2197.14	0.9903
2205.72	0.991
2214.29	0.991
2222.86	0.989
2231.43	0.988
2240	0.988
2248.57	0.986
2257.14	0.988
2265.72	0.989
2274.29	0.9894
2282.86	0.991
2291.43	0.992
2300	0.994
2308.57	0.997
2317.14	0.997
2325.72	1
2334.29	1
2342.86	0.998
2351.43	0.997
2360	0.994
2368.57	0.991
2377.14	0.9887
2385.72	0.988
2394.29	0.988
2402.86	0.988
2411.43	0.9853
2420	0.988
2428.57	0.988
2437.14	0.988
2445.72	0.988
2454.29	0.986
2462.86	0.986
2471.43	0.986
2480	0.9886
2488.57	0.988
2497.14	0.988
2505.72	0.988
2514.29	0.988
2522.86	0.9861
2531.43	0.988
2540	0.9909
2548.57	0.989
2557.14	0.989
2565.72	0.991
2574.29	0.991
2582.86	0.991
2591.43	0.992
2600	0.992
2608.57	0.991
2617.14	0.992
2625.72	0.992
2634.29	0.994
2642.86	0.994
2651.43	0.994
2660	0.994
2668.57	0.992
2677.14	0.994
2685.72	0.994
2694.29	0.994
2702.86	0.995
2711.43	0.995
2720	0.995
2728.57	0.9941
2737.15	0.995
2745.72	0.997
2754.29	0.997
2762.86	0.997
2771.43	0.9957
2780	0.995
2788.57	0.994
2797.15	0.994
2805.72	0.992
2814.29	0.994
2822.86	0.995
2831.43	0.997
2840	0.997
2848.57	0.9966
2857.15	0.995
2865.72	0.994
2874.29	0.9913
2882.86	0.9737
2891.43	0.9436
2900	0.957
2908.57	0.983
2917.15	0.985
2925.72	0.9822
2934.29	0.9742
2942.86	0.9484
2951.43	0.906
2960	0.8296
2968.57	0.776
2977.15	0.6978
2985.72	0.6308
2994.29	0.7107
3002.86	0.8989
3011.43	0.9192
3020	0.8883
3028.57	0.9324
3037.15	0.9681
3045.72	0.9825
3054.29	0.9619
3062.86	0.9177
3071.43	0.9227
3080	0.9681
3088.57	0.9922
3097.15	0.997
3105.72	0.998
3114.29	0.998
3122.86	1
3131.43	1.001
3140	1.001
3148.57	1.001
3157.15	1.001
3165.72	1.001
3174.29	1.001
3182.86	1.001
3191.43	1.001
3200	1.001
3208.57	1.001
3217.15	1.001
3225.72	1.001
3234.29	1.001
3242.86	1.001
3251.43	1.0021
3260	1.004
3268.57	1.004
3277.15	1.004
3285.72	1.004
3294.29	1.0028
3302.86	1.002
3311.43	1.002
3320	1.002
3328.57	1.002
3337.15	1.004
3345.72	1.005
3354.29	1.005
3362.86	1.005
3371.43	1.005
3380	1.005
3388.57	1.005
3397.15	1.0043
3405.72	1.004
3414.29	1.002
3422.86	1.001
3431.43	1.001
3440	1.001
3448.57	1
3457.15	1
3465.72	1
3474.29	0.998
3482.86	0.997
3491.43	0.9948
3500	0.994
3508.57	0.9935
3517.15	0.992
3525.72	0.991
3534.29	0.991
3542.86	0.991
3551.43	0.991
3560	0.989
3568.57	0.989
3577.15	0.988
3585.72	0.9906
3594.29	0.989
3602.86	0.9882
3611.43	0.9873
3620	0.986
3628.57	0.9854
3637.15	0.986
3645.72	0.9856
3654.29	0.985
3662.86	0.986
3671.43	0.986
3680	0.983
3688.57	0.983
3697.15	0.9854
3705.72	0.985
3714.29	0.985
3722.86	0.983
3731.43	0.982
3740	0.985
3748.57	0.982
3757.15	0.983
3765.72	0.9806
