Infrared Spectrum: ETHANE, 1,1-DICHLORO-2,2-BIS(4-CHLOROPHENYL)-
Formula: C14 H10 Cl4
CAS: 72-54-8
State: SOLUTION (10% CCl4 FOR 3800-1330, 10% CS2 FOR 1330-450 CM^-^1)
Class: COBLENTZ III
Instrument: Not specified, most likely a prism, grating, or hybrid spectrometer.
Sampling: TRANSMISSION
Path length: 0.011 CM, 0.012 CM
Resolution: 4
Origin: DOW CHEMICAL COMPANY
1/CM	TRANSMITTANCE
455.513	0.883
464.638	0.886
473.764	0.881
482.889	0.877
492.015	0.826
501.14	0.762
510.266	0.495
519.391	0.6671
528.517	0.3962
537.642	0.911
546.768	0.996
555.893	1.001
565.019	1.001
574.144	0.989
583.27	0.9071
592.395	0.828
601.521	1.007
610.646	1.001
619.772	0.8442
628.897	0.9359
638.023	0.973
647.148	0.8921
656.274	0.72
665.399	0.7521
674.525	0.858
683.65	0.877
692.776	0.927
701.901	0.7502
711.027	0.7749
720.152	0.913
729.278	0.823
738.403	0.8299
747.529	0.798
756.654	0.1231
765.78	0.047
774.905	0.396
784.031	0.8259
793.156	0.7451
802.282	0.3612
811.407	0.543
820.533	0.368
829.658	0.502
838.784	0.736
847.909	0.5641
857.035	0.483
866.16	0.746
875.286	0.782
884.411	0.646
893.537	0.925
902.662	0.962
911.788	0.976
920.913	0.982
930.039	0.968
939.164	0.8951
948.29	0.955
957.415	0.952
966.541	0.968
975.666	0.978
984.791	0.971
993.917	0.946
1003.04	0.892
1012.17	0.6356
1021.29	0.6945
1030.42	0.9
1039.54	0.874
1048.67	0.932
1057.8	0.948
1066.92	0.948
1076.05	0.89
1085.17	0.734
1094.3	0.104
1103.42	0.509
1112.55	0.699
1121.67	0.8539
1130.8	0.966
1139.92	0.964
1149.05	0.964
1158.18	0.961
1167.3	0.952
1176.43	0.895
1185.55	0.853
1194.68	0.923
1203.8	0.888
1212.93	0.844
1222.05	0.838
1231.18	0.899
1240.31	0.893
1249.43	0.911
1258.56	0.952
1267.68	0.938
1276.81	0.906
1285.93	0.92
1295.06	0.946
1304.18	0.939
1313.31	0.945
1322.43	0.936
1331.56	0.93
1340.69	0.939
1349.81	0.943
1358.94	0.964
1368.06	0.98
1377.19	0.971
1386.31	0.95
1395.44	0.92
1404.56	0.686
1413.69	0.6671
1422.82	0.93
1431.94	0.946
1441.07	0.92
1450.19	0.909
1459.32	0.876
1468.44	0.807
1477.57	0.819
1486.69	0.4351
1495.82	0.0241
1504.94	0.695
1514.07	0.684
1523.2	0.663
1532.32	0.596
1541.45	0.504
1550.57	0.5
1559.7	0.584
1568.82	0.64
1577.95	0.651
1587.07	0.647
1596.2	0.6351
1605.32	0.842
1614.45	0.9
1623.58	0.922
1632.7	0.968
1641.83	0.98
1650.95	0.971
1660.08	0.969
1669.2	0.957
1678.33	0.961
1687.45	0.973
1696.58	0.975
1705.71	0.969
1714.83	0.969
1723.96	0.968
1733.08	0.962
1742.21	0.961
1751.33	0.957
1760.46	0.952
1769.58	0.932
1778.71	0.938
1787.83	0.955
1796.96	0.962
1806.09	0.964
1815.21	0.969
1824.34	0.966
1833.46	0.966
1842.59	0.962
1851.71	0.964
1860.84	0.962
1869.96	0.957
1879.09	0.941
1888.22	0.881
1897.34	0.849
1906.47	0.939
1915.59	0.964
1924.72	0.971
1933.84	0.971
1942.97	0.975
1952.09	0.971
1961.22	0.973
1970.34	0.973
1979.47	0.973
1988.6	0.973
1997.72	0.968
2006.85	0.964
2015.97	0.966
2025.1	0.966
2034.22	0.968
2043.35	0.971
2052.47	0.9693
2061.6	0.969
2070.72	0.971
2079.85	0.973
2088.98	0.971
2098.1	0.971
2107.23	0.973
2116.35	0.975
2125.48	0.9748
2134.6	0.975
2143.73	0.975
2152.85	0.975
2161.98	0.973
2171.11	0.973
2180.23	0.973
2189.36	0.971
2198.48	0.971
2207.61	0.969
2216.73	0.971
2225.86	0.9694
2234.98	0.968
2244.11	0.968
2253.23	0.9644
2262.36	0.961
2271.49	0.9527
2280.61	0.9387
2289.74	0.9345
2298.86	0.9335
2307.99	0.945
2317.11	0.9545
2326.24	0.959
2335.36	0.9634
2344.49	0.964
2353.62	0.966
2362.74	0.968
2371.87	0.968
2380.99	0.968
2390.12	0.969
2399.24	0.969
2408.37	0.969
2417.49	0.969
2426.62	0.969
2435.74	0.9703
2444.87	0.9723
2454	0.9742
2463.12	0.975
2472.25	0.973
2481.37	0.973
2490.5	0.973
2499.62	0.973
2508.75	0.973
2517.87	0.975
2527	0.975
2536.12	0.975
2545.25	0.975
2554.38	0.9739
2563.5	0.973
2572.63	0.969
2581.75	0.967
2590.88	0.966
2600	0.974
2609.13	0.9755
2618.25	0.978
2627.38	0.9789
2636.51	0.98
2645.63	0.9831
2654.76	0.982
2663.88	0.982
2673.01	0.982
2682.13	0.982
2691.26	0.982
2700.38	0.9788
2709.51	0.9808
2718.63	0.9832
2727.76	0.982
2736.89	0.98
2746.01	0.98
2755.14	0.9833
2764.26	0.98
2773.39	0.98
2782.51	0.98
2791.64	0.98
2800.76	0.98
2809.89	0.984
2819.02	0.982
2828.14	0.984
2837.27	0.9834
2846.39	0.982
2855.52	0.978
2864.64	0.976
2873.77	0.9745
2882.89	0.971
2892.02	0.973
2901.14	0.975
2910.27	0.9698
2919.4	0.962
2928.52	0.964
2937.65	0.9784
2946.77	0.984
2955.9	0.98
2965.02	0.9758
2974.15	0.9599
2983.27	0.9204
2992.4	0.9162
3001.53	0.9438
3010.65	0.9693
3019.78	0.9466
3028.9	0.8784
3038.03	0.8729
3047.15	0.899
3056.28	0.9234
3065.4	0.957
3074.53	0.9529
3083.65	0.944
3092.78	0.93
3101.91	0.9506
3111.03	0.9643
3120.16	0.9821
3129.28	0.987
3138.41	0.989
3147.53	0.992
3156.66	0.994
3165.78	0.996
3174.91	1
3184.03	1
3193.16	1
3202.29	1.003
3211.41	1.007
3220.54	1.008
3229.66	1.008
3238.79	1.008
3247.91	1.012
3257.04	1.015
3266.16	1.0189
3275.29	1.021
3284.42	1.0239
3293.54	1.024
3302.67	1.0298
3311.79	1.03
3320.92	1.028
3330.04	1.028
3339.17	1.03
3348.29	1.03
3357.42	1.0309
3366.54	1.035
3375.67	1.037
3384.8	1.037
3393.92	1.0353
3403.05	1.035
3412.17	1.0314
3421.3	1.028
3430.42	1.0244
3439.55	1.0232
3448.67	1.0226
3457.8	1.019
3466.93	1.0154
3476.05	1.0142
3485.18	1.0085
3494.3	1.007
3503.43	1.0035
3512.55	1.001
3521.68	1.001
3530.8	1.0003
3539.93	1.001
3549.05	1.0016
3558.18	1
3567.31	1
3576.43	0.9946
3585.56	1
3594.68	0.998
3603.81	0.996
3612.93	0.996
3622.06	0.9967
3631.18	0.996
3640.31	0.996
3649.43	0.992
3658.56	0.992
3667.69	0.992
3676.81	0.994
3685.94	0.992
3695.06	0.9928
3704.19	0.9887
3713.31	0.989
3722.44	0.9916
3731.56	0.994
3740.69	0.9962
3749.82	0.9949
3758.94	0.9915
3768.07	0.993
3777.19	0.993
3786.32	0.994
