Infrared Spectrum: PERTHANE
Formula: C18 H20 Cl2
CAS: 72-56-0
State: FILM FROM C2HCl3 SOLUTION
Melting point: 38 C
Class: COBLENTZ III
Instrument: PERKIN-ELMER 180 (GRATING)
Instrument parameters: GRATINGS: 2000, 1000, 500, 250 CM^-^1; FILTER CHANGE: 2970, 2000, 1485, 1000, 743, 500, 372, 250, 186 CM^-^1.
Sampling: TRANSMISSION
Resolution: 2
Origin: K. K. DEB-NCI FREDERICK CANCER RESEARCH CENTER
1/CM	TRANSMITTANCE
395	0.8885
404	0.9005
413	0.9112
422	0.944
431	0.944
440	0.955
449	0.9152
458	0.8329
467	0.9602
476	0.9671
485	0.9569
494	0.9252
503	0.8502
512	0.3577
521	0.512
530	0.5507
539	0.8242
548	0.8603
557	0.8779
566	0.8405
575	0.8358
584	0.7921
593	0.3392
602	0.0966
611	0.6791
620	0.8292
629	0.8939
638	0.8952
647	0.8738
656	0.8664
665	0.8336
674	0.8275
683	0.778
692	0.5374
701	0.0885
710	0.4565
719	0.382
728	0.3251
737	0.1824
746	0.2149
755	0.0218
764	0.2247
773	0.3685
782	0.5244
791	0.5899
800	0.5824
809	0.341
818	0.0883
827	0.3417
836	0.5837
845	0.6218
854	0.3626
863	0.453
872	0.7259
881	0.5454
890	0.7392
899	0.8567
908	0.8932
917	0.9001
926	0.901
935	0.8949
944	0.8441
953	0.841
962	0.7289
971	0.5668
980	0.7817
989	0.859
998	0.8636
1007	0.8457
1016	0.8018
1025	0.6342
1034	0.7757
1043	0.509
1052	0.6882
1061	0.4307
1070	0.5367
1079	0.8067
1088	0.8275
1097	0.8226
1106	0.7927
1115	0.7096
1124	0.3842
1133	0.5474
1142	0.7988
1151	0.8216
1160	0.8254
1169	0.8198
1178	0.7748
1187	0.6661
1196	0.4725
1205	0.543
1214	0.4191
1223	0.5779
1232	0.703
1241	0.6436
1250	0.6427
1259	0.7432
1268	0.6436
1277	0.7855
1286	0.7728
1295	0.7141
1304	0.752
1313	0.7337
1322	0.659
1331	0.6678
1340	0.7149
1349	0.6222
1358	0.6462
1367	0.6941
1376	0.5119
1385	0.6703
1394	0.6949
1403	0.6863
1412	0.5568
1421	0.1331
1430	0.4171
1439	0.4307
1448	0.2429
1457	0.1773
1466	0.484
1475	0.6607
1484	0.7015
1493	0.6674
1502	0.5204
1511	0.1718
1520	0.352
1529	0.739
1538	0.8011
1547	0.8096
1556	0.8351
1565	0.8322
1574	0.8084
1583	0.7749
1592	0.8323
1601	0.8212
1610	0.7606
1619	0.7709
1628	0.8248
1637	0.7924
1646	0.7438
1655	0.7181
1664	0.7564
1673	0.8036
1682	0.8156
1691	0.7647
1700	0.7571
1709	0.8254
1718	0.8271
1727	0.8372
1736	0.8348
1745	0.8378
1754	0.828
1763	0.8216
1772	0.8242
1781	0.8091
1790	0.7317
1799	0.7872
1808	0.8387
1817	0.844
1826	0.8442
1835	0.8451
1844	0.8416
1853	0.8452
1862	0.8437
1871	0.8308
1880	0.7974
1889	0.7732
1898	0.4781
1907	0.6036
1916	0.7664
1925	0.8188
1934	0.8353
1943	0.8397
1952	0.8388
1961	0.832
1970	0.8323
1979	0.8353
1988	0.8374
1997	0.8388
2006	0.8386
2015	0.8365
2024	0.8327
2033	0.8311
2042	0.8305
2051	0.8322
2060	0.8305
2069	0.8266
2078	0.8249
2087	0.8247
2096	0.8217
2105	0.8256
2114	0.8311
2123	0.8309
2132	0.8305
2141	0.8285
2150	0.8249
2159	0.8215
2168	0.8227
2177	0.8263
2186	0.8265
2195	0.8242
2204	0.8205
2213	0.8164
2222	0.8116
2231	0.8075
2240	0.8081
2249	0.8099
2258	0.812
2267	0.8139
2276	0.8142
2285	0.8107
2294	0.8033
2303	0.7656
2312	0.7733
2321	0.7878
2330	0.7982
2339	0.7983
2348	0.7973
2357	0.7957
2366	0.7942
2375	0.7923
2384	0.7903
2393	0.7881
2402	0.7859
2411	0.7834
2420	0.7805
2429	0.7803
2438	0.7871
2447	0.7935
2456	0.7984
2465	0.7954
2474	0.7918
2483	0.7866
2492	0.7829
2501	0.7812
2510	0.7824
2519	0.7827
2528	0.7809
2537	0.7794
2546	0.7783
2555	0.7791
2564	0.7803
2573	0.7812
2582	0.7803
2591	0.7725
2600	0.7643
2609	0.7589
2618	0.7666
2627	0.7626
2636	0.7574
2645	0.7633
2654	0.7701
2663	0.7757
2672	0.7741
2681	0.7706
2690	0.7668
2699	0.7635
2708	0.7597
2717	0.7399
2726	0.7016
2735	0.7475
2744	0.7493
2753	0.7466
2762	0.7373
2771	0.7266
2780	0.712
2789	0.7028
2798	0.7105
2807	0.7029
2816	0.6702
2825	0.6487
2834	0.6215
2843	0.5943
2852	0.54
2861	0.2094
2870	0.0546
2879	0.2645
2888	0.2976
2897	0.2949
2906	0.2691
2915	0.1621
2924	0.0552
2933	0.0877
2942	0.1802
2951	0.1355
2960	0.0094
2969	0.0413
2978	0.2223
2987	0.2934
2996	0.3715
3005	0.2648
3014	0.2714
3023	0.2341
3032	0.3023
3041	0.3996
3050	0.2904
3059	0.41
3068	0.6058
3077	0.599
3086	0.5563
3095	0.5167
3104	0.6859
3113	0.6891
3122	0.6619
3131	0.6604
3140	0.7023
3149	0.7081
3158	0.711
3167	0.7134
3176	0.7162
3185	0.7192
3194	0.7223
3203	0.7254
3212	0.7287
3221	0.732
3230	0.7343
3239	0.7363
3248	0.7366
3257	0.7361
3266	0.7356
3275	0.7353
3284	0.7351
3293	0.7348
3302	0.7345
3311	0.7342
3320	0.7339
3329	0.7336
3338	0.7333
3347	0.7329
3356	0.7326
3365	0.7322
3374	0.7319
3383	0.7314
3392	0.7311
3401	0.7307
3410	0.7303
3419	0.7293
3428	0.7282
3437	0.7272
3446	0.7263
3455	0.7265
3464	0.7269
3473	0.7271
3482	0.7279
3491	0.7288
3500	0.7298
3509	0.7308
3518	0.7311
3527	0.7309
3536	0.7308
3545	0.7304
3554	0.7293
3563	0.7282
3572	0.727
3581	0.7256
3590	0.7241
3599	0.7225
3608	0.7209
3617	0.7193
3626	0.7175
3635	0.7157
3644	0.7114
3653	0.704
3662	0.6865
3671	0.6867
3680	0.7021
3689	0.7083
3698	0.7086
3707	0.7085
3716	0.707
3725	0.705
3734	0.7032
3743	0.7068
3752	0.7079
3761	0.7025
3770	0.7041
3779	0.7061
3788	0.7081
