Infrared Spectrum: 4,4'-DITHIODIANILINE
Formula: C12 H12 N2 S2
CAS: 722-27-0
State: SOLID (KBr PELLET)
Class: COBLENTZ
Instrument: Not specified, most likely a grating spectrometer.
Sampling: TRANSMISSION
Resolution: 4
Origin: STANDARD OIL OF OHIO
1/CM	TRANSMITTANCE
233.836	0.801
243.288	0.801
252.74	0.799
262.192	0.801
271.644	0.803
281.096	0.804
290.548	0.806
300	0.806
309.452	0.806
318.904	0.803
328.356	0.754
337.808	0.74
347.26	0.722
356.712	0.717
366.164	0.6981
375.616	0.67
385.068	0.606
394.52	0.547
403.972	0.6139
413.424	0.681
422.876	0.68
432.328	0.67
441.78	0.663
451.232	0.649
460.684	0.626
470.136	0.563
479.588	0.609
489.04	0.599
498.492	0.577
507.944	0.526
517.396	0.356
526.848	0.1559
536.3	0.5579
545.752	0.585
555.204	0.569
564.656	0.552
574.108	0.533
583.56	0.52
593.012	0.498
602.464	0.481
611.916	0.468
621.368	0.459
630.82	0.446
640.272	0.439
649.724	0.437
659.176	0.439
668.628	0.444
678.08	0.449
687.532	0.457
696.984	0.464
706.436	0.488
715.888	0.506
725.34	0.538
734.792	0.553
744.244	0.577
753.696	0.597
763.148	0.622
772.6	0.646
782.052	0.661
791.504	0.675
800.956	0.673
810.408	0.649
819.86	0.4241
829.312	0.181
838.764	0.249
848.216	0.5479
857.668	0.676
867.12	0.723
876.572	0.747
886.024	0.759
895.476	0.771
904.928	0.776
914.38	0.782
923.832	0.786
933.284	0.786
942.736	0.786
952.188	0.754
961.64	0.757
971.092	0.786
980.544	0.786
989.996	0.781
999.448	0.776
1008.9	0.752
1018.35	0.749
1027.8	0.744
1037.26	0.735
1046.71	0.723
1056.16	0.717
1065.61	0.686
1075.06	0.607
1084.52	0.5949
1093.97	0.456
1103.42	0.685
1112.87	0.688
1122.32	0.656
1131.78	0.632
1141.23	0.723
1150.68	0.739
1160.13	0.737
1169.58	0.717
1179.04	0.4677
1188.49	0.7018
1197.94	0.76
1207.39	0.762
1216.84	0.762
1226.3	0.759
1235.75	0.74
1245.2	0.727
1254.65	0.702
1264.1	0.622
1273.56	0.4488
1283.01	0.188
1292.46	0.176
1301.91	0.4712
1311.36	0.681
1320.82	0.717
1330.27	0.776
1339.72	0.774
1349.17	0.772
1358.62	0.779
1368.08	0.782
1377.53	0.774
1386.98	0.754
1396.43	0.771
1405.88	0.771
1415.34	0.757
1424.79	0.6559
1434.24	0.7128
1443.69	0.757
1453.14	0.739
1462.6	0.648
1472.05	0.643
1481.5	0.621
1490.95	0.4168
1500.4	0.2397
1509.86	0.715
1519.31	0.737
1528.76	0.727
1538.21	0.707
1547.66	0.681
1557.12	0.654
1566.57	0.597
1576.02	0.547
1585.47	0.3868
1594.92	0.067
1604.38	0.1641
1613.83	0.309
1623.28	0.153
1632.73	0.114
1642.18	0.2741
1651.64	0.496
1661.09	0.582
1670.54	0.651
1679.99	0.7
1689.44	0.723
1698.9	0.754
1708.35	0.776
1717.8	0.786
1727.25	0.787
1736.7	0.786
1746.16	0.787
1755.61	0.789
1765.06	0.791
1774.51	0.799
1783.96	0.804
1793.42	0.816
1802.87	0.816
1812.32	0.814
1821.77	0.811
1831.22	0.809
1840.68	0.811
1850.13	0.811
1859.58	0.806
1869.03	0.801
1878.48	0.789
1887.94	0.764
1897.39	0.71
1906.84	0.769
1916.29	0.787
1925.74	0.796
1935.2	0.799
1944.65	0.797
1954.1	0.794
1963.55	0.791
1973	0.787
1982.46	0.787
1991.91	0.787
2001.36	0.782
2010.81	0.784
2020.26	0.784
2029.72	0.786
2039.17	0.787
2048.62	0.787
2058.07	0.787
2067.52	0.787
2076.98	0.787
2086.43	0.786
2095.88	0.7801
2105.33	0.779
2114.78	0.7829
2124.24	0.784
2133.69	0.782
2143.14	0.7839
2152.59	0.7831
2162.04	0.781
2171.5	0.7781
2180.95	0.777
2190.4	0.777
2199.85	0.777
2209.3	0.777
2218.76	0.777
2228.21	0.777
2237.66	0.777
2247.11	0.776
2256.56	0.776
2266.02	0.7732
2275.47	0.772
2284.92	0.772
2294.37	0.772
2303.82	0.771
2313.28	0.7719
2322.73	0.772
2332.18	0.7692
2341.63	0.769
2351.08	0.7652
2360.54	0.764
2369.99	0.764
2379.44	0.762
2388.89	0.7591
2398.34	0.7562
2407.8	0.7522
2417.25	0.752
2426.7	0.752
2436.15	0.752
2445.6	0.752
2455.06	0.752
2464.51	0.752
2473.96	0.75
2483.41	0.749
2492.86	0.7483
2502.32	0.747
2511.77	0.7463
2521.22	0.745
2530.67	0.7433
2540.12	0.7403
2549.58	0.7333
2559.03	0.7225
2568.48	0.72
2577.93	0.72
2587.38	0.72
2596.84	0.7172
2606.29	0.712
2615.74	0.7166
2625.19	0.72
2634.64	0.7156
2644.1	0.708
2653.55	0.707
2663	0.7064
2672.45	0.702
2681.9	0.7
2691.36	0.7
2700.81	0.7036
2710.26	0.705
2719.71	0.7056
2729.16	0.707
2738.62	0.7014
2748.07	0.698
2757.52	0.698
2766.97	0.696
2776.42	0.7
2785.88	0.698
2795.33	0.6952
2804.78	0.6915
2814.23	0.69
2823.68	0.69
2833.14	0.6845
2842.59	0.6737
2852.04	0.6555
2861.49	0.653
2870.94	0.651
2880.4	0.651
2889.85	0.649
2899.3	0.6483
2908.75	0.6344
2918.2	0.6159
2927.66	0.6018
2937.11	0.6049
2946.56	0.6162
2956.01	0.621
2965.46	0.621
2974.92	0.622
2984.37	0.617
2993.82	0.616
3003.27	0.621
3012.72	0.6169
3022.18	0.5957
3031.63	0.5444
3041.08	0.5792
3050.53	0.5834
3059.98	0.587
3069.44	0.587
3078.89	0.5816
3088.34	0.577
3097.79	0.577
3107.24	0.577
3116.7	0.57
3126.15	0.5623
3135.6	0.55
3145.05	0.547
3154.5	0.5367
3163.96	0.5267
3173.41	0.5051
3182.86	0.4758
3192.31	0.4453
3201.76	0.401
3211.22	0.3586
3220.67	0.338
3230.12	0.3484
3239.57	0.3593
3249.02	0.3721
3258.48	0.373
3267.93	0.3715
3277.38	0.3591
3286.83	0.3376
3296.28	0.3128
3305.74	0.2756
3315.19	0.2348
3324.64	0.1848
3334.09	0.1491
3343.54	0.095
3353	0.1151
3362.45	0.1818
3371.9	0.2188
3381.35	0.2271
3390.8	0.2274
3400.26	0.2229
3409.71	0.2091
3419.16	0.1627
3428.61	0.0803
3438.06	0.0957
3447.51	0.1222
3456.97	0.1822
3466.42	0.222
3475.87	0.2471
3485.32	0.2635
3494.77	0.2894
3504.23	0.3108
3513.68	0.3242
3523.13	0.3378
3532.58	0.3531
3542.03	0.3582
3551.49	0.3703
3560.94	0.3897
3570.39	0.4002
3579.84	0.4147
3589.29	0.4252
3598.75	0.4476
3608.2	0.4621
3617.65	0.4726
3627.1	0.4961
3636.55	0.5126
3646.01	0.5251
3655.46	0.547
3664.91	0.558
3674.36	0.5695
3683.81	0.579
3693.27	0.581
3702.72	0.582
3712.17	0.583
3721.62	0.582
3731.07	0.582
3740.53	0.582
3749.98	0.582
3759.43	0.582
3768.88	0.584
3778.33	0.584
3787.79	0.584
3797.24	0.5801
3806.69	0.574
3816.14	0.574
3825.59	0.574
3835.05	0.572
3844.5	0.572
3853.95	0.572
3863.4	0.572
3872.85	0.572
3882.31	0.5729
3891.76	0.574
