Infrared Spectrum: Glutaric acid, 3-hydroxy-, dimethyl ester
Formula: C7 H12 O5
CAS: 7250-55-7
State: SOLUTION (10% CCl4 FOR 3800-470 CM^-^1)
Class: COBLENTZ III
Instrument: DOW KBr FOREPRISM-GRATING
Instrument parameters: BLAZED AT 3.5, 12.0, 20.0 MICRON AND CHANGED AT 5.0, 7.5, 14.9 MICRON
Sampling: TRANSMISSION
Path length: 0.010 CM
Resolution: 2
Origin: DOW CHEMICAL COMPANY
1/CM	TRANSMITTANCE
465	0.5158
474	0.495
483	0.4917
492	0.4918
501	0.4858
510	0.4817
519	0.4869
528	0.5014
537	0.5264
546	0.5628
555	0.5884
564	0.6163
573	0.6327
582	0.6362
591	0.6168
600	0.598
609	0.6107
618	0.6376
627	0.668
636	0.6887
645	0.7116
654	0.7346
663	0.7669
672	0.7733
681	0.7846
690	0.7832
699	0.7622
708	0.7057
717	0.6491
726	0.6864
735	0.8243
744	0.8121
753	0.7924
762	0.773
771	0.7608
780	0.753
789	0.7344
798	0.7159
807	0.6976
816	0.7112
825	0.7337
834	0.6975
843	0.6049
852	0.6231
861	0.6138
870	0.6037
879	0.6304
888	0.6638
897	0.6575
906	0.7266
915	0.7555
924	0.7981
933	0.8102
942	0.8067
951	0.7911
960	0.762
969	0.7167
978	0.6485
987	0.3563
996	0.1932
1005	0.2775
1014	0.3313
1023	0.457
1032	0.4769
1041	0.299
1050	0.1667
1059	0.23
1068	0.2481
1077	0.2875
1086	0.2847
1095	0.2735
1104	0.3585
1113	0.48
1122	0.5203
1131	0.4507
1140	0.2438
1149	0.0642
1158	0.0346
1167	0.0302
1176	0.0149
1185	0.0391
1194	0.0248
1203	0.0059
1212	0.0237
1221	0.0712
1230	0.102
1239	0.1312
1248	0.1305
1257	0.1116
1266	0.0852
1275	0.0592
1284	0.0945
1293	0.1549
1302	0.2033
1311	0.173
1320	0.1502
1329	0.1491
1338	0.1312
1347	0.1364
1356	0.1893
1365	0.1983
1374	0.204
1383	0.35
1392	0.3767
1401	0.2832
1410	0.232
1419	0.2473
1428	0.298
1437	0.0055
1446	0.1434
1455	0.3346
1464	0.4206
1473	0.6183
1482	0.6886
1491	0.7242
1500	0.7504
1509	0.76
1518	0.7805
1527	0.7982
1536	0.814
1545	0.8303
1554	0.8269
1563	0.8149
1572	0.806
1581	0.8035
1590	0.792
1599	0.776
1608	0.7595
1617	0.7596
1626	0.7617
1635	0.763
1644	0.7625
1653	0.7553
1662	0.7369
1671	0.7085
1680	0.6493
1689	0.5846
1698	0.5015
1707	0.265
1716	0.054
1725	0.0001
1734	0
1743	0
1752	0.0001
1761	0.0855
1770	0.3086
1779	0.4981
1788	0.6127
1797	0.6881
1806	0.7531
1815	0.7801
1824	0.8041
1833	0.8225
1842	0.8304
1851	0.8363
1860	0.8408
1869	0.8425
1878	0.8438
1887	0.8444
1896	0.8449
1905	0.8454
1914	0.8458
1923	0.8465
1932	0.8478
1941	0.8497
1950	0.8518
1959	0.8496
1968	0.8472
1977	0.8415
1986	0.8368
1995	0.8342
2004	0.8622
2013	0.8651
2022	0.8638
2031	0.8603
2040	0.8571
2049	0.8538
2058	0.8538
2067	0.8545
2076	0.854
2085	0.8526
2094	0.8511
2103	0.8564
2112	0.8626
2121	0.8676
2130	0.8717
2139	0.8748
2148	0.8785
2157	0.8804
2166	0.8812
2175	0.8811
2184	0.8809
2193	0.8804
2202	0.8801
2211	0.88
2220	0.8794
2229	0.8785
2238	0.8777
2247	0.8766
2256	0.8755
2265	0.8739
2274	0.8727
2283	0.8712
2292	0.8695
2301	0.8681
2310	0.8678
2319	0.8696
2328	0.872
2337	0.8708
2346	0.8734
2355	0.8795
2364	0.8754
2373	0.869
2382	0.8642
2391	0.8616
2400	0.8625
2409	0.8638
2418	0.865
2427	0.8665
2436	0.8681
2445	0.869
2454	0.87
2463	0.8703
2472	0.8703
2481	0.8701
2490	0.8699
2499	0.8693
2508	0.8709
2517	0.8719
2526	0.8715
2535	0.8709
2544	0.8706
2553	0.8705
2562	0.869
2571	0.8655
2580	0.8608
2589	0.857
2598	0.8547
2607	0.8551
2616	0.8562
2625	0.8572
2634	0.855
2643	0.857
2652	0.8604
2661	0.8627
2670	0.8644
2679	0.8652
2688	0.8654
2697	0.8652
2706	0.8645
2715	0.8634
2724	0.8625
2733	0.8619
2742	0.8633
2751	0.8661
2760	0.8667
2769	0.8659
2778	0.8639
2787	0.8608
2796	0.8559
2805	0.8486
2814	0.8405
2823	0.83
2832	0.8113
2841	0.7704
2850	0.6657
2859	0.7335
2868	0.7716
2877	0.767
2886	0.7196
2895	0.6693
2904	0.6075
2913	0.5972
2922	0.5659
2931	0.5453
2940	0.5343
2949	0.3731
2958	0.1715
2967	0.4243
2976	0.5945
2985	0.5963
2994	0.5464
3003	0.4889
3012	0.5535
3021	0.6092
3030	0.6101
3039	0.7176
3048	0.7776
3057	0.8041
3066	0.8176
3075	0.826
3084	0.8322
3093	0.8387
3102	0.843
3111	0.8462
3120	0.8489
3129	0.8509
3138	0.8523
3147	0.8526
3156	0.8524
3165	0.8524
3174	0.8523
3183	0.8521
3192	0.8518
3201	0.8513
3210	0.8502
3219	0.8492
3228	0.8474
3237	0.8452
3246	0.8416
3255	0.8375
3264	0.8327
3273	0.8273
3282	0.8215
3291	0.815
3300	0.8079
3309	0.8008
3318	0.7941
3327	0.7862
3336	0.7751
3345	0.7614
3354	0.7439
3363	0.7261
3372	0.7081
3381	0.6884
3390	0.6681
3399	0.6446
3408	0.6181
3417	0.5955
3426	0.574
3435	0.5515
3444	0.5273
3453	0.5023
3462	0.4838
3471	0.4653
3480	0.4441
3489	0.4277
3498	0.4136
3507	0.3963
3516	0.3842
3525	0.3742
3534	0.3744
3543	0.3844
3552	0.4189
3561	0.4563
3570	0.507
3579	0.5671
3588	0.6178
3597	0.6582
3606	0.7069
3615	0.7427
3624	0.7797
3633	0.8054
3642	0.8246
3651	0.8377
3660	0.8452
3669	0.8482
3678	0.8501
3687	0.8524
3696	0.8639
3705	0.8706
3714	0.8737
3723	0.875
3732	0.8757
3741	0.8758
3750	0.8736
3759	0.8756
3768	0.8754
3777	0.8753
3786	0.8753
3795	0.8746
