Infrared Spectrum: 4,4'-Dimethoxydiphenylmethane
Formula: C15 H16 O2
CAS: 726-18-1
State: FILM FROM C2HCl3 SOLUTION
Melting point: 47 C
Class: COBLENTZ II
Instrument: PERKIN-ELMER 180 (GRATING)
Instrument parameters: GRATINGS: 2000, 1000, 500, 250 CM^-^1; FILTER CHANGE: 2970, 2000, 1485, 1000, 743, 500, 372, 250, 186 CM^-^1.
Sampling: TRANSMISSION
Resolution: 2
Origin: K. K. DEB-NCI FREDERICK CANCER RESEARCH CENTER
1/CM	TRANSMITTANCE
362	0.8567
371	0.8803
380	0.886
389	0.8882
398	0.888
407	0.8859
416	0.8724
425	0.8656
434	0.8695
443	0.8817
452	0.8828
461	0.8738
470	0.8562
479	0.8588
488	0.8507
497	0.811
506	0.6319
515	0.385
524	0.6228
533	0.719
542	0.7526
551	0.8039
560	0.7606
569	0.602
578	0.2635
587	0.5787
596	0.7869
605	0.8156
614	0.8462
623	0.8692
632	0.8604
641	0.789
650	0.8826
659	0.8867
668	0.8866
677	0.8861
686	0.8798
695	0.8466
704	0.821
713	0.8007
722	0.8471
731	0.7932
740	0.7296
749	0.584
758	0.4381
767	0.5208
776	0.7524
785	0.7734
794	0.7351
803	0.5686
812	0.0535
821	0.2239
830	0.4051
839	0.3578
848	0.4749
857	0.3642
866	0.7184
875	0.7895
884	0.812
893	0.8214
902	0.7824
911	0.5516
920	0.8171
929	0.8322
938	0.8154
947	0.8311
956	0.8137
965	0.7363
974	0.834
983	0.8355
992	0.8139
1001	0.7781
1010	0.7152
1019	0.4964
1028	0.0567
1037	0.1465
1046	0.4055
1055	0.6841
1064	0.782
1073	0.8181
1082	0.8217
1091	0.7636
1100	0.4758
1109	0.2213
1118	0.5206
1127	0.7002
1136	0.7843
1145	0.7906
1154	0.5434
1163	0.7021
1172	0.5534
1181	0.1276
1190	0.1529
1199	0.522
1208	0.6544
1217	0.6783
1226	0.5007
1235	0.2646
1244	0.0734
1253	0.0802
1262	0.2656
1271	0.325
1280	0.1588
1289	0.3399
1298	0.4678
1307	0.3692
1316	0.7054
1325	0.6077
1334	0.5481
1343	0.6624
1352	0.7222
1361	0.769
1370	0.8019
1379	0.8139
1388	0.8084
1397	0.808
1406	0.7908
1415	0.7197
1424	0.6263
1433	0.3963
1442	0.3413
1451	0.5005
1460	0.2204
1469	0.3044
1478	0.5253
1487	0.6465
1496	0.4985
1505	0.2713
1514	0.03
1523	0.3418
1532	0.658
1541	0.7337
1550	0.7732
1559	0.8031
1568	0.8043
1577	0.7536
1586	0.403
1595	0.677
1604	0.4552
1613	0.1264
1622	0.4661
1631	0.6987
1640	0.7523
1649	0.7844
1658	0.7907
1667	0.7881
1676	0.8048
1685	0.8288
1694	0.8436
1703	0.8449
1712	0.8502
1721	0.8568
1730	0.8647
1739	0.8613
1748	0.8601
1757	0.8576
1766	0.8449
1775	0.8465
1784	0.8499
1793	0.8601
1802	0.8749
1811	0.8713
1820	0.8704
1829	0.8715
1838	0.8683
1847	0.8591
1856	0.8459
1865	0.8032
1874	0.7813
1883	0.7406
1892	0.7087
1901	0.8281
1910	0.8154
1919	0.8532
1928	0.8594
1937	0.8591
1946	0.8562
1955	0.8712
1964	0.8826
1973	0.8777
1982	0.8643
1991	0.8383
2000	0.8329
2009	0.8659
2018	0.8825
2027	0.8818
2036	0.8792
2045	0.8321
2054	0.8022
2063	0.8265
2072	0.8548
2081	0.8813
2090	0.8891
2099	0.8954
2108	0.8992
2117	0.9012
2126	0.902
2135	0.9025
2144	0.9027
2153	0.9026
2162	0.9012
2171	0.8989
2180	0.8978
2189	0.8985
2198	0.8997
2207	0.8948
2216	0.8942
2225	0.8985
2234	0.9022
2243	0.9009
2252	0.8969
2261	0.8885
2270	0.8809
2279	0.8743
2288	0.8731
2297	0.8812
2306	0.8886
2315	0.8893
2324	0.886
2333	0.8783
2342	0.8767
2351	0.8785
2360	0.8772
2369	0.8852
2378	0.8944
2387	0.8965
2396	0.895
2405	0.8912
2414	0.8846
2423	0.8788
2432	0.8792
2441	0.8836
2450	0.8857
2459	0.8822
2468	0.8745
2477	0.8657
2486	0.8612
2495	0.8651
2504	0.8719
2513	0.874
2522	0.8666
2531	0.8636
2540	0.8591
2549	0.8454
2558	0.8684
2567	0.8767
2576	0.8736
2585	0.8587
2594	0.8422
2603	0.8417
2612	0.86
2621	0.868
2630	0.872
2639	0.8727
2648	0.876
2657	0.8821
2666	0.8864
2675	0.8835
2684	0.8775
2693	0.8781
2702	0.8792
2711	0.8766
2720	0.8746
2729	0.8749
2738	0.8701
2747	0.8637
2756	0.8597
2765	0.8607
2774	0.8616
2783	0.8583
2792	0.8516
2801	0.8431
2810	0.8259
2819	0.7913
2828	0.6941
2837	0.2704
2846	0.399
2855	0.6378
2864	0.7011
2873	0.7186
2882	0.6356
2891	0.5435
2900	0.2967
2909	0.2081
2918	0.2989
2927	0.3889
2936	0.3511
2945	0.391
2954	0.3555
2963	0.3072
2972	0.4247
2981	0.5497
2990	0.5947
2999	0.487
3008	0.4293
3017	0.578
3026	0.6015
3035	0.5289
3044	0.6137
3053	0.6507
3062	0.6137
3071	0.6898
3080	0.766
3089	0.7815
3098	0.7541
3107	0.7915
3116	0.8317
3125	0.8372
3134	0.8453
3143	0.8545
3152	0.8608
3161	0.8625
3170	0.8629
3179	0.8633
3188	0.864
3197	0.8659
3206	0.8704
3215	0.8746
3224	0.8781
3233	0.8805
3242	0.8827
3251	0.8846
3260	0.8863
3269	0.8877
3278	0.8892
3287	0.8905
3296	0.8916
3305	0.8926
3314	0.893
3323	0.8931
3332	0.8933
3341	0.8935
3350	0.8936
3359	0.8933
3368	0.893
3377	0.8924
3386	0.8913
3395	0.8903
3404	0.8893
3413	0.8883
3422	0.8875
3431	0.8866
3440	0.8858
3449	0.8852
3458	0.8867
3467	0.8875
3476	0.8876
3485	0.8863
3494	0.8854
3503	0.8862
3512	0.8865
3521	0.8845
3530	0.8823
3539	0.8829
3548	0.8839
3557	0.8855
3566	0.8864
3575	0.8873
3584	0.8881
3593	0.8891
3602	0.8902
3611	0.8908
3620	0.8906
3629	0.8883
3638	0.8868
3647	0.8875
3656	0.8867
3665	0.8802
3674	0.8737
3683	0.883
3692	0.8922
3701	0.8967
3710	0.8974
3719	0.8974
3728	0.8966
3737	0.8955
3746	0.8945
3755	0.8935
3764	0.8927
3773	0.8924
3782	0.8914
3791	0.8898
