Infrared Spectrum: BENZOPHENONE, 4-(TRIFLUOROMETHYL)-
Formula: C14 H9 F3 O
CAS: 728-86-9
State: SOLUTION (5% CCl4 FOR 3800-1340, 5% CS2 FOR 1340-400 CM^-^1)
Melting point: 117 C
Class: COBLENTZ III
Instrument: DOW KBr FOREPRISM-GRATING
Instrument parameters: BLAZED AT 3.5, 12.0, 20.0 MICRON AND CHANGED AT 5.0, 7.5, 14.9 MICRON
Sampling: TRANSMISSION
Path length: 0.010 CM, 0.011 CM
Resolution: 2
Origin: DOW CHEMICAL COMPANY
1/CM	TRANSMITTANCE
386	0.1239
395	0.1374
404	0.2666
413	0.5051
422	0.6648
431	0.7191
440	0.7635
449	0.7725
458	0.758
467	0.7557
476	0.785
485	0.8053
494	0.8475
503	0.8525
512	0.8548
521	0.8586
530	0.8645
539	0.8686
548	0.8635
557	0.8523
566	0.8677
575	0.8716
584	0.8709
593	0.8607
602	0.8037
611	0.857
620	0.8715
629	0.8562
638	0.855
647	0.8321
656	0.3347
665	0.8552
674	0.8763
683	0.8456
692	0.6931
701	0.0811
710	0.6365
719	0.3194
728	0.9002
737	0.9111
746	0.8716
755	0.6732
764	0.904
773	0.9062
782	0.7483
791	0.808
800	0.846
809	0.9007
818	0.9108
827	0.9011
836	0.8564
845	0.7186
854	0.4253
863	0.6335
872	0.7893
881	0.8298
890	0.8521
899	0.8589
908	0.8416
917	0.6545
926	0.5521
935	0.4358
944	0.8082
953	0.8409
962	0.7848
971	0.7899
980	0.8517
989	0.8536
998	0.7787
1007	0.8513
1016	0.5454
1025	0.7707
1034	0.8489
1043	0.8317
1052	0.7824
1061	0.5614
1070	0.2497
1079	0.7497
1088	0.7558
1097	0.7075
1106	0.4042
1115	0.5027
1124	0.4192
1133	0.0168
1142	0.1391
1151	0.484
1160	0.3968
1169	0.0797
1178	0.224
1187	0.6497
1196	0.7551
1205	0.7968
1214	0.8092
1223	0.7915
1232	0.7601
1241	0.6319
1250	0.6227
1259	0.639
1268	0.415
1277	0.0711
1286	0.5765
1295	0.5551
1304	0.4628
1313	0.1135
1322	0.0115
1331	0.5128
1340	0.7092
1349	0.7724
1358	0.8046
1367	0.8249
1376	0.8425
1385	0.8475
1394	0.8556
1403	0.8121
1412	0.3005
1421	0.8551
1430	0.8695
1439	0.8615
1448	0.7117
1457	0.8586
1466	0.876
1475	0.8688
1484	0.8468
1493	0.8192
1502	0.7701
1511	0.6068
1520	0.6498
1529	0.6389
1538	0.5699
1547	0.4687
1556	0.4737
1565	0.5555
1574	0.5754
1583	0.4907
1592	0.5928
1601	0.4616
1610	0.7894
1619	0.818
1628	0.8328
1637	0.8216
1646	0.8064
1655	0.7342
1664	0.416
1673	0.0916
1682	0.5644
1691	0.7796
1700	0.8525
1709	0.8723
1718	0.8875
1727	0.8975
1736	0.9039
1745	0.9121
1754	0.9143
1763	0.914
1772	0.9131
1781	0.9117
1790	0.9214
1799	0.9168
1808	0.8991
1817	0.8878
1826	0.9151
1835	0.9234
1844	0.9257
1853	0.9268
1862	0.9278
1871	0.9308
1880	0.9321
1889	0.9298
1898	0.927
1907	0.9225
1916	0.9168
1925	0.9181
1934	0.9055
1943	0.9131
1952	0.9256
1961	0.93
1970	0.9257
1979	0.9214
1988	0.9271
1997	0.9155
2006	0.9338
2015	0.9343
2024	0.9343
2033	0.934
2042	0.9347
2051	0.9345
2060	0.9344
2069	0.9345
2078	0.9345
2087	0.935
2096	0.936
2105	0.9364
2114	0.9368
2123	0.937
2132	0.9371
2141	0.9371
2150	0.9373
2159	0.9375
2168	0.9375
2177	0.9375
2186	0.9371
2195	0.9367
2204	0.9357
2213	0.9342
2222	0.9328
2231	0.9312
2240	0.9284
2249	0.925
2258	0.9211
2267	0.9171
2276	0.9134
2285	0.9103
2294	0.9082
2303	0.9088
2312	0.9142
2321	0.9231
2330	0.9307
2339	0.936
2348	0.9418
2357	0.9477
2366	0.9505
2375	0.9481
2384	0.9375
2393	0.9357
2402	0.9349
2411	0.9318
2420	0.9313
2429	0.9356
2438	0.9375
2447	0.9378
2456	0.9381
2465	0.9385
2474	0.9389
2483	0.9389
2492	0.9391
2501	0.9393
2510	0.939
2519	0.9388
2528	0.9387
2537	0.9388
2546	0.939
2555	0.939
2564	0.9385
2573	0.938
2582	0.9378
2591	0.9374
2600	0.9374
2609	0.9383
2618	0.9378
2627	0.9368
2636	0.9358
2645	0.9354
2654	0.9368
2663	0.9382
2672	0.9378
2681	0.938
2690	0.9382
2699	0.9391
2708	0.9398
2717	0.9401
2726	0.9405
2735	0.9356
2744	0.9324
2753	0.9328
2762	0.9335
2771	0.9346
2780	0.9352
2789	0.9353
2798	0.9349
2807	0.9343
2816	0.9335
2825	0.9315
2834	0.9292
2843	0.9266
2852	0.9248
2861	0.9233
2870	0.9233
2879	0.9231
2888	0.9227
2897	0.9216
2906	0.9196
2915	0.9159
2924	0.9148
2933	0.9146
2942	0.9231
2951	0.9292
2960	0.9278
2969	0.9268
2978	0.9307
2987	0.9335
2996	0.9309
3005	0.9268
3014	0.9209
3023	0.8971
3032	0.8874
3041	0.8965
3050	0.8847
3059	0.8551
3068	0.8506
3077	0.8718
3086	0.8591
3095	0.9071
3104	0.9142
3113	0.93
3122	0.9316
3131	0.9318
3140	0.9318
3149	0.9316
3158	0.9316
3167	0.9318
3176	0.9321
3185	0.9324
3194	0.9325
3203	0.9327
3212	0.933
3221	0.9332
3230	0.9333
3239	0.933
3248	0.9327
3257	0.9323
3266	0.9318
3275	0.9314
3284	0.9306
3293	0.9297
3302	0.9277
3311	0.9234
3320	0.9199
3329	0.9235
3338	0.9299
3347	0.9368
3356	0.9413
3365	0.9427
3374	0.9439
3383	0.945
3392	0.9461
3401	0.9471
3410	0.9471
3419	0.9471
3428	0.947
3437	0.9468
3446	0.9466
3455	0.9463
3464	0.9464
3473	0.9466
3482	0.9468
3491	0.9471
3500	0.9473
3509	0.9475
3518	0.9477
3527	0.9478
3536	0.9481
3545	0.9482
3554	0.9482
3563	0.9484
3572	0.9488
3581	0.9511
3590	0.9586
3599	0.9621
3608	0.9628
3617	0.963
3626	0.963
3635	0.9632
3644	0.964
3653	0.9652
3662	0.9674
3671	0.9699
3680	0.9658
3689	0.9625
3698	0.9667
3707	0.9668
3716	0.9628
3725	0.967
3734	0.9713
3743	0.9742
3752	0.9734
3761	0.9733
3770	0.9751
3779	0.9767
