Infrared Spectrum: DIISOBUTYLFOMARATE
Formula: C12 H20 O4
CAS: 7283-69-4
State: SOLUTION (10% CCl4 FOR 2.5-7.5, 10% CS2 FOR 7.5-16 MICRON)
Class: COBLENTZ
Instrument: Not specified, most likely a prism, grating, or hybrid spectrometer.
Sampling: TRANSMISSION
Path length: 0.010 CM, 0.010 CM
Resolution: 4
Origin: DOW CHEMICAL COMPANY
MICROMETERS	TRANSMITTANCE
2.039	0.966
2.07452	0.968
2.11004	0.973
2.14555	0.977
2.18107	0.977
2.21659	0.971
2.25211	0.959
2.28763	0.949
2.32314	0.947
2.35866	0.95
2.39418	0.952
2.4297	0.954
2.46521	0.956
2.50073	0.956
2.53625	0.959
2.57177	0.959
2.60729	0.963
2.6428	0.964
2.67832	0.971
2.71384	0.977
2.74936	0.978
2.78488	0.978
2.82039	0.977
2.85591	0.961
2.89143	0.92
2.92695	0.92
2.96246	0.929
2.99798	0.938
3.0335	0.943
3.06902	0.943
3.10454	0.933
3.14005	0.924
3.17557	0.922
3.21109	0.92
3.24661	0.912
3.28213	0.901
3.31764	0.801
3.35316	0.463
3.38868	0.142
3.4242	0.281
3.45972	0.39
3.49523	0.775
3.53075	0.836
3.56627	0.88
3.60179	0.91
3.6373	0.917
3.67282	0.922
3.70834	0.931
3.74386	0.942
3.77938	0.947
3.81489	0.954
3.85041	0.957
3.88593	0.959
3.92145	0.961
3.95697	0.964
3.99248	0.964
4.028	0.961
4.06352	0.964
4.09904	0.968
4.13455	0.966
4.17007	0.959
4.20559	0.961
4.24111	0.968
4.27663	0.97
4.31214	0.963
4.34766	0.954
4.38318	0.959
4.4187	0.961
4.45422	0.963
4.48973	0.963
4.52525	0.961
4.56077	0.956
4.59629	0.952
4.6318	0.949
4.66732	0.947
4.70284	0.943
4.73836	0.942
4.77388	0.942
4.80939	0.945
4.84491	0.952
4.88043	0.952
4.91595	0.954
4.95147	0.954
4.98698	0.954
5.0225	0.954
5.05802	0.95
5.09354	0.943
5.12906	0.94
5.16457	0.938
5.20009	0.934
5.23561	0.934
5.27113	0.934
5.30664	0.933
5.34216	0.926
5.37768	0.919
5.4132	0.917
5.44872	0.913
5.48423	0.901
5.51975	0.88
5.55527	0.848
5.59079	0.81
5.62631	0.75
5.66182	0.595
5.69734	0.462
5.73286	0.172
5.76838	0.07
5.80389	0.043
5.83941	0.045
5.87493	0.316
5.91045	0.521
5.94597	0.608
5.98148	0.66
6.017	0.667
6.05252	0.579
6.08804	0.492
6.12356	0.609
6.15907	0.782
6.19459	0.826
6.23011	0.857
6.26563	0.88
6.30115	0.898
6.33666	0.905
6.37218	0.908
6.4077	0.906
6.44322	0.908
6.47873	0.91
6.51425	0.908
6.54977	0.905
6.58529	0.903
6.62081	0.894
6.65632	0.852
6.69184	0.829
6.72736	0.734
6.76288	0.5
6.7984	0.198
6.83391	0.263
6.86943	0.485
6.90495	0.657
6.94047	0.729
6.97598	0.753
7.0115	0.753
7.04702	0.65
7.08254	0.507
7.11806	0.439
7.15357	0.42
7.18909	0.391
7.22461	0.304
7.26013	0.228
7.29565	0.272
7.33116	0.601
7.36668	0.65
7.4022	0.579
7.43772	0.536
7.47323	0.59
7.50875	0.578
7.54427	0.509
7.57979	0.404
7.61531	0.168
7.65082	0.065
7.68634	0.043
7.72186	0.04
7.75738	0.031
7.7929	0.038
7.82841	0.068
7.86393	0.075
7.89945	0.066
7.93497	0.049
7.97049	0.043
8.006	0.042
8.04152	0.087
8.07704	0.173
8.11256	0.235
8.14807	0.231
8.18359	0.131
8.21911	0.135
8.25463	0.168
8.29015	0.179
8.32566	0.198
8.36118	0.256
8.3967	0.302
8.43222	0.268
8.46774	0.165
8.50325	0.107
8.53877	0.072
8.57429	0.065
8.60981	0.056
8.64532	0.047
8.68084	0.04
8.71636	0.036
8.75188	0.096
8.7874	0.242
8.82291	0.444
8.85843	0.569
8.89395	0.643
8.92947	0.685
8.96499	0.715
9.0005	0.731
9.03602	0.731
9.07154	0.731
9.10706	0.76
9.14258	0.785
9.17809	0.797
9.21361	0.808
9.24913	0.818
9.28465	0.827
9.32016	0.829
9.35568	0.831
9.3912	0.824
9.42672	0.815
9.46224	0.806
9.49775	0.792
9.53327	0.769
9.56879	0.727
9.60431	0.653
9.63983	0.59
9.67534	0.478
9.71086	0.346
9.74638	0.205
9.7819	0.147
9.81741	0.108
9.85293	0.084
9.88845	0.073
9.92397	0.073
9.95949	0.115
9.995	0.182
10.0305	0.277
10.066	0.314
10.1016	0.395
10.1371	0.427
10.1726	0.358
10.2081	0.207
10.2436	0.131
10.2791	0.205
10.3147	0.416
10.3502	0.523
10.3857	0.557
10.4212	0.609
10.4567	0.646
10.4923	0.664
10.5278	0.659
10.5633	0.622
10.5988	0.611
10.6343	0.62
10.6698	0.63
10.7054	0.639
10.7409	0.634
10.7764	0.63
10.8119	0.63
10.8474	0.636
10.883	0.648
10.9185	0.66
10.954	0.674
10.9895	0.688
11.025	0.706
11.0605	0.718
11.0961	0.745
11.1316	0.76
11.1671	0.785
11.2026	0.797
11.2381	0.803
11.2736	0.803
11.3092	0.804
11.3447	0.818
11.3802	0.831
11.4157	0.838
11.4512	0.84
11.4868	0.845
11.5223	0.845
11.5578	0.845
11.5933	0.845
11.6288	0.845
11.6643	0.845
11.6999	0.845
11.7354	0.85
11.7709	0.854
11.8064	0.857
11.8419	0.857
11.8775	0.854
11.913	0.848
11.9485	0.84
11.984	0.829
12.0195	0.813
12.055	0.796
12.0906	0.773
12.1261	0.762
12.1616	0.76
12.1971	0.76
12.2326	0.76
12.2681	0.762
12.3037	0.764
12.3392	0.764
12.3747	0.771
12.4102	0.789
12.4457	0.801
12.4813	0.824
12.5168	0.843
12.5523	0.857
12.5878	0.869
12.6233	0.871
12.6588	0.868
12.6944	0.854
12.7299	0.831
12.7654	0.785
12.8009	0.727
12.8364	0.652
12.872	0.583
12.9075	0.534
12.943	0.539
12.9785	0.59
13.014	0.69
13.0495	0.748
13.0851	0.797
13.1206	0.833
13.1561	0.862
13.1916	0.896
13.2271	0.903
13.2626	0.915
13.2982	0.926
13.3337	0.934
13.3692	0.94
13.4047	0.942
13.4402	0.947
13.4758	0.95
13.5113	0.952
13.5468	0.956
13.5823	0.957
13.6178	0.963
13.6533	0.963
13.6889	0.963
13.7244	0.964
13.7599	0.966
13.7954	0.966
13.8309	0.966
13.8665	0.966
13.902	0.971
13.9375	0.971
13.973	0.971
14.0085	0.971
14.044	0.97
14.0796	0.971
14.1151	0.97
14.1506	0.966
14.1861	0.959
14.2216	0.961
14.2571	0.957
14.2927	0.956
14.3282	0.956
14.3637	0.952
14.3992	0.95
14.4347	0.952
14.4703	0.95
14.5058	0.947
14.5413	0.943
14.5768	0.934
14.6123	0.92
14.6478	0.906
14.6834	0.894
14.7189	0.868
14.7544	0.848
14.7899	0.811
14.8254	0.794
14.861	0.768
14.8965	0.755
14.932	0.748
14.9675	0.748
15.003	0.752
15.0385	0.759
15.0741	0.764
15.1096	0.771
15.1451	0.773
15.1806	0.778
15.2161	0.785
15.2516	0.79
15.2872	0.796
15.3227	0.799
15.3582	0.808
15.3937	0.813
15.4292	0.818
15.4648	0.824
15.5003	0.834
15.5358	0.843
15.5713	0.848
15.6068	0.852
15.6423	0.859
15.6779	0.862
15.7134	0.866
15.7489	0.871
15.7844	0.875
15.8199	0.876
15.8555	0.878
15.891	0.882
15.9265	0.884
