Infrared Spectrum: L-TRYPTOPHAN
Formula: C11 H12 N2 O2
CAS: 73-22-3
State: SOLID (OIL MULL)
Class: COBLENTZ III
Instrument: PERKIN-ELMER 521 (GRATING)
Instrument parameters: ORDER CHANGES AT 1999, 690 CM^-^1
Sampling: TRANSMISSION
Path length: KBr PLATES
Resolution: 4
Origin: SMITH KLINE & FRENCH
1/CM	TRANSMITTANCE
387.363	0.544
396.521	0.584
405.678	0.611
414.836	0.588
423.993	0.328
433.151	0.612
442.308	0.674
451.466	0.582
460.623	0.643
469.781	0.653
478.938	0.63
488.096	0.536
497.253	0.403
506.411	0.372
515.568	0.513
524.726	0.391
533.883	0.634
543.041	0.592
552.198	0.494
561.356	0.533
570.513	0.676
579.671	0.5121
588.828	0.629
597.986	0.748
607.143	0.787
616.301	0.766
625.458	0.723
634.616	0.822
643.773	0.817
652.931	0.791
662.088	0.798
671.246	0.782
680.403	0.706
689.561	0.804
698.718	0.802
707.876	0.802
717.033	0.789
726.191	0.773
735.348	0.583
744.506	0.153
753.663	0.731
762.821	0.73
771.979	0.804
781.136	0.817
790.294	0.813
799.451	0.743
808.609	0.822
817.766	0.821
826.924	0.806
836.081	0.759
845.239	0.675
854.396	0.632
863.554	0.596
872.711	0.712
881.869	0.789
891.026	0.799
900.184	0.792
909.341	0.767
918.499	0.61
927.656	0.73
936.814	0.777
945.971	0.779
955.129	0.769
964.286	0.753
973.444	0.725
982.601	0.625
991.759	0.675
1000.92	0.644
1010.07	0.666
1019.23	0.67
1028.39	0.7
1037.55	0.722
1046.7	0.7
1055.86	0.698
1065.02	0.706
1074.18	0.615
1083.33	0.702
1092.49	0.596
1101.65	0.621
1110.81	0.659
1119.96	0.738
1129.12	0.712
1138.28	0.705
1147.44	0.656
1156.59	0.599
1165.75	0.746
1174.91	0.772
1184.07	0.777
1193.22	0.777
1202.38	0.766
1211.54	0.775
1220.7	0.748
1229.85	0.625
1239.01	0.734
1248.17	0.702
1257.33	0.75
1266.48	0.74
1275.64	0.699
1284.8	0.726
1293.96	0.701
1303.11	0.708
1312.27	0.534
1321.43	0.654
1330.59	0.593
1339.74	0.469
1348.9	0.212
1358.06	0.156
1367.22	0.603
1376.37	0.563
1385.53	0.579
1394.69	0.486
1403.85	0.304
1413	0.178
1422.16	0.351
1431.32	0.563
1440.48	0.543
1449.63	0.39
1458.79	0.348
1467.95	0.563
1477.11	0.658
1486.26	0.661
1495.42	0.669
1504.58	0.617
1513.74	0.585
1522.89	0.574
1532.05	0.539
1541.21	0.531
1550.37	0.457
1559.52	0.398
1568.68	0.282
1577.84	0.191
1587	0.138
1596.15	0.148
1605.31	0.187
1614.47	0.258
1623.63	0.372
1632.78	0.464
1641.94	0.451
1651.1	0.339
1660.26	0.183
1669.41	0.235
1678.57	0.517
1687.73	0.662
1696.89	0.699
1706.04	0.715
1715.2	0.736
1724.36	0.742
1733.52	0.756
1742.67	0.769
1751.83	0.767
1760.99	0.767
1770.15	0.774
1779.3	0.777
1788.46	0.781
1797.62	0.775
1806.78	0.772
1815.93	0.774
1825.09	0.776
1834.25	0.775
1843.41	0.771
1852.56	0.768
1861.72	0.772
1870.88	0.771
1880.04	0.753
1889.19	0.759
1898.35	0.767
1907.51	0.764
1916.67	0.747
1925.83	0.751
1934.98	0.751
1944.14	0.755
1953.3	0.742
1962.46	0.741
1971.61	0.738
1980.77	0.732
1989.93	0.728
1999.09	0.726
2008.24	0.719
2017.4	0.7075
2026.56	0.6995
2035.72	0.683
2044.87	0.6685
2054.03	0.657
2063.19	0.6351
2072.35	0.627
2081.5	0.6314
2090.66	0.6394
2099.82	0.6425
2108.98	0.658
2118.13	0.666
2127.29	0.674
2136.45	0.6865
2145.61	0.691
2154.76	0.6959
2163.92	0.6995
2173.08	0.701
2182.24	0.687
2191.39	0.686
2200.55	0.6801
2209.71	0.678
2218.87	0.6775
2228.02	0.6713
2237.18	0.666
2246.34	0.6611
2255.5	0.6507
2264.65	0.6426
2273.81	0.63
2282.97	0.6181
2292.13	0.6091
2301.28	0.6006
2310.44	0.599
2319.6	0.597
2328.76	0.5931
2337.91	0.5856
2347.07	0.5781
2356.23	0.5516
2365.39	0.5413
2374.54	0.53
2383.7	0.5241
2392.86	0.5048
2402.02	0.498
2411.17	0.495
2420.33	0.488
2429.49	0.4866
2438.65	0.4786
2447.8	0.4719
2456.96	0.4606
2466.12	0.4516
2475.28	0.4466
2484.43	0.4396
2493.59	0.438
2502.75	0.4422
2511.91	0.432
2521.06	0.427
2530.22	0.429
2539.38	0.4246
2548.54	0.417
2557.69	0.416
2566.85	0.4146
2576.01	0.413
2585.17	0.4178
2594.32	0.4228
2603.48	0.427
2612.64	0.4284
2621.8	0.4324
2630.95	0.4394
2640.11	0.461
2649.27	0.4699
2658.43	0.4814
2667.58	0.485
2676.74	0.4846
2685.9	0.4789
2695.06	0.4626
2704.21	0.4499
2713.37	0.4362
2722.53	0.4182
2731.69	0.416
2740.84	0.4265
2750	0.4325
2759.16	0.4421
2768.32	0.4464
2777.47	0.4476
2786.63	0.4386
2795.79	0.433
2804.95	0.4296
2814.1	0.423
2823.26	0.4126
2832.42	0.3865
2841.58	0.3281
2850.73	0.2256
2859.89	0.2037
2869.05	0.2224
2878.21	0.2469
2887.36	0.256
2896.52	0.2256
2905.68	0.1822
2914.84	0.1489
2923.99	0.1127
2933.15	0.1243
2942.31	0.152
2951.47	0.142
2960.62	0.16
2969.78	0.2007
2978.94	0.2513
2988.1	0.2773
2997.25	0.2763
3006.41	0.248
3015.57	0.2253
3024.73	0.218
3033.88	0.2097
3043.04	0.209
3052.2	0.2182
3061.36	0.2453
3070.51	0.2504
3079.67	0.228
3088.83	0.2797
3097.99	0.3434
3107.14	0.3812
3116.3	0.3861
3125.46	0.4102
3134.62	0.4586
3143.77	0.482
3152.93	0.4992
3162.09	0.518
3171.25	0.5399
3180.4	0.5613
3189.56	0.5693
3198.72	0.5881
3207.88	0.6043
3217.03	0.617
3226.19	0.6253
3235.35	0.6339
3244.51	0.6486
3253.66	0.6533
3262.82	0.6606
3271.98	0.6663
3281.14	0.67
3290.29	0.669
3299.45	0.669
3308.61	0.6677
3317.77	0.6575
3326.92	0.6527
3336.08	0.6507
3345.24	0.6399
3354.4	0.6284
3363.55	0.5997
3372.71	0.5576
3381.87	0.504
3391.03	0.3906
3400.18	0.1547
3409.34	0.0875
3418.5	0.18
3427.66	0.452
3436.81	0.5666
3445.97	0.6023
3455.13	0.6376
3464.29	0.6655
3473.44	0.6795
3482.6	0.6892
3491.76	0.6935
3500.92	0.6982
3510.07	0.701
3519.23	0.703
3528.39	0.7072
3537.55	0.7117
3546.7	0.7142
3555.86	0.715
3565.02	0.718
3574.18	0.719
3583.33	0.7232
3592.49	0.725
3601.65	0.726
3610.81	0.73
3619.96	0.736
3629.12	0.736
3638.28	0.739
3647.44	0.7364
3656.59	0.741
3665.75	0.744
3674.91	0.7462
3684.07	0.7472
3693.22	0.747
3702.38	0.7486
3711.54	0.7488
3720.7	0.748
3729.85	0.7502
3739.01	0.751
3748.17	0.746
3757.33	0.744
3766.48	0.742
3775.64	0.7422
3784.8	0.7412
3793.96	0.739
3803.11	0.741
3812.27	0.7422
3821.43	0.7428
3830.59	0.741
3839.75	0.741
3848.9	0.7358
3858.06	0.738
3867.22	0.736
3876.38	0.7346
3885.53	0.7318
3894.69	0.724
3903.85	0.73
3913.01	0.731
3922.16	0.728
3931.32	0.7303
3940.48	0.733
3949.64	0.733
3958.79	0.7277
3967.95	0.7332
3977.11	0.733
3986.27	0.73
3995.42	0.7278
