Infrared Spectrum: Adenine
Formula: C5 H5 N5
CAS: 73-24-5
State: SOLID (0.9 mg / 650 mg KBr DISC)
Class: COBLENTZ III
Instrument: PERKIN-ELMER 21 (GRATING)
Instrument parameters: FILTER CHANGE ABOUT 1070 CM^-^1
Resolution: 2
Origin: SOUTHERN RESEARCH INSTITUTE
1/CM	TRANSMITTANCE
640.195	0.4113
648.255	0.4213
656.315	0.436
664.375	0.4538
672.434	0.4733
680.494	0.4991
688.554	0.5441
696.614	0.5875
704.674	0.5997
712.734	0.5811
720.794	0.2751
728.854	0.581
736.913	0.7216
744.973	0.7312
753.033	0.7462
761.093	0.7626
769.153	0.7734
777.213	0.774
785.273	0.7625
793.332	0.5906
801.392	0.7547
809.452	0.7555
817.512	0.7368
825.572	0.7043
833.632	0.684
841.692	0.5816
849.752	0.5461
857.811	0.6015
865.871	0.5585
873.931	0.5643
881.991	0.5977
890.051	0.6
898.111	0.5799
906.171	0.4993
914.23	0.3889
922.29	0.6222
930.35	0.4632
938.41	0.2091
946.47	0.4529
954.53	0.7914
962.59	0.8287
970.65	0.8022
978.709	0.7876
986.769	0.7696
994.829	0.737
1002.89	0.6998
1010.95	0.6277
1019.01	0.4975
1027.07	0.506
1035.13	0.6318
1043.19	0.6655
1051.25	0.6495
1059.31	0.6339
1067.37	0.6538
1075.43	0.5895
1083.49	0.5464
1091.55	0.5208
1099.61	0.4747
1107.67	0.425
1115.73	0.3751
1123.79	0.2887
1131.85	0.4812
1139.91	0.492
1147.97	0.4683
1156.03	0.4569
1164.09	0.5072
1172.15	0.5484
1180.21	0.5477
1188.27	0.5436
1196.33	0.5305
1204.39	0.519
1212.45	0.511
1220.51	0.4708
1228.57	0.4343
1236.63	0.4128
1244.69	0.3204
1252.74	0.2401
1260.8	0.4849
1268.86	0.5012
1276.92	0.4995
1284.98	0.4688
1293.04	0.3913
1301.1	0.1591
1309.16	0.1336
1317.22	0.4562
1325.28	0.331
1333.34	0.2295
1341.4	0.5885
1349.46	0.5866
1357.52	0.5001
1365.58	0.3665
1373.64	0.4955
1381.7	0.482
1389.76	0.3921
1397.82	0.2833
1405.88	0.2622
1413.94	0.1788
1422	0.2533
1430.06	0.4895
1438.12	0.4372
1446.18	0.3773
1454.24	0.4217
1462.3	0.4648
1470.36	0.4895
1478.42	0.4982
1486.48	0.5001
1494.54	0.4848
1502.6	0.4873
1510.66	0.523
1518.72	0.5293
1526.78	0.4995
1534.84	0.4708
1542.9	0.4406
1550.96	0.4007
1559.02	0.3644
1567.08	0.3151
1575.14	0.2323
1583.2	0.1647
1591.26	0.0344
1599.32	0.0248
1607.38	0.1308
1615.44	0.3449
1623.5	0.4405
1631.56	0.4037
1639.62	0.3087
1647.68	0.1899
1655.74	0.0925
1663.8	0.0972
1671.86	0.1557
1679.92	0.3742
1687.98	0.5531
1696.04	0.6463
1704.1	0.6764
1712.16	0.7481
1720.22	0.7785
1728.28	0.797
1736.34	0.8181
1744.4	0.8294
1752.46	0.8363
1760.52	0.8406
1768.58	0.8437
1776.64	0.8494
1784.7	0.8587
1792.76	0.8594
1800.82	0.8535
1808.88	0.8486
1816.94	0.8436
1825	0.834
1833.06	0.8312
1841.12	0.832
1849.18	0.8256
1857.23	0.817
1865.29	0.809
1873.35	0.7984
1881.41	0.8006
1889.47	0.809
1897.53	0.8141
1905.59	0.8125
1913.65	0.8087
1921.71	0.7991
1929.77	0.7947
1937.83	0.7901
1945.89	0.7843
1953.95	0.7823
1962.01	0.7811
1970.07	0.7781
1978.13	0.7747
1986.19	0.7667
1994.25	0.76
2002.31	0.7582
2010.37	0.7632
2018.43	0.766
2026.49	0.7646
2034.55	0.7609
2042.61	0.7373
2050.67	0.7334
2058.73	0.735
2066.79	0.7375
2074.85	0.7394
2082.91	0.7388
2090.97	0.7348
2099.03	0.7299
2107.09	0.7246
2115.15	0.7184
2123.21	0.7141
2131.27	0.7091
2139.33	0.7058
2147.39	0.7022
2155.45	0.6984
2163.51	0.6945
2171.57	0.6914
2179.63	0.6816
2187.69	0.6673
2195.75	0.6628
2203.81	0.6607
2211.87	0.6533
2219.93	0.644
2227.99	0.6366
2236.05	0.6313
2244.11	0.6331
2252.17	0.6183
2260.23	0.6105
2268.29	0.6045
2276.35	0.6005
2284.41	0.5971
2292.47	0.5981
2300.53	0.5896
2308.59	0.5869
2316.65	0.5825
2324.71	0.5653
2332.77	0.5433
2340.83	0.5404
2348.89	0.5403
2356.95	0.5398
2365.01	0.538
2373.07	0.53
2381.13	0.5271
2389.19	0.5278
2397.25	0.5315
2405.31	0.5346
2413.37	0.5293
2421.43	0.521
2429.49	0.5118
2437.55	0.5023
2445.61	0.4898
2453.67	0.477
2461.72	0.4667
2469.78	0.4601
2477.84	0.4545
2485.9	0.4453
2493.96	0.4368
2502.02	0.429
2510.08	0.4212
2518.14	0.4109
2526.2	0.4
2534.26	0.3875
2542.32	0.3762
2550.38	0.3694
2558.44	0.3642
2566.5	0.3595
2574.56	0.3583
2582.62	0.3677
2590.68	0.3786
2598.74	0.3734
2606.8	0.3684
2614.86	0.3648
2622.92	0.3556
2630.98	0.3418
2639.04	0.3264
2647.1	0.3121
2655.16	0.2975
2663.22	0.2904
2671.28	0.2927
2679.34	0.3016
2687.4	0.3056
2695.46	0.3145
2703.52	0.3176
2711.58	0.3146
2719.64	0.3082
2727.7	0.3086
2735.76	0.3087
2743.82	0.3043
2751.88	0.2855
2759.94	0.2742
2768	0.2714
2776.06	0.275
2784.12	0.2848
2792.18	0.2892
2800.24	0.3005
2808.3	0.3213
2816.36	0.3344
2824.42	0.3379
2832.48	0.3394
2840.54	0.3402
2848.6	0.3414
2856.66	0.3428
2864.72	0.3435
2872.78	0.3431
2880.84	0.3419
2888.9	0.34
2896.96	0.3343
2905.02	0.3184
2913.08	0.2985
2921.14	0.2737
2929.2	0.2566
2937.26	0.241
2945.32	0.2279
2953.38	0.223
2961.44	0.2223
2969.5	0.23
2977.56	0.242
2985.62	0.2373
2993.68	0.2349
3001.74	0.2319
3009.8	0.2202
3017.86	0.2043
3025.92	0.1894
3033.98	0.1685
3042.04	0.1631
3050.1	0.1504
3058.16	0.1339
3066.22	0.1171
3074.27	0.1035
3082.33	0.0951
3090.39	0.0925
3098.45	0.0913
3106.51	0.0921
3114.57	0.0984
3122.63	0.1142
3130.69	0.1344
3138.75	0.1494
3146.81	0.1661
3154.87	0.1786
3162.93	0.1922
3170.99	0.2057
3179.05	0.2192
3187.11	0.2347
3195.17	0.2427
3203.23	0.2423
3211.29	0.2428
3219.35	0.2471
3227.41	0.2478
3235.47	0.2471
3243.53	0.2449
3251.59	0.2409
3259.65	0.2382
3267.71	0.2499
3275.77	0.2712
3283.83	0.2964
3291.89	0.3187
3299.95	0.3408
3308.01	0.3615
3316.07	0.373
3324.13	0.382
3332.19	0.4007
3340.25	0.4271
3348.31	0.4619
3356.37	0.5019
3364.43	0.5634
3372.49	0.5873
3380.55	0.6075
3388.61	0.6289
3396.67	0.6487
3404.73	0.6551
3412.79	0.6671
3420.85	0.6714
3428.91	0.6735
3436.97	0.6852
3445.03	0.6884
3453.09	0.6903
3461.15	0.6922
3469.21	0.694
3477.27	0.6961
3485.33	0.6987
3493.39	0.7018
3501.45	0.7066
3509.51	0.7121
3517.57	0.7184
3525.63	0.7221
3533.69	0.7262
3541.75	0.7294
3549.81	0.7319
3557.87	0.7348
3565.93	0.737
3573.99	0.7392
3582.05	0.7435
3590.11	0.7491
3598.17	0.751
3606.23	0.7572
3614.29	0.7575
3622.35	0.7593
3630.41	0.7552
3638.47	0.757
3646.53	0.7622
3654.59	0.7499
3662.65	0.7475
3670.71	0.7502
3678.76	0.7663
3686.82	0.7671
3694.88	0.7464
3702.94	0.7514
3711	0.7492
3719.06	0.7462
3727.12	0.7421
3735.18	0.7363
3743.24	0.7356
3751.3	0.7374
3759.36	0.7354
3767.42	0.7346
3775.48	0.7353
3783.54	0.7238
3791.6	0.7251
3799.66	0.7337
3807.72	0.7178
3815.78	0.7187
3823.84	0.7189
