Infrared Spectrum: Melatonin
Formula: C 13 H 16 N 2 O 2
CAS: 73-31-4
State: solid
Instrument: Bruker Tensor 37 FTIR
Resolution: 0.96450084
Origin: Pacific Northwest National Laboratory Under IARPA Contract
1/cm	Reflectance
7498.99	0.884804
7481.63	0.884656
7464.27	0.882215
7446.91	0.876052
7429.55	0.864807
7412.19	0.863483
7394.84	0.853519
7377.48	0.84994
7360.12	0.844663
7342.76	0.83911
7325.4	0.840403
7308.04	0.840043
7290.68	0.839835
7273.32	0.848553
7255.96	0.850834
7238.6	0.853246
7221.24	0.855003
7203.88	0.862556
7186.52	0.865417
7169.16	0.861244
7151.8	0.85753
7134.44	0.854272
7117.08	0.850237
7099.72	0.826729
7082.36	0.804344
7065	0.774331
7047.64	0.766861
7030.28	0.767408
7012.92	0.761591
6995.56	0.760066
6978.2	0.769442
6960.84	0.76775
6943.48	0.761138
6926.12	0.762225
6908.76	0.775717
6891.4	0.787071
6874.04	0.79336
6856.68	0.79635
6839.32	0.790367
6821.96	0.770866
6804.6	0.711013
6787.24	0.763367
6769.88	0.755201
6752.52	0.736419
6735.16	0.727069
6717.8	0.730985
6700.44	0.746556
6683.08	0.75994
6665.72	0.74113
6648.36	0.739839
6631	0.732223
6613.64	0.768915
6596.28	0.764865
6578.92	0.761416
6561.56	0.785728
6544.2	0.799548
6526.85	0.798849
6509.49	0.807687
6492.13	0.809673
6474.77	0.81563
6457.41	0.813359
6440.05	0.812539
6422.69	0.811512
6405.33	0.823071
6387.97	0.822034
6370.61	0.823085
6353.25	0.819474
6335.89	0.821387
6318.53	0.823833
6301.17	0.815375
6283.81	0.811868
6266.45	0.799998
6249.09	0.769702
6231.73	0.723716
6214.37	0.699971
6197.01	0.616284
6179.65	0.693819
6162.29	0.722876
6144.93	0.677846
6127.57	0.638235
6110.21	0.637189
6092.85	0.590818
6075.49	0.596165
6058.13	0.55566
6040.77	0.55374
6023.41	0.547127
6006.05	0.577427
5988.69	0.57866
5971.33	0.525945
5953.97	0.457446
5936.61	0.422433
5919.25	0.397766
5901.89	0.467192
5884.53	0.46973
5867.17	0.506289
5849.81	0.479722
5832.45	0.508594
5815.09	0.556862
5797.73	0.553903
5780.37	0.542788
5763.01	0.488095
5745.65	0.431896
5728.29	0.484009
5710.93	0.53594
5693.57	0.555187
5676.21	0.553482
5658.86	0.602094
5641.5	0.608119
5624.14	0.628388
5606.78	0.632
5589.42	0.612067
5572.06	0.59631
5554.7	0.607538
5537.34	0.584608
5519.98	0.575389
5502.62	0.541439
5485.26	0.487335
5467.9	0.343752
5450.54	0.169485
5433.18	0.0680589
5415.82	0.033419
5398.46	0.0317354
5381.1	0.0357646
5363.74	0.0477614
5346.38	0.0708616
5329.02	0.100584
5311.66	0.126875
5294.3	0.0887248
5276.94	0.127115
5259.58	0.186633
5242.22	0.0960484
5224.86	0.0787075
5207.5	0.0793624
5190.14	0.0765763
5172.78	0.132543
5155.42	0.186696
5138.06	0.283801
5120.7	0.284822
5103.34	0.257498
5085.98	0.309566
5068.62	0.349504
5051.26	0.356221
5033.9	0.289026
5016.54	0.340698
4999.18	0.375409
4981.82	0.447328
4964.46	0.376129
4947.1	0.416263
4929.74	0.461651
4912.38	0.461229
4895.02	0.482969
4877.66	0.48661
4860.3	0.458732
4842.94	0.463015
4825.58	0.490018
4808.22	0.529208
4790.86	0.434825
4773.51	0.399303
4756.15	0.470405
4738.79	0.444378
4721.43	0.471122
4704.07	0.483538
4686.71	0.272024
4669.35	0.444121
4651.99	0.443818
4634.63	0.351947
4617.27	0.2627
4599.91	0.285509
4582.55	0.115443
4565.19	0.0357973
4547.83	0.0408506
4530.47	0.0280843
4513.11	0.0607094
4495.75	0.0351514
4478.39	0.0472635
4461.03	0.0481182
4443.67	0.0811515
4426.31	0.0628218
4408.95	0.0590915
4391.59	0.0736829
4374.23	0.0960431
4356.87	0.033642
4339.51	0.0406039
4322.15	0.115077
4304.79	0.0489915
4287.43	0.114851
4270.07	0.0332636
4252.71	0.152193
4235.35	0.226288
4217.99	0.121993
4200.63	0.315662
4183.27	0.28039
4165.91	0.115043
4148.55	0.0466732
4131.19	0.11815
4113.83	0.13213
4096.47	0.0595715
4079.11	0.0500117
4061.75	0.0506728
4044.39	0.886565
4027.03	0.886569
4009.67	0.876243
3992.31	0.864524
3974.95	0.859494
3957.59	0.852914
3940.23	0.842756
3922.87	0.844327
3905.52	0.830482
3888.16	0.83538
3870.8	0.83178
3853.44	0.830172
3836.08	0.832382
3818.72	0.841431
3801.36	0.844783
3784	0.850935
3766.64	0.845889
3749.28	0.858774
3731.92	0.856403
3714.56	0.853998
3697.2	0.846349
3679.84	0.847818
3662.48	0.836175
3645.12	0.813143
3627.76	0.781031
3610.4	0.753328
3593.04	0.75704
3575.68	0.749454
3558.32	0.744568
3540.96	0.748967
3523.6	0.758304
3506.24	0.749806
3488.88	0.741629
3471.52	0.75653
3454.16	0.765286
3436.8	0.775857
3419.44	0.782944
3402.08	0.783865
3384.72	0.77211
3367.36	0.738174
3350	0.728437
3332.64	0.753194
3315.28	0.732181
3297.92	0.71005
3280.56	0.709538
3263.2	0.71451
3245.84	0.744232
3228.48	0.739484
3211.12	0.709311
3193.76	0.714446
3176.4	0.729587
3159.04	0.752967
3141.68	0.750214
3124.32	0.75009
3106.96	0.778414
3089.6	0.784389
3072.24	0.791931
3054.88	0.78766
3037.53	0.79727
3020.17	0.804512
3002.81	0.798785
2985.45	0.795595
2968.09	0.796369
2950.73	0.811262
2933.37	0.810307
2916.01	0.807094
2898.65	0.806745
2881.29	0.811224
2863.93	0.809462
2846.57	0.798193
2829.21	0.794943
2811.85	0.777678
2794.49	0.743429
2777.13	0.694651
2759.77	0.673704
2742.41	0.58181
2725.05	0.698183
2707.69	0.698633
2690.33	0.649968
2672.97	0.609313
2655.61	0.611997
2638.25	0.58425
2620.89	0.563568
2603.53	0.540721
2586.17	0.526215
2568.81	0.536351
2551.45	0.565578
2534.09	0.55558
2516.73	0.481499
2499.37	0.415954
2482.01	0.367375
2464.65	0.378241
2447.29	0.446306
2429.93	0.439715
2412.57	0.500034
2395.21	0.499287
2377.85	0.503607
2360.49	0.516372
2343.13	0.546509
2325.77	0.502481
2308.41	0.46056
2291.05	0.414105
2273.69	0.497408
2256.33	0.523964
2238.97	0.53448
2221.61	0.558856
2204.25	0.580874
2186.89	0.607129
2169.53	0.618105
2152.18	0.615855
2134.82	0.589913
2117.46	0.589308
2100.1	0.58451
2082.74	0.56094
2065.38	0.552484
2048.02	0.512919
2030.66	0.442475
2013.3	0.273888
1995.94	0.125103
1978.58	0.0510652
1961.22	0.0296441
1943.86	0.0312335
1926.5	0.0368042
1909.14	0.0509309
1891.78	0.0751266
1874.42	0.107328
1857.06	0.119423
1839.7	0.0785678
1822.34	0.132676
1804.98	0.174093
1787.62	0.128297
1770.26	0.0682218
1752.9	0.0785087
1735.54	0.0659742
1718.18	0.114599
1700.82	0.224171
1683.46	0.270617
1666.1	0.280704
1648.74	0.27216
1631.38	0.320988
1614.02	0.34238
1596.66	0.294782
1579.3	0.272464
1561.94	0.368971
1544.58	0.380007
1527.22	0.439952
1509.86	0.345321
1492.5	0.423634
1475.14	0.45491
1457.78	0.469441
1440.42	0.490044
1423.06	0.444638
1405.7	0.429368
1388.34	0.472919
1370.98	0.457753
1353.62	0.506451
1336.26	0.416587
1318.9	0.444695
1301.54	0.446234
1284.19	0.385124
1266.83	0.409511
1249.47	0.460467
1232.11	0.288795
1214.75	0.426388
1197.39	0.390413
1180.03	0.322774
1162.67	0.28622
1145.31	0.249474
1127.95	0.0489334
1110.59	0.0370844
1093.23	0.0320286
1075.87	0.032511
1058.51	0.0694601
1041.15	0.0502941
1023.79	0.0384528
1006.43	0.0737335
989.068	0.0662091
971.709	0.0897138
954.349	0.0469152
936.989	0.0547565
919.629	0.0685746
902.269	0.0546493
884.91	0.0814026
867.55	0.0720286
850.19	0.0564108
832.83	0.14307
815.47	0.0950006
798.111	0.146325
780.751	0.128993
763.391	0.0455129
746.031	0.324793
728.671	0.275366
711.312	0.0780936
693.952	0.15035
676.592	0.141938
659.232	0.0544936
641.872	0.061045
624.513	0.0675217
607.153	0.0909569
