Infrared Spectrum: Guanine
Formula: C5 H5 N5 O
CAS: 73-40-5
State: SOLID (1.6 mg / 400 mg KBr DISC)
Class: COBLENTZ II
Instrument: PERKIN-ELMER 180 (GRATING)
Instrument parameters: GRATINGS: 2000, 1000, 500, 250 CM^-^1; FILTER CHANGE: 2970, 2000, 1485, 1000, 743, 500, 372, 250, 186 CM^-^1.
Sampling: TRANSMISSION
Resolution: 2
Origin: K. K. DEB-NCI FREDERICK CANCER RESEARCH CENTER
1/CM	TRANSMITTANCE
404	0.6108
413	0.7433
422	0.8299
431	0.8423
440	0.8341
449	0.8161
458	0.7959
467	0.7734
476	0.745
485	0.711
494	0.6711
503	0.5995
512	0.6532
521	0.6956
530	0.7003
539	0.5981
548	0.6637
557	0.5819
566	0.6858
575	0.6753
584	0.6755
593	0.6849
602	0.5558
611	0.5672
620	0.7548
629	0.7785
638	0.7642
647	0.6876
656	0.7538
665	0.8162
674	0.826
683	0.7992
692	0.6454
701	0.6816
710	0.8342
719	0.8564
728	0.8357
737	0.8391
746	0.8431
755	0.821
764	0.7795
773	0.6075
782	0.4746
791	0.5663
800	0.6094
809	0.6485
818	0.6821
827	0.6932
836	0.6211
845	0.5638
854	0.5658
863	0.6824
872	0.5655
881	0.4952
890	0.5911
899	0.7033
908	0.7837
917	0.8298
926	0.8469
935	0.815
944	0.6716
953	0.5684
962	0.8468
971	0.8766
980	0.8718
989	0.8651
998	0.8569
1007	0.8479
1016	0.8361
1025	0.8231
1034	0.7984
1043	0.7689
1052	0.8025
1061	0.8054
1070	0.7972
1079	0.7795
1088	0.756
1097	0.724
1106	0.6604
1115	0.5246
1124	0.5296
1133	0.6493
1142	0.6588
1151	0.6702
1160	0.6922
1169	0.5519
1178	0.587
1187	0.6676
1196	0.6373
1205	0.5643
1214	0.5097
1223	0.6103
1232	0.7028
1241	0.6801
1250	0.564
1259	0.4038
1268	0.6461
1277	0.7783
1286	0.7732
1295	0.7616
1304	0.741
1313	0.7139
1322	0.6779
1331	0.6287
1340	0.5638
1349	0.4603
1358	0.3339
1367	0.1994
1376	0.1825
1385	0.3229
1394	0.4824
1403	0.6032
1412	0.5134
1421	0.5346
1430	0.677
1439	0.6455
1448	0.556
1457	0.4168
1466	0.3691
1475	0.2377
1484	0.6068
1493	0.7263
1502	0.7305
1511	0.6989
1520	0.632
1529	0.5533
1538	0.4781
1547	0.3502
1556	0.307
1565	0.3268
1574	0.5122
1583	0.4868
1592	0.4362
1601	0.3856
1610	0.335
1619	0.2843
1628	0.2362
1637	0.2234
1646	0.2153
1655	0.1212
1664	0.0462
1673	0.0238
1682	0.0538
1691	0.0269
1700	0.0307
1709	0.0903
1718	0.2297
1727	0.3553
1736	0.4876
1745	0.5745
1754	0.6416
1763	0.6858
1772	0.7305
1781	0.7853
1790	0.841
1799	0.8651
1808	0.8737
1817	0.8901
1826	0.9135
1835	0.9328
1844	0.9375
1853	0.936
1862	0.9341
1871	0.9342
1880	0.9376
1889	0.9361
1898	0.934
1907	0.9329
1916	0.933
1925	0.9345
1934	0.9374
1943	0.9389
1952	0.9358
1961	0.9355
1970	0.9355
1979	0.9322
1988	0.9269
1997	0.9237
2006	0.9295
2015	0.9269
2024	0.9226
2033	0.9179
2042	0.9131
2051	0.9077
2060	0.9024
2069	0.896
2078	0.8894
2087	0.8828
2096	0.8765
2105	0.8718
2114	0.8726
2123	0.8786
2132	0.8785
2141	0.8731
2150	0.8665
2159	0.8597
2168	0.8544
2177	0.8491
2186	0.8431
2195	0.8362
2204	0.8294
2213	0.8217
2222	0.814
2231	0.8064
2240	0.7992
2249	0.7919
2258	0.785
2267	0.7782
2276	0.7715
2285	0.7647
2294	0.758
2303	0.7512
2312	0.7445
2321	0.738
2330	0.7316
2339	0.7254
2348	0.7216
2357	0.7205
2366	0.7142
2375	0.7051
2384	0.6953
2393	0.684
2402	0.6723
2411	0.6604
2420	0.6487
2429	0.6369
2438	0.6252
2447	0.614
2456	0.6104
2465	0.6119
2474	0.6111
2483	0.6022
2492	0.5903
2501	0.5784
2510	0.5665
2519	0.5545
2528	0.5427
2537	0.5307
2546	0.5189
2555	0.5049
2564	0.4894
2573	0.4728
2582	0.4579
2591	0.4433
2600	0.4289
2609	0.4158
2618	0.4034
2627	0.3901
2636	0.376
2645	0.3581
2654	0.3425
2663	0.3278
2672	0.3148
2681	0.3032
2690	0.29
2699	0.2878
2708	0.2962
2717	0.3042
2726	0.3112
2735	0.3172
2744	0.3222
2753	0.3255
2762	0.3268
2771	0.3279
2780	0.3322
2789	0.3473
2798	0.3682
2807	0.3765
2816	0.3702
2825	0.3386
2834	0.307
2843	0.2751
2852	0.2753
2861	0.288
2870	0.2873
2879	0.2717
2888	0.2555
2897	0.2404
2906	0.2381
2915	0.2865
2924	0.3434
2933	0.4002
2942	0.4543
2951	0.4415
2960	0.4012
2969	0.361
2978	0.3208
2987	0.3033
2996	0.32
3005	0.3343
3014	0.3315
3023	0.3225
3032	0.3132
3041	0.3008
3050	0.2798
3059	0.238
3068	0.2281
3077	0.2228
3086	0.2134
3095	0.1999
3104	0.1828
3113	0.1764
3122	0.1876
3131	0.223
3140	0.2403
3149	0.2569
3158	0.2671
3167	0.2735
3176	0.2893
3185	0.3121
3194	0.3379
3203	0.3659
3212	0.3901
3221	0.4042
3230	0.4098
3239	0.4172
3248	0.3995
3257	0.3763
3266	0.3604
3275	0.3437
3284	0.3241
3293	0.3021
3302	0.2648
3311	0.2245
3320	0.1997
3329	0.1993
3338	0.2096
3347	0.2376
3356	0.3004
3365	0.4003
3374	0.4767
3383	0.5079
3392	0.5371
3401	0.5912
3410	0.622
3419	0.6487
3428	0.6717
3437	0.6889
3446	0.7028
3455	0.7154
3464	0.7253
3473	0.7349
3482	0.7449
3491	0.756
3500	0.7668
3509	0.7773
3518	0.7878
3527	0.7975
3536	0.8073
3545	0.817
3554	0.8268
3563	0.8365
3572	0.8446
3581	0.8522
3590	0.86
3599	0.8677
3608	0.8756
3617	0.8823
3626	0.887
3635	0.8917
3644	0.8948
3653	0.8969
3662	0.8976
3671	0.898
3680	0.8977
3689	0.8994
3698	0.899
3707	0.8976
3716	0.8962
3725	0.8937
3734	0.8911
3743	0.8888
3752	0.8867
3761	0.8844
3770	0.882
3779	0.8795
