Infrared Spectrum: MALONONITRILE, DIMETHYL-
Formula: C5 H6 N2
CAS: 7321-55-3
State: SOLUTION (10% CCl4 FOR 3800-400 CM^-^1)
Melting point: 33 C
Class: COBLENTZ III
Instrument: DOW KBr FOREPRISM-GRATING
Instrument parameters: BLAZED AT 3.5, 12.0, 20.0 MICRON AND CHANGED AT 5.0, 7.5, 14.9 MICRON
Sampling: TRANSMISSION
Path length: 0.012 CM
Resolution: 2
Origin: DOW CHEMICAL COMPANY
1/CM	TRANSMITTANCE
390	0.7405
399	0.7571
408	0.773
417	0.7858
426	0.7915
435	0.7799
444	0.7654
453	0.7694
462	0.7212
471	0.6568
480	0.8094
489	0.8584
498	0.902
507	0.9142
516	0.9214
525	0.9173
534	0.9103
543	0.9371
552	0.9502
561	0.9461
570	0.9261
579	0.9263
588	0.9728
597	0.9771
606	0.9704
615	0.9534
624	0.9168
633	0.9728
642	0.9871
651	0.9734
660	0.9039
669	0.9107
678	0.9467
687	0.9261
696	0.8868
705	0.8346
714	0.7024
723	0.4997
732	0.2234
741	0.009
750	0.0059
759	0.0058
768	0.0058
777	0.0058
786	0.0057
795	0.0057
804	0.0057
813	0.0158
822	0.1452
831	0.4408
840	0.6434
849	0.7531
858	0.8334
867	0.8646
876	0.8805
885	0.913
894	0.932
903	0.9398
912	0.9477
921	0.9518
930	0.9444
939	0.9207
948	0.8263
957	0.8756
966	0.8355
975	0.7639
984	0.7468
993	0.7732
1002	0.7243
1011	0.7125
1020	0.8523
1029	0.9031
1038	0.9098
1047	0.8833
1056	0.8932
1065	0.8786
1074	0.8956
1083	0.912
1092	0.8968
1101	0.8805
1110	0.8899
1119	0.8731
1128	0.8205
1137	0.839
1146	0.8671
1155	0.8945
1164	0.8835
1173	0.8134
1182	0.7578
1191	0.6501
1200	0.3332
1209	0.5686
1218	0.3041
1227	0.1136
1236	0.3945
1245	0.6445
1254	0.6586
1263	0.7418
1272	0.84
1281	0.8801
1290	0.9017
1299	0.908
1308	0.9103
1317	0.9109
1326	0.9178
1335	0.9282
1344	0.9278
1353	0.9243
1362	0.9101
1371	0.8549
1380	0.5596
1389	0.8353
1398	0.6243
1407	0.8578
1416	0.8571
1425	0.846
1434	0.8092
1443	0.5278
1452	0.5659
1461	0.3443
1470	0.4879
1479	0.5342
1488	0.7945
1497	0.8032
1506	0.7632
1515	0.7275
1524	0.6899
1533	0.6395
1542	0.541
1551	0.5008
1560	0.548
1569	0.6236
1578	0.6569
1587	0.6818
1596	0.7451
1605	0.8381
1614	0.8813
1623	0.902
1632	0.9165
1641	0.9206
1650	0.9214
1659	0.9203
1668	0.9178
1677	0.9164
1686	0.9167
1695	0.9188
1704	0.9207
1713	0.9218
1722	0.9221
1731	0.9245
1740	0.9286
1749	0.9337
1758	0.9368
1767	0.9389
1776	0.94
1785	0.9409
1794	0.9418
1803	0.9425
1812	0.9428
1821	0.9428
1830	0.9428
1839	0.9421
1848	0.9427
1857	0.9399
1866	0.9384
1875	0.9368
1884	0.9367
1893	0.9415
1902	0.9468
1911	0.9499
1920	0.9512
1929	0.9517
1938	0.9499
1947	0.9487
1956	0.9465
1965	0.9443
1974	0.9411
1983	0.9342
1992	0.9548
2001	0.953
2010	0.9524
2019	0.9525
2028	0.9518
2037	0.9486
2046	0.9456
2055	0.9456
2064	0.9457
2073	0.9482
2082	0.9547
2091	0.9561
2100	0.9552
2109	0.9537
2118	0.9525
2127	0.9528
2136	0.9535
2145	0.9557
2154	0.9616
2163	0.9645
2172	0.9627
2181	0.9607
2190	0.9593
2199	0.9587
2208	0.9591
2217	0.9588
2226	0.957
2235	0.953
2244	0.9361
2253	0.8228
2262	0.8954
2271	0.9346
2280	0.9297
2289	0.933
2298	0.9361
2307	0.9271
2316	0.9168
2325	0.924
2334	0.9396
2343	0.9408
2352	0.9396
2361	0.938
2370	0.9346
2379	0.9404
2388	0.9446
2397	0.9396
2406	0.94
2415	0.9464
2424	0.9504
2433	0.946
2442	0.9475
2451	0.9531
2460	0.9577
2469	0.9567
2478	0.9548
2487	0.9554
2496	0.9551
2505	0.9544
2514	0.9534
2523	0.9525
2532	0.9547
2541	0.957
2550	0.9578
2559	0.9556
2568	0.9523
2577	0.9478
2586	0.9431
2595	0.9502
2604	0.9532
2613	0.9536
2622	0.9539
2631	0.9552
2640	0.9561
2649	0.9559
2658	0.9555
2667	0.9546
2676	0.9537
2685	0.9527
2694	0.9517
2703	0.9507
2712	0.9498
2721	0.9491
2730	0.9483
2739	0.9468
2748	0.9454
2757	0.9446
2766	0.9497
2775	0.9511
2784	0.9501
2793	0.9467
2802	0.9397
2811	0.9303
2820	0.9235
2829	0.9275
2838	0.9302
2847	0.9292
2856	0.9224
2865	0.8787
2874	0.843
2883	0.8873
2892	0.8923
2901	0.8745
2910	0.8694
2919	0.8671
2928	0.8444
2937	0.7991
2946	0.666
2955	0.8151
2964	0.8675
2973	0.8632
2982	0.8433
2991	0.7522
3000	0.51
3009	0.4782
3018	0.8458
3027	0.904
3036	0.9171
3045	0.9253
3054	0.9287
3063	0.9309
3072	0.932
3081	0.9325
3090	0.9325
3099	0.9321
3108	0.9316
3117	0.9289
3126	0.9233
3135	0.9275
3144	0.9352
3153	0.9385
3162	0.9386
3171	0.9357
3180	0.9286
3189	0.9187
3198	0.9171
3207	0.9284
3216	0.9362
3225	0.9378
3234	0.9383
3243	0.9381
3252	0.9398
3261	0.9434
3270	0.9454
3279	0.9466
3288	0.9474
3297	0.9478
3306	0.9483
3315	0.9487
3324	0.9489
3333	0.9485
3342	0.948
3351	0.9471
3360	0.9478
3369	0.9492
3378	0.9505
3387	0.9518
3396	0.9518
3405	0.9517
3414	0.9516
3423	0.9516
3432	0.9518
3441	0.9521
3450	0.9528
3459	0.9546
3468	0.9563
3477	0.9574
3486	0.9587
3495	0.9599
3504	0.9609
3513	0.9618
3522	0.9628
3531	0.9633
3540	0.9634
3549	0.9635
3558	0.9637
3567	0.9638
3576	0.9646
3585	0.9666
3594	0.9698
3603	0.973
3612	0.9764
3621	0.9775
3630	0.9766
3639	0.9758
3648	0.9754
3657	0.9752
3666	0.9744
3675	0.9708
3684	0.9641
3693	0.9712
3702	0.9805
3711	0.9835
3720	0.9866
3729	0.9886
3738	0.9883
3747	0.9863
3756	1.0467
3765	1.0098
3774	0.9835
3783	0.9818
3792	0.9817
