Infrared Spectrum: DECANETHIOL, 9,9-DIMETHYL-
Formula: C12 H26 S
CAS: 7341-22-2
State: LIQUID (NEAT)
Class: COBLENTZ III
Instrument: PERKIN-ELMER 521 (GRATING)
Instrument parameters: FILTERS AT 3150, 2500, 2000, 1150, 700, 410 AND GRATING CHANGES AT 2000, 630 CM^-^1
Sampling: TRANSMISSION
Path length: SMEAR, CsBr CRYSTALS
Resolution: 4
Origin: STANDARD OIL OF OHIO
1/CM	TRANSMITTANCE
244.785	0.845
254.563	0.851
264.342	0.866
274.12	0.884
283.899	0.898
293.677	0.907
303.455	0.92
313.234	0.922
323.012	0.929
332.79	0.935
342.569	0.935
352.347	0.937
362.126	0.948
371.904	0.945
381.682	0.952
391.461	0.963
401.239	0.965
411.018	0.958
420.796	0.965
430.574	0.967
440.353	0.965
450.131	0.968
459.909	0.967
469.688	0.967
479.466	0.963
489.245	0.963
499.023	0.964
508.801	0.957
518.58	0.958
528.358	0.959
538.136	0.956
547.915	0.952
557.693	0.947
567.472	0.94
577.25	0.935
587.028	0.926
596.807	0.901
606.585	0.901
616.364	0.926
626.142	0.923
635.92	0.875
645.699	0.89
655.477	0.92
665.255	0.941
675.034	0.948
684.812	0.946
694.591	0.95
704.369	0.94
714.147	0.933
723.926	0.898
733.704	0.858
743.483	0.836
753.261	0.864
763.039	0.852
772.818	0.824
782.596	0.819
792.374	0.841
802.153	0.841
811.931	0.824
821.71	0.816
831.488	0.822
841.266	0.83
851.045	0.824
860.823	0.822
870.601	0.829
880.38	0.844
890.158	0.847
899.937	0.85
909.715	0.846
919.493	0.823
929.272	0.838
939.05	0.842
948.829	0.84
958.607	0.822
968.385	0.794
978.164	0.806
987.942	0.819
997.72	0.792
1007.5	0.74
1017.28	0.778
1027.06	0.806
1036.83	0.802
1046.61	0.807
1056.39	0.814
1066.17	0.82
1075.95	0.805
1085.73	0.79
1095.5	0.763
1105.28	0.734
1115.06	0.677
1124.84	0.665
1134.62	0.594
1144.4	0.61
1154.17	0.617
1163.95	0.685
1173.73	0.714
1183.51	0.768
1193.29	0.794
1203.07	0.791
1212.84	0.779
1222.62	0.794
1232.4	0.807
1242.18	0.79
1251.96	0.767
1261.74	0.768
1271.52	0.769
1281.29	0.752
1291.07	0.723
1300.85	0.733
1310.63	0.739
1320.41	0.747
1330.19	0.728
1339.96	0.711
1349.74	0.714
1359.52	0.632
1369.3	0.417
1379.08	0.3
1388.86	0.4541
1398.63	0.7
1408.41	0.753
1418.19	0.74
1427.97	0.68
1437.75	0.517
1447.53	0.388
1457.3	0.269
1467.08	0.253
1476.86	0.4541
1486.64	0.661
1496.42	0.767
1506.2	0.82
1515.97	0.842
1525.75	0.859
1535.53	0.869
1545.31	0.876
1555.09	0.88
1564.87	0.884
1574.65	0.886
1584.42	0.889
1594.2	0.894
1603.98	0.894
1613.76	0.895
1623.54	0.894
1633.32	0.896
1643.09	0.891
1652.87	0.895
1662.65	0.89
1672.43	0.894
1682.21	0.891
1691.99	0.892
1701.76	0.896
1711.54	0.896
1721.32	0.897
1731.1	0.901
1740.88	0.902
1750.66	0.904
1760.43	0.908
1770.21	0.908
1779.99	0.909
1789.77	0.908
1799.55	0.911
1809.33	0.909
1819.1	0.909
1828.88	0.909
1838.66	0.911
1848.44	0.912
1858.22	0.912
1868	0.909
1877.77	0.909
1887.55	0.909
1897.33	0.912
1907.11	0.911
1916.89	0.911
1926.67	0.912
1936.45	0.911
1946.22	0.912
1956	0.911
1965.78	0.912
1975.56	0.911
1985.34	0.914
1995.12	0.911
2004.89	0.9115
2014.67	0.912
2024.45	0.911
2034.23	0.911
2044.01	0.911
2053.79	0.9086
2063.56	0.908
2073.34	0.9074
2083.12	0.909
2092.9	0.9099
2102.68	0.908
2112.46	0.907
2122.23	0.907
2132.01	0.907
2141.79	0.9054
2151.57	0.9027
2161.35	0.902
2171.13	0.9017
2180.9	0.9007
2190.68	0.9
2200.46	0.898
2210.24	0.898
2220.02	0.898
2229.8	0.898
2239.58	0.898
2249.35	0.898
2259.13	0.898
2268.91	0.897
2278.69	0.897
2288.47	0.8919
2298.25	0.8919
2308.02	0.887
2317.8	0.892
2327.58	0.895
2337.36	0.887
2347.14	0.886
2356.92	0.88
2366.69	0.879
2376.47	0.879
2386.25	0.879
2396.03	0.878
2405.81	0.878
2415.59	0.8799
2425.36	0.883
2435.14	0.884
2444.92	0.883
2454.7	0.883
2464.48	0.883
2474.26	0.885
2484.03	0.881
2493.81	0.8783
2503.59	0.879
2513.37	0.873
2523.15	0.8704
2532.93	0.8601
2542.7	0.8421
2552.48	0.8285
2562.26	0.8153
2572.04	0.7956
2581.82	0.78
2591.6	0.7997
2601.38	0.8127
2611.15	0.8187
2620.93	0.822
2630.71	0.824
2640.49	0.824
2650.27	0.824
2660.05	0.824
2669.82	0.824
2679.6	0.8234
2689.38	0.822
2699.16	0.8149
2708.94	0.8103
2718.72	0.7798
2728.49	0.7544
2738.27	0.7561
2748.05	0.7915
2757.83	0.793
2767.61	0.7885
2777.39	0.7762
2787.16	0.7495
2796.94	0.7181
2806.72	0.6748
2816.5	0.6333
2826.28	0.5748
2836.06	0.4919
2845.83	0.3571
2855.61	0.2668
2865.39	0.2108
2875.17	0.1793
2884.95	0.2179
2894.73	0.2197
2904.51	0.1921
2914.28	0.1654
2924.06	0.1347
2933.84	0.1243
2943.62	0.1387
2953.4	0.1218
2963.18	0.1032
2972.95	0.1288
2982.73	0.2103
2992.51	0.3647
3002.29	0.5241
3012.07	0.6178
3021.85	0.6744
3031.62	0.7228
3041.4	0.7538
3051.18	0.7795
3060.96	0.7992
3070.74	0.8081
3080.52	0.8171
3090.29	0.823
3100.07	0.8291
3109.85	0.834
3119.63	0.834
3129.41	0.834
3139.19	0.8329
3148.96	0.831
3158.74	0.829
3168.52	0.827
3178.3	0.825
3188.08	0.8299
3197.86	0.8339
3207.63	0.8409
3217.41	0.8469
3227.19	0.8509
3236.97	0.8589
3246.75	0.864
3256.53	0.8678
3266.31	0.8698
3276.08	0.873
3285.86	0.875
3295.64	0.8775
3305.42	0.879
3315.2	0.878
3324.98	0.876
3334.75	0.879
3344.53	0.8797
3354.31	0.8803
3364.09	0.881
3373.87	0.879
3383.65	0.8807
3393.42	0.881
3403.2	0.883
3412.98	0.8768
3422.76	0.8744
3432.54	0.879
3442.32	0.8806
3452.09	0.884
3461.87	0.8855
3471.65	0.8881
3481.43	0.8905
3491.21	0.892
3500.99	0.891
3510.76	0.891
3520.54	0.8929
3530.32	0.895
3540.1	0.896
3549.88	0.896
3559.66	0.897
3569.43	0.898
3579.21	0.898
3588.99	0.898
3598.77	0.8966
3608.55	0.8927
3618.33	0.8913
3628.11	0.8933
3637.88	0.894
3647.66	0.891
3657.44	0.889
3667.22	0.8893
3677	0.89
3686.78	0.89
3696.55	0.891
3706.33	0.8868
3716.11	0.8862
3725.89	0.89
3735.67	0.8895
3745.45	0.8898
3755.22	0.8843
3765	0.885
3774.78	0.884
3784.56	0.885
3794.34	0.8831
3804.12	0.8839
3813.89	0.8809
3823.67	0.88
3833.45	0.88
3843.23	0.8811
3853.01	0.8811
3862.79	0.88
3872.56	0.878
3882.34	0.876
3892.12	0.879
3901.9	0.878
