Infrared Spectrum: P,P'-DINITRO-BIBENZYL
Formula: C14 H12 N2 O4
CAS: 736-30-1
State: SOLID (1.0% IN KBr PELLET)
Class: COBLENTZ
Instrument: Not specified, most likely a prism, grating, or hybrid spectrometer.
Sampling: TRANSMISSION
Path length: 0.0355 CM THICK
Resolution: 4
Origin: ANDERSON PHYSICAL LABORATORY
1/CM	TRANSMITTANCE
671.241	0.804
679.663	0.801
688.084	0.7471
696.506	0.4371
704.928	0.7078
713.35	0.9119
721.771	0.936
730.193	0.933
738.615	0.915
747.036	0.83
755.458	0.475
763.88	0.8819
772.302	0.905
780.723	0.896
789.145	0.7712
797.567	0.8667
805.988	0.924
814.41	0.872
822.832	0.809
831.253	0.821
839.675	0.81
848.097	0.6583
856.519	0.2703
864.94	0.348
873.362	0.8779
881.784	0.935
890.205	0.933
898.627	0.927
907.049	0.918
915.471	0.906
923.892	0.9
932.314	0.891
940.736	0.888
949.157	0.882
957.579	0.849
966.001	0.836
974.423	0.818
982.844	0.787
991.266	0.834
999.688	0.836
1008.11	0.828
1016.53	0.796
1024.95	0.772
1033.37	0.818
1041.8	0.806
1050.22	0.8
1058.64	0.795
1067.06	0.778
1075.48	0.768
1083.9	0.75
1092.33	0.709
1100.75	0.6091
1109.17	0.59
1117.59	0.433
1126.01	0.8099
1134.44	0.842
1142.86	0.825
1151.28	0.803
1159.7	0.777
1168.12	0.754
1176.54	0.736
1184.97	0.6241
1193.39	0.7048
1201.81	0.742
1210.23	0.729
1218.65	0.721
1227.07	0.712
1235.5	0.703
1243.92	0.678
1252.34	0.661
1260.76	0.643
1269.18	0.601
1277.6	0.574
1286.03	0.577
1294.45	0.553
1302.87	0.511
1311.29	0.431
1319.71	0.363
1328.13	0.315
1336.56	0.219
1344.98	0.088
1353.4	0.0819
1361.82	0.3209
1370.24	0.5119
1378.66	0.798
1387.09	0.9079
1395.51	0.965
1403.93	0.954
1412.35	0.899
1420.77	0.903
1429.19	0.881
1437.62	0.872
1446.04	0.8391
1454.46	0.787
1462.88	0.7001
1471.3	0.6959
1479.73	0.673
1488.15	0.652
1496.57	0.58
1504.99	0.464
1513.41	0.329
1521.83	0.1561
1530.26	0.2578
1538.68	0.6059
1547.1	0.732
1555.52	0.8149
1563.94	0.83
1572.36	0.822
1580.79	0.784
1589.21	0.688
1597.63	0.475
1606.05	0.4298
1614.47	0.5
1622.89	0.8219
1631.32	0.9
1639.74	0.906
1648.16	0.905
1656.58	0.893
1665	0.896
1673.42	0.899
1681.85	0.894
1690.27	0.878
1698.69	0.881
1707.11	0.884
1715.53	0.881
1723.95	0.884
1732.38	0.887
1740.8	0.878
1749.22	0.879
1757.64	0.876
1766.06	0.873
1774.48	0.872
1782.91	0.869
1791.33	0.855
1799.75	0.839
1808.17	0.839
1816.59	0.854
1825.02	0.857
1833.44	0.858
1841.86	0.858
1850.28	0.858
1858.7	0.858
1867.12	0.855
1875.55	0.858
1883.97	0.858
1892.39	0.855
1900.81	0.855
1909.23	0.852
1917.65	0.848
1926.08	0.84
1934.5	0.821
1942.92	0.8299
1951.34	0.855
1959.76	0.869
1968.18	0.867
1976.61	0.864
1985.03	0.866
1993.45	0.866
2001.87	0.866
2010.29	0.864
2018.71	0.863
2027.14	0.861
2035.56	0.86
2043.98	0.8573
2052.4	0.854
2060.82	0.852
2069.24	0.8515
2077.67	0.8495
2086.09	0.848
2094.51	0.846
2102.93	0.845
2111.35	0.8435
2119.78	0.84
2128.2	0.8386
2136.62	0.836
2145.04	0.8286
2153.46	0.828
2161.88	0.8278
2170.31	0.8245
2178.73	0.822
2187.15	0.819
2195.57	0.8158
2203.99	0.8111
2212.41	0.8046
2220.84	0.8001
2229.26	0.798
2237.68	0.8005
2246.1	0.8024
2254.52	0.803
2262.94	0.8026
2271.37	0.801
2279.79	0.8
2288.21	0.7961
2296.63	0.7928
2305.05	0.79
2313.47	0.79
2321.9	0.79
2330.32	0.79
2338.74	0.789
2347.16	0.789
2355.58	0.7871
2364	0.787
2372.43	0.787
2380.85	0.787
2389.27	0.787
2397.69	0.7857
2406.11	0.7822
2414.53	0.7736
2422.96	0.7692
2431.38	0.762
2439.8	0.7588
2448.22	0.7446
2456.64	0.7362
2465.07	0.7373
2473.49	0.7474
2481.91	0.7523
2490.33	0.7539
2498.75	0.754
2507.17	0.754
2515.6	0.754
2524.02	0.754
2532.44	0.754
2540.86	0.754
2549.28	0.753
2557.7	0.751
2566.13	0.75
2574.55	0.75
2582.97	0.7487
2591.39	0.748
2599.81	0.7449
2608.23	0.741
2616.66	0.739
2625.08	0.738
2633.5	0.7359
2641.92	0.733
2650.34	0.7311
2658.76	0.7291
2667.19	0.727
2675.61	0.726
2684.03	0.724
2692.45	0.723
2700.87	0.721
2709.29	0.7206
2717.72	0.72
2726.14	0.72
2734.56	0.72
2742.98	0.718
2751.4	0.718
2759.83	0.718
2768.25	0.7179
2776.67	0.717
2785.09	0.7144
2793.51	0.7111
2801.93	0.7078
2810.36	0.7056
2818.78	0.702
2827.2	0.6974
2835.62	0.6894
2844.04	0.6787
2852.46	0.6754
2860.89	0.675
2869.31	0.6759
2877.73	0.675
2886.15	0.673
2894.57	0.672
2902.99	0.672
2911.42	0.673
2919.84	0.6724
2928.26	0.6667
2936.68	0.6533
2945.1	0.6373
2953.52	0.6318
2961.95	0.6338
2970.37	0.6406
2978.79	0.6497
2987.21	0.6532
2995.63	0.6575
3004.05	0.664
3012.48	0.666
3020.9	0.666
3029.32	0.664
3037.74	0.6609
3046.16	0.658
3054.58	0.655
3063.01	0.654
3071.43	0.6518
3079.85	0.648
3088.27	0.6439
3096.69	0.6376
3105.12	0.6329
3113.54	0.6307
3121.96	0.6242
3130.38	0.6194
3138.8	0.6192
3147.22	0.6252
3155.65	0.6335
3164.07	0.634
3172.49	0.634
3180.91	0.633
3189.33	0.6319
3197.75	0.6284
3206.18	0.6269
3214.6	0.625
3223.02	0.625
3231.44	0.625
3239.86	0.624
3248.28	0.622
3256.71	0.6199
3265.13	0.6182
3273.55	0.616
3281.97	0.615
3290.39	0.615
3298.81	0.613
3307.24	0.6099
3315.66	0.604
3324.08	0.603
3332.5	0.601
3340.92	0.6
3349.34	0.595
3357.77	0.5925
3366.19	0.5905
3374.61	0.584
3383.03	0.5802
3391.45	0.5735
3399.88	0.5657
3408.3	0.556
3416.72	0.5465
3425.14	0.5405
3433.56	0.5365
3441.98	0.533
3450.41	0.5315
3458.83	0.53
3467.25	0.529
3475.67	0.527
3484.09	0.527
3492.51	0.527
3500.94	0.527
3509.36	0.529
3517.78	0.5292
3526.2	0.531
3534.62	0.5327
3543.04	0.535
3551.47	0.5395
3559.89	0.5444
3568.31	0.5477
3576.73	0.551
3585.15	0.5532
3593.57	0.5579
3602	0.5642
3610.42	0.566
3618.84	0.569
3627.26	0.571
3635.68	0.572
3644.1	0.575
3652.53	0.5777
3660.95	0.5824
3669.37	0.586
3677.79	0.587
3686.21	0.5892
3694.63	0.5909
3703.06	0.593
3711.48	0.593
3719.9	0.593
3728.32	0.5939
3736.74	0.595
3745.17	0.595
3753.59	0.595
3762.01	0.595
3770.43	0.5974
3778.85	0.598
3787.27	0.598
3795.7	0.598
3804.12	0.598
3812.54	0.598
3820.96	0.598
3829.38	0.598
3837.8	0.596
3846.23	0.596
3854.65	0.595
3863.07	0.593
3871.49	0.593
3879.91	0.593
3888.33	0.593
3896.76	0.5926
3905.18	0.592
3913.6	0.5872
3922.02	0.584
3930.44	0.584
3938.86	0.584
3947.29	0.583
3955.71	0.5832
3964.13	0.584
3972.55	0.583
