Infrared Spectrum: Ethene
Formula: C H2: C H2
CAS: 74-85-1
State: gas
Melting point: -169.15 C
Boiling point: -103.71 C
Class: IUPAC A
Instrument: IFS66V (Bruker)
Instrument parameters: KBr Beam splitter; MCT Detector; Multipass cell
Sampling: 1 L/min Flow
Resolution: 1.9290
Temperature: 23 C
Pressure: 101.3 kPa
Origin: NIST, Anayltical Chemistry Division, 301-975-3108
cm-1	(micromol/mol)-1m-1 (base 10)
574.687	2.00324e-08
583.365	-5.71343e-07
592.043	-9.99784e-08
600.721	-6.0279e-07
609.4	-4.28188e-08
618.078	-5.07417e-07
626.756	5.91168e-09
635.434	-5.94907e-07
644.112	7.9413e-08
652.79	-4.25385e-07
661.469	1.79641e-07
670.147	-4.30021e-07
678.825	6.66001e-08
687.503	-2.09659e-07
696.181	7.73476e-07
704.859	-4.3194e-07
713.537	1.02982e-06
722.216	6.80086e-07
730.894	8.09353e-07
739.572	1.59826e-06
748.25	1.31952e-06
756.928	1.4152e-06
765.606	1.17438e-06
774.285	3.93245e-07
782.963	3.23096e-07
791.641	1.05459e-07
800.319	4.75547e-07
808.997	1.92068e-07
817.675	9.51208e-07
826.353	1.62081e-06
835.032	4.19281e-06
843.71	9.42046e-06
852.388	1.06438e-05
861.066	2.53907e-05
869.744	2.22522e-05
878.422	4.96219e-05
887.101	6.06175e-05
895.779	7.08199e-05
904.457	6.88565e-05
913.135	7.03841e-05
921.813	0.000159863
930.491	7.35287e-05
939.169	0.000108889
947.848	0.000205708
956.526	8.26762e-05
965.204	9.39017e-05
973.882	6.34117e-05
982.56	5.32858e-05
991.238	5.70245e-05
999.917	7.14932e-05
1008.59	6.36733e-05
1017.27	6.25557e-05
1025.95	5.52444e-05
1034.63	2.90402e-05
1043.31	3.16778e-05
1051.99	2.48768e-05
1060.66	1.04874e-05
1069.34	2.10274e-05
1078.02	6.84023e-06
1086.7	7.79965e-06
1095.38	4.70994e-06
1104.05	3.03134e-06
1112.73	8.69118e-07
1121.41	1.98775e-06
1130.09	-3.13969e-07
1138.77	7.94934e-07
1147.45	-4.73524e-07
1156.12	4.74026e-07
1164.8	-6.12958e-07
1173.48	3.13869e-07
1182.16	-6.27299e-07
1190.84	1.55448e-07
1199.51	-5.96867e-07
1208.19	1.2378e-07
1216.87	-5.90686e-07
1225.55	6.13633e-08
1234.23	-5.4791e-07
1242.9	3.43787e-08
1251.58	-5.17764e-07
1260.26	-1.27183e-08
1268.94	-4.65635e-07
1277.62	-8.88026e-09
1286.3	-4.40275e-07
1294.97	-7.1988e-08
1303.65	-3.96481e-07
1312.33	-9.13947e-08
1321.01	-3.57662e-07
1329.69	-1.08917e-07
1338.36	-3.31827e-07
1347.04	-1.36302e-07
1355.72	-2.85871e-07
1364.4	-1.04051e-07
1373.08	-6.38244e-08
1381.76	6.51857e-07
1390.43	3.06884e-06
1399.11	9.29705e-06
1407.79	1.6991e-05
1416.47	2.99151e-05
1425.15	2.79832e-05
1433.82	9.58306e-06
1442.5	2.46478e-05
1451.18	1.23766e-05
1459.86	2.40727e-05
1468.54	2.50167e-05
1477.22	1.05573e-05
1485.89	9.38643e-06
1494.57	2.75178e-06
1503.25	1.75062e-06
1511.93	-4.4623e-07
1520.61	2.67163e-07
1529.28	-6.70034e-07
1537.96	1.28429e-07
1546.64	-6.12045e-07
1555.32	9.3572e-08
1564	-5.71891e-07
1572.67	8.8306e-08
1581.35	-5.44379e-07
1590.03	7.12786e-08
1598.71	-5.2361e-07
1607.39	3.55138e-08
1616.07	-5.46767e-07
1624.74	2.36122e-08
1633.42	-4.78959e-07
1642.1	-7.24318e-09
1650.78	-4.94455e-07
1659.46	-1.12122e-08
1668.13	-4.7761e-07
1676.81	-1.20253e-08
1685.49	-5.013e-07
1694.17	2.04562e-08
1702.85	-4.26845e-07
1711.53	8.77531e-08
1720.2	-3.67125e-07
1728.88	1.10749e-07
1737.56	-2.64612e-07
1746.24	2.76751e-07
1754.92	-1.58852e-07
1763.59	5.16336e-08
1772.27	-4.01982e-07
1780.95	2.68652e-07
1789.63	-3.51134e-07
1798.31	8.43097e-08
1806.98	-5.21347e-07
1815.66	2.28831e-07
1824.34	-1.60643e-07
1833.02	1.59503e-06
1841.7	2.58168e-06
1850.38	7.75627e-06
1859.05	7.0513e-06
1867.73	1.00686e-05
1876.41	8.74942e-06
1885.09	-1.90638e-07
1893.77	3.10841e-06
1902.44	8.52285e-06
1911.12	1.45957e-05
1919.8	1.09754e-05
1928.48	6.85609e-06
1937.16	2.16914e-06
1945.84	7.80437e-07
1954.51	-1.43072e-07
1963.19	-3.78184e-08
1971.87	-3.64977e-07
1980.55	-8.85116e-09
1989.23	3.27182e-07
1997.9	3.1492e-08
2006.58	4.91719e-07
2015.26	7.63797e-07
2023.94	1.1157e-06
2032.62	1.32654e-06
2041.3	-4.3359e-08
2049.97	1.74671e-07
2058.65	5.92791e-07
2067.33	1.8304e-06
2076.01	1.57788e-06
2084.69	1.11175e-06
2093.36	5.00074e-08
2102.04	-1.80097e-08
2110.72	-1.24e-07
2119.4	7.0691e-08
2128.08	-1.08635e-07
2136.75	-3.13065e-08
2145.43	1.07052e-07
2154.11	2.76676e-07
2162.79	2.00775e-07
2171.47	1.29257e-07
2180.15	5.86776e-07
2188.82	8.91078e-07
2197.5	4.65828e-07
2206.18	6.84391e-07
2214.86	3.48087e-07
2223.54	2.2398e-07
2232.21	6.82645e-08
2240.89	4.80429e-08
2249.57	8.07736e-08
2258.25	-1.10958e-08
2266.93	-1.67572e-07
2275.61	-6.44064e-08
2284.28	-1.97554e-07
2292.96	-9.48162e-08
2301.64	-1.59335e-07
2310.32	-5.54625e-08
2319	-1.35605e-07
2327.67	-2.94129e-08
2336.35	-4.74463e-08
2345.03	-1.60816e-08
2353.71	-8.27781e-08
2362.39	1.20506e-07
2371.06	-7.93657e-08
2379.74	-4.58292e-08
2388.42	-1.45562e-07
2397.1	-7.18624e-08
2405.78	-1.90176e-07
2414.46	-8.12266e-08
2423.13	-1.95979e-07
2431.81	-9.24024e-08
2440.49	-2.62601e-07
2449.17	-2.08692e-08
2457.85	-1.72308e-07
2466.52	-4.77573e-08
2475.2	-1.91839e-07
2483.88	-1.17513e-07
2492.56	-2.60882e-07
2501.24	-1.51974e-07
2509.92	-2.81796e-07
2518.59	-1.372e-07
2527.27	-3.17885e-07
2535.95	-1.45644e-07
2544.63	-3.1207e-07
2553.31	-1.55557e-07
2561.98	-3.25215e-07
2570.66	-7.65063e-08
2579.34	-3.48886e-07
2588.02	-1.26254e-07
2596.7	-3.08608e-07
2605.38	-1.26496e-07
2614.05	-3.31525e-07
2622.73	-1.03631e-07
2631.41	-3.27613e-07
2640.09	-9.08271e-08
2648.77	-3.01279e-07
2657.44	-1.02709e-07
2666.12	-3.63661e-07
2674.8	-9.75246e-08
2683.48	-3.71485e-07
2692.16	-9.26716e-08
2700.83	-3.95712e-07
2709.51	-1.09348e-07
2718.19	-4.0508e-07
2726.87	-7.50438e-08
2735.55	-4.01382e-07
2744.23	-5.7498e-08
2752.9	-4.44668e-07
2761.58	-7.76322e-08
2770.26	-4.57446e-07
2778.94	-8.89336e-08
2787.62	-4.82908e-07
2796.29	-7.20789e-08
2804.97	-5.87243e-07
2813.65	-5.25376e-08
2822.33	-6.90976e-07
2831.01	-1.33784e-07
2839.69	-8.6644e-07
2848.36	-7.06419e-08
2857.04	-7.61258e-07
2865.72	1.32242e-07
2874.4	-7.69401e-07
2883.08	2.56234e-07
2891.75	-1.11591e-06
2900.43	4.06467e-07
2909.11	-1.18011e-06
2917.79	1.23698e-06
2926.47	-5.07514e-07
2935.14	5.41858e-06
2943.82	7.31961e-06
2952.5	1.91729e-05
2961.18	2.95198e-05
2969.86	3.31314e-05
2978.54	1.42398e-05
2987.21	5.25259e-05
2995.89	1.11233e-05
3004.57	3.32301e-05
3013.25	4.87594e-05
3021.93	2.58118e-05
3030.6	2.58235e-05
3039.28	1.44801e-05
3047.96	1.64721e-05
3056.64	2.55335e-05
3065.32	2.28944e-05
3074	2.97777e-05
3082.67	3.40503e-05
3091.35	3.1874e-05
3100.03	3.73484e-05
3108.71	2.87264e-05
3117.39	3.50299e-05
3126.06	3.7082e-05
3134.74	3.89949e-05
3143.42	2.57486e-05
3152.1	2.52652e-05
3160.78	1.86002e-05
3169.46	3.64792e-05
3178.13	1.34208e-05
3186.81	1.25208e-05
3195.49	9.27676e-06
3204.17	6.62577e-06
3212.85	4.82708e-06
3221.52	1.65833e-06
3230.2	1.54617e-06
3238.88	4.27229e-07
3247.56	5.1718e-07
3256.24	-5.19974e-08
3264.91	5.27704e-08
3273.59	-2.19054e-07
3282.27	-5.53588e-08
3290.95	-2.62226e-07
3299.63	-7.18734e-08
3308.31	-2.79057e-07
3316.98	-1.26525e-07
3325.66	-2.82468e-07
3334.34	-1.71188e-07
3343.02	-2.58175e-07
3351.7	-6.78243e-08
3360.37	-2.71934e-07
3369.05	-4.80029e-08
3377.73	-2.45688e-07
3386.41	-8.11101e-08
3395.09	-2.71992e-07
3403.77	-1.74948e-07
3412.44	-3.18371e-07
3421.12	-2.00226e-07
3429.8	-3.26769e-07
3438.48	-1.75728e-07
3447.16	-2.94924e-07
3455.83	-1.73334e-07
3464.51	-3.02589e-07
3473.19	-1.29588e-07
3481.87	-2.73433e-07
3490.55	-1.35008e-07
3499.22	-2.93452e-07
3507.9	-2.10321e-07
3516.58	-2.84319e-07
3525.26	-3.81113e-08
3533.94	-2.35312e-07
3542.62	-1.38903e-07
3551.29	-2.7346e-07
3559.97	-1.5666e-07
3568.65	-3.3875e-07
3577.33	-1.73554e-07
3586.01	-2.92126e-07
3594.68	-1.3288e-07
3603.36	-2.91104e-07
3612.04	-1.778e-07
3620.72	-2.96608e-07
3629.4	-2.25097e-07
3638.08	-3.01088e-07
3646.75	-1.66984e-07
3655.43	-3.32078e-07
3664.11	-1.3636e-07
3672.79	-3.19744e-07
3681.47	-1.93929e-07
3690.14	-3.05489e-07
3698.82	-1.42826e-07
3707.5	-3.9969e-07
3716.18	-3.36482e-07
3724.86	-3.76918e-07
3733.54	-2.02798e-08
3742.21	-3.78201e-07
3750.89	-1.51141e-07
3759.57	-4.01254e-07
3768.25	-3.98848e-08
3776.93	-8.88086e-07
3785.6	-1.0585e-07
3794.28	-2.43547e-07
3802.96	-8.67399e-08
3811.64	-1.59006e-07
3820.32	-2.35165e-07
3828.99	-2.47287e-07
3837.67	-1.17333e-07
3846.35	-4.1908e-07
3855.03	-4.7128e-08
3863.71	-1.5457e-07
3872.39	-9.54419e-09
3881.06	-2.35627e-07
3889.74	-9.75883e-09
3898.42	-1.76172e-07
3907.1	1.26528e-08
3915.78	-2.55388e-07
3924.45	3.73982e-09
3933.13	-2.89143e-07
3941.81	-6.33787e-08
3950.49	-2.99586e-07
3959.17	2.94784e-08
3967.85	-2.39096e-07
