Infrared Spectrum: METHYL IODIDE
Formula: C H3 I
CAS: 74-88-4
State: GAS (200 mmHg DILUTED TO A TOTAL PRESSURE OF 600 mmHg WITH N2)
Class: COBLENTZ
Instrument: DOW KBr FOREPRISM
Instrument parameters: GRATING CHANGED AT 5.0, 7.5, 15.0 MICRON
Sampling: TRANSMISSION
Path length: 5 CM
Resolution: 4
Origin: DOW CHEMICAL COMPANY
1/CM	TRANSMITTANCE
455.882	0.958
464.33	0.956
472.778	0.956
481.226	0.955
489.674	0.949
498.122	0.933
506.57	0.884
515.018	0.799
523.467	0.75
531.915	0.856
540.363	0.856
548.811	0.725
557.259	0.8929
565.707	0.958
574.155	0.962
582.603	0.966
591.051	0.965
599.499	0.972
607.947	0.972
616.395	0.972
624.843	0.975
633.291	0.978
641.74	0.979
650.188	0.982
658.636	0.981
667.084	0.981
675.532	0.984
683.98	0.984
692.428	0.982
700.876	0.982
709.324	0.982
717.772	0.984
726.22	0.984
734.668	0.985
743.116	0.985
751.564	0.986
760.012	0.985
768.461	0.982
776.909	0.981
785.357	0.976
793.805	0.968
802.253	0.955
810.701	0.933
819.149	0.92
827.597	0.8232
836.045	0.754
844.493	0.851
852.941	0.819
861.389	0.784
869.837	0.677
878.285	0.395
886.734	0.5029
895.182	0.4069
903.63	0.7328
912.078	0.7781
920.526	0.7897
928.974	0.851
937.422	0.864
945.87	0.88
954.318	0.919
962.766	0.933
971.214	0.949
979.662	0.966
988.11	0.981
996.558	0.988
1005.01	0.992
1013.45	0.994
1021.9	0.997
1030.35	0.989
1038.8	0.992
1047.25	0.986
1055.69	0.989
1064.14	0.984
1072.59	0.979
1081.04	1.002
1089.49	1
1097.94	0.997
1106.38	0.986
1114.83	0.981
1123.28	0.992
1131.73	0.994
1140.18	0.986
1148.62	0.986
1157.07	0.976
1165.52	0.978
1173.97	0.978
1182.42	0.986
1190.86	0.991
1199.31	0.984
1207.76	0.946
1216.21	0.777
1224.66	0.4073
1233.1	0.115
1241.55	0.072
1250	0.3951
1258.45	0.08
1266.9	0.076
1275.34	0.537
1283.79	0.96
1292.24	0.968
1300.69	0.953
1309.14	0.949
1317.59	0.939
1326.03	0.937
1334.48	0.95
1342.93	0.914
1351.38	0.894
1359.83	0.8909
1368.27	0.799
1376.72	0.687
1385.17	0.7
1393.62	0.773
1402.07	0.7671
1410.51	0.3102
1418.96	0.768
1427.41	0.802
1435.86	0.7757
1444.31	0.8028
1452.75	0.784
1461.2	0.796
1469.65	0.6897
1478.1	0.825
1486.55	0.806
1494.99	0.8195
1503.44	0.858
1511.89	0.877
1520.34	0.862
1528.79	0.7161
1537.23	0.904
1545.68	0.904
1554.13	0.934
1562.58	0.919
1571.03	0.926
1579.48	0.953
1587.92	0.963
1596.37	0.969
1604.82	0.971
1613.27	0.966
1621.72	0.966
1630.16	0.978
1638.61	0.976
1647.06	0.952
1655.51	0.969
1663.96	0.972
1672.4	0.956
1680.85	0.955
1689.3	0.976
1697.75	0.933
1706.2	0.965
1714.64	0.942
1723.09	0.963
1731.54	0.919
1739.99	0.949
1748.44	0.93
1756.88	0.946
1765.33	0.93
1773.78	0.933
1782.23	0.942
1790.68	0.933
1799.12	0.972
1807.57	0.976
1816.02	0.975
1824.47	0.975
1832.92	0.976
1841.37	0.969
1849.81	0.976
1858.26	0.976
1866.71	0.973
1875.16	0.978
1883.61	0.978
1892.05	0.978
1900.5	0.976
1908.95	0.975
1917.4	0.976
1925.85	0.976
1934.29	0.976
1942.74	0.976
1951.19	0.973
1959.64	0.976
1968.09	0.979
1976.53	0.981
1984.98	0.982
1993.43	0.984
2001.88	0.985
2010.33	0.9845
2018.77	0.982
2027.22	0.982
2035.67	0.981
2044.12	0.979
2052.57	0.978
2061.02	0.975
2069.46	0.973
2077.91	0.9672
2086.36	0.9563
2094.81	0.953
2103.26	0.952
2111.7	0.9415
2120.15	0.952
2128.6	0.9456
2137.05	0.933
2145.5	0.9477
2153.94	0.949
2162.39	0.951
2170.84	0.958
2179.29	0.9623
2187.74	0.9646
2196.18	0.973
2204.63	0.9758
2213.08	0.976
2221.53	0.9788
2229.98	0.9775
2238.42	0.9752
2246.87	0.973
2255.32	0.971
2263.77	0.968
2272.22	0.9666
2280.66	0.9644
2289.11	0.9566
2297.56	0.96
2306.01	0.962
2314.46	0.9616
2322.91	0.958
2331.35	0.9592
2339.8	0.966
2348.25	0.9693
2356.7	0.973
2365.15	0.975
2373.59	0.976
2382.04	0.9781
2390.49	0.981
2398.94	0.982
2407.39	0.984
2415.83	0.984
2424.28	0.982
2432.73	0.981
2441.18	0.978
2449.63	0.9719
2458.07	0.9522
2466.52	0.9039
2474.97	0.8799
2483.42	0.9041
2491.87	0.8858
2500.31	0.822
2508.76	0.9383
2517.21	0.988
2525.66	0.988
2534.11	0.988
2542.56	0.988
2551	0.988
2559.45	0.988
2567.9	0.988
2576.35	0.988
2584.8	0.988
2593.24	0.986
2601.69	0.986
2610.14	0.985
2618.59	0.9841
2627.04	0.984
2635.48	0.984
2643.93	0.984
2652.38	0.984
2660.83	0.984
2669.28	0.984
2677.72	0.984
2686.17	0.9842
2694.62	0.986
2703.07	0.986
2711.52	0.9857
2719.96	0.9858
2728.41	0.986
2736.86	0.986
2745.31	0.986
2753.76	0.985
2762.2	0.984
2770.65	0.981
2779.1	0.979
2787.55	0.9783
2796	0.9688
2804.45	0.9629
2812.89	0.9336
2821.34	0.9006
2829.79	0.8661
2838.24	0.8527
2846.69	0.8341
2855.13	0.81
2863.58	0.8897
2872.03	0.8876
2880.48	0.9243
2888.93	0.9691
2897.37	0.976
2905.82	0.978
2914.27	0.978
2922.72	0.9675
2931.17	0.9421
2939.61	0.8733
2948.06	0.6523
2956.51	0.2155
2964.96	0.2751
2973.41	0.604
2981.85	0.183
2990.3	0.3154
2998.75	0.6642
3007.2	0.8588
3015.65	0.9329
3024.09	0.8921
3032.54	0.9304
3040.99	0.846
3049.44	0.9361
3057.89	0.9032
3066.34	0.812
3074.78	0.9069
3083.23	0.8787
3091.68	0.9253
3100.13	0.9148
3108.58	0.9236
3117.02	0.9186
3125.47	0.9401
3133.92	0.9546
3142.37	0.9604
3150.82	0.9706
3159.26	0.976
3167.71	0.9788
3176.16	0.981
3184.61	0.9836
3193.06	0.985
3201.5	0.986
3209.95	0.988
3218.4	0.989
3226.85	0.989
3235.3	0.991
3243.74	0.991
3252.19	0.992
3260.64	0.992
3269.09	0.992
3277.54	0.992
3285.99	0.992
3294.43	0.992
3302.88	0.991
3311.33	0.991
3319.78	0.989
3328.23	0.9893
3336.67	0.991
3345.12	0.991
3353.57	0.991
3362.02	0.991
3370.47	0.991
3378.91	0.991
3387.36	0.992
3395.81	0.9922
3404.26	0.994
3412.71	0.995
3421.15	0.995
3429.6	0.9949
3438.05	0.992
3446.5	0.991
3454.95	0.991
3463.39	0.989
3471.84	0.986
3480.29	0.984
3488.74	0.982
3497.19	0.981
3505.63	0.9815
3514.08	0.988
3522.53	0.991
3530.98	0.9891
3539.43	0.986
3547.88	0.986
3556.32	0.986
3564.77	0.986
3573.22	0.986
3581.67	0.9878
3590.12	0.988
3598.56	0.9841
3607.01	0.981
3615.46	0.979
3623.91	0.9855
3632.36	0.9843
3640.8	0.9737
3649.25	0.9842
3657.7	0.975
3666.15	0.9752
3674.6	0.9714
3683.04	0.9769
3691.49	0.9771
3699.94	0.9682
3708.39	0.9739
3716.84	0.979
3725.28	0.9775
3733.73	0.9605
3742.18	0.9753
3750.63	0.986
3759.08	0.988
3767.53	0.991
3775.97	0.992
3784.42	0.9896
3792.87	1.0002
