Infrared Spectrum: 5-Decene, (E)
Formula: C10 H20
CAS: 7433-56-9
State: LIQUID (NEAT)
Class: COBLENTZ III
Instrument: BECKMAN IR-12 (GRATING)
Instrument parameters: GRATING
Sampling: TRANSMISSION
Path length: 0.01056 CM
Resolution: 2
Origin: COLGATE-PALMOLIVE COMPANY (KELLENBACH)
1/CM	TRANSMITTANCE
401	0.741
410	0.773
419	0.8107
428	0.8448
437	0.8665
446	0.9031
455	0.9253
464	0.9437
473	0.9521
482	0.9439
491	0.9303
500	0.9171
509	0.9234
518	0.9391
527	0.9463
536	0.9413
545	0.9447
554	0.9641
563	0.9773
572	0.98
581	0.9861
590	0.9886
599	0.988
608	0.9887
617	0.9868
626	0.9868
635	0.9909
644	0.9907
653	0.9999
662	0.9999
671	0.9859
680	0.9666
689	0.9361
698	0.8886
707	0.8183
716	0.5822
725	0.309
734	0.2079
743	0.3251
752	0.5343
761	0.606
770	0.6843
779	0.7035
788	0.7219
797	0.7673
806	0.7944
815	0.8111
824	0.8349
833	0.8372
842	0.8199
851	0.7712
860	0.7897
869	0.8018
878	0.7619
887	0.6852
896	0.5961
905	0.5843
914	0.4973
923	0.3451
932	0.2626
941	0.363
950	0.1763
959	0.0229
968	0.0042
977	0.0659
986	0.3036
995	0.4368
1004	0.5029
1013	0.5823
1022	0.6114
1031	0.4906
1040	0.4523
1049	0.4847
1058	0.4272
1067	0.493
1076	0.517
1085	0.4831
1094	0.3901
1103	0.3101
1112	0.6973
1121	0.7527
1130	0.7476
1139	0.6954
1148	0.7448
1157	0.7984
1166	0.8188
1175	0.8063
1184	0.7493
1193	0.7078
1202	0.736
1211	0.7281
1220	0.7452
1229	0.6331
1238	0.4877
1247	0.6224
1256	0.6705
1265	0.6737
1274	0.571
1283	0.4652
1292	0.3964
1301	0.3751
1310	0.4284
1319	0.478
1328	0.442
1337	0.2879
1346	0.3737
1355	0.3567
1364	0.3297
1373	0.0303
1382	0.187
1391	0.4662
1400	0.5034
1409	0.4526
1418	0.3466
1427	0.1057
1436	0.019
1445	0.015
1454	0.0123
1463	0.0059
1472	0.1676
1481	0.4199
1490	0.5565
1499	0.6134
1508	0.6653
1517	0.7046
1526	0.7428
1535	0.7683
1544	0.7882
1553	0.8031
1562	0.8268
1571	0.8438
1580	0.8511
1589	0.8574
1598	0.8616
1607	0.8651
1616	0.8678
1625	0.8673
1634	0.8671
1643	0.8593
1652	0.8477
1661	0.7825
1670	0.7623
1679	0.8005
1688	0.8158
1697	0.8123
1706	0.8217
1715	0.8161
1724	0.7987
1733	0.7978
1742	0.8106
1751	0.8321
1760	0.8405
1769	0.8203
1778	0.82
1787	0.8382
1796	0.8208
1805	0.8528
1814	0.8758
1823	0.8883
1832	0.8952
1841	0.8973
1850	0.9053
1859	0.9092
1868	0.9076
1877	0.898
1886	0.8833
1895	0.8833
1904	0.8997
1913	0.9032
1922	0.9032
1931	0.9048
1940	0.9129
1949	0.9194
1958	0.9203
1967	0.9208
1976	0.9215
1985	0.9261
1994	0.9259
2003	0.9176
2012	0.9092
2021	0.8963
2030	0.8917
2039	0.8978
2048	0.9014
2057	0.8925
2066	0.8905
2075	0.8972
2084	0.9099
2093	0.9138
2102	0.9124
2111	0.9104
2120	0.9099
2129	0.909
2138	0.9055
2147	0.9005
2156	0.8958
2165	0.8914
2174	0.8922
2183	0.891
2192	0.8874
2201	0.8862
2210	0.8885
2219	0.8923
2228	0.8959
2237	0.8963
2246	0.8968
2255	0.8973
2264	0.8963
2273	0.8945
2282	0.8914
2291	0.8871
2300	0.8859
2309	0.8862
2318	0.8828
2327	0.8784
2336	0.8729
2345	0.8657
2354	0.8646
2363	0.8667
2372	0.8623
2381	0.8543
2390	0.8494
2399	0.8466
2408	0.8507
2417	0.8603
2426	0.8675
2435	0.8732
2444	0.8883
2453	0.894
2462	0.8997
2471	0.901
2480	0.8993
2489	0.8956
2498	0.8855
2507	0.8694
2516	0.8513
2525	0.8341
2534	0.8204
2543	0.8114
2552	0.806
2561	0.7832
2570	0.7739
2579	0.7602
2588	0.7511
2597	0.7529
2606	0.7541
2615	0.7405
2624	0.7119
2633	0.6796
2642	0.6437
2651	0.6315
2660	0.5786
2669	0.5795
2678	0.6306
2687	0.6752
2696	0.6847
2705	0.6663
2714	0.6272
2723	0.4868
2732	0.5323
2741	0.5778
2750	0.5732
2759	0.5326
2768	0.474
2777	0.4154
2786	0.3595
2795	0.287
2804	0.1967
2813	0.1063
2822	0.0292
2831	0.0087
2840	0.0049
2849	0.0043
2858	0.0046
2867	0.0022
2876	0.0016
2885	0.0017
2894	0.002
2903	0.0024
2912	0.0026
2921	0.0019
2930	0.0019
2939	0.0038
2948	0.0053
2957	0.0038
2966	0.0037
2975	0.0047
2984	0.0117
2993	0.0347
3002	0.0434
3011	0.0427
3020	0.0738
3029	0.1848
3038	0.296
3047	0.4089
3056	0.4934
3065	0.5708
3074	0.6201
3083	0.6591
3092	0.6872
3101	0.7117
3110	0.7279
3119	0.7384
3128	0.7429
3137	0.7445
3146	0.7456
3155	0.7457
3164	0.7453
3173	0.744
3182	0.7454
3191	0.753
3200	0.7691
3209	0.7962
3218	0.8268
3227	0.8513
3236	0.8635
3245	0.8744
3254	0.883
3263	0.8898
3272	0.8944
3281	0.8976
3290	0.8985
3299	0.8988
3308	0.8988
3317	0.8983
3326	0.8979
3335	0.8968
3344	0.8952
3353	0.8935
3362	0.8916
3371	0.8893
3380	0.887
3389	0.8865
3398	0.8862
3407	0.8859
3416	0.8856
3425	0.8856
3434	0.8857
3443	0.8855
3452	0.884
3461	0.8823
3470	0.883
3479	0.8842
3488	0.8879
3497	0.8917
3506	0.893
3515	0.8939
3524	0.895
3533	0.8972
3542	0.8994
3551	0.9018
3560	0.906
3569	0.9139
3578	0.9163
3587	0.915
3596	0.9124
3605	0.9071
3614	0.8955
3623	0.8886
3632	0.8886
3641	0.8895
3650	0.8906
3659	0.8916
3668	0.8913
3677	0.8897
3686	0.8868
3695	0.8852
3704	0.8855
3713	0.8871
3722	0.8891
3731	0.8897
3740	0.8885
3749	0.8847
3758	0.881
3767	0.8783
3776	0.8782
3785	0.8784
3794	0.8736
3803	0.8666
3812	0.8621
3821	0.8594
3830	0.8571
3839	0.8595
3848	0.865
3857	0.8707
3866	0.8762
3875	0.8802
3884	0.8834
3893	0.8809
3902	0.8777
3911	0.8724
3920	0.866
3929	0.8588
3938	0.851
3947	0.8432
3956	0.8338
3965	0.8242
3974	0.817
3983	0.815
3992	0.813
