Infrared Spectrum: Formamide, N-[4-amino-6-(benzylthio)pyrimidin-5-yl)]-N-benzyl-
Formula: C19 H18 N4 O S
CAS: 7461-79-2
State: SOLID (0.8 mg / 650 mg KBr DISC)
Class: COBLENTZ III
Instrument: PERKIN-ELMER 221 (GRATING)
Instrument parameters: FILTER AT 2490, 980 CM^-^1. GRATING 4000-1428 CM^-^1, NaCl PRISM 1428-650 CM^-^1
Sampling: TRANSMISSION
Resolution: 2
Origin: SOUTHERN RESEARCH INSTITUTE
1/CM	TRANSMITTANCE
635	0.92
644.033	0.9105
653.066	0.8941
662.099	0.8677
671.133	0.8313
680.166	0.7497
689.199	0.3018
698.232	0.7248
707.265	0.4959
716.298	0.7815
725.332	0.7999
734.365	0.6255
743.398	0.8474
752.431	0.7111
761.464	0.717
770.497	0.772
779.531	0.8091
788.564	0.7158
797.597	0.8538
806.63	0.8447
815.663	0.815
824.696	0.7622
833.73	0.6633
842.763	0.8529
851.796	0.8341
860.829	0.8664
869.862	0.8652
878.895	0.8592
887.928	0.8511
896.962	0.8377
905.995	0.8078
915.028	0.7741
924.061	0.7971
933.094	0.713
942.127	0.4889
951.161	0.627
960.194	0.8153
969.227	0.8103
978.26	0.7947
987.293	0.6916
996.326	0.8036
1005.36	0.817
1014.39	0.8051
1023.43	0.7749
1032.46	0.7849
1041.49	0.765
1050.53	0.731
1059.56	0.7305
1068.59	0.7006
1077.62	0.6069
1086.66	0.7609
1095.69	0.7585
1104.72	0.7566
1113.76	0.7627
1122.79	0.7581
1131.82	0.75
1140.86	0.7366
1149.89	0.7145
1158.92	0.6898
1167.96	0.6389
1176.99	0.6026
1186.02	0.7036
1195.06	0.7008
1204.09	0.7047
1213.12	0.6733
1222.16	0.6358
1231.19	0.6367
1240.22	0.6502
1249.25	0.5725
1258.29	0.4557
1267.32	0.5365
1276.35	0.7114
1285.39	0.7184
1294.42	0.7157
1303.45	0.7019
1312.49	0.5809
1321.52	0.481
1330.55	0.6368
1339.59	0.6635
1348.62	0.4079
1357.65	0.4326
1366.69	0.6062
1375.72	0.623
1384.75	0.3019
1393.79	0.6189
1402.82	0.6281
1411.85	0.5981
1420.88	0.6696
1429.92	0.6587
1438.95	0.7191
1447.98	0.6783
1457.02	0.7463
1466.05	0.7227
1475.08	0.6496
1484.12	0.5618
1493.15	0.7152
1502.18	0.724
1511.22	0.69
1520.25	0.5724
1529.28	0.4419
1538.32	0.3563
1547.35	0.1753
1556.38	0.1314
1565.42	0.331
1574.45	0.6124
1583.48	0.6896
1592.51	0.6869
1601.55	0.6484
1610.58	0.5595
1619.61	0.42
1628.65	0.1755
1637.68	0.2564
1646.71	0.1896
1655.75	0.0735
1664.78	0.1221
1673.81	0.487
1682.85	0.7121
1691.88	0.8278
1700.91	0.868
1709.95	0.8805
1718.98	0.8938
1728.01	0.8978
1737.05	0.8981
1746.08	0.8966
1755.11	0.8946
1764.14	0.8954
1773.18	0.8987
1782.21	0.9005
1791.24	0.8993
1800.28	0.8953
1809.31	0.8948
1818.34	0.896
1827.38	0.8946
1836.41	0.8915
1845.44	0.8877
1854.48	0.8828
1863.51	0.8754
1872.54	0.8663
1881.58	0.8633
1890.61	0.8716
1899.64	0.8741
1908.68	0.8646
1917.71	0.8597
1926.74	0.8601
1935.77	0.8532
1944.81	0.8432
1953.84	0.8595
1962.87	0.8638
1971.91	0.8661
1980.94	0.8659
1989.97	0.8627
1999.01	0.8529
2008.04	0.8485
2017.07	0.8474
2026.11	0.8477
2035.14	0.848
2044.17	0.8479
2053.21	0.8474
2062.24	0.8466
2071.27	0.8447
2080.31	0.8427
2089.34	0.841
2098.37	0.8396
2107.4	0.8382
2116.44	0.8366
2125.47	0.8348
2134.5	0.8331
2143.54	0.8313
2152.57	0.8299
2161.6	0.8287
2170.64	0.8275
2179.67	0.8262
2188.7	0.8252
2197.74	0.8242
2206.77	0.8232
2215.8	0.8222
2224.84	0.8211
2233.87	0.8196
2242.9	0.8181
2251.94	0.8166
2260.97	0.8148
2270	0.8129
2279.04	0.8111
2288.07	0.8093
2297.1	0.808
2306.13	0.8069
2315.17	0.8058
2324.2	0.8048
2333.23	0.8042
2342.27	0.8037
2351.3	0.8031
2360.33	0.8024
2369.37	0.8017
2378.4	0.8009
2387.43	0.8002
2396.47	0.7994
2405.5	0.7982
2414.53	0.797
2423.57	0.7958
2432.6	0.7945
2441.63	0.7933
2450.67	0.7919
2459.7	0.7902
2468.73	0.7885
2477.76	0.7868
2486.8	0.7852
2495.83	0.7842
2504.86	0.7833
2513.9	0.783
2522.93	0.7828
2531.96	0.7823
2541	0.7806
2550.03	0.7784
2559.06	0.776
2568.1	0.7735
2577.13	0.7709
2586.16	0.7684
2595.2	0.766
2604.23	0.7637
2613.26	0.7618
2622.3	0.7603
2631.33	0.7582
2640.36	0.7556
2649.39	0.753
2658.43	0.7505
2667.46	0.7486
2676.49	0.7484
2685.53	0.7482
2694.56	0.7485
2703.59	0.749
2712.63	0.7495
2721.66	0.75
2730.69	0.7505
2739.73	0.7508
2748.76	0.7503
2757.79	0.7495
2766.83	0.7461
2775.86	0.7424
2784.89	0.7385
2793.93	0.7352
2802.96	0.7313
2811.99	0.7269
2821.02	0.7214
2830.06	0.7157
2839.09	0.7083
2848.12	0.7022
2857.16	0.6965
2866.19	0.6897
2875.22	0.6784
2884.26	0.665
2893.29	0.6604
2902.32	0.6626
2911.36	0.6664
2920.39	0.6668
2929.42	0.6675
2938.46	0.6691
2947.49	0.6705
2956.52	0.6701
2965.56	0.6664
2974.59	0.6602
2983.62	0.6552
2992.65	0.6552
3001.69	0.6526
3010.72	0.641
3019.75	0.5911
3028.79	0.6125
3037.82	0.6261
3046.85	0.6014
3055.89	0.5899
3064.92	0.6194
3073.95	0.6078
3082.99	0.6066
3092.02	0.6071
3101.05	0.5882
3110.09	0.5768
3119.12	0.5691
3128.15	0.5526
3137.19	0.5255
3146.22	0.4963
3155.25	0.4787
3164.28	0.4579
3173.32	0.4387
3182.35	0.4456
3191.38	0.4591
3200.42	0.4652
3209.45	0.4899
3218.48	0.5449
3227.52	0.5901
3236.55	0.6186
3245.58	0.6208
3254.62	0.6177
3263.65	0.6064
3272.68	0.5862
3281.72	0.5562
3290.75	0.5013
3299.78	0.4573
3308.82	0.4598
3317.85	0.4804
3326.88	0.4941
3335.91	0.4924
3344.95	0.4828
3353.98	0.4482
3363.01	0.3926
3372.05	0.3294
3381.08	0.3381
3390.11	0.4039
3399.15	0.4634
3408.18	0.5564
3417.21	0.6068
3426.25	0.6341
3435.28	0.6489
3444.31	0.6602
3453.35	0.6717
3462.38	0.6785
3471.41	0.6837
3480.45	0.6881
3489.48	0.6925
3498.51	0.6958
3507.54	0.699
3516.58	0.7016
3525.61	0.7035
3534.64	0.7057
3543.68	0.7082
3552.71	0.7131
3561.74	0.7175
3570.78	0.721
3579.81	0.7252
3588.84	0.7294
3597.88	0.7319
3606.91	0.7333
3615.94	0.7348
3624.98	0.7349
3634.01	0.7349
3643.04	0.735
3652.08	0.7349
3661.11	0.7348
3670.14	0.7344
3679.17	0.7336
3688.21	0.7327
3697.24	0.7308
3706.27	0.7288
3715.31	0.727
3724.34	0.7254
3733.37	0.7239
3742.41	0.7225
3751.44	0.7217
3760.47	0.7223
3769.51	0.7237
3778.54	0.7249
3787.57	0.7254
3796.61	0.7252
3805.64	0.725
3814.67	0.7236
3823.71	0.7217
3832.74	0.7198
3841.77	0.7178
3850.8	0.7158
3859.84	0.7136
3868.87	0.7113
3877.9	0.7103
3886.94	0.7096
3895.97	0.7088
