Infrared Spectrum: PROPANOIC ACID, 3-PHENOXY-, METHYL ESTER
Formula: C10 H12 O3
CAS: 7497-89-4
State: SOLUTION (10% IN CCl4 FOR 3800-1330, 10% IN CS2 FOR 1330-400 CM^-^1)
Class: COBLENTZ III
Instrument: DOW KBr FOREPRISM-GRATING
Instrument parameters: BLAZED AT 3.5, 12.0, 20.0 MICRON, CHANGED AT 5.0, 7.5, 14.9 MICRON
Sampling: TRANSMISSION
Path length: 0.011, 0.011 CM
Resolution: 4
Origin: DOW CHEMICAL COMPANY
1/CM	TRANSMITTANCE
387.283	0.368
395.954	0.429
404.624	0.58
413.295	0.784
421.965	0.846
430.636	0.89
439.306	0.904
447.977	0.919
456.647	0.921
465.318	0.907
473.988	0.908
482.659	0.893
491.329	0.868
500	0.736
508.67	0.515
517.341	0.807
526.011	0.86
534.682	0.878
543.352	0.88
552.023	0.868
560.693	0.85
569.364	0.835
578.035	0.831
586.705	0.825
595.376	0.787
604.046	0.786
612.717	0.82
621.387	0.872
630.058	0.874
638.728	0.851
647.399	0.816
656.069	0.827
664.74	0.829
673.41	0.812
682.081	0.633
690.751	0.061
699.422	0.729
708.092	0.802
716.763	0.829
725.433	0.82
734.104	0.764
742.774	0.523
751.445	0.013
760.116	0.4649
768.786	0.71
777.457	0.718
786.127	0.699
794.798	0.585
803.468	0.733
812.139	0.628
820.809	0.722
829.48	0.737
838.15	0.71
846.821	0.608
855.491	0.629
864.162	0.699
872.832	0.64
881.503	0.58
890.173	0.687
898.844	0.724
907.514	0.687
916.185	0.811
924.855	0.849
933.526	0.841
942.197	0.829
950.867	0.791
959.538	0.742
968.208	0.678
976.879	0.641
985.549	0.629
994.22	0.532
1002.89	0.617
1011.56	0.549
1020.23	0.436
1028.9	0.397
1037.57	0.152
1046.24	0.067
1054.91	0.333
1063.58	0.51
1072.25	0.398
1080.92	0.434
1089.6	0.519
1098.27	0.682
1106.94	0.679
1115.61	0.724
1124.28	0.713
1132.95	0.666
1141.62	0.528
1150.29	0.372
1158.96	0.293
1167.63	0.049
1176.3	0.029
1184.97	0.092
1193.64	0.045
1202.31	0.086
1210.98	0.114
1219.65	0.074
1228.32	0.051
1236.99	0.021
1245.66	0.018
1254.34	0.107
1263.01	0.157
1271.68	0.258
1280.35	0.335
1289.02	0.293
1297.69	0.343
1306.36	0.353
1315.03	0.508
1323.7	0.397
1332.37	0.359
1341.04	0.512
1349.71	0.596
1358.38	0.487
1367.05	0.449
1375.72	0.689
1384.39	0.608
1393.06	0.445
1401.73	0.411
1410.4	0.606
1419.08	0.693
1427.75	0.629
1436.42	0.387
1445.09	0.285
1453.76	0.558
1462.43	0.395
1471.1	0.277
1479.77	0.243
1488.44	0.409
1497.11	0.075
1505.78	0.197
1514.45	0.613
1523.12	0.637
1531.79	0.613
1540.46	0.527
1549.13	0.497
1557.8	0.51
1566.47	0.554
1575.14	0.539
1583.82	0.426
1592.49	0.166
1601.16	0.079
1609.83	0.4609
1618.5	0.827
1627.17	0.9
1635.84	0.908
1644.51	0.938
1653.18	0.92
1661.85	0.935
1670.52	0.913
1679.19	0.893
1687.86	0.842
1696.53	0.733
1705.2	0.66
1713.87	0.549
1722.54	0.348
1731.21	0.104
1739.88	0.014
1748.56	0.017
1757.23	0.134
1765.9	0.549
1774.57	0.655
1783.24	0.749
1791.91	0.86
1800.58	0.905
1809.25	0.934
1817.92	0.947
1826.59	0.934
1835.26	0.923
1843.93	0.954
1852.6	0.96
1861.27	0.978
1869.94	0.983
1878.61	0.993
1887.28	0.994
1895.95	0.993
1904.62	0.985
1913.3	0.977
1921.97	0.93
1930.64	0.951
1939.31	0.959
1947.98	0.967
1956.65	0.986
1965.32	0.979
1973.99	0.983
1982.66	0.981
1991.33	0.973
2000	0.962
2008.67	0.962
2017.34	0.956
2026.01	0.9469
2034.68	0.9339
2043.35	0.927
2052.02	0.9341
2060.69	0.939
2069.36	0.935
2078.04	0.9401
2086.71	0.9441
2095.38	0.9482
2104.05	0.96
2112.72	0.9712
2121.39	0.9792
2130.06	0.983
2138.73	0.985
2147.4	0.986
2156.07	0.986
2164.74	0.989
2173.41	0.989
2182.08	0.987
2190.75	0.989
2199.42	0.9887
2208.09	0.986
2216.76	0.985
2225.43	0.983
2234.1	0.982
2242.78	0.979
2251.45	0.9778
2260.12	0.975
2268.79	0.9686
2277.46	0.9628
2286.13	0.954
2294.8	0.952
2303.47	0.954
2312.14	0.9535
2320.81	0.95
2329.48	0.947
2338.15	0.95
2346.82	0.9543
2355.49	0.955
2364.16	0.954
2372.83	0.958
2381.5	0.96
2390.17	0.96
2398.84	0.9607
2407.52	0.962
2416.19	0.96
2424.86	0.9653
2433.53	0.97
2442.2	0.969
2450.87	0.9666
2459.54	0.9626
2468.21	0.9596
2476.88	0.954
2485.55	0.954
2494.22	0.9584
2502.89	0.966
2511.56	0.967
2520.23	0.9656
2528.9	0.9596
2537.57	0.9556
2546.24	0.9555
2554.91	0.9604
2563.58	0.967
2572.25	0.9665
2580.93	0.965
2589.6	0.965
2598.27	0.966
2606.94	0.9695
2615.61	0.971
2624.28	0.969
2632.95	0.9695
2641.62	0.9735
2650.29	0.9775
2658.96	0.979
2667.63	0.9799
2676.3	0.979
2684.97	0.978
2693.64	0.9774
2702.31	0.9758
2710.98	0.974
2719.65	0.971
2728.32	0.9678
2736.99	0.962
2745.67	0.9594
2754.34	0.958
2763.01	0.958
2771.68	0.959
2780.35	0.962
2789.02	0.9643
2797.69	0.965
2806.36	0.9607
2815.03	0.9553
2823.7	0.9466
2832.37	0.9306
2841.04	0.9139
2849.71	0.856
2858.38	0.8723
2867.05	0.8826
2875.72	0.8109
2884.39	0.688
2893.06	0.6729
2901.73	0.7358
2910.41	0.7685
2919.08	0.7779
2927.75	0.7193
2936.42	0.6092
2945.09	0.574
2953.76	0.4314
2962.43	0.5158
2971.1	0.7091
2979.77	0.742
2988.44	0.7231
2997.11	0.6947
3005.78	0.6887
3014.45	0.7408
3023.12	0.7297
3031.79	0.6674
3040.46	0.6254
3049.13	0.613
3057.8	0.768
3066.47	0.7166
3075.15	0.725
3083.82	0.7865
3092.49	0.8371
3101.16	0.8302
3109.83	0.8605
3118.5	0.9115
3127.17	0.9559
3135.84	0.966
3144.51	0.971
3153.18	0.974
3161.85	0.975
3170.52	0.974
3179.19	0.974
3187.86	0.971
3196.53	0.973
3205.2	0.975
3213.87	0.978
3222.54	0.979
3231.21	0.979
3239.89	0.978
3248.56	0.977
3257.23	0.977
3265.9	0.975
3274.57	0.974
3283.24	0.971
3291.91	0.969
3300.58	0.967
3309.25	0.9648
3317.92	0.9599
3326.59	0.9559
3335.26	0.952
3343.93	0.9458
3352.6	0.9377
3361.27	0.9319
3369.94	0.9276
3378.61	0.9199
3387.28	0.9128
3395.95	0.904
3404.63	0.893
3413.3	0.8837
3421.97	0.8736
3430.64	0.8633
3439.31	0.853
3447.98	0.8412
3456.65	0.8281
3465.32	0.819
3473.99	0.8192
3482.66	0.8302
3491.33	0.8465
3500	0.863
3508.67	0.8823
3517.34	0.8975
3526.01	0.912
3534.68	0.925
3543.35	0.9343
3552.02	0.9406
3560.69	0.9486
3569.37	0.9513
3578.04	0.96
3586.71	0.959
3595.38	0.9557
3604.05	0.9393
3612.72	0.9197
3621.39	0.9498
3630.06	0.9644
3638.73	0.9757
3647.4	0.9736
3656.07	0.9654
3664.74	0.974
3673.41	0.9662
3682.08	0.9672
3690.75	0.9666
3699.42	0.9738
3708.09	0.9762
3716.76	0.9719
3725.43	0.977
3734.11	0.973
3742.78	0.975
3751.45	0.9686
3760.12	0.9759
3768.79	0.978
3777.46	0.978
3786.13	0.978
3794.8	0.979
