Infrared Spectrum: 1,2-Epoxyethane
Formula: C2 H4 O
CAS: 75-21-8
State: gas
Melting point: -111 C
Boiling point: 13.5 C
Class: IUPAC A
Instrument: IFS66V (Bruker)
Instrument parameters: KBr Beam splitter; MCT Detector; Multipass cell
Sampling: 1 L/min Flow
Resolution: 1.9290
Temperature: 23 C
Pressure: 101.3 kPa
Origin: NIST, Anayltical Chemistry Division, 301-975-3108
cm-1	(micromol/mol)-1m-1 (base 10)
574.687	-4.11661e-07
583.365	-2.46255e-07
592.043	1.46886e-07
600.721	-3.17981e-07
609.4	-1.30659e-07
618.078	-4.08063e-07
626.756	-4.97618e-08
635.434	-4.19908e-07
644.112	-1.24766e-07
652.79	-2.48327e-07
661.469	-6.13778e-08
670.147	-2.50921e-07
678.825	-2.20515e-08
687.503	-2.62542e-07
696.181	-1.61069e-07
704.859	-2.44609e-07
713.537	-4.78937e-09
722.216	-1.70271e-07
730.894	-3.113e-08
739.572	-8.94993e-08
748.25	2.50333e-07
756.928	2.97012e-07
765.606	8.21999e-07
774.285	1.5964e-06
782.963	3.48893e-06
791.641	7.27639e-06
800.319	1.31431e-05
808.997	2.30817e-05
817.675	2.22233e-05
826.353	2.41536e-05
835.032	8.83829e-05
843.71	0.000117336
852.388	0.000162181
861.066	0.000170454
869.744	0.000226619
878.422	0.000126326
887.101	0.00013568
895.779	0.000126413
904.457	0.000107403
913.135	6.82456e-05
921.813	3.45637e-05
930.491	1.39145e-05
939.169	4.82989e-06
947.848	1.52349e-06
956.526	3.12874e-07
965.204	9.73882e-09
973.882	-3.10118e-08
982.56	-1.42246e-07
991.238	-1.747e-07
999.917	-1.37384e-07
1008.59	-1.51517e-07
1017.27	-1.5541e-07
1025.95	-1.34614e-07
1034.63	-2.17423e-08
1043.31	5.4202e-08
1051.99	2.12353e-07
1060.66	3.17623e-07
1069.34	7.20089e-07
1078.02	1.23162e-06
1086.7	1.84452e-06
1095.38	2.06367e-06
1104.05	3.15483e-06
1112.73	4.60706e-06
1121.41	6.27409e-06
1130.09	7.99801e-06
1138.77	6.12668e-06
1147.45	4.29992e-06
1156.12	8.51921e-06
1164.8	8.0714e-06
1173.48	8.17061e-06
1182.16	5.01752e-06
1190.84	4.1015e-06
1199.51	2.78623e-06
1208.19	2.28158e-06
1216.87	3.26431e-06
1225.55	7.26554e-06
1234.23	1.49286e-05
1242.9	2.47762e-05
1251.58	2.97139e-05
1260.26	3.21632e-05
1268.94	1.97436e-05
1277.62	3.97713e-05
1286.3	3.09303e-05
1294.97	2.91732e-05
1303.65	1.72361e-05
1312.33	7.27116e-06
1321.01	2.32786e-06
1329.69	7.10172e-07
1338.36	-1.9172e-09
1347.04	9.31863e-09
1355.72	-2.00126e-07
1364.4	-5.00529e-08
1373.08	-2.35547e-07
1381.76	4.97382e-08
1390.43	-1.39769e-07
1399.11	-2.44034e-08
1407.79	-2.55754e-07
1416.47	-3.9199e-09
1425.15	-1.3184e-07
1433.82	4.27497e-07
1442.5	7.09972e-07
1451.18	1.29339e-06
1459.86	1.0843e-06
1468.54	1.81336e-06
1477.22	2.41385e-06
1485.89	2.7729e-06
1494.57	3.3726e-06
1503.25	3.90764e-06
1511.93	2.26141e-06
1520.61	2.91323e-06
1529.28	1.66243e-06
1537.96	9.85705e-07
1546.64	8.58304e-08
1555.32	2.20517e-07
1564	-8.05772e-08
1572.67	4.76571e-07
1581.35	4.8058e-07
1590.03	1.56271e-06
1598.71	9.32615e-07
1607.39	2.53893e-06
1616.07	2.82939e-06
1624.74	3.76151e-06
1633.42	3.36163e-06
1642.1	1.38538e-05
1650.78	4.58749e-06
1659.46	2.81396e-06
1668.13	1.33909e-06
1676.81	7.10201e-07
1685.49	7.3485e-08
1694.17	1.16318e-07
1702.85	3.5361e-08
1711.53	9.45711e-07
1720.2	3.12086e-07
1728.88	4.26485e-07
1737.56	5.77908e-08
1746.24	1.35573e-06
1754.92	1.14954e-07
1763.59	4.43922e-07
1772.27	3.63796e-10
1780.95	3.10045e-07
1789.63	-3.05623e-07
1798.31	1.85385e-07
1806.98	-3.26943e-07
1815.66	3.43111e-07
1824.34	-2.0009e-07
1833.02	3.1992e-07
1841.7	-2.35196e-07
1850.38	3.49719e-07
1859.05	-1.536e-07
1867.73	3.73035e-07
1876.41	-3.48868e-07
1885.09	2.97936e-07
1893.77	-3.03635e-07
1902.44	3.77888e-07
1911.12	-6.72477e-08
1919.8	5.04018e-07
1928.48	5.63325e-07
1937.16	1.00277e-06
1945.84	1.84505e-07
1954.51	1.28341e-06
1963.19	7.97921e-07
1971.87	1.47491e-06
1980.55	9.68192e-07
1989.23	2.06896e-06
1997.9	2.23577e-06
2006.58	2.70881e-06
2015.26	2.74134e-06
2023.94	1.54541e-06
2032.62	1.58616e-06
2041.3	2.50579e-06
2049.97	1.0161e-06
2058.65	1.45883e-06
2067.33	4.41394e-07
2076.01	1.11499e-06
2084.69	2.72185e-06
2093.36	1.16358e-06
2102.04	1.56384e-06
2110.72	1.97615e-06
2119.4	1.03911e-06
2128.08	1.6352e-06
2136.75	2.56296e-07
2145.43	1.40949e-06
2154.11	3.91381e-07
2162.79	1.38398e-06
2171.47	1.15849e-07
2180.15	9.44296e-07
2188.82	3.34692e-09
2197.5	1.10376e-06
2206.18	2.26838e-07
2214.86	1.49515e-06
2223.54	1.23117e-06
2232.21	3.11631e-06
2240.89	2.66618e-06
2249.57	4.20417e-06
2258.25	3.868e-06
2266.93	2.81051e-06
2275.61	3.35338e-06
2284.28	4.06383e-06
2292.96	1.61275e-06
2301.64	2.06707e-06
2310.32	1.73168e-06
2319	2.05145e-06
2327.67	9.03384e-07
2336.35	1.24988e-06
2345.03	-6.96942e-08
2353.71	9.86176e-07
2362.39	-4.20241e-07
2371.06	9.33841e-07
2379.74	-3.7286e-07
2388.42	8.47075e-07
2397.1	-5.0859e-07
2405.78	9.09335e-07
2414.46	-6.78862e-07
2423.13	7.55857e-07
2431.81	-6.48825e-07
2440.49	7.69079e-07
2449.17	-6.78616e-07
2457.85	9.71426e-07
2466.52	-8.26128e-07
2475.2	6.22279e-07
2483.88	-9.99066e-07
2492.56	4.91165e-07
2501.24	-1.01616e-06
2509.92	5.91718e-07
2518.59	-1.10836e-06
2527.27	5.32274e-07
2535.95	-1.13796e-06
2544.63	5.70992e-07
2553.31	-1.23817e-06
2561.98	8.13728e-07
2570.66	-9.93241e-07
2579.34	1.16379e-06
2588.02	-4.4814e-07
2596.7	1.6475e-06
2605.38	-5.85912e-08
2614.05	1.60348e-06
2622.73	2.78359e-08
2631.41	2.34028e-06
2640.09	-2.00592e-07
2648.77	1.56615e-06
2657.44	-9.90767e-07
2666.12	1.17351e-06
2674.8	-1.39706e-06
2683.48	1.13389e-06
2692.16	-1.42702e-06
2700.83	1.2068e-06
2709.51	-1.34012e-06
2718.19	1.49267e-06
2726.87	-1.27503e-06
2735.55	1.81073e-06
2744.23	-1.13622e-06
2752.9	2.13025e-06
2761.58	-1.24633e-06
2770.26	2.13513e-06
2778.94	-1.63152e-06
2787.62	2.00301e-06
2796.29	-1.89987e-06
2804.97	1.91552e-06
2813.65	-2.21884e-06
2822.33	2.08672e-06
2831.01	-2.43046e-06
2839.69	2.38745e-06
2848.36	-2.43813e-06
2857.04	2.89481e-06
2865.72	-2.25026e-06
2874.4	4.77737e-06
2883.08	1.24752e-06
2891.75	1.65328e-05
2900.43	2.22689e-05
2909.11	4.12556e-05
2917.79	3.0332e-05
2926.47	4.21954e-05
2935.14	4.09831e-05
2943.82	4.47135e-05
2952.5	4.94954e-05
2961.18	5.04954e-05
2969.86	3.21488e-05
2978.54	6.28818e-05
2987.21	6.51516e-05
2995.89	7.55993e-05
3004.57	2.04513e-05
3013.25	8.35692e-05
3021.93	0.00011294
3030.6	0.000124418
3039.28	0.000100842
3047.96	9.536e-05
3056.64	5.23544e-07
3065.32	0.0013491
3074	7.30731e-05
3082.67	3.39276e-05
3091.35	8.65019e-05
3100.03	5.05034e-05
3108.71	4.83459e-05
3117.39	1.21688e-05
3126.06	1.47213e-05
3134.74	-2.7203e-06
3143.42	6.28478e-06
3152.1	-4.13517e-06
3160.78	4.38914e-06
3169.46	-3.9312e-06
3178.13	3.56122e-06
3186.81	-3.40241e-06
3195.49	3.15797e-06
3204.17	-3.01666e-06
3212.85	2.73123e-06
3221.52	-2.7177e-06
3230.2	2.34402e-06
3238.88	-2.58295e-06
3247.56	2.139e-06
3256.24	-2.16701e-06
3264.91	1.99022e-06
3273.59	-2.23227e-06
3282.27	1.56531e-06
3290.95	-2.13019e-06
3299.63	1.55837e-06
3308.31	-1.98651e-06
3316.98	1.37695e-06
3325.66	-1.74287e-06
3334.34	1.44169e-06
3343.02	-1.73832e-06
3351.7	1.33165e-06
3360.37	-1.46576e-06
3369.05	1.29379e-06
3377.73	-1.42707e-06
3386.41	1.0829e-06
3395.09	-1.48221e-06
3403.77	1.01965e-06
3412.44	-1.3126e-06
3421.12	1.10771e-06
3429.8	-1.2279e-06
3438.48	9.16579e-07
3447.16	-1.22128e-06
3455.83	1.00369e-06
3464.51	-1.2742e-06
3473.19	9.621e-07
3481.87	-1.07537e-06
3490.55	7.84037e-07
3499.22	-1.09695e-06
3507.9	7.96351e-07
3516.58	-1.01569e-06
3525.26	6.92411e-07
3533.94	-1.02922e-06
3542.62	7.48016e-07
3551.29	-1.03107e-06
3559.97	6.85839e-07
3568.65	-9.86917e-07
3577.33	6.63335e-07
3586.01	-9.84519e-07
3594.68	5.6865e-07
3603.36	-8.90827e-07
3612.04	5.751e-07
3620.72	-8.36596e-07
3629.4	6.77656e-07
3638.08	-7.77343e-07
3646.75	4.94097e-07
3655.43	-8.31281e-07
3664.11	4.85413e-07
3672.79	-8.05061e-07
3681.47	5.82659e-07
3690.14	-4.47927e-07
3698.82	7.89608e-07
3707.5	-2.71154e-07
3716.18	1.15527e-06
3724.86	3.00682e-06
3733.54	1.38178e-06
3742.21	1.41952e-06
3750.89	1.74335e-06
3759.57	7.91056e-07
3768.25	3.05068e-06
3776.93	7.14055e-07
3785.6	1.85714e-06
3794.28	1.17219e-06
3802.96	2.7394e-06
3811.64	2.64668e-06
3820.32	3.2224e-06
3828.99	4.77984e-06
3837.67	3.9804e-06
3846.35	3.99328e-06
3855.03	4.18555e-06
3863.71	3.61237e-06
3872.39	6.53641e-06
3881.06	1.02246e-06
3889.74	1.92632e-06
3898.42	1.33477e-06
3907.1	1.88589e-06
3915.78	3.86668e-07
3924.45	7.85876e-07
3933.13	-1.35656e-07
3941.81	8.60881e-07
3950.49	-3.21828e-07
3959.17	3.21001e-07
3967.85	-2.63334e-07
