Infrared Spectrum: ACETYL CHLORIDE
Formula: C2 H3 Cl O
CAS: 75-36-5
State: SOLUTION (10% IN CCl4 FOR 4000-1320 CM^-^1, 10% IN CS2 FOR 1320-600 CM^-^1)
Boiling point: 51 C
Class: COBLENTZ III
Instrument: BECKMAN IR-7 (GRATING)
Instrument parameters: GRATING CHANGES AT 3000, 2200, 1150 CM^-^1
Sampling: TRANSMISSION
Path length: 0.011 CM, 0.010 CM
Resolution: 4
Origin: WESTERN REGIONAL RES. USDA
1/CM	TRANSMITTANCE
598.701	0.048
607.796	0.138
616.891	0.3479
625.986	0.549
635.082	0.646
644.177	0.696
653.272	0.701
662.367	0.705
671.462	0.748
680.557	0.758
689.652	0.794
698.747	0.805
707.843	0.809
716.938	0.81
726.033	0.816
735.128	0.821
744.223	0.825
753.318	0.827
762.413	0.826
771.508	0.827
780.604	0.82
789.699	0.812
798.794	0.809
807.889	0.82
816.984	0.823
826.079	0.824
835.174	0.82
844.269	0.793
853.365	0.697
862.46	0.685
871.555	0.708
880.65	0.734
889.745	0.759
898.84	0.775
907.935	0.779
917.03	0.758
926.126	0.719
935.221	0.581
944.316	0.159
953.411	0.026
962.506	0.223
971.601	0.462
980.696	0.597
989.791	0.629
998.887	0.63
1007.98	0.611
1017.08	0.531
1026.17	0.464
1035.27	0.577
1044.36	0.606
1053.46	0.594
1062.55	0.527
1071.65	0.412
1080.74	0.196
1089.84	0.007
1098.93	0
1108.03	0.107
1117.12	0.297
1126.22	0.472
1135.31	0.597
1144.41	0.674
1153.5	0.709
1162.6	0.736
1171.69	0.748
1180.79	0.745
1189.88	0.744
1198.98	0.765
1208.07	0.789
1217.17	0.798
1226.26	0.805
1235.36	0.809
1244.45	0.811
1253.55	0.811
1262.65	0.809
1271.74	0.799
1280.84	0.778
1289.93	0.728
1299.03	0.743
1308.12	0.776
1317.22	0.778
1326.31	0.77
1335.41	0.756
1344.5	0.722
1353.6	0.3849
1362.69	0.163
1371.79	0.499
1380.88	0.625
1389.98	0.672
1399.07	0.657
1408.17	0.579
1417.26	0.289
1426.36	0.303
1435.45	0.523
1444.55	0.627
1453.64	0.667
1462.74	0.697
1471.83	0.703
1480.93	0.729
1490.02	0.728
1499.12	0.705
1508.21	0.662
1517.31	0.62
1526.4	0.578
1535.5	0.499
1544.59	0.422
1553.69	0.402
1562.78	0.446
1571.88	0.523
1580.97	0.561
1590.07	0.586
1599.16	0.64
1608.26	0.712
1617.36	0.756
1626.45	0.784
1635.55	0.794
1644.64	0.801
1653.74	0.803
1662.83	0.802
1671.93	0.795
1681.02	0.785
1690.12	0.75
1699.21	0.71
1708.31	0.687
1717.4	0.491
1726.5	0.623
1735.59	0.702
1744.69	0.698
1753.78	0.653
1762.88	0.548
1771.97	0.432
1781.07	0.343
1790.16	0.047
1799.26	0.001
1808.35	0
1817.45	0.001
1826.54	0.097
1835.64	0.284
1844.73	0.451
1853.83	0.553
1862.92	0.625
1872.02	0.672
1881.11	0.698
1890.21	0.696
1899.3	0.631
1908.4	0.573
1917.49	0.651
1926.59	0.728
1935.68	0.767
1944.78	0.788
1953.87	0.795
1962.97	0.8
1972.07	0.804
1981.16	0.806
1990.26	0.807
1999.35	0.809
2008.45	0.809
2017.54	0.809
2026.64	0.808
2035.73	0.807
2044.83	0.807
2053.92	0.807
2063.02	0.807
2072.11	0.807
2081.21	0.807
2090.3	0.806
2099.4	0.805
2108.49	0.805
2117.59	0.804
2126.68	0.803
2135.78	0.803
2144.87	0.803
2153.97	0.803
2163.06	0.803
2172.16	0.802
2181.25	0.802
2190.35	0.802
2199.44	0.802
2208.54	0.802
2217.63	0.802
2226.73	0.802
2235.82	0.802
2244.92	0.802
2254.01	0.801
2263.11	0.8004
2272.2	0.8
2281.3	0.799
2290.39	0.798
2299.49	0.797
2308.58	0.795
2317.68	0.793
2326.77	0.792
2335.87	0.7908
2344.97	0.7898
2354.06	0.791
2363.16	0.794
2372.25	0.7966
2381.35	0.8
2390.44	0.803
2399.54	0.8053
2408.63	0.8079
2417.73	0.8095
2426.82	0.812
2435.92	0.8136
2445.01	0.8152
2454.11	0.8198
2463.2	0.82
2472.3	0.82
2481.39	0.818
2490.49	0.818
2499.58	0.8197
2508.68	0.821
2517.77	0.822
2526.87	0.822
2535.96	0.821
2545.06	0.82
2554.15	0.818
2563.25	0.817
2572.34	0.816
2581.44	0.8159
2590.53	0.818
2599.63	0.8191
2608.72	0.82
2617.82	0.8187
2626.91	0.8153
2636.01	0.812
2645.1	0.811
2654.2	0.8116
2663.29	0.812
2672.39	0.8137
2681.48	0.8127
2690.58	0.8092
2699.68	0.8075
2708.77	0.807
2717.87	0.807
2726.96	0.807
2736.06	0.806
2745.15	0.802
2754.25	0.7811
2763.34	0.7612
2772.44	0.7554
2781.53	0.7696
2790.63	0.7866
2799.72	0.7937
2808.82	0.798
2817.91	0.798
2827.01	0.7974
2836.1	0.7948
2845.2	0.7866
2854.29	0.7826
2863.39	0.782
2872.48	0.782
2881.58	0.784
2890.67	0.784
2899.77	0.7837
2908.86	0.782
2917.96	0.7767
2927.05	0.7629
2936.15	0.744
2945.24	0.7336
2954.34	0.7318
2963.43	0.7357
2972.53	0.7578
2981.62	0.761
2990.72	0.763
2999.81	0.7623
3008.91	0.749
3018	0.7198
3027.1	0.715
3036.19	0.7259
3045.29	0.7631
3054.39	0.7702
3063.48	0.7777
3072.58	0.7803
3081.67	0.7839
3090.77	0.785
3099.86	0.7851
3108.96	0.7866
3118.05	0.787
3127.15	0.7888
3136.24	0.789
3145.34	0.79
3154.43	0.7916
3163.53	0.7931
3172.62	0.7954
3181.72	0.798
3190.81	0.7999
3199.91	0.8
3209	0.801
3218.1	0.802
3227.19	0.803
3236.29	0.8048
3245.38	0.807
3254.48	0.8079
3263.57	0.809
3272.67	0.8091
3281.76	0.8107
3290.86	0.811
3299.95	0.8129
3309.05	0.814
3318.14	0.816
3327.24	0.8166
3336.33	0.817
3345.43	0.817
3354.52	0.816
3363.62	0.8151
3372.71	0.8155
3381.81	0.816
3390.9	0.816
3400	0.817
3409.09	0.818
3418.19	0.818
3427.29	0.818
3436.38	0.819
3445.48	0.819
3454.57	0.819
3463.67	0.819
3472.76	0.818
3481.86	0.818
3490.95	0.818
3500.05	0.817
3509.14	0.816
3518.24	0.815
3527.33	0.814
3536.43	0.812
3545.52	0.811
3554.62	0.8089
3563.71	0.7992
3572.81	0.7864
3581.9	0.7397
3591	0.7156
3600.09	0.7192
3609.19	0.7511
3618.28	0.7735
3627.38	0.7983
3636.47	0.8108
3645.57	0.8209
3654.66	0.822
3663.76	0.823
3672.85	0.823
3681.95	0.823
3691.04	0.823
3700.14	0.823
3709.23	0.823
3718.33	0.824
3727.42	0.8242
3736.52	0.825
3745.61	0.826
3754.71	0.826
3763.8	0.825
3772.9	0.824
3782	0.8233
3791.09	0.823
3800.19	0.823
3809.28	0.823
3818.38	0.823
3827.47	0.822
3836.57	0.8219
3845.66	0.821
3854.76	0.821
3863.85	0.821
3872.95	0.821
3882.04	0.821
3891.14	0.821
3900.23	0.82
3909.33	0.82
3918.42	0.82
3927.52	0.82
3936.61	0.8185
3945.71	0.818
3954.8	0.817
3963.9	0.8157
3972.99	0.814
