Infrared Spectrum: CARBONYL CHLORIDE
Formula: C Cl2 O
CAS: 75-44-5
State: GAS (100 mmHg, N2 ADDED, TOTAL PRESSURE 600 mmHg)
Class: COBLENTZ
Instrument: DOW KBr FOREPRISM-GRATING
Instrument parameters: GRATING CHANGED AT 5.0, 7.5, 15.0 MICRON
Sampling: TRANSMISSION
Path length: 5 CM
Resolution: 2
Origin: DOW CHEMICAL COMPANY
1/CM	TRANSMITTANCE
460.36	0.986
468.804	0.986
477.248	0.986
485.692	0.984
494.136	0.982
502.581	0.979
511.025	0.976
519.469	0.975
527.913	0.969
536.357	0.946
544.801	0.892
553.245	0.7002
561.689	0.2971
570.133	0.318
578.578	0.1499
587.022	0.381
595.466	0.7279
603.91	0.927
612.354	0.978
620.798	0.989
629.242	0.991
637.686	0.986
646.13	0.976
654.575	0.971
663.019	0.978
671.463	0.934
679.907	0.927
688.351	0.939
696.795	0.949
705.239	0.955
713.683	0.955
722.127	0.949
730.572	0.942
739.016	0.934
747.46	0.94
755.904	0.953
764.348	0.957
772.792	0.952
781.236	0.947
789.68	0.897
798.124	0.784
806.569	0.4724
815.013	0.1281
823.457	0.001
831.901	0
840.345	0
848.789	0.001
857.233	0.001
865.677	0.5439
874.121	0.821
882.566	0.917
891.01	0.946
899.454	0.96
907.898	0.972
916.342	0.973
924.786	0.976
933.23	0.981
941.674	0.981
950.118	0.979
958.562	0.96
967.007	0.915
975.451	0.8999
983.895	0.8441
992.339	0.6792
1000.78	0.4591
1009.23	0.4472
1017.67	0.491
1026.12	0.776
1034.56	0.949
1043	0.968
1051.45	0.973
1059.89	0.978
1068.34	0.972
1076.78	0.968
1085.22	0.971
1093.67	0.972
1102.11	0.971
1110.56	0.972
1119	0.971
1127.44	0.966
1135.89	0.959
1144.33	0.928
1152.78	0.8631
1161.22	0.9269
1169.67	0.885
1178.11	0.934
1186.55	0.966
1195	0.979
1203.44	0.981
1211.89	0.982
1220.33	0.985
1228.77	0.989
1237.22	0.979
1245.66	0.969
1254.11	0.968
1262.55	0.963
1270.99	0.962
1279.44	0.962
1287.88	0.96
1296.33	0.957
1304.77	0.963
1313.22	0.963
1321.66	0.963
1330.1	0.965
1338.55	0.965
1346.99	0.971
1355.44	0.972
1363.88	0.956
1372.32	0.934
1380.77	0.905
1389.21	0.876
1397.66	0.805
1406.1	0.723
1414.54	0.7211
1422.99	0.74
1431.43	0.928
1439.88	0.947
1448.32	0.952
1456.76	0.946
1465.21	0.955
1473.65	0.946
1482.1	0.953
1490.54	0.953
1498.99	0.959
1507.43	0.952
1515.87	0.959
1524.32	0.957
1532.76	0.953
1541.21	0.949
1549.65	0.957
1558.09	0.947
1566.54	0.949
1574.98	0.946
1583.43	0.952
1591.87	0.957
1600.31	0.956
1608.76	0.943
1617.2	0.923
1625.65	0.894
1634.09	0.847
1642.54	0.726
1650.98	0.5442
1659.42	0.3051
1667.87	0.185
1676.31	0.2391
1684.76	0.1949
1693.2	0.6279
1701.64	0.879
1710.09	0.949
1718.53	0.95
1726.98	0.959
1735.42	0.956
1743.86	0.956
1752.31	0.942
1760.75	0.908
1769.2	0.8151
1777.64	0.715
1786.09	0.602
1794.53	0.215
1802.97	0.005
1811.42	0.004
1819.86	0.001
1828.31	0.001
1836.75	0.001
1845.19	0.002
1853.64	0.036
1862.08	0.1419
1870.53	0.463
1878.97	0.873
1887.41	0.946
1895.86	0.96
1904.3	0.965
1912.75	0.965
1921.19	0.962
1929.64	0.963
1938.08	0.965
1946.52	0.963
1954.97	0.963
1963.41	0.959
1971.86	0.96
1980.3	0.965
1988.74	0.966
1997.19	0.965
2005.63	0.966
2014.08	0.963
2022.52	0.966
2030.96	0.965
2039.41	0.962
2047.85	0.959
2056.3	0.957
2064.74	0.96
2073.19	0.9551
2081.63	0.9626
2090.07	0.9681
2098.52	0.9642
2106.96	0.9602
2115.41	0.96
2123.85	0.959
2132.29	0.96
2140.74	0.963
2149.18	0.966
2157.63	0.968
2166.07	0.968
2174.51	0.968
2182.96	0.969
2191.4	0.969
2199.85	0.969
2208.29	0.969
2216.73	0.969
2225.18	0.969
2233.62	0.9674
2242.07	0.965
2250.51	0.962
2258.96	0.962
2267.4	0.96
2275.84	0.9592
2284.29	0.957
2292.73	0.9535
2301.18	0.9459
2309.62	0.9232
2318.06	0.8725
2326.51	0.837
2334.95	0.8193
2343.4	0.8137
2351.84	0.8692
2360.28	0.7724
2368.73	0.7985
2377.17	0.8763
2385.62	0.9712
2394.06	0.973
2402.51	0.973
2410.95	0.973
2419.39	0.975
2427.84	0.975
2436.28	0.975
2444.73	0.975
2453.17	0.975
2461.61	0.975
2470.06	0.975
2478.5	0.975
2486.95	0.975
2495.39	0.9738
2503.83	0.9732
2512.28	0.975
2520.72	0.976
2529.17	0.978
2537.61	0.978
2546.06	0.978
2554.5	0.978
2562.94	0.978
2571.39	0.978
2579.83	0.978
2588.28	0.978
2596.72	0.978
2605.16	0.976
2613.61	0.976
2622.05	0.975
2630.5	0.975
2638.94	0.975
2647.38	0.9725
2655.83	0.972
2664.27	0.972
2672.72	0.971
2681.16	0.969
2689.61	0.968
2698.05	0.9669
2706.49	0.969
2714.94	0.9714
2723.38	0.972
2731.83	0.971
2740.27	0.969
2748.71	0.9698
2757.16	0.9719
2765.6	0.971
2774.05	0.969
2782.49	0.968
2790.93	0.971
2799.38	0.969
2807.82	0.969
2816.27	0.9703
2824.71	0.971
2833.15	0.972
2841.6	0.976
2850.04	0.979
2858.49	0.976
2866.93	0.973
2875.38	0.973
2883.82	0.975
2892.26	0.976
2900.71	0.9783
2909.15	0.9856
2917.6	0.9857
2926.04	0.9782
2934.48	0.9705
2942.93	0.969
2951.37	0.968
2959.82	0.965
2968.26	0.962
2976.7	0.96
2985.15	0.9598
2993.59	0.959
3002.04	0.959
3010.48	0.959
3018.93	0.957
3027.37	0.9597
3035.81	0.959
3044.26	0.959
3052.7	0.9586
3061.15	0.957
3069.59	0.957
3078.03	0.957
3086.48	0.956
3094.92	0.956
3103.37	0.956
3111.81	0.956
3120.25	0.955
3128.7	0.953
3137.14	0.953
3145.59	0.952
3154.03	0.95
3162.48	0.95
3170.92	0.9499
3179.36	0.949
3187.81	0.949
3196.25	0.9479
3204.7	0.947
3213.14	0.9464
3221.58	0.946
3230.03	0.946
3238.47	0.943
3246.92	0.942
3255.36	0.939
3263.8	0.938
3272.25	0.936
3280.69	0.936
3289.14	0.936
3297.58	0.936
3306.03	0.936
3314.47	0.936
3322.91	0.936
3331.36	0.936
3339.8	0.936
3348.25	0.936
3356.69	0.936
3365.13	0.936
3373.58	0.937
3382.02	0.937
3390.47	0.939
3398.91	0.9396
3407.35	0.94
3415.8	0.9424
3424.24	0.9458
3432.69	0.947
3441.13	0.949
3449.57	0.9508
3458.02	0.953
3466.46	0.953
3474.91	0.952
3483.35	0.9483
3491.8	0.9339
3500.24	0.9064
3508.68	0.8863
3517.13	0.8833
3525.57	0.8677
3534.02	0.9411
3542.46	0.9624
3550.9	0.973
3559.35	0.975
3567.79	0.975
3576.24	0.975
3584.68	0.9679
3593.12	0.9535
3601.57	0.9166
3610.01	0.869
3618.46	0.7996
3626.9	0.8096
3635.35	0.7474
3643.79	0.8832
3652.23	0.9539
3660.68	0.9681
3669.12	0.9684
3677.57	0.962
3686.01	0.9626
3694.45	0.9717
3702.9	0.973
3711.34	0.9744
3719.79	0.975
3728.23	0.976
3736.67	0.9782
3745.12	0.981
3753.56	0.982
3762.01	0.9846
