Infrared Spectrum: Propane, 1,2-epoxy-
Formula: C3 H6 O
CAS: 75-56-9
State: GAS (100 mmHg, N2 ADDED, TOTAL PRESSURE 600 mmHg)
Class: COBLENTZ
Instrument: DOW KBr FOREPRISM-GRATING
Instrument parameters: GRATING CHANGED AT 5.0, 7.5, 15.0 MICRON
Sampling: TRANSMISSION
Path length: 5 CM
Resolution: 2
Origin: DOW CHEMICAL COMPANY
1/CM	TRANSMITTANCE
462	0.8806
471	0.8814
480	0.8787
489	0.876
498	0.8747
507	0.874
516	0.8739
525	0.8736
534	0.8732
543	0.8735
552	0.8745
561	0.8772
570	0.8799
579	0.8828
588	0.8856
597	0.888
606	0.8903
615	0.8925
624	0.8942
633	0.8957
642	0.8959
651	0.8965
660	0.8977
669	0.8981
678	0.8981
687	0.8961
696	0.8903
705	0.8694
714	0.8756
723	0.8546
732	0.8135
741	0.7234
750	0.6329
759	0.5639
768	0.5854
777	0.5169
786	0.7096
795	0.7271
804	0.6318
813	0.4646
822	0.2058
831	0.097
840	0.0741
849	0.0989
858	0.1558
867	0.4099
876	0.6538
885	0.7268
894	0.7679
903	0.7603
912	0.7444
921	0.7354
930	0.6622
939	0.5756
948	0.4851
957	0.5102
966	0.439
975	0.5232
984	0.6309
993	0.7043
1002	0.6757
1011	0.5936
1020	0.5473
1029	0.5741
1038	0.5886
1047	0.7032
1056	0.7937
1065	0.8399
1074	0.8452
1083	0.8171
1092	0.771
1101	0.6834
1110	0.6288
1119	0.5462
1128	0.5652
1137	0.5338
1146	0.6375
1155	0.7006
1164	0.7234
1173	0.8025
1182	0.8507
1191	0.8784
1200	0.8886
1209	0.8903
1218	0.8858
1227	0.8715
1236	0.8408
1245	0.7739
1254	0.6816
1263	0.649
1272	0.6716
1281	0.6794
1290	0.7367
1299	0.7956
1308	0.8543
1317	0.8715
1326	0.8718
1335	0.866
1344	0.8519
1353	0.8236
1362	0.7846
1371	0.7521
1380	0.6729
1389	0.5913
1398	0.3547
1407	0.3035
1416	0.2062
1425	0.2166
1434	0.3577
1443	0.5188
1452	0.5669
1461	0.5433
1470	0.5158
1479	0.5209
1488	0.5836
1497	0.6185
1506	0.603
1515	0.6921
1524	0.7286
1533	0.7176
1542	0.8002
1551	0.8457
1560	0.8559
1569	0.8533
1578	0.8441
1587	0.8388
1596	0.8441
1605	0.8392
1614	0.8579
1623	0.8583
1632	0.8558
1641	0.8509
1650	0.8464
1659	0.8428
1668	0.8416
1677	0.8421
1686	0.8417
1695	0.8498
1704	0.8509
1713	0.8505
1722	0.852
1731	0.8633
1740	0.8701
1749	0.8724
1758	0.8708
1767	0.8685
1776	0.8668
1785	0.8667
1794	0.8682
1803	0.8703
1812	0.8742
1821	0.876
1830	0.8749
1839	0.8742
1848	0.8736
1857	0.873
1866	0.8719
1875	0.8707
1884	0.8691
1893	0.8676
1902	0.8674
1911	0.8671
1920	0.8672
1929	0.869
1938	0.8701
1947	0.8649
1956	0.8592
1965	0.8559
1974	0.857
1983	0.8586
1992	0.868
2001	0.8594
2010	0.8585
2019	0.8592
2028	0.8599
2037	0.8625
2046	0.8657
2055	0.8663
2064	0.8655
2073	0.8652
2082	0.8652
2091	0.8658
2100	0.8668
2109	0.8679
2118	0.8689
2127	0.868
2136	0.8639
2145	0.8565
2154	0.8489
2163	0.844
2172	0.8422
2181	0.8446
2190	0.8504
2199	0.8556
2208	0.8573
2217	0.8553
2226	0.8508
2235	0.8447
2244	0.8385
2253	0.8327
2262	0.8297
2271	0.831
2280	0.8349
2289	0.8409
2298	0.8473
2307	0.8529
2316	0.8576
2325	0.8596
2334	0.8568
2343	0.8546
2352	0.8602
2361	0.8671
2370	0.87
2379	0.8697
2388	0.8692
2397	0.8687
2406	0.8688
2415	0.8697
2424	0.8705
2433	0.8726
2442	0.8752
2451	0.877
2460	0.8765
2469	0.875
2478	0.8727
2487	0.8715
2496	0.8705
2505	0.8706
2514	0.8714
2523	0.8718
2532	0.8723
2541	0.8726
2550	0.8718
2559	0.8706
2568	0.8685
2577	0.8661
2586	0.8638
2595	0.8617
2604	0.8601
2613	0.8599
2622	0.8605
2631	0.8637
2640	0.867
2649	0.8702
2658	0.8735
2667	0.8741
2676	0.8746
2685	0.8744
2694	0.8742
2703	0.8719
2712	0.8694
2721	0.8653
2730	0.8608
2739	0.8556
2748	0.8503
2757	0.8427
2766	0.8326
2775	0.8201
2784	0.8075
2793	0.7957
2802	0.7904
2811	0.7936
2820	0.8085
2829	0.8105
2838	0.8064
2847	0.7908
2856	0.7646
2865	0.7035
2874	0.6383
2883	0.5599
2892	0.5461
2901	0.4215
2910	0.3924
2919	0.2369
2928	0.2205
2937	0.1959
2946	0.1702
2955	0.1407
2964	0.1056
2973	0.0921
2982	0.0479
2991	0.034
3000	0.0346
3009	0.0644
3018	0.0796
3027	0.1129
3036	0.1332
3045	0.1703
3054	0.0587
3063	0.2222
3072	0.3384
3081	0.5542
3090	0.7175
3099	0.8283
3108	0.8423
3117	0.8446
3126	0.8433
3135	0.8374
3144	0.831
3153	0.8256
3162	0.8258
3171	0.8297
3180	0.8381
3189	0.8487
3198	0.8586
3207	0.8646
3216	0.8674
3225	0.8688
3234	0.8698
3243	0.8703
3252	0.8704
3261	0.8698
3270	0.8694
3279	0.8692
3288	0.8691
3297	0.8688
3306	0.8675
3315	0.8656
3324	0.8631
3333	0.8602
3342	0.8599
3351	0.8601
3360	0.8624
3369	0.8641
3378	0.8657
3387	0.8674
3396	0.869
3405	0.8706
3414	0.8722
3423	0.8737
3432	0.8752
3441	0.8764
3450	0.8777
3459	0.8787
3468	0.8793
3477	0.8801
3486	0.8816
3495	0.8827
3504	0.8836
3513	0.8844
3522	0.8845
3531	0.8845
3540	0.8844
3549	0.8842
3558	0.884
3567	0.8837
3576	0.8835
3585	0.8831
3594	0.8818
3603	0.8803
3612	0.8797
3621	0.8795
3630	0.8781
3639	0.8756
3648	0.8727
3657	0.8706
3666	0.8697
3675	0.8693
3684	0.8697
3693	0.8693
3702	0.8655
3711	0.8599
3720	0.8547
3729	0.8523
3738	0.8535
3747	0.8557
3756	0.8579
3765	0.8595
3774	0.8601
3783	0.86
3792	0.8592
