Infrared Spectrum: PROPANOIC ACID, 2,2-DICHLORO-
Formula: C3 H4 Cl2 O2
CAS: 75-99-0
State: SOLUTION (10% IN CCl4 FOR 3800-1330, 10% IN CS2 FOR 1330-400 CM^-^1)
Class: COBLENTZ III
Instrument: DOW KBr FOREPRISM-GRATING
Instrument parameters: BLAZED AT 3.5, 12.0, 20.0 MICRON, CHANGED AT 5.0, 7.5, 14.9 MICRON
Sampling: TRANSMISSION
Path length: 0.010, 0.011 CM
Resolution: 4
Origin: DOW CHEMICAL COMPANY
1/CM	TRANSMITTANCE
390.152	0.442
398.675	0.464
407.197	0.5659
415.72	0.7099
424.243	0.772
432.766	0.777
441.288	0.779
449.811	0.764
458.334	0.71
466.857	0.626
475.379	0.714
483.902	0.8519
492.425	0.872
500.948	0.866
509.47	0.85
517.993	0.823
526.516	0.776
535.038	0.708
543.561	0.683
552.084	0.701
560.607	0.798
569.129	0.857
577.652	0.894
586.175	0.917
594.698	0.92
603.22	0.917
611.743	0.904
620.266	0.885
628.788	0.852
637.311	0.752
645.834	0.589
654.357	0.3641
662.879	0.348
671.402	0.4629
679.925	0.467
688.448	0.408
696.97	0.307
705.493	0.364
714.016	0.589
722.539	0.682
731.061	0.726
739.584	0.733
748.107	0.727
756.629	0.702
765.152	0.661
773.675	0.579
782.198	0.427
790.72	0.238
799.243	0.3129
807.766	0.694
816.289	0.757
824.811	0.744
833.334	0.708
841.857	0.645
850.38	0.544
858.902	0.479
867.425	0.427
875.948	0.436
884.47	0.417
892.993	0.379
901.516	0.366
910.039	0.386
918.561	0.439
927.084	0.53
935.607	0.645
944.13	0.726
952.652	0.789
961.175	0.827
969.698	0.852
978.221	0.864
986.743	0.876
995.266	0.888
1003.79	0.9
1012.31	0.905
1020.83	0.901
1029.36	0.886
1037.88	0.854
1046.4	0.764
1054.93	0.605
1063.45	0.372
1071.97	0.089
1080.49	0.08
1089.02	0.2128
1097.54	0.5049
1106.06	0.623
1114.58	0.5671
1123.11	0.3551
1131.63	0.172
1140.15	0.6669
1148.68	0.851
1157.2	0.852
1165.72	0.836
1174.24	0.835
1182.77	0.83
1191.29	0.82
1199.81	0.804
1208.33	0.779
1216.86	0.727
1225.38	0.679
1233.9	0.632
1242.43	0.544
1250.95	0.3971
1259.47	0.1821
1267.99	0.075
1276.52	0.079
1285.04	0.2379
1293.56	0.514
1302.08	0.691
1310.61	0.758
1319.13	0.804
1327.65	0.832
1336.18	0.842
1344.7	0.842
1353.22	0.836
1361.74	0.81
1370.27	0.761
1378.79	0.647
1387.31	0.4389
1395.83	0.564
1404.36	0.38
1412.88	0.219
1421.4	0.2878
1429.93	0.5537
1438.45	0.551
1446.97	0.117
1455.49	0.4608
1464.02	0.716
1472.54	0.83
1481.06	0.841
1489.58	0.825
1498.11	0.791
1506.63	0.73
1515.15	0.691
1523.68	0.66
1532.2	0.616
1540.72	0.529
1549.24	0.486
1557.77	0.516
1566.29	0.592
1574.81	0.63
1583.33	0.641
1591.86	0.694
1600.38	0.7719
1608.9	0.817
1617.43	0.833
1625.95	0.835
1634.47	0.825
1642.99	0.8
1651.52	0.775
1660.04	0.729
1668.56	0.692
1677.08	0.654
1685.61	0.605
1694.13	0.5261
1702.65	0.3551
1711.18	0.1171
1719.7	0.007
1728.22	0.005
1736.74	0.008
1745.27	0.039
1753.79	0.244
1762.31	0.347
1770.83	0.5848
1779.36	0.642
1787.88	0.755
1796.4	0.814
1804.93	0.842
1813.45	0.854
1821.97	0.864
1830.49	0.873
1839.02	0.883
1847.54	0.892
1856.06	0.895
1864.58	0.9
1873.11	0.904
1881.63	0.907
1890.15	0.911
1898.68	0.913
1907.2	0.914
1915.72	0.914
1924.24	0.911
1932.77	0.91
1941.29	0.905
1949.81	0.905
1958.33	0.904
1966.86	0.908
1975.38	0.913
1983.9	0.92
1992.43	0.925
2000.95	0.9325
2009.47	0.936
2017.99	0.936
2026.52	0.936
2035.04	0.938
2043.56	0.939
2052.08	0.939
2060.61	0.939
2069.13	0.939
2077.65	0.938
2086.18	0.935
2094.7	0.932
2103.22	0.9279
2111.74	0.9229
2120.27	0.9164
2128.79	0.9099
2137.31	0.8928
2145.83	0.8799
2154.36	0.88
2162.88	0.8911
2171.4	0.9094
2179.93	0.9191
2188.45	0.922
2196.97	0.9199
2205.49	0.917
2214.02	0.916
2222.54	0.913
2231.06	0.908
2239.58	0.905
2248.11	0.9017
2256.63	0.8927
2265.15	0.8907
2273.68	0.885
2282.2	0.8795
2290.72	0.8707
2299.24	0.8657
2307.77	0.8603
2316.29	0.8567
2324.81	0.8486
2333.33	0.8418
2341.86	0.8366
2350.38	0.833
2358.9	0.832
2367.43	0.827
2375.95	0.826
2384.47	0.823
2392.99	0.822
2401.52	0.816
2410.04	0.811
2418.56	0.8018
2427.08	0.7955
2435.61	0.7843
2444.13	0.7728
2452.65	0.7507
2461.18	0.7277
2469.7	0.7059
2478.22	0.6895
2486.74	0.6565
2495.27	0.6243
2503.79	0.5719
2512.31	0.5309
2520.84	0.4855
2529.36	0.4632
2537.88	0.4649
2546.4	0.4854
2554.93	0.5551
2563.45	0.5918
2571.97	0.5887
2580.49	0.5765
2589.02	0.56
2597.54	0.5395
2606.06	0.5033
2614.59	0.4814
2623.11	0.4546
2631.63	0.4299
2640.15	0.425
2648.68	0.4174
2657.2	0.3993
2665.72	0.3862
2674.24	0.3868
2682.77	0.4159
2691.29	0.4561
2699.81	0.4799
2708.34	0.4782
2716.86	0.4721
2725.38	0.4648
2733.9	0.4541
2742.43	0.4446
2750.95	0.4321
2759.47	0.4207
2767.99	0.407
2776.52	0.3948
2785.04	0.3791
2793.56	0.3647
2802.09	0.3451
2810.61	0.3277
2819.13	0.3082
2827.65	0.2862
2836.18	0.267
2844.7	0.2496
2853.22	0.232
2861.74	0.215
2870.27	0.204
2878.79	0.199
2887.31	0.194
2895.84	0.191
2904.36	0.192
2912.88	0.199
2921.4	0.2071
2929.93	0.2236
2938.45	0.235
2946.97	0.2461
2955.49	0.248
2964.02	0.2282
2972.54	0.1997
2981.06	0.1868
2989.59	0.1799
2998.11	0.176
3006.63	0.1771
3015.15	0.1811
3023.68	0.182
3032.2	0.182
3040.72	0.1832
3049.24	0.1872
3057.77	0.1922
3066.29	0.198
3074.81	0.2
3083.34	0.198
3091.86	0.198
3100.38	0.1993
3108.9	0.202
3117.43	0.2063
3125.95	0.2173
3134.47	0.2313
3142.99	0.2411
3151.52	0.2516
3160.04	0.2673
3168.56	0.2846
3177.09	0.308
3185.61	0.3227
3194.13	0.3382
3202.65	0.3528
3211.18	0.3671
3219.7	0.3862
3228.22	0.4076
3236.74	0.4342
3245.27	0.4622
3253.79	0.4883
3262.31	0.5089
3270.84	0.5467
3279.36	0.5731
3287.88	0.6032
3296.4	0.6292
3304.93	0.6579
3313.45	0.6805
3321.97	0.7002
3330.49	0.7205
3339.02	0.7458
3347.54	0.7675
3356.06	0.7868
3364.59	0.8006
3373.11	0.812
3381.63	0.8256
3390.15	0.8388
3398.68	0.85
3407.2	0.8608
3415.72	0.8756
3424.24	0.8901
3432.77	0.8986
3441.29	0.9066
3449.81	0.911
3458.34	0.913
3466.86	0.914
3475.38	0.9132
3483.9	0.9077
3492.43	0.9012
3500.95	0.8916
3509.47	0.886
3517.99	0.8921
3526.52	0.9136
3535.04	0.9341
3543.56	0.9536
3552.09	0.9664
3560.61	0.9718
3569.13	0.973
3577.65	0.9759
3586.18	0.976
3594.7	0.975
3603.22	0.975
3611.74	0.977
3620.27	0.9766
3628.79	0.9751
3637.31	0.9726
3645.84	0.9671
3654.36	0.966
3662.88	0.969
3671.4	0.9739
3679.93	0.9789
3688.45	0.979
3696.97	0.979
3705.49	0.98
3714.02	0.98
3722.54	0.98
3731.06	0.98
3739.59	0.98
3748.11	0.98
3756.63	0.98
3765.15	0.98
3773.68	0.979
3782.2	0.979
3790.72	0.977
