Infrared Spectrum: FORMIC ACID, CYCLOHEPTYL ESTER
Formula: C8 H14 O2
CAS: 75024-32-7
State: SOLUTION (2% CCl4 FOR 3800-1330, 2% CS2 FOR 1330-400 CM^-^1)
Class: COBLENTZ III
Instrument: DOW KBr FOREPRISM-GRATING
Instrument parameters: BLAZED AT 3.5, 12.0, 20.0 MICRON AND CHANGED AT 5.0, 7.5, 14.9 MICRON
Sampling: TRANSMISSION
Path length: 0.011 CM, 0.011 CM
Resolution: 2
Origin: DOW CHEMICAL COMPANY
1/CM	TRANSMITTANCE
384.176	0.42
392.967	0.453
401.758	0.552
410.55	0.787
419.341	0.969
428.132	1.02
436.923	1.039
445.715	1.046
454.506	1.047
463.297	1.053
472.088	1.06
480.88	1.065
489.671	1.063
498.462	1.047
507.253	1.038
516.044	1.039
524.836	1.034
533.627	1.034
542.418	1.036
551.209	1.041
560.001	1.046
568.792	1.052
577.583	1.052
586.374	1.054
595.166	1.054
603.957	1.053
612.748	1.049
621.539	1.045
630.33	1.036
639.122	1.027
647.913	1.005
656.704	1
665.495	1.02
674.287	1.035
683.078	1.032
691.869	1.027
700.66	1.027
709.452	1.026
718.243	1.024
727.034	1.024
735.825	1.021
744.616	1.017
753.408	1.008
762.199	1.002
770.99	1.002
779.781	1.001
788.573	0.982
797.364	0.991
806.155	1
814.946	0.997
823.738	0.98
832.529	0.963
841.32	0.92
850.111	0.802
858.902	0.801
867.694	0.815
876.485	0.806
885.276	0.882
894.067	0.961
902.859	0.998
911.65	1.001
920.441	1.001
929.232	0.993
938.024	0.979
946.815	0.893
955.606	0.817
964.397	0.864
973.188	0.979
981.98	0.993
990.771	0.987
999.562	0.932
1008.35	0.932
1017.14	0.949
1025.94	0.98
1034.73	0.989
1043.52	0.99
1052.31	0.99
1061.1	0.99
1069.89	0.989
1078.68	0.99
1087.47	0.991
1096.27	0.987
1105.06	0.963
1113.85	0.946
1122.64	0.95
1131.43	0.949
1140.22	0.878
1149.01	0.824
1157.8	0.736
1166.6	0.39
1175.39	0.1719
1184.18	0.152
1192.97	0.3201
1201.76	0.534
1210.55	0.783
1219.34	0.883
1228.13	0.935
1236.93	0.964
1245.72	0.975
1254.51	0.98
1263.3	0.987
1272.09	0.983
1280.88	0.986
1289.67	0.994
1298.46	1.001
1307.26	0.998
1316.05	0.984
1324.84	0.984
1333.63	0.98
1342.42	0.983
1351.21	0.989
1360	0.982
1368.79	0.963
1377.59	0.927
1386.38	0.986
1395.17	1.001
1403.96	1.002
1412.75	1.004
1421.54	0.998
1430.33	0.993
1439.12	0.957
1447.91	0.882
1456.71	0.856
1465.5	0.765
1474.29	0.897
1483.08	0.946
1491.87	0.928
1500.66	0.912
1509.45	0.852
1518.24	0.78
1527.04	0.719
1535.83	0.668
1544.62	0.538
1553.41	0.51
1562.2	0.535
1570.99	0.646
1579.78	0.698
1588.57	0.719
1597.37	0.78
1606.16	0.894
1614.95	0.953
1623.74	0.976
1632.53	0.99
1641.32	1
1650.11	1
1658.9	1.002
1667.7	0.989
1676.49	0.979
1685.28	0.941
1694.07	0.926
1702.86	0.865
1711.65	0.7189
1720.44	0.2128
1729.23	0.045
1738.03	0.6191
1746.82	0.869
1755.61	0.924
1764.4	0.968
1773.19	0.986
1781.98	0.995
1790.77	0.998
1799.56	1
1808.36	1
1817.15	1
1825.94	1
1834.73	1
1843.52	1.001
1852.31	1.006
1861.1	1.008
1869.89	1.008
1878.69	1.009
1887.48	1.01
1896.27	1.01
1905.06	1.01
1913.85	1.009
1922.64	1.009
1931.43	1.009
1940.22	1.01
1949.01	1.01
1957.81	1.012
1966.6	1.008
1975.39	1.005
1984.18	1.002
1992.97	1
2001.76	0.957
2010.55	0.984
2019.34	0.984
2028.14	0.984
2036.93	0.983
2045.72	0.978
2054.51	0.9831
2063.3	0.984
2072.09	0.984
2080.88	0.986
2089.67	0.989
2098.47	0.99
2107.26	0.99
2116.05	0.99
2124.84	0.99
2133.63	0.989
2142.42	0.989
2151.21	0.987
2160	0.9868
2168.8	0.986
2177.59	0.986
2186.38	0.984
2195.17	0.984
2203.96	0.983
2212.75	0.983
2221.54	0.982
2230.33	0.982
2239.13	0.98
2247.92	0.979
2256.71	0.9787
2265.5	0.9723
2274.29	0.9663
2283.08	0.9606
2291.87	0.956
2300.66	0.954
2309.46	0.956
2318.25	0.956
2327.04	0.954
2335.83	0.95
2344.62	0.95
2353.41	0.95
2362.2	0.953
2370.99	0.956
2379.79	0.9605
2388.58	0.9685
2397.37	0.973
2406.16	0.977
2414.95	0.978
2423.74	0.978
2432.53	0.978
2441.32	0.9786
2450.12	0.979
2458.91	0.979
2467.7	0.979
2476.49	0.979
2485.28	0.978
2494.07	0.978
2502.86	0.978
2511.65	0.978
2520.44	0.978
2529.24	0.978
2538.03	0.978
2546.82	0.978
2555.61	0.978
2564.4	0.9766
2573.19	0.976
2581.98	0.976
2590.77	0.976
2599.57	0.976
2608.36	0.976
2617.15	0.976
2625.94	0.976
2634.73	0.976
2643.52	0.975
2652.31	0.972
2661.1	0.9682
2669.9	0.965
2678.69	0.963
2687.48	0.96
2696.27	0.961
2705.06	0.963
2713.85	0.964
2722.64	0.9583
2731.43	0.9598
2740.23	0.9639
2749.02	0.9679
2757.81	0.969
2766.6	0.969
2775.39	0.967
2784.18	0.964
2792.97	0.96
2801.76	0.954
2810.56	0.95
2819.35	0.946
2828.14	0.9409
2836.93	0.9318
2845.72	0.9006
2854.51	0.8358
2863.3	0.6129
2872.09	0.6535
2880.89	0.7748
2889.68	0.7831
2898.47	0.7326
2907.26	0.6029
2916.05	0.481
2924.84	0.3571
2933.63	0.2935
2942.42	0.2932
2951.22	0.3475
2960.01	0.5551
2968.8	0.7112
2977.59	0.8501
2986.38	0.9106
2995.17	0.9392
3003.96	0.953
3012.75	0.9618
3021.55	0.9656
3030.34	0.969
3039.13	0.9696
3047.92	0.971
3056.71	0.9717
3065.5	0.973
3074.29	0.973
3083.08	0.973
3091.87	0.9703
3100.67	0.9657
3109.46	0.9698
3118.25	0.976
3127.04	0.976
3135.83	0.976
3144.62	0.975
3153.41	0.975
3162.2	0.975
3171	0.975
3179.79	0.977
3188.58	0.976
3197.37	0.976
3206.16	0.978
3214.95	0.978
3223.74	0.978
3232.53	0.978
3241.33	0.978
3250.12	0.978
3258.91	0.978
3267.7	0.978
3276.49	0.978
3285.28	0.978
3294.07	0.978
3302.86	0.978
3311.66	0.978
3320.45	0.978
3329.24	0.978
3338.03	0.978
3346.82	0.978
3355.61	0.978
3364.4	0.978
3373.19	0.978
3381.99	0.978
3390.78	0.9775
3399.57	0.978
3408.36	0.976
3417.15	0.9695
3425.94	0.9579
3434.73	0.9596
3443.52	0.9648
3452.32	0.9706
3461.11	0.973
3469.9	0.973
3478.69	0.973
3487.48	0.973
3496.27	0.973
3505.06	0.973
3513.85	0.973
3522.65	0.973
3531.44	0.972
3540.23	0.9711
3549.02	0.971
3557.81	0.969
3566.6	0.968
3575.39	0.968
3584.18	0.969
3592.98	0.968
3601.77	0.968
3610.56	0.967
3619.35	0.9669
3628.14	0.965
3636.93	0.964
3645.72	0.964
3654.51	0.963
3663.3	0.963
3672.1	0.961
3680.89	0.961
3689.68	0.96
3698.47	0.9598
3707.26	0.958
3716.05	0.958
3724.84	0.958
3733.63	0.958
3742.43	0.96
3751.22	0.961
3760.01	0.963
3768.8	0.9638
3777.59	0.964
