Infrared Spectrum: PHOSPHONIC ACID, METHYL-, DIMETHYL ESTER
Formula: C3 H9 O3 P
CAS: 756-79-6
State: GAS (3.5 ml, VAPORIZED AT 100 C)
Class: COBLENTZ
Instrument: BECKMAN IR-9 (GRATING)
Instrument parameters: ORDER CHANGES: 670, 1200, 2000 CM^-^1
Sampling: TRANSMISSION
Path length: 7 CM CELL
Resolution: 2
Origin: DOW CHEMICAL COMPANY
1/CM	TRANSMITTANCE
404.255	0.787
413.564	0.7081
422.872	0.675
432.181	0.681
441.489	0.729
450.798	0.781
460.106	0.814
469.415	0.831
478.723	0.835
488.032	0.797
497.34	0.76
506.649	0.762
515.957	0.841
525.266	0.916
534.574	0.956
543.883	0.966
553.191	0.975
562.5	0.979
571.808	0.981
581.117	0.985
590.425	0.991
599.734	0.997
609.042	1
618.351	1.002
627.659	1.004
636.968	1.006
646.276	1.006
655.585	1.01
664.893	1.004
674.202	1.022
683.51	1.047
692.819	1.025
702.127	0.975
711.436	0.895
720.744	0.8999
730.053	0.931
739.361	1
748.67	1.004
757.978	0.993
767.287	0.972
776.595	0.872
785.904	0.7251
795.212	0.639
804.521	0.572
813.829	0.5161
823.138	0.6018
832.446	0.7999
841.755	0.9559
851.063	0.975
860.372	0.966
869.68	0.958
878.989	0.931
888.297	0.852
897.606	0.691
906.914	0.5452
916.223	0.458
925.531	0.537
934.84	0.7886
944.148	0.916
953.457	0.939
962.765	0.941
972.074	0.943
981.382	0.933
990.691	0.927
999.999	0.92
1009.31	0.912
1018.62	0.877
1027.92	0.7253
1037.23	0.3123
1046.54	0.118
1055.85	0.079
1065.16	0.1637
1074.47	0.229
1083.78	0.283
1093.08	0.5553
1102.39	0.7099
1111.7	0.77
1121.01	0.793
1130.32	0.822
1139.63	0.854
1148.94	0.877
1158.24	0.891
1167.55	0.879
1176.86	0.831
1186.17	0.775
1195.48	0.775
1204.79	0.833
1214.09	0.868
1223.4	0.875
1232.71	0.872
1242.02	0.868
1251.33	0.7622
1260.64	0.5251
1269.95	0.356
1279.25	0.4075
1288.56	0.5616
1297.87	0.677
1307.18	0.616
1316.49	0.575
1325.8	0.727
1335.11	0.881
1344.41	0.941
1353.72	0.95
1363.03	0.952
1372.34	0.945
1381.65	0.935
1390.96	0.937
1400.27	0.941
1409.57	0.931
1418.88	0.918
1428.19	0.91
1437.5	0.922
1446.81	0.92
1456.12	0.906
1465.42	0.893
1474.73	0.893
1484.04	0.904
1493.35	0.927
1502.66	0.935
1511.97	0.941
1521.28	0.943
1530.58	0.943
1539.89	0.943
1549.2	0.945
1558.51	0.947
1567.82	0.954
1577.13	0.956
1586.44	0.958
1595.74	0.958
1605.05	0.958
1614.36	0.962
1623.67	0.954
1632.98	0.954
1642.29	0.962
1651.59	0.968
1660.9	0.97
1670.21	0.97
1679.52	0.968
1688.83	0.977
1698.14	0.97
1707.45	0.97
1716.75	0.97
1726.06	0.968
1735.37	0.968
1744.68	0.964
1753.99	0.958
1763.3	0.954
1772.61	0.952
1781.91	0.954
1791.22	0.954
1800.53	0.958
1809.84	0.96
1819.15	0.96
1828.46	0.958
1837.76	0.956
1847.07	0.956
1856.38	0.95
1865.69	0.95
1875	0.954
1884.31	0.96
1893.62	0.96
1902.92	0.96
1912.23	0.962
1921.54	0.964
1930.85	0.966
1940.16	0.962
1949.47	0.962
1958.78	0.958
1968.08	0.958
1977.39	0.958
1986.7	0.958
1996.01	0.958
2005.32	0.962
2014.63	0.955
2023.93	0.954
2033.24	0.954
2042.55	0.954
2051.86	0.956
2061.17	0.954
2070.48	0.956
2079.79	0.9538
2089.09	0.9507
2098.4	0.947
2107.71	0.945
2117.02	0.943
2126.33	0.943
2135.64	0.943
2144.95	0.945
2154.25	0.9504
2163.56	0.954
2172.87	0.954
2182.18	0.954
2191.49	0.952
2200.8	0.952
2210.1	0.9491
2219.41	0.947
2228.72	0.947
2238.03	0.945
2247.34	0.945
2256.65	0.945
2265.96	0.95
2275.26	0.9473
2284.57	0.947
2293.88	0.95
2303.19	0.95
2312.5	0.952
2321.81	0.953
2331.12	0.954
2340.42	0.954
2349.73	0.954
2359.04	0.952
2368.35	0.954
2377.66	0.9551
2386.97	0.9559
2396.28	0.9438
2405.58	0.941
2414.89	0.941
2424.2	0.9413
2433.51	0.9417
2442.82	0.9407
2452.13	0.9404
2461.43	0.943
2470.74	0.943
2480.05	0.941
2489.36	0.943
2498.67	0.943
2507.98	0.945
2517.29	0.943
2526.59	0.937
2535.9	0.941
2545.21	0.941
2554.52	0.939
2563.83	0.939
2573.14	0.941
2582.45	0.943
2591.75	0.943
2601.06	0.941
2610.37	0.939
2619.68	0.939
2628.99	0.937
2638.3	0.937
2647.6	0.9379
2656.91	0.939
2666.22	0.939
2675.53	0.939
2684.84	0.941
2694.15	0.939
2703.46	0.939
2712.76	0.939
2722.07	0.9358
2731.38	0.939
2740.69	0.937
2750	0.937
2759.31	0.937
2768.62	0.937
2777.92	0.935
2787.23	0.937
2796.54	0.935
2805.85	0.933
2815.16	0.931
2824.47	0.9285
2833.77	0.922
2843.08	0.9052
2852.39	0.8377
2861.7	0.7864
2871.01	0.816
2880.32	0.8742
2889.63	0.891
2898.93	0.8856
2908.24	0.8753
2917.55	0.8591
2926.86	0.8473
2936.17	0.8442
2945.48	0.7733
2954.79	0.6776
2964.09	0.627
2973.4	0.686
2982.71	0.7657
2992.02	0.783
3001.33	0.785
3010.64	0.782
3019.94	0.7891
3029.25	0.8212
3038.56	0.8582
3047.87	0.8737
3057.18	0.8811
3066.49	0.8862
3075.8	0.8892
3085.1	0.8922
3094.41	0.9005
3103.72	0.9093
3113.03	0.9163
3122.34	0.9214
3131.65	0.9254
3140.96	0.927
3150.26	0.929
3159.57	0.929
3168.88	0.929
3178.19	0.929
3187.5	0.929
3196.81	0.929
3206.12	0.9296
3215.42	0.9326
3224.73	0.933
3234.04	0.933
3243.35	0.933
3252.66	0.933
3261.97	0.933
3271.27	0.933
3280.58	0.933
3289.89	0.931
3299.2	0.931
3308.51	0.931
3317.82	0.929
3327.13	0.929
3336.43	0.929
3345.74	0.929
3355.05	0.929
3364.36	0.929
3373.67	0.929
3382.98	0.929
3392.29	0.927
3401.59	0.927
3410.9	0.927
3420.21	0.927
3429.52	0.927
3438.83	0.927
3448.14	0.927
3457.44	0.929
3466.75	0.929
3476.06	0.929
3485.37	0.9295
3494.68	0.931
3503.99	0.931
3513.3	0.931
3522.6	0.931
3531.91	0.931
3541.22	0.931
3550.53	0.931
3559.84	0.931
3569.15	0.929
3578.46	0.929
3587.76	0.929
3597.07	0.929
3606.38	0.931
3615.69	0.931
3625	0.931
3634.31	0.931
3643.61	0.9319
3652.92	0.933
3662.23	0.933
3671.54	0.933
3680.85	0.931
3690.16	0.935
3699.47	0.935
3708.77	0.935
3718.08	0.935
3727.39	0.9348
3736.7	0.933
3746.01	0.933
3755.32	0.931
3764.63	0.931
3773.93	0.929
3783.24	0.9287
3792.55	0.929
