Infrared Spectrum: BENZENE, 1,4-BIS(METHYLTHIOMETHYL)-
Formula: C10 H14 S2
CAS: 75919-81-2
State: SOLID (MELT)
Class: COBLENTZ III
Instrument: DOW KBr FOREPRISM-GRATING
Instrument parameters: BLAZED AT 3.5, 12.0, 20.0 MICRON, CHANGED AT 5.0, 7.5, 14.9 MICRON
Sampling: TRANSMISSION
Path length: CAPILLARY
Resolution: 4
Origin: DOW CHEMICAL COMPANY
1/CM	TRANSMITTANCE
465.199	0.98
474.122	0.984
483.046	0.99
491.969	0.994
500.892	1.008
509.815	1
518.739	0.935
527.662	0.376
536.585	1.006
545.508	1.02
554.432	1.027
563.355	1.029
572.278	1.032
581.201	1.03
590.125	1.027
599.048	1.032
607.971	1.029
616.894	1.029
625.818	1.022
634.741	1.006
643.664	1.008
652.587	0.991
661.511	0.942
670.434	0.764
679.357	0.279
688.28	0.848
697.204	0.937
706.127	0.951
715.05	0.817
723.973	0.572
732.897	0.969
741.82	0.981
750.743	0.967
759.666	0.888
768.59	0.263
777.513	0.867
786.436	0.965
795.359	0.979
804.283	0.98
813.206	0.979
822.129	0.966
831.053	0.916
839.976	0.629
848.899	0.427
857.822	0.465
866.746	0.732
875.669	0.966
884.592	0.977
893.515	0.972
902.439	0.969
911.362	0.973
920.285	0.977
929.208	0.967
938.132	0.954
947.055	0.906
955.978	0.417
964.901	0.795
973.825	0.612
982.748	0.522
991.671	0.874
1000.59	0.944
1009.52	0.963
1018.44	0.83
1027.36	0.98
1036.29	0.983
1045.21	0.976
1054.13	0.973
1063.06	0.928
1071.98	0.973
1080.9	0.937
1089.83	0.835
1098.75	0.536
1107.67	0.87
1116.6	0.948
1125.52	0.942
1134.44	0.948
1143.37	0.902
1152.29	0.805
1161.21	0.924
1170.14	0.948
1179.06	0.937
1187.98	0.923
1196.91	0.799
1205.83	0.616
1214.75	0.891
1223.68	0.937
1232.6	0.813
1241.52	0.222
1250.45	0.831
1259.37	0.938
1268.29	0.948
1277.22	0.94
1286.14	0.934
1295.06	0.852
1303.99	0.912
1312.91	0.871
1321.83	0.926
1330.75	0.963
1339.68	0.963
1348.6	0.959
1357.52	0.947
1366.45	0.916
1375.37	0.881
1384.29	0.92
1393.22	0.913
1402.14	0.857
1411.06	0.427
1419.99	0.238
1428.91	0.362
1437.83	0.54
1446.76	0.863
1455.68	0.903
1464.6	0.919
1473.53	0.85
1482.45	0.771
1491.37	0.891
1500.3	0.752
1509.22	0.25
1518.14	0.715
1527.07	0.871
1535.99	0.94
1544.91	0.961
1553.84	0.965
1562.76	0.961
1571.68	0.955
1580.61	0.966
1589.53	0.977
1598.45	0.973
1607.38	0.959
1616.3	0.977
1625.22	0.976
1634.15	0.983
1643.07	0.987
1651.99	0.987
1660.92	0.983
1669.84	0.983
1678.76	0.958
1687.69	0.908
1696.61	0.912
1705.53	0.922
1714.45	0.933
1723.38	0.945
1732.3	0.963
1741.22	0.97
1750.15	0.98
1759.07	0.979
1767.99	0.977
1776.92	0.983
1785.84	0.969
1794.76	0.941
1803.69	0.954
1812.61	0.934
1821.53	0.912
1830.46	0.962
1839.38	0.973
1848.3	0.984
1857.23	0.984
1866.15	0.986
1875.07	0.986
1884	0.984
1892.92	0.979
1901.84	0.97
1910.77	0.903
1919.69	0.885
1928.61	0.779
1937.54	0.926
1946.46	0.949
1955.38	0.952
1964.31	0.967
1973.23	0.973
1982.15	0.976
1991.08	0.962
2000	0.956
2008.92	0.963
2017.85	0.97
2026.77	0.979
2035.69	0.9671
2044.62	0.9699
2053.54	0.977
2062.46	0.979
2071.39	0.98
2080.31	0.98
2089.23	0.979
2098.15	0.9758
2107.08	0.977
2116	0.9759
2124.92	0.9771
2133.85	0.9741
2142.77	0.9739
2151.69	0.977
2160.62	0.97
2169.54	0.9769
2178.46	0.9771
2187.39	0.9731
2196.31	0.976
2205.23	0.9759
2214.16	0.9705
2223.08	0.974
2232	0.9722
2240.93	0.9633
2249.85	0.9339
2258.77	0.944
2267.7	0.9341
2276.62	0.931
2285.54	0.9312
2294.47	0.9439
2303.39	0.9544
2312.31	0.9607
2321.24	0.9551
2330.16	0.9522
2339.08	0.949
2348.01	0.954
2356.93	0.952
2365.85	0.951
2374.78	0.949
2383.7	0.9403
2392.62	0.9406
2401.55	0.947
2410.47	0.945
2419.39	0.9489
2428.32	0.9533
2437.24	0.955
2446.16	0.951
2455.09	0.955
2464.01	0.954
2472.93	0.948
2481.85	0.9395
2490.78	0.9548
2499.7	0.954
2508.62	0.951
2517.55	0.9493
2526.47	0.945
2535.39	0.9478
2544.32	0.948
2553.24	0.949
2562.16	0.9474
2571.09	0.9418
2580.01	0.9412
2588.93	0.9354
2597.86	0.9314
2606.78	0.935
2615.7	0.9306
2624.63	0.92
2633.55	0.9338
2642.47	0.935
2651.4	0.9233
2660.32	0.9184
2669.24	0.9373
2678.17	0.9402
2687.09	0.94
2696.01	0.94
2704.94	0.9372
2713.86	0.9378
2722.78	0.9372
2731.71	0.9315
2740.63	0.931
2749.55	0.931
2758.48	0.934
2767.4	0.9333
2776.32	0.9273
2785.25	0.9223
2794.17	0.9198
2803.09	0.8813
2812.02	0.7835
2820.94	0.5452
2829.86	0.7251
2838.79	0.748
2847.71	0.6186
2856.63	0.7184
2865.56	0.8098
2874.48	0.8207
2883.4	0.8124
2892.32	0.7549
2901.25	0.2311
2910.17	0.109
2919.09	0.3353
2928.02	0.7392
2936.94	0.8124
2945.86	0.7904
2954.79	0.7703
2963.71	0.5849
2972.63	0.5411
2981.56	0.5337
2990.48	0.7129
2999.4	0.7517
3008.33	0.7726
3017.25	0.6243
3026.17	0.7846
3035.1	0.8094
3044.02	0.7131
3052.94	0.7907
3061.87	0.8692
3070.79	0.877
3079.71	0.8647
3088.64	0.8821
3097.56	0.9003
3106.48	0.898
3115.41	0.892
3124.33	0.9072
3133.25	0.9142
3142.18	0.9182
3151.1	0.9196
3160.02	0.924
3168.95	0.927
3177.87	0.924
3186.79	0.928
3195.72	0.931
3204.64	0.931
3213.56	0.9334
3222.49	0.9304
3231.41	0.927
3240.33	0.928
3249.26	0.933
3258.18	0.935
3267.1	0.9319
3276.02	0.9304
3284.95	0.933
3293.87	0.933
3302.79	0.935
3311.72	0.9344
3320.64	0.933
3329.56	0.934
3338.49	0.935
3347.41	0.9405
3356.33	0.94
3365.26	0.94
3374.18	0.9431
3383.1	0.945
3392.03	0.9461
3400.95	0.945
3409.87	0.945
3418.8	0.946
3427.72	0.945
3436.64	0.946
3445.57	0.947
3454.49	0.947
3463.41	0.947
3472.34	0.947
3481.26	0.9475
3490.18	0.9475
3499.11	0.9475
3508.03	0.949
3516.95	0.95
3525.88	0.952
3534.8	0.952
3543.72	0.954
3552.65	0.955
3561.57	0.956
3570.49	0.959
3579.42	0.958
3588.34	0.9569
3597.26	0.9601
3606.19	0.9555
3615.11	0.9515
3624.03	0.947
3632.96	0.9545
3641.88	0.9435
3650.8	0.9492
3659.72	0.9516
3668.65	0.952
3677.57	0.958
3686.49	0.956
3695.42	0.961
3704.34	0.961
3713.26	0.9598
3722.19	0.963
3731.11	0.963
3740.03	0.9572
3748.96	0.956
3757.88	0.958
3766.8	0.956
3775.73	0.9476
3784.65	0.9554
3793.57	0.958
