Infrared Spectrum: METHANE, TRICHLORONITRO-
Formula: C Cl3 N O2
CAS: 76-06-2
State: GAS (18 mmHg DILUTED TO A TOTAL PRESSURE OF 600 mmHg WITH N2)
Class: COBLENTZ
Instrument: DOW KBr FOREPRISM-GRATING
Instrument parameters: BLAZED AT 3.5, 12.0, 20.0 MICRON, CHANGED AT 5.0, 7.5, 14.9 MICRON
Sampling: TRANSMISSION
Path length: 2.5 CM CELL
Resolution: 4
Origin: DOW CHEMICAL COMPANY
1/CM	TRANSMITTANCE
380.152	0.76
389.664	0.76
399.175	0.766
408.687	0.769
418.199	0.786
427.711	0.802
437.222	0.82
446.734	0.841
456.246	0.858
465.758	0.873
475.269	0.883
484.781	0.894
494.293	0.901
503.804	0.91
513.316	0.911
522.828	0.917
532.34	0.917
541.851	0.923
551.363	0.927
560.875	0.927
570.387	0.93
579.898	0.932
589.41	0.922
598.922	0.933
608.433	0.925
617.945	0.93
627.457	0.922
636.969	0.911
646.48	0.901
655.992	0.857
665.504	0.813
675.016	0.785
684.527	0.872
694.039	0.886
703.551	0.851
713.062	0.779
722.574	0.814
732.086	0.845
741.598	0.898
751.109	0.985
760.621	1.008
770.133	1.013
779.645	1.01
789.156	1.007
798.668	1.007
808.18	1.004
817.691	1.001
827.203	0.976
836.715	0.804
846.227	0.719
855.738	0.717
865.25	0.426
874.762	0.336
884.274	0.494
893.785	0.472
903.297	0.369
912.809	0.585
922.321	0.798
931.832	0.914
941.344	0.973
950.856	0.992
960.367	1.002
969.879	1.005
979.391	1.004
988.903	1.002
998.414	1.001
1007.93	1.005
1017.44	1.004
1026.95	1.005
1036.46	1.008
1045.97	1.007
1055.48	1.008
1065	1.007
1074.51	1.005
1084.02	1.01
1093.53	1.014
1103.04	1.011
1112.56	1.01
1122.07	1.013
1131.58	1.008
1141.09	1.005
1150.6	1.007
1160.11	1.007
1169.63	1.001
1179.14	0.997
1188.65	1
1198.16	1
1207.67	0.998
1217.18	0.997
1226.7	0.994
1236.21	0.991
1245.72	0.992
1255.23	0.988
1264.74	0.975
1274.25	0.944
1283.77	0.913
1293.28	0.913
1302.79	0.735
1312.3	0.436
1321.81	0.635
1331.32	0.954
1340.84	0.941
1350.35	0.861
1359.86	0.883
1369.37	0.991
1378.88	1.016
1388.4	1.025
1397.91	1.033
1407.42	1.027
1416.93	1.023
1426.44	1.023
1435.95	1.022
1445.47	1.019
1454.98	1.019
1464.49	1.016
1474	1.025
1483.51	1.014
1493.02	1.017
1502.54	1.01
1512.05	1.008
1521.56	1.014
1531.07	1.011
1540.58	1.017
1550.09	1.005
1559.61	1
1569.12	0.994
1578.63	0.961
1588.14	0.869
1597.65	0.723
1607.16	0.485
1616.68	0.341
1626.19	0.311
1635.7	0.479
1645.21	0.842
1654.72	0.982
1664.24	1.011
1673.75	1.013
1683.26	1.007
1692.77	1.01
1702.28	1.004
1711.79	1.008
1721.31	1.001
1730.82	1.005
1740.33	1.002
1749.84	1.002
1759.35	1.002
1768.86	1.004
1778.38	1.004
1787.89	1.004
1797.4	1.002
1806.91	1.002
1816.42	1.002
1825.93	1.002
1835.45	1.001
1844.96	1.001
1854.47	1.001
1863.98	1.001
1873.49	1.001
1883.01	1.001
1892.52	1
1902.03	1
1911.54	1
1921.05	1
1930.56	1
1940.08	1
1949.59	0.998
1959.1	0.997
1968.61	0.997
1978.12	0.995
1987.63	0.994
1997.15	0.994
2006.66	0.992
2016.17	0.992
2025.68	0.992
2035.19	0.992
2044.7	0.992
2054.22	0.992
2063.73	0.9926
2073.24	0.994
2082.75	0.994
2092.26	0.994
2101.77	0.9942
2111.29	0.995
2120.8	0.995
2130.31	0.995
2139.82	0.9952
2149.33	0.997
2158.85	0.997
2168.36	0.997
2177.87	0.997
2187.38	0.997
2196.89	0.997
2206.4	0.997
2215.92	0.997
2225.43	0.997
2234.94	0.997
2244.45	0.997
2253.96	0.997
2263.47	0.997
2272.99	0.997
2282.5	0.997
2292.01	0.997
2301.52	0.997
2311.03	0.997
2320.54	0.997
2330.06	0.997
2339.57	0.997
2349.08	0.995
2358.59	1.0003
2368.1	1.0135
2377.61	0.9997
2387.13	0.9812
2396.64	0.976
2406.15	0.977
2415.66	0.9777
2425.17	0.98
2434.69	0.979
2444.2	0.9793
2453.71	0.98
2463.22	0.98
2472.73	0.98
2482.24	0.982
2491.76	0.983
2501.27	0.983
2510.78	0.985
2520.29	0.985
2529.8	0.986
2539.31	0.986
2548.83	0.986
2558.34	0.985
2567.85	0.985
2577.36	0.985
2586.87	0.982
2596.38	0.979
2605.9	0.9752
2615.41	0.976
2624.92	0.9797
2634.43	0.98
2643.94	0.979
2653.46	0.979
2662.97	0.9873
2672.48	0.992
2681.99	0.991
2691.5	0.988
2701.01	0.9885
2710.53	0.989
2720.04	0.991
2729.55	0.991
2739.06	0.991
2748.57	0.992
2758.08	0.9916
2767.6	0.9903
2777.11	0.991
2786.62	0.991
2796.13	0.991
2805.64	0.991
2815.15	0.989
2824.67	0.988
2834.18	0.9877
2843.69	0.985
2853.2	0.983
2862.71	0.982
2872.22	0.982
2881.74	0.979
2891.25	0.97
2900.76	0.96
2910.27	0.9541
2919.78	0.952
2929.3	0.9577
2938.81	0.9725
2948.32	0.98
2957.83	0.9828
2967.34	0.985
2976.85	0.9888
2986.37	0.994
2995.88	0.995
3005.39	0.995
3014.9	0.997
3024.41	0.997
3033.92	0.997
3043.44	0.997
3052.95	0.998
3062.46	1
3071.97	1
3081.48	1
3090.99	1.0004
3100.51	1.001
3110.02	1.001
3119.53	1.002
3129.04	1.0027
3138.55	1.005
3148.06	1.004
3157.58	1.002
3167.09	1.001
3176.6	1.002
3186.11	1.004
3195.62	1.0037
3205.14	1.001
3214.65	1.0009
3224.16	0.9999
3233.67	0.998
3243.18	0.998
3252.69	0.997
3262.21	0.998
3271.72	0.998
3281.23	0.998
3290.74	1
3300.25	1
3309.76	1
3319.28	1.001
3328.79	1
3338.3	0.997
3347.81	0.997
3357.32	0.997
3366.83	0.997
3376.35	0.998
3385.86	0.998
3395.37	1.001
3404.88	1.002
3414.39	1.002
3423.91	1.001
3433.42	1.0005
3442.93	0.9991
3452.44	0.997
3461.95	0.997
3471.46	0.997
3480.98	0.995
3490.49	0.992
3500	0.992
3509.51	0.991
3519.02	0.991
3528.53	0.989
3538.05	0.988
3547.56	0.988
3557.07	0.988
3566.58	0.9889
3576.09	0.989
3585.6	0.989
3595.12	0.991
3604.63	0.991
3614.14	0.991
3623.65	0.991
3633.16	0.992
3642.67	0.992
3652.19	0.992
3661.7	0.992
3671.21	0.994
3680.72	0.995
3690.23	0.997
3699.75	0.997
3709.26	0.997
3718.77	0.997
3728.28	0.9993
3737.79	1.001
3747.3	1.004
3756.82	1.004
3766.33	1.001
3775.84	0.998
3785.35	0.997
3794.86	0.995
3804.37	0.995
