Infrared Spectrum: ETHANE, PENTACHLORO-
Formula: C2 H Cl5
CAS: 76-01-7
State: SOLUTION (10% IN CCl4 FOR 3800-1330, 10% IN CS2 FOR 1330-400 CM^-^1)
Class: COBLENTZ III
Instrument: DOW KBr FOREPRISM-GRATING
Instrument parameters: BLAZED AT 3.5, 12.0, 20.0 MICRON, CHANGED AT 5.0, 7.5, 14.9 MICRON
Sampling: TRANSMISSION
Path length: 0.011, 0.011 CM
Resolution: 4
Origin: DOW CHEMICAL COMPANY
1/CM	TRANSMITTANCE
444.656	0.861
453.244	0.873
461.832	0.885
470.419	0.897
479.007	0.905
487.595	0.914
496.183	0.925
504.771	0.927
513.358	0.936
521.946	0.942
530.534	0.945
539.122	0.941
547.709	0.942
556.297	0.941
564.885	0.927
573.473	0.8441
582.061	0.1521
590.648	0.8349
599.236	0.927
607.824	0.947
616.412	0.955
625	0.947
633.587	0.935
642.175	0.913
650.763	0.894
659.351	0.913
667.938	0.904
676.526	0.905
685.114	0.907
693.702	0.917
702.29	0.91
710.877	0.8541
719.465	0.585
728.053	0.057
736.641	0.3298
745.229	0.707
753.816	0.604
762.404	0.2832
770.992	0.005
779.58	0.033
788.168	0.638
796.755	0.71
805.343	0.5541
813.931	0.3451
822.519	0.02
831.106	0.6218
839.694	0.797
848.282	0.779
856.87	0.711
865.458	0.736
874.045	0.816
882.633	0.861
891.221	0.901
899.809	0.902
908.397	0.7271
916.984	0.9138
925.572	0.963
934.16	0.969
942.748	0.977
951.335	0.977
959.923	0.963
968.511	0.969
977.099	0.97
985.687	0.969
994.274	0.947
1002.86	0.95
1011.45	0.936
1020.04	0.7671
1028.63	0.8598
1037.21	0.958
1045.8	0.944
1054.39	0.939
1062.98	0.966
1071.56	0.967
1080.15	0.967
1088.74	0.975
1097.33	0.97
1105.92	0.975
1114.5	0.983
1123.09	0.982
1131.68	0.983
1140.27	0.983
1148.85	0.982
1157.44	0.98
1166.03	0.973
1174.62	0.97
1183.21	0.954
1191.79	0.957
1200.38	0.922
1208.97	0.642
1217.56	0.86
1226.14	0.944
1234.73	0.951
1243.32	0.925
1251.91	0.873
1260.5	0.8719
1269.08	0.944
1277.67	0.955
1286.26	0.957
1294.85	0.964
1303.43	0.964
1312.02	0.964
1320.61	0.967
1329.2	0.966
1337.79	0.976
1346.37	0.973
1354.96	0.966
1363.55	0.964
1372.14	0.97
1380.72	0.977
1389.31	0.979
1397.9	0.986
1406.49	0.98
1415.08	0.979
1423.66	0.97
1432.25	0.966
1440.84	0.97
1449.43	0.966
1458.01	0.955
1466.6	0.935
1475.19	0.942
1483.78	0.929
1492.37	0.9011
1500.95	0.866
1509.54	0.8171
1518.13	0.763
1526.72	0.71
1535.31	0.663
1543.89	0.541
1552.48	0.507
1561.07	0.563
1569.66	0.6319
1578.24	0.686
1586.83	0.694
1595.42	0.747
1604.01	0.827
1612.6	0.897
1621.18	0.926
1629.77	0.933
1638.36	0.927
1646.95	0.925
1655.53	0.945
1664.12	0.96
1672.71	0.964
1681.3	0.973
1689.89	0.979
1698.47	0.98
1707.06	0.98
1715.65	0.98
1724.24	0.983
1732.82	0.98
1741.41	0.979
1750	0.983
1758.59	0.983
1767.18	0.983
1775.76	0.983
1784.35	0.983
1792.94	0.979
1801.53	0.977
1810.11	0.977
1818.7	0.977
1827.29	0.977
1835.88	0.977
1844.47	0.977
1853.05	0.977
1861.64	0.979
1870.23	0.979
1878.82	0.98
1887.4	0.982
1895.99	0.983
1904.58	0.983
1913.17	0.985
1921.76	0.986
1930.34	0.986
1938.93	0.986
1947.52	0.988
1956.11	0.989
1964.69	0.989
1973.28	0.988
1981.87	0.989
1990.46	0.989
1999.05	0.991
2007.63	0.992
2016.22	0.992
2024.81	0.992
2033.4	0.994
2041.98	0.994
2050.57	0.9947
2059.16	0.9948
2067.75	0.995
2076.34	0.997
2084.92	0.997
2093.51	0.997
2102.1	0.998
2110.69	0.998
2119.27	0.998
2127.86	1
2136.45	1
2145.04	1
2153.63	1
2162.21	1
2170.8	0.9997
2179.39	0.998
2187.98	0.997
2196.56	0.997
2205.15	0.9964
2213.74	0.995
2222.33	0.9933
2230.92	0.9911
2239.5	0.989
2248.09	0.988
2256.68	0.986
2265.27	0.983
2273.85	0.98
2282.44	0.979
2291.03	0.9764
2299.62	0.975
2308.21	0.976
2316.79	0.977
2325.38	0.9798
2333.97	0.982
2342.56	0.9846
2351.14	0.988
2359.73	0.991
2368.32	0.9944
2376.91	0.997
2385.5	0.9945
2394.08	0.986
2402.67	0.9743
2411.26	0.9804
2419.85	0.9902
2428.43	0.991
2437.02	0.992
2445.61	0.991
2454.2	0.9865
2462.79	0.9883
2471.37	0.991
2479.96	0.991
2488.55	0.986
2497.14	0.983
2505.73	0.9859
2514.31	0.992
2522.9	0.995
2531.49	0.9929
2540.08	0.992
2548.66	0.992
2557.25	0.9941
2565.84	0.995
2574.43	0.997
2583.02	0.997
2591.6	0.997
2600.19	0.997
2608.78	0.995
2617.37	0.995
2625.95	0.997
2634.54	0.997
2643.13	0.9975
2651.72	0.998
2660.31	0.997
2668.89	0.994
2677.48	0.9962
2686.07	0.997
2694.66	0.997
2703.24	0.997
2711.83	0.995
2720.42	0.995
2729.01	0.995
2737.6	0.995
2746.18	0.994
2754.77	0.994
2763.36	0.994
2771.95	0.994
2780.53	0.995
2789.12	0.995
2797.71	0.995
2806.3	0.995
2814.89	0.995
2823.47	0.994
2832.06	0.992
2840.65	0.992
2849.24	0.992
2857.82	0.992
2866.41	0.994
2875	0.994
2883.59	0.9932
2892.18	0.992
2900.76	0.992
2909.35	0.992
2917.94	0.992
2926.53	0.994
2935.11	0.994
2943.7	0.994
2952.29	0.991
2960.88	0.989
2969.47	0.9778
2978.05	0.9543
2986.64	0.7785
2995.23	0.8113
3003.82	0.9133
3012.4	0.9586
3020.99	0.9756
3029.58	0.9839
3038.17	0.988
3046.76	0.9901
3055.34	0.992
3063.93	0.994
3072.52	0.994
3081.11	0.9947
3089.69	0.997
3098.28	0.998
3106.87	1
3115.46	1
3124.05	1
3132.63	1
3141.22	0.997
3149.81	0.995
3158.4	0.994
3166.98	0.992
3175.57	0.991
3184.16	0.988
3192.75	0.985
3201.34	0.9829
3209.92	0.9807
3218.51	0.977
3227.1	0.976
3235.69	0.976
3244.27	0.9704
3252.86	0.969
3261.45	0.967
3270.04	0.966
3278.63	0.963
3287.21	0.9591
3295.8	0.957
3304.39	0.9545
3312.98	0.9519
3321.56	0.95
3330.15	0.9497
3338.74	0.9443
3347.33	0.9436
3355.92	0.9366
3364.5	0.935
3373.09	0.9304
3381.68	0.929
3390.27	0.9194
3398.85	0.914
3407.44	0.916
3416.03	0.9195
3424.62	0.923
3433.21	0.9255
3441.79	0.9322
3450.38	0.942
3458.97	0.945
3467.56	0.9463
3476.15	0.9524
3484.73	0.957
3493.32	0.961
3501.91	0.963
3510.5	0.966
3519.08	0.9699
3527.67	0.975
3536.26	0.976
3544.85	0.979
3553.44	0.979
3562.02	0.98
3570.61	0.982
3579.2	0.986
3587.79	0.989
3596.37	0.9917
3604.96	0.994
3613.55	0.995
3622.14	0.995
3630.73	0.995
3639.31	0.997
3647.9	0.998
3656.49	1
3665.08	1.001
3673.66	1.001
3682.25	0.998
3690.84	0.997
3699.43	1
3708.02	1.001
3716.6	1.002
3725.19	1.002
3733.78	1.004
3742.37	1.004
3750.95	1.004
3759.54	1.004
3768.13	1.004
3776.72	1.002
3785.31	1.0006
3793.89	0.998
