Infrared Spectrum: Hexafluoroethane
Formula: C2 F6
CAS: 76-16-4
State: gas
Melting point: -94 C
Boiling point: -79 C
Class: IUPAC A
Instrument: IFS66V (Bruker)
Instrument parameters: KBr Beam Splitter; MCT Detector; Multipass cell
Sampling: 1 L/min Flow
Resolution: 1.9290
Temperature: 23 C
Pressure: 101.3 Pa
Origin: NIST, Analytical Chemistry Division, 301-975-3108
cm-1	(micromol/mol)-1m-1 (base 10)
575.653	2.39808e-06
584.331	-2.12464e-06
593.009	-1.72515e-06
601.688	-2.05868e-07
610.366	-4.72908e-07
619.044	6.1299e-07
627.722	-1.21415e-06
636.4	-4.48898e-08
645.078	-3.08547e-06
653.757	1.49539e-06
662.435	-3.81249e-06
671.113	2.82631e-06
679.791	-3.33158e-06
688.469	3.34766e-06
697.148	1.03433e-05
705.826	0.000242985
714.504	0.000657476
723.182	0.000225425
731.86	2.30157e-05
740.539	-3.73287e-06
749.217	2.63316e-06
757.895	-4.67205e-06
766.573	1.58245e-06
775.251	-2.72997e-06
783.929	2.02906e-06
792.608	-2.57802e-06
801.286	-3.75721e-07
809.964	-2.4606e-06
818.642	2.48604e-07
827.32	-1.75187e-06
835.999	6.14925e-07
844.677	-2.98514e-06
853.355	-2.31885e-07
862.033	-3.2477e-06
870.711	3.12657e-07
879.389	-2.5906e-06
888.068	2.21338e-06
896.746	-3.68781e-07
905.424	2.62122e-06
914.102	-1.18559e-06
922.78	1.03749e-08
931.459	-2.4433e-06
940.137	3.60356e-07
948.815	-2.26403e-06
957.493	7.52578e-08
966.171	-2.85761e-06
974.85	-3.26379e-07
983.528	-2.43661e-06
992.206	7.61105e-07
1000.88	-1.02752e-06
1009.56	2.29919e-06
1018.24	9.99494e-07
1026.92	6.50697e-06
1035.6	3.61214e-07
1044.28	1.41373e-06
1052.95	-2.49705e-06
1061.63	5.59745e-06
1070.31	-1.69356e-06
1078.99	3.55429e-06
1087.67	6.44734e-06
1096.34	0.000104556
1105.02	0.00112307
1113.7	0.00229425
1122.38	0.00250116
1131.06	0.00015588
1139.74	0.000137031
1148.41	9.68368e-05
1157.09	1.01489e-05
1165.77	-2.20323e-06
1174.45	6.88689e-06
1183.13	4.15865e-06
1191.8	2.48071e-05
1200.48	6.68092e-05
1209.16	6.31084e-05
1217.84	1.93854e-05
1226.52	6.38013e-05
1235.2	0.000797564
1243.87	0.00693224
1252.55	0.0113642
1261.23	0.0014793
1269.91	6.55927e-05
1278.59	1.04325e-05
1287.26	1.19171e-05
1295.94	1.32279e-05
1304.62	3.77475e-05
1313.3	7.52119e-05
1321.98	0.000125091
1330.66	0.000134114
1339.33	9.13427e-05
1348.01	4.00159e-05
1356.69	1.03845e-05
1365.37	3.04436e-07
1374.05	1.49584e-07
1382.72	-1.50387e-06
1391.4	-4.24846e-07
1400.08	-1.79466e-06
1408.76	-9.33054e-07
1417.44	-1.44282e-06
1426.12	-1.26103e-06
1434.79	2.83231e-06
1443.47	6.27826e-06
1452.15	7.8414e-06
1460.83	6.32513e-06
1469.51	3.4992e-06
1478.18	4.952e-07
1486.86	-1.04214e-06
1495.54	-9.17542e-07
1504.22	-1.50866e-06
1512.9	-7.73939e-07
1521.58	-2.62679e-06
1530.25	-9.69824e-07
1538.93	-2.96565e-06
1547.61	-1.30068e-06
1556.29	-1.46873e-06
1564.97	-1.37635e-06
1573.64	-1.49414e-06
1582.32	-1.34661e-06
1591	1.525e-06
1599.68	7.61156e-06
1608.36	3.55461e-06
1617.04	6.02131e-06
1625.71	1.24113e-05
1634.39	1.47124e-05
1643.07	7.23732e-06
1651.75	-1.24251e-07
1660.43	-1.4027e-06
1669.1	-2.22287e-06
1677.78	-1.37978e-06
1686.46	-3.97504e-07
1695.14	-1.39685e-06
1703.82	2.60972e-07
1712.5	1.89442e-06
1721.17	6.18839e-06
1729.85	1.00132e-05
1738.53	8.64075e-06
1747.21	3.639e-06
1755.89	5.63371e-07
1764.56	-1.08078e-06
1773.24	-1.25054e-06
1781.92	-1.49052e-06
1790.6	-1.8263e-06
1799.28	-2.47096e-06
1807.96	-1.24442e-06
1816.63	-2.01427e-06
1825.31	-1.8091e-06
1833.99	-1.19894e-06
1842.67	-5.72349e-07
1851.35	1.76111e-06
1860.02	6.66472e-06
1868.7	9.69054e-06
1877.38	5.33131e-06
1886.06	-6.29622e-07
1894.74	-1.75478e-06
1903.42	-1.97255e-06
1912.09	-6.8154e-07
1920.77	7.28758e-07
1929.45	2.42025e-06
1938.13	3.30113e-06
1946.81	3.02051e-06
1955.48	2.40726e-06
1964.16	9.10994e-07
1972.84	-1.23084e-06
1981.52	-1.86247e-06
1990.2	-1.85604e-06
1998.88	-1.55495e-06
2007.55	-1.90202e-06
2016.23	-1.54958e-06
2024.91	-2.06324e-06
2033.59	-1.3462e-06
2042.27	3.11448e-06
2050.94	2.22624e-05
2059.62	1.39271e-05
2068.3	-1.01359e-06
2076.98	-1.94774e-06
2085.66	-1.86369e-06
2094.34	-2.09291e-06
2103.01	-1.19433e-06
2111.69	-1.30223e-06
2120.37	-1.25793e-06
2129.05	-1.51765e-06
2137.73	-6.6856e-07
2146.4	-1.53548e-06
2155.08	-1.47479e-06
2163.76	-2.08477e-06
2172.44	-1.23144e-06
2181.12	-2.09021e-06
2189.8	-1.96684e-06
2198.47	-3.17689e-06
2207.15	-5.14128e-06
2215.83	-7.53637e-06
2224.51	-7.0504e-06
2233.19	-7.62873e-06
2241.86	-8.4698e-06
2250.54	-7.86829e-06
2259.22	-3.32973e-06
2267.9	-2.69017e-06
2276.58	-3.02824e-06
2285.26	-2.85363e-06
2293.93	-3.00365e-06
2302.61	-2.38853e-06
2311.29	-3.09609e-06
2319.97	-1.63386e-06
2328.65	-3.18574e-06
2337.32	3.06488e-06
2346	1.42775e-05
2354.68	1.25268e-05
2363.36	-4.89568e-07
2372.04	-2.75448e-06
2380.72	-1.05499e-06
2389.39	-1.9849e-06
2398.07	-1.93201e-06
2406.75	-2.29322e-06
2415.43	-1.88353e-06
2424.11	-1.62338e-06
2432.78	-7.6918e-07
2441.46	-5.74546e-07
2450.14	2.53785e-06
2458.82	6.09335e-06
2467.5	7.0952e-06
2476.18	2.62622e-06
2484.85	-2.15941e-06
2493.53	-4.67113e-06
2502.21	-7.97165e-06
2510.89	-1.01521e-05
2519.57	-5.69861e-06
2528.24	-9.03093e-07
2536.92	1.65343e-07
2545.6	-1.51639e-06
2554.28	-1.29938e-06
2562.96	-9.99013e-07
2571.64	-7.01955e-07
2580.31	-1.73368e-06
2588.99	-1.44384e-06
2597.67	-1.83479e-06
2606.35	-2.31375e-06
2615.03	-2.87795e-06
2623.7	-2.38287e-06
2632.38	-2.65241e-06
2641.06	-5.93593e-07
2649.74	2.10233e-06
2658.42	9.56603e-06
2667.1	1.17195e-05
2675.77	4.38564e-06
2684.45	-1.61702e-06
2693.13	-2.12187e-06
2701.81	-2.71712e-06
2710.49	-1.96348e-06
2719.16	-2.2913e-06
2727.84	-1.77822e-06
2736.52	-1.64661e-06
2745.2	-2.18702e-06
2753.88	-2.45013e-06
2762.56	-2.29951e-06
2771.23	-2.22264e-06
2779.91	-2.26287e-06
2788.59	-2.33442e-06
2797.27	-2.48127e-06
2805.95	-2.12768e-06
2814.62	-2.68655e-06
2823.3	-2.30185e-06
2831.98	-2.67271e-06
2840.66	-3.02031e-06
2849.34	-2.32135e-06
2858.02	-1.71775e-06
2866.69	-2.71853e-06
2875.37	-2.65831e-06
2884.05	-2.29394e-06
2892.73	-2.258e-06
2901.41	-2.19516e-06
2910.08	-2.7181e-06
2918.76	-2.5942e-06
2927.44	-3.10261e-06
2936.12	-1.97789e-06
2944.8	-3.01788e-06
2953.48	-2.33146e-06
2962.15	-2.06329e-06
2970.83	-2.52522e-06
2979.51	-2.73384e-06
2988.19	-3.04101e-06
2996.87	-2.66024e-06
3005.54	-2.30489e-06
3014.22	-2.18955e-06
3022.9	-2.30433e-06
3031.58	-2.60782e-06
3040.26	-3.24611e-06
3048.94	-2.91e-06
3057.61	-2.30012e-06
3066.29	-2.76198e-06
3074.97	-2.23771e-06
3083.65	-2.40614e-06
3092.33	-2.29223e-06
3101	-2.04031e-06
3109.68	-2.15077e-06
3118.36	-1.87039e-06
3127.04	-2.09738e-06
3135.72	-1.57529e-06
3144.4	-1.64944e-06
3153.07	-2.46247e-06
3161.75	-1.98342e-06
3170.43	-2.36911e-06
3179.11	-2.92753e-06
3187.79	-3.12094e-06
3196.47	-2.22067e-06
3205.14	-2.78049e-06
3213.82	-2.51513e-06
3222.5	-2.42699e-06
3231.18	-1.86043e-06
3239.86	-2.34516e-06
3248.53	-2.0208e-06
3257.21	-2.95637e-06
3265.89	-2.26882e-06
3274.57	-2.13145e-06
3283.25	-3.03885e-06
3291.93	-2.00981e-06
3300.6	-2.56121e-06
3309.28	-2.63562e-06
3317.96	-2.66129e-06
3326.64	-2.54381e-06
3335.32	-2.54442e-06
3343.99	-1.97021e-06
3352.67	-4.19329e-06
3361.35	-2.08241e-06
3370.03	-3.38254e-06
3378.71	-3.23825e-06
3387.39	-3.27277e-06
3396.06	-2.94834e-06
3404.74	-2.88137e-06
3413.42	-3.12846e-06
3422.1	-2.11045e-06
3430.78	-2.9519e-06
3439.45	-3.01047e-06
3448.13	-2.966e-06
3456.81	-3.30516e-06
3465.49	-3.47415e-06
3474.17	-2.34395e-06
3482.85	-3.50273e-06
3491.52	-2.62005e-06
3500.2	-3.21727e-06
3508.88	-2.96741e-06
3517.56	-2.3571e-06
3526.24	-2.76799e-06
3534.91	-2.82668e-06
3543.59	-2.85336e-06
3552.27	-2.96405e-06
3560.95	-3.04948e-06
3569.63	-3.1226e-06
3578.31	-3.21888e-06
3586.98	-3.63893e-06
3595.66	-2.82416e-06
3604.34	-3.68769e-06
3613.02	-2.4243e-06
3621.7	-3.0762e-06
3630.37	-3.0026e-06
3639.05	-3.62749e-06
3647.73	-2.45983e-06
3656.41	-3.40875e-06
3665.09	-2.63506e-06
3673.77	-2.37803e-06
3682.44	-2.24958e-06
3691.12	-3.80237e-06
3699.8	-2.80535e-06
3708.48	-3.4272e-06
3717.16	-2.9455e-06
3725.83	-4.29195e-06
3734.51	-4.2375e-06
3743.19	-4.88534e-06
3751.87	-5.45034e-06
3760.55	-4.15956e-06
3769.23	-3.99904e-06
3777.9	-4.00953e-06
3786.58	-3.63157e-06
3795.26	-3.13535e-06
3803.94	-3.12759e-06
3812.62	-1.98796e-06
3821.29	-3.53735e-06
3829.97	-2.40623e-06
3838.65	-3.6625e-06
3847.33	-3.19837e-06
3856.01	-3.25155e-06
3864.69	-3.4812e-06
3873.36	-2.48656e-06
3882.04	-2.88347e-06
3890.72	-4.09339e-06
3899.4	-3.25199e-06
3908.08	-2.65655e-06
3916.75	-3.36034e-06
3925.43	-2.65535e-06
3934.11	-2.2593e-06
3942.79	-3.7818e-06
3951.47	-2.90947e-06
3960.15	-3.05345e-06
3968.82	-3.38516e-06
