Infrared Spectrum: Ethane, 1,1,2-trichloro-1,2,2-trifluoro-
Formula: C2 Cl3 F3
CAS: 76-13-1
State: GAS (100 mmHg, N2 ADDED, TOTAL PRESSURE 600 mmHg)
Class: COBLENTZ
Instrument: DOW KBr FOREPRISM-GRATING
Instrument parameters: GRATING CHANGED AT 5.0, 7.5, 15.0 MICRON
Sampling: TRANSMISSION
Path length: 5 CM
Resolution: 2
Origin: DOW CHEMICAL COMPANY
1/CM	TRANSMITTANCE
397	0.8942
406	0.8934
415	0.8839
424	0.8683
433	0.844
442	0.8199
451	0.798
460	0.7847
469	0.8276
478	0.8765
487	0.8827
496	0.8572
505	0.7994
514	0.8143
523	0.8178
532	0.613
541	0.6736
550	0.8733
559	0.8769
568	0.8756
577	0.8738
586	0.8721
595	0.865
604	0.8585
613	0.8502
622	0.7256
631	0.5001
640	0.6048
649	0.4455
658	0.4004
667	0.7902
676	0.8517
685	0.8741
694	0.8792
703	0.8735
712	0.8568
721	0.8339
730	0.806
739	0.7891
748	0.805
757	0.8156
766	0.8051
775	0.7231
784	0.4859
793	0.3496
802	0.0243
811	0.0055
820	0.0053
829	0.0142
838	0.3107
847	0.3974
856	0.3855
865	0.2646
874	0.04
883	0.0069
892	0.0052
901	0.0049
910	0.0057
919	0.009
928	0.0252
937	0.1368
946	0.5843
955	0.6844
964	0.6472
973	0.572
982	0.5638
991	0.6776
1000	0.7005
1009	0.6077
1018	0.5364
1027	0.1485
1036	0.0059
1045	0.0057
1054	0.0066
1063	0.0446
1072	0.403
1081	0.5204
1090	0.4099
1099	0.1763
1108	0.0073
1117	0.0068
1126	0.0121
1135	0.4152
1144	0.4562
1153	0.308
1162	0.0376
1171	0.0069
1180	0.0093
1189	0.0122
1198	0.0164
1207	0.0072
1216	0.0106
1225	0.0374
1234	0.5089
1243	0.5502
1252	0.5705
1261	0.6437
1270	0.7023
1279	0.7295
1288	0.7461
1297	0.755
1306	0.7567
1315	0.7607
1324	0.7599
1333	0.7296
1342	0.6781
1351	0.6746
1360	0.7148
1369	0.7144
1378	0.6793
1387	0.7002
1396	0.7461
1405	0.7492
1414	0.7356
1423	0.7651
1432	0.7929
1441	0.8008
1450	0.7928
1459	0.7924
1468	0.7952
1477	0.7965
1486	0.7968
1495	0.7969
1504	0.7987
1513	0.8053
1522	0.8066
1531	0.8024
1540	0.8033
1549	0.8116
1558	0.8106
1567	0.8063
1576	0.8096
1585	0.8174
1594	0.8248
1603	0.8271
1612	0.8235
1621	0.8179
1630	0.8148
1639	0.8013
1648	0.8036
1657	0.8146
1666	0.82
1675	0.8193
1684	0.8205
1693	0.8146
1702	0.7995
1711	0.8026
1720	0.8036
1729	0.8013
1738	0.8012
1747	0.8017
1756	0.8001
1765	0.7983
1774	0.7957
1783	0.7773
1792	0.7199
1801	0.6889
1810	0.7382
1819	0.7908
1828	0.8052
1837	0.8129
1846	0.8118
1855	0.8091
1864	0.8048
1873	0.818
1882	0.8326
1891	0.8348
1900	0.8336
1909	0.8322
1918	0.8304
1927	0.83
1936	0.8312
1945	0.8328
1954	0.8339
1963	0.8352
1972	0.8375
1981	0.8382
1990	0.8386
1999	0.839
2008	0.8358
2017	0.8307
2026	0.8301
2035	0.8332
2044	0.8391
2053	0.8407
2062	0.8398
2071	0.8375
2080	0.8349
2089	0.8328
2098	0.833
2107	0.8292
2116	0.8222
2125	0.8186
2134	0.8212
2143	0.8266
2152	0.8269
2161	0.815
2170	0.8001
2179	0.8107
2188	0.8095
2197	0.8062
2206	0.806
2215	0.7733
2224	0.7466
2233	0.7524
2242	0.7926
2251	0.803
2260	0.8014
2269	0.8107
2278	0.8292
2287	0.829
2296	0.8207
2305	0.8217
2314	0.8082
2323	0.7837
2332	0.7876
2341	0.8103
2350	0.8119
2359	0.8033
2368	0.7963
2377	0.7894
2386	0.7827
2395	0.798
2404	0.825
2413	0.8383
2422	0.8447
2431	0.8478
2440	0.8506
2449	0.8526
2458	0.8543
2467	0.855
2476	0.8547
2485	0.8546
2494	0.8547
2503	0.8549
2512	0.8553
2521	0.8556
2530	0.8564
2539	0.8572
2548	0.858
2557	0.8587
2566	0.8593
2575	0.8599
2584	0.8606
2593	0.8612
2602	0.8615
2611	0.8621
2620	0.8634
2629	0.8641
2638	0.864
2647	0.8629
2656	0.8617
2665	0.8603
2674	0.8626
2683	0.8646
2692	0.8662
2701	0.8663
2710	0.8662
2719	0.8661
2728	0.8658
2737	0.8653
2746	0.865
2755	0.8647
2764	0.8645
2773	0.8647
2782	0.8645
2791	0.8643
2800	0.864
2809	0.8638
2818	0.8635
2827	0.8634
2836	0.8664
2845	0.8704
2854	0.8628
2863	0.861
2872	0.8606
2881	0.8598
2890	0.8601
2899	0.8673
2908	0.8738
2917	0.8654
2926	0.8598
2935	0.8572
2944	0.8553
2953	0.8549
2962	0.8551
2971	0.8527
2980	0.8484
2989	0.8461
2998	0.848
3007	0.8509
3016	0.856
3025	0.8616
3034	0.8675
3043	0.872
3052	0.8736
3061	0.8741
3070	0.8748
3079	0.8754
3088	0.8752
3097	0.8747
3106	0.8738
3115	0.8725
3124	0.8745
3133	0.8783
3142	0.8799
3151	0.8798
3160	0.8793
3169	0.8787
3178	0.8782
3187	0.8779
3196	0.8782
3205	0.8784
3214	0.8787
3223	0.879
3232	0.8793
3241	0.8796
3250	0.8801
3259	0.8807
3268	0.8814
3277	0.8819
3286	0.8826
3295	0.8833
3304	0.884
3313	0.8847
3322	0.8852
3331	0.8851
3340	0.8844
3349	0.8829
3358	0.8819
3367	0.8832
3376	0.886
3385	0.887
3394	0.8874
3403	0.8872
3412	0.887
3421	0.8867
3430	0.886
3439	0.8852
3448	0.8844
3457	0.8836
3466	0.8809
3475	0.8823
3484	0.8817
3493	0.8812
3502	0.8807
3511	0.8801
3520	0.8798
3529	0.8795
3538	0.8793
3547	0.8789
3556	0.8785
3565	0.8781
3574	0.8778
3583	0.8779
3592	0.8786
3601	0.8793
3610	0.8802
3619	0.8812
3628	0.8823
3637	0.874
3646	0.8746
3655	0.8765
3664	0.8749
3673	0.8769
3682	0.877
3691	0.8764
3700	0.8763
3709	0.876
3718	0.8754
3727	0.8741
3736	0.8733
3745	0.8738
3754	0.8768
3763	0.8803
3772	0.8824
3781	0.8831
3790	0.8839
