Infrared Spectrum: FREON 114
Formula: C2 Cl2 F4
CAS: 76-14-2
State: GAS (6.5 mmHg DILUTED TO A TOTAL PRESSURE OF 600 mmHg WITH N2)
Class: COBLENTZ
Instrument: PERKIN-ELMER 180
Instrument parameters: I0 MODE RESOLUTION: 2 CM^-^1
Sampling: TRANSMISSION
Path length: 5 CM CELL
Resolution: 4
Origin: DOW CHEMICAL COMPANY
1/CM	TRANSMITTANCE
206.577	0
217.04	0
227.504	0
237.967	0.002
248.431	0.008
258.894	0.009
269.357	0.01
279.821	0.008
290.284	0.012
300.747	0.026
311.211	0.045
321.674	0.069
332.138	0.116
342.601	0.181
353.064	0.257
363.528	0.344
373.991	0.434
384.455	0.519
394.918	0.592
405.381	0.675
415.845	0.748
426.308	0.799
436.771	0.843
447.235	0.885
457.698	0.915
468.162	0.936
478.625	0.949
489.088	0.961
499.552	0.963
510.015	0.969
520.479	0.979
530.942	0.983
541.405	0.987
551.869	0.984
562.332	0.99
572.795	0.99
583.259	0.981
593.722	0.957
604.186	0.894
614.649	0.862
625.112	0.929
635.576	0.984
646.039	0.986
656.503	0.977
666.966	0.949
677.429	0.934
687.893	0.973
698.356	0.989
708.819	0.987
719.283	0.98
729.746	0.95
740.21	0.956
750.673	0.985
761.136	0.984
771.6	0.987
782.063	0.988
792.526	0.983
802.99	0.983
813.453	0.97
823.917	0.9
834.38	0.61
844.843	0.145
855.307	0.225
865.77	0.802
876.234	0.693
886.697	0.648
897.16	0.745
907.624	0.7349
918.087	0.278
928.55	0.269
939.014	0.773
949.477	0.799
959.941	0.897
970.404	0.948
980.867	0.957
991.331	0.954
1001.79	0.948
1012.26	0.944
1022.72	0.924
1033.18	0.752
1043.65	0.2539
1054.11	0.135
1064.57	0.4561
1075.04	0.923
1085.5	0.905
1095.96	0.831
1106.43	0.678
1116.89	0.518
1127.35	0.252
1137.82	0.119
1148.28	0.2581
1158.74	0.696
1169.21	0.4969
1179.67	0.093
1190.14	0.06
1200.6	0.197
1211.06	0.771
1221.53	0.73
1231.99	0.642
1242.45	0.768
1252.92	0.766
1263.38	0.605
1273.84	0.588
1284.31	0.816
1294.77	0.85
1305.23	0.929
1315.7	0.953
1326.16	0.96
1336.62	0.96
1347.09	0.955
1357.55	0.952
1368.01	0.95
1378.48	0.954
1388.94	0.959
1399.4	0.956
1409.87	0.954
1420.33	0.953
1430.79	0.952
1441.26	0.95
1451.72	0.955
1462.18	0.956
1472.65	0.955
1483.11	0.961
1493.57	0.96
1504.04	0.965
1514.5	0.967
1524.96	0.969
1535.43	0.968
1545.89	0.963
1556.35	0.97
1566.82	0.967
1577.28	0.968
1587.74	0.97
1598.21	0.962
1608.67	0.96
1619.13	0.964
1629.6	0.964
1640.06	0.965
1650.52	0.969
1660.99	0.965
1671.45	0.963
1681.91	0.966
1692.38	0.963
1702.84	0.964
1713.3	0.968
1723.77	0.963
1734.23	0.964
1744.69	0.966
1755.16	0.967
1765.62	0.968
1776.08	0.969
1786.55	0.966
1797.01	0.966
1807.47	0.966
1817.94	0.964
1828.4	0.963
1838.86	0.963
1849.33	0.961
1859.79	0.961
1870.26	0.964
1880.72	0.961
1891.18	0.963
1901.65	0.964
1912.11	0.963
1922.57	0.961
1933.04	0.962
1943.5	0.96
1953.96	0.961
1964.43	0.96
1974.89	0.959
1985.35	0.963
1995.82	0.961
2006.28	0.96
2016.74	0.959
2027.21	0.957
2037.67	0.956
2048.13	0.959
2058.6	0.958
2069.06	0.956
2079.52	0.9579
2089.99	0.9569
2100.45	0.955
2110.91	0.954
2121.38	0.954
2131.84	0.953
2142.3	0.953
2152.77	0.953
2163.23	0.9526
2173.69	0.95
2184.16	0.95
2194.62	0.949
2205.08	0.949
2215.55	0.9458
2226.01	0.941
2236.47	0.939
2246.94	0.939
2257.4	0.939
2267.86	0.939
2278.33	0.939
2288.79	0.9378
2299.25	0.936
2309.72	0.934
2320.18	0.9363
2330.64	0.94
2341.11	0.9397
2351.57	0.9327
2362.03	0.932
2372.5	0.9363
2382.96	0.939
2393.42	0.939
2403.89	0.943
2414.35	0.9397
2424.81	0.938
2435.28	0.939
2445.74	0.936
2456.2	0.937
2466.67	0.937
2477.13	0.9394
2487.59	0.9426
2498.06	0.9378
2508.52	0.9394
2518.98	0.945
2529.45	0.94
2539.91	0.939
2550.37	0.94
2560.84	0.94
2571.3	0.9395
2581.77	0.938
2592.23	0.9395
2602.69	0.94
2613.16	0.9385
2623.62	0.938
2634.08	0.938
2644.55	0.939
2655.01	0.939
2665.47	0.938
2675.94	0.938
2686.4	0.938
2696.86	0.9384
2707.33	0.938
2717.79	0.938
2728.25	0.9374
2738.72	0.937
2749.18	0.938
2759.64	0.938
2770.11	0.937
2780.57	0.935
2791.03	0.935
2801.5	0.9356
2811.96	0.9354
2822.42	0.933
2832.89	0.933
2843.35	0.93
2853.81	0.9243
2864.28	0.93
2874.74	0.93
2885.2	0.927
2895.67	0.925
2906.13	0.9183
2916.59	0.9133
2927.06	0.916
2937.52	0.9238
2947.98	0.927
2958.45	0.9288
2968.91	0.929
2979.37	0.929
2989.84	0.929
3000.3	0.93
3010.76	0.93
3021.23	0.93
3031.69	0.93
3042.15	0.929
3052.62	0.929
3063.08	0.928
3073.54	0.927
3084.01	0.925
3094.47	0.925
3104.93	0.925
3115.4	0.925
3125.86	0.924
3136.32	0.923
3146.79	0.922
3157.25	0.921
3167.71	0.921
3178.18	0.921
3188.64	0.92
3199.1	0.919
3209.57	0.918
3220.03	0.917
3230.49	0.917
3240.96	0.915
3251.42	0.914
3261.89	0.915
3272.35	0.914
3282.81	0.912
3293.28	0.913
3303.74	0.914
3314.2	0.912
3324.67	0.91
3335.13	0.912
3345.59	0.9129
3356.06	0.9121
3366.52	0.9119
3376.98	0.9091
3387.45	0.9121
3397.91	0.912
3408.37	0.911
3418.84	0.91
3429.3	0.909
3439.76	0.9102
3450.23	0.912
3460.69	0.912
3471.15	0.912
3481.62	0.913
3492.08	0.913
3502.54	0.912
3513.01	0.912
3523.47	0.913
3533.93	0.914
3544.4	0.914
3554.86	0.9143
3565.32	0.914
3575.79	0.915
3586.25	0.915
3596.71	0.913
3607.18	0.9127
3617.64	0.912
3628.1	0.911
3638.57	0.9113
3649.03	0.912
3659.49	0.912
3669.96	0.912
3680.42	0.912
3690.88	0.912
3701.35	0.911
3711.81	0.911
3722.27	0.911
3732.74	0.911
3743.2	0.911
3753.66	0.9096
3764.13	0.909
3774.59	0.9104
3785.05	0.912
3795.52	0.912
3805.98	0.9095
3816.44	0.9115
3826.91	0.913
3837.37	0.913
3847.83	0.912
3858.3	0.9115
3868.76	0.911
3879.22	0.912
3889.69	0.912
3900.15	0.912
3910.61	0.911
3921.08	0.91
3931.54	0.91
3942.01	0.91
3952.47	0.91
3962.93	0.909
3973.4	0.909
3983.86	0.909
3994.32	0.907
