Infrared Spectrum: ETHANE, 1,1,1,2-TETRACHLORO-2,2-DIFLUORO-
Formula: C2 Cl4 F2
CAS: 76-11-9
State: SOLUTION (2% IN CCl4 FOR 3800-1333 AND 2% IN CS2 FOR 1333-450 CM^-^1)
Class: COBLENTZ III
Instrument: DOW KBr FOREPRISM-GRATING
Instrument parameters: BLAZED AT 3.5, 12.0, 20.0 MICRON, CHANGED AT 5.0, 7.5, 14.9 MICRON
Sampling: TRANSMISSION
Path length: 0.011, 0.011 CM
Resolution: 4
Origin: DOW CHEMICAL COMPANY
1/CM	TRANSMITTANCE
449.592	0.929
458.292	0.934
466.993	0.949
475.693	0.957
484.394	0.971
493.094	0.979
501.794	0.987
510.495	0.991
519.195	0.994
527.895	0.995
536.596	0.998
545.296	1
553.997	1.001
562.697	1.002
571.397	1
580.098	0.998
588.798	0.998
597.499	0.993
606.199	0.991
614.899	0.98
623.6	0.957
632.3	0.926
641	0.944
649.701	0.927
658.401	0.925
667.102	0.952
675.802	0.955
684.502	0.955
693.203	0.955
701.903	0.959
710.604	0.956
719.304	0.956
728.004	0.957
736.705	0.953
745.405	0.911
754.105	0.87
762.806	0.892
771.506	0.727
780.207	0.201
788.907	0.835
797.607	0.923
806.308	0.938
815.008	0.934
823.709	0.918
832.409	0.855
841.109	0.628
849.81	0.219
858.51	0.355
867.21	0.749
875.911	0.764
884.611	0.828
893.312	0.914
902.012	0.948
910.712	0.953
919.413	0.957
928.113	0.96
936.814	0.955
945.514	0.957
954.214	0.957
962.915	0.96
971.615	0.961
980.315	0.961
989.016	0.957
997.716	0.949
1006.42	0.921
1015.12	0.895
1023.82	0.624
1032.52	0.357
1041.22	0.897
1049.92	0.93
1058.62	0.936
1067.32	0.927
1076.02	0.925
1084.72	0.931
1093.42	0.955
1102.12	0.952
1110.82	0.949
1119.52	0.96
1128.22	0.956
1136.92	0.934
1145.62	0.893
1154.32	0.74
1163.02	0.152
1171.72	0.208
1180.42	0.804
1189.12	0.918
1197.83	0.934
1206.53	0.946
1215.23	0.945
1223.93	0.949
1232.63	0.953
1241.33	0.955
1250.03	0.951
1258.73	0.936
1267.43	0.938
1276.13	0.942
1284.83	0.945
1293.53	0.946
1302.23	0.946
1310.93	0.946
1319.63	0.949
1328.33	0.949
1337.03	0.952
1345.73	0.957
1354.43	0.961
1363.13	0.975
1371.83	0.98
1380.53	0.983
1389.23	0.99
1397.93	0.97
1406.63	0.971
1415.33	0.97
1424.04	0.965
1432.74	0.967
1441.44	0.967
1450.14	0.963
1458.84	0.956
1467.54	0.946
1476.24	0.941
1484.94	0.923
1493.64	0.889
1502.34	0.862
1511.04	0.813
1519.74	0.751
1528.44	0.693
1537.14	0.643
1545.84	0.533
1554.54	0.477
1563.24	0.529
1571.94	0.619
1580.64	0.67
1589.34	0.696
1598.04	0.759
1606.74	0.851
1615.44	0.918
1624.14	0.942
1632.84	0.968
1641.54	0.987
1650.25	1
1658.95	0.986
1667.65	0.975
1676.35	0.97
1685.05	0.968
1693.75	0.967
1702.45	0.964
1711.15	0.963
1719.85	0.96
1728.55	0.96
1737.25	0.959
1745.95	0.957
1754.65	0.96
1763.35	0.96
1772.05	0.963
1780.75	0.96
1789.45	0.959
1798.15	0.959
1806.85	0.956
1815.55	0.956
1824.25	0.956
1832.95	0.956
1841.65	0.955
1850.35	0.955
1859.05	0.955
1867.75	0.955
1876.46	0.955
1885.16	0.96
1893.86	0.96
1902.56	0.96
1911.26	0.96
1919.96	0.96
1928.66	0.963
1937.36	0.96
1946.06	0.96
1954.76	0.963
1963.46	0.975
1972.16	0.96
1980.86	0.957
1989.56	0.959
1998.26	0.967
2006.96	0.982
2015.66	0.983
2024.36	0.983
2033.06	0.99
2041.76	0.987
2050.46	0.986
2059.16	0.986
2067.86	0.985
2076.56	0.9871
2085.26	0.989
2093.96	0.9869
2102.67	0.987
2111.37	0.986
2120.07	0.986
2128.77	0.985
2137.47	0.9829
2146.17	0.983
2154.87	0.983
2163.57	0.98
2172.27	0.9791
2180.97	0.978
2189.67	0.975
2198.37	0.9752
2207.07	0.979
2215.77	0.98
2224.47	0.978
2233.17	0.9776
2241.87	0.975
2250.57	0.972
2259.27	0.9678
2267.97	0.964
2276.67	0.959
2285.37	0.953
2294.07	0.949
2302.77	0.948
2311.47	0.9495
2320.17	0.9523
2328.88	0.955
2337.58	0.9563
2346.28	0.963
2354.98	0.964
2363.68	0.965
2372.38	0.9686
2381.08	0.968
2389.78	0.9703
2398.48	0.975
2407.18	0.975
2415.88	0.975
2424.58	0.976
2433.28	0.9753
2441.98	0.9754
2450.68	0.975
2459.38	0.975
2468.08	0.975
2476.78	0.975
2485.48	0.976
2494.18	0.978
2502.88	0.9769
2511.58	0.976
2520.28	0.975
2528.98	0.976
2537.68	0.976
2546.38	0.975
2555.09	0.975
2563.79	0.975
2572.49	0.9755
2581.19	0.974
2589.89	0.975
2598.59	0.975
2607.29	0.9745
2615.99	0.9755
2624.69	0.9771
2633.39	0.976
2642.09	0.976
2650.79	0.976
2659.49	0.976
2668.19	0.978
2676.89	0.978
2685.59	0.978
2694.29	0.9786
2702.99	0.9784
2711.69	0.978
2720.39	0.98
2729.09	0.9807
2737.79	0.9796
2746.49	0.98
2755.19	0.98
2763.89	0.979
2772.59	0.9813
2781.3	0.982
2790	0.982
2798.7	0.983
2807.4	0.983
2816.1	0.9857
2824.8	0.985
2833.5	0.985
2842.2	0.986
2850.9	0.987
2859.6	0.989
2868.3	0.989
2877	0.987
2885.7	0.989
2894.4	0.9885
2903.1	0.9908
2911.8	0.99
2920.5	0.989
2929.2	0.9938
2937.9	0.9914
2946.6	0.9908
2955.3	0.99
2964	0.9873
2972.7	0.986
2981.4	0.987
2990.1	0.989
2998.8	0.989
3007.51	0.9891
3016.21	0.991
3024.91	0.9928
3033.61	0.991
3042.31	0.991
3051.01	0.9967
3059.71	0.991
3068.41	0.998
3077.11	0.998
3085.81	0.9971
3094.51	0.997
3103.21	0.9999
3111.91	0.9981
3120.61	1.002
3129.31	1.002
3138.01	1.004
3146.71	1.005
3155.41	1.004
3164.11	1.004
3172.81	1.006
3181.51	1.008
3190.21	1.008
3198.91	1.01
3207.61	1.014
3216.31	1.014
3225.01	1.0139
3233.72	1.0131
3242.42	1.016
3251.12	1.016
3259.82	1.0169
3268.52	1.021
3277.22	1.02
3285.92	1.024
3294.62	1.0241
3303.32	1.0253
3312.02	1.0266
3320.72	1.024
3329.42	1.025
3338.12	1.024
3346.82	1.024
3355.52	1.024
3364.22	1.0242
3372.92	1.0254
3381.62	1.027
3390.32	1.031
3399.02	1.029
3407.72	1.031
3416.42	1.0278
3425.12	1.027
3433.82	1.025
3442.52	1.024
3451.22	1.021
3459.93	1.021
3468.63	1.0167
3477.33	1.014
3486.03	1.016
3494.73	1.013
3503.43	1.012
3512.13	1.0074
3520.83	1.008
3529.53	1.006
3538.23	1.0047
3546.93	1.005
3555.63	1.005
3564.33	1.004
3573.03	1.004
3581.73	1.0044
3590.43	1.005
3599.13	1.005
3607.83	1.004
3616.53	1.0054
3625.23	1
3633.93	0.9997
3642.63	1.0008
3651.33	1.0056
3660.03	1.001
3668.73	0.9991
3677.43	0.9989
3686.14	1.0029
3694.84	1.005
3703.54	0.998
3712.24	1.001
3720.94	0.998
3729.64	0.997
3738.34	0.997
3747.04	0.9936
3755.74	1.0031
3764.44	0.9975
3773.14	0.995
3781.84	1.0018
3790.54	1.001
