Infrared Spectrum: FREON 112
Formula: C2 Cl4 F2
CAS: 76-12-0
State: GAS
Class: COBLENTZ
Instrument: DIGILAB FTS-14
Sampling: TRANSMISSION
Resolution: 4
Origin: DOW CHEMICAL COMPANY
1/CM	TRANSMITTANCE
725.37	0.795
733.243	0.819
741.117	0.728
748.99	0.6331
756.864	0.539
764.737	0.515
772.611	0.51
780.484	0.413
788.358	0.327
796.231	0.505
804.105	0.74
811.978	0.765
819.852	0.747
827.725	0.6501
835.599	0.4741
843.472	0.355
851.346	0.4
859.219	0.504
867.093	0.595
874.966	0.546
882.84	0.422
890.713	0.363
898.587	0.385
906.46	0.461
914.334	0.568
922.207	0.625
930.081	0.601
937.954	0.62
945.828	0.714
953.701	0.741
961.575	0.759
969.448	0.769
977.322	0.773
985.195	0.771
993.069	0.771
1000.94	0.765
1008.82	0.737
1016.69	0.688
1024.56	0.561
1032.44	0.469
1040.31	0.568
1048.18	0.711
1056.06	0.748
1063.93	0.762
1071.8	0.754
1079.68	0.721
1087.55	0.657
1095.42	0.594
1103.3	0.618
1111.17	0.554
1119.04	0.459
1126.92	0.4629
1134.79	0.549
1142.67	0.502
1150.54	0.517
1158.41	0.65
1166.29	0.595
1174.16	0.461
1182.03	0.674
1189.91	0.748
1197.78	0.765
1205.65	0.767
1213.53	0.771
1221.4	0.774
1229.27	0.773
1237.15	0.773
1245.02	0.773
1252.89	0.773
1260.77	0.775
1268.64	0.778
1276.51	0.78
1284.39	0.778
1292.26	0.781
1300.14	0.781
1308.01	0.778
1315.88	0.778
1323.76	0.778
1331.63	0.778
1339.5	0.778
1347.38	0.78
1355.25	0.778
1363.12	0.777
1371	0.777
1378.87	0.775
1386.74	0.775
1394.62	0.771
1402.49	0.773
1410.36	0.771
1418.24	0.767
1426.11	0.771
1433.98	0.775
1441.86	0.778
1449.73	0.78
1457.61	0.78
1465.48	0.78
1473.35	0.78
1481.23	0.788
1489.1	0.781
1496.97	0.784
1504.85	0.78
1512.72	0.78
1520.59	0.774
1528.47	0.774
1536.34	0.774
1544.21	0.788
1552.09	0.778
1559.96	0.778
1567.83	0.78
1575.71	0.784
1583.58	0.781
1591.45	0.782
1599.33	0.786
1607.2	0.781
1615.08	0.781
1622.95	0.784
1630.82	0.781
1638.7	0.782
1646.57	0.784
1654.44	0.784
1662.32	0.782
1670.19	0.784
1678.06	0.781
1685.94	0.778
1693.81	0.774
1701.68	0.777
1709.56	0.781
1717.43	0.784
1725.3	0.782
1733.18	0.785
1741.05	0.778
1748.92	0.778
1756.8	0.78
1764.67	0.781
1772.55	0.78
1780.42	0.782
1788.29	0.784
1796.17	0.78
1804.04	0.78
1811.91	0.778
1819.79	0.778
1827.66	0.784
1835.53	0.788
1843.41	0.782
1851.28	0.786
1859.15	0.786
1867.03	0.785
1874.9	0.786
1882.77	0.784
1890.65	0.782
1898.52	0.78
1906.39	0.782
1914.27	0.78
1922.14	0.78
1930.02	0.78
1937.89	0.781
1945.76	0.785
1953.64	0.78
1961.51	0.782
1969.38	0.782
1977.26	0.781
1985.13	0.781
1993	0.782
2000.88	0.78
2008.75	0.78
2016.62	0.781
2024.5	0.781
2032.37	0.778
2040.24	0.78
2048.12	0.782
2055.99	0.786
2063.86	0.7855
2071.74	0.7839
2079.61	0.784
2087.49	0.784
2095.36	0.784
2103.23	0.782
2111.11	0.782
2118.98	0.78
2126.85	0.7774
2134.73	0.777
2142.6	0.775
2150.47	0.7697
2158.35	0.7566
2166.22	0.744
2174.09	0.747
2181.97	0.7544
2189.84	0.7718
2197.71	0.777
2205.59	0.775
2213.46	0.773
2221.33	0.7763
2229.21	0.774
2237.08	0.774
2244.96	0.7738
2252.83	0.7677
2260.7	0.769
2268.58	0.771
2276.45	0.778
2284.32	0.781
2292.2	0.7843
2300.07	0.7897
2307.94	0.7895
2315.82	0.7906
2323.69	0.7832
2331.56	0.7834
2339.44	0.788
2347.31	0.7843
2355.18	0.792
2363.06	0.7893
2370.93	0.788
2378.8	0.785
2386.68	0.7808
2394.55	0.7802
2402.43	0.782
2410.3	0.784
2418.17	0.781
2426.05	0.7848
2433.92	0.785
2441.79	0.784
2449.67	0.781
2457.54	0.7843
2465.41	0.785
2473.29	0.7824
2481.16	0.7803
2489.03	0.786
2496.91	0.788
2504.78	0.79
2512.65	0.7887
2520.53	0.785
2528.4	0.785
2536.27	0.788
2544.15	0.789
2552.02	0.795
2559.9	0.7873
2567.77	0.786
2575.64	0.788
2583.52	0.792
2591.39	0.781
2599.26	0.782
2607.14	0.7846
2615.01	0.781
2622.88	0.7854
2630.76	0.7853
2638.63	0.7782
2646.5	0.786
2654.38	0.784
2662.25	0.785
2670.12	0.781
2678	0.78
2685.87	0.781
2693.74	0.7841
2701.62	0.781
2709.49	0.7781
2717.37	0.781
2725.24	0.7879
2733.11	0.7908
2740.99	0.7851
2748.86	0.7846
2756.73	0.7879
2764.61	0.789
2772.48	0.789
2780.35	0.7925
2788.23	0.788
2796.1	0.793
2803.97	0.788
2811.85	0.7855
2819.72	0.784
2827.59	0.7845
2835.47	0.784
2843.34	0.7815
2851.21	0.782
2859.09	0.7866
2866.96	0.78
2874.84	0.7843
2882.71	0.7771
2890.58	0.786
2898.46	0.7768
2906.33	0.7695
2914.2	0.7812
2922.08	0.782
2929.95	0.782
2937.82	0.7831
2945.7	0.7799
2953.57	0.785
2961.44	0.7862
2969.32	0.7913
2977.19	0.7847
2985.06	0.7872
2992.94	0.786
3000.81	0.7872
3008.68	0.786
3016.56	0.7945
3024.43	0.7878
3032.31	0.7886
3040.18	0.7846
3048.05	0.7795
3055.93	0.7904
3063.8	0.7898
3071.67	0.7846
3079.55	0.7826
3087.42	0.7775
3095.29	0.7794
3103.17	0.7738
3111.04	0.7797
3118.91	0.7766
3126.79	0.774
3134.66	0.7772
3142.53	0.7769
3150.41	0.7742
3158.28	0.7915
3166.15	0.786
3174.03	0.7906
3181.9	0.7889
3189.78	0.7883
3197.65	0.7824
3205.52	0.7904
3213.4	0.7967
3221.27	0.78
3229.14	0.7888
3237.02	0.78
3244.89	0.785
3252.76	0.7875
3260.64	0.7919
3268.51	0.789
3276.38	0.8071
3284.26	0.7766
3292.13	0.7898
3300	0.782
3307.88	0.784
3315.75	0.775
3323.62	0.78
3331.5	0.776
3339.37	0.7791
3347.25	0.7766
3355.12	0.7922
3362.99	0.7882
3370.87	0.792
3378.74	0.7897
3386.61	0.7737
3394.49	0.8015
3402.36	0.787
3410.23	0.7945
3418.11	0.79
3425.98	0.7978
3433.85	0.7979
3441.73	0.8157
3449.6	0.8194
3457.47	0.8149
3465.35	0.83
3473.22	0.8104
3481.09	0.7982
3488.97	0.8097
3496.84	0.7966
3504.72	0.8008
3512.59	0.8018
3520.46	0.7995
3528.34	0.811
3536.21	0.7856
3544.08	0.8026
3551.96	0.7853
3559.83	0.767
3567.7	0.7811
3575.58	0.795
3583.45	0.807
3591.32	0.7965
3599.2	0.7991
3607.07	0.7914
3614.94	0.804
3622.82	0.8026
3630.69	0.8118
3638.56	0.801
3646.44	0.806
3654.31	0.813
3662.19	0.819
