Infrared Spectrum: 2-Bornanone
Formula: C10 H16 O
CAS: 76-22-2
State: SOLUTION (10% CCl4 FOR 3800-1350, 10% CS2 FOR 1350-420 CM^-^1)
Class: COBLENTZ II
Instrument: DOW KBr FOREPRISM-GRATING
Instrument parameters: BLAZED AT 3.5, 12.0, 20.0 MICRON AND CHANGED AT 5.0, 7.5, 14.9 MICRON
Sampling: TRANSMISSION
Path length: 0.011 CM, 0.011 CM
Resolution: 2
Origin: DOW CHEMICAL COMPANY
1/CM	TRANSMITTANCE
3800	0.8668
3791	0.8684
3782	0.8701
3773	0.8715
3764	0.8725
3755	0.8736
3746	0.8744
3737	0.8752
3728	0.8761
3719	0.877
3710	0.877
3701	0.8763
3692	0.8737
3683	0.8723
3674	0.8751
3665	0.8781
3656	0.8794
3647	0.8794
3638	0.8787
3629	0.8784
3620	0.8784
3611	0.8782
3602	0.878
3593	0.8771
3584	0.8765
3575	0.8758
3566	0.8755
3557	0.8751
3548	0.8749
3539	0.8746
3530	0.8742
3521	0.8736
3512	0.8728
3503	0.8723
3494	0.8675
3485	0.8406
3476	0.8011
3467	0.8017
3458	0.8362
3449	0.8654
3440	0.8777
3431	0.8845
3422	0.8862
3413	0.8875
3404	0.8868
3395	0.887
3386	0.8871
3377	0.8868
3368	0.8868
3359	0.887
3350	0.8873
3341	0.8878
3332	0.8888
3323	0.8897
3314	0.8903
3305	0.8908
3296	0.8909
3287	0.8909
3278	0.8903
3269	0.8895
3260	0.8886
3251	0.887
3242	0.885
3233	0.8818
3224	0.8794
3215	0.8778
3206	0.8761
3197	0.8744
3188	0.8732
3179	0.8718
3170	0.8704
3161	0.8687
3152	0.8659
3143	0.8632
3134	0.8614
3125	0.8624
3116	0.8638
3107	0.8646
3098	0.8645
3089	0.8641
3080	0.8631
3071	0.8618
3062	0.8591
3053	0.8561
3044	0.8523
3035	0.843
3026	0.8157
3017	0.7628
3008	0.5374
2999	0.426
2990	0.1936
2981	0.1212
2972	0.0207
2963	0.0164
2954	0.0513
2945	0.1096
2936	0.1167
2927	0.1604
2918	0.2468
2909	0.3209
2900	0.3266
2891	0.27
2882	0.2996
2873	0.3302
2864	0.6867
2855	0.7615
2846	0.7884
2837	0.805
2828	0.8039
2819	0.8041
2810	0.8461
2801	0.8601
2792	0.8657
2783	0.8646
2774	0.8614
2765	0.8664
2756	0.8716
2747	0.8741
2738	0.8533
2729	0.8433
2720	0.8705
2711	0.8768
2702	0.8775
2693	0.8788
2684	0.8805
2675	0.8824
2666	0.8843
2657	0.8857
2648	0.887
2639	0.8878
2630	0.8868
2621	0.8849
2612	0.882
2603	0.8807
2594	0.8818
2585	0.882
2576	0.8821
2567	0.8825
2558	0.8837
2549	0.8848
2540	0.8862
2531	0.8878
2522	0.8871
2513	0.8845
2504	0.8835
2495	0.8837
2486	0.884
2477	0.8842
2468	0.8843
2459	0.8843
2450	0.8844
2441	0.8842
2432	0.8841
2423	0.884
2414	0.8842
2405	0.8843
2396	0.8846
2387	0.8853
2378	0.886
2369	0.8868
2360	0.8875
2351	0.888
2342	0.8883
2333	0.8868
2324	0.8827
2315	0.883
2306	0.8842
2297	0.8853
2288	0.8853
2279	0.8851
2270	0.8845
2261	0.8838
2252	0.8832
2243	0.8825
2234	0.8825
2225	0.8823
2216	0.8821
2207	0.8823
2198	0.8828
2189	0.8834
2180	0.8841
2171	0.8827
2162	0.8806
2153	0.878
2144	0.8783
2135	0.8793
2126	0.8828
2117	0.8802
2108	0.8752
2099	0.8751
2090	0.8751
2081	0.8753
2072	0.8767
2063	0.8781
2054	0.8799
2045	0.8817
2036	0.8836
2027	0.886
2018	0.8875
2009	0.8889
2000	0.8898
1991	0.8795
1982	0.8804
1973	0.8825
1964	0.8848
1955	0.8868
1946	0.8888
1937	0.8886
1928	0.8883
1919	0.8877
1910	0.886
1901	0.8781
1892	0.8718
1883	0.878
1874	0.8764
1865	0.8744
1856	0.8757
1847	0.8806
1838	0.8833
1829	0.8839
1820	0.8816
1811	0.8718
1802	0.8387
1793	0.7751
1784	0.7445
1775	0.7422
1766	0.5497
1757	0.2384
1748	0.0109
1739	0.0048
1730	0.3586
1721	0.6106
1712	0.6808
1703	0.6854
1694	0.7619
1685	0.8087
1676	0.8438
1667	0.8636
1658	0.8718
1649	0.8733
1640	0.8728
1631	0.8634
1622	0.8594
1613	0.8625
1604	0.8691
1595	0.8759
1586	0.8841
1577	0.8887
1568	0.8899
1559	0.8912
1550	0.892
1541	0.8917
1532	0.8915
1523	0.8868
1514	0.8728
1505	0.8557
1496	0.8183
1487	0.6257
1478	0.5518
1469	0.5729
1460	0.4631
1451	0.3179
1442	0.5844
1433	0.7221
1424	0.3898
1415	0.563
1406	0.7572
1397	0.4638
1388	0.6094
1379	0.4289
1370	0.7618
1361	0.8112
1352	0.8388
1343	0.8386
1334	0.8005
1325	0.4205
1316	0.7747
1307	0.7961
1298	0.6612
1289	0.7715
1280	0.5179
1271	0.6519
1262	0.779
1253	0.7885
1244	0.7217
1235	0.8069
1226	0.8302
1217	0.7932
1208	0.843
1199	0.6538
1190	0.8094
1181	0.8521
1172	0.8305
1163	0.7633
1154	0.8337
1145	0.8597
1136	0.8585
1127	0.8343
1118	0.8636
1109	0.862
1100	0.8137
1091	0.584
1082	0.713
1073	0.811
1064	0.8125
1055	0.629
1046	0.2155
1037	0.6107
1028	0.6783
1019	0.5035
1010	0.7348
1001	0.8273
992	0.8562
983	0.8603
974	0.8766
965	0.8735
956	0.8456
947	0.7511
938	0.7533
929	0.7972
920	0.8457
911	0.8406
902	0.8871
893	0.8988
884	0.8963
875	0.8878
866	0.8659
857	0.7518
848	0.8827
839	0.894
830	0.8871
821	0.8784
812	0.8888
803	0.8908
794	0.8921
785	0.8915
776	0.8873
767	0.8749
758	0.7665
749	0.6669
740	0.8371
731	0.868
722	0.8757
713	0.87
704	0.8617
695	0.8708
686	0.8705
677	0.8632
668	0.864
659	0.8595
650	0.7472
641	0.8201
632	0.8609
623	0.8683
614	0.8468
605	0.8278
596	0.8642
587	0.8638
578	0.8234
569	0.8371
560	0.7585
551	0.7832
542	0.8325
533	0.8242
524	0.531
515	0.8343
506	0.8497
497	0.8559
488	0.8536
479	0.8061
470	0.8239
461	0.8446
452	0.8536
443	0.8578
434	0.8584
425	0.8561
416	0.8545
407	0.8548
398	0.8557
389	0.8581
