Infrared Spectrum: THIOPENTAL
Formula: C11 H18 N2 O2 S
CAS: 76-75-5
State: SOLID (1 mg / 200 mg KBr DISC)
Class: COBLENTZ III
Instrument: PERKIN-ELMER 21 (GRATING)
Instrument parameters: FILTER AT ABOUT 10 MICRONS
Sampling: TRANSMISSION
Resolution: 2
1/CM	TRANSMITTANCE
4000	0.8534
3991	0.8536
3982	0.8538
3973	0.8541
3964	0.8543
3955	0.8546
3946	0.8549
3937	0.8551
3928	0.8554
3919	0.8558
3910	0.8563
3901	0.8566
3892	0.8571
3883	0.8575
3874	0.8578
3865	0.8584
3856	0.8588
3847	0.8592
3838	0.8595
3829	0.8599
3820	0.8602
3811	0.8606
3802	0.861
3793	0.8614
3784	0.8617
3775	0.862
3766	0.8624
3757	0.8627
3748	0.8631
3739	0.8635
3730	0.8637
3721	0.8639
3712	0.8642
3703	0.8645
3694	0.8647
3685	0.8649
3676	0.8652
3667	0.8652
3658	0.8651
3649	0.865
3640	0.8649
3631	0.8645
3622	0.864
3613	0.8636
3604	0.863
3595	0.8625
3586	0.8615
3577	0.8601
3568	0.8586
3559	0.8568
3550	0.854
3541	0.8512
3532	0.8482
3523	0.842
3514	0.8337
3505	0.8236
3496	0.8153
3487	0.8068
3478	0.7986
3469	0.7904
3460	0.7841
3451	0.7787
3442	0.77
3433	0.7608
3424	0.7542
3415	0.749
3406	0.7441
3397	0.7396
3388	0.7374
3379	0.7368
3370	0.7381
3361	0.7396
3352	0.7406
3343	0.7412
3334	0.7408
3325	0.7361
3316	0.7174
3307	0.6881
3298	0.6588
3289	0.6293
3280	0.5997
3271	0.5136
3262	0.4481
3253	0.3823
3244	0.3161
3235	0.2821
3226	0.2758
3217	0.2762
3208	0.2872
3199	0.3072
3190	0.3273
3181	0.3475
3172	0.3679
3163	0.3818
3154	0.3824
3145	0.3784
3136	0.365
3127	0.3559
3118	0.3621
3109	0.3994
3100	0.4389
3091	0.4779
3082	0.5044
3073	0.5199
3064	0.532
3055	0.5432
3046	0.5518
3037	0.5549
3028	0.5574
3019	0.5614
3010	0.5693
3001	0.5819
2992	0.593
2983	0.5953
2974	0.5562
2965	0.5032
2956	0.4497
2947	0.3959
2938	0.3418
2929	0.3405
2920	0.3448
2911	0.3491
2902	0.3558
2893	0.3694
2884	0.4053
2875	0.4504
2866	0.5104
2857	0.5495
2848	0.5787
2839	0.5989
2830	0.6212
2821	0.6436
2812	0.6681
2803	0.7126
2794	0.7425
2785	0.7651
2776	0.7801
2767	0.7926
2758	0.805
2749	0.8136
2740	0.82
2731	0.8252
2722	0.8293
2713	0.8334
2704	0.8378
2695	0.8424
2686	0.8485
2677	0.8505
2668	0.8504
2659	0.8503
2650	0.8502
2641	0.8556
2632	0.8603
2623	0.861
2614	0.8614
2605	0.8611
2596	0.8525
2587	0.8439
2578	0.8375
2569	0.8343
2560	0.8324
2551	0.8318
2542	0.834
2533	0.8414
2524	0.847
2515	0.8525
2506	0.8575
2497	0.862
2488	0.8664
2479	0.8708
2470	0.8752
2461	0.877
2452	0.8761
2443	0.8752
2434	0.8737
2425	0.8724
2416	0.8727
2407	0.8741
2398	0.8763
2389	0.8785
2380	0.8808
2371	0.8821
2362	0.8834
2353	0.8845
2344	0.8857
2335	0.8861
2326	0.8865
2317	0.8868
2308	0.8873
2299	0.8875
2290	0.8878
2281	0.8882
2272	0.8885
2263	0.8886
2254	0.8887
2245	0.8855
2236	0.8835
2227	0.8821
2218	0.8827
2209	0.8845
2200	0.8878
2191	0.8885
2182	0.8875
2173	0.8843
2164	0.8803
2155	0.8782
2146	0.8778
2137	0.8803
2128	0.8838
2119	0.8866
2110	0.8862
2101	0.8845
2092	0.882
2083	0.88
2074	0.8791
2065	0.8797
2056	0.8811
2047	0.8828
2038	0.8841
2029	0.8847
2020	0.8852
2011	0.8857
2002	0.8862
1993	0.8866
1984	0.8871
1975	0.8871
1966	0.8868
1957	0.8859
1948	0.8842
1939	0.8823
1930	0.8815
1921	0.8813
1912	0.8813
1903	0.8808
1894	0.8799
1885	0.8768
1876	0.8711
1867	0.8671
1858	0.8646
1849	0.8635
1840	0.8631
1831	0.8621
1822	0.858
1813	0.8528
1804	0.8465
1795	0.8385
1786	0.8285
1777	0.8168
1768	0.803
1759	0.7531
1750	0.6348
1741	0.3639
1732	0.1753
1723	0.2446
1714	0.305
1705	0.4288
1696	0.3373
1687	0.1791
1678	0.044
1669	0.0445
1660	0.1544
1651	0.3134
1642	0.4758
1633	0.5626
1624	0.6298
1615	0.6804
1606	0.7218
1597	0.7338
1588	0.7253
1579	0.6875
1570	0.5925
1561	0.4114
1552	0.18
1543	0.1021
1534	0.1364
1525	0.2747
1516	0.4599
1507	0.565
1498	0.6661
1489	0.6971
1480	0.6917
1471	0.6132
1462	0.4657
1453	0.4323
1444	0.4833
1435	0.3584
1426	0.1417
1417	0.3926
1408	0.5026
1399	0.5108
1390	0.3521
1381	0.3429
1372	0.1616
1363	0.0917
1354	0.1296
1345	0.2514
1336	0.3343
1327	0.3457
1318	0.2876
1309	0.2218
1300	0.1041
1291	0.2846
1282	0.477
1273	0.5831
1264	0.624
1255	0.6882
1246	0.7104
1237	0.6632
1228	0.5627
1219	0.2855
1210	0.4332
1201	0.6424
1192	0.736
1183	0.7356
1174	0.3105
1165	0.2378
1156	0.4904
1147	0.4454
1138	0.4153
1129	0.6497
1120	0.7534
1111	0.7898
1102	0.7801
1093	0.7767
1084	0.7824
1075	0.7858
1066	0.7838
1057	0.8086
1048	0.8218
1039	0.8312
1030	0.8245
1021	0.718
1012	0.7017
1003	0.8254
994	0.8377
985	0.8528
976	0.8537
967	0.8535
958	0.8502
949	0.8283
940	0.8201
931	0.8301
922	0.8286
913	0.7986
904	0.8095
895	0.82
886	0.8038
877	0.7821
868	0.7274
859	0.6756
850	0.5501
841	0.4729
832	0.474
823	0.5696
814	0.6485
805	0.6658
796	0.6272
787	0.559
778	0.5715
769	0.5094
760	0.4812
751	0.5321
742	0.6333
733	0.7162
724	0.7298
715	0.7718
706	0.6896
697	0.6905
688	0.6828
679	0.7099
670	0.7782
661	0.8045
652	0.8238
