Infrared Spectrum: TRIPHENYL CARBINOL
Formula: C19 H16 O
CAS: 76-84-6
State: SOLUTION (SATURATED IN CCl4 FOR 3800-1350 CM^-^1, SATURATED IN CS2 FOR 1350-450 CM^-^1)
Class: COBLENTZ
Instrument: Not specified, most likely a prism, grating, or hybrid spectrometer.
Sampling: TRANSMISSION
Path length: 0.010 AND 0.010 CM
Resolution: 4
Origin: DOW CHEMICAL COMPANY
1/CM	TRANSMITTANCE
430.04	1.001
439.526	1.001
449.012	1
458.499	1.003
467.985	1.005
477.471	1.003
486.957	1.003
496.443	1.003
505.93	1.007
515.416	1.012
524.902	1.014
534.388	1.029
543.874	1.072
553.36	1.075
562.847	1.07
572.333	1.048
581.819	0.809
591.305	1.027
600.791	1.044
610.278	1.038
619.764	1
629.25	0.6409
638.736	0.5365
648.222	0.946
657.709	0.968
667.195	0.942
676.681	0.87
686.167	0.7721
695.653	0.0241
705.139	0.125
714.626	0.84
724.112	0.955
733.598	0.944
743.084	0.6851
752.57	0.311
762.057	0.053
771.543	0.5414
781.029	0.968
790.515	1.007
800.001	1.022
809.488	1.025
818.974	1.027
828.46	1.016
837.946	0.959
847.432	0.862
856.919	0.84
866.405	0.868
875.891	0.844
885.377	0.687
894.863	0.668
904.349	0.894
913.836	0.787
923.322	0.937
932.808	0.903
942.294	0.97
951.78	0.987
961.267	0.975
970.753	0.955
980.239	0.9
989.725	0.87
999.211	0.6879
1008.7	0.2773
1018.18	0.4747
1027.67	0.768
1037.16	0.683
1046.64	0.987
1056.13	1.016
1065.61	1.02
1075.1	0.974
1084.59	0.979
1094.07	1.012
1103.56	1.018
1113.05	1.022
1122.53	1.025
1132.02	0.996
1141.5	0.894
1150.99	0.6812
1160.48	0.4742
1169.96	0.787
1179.45	0.748
1188.94	0.794
1198.42	0.833
1207.91	0.837
1217.39	0.898
1226.88	0.955
1236.37	0.975
1245.85	0.977
1255.34	0.962
1264.82	0.935
1274.31	0.885
1283.8	0.84
1293.28	0.8
1302.77	0.777
1312.26	0.759
1321.74	0.674
1331.23	0.653
1340.71	0.851
1350.2	0.901
1359.69	0.927
1369.17	0.925
1378.66	0.935
1388.15	0.94
1397.63	0.946
1407.12	0.951
1416.6	0.95
1426.09	0.935
1435.58	0.907
1445.06	0.7072
1454.55	0.84
1464.03	0.903
1473.52	0.885
1483.01	0.8051
1492.49	0.544
1501.98	0.764
1511.47	0.742
1520.95	0.709
1530.44	0.659
1539.92	0.561
1549.41	0.488
1558.9	0.542
1568.38	0.625
1577.87	0.666
1587.36	0.672
1596.84	0.703
1606.33	0.831
1615.81	0.907
1625.3	0.929
1634.79	0.94
1644.27	0.959
1653.76	0.959
1663.24	0.95
1672.73	0.953
1682.22	0.953
1691.7	0.946
1701.19	0.955
1710.68	0.955
1720.16	0.953
1729.65	0.955
1739.13	0.955
1748.62	0.955
1758.11	0.951
1767.59	0.95
1777.08	0.946
1786.57	0.953
1796.05	0.955
1805.54	0.944
1815.02	0.92
1824.51	0.937
1834	0.946
1843.48	0.953
1852.97	0.948
1862.45	0.942
1871.94	0.946
1881.43	0.944
1890.91	0.942
1900.4	0.938
1909.89	0.938
1919.37	0.948
1928.86	0.955
1938.34	0.951
1947.83	0.937
1957.32	0.918
1966.8	0.933
1976.29	0.948
1985.78	0.961
1995.26	0.975
2004.75	0.983
2014.23	0.987
2023.72	0.987
2033.21	0.987
2042.69	0.987
2052.18	0.987
2061.66	0.985
2071.15	0.985
2080.64	0.983
2090.12	0.983
2099.61	0.983
2109.1	0.981
2118.58	0.979
2128.07	0.9788
2137.55	0.974
2147.04	0.972
2156.53	0.97
2166.01	0.97
2175.5	0.97
2184.99	0.968
2194.47	0.966
2203.96	0.966
2213.44	0.966
2222.93	0.964
2232.42	0.9606
2241.9	0.9566
2251.39	0.951
2260.87	0.948
2270.36	0.9416
2279.85	0.9366
2289.33	0.933
2298.82	0.9355
2308.31	0.935
2317.79	0.933
2327.28	0.9431
2336.76	0.9449
2346.25	0.9378
2355.74	0.9516
2365.22	0.9544
2374.71	0.948
2384.2	0.948
2393.68	0.948
2403.17	0.951
2412.65	0.9507
2422.14	0.951
2431.63	0.95
2441.11	0.951
2450.6	0.951
2460.08	0.951
2469.57	0.948
2479.06	0.95
2488.54	0.95
2498.03	0.95
2507.52	0.9468
2517	0.946
2526.49	0.946
2535.97	0.946
2545.46	0.946
2554.95	0.944
2564.43	0.944
2573.92	0.941
2583.41	0.938
2592.89	0.938
2602.38	0.937
2611.86	0.937
2621.35	0.935
2630.84	0.934
2640.32	0.935
2649.81	0.937
2659.29	0.937
2668.78	0.937
2678.27	0.937
2687.75	0.937
2697.24	0.937
2706.73	0.935
2716.21	0.935
2725.7	0.933
2735.18	0.933
2744.67	0.931
2754.16	0.9298
2763.64	0.929
2773.13	0.927
2782.62	0.927
2792.1	0.929
2801.59	0.929
2811.07	0.931
2820.56	0.931
2830.05	0.931
2839.53	0.929
2849.02	0.929
2858.5	0.931
2867.99	0.929
2877.48	0.9255
2886.96	0.925
2896.45	0.927
2905.94	0.9242
2915.42	0.9248
2924.91	0.9285
2934.39	0.929
2943.88	0.9274
2953.37	0.927
2962.85	0.924
2972.34	0.92
2981.83	0.918
2991.31	0.9144
3000.8	0.9057
3010.28	0.8887
3019.77	0.8389
3029.26	0.7715
3038.74	0.7989
3048.23	0.8353
3057.71	0.749
3067.2	0.738
3076.69	0.8215
3086.17	0.7985
3095.66	0.8598
3105.15	0.8991
3114.63	0.9216
3124.12	0.9289
3133.6	0.9329
3143.09	0.933
3152.58	0.9272
3162.06	0.925
3171.55	0.9309
3181.03	0.931
3190.52	0.931
3200.01	0.931
3209.49	0.927
3218.98	0.931
3228.47	0.927
3237.95	0.925
3247.44	0.9269
3256.92	0.924
3266.41	0.927
3275.9	0.9271
3285.38	0.931
3294.87	0.933
3304.36	0.931
3313.84	0.929
3323.33	0.9268
3332.81	0.922
3342.3	0.92
3351.79	0.916
3361.27	0.916
3370.76	0.918
3380.24	0.9203
3389.73	0.924
3399.22	0.925
3408.7	0.925
3418.19	0.9237
3427.68	0.922
3437.16	0.92
3446.65	0.918
3456.13	0.918
3465.62	0.918
3475.11	0.92
3484.59	0.922
3494.08	0.9255
3503.57	0.927
3513.05	0.931
3522.54	0.931
3532.02	0.931
3541.51	0.931
3551	0.9284
3560.48	0.925
3569.97	0.9214
3579.45	0.9131
3588.94	0.8828
3598.43	0.7845
3607.91	0.7397
3617.4	0.9186
3626.89	0.9447
3636.37	0.953
3645.86	0.9537
3655.34	0.9614
3664.83	0.961
3674.32	0.957
3683.8	0.9668
3693.29	0.9688
3702.78	0.972
3712.26	0.9689
3721.75	0.9744
3731.23	0.9781
3740.72	0.975
3750.21	0.9759
3759.69	0.979
3769.18	0.975
3778.66	0.981
3788.15	0.984
