Infrared Spectrum: BUTYNEDIOIC ACID, DIMETHYL ESTER
Formula: C6 H6 O4
CAS: 762-42-5
Class: COBLENTZ
Instrument: Not specified, most likely a prism, grating, or hybrid spectrometer.
Sampling: TRANSMISSION
Path length: SMEAR
Resolution: 4
Origin: TENNESSEE EASTMAN COMPANY, RESEARCH LABORATORIES
MICROMETERS	TRANSMITTANCE
2.054	0.924
2.0948	0.924
2.13559	0.928
2.17639	0.929
2.21719	0.923
2.25799	0.905
2.29878	0.921
2.33958	0.924
2.38038	0.923
2.42117	0.923
2.46197	0.928
2.50277	0.931
2.54356	0.933
2.58436	0.933
2.62516	0.933
2.66596	0.935
2.70675	0.935
2.74755	0.929
2.78835	0.924
2.82914	0.916
2.86994	0.911
2.91074	0.887
2.95154	0.846
2.99233	0.894
3.03313	0.897
3.07393	0.902
3.11472	0.916
3.15552	0.924
3.19632	0.921
3.23712	0.923
3.27791	0.916
3.31871	0.815
3.35951	0.796
3.4003	0.735
3.4411	0.868
3.4819	0.895
3.52269	0.868
3.56349	0.95
3.60429	0.957
3.64509	0.96
3.68588	0.964
3.72668	0.965
3.76748	0.965
3.80827	0.967
3.84907	0.96
3.88987	0.955
3.93067	0.962
3.97146	0.957
4.01226	0.95
4.05306	0.941
4.09385	0.947
4.13465	0.962
4.17545	0.97
4.21624	0.972
4.25704	0.974
4.29784	0.962
4.33864	0.955
4.37943	0.967
4.42023	0.965
4.46103	0.972
4.50182	0.976
4.54262	0.977
4.58342	0.967
4.62422	0.931
4.66501	0.926
4.70581	0.947
4.74661	0.941
4.7874	0.938
4.8282	0.953
4.869	0.967
4.90979	0.972
4.95059	0.972
4.99139	0.962
5.03219	0.952
5.07298	0.972
5.11378	0.984
5.15458	0.981
5.19537	0.974
5.23617	0.976
5.27697	0.972
5.31777	0.94
5.35856	0.916
5.39936	0.931
5.44016	0.935
5.48095	0.919
5.52175	0.885
5.56255	0.827
5.60335	0.745
5.64414	0.606
5.68494	0.401
5.72574	0.119
5.76653	0.049
5.80733	0.095
5.84813	0.348
5.88892	0.541
5.92972	0.603
5.97052	0.705
6.01132	0.776
6.05211	0.793
6.09291	0.789
6.13371	0.781
6.1745	0.803
6.2153	0.823
6.2561	0.834
6.2969	0.835
6.33769	0.829
6.37849	0.835
6.41929	0.834
6.46008	0.846
6.50088	0.846
6.54168	0.839
6.58247	0.8
6.62327	0.758
6.66407	0.762
6.70487	0.798
6.74566	0.772
6.78646	0.658
6.82726	0.507
6.86805	0.394
6.90885	0.188
6.94965	0.285
6.99045	0.589
7.03124	0.765
7.07204	0.817
7.11284	0.829
7.15363	0.81
7.19443	0.798
7.23523	0.786
7.27603	0.767
7.31682	0.757
7.35762	0.738
7.39842	0.717
7.43921	0.682
7.48001	0.637
7.52081	0.579
7.5616	0.502
7.6024	0.396
7.6432	0.27
7.684	0.158
7.72479	0.105
7.76559	0.076
7.80639	0.063
7.84718	0.052
7.88798	0.047
7.92878	0.056
7.96958	0.071
8.01037	0.102
8.05117	0.152
8.09197	0.229
8.13276	0.292
8.17356	0.338
8.21436	0.381
8.25515	0.439
8.29595	0.488
8.33675	0.528
8.37755	0.569
8.41834	0.613
8.45914	0.654
8.49994	0.69
8.54073	0.717
8.58153	0.726
8.62233	0.721
8.66313	0.707
8.70392	0.702
8.74472	0.733
8.78552	0.765
8.82631	0.786
8.86711	0.786
8.90791	0.786
8.9487	0.8
8.9895	0.815
9.0303	0.829
9.0711	0.834
9.11189	0.835
9.15269	0.834
9.19349	0.825
9.23428	0.818
9.27508	0.806
9.31588	0.788
9.35668	0.753
9.39747	0.716
9.43827	0.623
9.47907	0.381
9.51986	0.182
9.56066	0.153
9.60146	0.247
9.64226	0.401
9.68305	0.535
9.72385	0.634
9.76465	0.704
9.80544	0.747
9.84624	0.788
9.88704	0.813
9.92783	0.835
9.96863	0.849
10.0094	0.854
10.0502	0.861
10.091	0.871
10.1318	0.882
10.1726	0.89
10.2134	0.895
10.2542	0.897
10.295	0.897
10.3358	0.894
10.3766	0.894
10.4174	0.907
10.4582	0.916
10.499	0.921
10.5398	0.928
10.5806	0.933
10.6214	0.941
10.6622	0.943
10.703	0.943
10.7438	0.943
10.7846	0.938
10.8254	0.936
10.8662	0.933
10.907	0.923
10.9478	0.895
10.9886	0.849
11.0294	0.736
11.0702	0.483
11.1109	0.338
11.1517	0.336
11.1925	0.476
11.2333	0.613
11.2741	0.74
11.3149	0.82
11.3557	0.87
11.3965	0.905
11.4373	0.926
11.4781	0.941
11.5189	0.948
11.5597	0.953
11.6005	0.96
11.6413	0.962
11.6821	0.964
11.7229	0.962
11.7637	0.96
11.8045	0.955
11.8453	0.945
11.8861	0.923
11.9269	0.861
11.9677	0.747
12.0085	0.736
12.0493	0.8
12.0901	0.87
12.1309	0.904
12.1717	0.923
12.2125	0.935
12.2533	0.935
12.2941	0.936
12.3349	0.941
12.3757	0.947
12.4165	0.948
12.4573	0.95
12.4981	0.95
12.5388	0.948
12.5796	0.943
12.6204	0.938
12.6612	0.929
12.702	0.917
12.7428	0.914
12.7836	0.912
12.8244	0.907
12.8652	0.897
12.906	0.885
12.9468	0.875
12.9876	0.863
13.0284	0.837
13.0692	0.8
13.11	0.733
13.1508	0.603
13.1916	0.413
13.2324	0.275
13.2732	0.251
13.314	0.311
13.3548	0.459
13.3956	0.622
13.4364	0.724
13.4772	0.782
13.518	0.817
13.5588	0.839
13.5996	0.851
13.6404	0.854
13.6812	0.854
13.722	0.861
13.7628	0.876
13.8036	0.883
13.8444	0.894
13.8852	0.894
13.9259	0.895
13.9667	0.897
14.0075	0.899
14.0483	0.897
14.0891	0.895
14.1299	0.892
14.1707	0.888
14.2115	0.888
14.2523	0.883
14.2931	0.88
14.3339	0.875
14.3747	0.87
14.4155	0.864
14.4563	0.859
14.4971	0.847
14.5379	0.835
14.5787	0.811
14.6195	0.758
14.6603	0.642
14.7011	0.552
14.7419	0.533
14.7827	0.591
14.8235	0.668
14.8643	0.736
14.9051	0.765
14.9459	0.784
14.9867	0.796
15.0275	0.801
15.0683	0.803
15.1091	0.803
15.1499	0.803
15.1907	0.794
15.2315	0.789
15.2723	0.786
15.313	0.781
15.3538	0.776
15.3946	0.776
15.4354	0.772
15.4762	0.765
15.517	0.764
15.5578	0.758
15.5986	0.755
15.6394	0.753
15.6802	0.748
15.721	0.747
15.7618	0.738
15.8026	0.736
15.8434	0.736
15.8842	0.733
15.925	0.729
15.9658	0.731
