Infrared Spectrum: PHOSPHONIC ACID, DIETHYL ESTER
Formula: C4 H11 O3 P
CAS: 762-04-9
State: SOLUTION (10% CCl4 FOR 3800-1330, 10% CS2 FOR 1330-460 CM^-^1)
Class: COBLENTZ III
Instrument: DOW KBr FOREPRISM-GRATING
Instrument parameters: BLAZED AT 3.5, 12.0, 20.0 MICRON AND CHANGED AT 5.0, 7.5, 14.9 MICRON
Sampling: TRANSMISSION
Path length: 0.012 CM, 0.012 CM
Resolution: 2
Origin: DOW CHEMICAL COMPANY
1/CM	TRANSMITTANCE
458	0.5881
467	0.5872
476	0.5864
485	0.6228
494	0.6535
503	0.6148
512	0.5329
521	0.5231
530	0.5151
539	0.433
548	0.1887
557	0.1933
566	0.5295
575	0.7851
584	0.8285
593	0.849
602	0.8559
611	0.8631
620	0.87
629	0.8688
638	0.8501
647	0.8042
656	0.8072
665	0.864
674	0.8894
683	0.9048
692	0.8978
701	0.8838
710	0.8591
719	0.7947
728	0.7191
737	0.551
746	0.5282
755	0.546
764	0.5254
773	0.4655
782	0.3788
791	0.3876
800	0.4339
809	0.5352
818	0.6832
827	0.7911
836	0.829
845	0.8043
854	0.721
863	0.7348
872	0.763
881	0.7871
890	0.7958
899	0.7841
908	0.7143
917	0.6251
926	0.3759
935	0.1209
944	0.0436
953	0.0111
962	0.0066
971	0.0062
980	0.0065
989	0.0102
998	0.0264
1007	0.0651
1016	0.158
1025	0.1516
1034	0.0754
1043	0.0144
1052	0.0108
1061	0.0265
1070	0.0328
1079	0.0166
1088	0.0483
1097	0.1081
1106	0.0972
1115	0.404
1124	0.5008
1133	0.5431
1142	0.5406
1151	0.4922
1160	0.3818
1169	0.3364
1178	0.6545
1187	0.7467
1196	0.7824
1205	0.7789
1214	0.7462
1223	0.69
1232	0.5525
1241	0.3174
1250	0.0984
1259	0.0072
1268	0.0115
1277	0.0248
1286	0.1141
1295	0.2369
1304	0.4449
1313	0.5945
1322	0.7426
1331	0.7828
1340	0.8014
1349	0.7964
1358	0.7718
1367	0.5702
1376	0.6055
1385	0.5497
1394	0.295
1403	0.6076
1412	0.7467
1421	0.7511
1430	0.7347
1439	0.5836
1448	0.4025
1457	0.5931
1466	0.6825
1475	0.5859
1484	0.5222
1493	0.7001
1502	0.6954
1511	0.6701
1520	0.6411
1529	0.5969
1538	0.5367
1547	0.46
1556	0.4522
1565	0.532
1574	0.5943
1583	0.6234
1592	0.6605
1601	0.759
1610	0.8282
1619	0.8525
1628	0.8663
1637	0.8734
1646	0.8778
1655	0.88
1664	0.8797
1673	0.8762
1682	0.8717
1691	0.8665
1700	0.8612
1709	0.8559
1718	0.85
1727	0.8561
1736	0.8609
1745	0.8645
1754	0.8663
1763	0.8671
1772	0.8657
1781	0.8582
1790	0.8481
1799	0.8425
1808	0.8405
1817	0.8406
1826	0.8415
1835	0.8418
1844	0.8388
1853	0.8353
1862	0.8378
1871	0.8433
1880	0.854
1889	0.864
1898	0.872
1907	0.8802
1916	0.8867
1925	0.89
1934	0.8899
1943	0.8905
1952	0.8912
1961	0.9011
1970	0.8903
1979	0.8918
1988	0.8933
1997	0.8943
2006	0.8951
2015	0.8966
2024	0.9005
2033	0.9012
2042	0.8994
2051	0.9007
2060	0.9018
2069	0.9025
2078	0.9025
2087	0.9021
2096	0.9015
2105	0.9014
2114	0.9031
2123	0.9021
2132	0.9071
2141	0.905
2150	0.9035
2159	0.9035
2168	0.9018
2177	0.9002
2186	0.8993
2195	0.8999
2204	0.9008
2213	0.9017
2222	0.9017
2231	0.8965
2240	0.8908
2249	0.8856
2258	0.8817
2267	0.8783
2276	0.8754
2285	0.8728
2294	0.8725
2303	0.8728
2312	0.8741
2321	0.8541
2330	0.8337
2339	0.8178
2348	0.804
2357	0.7703
2366	0.7487
2375	0.7399
2384	0.7062
2393	0.6626
2402	0.622
2411	0.5762
2420	0.506
2429	0.415
2438	0.403
2447	0.4123
2456	0.4707
2465	0.5829
2474	0.7382
2483	0.8035
2492	0.8323
2501	0.851
2510	0.8641
2519	0.8725
2528	0.8795
2537	0.884
2546	0.8878
2555	0.8908
2564	0.8938
2573	0.8944
2582	0.8949
2591	0.8949
2600	0.895
2609	0.895
2618	0.895
2627	0.8948
2636	0.8947
2645	0.8934
2654	0.892
2663	0.8905
2672	0.8892
2681	0.8889
2690	0.8886
2699	0.8878
2708	0.8841
2717	0.8768
2726	0.8674
2735	0.8568
2744	0.8512
2753	0.8618
2762	0.8604
2771	0.8496
2780	0.8492
2789	0.8598
2798	0.8571
2807	0.8436
2816	0.8294
2825	0.8271
2834	0.8225
2843	0.8078
2852	0.7878
2861	0.7568
2870	0.6807
2879	0.6517
2888	0.6739
2897	0.6005
2906	0.3868
2915	0.3692
2924	0.468
2933	0.4139
2942	0.3836
2951	0.4757
2960	0.4479
2969	0.3664
2978	0.2068
2987	0.0807
2996	0.0937
3005	0.2378
3014	0.4735
3023	0.6746
3032	0.7283
3041	0.7815
3050	0.815
3059	0.8324
3068	0.8423
3077	0.8496
3086	0.8551
3095	0.8599
3104	0.8678
3113	0.87
3122	0.8706
3131	0.8712
3140	0.8718
3149	0.8723
3158	0.8727
3167	0.8728
3176	0.8728
3185	0.8728
3194	0.8728
3203	0.8725
3212	0.8725
3221	0.8721
3230	0.8718
3239	0.8718
3248	0.8725
3257	0.8734
3266	0.8744
3275	0.8756
3284	0.8755
3293	0.8744
3302	0.873
3311	0.8731
3320	0.8733
3329	0.873
3338	0.8723
3347	0.8714
3356	0.8703
3365	0.8688
3374	0.867
3383	0.8645
3392	0.8611
3401	0.8575
3410	0.8533
3419	0.8475
3428	0.8471
3437	0.8468
3446	0.8467
3455	0.8471
3464	0.8477
3473	0.8473
3482	0.8483
3491	0.8495
3500	0.8528
3509	0.857
3518	0.8599
3527	0.8625
3536	0.8653
3545	0.8674
3554	0.8692
3563	0.8694
3572	0.8677
3581	0.8688
3590	0.8768
3599	0.8787
3608	0.8789
3617	0.8784
3626	0.8778
3635	0.8789
3644	0.8802
3653	0.8801
3662	0.8777
3671	0.8718
3680	0.8663
3689	0.87
3698	0.8736
3707	0.8768
3716	0.8799
3725	0.8825
3734	0.8844
3743	0.8841
3752	0.8788
3761	0.8768
3770	0.8781
3779	0.8801
3788	0.8825
3797	0.888
