Infrared Spectrum: Alpha-CHLOROPROPIONYL CHLORIDE
Formula: C3 H4 Cl2 O
CAS: 7623-09-8
State: SOLUTION (10% CCl4 FOR 2.5-7.5, 10% CS2 FOR 7.5-16 MICRON)
Class: COBLENTZ
Instrument: Not specified, most likely a prism, grating, or hybrid spectrometer.
Sampling: TRANSMISSION
Path length: 0.01 CM, 0.01 CM
Resolution: 4
Origin: DOW CHEMICAL COMPANY
MICROMETERS	TRANSMITTANCE
2.053	0.888
2.093	0.89
2.133	0.888
2.173	0.892
2.213	0.887
2.253	0.88
2.293	0.88
2.333	0.888
2.373	0.885
2.413	0.887
2.453	0.892
2.493	0.892
2.533	0.9
2.573	0.898
2.613	0.901
2.653	0.903
2.693	0.901
2.733	0.898
2.773	0.898
2.813	0.882
2.853	0.858
2.893	0.88
2.933	0.89
2.973	0.887
3.013	0.888
3.053	0.893
3.093	0.888
3.133	0.887
3.173	0.888
3.213	0.9
3.253	0.888
3.293	0.89
3.333	0.868
3.373	0.755
3.413	0.808
3.453	0.86
3.493	0.877
3.533	0.895
3.573	0.895
3.613	0.9
3.653	0.903
3.693	0.903
3.733	0.901
3.773	0.906
3.813	0.91
3.853	0.91
3.893	0.91
3.933	0.908
3.973	0.905
4.013	0.906
4.053	0.908
4.093	0.906
4.13299	0.908
4.17299	0.913
4.21299	0.9
4.25299	0.91
4.29299	0.91
4.33299	0.9
4.37299	0.898
4.41299	0.908
4.45299	0.906
4.49299	0.91
4.53299	0.911
4.57299	0.92
4.61299	0.923
4.65299	0.923
4.69299	0.923
4.73299	0.923
4.77299	0.925
4.81299	0.925
4.85299	0.918
4.89299	0.911
4.93299	0.908
4.97299	0.903
5.01299	0.9
5.05299	0.906
5.09299	0.908
5.13299	0.9
5.17299	0.88
5.21299	0.87
5.25299	0.868
5.29299	0.843
5.33299	0.769
5.37299	0.637
5.41299	0.377
5.45299	0.436
5.49299	0.486
5.53299	0.315
5.57299	0.139
5.61299	0.039
5.65299	0.099
5.69299	0.471
5.73299	0.654
5.77299	0.715
5.81299	0.787
5.85299	0.828
5.89299	0.863
5.93299	0.888
5.97299	0.89
6.01299	0.898
6.05299	0.898
6.09299	0.895
6.13299	0.898
6.17299	0.89
6.21299	0.855
6.25299	0.789
6.29299	0.719
6.33299	0.669
6.37299	0.642
6.41299	0.594
6.45299	0.531
6.49299	0.518
6.53299	0.593
6.57299	0.644
6.61299	0.692
6.65299	0.762
6.69299	0.813
6.73299	0.855
6.77299	0.862
6.81299	0.827
6.85299	0.745
6.89299	0.486
6.93299	0.584
6.97299	0.744
7.01299	0.812
7.05299	0.842
7.09299	0.868
7.13299	0.867
7.17299	0.857
7.21299	0.755
7.25299	0.607
7.29299	0.817
7.33299	0.882
7.37299	0.898
7.41299	0.892
7.45299	0.878
7.49299	0.887
7.53299	0.877
7.57299	0.827
7.61299	0.747
7.65299	0.737
7.69299	0.757
7.73299	0.749
7.77299	0.737
7.81299	0.76
7.85299	0.784
7.89299	0.797
7.93299	0.79
7.97299	0.759
8.01299	0.712
8.05299	0.637
8.09299	0.611
8.13299	0.646
8.17299	0.669
8.21299	0.71
8.25299	0.779
8.29298	0.8
8.33298	0.82
8.37298	0.83
8.41298	0.832
8.45298	0.83
8.49298	0.827
8.53298	0.823
8.57298	0.82
8.61298	0.817
8.65298	0.808
8.69298	0.797
8.73298	0.775
8.77298	0.745
8.81298	0.632
8.85298	0.491
8.89298	0.433
8.93298	0.621
8.97298	0.704
9.01298	0.734
9.05298	0.707
9.09298	0.612
9.13298	0.593
9.17298	0.662
9.21298	0.682
9.25298	0.692
9.29298	0.689
9.33298	0.604
9.37298	0.571
9.41298	0.654
9.45298	0.72
9.49298	0.769
9.53298	0.779
9.57298	0.789
9.61298	0.797
9.65298	0.797
9.69298	0.79
9.73298	0.784
9.77298	0.769
9.81298	0.752
9.85298	0.725
9.89298	0.644
9.93298	0.486
9.97298	0.3
10.013	0.26
10.053	0.348
10.093	0.426
10.133	0.448
10.173	0.473
10.213	0.543
10.253	0.594
10.293	0.639
10.333	0.659
10.373	0.669
10.413	0.656
10.453	0.617
10.493	0.589
10.533	0.563
10.573	0.501
10.613	0.377
10.653	0.23
10.693	0.089
10.733	0.043
10.773	0.048
10.813	0.048
10.853	0.036
10.893	0.028
10.933	0.056
10.973	0.144
11.013	0.274
11.053	0.375
11.093	0.445
11.133	0.488
11.173	0.526
11.213	0.561
11.253	0.584
11.293	0.602
11.333	0.622
11.373	0.636
11.413	0.647
11.453	0.654
11.493	0.662
11.533	0.664
11.573	0.666
11.613	0.664
11.653	0.661
11.693	0.659
11.733	0.662
11.773	0.684
11.813	0.712
11.853	0.732
11.893	0.765
11.933	0.78
11.973	0.797
12.013	0.802
12.053	0.807
12.093	0.813
12.133	0.818
12.173	0.82
12.213	0.82
12.253	0.818
12.293	0.817
12.333	0.813
12.373	0.812
12.413	0.812
12.453	0.81
12.493	0.812
12.533	0.81
12.573	0.807
12.613	0.802
12.653	0.8
12.693	0.794
12.733	0.785
12.773	0.78
12.813	0.779
12.853	0.78
12.893	0.779
12.933	0.779
12.973	0.774
13.013	0.767
13.053	0.759
13.093	0.75
13.133	0.74
13.173	0.725
13.213	0.707
13.253	0.692
13.293	0.677
13.333	0.652
13.373	0.639
13.413	0.614
13.453	0.588
13.493	0.564
13.533	0.548
13.573	0.529
13.613	0.509
13.653	0.501
13.693	0.49
13.733	0.47
13.773	0.446
13.813	0.416
13.853	0.388
13.893	0.353
13.933	0.313
13.973	0.27
14.013	0.225
14.053	0.171
14.093	0.117
14.133	0.086
14.173	0.079
14.213	0.088
14.253	0.093
14.293	0.079
14.333	0.061
14.373	0.041
14.413	0.029
14.453	0.028
14.493	0.038
14.533	0.066
14.573	0.106
14.613	0.149
14.653	0.204
14.693	0.257
14.733	0.299
14.773	0.335
14.813	0.368
14.853	0.39
14.893	0.4
14.933	0.406
14.973	0.413
15.013	0.418
15.053	0.416
15.093	0.403
15.133	0.38
15.173	0.355
15.213	0.327
15.253	0.305
15.293	0.292
15.333	0.289
15.373	0.289
15.413	0.294
15.453	0.303
15.493	0.315
15.533	0.32
15.573	0.325
15.613	0.325
15.653	0.325
15.693	0.325
15.733	0.323
15.773	0.323
15.813	0.323
15.853	0.323
15.893	0.323
