Infrared Spectrum: Propionic acid, 3-ethoxy-, ethyl ester
Formula: C7 H14 O3
CAS: 763-69-9
State: LIQUID (NEAT)
Class: COBLENTZ III
Instrument: PERKIN-ELMER 521 (GRATING)
Instrument parameters: FILTERS AT 3150, 2500, 2000, 1150, 700, 410. GRATING CHANGES: 2000, 630
Sampling: TRANSMISSION
Path length: CAPILLARY
Resolution: 2
Origin: SOUTHERN RESEARCH INSTITUTE
1/CM	TRANSMITTANCE
251.747	0.7272
261.748	0.7558
271.748	0.7949
281.749	0.8297
291.75	0.8433
301.75	0.8455
311.751	0.8461
321.752	0.8466
331.752	0.847
341.753	0.8477
351.754	0.8504
361.754	0.8575
371.755	0.8698
381.756	0.8789
391.756	0.8839
401.757	0.8948
411.758	0.9008
421.758	0.8922
431.759	0.8821
441.76	0.8787
451.761	0.8806
461.761	0.8853
471.762	0.8871
481.763	0.8836
491.763	0.8758
501.764	0.867
511.765	0.8667
521.765	0.8784
531.766	0.8911
541.767	0.9049
551.767	0.9004
561.768	0.8919
571.769	0.8802
581.769	0.866
591.77	0.8601
601.771	0.876
611.771	0.8954
621.772	0.9
631.773	0.8997
641.773	0.8991
651.774	0.8977
661.775	0.896
671.775	0.8944
681.776	0.8932
691.777	0.8927
701.777	0.8945
711.778	0.8975
721.779	0.9015
731.779	0.9068
741.78	0.9113
751.781	0.9109
761.781	0.9039
771.782	0.8881
781.783	0.8587
791.783	0.8387
801.784	0.8431
811.785	0.8423
821.786	0.8238
831.786	0.8199
841.787	0.8432
851.788	0.7708
861.788	0.795
871.789	0.8502
881.79	0.8479
891.79	0.8554
901.791	0.8683
911.792	0.8641
921.792	0.8448
931.793	0.8079
941.794	0.8416
951.794	0.8709
961.795	0.8703
971.796	0.8561
981.796	0.825
991.797	0.783
1001.8	0.7314
1011.8	0.6416
1021.8	0.4267
1031.8	0.4035
1041.8	0.5073
1051.8	0.5221
1061.8	0.3796
1071.8	0.3872
1081.8	0.4351
1091.8	0.3666
1101.8	0.1822
1111.81	0.1672
1121.81	0.2389
1131.81	0.3173
1141.81	0.4547
1151.81	0.4101
1161.81	0.323
1171.81	0.2777
1181.81	0.1781
1191.81	0.1957
1201.81	0.3001
1211.81	0.4425
1221.81	0.4236
1231.81	0.3995
1241.81	0.3903
1251.81	0.3601
1261.82	0.3554
1271.82	0.4669
1281.82	0.5219
1291.82	0.5284
1301.82	0.5279
1311.82	0.5316
1321.82	0.5237
1331.82	0.6013
1341.82	0.5434
1351.82	0.4865
1361.82	0.4671
1371.82	0.3076
1381.82	0.4432
1391.82	0.5335
1401.82	0.5654
1411.83	0.563
1421.83	0.6108
1431.83	0.6402
1441.83	0.5534
1451.83	0.5927
1461.83	0.5678
1471.83	0.6287
1481.83	0.6671
1491.83	0.8144
1501.83	0.8428
1511.83	0.8585
1521.83	0.8666
1531.83	0.8711
1541.83	0.8748
1551.83	0.8775
1561.84	0.8798
1571.84	0.8801
1581.84	0.878
1591.84	0.8723
1601.84	0.8642
1611.84	0.8531
1621.84	0.8459
1631.84	0.8427
1641.84	0.8427
1651.84	0.8419
1661.84	0.8277
1671.84	0.785
1681.84	0.7378
1691.84	0.6849
1701.84	0.5926
1711.85	0.4733
1721.85	0.2191
1731.85	0.1006
1741.85	0.1315
1751.85	0.4672
1761.85	0.6553
1771.85	0.7263
1781.85	0.7827
1791.85	0.8157
1801.85	0.8403
1811.85	0.8582
1821.85	0.8726
1831.85	0.88
1841.85	0.8834
1851.86	0.8842
1861.86	0.8814
1871.86	0.8783
1881.86	0.8767
1891.86	0.876
1901.86	0.8753
1911.86	0.8734
1921.86	0.8701
1931.86	0.8656
1941.86	0.8171
1951.86	0.8706
1961.86	0.8777
1971.86	0.8835
1981.86	0.8864
1991.86	0.8894
2001.87	0.8917
2011.87	0.8897
2021.87	0.887
2031.87	0.8833
2041.87	0.8835
2051.87	0.889
2061.87	0.892
2071.87	0.8932
2081.87	0.894
2091.87	0.8945
2101.87	0.8952
2111.87	0.8959
2121.87	0.8962
2131.87	0.8958
2141.87	0.8952
2151.88	0.8946
2161.88	0.8945
2171.88	0.8944
2181.88	0.8936
2191.88	0.8926
2201.88	0.8916
2211.88	0.8906
2221.88	0.8896
2231.88	0.8892
2241.88	0.8889
2251.88	0.8885
2261.88	0.8882
2271.88	0.8878
2281.88	0.8874
2291.88	0.8867
2301.89	0.886
2311.89	0.8852
2321.89	0.8845
2331.89	0.8848
2341.89	0.8856
2351.89	0.8865
2361.89	0.8873
2371.89	0.8882
2381.89	0.8888
2391.89	0.8886
2401.89	0.8884
2411.89	0.8883
2421.89	0.8881
2431.89	0.8878
2441.89	0.8872
2451.9	0.8867
2461.9	0.8861
2471.9	0.8856
2481.9	0.8852
2491.9	0.8849
2501.9	0.8844
2511.9	0.8833
2521.9	0.8823
2531.9	0.8807
2541.9	0.8787
2551.9	0.8768
2561.9	0.8763
2571.9	0.8757
2581.9	0.8747
2591.91	0.8726
2601.91	0.8724
2611.91	0.8756
2621.91	0.8802
2631.91	0.8818
2641.91	0.8817
2651.91	0.8793
2661.91	0.8744
2671.91	0.8694
2681.91	0.8623
2691.91	0.8527
2701.91	0.8414
2711.91	0.8331
2721.91	0.8264
2731.91	0.8212
2741.92	0.8167
2751.92	0.814
2761.92	0.8061
2771.92	0.7917
2781.92	0.7768
2791.92	0.7362
2801.92	0.7074
2811.92	0.7156
2821.92	0.7045
2831.92	0.665
2841.92	0.604
2851.92	0.5047
2861.92	0.3502
2871.92	0.3299
2881.92	0.3966
2891.93	0.4318
2901.93	0.463
2911.93	0.5053
2921.93	0.4748
2931.93	0.44
2941.93	0.4927
2951.93	0.4724
2961.93	0.3878
2971.93	0.2589
2981.93	0.3158
2991.93	0.4845
3001.93	0.6633
3011.93	0.7561
3021.93	0.7828
3031.93	0.8041
3041.94	0.8207
3051.94	0.8319
3061.94	0.8401
3071.94	0.8443
3081.94	0.8468
3091.94	0.8471
3101.94	0.8488
3111.94	0.8513
3121.94	0.8562
3131.94	0.8608
3141.94	0.8461
3151.94	0.8442
3161.94	0.8445
3171.94	0.8452
3181.94	0.8461
3191.95	0.8471
3201.95	0.8482
3211.95	0.8493
3221.95	0.8502
3231.95	0.8507
3241.95	0.8512
3251.95	0.8517
3261.95	0.8521
3271.95	0.8526
3281.95	0.853
3291.95	0.8535
3301.95	0.8542
3311.95	0.855
3321.95	0.8559
3331.96	0.8567
3341.96	0.8559
3351.96	0.8544
3361.96	0.853
3371.96	0.8516
3381.96	0.8494
3391.96	0.8471
3401.96	0.8447
3411.96	0.842
3421.96	0.8393
3431.96	0.8349
3441.96	0.8271
3451.96	0.8287
3461.96	0.8402
3471.96	0.8479
3481.97	0.8485
3491.97	0.8469
3501.97	0.8463
3511.97	0.846
3521.97	0.846
3531.97	0.8462
3541.97	0.8463
3551.97	0.8466
3561.97	0.8469
3571.97	0.8471
3581.97	0.8475
3591.97	0.849
3601.97	0.8505
3611.97	0.8519
3621.97	0.8545
3631.98	0.8573
3641.98	0.8601
3651.98	0.8631
3661.98	0.8666
3671.98	0.8701
3681.98	0.8732
3691.98	0.8754
3701.98	0.8767
3711.98	0.8755
3721.98	0.8742
3731.98	0.8722
3741.98	0.8722
3751.98	0.8791
3761.98	0.8815
3771.98	0.8801
3781.99	0.8786
3791.99	0.8774
3801.99	0.8763
3811.99	0.8758
3821.99	0.8752
3831.99	0.8747
3841.99	0.8741
3851.99	0.8735
3861.99	0.8728
3871.99	0.8724
3881.99	0.8722
3891.99	0.872
3901.99	0.8718
3911.99	0.8716
3921.99	0.8714
3932	0.8709
3942	0.8702
3952	0.8694
3962	0.868
3972	0.8666
3982	0.8661
3992	0.8659
