Infrared Spectrum: 4-Octene, (Z)
Formula: C8 H16
CAS: 7642-15-1
State: LIQUID (NEAT)
Class: COBLENTZ III
Instrument: BECKMAN IR-12 (GRATING)
Instrument parameters: GRATING
Sampling: TRANSMISSION
Path length: 0.01056 CM
Resolution: 2
Origin: COLGATE-PALMOLIVE COMPANY (KELLENBACH)
1/CM	TRANSMITTANCE
403	0.6124
412	0.6255
421	0.6383
430	0.6774
439	0.7352
448	0.7705
457	0.7947
466	0.8047
475	0.8049
484	0.8006
493	0.7836
502	0.7667
511	0.7629
520	0.7633
529	0.7704
538	0.7899
547	0.789
556	0.7567
565	0.6976
574	0.4951
583	0.4612
592	0.5677
601	0.6678
610	0.6935
619	0.6993
628	0.6629
637	0.6128
646	0.523
655	0.3902
664	0.2656
673	0.1488
682	0.0676
691	0.0333
700	0.0175
709	0.0189
718	0.0253
727	0.1398
736	0.1989
745	0.1784
754	0.274
763	0.3022
772	0.2858
781	0.5514
790	0.6949
799	0.7418
808	0.7579
817	0.7611
826	0.7446
835	0.6895
844	0.4314
853	0.1845
862	0.1451
871	0.0859
880	0.061
889	0.2956
898	0.3375
907	0.4367
916	0.6105
925	0.648
934	0.6854
943	0.7238
952	0.7355
961	0.6454
970	0.5746
979	0.6421
988	0.6086
997	0.523
1006	0.5483
1015	0.6971
1024	0.7112
1033	0.5928
1042	0.2687
1051	0.3364
1060	0.2665
1069	0.1419
1078	0.3037
1087	0.3954
1096	0.57
1105	0.6949
1114	0.7096
1123	0.7061
1132	0.7004
1141	0.7006
1150	0.7394
1159	0.7775
1168	0.7831
1177	0.7815
1186	0.7731
1195	0.756
1204	0.6817
1213	0.5531
1222	0.6029
1231	0.6221
1240	0.5573
1249	0.4547
1258	0.211
1267	0.3565
1276	0.5408
1285	0.6149
1294	0.6189
1303	0.5177
1312	0.41
1321	0.476
1330	0.2241
1339	0.3908
1348	0.5147
1357	0.5111
1366	0.2211
1375	0.0125
1384	0.3009
1393	0.2848
1402	0.2258
1411	0.3486
1420	0.2302
1429	0.0959
1438	0.03
1447	0.007
1456	0.0057
1465	0.0111
1474	0.1323
1483	0.3507
1492	0.4583
1501	0.5132
1510	0.5997
1519	0.6348
1528	0.6915
1537	0.7035
1546	0.7204
1555	0.7324
1564	0.7438
1573	0.755
1582	0.761
1591	0.7602
1600	0.7569
1609	0.7447
1618	0.7225
1627	0.6955
1636	0.6377
1645	0.4606
1654	0.4244
1663	0.5651
1672	0.5766
1681	0.5867
1690	0.6273
1699	0.696
1708	0.7193
1717	0.7555
1726	0.7799
1735	0.7896
1744	0.7958
1753	0.7992
1762	0.8067
1771	0.8168
1780	0.8256
1789	0.8259
1798	0.8203
1807	0.8019
1816	0.7771
1825	0.7531
1834	0.7481
1843	0.7744
1852	0.8008
1861	0.823
1870	0.8377
1879	0.8407
1888	0.8376
1897	0.8388
1906	0.8365
1915	0.8328
1924	0.8295
1933	0.8296
1942	0.8336
1951	0.837
1960	0.8351
1969	0.836
1978	0.8358
1987	0.8349
1996	0.8325
2005	0.8262
2014	0.8098
2023	0.7888
2032	0.7748
2041	0.7944
2050	0.7963
2059	0.8161
2068	0.8282
2077	0.8357
2086	0.836
2095	0.8344
2104	0.8286
2113	0.8273
2122	0.8279
2131	0.8277
2140	0.823
2149	0.8157
2158	0.8054
2167	0.8005
2176	0.8021
2185	0.8068
2194	0.8095
2203	0.8092
2212	0.8068
2221	0.805
2230	0.8091
2239	0.8153
2248	0.8162
2257	0.8154
2266	0.8136
2275	0.8106
2284	0.8051
2293	0.7988
2302	0.7924
2311	0.7877
2320	0.7829
2329	0.7795
2338	0.7791
2347	0.7791
2356	0.778
2365	0.7837
2374	0.7864
2383	0.7902
2392	0.7984
2401	0.7924
2410	0.79
2419	0.7911
2428	0.7949
2437	0.8086
2446	0.8172
2455	0.8163
2464	0.8112
2473	0.8018
2482	0.785
2491	0.7686
2500	0.7628
2509	0.7612
2518	0.7524
2527	0.7494
2536	0.7317
2545	0.7344
2554	0.7502
2563	0.7487
2572	0.7367
2581	0.719
2590	0.7029
2599	0.7291
2608	0.7275
2617	0.7147
2626	0.7169
2635	0.6701
2644	0.5947
2653	0.5781
2662	0.6463
2671	0.6594
2680	0.6503
2689	0.6173
2698	0.5608
2707	0.552
2716	0.4745
2725	0.4923
2734	0.5675
2743	0.5855
2752	0.5596
2761	0.4956
2770	0.4316
2779	0.3675
2788	0.309
2797	0.2246
2806	0.1388
2815	0.0534
2824	0.0139
2833	0.0076
2842	0.0063
2851	0.0074
2860	0.0079
2869	0.0048
2878	0.0039
2887	0.0037
2896	0.0047
2905	0.0063
2914	0.0048
2923	0.0066
2932	0.0056
2941	0.0046
2950	0.004
2959	0.0034
2968	0.0028
2977	0.0051
2986	0.0081
2995	0.0041
3004	0.0164
3013	0.0882
3022	0.2028
3031	0.3173
3040	0.425
3049	0.4137
3058	0.4392
3067	0.5452
3076	0.6085
3085	0.6336
3094	0.6477
3103	0.6602
3112	0.6715
3121	0.6804
3130	0.6874
3139	0.6918
3148	0.6924
3157	0.688
3166	0.6844
3175	0.6853
3184	0.7032
3193	0.7329
3202	0.7602
3211	0.7747
3220	0.7834
3229	0.7918
3238	0.7999
3247	0.8058
3256	0.8075
3265	0.8048
3274	0.7989
3283	0.7944
3292	0.8006
3301	0.8107
3310	0.8137
3319	0.8138
3328	0.815
3337	0.8182
3346	0.823
3355	0.8292
3364	0.8334
3373	0.8337
3382	0.8344
3391	0.8355
3400	0.8372
3409	0.8387
3418	0.8397
3427	0.8404
3436	0.8404
3445	0.8394
3454	0.8384
3463	0.8373
3472	0.8362
3481	0.8373
3490	0.8391
3499	0.8393
3508	0.8391
3517	0.8389
3526	0.8387
3535	0.8387
3544	0.8387
3553	0.8386
3562	0.838
3571	0.8362
3580	0.8352
3589	0.8367
3598	0.8335
3607	0.8292
3616	0.8309
3625	0.8239
3634	0.8178
3643	0.8166
3652	0.8187
3661	0.8185
3670	0.816
3679	0.8141
3688	0.8143
3697	0.8145
3706	0.815
3715	0.8151
3724	0.8129
3733	0.8082
3742	0.8027
3751	0.8018
3760	0.8012
3769	0.8011
3778	0.8023
3787	0.805
3796	0.8079
3805	0.8091
3814	0.8112
3823	0.8162
3832	0.8167
3841	0.8156
3850	0.8169
3859	0.8217
3868	0.8252
3877	0.8247
3886	0.8164
3895	0.8052
3904	0.7956
3913	0.7863
3922	0.7763
3931	0.7643
3940	0.7548
3949	0.7567
3958	0.7683
3967	0.7656
3976	0.7547
3985	0.7407
3994	0.733
