Infrared Spectrum: 2-Octene, (Z)
Formula: C8 H16
CAS: 7642-04-8
State: LIQUID (NEAT)
Class: COBLENTZ III
Instrument: BECKMAN IR-12 (GRATING)
Instrument parameters: GRATING
Sampling: TRANSMISSION
Path length: 0.00286 CM
Resolution: 2
Origin: COLGATE-PALMOLIVE COMPANY (KELLENBACH)
1/CM	TRANSMITTANCE
404	0.7534
413	0.7885
422	0.8313
431	0.8714
440	0.8817
449	0.9071
458	0.9194
467	0.9313
476	0.9307
485	0.902
494	0.9094
503	0.9175
512	0.9256
521	0.9322
530	0.9357
539	0.9292
548	0.9166
557	0.8974
566	0.8594
575	0.7312
584	0.7823
593	0.8564
602	0.8843
611	0.8986
620	0.8904
629	0.8586
638	0.7943
647	0.6954
656	0.5966
665	0.53
674	0.4139
683	0.2963
692	0.1855
701	0.2254
710	0.4564
719	0.5733
728	0.5082
737	0.7001
746	0.773
755	0.7811
764	0.7914
773	0.7909
782	0.8483
791	0.8867
800	0.8962
809	0.8937
818	0.8768
827	0.8445
836	0.7933
845	0.8438
854	0.8685
863	0.8731
872	0.8661
881	0.8532
890	0.8448
899	0.8026
908	0.783
917	0.7302
926	0.7051
935	0.7984
944	0.8188
953	0.7139
962	0.5941
971	0.6424
980	0.6422
989	0.6762
998	0.7515
1007	0.7973
1016	0.795
1025	0.7308
1034	0.7395
1043	0.7944
1052	0.7967
1061	0.7915
1070	0.7962
1079	0.8318
1088	0.8467
1097	0.7888
1106	0.8024
1115	0.854
1124	0.8553
1133	0.8564
1142	0.8664
1151	0.876
1160	0.8765
1169	0.8717
1178	0.8597
1187	0.846
1196	0.8476
1205	0.8482
1214	0.8355
1223	0.8283
1232	0.8505
1241	0.8461
1250	0.8271
1259	0.829
1268	0.8119
1277	0.7881
1286	0.7964
1295	0.788
1304	0.7791
1313	0.7324
1322	0.7779
1331	0.75
1340	0.7006
1349	0.7157
1358	0.6168
1367	0.4709
1376	0.4569
1385	0.6675
1394	0.4682
1403	0.4478
1412	0.6327
1421	0.531
1430	0.3488
1439	0.2411
1448	0.181
1457	0.1499
1466	0.3347
1475	0.5808
1484	0.6933
1493	0.7517
1502	0.7872
1511	0.8064
1520	0.8146
1529	0.8312
1538	0.8327
1547	0.8499
1556	0.8455
1565	0.8649
1574	0.8721
1583	0.8726
1592	0.8693
1601	0.8627
1610	0.8539
1619	0.8421
1628	0.8313
1637	0.7926
1646	0.6918
1655	0.6511
1664	0.7867
1673	0.8277
1682	0.8523
1691	0.8518
1700	0.8638
1709	0.8771
1718	0.8769
1727	0.8803
1736	0.8952
1745	0.9055
1754	0.9105
1763	0.9153
1772	0.9157
1781	0.9154
1790	0.9122
1799	0.912
1808	0.9135
1817	0.9179
1826	0.9203
1835	0.9209
1844	0.9207
1853	0.9191
1862	0.9177
1871	0.9182
1880	0.921
1889	0.92
1898	0.9218
1907	0.9174
1916	0.9123
1925	0.912
1934	0.912
1943	0.9123
1952	0.9137
1961	0.914
1970	0.9116
1979	0.9056
1988	0.8983
1997	0.8973
2006	0.8993
2015	0.9016
2024	0.9042
2033	0.9086
2042	0.9113
2051	0.9125
2060	0.9139
2069	0.915
2078	0.9159
2087	0.9168
2096	0.9174
2105	0.9178
2114	0.9182
2123	0.9177
2132	0.9156
2141	0.9124
2150	0.9112
2159	0.9129
2168	0.9155
2177	0.9172
2186	0.918
2195	0.9181
2204	0.9176
2213	0.9162
2222	0.9149
2231	0.9138
2240	0.9128
2249	0.9114
2258	0.9096
2267	0.9085
2276	0.9078
2285	0.9076
2294	0.9072
2303	0.9064
2312	0.9043
2321	0.9022
2330	0.9008
2339	0.8993
2348	0.8993
2357	0.8997
2366	0.9022
2375	0.9062
2384	0.907
2393	0.9042
2402	0.9012
2411	0.9016
2420	0.9028
2429	0.9052
2438	0.9076
2447	0.9076
2456	0.9057
2465	0.9035
2474	0.9017
2483	0.9013
2492	0.9009
2501	0.9005
2510	0.9002
2519	0.9
2528	0.8994
2537	0.8983
2546	0.8897
2555	0.8803
2564	0.8794
2573	0.8792
2582	0.8788
2591	0.8779
2600	0.8731
2609	0.8646
2618	0.8542
2627	0.8548
2636	0.8566
2645	0.8483
2654	0.8319
2663	0.8372
2672	0.8493
2681	0.8503
2690	0.847
2699	0.8209
2708	0.7989
2717	0.78
2726	0.8041
2735	0.8102
2744	0.8101
2753	0.8007
2762	0.7832
2771	0.7486
2780	0.6979
2789	0.6399
2798	0.5937
2807	0.517
2816	0.4289
2825	0.2921
2834	0.1445
2843	0.014
2852	0.0052
2861	0.0194
2870	0.0516
2879	0.0589
2888	0.0413
2897	0.023
2906	0.0047
2915	0
2924	0
2933	0.006
2942	0.0108
2951	0.0018
2960	0.0423
2969	0.14
2978	0.2378
2987	0.28
2996	0.2378
3005	0.0436
3014	0.2376
3023	0.4545
3032	0.6466
3041	0.6994
3050	0.7139
3059	0.7124
3068	0.7597
3077	0.7954
3086	0.8162
3095	0.8285
3104	0.8381
3113	0.8446
3122	0.8493
3131	0.8525
3140	0.8536
3149	0.8544
3158	0.8549
3167	0.8551
3176	0.8555
3185	0.856
3194	0.8581
3203	0.8626
3212	0.8671
3221	0.8687
3230	0.8682
3239	0.8676
3248	0.8662
3257	0.8636
3266	0.8591
3275	0.854
3284	0.8491
3293	0.8488
3302	0.8524
3311	0.8514
3320	0.8491
3329	0.8458
3338	0.8421
3347	0.8378
3356	0.8348
3365	0.8343
3374	0.8338
3383	0.8325
3392	0.8297
3401	0.8273
3410	0.8252
3419	0.8229
3428	0.8233
3437	0.8219
3446	0.8225
3455	0.8266
3464	0.8342
3473	0.8367
3482	0.8386
3491	0.8404
3500	0.8439
3509	0.847
3518	0.8491
3527	0.8511
3536	0.853
3545	0.8547
3554	0.8565
3563	0.8583
3572	0.8602
3581	0.8623
3590	0.8647
3599	0.8671
3608	0.8717
3617	0.8765
3626	0.8821
3635	0.8883
3644	0.8958
3653	0.901
3662	0.8916
3671	0.8947
3680	0.9
3689	0.9036
3698	0.905
3707	0.9055
3716	0.905
3725	0.9039
3734	0.9026
3743	0.9022
3752	0.9041
3761	0.9059
3770	0.9071
3779	0.9075
3788	0.9073
3797	0.9062
3806	0.9046
3815	0.903
3824	0.9014
3833	0.9009
3842	0.9011
3851	0.9016
3860	0.9022
3869	0.9026
3878	0.9028
3887	0.9022
3896	0.9016
3905	0.901
3914	0.9004
3923	0.8996
3932	0.8988
3941	0.8978
3950	0.8962
3959	0.8944
3968	0.892
3977	0.8901
3986	0.8898
3995	0.8898
