Infrared Spectrum: HYDROGEN CHLORIDE
Formula: H Cl
CAS: 7647-01-0
State: GAS (200 mmHg, N2 ADDED, TOTAL PRESSURE 600 mmHg)
Class: COBLENTZ
Instrument: DOW KBr FOREPRISM-GRATING
Instrument parameters: GRATING CHANGED AT 5.0, 7.5, 15.0 MICRON
Sampling: TRANSMISSION
Path length: 5 CM
Resolution: 2
Origin: DOW CHEMICAL COMPANY
1/CM	TRANSMITTANCE
453.027	0.962
462.526	0.96
472.025	0.957
481.524	0.953
491.023	0.951
500.522	0.949
510.021	0.947
519.52	0.949
529.019	0.949
538.518	0.949
548.017	0.953
557.516	0.955
567.014	0.957
576.513	0.957
586.012	0.96
595.511	0.96
605.01	0.96
614.509	0.962
624.008	0.964
633.507	0.964
643.006	0.96
652.505	0.96
662.004	0.957
671.503	0.96
681.002	0.957
690.501	0.932
700	0.915
709.499	0.918
718.998	0.9469
728.497	0.953
737.996	0.968
747.495	0.968
756.994	0.97
766.493	0.968
775.992	0.968
785.49	0.97
794.989	0.972
804.488	0.974
813.987	0.972
823.486	0.972
832.985	0.972
842.484	0.972
851.983	0.974
861.482	0.974
870.981	0.976
880.48	0.976
889.979	0.976
899.478	0.978
908.977	0.978
918.476	0.976
927.975	0.978
937.474	0.981
946.973	0.981
956.472	0.978
965.971	0.978
975.47	0.972
984.969	0.97
994.468	0.972
1003.97	0.976
1013.47	0.978
1022.96	0.976
1032.46	0.972
1041.96	0.968
1051.46	0.96
1060.96	0.953
1070.46	0.953
1079.96	0.966
1089.46	0.97
1098.96	0.97
1108.46	0.976
1117.95	0.981
1127.45	0.983
1136.95	0.981
1146.45	0.981
1155.95	0.983
1165.45	0.983
1174.95	0.981
1184.45	0.976
1193.95	0.981
1203.44	0.985
1212.94	0.985
1222.44	0.978
1231.94	0.978
1241.44	0.964
1250.94	0.966
1260.44	0.968
1269.94	0.97
1279.44	0.966
1288.94	0.966
1298.43	0.972
1307.93	0.966
1317.43	0.97
1326.93	0.968
1336.43	0.957
1345.93	0.957
1355.43	0.97
1364.93	0.97
1374.43	0.955
1383.92	0.947
1393.42	0.947
1402.92	0.949
1412.42	0.953
1421.92	0.955
1431.42	0.953
1440.92	0.953
1450.42	0.947
1459.92	0.955
1469.42	0.955
1478.91	0.949
1488.41	0.953
1497.91	0.955
1507.41	0.955
1516.91	0.957
1526.41	0.957
1535.91	0.957
1545.41	0.96
1554.91	0.96
1564.4	0.968
1573.9	0.966
1583.4	0.962
1592.9	0.962
1602.4	0.96
1611.9	0.962
1621.4	0.96
1630.9	0.957
1640.4	0.949
1649.9	0.945
1659.39	0.949
1668.89	0.955
1678.39	0.96
1687.89	0.96
1697.39	0.962
1706.89	0.96
1716.39	0.96
1725.89	0.96
1735.39	0.96
1744.89	0.957
1754.38	0.951
1763.88	0.945
1773.38	0.943
1782.88	0.945
1792.38	0.947
1801.88	0.953
1811.38	0.955
1820.88	0.955
1830.38	0.96
1839.87	0.96
1849.37	0.96
1858.87	0.962
1868.37	0.964
1877.87	0.96
1887.37	0.964
1896.87	0.96
1906.37	0.96
1915.87	0.964
1925.37	0.96
1934.86	0.964
1944.36	0.964
1953.86	0.964
1963.36	0.964
1972.86	0.964
1982.36	0.964
1991.86	0.966
2001.36	0.965
2010.86	0.966
2020.35	0.968
2029.85	0.968
2039.35	0.968
2048.85	0.968
2058.35	0.968
2067.85	0.968
2077.35	0.966
2086.85	0.966
2096.35	0.966
2105.85	0.9663
2115.34	0.966
2124.84	0.966
2134.34	0.966
2143.84	0.966
2153.34	0.966
2162.84	0.966
2172.34	0.966
2181.84	0.9675
2191.34	0.968
2200.84	0.97
2210.33	0.97
2219.83	0.97
2229.33	0.97
2238.83	0.97
2248.33	0.97
2257.83	0.97
2267.33	0.97
2276.83	0.97
2286.33	0.97
2295.82	0.97
2305.32	0.972
2314.82	0.972
2324.32	0.976
2333.82	0.978
2343.32	0.981
2352.82	0.981
2362.32	0.981
2371.82	0.978
2381.32	0.974
2390.81	0.97
2400.31	0.97
2409.81	0.97
2419.31	0.97
2428.81	0.97
2438.31	0.9682
2447.81	0.968
2457.31	0.968
2466.81	0.968
2476.3	0.968
2485.8	0.968
2495.3	0.9677
2504.8	0.968
2514.3	0.968
2523.8	0.968
2533.3	0.9664
2542.8	0.966
2552.3	0.966
2561.8	0.966
2571.29	0.966
2580.79	0.968
2590.29	0.966
2599.79	0.961
2609.29	0.9591
2618.79	0.964
2628.29	0.9403
2637.79	0.9623
2647.29	0.964
2656.79	0.8838
2666.28	0.966
2675.78	0.9408
2685.28	0.9385
2694.78	0.962
2704.28	0.9248
2713.78	0.957
2723.28	0.9559
2732.78	0.667
2742.28	0.955
2751.77	0.4452
2761.27	0.948
2770.77	0.953
2780.27	0.7826
2789.77	0.945
2799.27	0.4009
2808.77	0.7775
2818.27	0.6353
2827.77	0.7618
2837.27	0.9371
2846.76	0.7235
2856.26	0.949
2865.76	0.5116
2875.26	0.949
2884.76	0.9527
2894.26	0.953
2903.76	0.661
2913.26	0.957
2922.76	0.4358
2932.25	0.8085
2941.75	0.6762
2951.25	0.6244
2960.75	0.4383
2970.25	0.8747
2979.75	0.4901
2989.25	0.924
2998.75	0.5983
3008.25	0.9296
3017.75	0.7543
3027.24	0.6865
3036.74	0.9389
3046.24	0.8945
3055.74	0.914
3065.24	0.9503
3074.74	0.939
3084.24	0.939
3093.74	0.941
3103.24	0.943
3112.73	0.943
3122.23	0.945
3131.73	0.943
3141.23	0.941
3150.73	0.941
3160.23	0.9391
3169.73	0.939
3179.23	0.939
3188.73	0.939
3198.23	0.939
3207.72	0.939
3217.22	0.936
3226.72	0.936
3236.22	0.936
3245.72	0.936
3255.22	0.936
3264.72	0.937
3274.22	0.936
3283.72	0.936
3293.22	0.936
3302.71	0.936
3312.21	0.936
3321.71	0.939
3331.21	0.941
3340.71	0.943
3350.21	0.943
3359.71	0.9434
3369.21	0.945
3378.71	0.947
3388.2	0.947
3397.7	0.949
3407.2	0.951
3416.7	0.951
3426.2	0.955
3435.7	0.957
3445.2	0.9612
3454.7	0.964
3464.2	0.9671
3473.7	0.968
3483.19	0.9711
3492.69	0.974
3502.19	0.975
3511.69	0.976
3521.19	0.9794
3530.69	0.978
3540.19	0.983
3549.69	0.983
3559.19	0.985
3568.68	0.9868
3578.18	0.991
3587.68	0.989
3597.18	0.991
3606.68	0.991
3616.18	0.989
3625.68	0.987
3635.18	0.9917
3644.68	0.9913
3654.18	0.9896
3663.67	0.995
3673.17	0.991
3682.67	0.9875
3692.17	0.985
3701.67	0.993
3711.17	0.995
3720.67	0.997
3730.17	0.997
3739.67	0.997
3749.17	0.995
3758.66	0.993
3768.16	0.991
