Infrared Spectrum: Tridecane, 1-bromo-
Formula: C13 H27 Br
CAS: 765-09-3
State: SOLUTION (10% CCl4 FOR 3800-1330, 10% CS2 FOR 1330-450 CM^-^1)
Class: COBLENTZ III
Instrument: DOW KBr FOREPRISM-GRATING
Instrument parameters: BLAZED AT 3.5, 12.0, 20.0 MICRON AND CHANGED AT 5.0, 7.5, 14.9 MICRON
Sampling: TRANSMISSION
Path length: 0.011 CM, 0.010 CM
Resolution: 2
Origin: DOW CHEMICAL COMPANY
1/CM	TRANSMITTANCE
456	0.7656
465	0.7727
474	0.7822
483	0.7968
492	0.8103
501	0.8176
510	0.8182
519	0.8175
528	0.8164
537	0.8137
546	0.8087
555	0.768
564	0.6901
573	0.7979
582	0.8356
591	0.8437
600	0.8463
609	0.8459
618	0.8413
627	0.8209
636	0.7242
645	0.6917
654	0.7991
663	0.8527
672	0.8849
681	0.8849
690	0.8732
699	0.8294
708	0.7346
717	0.6492
726	0.7633
735	0.8177
744	0.8368
753	0.8488
762	0.8569
771	0.8633
780	0.866
789	0.8649
798	0.8669
807	0.8686
816	0.8687
825	0.8671
834	0.8286
843	0.7535
852	0.7288
861	0.757
870	0.7891
879	0.8272
888	0.8654
897	0.8817
906	0.8837
915	0.8841
924	0.8841
933	0.8854
942	0.8874
951	0.89
960	0.8924
969	0.8949
978	0.8967
987	0.895
996	0.8918
1005	0.8882
1014	0.8832
1023	0.8786
1032	0.8745
1041	0.8715
1050	0.8694
1059	0.8694
1068	0.8479
1077	0.875
1086	0.8853
1095	0.8901
1104	0.8909
1113	0.8886
1122	0.8939
1131	0.8774
1140	0.8723
1149	0.8824
1158	0.8798
1167	0.8725
1176	0.8572
1185	0.8556
1194	0.8115
1203	0.7853
1212	0.7671
1221	0.7496
1230	0.7124
1239	0.6759
1248	0.6385
1257	0.6875
1266	0.7048
1275	0.7292
1284	0.7221
1293	0.7231
1302	0.7516
1311	0.7854
1320	0.7991
1329	0.8271
1338	0.7964
1347	0.7734
1356	0.7622
1365	0.7485
1374	0.6849
1383	0.8261
1392	0.8251
1401	0.7942
1410	0.7908
1419	0.7779
1428	0.6426
1437	0.5708
1446	0.5385
1455	0.377
1464	0.3032
1473	0.7614
1482	0.7755
1491	0.7607
1500	0.7209
1509	0.6696
1518	0.6142
1527	0.5803
1536	0.4886
1545	0.4588
1554	0.5116
1563	0.5901
1572	0.6153
1581	0.6412
1590	0.7178
1599	0.7716
1608	0.8168
1617	0.8374
1626	0.8495
1635	0.8525
1644	0.8558
1653	0.8611
1662	0.8661
1671	0.8695
1680	0.8717
1689	0.873
1698	0.8738
1707	0.8738
1716	0.8735
1725	0.873
1734	0.8715
1743	0.8735
1752	0.882
1761	0.8859
1770	0.8881
1779	0.889
1788	0.8896
1797	0.8902
1806	0.8907
1815	0.8908
1824	0.8907
1833	0.8906
1842	0.8905
1851	0.8906
1860	0.8908
1869	0.891
1878	0.8912
1887	0.8913
1896	0.8915
1905	0.8914
1914	0.8906
1923	0.8898
1932	0.8888
1941	0.8876
1950	0.8858
1959	0.8843
1968	0.8832
1977	0.8823
1986	0.8808
1995	0.8986
2004	0.9042
2013	0.9049
2022	0.9054
2031	0.9059
2040	0.9064
2049	0.9069
2058	0.9075
2067	0.9079
2076	0.9085
2085	0.9092
2094	0.9101
2103	0.911
2112	0.9118
2121	0.9119
2130	0.9119
2139	0.912
2148	0.912
2157	0.9118
2166	0.9115
2175	0.9113
2184	0.9111
2193	0.9107
2202	0.9101
2211	0.9095
2220	0.909
2229	0.9082
2238	0.9062
2247	0.9041
2256	0.9021
2265	0.899
2274	0.896
2283	0.8932
2292	0.8912
2301	0.8927
2310	0.8994
2319	0.9053
2328	0.906
2337	0.9066
2346	0.9071
2355	0.9074
2364	0.9073
2373	0.9072
2382	0.9071
2391	0.9064
2400	0.9061
2409	0.9058
2418	0.9056
2427	0.9055
2436	0.9055
2445	0.9054
2454	0.9054
2463	0.9048
2472	0.9038
2481	0.9028
2490	0.9018
2499	0.9008
2508	0.8997
2517	0.8985
2526	0.8974
2535	0.8961
2544	0.8943
2553	0.8923
2562	0.8904
2571	0.8885
2580	0.8856
2589	0.8824
2598	0.8792
2607	0.8758
2616	0.8722
2625	0.8685
2634	0.8649
2643	0.8611
2652	0.8563
2661	0.8514
2670	0.8462
2679	0.8432
2688	0.8463
2697	0.8547
2706	0.8552
2715	0.8472
2724	0.8439
2733	0.8436
2742	0.8452
2751	0.8447
2760	0.8412
2769	0.834
2778	0.8259
2787	0.8127
2796	0.79
2805	0.7625
2814	0.7336
2823	0.703
2832	0.6648
2841	0.5654
2850	0.187
2859	0.036
2868	0.2131
2877	0.2831
2886	0.2844
2895	0.171
2904	0.0576
2913	0.0027
2922	0.0023
2931	0.0031
2940	0.0438
2949	0.0916
2958	0.0995
2967	0.2488
2976	0.4157
2985	0.5615
2994	0.6707
3003	0.6807
3012	0.6989
3021	0.7598
3030	0.7789
3039	0.7876
3048	0.7928
3057	0.8021
3066	0.8201
3075	0.8275
3084	0.8314
3093	0.834
3102	0.8337
3111	0.8304
3120	0.8233
3129	0.8177
3138	0.8144
3147	0.8133
3156	0.8144
3165	0.817
3174	0.8206
3183	0.8248
3192	0.8291
3201	0.8332
3210	0.8367
3219	0.84
3228	0.8419
3237	0.8437
3246	0.8457
3255	0.8467
3264	0.8477
3273	0.8487
3282	0.8491
3291	0.8486
3300	0.8483
3309	0.8479
3318	0.8477
3327	0.8476
3336	0.8475
3345	0.8473
3354	0.8473
3363	0.8473
3372	0.8474
3381	0.8474
3390	0.8474
3399	0.8474
3408	0.8474
3417	0.8474
3426	0.8474
3435	0.8474
3444	0.8474
3453	0.8481
3462	0.8489
3471	0.8497
3480	0.8505
3489	0.8513
3498	0.8522
3507	0.8529
3516	0.8538
3525	0.8545
3534	0.8552
3543	0.8559
3552	0.8566
3561	0.8573
3570	0.8586
3579	0.8599
3588	0.8613
3597	0.8626
3606	0.8639
3615	0.8651
3624	0.8657
3633	0.866
3642	0.8664
3651	0.8667
3660	0.8666
3669	0.8665
3678	0.8666
3687	0.8678
3696	0.869
3705	0.8706
3714	0.8725
3723	0.8738
3732	0.8734
3741	0.8707
3750	0.8693
3759	0.8688
3768	0.8687
3777	0.8688
3786	0.8689
3795	0.8694
3804	0.8701
