Infrared Spectrum: TOLUENE, 2,5-DIBROMO-Alpha,Alpha,Alpha-TRIFLUORO-
Formula: C7 H3 Br2 F3
CAS: 7657-09-2
State: SOLUTION (10% CCl4 FOR 3800-1335, 10% CS2 FOR 1335-400 CM^-^1)
Class: COBLENTZ III
Instrument: BECKMAN IR-9 (GRATING)
Instrument parameters: ORDER CHANGES: 670, 1200, 2000 CM^-^1
Sampling: TRANSMISSION
Path length: 0.010 CM, 0.012 CM
Resolution: 2
Origin: DOW CHEMICAL COMPANY
1/CM	TRANSMITTANCE
3796	0.8946
3787	0.8949
3778	0.8951
3769	0.8955
3760	0.8963
3751	0.8959
3742	0.896
3733	0.896
3724	0.8973
3715	0.8973
3706	0.8988
3697	0.8989
3688	0.8976
3679	0.8958
3670	0.8966
3661	0.895
3652	0.8948
3643	0.8943
3634	0.8928
3625	0.8924
3616	0.8889
3607	0.8849
3598	0.8787
3589	0.8758
3580	0.8764
3571	0.874
3562	0.8705
3553	0.8675
3544	0.8649
3535	0.8634
3526	0.8601
3517	0.8577
3508	0.8558
3499	0.8536
3490	0.8515
3481	0.8495
3472	0.8474
3463	0.8454
3454	0.844
3445	0.8424
3436	0.8413
3427	0.8396
3418	0.8376
3409	0.8359
3400	0.8353
3391	0.8347
3382	0.8345
3373	0.8347
3364	0.8349
3355	0.8349
3346	0.8352
3337	0.8366
3328	0.8354
3319	0.8355
3310	0.8368
3301	0.8355
3292	0.8354
3283	0.8364
3274	0.8363
3265	0.8357
3256	0.8341
3247	0.8347
3238	0.8343
3229	0.8339
3220	0.8336
3211	0.8322
3202	0.8295
3193	0.8285
3184	0.8222
3175	0.8145
3166	0.8041
3157	0.7959
3148	0.7937
3139	0.7931
3130	0.7899
3121	0.7808
3112	0.7579
3103	0.7496
3094	0.7887
3085	0.7891
3076	0.7998
3067	0.8086
3058	0.8136
3049	0.8139
3040	0.8219
3031	0.8172
3022	0.8149
3013	0.8137
3004	0.8085
2995	0.7994
2986	0.798
2977	0.7996
2968	0.8043
2959	0.8069
2950	0.81
2941	0.8131
2932	0.8184
2923	0.8243
2914	0.8244
2905	0.8202
2896	0.8149
2887	0.8122
2878	0.8092
2869	0.8043
2860	0.8036
2851	0.8036
2842	0.8041
2833	0.8024
2824	0.805
2815	0.8092
2806	0.8135
2797	0.8144
2788	0.8139
2779	0.8158
2770	0.8158
2761	0.8148
2752	0.8143
2743	0.8174
2734	0.818
2725	0.8171
2716	0.8203
2707	0.8269
2698	0.8239
2689	0.8252
2680	0.8297
2671	0.8267
2662	0.8222
2653	0.8222
2644	0.8222
2635	0.8215
2626	0.8223
2617	0.8248
2608	0.8272
2599	0.8295
2590	0.829
2581	0.827
2572	0.8291
2563	0.8314
2554	0.8353
2545	0.839
2536	0.8396
2527	0.84
2518	0.8442
2509	0.8469
2500	0.8456
2491	0.8443
2482	0.8495
2473	0.8524
2464	0.853
2455	0.8538
2446	0.8582
2437	0.8589
2428	0.8596
2419	0.8599
2410	0.8597
2401	0.8616
2392	0.8654
2383	0.8725
2374	0.8775
2365	0.8736
2356	0.875
2347	0.8753
2338	0.8744
2329	0.8759
2320	0.8773
2311	0.8738
2302	0.8704
2293	0.8725
2284	0.8767
2275	0.8791
2266	0.8827
2257	0.8854
2248	0.8883
2239	0.89
2230	0.8908
2221	0.8907
2212	0.8918
2203	0.8928
2194	0.8937
2185	0.8934
2176	0.8954
2167	0.8943
2158	0.8947
2149	0.895
2140	0.8946
2131	0.8907
2122	0.8855
2113	0.8862
2104	0.8884
2095	0.8907
2086	0.8914
2077	0.8915
2068	0.891
2059	0.8897
2050	0.8893
2041	0.8855
2032	0.8827
2023	0.8815
2014	0.8805
2005	0.8796
1996	0.8767
1987	0.8748
1978	0.8716
1969	0.8721
1960	0.874
1951	0.8728
1942	0.8785
1933	0.882
1924	0.874
1915	0.8479
1906	0.871
1897	0.8829
1888	0.8855
1879	0.8883
1870	0.8886
1861	0.8833
1852	0.8794
1843	0.8891
1834	0.8864
1825	0.8853
1816	0.8869
1807	0.8859
1798	0.879
1789	0.8533
1780	0.8577
1771	0.8778
1762	0.887
1753	0.8785
1744	0.8786
1735	0.8839
1726	0.8776
1717	0.8764
1708	0.8642
1699	0.8647
1690	0.8728
1681	0.8737
1672	0.8779
1663	0.8729
1654	0.858
1645	0.838
1636	0.8475
1627	0.8554
1618	0.8494
1609	0.8149
1600	0.7728
1591	0.6708
1582	0.7513
1573	0.7553
1564	0.6975
1555	0.7263
1546	0.8103
1537	0.8642
1528	0.8448
1519	0.839
1510	0.8599
1501	0.8776
1492	0.8678
1483	0.8357
1474	0.5349
1465	0.2537
1456	0.7803
1447	0.7798
1438	0.8189
1429	0.8283
1420	0.7882
1411	0.7207
1402	0.6332
1393	0.0375
1384	0.7388
1375	0.847
1366	0.8766
1357	0.8654
1348	0.8219
1339	0.8072
1330	0.8017
1321	0.6594
1312	0.2309
1303	0.0002
1294	0.2093
1285	0.5532
1276	0.3858
1267	0.5244
1258	0.1975
1249	0.6286
1240	0.7403
1231	0.7259
1222	0.7862
1213	0.7408
1204	0.6976
1195	0.471
1186	0.1654
1177	0.0086
1168	0.2248
1159	0.0025
1150	0.0076
1141	0.2212
1132	0.0733
1123	0.5748
1114	0.677
1105	0.3174
1096	0.4082
1087	0.5735
1078	0.7944
1069	0.8091
1060	0.8021
1051	0.8187
1042	0.7799
1033	0.6255
1024	0.0178
1015	0.7586
1006	0.8747
997	0.8877
988	0.8919
979	0.8907
970	0.8847
961	0.8559
952	0.8614
943	0.8783
934	0.8874
925	0.8915
916	0.8852
907	0.8513
898	0.5732
889	0.5403
880	0.819
871	0.7976
862	0.8038
853	0.8584
844	0.9016
835	0.8292
826	0.3658
817	0.5948
808	0.8502
799	0.8947
790	0.8992
781	0.8985
772	0.8968
763	0.8911
754	0.8895
745	0.894
736	0.8809
727	0.7817
718	0.2549
709	0.848
700	0.869
691	0.877
682	0.879
673	0.9009
664	0.855
655	0.4369
646	0.9152
637	0.9073
628	0.9093
619	0.9001
610	0.8971
601	0.8549
592	0.8875
583	0.9089
574	0.9131
565	0.9085
556	0.898
547	0.8838
538	0.8598
529	0.8033
520	0.5948
511	0.8222
502	0.8466
493	0.8242
484	0.6859
475	0.6146
466	0.7321
457	0.6771
448	0.6285
439	0.6368
430	0.5412
421	0.3629
412	0.2189
