Infrared Spectrum: MUCOBROMIC ACID LACTONE
Formula: C4 H2 Br2 O3
CAS: 766-38-1
State: SOLID (KBr DISC)
Class: COBLENTZ III
Instrument: CARY 90 (GRATING)
Instrument parameters: GRATING CHANGES: 3000, 2000, 1200 CM^-^1
Sampling: TRANSMISSION
Resolution: 2
Origin: WESTERN REGIONAL RES. USDA
1/CM	TRANSMITTANCE
457.276	0.396
466.564	0.413
475.852	0.45
485.14	0.47
494.428	0.482
503.716	0.49
513.004	0.494
522.292	0.494
531.579	0.484
540.867	0.463
550.155	0.452
559.443	0.455
568.731	0.465
578.019	0.486
587.307	0.489
596.595	0.396
605.883	0.469
615.171	0.496
624.459	0.523
633.747	0.53
643.035	0.537
652.323	0.605
661.61	0.637
670.898	0.659
680.186	0.673
689.474	0.661
698.762	0.662
708.05	0.69
717.338	0.665
726.626	0.569
735.914	0.246
745.202	0.272
754.49	0.409
763.778	0.102
773.066	0.68
782.354	0.793
791.641	0.797
800.929	0.791
810.217	0.782
819.505	0.769
828.793	0.727
838.081	0.611
847.369	0.2229
856.657	0.131
865.945	0.76
875.233	0.802
884.521	0.794
893.809	0.777
903.097	0.739
912.385	0.65
921.672	0.487
930.96	0.197
940.248	0.224
949.536	0.306
958.824	0.56
968.112	0.693
977.4	0.643
986.688	0.431
995.976	0.15
1005.26	0.058
1014.55	0.53
1023.84	0.693
1033.13	0.741
1042.42	0.763
1051.7	0.758
1060.99	0.737
1070.28	0.668
1079.57	0.537
1088.86	0.2109
1098.14	0.389
1107.43	0.606
1116.72	0.627
1126.01	0.556
1135.29	0.355
1144.58	0.07
1153.87	0.067
1163.16	0.491
1172.45	0.71
1181.73	0.745
1191.02	0.709
1200.31	0.6
1209.6	0.347
1218.89	0.113
1228.17	0.241
1237.46	0.584
1246.75	0.696
1256.04	0.555
1265.33	0.35
1274.61	0.309
1283.9	0.489
1293.19	0.677
1302.48	0.751
1311.77	0.754
1321.05	0.656
1330.34	0.376
1339.63	0.601
1348.92	0.817
1358.21	0.895
1367.49	0.929
1376.78	0.918
1386.07	0.893
1395.36	0.882
1404.64	0.866
1413.93	0.856
1423.22	0.838
1432.51	0.779
1441.8	0.661
1451.08	0.537
1460.37	0.739
1469.66	0.87
1478.95	0.901
1488.24	0.924
1497.52	0.936
1506.81	0.94
1516.1	0.945
1525.39	0.947
1534.68	0.95
1543.96	0.953
1553.25	0.951
1562.54	0.94
1571.83	0.918
1581.12	0.883
1590.4	0.82
1599.69	0.823
1608.98	0.718
1618.27	0.403
1627.56	0.1171
1636.84	0.774
1646.13	0.846
1655.42	0.866
1664.71	0.86
1673.99	0.83
1683.28	0.806
1692.57	0.756
1701.86	0.709
1711.15	0.576
1720.43	0.563
1729.72	0.408
1739.01	0.215
1748.3	0.01
1757.59	0.011
1766.87	0.003
1776.16	0.087
1785.45	0.337
1794.74	0.511
1804.03	0.609
1813.31	0.769
1822.6	0.866
1831.89	0.968
1841.18	1.006
1850.47	1.019
1859.75	1.03
1869.04	1.038
1878.33	1.044
1887.62	1.047
1896.9	1.047
1906.19	1.044
1915.48	1.043
1924.77	1.031
1934.06	1.025
1943.34	1.036
1952.63	1.044
1961.92	1.044
1971.21	1.038
1980.5	1.026
1989.78	0.996
1999.07	0.951
2008.36	1.0015
2017.65	1.0069
2026.94	1.008
2036.22	1.0056
2045.51	1.0026
2054.8	0.9962
2064.09	0.9878
2073.38	0.9708
2082.66	0.9678
2091.95	0.9848
2101.24	0.9953
2110.53	1
2119.82	1.001
2129.1	1.0023
2138.39	1.003
2147.68	1.003
2156.97	1.0033
2166.25	1.004
2175.54	1.004
2184.83	1.004
2194.12	1.004
2203.41	1.0028
2212.69	1.001
2221.98	0.998
2231.27	0.994
2240.56	0.991
2249.85	0.9889
2259.13	0.9858
2268.42	0.9819
2277.71	0.9736
2287	0.9671
2296.29	0.9751
2305.57	0.9801
2314.86	0.983
2324.15	0.983
2333.44	0.983
2342.73	0.983
2352.01	0.983
2361.3	0.983
2370.59	0.982
2379.88	0.981
2389.17	0.979
2398.45	0.975
2407.74	0.972
2417.03	0.9671
2426.32	0.965
2435.6	0.9611
2444.89	0.959
2454.18	0.959
2463.47	0.958
2472.76	0.958
2482.04	0.956
2491.33	0.955
2500.62	0.9522
2509.91	0.9502
2519.2	0.9453
2528.48	0.939
2537.77	0.9397
2547.06	0.9437
2556.35	0.9494
2565.64	0.952
2574.92	0.954
2584.21	0.954
2593.5	0.954
2602.79	0.953
2612.08	0.951
2621.36	0.95
2630.65	0.947
2639.94	0.9434
2649.23	0.9375
2658.52	0.932
2667.8	0.926
2677.09	0.918
2686.38	0.9105
2695.67	0.8956
2704.95	0.8865
2714.24	0.8894
2723.53	0.9004
2732.82	0.905
2742.11	0.908
2751.39	0.909
2760.68	0.909
2769.97	0.909
2779.26	0.908
2788.55	0.908
2797.83	0.908
2807.12	0.906
2816.41	0.904
2825.7	0.8994
2834.99	0.8892
2844.27	0.8757
2853.56	0.8608
2862.85	0.8508
2872.14	0.8356
2881.43	0.8112
2890.71	0.8042
2900	0.8136
2909.29	0.8198
2918.58	0.8118
2927.87	0.8019
2937.15	0.8083
2946.44	0.8147
2955.73	0.7905
2965.02	0.7371
2974.3	0.8311
2983.59	0.836
2992.88	0.832
3002.17	0.825
3011.46	0.817
3020.74	0.81
3030.03	0.804
3039.32	0.7971
3048.61	0.787
3057.9	0.7801
3067.18	0.7651
3076.47	0.7601
3085.76	0.7473
3095.05	0.7413
3104.34	0.7302
3113.62	0.7174
3122.91	0.7043
3132.2	0.6915
3141.49	0.6767
3150.78	0.6654
3160.06	0.6504
3169.35	0.6336
3178.64	0.6167
3187.93	0.598
3197.22	0.578
3206.5	0.5573
3215.79	0.5354
3225.08	0.5125
3234.37	0.4875
3243.65	0.4596
3252.94	0.4326
3262.23	0.4057
3271.52	0.3761
3280.81	0.341
3290.09	0.3175
3299.38	0.2996
3308.67	0.2754
3317.96	0.2537
3327.25	0.2342
3336.53	0.2174
3345.82	0.1992
3355.11	0.194
3364.4	0.196
3373.69	0.199
3382.97	0.2055
3392.26	0.2134
3401.55	0.2245
3410.84	0.2393
3420.13	0.2584
3429.41	0.2905
3438.7	0.3204
3447.99	0.3631
3457.28	0.403
3466.56	0.4428
3475.85	0.4824
3485.14	0.519
3494.43	0.5469
3503.72	0.586
3513	0.6372
3522.29	0.6962
3531.58	0.7289
3540.87	0.7605
3550.16	0.7869
3559.44	0.8089
3568.73	0.8278
3578.02	0.8444
3587.31	0.8594
3596.6	0.8723
3605.88	0.8822
3615.17	0.8944
3624.46	0.9083
3633.75	0.9121
3643.04	0.9181
3652.32	0.9241
3661.61	0.929
3670.9	0.9311
3680.19	0.933
3689.48	0.933
3698.76	0.933
3708.05	0.933
3717.34	0.934
3726.63	0.934
3735.91	0.936
3745.2	0.936
3754.49	0.933
3763.78	0.9272
3773.07	0.9182
3782.35	0.9101
3791.64	0.906
3800.93	0.906
3810.22	0.909
3819.51	0.9108
3828.79	0.911
3838.08	0.911
3847.37	0.91
3856.66	0.906
3865.95	0.903
3875.23	0.9
3884.52	0.896
3893.81	0.893
3903.1	0.889
3912.39	0.886
3921.67	0.8813
3930.96	0.8776
3940.25	0.8743
3949.54	0.8707
3958.83	0.8667
3968.11	0.865
3977.4	0.862
3986.69	0.86
3995.98	0.8584
4005.26	0.8554
