Infrared Spectrum: 1-ETHYL PIPERIDINE
Formula: C7 H15 N
CAS: 766-09-6
State: LIQUID
Boiling point: 128-130 C
Class: COBLENTZ
Instrument: Not specified, most likely a prism, grating, or hybrid spectrometer.
Sampling: TRANSMISSION
Path length: 0.003 CM
Resolution: 4
Origin: WYANDOTTE CHEMICALS CORP., WYANDOTTE, MICHIGAN, USA
MICROMETERS	TRANSMITTANCE
2.127	1.004
2.16697	0.993
2.20695	0.956
2.24692	0.941
2.28689	0.943
2.32687	0.95
2.36684	0.946
2.40681	0.941
2.44679	0.946
2.48676	0.956
2.52673	0.975
2.56671	0.976
2.60668	0.975
2.64665	0.985
2.68663	0.965
2.7266	0.971
2.76657	0.95
2.80655	0.903
2.84652	0.864
2.88649	0.83
2.92647	0.817
2.96644	0.8
3.00641	0.8
3.04639	0.822
3.08636	0.822
3.12633	0.822
3.16631	0.837
3.20628	0.86
3.24625	0.854
3.28623	0.545
3.3262	0.228
3.36617	0.014
3.40615	0.033
3.44612	0.102
3.48609	0.149
3.52607	0.276
3.56604	0.056
3.60601	0.044
3.64599	0.087
3.68596	0.286
3.72593	0.348
3.76591	0.575
3.80588	0.731
3.84585	0.736
3.88583	0.834
3.9258	0.908
3.96577	0.908
4.00575	0.923
4.04572	0.925
4.08569	0.94
4.12567	0.955
4.16564	0.948
4.20561	0.932
4.24559	0.958
4.28556	0.98
4.32553	0.988
4.36551	0.975
4.40548	0.948
4.44545	0.951
4.48543	0.955
4.5254	0.948
4.56537	0.956
4.60535	0.958
4.64532	0.956
4.68529	0.953
4.72527	0.97
4.76524	0.97
4.80521	0.98
4.84519	0.965
4.88516	0.951
4.92513	0.973
4.96511	0.976
5.00508	0.963
5.04505	0.963
5.08503	0.973
5.125	0.975
5.16497	0.978
5.20495	0.973
5.24492	0.961
5.28489	0.95
5.32487	0.976
5.36484	0.978
5.40481	0.96
5.44479	0.968
5.48476	0.98
5.52473	0.975
5.56471	0.965
5.60468	0.978
5.64465	0.973
5.68462	0.975
5.7246	0.976
5.76457	0.965
5.80454	0.961
5.84452	0.948
5.88449	0.917
5.92446	0.9
5.96444	0.898
6.00441	0.9
6.04438	0.92
6.08436	0.927
6.12433	0.932
6.1643	0.941
6.20428	0.936
6.24425	0.953
6.28422	0.946
6.3242	0.945
6.36417	0.95
6.40414	0.945
6.44412	0.94
6.48409	0.927
6.52406	0.908
6.56404	0.915
6.60401	0.885
6.64398	0.844
6.68396	0.711
6.72393	0.525
6.7639	0.464
6.80388	0.368
6.84385	0.142
6.88382	0.207
6.9238	0.524
6.96377	0.703
7.00374	0.736
7.04372	0.744
7.08369	0.65
7.12366	0.49
7.16364	0.394
7.20361	0.184
7.24358	0.5
7.28356	0.552
7.32353	0.575
7.3635	0.326
7.40348	0.33
7.44345	0.678
7.48342	0.507
7.5234	0.572
7.56337	0.464
7.60334	0.124
7.64332	0.326
7.68329	0.578
7.72326	0.57
7.76324	0.636
7.80321	0.587
7.84318	0.447
7.88316	0.464
7.92313	0.411
7.9631	0.673
8.00308	0.577
8.04305	0.358
8.08302	0.351
8.123	0.563
8.16297	0.736
8.20294	0.81
8.24292	0.84
8.28289	0.844
8.32286	0.832
8.36284	0.819
8.40281	0.786
8.44278	0.708
8.48276	0.577
8.52273	0.48
8.5627	0.223
8.60268	0.112
8.64265	0.205
8.68262	0.121
8.7226	0.106
8.76257	0.137
8.80254	0.336
8.84252	0.593
8.88249	0.499
8.92246	0.684
8.96244	0.691
9.00241	0.467
9.04238	0.213
9.08236	0.275
9.12233	0.56
9.1623	0.466
9.20228	0.519
9.24225	0.719
9.28222	0.749
9.3222	0.749
9.36217	0.729
9.40214	0.746
9.44212	0.65
9.48209	0.444
9.52206	0.232
9.56204	0.21
9.60201	0.512
9.64198	0.693
9.68196	0.771
9.72193	0.757
9.7619	0.606
9.80188	0.459
9.84185	0.696
9.88182	0.807
9.9218	0.85
9.96177	0.822
10.0017	0.847
10.0417	0.89
10.0817	0.905
10.1217	0.913
10.1616	0.918
10.2016	0.915
10.2416	0.908
10.2816	0.893
10.3215	0.817
10.3615	0.761
10.4015	0.865
10.4414	0.893
10.4814	0.893
10.5214	0.882
10.5614	0.864
10.6013	0.822
10.6413	0.593
10.6813	0.371
10.7213	0.529
10.7612	0.737
10.8012	0.822
10.8412	0.862
10.8812	0.87
10.9211	0.85
10.9611	0.839
11.0011	0.792
11.041	0.84
11.081	0.882
11.121	0.908
11.161	0.915
11.2009	0.92
11.2409	0.922
11.2809	0.918
11.3209	0.923
11.3608	0.915
11.4008	0.913
11.4408	0.892
11.4808	0.847
11.5207	0.761
11.5607	0.62
11.6007	0.645
11.6406	0.754
11.6806	0.769
11.7206	0.706
11.7606	0.729
11.8005	0.839
11.8405	0.88
11.8805	0.92
11.9205	0.922
11.9604	0.928
12.0004	0.925
12.0404	0.936
12.0804	0.928
12.1203	0.927
12.1603	0.923
12.2003	0.923
12.2402	0.917
12.2802	0.898
12.3202	0.88
12.3602	0.855
12.4001	0.819
12.4401	0.81
12.4801	0.822
12.5201	0.832
12.56	0.842
12.6	0.865
12.64	0.877
12.68	0.878
12.7199	0.873
12.7599	0.864
12.7999	0.859
12.8398	0.85
12.8798	0.825
12.9198	0.796
12.9598	0.734
12.9997	0.62
13.0397	0.472
13.0797	0.275
13.1197	0.2
13.1596	0.29
13.1996	0.457
13.2396	0.585
13.2796	0.656
13.3195	0.699
13.3595	0.751
13.3995	0.792
13.4394	0.834
13.4794	0.844
13.5194	0.868
13.5594	0.887
13.5993	0.895
13.6393	0.902
13.6793	0.903
13.7193	0.907
13.7592	0.917
13.7992	0.922
13.8392	0.92
13.8792	0.92
13.9191	0.923
13.9591	0.925
13.9991	0.927
14.039	0.923
14.079	0.93
14.119	0.925
14.159	0.923
14.1989	0.925
14.2389	0.928
14.2789	0.917
14.3189	0.92
14.3588	0.918
14.3988	0.927
14.4388	0.923
14.4788	0.917
14.5187	0.92
14.5587	0.925
14.5987	0.915
14.6386	0.917
14.6786	0.917
14.7186	0.915
14.7586	0.91
14.7985	0.91
14.8385	0.907
14.8785	0.908
14.9185	0.902
14.9584	0.892
14.9984	0.877
15.0384	0.877
15.0784	0.89
15.1183	0.892
15.1583	0.89
15.1983	0.885
15.2382	0.878
15.2782	0.878
15.3182	0.875
15.3582	0.865
15.3981	0.862
15.4381	0.86
15.4781	0.86
15.5181	0.852
15.558	0.849
15.598	0.84
15.638	0.837
15.678	0.832
15.7179	0.822
15.7579	0.817
15.7979	0.819
15.8378	0.815
15.8778	0.81
15.9178	0.807
15.9578	0.796
15.9977	0.809
16.0377	0.802
