Infrared Spectrum: P-HYDROXYBENZONITRILE
Formula: C7 H5 N O
CAS: 767-00-0
State: SOLUTION (ETHYL ETHER)
Class: COBLENTZ
Instrument: Not specified, most likely a prism, grating, or hybrid spectrometer.
Sampling: TRANSMISSION
Path length: 0.0200 CM
Resolution: 4
Origin: BATTELLE MEMORIAL INSTITUTE (R. JAKOBSEN)
1/CM	TRANSMITTANCE
296.154	0.317
297.082	0.342
298.011	0.356
298.939	0.38
299.868	0.397
300.796	0.396
301.724	0.413
302.653	0.437
303.581	0.433
304.509	0.435
305.438	0.52
306.366	0.568
307.295	0.598
308.223	0.648
309.151	0.669
310.08	0.694
311.008	0.708
311.936	0.73
312.865	0.742
313.793	0.743
314.722	0.718
315.65	0.726
316.578	0.719
317.507	0.709
318.435	0.718
319.364	0.714
320.292	0.721
321.22	0.721
322.149	0.718
323.077	0.723
324.005	0.69
324.934	0.682
325.862	0.705
326.791	0.701
327.719	0.69
328.647	0.689
329.576	0.702
330.504	0.891
331.432	0.906
332.361	0.899
333.289	0.907
334.218	0.915
335.146	0.918
336.074	0.904
337.003	0.923
337.931	0.924
338.86	0.923
339.788	0.931
340.716	0.902
341.645	0.914
342.573	0.929
343.501	0.922
344.43	0.957
345.358	0.931
346.287	0.982
347.215	0.953
348.143	0.943
349.072	0.936
350	0.926
350.929	0.911
351.857	0.911
352.785	0.9
353.714	0.904
354.642	0.985
355.57	0.907
356.499	0.944
357.427	0.943
358.356	0.996
359.284	1.002
360.212	0.997
361.141	0.993
362.069	0.993
362.997	0.99
363.926	0.981
364.854	0.977
365.783	0.973
366.711	0.961
367.639	0.953
368.568	0.932
369.496	0.929
370.425	0.929
371.353	0.928
372.281	0.923
373.21	0.915
374.138	0.891
375.066	0.871
375.995	0.865
376.923	0.863
377.852	0.862
378.78	0.858
379.708	0.858
380.637	0.861
381.565	0.862
382.493	0.865
383.422	0.865
384.35	0.877
385.279	0.89
386.207	0.898
387.135	0.911
388.064	0.918
388.992	0.927
389.921	0.932
390.849	0.935
391.777	0.94
392.706	0.949
393.634	0.953
394.562	0.952
395.491	0.959
396.419	0.963
397.348	0.966
398.276	0.969
399.204	0.977
400.133	0.98
401.061	0.98
401.989	0.981
402.918	0.984
403.846	0.99
404.775	0.99
405.703	0.99
406.631	0.982
407.56	0.974
408.488	0.963
409.417	0.951
410.345	0.939
411.273	0.935
412.202	0.922
413.13	0.902
414.058	0.878
414.987	0.873
415.915	0.873
416.844	0.875
417.772	0.885
418.7	0.895
419.629	0.903
420.557	0.908
421.485	0.91
422.414	0.914
423.342	0.92
424.271	0.936
425.199	0.936
426.127	0.933
427.056	0.931
427.984	0.914
428.913	0.902
429.841	0.895
430.769	0.889
431.698	0.881
432.626	0.865
433.554	0.845
434.483	0.816
435.411	0.799
436.34	0.772
437.268	0.741
438.196	0.721
439.125	0.71
440.053	0.706
440.981	0.705
441.91	0.706
442.838	0.71
443.767	0.749
444.695	0.772
445.623	0.789
446.552	0.819
447.48	0.842
448.409	0.865
449.337	0.875
450.265	0.883
451.194	0.891
452.122	0.9
453.05	0.911
453.979	0.926
454.907	0.939
455.836	0.947
456.764	0.955
457.692	0.961
458.621	0.961
459.549	0.966
460.478	0.968
461.406	0.97
462.334	0.98
463.263	0.99
464.191	0.99
465.119	0.994
466.048	1.003
466.976	1.007
467.905	1.001
468.833	0.998
469.761	0.994
470.69	0.99
471.618	0.992
472.546	0.992
473.475	0.992
474.403	0.989
475.332	0.988
476.26	0.988
477.188	0.988
478.117	0.986
479.045	0.981
479.974	0.98
480.902	0.976
481.83	0.973
482.759	0.97
483.687	0.968
484.615	0.964
485.544	0.961
486.472	0.96
487.401	0.959
488.329	0.957
489.257	0.952
490.186	0.952
491.114	0.951
492.042	0.949
492.971	0.948
493.899	0.924
494.828	0.914
495.756	0.903
496.684	0.891
497.613	0.879
498.541	0.866
499.47	0.852
500.398	0.848
501.326	0.848
502.255	0.844
503.183	0.841
504.111	0.838
505.04	0.84
505.968	0.852
506.897	0.869
507.825	0.882
508.753	0.899
509.682	0.906
510.61	0.915
511.538	0.92
512.467	0.929
513.395	0.943
514.324	0.951
515.252	0.956
516.18	0.96
517.109	0.964
518.037	0.965
518.966	0.968
519.894	0.974
520.822	0.976
521.751	0.981
522.679	0.984
523.607	0.982
524.536	0.984
525.464	0.984
526.393	0.978
527.321	0.976
528.249	0.968
529.178	0.961
530.106	0.952
531.034	0.945
531.963	0.939
532.891	0.922
533.82	0.895
534.748	0.866
535.676	0.841
536.605	0.811
537.533	0.763
538.462	0.702
539.39	0.628
540.318	0.569
541.247	0.523
542.175	0.45
543.103	0.335
544.032	0.211
544.96	0.153
545.889	0.101
546.817	0.064
547.745	0.054
548.674	0.071
549.602	0.088
550.53	0.121
551.459	0.142
552.387	0.211
553.316	0.307
554.244	0.412
555.172	0.479
556.101	0.564
557.029	0.639
557.958	0.694
558.886	0.727
559.814	0.751
560.743	0.77
561.671	0.782
562.599	0.804
563.528	0.825
564.456	0.834
565.385	0.84
566.313	0.846
567.241	0.853
568.17	0.859
569.098	0.862
570.027	0.861
570.955	0.861
571.883	0.861
572.812	0.861
573.74	0.863
574.668	0.866
575.597	0.866
576.525	0.87
577.454	0.874
578.382	0.877
579.31	0.879
580.239	0.879
581.167	0.878
582.095	0.875
583.024	0.878
583.952	0.878
584.881	0.874
585.809	0.871
586.737	0.867
587.666	0.865
588.594	0.863
589.523	0.861
590.451	0.859
591.379	0.858
592.308	0.854
593.236	0.85
594.164	0.849
595.093	0.844
596.021	0.837
596.95	0.838
597.878	0.838
598.806	0.838
599.735	0.84
600.663	0.84
601.591	0.838
602.52	0.837
603.448	0.833
604.377	0.828
605.305	0.828
606.233	0.829
607.162	0.828
608.09	0.819
609.019	0.819
609.947	0.815
610.875	0.815
611.804	0.811
612.732	0.805
613.66	0.801
614.589	0.799
615.517	0.795
616.446	0.795
617.374	0.791
618.302	0.788
619.231	0.784
620.159	0.783
621.087	0.783
622.016	0.78
622.944	0.779
623.873	0.772
624.801	0.764
625.729	0.759
626.658	0.752
627.586	0.75
628.515	0.749
629.443	0.743
630.371	0.742
631.3	0.741
632.228	0.741
633.156	0.738
634.085	0.735
635.013	0.73
635.942	0.729
636.87	0.727
637.798	0.719
638.727	0.717
639.655	0.717
640.583	0.712
641.512	0.705
642.44	0.697
643.369	0.69
644.297	0.685
645.225	0.681
646.154	0.676
647.082	0.668
648.011	0.652
648.939	0.649
649.867	0.647
650.796	0.644
651.724	0.643
652.652	0.649
653.581	0.656
654.509	0.663
655.438	0.664
656.366	0.664
657.294	0.667
658.223	0.667
659.151	0.664
