Infrared Spectrum: ANILINE, N-ISOPROPYL-,
Formula: C9 H13 N
CAS: 768-52-5
State: LIQUID (NEAT)
Class: COBLENTZ III
Instrument: BECKMAN IR-4 (HYBRID PRISM-GRATING)
Instrument parameters: NaCl PRISM
Sampling: TRANSMISSION
Path length: CAPILLARY
Resolution: 2
Origin: MONSANTO (J. FREEMAN)
1/CM	TRANSMITTANCE
3857.28	0.9034
3848.67	0.9034
3840.05	0.9035
3831.44	0.9037
3822.82	0.9038
3814.21	0.904
3805.59	0.9041
3796.98	0.9043
3788.36	0.9043
3779.75	0.9045
3771.13	0.9045
3762.52	0.9047
3753.91	0.9048
3745.29	0.9048
3736.68	0.9049
3728.06	0.905
3719.45	0.9051
3710.83	0.9052
3702.22	0.9052
3693.6	0.9052
3684.99	0.9052
3676.37	0.9052
3667.76	0.9052
3659.15	0.9051
3650.53	0.9051
3641.92	0.9051
3633.3	0.9048
3624.69	0.9045
3616.07	0.9042
3607.46	0.9038
3598.84	0.9036
3590.23	0.9033
3581.61	0.9028
3573	0.9025
3564.39	0.9012
3555.77	0.8999
3547.16	0.8987
3538.54	0.8966
3529.93	0.8935
3521.31	0.8904
3512.7	0.8871
3504.08	0.8817
3495.47	0.8716
3486.85	0.8615
3478.24	0.8542
3469.63	0.8472
3461.01	0.8332
3452.4	0.7848
3443.78	0.7568
3435.17	0.7285
3426.55	0.7001
3417.94	0.6715
3409.32	0.6428
3400.71	0.614
3392.09	0.585
3383.48	0.5559
3374.87	0.5365
3366.25	0.5374
3357.64	0.5869
3349.02	0.6441
3340.41	0.7015
3331.79	0.7591
3323.18	0.8114
3314.56	0.8345
3305.95	0.8458
3297.33	0.8571
3288.72	0.8679
3280.11	0.8792
3271.49	0.8891
3262.88	0.8973
3254.26	0.9009
3245.65	0.9021
3237.03	0.9028
3228.42	0.903
3219.8	0.9021
3211.19	0.9014
3202.57	0.9008
3193.96	0.9003
3185.35	0.8998
3176.73	0.8993
3168.12	0.8987
3159.5	0.8964
3150.89	0.893
3142.27	0.8855
3133.66	0.8676
3125.04	0.8493
3116.43	0.7988
3107.81	0.7723
3099.2	0.7381
3090.59	0.7038
3081.97	0.6693
3073.36	0.6346
3064.74	0.5997
3056.13	0.5645
3047.51	0.5393
3038.9	0.5404
3030.28	0.5467
3021.67	0.553
3013.05	0.5588
3004.44	0.5588
2995.83	0.5121
2987.21	0.4542
2978.6	0.3961
2969.98	0.3376
2961.37	0.2911
2952.75	0.2912
2944.14	0.3177
2935.52	0.3679
2926.91	0.4184
2918.29	0.4535
2909.68	0.4632
2901.07	0.4872
2892.45	0.5262
2883.84	0.5341
2875.22	0.5408
2866.61	0.5508
2857.99	0.6097
2849.38	0.8169
2840.76	0.8334
2832.15	0.847
2823.53	0.8616
2814.92	0.8764
2806.31	0.8892
2797.69	0.8951
2789.08	0.8968
2780.46	0.8994
2771.85	0.9027
2763.23	0.9067
2754.62	0.9106
2746	0.9145
2737.39	0.9184
2728.78	0.9207
2720.16	0.9225
2711.55	0.9211
2702.93	0.9193
2694.32	0.9174
2685.7	0.9146
2677.09	0.9119
2668.47	0.9096
2659.86	0.9077
2651.24	0.9068
2642.63	0.9072
2634.02	0.9088
2625.4	0.9099
2616.79	0.9082
2608.17	0.9022
2599.56	0.8934
2590.94	0.8891
2582.33	0.8888
2573.71	0.9035
2565.1	0.919
2556.48	0.9271
2547.87	0.9333
2539.26	0.9351
2530.64	0.9364
2522.03	0.9377
2513.41	0.9391
2504.8	0.9404
2496.18	0.9417
2487.57	0.9425
2478.95	0.9436
2470.34	0.9454
2461.72	0.9474
2453.11	0.9478
2444.5	0.9479
2435.88	0.9457
2427.27	0.9436
2418.65	0.9427
2410.04	0.9444
2401.42	0.9466
2392.81	0.948
2384.19	0.9479
2375.58	0.9457
2366.96	0.9446
2358.35	0.9434
2349.74	0.9435
2341.12	0.9439
2332.51	0.9446
2323.89	0.946
2315.28	0.9475
2306.66	0.9489
2298.05	0.9505
2289.43	0.952
2280.82	0.9535
2272.2	0.9549
2263.59	0.9553
2254.98	0.9556
2246.36	0.9559
2237.75	0.9559
2229.13	0.9559
2220.52	0.9563
2211.9	0.9567
2203.29	0.9562
2194.67	0.9552
2186.06	0.9535
2177.44	0.9518
2168.83	0.9504
2160.22	0.949
2151.6	0.948
2142.99	0.9471
2134.37	0.9462
2125.76	0.9465
2117.14	0.9498
2108.53	0.9527
2099.91	0.9553
2091.3	0.9567
2082.68	0.9578
2074.07	0.9571
2065.46	0.9568
2056.84	0.9563
2048.23	0.956
2039.61	0.9556
2031	0.9552
2022.38	0.9549
2013.77	0.9545
2005.15	0.9532
1996.54	0.9518
1987.92	0.9504
1979.31	0.9465
1970.7	0.9404
1962.08	0.9309
1953.47	0.911
1944.85	0.8952
1936.24	0.8768
1927.62	0.8671
1919.01	0.8765
1910.39	0.9171
1901.78	0.9361
1893.16	0.939
1884.55	0.9399
1875.94	0.9394
1867.32	0.9375
1858.71	0.9229
1850.09	0.9035
1841.48	0.8901
1832.86	0.8831
1824.25	0.8857
1815.63	0.9168
1807.02	0.9356
1798.4	0.9383
1789.79	0.9335
1781.18	0.9244
1772.56	0.9175
1763.95	0.9267
1755.33	0.942
1746.72	0.9477
1738.1	0.9487
1729.49	0.9472
1720.87	0.9299
1712.26	0.9101
1703.64	0.8896
1695.03	0.8683
1686.42	0.864
1677.8	0.8668
1669.19	0.8617
1660.57	0.8272
1651.96	0.791
1643.34	0.7659
1634.73	0.7116
1626.11	0.5745
1617.5	0.3331
1608.88	0.1757
1600.27	0.103
1591.66	0.272
1583.04	0.4822
1574.43	0.7012
1565.81	0.7521
1557.2	0.7598
1548.58	0.7165
1539.97	0.6457
1531.35	0.4597
1522.74	0.2378
1514.12	0.1625
1505.51	0.1287
1496.9	0.2414
1488.28	0.4076
1479.67	0.5124
1471.05	0.4709
1462.44	0.4415
1453.82	0.5894
1445.21	0.6558
1436.59	0.545
1427.98	0.4057
1419.36	0.6423
1410.75	0.7422
1402.14	0.7537
1393.52	0.6352
1384.91	0.3472
1376.29	0.5848
1367.68	0.4189
1359.06	0.6859
1350.45	0.6098
1341.83	0.4824
1333.22	0.4057
1324.6	0.2411
1315.99	0.186
1307.38	0.3573
1298.76	0.5562
1290.15	0.7084
1281.53	0.673
1272.92	0.6564
1264.3	0.5596
1255.69	0.2152
1247.07	0.4313
1238.46	0.7196
1229.84	0.8133
1221.23	0.8258
1212.62	0.809
1204	0.7709
1195.39	0.6758
1186.77	0.4243
1178.16	0.195
1169.54	0.3091
1160.93	0.486
1152.31	0.3991
1143.7	0.5515
1135.08	0.6998
1126.47	0.5945
1117.86	0.5998
1109.24	0.807
1100.63	0.9001
1092.01	0.9233
1083.4	0.9069
1074.78	0.69
1066.17	0.9206
1057.55	0.9491
1048.94	0.9525
1040.32	0.9336
1031.71	0.7111
1023.1	0.8519
1014.48	0.9456
1005.87	0.9274
997.252	0.6718
988.638	0.8149
980.023	0.8652
971.409	0.8443
962.794	0.8825
954.179	0.8875
945.565	0.8619
936.95	0.8887
928.336	0.8744
919.721	0.8775
911.107	0.9193
902.492	0.9259
893.878	0.9196
885.263	0.8955
876.649	0.7867
868.034	0.6009
859.419	0.7205
850.805	0.7106
842.19	0.8377
833.576	0.8545
824.961	0.8318
816.347	0.8032
807.732	0.826
799.118	0.8541
790.503	0.8518
781.889	0.8321
773.274	0.769
764.659	0.6537
756.045	0.3251
747.43	0.1128
738.816	0.3524
730.201	0.6904
721.587	0.7577
712.972	0.7412
704.358	0.6581
695.743	0.27
687.129	0.3441
678.514	0.675
669.9	0.6906
661.285	0.7072
652.67	0.7126
644.056	0.7176
635.441	0.7151
