Infrared Spectrum: Nicotinic acid, propyl ester
Formula: C9 H11 N O2
CAS: 7681-15-4
State: LIQUID (NEAT)
Class: COBLENTZ
Instrument: PERKIN-ELMER 21 (GRATING)
Instrument parameters: NaCl PRISM
Sampling: TRANSMISSION
Path length: CAPILLARY
Resolution: 2
Origin: SMITH, KLINE & FRENCH LABS.
1/CM	TRANSMITTANCE
653	0.8145
662	0.8389
671	0.8469
680	0.8658
689	0.8165
698	0.5609
707	0.839
716	0.8967
725	0.8621
734	0.5207
743	0.5683
752	0.8699
761	0.9291
770	0.9459
779	0.9559
788	0.9541
797	0.9603
806	0.9387
815	0.8919
824	0.8603
833	0.9075
842	0.8651
851	0.8527
860	0.9417
869	0.9578
878	0.9524
887	0.9586
896	0.9377
905	0.8455
914	0.7572
923	0.9112
932	0.9215
941	0.9313
950	0.9423
959	0.9319
968	0.9251
977	0.9354
986	0.926
995	0.9167
1004	0.8816
1013	0.6916
1022	0.7362
1031	0.8729
1040	0.9107
1049	0.9091
1058	0.8884
1067	0.8427
1076	0.6968
1085	0.465
1094	0.1965
1103	0.3369
1112	0.5112
1121	0.4427
1130	0.5572
1139	0.6422
1148	0.8041
1157	0.844
1166	0.8008
1175	0.694
1184	0.7393
1193	0.8901
1202	0.8975
1211	0.8717
1220	0.8112
1229	0.7913
1238	0.7684
1247	0.7841
1256	0.6579
1265	0.2051
1274	0.1066
1283	0.2959
1292	0.6194
1301	0.7795
1310	0.7843
1319	0.6773
1328	0.7561
1337	0.7092
1346	0.6779
1355	0.7895
1364	0.6249
1373	0.7569
1382	0.833
1391	0.8638
1400	0.7904
1409	0.6045
1418	0.7917
1427	0.8604
1436	0.8406
1445	0.7815
1454	0.7661
1463	0.755
1472	0.8486
1481	0.9102
1490	0.9265
1499	0.9314
1508	0.9339
1517	0.935
1526	0.9346
1535	0.9351
1544	0.9208
1553	0.9155
1562	0.8309
1571	0.7928
1580	0.4561
1589	0.8195
1598	0.913
1607	0.9209
1616	0.9197
1625	0.9148
1634	0.9033
1643	0.8927
1652	0.8848
1661	0.84
1670	0.836
1679	0.8214
1688	0.6419
1697	0.2371
1706	0.1196
1715	0.3588
1724	0.6364
1733	0.7922
1742	0.8535
1751	0.9042
1760	0.9201
1769	0.9268
1778	0.9301
1787	0.9319
1796	0.9359
1805	0.9383
1814	0.9382
1823	0.9381
1832	0.938
1841	0.9385
1850	0.9391
1859	0.9392
1868	0.9386
1877	0.9377
1886	0.9362
1895	0.9352
1904	0.9358
1913	0.9365
1922	0.9351
1931	0.9303
1940	0.93
1949	0.9312
1958	0.933
1967	0.9303
1976	0.9305
1985	0.9323
1994	0.9399
2003	0.9404
2012	0.9405
2021	0.9404
2030	0.9396
2039	0.9389
2048	0.9378
2057	0.9368
2066	0.9363
2075	0.9357
2084	0.9352
2093	0.9346
2102	0.9341
2111	0.9342
2120	0.9366
2129	0.9383
2138	0.9392
2147	0.939
2156	0.9388
2165	0.9377
2174	0.9368
2183	0.9361
2192	0.9353
2201	0.9343
2210	0.9337
2219	0.934
2228	0.9342
2237	0.9344
2246	0.9346
2255	0.9347
2264	0.9349
2273	0.935
2282	0.9351
2291	0.9357
2300	0.9376
2309	0.939
2318	0.9389
2327	0.9383
2336	0.9376
2345	0.937
2354	0.9365
2363	0.9358
2372	0.9355
2381	0.9353
2390	0.9352
2399	0.9351
2408	0.9347
2417	0.9344
2426	0.934
2435	0.9337
2444	0.9332
2453	0.9325
2462	0.9317
2471	0.9309
2480	0.9302
2489	0.9304
2498	0.9306
2507	0.9308
2516	0.9315
2525	0.932
2534	0.9317
2543	0.9312
2552	0.93
2561	0.9316
2570	0.9352
2579	0.9376
2588	0.9376
2597	0.9373
2606	0.9364
2615	0.9354
2624	0.9346
2633	0.9347
2642	0.9348
2651	0.9364
2660	0.937
2669	0.936
2678	0.9341
2687	0.9309
2696	0.9267
2705	0.9226
2714	0.919
2723	0.9156
2732	0.9117
2741	0.9073
2750	0.903
2759	0.8974
2768	0.8897
2777	0.8778
2786	0.8659
2795	0.8569
2804	0.8476
2813	0.8378
2822	0.8305
2831	0.8236
2840	0.8154
2849	0.799
2858	0.7805
2867	0.764
2876	0.7447
2885	0.7079
2894	0.6924
2903	0.6835
2912	0.6809
2921	0.7074
2930	0.7609
2939	0.8142
2948	0.8671
2957	0.8795
2966	0.8807
2975	0.8814
2984	0.8826
2993	0.8847
3002	0.8882
3011	0.8928
3020	0.8975
3029	0.9026
3038	0.9046
3047	0.9059
3056	0.906
3065	0.9059
3074	0.9052
3083	0.9045
3092	0.9039
3101	0.9038
3110	0.9041
3119	0.9046
3128	0.9069
3137	0.9098
3146	0.9101
3155	0.9099
3164	0.9096
3173	0.9093
3182	0.9092
3191	0.9101
3200	0.911
3209	0.9119
3218	0.9118
3227	0.9096
3236	0.9075
3245	0.9054
3254	0.9037
3263	0.9027
3272	0.9023
3281	0.9024
3290	0.9024
3299	0.9016
3308	0.9007
3317	0.8999
3326	0.8992
3335	0.8994
3344	0.9001
3353	0.9008
3362	0.9017
3371	0.9035
3380	0.9053
3389	0.907
3398	0.909
3407	0.9112
3416	0.9133
3425	0.9154
3434	0.9164
3443	0.9173
3452	0.9181
3461	0.9183
3470	0.9185
3479	0.9187
3488	0.9189
3497	0.9191
3506	0.9191
3515	0.9191
3524	0.919
3533	0.919
3542	0.919
3551	0.9191
3560	0.9191
3569	0.9192
3578	0.9192
3587	0.9196
3596	0.9199
3605	0.9202
3614	0.9205
3623	0.921
3632	0.9216
3641	0.9221
3650	0.9226
3659	0.9228
3668	0.9231
3677	0.9235
3686	0.9238
3695	0.9241
3704	0.9243
3713	0.9244
3722	0.9245
3731	0.9246
3740	0.9247
3749	0.9248
3758	0.9247
3767	0.9245
3776	0.9243
3785	0.9241
3794	0.9239
3803	0.9237
3812	0.9235
3821	0.9233
3830	0.9227
3839	0.9221
3848	0.9215
3857	0.9208
3866	0.9206
3875	0.9206
3884	0.9205
3893	0.9205
3902	0.9205
3911	0.9206
3920	0.9208
3929	0.9209
3938	0.9211
3947	0.9212
3956	0.9214
3965	0.9215
3974	0.9215
3983	0.9216
3992	0.9216
