Infrared Spectrum: ANILINE, p-tert-BUTYL-,
Formula: C10 H15 N
CAS: 769-92-6
State: LIQUID (NEAT)
Class: COBLENTZ III
Instrument: BECKMAN IR-4 (HYBRID PRISM-GRATING)
Instrument parameters: NaCl PRISM
Sampling: TRANSMISSION
Path length: CAPILLARY
Resolution: 2
Origin: MONSANTO (J. FREEMAN)
1/CM	TRANSMITTANCE
4000	0.8889
3991	0.8904
3982	0.892
3973	0.8939
3964	0.8957
3955	0.8975
3946	0.8995
3937	0.9012
3928	0.9024
3919	0.9036
3910	0.9048
3901	0.906
3892	0.9073
3883	0.9083
3874	0.9093
3865	0.9103
3856	0.9114
3847	0.9123
3838	0.9125
3829	0.9127
3820	0.9128
3811	0.913
3802	0.9128
3793	0.9125
3784	0.9124
3775	0.9121
3766	0.9111
3757	0.9097
3748	0.9081
3739	0.9065
3730	0.9049
3721	0.9033
3712	0.9018
3703	0.9007
3694	0.8996
3685	0.8985
3676	0.8974
3667	0.8962
3658	0.8954
3649	0.8946
3640	0.8938
3631	0.8931
3622	0.8924
3613	0.8918
3604	0.8913
3595	0.8909
3586	0.8902
3577	0.8889
3568	0.887
3559	0.8835
3550	0.8798
3541	0.875
3532	0.8699
3523	0.8566
3514	0.8445
3505	0.8315
3496	0.8172
3487	0.7689
3478	0.6878
3469	0.6064
3460	0.5245
3451	0.4718
3442	0.4688
3433	0.4668
3424	0.4657
3415	0.4644
3406	0.4597
3397	0.4252
3388	0.3906
3379	0.3621
3370	0.3591
3361	0.3742
3352	0.4032
3343	0.4324
3334	0.4617
3325	0.491
3316	0.5207
3307	0.5505
3298	0.5805
3289	0.6105
3280	0.6408
3271	0.6604
3262	0.6561
3253	0.6405
3244	0.6249
3235	0.6091
3226	0.6049
3217	0.6217
3208	0.6458
3199	0.6701
3190	0.6947
3181	0.7193
3172	0.7441
3163	0.769
3154	0.794
3145	0.8181
3136	0.8216
3127	0.8221
3118	0.8209
3109	0.8138
3100	0.8007
3091	0.7825
3082	0.7656
3073	0.7305
3064	0.6434
3055	0.5749
3046	0.5504
3037	0.5387
3028	0.533
3019	0.5248
3010	0.4796
3001	0.2821
2992	0.1362
2983	0.1353
2974	0.172
2965	0.2162
2956	0.2608
2947	0.3056
2938	0.3278
2929	0.3354
2920	0.3459
2911	0.3691
2902	0.3864
2893	0.3949
2884	0.4056
2875	0.4769
2866	0.5522
2857	0.6281
2848	0.7044
2839	0.7811
2830	0.8562
2821	0.8812
2812	0.8918
2803	0.9014
2794	0.9095
2785	0.9149
2776	0.9199
2767	0.9236
2758	0.9256
2749	0.9259
2740	0.925
2731	0.923
2722	0.9206
2713	0.9189
2704	0.92
2695	0.9239
2686	0.9281
2677	0.9317
2668	0.9354
2659	0.9387
2650	0.9418
2641	0.9452
2632	0.9483
2623	0.9492
2614	0.9494
2605	0.9482
2596	0.947
2587	0.9461
2578	0.9457
2569	0.948
2560	0.9503
2551	0.9535
2542	0.9568
2533	0.9594
2524	0.9618
2515	0.9641
2506	0.9659
2497	0.9666
2488	0.9671
2479	0.967
2470	0.9668
2461	0.9666
2452	0.9662
2443	0.9658
2434	0.9653
2425	0.9647
2416	0.9639
2407	0.9632
2398	0.9624
2389	0.9617
2380	0.9609
2371	0.9602
2362	0.9594
2353	0.9586
2344	0.9577
2335	0.9568
2326	0.9561
2317	0.9555
2308	0.9555
2299	0.9556
2290	0.9571
2281	0.9596
2272	0.9628
2263	0.9643
2254	0.9652
2245	0.9658
2236	0.9665
2227	0.9668
2218	0.9659
2209	0.9651
2200	0.9642
2191	0.9632
2182	0.9624
2173	0.9618
2164	0.961
2155	0.9594
2146	0.9578
2137	0.9564
2128	0.957
2119	0.9568
2110	0.9562
2101	0.955
2092	0.9559
2083	0.957
2074	0.9583
2065	0.9578
2056	0.9536
2047	0.9499
2038	0.9471
2029	0.9455
2020	0.946
2011	0.9475
2002	0.9495
1993	0.9503
1984	0.9501
1975	0.9474
1966	0.944
1957	0.9413
1948	0.9392
1939	0.9351
1930	0.9308
1921	0.9265
1912	0.919
1903	0.8928
1894	0.8521
1885	0.84
1876	0.8703
1867	0.9046
1858	0.9236
1849	0.9357
1840	0.9415
1831	0.9464
1822	0.9504
1813	0.9524
1804	0.9524
1795	0.9481
1786	0.9399
1777	0.9313
1768	0.9261
1759	0.9335
1750	0.9448
1741	0.9498
1732	0.9489
1723	0.9434
1714	0.9354
1705	0.9075
1696	0.8855
1687	0.8521
1678	0.8028
1669	0.7356
1660	0.559
1651	0.327
1642	0.1639
1633	0.1533
1624	0.2182
1615	0.3553
1606	0.4939
1597	0.634
1588	0.7401
1579	0.776
1570	0.7821
1561	0.7465
1552	0.6591
1543	0.4419
1534	0.2043
1525	0.2942
1516	0.512
1507	0.5879
1498	0.5718
1489	0.473
1480	0.4403
1471	0.421
1462	0.5983
1453	0.6764
1444	0.7145
1435	0.6445
1426	0.7451
1417	0.8107
1408	0.79
1399	0.5692
1390	0.7856
1381	0.7726
1372	0.3636
1363	0.5984
1354	0.7878
1345	0.8178
1336	0.7942
1327	0.8197
1318	0.7999
1309	0.6748
1300	0.2981
1291	0.2934
1282	0.2834
1273	0.1363
1264	0.3005
1255	0.56
1246	0.7008
1237	0.786
1228	0.8155
1219	0.8128
1210	0.7026
1201	0.5933
1192	0.283
1183	0.7258
1174	0.8191
1165	0.8464
1156	0.8538
1147	0.8178
1138	0.6614
1129	0.6715
1120	0.7094
1111	0.6223
1102	0.799
1093	0.8048
1084	0.8142
1075	0.8371
1066	0.863
1057	0.8775
1048	0.8803
1039	0.8759
1030	0.8432
1021	0.7892
1012	0.7562
1003	0.8823
994	0.8797
985	0.8712
976	0.8642
967	0.8558
958	0.8343
949	0.8211
940	0.804
931	0.7761
922	0.7686
913	0.7903
904	0.7922
895	0.7715
886	0.7386
877	0.7048
868	0.6512
859	0.5827
850	0.511
841	0.3555
832	0.1486
823	0.1501
814	0.3596
805	0.5638
796	0.6039
787	0.5889
778	0.5638
769	0.5362
760	0.5057
751	0.4769
742	0.4545
733	0.462
724	0.4937
715	0.4517
706	0.4341
697	0.4329
688	0.4257
679	0.4341
670	0.4403
661	0.3691
652	0.3457
643	0.3594
634	0.3725
