Infrared Spectrum: PHENOL, 2,3,5,6-TETRAFLUORO-
Formula: C6 H2 F4 O
CAS: 769-39-1
State: SOLUTION (10% CCl4 FOR 3800-400 CM^-^1)
Melting point: 27 C
Boiling point: 142 C
Class: COBLENTZ III
Instrument: DOW KBr FOREPRISM-GRATING
Instrument parameters: BLAZED AT 3.5, 12.0, 20.0 MICRON AND CHANGED AT 5.0, 7.5, 14.9 MICRON
Sampling: TRANSMISSION
Path length: 0.011 CM
Resolution: 2
Origin: DOW CHEMICAL COMPANY
1/CM	TRANSMITTANCE
386	0.5593
395	0.5606
404	0.573
413	0.586
422	0.5964
431	0.594
440	0.5897
449	0.6139
458	0.624
467	0.6185
476	0.6189
485	0.6569
494	0.7076
503	0.7356
512	0.7428
521	0.7411
530	0.7261
539	0.73
548	0.7341
557	0.7257
566	0.5524
575	0.7658
584	0.7636
593	0.7598
602	0.7837
611	0.7775
620	0.7532
629	0.7287
638	0.7721
647	0.783
656	0.7771
665	0.7533
674	0.7318
683	0.4728
692	0.6725
701	0.62
710	0.5501
719	0.1411
728	0.1728
737	0.0122
746	0.0001
755	0.0001
764	0.0001
773	0
782	0
791	0
800	0
809	0.0112
818	0.043
827	0.2353
836	0.4708
845	0.6137
854	0.7253
863	0.753
872	0.7718
881	0.7618
890	0.683
899	0.6672
908	0.6451
917	0.1584
926	0.0296
935	0.1166
944	0.511
953	0.4718
962	0.4702
971	0.4486
980	0.5644
989	0.639
998	0.6096
1007	0.609
1016	0.6756
1025	0.7203
1034	0.6786
1043	0.5681
1052	0.5727
1061	0.446
1070	0.0788
1079	0.0069
1088	0.2361
1097	0.6066
1106	0.6165
1115	0.61
1124	0.3414
1133	0.7414
1142	0.7385
1151	0.547
1160	0.4678
1169	0.0147
1178	0.4864
1187	0.6386
1196	0.5886
1205	0.5765
1214	0.5
1223	0.4172
1232	0.2693
1241	0.0888
1250	0.3564
1259	0.4262
1268	0.5137
1277	0.1903
1286	0.6349
1295	0.6054
1304	0.5471
1313	0.3734
1322	0.1402
1331	0.3334
1340	0.4559
1349	0.4581
1358	0.4571
1367	0.4494
1376	0.5022
1385	0.5314
1394	0.5904
1403	0.4268
1412	0.6144
1421	0.6924
1430	0.7105
1439	0.7319
1448	0.7268
1457	0.7049
1466	0.5286
1475	0.5483
1484	0.4251
1493	0.1385
1502	0.0021
1511	0.1153
1520	0.0892
1529	0.0054
1538	0.0011
1547	0.1768
1556	0.2757
1565	0.3598
1574	0.5236
1583	0.5379
1592	0.5332
1601	0.5203
1610	0.5193
1619	0.4526
1628	0.4332
1637	0.3672
1646	0.3393
1655	0.1341
1664	0.5723
1673	0.7476
1682	0.7848
1691	0.8068
1700	0.7858
1709	0.7603
1718	0.8195
1727	0.8434
1736	0.8478
1745	0.8409
1754	0.8437
1763	0.8538
1772	0.8616
1781	0.864
1790	0.8625
1799	0.861
1808	0.8597
1817	0.8456
1826	0.8332
1835	0.8271
1844	0.8575
1853	0.8649
1862	0.8678
1871	0.8677
1880	0.8675
1889	0.8754
1898	0.8768
1907	0.8775
1916	0.8768
1925	0.8748
1934	0.8763
1943	0.8786
1952	0.8787
1961	0.8762
1970	0.8727
1979	0.8695
1988	0.8646
1997	0.874
2006	0.8801
2015	0.8832
2024	0.8844
2033	0.8844
2042	0.8837
2051	0.8845
2060	0.8855
2069	0.8847
2078	0.8811
2087	0.8789
2096	0.8834
2105	0.8899
2114	0.8754
2123	0.876
2132	0.8885
2141	0.8868
2150	0.8784
2159	0.8746
2168	0.8828
2177	0.8839
2186	0.8805
2195	0.8724
2204	0.8639
2213	0.8699
2222	0.8766
2231	0.8767
2240	0.866
2249	0.8582
2258	0.8786
2267	0.8782
2276	0.8746
2285	0.8705
2294	0.8686
2303	0.8655
2312	0.8556
2321	0.8488
2330	0.8544
2339	0.8631
2348	0.8723
2357	0.8813
2366	0.8852
2375	0.8793
2384	0.8692
2393	0.8624
2402	0.8692
2411	0.8766
2420	0.8753
2429	0.8736
2438	0.8717
2447	0.867
2456	0.8594
2465	0.8512
2474	0.8457
2483	0.8534
2492	0.8596
2501	0.8578
2510	0.8398
2519	0.8164
2528	0.8145
2537	0.8389
2546	0.8328
2555	0.8298
2564	0.8261
2573	0.7961
2582	0.8162
2591	0.8151
2600	0.8097
2609	0.8028
2618	0.8015
2627	0.8037
2636	0.8014
2645	0.7976
2654	0.798
2663	0.8051
2672	0.8041
2681	0.8018
2690	0.7989
2699	0.7954
2708	0.791
2717	0.7874
2726	0.7872
2735	0.7946
2744	0.7971
2753	0.8007
2762	0.8024
2771	0.8046
2780	0.8071
2789	0.808
2798	0.8075
2807	0.8068
2816	0.8057
2825	0.8021
2834	0.7968
2843	0.7908
2852	0.7845
2861	0.7768
2870	0.7676
2879	0.7599
2888	0.7531
2897	0.7453
2906	0.7382
2915	0.7333
2924	0.7285
2933	0.7101
2942	0.7162
2951	0.7185
2960	0.7015
2969	0.6561
2978	0.62
2987	0.6377
2996	0.6825
3005	0.6976
3014	0.7015
3023	0.695
3032	0.6855
3041	0.6739
3050	0.6603
3059	0.6385
3068	0.6247
3077	0.6205
3086	0.6017
3095	0.5099
3104	0.4421
3113	0.5758
3122	0.5783
3131	0.5758
3140	0.5715
3149	0.5669
3158	0.5629
3167	0.5594
3176	0.5559
3185	0.5524
3194	0.5488
3203	0.5453
3212	0.5416
3221	0.537
3230	0.5325
3239	0.5281
3248	0.5246
3257	0.5217
3266	0.5217
3275	0.5219
3284	0.5232
3293	0.5248
3302	0.5297
3311	0.5358
3320	0.5416
3329	0.5471
3338	0.5525
3347	0.5577
3356	0.5621
3365	0.564
3374	0.5657
3383	0.5668
3392	0.568
3401	0.5687
3410	0.5695
3419	0.5715
3428	0.5746
3437	0.5781
3446	0.5817
3455	0.5853
3464	0.5889
3473	0.5923
3482	0.5952
3491	0.5965
3500	0.5973
3509	0.5933
3518	0.5834
3527	0.5658
3536	0.538
3545	0.4677
3554	0.3658
3563	0.2639
3572	0.1387
3581	0.1284
3590	0.1703
3599	0.3638
3608	0.5801
3617	0.6708
3626	0.7756
3635	0.7864
3644	0.7836
3653	0.7734
3662	0.7569
3671	0.7278
3680	0.6896
3689	0.6901
3698	0.698
3707	0.7547
3716	0.832
3725	0.8667
3734	0.8793
3743	0.8841
3752	0.8868
3761	0.8875
3770	0.8882
3779	0.8885
3788	0.8888
3797	0.8885
