Infrared Spectrum: 14% Nitric acid in water
Formula: H N O 3 in H 2 O
CAS: 7697-37-2
State: liquid
Instrument: Bruker Tensor 37 FTIR
Resolution: 0.48208331
Origin: Pacific Northwest National Laboratory Under IARPA Contract
1/cm	dispersion index
4998.37	1.29441
4987.53	1.29958
4976.68	1.29993
4965.83	1.29979
4954.99	1.29937
4944.14	1.29904
4933.29	1.29848
4922.45	1.29808
4911.6	1.29766
4900.76	1.29712
4889.91	1.29665
4879.06	1.29604
4868.22	1.29538
4857.37	1.29493
4846.52	1.29436
4835.68	1.2937
4824.83	1.29313
4813.99	1.2925
4803.14	1.29182
4792.29	1.29121
4781.45	1.29053
4770.6	1.28969
4759.75	1.28902
4748.91	1.28822
4738.06	1.28744
4727.21	1.28664
4716.37	1.28577
4705.52	1.28487
4694.68	1.28386
4683.83	1.28284
4672.98	1.28184
4662.14	1.28076
4651.29	1.27964
4640.44	1.27842
4629.6	1.27717
4618.75	1.27584
4607.91	1.27449
4597.06	1.27302
4586.21	1.27152
4575.37	1.26998
4564.52	1.26828
4553.67	1.26657
4542.83	1.26469
4531.98	1.26276
4521.14	1.26069
4510.29	1.25862
4499.44	1.25635
4488.6	1.25387
4477.75	1.25127
4466.9	1.24837
4456.06	1.24506
4445.21	1.24146
4434.37	1.23739
4423.52	1.23255
4412.67	1.22737
4401.83	1.22133
4390.98	1.21451
4380.13	1.20627
4369.29	1.19619
4358.44	1.18334
4347.6	1.16692
4336.75	1.14751
4325.9	1.13338
4315.06	1.12878
4304.21	1.12979
4293.36	1.13471
4282.52	1.14227
4271.67	1.15325
4260.83	1.16698
4249.98	1.18362
4239.13	1.20314
4228.29	1.2255
4217.44	1.2508
4206.59	1.27833
4195.75	1.30631
4184.9	1.33143
4174.06	1.3523
4163.21	1.36832
4152.36	1.3811
4141.52	1.39286
4130.67	1.40482
4119.82	1.41754
4108.98	1.42893
4098.13	1.43731
4087.29	1.44199
4076.44	1.44354
4065.59	1.4425
4054.75	1.43973
4043.9	1.43586
4033.05	1.43138
4022.21	1.42657
4011.36	1.42151
4000.51	1.4165
3989.67	1.41159
3978.82	1.40656
3967.98	1.40201
3957.13	1.39821
3946.28	1.39405
3935.44	1.39006
3924.59	1.38666
3913.74	1.38331
3902.9	1.3801
3892.05	1.37713
3881.21	1.37442
3870.36	1.37193
3859.51	1.36945
3848.67	1.36704
3837.82	1.36463
3826.97	1.36227
3816.13	1.35993
3805.28	1.35759
3794.44	1.35527
3783.59	1.35299
3772.74	1.35073
3761.9	1.34851
3751.05	1.3463
3740.2	1.34418
3729.36	1.34226
3718.51	1.34068
3707.67	1.33923
3696.82	1.3379
3685.97	1.33664
3675.13	1.33559
3664.28	1.33434
3653.43	1.33302
3642.59	1.33178
3631.74	1.33069
3620.9	1.32967
3610.05	1.32882
3599.2	1.32805
3588.36	1.32742
3577.51	1.32696
3566.66	1.32657
3555.82	1.32621
3544.97	1.32583
3534.13	1.3252
3523.28	1.32428
3512.43	1.32307
3501.59	1.32146
3490.74	1.31931
3479.89	1.31695
3469.05	1.31425
3458.2	1.31154
3447.36	1.30885
3436.51	1.30628
3425.66	1.30372
3414.82	1.30131
3403.97	1.29868
3393.12	1.29603
3382.28	1.29371
3371.43	1.29149
3360.59	1.28711
3349.74	1.28194
3338.89	1.28189
3328.05	1.3046
3317.2	1.35334
3306.35	1.38681
3295.51	1.38126
3284.66	1.36724
3273.82	1.35402
3262.97	1.34184
3252.12	1.32925
3241.28	1.31549
3230.43	1.30001
3219.58	1.28789
3208.74	1.29312
3197.89	1.32232
3187.04	1.34554
3176.2	1.37079
3165.35	1.41707
3154.51	1.43628
3143.66	1.42583
3132.81	1.41371
3121.97	1.40653
3111.12	1.40304
3100.27	1.40116
3089.43	1.40052
3078.58	1.40023
3067.74	1.40018
3056.89	1.4002
3046.04	1.40032
3035.2	1.39925
3024.35	1.39597
3013.5	1.39828
3002.66	1.39014
2991.81	1.38578
2980.97	1.38217
2970.12	1.37835
2959.27	1.375
2948.43	1.3741
2937.58	1.37706
2926.73	1.38414
2915.89	1.40591
2905.04	1.43626
2894.2	1.45461
2883.35	1.47638
2872.5	1.50158
2861.66	1.5315
2850.81	1.57928
2839.96	0.0288359
2829.12	0.0182236
2818.27	0.0127341
2807.43	0.0103102
2796.58	0.00855658
2785.73	0.00742275
2774.89	0.00554682
2764.04	0.00438865
2753.19	0.0039367
2742.35	0.0033788
2731.5	0.00214408
2720.66	0.00206324
2709.81	0.00191161
2698.96	0.0012113
2688.12	0.00127119
2677.27	0.00122077
2666.42	0.0013554
2655.58	0.00118555
2644.73	0.000835909
2633.89	0.000613762
2623.04	0.00095412
2612.19	0.000702581
2601.35	0.000949967
2590.5	0.000989933
2579.65	0.000729506
2568.81	0.000842527
2557.96	0.000642309
2547.12	0.000868998
2536.27	0.000866662
2525.42	0.0013663
2514.58	0.0013735
2503.73	0.00126191
2492.88	0.00138336
2482.04	0.00232431
2471.19	0.00249657
2460.34	0.00377269
2449.5	0.00446028
2438.65	0.00499398
2427.81	0.00613936
2416.96	0.00760902
2406.11	0.00840178
2395.27	0.00971585
2384.42	0.0116246
2373.57	0.0134092
2362.73	0.0151988
2351.88	0.0168985
2341.04	0.0183187
2330.19	0.0196698
2319.34	0.0206256
2308.5	0.022078
2297.65	0.022917
2286.8	0.0241307
2275.96	0.0257608
2265.11	0.0284238
2254.27	0.0321342
2243.42	0.0369075
2232.57	0.0448284
2221.73	0.0524189
2210.88	0.0639897
2200.03	0.0884108
2189.19	0.141963
2178.34	0.264087
2167.5	0.433835
2156.65	0.608175
2145.8	0.76741
2134.96	0.917085
2124.11	1.06047
2113.26	1.19648
2102.42	1.32315
2091.57	1.43742
2080.73	1.53705
2069.88	1.61998
2059.03	1.67425
2048.19	1.69293
2037.34	1.66991
2026.49	1.61306
2015.65	1.53769
2004.8	1.4608
1993.96	1.39118
1983.11	1.32909
1972.26	1.26423
1961.42	1.18436
1950.57	1.08606
1939.72	0.977406
1928.88	0.868285
1918.03	0.766272
1907.19	0.674907
1896.34	0.594878
1885.49	0.525811
1874.65	0.466862
1863.8	0.41603
1852.95	0.373342
1842.11	0.337118
1831.26	0.30611
1820.42	0.281299
1809.57	0.261827
1798.72	0.242094
1787.88	0.225953
1777.03	0.213552
1766.18	0.202933
1755.34	0.193362
1744.49	0.185592
1733.65	0.179048
1722.8	0.173411
1711.95	0.167602
1701.11	0.162193
1690.26	0.157132
1679.41	0.152895
1668.57	0.149542
1657.72	0.146632
1646.87	0.144621
1636.03	0.143495
1625.18	0.143433
1614.34	0.143956
1603.49	0.145635
1592.64	0.148675
1581.8	0.153282
1570.95	0.1594
1560.1	0.165091
1549.26	0.17053
1538.41	0.175966
1527.57	0.181713
1516.72	0.186018
1505.87	0.190552
1495.03	0.19616
1484.18	0.202785
1473.33	0.209616
1462.49	0.216987
1451.64	0.224156
1440.8	0.231362
1429.95	0.238373
1419.1	0.244689
1408.26	0.250052
1397.41	0.254047
1386.56	0.256208
1375.72	0.2573
1364.87	0.25815
1354.03	0.258349
1343.18	0.259505
1332.33	0.263024
1321.49	0.269532
1310.64	0.278686
1299.79	0.291368
1288.95	0.307382
1278.1	0.326038
1267.26	0.345848
1256.41	0.372491
1245.56	0.399958
1234.72	0.433545
1223.87	0.473058
1213.02	0.510254
1202.18	0.570579
1191.33	0.688378
1180.49	0.870644
1169.64	1.04566
1158.79	0.982927
1147.95	0.706723
1137.1	0.538131
1126.25	0.463161
1115.41	0.433106
1104.56	0.429063
1093.72	0.44423
1082.87	0.490187
1072.02	0.596035
1061.18	0.791993
1050.33	1.01908
1039.48	1.10905
1028.64	1.15199
1017.79	1.21905
1006.95	1.05736
996.099	0.795272
985.253	0.666861
974.406	0.626465
963.56	0.613532
952.714	0.607216
941.867	0.602736
931.021	0.596925
920.175	0.59002
909.329	0.582068
898.482	0.573755
887.636	0.561207
876.79	0.547329
865.944	0.560819
855.097	0.517291
844.251	0.535265
833.405	0.559859
822.559	0.592391
811.712	0.636168
800.866	0.704445
790.02	0.792383
779.173	0.896206
768.327	1.03102
757.481	1.13659
746.635	1.10623
735.788	1.10548
724.942	1.09396
714.096	1.06282
703.25	1.005
692.403	0.930858
