Infrared Spectrum: Malonic acid, diethyl-, diethyl ester
Formula: C11 H20 O4
CAS: 77-25-8
State: LIQUID (NEAT)
Boiling point: 91.5-93.5 C
Class: COBLENTZ III
Instrument: BAIRD (GRATING)
Instrument parameters: NaCl PRISM
Path length: 0.005 CM
Resolution: 2
Origin: WYANDOTTE CHEMICALS CORP.
1/CM	TRANSMITTANCE
624.558	0.8595
633.586	0.8912
642.614	0.9136
651.642	0.9238
660.67	0.8996
669.697	0.816
678.725	0.7131
687.753	0.6498
696.781	0.8264
705.809	0.9383
714.837	0.9446
723.865	0.8798
732.893	0.5276
741.921	0.5678
750.948	0.8066
759.976	0.8348
769.004	0.7135
778.032	0.445
787.06	0.5553
796.088	0.4644
805.116	0.5126
814.144	0.6024
823.172	0.6615
832.199	0.7246
841.227	0.6434
850.255	0.3306
859.283	0.2871
868.311	0.6412
877.339	0.861
886.367	0.9341
895.395	0.9402
904.423	0.9406
913.45	0.9203
922.478	0.8321
931.506	0.5674
940.534	0.3183
949.562	0.4341
958.59	0.5543
967.618	0.7646
976.646	0.7873
985.674	0.7241
994.701	0.5324
1003.73	0.3073
1012.76	0.0198
1021.79	0.0188
1030.81	0.0296
1039.84	0.0542
1048.87	0.2249
1057.9	0.3808
1066.92	0.321
1075.95	0.3605
1084.98	0.3342
1094.01	0.0842
1103.04	0.0521
1112.06	0.0148
1121.09	0.0153
1130.12	0.0176
1139.15	0.0196
1148.18	0.0127
1157.2	0.0222
1166.23	0.0377
1175.26	0.0619
1184.29	0.0837
1193.31	0.0393
1202.34	0.007
1211.37	0.0101
1220.4	0.0116
1229.43	0.0117
1238.45	0.0133
1247.48	0.0169
1256.51	0.0304
1265.54	0.0862
1274.57	0.0914
1283.59	0.0369
1292.62	0.0188
1301.65	0.0177
1310.68	0.0616
1319.71	0.1887
1328.73	0.2434
1337.76	0.1719
1346.79	0.2242
1355.82	0.3862
1364.84	0.1657
1373.87	0.1385
1382.9	0.1379
1391.93	0.0985
1400.96	0.3533
1409.98	0.5449
1419.01	0.5645
1428.04	0.5105
1437.07	0.3043
1446.1	0.0944
1455.12	0.0611
1464.15	0.0682
1473.18	0.0837
1482.21	0.1772
1491.24	0.3467
1500.26	0.6478
1509.29	0.7846
1518.32	0.8203
1527.35	0.8249
1536.37	0.8293
1545.4	0.833
1554.43	0.8343
1563.46	0.8346
1572.49	0.8557
1581.51	0.8591
1590.54	0.8617
1599.57	0.8626
1608.6	0.8547
1617.63	0.8248
1626.65	0.7892
1635.68	0.7643
1644.71	0.743
1653.74	0.7089
1662.77	0.6769
1671.79	0.6
1680.82	0.3748
1689.85	0.1663
1698.88	0.1095
1707.9	0.0562
1716.93	0.045
1725.96	0.0469
1734.99	0.0729
1744.02	0.0834
1753.04	0.1219
1762.07	0.2839
1771.1	0.5607
1780.13	0.6885
1789.16	0.7431
1798.18	0.7796
1807.21	0.7995
1816.24	0.8469
1825.27	0.8743
1834.3	0.919
1843.32	0.9259
1852.35	0.9288
1861.38	0.929
1870.41	0.9285
1879.43	0.9294
1888.46	0.9465
1897.49	0.9646
1906.52	0.9769
1915.55	0.9861
1924.57	0.9897
1933.6	0.9883
1942.63	0.9829
1951.66	0.9723
1960.69	0.9627
1969.71	0.964
1978.74	0.974
1987.77	0.9789
1996.8	0.9835
2005.82	0.9875
2014.85	0.991
2023.88	0.992
2032.91	0.9885
2041.94	0.9801
2050.96	0.9704
2059.99	0.9681
2069.02	0.9692
2078.05	0.9734
2087.08	0.9782
2096.1	0.9811
2105.13	0.9812
2114.16	0.9815
2123.19	0.9821
2132.22	0.9832
2141.24	0.9842
2150.27	0.9852
2159.3	0.9861
2168.33	0.987
2177.35	0.9876
2186.38	0.9879
2195.41	0.9879
2204.44	0.987
2213.47	0.9861
2222.49	0.9853
2231.52	0.9844
2240.55	0.9842
2249.58	0.9842
2258.61	0.984
2267.63	0.9836
2276.66	0.9831
2285.69	0.9808
2294.72	0.9775
2303.75	0.9741
2312.77	0.9714
2321.8	0.9695
2330.83	0.9693
2339.86	0.97
2348.88	0.9693
2357.91	0.9613
2366.94	0.9583
2375.97	0.958
2385	0.9585
2394.02	0.9594
2403.05	0.9625
2412.08	0.9664
2421.11	0.9699
2430.14	0.9726
2439.16	0.9742
2448.19	0.9757
2457.22	0.9771
2466.25	0.9785
2475.28	0.9796
2484.3	0.9806
2493.33	0.9817
2502.36	0.983
2511.39	0.9843
2520.41	0.985
2529.44	0.9856
2538.47	0.9861
2547.5	0.986
2556.53	0.9856
2565.55	0.9852
2574.58	0.9841
2583.61	0.9826
2592.64	0.9808
2601.67	0.9795
2610.69	0.9783
2619.72	0.978
2628.75	0.9784
2637.78	0.979
2646.81	0.9796
2655.83	0.9802
2664.86	0.9807
2673.89	0.9811
2682.92	0.9804
2691.94	0.9773
2700.97	0.9713
2710	0.9603
2719.03	0.9481
2728.06	0.9344
2737.08	0.919
2746.11	0.9053
2755.14	0.8936
2764.17	0.8886
2773.2	0.8867
2782.22	0.8858
2791.25	0.8825
2800.28	0.8715
2809.31	0.8568
2818.33	0.841
2827.36	0.817
2836.39	0.7883
2845.42	0.7506
2854.45	0.608
2863.47	0.5897
2872.5	0.5335
2881.53	0.3632
2890.56	0.1982
2899.59	0.1519
2908.61	0.1367
2917.64	0.1245
2926.67	0.1102
2935.7	0.0938
2944.73	0.0739
2953.75	0.053
2962.78	0.0365
2971.81	0.0281
2980.84	0.0265
2989.86	0.027
2998.89	0.0281
3007.92	0.03
3016.95	0.1281
3025.98	0.2473
3035	0.3658
3044.03	0.4837
3053.06	0.6008
3062.09	0.7385
3071.12	0.7667
3080.14	0.7936
3089.17	0.8291
3098.2	0.8501
3107.23	0.8672
3116.26	0.8802
3125.28	0.8919
3134.31	0.8999
3143.34	0.9074
3152.37	0.9137
3161.39	0.9181
3170.42	0.9211
3179.45	0.923
3188.48	0.9249
3197.51	0.9269
3206.53	0.929
3215.56	0.9314
3224.59	0.9344
3233.62	0.9377
3242.65	0.9416
3251.67	0.9454
3260.7	0.9494
3269.73	0.9533
3278.76	0.956
3287.79	0.9585
3296.81	0.9601
3305.84	0.9611
3314.87	0.9613
3323.9	0.9614
3332.92	0.9614
3341.95	0.9612
3350.98	0.9609
3360.01	0.9605
3369.04	0.9597
3378.06	0.9588
3387.09	0.957
3396.12	0.9547
3405.15	0.9524
3414.18	0.949
3423.2	0.9441
3432.23	0.9377
3441.26	0.9313
3450.29	0.9242
3459.31	0.9164
3468.34	0.908
3477.37	0.8912
3486.4	0.8798
3495.43	0.869
3504.45	0.8675
3513.48	0.8665
3522.51	0.8682
3531.54	0.8704
3540.57	0.8766
3549.59	0.8945
3558.62	0.9131
3567.65	0.9224
3576.68	0.9292
3585.71	0.9347
3594.73	0.9398
3603.76	0.9417
3612.79	0.9404
3621.82	0.9383
3630.84	0.9364
3639.87	0.9346
3648.9	0.9342
3657.93	0.9343
3666.96	0.9351
3675.98	0.936
3685.01	0.9371
3694.04	0.9384
3703.07	0.9391
3712.1	0.9394
3721.12	0.9394
3730.15	0.9393
3739.18	0.9398
3748.21	0.941
3757.24	0.9439
3766.26	0.9479
3775.29	0.9524
3784.32	0.9568
3793.35	0.9609
3802.37	0.9649
3811.4	0.9687
3820.43	0.972
3829.46	0.9748
3838.49	0.9762
3847.51	0.9766
3856.54	0.9766
3865.57	0.9764
3874.6	0.9762
3883.63	0.9759
3892.65	0.9756
3901.68	0.9753
3910.71	0.9749
3919.74	0.9744
3928.77	0.9739
3937.79	0.9732
3946.82	0.9724
3955.85	0.9716
3964.88	0.9709
3973.9	0.9701
3982.93	0.9692
3991.96	0.9683
4000.99	0.9674
