Infrared Spectrum: SUCCINIMIDE, N,2-DIMETHYL-2-PHENYL-
Formula: C12 H13 N O2
CAS: 77-41-8
State: SOLID (KBr DISC)
Melting point: 52-53 C
Boiling point: 121-22 C AT 0.1 mmHg
Class: COBLENTZ III
Instrument: PERKIN-ELMER 21 (GRATING)
Instrument parameters: FILTER AT ABOUT 10 MICRONS
Sampling: TRANSMISSION
Resolution: 2
1/CM	TRANSMITTANCE
4000	0.5902
3991	0.591
3982	0.5917
3973	0.5925
3964	0.5933
3955	0.594
3946	0.5948
3937	0.5957
3928	0.5962
3919	0.597
3910	0.5977
3901	0.5984
3892	0.5991
3883	0.5998
3874	0.6041
3865	0.6075
3856	0.6092
3847	0.61
3838	0.6107
3829	0.6115
3820	0.6123
3811	0.6131
3802	0.6139
3793	0.6147
3784	0.6155
3775	0.6164
3766	0.6172
3757	0.618
3748	0.6189
3739	0.6197
3730	0.6206
3721	0.6214
3712	0.622
3703	0.6227
3694	0.6233
3685	0.6239
3676	0.6246
3667	0.6252
3658	0.6258
3649	0.6265
3640	0.6269
3631	0.6274
3622	0.6278
3613	0.6283
3604	0.6288
3595	0.6292
3586	0.6297
3577	0.6299
3568	0.6302
3559	0.6304
3550	0.6306
3541	0.6308
3532	0.631
3523	0.6308
3514	0.6305
3505	0.6301
3496	0.6296
3487	0.6285
3478	0.6273
3469	0.6251
3460	0.6217
3451	0.6149
3442	0.6045
3433	0.603
3424	0.605
3415	0.6087
3406	0.6118
3397	0.6151
3388	0.6183
3379	0.6202
3370	0.6222
3361	0.6242
3352	0.626
3343	0.6281
3334	0.6301
3325	0.632
3316	0.6336
3307	0.6352
3298	0.6369
3289	0.6385
3280	0.6401
3271	0.6419
3262	0.6437
3253	0.6451
3244	0.6462
3235	0.6475
3226	0.649
3217	0.6503
3208	0.6515
3199	0.6528
3190	0.6543
3181	0.6551
3172	0.6561
3163	0.6569
3154	0.6578
3145	0.6587
3136	0.6594
3127	0.6598
3118	0.6603
3109	0.6607
3100	0.6611
3091	0.6612
3082	0.6614
3073	0.6611
3064	0.6591
3055	0.6571
3046	0.6543
3037	0.6508
3028	0.65
3019	0.6501
3010	0.6506
3001	0.6511
2992	0.651
2983	0.6501
2974	0.6455
2965	0.6366
2956	0.6314
2947	0.6289
2938	0.6264
2929	0.6252
2920	0.6258
2911	0.6268
2902	0.631
2893	0.6343
2884	0.6367
2875	0.6411
2866	0.6464
2857	0.6521
2848	0.6581
2839	0.6638
2830	0.6694
2821	0.6751
2812	0.6797
2803	0.684
2794	0.6883
2785	0.6919
2776	0.6948
2767	0.6974
2758	0.7001
2749	0.7025
2740	0.7047
2731	0.7068
2722	0.7088
2713	0.7106
2704	0.7122
2695	0.7141
2686	0.7158
2677	0.7176
2668	0.7192
2659	0.7204
2650	0.7214
2641	0.7215
2632	0.7211
2623	0.7207
2614	0.7204
2605	0.7214
2596	0.7231
2587	0.7246
2578	0.7262
2569	0.728
2560	0.7295
2551	0.7311
2542	0.7326
2533	0.7343
2524	0.7354
2515	0.7364
2506	0.7371
2497	0.7378
2488	0.7385
2479	0.7403
2470	0.7421
2461	0.7437
2452	0.7449
2443	0.7461
2434	0.7472
2425	0.7484
2416	0.7496
2407	0.7495
2398	0.749
2389	0.7467
2380	0.7442
2371	0.7419
2362	0.7403
2353	0.739
2344	0.7386
2335	0.739
2326	0.7406
2317	0.7419
2308	0.7458
2299	0.7514
2290	0.7569
2281	0.7626
2272	0.7678
2263	0.7708
2254	0.7733
2245	0.7751
2236	0.7768
2227	0.7785
2218	0.7801
2209	0.7817
2200	0.7831
2191	0.7832
2182	0.783
2173	0.7818
2164	0.7783
2155	0.7769
2146	0.7786
2137	0.7801
2128	0.7815
2119	0.7822
2110	0.783
2101	0.7837
2092	0.7845
2083	0.7851
2074	0.7858
2065	0.7865
2056	0.7867
2047	0.7868
2038	0.7869
2029	0.7868
2020	0.7862
2011	0.7851
2002	0.7815
1993	0.776
1984	0.7687
1975	0.7639
1966	0.7715
1957	0.7778
1948	0.7801
1939	0.78
1930	0.7669
1921	0.759
1912	0.7583
1903	0.7603
1894	0.7598
1885	0.7464
1876	0.7515
1867	0.7567
1858	0.7526
1849	0.743
1840	0.7284
1831	0.7193
1822	0.7089
1813	0.6949
1804	0.6775
1795	0.6381
1786	0.5344
1777	0.4325
1768	0.5429
1759	0.577
1750	0.5712
1741	0.5444
1732	0.4245
1723	0.3184
1714	0.207
1705	0.1244
1696	0.1351
1687	0.2003
1678	0.2968
1669	0.3609
1660	0.4438
1651	0.5123
1642	0.5505
1633	0.5859
1624	0.6185
1615	0.6475
1606	0.6592
1597	0.6445
1588	0.6795
1579	0.6925
1570	0.7233
1561	0.7469
1552	0.7518
1543	0.751
1534	0.759
1525	0.7658
1516	0.7665
1507	0.6861
1498	0.6112
1489	0.6794
1480	0.6858
1471	0.6332
1462	0.601
1453	0.5129
1444	0.4549
1435	0.3634
1426	0.3928
1417	0.4425
1408	0.5449
1399	0.6292
1390	0.6051
1381	0.4584
1372	0.4082
1363	0.5658
1354	0.6359
1345	0.6592
1336	0.6686
1327	0.6807
1318	0.6795
1309	0.656
1300	0.5485
1291	0.4987
1282	0.3416
1273	0.3436
1264	0.5091
1255	0.5884
1246	0.6408
1237	0.6768
1228	0.703
1219	0.7219
1210	0.7318
1201	0.7462
1192	0.7339
1183	0.691
1174	0.5847
1165	0.69
1156	0.6174
1147	0.5739
1138	0.6614
1129	0.7148
1120	0.7414
1111	0.759
1102	0.7495
1093	0.6094
1084	0.6172
1075	0.4738
1066	0.6635
1057	0.7239
1048	0.7344
1039	0.7485
1030	0.3979
1021	0.461
1012	0.6103
1003	0.6496
994	0.6895
985	0.7315
976	0.7585
967	0.7718
958	0.7745
949	0.538
940	0.6085
931	0.7212
922	0.7661
913	0.7639
904	0.7824
895	0.6521
886	0.7465
877	0.7891
868	0.8095
859	0.8251
850	0.834
841	0.8299
832	0.8399
823	0.8433
814	0.8336
805	0.778
796	0.7251
787	0.451
778	0.7137
769	0.7814
760	0.8156
751	0.8047
742	0.6925
733	0.4865
724	0.7145
715	0.7725
706	0.6465
697	0.4592
688	0.5078
679	0.6277
670	0.689
