Infrared Spectrum: HEXACHLORO-1,3-CYCLOPENTADIENE
Formula: C5 Cl6
CAS: 77-47-4
State: SOLUTION (10% CCl4 FOR 5000-1330, 10% CS2 FOR 1330-625 CM^-^1)
Class: COBLENTZ
Instrument: Not specified, most likely a prism, grating, or hybrid spectrometer.
Sampling: TRANSMISSION
Path length: 0.0127 CM, 0.0122 CM
Resolution: 4
Origin: DOW CHEMICAL COMPANY
MICROMETERS	TRANSMITTANCE
1.986	0.902
2.02704	0.902
2.06807	0.9
2.10911	0.902
2.15015	0.904
2.19118	0.907
2.23222	0.907
2.27326	0.907
2.31429	0.907
2.35533	0.909
2.39636	0.912
2.4374	0.912
2.47844	0.91
2.51947	0.914
2.56051	0.912
2.60155	0.91
2.64258	0.912
2.68362	0.912
2.72466	0.914
2.76569	0.916
2.80673	0.912
2.84777	0.914
2.8888	0.916
2.92984	0.919
2.97087	0.922
3.01191	0.924
3.05295	0.924
3.09398	0.922
3.13502	0.917
3.17606	0.916
3.21709	0.919
3.25813	0.916
3.29917	0.916
3.3402	0.907
3.38124	0.9
3.42228	0.89
3.46331	0.897
3.50435	0.916
3.54539	0.916
3.58642	0.921
3.62746	0.924
3.66849	0.926
3.70953	0.929
3.75057	0.929
3.7916	0.934
3.83264	0.929
3.87368	0.931
3.91471	0.928
3.95575	0.933
3.99679	0.934
4.03782	0.934
4.07886	0.934
4.1199	0.934
4.16093	0.933
4.20197	0.921
4.243	0.914
4.28404	0.909
4.32508	0.909
4.36611	0.916
4.40715	0.931
4.44819	0.938
4.48922	0.941
4.53026	0.941
4.5713	0.94
4.61233	0.94
4.65337	0.934
4.69441	0.946
4.73544	0.943
4.77648	0.946
4.81752	0.945
4.85855	0.943
4.89959	0.943
4.94062	0.936
4.98166	0.929
5.0227	0.933
5.06373	0.934
5.10477	0.934
5.14581	0.931
5.18684	0.934
5.22788	0.928
5.26892	0.936
5.30995	0.938
5.35099	0.931
5.39203	0.929
5.43306	0.933
5.4741	0.934
5.51513	0.924
5.55617	0.931
5.59721	0.924
5.63824	0.91
5.67928	0.933
5.72032	0.933
5.76135	0.934
5.80239	0.941
5.84343	0.94
5.88446	0.933
5.9255	0.934
5.96654	0.931
6.00757	0.924
6.04861	0.904
6.08965	0.893
6.13068	0.857
6.17172	0.672
6.21275	0.229
6.25379	0.515
6.29483	0.573
6.33586	0.503
6.3769	0.493
6.41794	0.467
6.45897	0.479
6.50001	0.595
6.54105	0.654
6.58208	0.71
6.62312	0.791
6.66416	0.844
6.70519	0.89
6.74623	0.904
6.78727	0.91
6.8283	0.914
6.86934	0.926
6.91037	0.929
6.95141	0.931
6.99245	0.933
7.03348	0.931
7.07452	0.928
7.11556	0.924
7.15659	0.924
7.19763	0.929
7.23867	0.926
7.2797	0.926
7.32074	0.922
7.36178	0.928
7.40281	0.929
7.44385	0.929
7.48488	0.929
7.52592	0.931
7.56696	0.929
7.60799	0.928
7.64903	0.922
7.69007	0.926
7.7311	0.926
7.77214	0.916
7.81318	0.909
7.85421	0.916
7.89525	0.912
7.93629	0.904
7.97732	0.881
8.01836	0.803
8.0594	0.587
8.10043	0.214
8.14147	0.357
8.1825	0.741
8.22354	0.767
8.26458	0.832
8.30561	0.801
8.34665	0.719
8.38769	0.59
8.42872	0.666
8.46976	0.785
8.5108	0.785
8.55183	0.765
8.59287	0.767
8.63391	0.791
8.67494	0.729
8.71598	0.583
8.75701	0.277
8.79805	0.297
8.83909	0.666
8.88012	0.763
8.92116	0.816
8.9622	0.864
9.00323	0.885
9.04427	0.895
9.08531	0.897
9.12634	0.9
9.16738	0.907
9.20842	0.91
9.24945	0.91
9.29049	0.909
9.33153	0.902
9.37256	0.898
9.4136	0.898
9.45463	0.907
9.49567	0.907
9.53671	0.909
9.57774	0.905
9.61878	0.902
9.65982	0.898
9.70085	0.878
9.74189	0.842
9.78293	0.856
9.82396	0.897
9.865	0.902
9.90604	0.912
9.94707	0.917
9.98811	0.919
10.0291	0.91
10.0702	0.905
10.1112	0.898
10.1523	0.885
10.1933	0.864
10.2343	0.792
10.2754	0.767
10.3164	0.811
10.3574	0.763
10.3985	0.784
10.4395	0.854
10.4805	0.883
10.5216	0.883
10.5626	0.878
10.6037	0.861
10.6447	0.847
10.6857	0.856
10.7268	0.878
10.7678	0.885
10.8088	0.9
10.8499	0.905
10.8909	0.904
10.9319	0.907
10.973	0.907
11.014	0.905
11.0551	0.902
11.0961	0.898
11.1371	0.893
11.1782	0.883
11.2192	0.871
11.2602	0.859
11.3013	0.833
11.3423	0.815
11.3833	0.799
11.4244	0.782
11.4654	0.772
11.5065	0.76
11.5475	0.748
11.5885	0.72
11.6296	0.69
11.6706	0.667
11.7116	0.667
11.7527	0.686
11.7937	0.731
11.8347	0.779
11.8758	0.809
11.9168	0.83
11.9579	0.839
11.9989	0.845
12.0399	0.845
12.081	0.845
12.122	0.837
12.163	0.821
12.2041	0.789
12.2451	0.732
12.2861	0.676
12.3272	0.532
12.3682	0.292
12.4093	0.094
12.4503	0.017
12.4913	0.023
12.5324	0.159
12.5734	0.366
12.6144	0.554
12.6555	0.676
12.6965	0.741
12.7376	0.756
12.7786	0.758
12.8196	0.767
12.8607	0.796
12.9017	0.821
12.9427	0.833
12.9838	0.837
13.0248	0.844
13.0658	0.849
13.1069	0.851
13.1479	0.852
13.189	0.856
13.23	0.856
13.271	0.856
13.3121	0.863
13.3531	0.866
13.3941	0.869
13.4352	0.869
13.4762	0.861
13.5172	0.857
13.5583	0.845
13.5993	0.833
13.6404	0.815
13.6814	0.792
13.7224	0.775
13.7635	0.763
13.8045	0.746
13.8455	0.719
13.8866	0.672
13.9276	0.607
13.9686	0.542
14.0097	0.469
14.0507	0.349
14.0918	0.243
14.1328	0.208
14.1738	0.325
14.2149	0.448
14.2559	0.606
14.2969	0.69
14.338	0.738
14.379	0.75
14.42	0.741
14.4611	0.708
14.5021	0.647
14.5432	0.568
14.5842	0.431
14.6252	0.292
14.6663	0.195
14.7073	0.145
14.7483	0.188
14.7894	0.32
14.8304	0.443
14.8714	0.529
14.9125	0.583
14.9535	0.619
14.9946	0.652
15.0356	0.667
15.0766	0.669
15.1177	0.671
15.1587	0.674
15.1997	0.678
15.2408	0.684
15.2818	0.691
15.3228	0.695
15.3639	0.705
15.4049	0.719
15.446	0.724
15.487	0.729
15.528	0.731
15.5691	0.731
15.6101	0.732
15.6511	0.732
15.6922	0.731
15.7332	0.731
15.7742	0.731
15.8153	0.731
15.8563	0.731
