Infrared Spectrum: DICYCLOPENTADIENE
Formula: C10 H12
CAS: 77-73-6
State: LIQUID
Class: COBLENTZ
Instrument: Not specified, most likely a prism, grating, or hybrid spectrometer.
Sampling: TRANSMISSION
Path length: 0.005 CM
Resolution: 4
Origin: WYANDOTTE CHEMICALS CORP., WYANDOTTE, MICHIGAN, USA
MICROMETERS	TRANSMITTANCE
2.049	1.003
2.08892	1.008
2.12884	1.001
2.16876	0.966
2.20867	0.943
2.24859	0.933
2.28851	0.951
2.32843	0.956
2.36835	0.945
2.40827	0.935
2.44819	0.926
2.48811	0.91
2.52802	0.9
2.56794	0.901
2.60786	0.926
2.64778	0.948
2.6877	0.97
2.72762	0.976
2.76754	0.98
2.80746	0.983
2.84737	0.985
2.88729	0.958
2.92721	0.951
2.96713	0.978
3.00705	0.991
3.04697	0.98
3.08689	0.905
3.12681	0.955
3.16672	0.785
3.20664	0.442
3.24656	0.029
3.28648	0.256
3.3264	0.016
3.36632	0.026
3.40624	0.026
3.44616	0.036
3.48607	0.128
3.52599	0.712
3.56591	0.931
3.60583	0.966
3.64575	0.968
3.68567	0.963
3.72559	0.985
3.76551	0.983
3.80542	0.973
3.84534	0.946
3.88526	0.946
3.92518	0.958
3.9651	0.958
4.00502	0.945
4.04494	0.963
4.08486	0.971
4.12477	0.946
4.16469	0.968
4.20461	0.96
4.24453	0.953
4.28445	0.956
4.32437	0.963
4.36429	0.958
4.40421	0.958
4.44412	0.956
4.48404	0.955
4.52396	0.925
4.56388	0.9
4.6038	0.91
4.64372	0.915
4.68364	0.915
4.72356	0.968
4.76347	0.96
4.80339	0.901
4.84331	0.921
4.88323	0.928
4.92315	0.918
4.96307	0.96
5.00299	0.981
5.04291	0.98
5.08282	0.97
5.12274	0.963
5.16266	0.97
5.20258	0.923
5.2425	0.921
5.28242	0.943
5.32234	0.911
5.36226	0.918
5.40217	0.953
5.44209	0.933
5.48201	0.913
5.52193	0.943
5.56185	0.968
5.60177	0.941
5.64169	0.94
5.68161	0.93
5.72152	0.91
5.76144	0.795
5.80136	0.748
5.84128	0.758
5.8812	0.735
5.92112	0.836
5.96104	0.811
6.00096	0.738
6.04087	0.479
6.08079	0.727
6.12071	0.387
6.16063	0.74
6.20055	0.805
6.24047	0.853
6.28039	0.544
6.32031	0.893
6.36022	0.923
6.40014	0.938
6.44006	0.936
6.47998	0.955
6.5199	0.951
6.55982	0.94
6.59974	0.93
6.63966	0.906
6.67957	0.86
6.71949	0.848
6.75941	0.747
6.79933	0.41
6.83925	0.118
6.87917	0.081
6.91909	0.324
6.95901	0.633
6.99892	0.74
7.03884	0.78
7.07876	0.73
7.11868	0.78
7.1586	0.82
7.19852	0.75
7.23844	0.718
7.27836	0.723
7.31827	0.371
7.35819	0.367
7.39811	0.071
7.43803	0.106
7.47795	0.489
7.51787	0.642
7.55779	0.562
7.59771	0.299
7.63762	0.457
7.67754	0.404
7.71746	0.64
7.75738	0.472
7.7973	0.585
7.83722	0.63
7.87714	0.499
7.91705	0.181
7.95697	0.044
7.99689	0.101
8.03681	0.4
8.07673	0.572
8.11665	0.292
8.15657	0.495
8.19649	0.715
8.2364	0.788
8.27632	0.81
8.31624	0.82
8.35616	0.826
8.39608	0.831
8.436	0.813
8.47592	0.773
8.51584	0.673
8.55575	0.352
8.59567	0.352
8.63559	0.572
8.67551	0.63
8.71543	0.579
8.75535	0.336
8.79527	0.207
8.83519	0.482
8.8751	0.525
8.91502	0.643
8.95494	0.648
8.99486	0.559
9.03478	0.57
9.0747	0.505
9.11462	0.432
9.15454	0.653
9.19445	0.715
9.23437	0.738
9.27429	0.682
9.31421	0.539
9.35413	0.713
9.39405	0.777
9.43397	0.798
9.47389	0.813
9.5138	0.805
9.55372	0.772
9.59364	0.72
9.63356	0.549
9.67348	0.452
9.7134	0.231
9.75332	0.327
9.79324	0.64
9.83315	0.698
9.87307	0.727
9.91299	0.742
9.95291	0.705
9.99283	0.505
10.0327	0.212
10.0727	0.349
10.1126	0.622
10.1525	0.71
10.1924	0.752
10.2323	0.748
10.2723	0.725
10.3122	0.675
10.3521	0.597
10.392	0.572
10.4319	0.55
10.4719	0.427
10.5118	0.392
10.5517	0.337
10.5916	0.201
10.6315	0.138
10.6714	0.171
10.7114	0.231
10.7513	0.379
10.7912	0.444
10.8311	0.257
10.871	0.088
10.911	0.096
10.9509	0.169
10.9908	0.051
11.0307	0.079
11.0706	0.371
11.1106	0.52
11.1505	0.482
11.1904	0.341
11.2303	0.564
11.2702	0.65
11.3101	0.705
11.3501	0.745
11.39	0.768
11.4299	0.76
11.4698	0.692
11.5097	0.599
11.5497	0.718
11.5896	0.785
11.6295	0.798
11.6694	0.787
11.7093	0.775
11.7493	0.748
11.7892	0.735
11.8291	0.753
11.869	0.767
11.9089	0.748
11.9488	0.7
11.9888	0.647
12.0287	0.585
12.0686	0.497
12.1085	0.339
12.1484	0.163
12.1884	0.041
12.2283	0.034
12.2682	0.128
12.3081	0.226
12.348	0.246
12.388	0.119
12.4279	0.044
12.4678	0.143
12.5077	0.292
12.5476	0.464
12.5875	0.565
12.6275	0.587
12.6674	0.61
12.7073	0.592
12.7472	0.487
12.7871	0.361
12.8271	0.329
12.867	0.344
12.9069	0.337
12.9468	0.302
12.9867	0.244
13.0267	0.141
13.0666	0.068
13.1065	0.038
13.1464	0.031
13.1863	0.031
13.2262	0.031
13.2662	0.031
13.3061	0.036
13.346	0.063
13.3859	0.143
13.4258	0.226
13.4658	0.274
13.5057	0.286
13.5456	0.277
13.5855	0.236
13.6254	0.139
13.6654	0.069
13.7053	0.039
13.7452	0.043
13.7851	0.043
13.825	0.043
13.8649	0.078
13.9049	0.151
13.9448	0.232
13.9847	0.301
14.0246	0.324
14.0645	0.314
14.1045	0.257
14.1444	0.174
14.1843	0.104
14.2242	0.093
14.2641	0.139
14.3041	0.269
14.344	0.364
14.3839	0.455
14.4238	0.505
14.4637	0.517
14.5036	0.517
14.5436	0.504
14.5835	0.482
14.6234	0.452
14.6633	0.389
14.7032	0.302
14.7432	0.249
14.7831	0.196
14.823	0.188
14.8629	0.191
14.9028	0.239
14.9428	0.312
14.9827	0.397
15.0226	0.544
15.0625	0.599
15.1024	0.638
15.1423	0.673
15.1823	0.713
15.2222	0.743
15.2621	0.763
15.302	0.785
15.3419	0.797
15.3819	0.801
15.4218	0.806
15.4617	0.808
15.5016	0.811
15.5415	0.813
15.5815	0.811
15.6214	0.811
15.6613	0.811
15.7012	0.816
15.7411	0.816
15.781	0.813
15.821	0.808
15.8609	0.8
15.9008	0.8
15.9407	0.795
15.9806	0.787
