Infrared Spectrum: ETHYLETHYNYLMETHYL CARBINOL
Formula: C6 H10 O
CAS: 77-75-8
State: SOLUTION (15% IN CHCl3)
Class: COBLENTZ
Instrument: Not specified, most likely a grating spectrometer.
Sampling: TRANSMISSION
Path length: 0.009 CM
Resolution: 4
Origin: ABBOTT LABORATORIES
MICROMETERS	TRANSMITTANCE
1.999	0.954
2.03525	0.992
2.07151	0.984
2.10776	0.984
2.14402	0.985
2.18027	0.982
2.21652	0.984
2.25278	0.98
2.28903	0.962
2.32529	0.946
2.36154	0.961
2.39779	0.966
2.43405	0.954
2.4703	0.952
2.50656	0.95
2.54281	0.929
2.57906	0.925
2.61532	0.952
2.65157	0.959
2.68783	0.954
2.72408	0.939
2.76033	0.904
2.79659	0.446
2.83284	0.53
2.8691	0.54
2.90535	0.439
2.94161	0.404
2.97786	0.461
3.01411	0.515
3.05037	0.19
3.08662	0.583
3.12288	0.78
3.15913	0.856
3.19538	0.89
3.23164	0.899
3.26789	0.893
3.30415	0.84
3.3404	0.309
3.37665	0.201
3.41291	0.263
3.44916	0.406
3.48542	0.494
3.52167	0.659
3.55792	0.819
3.59418	0.872
3.63043	0.892
3.66669	0.899
3.70294	0.904
3.73919	0.922
3.77545	0.929
3.8117	0.925
3.84796	0.931
3.88421	0.925
3.92046	0.929
3.95672	0.934
3.99297	0.929
4.02923	0.918
4.06548	0.915
4.10173	0.901
4.13799	0.908
4.17424	0.915
4.2105	0.966
4.24675	0.946
4.283	0.941
4.31926	0.938
4.35551	0.939
4.39177	0.943
4.42802	0.948
4.46428	0.946
4.50053	0.946
4.53678	0.946
4.57304	0.952
4.60929	0.957
4.64555	0.943
4.6818	0.952
4.71805	0.936
4.75431	0.911
4.79056	0.931
4.82682	0.941
4.86307	0.943
4.89932	0.945
4.93558	0.945
4.97183	0.948
5.00809	0.95
5.04434	0.95
5.08059	0.95
5.11685	0.946
5.1531	0.943
5.18936	0.943
5.22561	0.941
5.26186	0.939
5.29812	0.954
5.33437	0.952
5.37063	0.948
5.40688	0.946
5.44313	0.943
5.47939	0.932
5.51564	0.932
5.5519	0.943
5.58815	0.946
5.6244	0.948
5.66066	0.946
5.69691	0.945
5.73317	0.943
5.76942	0.938
5.80567	0.934
5.84193	0.922
5.87818	0.916
5.91444	0.92
5.95069	0.924
5.98694	0.918
6.0232	0.918
6.05945	0.92
6.09571	0.901
6.13196	0.897
6.16822	0.879
6.20447	0.886
6.24072	0.897
6.27698	0.904
6.31323	0.915
6.34949	0.916
6.38574	0.916
6.42199	0.922
6.45825	0.918
6.4945	0.929
6.53076	0.92
6.56701	0.918
6.60326	0.908
6.63952	0.901
6.67577	0.886
6.71203	0.86
6.74828	0.821
6.78453	0.768
6.82079	0.491
6.85704	0.287
6.8933	0.309
6.92955	0.439
6.9658	0.591
7.00206	0.676
7.03831	0.722
7.07457	0.713
7.11082	0.689
7.14707	0.651
7.18333	0.609
7.21958	0.455
7.25584	0.277
7.29209	0.257
7.32834	0.337
7.3646	0.402
7.40085	0.397
7.43711	0.325
7.47336	0.351
7.50961	0.408
7.54587	0.348
7.58212	0.268
7.61838	0.326
7.65463	0.372
7.69089	0.386
7.72714	0.374
7.76339	0.383
7.79965	0.395
7.8359	0.42
7.87216	0.408
7.90841	0.397
7.94466	0.404
7.98092	0.445
8.01717	0.482
8.05343	0.475
8.08968	0.438
8.12593	0.408
8.16219	0.385
8.19844	0.385
8.2347	0.388
8.27095	0.392
8.3072	0.416
8.34346	0.522
8.37971	0.508
8.41597	0.482
8.45222	0.478
8.48847	0.471
8.52473	0.431
8.56098	0.346
8.59724	0.242
8.63349	0.187
8.66974	0.19
8.706	0.219
8.74225	0.242
8.77851	0.238
8.81476	0.206
8.85101	0.185
8.88727	0.187
8.92352	0.212
8.95978	0.249
8.99603	0.27
9.03228	0.296
9.06854	0.369
9.10479	0.434
9.14105	0.475
9.1773	0.542
9.21356	0.655
9.24981	0.719
9.28606	0.743
9.32232	0.763
9.35857	0.791
9.39483	0.793
9.43108	0.766
9.46733	0.664
9.50359	0.448
9.53984	0.446
9.5761	0.48
9.61235	0.466
9.6486	0.418
9.68486	0.367
9.72111	0.374
9.75737	0.395
9.79362	0.452
9.82987	0.485
9.86613	0.438
9.90238	0.397
9.93864	0.406
9.97489	0.371
10.0111	0.242
10.0474	0.148
10.0837	0.24
10.1199	0.402
10.1562	0.565
10.1924	0.692
10.2287	0.757
10.2649	0.802
10.3012	0.816
10.3374	0.835
10.3737	0.84
10.4099	0.846
10.4462	0.851
10.4824	0.851
10.5187	0.849
10.555	0.842
10.5912	0.826
10.6275	0.821
10.6637	0.805
10.7	0.777
10.7362	0.727
10.7725	0.662
10.8087	0.443
10.845	0.238
10.8812	0.136
10.9175	0.084
10.9537	0.045
10.99	0.051
11.0263	0.192
11.0625	0.316
11.0988	0.365
11.135	0.379
11.1713	0.383
11.2075	0.434
11.2438	0.549
11.28	0.678
11.3163	0.745
11.3525	0.789
11.3888	0.812
11.4251	0.839
11.4613	0.858
11.4976	0.865
11.5338	0.871
11.5701	0.869
11.6063	0.879
11.6426	0.883
11.6788	0.885
11.7151	0.901
11.7513	0.916
11.7876	0.916
11.8238	0.922
11.8601	0.913
11.8964	0.906
11.9326	0.906
11.9689	0.913
12.0051	0.915
12.0414	0.911
12.0776	0.913
12.1139	0.92
12.1501	0.915
12.1864	0.915
12.2226	0.911
12.2589	0.925
12.2951	0.932
12.3314	0.943
12.3677	0.946
12.4039	0.946
12.4402	0.952
12.4764	0.957
12.5127	0.98
12.5489	0.991
12.5852	0.996
12.6214	1.012
12.6577	1.021
12.6939	1.026
12.7302	1.024
12.7665	1.022
12.8027	1.022
12.839	1.021
12.8752	1.019
12.9115	1.019
12.9477	1.014
12.984	1.003
13.0202	0.998
13.0565	0.989
13.0927	0.991
13.129	0.987
13.1652	0.982
13.2015	0.978
13.2378	0.98
13.274	0.966
13.3103	0.964
13.3465	0.95
13.3828	0.946
13.419	0.955
13.4553	0.952
13.4915	0.946
13.5278	0.948
13.564	0.943
13.6003	0.938
13.6365	0.936
13.6728	0.934
13.7091	0.929
13.7453	0.936
13.7816	0.929
13.8178	0.925
13.8541	0.929
13.8903	0.922
13.9266	0.909
13.9628	0.893
13.9991	0.881
14.0353	0.858
14.0716	0.839
14.1079	0.819
14.1441	0.798
14.1804	0.779
14.2166	0.766
14.2529	0.747
14.2891	0.738
14.3254	0.726
14.3616	0.712
14.3979	0.692
14.4341	0.66
14.4704	0.623
14.5066	0.586
14.5429	0.56
14.5792	0.537
14.6154	0.514
14.6517	0.501
14.6879	0.494
14.7242	0.473
14.7604	0.454
14.7967	0.439
14.8329	0.422
14.8692	0.434
14.9054	0.448
14.9417	0.461
14.9779	0.471
15.0142	0.466
15.0505	0.393
15.0867	0.231
15.123	0.148
15.1592	0.134
15.1955	0.136
15.2317	0.139
15.268	0.143
15.3042	0.146
15.3405	0.15
15.3767	0.151
15.413	0.146
