Infrared Spectrum: SULFURIC ACID, DIMETHYL ESTER
Formula: C2 H6 O4 S
CAS: 77-78-1
State: SOLUTION (1% IN CCl4 FOR 3800-1333, 1% IN CS2 FOR 1333-400 CM^-^1)
Class: COBLENTZ III
Instrument: DOW KBr FOREPRISM-GRATING
Instrument parameters: BLAZED AT 3.5, 12.0, 20.0 MICRON, CHANGED AT 5.0, 7.5, 14.9 MICRON
Sampling: TRANSMISSION
Path length: 0.055, 0.054 CM
Resolution: 4
Origin: DOW CHEMICAL COMPANY
1/CM	TRANSMITTANCE
459.72	0.827
468.477	0.842
477.233	0.849
485.99	0.835
494.746	0.686
503.503	0.532
512.26	0.741
521.016	0.786
529.773	0.841
538.529	0.822
547.286	0.749
556.043	0.701
564.799	0.487
573.556	0.793
582.312	0.763
591.069	0.5111
599.826	0.834
608.582	0.886
617.339	0.88
626.095	0.85
634.852	0.793
643.609	0.694
652.365	0.662
661.122	0.779
669.878	0.803
678.635	0.818
687.391	0.823
696.148	0.824
704.905	0.824
713.661	0.823
722.418	0.819
731.174	0.796
739.931	0.692
748.688	0.303
757.444	0.403
766.201	0.439
774.957	0.668
783.714	0.652
792.471	0.653
801.227	0.426
809.984	0.0749
818.74	0.009
827.497	0.136
836.254	0.443
845.01	0.566
853.767	0.692
862.523	0.82
871.28	0.876
880.037	0.902
888.793	0.911
897.55	0.916
906.306	0.917
915.063	0.916
923.82	0.915
932.576	0.909
941.333	0.887
950.089	0.842
958.846	0.742
967.603	0.547
976.359	0.1949
985.116	0.005
993.872	0
1002.63	0.077
1011.39	0.01
1020.14	0.195
1028.9	0.5061
1037.66	0.686
1046.41	0.794
1055.17	0.837
1063.93	0.86
1072.68	0.876
1081.44	0.896
1090.19	0.904
1098.95	0.913
1107.71	0.924
1116.46	0.931
1125.22	0.938
1133.98	0.93
1142.73	0.912
1151.49	0.87
1160.25	0.818
1169	0.761
1177.76	0.606
1186.52	0.538
1195.27	0.099
1204.03	0
1212.79	0.4391
1221.54	0.726
1230.3	0.819
1239.06	0.852
1247.81	0.874
1256.57	0.882
1265.33	0.89
1274.08	0.896
1282.84	0.904
1291.6	0.908
1300.35	0.912
1309.11	0.908
1317.87	0.896
1326.62	0.88
1335.38	0.853
1344.14	0.834
1352.89	0.805
1361.65	0.741
1370.41	0.6029
1379.16	0.3739
1387.92	0.064
1396.68	0.079
1405.43	0
1414.19	0.2281
1422.95	0.5381
1431.7	0.63
1440.46	0.476
1449.22	0.491
1457.97	0.444
1466.73	0.632
1475.49	0.694
1484.24	0.729
1493	0.751
1501.75	0.771
1510.51	0.786
1519.27	0.8
1528.02	0.816
1536.78	0.83
1545.54	0.845
1554.29	0.854
1563.05	0.868
1571.81	0.876
1580.56	0.886
1589.32	0.894
1598.08	0.904
1606.83	0.909
1615.59	0.917
1624.35	0.923
1633.1	0.927
1641.86	0.932
1650.62	0.942
1659.37	0.939
1668.13	0.946
1676.89	0.948
1685.64	0.949
1694.4	0.953
1703.16	0.952
1711.91	0.949
1720.67	0.945
1729.43	0.942
1738.18	0.928
1746.94	0.912
1755.7	0.919
1764.45	0.926
1773.21	0.931
1781.97	0.931
1790.72	0.935
1799.48	0.923
1808.24	0.916
1816.99	0.904
1825.75	0.902
1834.51	0.891
1843.26	0.896
1852.02	0.897
1860.78	0.905
1869.53	0.915
1878.29	0.926
1887.05	0.931
1895.8	0.927
1904.56	0.923
1913.31	0.93
1922.07	0.934
1930.83	0.935
1939.58	0.932
1948.34	0.927
1957.1	0.92
1965.85	0.909
1974.61	0.861
1983.37	0.856
1992.12	0.886
2000.88	0.8705
2009.64	0.879
2018.39	0.886
2027.15	0.8935
2035.91	0.898
2044.66	0.9015
2053.42	0.9085
2062.18	0.912
2070.93	0.915
2079.69	0.9165
2088.45	0.917
2097.2	0.917
2105.96	0.917
2114.72	0.9165
2123.47	0.916
2132.23	0.915
2140.99	0.9125
2149.74	0.9066
2158.5	0.904
2167.26	0.905
2176.01	0.906
2184.77	0.9055
2193.53	0.9031
2202.28	0.9015
2211.04	0.901
2219.8	0.901
2228.55	0.902
2237.31	0.905
2246.07	0.906
2254.82	0.908
2263.58	0.906
2272.34	0.9045
2281.09	0.905
2289.85	0.906
2298.61	0.908
2307.36	0.908
2316.12	0.908
2324.87	0.9084
2333.63	0.909
2342.39	0.912
2351.14	0.913
2359.9	0.913
2368.66	0.9126
2377.41	0.9051
2386.17	0.904
2394.93	0.909
2403.68	0.913
2412.44	0.9234
2421.2	0.9289
2429.95	0.93
2438.71	0.932
2447.47	0.934
2456.22	0.9344
2464.98	0.938
2473.74	0.938
2482.49	0.937
2491.25	0.937
2500.01	0.9384
2508.76	0.941
2517.52	0.943
2526.28	0.945
2535.03	0.943
2543.79	0.937
2552.55	0.937
2561.3	0.935
2570.06	0.9332
2578.82	0.931
2587.57	0.928
2596.33	0.926
2605.09	0.9314
2613.84	0.939
2622.6	0.941
2631.36	0.942
2640.11	0.942
2648.87	0.9442
2657.63	0.9524
2666.38	0.954
2675.14	0.956
2683.9	0.956
2692.65	0.957
2701.41	0.957
2710.17	0.957
2718.92	0.9536
2727.68	0.953
2736.43	0.953
2745.19	0.956
2753.95	0.956
2762.7	0.956
2771.46	0.957
2780.22	0.9587
2788.97	0.9617
2797.73	0.965
2806.49	0.965
2815.24	0.9623
2824	0.9566
2832.76	0.9241
2841.51	0.8925
2850.27	0.8691
2859.03	0.9099
2867.78	0.945
2876.54	0.938
2885.3	0.932
2894.05	0.9196
2902.81	0.926
2911.57	0.9274
2920.32	0.9343
2929.08	0.934
2937.84	0.9186
2946.59	0.8622
2955.35	0.6139
2964.11	0.4495
2972.86	0.8747
2981.62	0.9224
2990.38	0.93
2999.13	0.9166
3007.89	0.8607
3016.65	0.827
3025.4	0.8663
3034.16	0.88
3042.92	0.9106
3051.67	0.9453
3060.43	0.96
3069.19	0.9673
3077.94	0.971
3086.7	0.974
3095.46	0.9753
3104.21	0.978
3112.97	0.979
3121.73	0.9806
3130.48	0.986
3139.24	0.989
3147.99	0.9893
3156.75	0.994
3165.51	0.9986
3174.26	1.0007
3183.02	1
3191.78	1.001
3200.53	1.001
3209.29	1.0034
3218.05	1.004
3226.8	1.004
3235.56	1.004
3244.32	1.0053
3253.07	1.0081
3261.83	1.0053
3270.59	1.009
3279.34	1.0083
3288.1	1.012
3296.86	1.013
3305.61	1.016
3314.37	1.0193
3323.13	1.02
3331.88	1.019
3340.64	1.0167
3349.4	1.016
3358.15	1.019
3366.91	1.0203
3375.67	1.0243
3384.42	1.0278
3393.18	1.0343
3401.94	1.038
3410.69	1.038
3419.45	1.0315
3428.21	1.028
3436.96	1.0265
3445.72	1.021
3454.48	1.019
3463.23	1.0127
3471.99	1.01
3480.75	1.0075
3489.5	1.0093
3498.26	1.0115
3507.02	1.005
3515.77	1.004
3524.53	1.002
3533.29	1.0008
3542.04	1
3550.8	1
3559.55	0.998
3568.31	0.9978
3577.07	0.997
3585.82	0.995
3594.58	0.994
3603.34	0.993
3612.09	0.993
3620.85	0.9932
3629.61	0.991
3638.36	0.9902
3647.12	0.9965
3655.88	0.989
3664.63	0.9942
3673.39	0.9938
3682.15	0.994
3690.9	0.997
3699.66	0.994
3708.42	0.9898
3717.17	0.983
3725.93	0.98
3734.69	0.984
3743.44	0.984
3752.2	0.9828
3760.96	0.9816
3769.71	0.98
3778.47	0.98
3787.23	0.9822
3795.98	0.9902
