Infrared Spectrum: 1,2,3-Propanetricarboxylic acid, 2-acetoxy-, triethyl ester
Formula: C14 H22 O8
CAS: 77-89-4
State: SOLUTION (10% CCl4 FOR 2.7-7.5, 10% CS2 FOR 7.5-26 MICRON) VS SOLVENT
Class: COBLENTZ III
Instrument: DOW KBr FOREPRISM-GRATING
Instrument parameters: BLAZED AT 3.5, 12.0, 20.0 MICRON AND CHANGED AT 5.0, 7.5, 14.9 MICRON
Sampling: TRANSMISSION
Path length: 0.011 CM, 0.011 CM
Resolution: 2
Origin: DOW CHEMICAL COMPANY
1/CM	TRANSMITTANCE
394	0.7281
403	0.7281
412	0.7271
421	0.7256
430	0.7242
439	0.7225
448	0.7201
457	0.716
466	0.7086
475	0.6992
484	0.6961
493	0.7141
502	0.7251
511	0.7304
520	0.745
529	0.7635
538	0.7872
547	0.7939
556	0.7917
565	0.7826
574	0.7767
583	0.7736
592	0.7434
601	0.7101
610	0.7622
619	0.7818
628	0.7668
637	0.7293
646	0.6985
655	0.704
664	0.73
673	0.7958
682	0.8265
691	0.8278
700	0.8228
709	0.8185
718	0.8144
727	0.8108
736	0.8068
745	0.7997
754	0.778
763	0.7443
772	0.6598
781	0.5956
790	0.6455
799	0.7035
808	0.7174
817	0.7484
826	0.7482
835	0.7145
844	0.7014
853	0.6404
862	0.5839
871	0.6867
880	0.7064
889	0.7785
898	0.7758
907	0.7551
916	0.7619
925	0.7038
934	0.648
943	0.6133
952	0.5592
961	0.536
970	0.735
979	0.7454
988	0.7169
997	0.6306
1006	0.4465
1015	0.2556
1024	0.0469
1033	0.0528
1042	0.0945
1051	0.1567
1060	0.2015
1069	0.1766
1078	0.284
1087	0.3899
1096	0.248
1105	0.3523
1114	0.3147
1123	0.2505
1132	0.1491
1141	0.1084
1150	0.1272
1159	0.0999
1168	0.0289
1177	0.0068
1186	0.0083
1195	0.0188
1204	0.0251
1213	0.0209
1222	0.0122
1231	0.015
1240	0.0425
1249	0.111
1258	0.1038
1267	0.0698
1276	0.0574
1285	0.0624
1294	0.0939
1303	0.1585
1312	0.3718
1321	0.3589
1330	0.3432
1339	0.2788
1348	0.177
1357	0.3347
1366	0.2677
1375	0.0463
1384	0.3071
1393	0.3347
1402	0.3852
1411	0.4014
1420	0.3994
1429	0.3956
1438	0.3554
1447	0.2825
1456	0.4778
1465	0.3889
1474	0.483
1483	0.58
1492	0.7526
1501	0.7711
1510	0.7853
1519	0.7985
1528	0.804
1537	0.8198
1546	0.8223
1555	0.8168
1564	0.8131
1573	0.8121
1582	0.8111
1591	0.8067
1600	0.8018
1609	0.7985
1618	0.7951
1627	0.7882
1636	0.7778
1645	0.7669
1654	0.7585
1663	0.748
1672	0.7215
1681	0.6764
1690	0.6205
1699	0.5049
1708	0.3953
1717	0.2719
1726	0.0081
1735	0.0022
1744	0.0018
1753	0.0041
1762	0.0449
1771	0.2945
1780	0.5595
1789	0.6366
1798	0.7132
1807	0.74
1816	0.7601
1825	0.7741
1834	0.7857
1843	0.7945
1852	0.7996
1861	0.8028
1870	0.8042
1879	0.8057
1888	0.8101
1897	0.818
1906	0.8261
1915	0.8347
1924	0.844
1933	0.8494
1942	0.8503
1951	0.8507
1960	0.8502
1969	0.8506
1978	0.8511
1987	0.8512
1996	0.8505
2005	0.8488
2014	0.8471
2023	0.8459
2032	0.8446
2041	0.8434
2050	0.8425
2059	0.8418
2068	0.8409
2077	0.8414
2086	0.8463
2095	0.85
2104	0.8517
2113	0.8525
2122	0.8532
2131	0.8535
2140	0.8542
2149	0.8549
2158	0.8575
2167	0.8611
2176	0.8684
2185	0.863
2194	0.8605
2203	0.8598
2212	0.8593
2221	0.8586
2230	0.8551
2239	0.8525
2248	0.8528
2257	0.8531
2266	0.8532
2275	0.8531
2284	0.853
2293	0.8527
2302	0.8525
2311	0.8523
2320	0.8521
2329	0.8518
2338	0.85
2347	0.8482
2356	0.8481
2365	0.8478
2374	0.8478
2383	0.8488
2392	0.8499
2401	0.8511
2410	0.8521
2419	0.8537
2428	0.8556
2437	0.8575
2446	0.8588
2455	0.8592
2464	0.8594
2473	0.8595
2482	0.8595
2491	0.8598
2500	0.86
2509	0.8603
2518	0.8606
2527	0.8609
2536	0.8613
2545	0.8616
2554	0.862
2563	0.8621
2572	0.8623
2581	0.8625
2590	0.8627
2599	0.8631
2608	0.8636
2617	0.864
2626	0.864
2635	0.8638
2644	0.8636
2653	0.8632
2662	0.8625
2671	0.8616
2680	0.8609
2689	0.86
2698	0.8588
2707	0.8575
2716	0.8565
2725	0.8548
2734	0.8528
2743	0.8511
2752	0.8496
2761	0.8493
2770	0.8496
2779	0.8507
2788	0.8485
2797	0.8439
2806	0.8378
2815	0.8332
2824	0.8324
2833	0.8249
2842	0.8135
2851	0.7982
2860	0.7719
2869	0.7131
2878	0.7518
2887	0.7228
2896	0.6283
2905	0.5436
2914	0.6522
2923	0.6078
2932	0.5136
2941	0.4525
2950	0.556
2959	0.4668
2968	0.4088
2977	0.3184
2986	0.1863
2995	0.2027
3004	0.3873
3013	0.6225
3022	0.7475
3031	0.7926
3040	0.8181
3049	0.8342
3058	0.8446
3067	0.8536
3076	0.8593
3085	0.8627
3094	0.8642
3103	0.8661
3112	0.8678
3121	0.8693
3130	0.8708
3139	0.8721
3148	0.8736
3157	0.875
3166	0.8763
3175	0.8774
3184	0.8785
3193	0.8797
3202	0.8809
3211	0.8821
3220	0.8833
3229	0.8843
3238	0.8848
3247	0.8853
3256	0.8858
3265	0.8856
3274	0.8853
3283	0.8851
3292	0.8848
3301	0.8843
3310	0.8839
3319	0.8834
3328	0.8832
3337	0.8828
3346	0.8825
3355	0.8821
3364	0.8812
3373	0.8803
3382	0.8794
3391	0.878
3400	0.8755
3409	0.869
3418	0.8605
3427	0.8501
3436	0.8384
3445	0.8212
3454	0.8149
3463	0.818
3472	0.8262
3481	0.8355
3490	0.8443
3499	0.8514
3508	0.8562
3517	0.8574
3526	0.8578
3535	0.8577
3544	0.8575
3553	0.8574
3562	0.8568
3571	0.8561
3580	0.8555
3589	0.8548
3598	0.8538
3607	0.8528
3616	0.8518
3625	0.851
3634	0.8505
3643	0.8499
3652	0.8494
3661	0.8488
3670	0.8489
3679	0.8491
3688	0.8493
3697	0.8496
3706	0.8505
3715	0.8517
3724	0.8547
3733	0.8568
3742	0.8548
3751	0.8512
3760	0.8478
3769	0.8462
3778	0.8451
3787	0.8444
3796	0.8464
