Infrared Spectrum: 1,2,3-Propanetricarboxylic acid, 2-acetoxy-, tributyl ester
Formula: C20 H34 O8
CAS: 77-90-7
State: SOLUTION (10% CCl4 FOR 2.7-7.5, CS2 FOR 7.5-26 MICRON) VS SOLVENT
Class: COBLENTZ III
Instrument: DOW KBr FOREPRISM-GRATING
Instrument parameters: BLAZED AT 3.5, 12.0, 20.0 MICRON AND CHANGED AT 5.0, 7.5, 14.9 MICRON
Sampling: TRANSMISSION
Path length: 0.011 CM, 0.011 CM
Resolution: 2
Origin: DOW CHEMICAL COMPANY
1/CM	TRANSMITTANCE
3800	0.8615
3791	0.8618
3782	0.8623
3773	0.8627
3764	0.8631
3755	0.8634
3746	0.8638
3737	0.8641
3728	0.8644
3719	0.8645
3710	0.8647
3701	0.8647
3692	0.8645
3683	0.8643
3674	0.8642
3665	0.8644
3656	0.8648
3647	0.8651
3638	0.8654
3629	0.8659
3620	0.8665
3611	0.867
3602	0.8678
3593	0.8689
3584	0.87
3575	0.8711
3566	0.8721
3557	0.873
3548	0.874
3539	0.8746
3530	0.875
3521	0.8747
3512	0.874
3503	0.8725
3494	0.8695
3485	0.8621
3476	0.8553
3467	0.8485
3458	0.8433
3449	0.8454
3440	0.8584
3431	0.8718
3422	0.8823
3413	0.8874
3404	0.8909
3395	0.8936
3386	0.8956
3377	0.8968
3368	0.8977
3359	0.8977
3350	0.8971
3341	0.8958
3332	0.8949
3323	0.8941
3314	0.8939
3305	0.8936
3296	0.8935
3287	0.8934
3278	0.8934
3269	0.8936
3260	0.8938
3251	0.8937
3242	0.8935
3233	0.8931
3224	0.8921
3215	0.8911
3206	0.89
3197	0.8849
3188	0.8843
3179	0.8843
3170	0.8838
3161	0.8828
3152	0.882
3143	0.8811
3134	0.8807
3125	0.8799
3116	0.8787
3107	0.8771
3098	0.8754
3089	0.8731
3080	0.8685
3071	0.8621
3062	0.8552
3053	0.8465
3044	0.8352
3035	0.8225
3026	0.8024
3017	0.7775
3008	0.7415
2999	0.6014
2990	0.3891
2981	0.1891
2972	0.0733
2963	0.0392
2954	0.199
2945	0.1843
2936	0.156
2927	0.2946
2918	0.3525
2909	0.3794
2900	0.422
2891	0.4909
2882	0.2156
2873	0.3694
2864	0.5258
2855	0.617
2846	0.635
2837	0.7561
2828	0.7841
2819	0.806
2810	0.8188
2801	0.8287
2792	0.8363
2783	0.8414
2774	0.8457
2765	0.848
2756	0.8488
2747	0.8471
2738	0.8449
2729	0.8447
2720	0.8462
2711	0.8478
2702	0.8496
2693	0.8512
2684	0.8538
2675	0.8561
2666	0.8558
2657	0.8562
2648	0.8597
2639	0.8618
2630	0.8625
2621	0.8624
2612	0.8623
2603	0.8618
2594	0.8613
2585	0.8606
2576	0.8599
2567	0.8603
2558	0.8633
2549	0.865
2540	0.8661
2531	0.8673
2522	0.8678
2513	0.8681
2504	0.8682
2495	0.8678
2486	0.8675
2477	0.8667
2468	0.866
2459	0.8648
2450	0.8634
2441	0.8636
2432	0.864
2423	0.863
2414	0.8618
2405	0.861
2396	0.8602
2387	0.8604
2378	0.8614
2369	0.8627
2360	0.8631
2351	0.8637
2342	0.865
2333	0.8652
2324	0.8632
2315	0.8568
2306	0.8567
2297	0.8578
2288	0.8592
2279	0.86
2270	0.8608
2261	0.8618
2252	0.8632
2243	0.8641
2234	0.8648
2225	0.8654
2216	0.8655
2207	0.8662
2198	0.8668
2189	0.8671
2180	0.8747
2171	0.8706
2162	0.8671
2153	0.8661
2144	0.8652
2135	0.8644
2126	0.8639
2117	0.8633
2108	0.8628
2099	0.862
2090	0.8612
2081	0.8604
2072	0.8595
2063	0.8591
2054	0.859
2045	0.8589
2036	0.8584
2027	0.8578
2018	0.8578
2009	0.8604
2000	0.8655
1991	0.867
1982	0.8659
1973	0.8657
1964	0.8655
1955	0.8652
1946	0.8646
1937	0.8628
1928	0.8604
1919	0.8578
1910	0.8547
1901	0.8521
1892	0.85
1883	0.8486
1874	0.8455
1865	0.8405
1856	0.8351
1847	0.8289
1838	0.8237
1829	0.8183
1820	0.8078
1811	0.7934
1802	0.773
1793	0.7404
1784	0.6799
1775	0.4756
1766	0.1827
1757	0.0309
1748	0
1739	0
1730	0.0005
1721	0.1207
1712	0.4673
1703	0.5743
1694	0.6283
1685	0.7096
1676	0.7586
1667	0.7767
1658	0.7896
1649	0.7978
1640	0.8031
1631	0.8112
1622	0.8201
1613	0.8285
1604	0.8345
1595	0.8392
1586	0.8415
1577	0.838
1568	0.8355
1559	0.8367
1550	0.838
1541	0.8381
1532	0.8343
1523	0.8242
1514	0.8183
1505	0.806
1496	0.7903
1487	0.7649
1478	0.4819
1469	0.2955
1460	0.3444
1451	0.4371
1442	0.4745
1433	0.4203
1424	0.4873
1415	0.4499
1406	0.4986
1397	0.3722
1388	0.366
1379	0.3704
1370	0.1633
1361	0.2471
1352	0.2357
1343	0.2982
1334	0.351
1325	0.4062
1316	0.4307
1307	0.3534
1298	0.2235
1289	0.1049
1280	0.0875
1271	0.1229
1262	0.1531
1253	0.1686
1244	0.1014
1235	0.0517
1226	0.0384
1217	0.051
1208	0.067
1199	0.068
1190	0.0454
1181	0.0175
1172	0.0316
1163	0.1164
1154	0.1779
1145	0.15
1136	0.1661
1127	0.2534
1118	0.3493
1109	0.5046
1100	0.5448
1091	0.551
1082	0.4235
1073	0.2161
1064	0.1773
1055	0.2273
1046	0.2389
1037	0.2633
1028	0.3762
1019	0.3032
1010	0.3716
1001	0.4827
992	0.5471
983	0.5209
974	0.5337
965	0.4183
956	0.4648
947	0.5337
938	0.6066
929	0.716
920	0.7612
911	0.7719
902	0.7615
893	0.761
884	0.7718
875	0.7831
866	0.7888
857	0.8001
848	0.7718
839	0.7365
830	0.7503
821	0.7611
812	0.7654
803	0.7571
794	0.7417
785	0.733
776	0.7481
767	0.7908
758	0.798
749	0.7925
740	0.7417
731	0.8203
722	0.8403
713	0.8517
704	0.8586
695	0.8631
686	0.8482
677	0.8225
668	0.7942
659	0.7742
650	0.7551
641	0.7818
632	0.8068
623	0.8237
614	0.8146
605	0.7745
596	0.7632
587	0.7965
578	0.8101
569	0.8148
560	0.8236
551	0.8273
542	0.8214
533	0.79
524	0.7638
515	0.7595
506	0.7508
497	0.7655
488	0.766
479	0.7676
470	0.7701
461	0.7735
452	0.7725
443	0.7682
434	0.7671
425	0.7672
416	0.7689
407	0.7705
398	0.7725
