Infrared Spectrum: 4-Phenylpiperidine
Formula: C11 H15 N
CAS: 771-99-3
State: SOLID (SPLIT MULL)
Melting point: 59 C
Class: COBLENTZ III
Instrument: BECKMAN IR-9 (GRATING)
Instrument parameters: ORDER CHANGES: 670, 1200, 2000 CM^-^1
Sampling: TRANSMISSION
Resolution: 2
Origin: DOW CHEMICAL COMPANY
1/CM	TRANSMITTANCE
401	0.6392
410	0.6359
419	0.6645
428	0.7297
437	0.7703
446	0.7746
455	0.7133
464	0.608
473	0.574
482	0.7433
491	0.7962
500	0.8083
509	0.8331
518	0.7882
527	0.2398
536	0.6882
545	0.7347
554	0.6632
563	0.8615
572	0.8728
581	0.8591
590	0.8117
599	0.8028
608	0.8502
617	0.8575
626	0.7628
635	0.766
644	0.6408
653	0.8344
662	0.819
671	0.7457
680	0.8011
689	0.7685
698	0.0129
707	0.3804
716	0.6985
725	0.6312
734	0.6269
743	0.4236
752	0.0501
761	0.2732
770	0.69
779	0.7171
788	0.5521
797	0.3549
806	0.683
815	0.5665
824	0.5276
833	0.2176
842	0.7796
851	0.8259
860	0.8118
869	0.7781
878	0.5293
887	0.424
896	0.435
905	0.815
914	0.8312
923	0.6718
932	0.6936
941	0.6316
950	0.7672
959	0.7483
968	0.7643
977	0.5798
986	0.5903
995	0.7289
1004	0.7008
1013	0.531
1022	0.1915
1031	0.5627
1040	0.5873
1049	0.5916
1058	0.5498
1067	0.2637
1076	0.349
1085	0.3971
1094	0.302
1103	0.4301
1112	0.3534
1121	0.3718
1130	0.3758
1139	0.0604
1148	0.4658
1157	0.4827
1166	0.5638
1175	0.5937
1184	0.5154
1193	0.5746
1202	0.5197
1211	0.581
1220	0.6496
1229	0.6431
1238	0.5638
1247	0.3034
1256	0.4562
1265	0.4809
1274	0.5931
1283	0.4919
1292	0.5401
1301	0.3771
1310	0.4682
1319	0.1576
1328	0.5492
1337	0.6225
1346	0.6254
1355	0.6855
1364	0.6961
1373	0.4835
1382	0.5296
1391	0.4216
1400	0.6795
1409	0.5529
1418	0.4507
1427	0.3135
1436	0.2492
1445	0.1573
1454	0.0591
1463	0.4744
1472	0.303
1481	0.5318
1490	0.2454
1499	0.372
1508	0.5868
1517	0.5709
1526	0.5767
1535	0.5583
1544	0.5285
1553	0.605
1562	0.6928
1571	0.756
1580	0.7593
1589	0.7661
1598	0.7176
1607	0.6098
1616	0.8165
1625	0.8093
1634	0.7736
1643	0.7187
1652	0.7
1661	0.745
1670	0.788
1679	0.819
1688	0.8335
1697	0.8436
1706	0.8518
1715	0.8556
1724	0.8555
1733	0.8537
1742	0.8484
1751	0.8507
1760	0.8474
1769	0.8432
1778	0.8463
1787	0.8428
1796	0.824
1805	0.8115
1814	0.8193
1823	0.8186
1832	0.83
1841	0.8355
1850	0.8271
1859	0.8035
1868	0.7928
1877	0.7965
1886	0.7745
1895	0.7995
1904	0.7901
1913	0.786
1922	0.7855
1931	0.7721
1940	0.7519
1949	0.6753
1958	0.7468
1967	0.7247
1976	0.7435
1985	0.7614
1994	0.7565
2003	0.7495
2012	0.7448
2021	0.7403
2030	0.7348
2039	0.7283
2048	0.7218
2057	0.7157
2066	0.7097
2075	0.7017
2084	0.6931
2093	0.6841
2102	0.6746
2111	0.6644
2120	0.6558
2129	0.6485
2138	0.6428
2147	0.637
2156	0.6303
2165	0.6227
2174	0.6134
2183	0.6044
2192	0.5964
2201	0.5895
2210	0.5824
2219	0.5746
2228	0.5651
2237	0.5552
2246	0.5452
2255	0.5352
2264	0.5272
2273	0.5215
2282	0.5172
2291	0.5137
2300	0.5103
2309	0.5076
2318	0.5051
2327	0.5029
2336	0.5012
2345	0.5
2354	0.4993
2363	0.499
2372	0.4986
2381	0.4819
2390	0.4592
2399	0.4505
2408	0.4471
2417	0.4428
2426	0.4384
2435	0.4347
2444	0.4295
2453	0.4242
2462	0.4192
2471	0.414
2480	0.4108
2489	0.4057
2498	0.4
2507	0.3953
2516	0.3906
2525	0.3858
2534	0.3812
2543	0.3782
2552	0.3762
2561	0.3742
2570	0.3708
2579	0.3664
2588	0.3612
2597	0.3556
2606	0.3488
2615	0.3392
2624	0.3264
2633	0.2876
2642	0.3148
2651	0.3249
2660	0.3138
2669	0.2952
2678	0.2737
2687	0.2542
2696	0.2587
2705	0.2567
2714	0.2383
2723	0.2185
2732	0.1853
2741	0.0597
2750	0.0953
2759	0.236
2768	0.2264
2777	0.1756
2786	0.1249
2795	0.0866
2804	0.0434
2813	0.0335
2822	0.1719
2831	0.2222
2840	0.1693
2849	0.1396
2858	0.1954
2867	0.1727
2876	0.1214
2885	0.1513
2894	0.1521
2903	0.1006
2912	0.0454
2921	0.0297
2930	0.0316
2939	0.0826
2948	0.1224
2957	0.0593
2966	0.2797
2975	0.3005
2984	0.2993
2993	0.2854
3002	0.2615
3011	0.2496
3020	0.1577
3029	0.0828
3038	0.1812
3047	0.2643
3056	0.2309
3065	0.1742
3074	0.2322
3083	0.1909
3092	0.2449
3101	0.2566
3110	0.2629
3119	0.2653
3128	0.2653
3137	0.2642
3146	0.2605
3155	0.2539
3164	0.2458
3173	0.2359
3182	0.2257
3191	0.2153
3200	0.202
3209	0.1871
3218	0.1723
3227	0.1563
3236	0.138
3245	0.1077
3254	0.0662
3263	0.0381
3272	0.0846
3281	0.2087
3290	0.2347
3299	0.2378
3308	0.2378
3317	0.2373
3326	0.2358
3335	0.2334
3344	0.2316
3353	0.2299
3362	0.2285
3371	0.2273
3380	0.2264
3389	0.2254
3398	0.2245
3407	0.2239
3416	0.2262
3425	0.2284
3434	0.2311
3443	0.2335
3452	0.2357
3461	0.2372
3470	0.2388
3479	0.2403
3488	0.2419
3497	0.2434
3506	0.2447
3515	0.2454
3524	0.246
3533	0.2464
3542	0.2467
3551	0.247
3560	0.247
3569	0.2464
3578	0.2458
3587	0.2448
3596	0.2434
3605	0.2421
3614	0.2406
3623	0.2389
3632	0.2373
3641	0.2356
3650	0.2335
3659	0.2317
3668	0.2297
3677	0.2283
3686	0.2269
3695	0.2256
3704	0.2246
3713	0.2232
3722	0.2216
3731	0.2216
3740	0.2214
3749	0.2212
3758	0.2205
3767	0.2197
3776	0.2181
3785	0.2162
3794	0.2143
