Infrared Spectrum: Tetrafluorohydroquinone
Formula: C6 H2 F4 O2
CAS: 771-63-1
State: SOLID (SPLIT MULL)
Class: COBLENTZ II
Instrument: DOW KBr FOREPRISM-GRATING
Instrument parameters: BLAZED AT 3.5, 12.0, 20.0 MICRON AND CHANGED AT 5.0, 7.5, 14.9 MICRON
Sampling: TRANSMISSION
Resolution: 2
Origin: DOW CHEMICAL COMPANY
1/CM	TRANSMITTANCE
3800	0.8507
3791	0.8514
3782	0.8521
3773	0.8528
3764	0.8535
3755	0.854
3746	0.8546
3737	0.8553
3728	0.856
3719	0.8567
3710	0.8577
3701	0.859
3692	0.8604
3683	0.8608
3674	0.8609
3665	0.8609
3656	0.8611
3647	0.8616
3638	0.8621
3629	0.8627
3620	0.8631
3611	0.8634
3602	0.8617
3593	0.8593
3584	0.8554
3575	0.8466
3566	0.8471
3557	0.832
3548	0.7615
3539	0.7684
3530	0.7887
3521	0.7956
3512	0.7718
3503	0.7562
3494	0.7484
3485	0.7396
3476	0.7248
3467	0.6855
3458	0.6501
3449	0.6131
3440	0.5675
3431	0.5062
3422	0.468
3413	0.4335
3404	0.4005
3395	0.3655
3386	0.3238
3377	0.2902
3368	0.2648
3359	0.2316
3350	0.2113
3341	0.2009
3332	0.1987
3323	0.2014
3314	0.2077
3305	0.2183
3296	0.231
3287	0.2469
3278	0.2666
3269	0.2813
3260	0.2999
3251	0.3216
3242	0.344
3233	0.3656
3224	0.3838
3215	0.4082
3206	0.4332
3197	0.4596
3188	0.484
3179	0.5073
3170	0.5285
3161	0.5498
3152	0.5704
3143	0.59
3134	0.6106
3125	0.628
3116	0.6446
3107	0.6603
3098	0.6749
3089	0.6875
3080	0.6995
3071	0.7091
3062	0.7178
3053	0.7197
3044	0.7212
3035	0.7228
3026	0.7249
3017	0.7334
3008	0.7418
2999	0.7472
2990	0.751
2981	0.7546
2972	0.7582
2963	0.7617
2954	0.7651
2945	0.7682
2936	0.7708
2927	0.7735
2918	0.7761
2909	0.779
2900	0.7815
2891	0.7828
2882	0.7815
2873	0.7803
2864	0.7805
2855	0.7834
2846	0.7885
2837	0.7942
2828	0.8004
2819	0.8047
2810	0.8067
2801	0.8061
2792	0.8057
2783	0.8048
2774	0.804
2765	0.8028
2756	0.8014
2747	0.7999
2738	0.7971
2729	0.7901
2720	0.7835
2711	0.7755
2702	0.7717
2693	0.7684
2684	0.7762
2675	0.7825
2666	0.78
2657	0.7778
2648	0.7898
2639	0.8
2630	0.8057
2621	0.8099
2612	0.8138
2603	0.8161
2594	0.8185
2585	0.8207
2576	0.8228
2567	0.825
2558	0.8275
2549	0.8305
2540	0.8337
2531	0.8367
2522	0.8396
2513	0.8421
2504	0.8445
2495	0.8458
2486	0.8465
2477	0.8452
2468	0.8439
2459	0.8278
2450	0.82
2441	0.825
2432	0.8289
2423	0.8373
2414	0.8452
2405	0.8468
2396	0.8481
2387	0.8478
2378	0.8477
2369	0.8481
2360	0.8487
2351	0.8497
2342	0.8511
2333	0.8523
2324	0.8535
2315	0.8547
2306	0.856
2297	0.8571
2288	0.8586
2279	0.86
2270	0.8611
2261	0.8621
2252	0.8637
2243	0.8657
2234	0.8678
2225	0.8696
2216	0.8713
2207	0.8733
2198	0.8744
2189	0.8754
2180	0.8756
2171	0.8758
2162	0.8758
2153	0.8757
2144	0.8752
2135	0.8746
2126	0.8739
2117	0.8732
2108	0.8768
2099	0.881
2090	0.8815
2081	0.881
2072	0.8844
2063	0.8892
2054	0.8924
2045	0.8947
2036	0.8965
2027	0.898
2018	0.8988
2009	0.8988
2000	0.8927
1991	0.8797
1982	0.8818
1973	0.8853
1964	0.8861
1955	0.8871
1946	0.8883
1937	0.8894
1928	0.8902
1919	0.8902
1910	0.8901
1901	0.8899
1892	0.8897
1883	0.8898
1874	0.8899
1865	0.8903
1856	0.8911
1847	0.8918
1838	0.8923
1829	0.8924
1820	0.8915
1811	0.8908
1802	0.8897
1793	0.8824
1784	0.8846
1775	0.8881
1766	0.8901
1757	0.872
1748	0.8832
1739	0.8893
1730	0.8859
1721	0.8921
1712	0.8934
1703	0.8899
1694	0.8852
1685	0.8799
1676	0.8754
1667	0.871
1658	0.8674
1649	0.8635
1640	0.8625
1631	0.867
1622	0.8717
1613	0.8773
1604	0.8825
1595	0.885
1586	0.8741
1577	0.8647
1568	0.8339
1559	0.7367
1550	0.478
1541	0.2078
1532	0.3678
1523	0.0907
1514	0.0765
1505	0.148
1496	0.6009
1487	0.7161
1478	0.7488
1469	0.77
1460	0.781
1451	0.7597
1442	0.7417
1433	0.689
1424	0.6133
1415	0.4789
1406	0.3165
1397	0.2293
1388	0.3011
1379	0.4474
1370	0.4309
1361	0.5751
1352	0.5651
1343	0.6431
1334	0.6915
1325	0.6861
1316	0.7012
1307	0.6362
1298	0.7084
1289	0.7488
1280	0.771
1271	0.7872
1262	0.7832
1253	0.4757
1244	0.5862
1235	0.5659
1226	0.5294
1217	0.6815
1208	0.774
1199	0.828
1190	0.8502
1181	0.8595
1172	0.8656
1163	0.8691
1154	0.8698
1145	0.8707
1136	0.8792
1127	0.8774
1118	0.8736
1109	0.8785
1100	0.8855
1091	0.8856
1082	0.8859
1073	0.8821
1064	0.8614
1055	0.8544
1046	0.8084
1037	0.7254
1028	0.5092
1019	0.5367
1010	0.4455
1001	0.1485
992	0.2169
983	0.2893
974	0.0737
965	0.1212
956	0.4191
947	0.5687
938	0.6836
929	0.7348
920	0.771
911	0.7965
902	0.8153
893	0.8299
884	0.8413
875	0.851
866	0.8571
857	0.8631
848	0.8678
839	0.8728
830	0.8797
821	0.8855
812	0.8884
803	0.8905
794	0.8918
785	0.8923
776	0.8835
767	0.8948
758	0.8977
749	0.8968
740	0.8928
731	0.8855
722	0.8558
713	0.8917
704	0.9025
695	0.9049
686	0.9007
677	0.8932
668	0.8774
659	0.8412
650	0.8761
641	0.89
632	0.8405
623	0.8845
614	0.85
605	0.8446
596	0.8532
587	0.832
578	0.826
569	0.8262
560	0.8242
551	0.8233
542	0.828
533	0.833
524	0.8377
515	0.842
506	0.8453
497	0.8447
488	0.8378
479	0.8304
470	0.8277
461	0.8282
452	0.8292
443	0.8286
434	0.8268
425	0.8238
416	0.8206
407	0.8171
398	0.8154
389	0.8151
