Infrared Spectrum: BENZENETHIOL, PENTAFLUORO-
Formula: C6 H F5 S
CAS: 771-62-0
State: SOLUTION (9% CCl4 FOR 3800-1330, 9% CS2 FOR 1330-400 CM^-^1)
Boiling point: 143 C
Class: COBLENTZ III
Instrument: DOW KBr FOREPRISM-GRATING
Instrument parameters: BLAZED AT 3.5, 12.0, 20.0 MICRON AND CHANGED AT 5.0, 7.5, 14.9 MICRON
Sampling: TRANSMISSION
Path length: 0.012 CM, 0.011 CM
Resolution: 2
Origin: DOW CHEMICAL COMPANY
1/CM	TRANSMITTANCE
384	0.1951
393	0.2002
402	0.2319
411	0.4501
420	0.6678
429	0.7311
438	0.7578
447	0.7778
456	0.7958
465	0.8125
474	0.8258
483	0.835
492	0.8425
501	0.8417
510	0.8188
519	0.8368
528	0.8558
537	0.8621
546	0.8674
555	0.871
564	0.8782
573	0.8806
582	0.8757
591	0.8771
600	0.8888
609	0.8906
618	0.8877
627	0.869
636	0.7301
645	0.8547
654	0.8471
663	0.8692
672	0.8912
681	0.8938
690	0.8968
699	0.8982
708	0.8918
717	0.8817
726	0.7008
735	0.8983
744	0.9027
753	0.8975
762	0.8978
771	0.8989
780	0.888
789	0.8832
798	0.883
807	0.8709
816	0.8657
825	0.8375
834	0.8302
843	0.7331
852	0.3158
861	0.5695
870	0.7351
879	0.7771
888	0.8231
897	0.8507
906	0.8548
915	0.8268
924	0.8539
933	0.858
942	0.8474
951	0.8225
960	0.7196
969	0.4935
978	0.013
987	0.1098
996	0.4651
1005	0.6843
1014	0.519
1023	0.6114
1032	0.7588
1041	0.7953
1050	0.7931
1059	0.7818
1068	0.7757
1077	0.7325
1086	0.2532
1095	0.0393
1104	0.4093
1113	0.7501
1122	0.7728
1131	0.7362
1140	0.7667
1149	0.6782
1158	0.8074
1167	0.8058
1176	0.7897
1185	0.8223
1194	0.8167
1203	0.8215
1212	0.8198
1221	0.8078
1230	0.8011
1239	0.806
1248	0.7846
1257	0.7815
1266	0.765
1275	0.7643
1284	0.7306
1293	0.3926
1302	0.779
1311	0.7869
1320	0.7875
1329	0.8045
1338	0.8225
1347	0.8178
1356	0.7928
1365	0.7497
1374	0.7626
1383	0.6761
1392	0.7856
1401	0.3339
1410	0.779
1419	0.7768
1428	0.7489
1437	0.7762
1446	0.7736
1455	0.7468
1464	0.6639
1473	0.5234
1482	0.0745
1491	0.0016
1500	0.0107
1509	0.0199
1518	0.0101
1527	0.257
1536	0.3234
1545	0.3249
1554	0.3424
1563	0.4356
1572	0.5045
1581	0.534
1590	0.5684
1599	0.6454
1608	0.7018
1617	0.6965
1626	0.5976
1635	0.3193
1644	0.718
1653	0.788
1662	0.7811
1671	0.7625
1680	0.7454
1689	0.7581
1698	0.8099
1707	0.7888
1716	0.8124
1725	0.8124
1734	0.7775
1743	0.825
1752	0.8344
1761	0.8359
1770	0.8375
1779	0.839
1788	0.8406
1797	0.8359
1806	0.8317
1815	0.8354
1824	0.8331
1833	0.841
1842	0.841
1851	0.8415
1860	0.8407
1869	0.8418
1878	0.839
1887	0.8433
1896	0.8466
1905	0.8498
1914	0.851
1923	0.8514
1932	0.8513
1941	0.8502
1950	0.8507
1959	0.8602
1968	0.8481
1977	0.8421
1986	0.8371
1995	0.8325
2004	0.83
2013	0.8391
2022	0.8414
2031	0.8461
2040	0.8532
2049	0.8559
2058	0.8568
2067	0.854
2076	0.8515
2085	0.8557
2094	0.8588
2103	0.8603
2112	0.8604
2121	0.8589
2130	0.8552
2139	0.8565
2148	0.8604
2157	0.8611
2166	0.8612
2175	0.8603
2184	0.8565
2193	0.8545
2202	0.8594
2211	0.8575
2220	0.8481
2229	0.8531
2238	0.8589
2247	0.856
2256	0.8509
2265	0.847
2274	0.8439
2283	0.8421
2292	0.8421
2301	0.8431
2310	0.8452
2319	0.8498
2328	0.8571
2337	0.8627
2346	0.8583
2355	0.8532
2364	0.8471
2373	0.8384
2382	0.8183
2391	0.8359
2400	0.8551
2409	0.8554
2418	0.8541
2427	0.8532
2436	0.8442
2445	0.8363
2454	0.864
2463	0.8614
2472	0.8584
2481	0.8542
2490	0.8473
2499	0.8482
2508	0.8531
2517	0.8489
2526	0.8434
2535	0.8388
2544	0.8293
2553	0.849
2562	0.8516
2571	0.8473
2580	0.83
2589	0.8278
2598	0.8285
2607	0.8337
2616	0.8449
2625	0.8496
2634	0.8475
2643	0.8446
2652	0.8417
2661	0.8449
2670	0.8575
2679	0.8621
2688	0.8631
2697	0.8631
2706	0.8625
2715	0.8615
2724	0.8587
2733	0.857
2742	0.8563
2751	0.8563
2760	0.8562
2769	0.856
2778	0.8561
2787	0.8562
2796	0.8568
2805	0.8575
2814	0.8583
2823	0.8581
2832	0.857
2841	0.8517
2850	0.846
2859	0.8449
2868	0.845
2877	0.8421
2886	0.8352
2895	0.8281
2904	0.8248
2913	0.8197
2922	0.822
2931	0.832
2940	0.8431
2949	0.8481
2958	0.8512
2967	0.8542
2976	0.8568
2985	0.8578
2994	0.8567
3003	0.8543
3012	0.8513
3021	0.8532
3030	0.8574
3039	0.861
3048	0.8623
3057	0.8625
3066	0.8621
3075	0.8616
3084	0.861
3093	0.8605
3102	0.8603
3111	0.8599
3120	0.8583
3129	0.8584
3138	0.8621
3147	0.8655
3156	0.8668
3165	0.8671
3174	0.8673
3183	0.8674
3192	0.8673
3201	0.867
3210	0.8668
3219	0.8664
3228	0.866
3237	0.8655
3246	0.8651
3255	0.8648
3264	0.8645
3273	0.8649
3282	0.8661
3291	0.869
3300	0.8708
3309	0.8718
3318	0.8721
3327	0.8723
3336	0.8725
3345	0.8727
3354	0.8728
3363	0.8731
3372	0.8734
3381	0.8738
3390	0.8743
3399	0.8747
3408	0.8752
3417	0.8757
3426	0.876
3435	0.8762
3444	0.8765
3453	0.8767
3462	0.8768
3471	0.8771
3480	0.8773
3489	0.8774
3498	0.8775
3507	0.8777
3516	0.8778
3525	0.8773
3534	0.877
3543	0.8765
3552	0.8758
3561	0.875
3570	0.8744
3579	0.8738
3588	0.8798
3597	0.8821
3606	0.8827
3615	0.8831
3624	0.8838
3633	0.8844
3642	0.8851
3651	0.8858
3660	0.8866
3669	0.8875
3678	0.8883
3687	0.8889
3696	0.8894
3705	0.8899
3714	0.8901
3723	0.8902
3732	0.8904
3741	0.8907
3750	0.8912
3759	0.892
3768	0.8928
3777	0.8928
3786	0.8927
3795	0.8925
