Infrared Spectrum: PHENOL, PENTAFLUORO-
Formula: C6 H F5 O
CAS: 771-61-9
State: SOLUTION (10% CCl4 FOR 3800-1330, 10% CS2 FOR 1330-400 CM^-^1)
Melting point: 27 C
Boiling point: 143 C
Class: COBLENTZ III
Instrument: DOW KBr FOREPRISM-GRATING
Instrument parameters: BLAZED AT 3.5, 12.0, 20.0 MICRON AND CHANGED AT 5.0, 7.5, 14.9 MICRON
Sampling: TRANSMISSION
Path length: 0.012 CM, 0.011 CM
Resolution: 2
Origin: DOW CHEMICAL COMPANY
1/CM	TRANSMITTANCE
384	0.1871
393	0.1989
402	0.2287
411	0.4319
420	0.5833
429	0.6664
438	0.6885
447	0.6931
456	0.7471
465	0.7601
474	0.7718
483	0.7793
492	0.7842
501	0.7875
510	0.7908
519	0.7943
528	0.7968
537	0.7995
546	0.8015
555	0.8021
564	0.7628
573	0.8194
582	0.8256
591	0.828
600	0.8275
609	0.8225
618	0.8346
627	0.8254
636	0.8134
645	0.8018
654	0.7934
663	0.8343
672	0.8388
681	0.8442
690	0.8484
699	0.8518
708	0.8557
717	0.8537
726	0.859
735	0.8638
744	0.8668
753	0.8702
762	0.864
771	0.8131
780	0.6378
789	0.8208
798	0.8624
807	0.8647
816	0.8518
825	0.8587
834	0.8435
843	0.8004
852	0.7334
861	0.7208
870	0.7418
879	0.789
888	0.8301
897	0.8448
906	0.8448
915	0.8197
924	0.8001
933	0.8003
942	0.7704
951	0.6605
960	0.4104
969	0.0545
978	0.0192
987	0.0579
996	0.0157
1005	0.0245
1014	0.0102
1023	0.2652
1032	0.6102
1041	0.7118
1050	0.716
1059	0.7849
1068	0.7878
1077	0.7412
1086	0.7778
1095	0.7862
1104	0.8167
1113	0.8112
1122	0.7839
1131	0.6978
1140	0.3063
1149	0.566
1158	0.7489
1167	0.7701
1176	0.7958
1185	0.7911
1194	0.7718
1203	0.7376
1212	0.639
1221	0.2183
1230	0.0766
1239	0.4005
1248	0.3877
1257	0.5998
1266	0.6162
1275	0.6212
1284	0.5941
1293	0.552
1302	0.3545
1311	0.1701
1320	0.2858
1329	0.5621
1338	0.5799
1347	0.4988
1356	0.5757
1365	0.7204
1374	0.7682
1383	0.7917
1392	0.803
1401	0.8096
1410	0.8011
1419	0.7684
1428	0.7949
1437	0.7783
1446	0.7682
1455	0.7391
1464	0.6867
1473	0.6553
1482	0.3882
1491	0.5618
1500	0.37
1509	0.0938
1518	0.0031
1527	0.0064
1536	0.0028
1545	0.1026
1554	0.2451
1563	0.4099
1572	0.4956
1581	0.5202
1590	0.5386
1599	0.6187
1608	0.7434
1617	0.7806
1626	0.8031
1635	0.8078
1644	0.8042
1653	0.7838
1662	0.7442
1671	0.8
1680	0.8291
1689	0.8271
1698	0.8161
1707	0.8371
1716	0.8445
1725	0.8424
1734	0.8204
1743	0.7551
1752	0.7754
1761	0.8111
1770	0.848
1779	0.8428
1788	0.8305
1797	0.8128
1806	0.8515
1815	0.8578
1824	0.8587
1833	0.8599
1842	0.8578
1851	0.858
1860	0.8603
1869	0.8628
1878	0.865
1887	0.8675
1896	0.8692
1905	0.8706
1914	0.8718
1923	0.8727
1932	0.8733
1941	0.8737
1950	0.8728
1959	0.8801
1968	0.8661
1977	0.8639
1986	0.864
1995	0.8628
2004	0.8673
2013	0.871
2022	0.8749
2031	0.8752
2040	0.8742
2049	0.8728
2058	0.8702
2067	0.8663
2076	0.8421
2085	0.8344
2094	0.8398
2103	0.8637
2112	0.862
2121	0.8538
2130	0.8601
2139	0.856
2148	0.8545
2157	0.8637
2166	0.8716
2175	0.8766
2184	0.8768
2193	0.8735
2202	0.8748
2211	0.8746
2220	0.8725
2229	0.8706
2238	0.8688
2247	0.8644
2256	0.8583
2265	0.8514
2274	0.8505
2283	0.8528
2292	0.8551
2301	0.8584
2310	0.8607
2319	0.8577
2328	0.8725
2337	0.8788
2346	0.8725
2355	0.8624
2364	0.8584
2373	0.8585
2382	0.8651
2391	0.8724
2400	0.8756
2409	0.8766
2418	0.874
2427	0.8659
2436	0.8478
2445	0.8157
2454	0.7526
2463	0.7825
2472	0.7539
2481	0.8427
2490	0.8428
2499	0.8496
2508	0.8644
2517	0.8655
2526	0.8609
2535	0.86
2544	0.8617
2553	0.8655
2562	0.8677
2571	0.8681
2580	0.8678
2589	0.8663
2598	0.8624
2607	0.8568
2616	0.8502
2625	0.8425
2634	0.8455
2643	0.8358
2652	0.8062
2661	0.7898
2670	0.7637
2679	0.8011
2688	0.8457
2697	0.8621
2706	0.8635
2715	0.8639
2724	0.8639
2733	0.864
2742	0.8643
2751	0.8644
2760	0.8652
2769	0.8659
2778	0.8665
2787	0.867
2796	0.8675
2805	0.8668
2814	0.8651
2823	0.8618
2832	0.8573
2841	0.8553
2850	0.8554
2859	0.8558
2868	0.853
2877	0.8482
2886	0.8451
2895	0.8435
2904	0.8424
2913	0.8415
2922	0.8405
2931	0.8395
2940	0.838
2949	0.8344
2958	0.8263
2967	0.8174
2976	0.8105
2985	0.8124
2994	0.8075
3003	0.8167
3012	0.8148
3021	0.8257
3030	0.8358
3039	0.8364
3048	0.8352
3057	0.8338
3066	0.832
3075	0.8298
3084	0.8273
3093	0.8244
3102	0.8211
3111	0.8178
3120	0.8145
3129	0.8108
3138	0.8071
3147	0.8034
3156	0.7997
3165	0.796
3174	0.7924
3183	0.7888
3192	0.785
3201	0.7808
3210	0.7767
3219	0.7725
3228	0.7688
3237	0.7651
3246	0.7615
3255	0.7581
3264	0.7569
3273	0.7558
3282	0.7569
3291	0.7584
3300	0.7628
3309	0.7672
3318	0.7728
3327	0.7771
3336	0.7808
3345	0.7821
3354	0.7828
3363	0.7825
3372	0.7821
3381	0.7812
3390	0.7803
3399	0.7774
3408	0.7745
3417	0.7699
3426	0.765
3435	0.7592
3444	0.7525
3453	0.7456
3462	0.7381
3471	0.7305
3480	0.7208
3489	0.7108
3498	0.6995
3507	0.6878
3516	0.67
3525	0.6465
3534	0.539
3543	0.4332
3552	0.3205
3561	0.2034
3570	0.0819
3579	0.0842
3588	0.1435
3597	0.3019
3606	0.5557
3615	0.7149
3624	0.7621
3633	0.8513
3642	0.8587
3651	0.8599
3660	0.8588
3669	0.8513
3678	0.8378
3687	0.825
3696	0.819
3705	0.8361
3714	0.8766
3723	0.8859
3732	0.8898
3741	0.8906
3750	0.8907
3759	0.8905
3768	0.8903
3777	0.8898
3786	0.8893
3795	0.8888
