Infrared Spectrum: Thionyl chloride
Formula: Cl2 O S
CAS: 7719-09-7
State: GAS (30 mmHg, N2 ADDED, TOTAL PRESSURE 600 mmHg)
Class: COBLENTZ
Instrument: DOW KBr FOREPRISM-GRATING
Instrument parameters: GRATING CHANGED AT 5.0, 7.5, 15.0 MICRON
Sampling: TRANSMISSION
Path length: 5 CM
Resolution: 2
Origin: DOW CHEMICAL COMPANY
1/CM	TRANSMITTANCE
459	0.0566
468	0.0706
477	0.3503
486	0.1614
495	0.0805
504	0.0975
513	0.2516
522	0.6052
531	0.7922
540	0.8086
549	0.8201
558	0.8318
567	0.8413
576	0.8478
585	0.853
594	0.8561
603	0.8578
612	0.8585
621	0.8586
630	0.8596
639	0.8616
648	0.8633
657	0.8665
666	0.8709
675	0.8675
684	0.864
693	0.872
702	0.8784
711	0.8798
720	0.8861
729	0.8673
738	0.862
747	0.8618
756	0.8692
765	0.8683
774	0.8625
783	0.8548
792	0.8536
801	0.8574
810	0.8617
819	0.874
828	0.8677
837	0.8653
846	0.8718
855	0.8781
864	0.8809
873	0.881
882	0.8785
891	0.8766
900	0.8747
909	0.8745
918	0.8775
927	0.8739
936	0.8595
945	0.8407
954	0.8382
963	0.8586
972	0.8898
981	0.8925
990	0.8931
999	0.8928
1008	0.8937
1017	0.8968
1026	0.8992
1035	0.8992
1044	0.899
1053	0.8988
1062	0.898
1071	0.8945
1080	0.8912
1089	0.8886
1098	0.8853
1107	0.8824
1116	0.8784
1125	0.8738
1134	0.8691
1143	0.8728
1152	0.8859
1161	0.8693
1170	0.8756
1179	0.8747
1188	0.8843
1197	0.8811
1206	0.8774
1215	0.8416
1224	0.6457
1233	0.1533
1242	0.0191
1251	0.0384
1260	0.0173
1269	0.2138
1278	0.6721
1287	0.8805
1296	0.8816
1305	0.8806
1314	0.8761
1323	0.855
1332	0.8051
1341	0.7172
1350	0.6589
1359	0.6826
1368	0.7943
1377	0.6114
1386	0.711
1395	0.8549
1404	0.872
1413	0.875
1422	0.8755
1431	0.8746
1440	0.8721
1449	0.8682
1458	0.8663
1467	0.8667
1476	0.8666
1485	0.8628
1494	0.8683
1503	0.8707
1512	0.8701
1521	0.8675
1530	0.864
1539	0.8647
1548	0.8671
1557	0.8721
1566	0.8733
1575	0.8686
1584	0.8664
1593	0.8664
1602	0.8656
1611	0.8643
1620	0.8666
1629	0.8678
1638	0.8665
1647	0.8659
1656	0.8659
1665	0.8664
1674	0.867
1683	0.8661
1692	0.8651
1701	0.8639
1710	0.8632
1719	0.863
1728	0.8628
1737	0.8628
1746	0.8627
1755	0.8625
1764	0.8623
1773	0.8613
1782	0.8599
1791	0.858
1800	0.854
1809	0.8515
1818	0.8548
1827	0.8546
1836	0.8594
1845	0.8646
1854	0.8665
1863	0.8666
1872	0.8662
1881	0.8657
1890	0.8651
1899	0.8645
1908	0.8639
1917	0.8634
1926	0.863
1935	0.8625
1944	0.8624
1953	0.861
1962	0.8633
1971	0.8678
1980	0.8683
1989	0.8677
1998	0.8678
2007	0.868
2016	0.8681
2025	0.8683
2034	0.8687
2043	0.8691
2052	0.8695
2061	0.8696
2070	0.8697
2079	0.8697
2088	0.8698
2097	0.8699
2106	0.8699
2115	0.87
2124	0.87
2133	0.8701
2142	0.8703
2151	0.8706
2160	0.871
2169	0.8713
2178	0.8716
2187	0.8716
2196	0.8717
2205	0.8717
2214	0.8718
2223	0.8718
2232	0.8721
2241	0.8723
2250	0.8724
2259	0.8725
2268	0.8728
2277	0.873
2286	0.8734
2295	0.8738
2304	0.8742
2313	0.875
2322	0.876
2331	0.8798
2340	0.8818
2349	0.8809
2358	0.8787
2367	0.8755
2376	0.8728
2385	0.8715
2394	0.8706
2403	0.8705
2412	0.8708
2421	0.8708
2430	0.8707
2439	0.8705
2448	0.8691
2457	0.8643
2466	0.8495
2475	0.8207
2484	0.8104
2493	0.8114
2502	0.8321
2511	0.8571
2520	0.8657
2529	0.8675
2538	0.8688
2547	0.8704
2556	0.8715
2565	0.8725
2574	0.8732
2583	0.8736
2592	0.8739
2601	0.8739
2610	0.8735
2619	0.8731
2628	0.8728
2637	0.8724
2646	0.8715
2655	0.8704
2664	0.8693
2673	0.8684
2682	0.8678
2691	0.8674
2700	0.8668
2709	0.8658
2718	0.8648
2727	0.8638
2736	0.8633
2745	0.8627
2754	0.8623
2763	0.8618
2772	0.8617
2781	0.8615
2790	0.8608
2799	0.8601
2808	0.8597
2817	0.8593
2826	0.859
2835	0.8585
2844	0.8577
2853	0.8568
2862	0.8563
2871	0.8557
2880	0.8552
2889	0.8546
2898	0.8541
2907	0.8515
2916	0.8477
2925	0.841
2934	0.8349
2943	0.8325
2952	0.8332
2961	0.8357
2970	0.8387
2979	0.843
2988	0.8486
2997	0.8537
3006	0.8578
3015	0.8604
3024	0.8617
3033	0.8621
3042	0.8628
3051	0.8634
3060	0.8639
3069	0.8639
3078	0.864
3087	0.865
3096	0.8671
3105	0.8692
3114	0.8702
3123	0.8711
3132	0.8716
3141	0.8714
3150	0.8713
3159	0.8711
3168	0.8709
3177	0.8709
3186	0.8712
3195	0.8715
3204	0.8718
3213	0.8721
3222	0.8725
3231	0.8727
3240	0.8728
3249	0.8728
3258	0.8728
3267	0.8727
3276	0.8725
3285	0.8724
3294	0.8723
3303	0.8721
3312	0.8715
3321	0.8706
3330	0.8703
3339	0.8703
3348	0.8704
3357	0.8707
3366	0.8712
3375	0.8716
3384	0.872
3393	0.8723
3402	0.8725
3411	0.8725
3420	0.8725
3429	0.8725
3438	0.8727
3447	0.8728
3456	0.8732
3465	0.8734
3474	0.8741
3483	0.875
3492	0.8759
3501	0.8775
3510	0.8794
3519	0.8802
3528	0.8804
3537	0.8801
3546	0.8799
3555	0.8796
3564	0.8791
3573	0.8785
3582	0.878
3591	0.8777
3600	0.8777
3609	0.8777
3618	0.8775
3627	0.8775
3636	0.8775
3645	0.8775
3654	0.8774
3663	0.8768
3672	0.8765
3681	0.8759
3690	0.8756
3699	0.8765
3708	0.8784
3717	0.8801
3726	0.8813
3735	0.8816
3744	0.8818
3753	0.882
3762	0.8821
3771	0.8824
3780	0.8828
3789	0.8821
3798	0.8812
