Infrared Spectrum: PHOSPHORODICHLORIDIC ACID, (4-CHLOROPHENYL) ESTER
Formula: C6 H4 Cl3 O2 P
CAS: 772-79-2
State: SOLUTION (10% CCl4 FOR 3800-1330, 10% CS2 FOR 1330-450 CM^-^1)
Class: COBLENTZ III
Instrument: Not specified, most likely a prism, grating, or hybrid spectrometer.
Sampling: TRANSMISSION
Path length: 0.0112 CM, 0.0108 CM
Resolution: 4
Origin: DOW CHEMICAL COMPANY
1/CM	TRANSMITTANCE
412.167	0.869
421.292	0.873
430.418	0.876
439.543	0.882
448.669	0.885
457.794	0.898
466.92	0.91
476.045	0.912
485.171	0.9
494.296	0.826
503.422	0.273
512.547	0.8065
521.673	0.4825
530.798	0.8479
539.924	0.76
549.049	0.294
558.175	0.051
567.3	0.4068
576.426	0.501
585.551	0.032
594.677	0.078
603.802	0.0229
612.928	0.398
622.053	0.141
631.179	0.1779
640.304	0.101
649.43	0.6638
658.555	0.8499
667.681	0.921
676.806	0.941
685.932	0.958
695.057	0.941
704.183	0.8418
713.308	0.962
722.434	0.973
731.559	0.976
740.684	0.973
749.81	0.967
758.935	0.93
768.061	0.739
777.186	0.253
786.312	0.9049
795.437	0.933
804.563	0.916
813.688	0.844
822.814	0.68
831.939	0.017
841.065	0.4414
850.19	0.783
859.316	0.778
868.441	0.814
877.567	0.832
886.692	0.876
895.818	0.9
904.943	0.866
914.069	0.764
923.194	0.5192
932.32	0.066
941.445	0.0075
950.571	0.016
959.696	0.051
968.822	0.3957
977.947	0.7229
987.073	0.86
996.198	0.908
1005.32	0.916
1014.45	0.5878
1023.57	0.882
1032.7	0.969
1041.83	0.971
1050.95	0.969
1060.08	0.962
1069.2	0.933
1078.33	0.91
1087.45	0.782
1096.58	0.073
1105.7	0.8099
1114.83	0.9
1123.95	0.941
1133.08	0.933
1142.21	0.91
1151.33	0.8322
1160.46	0.2103
1169.58	0.4728
1178.71	0.3641
1187.83	0.008
1196.96	0.026
1206.08	0.3798
1215.21	0.707
1224.34	0.658
1233.46	0.835
1242.59	0.876
1251.71	0.896
1260.84	0.889
1269.96	0.848
1279.09	0.789
1288.21	0.7511
1297.34	0.369
1306.46	0.008
1315.59	0.037
1324.72	0.3981
1333.84	0.7599
1342.97	0.8749
1352.09	0.933
1361.22	0.946
1370.34	0.953
1379.47	0.967
1388.59	0.971
1397.72	0.958
1406.84	0.803
1415.97	0.957
1425.1	0.951
1434.22	0.867
1443.35	0.887
1452.47	0.892
1461.6	0.889
1470.72	0.835
1479.85	0.5014
1488.97	0.008
1498.1	0.4209
1507.23	0.732
1516.35	0.716
1525.48	0.685
1534.6	0.621
1543.73	0.525
1552.85	0.483
1561.98	0.551
1571.1	0.619
1580.23	0.633
1589.35	0.541
1598.48	0.741
1607.61	0.8749
1616.73	0.93
1625.86	0.944
1634.98	0.939
1644.11	0.898
1653.23	0.982
1662.36	0.985
1671.48	0.985
1680.61	0.983
1689.74	0.982
1698.86	0.975
1707.99	0.971
1717.11	0.955
1726.24	0.957
1735.36	0.967
1744.49	0.975
1753.61	0.967
1762.74	0.955
1771.86	0.978
1780.99	0.976
1790.12	0.96
1799.24	0.964
1808.37	0.967
1817.49	0.962
1826.62	0.957
1835.74	0.967
1844.87	0.978
1853.99	0.976
1863.12	0.958
1872.24	0.946
1881.37	0.903
1890.5	0.903
1899.62	0.951
1908.75	0.967
1917.87	0.975
1927	0.98
1936.12	0.969
1945.25	0.982
1954.37	0.966
1963.5	0.955
1972.63	0.975
1981.75	0.987
1990.88	0.989
2000	0.983
2009.13	0.996
2018.25	0.991
2027.38	0.994
2036.5	1
2045.63	1
2054.75	1.003
2063.88	1
2073.01	1.003
2082.13	1.003
2091.26	0.998
2100.38	0.998
2109.51	1
2118.63	1.001
2127.76	1
2136.88	1.001
2146.01	1.0011
2155.13	1.003
2164.26	1.0011
2173.39	1
2182.51	1
2191.64	1
2200.76	1
2209.89	1.0011
2219.01	0.998
2228.14	1.001
2237.26	1
2246.39	0.9913
2255.52	0.9821
2264.64	0.9781
2273.77	0.9751
2282.89	0.9731
2292.02	0.973
2301.14	0.9759
2310.27	0.978
2319.39	0.98
2328.52	0.9829
2337.64	0.985
2346.77	0.989
2355.9	0.991
2365.02	0.992
2374.15	0.992
2383.27	0.994
2392.4	0.996
2401.52	0.9978
2410.65	0.998
2419.77	1
2428.9	1.0009
2438.02	1
2447.15	1
2456.28	1.0001
2465.4	1
2474.53	1.0009
2483.65	1
2492.78	1
2501.9	1
2511.03	1
2520.15	1
2529.28	1
2538.41	1
2547.53	0.9982
2556.66	0.998
2565.78	0.9943
2574.91	0.998
2584.03	0.998
2593.16	0.9922
2602.28	0.9937
2611.41	0.9963
2620.53	0.998
2629.66	1
2638.79	1
2647.91	1
2657.04	1.0002
2666.16	1.0001
2675.29	0.998
2684.41	1
2693.54	1
2702.66	1.003
2711.79	1.003
2720.91	1.001
2730.04	1.001
2739.17	1.001
2748.29	1.001
2757.42	1.001
2766.54	0.9985
2775.67	0.991
2784.79	1
2793.92	1.0027
2803.04	1.0027
2812.17	1.001
2821.3	1.001
2830.42	1.0008
2839.55	1.001
2848.67	0.9902
2857.8	0.9886
2866.92	0.998
2876.05	1
2885.17	1.003
2894.3	1.003
2903.42	1.003
2912.55	1.003
2921.68	1.003
2930.8	1.003
2939.93	1.003
2949.05	1.003
2958.18	1.001
2967.3	1.001
2976.43	1.001
2985.55	1.001
2994.68	1.001
3003.81	1.003
3012.93	1.003
3022.06	1.0014
3031.18	0.998
3040.31	0.9917
3049.43	0.989
3058.56	0.9822
3067.68	0.9647
3076.81	0.9596
3085.93	0.971
3095.06	0.9317
3104.19	0.9318
3113.31	0.972
3122.44	0.983
3131.56	0.9918
3140.69	0.998
3149.81	0.998
3158.94	0.996
3168.06	1
3177.19	1.001
3186.31	1.001
3195.44	1.001
3204.57	1.0025
3213.69	1.003
3222.82	1.005
3231.94	1.007
3241.07	1.008
3250.19	1.012
3259.32	1.012
3268.44	1.0135
3277.57	1.014
3286.7	1.014
3295.82	1.014
3304.95	1.014
3314.07	1.012
3323.2	1.01
3332.32	1.01
3341.45	1.012
3350.57	1.012
3359.7	1.012
3368.82	1.012
3377.95	1.012
3387.08	1.012
3396.2	1.012
3405.33	1.012
3414.45	1.0106
3423.58	1.01
3432.7	1.01
3441.83	1.01
3450.95	1.01
3460.08	1.01
3469.2	1.01
3478.33	1.01
3487.46	1.01
3496.58	1.01
3505.71	1.01
3514.83	1.01
3523.96	1.01
3533.08	1.01
3542.21	1.01
3551.33	1.008
3560.46	1.008
3569.59	1.008
3578.71	1.008
3587.84	1.007
3596.96	1.0093
3606.09	1.008
3615.21	1.007
3624.34	1.005
3633.46	1.007
3642.59	1.0077
3651.71	1.008
3660.84	1.0074
3669.97	1.0037
3679.09	1.001
3688.22	1.001
3697.34	1.005
3706.47	1.007
3715.59	1.0076
3724.72	1.0093
3733.84	1.012
3742.97	1.014
3752.09	1.014
3761.22	1.0127
3770.35	1.01
