Infrared Spectrum: Ammonium phosphate monobasic
Formula: H 6 N O 4 P
CAS: 7722-76-1
State: solid
Instrument: Bruker Tensor 37 FTIR
Resolution: 0.96450084
Origin: Pacific Northwest National Laboratory Under IARPA Contract
1/cm	Reflectance
7498.03	0.422754
7480.67	0.426565
7463.31	0.427429
7445.95	0.425573
7428.59	0.426203
7411.23	0.426761
7393.87	0.424654
7376.51	0.42328
7359.15	0.420019
7341.79	0.41594
7324.43	0.409335
7307.07	0.402777
7289.71	0.39736
7272.35	0.388436
7254.99	0.380092
7237.63	0.376828
7220.27	0.362114
7202.91	0.351984
7185.55	0.339768
7168.19	0.326936
7150.83	0.313195
7133.47	0.301365
7116.11	0.28585
7098.75	0.268842
7081.39	0.252782
7064.03	0.23692
7046.67	0.219165
7029.31	0.200463
7011.96	0.18352
6994.6	0.165003
6977.24	0.142102
6959.88	0.124719
6942.52	0.10748
6925.16	0.0970112
6907.8	0.0934715
6890.44	0.0938036
6873.08	0.098569
6855.72	0.102128
6838.36	0.103489
6821	0.103653
6803.64	0.103731
6786.28	0.104596
6768.92	0.105428
6751.56	0.10498
6734.2	0.103451
6716.84	0.103073
6699.48	0.101785
6682.12	0.0992009
6664.76	0.0966919
6647.4	0.0939945
6630.04	0.0905533
6612.68	0.0866799
6595.32	0.0834532
6577.96	0.0797324
6560.6	0.0768698
6543.24	0.073184
6525.88	0.0704834
6508.52	0.0679554
6491.16	0.0647462
6473.8	0.062342
6456.44	0.0601456
6439.08	0.0578649
6421.72	0.0554151
6404.36	0.0535046
6387	0.0519694
6369.64	0.0504542
6352.28	0.0475833
6334.92	0.0462342
6317.56	0.0443087
6300.2	0.043094
6282.84	0.0412261
6265.48	0.0398448
6248.12	0.0384481
6230.76	0.0372566
6213.4	0.0365137
6196.04	0.0364812
6178.68	0.0366669
6161.32	0.0364547
6143.97	0.0360122
6126.61	0.0360805
6109.25	0.0362625
6091.89	0.0358791
6074.53	0.0354625
6057.17	0.0357995
6039.81	0.0353265
6022.45	0.0353438
6005.09	0.035147
5987.73	0.035515
5970.37	0.03526
5953.01	0.035417
5935.65	0.0353507
5918.29	0.035236
5900.93	0.0352404
5883.57	0.0349251
5866.21	0.0349015
5848.85	0.0347655
5831.49	0.0345633
5814.13	0.0343207
5796.77	0.0342786
5779.41	0.0340951
5762.05	0.0339154
5744.69	0.0335573
5727.33	0.0331375
5709.97	0.0329786
5692.61	0.0325369
5675.25	0.0325138
5657.89	0.0322028
5640.53	0.032237
5623.17	0.0314366
5605.81	0.0308793
5588.45	0.0302035
5571.09	0.0293359
5553.73	0.0288325
5536.37	0.0283241
5519.01	0.0279351
5501.65	0.0274431
5484.29	0.0265855
5466.93	0.0256756
5449.57	0.0245874
5432.21	0.0235337
5414.85	0.0225683
5397.49	0.0222296
5380.13	0.0256538
5362.77	0.0309446
5345.41	0.0309041
5328.05	0.029944
5310.69	0.0301551
5293.33	0.0313429
5275.97	0.0316466
5258.62	0.0322753
5241.26	0.0321995
5223.9	0.0314845
5206.54	0.0305878
5189.18	0.0311327
5171.82	0.0321022
5154.46	0.0319786
5137.1	0.0315715
5119.74	0.0311112
5102.38	0.0309633
5085.02	0.0305433
5067.66	0.0302752
5050.3	0.0297912
5032.94	0.02925
5015.58	0.0284447
4998.22	0.0280759
4980.86	0.0281694
4963.5	0.0284065
4946.14	0.0288221
4928.78	0.0289402
4911.42	0.0290029
4894.06	0.028993
4876.7	0.0286483
4859.34	0.0284775
4841.98	0.0281338
4824.62	0.0276964
4807.26	0.0272623
4789.9	0.0269194
4772.54	0.0265954
4755.18	0.026099
4737.82	0.0257
4720.46	0.0254118
4703.1	0.0253544
4685.74	0.0255188
4668.38	0.0264178
4651.02	0.0274964
4633.66	0.0288791
4616.3	0.0301129
4598.94	0.0307365
4581.58	0.031177
4564.22	0.031754
4546.86	0.0318536
4529.5	0.0315029
4512.14	0.0309354
4494.78	0.0293684
4477.42	0.0481968
4460.06	0.0474866
4442.7	0.0385778
4425.34	0.0286249
4407.98	0.0296403
4390.63	0.0434186
4373.27	0.0378139
4355.91	0.0314101
4338.55	0.0273973
4321.19	0.0345563
4303.83	0.0554194
4286.47	0.0548137
4269.11	0.0482091
4251.75	0.0452768
4234.39	0.0470403
4217.03	0.0602132
4199.67	0.066132
4182.31	0.0623325
4164.95	0.0587183
4147.59	0.0550709
4130.23	0.0514921
4112.87	0.0478241
4095.51	0.044201
4078.15	0.0409777
4060.79	0.0367663
4043.43	0.420932
4026.07	0.423638
4008.71	0.421133
3991.35	0.42369
3973.99	0.427305
3956.63	0.423742
3939.27	0.420963
3921.91	0.420757
3904.55	0.413545
3887.19	0.412506
3869.83	0.406422
3852.47	0.397343
3835.11	0.393004
3817.75	0.383717
3800.39	0.374109
3783.03	0.369104
3765.67	0.354277
3748.31	0.346737
3730.95	0.335962
3713.59	0.318156
3696.23	0.305349
3678.87	0.289902
3661.51	0.279756
3644.15	0.259582
3626.79	0.241731
3609.43	0.224352
3592.07	0.211693
3574.71	0.194644
3557.35	0.17351
3539.99	0.155552
3522.64	0.132343
3505.28	0.111637
3487.92	0.102048
3470.56	0.0967928
3453.2	0.092121
3435.84	0.0931961
3418.48	0.0972206
3401.12	0.0990621
3383.76	0.101629
3366.4	0.102457
3349.04	0.104708
3331.68	0.104236
3314.32	0.102871
3296.96	0.100643
3279.6	0.100846
3262.24	0.10001
3244.88	0.0998443
3227.52	0.0966553
3210.16	0.093665
3192.8	0.0924642
3175.44	0.0888044
3158.08	0.085194
3140.72	0.0806673
3123.36	0.0780685
3106	0.0741358
3088.64	0.0718224
3071.28	0.0677934
3053.92	0.0664069
3036.56	0.0627716
3019.2	0.0615053
3001.84	0.0588534
2984.48	0.0566782
2967.12	0.0545887
2949.76	0.0529091
2932.4	0.0510194
2915.04	0.0482902
2897.68	0.0472247
2880.32	0.0457825
2862.96	0.04386
2845.6	0.0422101
2828.24	0.0402148
2810.88	0.0391296
2793.52	0.0377265
2776.16	0.0374397
2758.8	0.0366888
2741.44	0.0360584
2724.08	0.036726
2706.72	0.0356922
2689.36	0.0361035
2672	0.0358969
2654.64	0.0352077
2637.29	0.0354874
2619.93	0.0354093
2602.57	0.0352979
2585.21	0.0354184
2567.85	0.0352185
2550.49	0.0355315
2533.13	0.0355199
2515.77	0.0352299
2498.41	0.0351039
2481.05	0.0351222
2463.69	0.0348579
2446.33	0.0349617
2428.97	0.0347938
2411.61	0.0345304
2394.25	0.0350206
2376.89	0.0346902
2359.53	0.0345707
2342.17	0.0341392
2324.81	0.033519
2307.45	0.0337208
2290.09	0.0336613
2272.73	0.0329524
2255.37	0.0331024
2238.01	0.0327577
2220.65	0.0325705
2203.29	0.0326603
2185.93	0.0325105
2168.57	0.0320683
2151.21	0.0307524
2133.85	0.0303329
2116.49	0.0296423
2099.13	0.0288638
2081.77	0.0286286
2064.41	0.0278978
2047.05	0.0271279
2029.69	0.026738
2012.33	0.0257984
1994.97	0.0247606
1977.61	0.0240503
1960.25	0.0231245
1942.89	0.0232925
1925.53	0.0279084
1908.17	0.0315852
1890.81	0.0307716
1873.45	0.0301303
1856.09	0.0308988
1838.73	0.0314753
1821.37	0.0320468
1804.01	0.0325715
1786.65	0.0320907
1769.3	0.0313181
1751.94	0.0310484
1734.58	0.0316426
1717.22	0.0325917
1699.86	0.0321917
1682.5	0.0316526
1665.14	0.0312524
1647.78	0.0309464
1630.42	0.0306782
1613.06	0.0305038
1595.7	0.0296724
1578.34	0.0291374
1560.98	0.0287812
1543.62	0.0282613
1526.26	0.0284545
1508.9	0.0287381
1491.54	0.0290054
1474.18	0.0291477
1456.82	0.0292048
1439.46	0.028971
1422.1	0.0290347
1404.74	0.0286463
1387.38	0.0283605
1370.02	0.0280848
1352.66	0.0277841
1335.3	0.0272052
1317.94	0.0268102
1300.58	0.0265991
1283.22	0.0260824
1265.86	0.0260792
1248.5	0.0259255
1231.14	0.0265257
1213.78	0.027143
1196.42	0.028581
1179.06	0.0300757
1161.7	0.0312282
1144.34	0.0315817
1126.98	0.0323231
1109.62	0.0323596
1092.26	0.0324434
1074.9	0.0321086
1057.54	0.0315693
1040.18	0.0309639
1022.82	0.0562111
1005.46	0.0538313
988.104	0.0351979
970.744	0.0281327
953.384	0.0368075
936.025	0.0433421
918.665	0.0364234
901.305	0.0306277
883.945	0.0288828
866.585	0.0432044
849.226	0.0590421
831.866	0.0538229
814.506	0.0490374
797.146	0.0465105
779.786	0.0528122
762.427	0.0662086
745.067	0.0677302
727.707	0.0645811
710.347	0.0603587
692.987	0.0569282
675.628	0.0523313
658.268	0.0485625
640.908	0.046634
623.548	0.0421185
606.188	0.0387933
