Infrared Spectrum: 7.5% H2O2 in water
Formula: H 2 O 2 in H 2 O
CAS: 7722-84-1
State: liquid
Instrument: Bruker Tensor 37 FTIR
Resolution: 0.48207762
Origin: Pacific Northwest National Laboratory Under IARPA Contract
1/CM	dispersion index
7497.34	1.31442
7479.99	1.31442
7462.63	1.31439
7445.28	1.31435
7427.92	1.31431
7410.57	1.31427
7393.21	1.31422
7375.86	1.31418
7358.5	1.31413
7341.15	1.31408
7323.79	1.31403
7306.44	1.31398
7289.08	1.31393
7271.73	1.31387
7254.37	1.31381
7237.02	1.31376
7219.66	1.3137
7202.31	1.31364
7184.95	1.31358
7167.6	1.31352
7150.25	1.31347
7132.89	1.31342
7115.54	1.31338
7098.18	1.31334
7080.83	1.3133
7063.47	1.31326
7046.12	1.31323
7028.76	1.31319
7011.41	1.31316
6994.05	1.31312
6976.7	1.31308
6959.34	1.31305
6941.99	1.31301
6924.63	1.31297
6907.28	1.31293
6889.92	1.31289
6872.57	1.31285
6855.21	1.31281
6837.86	1.31277
6820.5	1.31273
6803.15	1.31269
6785.79	1.31264
6768.44	1.31259
6751.08	1.31254
6733.73	1.31249
6716.38	1.31243
6699.02	1.31238
6681.67	1.31232
6664.31	1.31226
6646.96	1.31219
6629.6	1.31213
6612.25	1.31206
6594.89	1.31199
6577.54	1.31192
6560.18	1.31185
6542.83	1.31178
6525.47	1.31171
6508.12	1.31163
6490.76	1.31156
6473.41	1.31148
6456.05	1.3114
6438.7	1.31132
6421.34	1.31124
6403.99	1.31116
6386.63	1.31108
6369.28	1.311
6351.92	1.31091
6334.57	1.31083
6317.21	1.31074
6299.86	1.31065
6282.51	1.31056
6265.15	1.31047
6247.8	1.31038
6230.44	1.31029
6213.09	1.3102
6195.73	1.3101
6178.38	1.31001
6161.02	1.30991
6143.67	1.30981
6126.31	1.30971
6108.96	1.30961
6091.6	1.30951
6074.25	1.3094
6056.89	1.3093
6039.54	1.30919
6022.18	1.30908
6004.83	1.30897
5987.47	1.30886
5970.12	1.30875
5952.76	1.30863
5935.41	1.30852
5918.05	1.3084
5900.7	1.30828
5883.35	1.30816
5865.99	1.30803
5848.64	1.30791
5831.28	1.30778
5813.93	1.30765
5796.57	1.30752
5779.22	1.30738
5761.86	1.30725
5744.51	1.30711
5727.15	1.30697
5709.8	1.30683
5692.44	1.30668
5675.09	1.30653
5657.73	1.30639
5640.38	1.30624
5623.02	1.30608
5605.67	1.30593
5588.31	1.30577
5570.96	1.3056
5553.6	1.30543
5536.25	1.30526
5518.89	1.30508
5501.54	1.30489
5484.18	1.3047
5466.83	1.3045
5449.48	1.3043
5432.12	1.30408
5414.77	1.30385
5397.41	1.3036
5380.06	1.30334
5362.7	1.30306
5345.35	1.30276
5327.99	1.30245
5310.64	1.30213
5293.28	1.30182
5275.93	1.30161
5258.57	1.30151
5241.22	1.3015
5223.86	1.30152
5206.51	1.30155
5189.15	1.30158
5171.8	1.30159
5154.44	1.30157
5137.09	1.30151
5119.73	1.30142
5102.38	1.30129
5085.02	1.30113
5067.67	1.30096
5050.31	1.30076
5032.96	1.30053
5015.61	1.3003
4998.25	1.30004
4980.9	1.29978
4963.54	1.2995
4946.19	1.29921
4928.83	1.29891
4911.48	1.2986
4894.12	1.29828
4876.77	1.29795
4859.41	1.29762
4842.06	1.29727
4824.7	1.29692
4807.35	1.29656
4789.99	1.29619
4772.64	1.29581
4755.28	1.29542
4737.93	1.29503
4720.57	1.29462
4703.22	1.2942
4685.86	1.29377
4668.51	1.29332
4651.15	1.29287
4633.8	1.2924
4616.45	1.29192
4599.09	1.29142
4581.74	1.29091
4564.38	1.29039
4547.03	1.28985
4529.67	1.28929
4512.32	1.28872
4494.96	1.28813
4477.61	1.28752
4460.25	1.28689
4442.9	1.28624
4425.54	1.28557
4408.19	1.28488
4390.83	1.28417
4373.48	1.28343
4356.12	1.28266
4338.77	1.28187
4321.41	1.28105
4304.06	1.28019
4286.7	1.27931
4269.35	1.27839
4251.99	1.27744
4234.64	1.27645
4217.28	1.27542
4199.93	1.27435
4182.58	1.27322
4165.22	1.27204
4147.87	1.27082
4130.51	1.26951
4113.16	1.26819
4095.8	1.26676
4078.45	1.2653
4061.09	1.26375
4043.74	1.26214
4026.38	1.26042
4009.03	1.25866
3991.67	1.25678
3974.32	1.25478
3956.96	1.25262
3939.61	1.2503
3922.25	1.24774
3904.9	1.24494
3887.54	1.24191
3870.19	1.23856
3852.83	1.23494
3835.48	1.23092
3818.12	1.2264
3800.77	1.22138
3783.41	1.21561
3766.06	1.20894
3748.71	1.20116
3731.35	1.19204
3714	1.18031
3696.64	1.16595
3679.29	1.14962
3661.93	1.13558
3644.58	1.12768
3627.22	1.12455
3609.87	1.1238
3592.51	1.12445
3575.16	1.12699
3557.8	1.13193
3540.45	1.13946
3523.09	1.14946
3505.74	1.1619
3488.38	1.1767
3471.03	1.19377
3453.67	1.21362
3436.32	1.23622
3418.96	1.26138
3401.61	1.28757
3384.25	1.313
3366.9	1.3359
3349.55	1.35567
3332.19	1.37206
3314.84	1.38608
3297.48	1.39905
3280.13	1.412
3262.77	1.42563
3245.42	1.43967
3228.06	1.45312
3210.71	1.4646
3193.35	1.47309
3176	1.47835
3158.64	1.4808
3141.29	1.48067
3123.93	1.47873
3106.58	1.47536
3089.22	1.47107
3071.87	1.46602
3054.51	1.46052
3037.16	1.45471
3019.8	1.44875
3002.45	1.4428
2985.09	1.4369
2967.74	1.43108
2950.38	1.42547
2933.03	1.41998
2915.68	1.41467
2898.32	1.40982
2880.97	1.40562
2863.61	1.40263
2846.26	1.40149
2828.9	1.40199
2811.55	1.40211
2794.19	1.4007
2776.84	1.39814
2759.48	1.39507
2742.13	1.39188
2724.77	1.38881
2707.42	1.38586
2690.06	1.38305
2672.71	1.38043
2655.35	1.37792
2638	1.37555
2620.64	1.3733
2603.29	1.37116
2585.93	1.36912
2568.58	1.36718
2551.22	1.36528
2533.87	1.3635
2516.51	1.36179
2499.16	1.36017
2481.81	1.35858
2464.45	1.35706
2447.1	1.35556
2429.74	1.35413
2412.39	1.35271
2395.03	1.35134
2377.68	1.34987
2360.32	1.34888
2342.97	1.34767
2325.61	1.34678
2308.26	1.34567
2290.9	1.34459
2273.55	1.3436
2256.19	1.3427
2238.84	1.3419
2221.48	1.34121
2204.13	1.34068
2186.77	1.34028
2169.42	1.34004
2152.06	1.33993
2134.71	1.3399
2117.35	1.33992
2100	1.33996
2082.65	1.33991
2065.29	1.33973
2047.94	1.33935
2030.58	1.33879
2013.23	1.33799
1995.87	1.3369
1978.52	1.33559
1961.16	1.33405
1943.81	1.33229
1926.45	1.33032
1909.1	1.32819
1891.74	1.32585
1874.39	1.32329
1857.03	1.32052
1839.68	1.31741
1822.32	1.31391
1804.97	1.30979
1787.61	1.30509
1770.26	1.29943
1752.9	1.29246
1735.55	1.28409
1718.19	1.27455
1700.84	1.26611
1683.48	1.26517
1666.13	1.27904
1648.78	1.31356
1631.42	1.35991
1614.07	1.38506
1596.71	1.38416
1579.36	1.37626
1562	1.36877
1544.65	1.36274
1527.29	1.35785
1509.94	1.3536
1492.58	1.35025
1475.23	1.34741
1457.87	1.34584
1440.52	1.34525
1423.16	1.34546
1405.81	1.34617
1388.45	1.347
1371.1	1.34774
1353.74	1.34842
1336.39	1.3486
1319.03	1.34805
1301.68	1.34692
1284.32	1.34549
1266.97	1.3439
1249.61	1.34243
1232.26	1.34079
1214.91	1.33921
1197.55	1.33759
1180.2	1.33588
1162.84	1.334
1145.49	1.33198
1128.13	1.32979
1110.78	1.32726
1093.42	1.32463
1076.07	1.32162
1058.71	1.3181
1041.36	1.31407
1024	1.30946
1006.65	1.30393
989.293	1.29805
971.938	1.29166
954.583	1.2848
937.229	1.27775
919.874	1.27122
902.519	1.26615
885.164	1.26394
867.809	1.26719
850.455	1.27066
833.1	1.28004
815.745	1.29531
798.39	1.31578
781.036	1.34241
763.681	1.37797
746.326	1.42064
728.971	1.47638
711.616	1.55579
694.262	1.73833
