Infrared Spectrum: Androsta-1,4-diene-3,11,17-trione
Formula: C19 H22 O3
CAS: 7738-93-4
State: SOLID (SPLIT MULL), FLUOROLUBE FOR 3800-1330 CM^-^1, NUJOL FOR 1330-450 CM^-^1
Melting point: 197 C
Class: COBLENTZ III
Instrument: DOW KBr FOREPRISM-GRATING
Instrument parameters: BLAZED AT 3.5, 12.0, 20.0 MICRON AND CHANGED AT 5.0, 7.5, 14.9 MICRON
Sampling: TRANSMISSION
Resolution: 2
Origin: DOW CHEMICAL COMPANY
1/CM	TRANSMITTANCE
458	0.8253
467	0.819
476	0.7886
485	0.8495
494	0.834
503	0.7554
512	0.6968
521	0.8575
530	0.8475
539	0.7828
548	0.7457
557	0.8878
566	0.8878
575	0.8967
584	0.8781
593	0.8974
602	0.9094
611	0.8991
620	0.7372
629	0.8803
638	0.9103
647	0.9096
656	0.911
665	0.9061
674	0.8446
683	0.8768
692	0.8124
701	0.6945
710	0.8385
719	0.7456
728	0.7936
737	0.8255
746	0.8512
755	0.8587
764	0.8504
773	0.8615
782	0.8707
791	0.8715
800	0.8571
809	0.7821
818	0.4486
827	0.8451
836	0.8543
845	0.8243
854	0.8474
863	0.8141
872	0.7903
881	0.5995
890	0.5726
899	0.8278
908	0.8328
917	0.668
926	0.8136
935	0.7335
944	0.7799
953	0.7038
962	0.8128
971	0.8286
980	0.7465
989	0.7703
998	0.7792
1007	0.7158
1016	0.8121
1025	0.7064
1034	0.7533
1043	0.4471
1052	0.7758
1061	0.8068
1070	0.7764
1079	0.5102
1088	0.7311
1097	0.6757
1106	0.8303
1115	0.8339
1124	0.7958
1133	0.7885
1142	0.6514
1151	0.6632
1160	0.6335
1169	0.8042
1178	0.8035
1187	0.7121
1196	0.7911
1205	0.7397
1214	0.7165
1223	0.3605
1232	0.5924
1241	0.5785
1250	0.7685
1259	0.7531
1268	0.7806
1277	0.7581
1286	0.5571
1295	0.6027
1304	0.7115
1313	0.7565
1322	0.6953
1331	0.6512
1340	0.6066
1349	0.6049
1358	0.6715
1367	0.5589
1376	0.6356
1385	0.423
1394	0.5699
1403	0.6603
1412	0.709
1421	0.7015
1430	0.6389
1439	0.5558
1448	0.6197
1457	0.6364
1466	0.7018
1475	0.7494
1484	0.7628
1493	0.7635
1502	0.7606
1511	0.7558
1520	0.7543
1529	0.7539
1538	0.7493
1547	0.7434
1556	0.7325
1565	0.7205
1574	0.7054
1583	0.6755
1592	0.5666
1601	0.4644
1610	0.6059
1619	0.4388
1628	0.476
1637	0.5791
1646	0.4507
1655	0.0635
1664	0.0536
1673	0.5466
1682	0.6464
1691	0.5692
1700	0.3473
1709	0.1057
1718	0.5897
1727	0.4903
1736	0.1626
1745	0.1431
1754	0.6568
1763	0.7415
1772	0.7692
1781	0.776
1790	0.7788
1799	0.784
1808	0.7793
1817	0.7739
1826	0.7778
1835	0.7765
1844	0.7725
1853	0.7701
1862	0.7707
1871	0.7701
1880	0.7691
1889	0.7688
1898	0.7676
1907	0.7665
1916	0.7655
1925	0.7647
1934	0.7636
1943	0.7621
1952	0.7606
1961	0.7591
1970	0.7575
1979	0.7558
1988	0.7524
1997	0.7511
2006	0.7601
2015	0.7581
2024	0.7557
2033	0.7538
2042	0.7518
2051	0.7501
2060	0.7486
2069	0.7455
2078	0.743
2087	0.7408
2096	0.7378
2105	0.7347
2114	0.7315
2123	0.7282
2132	0.7257
2141	0.7233
2150	0.7207
2159	0.7181
2168	0.7155
2177	0.7124
2186	0.7095
2195	0.7065
2204	0.7035
2213	0.7003
2222	0.6953
2231	0.6908
2240	0.6868
2249	0.6825
2258	0.6798
2267	0.6769
2276	0.674
2285	0.6706
2294	0.6671
2303	0.6639
2312	0.6621
2321	0.6583
2330	0.6557
2339	0.6585
2348	0.6612
2357	0.6618
2366	0.6625
2375	0.6632
2384	0.6635
2393	0.6631
2402	0.6626
2411	0.6621
2420	0.6611
2429	0.6599
2438	0.6588
2447	0.6575
2456	0.6565
2465	0.6553
2474	0.6542
2483	0.6531
2492	0.6521
2501	0.6508
2510	0.6499
2519	0.6488
2528	0.6476
2537	0.6465
2546	0.6456
2555	0.6446
2564	0.6436
2573	0.6421
2582	0.6407
2591	0.6392
2600	0.6378
2609	0.6359
2618	0.6338
2627	0.6316
2636	0.6295
2645	0.6275
2654	0.6259
2663	0.6243
2672	0.6226
2681	0.6212
2690	0.6201
2699	0.6189
2708	0.6171
2717	0.6147
2726	0.6125
2735	0.6101
2744	0.6074
2753	0.6043
2762	0.6009
2771	0.5974
2780	0.5939
2789	0.59
2798	0.586
2807	0.5818
2816	0.5767
2825	0.5655
2834	0.5344
2843	0.5243
2852	0.458
2861	0.5009
2870	0.5126
2879	0.4955
2888	0.4801
2897	0.5023
2906	0.4325
2915	0.4157
2924	0.4785
2933	0.4705
2942	0.4072
2951	0.4589
2960	0.4417
2969	0.3977
2978	0.4867
2987	0.5156
2996	0.5469
3005	0.5742
3014	0.5752
3023	0.573
3032	0.5667
3041	0.5587
3050	0.5534
3059	0.5529
3068	0.5612
3077	0.5598
3086	0.5498
3095	0.5528
3104	0.5602
3113	0.5582
3122	0.556
3131	0.554
3140	0.5516
3149	0.5488
3158	0.5459
3167	0.5428
3176	0.5394
3185	0.5359
3194	0.5323
3203	0.5281
3212	0.524
3221	0.5194
3230	0.515
3239	0.5131
3248	0.513
3257	0.5136
3266	0.5132
3275	0.5117
3284	0.5103
3293	0.5085
3302	0.5066
3311	0.5046
3320	0.5019
3329	0.4991
3338	0.4964
3347	0.4936
3356	0.4899
3365	0.486
3374	0.4824
3383	0.4789
3392	0.48
3401	0.4819
3410	0.4814
3419	0.4793
3428	0.476
3437	0.4716
3446	0.4678
3455	0.4749
3464	0.4797
3473	0.4798
3482	0.48
3491	0.4802
3500	0.4802
3509	0.4801
3518	0.48
3527	0.4799
3536	0.4798
3545	0.4794
3554	0.4791
3563	0.4787
3572	0.4784
3581	0.478
3590	0.4773
3599	0.4765
3608	0.4757
3617	0.4749
3626	0.4741
3635	0.4732
3644	0.4727
3653	0.4722
3662	0.4719
3671	0.4714
3680	0.471
3689	0.4703
3698	0.4696
3707	0.4689
3716	0.4682
3725	0.4674
3734	0.4667
3743	0.4654
3752	0.4638
3761	0.4621
3770	0.4604
3779	0.4586
