Infrared Spectrum: Phenanthrene, 9,10-dihydro-
Formula: C14 H12
CAS: 776-35-2
State: SOLUTION (10% CCl4 FOR 3800-1330, 10% CS2 FOR 1330-450 CM^-^1)
Class: COBLENTZ III
Instrument: DOW KBr FOREPRISM-GRATING
Instrument parameters: BLAZED AT 3.5, 12.0, 20.0 MICRON AND CHANGED AT 5.0, 7.5, 14.9 MICRON
Sampling: TRANSMISSION
Path length: 0.011 CM, 0.011 CM
Resolution: 2
Origin: DOW CHEMICAL COMPANY
1/CM	TRANSMITTANCE
454	0.7014
463	0.6373
472	0.8507
481	0.8647
490	0.8694
499	0.6977
508	0.8875
517	0.895
526	0.8891
535	0.8718
544	0.8982
553	0.9097
562	0.913
571	0.9129
580	0.9116
589	0.9083
598	0.8928
607	0.6135
616	0.8828
625	0.3689
634	0.8884
643	0.8824
652	0.8502
661	0.8539
670	0.8877
679	0.8656
688	0.8629
697	0.8549
706	0.8405
715	0.8038
724	0.3905
733	0.4236
742	0.0241
751	0.2549
760	0.6719
769	0.3739
778	0.5798
787	0.814
796	0.7776
805	0.6551
814	0.6975
823	0.8352
832	0.7528
841	0.7971
850	0.7227
859	0.6647
868	0.7184
877	0.7755
886	0.799
895	0.8319
904	0.858
913	0.8664
922	0.867
931	0.8406
940	0.6814
949	0.8527
958	0.8662
967	0.8552
976	0.8517
985	0.87
994	0.8548
1003	0.6565
1012	0.8659
1021	0.843
1030	0.791
1039	0.8176
1048	0.8233
1057	0.8792
1066	0.8799
1075	0.8628
1084	0.8381
1093	0.8604
1102	0.8786
1111	0.8778
1120	0.8625
1129	0.8393
1138	0.8447
1147	0.8248
1156	0.7653
1165	0.8214
1174	0.8356
1183	0.8124
1192	0.8266
1201	0.7312
1210	0.8625
1219	0.8697
1228	0.8639
1237	0.8464
1246	0.817
1255	0.743
1264	0.7948
1273	0.7829
1282	0.819
1291	0.758
1300	0.6849
1309	0.7884
1318	0.8213
1327	0.8239
1336	0.8239
1345	0.8266
1354	0.8259
1363	0.8353
1372	0.8298
1381	0.822
1390	0.7975
1399	0.82
1408	0.817
1417	0.778
1426	0.6856
1435	0.5262
1444	0.2017
1453	0.3933
1462	0.7322
1471	0.743
1480	0.7093
1489	0.0809
1498	0.6371
1507	0.6444
1516	0.6201
1525	0.5857
1534	0.5372
1543	0.441
1552	0.4332
1561	0.4886
1570	0.5663
1579	0.5587
1588	0.6097
1597	0.6685
1606	0.7106
1615	0.7707
1624	0.7996
1633	0.8084
1642	0.8061
1651	0.8292
1660	0.8183
1669	0.825
1678	0.8072
1687	0.8165
1696	0.8194
1705	0.8256
1714	0.8072
1723	0.8074
1732	0.814
1741	0.8127
1750	0.8119
1759	0.8262
1768	0.8307
1777	0.8267
1786	0.8153
1795	0.778
1804	0.7902
1813	0.8216
1822	0.8189
1831	0.7882
1840	0.8069
1849	0.8298
1858	0.8304
1867	0.8171
1876	0.7875
1885	0.8163
1894	0.8096
1903	0.7612
1912	0.7434
1921	0.8201
1930	0.8159
1939	0.753
1948	0.7925
1957	0.834
1966	0.8384
1975	0.8397
1984	0.8376
1993	0.8345
2002	0.8288
2011	0.8295
2020	0.8307
2029	0.8321
2038	0.8335
2047	0.8347
2056	0.836
2065	0.8377
2074	0.8394
2083	0.8408
2092	0.8416
2101	0.842
2110	0.8419
2119	0.8416
2128	0.8414
2137	0.8411
2146	0.8409
2155	0.8405
2164	0.8403
2173	0.8398
2182	0.8393
2191	0.8387
2200	0.8381
2209	0.8374
2218	0.8368
2227	0.8361
2236	0.8349
2245	0.8338
2254	0.8326
2263	0.8314
2272	0.8301
2281	0.8286
2290	0.8274
2299	0.8265
2308	0.8233
2317	0.8168
2326	0.8208
2335	0.8284
2344	0.8374
2353	0.8456
2362	0.8522
2371	0.8556
2380	0.8564
2389	0.8568
2398	0.8574
2407	0.8581
2416	0.8589
2425	0.8594
2434	0.8597
2443	0.8599
2452	0.8601
2461	0.86
2470	0.8599
2479	0.8597
2488	0.8598
2497	0.8601
2506	0.8605
2515	0.8608
2524	0.8607
2533	0.8602
2542	0.8597
2551	0.8592
2560	0.8581
2569	0.8569
2578	0.8557
2587	0.8537
2596	0.8518
2605	0.8508
2614	0.8504
2623	0.8502
2632	0.851
2641	0.8514
2650	0.8511
2659	0.8519
2668	0.8532
2677	0.854
2686	0.8505
2695	0.8496
2704	0.8538
2713	0.859
2722	0.8607
2731	0.8597
2740	0.8574
2749	0.855
2758	0.8518
2767	0.848
2776	0.8434
2785	0.8383
2794	0.8311
2803	0.8206
2812	0.8042
2821	0.7665
2830	0.5235
2839	0.3878
2848	0.671
2857	0.6428
2866	0.6701
2875	0.6408
2884	0.5455
2893	0.4502
2902	0.5593
2911	0.5314
2920	0.4302
2929	0.3288
2938	0.2307
2947	0.2756
2956	0.4807
2965	0.6857
2974	0.7847
2983	0.7905
2992	0.7766
3001	0.6517
3010	0.5268
3019	0.4386
3028	0.4997
3037	0.4626
3046	0.628
3055	0.5372
3064	0.4416
3073	0.3593
3082	0.5941
3091	0.7573
3100	0.7467
3109	0.7325
3118	0.8437
3127	0.851
3136	0.8528
3145	0.8442
3154	0.8566
3163	0.8652
3172	0.8691
3181	0.8722
3190	0.8746
3199	0.8764
3208	0.8774
3217	0.8784
3226	0.8794
3235	0.8804
3244	0.8814
3253	0.8824
3262	0.8828
3271	0.8831
3280	0.8835
3289	0.8838
3298	0.8842
3307	0.8846
3316	0.885
3325	0.8853
3334	0.8857
3343	0.886
3352	0.8864
3361	0.8862
3370	0.8861
3379	0.886
3388	0.8859
3397	0.8856
3406	0.8855
3415	0.8852
3424	0.8851
3433	0.8844
3442	0.8838
3451	0.8832
3460	0.8826
3469	0.882
3478	0.8813
3487	0.8807
3496	0.88
3505	0.8793
3514	0.8787
3523	0.8781
3532	0.878
3541	0.8778
3550	0.8776
3559	0.8774
3568	0.8773
3577	0.8769
3586	0.8765
3595	0.8759
3604	0.8755
3613	0.875
3622	0.8747
3631	0.8747
3640	0.8748
3649	0.8749
3658	0.875
3667	0.8751
3676	0.8753
3685	0.8752
3694	0.8747
3703	0.8742
3712	0.8744
3721	0.8746
3730	0.8749
3739	0.8753
3748	0.8757
3757	0.8758
3766	0.8757
3775	0.8755
3784	0.8752
3793	0.8747
3802	0.873
