Infrared Spectrum: 4-HYDROXY-NAPHTHALDEHYDE
Formula: C11 H8 O2
CAS: 7770-45-8
State: SOLID (1.0% IN KBr PELLET)
Class: COBLENTZ
Instrument: Not specified, most likely a prism, grating, or hybrid spectrometer.
Sampling: TRANSMISSION
Path length: 0.0355 CM
Resolution: 4
Origin: ANDERSON PHYSICAL LABORATORY
1/CM	TRANSMITTANCE
670.412	0.881
678.839	0.882
687.266	0.881
695.693	0.861
704.12	0.666
712.547	0.827
720.974	0.819
729.401	0.777
737.828	0.787
746.255	0.721
754.682	0.181
763.109	0.2149
771.536	0.4567
779.963	0.727
788.39	0.61
796.817	0.637
805.244	0.645
813.671	0.642
822.097	0.508
830.524	0.419
838.951	0.613
847.378	0.8179
855.805	0.923
864.232	0.957
872.659	0.98
881.086	0.969
889.513	0.992
897.94	0.941
906.367	0.936
914.794	0.941
923.221	0.939
931.648	0.941
940.075	0.932
948.502	0.92
956.929	0.917
965.356	0.885
973.783	0.872
982.21	0.882
990.637	0.879
999.064	0.878
1007.49	0.855
1015.92	0.7531
1024.34	0.768
1032.77	0.6931
1041.2	0.721
1049.63	0.762
1058.05	0.7241
1066.48	0.2991
1074.91	0.242
1083.33	0.717
1091.76	0.845
1100.19	0.873
1108.61	0.869
1117.04	0.854
1125.47	0.83
1133.9	0.809
1142.32	0.777
1150.75	0.721
1159.18	0.631
1167.6	0.47
1176.03	0.448
1184.46	0.401
1192.88	0.457
1201.31	0.494
1209.74	0.4211
1218.17	0.1782
1226.59	0.057
1235.02	0.1468
1243.45	0.509
1251.87	0.478
1260.3	0.192
1268.73	0.165
1277.15	0.4179
1285.58	0.4301
1294.01	0.326
1302.43	0.326
1310.86	0.433
1319.29	0.518
1327.72	0.491
1336.14	0.38
1344.57	0.269
1353	0.162
1361.42	0.145
1369.85	0.2219
1378.28	0.351
1386.7	0.356
1395.13	0.218
1403.56	0.157
1411.99	0.192
1420.41	0.246
1428.84	0.258
1437.27	0.4089
1445.69	0.551
1454.12	0.553
1462.55	0.545
1470.97	0.532
1479.4	0.502
1487.83	0.419
1496.26	0.371
1504.68	0.324
1513.11	0.248
1521.54	0.1601
1529.96	0.15
1538.39	0.273
1546.82	0.327
1555.24	0.258
1563.67	0.172
1572.1	0.07
1580.52	0.055
1588.95	0.212
1597.38	0.454
1605.81	0.5929
1614.23	0.621
1622.66	0.3602
1631.09	0.3349
1639.51	0.357
1647.94	0.261
1656.37	0.172
1664.79	0.066
1673.22	0.198
1681.65	0.502
1690.08	0.6607
1698.5	0.849
1706.93	0.8969
1715.36	0.933
1723.78	0.941
1732.21	0.944
1740.64	0.942
1749.06	0.941
1757.49	0.936
1765.92	0.932
1774.35	0.929
1782.77	0.933
1791.2	0.933
1799.63	0.938
1808.05	0.929
1816.48	0.924
1824.91	0.915
1833.33	0.897
1841.76	0.896
1850.19	0.896
1858.61	0.875
1867.04	0.872
1875.47	0.885
1883.9	0.887
1892.32	0.885
1900.75	0.887
1909.18	0.888
1917.6	0.888
1926.03	0.884
1934.46	0.881
1942.88	0.873
1951.31	0.869
1959.74	0.866
1968.17	0.864
1976.59	0.861
1985.02	0.866
1993.45	0.872
2001.87	0.872
2010.3	0.872
2018.73	0.872
2027.15	0.872
2035.58	0.872
2044.01	0.8705
2052.44	0.8689
2060.86	0.8637
2069.29	0.8605
2077.72	0.8572
2086.14	0.855
2094.57	0.852
2103	0.851
2111.42	0.8494
2119.85	0.848
2128.28	0.8441
2136.7	0.8364
2145.13	0.8332
2153.56	0.831
2161.99	0.83
2170.41	0.828
2178.84	0.827
2187.27	0.825
2195.69	0.821
2204.12	0.8142
2212.55	0.8103
2220.97	0.8058
2229.4	0.8012
2237.83	0.7938
2246.26	0.7921
2254.68	0.789
2263.11	0.7855
2271.54	0.7768
2279.96	0.7722
2288.39	0.7689
2296.82	0.7656
2305.24	0.7601
2313.67	0.7563
2322.1	0.75
2330.53	0.748
2338.95	0.747
2347.38	0.7452
2355.81	0.744
2364.23	0.7407
2372.66	0.734
2381.09	0.732
2389.51	0.7294
2397.94	0.7227
2406.37	0.7179
2414.8	0.7111
2423.22	0.7046
2431.65	0.6995
2440.08	0.6912
2448.5	0.6851
2456.93	0.6806
2465.36	0.6741
2473.78	0.6625
2482.21	0.6422
2490.64	0.6325
2499.06	0.6195
2507.49	0.6115
2515.92	0.5861
2524.35	0.5727
2532.77	0.5615
2541.2	0.5545
2549.63	0.5499
2558.05	0.5417
2566.48	0.5374
2574.91	0.5322
2583.33	0.53
2591.76	0.5284
2600.19	0.5218
2608.62	0.5102
2617.04	0.5
2625.47	0.494
2633.9	0.4784
2642.32	0.4722
2650.75	0.4638
2659.18	0.46
2667.6	0.4574
2676.03	0.4542
2684.46	0.4454
2692.89	0.433
2701.31	0.4262
2709.74	0.421
2718.17	0.4154
2726.59	0.3875
2735.02	0.3704
2743.45	0.3621
2751.87	0.3588
2760.3	0.357
2768.73	0.359
2777.15	0.3617
2785.58	0.362
2794.01	0.3588
2802.44	0.3521
2810.86	0.3473
2819.29	0.3419
2827.72	0.3365
2836.14	0.324
2844.57	0.3201
2853	0.318
2861.42	0.318
2869.85	0.317
2878.28	0.3179
2886.71	0.3202
2895.13	0.321
2903.56	0.321
2911.99	0.3172
2920.41	0.3088
2928.84	0.3028
2937.27	0.2976
2945.69	0.2881
2954.12	0.2693
2962.55	0.2626
2970.98	0.2521
2979.4	0.2431
2987.83	0.2408
2996.26	0.2306
3004.68	0.2198
3013.11	0.21
3021.54	0.2025
3029.96	0.1895
3038.39	0.1807
3046.82	0.178
3055.24	0.175
3063.67	0.174
3072.1	0.172
3080.53	0.1629
3088.95	0.1581
3097.38	0.1544
3105.81	0.153
3114.23	0.151
3122.66	0.1494
3131.09	0.1459
3139.51	0.144
3147.94	0.141
3156.37	0.1413
3164.8	0.144
3173.22	0.1495
3181.65	0.1595
3190.08	0.167
3198.5	0.1728
3206.93	0.1795
3215.36	0.1845
3223.78	0.1921
3232.21	0.1998
3240.64	0.2091
3249.07	0.2248
3257.49	0.2433
3265.92	0.2551
3274.35	0.271
3282.77	0.2865
3291.2	0.3023
3299.63	0.3177
3308.05	0.3371
3316.48	0.3559
3324.91	0.3752
3333.33	0.3959
3341.76	0.4009
3350.19	0.4109
3358.62	0.4218
3367.04	0.4344
3375.47	0.4428
3383.9	0.4496
3392.32	0.464
3400.75	0.4774
3409.18	0.4818
3417.6	0.4854
3426.03	0.4924
3434.46	0.4997
3442.89	0.503
3451.31	0.5116
3459.74	0.516
3468.17	0.5195
3476.59	0.523
3485.02	0.524
3493.45	0.5265
3501.87	0.5285
3510.3	0.532
3518.73	0.5335
3527.16	0.536
3535.58	0.5388
3544.01	0.541
3552.44	0.542
3560.86	0.542
3569.29	0.542
3577.72	0.5441
3586.14	0.5486
3594.57	0.5521
3603	0.5538
3611.42	0.5622
3619.85	0.5666
3628.28	0.568
3636.71	0.568
3645.13	0.5681
3653.56	0.5696
3661.99	0.5716
3670.41	0.5736
3678.84	0.574
3687.27	0.5743
3695.69	0.5762
3704.12	0.577
3712.55	0.5768
3720.98	0.5746
3729.4	0.5728
3737.83	0.572
3746.26	0.572
3754.68	0.5703
3763.11	0.568
3771.54	0.5662
3779.96	0.565
3788.39	0.5626
3796.82	0.5571
3805.25	0.5531
3813.67	0.5449
3822.1	0.542
3830.53	0.541
3838.95	0.539
3847.38	0.538
3855.81	0.5356
3864.23	0.5337
3872.66	0.532
3881.09	0.5298
3889.51	0.529
3897.94	0.527
3906.37	0.526
3914.8	0.524
3923.22	0.5235
3931.65	0.521
3940.08	0.5181
3948.5	0.5178
3956.93	0.5131
3965.36	0.508
3973.78	0.5031
