Infrared Spectrum: PROPANE, 2,2-DIPHENYL-
Formula: C15 H16
CAS: 778-22-3
State: LIQUID (NEAT)
Class: COBLENTZ III
Instrument: PERKIN-ELMER 521 (GRATING)
Instrument parameters: FILTERS AT 3150, 2500, 2000, 1150, 700, 410 AND GRATING CHANGES AT 2000, 630 CM^-^1
Sampling: TRANSMISSION
Path length: CAPILLARY
Resolution: 4
Origin: STANDARD OIL OF OHIO
1/CM	TRANSMITTANCE
580.932	0.291
589.964	0.168
598.997	0.4189
608.029	0.46
617.061	0.493
626.093	0.555
635.126	0.602
644.158	0.627
653.19	0.614
662.223	0.59
671.255	0.516
680.287	0.4212
689.319	0.031
698.352	0.0919
707.384	0.5339
716.416	0.702
725.449	0.729
734.481	0.685
743.513	0.355
752.545	0.063
761.578	0.092
770.61	0.5346
779.642	0.703
788.675	0.5429
797.707	0.806
806.739	0.831
815.772	0.852
824.804	0.839
833.836	0.772
842.868	0.836
851.901	0.871
860.933	0.872
869.965	0.867
878.998	0.857
888.03	0.852
897.062	0.754
906.094	0.735
915.127	0.802
924.159	0.719
933.191	0.779
942.224	0.859
951.256	0.857
960.288	0.817
969.32	0.833
978.353	0.814
987.385	0.832
996.417	0.732
1005.45	0.734
1014.48	0.684
1023.51	0.1
1032.55	0.684
1041.58	0.822
1050.61	0.809
1059.64	0.4153
1068.68	0.6649
1077.71	0.638
1086.74	0.385
1095.77	0.783
1104.8	0.764
1113.84	0.828
1122.87	0.843
1131.9	0.826
1140.93	0.719
1149.97	0.6891
1159	0.809
1168.03	0.822
1177.06	0.793
1186.1	0.695
1195.13	0.822
1204.16	0.802
1213.19	0.717
1222.22	0.5651
1231.26	0.4491
1240.29	0.5699
1249.32	0.738
1258.35	0.811
1267.39	0.816
1276.42	0.777
1285.45	0.689
1294.48	0.817
1303.52	0.773
1312.55	0.8129
1321.58	0.832
1330.61	0.837
1339.64	0.838
1348.68	0.803
1357.71	0.2811
1366.74	0.674
1375.77	0.51
1384.81	0.635
1393.84	0.783
1402.87	0.783
1411.9	0.778
1420.93	0.75
1429.97	0.5591
1439	0.088
1448.03	0.46
1457.06	0.332
1466.1	0.39
1475.13	0.528
1484.16	0.1698
1493.19	0.2736
1502.23	0.7149
1511.26	0.793
1520.29	0.798
1529.32	0.783
1538.35	0.774
1547.39	0.832
1556.42	0.848
1565.45	0.822
1574.48	0.586
1583.52	0.6531
1592.55	0.381
1601.58	0.4958
1610.61	0.749
1619.65	0.823
1628.68	0.857
1637.71	0.869
1646.74	0.858
1655.77	0.842
1664.81	0.827
1673.84	0.811
1682.87	0.817
1691.9	0.853
1700.94	0.868
1709.97	0.871
1719	0.866
1728.03	0.847
1737.06	0.809
1746.1	0.808
1755.13	0.848
1764.16	0.848
1773.19	0.846
1782.23	0.861
1791.26	0.813
1800.29	0.719
1809.32	0.787
1818.36	0.829
1827.39	0.866
1836.42	0.876
1845.45	0.873
1854.48	0.848
1863.52	0.77
1872.55	0.769
1881.58	0.789
1890.61	0.807
1899.65	0.852
1908.68	0.857
1917.71	0.862
1926.74	0.844
1935.78	0.797
1944.81	0.694
1953.84	0.765
1962.87	0.793
1971.9	0.849
1980.94	0.867
1989.97	0.879
1999	0.886
2008.03	0.888
2017.07	0.889
2026.1	0.892
2035.13	0.894
2044.16	0.894
2053.2	0.8935
2062.23	0.8919
2071.26	0.893
2080.29	0.8921
2089.32	0.893
2098.36	0.893
2107.39	0.892
2116.42	0.891
2125.45	0.889
2134.49	0.8858
2143.52	0.8801
2152.55	0.8777
2161.58	0.8564
2170.61	0.8116
2179.65	0.7927
2188.68	0.8203
2197.71	0.8601
2206.74	0.8786
2215.78	0.886
2224.81	0.886
2233.84	0.883
2242.87	0.8818
2251.91	0.879
2260.94	0.877
2269.97	0.877
2279	0.878
2288.03	0.878
2297.07	0.874
2306.1	0.874
2315.13	0.8763
2324.16	0.8788
2333.2	0.879
2342.23	0.8782
2351.26	0.8783
2360.29	0.879
2369.33	0.8803
2378.36	0.879
2387.39	0.881
2396.42	0.8819
2405.45	0.883
2414.49	0.8821
2423.52	0.8814
2432.55	0.8808
2441.58	0.879
2450.62	0.8829
2459.65	0.8836
2468.68	0.882
2477.71	0.882
2486.74	0.883
2495.78	0.882
2504.81	0.879
2513.84	0.878
2522.87	0.879
2531.91	0.8815
2540.94	0.883
2549.97	0.883
2559	0.881
2568.04	0.8779
2577.07	0.872
2586.1	0.8736
2595.13	0.873
2604.16	0.876
2613.2	0.8808
2622.23	0.879
2631.26	0.876
2640.29	0.877
2649.33	0.878
2658.36	0.879
2667.39	0.881
2676.42	0.879
2685.46	0.8778
2694.49	0.879
2703.52	0.8788
2712.55	0.8747
2721.58	0.8728
2730.62	0.873
2739.65	0.878
2748.68	0.8773
2757.71	0.8728
2766.75	0.872
2775.78	0.8732
2784.81	0.877
2793.84	0.8685
2802.88	0.8529
2811.91	0.8402
2820.94	0.836
2829.97	0.8274
2839	0.8142
2848.04	0.7738
2857.07	0.6831
2866.1	0.399
2875.13	0.4283
2884.17	0.4897
2893.2	0.5038
2902.23	0.4856
2911.26	0.4419
2920.29	0.3684
2929.33	0.2816
2938.36	0.2852
2947.39	0.2911
2956.42	0.1241
2965.46	0.0408
2974.49	0.0914
2983.52	0.2858
2992.55	0.4995
3001.59	0.5574
3010.62	0.5112
3019.65	0.221
3028.68	0.2413
3037.71	0.3785
3046.75	0.3016
3055.78	0.206
3064.81	0.3448
3073.84	0.4648
3082.88	0.3087
3091.91	0.5117
3100.94	0.6535
3109.97	0.6917
3119.01	0.8068
3128.04	0.8443
3137.07	0.8516
3146.1	0.8529
3155.13	0.849
3164.17	0.8572
3173.2	0.868
3182.23	0.8693
3191.26	0.8716
3200.3	0.872
3209.33	0.872
3218.36	0.873
3227.39	0.871
3236.42	0.868
3245.46	0.868
3254.49	0.867
3263.52	0.867
3272.55	0.867
3281.59	0.867
3290.62	0.8682
3299.65	0.8717
3308.68	0.8732
3317.72	0.8768
3326.75	0.879
3335.78	0.879
3344.81	0.879
3353.84	0.8806
3362.88	0.8817
3371.91	0.881
3380.94	0.881
3389.97	0.8822
3399.01	0.8813
3408.04	0.882
3417.07	0.8823
3426.1	0.884
3435.14	0.8836
3444.17	0.883
3453.2	0.882
3462.23	0.882
3471.26	0.884
3480.3	0.886
3489.33	0.8852
3498.36	0.884
3507.39	0.8849
3516.43	0.884
3525.46	0.884
3534.49	0.884
3543.52	0.884
3552.56	0.886
3561.59	0.881
3570.62	0.882
3579.65	0.8815
3588.68	0.879
3597.72	0.881
3606.75	0.877
3615.78	0.877
3624.81	0.878
3633.85	0.8774
3642.88	0.8709
3651.91	0.871
3660.94	0.873
3669.97	0.8766
3679.01	0.877
3688.04	0.8776
3697.07	0.878
3706.1	0.877
3715.14	0.877
3724.17	0.877
3733.2	0.878
3742.23	0.8787
3751.27	0.8778
3760.3	0.877
3769.33	0.8772
3778.36	0.878
3787.39	0.878
3796.43	0.877
3805.46	0.878
3814.49	0.879
3823.52	0.882
3832.56	0.8773
3841.59	0.8778
3850.62	0.877
3859.65	0.876
3868.69	0.8737
3877.72	0.8723
3886.75	0.873
3895.78	0.8717
