Infrared Spectrum: 1,3,5-CYCLOHEXANETRIONE,2,2,4,4,6,6-HEXAMETHYL-
Formula: C12 H18 O3
CAS: 778-18-7
State: SOLID (KBr PELLET)
Melting point: 80 C
Class: COBLENTZ
Instrument: Not specified, most likely a prism, grating, or hybrid spectrometer.
Sampling: TRANSMISSION
Resolution: 4
Origin: TENNESSEE EASTMAN COMPANY, RESEARCH LABORATORIES
MICROMETERS	TRANSMITTANCE
2.075	1.001
2.1159	1.001
2.15679	1
2.19769	0.972
2.23859	0.967
2.27948	0.982
2.32038	0.986
2.36128	0.986
2.40218	0.989
2.44307	0.991
2.48397	0.991
2.52487	0.991
2.56576	0.993
2.60666	0.998
2.64756	0.998
2.68845	0.994
2.72935	0.931
2.77025	0.864
2.81114	0.83
2.85204	0.796
2.89294	0.757
2.93384	0.829
2.97473	0.882
3.01563	0.914
3.05653	0.921
3.09742	0.929
3.13832	0.945
3.17922	0.95
3.22011	0.945
3.26101	0.89
3.30191	0.29
3.3428	0.569
3.3837	0.702
3.4246	0.682
3.4655	0.929
3.50639	0.945
3.54729	0.953
3.58819	0.952
3.62908	0.952
3.66998	0.955
3.71088	0.95
3.75177	0.943
3.79267	0.95
3.83357	0.947
3.87446	0.947
3.91536	0.95
3.95626	0.95
3.99716	0.945
4.03805	0.943
4.07895	0.94
4.11985	0.941
4.16074	0.941
4.20164	0.947
4.24254	0.919
4.28343	0.911
4.32433	0.929
4.36523	0.952
4.40612	0.95
4.44702	0.943
4.48792	0.943
4.52881	0.948
4.56971	0.95
4.61061	0.95
4.65151	0.95
4.6924	0.953
4.7333	0.952
4.7742	0.95
4.81509	0.953
4.85599	0.948
4.89689	0.941
4.93778	0.943
4.97868	0.955
5.01958	0.953
5.06047	0.952
5.10137	0.953
5.14227	0.952
5.18317	0.952
5.22406	0.95
5.26496	0.95
5.30586	0.948
5.34675	0.947
5.38765	0.938
5.42855	0.919
5.46944	0.911
5.51034	0.905
5.55124	0.861
5.59213	0.835
5.63303	0.784
5.67393	0.661
5.71483	0.4
5.75572	0.476
5.79662	0.194
5.83752	0.02
5.87841	0.013
5.91931	0.15
5.96021	0.352
6.0011	0.488
6.042	0.622
6.0829	0.726
6.12379	0.777
6.16469	0.803
6.20559	0.841
6.24649	0.863
6.28738	0.882
6.32828	0.89
6.36918	0.89
6.41007	0.868
6.45097	0.883
6.49187	0.88
6.53276	0.852
6.57366	0.811
6.61456	0.811
6.65545	0.81
6.69635	0.714
6.73725	0.372
6.77815	0.123
6.81904	0.288
6.85994	0.394
6.90084	0.432
6.94173	0.683
6.98263	0.762
7.02353	0.782
7.06442	0.794
7.10532	0.772
7.14622	0.588
7.18711	0.121
7.22801	0.499
7.26891	0.623
7.30981	0.543
7.3507	0.589
7.3916	0.846
7.4325	0.882
7.47339	0.888
7.51429	0.892
7.55519	0.873
7.59608	0.852
7.63698	0.8
7.67788	0.683
7.71877	0.304
7.75967	0.388
7.80057	0.593
7.84147	0.535
7.88236	0.437
7.92326	0.376
7.96416	0.567
8.00505	0.699
8.04595	0.767
8.08685	0.789
8.12774	0.741
8.16864	0.719
8.20954	0.704
8.25043	0.582
8.29133	0.435
8.33223	0.5
8.37313	0.675
8.41402	0.76
8.45492	0.8
8.49582	0.829
8.53671	0.839
8.57761	0.83
8.61851	0.808
8.6594	0.829
8.7003	0.837
8.7412	0.841
8.78209	0.839
8.82299	0.774
8.86389	0.75
8.90479	0.789
8.94568	0.755
8.98658	0.651
9.02748	0.62
9.06837	0.709
9.10927	0.738
9.15017	0.748
9.19106	0.75
9.23196	0.702
9.27286	0.63
9.31375	0.475
9.35465	0.235
9.39555	0.059
9.43644	0.095
9.47734	0.112
9.51824	0.044
9.55914	0.119
9.60003	0.312
9.64093	0.5
9.68183	0.605
9.72272	0.622
9.76362	0.475
9.80452	0.338
9.84541	0.528
9.88631	0.659
9.92721	0.641
9.9681	0.487
10.009	0.649
10.0499	0.777
10.0908	0.825
10.1317	0.851
10.1726	0.866
10.2135	0.864
10.2544	0.851
10.2953	0.841
10.3362	0.832
10.3771	0.791
10.418	0.789
10.4589	0.837
10.4998	0.871
10.5407	0.909
10.5816	0.928
10.6225	0.933
10.6634	0.935
10.7042	0.935
10.7451	0.933
10.786	0.929
10.8269	0.938
10.8678	0.947
10.9087	0.948
10.9496	0.952
10.9905	0.957
11.0314	0.96
11.0723	0.96
11.1132	0.96
11.1541	0.958
11.195	0.958
11.2359	0.957
11.2768	0.948
11.3177	0.933
11.3586	0.894
11.3995	0.782
11.4404	0.509
11.4813	0.41
11.5222	0.659
11.5631	0.627
11.604	0.576
11.6449	0.796
11.6858	0.894
11.7267	0.941
11.7676	0.957
11.8085	0.964
11.8494	0.97
11.8903	0.972
11.9312	0.972
11.9721	0.976
12.013	0.982
12.0538	0.982
12.0947	0.982
12.1356	0.981
12.1765	0.976
12.2174	0.972
12.2583	0.972
12.2992	0.97
12.3401	0.958
12.381	0.945
12.4219	0.941
12.4628	0.952
12.5037	0.957
12.5446	0.962
12.5855	0.967
12.6264	0.97
12.6673	0.97
12.7082	0.97
12.7491	0.969
12.79	0.962
12.8309	0.958
12.8718	0.958
12.9127	0.962
12.9536	0.964
12.9945	0.962
13.0354	0.958
13.0763	0.957
13.1172	0.953
13.1581	0.943
13.199	0.948
13.2399	0.957
13.2808	0.958
13.3217	0.958
13.3625	0.952
13.4034	0.952
13.4443	0.953
13.4852	0.955
13.5261	0.957
13.567	0.957
13.6079	0.957
13.6488	0.952
13.6897	0.943
13.7306	0.938
13.7715	0.938
13.8124	0.94
13.8533	0.943
13.8942	0.943
13.9351	0.948
13.976	0.943
14.0169	0.94
14.0578	0.938
14.0987	0.936
14.1396	0.931
14.1805	0.931
14.2214	0.931
14.2623	0.929
14.3032	0.923
14.3441	0.923
14.385	0.919
14.4259	0.914
14.4668	0.907
14.5077	0.902
14.5486	0.897
14.5895	0.894
14.6304	0.888
14.6713	0.883
14.7121	0.88
14.753	0.873
14.7939	0.868
14.8348	0.861
14.8757	0.858
14.9166	0.839
14.9575	0.829
14.9984	0.81
15.0393	0.8
15.0802	0.803
15.1211	0.8
15.162	0.791
15.2029	0.784
15.2438	0.769
15.2847	0.753
15.3256	0.74
15.3665	0.729
15.4074	0.717
15.4483	0.702
15.4892	0.7
15.5301	0.69
15.571	0.676
15.6119	0.67
15.6528	0.659
15.6937	0.651
15.7346	0.637
15.7755	0.629
15.8164	0.617
15.8573	0.613
15.8982	0.605
15.9391	0.6
15.98	0.586
