Infrared Spectrum: Benzoic acid, m-hydroxy, ethyl ester
Formula: C9 H10 O3
CAS: 7781-98-8
State: SOLID (SPLIT MULL), FLUOROLUBE FOR 3800-1330 CM^-^1, NUJOL FOR 1330-400 CM^-^1
Class: COBLENTZ II
Instrument: DOW KBr FOREPRISM-GRATING
Instrument parameters: BLAZED AT 3.5, 12.0, 20.0 MICRON AND CHANGED AT 5.0, 7.5, 14.9 MICRON
Sampling: TRANSMISSION
Resolution: 2
Origin: DOW CHEMICAL COMPANY
1/CM	TRANSMITTANCE
3812	0.5743
3803	0.5749
3794	0.5759
3785	0.5776
3776	0.5794
3767	0.581
3758	0.5828
3749	0.5846
3740	0.5862
3731	0.5885
3722	0.5915
3713	0.5944
3704	0.5974
3695	0.6003
3686	0.6032
3677	0.606
3668	0.6088
3659	0.6115
3650	0.6143
3641	0.6171
3632	0.6196
3623	0.6219
3614	0.6243
3605	0.6266
3596	0.629
3587	0.6322
3578	0.6355
3569	0.6387
3560	0.6422
3551	0.6458
3542	0.6493
3533	0.6524
3524	0.6556
3515	0.6585
3506	0.6599
3497	0.6578
3488	0.6521
3479	0.6456
3470	0.6377
3461	0.626
3452	0.6047
3443	0.5787
3434	0.5557
3425	0.5444
3416	0.5301
3407	0.5047
3398	0.4778
3389	0.4487
3380	0.3991
3371	0.3407
3362	0.2784
3353	0.1928
3344	0.1484
3335	0.1679
3326	0.1795
3317	0.1616
3308	0.151
3299	0.1613
3290	0.196
3281	0.2357
3272	0.2677
3263	0.2956
3254	0.3214
3245	0.344
3236	0.3639
3227	0.3759
3218	0.3814
3209	0.39
3200	0.4047
3191	0.4186
3182	0.4327
3173	0.4474
3164	0.4626
3155	0.4774
3146	0.4919
3137	0.5056
3128	0.5166
3119	0.5223
3110	0.5317
3101	0.5442
3092	0.5476
3083	0.5392
3074	0.5293
3065	0.5527
3056	0.5627
3047	0.5682
3038	0.568
3029	0.5747
3020	0.5787
3011	0.539
3002	0.4676
2993	0.4992
2984	0.478
2975	0.5509
2966	0.5657
2957	0.5721
2948	0.5632
2939	0.5756
2930	0.5864
2921	0.5774
2912	0.5708
2903	0.584
2894	0.6093
2885	0.6058
2876	0.6012
2867	0.605
2858	0.611
2849	0.6177
2840	0.6237
2831	0.6266
2822	0.628
2813	0.6296
2804	0.6312
2795	0.6373
2786	0.6444
2777	0.6533
2768	0.6594
2759	0.6628
2750	0.6632
2741	0.6614
2732	0.6592
2723	0.6568
2714	0.6561
2705	0.6565
2696	0.6584
2687	0.6607
2678	0.6644
2669	0.6686
2660	0.6751
2651	0.6808
2642	0.6865
2633	0.6908
2624	0.6919
2615	0.6904
2606	0.6862
2597	0.6795
2588	0.6745
2579	0.6725
2570	0.6781
2561	0.683
2552	0.6888
2543	0.6953
2534	0.7019
2525	0.7081
2516	0.7108
2507	0.7136
2498	0.7148
2489	0.7106
2480	0.7051
2471	0.703
2462	0.7034
2453	0.7043
2444	0.7051
2435	0.706
2426	0.7071
2417	0.7095
2408	0.7119
2399	0.7144
2390	0.7174
2381	0.7208
2372	0.7242
2363	0.7275
2354	0.7301
2345	0.7324
2336	0.7348
2327	0.7368
2318	0.7388
2309	0.7407
2300	0.7425
2291	0.7445
2282	0.7462
2273	0.7481
2264	0.7497
2255	0.7508
2246	0.7525
2237	0.7561
2228	0.7611
2219	0.7678
2210	0.7718
2201	0.7728
2192	0.7733
2183	0.7765
2174	0.7828
2165	0.7889
2156	0.7933
2147	0.7948
2138	0.7955
2129	0.7965
2120	0.7994
2111	0.803
2102	0.8065
2093	0.8118
2084	0.8175
2075	0.819
2066	0.8202
2057	0.8246
2048	0.8303
2039	0.8356
2030	0.8394
2021	0.8412
2012	0.8407
2003	0.8391
1994	0.8323
1985	0.8373
1976	0.8414
1967	0.8449
1958	0.8442
1949	0.8433
1940	0.8467
1931	0.8488
1922	0.8504
1913	0.8555
1904	0.8601
1895	0.8617
1886	0.857
1877	0.8568
1868	0.8571
1859	0.858
1850	0.864
1841	0.8674
1832	0.8703
1823	0.8734
1814	0.8748
1805	0.8742
1796	0.8628
1787	0.8666
1778	0.8693
1769	0.8797
1760	0.8805
1751	0.8835
1742	0.8828
1733	0.8757
1724	0.8444
1715	0.7831
1706	0.6678
1697	0.3873
1688	0.0904
1679	0.0504
1670	0.1228
1661	0.3689
1652	0.5462
1643	0.6029
1634	0.6621
1625	0.7222
1616	0.7139
1607	0.5042
1598	0.1119
1589	0.2705
1580	0.4662
1571	0.5555
1562	0.6176
1553	0.674
1544	0.7164
1535	0.7372
1526	0.7485
1517	0.7428
1508	0.7256
1499	0.7601
1490	0.7678
1481	0.724
1472	0.6908
1463	0.4487
1454	0.2724
1445	0.2962
1436	0.5001
1427	0.6104
1418	0.6198
1409	0.6367
1400	0.5106
1391	0.5707
1382	0.4614
1373	0.2755
1364	0.3441
1355	0.4419
1346	0.516
1337	0.5006
1328	0.4245
1319	0.2217
1310	0.1133
1301	0.1737
1292	0.4727
1283	0.6049
1274	0.5926
1265	0.6022
1256	0.4
1247	0.0954
1238	0.0218
1229	0.1369
1220	0.2956
1211	0.4107
1202	0.4568
1193	0.4933
1184	0.5199
1175	0.5376
1166	0.5428
1157	0.4871
1148	0.5642
1139	0.636
1130	0.5147
1121	0.5695
1112	0.4516
1103	0.6208
1094	0.6641
1085	0.6303
1076	0.3521
1067	0.6089
1058	0.6458
1049	0.6711
1040	0.6776
1031	0.5889
1022	0.3987
1013	0.6168
1004	0.741
995	0.6475
986	0.8215
977	0.8383
968	0.8574
959	0.8744
950	0.8749
941	0.6551
932	0.8611
923	0.8847
914	0.8827
905	0.8458
896	0.6535
887	0.8301
878	0.7375
869	0.8375
860	0.8435
851	0.8498
842	0.8787
833	0.8901
824	0.5636
815	0.7725
806	0.8359
797	0.8505
788	0.8599
779	0.8471
770	0.626
761	0.3555
752	0.765
743	0.8351
734	0.8355
725	0.8092
716	0.7989
707	0.7165
698	0.5971
689	0.5762
680	0.5376
671	0.6675
662	0.6601
653	0.6273
644	0.6939
635	0.7822
626	0.811
617	0.8125
608	0.7576
599	0.7398
590	0.7675
581	0.7807
572	0.8105
563	0.8412
554	0.7697
545	0.8178
536	0.7868
527	0.8508
518	0.8356
509	0.8468
500	0.8487
491	0.8442
482	0.8415
473	0.8378
464	0.8325
455	0.8271
446	0.8108
437	0.7895
428	0.7722
419	0.7595
410	0.7504
401	0.7433
392	0.7383
