Infrared Spectrum: AMMONIUM SULFATE
Formula: H8 N2 O4 S
CAS: 7783-20-2
State: SOLID (MINERAL OIL MULL)
Class: COBLENTZ
Instrument: Not specified, most likely a prism, grating, or hybrid spectrometer.
Sampling: TRANSMISSION
Resolution: 4
MICROMETERS	TRANSMITTANCE
2.021	0.765
2.06224	0.763
2.10347	0.755
2.14471	0.77
2.18594	0.778
2.22718	0.78
2.26842	0.772
2.30965	0.773
2.35089	0.784
2.39212	0.79
2.43336	0.799
2.47459	0.802
2.51583	0.806
2.55707	0.809
2.5983	0.806
2.63954	0.804
2.68077	0.794
2.72201	0.78
2.76325	0.758
2.80448	0.736
2.84572	0.7
2.88695	0.646
2.92819	0.542
2.96943	0.401
3.01066	0.183
3.0519	0.129
3.09313	0.105
3.13437	0.11
3.1756	0.13
3.21684	0.146
3.25808	0.137
3.29931	0.125
3.34055	0.13
3.38178	0.079
3.42302	0.042
3.46426	0.088
3.50549	0.129
3.54673	0.318
3.58796	0.421
3.6292	0.51
3.67044	0.561
3.71167	0.62
3.75291	0.658
3.79414	0.693
3.83538	0.714
3.87661	0.748
3.91785	0.768
3.95909	0.78
4.00032	0.799
4.04156	0.806
4.08279	0.819
4.12403	0.823
4.16527	0.824
4.2065	0.821
4.24774	0.823
4.28897	0.828
4.33021	0.836
4.37144	0.838
4.41268	0.836
4.45392	0.833
4.49515	0.829
4.53639	0.828
4.57762	0.826
4.61886	0.823
4.6601	0.821
4.70133	0.818
4.74257	0.807
4.7838	0.799
4.82504	0.789
4.86628	0.775
4.90751	0.777
4.94875	0.792
4.98998	0.799
5.03122	0.809
5.07245	0.811
5.11369	0.811
5.15493	0.811
5.19616	0.809
5.2374	0.807
5.27863	0.801
5.31987	0.795
5.36111	0.789
5.40234	0.78
5.44358	0.772
5.48481	0.767
5.52605	0.761
5.56729	0.756
5.60852	0.753
5.64976	0.75
5.69099	0.75
5.73223	0.75
5.77346	0.75
5.8147	0.75
5.85594	0.75
5.89717	0.751
5.93841	0.751
5.97964	0.758
6.02088	0.768
6.06212	0.775
6.10335	0.775
6.14459	0.773
6.18582	0.773
6.22706	0.768
6.2683	0.768
6.30953	0.765
6.35077	0.758
6.392	0.75
6.43324	0.739
6.47447	0.71
6.51571	0.69
6.55695	0.664
6.59818	0.625
6.63942	0.561
6.68065	0.506
6.72189	0.406
6.76313	0.287
6.80436	0.158
6.8456	0.119
6.88683	0.1
6.92807	0.096
6.96931	0.09
7.01054	0.076
7.05178	0.069
7.09301	0.088
7.13425	0.122
7.17548	0.231
7.21672	0.292
7.25796	0.34
7.29919	0.469
7.34043	0.569
7.38166	0.62
7.4229	0.673
7.46414	0.715
7.50537	0.744
7.54661	0.758
7.58784	0.768
7.62908	0.777
7.67032	0.787
7.71155	0.797
7.75279	0.806
7.79402	0.789
7.83526	0.807
7.87649	0.814
7.91773	0.812
7.95897	0.807
8.0002	0.795
8.04144	0.789
8.08267	0.78
8.12391	0.768
8.16515	0.76
8.20638	0.746
8.24762	0.727
8.28885	0.704
8.33009	0.676
8.37133	0.639
8.41256	0.602
8.4538	0.556
8.49503	0.508
8.53627	0.455
8.5775	0.403
8.61874	0.314
8.65998	0.248
8.70121	0.197
8.74245	0.147
8.78368	0.115
8.82492	0.086
8.86616	0.071
8.90739	0.061
8.94863	0.054
8.98986	0.047
9.0311	0.042
9.07233	0.037
9.11357	0.034
9.15481	0.032
9.19604	0.032
9.23728	0.032
9.27851	0.034
9.31975	0.039
9.36099	0.051
9.40222	0.069
9.44346	0.1
9.48469	0.142
9.52593	0.2
9.56717	0.255
9.6084	0.311
9.64964	0.358
9.69087	0.409
9.73211	0.455
9.77334	0.488
9.81458	0.528
9.85582	0.557
9.89705	0.585
9.93829	0.608
9.97952	0.632
10.0208	0.661
10.062	0.675
10.1032	0.695
10.1445	0.707
10.1857	0.715
10.2269	0.698
10.2682	0.69
10.3094	0.734
10.3506	0.753
10.3919	0.767
10.4331	0.772
10.4744	0.784
10.5156	0.79
10.5568	0.797
10.5981	0.802
10.6393	0.801
10.6805	0.802
10.7218	0.804
10.763	0.806
10.8042	0.809
10.8455	0.809
10.8867	0.811
10.9279	0.812
10.9692	0.818
11.0104	0.819
11.0517	0.819
11.0929	0.821
11.1341	0.821
11.1754	0.821
11.2166	0.826
11.2578	0.831
11.2991	0.835
11.3403	0.838
11.3815	0.84
11.4228	0.843
11.464	0.845
11.5053	0.846
11.5465	0.846
11.5877	0.846
11.629	0.846
11.6702	0.846
11.7114	0.846
11.7527	0.846
11.7939	0.845
11.8351	0.845
11.8764	0.846
11.9176	0.848
11.9588	0.846
12.0001	0.846
12.0413	0.846
12.0826	0.846
12.1238	0.846
12.165	0.846
12.2063	0.845
12.2475	0.841
12.2887	0.84
12.33	0.843
12.3712	0.841
12.4124	0.84
12.4537	0.835
12.4949	0.836
12.5361	0.835
12.5774	0.835
12.6186	0.833
12.6599	0.833
12.7011	0.833
12.7423	0.833
12.7836	0.831
12.8248	0.831
12.866	0.831
12.9073	0.831
12.9485	0.831
12.9897	0.833
13.031	0.831
13.0722	0.831
13.1135	0.829
13.1547	0.828
13.1959	0.826
13.2372	0.823
13.2784	0.819
13.3196	0.816
13.3609	0.814
13.4021	0.806
13.4433	0.799
13.4846	0.794
13.5258	0.785
13.567	0.78
13.6083	0.777
13.6495	0.77
13.6908	0.765
13.732	0.758
13.7732	0.751
13.8145	0.748
13.8557	0.743
13.8969	0.744
13.9382	0.748
13.9794	0.75
14.0206	0.746
14.0619	0.744
14.1031	0.739
14.1443	0.736
14.1856	0.729
14.2268	0.722
14.2681	0.717
14.3093	0.709
14.3505	0.704
14.3918	0.695
14.433	0.69
14.4742	0.683
14.5155	0.676
14.5567	0.666
14.5979	0.659
14.6392	0.651
14.6804	0.641
14.7217	0.636
14.7629	0.625
14.8041	0.617
14.8454	0.61
14.8866	0.6
14.9278	0.593
14.9691	0.586
15.0103	0.579
15.0515	0.569
15.0928	0.562
15.134	0.554
15.1752	0.547
15.2165	0.537
15.2577	0.528
15.299	0.522
15.3402	0.513
15.3814	0.5
15.4227	0.493
15.4639	0.479
15.5051	0.467
15.5464	0.455
15.5876	0.442
15.6288	0.428
15.6701	0.418
15.7113	0.403
15.7525	0.392
15.7938	0.372
15.835	0.36
15.8763	0.36
