Infrared Spectrum: 9-METHYLANTHRACENE
Formula: C15 H12
CAS: 779-02-2
State: SOLUTION (2% CCl4 FOR 3800-1330, 2% CS2 FOR 1330-400 CM^-^1)
Class: COBLENTZ III
Instrument: BECKMAN IR-9 (GRATING)
Instrument parameters: ORDER CHANGES: 670, 1200, 2000 CM^-^1
Sampling: TRANSMISSION
Path length: 0.053 CM, 0.053 CM
Resolution: 2
Origin: DOW CHEMICAL COMPANY
1/CM	TRANSMITTANCE
398.126	0.354
406.908	0.286
415.69	0.233
424.473	0.306
433.255	0.491
442.037	0.602
450.819	0.686
459.601	0.759
468.384	0.801
477.166	0.854
485.948	0.894
494.73	0.914
503.512	0.933
512.295	0.94
521.077	0.841
529.859	0.2791
538.641	0.905
547.424	0.935
556.206	0.969
564.988	0.966
573.77	0.972
582.552	0.852
591.335	0.94
600.117	0.572
608.899	0.92
617.681	0.927
626.463	0.874
635.246	0.854
644.028	0.752
652.81	0.682
661.592	0.788
670.374	0.859
679.157	0.876
687.939	0.713
696.721	0.642
705.503	0.866
714.285	0.844
723.068	0.335
731.85	0.218
740.632	0.742
749.414	0.796
758.196	0.784
766.979	0.676
775.761	0.407
784.543	0.872
793.325	0.895
802.108	0.925
810.89	0.894
819.672	0.906
828.454	0.6679
837.236	0.617
846.019	0.511
854.801	0.36
863.583	0.316
872.365	0.418
881.147	0.2719
889.93	0.716
898.712	0.873
907.494	0.921
916.276	0.955
925.058	0.951
933.841	0.833
942.623	0.924
951.405	0.839
960.187	0.953
968.969	0.933
977.752	0.953
986.534	0.943
995.316	0.712
1004.1	0.877
1012.88	0.906
1021.66	0.924
1030.44	0.916
1039.23	0.899
1048.01	0.947
1056.79	0.96
1065.57	0.957
1074.36	0.921
1083.14	0.955
1091.92	0.976
1100.7	0.984
1109.48	0.987
1118.27	0.984
1127.05	0.962
1135.83	0.958
1144.61	0.927
1153.4	0.7159
1162.18	0.921
1170.96	0.913
1179.74	0.894
1188.52	0.932
1197.31	0.954
1206.09	0.958
1214.87	0.969
1223.65	0.943
1232.44	0.977
1241.22	0.982
1250	0.979
1258.78	0.953
1267.56	0.935
1276.35	0.814
1285.13	0.647
1293.91	0.795
1302.69	0.715
1311.48	0.667
1320.26	0.773
1329.04	0.716
1337.82	0.889
1346.6	0.5618
1355.39	0.894
1364.17	0.899
1372.95	0.852
1381.73	0.748
1390.52	0.7131
1399.3	0.892
1408.08	0.704
1416.86	0.877
1425.64	0.852
1434.43	0.84
1443.21	0.646
1451.99	0.751
1460.77	0.771
1469.56	0.804
1478.34	0.745
1487.12	0.646
1495.9	0.559
1504.68	0.418
1513.47	0.287
1522.25	0.203
1531.03	0.114
1539.81	0.068
1548.6	0.03
1557.38	0.033
1566.16	0.078
1574.94	0.141
1583.72	0.16
1592.51	0.22
1601.29	0.392
1610.07	0.639
1618.85	0.724
1627.63	0.779
1636.42	0.867
1645.2	0.889
1653.98	0.889
1662.76	0.811
1671.55	0.606
1680.33	0.5901
1689.11	0.905
1697.89	0.9
1706.67	0.877
1715.46	0.916
1724.24	0.928
1733.02	0.942
1741.8	0.928
1750.59	0.942
1759.37	0.94
1768.15	0.975
1776.93	0.971
1785.71	0.924
1794.5	0.918
1803.28	0.898
1812.06	0.889
1820.84	0.958
1829.63	0.933
1838.41	0.962
1847.19	0.951
1855.97	0.961
1864.75	0.972
1873.54	0.977
1882.32	0.994
1891.1	0.976
1899.88	0.918
1908.67	0.971
1917.45	0.916
1926.23	0.975
1935.01	0.872
1943.79	0.957
1952.58	0.986
1961.36	0.995
1970.14	0.995
1978.92	0.995
1987.71	0.991
1996.49	0.966
2005.27	0.984
2014.05	0.984
2022.83	0.995
2031.62	1.002
2040.4	1.004
2049.18	1.001
2057.96	1.0079
2066.75	1.013
2075.53	1.017
2084.31	1.0219
2093.09	1.024
2101.87	1.027
2110.66	1.027
2119.44	1.028
2128.22	1.028
2137	1.028
2145.79	1.028
2154.57	1.028
2163.35	1.028
2172.13	1.028
2180.91	1.028
2189.7	1.027
2198.48	1.027
2207.26	1.0243
2216.04	1.023
2224.82	1.0203
2233.61	1.0161
2242.39	1.0064
2251.17	0.9879
2259.95	0.9651
2268.74	0.9371
2277.52	0.9135
2286.3	0.894
2295.08	0.889
2303.86	0.8996
2312.65	0.909
2321.43	0.911
2330.21	0.9248
2338.99	0.937
2347.78	0.9604
2356.56	0.9706
2365.34	0.9768
2374.12	0.9838
2382.9	0.9945
2391.69	1.0048
2400.47	1.012
2409.25	1.013
2418.03	1.0157
2426.82	1.017
2435.6	1.019
2444.38	1.0215
2453.16	1.022
2461.94	1.022
2470.73	1.022
2479.51	1.017
2488.29	1.015
2497.07	1.0167
2505.86	1.0197
2514.64	1.023
2523.42	1.0176
2532.2	1.017
2540.98	1.017
2549.77	1.017
2558.55	1.017
2567.33	1.019
2576.11	1.019
2584.9	1.019
2593.68	1.0177
2602.46	1.0117
2611.24	1.009
2620.02	1.005
2628.81	1.0014
2637.59	0.9974
2646.37	0.995
2655.15	0.9934
2663.94	0.99
2672.72	0.988
2681.5	0.987
2690.28	0.9824
2699.06	0.9778
2707.85	0.975
2716.63	0.975
2725.41	0.9718
2734.19	0.9583
2742.98	0.9591
2751.76	0.9686
2760.54	0.9701
2769.32	0.971
2778.1	0.971
2786.89	0.968
2795.67	0.966
2804.45	0.9655
2813.23	0.962
2822.02	0.958
2830.8	0.9515
2839.58	0.9405
2848.36	0.919
2857.14	0.8875
2865.93	0.853
2874.71	0.8271
2883.49	0.8454
2892.27	0.852
2901.05	0.8515
2909.84	0.8257
2918.62	0.7893
2927.4	0.7357
2936.18	0.7214
2944.97	0.7688
2953.75	0.8008
2962.53	0.8176
2971.31	0.8317
2980.09	0.8317
2988.88	0.8123
2997.66	0.7758
3006.44	0.7062
3015.22	0.7004
3024.01	0.6761
3032.79	0.6328
3041.57	0.6199
3050.35	0.4575
3059.13	0.4249
3067.92	0.5661
3076.7	0.631
3085.48	0.6101
3094.26	0.7884
3103.05	0.8765
3111.83	0.9071
3120.61	0.9347
3129.39	0.9484
3138.17	0.9533
3146.96	0.9557
3155.74	0.96
3164.52	0.9626
3173.3	0.966
3182.09	0.9654
3190.87	0.9643
3199.65	0.9646
3208.43	0.9723
3217.21	0.9736
3226	0.975
3234.78	0.975
3243.56	0.9669
3252.34	0.9723
3261.13	0.977
3269.91	0.977
3278.69	0.977
3287.47	0.977
3296.25	0.977
3305.04	0.976
3313.82	0.976
3322.6	0.976
3331.38	0.9758
3340.17	0.9752
3348.95	0.977
3357.73	0.979
3366.51	0.979
3375.29	0.979
3384.08	0.979
3392.86	0.977
3401.64	0.979
3410.42	0.98
3419.21	0.982
3427.99	0.982
3436.77	0.982
3445.55	0.982
3454.33	0.982
3463.12	0.9821
3471.9	0.984
3480.68	0.986
3489.46	0.9869
3498.24	0.987
3507.03	0.987
3515.81	0.987
3524.59	0.984
3533.37	0.984
3542.16	0.984
3550.94	0.9842
3559.72	0.9871
3568.5	0.9943
3577.28	0.9978
3586.07	0.9762
3594.85	0.9421
3603.63	0.9733
3612.41	0.9831
3621.2	0.9901
3629.98	0.995
3638.76	1
3647.54	1
3656.32	1
3665.11	1
3673.89	0.998
3682.67	0.998
3691.45	0.998
3700.24	0.994
3709.02	0.995
3717.8	0.995
3726.58	0.997
3735.36	1
3744.15	1.001
3752.93	1.001
3761.71	1.001
3770.49	1.001
3779.28	1.001
3788.06	1.001
3796.84	1.001
