Infrared Spectrum: O-CRESOL, Alpha-PHENYL IMINO-
Formula: C13 H11 N O
CAS: 779-84-0
State: SOLID (KBr PELLET)
Melting point: 47-49 C
Class: COBLENTZ
Instrument: Not specified, most likely a prism, grating, or hybrid spectrometer.
Sampling: TRANSMISSION
Resolution: 4
Origin: TENNESSEE EASTMAN COMPANY, RESEARCH LABORATORIES
MICROMETERS	TRANSMITTANCE
2.04	0.47
2.0797	0.487
2.11939	0.505
2.15909	0.52
2.19879	0.53
2.23849	0.552
2.27818	0.559
2.31788	0.567
2.35758	0.572
2.39727	0.584
2.43697	0.589
2.47667	0.597
2.51636	0.61
2.55606	0.618
2.59576	0.62
2.63546	0.64
2.67515	0.645
2.71485	0.652
2.75455	0.657
2.79424	0.658
2.83394	0.658
2.87364	0.66
2.91334	0.668
2.95303	0.677
2.99273	0.69
3.03243	0.692
3.07212	0.692
3.11182	0.687
3.15152	0.683
3.19121	0.67
3.23091	0.615
3.27061	0.56
3.31031	0.585
3.35	0.594
3.3897	0.594
3.4294	0.572
3.46909	0.582
3.50879	0.617
3.54849	0.617
3.58819	0.613
3.62788	0.613
3.66758	0.617
3.70728	0.648
3.74697	0.655
3.78667	0.643
3.82637	0.658
3.86606	0.665
3.90576	0.683
3.94546	0.702
3.98516	0.717
4.02485	0.735
4.06455	0.75
4.10425	0.763
4.14394	0.773
4.18364	0.783
4.22334	0.793
4.26304	0.783
4.30273	0.783
4.34243	0.831
4.38213	0.846
4.42182	0.851
4.46152	0.855
4.50122	0.868
4.54091	0.87
4.58061	0.873
4.62031	0.88
4.66001	0.881
4.6997	0.885
4.7394	0.89
4.7791	0.89
4.81879	0.891
4.85849	0.893
4.89819	0.896
4.93789	0.898
4.97758	0.903
5.01728	0.915
5.05698	0.893
5.09667	0.861
5.13637	0.886
5.17607	0.896
5.21576	0.906
5.25546	0.913
5.29516	0.891
5.33486	0.901
5.37455	0.908
5.41425	0.903
5.45395	0.903
5.49364	0.908
5.53334	0.9
5.57304	0.898
5.61274	0.915
5.65243	0.915
5.69213	0.91
5.73183	0.905
5.77152	0.895
5.81122	0.895
5.85092	0.893
5.89061	0.868
5.93031	0.856
5.97001	0.826
6.00971	0.86
6.0494	0.848
6.0891	0.767
6.1288	0.374
6.16849	0.064
6.20819	0.316
6.24789	0.307
6.28759	0.256
6.32728	0.232
6.36698	0.396
6.40668	0.627
6.44637	0.703
6.48607	0.742
6.52577	0.768
6.56546	0.795
6.60516	0.63
6.64486	0.346
6.68456	0.241
6.72425	0.316
6.76395	0.602
6.80365	0.584
6.84334	0.289
6.88304	0.66
6.92274	0.763
6.96244	0.79
7.00213	0.753
7.04183	0.72
7.08153	0.617
7.12122	0.56
7.16092	0.697
7.20062	0.77
7.24031	0.813
7.28001	0.815
7.31971	0.732
7.35941	0.643
7.3991	0.848
7.4388	0.916
7.4785	0.923
7.51819	0.921
7.55789	0.878
7.59759	0.865
7.63729	0.863
7.67698	0.851
7.71668	0.81
7.75638	0.487
7.79607	0.202
7.83577	0.168
7.87547	0.472
7.91516	0.702
7.95486	0.825
7.99456	0.856
8.03426	0.865
8.07395	0.831
8.11365	0.828
8.15335	0.811
8.19304	0.845
8.23274	0.863
8.27244	0.831
8.31214	0.733
8.35183	0.549
8.39153	0.287
8.43123	0.332
8.47092	0.683
8.51062	0.603
8.55032	0.748
8.59001	0.76
8.62971	0.46
8.66941	0.304
8.70911	0.722
8.7488	0.871
8.7885	0.881
8.8282	0.888
8.86789	0.9
8.90759	0.875
8.94729	0.868
8.98699	0.868
9.02668	0.88
9.06638	0.906
9.10608	0.921
9.14577	0.928
9.18547	0.93
9.22517	0.876
9.26486	0.705
9.30456	0.74
9.34426	0.866
9.38396	0.901
9.42365	0.928
9.46335	0.931
9.50305	0.933
9.54274	0.935
9.58244	0.935
9.62214	0.92
9.66184	0.678
9.70153	0.773
9.74123	0.783
9.78093	0.85
9.82062	0.901
9.86032	0.921
9.90002	0.925
9.93971	0.896
9.97941	0.851
10.0191	0.925
10.0588	0.93
10.0985	0.811
10.1382	0.607
10.1779	0.592
10.2176	0.708
10.2573	0.826
10.297	0.876
10.3367	0.898
10.3764	0.913
10.4161	0.936
10.4558	0.943
10.4955	0.948
10.5352	0.946
10.5749	0.898
10.6146	0.878
10.6543	0.92
10.694	0.946
10.7337	0.95
10.7734	0.946
10.8131	0.91
10.8527	0.692
10.8924	0.49
10.9321	0.747
10.9718	0.801
11.0115	0.801
11.0512	0.713
11.0909	0.445
11.1306	0.309
11.1703	0.567
11.21	0.798
11.2497	0.861
11.2894	0.88
11.3291	0.89
11.3688	0.896
11.4085	0.901
11.4482	0.901
11.4879	0.886
11.5276	0.865
11.5673	0.858
11.607	0.868
11.6467	0.875
11.6864	0.871
11.7261	0.83
11.7658	0.599
11.8055	0.41
11.8452	0.564
11.8849	0.655
11.9246	0.663
11.9643	0.647
12.004	0.589
12.0437	0.545
12.0834	0.51
12.1231	0.502
12.1627	0.505
12.2024	0.527
12.2421	0.569
12.2818	0.612
12.3215	0.67
12.3612	0.722
12.4009	0.768
12.4406	0.8
12.4803	0.833
12.52	0.85
12.5597	0.865
12.5994	0.87
12.6391	0.868
12.6788	0.801
12.7185	0.512
12.7582	0.244
12.7979	0.4
12.8376	0.647
12.8773	0.727
12.917	0.7
12.9567	0.485
12.9964	0.302
13.0361	0.221
13.0758	0.169
13.1155	0.123
13.1552	0.089
13.1949	0.088
13.2346	0.202
13.2743	0.391
13.314	0.535
13.3537	0.632
13.3934	0.698
13.4331	0.722
13.4728	0.718
13.5124	0.67
13.5521	0.687
13.5918	0.783
13.6315	0.841
13.6712	0.871
13.7109	0.886
13.7506	0.901
13.7903	0.918
13.83	0.938
13.8697	0.953
13.9094	0.966
13.9491	0.976
13.9888	0.98
14.0285	0.983
14.0682	0.983
14.1079	0.983
14.1476	0.981
14.1873	0.958
14.227	0.898
14.2667	0.793
14.3064	0.642
14.3461	0.484
14.3858	0.339
14.4255	0.264
14.4652	0.272
14.5049	0.422
14.5446	0.625
14.5843	0.767
14.624	0.856
14.6637	0.888
14.7034	0.906
14.7431	0.921
14.7828	0.928
14.8225	0.931
14.8621	0.931
14.9018	0.93
14.9415	0.905
14.9812	0.891
15.0209	0.898
15.0606	0.9
15.1003	0.898
15.14	0.878
15.1797	0.868
15.2194	0.865
15.2591	0.865
15.2988	0.866
15.3385	0.868
15.3782	0.871
15.4179	0.873
15.4576	0.873
15.4973	0.873
15.537	0.873
15.5767	0.873
15.6164	0.871
15.6561	0.87
15.6958	0.861
15.7355	0.861
15.7752	0.856
15.8149	0.845
15.8546	0.831
15.8943	0.82
15.934	0.803
15.9737	0.795
