Infrared Spectrum: Ammonium perchlorate
Formula: N H 4 Cl O 4
CAS: 7790-98-9
State: solid
Instrument: Bruker Tensor 37 FTIR
Resolution: 0.96450088
Origin: Pacific Northwest National Laboratory Under IARPA Contract
1/cm	Reflectance
7498.99	0.707999
7481.63	0.717246
7464.27	0.726451
7446.91	0.738966
7429.56	0.746763
7412.2	0.753381
7394.84	0.761511
7377.48	0.760499
7360.12	0.758918
7342.76	0.757147
7325.4	0.750954
7308.04	0.747246
7290.68	0.735546
7273.32	0.721717
7255.96	0.706744
7238.6	0.688284
7221.24	0.667453
7203.88	0.640427
7186.52	0.618982
7169.16	0.585771
7151.8	0.55216
7134.44	0.5183
7117.08	0.482037
7099.72	0.44235
7082.36	0.394168
7065	0.341677
7047.64	0.279066
7030.28	0.222807
7012.92	0.182335
6995.56	0.160886
6978.2	0.154635
6960.84	0.161238
6943.48	0.184307
6926.12	0.220208
6908.76	0.263911
6891.4	0.318009
6874.04	0.366105
6856.68	0.405572
6839.32	0.423583
6821.96	0.424581
6804.6	0.421892
6787.24	0.444314
6769.88	0.489489
6752.52	0.535267
6735.16	0.570664
6717.8	0.593566
6700.44	0.612805
6683.08	0.629076
6665.72	0.639322
6648.36	0.649794
6631	0.658558
6613.64	0.666346
6596.28	0.67035
6578.92	0.670878
6561.56	0.66698
6544.21	0.657312
6526.85	0.644636
6509.49	0.629636
6492.13	0.607138
6474.77	0.578833
6457.41	0.548858
6440.05	0.515564
6422.69	0.479396
6405.33	0.440825
6387.97	0.398715
6370.61	0.354125
6353.25	0.303449
6335.89	0.249877
6318.53	0.198676
6301.17	0.151408
6283.81	0.11398
6266.45	0.0806281
6249.09	0.0536301
6231.73	0.0434431
6214.37	0.0430144
6197.01	0.0427086
6179.65	0.0409238
6162.29	0.0398245
6144.93	0.0386775
6127.57	0.0373151
6110.21	0.0359894
6092.85	0.035713
6075.49	0.0401145
6058.13	0.0508189
6040.77	0.0681575
6023.41	0.0910794
6006.05	0.114841
5988.69	0.1387
5971.33	0.155571
5953.97	0.164472
5936.61	0.169226
5919.25	0.185967
5901.89	0.21756
5884.53	0.243493
5867.17	0.260976
5849.81	0.26763
5832.45	0.314146
5815.09	0.336394
5797.73	0.349562
5780.37	0.343114
5763.01	0.324326
5745.65	0.29429
5728.29	0.254074
5710.93	0.213327
5693.57	0.192271
5676.22	0.168756
5658.86	0.146818
5641.5	0.121783
5624.14	0.0992954
5606.78	0.0822429
5589.42	0.0645332
5572.06	0.0515344
5554.7	0.0401321
5537.34	0.0321028
5519.98	0.0286911
5502.62	0.0271462
5485.26	0.0259775
5467.9	0.0253113
5450.54	0.024676
5433.18	0.0241505
5415.82	0.0249136
5398.46	0.0317749
5381.1	0.036632
5363.74	0.0351788
5346.38	0.0338004
5329.02	0.0330412
5311.66	0.0323342
5294.3	0.0317118
5276.94	0.0312508
5259.58	0.0310808
5242.22	0.0305991
5224.86	0.0298388
5207.5	0.0294234
5190.14	0.0299924
5172.78	0.0302939
5155.42	0.0335356
5138.06	0.0425243
5120.7	0.0578497
5103.34	0.0771131
5085.98	0.0978396
5068.62	0.123292
5051.26	0.150795
5033.9	0.173628
5016.54	0.188475
4999.18	0.194293
4981.82	0.20771
4964.46	0.210316
4947.1	0.19311
4929.74	0.161359
4912.38	0.154128
4895.02	0.102259
4877.66	0.0714224
4860.3	0.058065
4842.94	0.0490672
4825.58	0.0483449
4808.22	0.0584306
4790.87	0.0385702
4773.51	0.0294504
4756.15	0.0280322
4738.79	0.030234
4721.43	0.0406505
4704.07	0.0400478
4686.71	0.0358883
4669.35	0.0331994
4651.99	0.0305694
4634.63	0.0278757
4617.27	0.0256202
4599.91	0.0235081
4582.55	0.0217178
4565.19	0.021174
4547.83	0.0201405
4530.47	0.0190174
4513.11	0.0179521
4495.75	0.0163242
4478.39	0.0173651
4461.03	0.0595469
4443.67	0.0341747
4426.31	0.0265844
4408.95	0.0226515
4391.59	0.0201043
4374.23	0.0168636
4356.87	0.0140162
4339.51	0.0254369
4322.15	0.0845176
4304.79	0.250191
4287.43	0.172703
4270.07	0.0757577
4252.71	0.0514667
4235.35	0.0433712
4217.99	0.0375392
4200.63	0.0474821
4183.27	0.0626172
4165.91	0.087665
4148.55	0.0932753
4131.19	0.0791173
4113.83	0.038941
4096.47	0.0328785
4079.11	0.0248394
4061.75	0.10996
4044.39	0.712146
4027.03	0.721298
4009.67	0.728424
3992.31	0.739942
3974.95	0.743625
3957.59	0.758502
3940.23	0.757664
3922.88	0.76018
3905.52	0.759425
3888.16	0.760272
3870.8	0.750054
3853.44	0.742656
3836.08	0.728514
3818.72	0.712887
3801.36	0.698521
3784	0.676935
3766.64	0.65852
3749.28	0.625645
3731.92	0.60005
3714.56	0.573471
3697.2	0.533457
3679.84	0.503564
3662.48	0.461668
3645.12	0.42007
3627.76	0.369987
3610.4	0.314678
3593.04	0.250431
3575.68	0.202852
3558.32	0.168229
3540.96	0.151817
3523.6	0.15024
3506.24	0.160608
3488.88	0.189361
3471.52	0.225915
3454.16	0.272962
3436.8	0.324143
3419.44	0.371463
3402.08	0.401854
3384.72	0.416876
3367.36	0.412514
3350	0.414033
3332.64	0.444413
3315.28	0.494384
3297.92	0.534987
3280.56	0.567334
3263.2	0.592522
3245.84	0.608544
3228.48	0.623131
3211.12	0.634583
3193.76	0.644384
3176.4	0.654547
3159.04	0.661846
3141.68	0.663981
3124.32	0.663207
3106.96	0.656756
3089.6	0.646672
3072.24	0.632932
3054.88	0.614195
3037.53	0.591294
3020.17	0.561929
3002.81	0.529414
2985.45	0.494179
2968.09	0.457356
2950.73	0.418535
2933.37	0.376546
2916.01	0.329698
2898.65	0.280045
2881.29	0.227932
2863.93	0.178289
2846.57	0.136155
2829.21	0.100374
2811.85	0.070195
2794.49	0.0484165
2777.13	0.0416386
2759.77	0.0416783
2742.41	0.0410889
2725.05	0.0397815
2707.69	0.0388217
2690.33	0.0376652
2672.97	0.0359167
2655.61	0.034553
2638.25	0.036101
2620.89	0.0414097
2603.53	0.0531255
2586.17	0.0720099
2568.81	0.094048
2551.45	0.117068
2534.09	0.139227
2516.73	0.152966
2499.37	0.16056
2482.01	0.166531
2464.65	0.188173
2447.29	0.216463
2429.93	0.244232
2412.57	0.251266
2395.21	0.271363
2377.85	0.312457
2360.49	0.332326
2343.13	0.339665
2325.77	0.329746
2308.41	0.30763
2291.05	0.275613
2273.69	0.234357
2256.33	0.198986
2238.97	0.181218
2221.61	0.156128
2204.25	0.136265
2186.89	0.11089
2169.53	0.0920058
2152.18	0.0753877
2134.82	0.0592421
2117.46	0.0475954
2100.1	0.0372668
2082.74	0.0305771
2065.38	0.0279031
2048.02	0.0267566
2030.66	0.0258957
2013.3	0.024801
1995.94	0.0245435
1978.58	0.0246733
1961.22	0.0257164
1943.86	0.0334282
1926.5	0.0363117
1909.14	0.0339372
1891.78	0.0329372
1874.42	0.0323486
1857.06	0.0316405
1839.7	0.0311383
1822.34	0.0310987
1804.98	0.0304954
1787.62	0.0296617
1770.26	0.0291259
1752.9	0.0290492
1735.54	0.0292505
1718.18	0.0302519
1700.82	0.0347718
1683.46	0.0455383
1666.1	0.0615689
1648.74	0.0808176
1631.38	0.102446
1614.02	0.127886
1596.66	0.154589
1579.3	0.174371
1561.94	0.187237
1544.58	0.189875
1527.22	0.206818
1509.86	0.202579
1492.5	0.181968
1475.14	0.156192
1457.78	0.140228
1440.42	0.08643
1423.06	0.0674695
1405.7	0.0538044
1388.34	0.0473884
1370.98	0.0502561
1353.62	0.0571544
1336.26	0.0344878
1318.9	0.0291159
1301.54	0.0278066
1284.19	0.0331677
1266.83	0.0412527
1249.47	0.0391283
1232.11	0.0345075
1214.75	0.0328017
1197.39	0.0303487
1180.03	0.0274325
1162.67	0.0253116
1145.31	0.0231978
1127.95	0.0222411
1110.59	0.0215538
1093.23	0.020496
1075.87	0.0191455
1058.51	0.0179243
1041.15	0.016888
1023.79	0.0237841
1006.43	0.052009
989.068	0.0310388
971.709	0.0255012
954.349	0.0224478
936.989	0.0197347
919.629	0.016614
902.269	0.0142404
884.91	0.0590411
867.55	0.129859
850.19	0.244851
832.83	0.136761
815.47	0.0652536
798.111	0.0490605
780.751	0.0429094
763.391	0.0390505
746.031	0.0530831
728.671	0.0715325
711.312	0.0955468
693.952	0.0932911
676.592	0.0748727
659.232	0.0358891
641.872	0.0341517
624.513	0.0193407
607.153	0.0490257
