Infrared Spectrum: 1-ETHYNYLCYCLOHEXANOL
Formula: C8 H12 O
CAS: 78-27-3
State: SOLID (MELT)
Class: COBLENTZ
Instrument: Not specified, most likely a prism, grating, or hybrid spectrometer.
Sampling: TRANSMISSION
Resolution: 4
MICROMETERS	TRANSMITTANCE
1.767	0.846
1.80702	0.85
1.84704	0.861
1.88706	0.862
1.92708	0.861
1.9671	0.858
2.00712	0.857
2.04713	0.867
2.08715	0.877
2.12717	0.879
2.16719	0.882
2.20721	0.853
2.24723	0.851
2.28725	0.854
2.32727	0.87
2.36729	0.865
2.40731	0.87
2.44733	0.87
2.48735	0.847
2.52737	0.879
2.56739	0.893
2.6074	0.894
2.64742	0.883
2.68744	0.85
2.72746	0.642
2.76748	0.449
2.8075	0.319
2.84752	0.225
2.88754	0.137
2.92756	0.12
2.96758	0.133
3.0076	0.066
3.04762	0.232
3.08764	0.413
3.12766	0.643
3.16767	0.74
3.20769	0.823
3.24771	0.841
3.28773	0.786
3.32775	0.502
3.36777	0.013
3.40779	0.168
3.44781	0.182
3.48783	0.461
3.52785	0.724
3.56787	0.802
3.60789	0.845
3.64791	0.857
3.68793	0.807
3.72794	0.834
3.76796	0.87
3.80798	0.866
3.848	0.889
3.88802	0.91
3.92804	0.907
3.96806	0.913
4.00808	0.926
4.0481	0.939
4.08812	0.934
4.12814	0.939
4.16816	0.937
4.20818	0.942
4.2482	0.938
4.28821	0.946
4.32823	0.953
4.36825	0.958
4.40827	0.954
4.44829	0.951
4.48831	0.954
4.52833	0.962
4.56835	0.962
4.60837	0.955
4.64839	0.941
4.68841	0.899
4.72843	0.873
4.76845	0.951
4.80847	0.967
4.84848	0.966
4.8885	0.953
4.92852	0.962
4.96854	0.963
5.00856	0.966
5.04858	0.971
5.0886	0.973
5.12862	0.962
5.16864	0.97
5.20866	0.973
5.24868	0.973
5.2887	0.973
5.32872	0.975
5.36874	0.975
5.40875	0.974
5.44877	0.974
5.48879	0.974
5.52881	0.974
5.56883	0.974
5.60885	0.975
5.64887	0.975
5.68889	0.977
5.72891	0.975
5.76893	0.97
5.80895	0.955
5.84897	0.942
5.88899	0.951
5.92901	0.947
5.96902	0.945
6.00904	0.934
6.04906	0.914
6.08908	0.906
6.1291	0.91
6.16912	0.927
6.20914	0.937
6.24916	0.946
6.28918	0.947
6.3292	0.945
6.36922	0.945
6.40924	0.945
6.44926	0.934
6.48928	0.929
6.52929	0.913
6.56931	0.902
6.60933	0.881
6.64935	0.862
6.68937	0.829
6.72939	0.789
6.76941	0.638
6.80943	0.456
6.84945	0.2
6.88947	0.156
6.92949	0.371
6.96951	0.503
7.00953	0.487
7.04955	0.456
7.08956	0.436
7.12958	0.423
7.1696	0.424
7.20962	0.441
7.24964	0.467
7.28966	0.518
7.32968	0.447
7.3697	0.335
7.40972	0.273
7.44974	0.275
7.48976	0.304
7.52978	0.389
7.5698	0.428
7.60982	0.508
7.64983	0.546
7.68985	0.546
7.72987	0.467
7.76989	0.38
7.80991	0.361
7.84993	0.4
7.88995	0.343
7.92997	0.221
7.96999	0.333
8.01001	0.465
8.05003	0.535
8.09005	0.603
8.13007	0.664
8.17009	0.714
8.2101	0.736
8.25012	0.739
8.29014	0.728
8.33016	0.703
8.37018	0.618
8.4102	0.514
8.45022	0.432
8.49024	0.461
8.53026	0.455
8.57028	0.397
8.6103	0.284
8.65032	0.349
8.69034	0.504
8.73036	0.59
8.77037	0.508
8.81039	0.476
8.85041	0.604
8.89043	0.718
8.93045	0.754
8.97047	0.758
9.01049	0.728
9.05051	0.68
9.09053	0.606
9.13055	0.507
9.17057	0.361
9.21059	0.208
9.25061	0.12
9.29063	0.07
9.33064	0.034
9.37066	0.052
9.41068	0.066
9.4507	0.098
9.49072	0.172
9.53074	0.321
9.57076	0.387
9.61078	0.353
9.6508	0.273
9.69082	0.285
9.73084	0.508
9.77086	0.674
9.81088	0.763
9.8509	0.797
9.89091	0.815
9.93093	0.826
9.97095	0.829
10.011	0.826
10.051	0.815
10.091	0.795
10.131	0.765
10.171	0.704
10.2111	0.535
10.2511	0.343
10.2911	0.133
10.3311	0.024
10.3711	0.044
10.4112	0.121
10.4512	0.228
10.4912	0.255
10.5312	0.28
10.5712	0.348
10.6113	0.413
10.6513	0.497
10.6913	0.59
10.7313	0.663
10.7713	0.722
10.8114	0.771
10.8514	0.795
10.8914	0.795
10.9314	0.771
10.9714	0.708
11.0115	0.381
11.0515	0.269
11.0915	0.44
11.1315	0.702
11.1715	0.825
11.2116	0.862
11.2516	0.878
11.2916	0.887
11.3316	0.895
11.3716	0.899
11.4116	0.901
11.4517	0.902
11.4917	0.901
11.5317	0.893
11.5717	0.877
11.6117	0.843
11.6518	0.771
11.6918	0.587
11.7318	0.363
11.7718	0.464
11.8118	0.686
11.8519	0.803
11.8919	0.834
11.9319	0.818
11.9719	0.77
12.0119	0.715
12.052	0.773
12.092	0.779
12.132	0.771
12.172	0.803
12.212	0.834
12.2521	0.846
12.2921	0.853
12.3321	0.853
12.3721	0.849
12.4121	0.846
12.4521	0.846
12.4922	0.85
12.5322	0.849
12.5722	0.843
12.6122	0.834
12.6522	0.81
12.6923	0.769
12.7323	0.698
12.7723	0.666
12.8123	0.75
12.8523	0.789
12.8924	0.787
12.9324	0.782
12.9724	0.793
13.0124	0.798
13.0524	0.797
13.0925	0.793
13.1325	0.787
13.1725	0.781
13.2125	0.771
13.2525	0.763
13.2926	0.755
13.3326	0.747
13.3726	0.738
13.4126	0.724
13.4526	0.712
13.4927	0.702
13.5327	0.687
13.5727	0.676
13.6127	0.663
13.6527	0.652
13.6927	0.64
13.7328	0.624
13.7728	0.611
13.8128	0.598
13.8528	0.584
13.8928	0.571
13.9329	0.554
13.9729	0.536
14.0129	0.524
14.0529	0.51
14.0929	0.497
14.133	0.489
14.173	0.484
14.213	0.475
14.253	0.464
14.293	0.453
14.3331	0.441
14.3731	0.429
14.4131	0.415
14.4531	0.403
14.4931	0.387
14.5332	0.373
14.5732	0.359
14.6132	0.344
14.6532	0.328
14.6932	0.315
14.7332	0.295
14.7733	0.275
14.8133	0.257
14.8533	0.246
14.8933	0.234
14.9333	0.216
14.9734	0.201
15.0134	0.189
15.0534	0.181
15.0934	0.164
15.1334	0.141
15.1735	0.129
15.2135	0.118
15.2535	0.109
15.2935	0.104
15.3335	0.1
15.3736	0.096
15.4136	0.093
15.4536	0.093
15.4936	0.094
15.5336	0.097
15.5737	0.104
15.6137	0.11
15.6537	0.11
15.6937	0.113
15.7337	0.113
