Infrared Spectrum: PHOSPHORIC ACID, TRIS(2-ETHYLHEXYL) ESTER
Formula: C24 H51 O4 P
CAS: 78-42-2
Class: COBLENTZ
Instrument: Not specified, most likely a prism, grating, or hybrid spectrometer.
Sampling: TRANSMISSION
Path length: 0.0025 CM CELL
Resolution: 4
Origin: TENNESSEE EASTMAN COMPANY, RESEARCH LABORATORIES
MICROMETERS	TRANSMITTANCE
2.052	0.996
2.09204	0.996
2.13209	0.998
2.17213	0.998
2.21218	0.989
2.25222	0.968
2.29227	0.939
2.33231	0.939
2.37235	0.941
2.4124	0.943
2.45244	0.944
2.49249	0.946
2.53253	0.951
2.57258	0.968
2.61262	0.984
2.65266	0.989
2.69271	0.993
2.73275	0.994
2.7728	0.994
2.81284	0.991
2.85289	0.983
2.89293	0.963
2.93297	0.959
2.97302	0.961
3.01306	0.961
3.05311	0.961
3.09315	0.961
3.13319	0.951
3.17324	0.939
3.21328	0.934
3.25333	0.914
3.29337	0.846
3.33342	0.645
3.37346	0.284
3.4135	0.065
3.45355	0.091
3.49359	0.439
3.53364	0.757
3.57368	0.836
3.61373	0.847
3.65377	0.849
3.69381	0.882
3.73386	0.896
3.7739	0.901
3.81395	0.916
3.85399	0.918
3.89404	0.924
3.93408	0.943
3.97412	0.949
4.01417	0.951
4.05421	0.956
4.09426	0.959
4.1343	0.963
4.17435	0.959
4.21439	0.961
4.25443	0.989
4.29448	1.016
4.33452	1.02
4.37457	0.968
4.41461	0.966
4.45466	0.966
4.4947	0.966
4.53474	0.968
4.57479	0.968
4.61483	0.971
4.65488	0.971
4.69492	0.971
4.73496	0.971
4.77501	0.969
4.81505	0.969
4.8551	0.969
4.89514	0.969
4.93519	0.968
4.97523	0.966
5.01527	0.966
5.05532	0.961
5.09536	0.951
5.13541	0.948
5.17545	0.943
5.2155	0.943
5.25554	0.938
5.29558	0.938
5.33563	0.939
5.37567	0.941
5.41572	0.943
5.45576	0.944
5.49581	0.944
5.53585	0.948
5.57589	0.948
5.61594	0.951
5.65598	0.954
5.69603	0.968
5.73607	0.969
5.77612	0.968
5.81616	0.968
5.8562	0.968
5.89625	0.971
5.93629	0.971
5.97634	0.969
6.01638	0.968
6.05643	0.968
6.09647	0.966
6.13651	0.963
6.17656	0.959
6.2166	0.953
6.25665	0.944
6.29669	0.943
6.33674	0.944
6.37678	0.946
6.41682	0.953
6.45687	0.956
6.49691	0.953
6.53696	0.951
6.577	0.946
6.61704	0.934
6.65709	0.884
6.69713	0.782
6.73718	0.578
6.77722	0.366
6.81727	0.198
6.85731	0.453
6.89735	0.613
6.9374	0.772
6.97744	0.836
7.01749	0.867
7.05753	0.872
7.09758	0.871
7.13762	0.819
7.17766	0.695
7.21771	0.511
7.25775	0.612
7.2978	0.777
7.33784	0.831
7.37789	0.831
7.41793	0.837
7.45797	0.829
7.49802	0.832
7.53806	0.831
7.57811	0.806
7.61815	0.717
7.6582	0.607
7.69824	0.406
7.73828	0.193
7.77833	0.108
7.81837	0.125
7.85842	0.14
7.89846	0.15
7.93851	0.269
7.97855	0.416
8.01859	0.543
8.05864	0.628
8.09868	0.724
8.13873	0.795
8.17877	0.814
8.21881	0.816
8.25886	0.816
8.2989	0.819
8.33895	0.831
8.37899	0.834
8.41904	0.834
8.45908	0.831
8.49912	0.817
8.53917	0.749
8.57921	0.693
8.61926	0.635
8.6593	0.622
8.69935	0.627
8.73939	0.663
8.77943	0.692
8.81948	0.702
8.85952	0.698
8.89957	0.665
8.93961	0.633
8.97966	0.635
9.0197	0.663
9.05974	0.663
9.09979	0.62
9.13983	0.51
9.17988	0.431
9.21992	0.376
9.25997	0.347
9.30001	0.316
9.34005	0.282
9.3801	0.245
9.42014	0.212
9.46019	0.153
9.50023	0.096
9.54028	0.06
9.58032	0.05
9.62036	0.043
9.66041	0.043
9.70045	0.043
9.7405	0.043
9.78054	0.043
9.82059	0.043
9.86063	0.043
9.90067	0.043
9.94072	0.051
9.98076	0.056
10.0208	0.07
10.0609	0.075
10.1009	0.078
10.1409	0.08
10.181	0.088
10.221	0.115
10.2611	0.17
10.3011	0.244
10.3412	0.352
10.3812	0.436
10.4212	0.52
10.4613	0.578
10.5013	0.622
10.5414	0.652
10.5814	0.658
10.6215	0.655
10.6615	0.62
10.7016	0.59
10.7416	0.575
10.7816	0.578
10.8217	0.6
10.8617	0.596
10.9018	0.565
10.9418	0.523
10.9819	0.505
11.0219	0.515
11.062	0.528
11.102	0.503
11.142	0.459
11.1821	0.404
11.2221	0.364
11.2622	0.337
11.3022	0.332
11.3423	0.334
11.3823	0.356
11.4224	0.389
11.4624	0.414
11.5024	0.449
11.5425	0.493
11.5825	0.528
11.6226	0.576
11.6626	0.608
11.7027	0.653
11.7427	0.687
11.7828	0.705
11.8228	0.725
11.8628	0.729
11.9029	0.73
11.9429	0.73
11.983	0.73
12.023	0.727
12.0631	0.722
12.1031	0.717
12.1432	0.714
12.1832	0.717
12.2232	0.73
12.2633	0.747
12.3033	0.769
12.3434	0.785
12.3834	0.79
12.4235	0.79
12.4635	0.78
12.5035	0.75
12.5436	0.727
12.5836	0.715
12.6237	0.7
12.6637	0.685
12.7038	0.672
12.7438	0.66
12.7839	0.653
12.8239	0.645
12.8639	0.637
12.904	0.632
12.944	0.632
12.9841	0.637
13.0241	0.667
13.0642	0.702
13.1042	0.739
13.1443	0.769
13.1843	0.792
13.2243	0.811
13.2644	0.821
13.3044	0.821
13.3445	0.819
13.3845	0.821
13.4246	0.819
13.4646	0.812
13.5047	0.806
13.5447	0.79
13.5847	0.772
13.6248	0.739
13.6648	0.72
13.7049	0.71
13.7449	0.722
13.785	0.75
13.825	0.78
13.8651	0.799
13.9051	0.809
13.9451	0.816
13.9852	0.817
14.0252	0.817
14.0653	0.817
14.1053	0.817
14.1454	0.819
14.1854	0.817
14.2255	0.817
14.2655	0.814
14.3055	0.809
14.3456	0.804
14.3856	0.799
14.4257	0.794
14.4657	0.789
14.5058	0.785
14.5458	0.78
14.5859	0.775
14.6259	0.769
14.6659	0.762
14.706	0.755
14.746	0.752
14.7861	0.745
14.8261	0.74
14.8662	0.737
14.9062	0.732
14.9462	0.729
14.9863	0.729
15.0263	0.725
15.0664	0.72
15.1064	0.714
15.1465	0.709
15.1865	0.707
15.2266	0.705
15.2666	0.702
15.3066	0.7
15.3467	0.7
15.3867	0.697
15.4268	0.693
15.4668	0.693
15.5069	0.692
15.5469	0.688
15.587	0.688
15.627	0.688
15.667	0.688
15.7071	0.688
15.7471	0.688
15.7872	0.688
15.8272	0.687
15.8673	0.687
15.9073	0.687
15.9474	0.687
15.9874	0.687
