Infrared Spectrum: PHOSPHORIC ACID, TRIETHYL ESTER
Formula: C6 H15 O4 P
CAS: 78-40-0
State: SOLUTION (10% CCl4 FOR 3800-1340, 10% CS2 FOR 1340-470 CM^-^1)
Class: COBLENTZ III
Instrument: DOW KBr FOREPRISM-GRATING
Instrument parameters: BLAZED AT 3.5, 12.0, 20.0 MICRON AND CHANGED AT 5.0, 7.5, 14.9 MICRON
Sampling: TRANSMISSION
Path length: 0.011 CM, 0.011 CM
Resolution: 2
Origin: DOW CHEMICAL COMPANY
1/CM	TRANSMITTANCE
3800	0.9093
3791	0.9092
3782	0.9091
3773	0.9095
3764	0.9104
3755	0.9112
3746	0.9115
3737	0.9118
3728	0.9115
3719	0.9107
3710	0.9097
3701	0.9059
3692	0.8916
3683	0.8832
3674	0.8971
3665	0.9035
3656	0.9039
3647	0.9036
3638	0.9028
3629	0.902
3620	0.9013
3611	0.9006
3602	0.8995
3593	0.8978
3584	0.8946
3575	0.8925
3566	0.8892
3557	0.8858
3548	0.8814
3539	0.8764
3530	0.8709
3521	0.8648
3512	0.857
3503	0.8471
3494	0.8368
3485	0.8271
3476	0.8161
3467	0.8083
3458	0.8045
3449	0.8061
3440	0.8148
3431	0.8248
3422	0.8354
3413	0.8433
3404	0.8492
3395	0.8541
3386	0.858
3377	0.8611
3368	0.864
3359	0.8664
3350	0.8689
3341	0.8702
3332	0.8713
3323	0.8716
3314	0.872
3305	0.8723
3296	0.8724
3287	0.872
3278	0.8716
3269	0.8703
3260	0.8685
3251	0.8653
3242	0.86
3233	0.857
3224	0.8568
3215	0.8568
3206	0.8588
3197	0.8609
3188	0.8613
3179	0.86
3170	0.8585
3161	0.8581
3152	0.8578
3143	0.8574
3134	0.8571
3125	0.8566
3116	0.853
3107	0.8492
3098	0.8456
3089	0.8391
3080	0.8324
3071	0.8242
3062	0.8143
3053	0.7878
3044	0.7671
3035	0.7258
3026	0.6316
3017	0.4284
3008	0.2753
2999	0.107
2990	0.0567
2981	0.1042
2972	0.2975
2963	0.4209
2954	0.4691
2945	0.3745
2936	0.3462
2927	0.4496
2918	0.2775
2909	0.3306
2900	0.5729
2891	0.6585
2882	0.6524
2873	0.5778
2864	0.7422
2855	0.7617
2846	0.7819
2837	0.7884
2828	0.7775
2819	0.7931
2810	0.8168
2801	0.828
2792	0.8274
2783	0.8126
2774	0.8047
2765	0.8292
2756	0.8236
2747	0.8126
2738	0.8325
2729	0.8359
2720	0.8471
2711	0.8544
2702	0.8599
2693	0.8611
2684	0.8605
2675	0.8599
2666	0.8593
2657	0.8587
2648	0.8582
2639	0.8583
2630	0.8587
2621	0.8597
2612	0.8611
2603	0.8646
2594	0.8666
2585	0.8674
2576	0.8671
2567	0.8668
2558	0.8674
2549	0.8677
2540	0.8678
2531	0.868
2522	0.8681
2513	0.8683
2504	0.8685
2495	0.8683
2486	0.8668
2477	0.8618
2468	0.8617
2459	0.8618
2450	0.8624
2441	0.8625
2432	0.8628
2423	0.8631
2414	0.862
2405	0.8606
2396	0.8587
2387	0.8565
2378	0.8581
2369	0.8628
2360	0.8643
2351	0.8543
2342	0.8538
2333	0.8508
2324	0.8428
2315	0.8378
2306	0.8336
2297	0.8317
2288	0.8306
2279	0.8311
2270	0.836
2261	0.8421
2252	0.848
2243	0.8521
2234	0.8533
2225	0.8541
2216	0.855
2207	0.8558
2198	0.8571
2189	0.8588
2180	0.8617
2171	0.8643
2162	0.866
2153	0.865
2144	0.8653
2135	0.8666
2126	0.8678
2117	0.8689
2108	0.8699
2099	0.8717
2090	0.8728
2081	0.8682
2072	0.8744
2063	0.8778
2054	0.8775
2045	0.8785
2036	0.8781
2027	0.8731
2018	0.8689
2009	0.8596
2000	0.8486
1991	0.8589
1982	0.8609
1973	0.8611
1964	0.8728
1955	0.8614
1946	0.8631
1937	0.8614
1928	0.8556
1919	0.8475
1910	0.8318
1901	0.8205
1892	0.8244
1883	0.8204
1874	0.8149
1865	0.8021
1856	0.7998
1847	0.8112
1838	0.8248
1829	0.8362
1820	0.8447
1811	0.8397
1802	0.828
1793	0.8103
1784	0.7951
1775	0.7993
1766	0.8075
1757	0.8171
1748	0.8242
1739	0.8286
1730	0.8302
1721	0.8308
1712	0.8318
1703	0.833
1694	0.8352
1685	0.8371
1676	0.8367
1667	0.8325
1658	0.8274
1649	0.8216
1640	0.8158
1631	0.8092
1622	0.7994
1613	0.7761
1604	0.723
1595	0.6453
1586	0.616
1577	0.5923
1568	0.5283
1559	0.4738
1550	0.4588
1541	0.5115
1532	0.5851
1523	0.629
1514	0.6606
1505	0.6853
1496	0.6906
1487	0.5586
1478	0.5115
1469	0.6612
1460	0.5502
1451	0.5668
1442	0.4681
1433	0.6797
1424	0.7212
1415	0.7237
1406	0.623
1397	0.2167
1388	0.4953
1379	0.6428
1370	0.4109
1361	0.7395
1352	0.7628
1343	0.7561
1334	0.7445
1325	0.7218
1316	0.6598
1307	0.4704
1298	0.2514
1289	0.0901
1280	0.0236
1271	0.019
1262	0.0129
1253	0.1632
1244	0.3975
1235	0.5425
1226	0.6106
1217	0.6803
1208	0.725
1199	0.7351
1190	0.7232
1181	0.6636
1172	0.4043
1163	0.2217
1154	0.4203
1145	0.563
1136	0.5849
1127	0.5725
1118	0.5129
1109	0.3571
1100	0.1727
1091	0.2408
1082	0.2011
1073	0.1289
1064	0.0872
1055	0.0331
1046	0.0009
1037	0.0009
1028	0.0008
1019	0.0227
1010	0.171
1001	0.2715
992	0.1875
983	0.029
974	0.0066
965	0.0133
956	0.0578
947	0.1622
938	0.2742
929	0.4968
920	0.6915
911	0.7542
902	0.7861
893	0.7983
884	0.7848
875	0.7525
866	0.7255
857	0.6971
848	0.6942
839	0.658
830	0.3612
821	0.1273
812	0.208
803	0.1942
794	0.2607
785	0.6121
776	0.7246
767	0.7428
758	0.6751
749	0.4937
740	0.4821
731	0.609
722	0.6918
713	0.7655
704	0.7924
695	0.7983
686	0.7968
677	0.8134
668	0.8342
659	0.7871
650	0.7444
641	0.7767
632	0.8019
623	0.8017
614	0.7947
605	0.7862
596	0.7748
587	0.7644
578	0.7457
569	0.7047
560	0.5397
551	0.3832
542	0.3278
533	0.3375
524	0.3442
515	0.4094
506	0.4815
497	0.5406
488	0.5503
479	0.5223
470	0.5092
