Infrared Spectrum: Dibutyl butylphosphonate
Formula: C12 H27 O3 P
CAS: 78-46-6
State: SOLUTION (10% CCl4 FOR 2.7-7.5, 10% CS2 FOR 7.5-26 MICRON) VS SOLVENT
Class: COBLENTZ
Instrument: DOW KBr FOREPRISM-GRATING
Instrument parameters: BLAZED AT 3.5, 12.0, 20.0 MICRON AND CHANGED AT 5.0, 7.5, 14.9 MICRON
Sampling: TRANSMISSION
Path length: 0.011 CM, 0.011 CM
Resolution: 2
Origin: DOW CHEMICAL COMPANY
1/CM	TRANSMITTANCE
3798	0.8633
3789	0.8605
3780	0.8592
3771	0.8589
3762	0.8589
3753	0.8588
3744	0.859
3735	0.8592
3726	0.8594
3717	0.8591
3708	0.8582
3699	0.8571
3690	0.8538
3681	0.8195
3672	0.7232
3663	0.7812
3654	0.8392
3645	0.8461
3636	0.8481
3627	0.8492
3618	0.8504
3609	0.851
3600	0.8514
3591	0.8516
3582	0.8517
3573	0.8518
3564	0.8489
3555	0.8428
3546	0.8368
3537	0.8318
3528	0.828
3519	0.8239
3510	0.8195
3501	0.8128
3492	0.8047
3483	0.7961
3474	0.7858
3465	0.7757
3456	0.7656
3447	0.7544
3438	0.7471
3429	0.7439
3420	0.7421
3411	0.7431
3402	0.7494
3393	0.7617
3384	0.7781
3375	0.7922
3366	0.8075
3357	0.8213
3348	0.8331
3339	0.8431
3330	0.8518
3321	0.8597
3312	0.8664
3303	0.8707
3294	0.874
3285	0.8768
3276	0.8789
3267	0.8801
3258	0.8812
3249	0.8818
3240	0.8828
3231	0.88
3222	0.874
3213	0.8696
3204	0.8678
3195	0.8683
3186	0.8693
3177	0.8712
3168	0.8733
3159	0.8754
3150	0.8773
3141	0.8786
3132	0.8796
3123	0.8798
3114	0.8795
3105	0.8765
3096	0.8735
3087	0.8692
3078	0.8631
3069	0.8561
3060	0.8485
3051	0.8401
3042	0.8307
3033	0.8183
3024	0.8028
3015	0.7774
3006	0.725
2997	0.6685
2988	0.3118
2979	0.0676
2970	0.0198
2961	0.0132
2952	0.0548
2943	0.0648
2934	0.0553
2925	0.1006
2916	0.1992
2907	0.2009
2898	0.2175
2889	0.2894
2880	0.1462
2871	0.1328
2862	0.2905
2853	0.5022
2844	0.591
2835	0.678
2826	0.7319
2817	0.7601
2808	0.7822
2799	0.7999
2790	0.8145
2781	0.825
2772	0.8313
2763	0.8328
2754	0.8316
2745	0.8254
2736	0.8178
2727	0.8231
2718	0.8387
2709	0.8489
2700	0.8528
2691	0.8512
2682	0.8536
2673	0.8561
2664	0.8564
2655	0.8571
2646	0.8625
2637	0.8666
2628	0.8665
2619	0.8658
2610	0.8658
2601	0.8662
2592	0.8671
2583	0.8693
2574	0.8717
2565	0.874
2556	0.8764
2547	0.879
2538	0.8813
2529	0.8821
2520	0.8824
2511	0.8809
2502	0.8794
2493	0.8789
2484	0.8788
2475	0.8791
2466	0.8793
2457	0.8791
2448	0.8789
2439	0.8785
2430	0.8782
2421	0.8778
2412	0.8778
2403	0.8778
2394	0.878
2385	0.8778
2376	0.8778
2367	0.8778
2358	0.8778
2349	0.8778
2340	0.8783
2331	0.8787
2322	0.8789
2313	0.879
2304	0.8785
2295	0.878
2286	0.8785
2277	0.8785
2268	0.8785
2259	0.8789
2250	0.8795
2241	0.8799
2232	0.8804
2223	0.8807
2214	0.8813
2205	0.8814
2196	0.8811
2187	0.8843
2178	0.8886
2169	0.8881
2160	0.8868
2151	0.8859
2142	0.8851
2133	0.8852
2124	0.8852
2115	0.8849
2106	0.885
2097	0.8859
2088	0.8865
2079	0.8848
2070	0.8824
2061	0.8797
2052	0.8774
2043	0.8768
2034	0.8764
2025	0.8777
2016	0.8796
2007	0.8807
1998	0.8818
1989	0.8816
1980	0.881
1971	0.8813
1962	0.8825
1953	0.8823
1944	0.8821
1935	0.882
1926	0.8821
1917	0.8799
1908	0.8765
1899	0.8751
1890	0.8728
1881	0.8718
1872	0.8709
1863	0.8703
1854	0.8697
1845	0.8693
1836	0.8689
1827	0.8693
1818	0.871
1809	0.8714
1800	0.872
1791	0.8725
1782	0.8733
1773	0.8735
1764	0.8736
1755	0.8736
1746	0.8737
1737	0.8738
1728	0.8737
1719	0.8721
1710	0.8709
1701	0.8696
1692	0.867
1683	0.8642
1674	0.8606
1665	0.8573
1656	0.8533
1647	0.8488
1638	0.837
1629	0.8111
1620	0.808
1611	0.833
1602	0.846
1593	0.8573
1584	0.8651
1575	0.8644
1566	0.8656
1557	0.8694
1548	0.8749
1539	0.8712
1530	0.8594
1521	0.8544
1512	0.8378
1503	0.8176
1494	0.7936
1485	0.71
1476	0.4555
1467	0.2762
1458	0.3686
1449	0.5678
1440	0.6784
1431	0.6871
1422	0.758
1413	0.7236
1404	0.6474
1395	0.5658
1386	0.4636
1377	0.6853
1368	0.7392
1359	0.7567
1350	0.7435
1341	0.7528
1332	0.7584
1323	0.746
1314	0.6221
1305	0.5875
1296	0.5633
1287	0.546
1278	0.3437
1269	0.3404
1260	0.1523
1251	0.0573
1242	0.0299
1233	0.223
1224	0.2901
1215	0.2947
1206	0.5728
1197	0.6524
1188	0.6956
1179	0.7125
1170	0.7232
1161	0.684
1152	0.6336
1143	0.6274
1134	0.6599
1125	0.607
1116	0.5633
1107	0.6171
1098	0.5377
1089	0.4325
1080	0.2145
1071	0.0612
1062	0.0774
1053	0.1179
1044	0.09
1035	0.0501
1026	0.0235
1017	0.0155
1008	0.0653
999	0.0758
990	0.0996
981	0.0564
972	0.0296
963	0.1774
954	0.2468
945	0.471
936	0.6518
927	0.693
918	0.441
909	0.2442
900	0.33
891	0.4193
882	0.5564
873	0.6467
864	0.7072
855	0.6615
846	0.4631
837	0.4121
828	0.4341
819	0.4336
810	0.4605
801	0.4712
792	0.5771
783	0.6689
774	0.6826
765	0.7004
756	0.6315
747	0.6282
738	0.5165
729	0.4994
720	0.6175
711	0.6915
702	0.7078
693	0.7333
684	0.7871
675	0.8265
666	0.8623
657	0.8656
648	0.8325
639	0.84
630	0.8465
621	0.8446
612	0.8348
603	0.8298
594	0.8283
585	0.8198
576	0.7957
567	0.7208
558	0.5381
549	0.4649
540	0.4787
531	0.5445
522	0.5792
513	0.6095
504	0.6349
495	0.6491
486	0.6544
477	0.6536
468	0.6504
459	0.6501
450	0.6539
441	0.6658
432	0.6782
423	0.6838
414	0.6835
405	0.6825
396	0.6828
