Infrared Spectrum: Phosphoric acid, tri-(2-butoxyethyl) ester
Formula: C18 H39 O7 P
CAS: 78-51-3
State: SOLUTION (10% CCl4 FOR 2.7-7.5, 10% CS2 FOR 7.5-26 MICRON) VS SOLVENT
Class: COBLENTZ III
Instrument: DOW KBr FOREPRISM-GRATING
Instrument parameters: BLAZED AT 3.5, 12.0, 20.0 MICRON AND CHANGED AT 5.0, 7.5, 14.9 MICRON
Sampling: TRANSMISSION
Path length: 0.011 CM, 0.011 CM
Resolution: 2
Origin: DOW CHEMICAL COMPANY
1/CM	TRANSMITTANCE
3794	0.8689
3785	0.8687
3776	0.8685
3767	0.8683
3758	0.8688
3749	0.8689
3740	0.869
3731	0.8695
3722	0.8691
3713	0.8681
3704	0.8664
3695	0.8641
3686	0.8606
3677	0.8425
3668	0.8087
3659	0.8294
3650	0.848
3641	0.8498
3632	0.8504
3623	0.8502
3614	0.85
3605	0.8485
3596	0.8417
3587	0.838
3578	0.838
3569	0.8378
3560	0.8371
3551	0.8354
3542	0.8336
3533	0.8299
3524	0.8259
3515	0.8205
3506	0.8142
3497	0.8076
3488	0.8011
3479	0.7953
3470	0.7891
3461	0.7856
3452	0.784
3443	0.783
3434	0.7835
3425	0.7875
3416	0.7934
3407	0.8011
3398	0.8091
3389	0.8171
3380	0.8241
3371	0.8306
3362	0.8364
3353	0.8416
3344	0.8448
3335	0.848
3326	0.8511
3317	0.8541
3308	0.8564
3299	0.858
3290	0.8597
3281	0.8608
3272	0.8618
3263	0.8624
3254	0.8627
3245	0.8623
3236	0.8614
3227	0.8601
3218	0.859
3209	0.8566
3200	0.8518
3191	0.8487
3182	0.8481
3173	0.8485
3164	0.8486
3155	0.8488
3146	0.8491
3137	0.8493
3128	0.8498
3119	0.8497
3110	0.8471
3101	0.8428
3092	0.839
3083	0.8353
3074	0.8317
3065	0.8259
3056	0.818
3047	0.809
3038	0.7983
3029	0.7775
3020	0.755
3011	0.7351
3002	0.7025
2993	0.5837
2984	0.3897
2975	0.2283
2966	0.067
2957	0.0246
2948	0.0491
2939	0.0679
2930	0.0594
2921	0.1073
2912	0.1367
2903	0.1542
2894	0.1611
2885	0.1155
2876	0.0512
2867	0.0421
2858	0.0683
2849	0.2028
2840	0.3766
2831	0.4969
2822	0.5082
2813	0.4822
2804	0.5862
2795	0.6205
2786	0.631
2777	0.6622
2768	0.6954
2759	0.7075
2750	0.7178
2741	0.7221
2732	0.7221
2723	0.7228
2714	0.7358
2705	0.7528
2696	0.7678
2687	0.7826
2678	0.7956
2669	0.8067
2660	0.8158
2651	0.825
2642	0.8331
2633	0.8355
2624	0.836
2615	0.8362
2606	0.8365
2597	0.8371
2588	0.8392
2579	0.8435
2570	0.847
2561	0.8503
2552	0.8537
2543	0.8566
2534	0.859
2525	0.8614
2516	0.8638
2507	0.8652
2498	0.8666
2489	0.8677
2480	0.8688
2471	0.8699
2462	0.8706
2453	0.8707
2444	0.8708
2435	0.8709
2426	0.8696
2417	0.8682
2408	0.8668
2399	0.8657
2390	0.8663
2381	0.8678
2372	0.8701
2363	0.8711
2354	0.8717
2345	0.8721
2336	0.8718
2327	0.8705
2318	0.8686
2309	0.8664
2300	0.8642
2291	0.8621
2282	0.8611
2273	0.861
2264	0.8621
2255	0.8634
2246	0.8657
2237	0.8671
2228	0.8687
2219	0.8696
2210	0.8699
2201	0.8703
2192	0.8714
2183	0.8739
2174	0.8768
2165	0.8752
2156	0.8744
2147	0.8737
2138	0.8733
2129	0.8728
2120	0.8725
2111	0.8727
2102	0.8728
2093	0.8731
2084	0.8727
2075	0.872
2066	0.8715
2057	0.8713
2048	0.8712
2039	0.8711
2030	0.8713
2021	0.8713
2012	0.8711
2003	0.8711
1994	0.8645
1985	0.86
1976	0.8594
1967	0.8578
1958	0.8574
1949	0.8568
1940	0.8562
1931	0.8566
1922	0.8581
1913	0.8566
1904	0.8561
1895	0.8559
1886	0.8559
1877	0.8553
1868	0.8549
1859	0.8554
1850	0.8568
1841	0.8595
1832	0.8621
1823	0.8641
1814	0.8657
1805	0.861
1796	0.8575
1787	0.8544
1778	0.8538
1769	0.8544
1760	0.8546
1751	0.8527
1742	0.8418
1733	0.8161
1724	0.7844
1715	0.7812
1706	0.821
1697	0.8464
1688	0.8514
1679	0.8512
1670	0.8512
1661	0.8505
1652	0.8468
1643	0.8414
1634	0.8354
1625	0.827
1616	0.8268
1607	0.8375
1598	0.8474
1589	0.8553
1580	0.8589
1571	0.8587
1562	0.8623
1553	0.8696
1544	0.8717
1535	0.8643
1526	0.8537
1517	0.8458
1508	0.8281
1499	0.8015
1490	0.7631
1481	0.5397
1472	0.414
1463	0.3378
1454	0.3625
1445	0.5959
1436	0.638
1427	0.7311
1418	0.7428
1409	0.7401
1400	0.6999
1391	0.54
1382	0.4489
1373	0.5693
1364	0.4612
1355	0.5387
1346	0.6937
1337	0.678
1328	0.6354
1319	0.6574
1310	0.5755
1301	0.3494
1292	0.1557
1283	0.0866
1274	0.0847
1265	0.1107
1256	0.1963
1247	0.2882
1238	0.3652
1229	0.4814
1220	0.5834
1211	0.6591
1202	0.6904
1193	0.693
1184	0.6771
1175	0.6166
1166	0.5131
1157	0.3596
1148	0.2147
1139	0.0611
1130	0.0278
1121	0.0564
1112	0.1223
1103	0.1498
1094	0.1763
1085	0.1777
1076	0.147
1067	0.1132
1058	0.0722
1049	0.0177
1040	0.0043
1031	0.0028
1022	0.0252
1013	0.0881
1004	0.2042
995	0.1262
986	0.0567
977	0.0566
968	0.1058
959	0.1732
950	0.2448
941	0.3504
932	0.482
923	0.6137
914	0.6853
905	0.6718
896	0.567
887	0.5456
878	0.5627
869	0.5439
860	0.5297
851	0.5723
842	0.5395
833	0.491
824	0.4162
815	0.397
806	0.455
797	0.5803
788	0.7267
779	0.7661
770	0.759
761	0.714
752	0.6665
743	0.668
734	0.6621
725	0.7795
716	0.8199
707	0.8368
698	0.8421
689	0.8488
680	0.8517
671	0.8454
662	0.8346
653	0.8061
644	0.8018
635	0.8011
626	0.7996
617	0.7899
608	0.7778
599	0.7706
590	0.7468
581	0.6975
572	0.6262
563	0.5928
554	0.5883
545	0.5957
536	0.5996
527	0.5839
518	0.5755
509	0.5676
500	0.564
491	0.5655
482	0.5606
473	0.5569
464	0.5599
455	0.5676
446	0.5792
437	0.596
428	0.608
419	0.6156
410	0.6201
401	0.623
