Infrared Spectrum: 2-CYCLOHEXEN-1-ONE, 3,5,5-TRIMETHYL-
Formula: C9 H14 O
CAS: 78-59-1
State: VAPOR (15 MICROLITER AT 150 C)
Boiling point: 215 C
Class: COBLENTZ
Instrument: PERKIN-ELMER 180
Sampling: TRANSMISSION
Path length: 5 CM KBr CELL, CELL VOLUME: 80 CM^3
Resolution: 2-3 CM^-^1
Origin: PERKIN-ELMER CORP. (M. ZELLER)
1/CM	TRANSMITTANCE
399.628	0.492
408.736	0.533
417.844	0.576
426.951	0.636
436.059	0.7159
445.167	0.76
454.275	0.792
463.383	0.823
472.49	0.849
481.598	0.857
490.706	0.864
499.814	0.854
508.922	0.816
518.029	0.806
527.137	0.8569
536.245	0.894
545.353	0.887
554.461	0.909
563.568	0.926
572.676	0.926
581.784	0.929
590.892	0.928
600	0.93
609.107	0.929
618.215	0.929
627.323	0.93
636.431	0.929
645.539	0.93
654.646	0.928
663.754	0.926
672.862	0.93
681.97	0.926
691.078	0.924
700.185	0.926
709.293	0.924
718.401	0.925
727.509	0.918
736.617	0.916
745.724	0.915
754.832	0.903
763.94	0.899
773.048	0.901
782.156	0.896
791.264	0.888
800.371	0.877
809.479	0.839
818.587	0.819
827.695	0.852
836.803	0.873
845.91	0.852
855.018	0.84
864.126	0.856
873.234	0.877
882.342	0.87
891.449	0.8241
900.557	0.7551
909.665	0.807
918.773	0.8729
927.881	0.912
936.988	0.915
946.096	0.913
955.204	0.913
964.312	0.912
973.42	0.9
982.527	0.886
991.635	0.881
1000.74	0.874
1009.85	0.858
1018.96	0.854
1028.07	0.87
1037.17	0.883
1046.28	0.894
1055.39	0.899
1064.5	0.903
1073.61	0.9
1082.71	0.894
1091.82	0.881
1100.93	0.856
1110.04	0.824
1119.14	0.815
1128.25	0.82
1137.36	0.807
1146.47	0.8
1155.58	0.831
1164.68	0.854
1173.79	0.84
1182.9	0.83
1192.01	0.833
1201.11	0.818
1210.22	0.786
1219.33	0.735
1228.44	0.6271
1237.55	0.538
1246.65	0.583
1255.76	0.65
1264.87	0.551
1273.98	0.551
1283.08	0.6259
1292.19	0.682
1301.3	0.729
1310.41	0.762
1319.52	0.797
1328.62	0.796
1337.73	0.72
1346.84	0.5841
1355.95	0.496
1365.06	0.49
1374.16	0.508
1383.27	0.5459
1392.38	0.7219
1401.49	0.747
1410.59	0.715
1419.7	0.69
1428.81	0.675
1437.92	0.661
1447.03	0.65
1456.13	0.666
1465.24	0.705
1474.35	0.759
1483.46	0.814
1492.56	0.848
1501.67	0.854
1510.78	0.856
1519.89	0.852
1529	0.854
1538.1	0.847
1547.21	0.841
1556.32	0.832
1565.43	0.83
1574.53	0.827
1583.64	0.822
1592.75	0.813
1601.86	0.792
1610.97	0.76
1620.07	0.7011
1629.18	0.6091
1638.29	0.556
1647.4	0.6149
1656.5	0.667
1665.61	0.5521
1674.72	0.305
1683.83	0.0411
1692.94	0.003
1702.04	0.069
1711.15	0.2349
1720.26	0.4329
1729.37	0.602
1738.47	0.7119
1747.58	0.775
1756.69	0.801
1765.8	0.813
1774.91	0.83
1784.01	0.845
1793.12	0.849
1802.23	0.864
1811.34	0.877
1820.45	0.879
1829.55	0.883
1838.66	0.887
1847.77	0.89
1856.88	0.891
1865.98	0.892
1875.09	0.898
1884.2	0.896
1893.31	0.896
1902.42	0.896
1911.52	0.895
1920.63	0.892
1929.74	0.888
1938.85	0.891
1947.95	0.89
1957.06	0.89
1966.17	0.884
1975.28	0.891
1984.39	0.888
1993.49	0.887
2002.6	0.883
2011.71	0.8814
2020.82	0.882
2029.92	0.879
2039.03	0.8773
2048.14	0.878
2057.25	0.878
2066.36	0.877
2075.46	0.8736
2084.57	0.874
2093.68	0.878
2102.79	0.8728
2111.89	0.8754
2121	0.8704
2130.11	0.87
2139.22	0.8716
2148.33	0.869
2157.43	0.8703
2166.54	0.8698
2175.65	0.8742
2184.76	0.869
2193.87	0.871
2202.97	0.871
2212.08	0.87
2221.19	0.866
2230.3	0.8666
2239.4	0.8662
2248.51	0.8654
2257.62	0.867
2266.73	0.867
2275.84	0.865
2284.94	0.8606
2294.05	0.8561
2303.16	0.857
2312.27	0.8546
2321.37	0.8532
2330.48	0.8566
2339.59	0.858
2348.7	0.8516
2357.81	0.8477
2366.91	0.858
2376.02	0.8578
2385.13	0.861
2394.24	0.86
2403.34	0.858
2412.45	0.854
2421.56	0.857
2430.67	0.857
2439.78	0.8562
2448.88	0.8528
2457.99	0.85
2467.1	0.85
2476.21	0.8495
2485.31	0.849
2494.42	0.849
2503.53	0.8515
2512.64	0.849
2521.75	0.848
2530.85	0.8475
2539.96	0.847
2549.07	0.848
2558.18	0.847
2567.28	0.847
2576.39	0.847
2585.5	0.847
2594.61	0.8448
2603.72	0.8446
2612.82	0.847
2621.93	0.8461
2631.04	0.8441
2640.15	0.8423
2649.26	0.839
2658.36	0.84
2667.47	0.8394
2676.58	0.837
2685.69	0.8345
2694.79	0.8281
2703.9	0.8266
2713.01	0.8224
2722.12	0.8141
2731.23	0.8107
2740.33	0.8151
2749.44	0.8191
2758.55	0.8201
2767.66	0.8186
2776.76	0.8152
2785.87	0.7997
2794.98	0.7698
2804.09	0.7047
2813.2	0.6786
2822.3	0.6921
2831.41	0.6996
2840.52	0.66
2849.63	0.5747
2858.73	0.4031
2867.84	0.3675
2876.95	0.3623
2886.06	0.339
2895.17	0.3502
2904.27	0.3983
2913.38	0.4123
2922.49	0.3683
2931.6	0.2924
2940.7	0.182
2949.81	0.1101
2958.92	0.1979
2968.03	0.4333
2977.14	0.5741
2986.24	0.7184
2995.35	0.7472
3004.46	0.7667
3013.57	0.7469
3022.68	0.7083
3031.78	0.688
3040.89	0.7238
3050	0.7671
3059.11	0.777
3068.21	0.7797
3077.32	0.7814
3086.43	0.7872
3095.54	0.794
3104.65	0.7974
3113.75	0.798
3122.86	0.7937
3131.97	0.792
3141.08	0.7906
3150.18	0.793
3159.29	0.793
3168.4	0.791
3177.51	0.79
3186.62	0.788
3195.72	0.7898
3204.83	0.793
3213.94	0.7924
3223.05	0.7933
3232.15	0.7935
3241.26	0.793
3250.37	0.7934
3259.48	0.794
3268.59	0.792
3277.69	0.7927
3286.8	0.797
3295.91	0.797
3305.02	0.796
3314.12	0.7892
3323.23	0.7858
3332.34	0.785
3341.45	0.7796
3350.56	0.7687
3359.66	0.7602
3368.77	0.76
3377.88	0.7685
3386.99	0.7786
3396.09	0.7853
3405.2	0.788
3414.31	0.7904
3423.42	0.792
3432.53	0.7919
3441.63	0.79
3450.74	0.789
3459.85	0.786
3468.96	0.7884
3478.07	0.79
3487.17	0.789
3496.28	0.786
3505.39	0.7855
3514.5	0.789
3523.6	0.7872
3532.71	0.789
3541.82	0.7847
3550.93	0.7887
3560.04	0.7878
3569.14	0.786
3578.25	0.783
3587.36	0.7818
3596.47	0.784
3605.57	0.7791
3614.68	0.7753
3623.79	0.781
3632.9	0.7806
3642.01	0.78
3651.11	0.773
3660.22	0.776
3669.33	0.775
3678.44	0.779
3687.54	0.7726
3696.65	0.7748
3705.76	0.7729
3714.87	0.77
3723.98	0.7751
3733.08	0.772
3742.19	0.771
3751.3	0.7662
3760.41	0.772
3769.51	0.7669
3778.62	0.767
3787.73	0.768
3796.84	0.7686
3805.95	0.766
3815.05	0.762
3824.16	0.76
3833.27	0.762
3842.38	0.7609
3851.49	0.759
3860.59	0.76
3869.7	0.756
3878.81	0.7569
3887.92	0.757
3897.02	0.7547
3906.13	0.7522
3915.24	0.75
3924.35	0.7545
3933.46	0.755
3942.56	0.751
3951.67	0.754
3960.78	0.7564
3969.89	0.759
3978.99	0.7549
3988.1	0.7515
3997.21	0.751
4006.32	0.751
4015.43	0.75
