Infrared Spectrum: Alpha,Alpha'-AZO-DI-ISO-BUTYRONITRILE
Formula: C8 H12 N4
CAS: 78-67-1
State: SOLID (OIL MULL)
Class: COBLENTZ
Instrument: Not specified, most likely a prism, grating, or hybrid spectrometer.
Sampling: TRANSMISSION
Resolution: 4
Origin: WYANDOTTE CHEMICALS CORP., WYANDOTTE, MICHIGAN, USA
MICROMETERS	TRANSMITTANCE
2.035	0.778
2.07493	0.781
2.11487	0.783
2.1548	0.746
2.19473	0.706
2.23467	0.696
2.2746	0.706
2.31453	0.706
2.35446	0.718
2.3944	0.731
2.43433	0.756
2.47426	0.76
2.5142	0.771
2.55413	0.781
2.59406	0.795
2.634	0.801
2.67393	0.8
2.71386	0.8
2.75379	0.803
2.79373	0.798
2.83366	0.795
2.87359	0.78
2.91353	0.78
2.95346	0.761
2.99339	0.745
3.03333	0.71
3.07326	0.711
3.11319	0.711
3.15312	0.7
3.19306	0.683
3.23299	0.651
3.27292	0.586
3.31286	0.303
3.35279	0.038
3.39272	0.038
3.43266	0.038
3.47259	0.04
3.51252	0.056
3.55245	0.398
3.59239	0.631
3.63232	0.708
3.67225	0.716
3.71219	0.731
3.75212	0.748
3.79205	0.753
3.83199	0.77
3.87192	0.798
3.91185	0.818
3.95178	0.833
3.99172	0.861
4.03165	0.88
4.07158	0.863
4.11152	0.851
4.15145	0.868
4.19138	0.868
4.23132	0.853
4.27125	0.843
4.31118	0.876
4.35111	0.891
4.39105	0.905
4.43098	0.91
4.47091	0.908
4.51085	0.611
4.55078	0.86
4.59071	0.9
4.63065	0.92
4.67058	0.928
4.71051	0.93
4.75045	0.926
4.79038	0.936
4.83031	0.931
4.87024	0.928
4.91018	0.941
4.95011	0.951
4.99004	0.945
5.02998	0.946
5.06991	0.951
5.10984	0.958
5.14978	0.961
5.18971	0.961
5.22964	0.956
5.26957	0.961
5.30951	0.965
5.34944	0.961
5.38937	0.96
5.42931	0.956
5.46924	0.953
5.50917	0.955
5.54911	0.956
5.58904	0.965
5.62897	0.956
5.6689	0.953
5.70884	0.921
5.74877	0.923
5.7887	0.908
5.82864	0.905
5.86857	0.901
5.9085	0.896
5.94844	0.901
5.98837	0.905
6.0283	0.921
6.06823	0.916
6.10817	0.9
6.1481	0.898
6.18803	0.878
6.22797	0.886
6.2679	0.9
6.30783	0.921
6.34777	0.908
6.3877	0.921
6.42763	0.9
6.46756	0.901
6.5075	0.878
6.54743	0.876
6.58736	0.861
6.6273	0.798
6.66723	0.72
6.70716	0.466
6.7471	0.088
6.78703	0.04
6.82696	0.061
6.86689	0.091
6.90683	0.121
6.94676	0.463
6.98669	0.653
7.02663	0.73
7.06656	0.738
7.10649	0.728
7.14643	0.638
7.18636	0.276
7.22629	0.095
7.26623	0.226
7.30616	0.223
7.34609	0.638
7.38602	0.676
7.42596	0.7
7.46589	0.728
7.50582	0.74
7.54576	0.75
7.58569	0.748
7.62562	0.748
7.66556	0.755
7.70549	0.77
7.74542	0.773
7.78535	0.773
7.82529	0.766
7.86522	0.75
7.90515	0.736
7.94509	0.663
7.98502	0.616
8.02495	0.5
8.06489	0.298
8.10482	0.136
8.14475	0.166
8.18468	0.241
8.22462	0.308
8.26455	0.371
8.30448	0.43
8.34442	0.446
8.38435	0.418
8.42428	0.201
8.46422	0.041
8.50415	0.048
8.54408	0.158
8.58401	0.34
8.62395	0.48
8.66388	0.598
8.70381	0.67
8.74375	0.698
8.78368	0.715
8.82361	0.72
8.86355	0.741
8.90348	0.771
8.94341	0.776
8.98334	0.776
9.02328	0.786
9.06321	0.791
9.10314	0.801
9.14308	0.813
9.18301	0.813
9.22294	0.808
9.26288	0.821
9.30281	0.83
9.34274	0.831
9.38267	0.838
9.42261	0.833
9.46254	0.826
9.50247	0.831
9.54241	0.838
9.58234	0.838
9.62227	0.821
9.66221	0.816
9.70214	0.828
9.74207	0.788
9.78201	0.776
9.82194	0.84
9.86187	0.85
9.9018	0.841
9.94174	0.853
9.98167	0.853
10.0216	0.848
10.0615	0.843
10.1015	0.835
10.1414	0.826
10.1813	0.815
10.2213	0.798
10.2612	0.79
10.3011	0.786
10.3411	0.771
10.381	0.755
10.4209	0.743
10.4609	0.703
10.5008	0.551
10.5407	0.528
10.5807	0.681
10.6206	0.776
10.6605	0.79
10.7005	0.796
10.7404	0.83
10.7803	0.846
10.8203	0.858
10.8602	0.851
10.9001	0.846
10.9401	0.883
10.98	0.893
11.0199	0.901
11.0599	0.91
11.0998	0.91
11.1397	0.905
11.1797	0.903
11.2196	0.908
11.2595	0.911
11.2995	0.92
11.3394	0.923
11.3793	0.923
11.4193	0.916
11.4592	0.915
11.4991	0.908
11.5391	0.898
11.579	0.878
11.6189	0.838
11.6589	0.741
11.6988	0.646
11.7387	0.575
11.7787	0.601
11.8186	0.693
11.8585	0.798
11.8985	0.841
11.9384	0.873
11.9783	0.891
12.0183	0.901
12.0582	0.911
12.0981	0.916
12.1381	0.925
12.178	0.926
12.2179	0.928
12.2579	0.923
12.2978	0.931
12.3377	0.923
12.3777	0.933
12.4176	0.931
12.4575	0.926
12.4975	0.921
12.5374	0.93
12.5773	0.928
12.6172	0.925
12.6572	0.921
12.6971	0.921
12.737	0.921
12.777	0.923
12.8169	0.92
12.8568	0.915
12.8968	0.911
12.9367	0.908
12.9766	0.908
13.0166	0.915
13.0565	0.926
13.0964	0.928
13.1364	0.931
13.1763	0.931
13.2162	0.926
13.2562	0.925
13.2961	0.92
13.336	0.918
13.376	0.915
13.4159	0.906
13.4558	0.896
13.4958	0.888
13.5357	0.873
13.5756	0.87
13.6156	0.87
13.6555	0.87
13.6954	0.87
13.7354	0.866
13.7753	0.853
13.8152	0.848
13.8552	0.843
13.8951	0.851
13.935	0.87
13.975	0.871
14.0149	0.846
14.0548	0.776
14.0948	0.681
14.1347	0.566
14.1746	0.491
14.2146	0.483
14.2545	0.6
14.2944	0.69
14.3344	0.8
14.3743	0.861
14.4142	0.903
14.4542	0.921
14.4941	0.941
14.534	0.946
14.574	0.953
14.6139	0.955
14.6538	0.953
14.6938	0.951
14.7337	0.95
14.7736	0.945
14.8136	0.936
14.8535	0.933
14.8934	0.931
14.9334	0.931
14.9733	0.903
15.0132	0.87
15.0532	0.865
15.0931	0.885
15.133	0.911
15.173	0.925
15.2129	0.93
15.2528	0.93
15.2928	0.933
15.3327	0.923
15.3726	0.92
15.4126	0.911
15.4525	0.891
15.4924	0.888
15.5324	0.888
15.5723	0.881
15.6122	0.873
15.6522	0.866
15.6921	0.851
15.732	0.84
15.772	0.833
15.8119	0.82
15.8518	0.813
15.8918	0.803
15.9317	0.791
15.9716	0.783
