Infrared Spectrum: 3,7-DIMETHYL-3-OCTANOL
Formula: C10 H22 O
CAS: 78-69-3
Class: COBLENTZ
Instrument: Not specified, most likely a prism, grating, or hybrid spectrometer.
Sampling: TRANSMISSION
Path length: FILM
Resolution: 4
Origin: INFRACORD
MICROMETERS	TRANSMITTANCE
2.524	0.924
2.55948	0.925
2.59495	0.927
2.63043	0.937
2.66591	0.937
2.70138	0.922
2.73686	0.925
2.77234	0.911
2.80781	0.835
2.84329	0.716
2.87877	0.525
2.91424	0.314
2.94972	0.201
2.9852	0.162
3.02067	0.22
3.05615	0.332
3.09163	0.513
3.12711	0.644
3.16258	0.717
3.19806	0.771
3.23354	0.811
3.26901	0.829
3.30449	0.83
3.33997	0.782
3.37544	0.449
3.41092	0
3.4464	0
3.48187	0.014
3.51735	0.073
3.55283	0.192
3.5883	0.52
3.62378	0.754
3.65926	0.814
3.69473	0.845
3.73021	0.82
3.76569	0.855
3.80116	0.871
3.83664	0.881
3.87212	0.876
3.90759	0.886
3.94307	0.902
3.97855	0.914
4.01402	0.93
4.0495	0.932
4.08498	0.938
4.12045	0.944
4.15593	0.944
4.19141	0.953
4.22689	0.941
4.26236	0.94
4.29784	0.948
4.33332	0.957
4.36879	0.96
4.40427	0.959
4.43975	0.965
4.47522	0.975
4.5107	0.964
4.54618	0.966
4.58165	0.976
4.61713	0.966
4.65261	0.972
4.68808	0.977
4.72356	0.969
4.75904	0.971
4.79451	0.977
4.82999	0.967
4.86547	0.975
4.90094	0.981
4.93642	0.969
4.9719	0.971
5.00737	0.984
5.04285	0.978
5.07833	0.979
5.1138	0.969
5.14928	0.978
5.18476	0.969
5.22024	0.975
5.25571	0.973
5.29119	0.978
5.32667	0.979
5.36214	0.971
5.39762	0.969
5.4331	0.978
5.46857	0.965
5.50405	0.965
5.53953	0.967
5.575	0.971
5.61048	0.962
5.64596	0.956
5.68143	0.946
5.71691	0.946
5.75239	0.943
5.78786	0.947
5.82334	0.954
5.85882	0.956
5.89429	0.941
5.92977	0.94
5.96525	0.959
6.00072	0.945
6.0362	0.937
6.07168	0.931
6.10715	0.932
6.14263	0.925
6.17811	0.927
6.21358	0.918
6.24906	0.935
6.28454	0.935
6.32002	0.937
6.35549	0.943
6.39097	0.941
6.42645	0.943
6.46192	0.935
6.4974	0.935
6.53288	0.932
6.56835	0.921
6.60383	0.926
6.63931	0.915
6.67478	0.906
6.71026	0.896
6.74574	0.845
6.78121	0.812
6.81669	0.663
6.85217	0.432
6.88764	0.135
6.92312	0.156
6.9586	0.332
6.99407	0.478
7.02955	0.619
7.06503	0.673
7.1005	0.695
7.13598	0.644
7.17146	0.578
7.20693	0.539
7.24241	0.486
7.27789	0.323
7.31336	0.224
7.34884	0.233
7.38432	0.262
7.4198	0.459
7.45527	0.593
7.49075	0.608
7.52623	0.59
7.5617	0.544
7.59718	0.593
7.63266	0.64
7.66813	0.613
7.70361	0.577
7.73909	0.58
7.77456	0.612
7.81004	0.631
7.84552	0.634
7.88099	0.622
7.91647	0.601
7.95195	0.603
7.98742	0.647
8.0229	0.696
8.05838	0.665
8.09385	0.637
8.12933	0.678
8.16481	0.722
8.20028	0.728
8.23576	0.695
8.27124	0.654
8.30671	0.588
8.34219	0.563
8.37767	0.549
8.41315	0.534
8.44862	0.521
8.4841	0.499
8.51958	0.437
8.55505	0.398
8.59053	0.328
8.62601	0.316
8.66148	0.289
8.69696	0.266
8.73244	0.245
8.76791	0.275
8.80339	0.316
8.83887	0.418
8.87434	0.5
8.90982	0.588
8.9453	0.614
8.98077	0.59
9.01625	0.551
9.05173	0.588
9.0872	0.644
9.12268	0.693
9.15816	0.734
9.19363	0.735
9.22911	0.71
9.26459	0.684
9.30006	0.667
9.33554	0.666
9.37102	0.666
9.40649	0.66
9.44197	0.646
9.47745	0.651
9.51293	0.631
9.5484	0.59
9.58388	0.591
9.61936	0.612
9.65483	0.646
9.69031	0.671
9.72579	0.679
9.76126	0.673
9.79674	0.69
9.83222	0.689
9.86769	0.679
9.90317	0.676
9.93865	0.696
9.97412	0.698
10.0096	0.67
10.0451	0.634
10.0806	0.614
10.116	0.628
10.1515	0.664
10.187	0.666
10.2225	0.616
10.2579	0.556
10.2934	0.512
10.3289	0.5
10.3644	0.536
10.3998	0.62
10.4353	0.69
10.4708	0.714
10.5063	0.677
10.5418	0.631
10.5772	0.583
10.6127	0.536
10.6482	0.537
10.6837	0.58
10.7191	0.587
10.7546	0.562
10.7901	0.529
10.8256	0.492
10.861	0.501
10.8965	0.53
10.932	0.575
10.9675	0.604
11.0029	0.577
11.0384	0.527
11.0739	0.437
11.1094	0.398
11.1449	0.41
11.1803	0.438
11.2158	0.466
11.2513	0.538
11.2868	0.645
11.3222	0.73
11.3577	0.793
11.3932	0.817
11.4287	0.869
11.4641	0.879
11.4996	0.894
11.5351	0.896
11.5706	0.905
11.6061	0.893
11.6415	0.912
11.677	0.892
11.7125	0.89
11.748	0.877
11.7834	0.868
11.8189	0.851
11.8544	0.83
11.8899	0.806
11.9253	0.794
11.9608	0.787
11.9963	0.795
12.0318	0.817
12.0673	0.842
12.1027	0.845
12.1382	0.855
12.1737	0.86
12.2092	0.843
12.2446	0.82
12.2801	0.799
12.3156	0.812
12.3511	0.829
12.3865	0.848
12.422	0.854
12.4575	0.856
12.493	0.856
12.5285	0.857
12.5639	0.854
12.5994	0.846
12.6349	0.835
12.6704	0.82
12.7058	0.803
12.7413	0.784
12.7768	0.788
12.8123	0.795
12.8477	0.804
12.8832	0.816
12.9187	0.841
12.9542	0.835
12.9896	0.842
13.0251	0.842
13.0606	0.835
13.0961	0.816
13.1316	0.814
13.167	0.811
13.2025	0.804
13.238	0.793
13.2735	0.794
13.3089	0.765
13.3444	0.755
13.3799	0.741
13.4154	0.74
13.4508	0.731
13.4863	0.724
13.5218	0.724
13.5573	0.718
13.5928	0.722
13.6282	0.715
13.6637	0.725
13.6992	0.731
13.7347	0.727
13.7701	0.729
13.8056	0.739
13.8411	0.742
13.8766	0.734
13.912	0.762
13.9475	0.759
13.983	0.76
14.0185	0.756
14.054	0.754
14.0894	0.75
14.1249	0.756
14.1604	0.75
14.1959	0.746
14.2313	0.743
14.2668	0.727
14.3023	0.731
14.3378	0.723
14.3732	0.71
14.4087	0.71
14.4442	0.714
14.4797	0.711
14.5152	0.704
14.5506	0.692
14.5861	0.691
14.6216	0.684
14.6571	0.671
14.6925	0.673
14.728	0.661
14.7635	0.659
14.799	0.659
14.8344	0.658
14.8699	0.652
14.9054	0.642
14.9409	0.633
14.9763	0.632
