Infrared Spectrum: 2-CHLOROBUTANE
Formula: C4 H9 Cl
CAS: 78-86-4
Class: COBLENTZ
Instrument: Not specified, most likely a prism, grating, or hybrid spectrometer.
Sampling: TRANSMISSION
Path length: 0.0025 CM
Resolution: 4
Origin: W.T. BOLLETER
MICROMETERS	TRANSMITTANCE
14.525	0.195
14.595	0.169
14.665	0.131
14.7351	0.085
14.8051	0.053
14.8751	0.012
14.9451	0.007
15.0151	0.012
15.0852	0.024
15.1552	0.076
15.2252	0.133
15.2952	0.197
15.3653	0.25
15.4353	0.29
15.5053	0.302
15.5753	0.275
15.6453	0.217
15.7154	0.147
15.7854	0.078
15.8554	0.051
15.9254	0.017
15.9954	0.014
16.0655	0.016
16.1355	0.014
16.2055	0.01
16.2755	0.008
16.3455	0.007
16.4156	0.007
16.4856	0.008
16.5556	0.008
16.6256	0.008
16.6956	0.012
16.7657	0.023
16.8357	0.055
16.9057	0.085
16.9757	0.129
17.0458	0.22
17.1158	0.277
17.1858	0.348
17.2558	0.405
17.3258	0.451
17.3959	0.491
17.4659	0.526
17.5359	0.564
17.6059	0.597
17.6759	0.615
17.746	0.633
17.816	0.642
17.886	0.656
17.956	0.681
18.026	0.701
18.0961	0.711
18.1661	0.718
18.2361	0.725
18.3061	0.725
18.3761	0.722
18.4462	0.708
18.5162	0.699
18.5862	0.674
18.6562	0.64
18.7263	0.59
18.7963	0.51
18.8663	0.428
18.9363	0.338
19.0063	0.27
19.0764	0.241
19.1464	0.263
19.2164	0.354
19.2864	0.448
19.3564	0.521
19.4265	0.601
19.4965	0.645
19.5665	0.701
19.6365	0.717
19.7065	0.736
19.7766	0.75
19.8466	0.754
19.9166	0.765
19.9866	0.768
20.0566	0.768
20.1267	0.766
20.1967	0.766
20.2667	0.768
20.3367	0.766
20.4068	0.759
20.4768	0.756
20.5468	0.75
20.6168	0.747
20.6868	0.734
20.7569	0.729
20.8269	0.722
20.8969	0.711
20.9669	0.697
21.0369	0.683
21.107	0.667
21.177	0.649
21.247	0.624
21.317	0.599
21.387	0.572
21.4571	0.544
21.5271	0.51
21.5971	0.5
21.6671	0.5
21.7371	0.507
21.8072	0.528
21.8772	0.553
21.9472	0.587
22.0172	0.613
22.0873	0.637
22.1573	0.656
22.2273	0.685
22.2973	0.699
22.3673	0.706
22.4374	0.722
22.5074	0.727
22.5774	0.733
22.6474	0.74
22.7174	0.747
22.7875	0.75
22.8575	0.752
22.9275	0.754
22.9975	0.754
23.0675	0.752
23.1376	0.749
23.2076	0.741
23.2776	0.727
23.3476	0.715
23.4176	0.701
23.4877	0.683
23.5577	0.653
23.6277	0.635
23.6977	0.615
23.7678	0.612
23.8378	0.604
23.9078	0.613
23.9778	0.628
24.0478	0.642
24.1179	0.663
24.1879	0.679
24.2579	0.69
24.3279	0.697
24.3979	0.701
24.468	0.701
24.538	0.699
24.608	0.693
24.678	0.685
24.748	0.67
24.8181	0.672
24.8881	0.676
24.9581	0.679
25.0281	0.67
25.0981	0.653
25.1682	0.628
25.2382	0.603
25.3082	0.574
25.3782	0.53
25.4483	0.483
25.5183	0.421
25.5883	0.364
25.6583	0.329
25.7283	0.282
25.7984	0.254
25.8684	0.241
25.9384	0.233
26.0084	0.234
26.0784	0.24
26.1485	0.252
26.2185	0.259
26.2885	0.266
26.3585	0.268
26.4285	0.259
26.4986	0.247
26.5686	0.238
26.6386	0.231
26.7086	0.234
26.7786	0.252
26.8487	0.286
26.9187	0.327
26.9887	0.389
27.0587	0.45
27.1288	0.501
27.1988	0.562
27.2688	0.61
27.3388	0.653
27.4088	0.699
27.4789	0.715
27.5489	0.745
27.6189	0.768
27.6889	0.795
27.7589	0.809
27.829	0.82
27.899	0.838
27.969	0.843
28.039	0.846
28.109	0.848
28.1791	0.852
28.2491	0.854
28.3191	0.852
28.3891	0.848
28.4591	0.845
28.5292	0.839
28.5992	0.832
28.6692	0.825
28.7392	0.813
28.8093	0.795
28.8793	0.758
28.9493	0.749
29.0193	0.734
29.0893	0.711
29.1594	0.69
29.2294	0.667
29.2994	0.642
29.3694	0.615
29.4394	0.599
29.5095	0.574
29.5795	0.558
29.6495	0.537
29.7195	0.528
29.7895	0.523
29.8596	0.516
29.9296	0.519
29.9996	0.519
30.0696	0.514
30.1396	0.508
30.2097	0.5
30.2797	0.482
30.3497	0.464
30.4197	0.448
30.4898	0.437
30.5598	0.414
30.6298	0.411
30.6998	0.414
30.7698	0.43
30.8399	0.451
30.9099	0.485
30.9799	0.512
31.0499	0.553
31.1199	0.601
31.19	0.631
31.26	0.663
31.33	0.702
31.4	0.731
31.47	0.747
31.5401	0.758
31.6101	0.772
31.6801	0.784
31.7501	0.79
31.8201	0.798
31.8902	0.804
31.9602	0.809
32.0302	0.816
32.1002	0.822
32.1703	0.827
32.2403	0.829
32.3103	0.827
32.3803	0.829
32.4503	0.829
32.5204	0.829
32.5904	0.829
32.6604	0.832
32.7304	0.841
32.8004	0.845
32.8705	0.854
32.9405	0.857
33.0105	0.861
33.0805	0.855
33.1505	0.85
33.2206	0.841
33.2906	0.832
33.3606	0.836
33.4306	0.834
33.5007	0.839
33.5707	0.843
33.6407	0.845
33.7107	0.841
33.7807	0.845
33.8508	0.845
33.9208	0.841
33.9908	0.838
34.0608	0.834
34.1308	0.83
34.2009	0.83
34.2709	0.829
34.3409	0.825
34.4109	0.823
34.4809	0.816
34.551	0.809
34.621	0.804
34.691	0.793
34.761	0.786
34.831	0.777
34.9011	0.772
34.9711	0.77
35.0411	0.763
35.1111	0.761
35.1812	0.759
35.2512	0.758
35.3212	0.756
35.3912	0.752
35.4612	0.745
35.5313	0.74
35.6013	0.733
35.6713	0.724
35.7413	0.724
35.8113	0.715
35.8814	0.704
35.9514	0.699
36.0214	0.693
36.0914	0.688
36.1614	0.677
36.2315	0.67
36.3015	0.665
36.3715	0.661
36.4415	0.661
36.5115	0.654
36.5816	0.647
36.6516	0.64
36.7216	0.631
36.7916	0.622
36.8617	0.613
36.9317	0.604
37.0017	0.601
37.0717	0.599
37.1417	0.594
37.2118	0.59
37.2818	0.588
37.3518	0.59
37.4218	0.592
37.4918	0.59
37.5619	0.587
37.6319	0.583
37.7019	0.583
37.7719	0.58
37.8419	0.578
37.912	0.576
37.982	0.572
