Infrared Spectrum: 2-BUTANOL
Formula: C4 H10 O
CAS: 78-92-2
State: SOLUTION (10% IN CCl4 FOR 3800-1330, 10% IN CS2 FOR 1330-400 CM^-^1) VS. SOLVENT
Class: COBLENTZ III
Instrument: DOW KBr FOREPRISM-GRATING
Instrument parameters: BLAZED AT 3.5, 12.0, 20.0 MICRON, CHANGED AT 5.0, 7.5, 14.9 MICRON
Sampling: TRANSMISSION
Path length: 0.011, 0.010 CM
Resolution: 4
Origin: DOW CHEMICAL COMPANY
1/CM	TRANSMITTANCE
400	0.942
408.696	0.946
417.391	0.945
426.087	0.93
434.783	0.927
443.478	0.93
452.174	0.919
460.87	0.874
469.565	0.872
478.261	0.887
486.956	0.882
495.652	0.834
504.348	0.765
513.043	0.851
521.739	0.863
530.435	0.859
539.13	0.852
547.826	0.844
556.522	0.836
565.217	0.827
573.913	0.815
582.609	0.8
591.304	0.792
600	0.795
608.695	0.792
617.391	0.79
626.087	0.792
634.782	0.792
643.478	0.795
652.174	0.799
660.869	0.811
669.565	0.818
678.261	0.818
686.956	0.834
695.652	0.851
704.348	0.868
713.043	0.883
721.739	0.904
730.435	0.923
739.13	0.941
747.826	0.954
756.521	0.965
765.217	0.964
773.913	0.893
782.608	0.862
791.304	0.956
800	0.989
808.695	0.998
817.391	0.92
826.087	0.821
834.782	1.006
843.478	1.046
852.174	1.054
860.869	1.031
869.565	1.023
878.261	1.008
886.956	0.979
895.652	0.872
904.347	0.469
913.043	0.113
921.739	0.657
930.434	0.913
939.13	0.942
947.826	0.922
956.521	0.851
965.217	0.546
973.913	0.587
982.608	0.435
991.304	0.122
1000	0.375
1008.7	0.651
1017.39	0.621
1026.09	0.415
1034.78	0.345
1043.48	0.741
1052.17	0.826
1060.87	0.818
1069.56	0.707
1078.26	0.601
1086.96	0.524
1095.65	0.345
1104.35	0.271
1113.04	0.234
1121.74	0.267
1130.43	0.318
1139.13	0.364
1147.83	0.333
1156.52	0.386
1165.22	0.521
1173.91	0.821
1182.61	0.87
1191.3	0.871
1200	0.867
1208.7	0.851
1217.39	0.829
1226.09	0.758
1234.78	0.643
1243.48	0.525
1252.17	0.539
1260.87	0.595
1269.56	0.622
1278.26	0.601
1286.96	0.521
1295.65	0.486
1304.35	0.506
1313.04	0.5
1321.74	0.479
1330.43	0.515
1339.13	0.543
1347.83	0.532
1356.52	0.516
1365.22	0.49
1373.91	0.25
1382.61	0.174
1391.3	0.426
1400	0.446
1408.69	0.442
1417.39	0.467
1426.09	0.51
1434.78	0.539
1443.48	0.498
1452.17	0.312
1460.87	0.192
1469.56	0.211
1478.26	0.56
1486.96	0.745
1495.65	0.833
1504.35	0.877
1513.04	0.911
1521.74	0.941
1530.43	0.961
1539.13	0.979
1547.83	0.984
1556.52	0.978
1565.22	0.972
1573.91	0.967
1582.61	0.968
1591.3	0.967
1600	0.96
1608.69	0.952
1617.39	0.942
1626.09	0.935
1634.78	0.937
1643.48	0.942
1652.17	0.946
1660.87	0.948
1669.56	0.948
1678.26	0.952
1686.96	0.953
1695.65	0.954
1704.35	0.95
1713.04	0.937
1721.74	0.922
1730.43	0.92
1739.13	0.938
1747.83	0.961
1756.52	0.975
1765.22	0.982
1773.91	0.982
1782.61	0.982
1791.3	0.984
1800	0.982
1808.69	0.982
1817.39	0.984
1826.09	0.987
1834.78	0.991
1843.48	0.994
1852.17	0.994
1860.87	0.994
1869.56	0.989
1878.26	0.983
1886.96	0.983
1895.65	0.978
1904.35	0.978
1913.04	0.984
1921.74	0.989
1930.43	0.986
1939.13	0.984
1947.82	0.987
1956.52	0.99
1965.22	0.99
1973.91	0.99
1982.61	0.99
1991.3	0.99
2000	0.989
2008.69	0.989
2017.39	0.99
2026.09	0.991
2034.78	0.991
2043.48	0.991
2052.17	0.991
2060.87	0.993
2069.56	0.993
2078.26	0.991
2086.96	0.991
2095.65	0.99
2104.35	0.993
2113.04	0.991
2121.74	0.993
2130.43	0.9901
2139.13	0.989
2147.82	0.986
2156.52	0.987
2165.22	0.989
2173.91	0.9891
2182.61	0.9873
2191.3	0.986
2200	0.986
2208.69	0.987
2217.39	0.9862
2226.09	0.986
2234.78	0.9838
2243.48	0.987
2252.17	0.989
2260.87	0.987
2269.56	0.986
2278.26	0.9822
2286.96	0.983
2295.65	0.983
2304.35	0.9805
2313.04	0.9765
2321.74	0.9695
2330.43	0.967
2339.13	0.965
2347.82	0.965
2356.52	0.965
2365.22	0.969
2373.91	0.969
2382.61	0.965
2391.3	0.9617
2400	0.961
2408.69	0.9593
2417.39	0.959
2426.09	0.959
2434.78	0.959
2443.48	0.959
2452.17	0.959
2460.87	0.957
2469.56	0.957
2478.26	0.9534
2486.95	0.9484
2495.65	0.9454
2504.35	0.945
2513.04	0.942
2521.74	0.9384
2530.43	0.9359
2539.13	0.933
2547.82	0.927
2556.52	0.923
2565.22	0.9144
2573.91	0.906
2582.61	0.901
2591.3	0.9
2600	0.897
2608.69	0.892
2617.39	0.8895
2626.09	0.8825
2634.78	0.8686
2643.48	0.864
2652.17	0.864
2660.87	0.863
2669.56	0.863
2678.26	0.862
2686.95	0.859
2695.65	0.857
2704.35	0.8498
2713.04	0.8364
2721.74	0.826
2730.43	0.826
2739.13	0.8318
2747.82	0.836
2756.52	0.833
2765.22	0.8256
2773.91	0.8169
2782.61	0.8026
2791.3	0.777
2800	0.7407
2808.69	0.7061
2817.39	0.6588
2826.09	0.6009
2834.78	0.5335
2843.48	0.4185
2852.17	0.3287
2860.87	0.2511
2869.56	0.1674
2878.26	0.092
2886.95	0.1848
2895.65	0.2063
2904.35	0.1905
2913.04	0.1177
2921.74	0.0498
2930.43	0.05
2939.13	0.0723
2947.82	0.172
2956.52	0.108
2965.22	0.01
2973.91	0.0137
2982.61	0.0454
2991.3	0.3045
3000	0.4669
3008.69	0.6532
3017.39	0.7468
3026.08	0.7974
3034.78	0.8291
3043.48	0.8342
3052.17	0.841
3060.87	0.8409
3069.56	0.8358
3078.26	0.8328
3086.95	0.8288
3095.65	0.8219
3104.35	0.812
3113.04	0.7997
3121.74	0.7888
3130.43	0.7708
3139.13	0.7517
3147.82	0.725
3156.52	0.7039
3165.22	0.674
3173.91	0.6469
3182.61	0.6159
3191.3	0.588
3200	0.5491
3208.69	0.5151
3217.39	0.4871
3226.08	0.4461
3234.78	0.4133
3243.48	0.3743
3252.17	0.3375
3260.87	0.2934
3269.56	0.2547
3278.26	0.2292
3286.95	0.2006
3295.65	0.1703
3304.35	0.1504
3313.04	0.1312
3321.74	0.1127
3330.43	0.1011
3339.13	0.095
3347.82	0.092
3356.52	0.094
3365.22	0.0959
3373.91	0.101
3382.61	0.1068
3391.3	0.1157
3400	0.1248
3408.69	0.1358
3417.39	0.1524
3426.08	0.1644
3434.78	0.1764
3443.48	0.2005
3452.17	0.2161
3460.87	0.2351
3469.56	0.2589
3478.26	0.276
3486.95	0.3125
3495.65	0.3442
3504.35	0.3847
3513.04	0.4222
3521.74	0.475
3530.43	0.52
3539.13	0.5911
3547.82	0.644
3556.52	0.6962
3565.21	0.7451
3573.91	0.8008
3582.61	0.8283
3591.3	0.8367
3600	0.8194
3608.69	0.7683
3617.39	0.6938
3626.08	0.6199
3634.78	0.6191
3643.48	0.7742
3652.17	0.9032
3660.87	0.9306
3669.56	0.931
3678.26	0.922
3686.95	0.9351
3695.65	0.9582
3704.35	0.9767
3713.04	0.983
3721.74	0.986
3730.43	0.987
3739.13	0.986
3747.82	0.987
3756.52	0.989
3765.21	0.991
3773.91	0.991
3782.61	0.991
3791.3	0.994
