Infrared Spectrum: 9,10-DIMETHYLANTHRACENE
Formula: C16 H14
CAS: 781-43-1
State: SOLID (KBr PELLET)
Melting point: 180-181 C
Class: COBLENTZ
Instrument: Not specified, most likely a prism, grating, or hybrid spectrometer.
Sampling: TRANSMISSION
Resolution: 4
Origin: UNION CARBIDE CORPORATION (CARBON PRODUCTS DIVISION)
MICROMETERS	TRANSMITTANCE
2.013	0.292
2.04616	0.306
2.07933	0.309
2.11249	0.318
2.14565	0.321
2.17882	0.324
2.21198	0.326
2.24514	0.326
2.27831	0.326
2.31147	0.326
2.34463	0.328
2.3778	0.328
2.41096	0.328
2.44412	0.328
2.47728	0.328
2.51045	0.329
2.54361	0.328
2.57677	0.328
2.60994	0.329
2.6431	0.33
2.67626	0.33
2.70943	0.33
2.74259	0.332
2.77575	0.332
2.80892	0.332
2.84208	0.332
2.87524	0.333
2.90841	0.332
2.94157	0.332
2.97473	0.334
3.0079	0.338
3.04106	0.345
3.07422	0.361
3.10739	0.366
3.14055	0.368
3.17371	0.37
3.20687	0.372
3.24004	0.352
3.2732	0.332
3.30636	0.333
3.33953	0.338
3.37269	0.346
3.40585	0.345
3.43902	0.342
3.47218	0.342
3.50534	0.345
3.53851	0.357
3.57167	0.365
3.60483	0.377
3.638	0.385
3.67116	0.392
3.70432	0.402
3.73749	0.41
3.77065	0.42
3.80381	0.426
3.83698	0.429
3.87014	0.441
3.9033	0.456
3.93647	0.46
3.96963	0.465
4.00279	0.474
4.03595	0.477
4.06912	0.481
4.10228	0.484
4.13544	0.496
4.16861	0.5
4.20177	0.501
4.23493	0.5
4.2681	0.5
4.30126	0.5
4.33442	0.501
4.36759	0.502
4.40075	0.508
4.43391	0.509
4.46708	0.512
4.50024	0.517
4.5334	0.521
4.56657	0.528
4.59973	0.532
4.63289	0.54
4.66606	0.549
4.69922	0.554
4.73238	0.56
4.76554	0.566
4.79871	0.577
4.83187	0.581
4.86503	0.589
4.8982	0.598
4.93136	0.604
4.96452	0.612
4.99769	0.614
5.03085	0.616
5.06401	0.616
5.09718	0.616
5.13034	0.614
5.1635	0.582
5.19667	0.592
5.22983	0.594
5.26299	0.597
5.29616	0.613
5.32932	0.622
5.36248	0.632
5.39565	0.638
5.42881	0.645
5.46197	0.649
5.49514	0.637
5.5283	0.632
5.56146	0.629
5.59462	0.642
5.62779	0.652
5.66095	0.672
5.69411	0.672
5.72728	0.672
5.76044	0.676
5.7936	0.674
5.82677	0.674
5.85993	0.65
5.89309	0.641
5.92626	0.645
5.95942	0.65
5.99258	0.654
6.02575	0.66
6.05891	0.673
6.09207	0.669
6.12524	0.626
6.1584	0.44
6.19156	0.61
6.22473	0.622
6.25789	0.632
6.29105	0.669
6.32422	0.674
6.35738	0.681
6.39054	0.681
6.4237	0.684
6.45687	0.682
6.49003	0.674
6.52319	0.62
6.55636	0.609
6.58952	0.628
6.62268	0.626
6.65585	0.626
6.68901	0.626
6.72217	0.626
6.75534	0.63
6.7885	0.632
6.82166	0.634
6.85483	0.633
6.88799	0.6
6.92115	0.416
6.95432	0.514
6.98748	0.529
7.02064	0.553
7.05381	0.58
7.08697	0.6
7.12013	0.62
7.15329	0.604
7.18646	0.461
7.21962	0.39
7.25278	0.422
7.28595	0.456
7.31911	0.33
7.35227	0.484
7.38544	0.556
7.4186	0.624
7.45176	0.653
7.48493	0.676
7.51809	0.682
7.55125	0.682
7.58442	0.686
7.61758	0.694
7.65074	0.713
7.68391	0.718
7.71707	0.724
7.75023	0.726
7.7834	0.724
7.81656	0.725
7.84972	0.726
7.88289	0.742
7.91605	0.76
7.94921	0.766
7.98237	0.772
8.01554	0.773
8.0487	0.778
8.08186	0.78
8.11503	0.78
8.14819	0.78
8.18135	0.778
8.21452	0.78
8.24768	0.781
8.28084	0.782
8.31401	0.79
8.34717	0.798
8.38033	0.797
8.4135	0.753
8.44666	0.74
8.47982	0.742
8.51299	0.765
8.54615	0.76
8.57931	0.744
8.61248	0.742
8.64564	0.764
8.6788	0.769
8.71196	0.788
8.74513	0.801
8.77829	0.809
8.81145	0.812
8.84462	0.818
8.87778	0.82
8.91094	0.821
8.94411	0.824
8.97727	0.825
9.01043	0.826
9.0436	0.829
9.07676	0.828
9.10992	0.828
9.14309	0.829
9.17625	0.828
9.20941	0.826
9.24258	0.829
9.27574	0.828
9.3089	0.829
9.34207	0.825
9.37523	0.814
9.40839	0.814
9.44156	0.822
9.47472	0.824
9.50788	0.829
9.54104	0.833
9.57421	0.838
9.60737	0.841
9.64053	0.84
9.6737	0.841
9.70686	0.772
9.74002	0.53
9.77319	0.636
9.80635	0.761
9.83951	0.79
9.87268	0.812
9.90584	0.824
9.939	0.826
9.97217	0.825
10.0053	0.809
10.0385	0.77
10.0717	0.733
10.1048	0.725
10.138	0.729
10.1711	0.762
10.2043	0.789
10.2375	0.806
10.2706	0.817
10.3038	0.824
10.337	0.832
10.3701	0.841
10.4033	0.852
10.4365	0.854
10.4696	0.853
10.5028	0.841
10.5359	0.828
10.5691	0.845
10.6023	0.856
10.6354	0.86
10.6686	0.862
10.7018	0.865
10.7349	0.866
10.7681	0.87
10.8012	0.872
10.8344	0.876
10.8676	0.88
10.9007	0.881
10.9339	0.885
10.9671	0.888
11.0002	0.888
11.0334	0.889
11.0666	0.888
11.0997	0.888
11.1329	0.888
11.166	0.889
11.1992	0.89
11.2324	0.89
11.2655	0.889
11.2987	0.888
11.3319	0.881
11.365	0.81
11.3982	0.829
11.4313	0.86
11.4645	0.877
11.4977	0.885
11.5308	0.894
11.564	0.896
11.5972	0.897
11.6303	0.9
11.6635	0.904
11.6967	0.906
11.7298	0.909
11.763	0.908
11.7961	0.885
11.8293	0.841
11.8625	0.86
11.8956	0.881
11.9288	0.885
11.962	0.865
11.9951	0.882
12.0283	0.902
12.0614	0.912
12.0946	0.912
12.1278	0.91
12.1609	0.908
12.1941	0.89
12.2273	0.853
12.2604	0.81
12.2936	0.83
12.3268	0.873
12.3599	0.9
12.3931	0.909
12.4262	0.913
12.4594	0.918
12.4926	0.921
12.5257	0.921
12.5589	0.924
12.5921	0.924
12.6252	0.928
12.6584	0.929
12.6915	0.929
12.7247	0.928
12.7579	0.926
12.791	0.926
12.8242	0.92
12.8574	0.89
12.8905	0.856
12.9237	0.864
12.9569	0.869
12.99	0.858
13.0232	0.814
13.0563	0.645
13.0895	0.592
13.1227	0.593
13.1558	0.597
13.189	0.549
13.2222	0.377
13.2553	0.152
13.2885	0.07
13.3216	0.056
13.3548	0.061
13.388	0.077
13.4211	0.064
13.4543	0.042
13.4875	0.038
13.5206	0.101
13.5538	0.216
13.587	0.322
13.6201	0.352
13.6533	0.337
13.6864	0.329
13.7196	0.392
13.7528	0.521
13.7859	0.59
13.8191	0.649
13.8523	0.673
13.8854	0.693
13.9186	0.706
13.9517	0.726
13.9849	0.732
14.0181	0.74
14.0512	0.748
14.0844	0.756
14.1176	0.758
14.1507	0.76
14.1839	0.762
14.2171	0.765
14.2502	0.768
14.2834	0.769
14.3165	0.769
14.3497	0.768
14.3829	0.769
14.416	0.766
14.4492	0.766
14.4824	0.764
14.5155	0.762
14.5487	0.76
14.5819	0.76
14.615	0.761
14.6482	0.76
14.6813	0.752
14.7145	0.754
14.7477	0.753
14.7808	0.752
14.814	0.75
14.8472	0.748
14.8803	0.744
14.9135	0.74
14.9466	0.71
14.9798	0.633
15.013	0.622
15.0461	0.686
