Infrared Spectrum: 1,1,1-Trichloro-2-(2-chlorophenyl)-2-(4-chlorophenyl)ethane
Formula: C14 H9 Cl5
CAS: 789-02-6
State: SOLUTION (10% CCl4 FOR 3800-1340, 10% CS2 FOR 1340-400 CM^-^1) VS SOLVENT
Class: COBLENTZ III
Instrument: DOW KBr FOREPRISM-GRATING
Instrument parameters: BLAZED AT 3.5, 12.0, 20.0 MICRON AND CHANGED AT 5.0, 7.5, 14.9 MICRON
Sampling: TRANSMISSION
Path length: 0.011 CM, 0.011 CM
Resolution: 2
Origin: DOW CHEMICAL COMPANY
1/CM	TRANSMITTANCE
3800	0.9766
3791	0.977
3782	0.9775
3773	0.9781
3764	0.9786
3755	0.9786
3746	0.9785
3737	0.9784
3728	0.9782
3719	0.9775
3710	0.9771
3701	0.9765
3692	0.976
3683	0.9757
3674	0.9756
3665	0.9754
3656	0.9752
3647	0.975
3638	0.9748
3629	0.9746
3620	0.9745
3611	0.9742
3602	0.974
3593	0.9736
3584	0.9734
3575	0.9732
3566	0.9736
3557	0.974
3548	0.9745
3539	0.9758
3530	0.9773
3521	0.9787
3512	0.9804
3503	0.982
3494	0.9836
3485	0.9851
3476	0.9866
3467	0.9881
3458	0.9901
3449	0.9921
3440	0.994
3431	0.9956
3422	0.9964
3413	0.9967
3404	0.9964
3395	0.9958
3386	0.9948
3377	0.9936
3368	0.9924
3359	0.9911
3350	0.9898
3341	0.9885
3332	0.9875
3323	0.9866
3314	0.9858
3305	0.9853
3296	0.9848
3287	0.9843
3278	0.9838
3269	0.9836
3260	0.9834
3251	0.9831
3242	0.9827
3233	0.9823
3224	0.982
3215	0.9817
3206	0.9815
3197	0.9812
3188	0.981
3179	0.9801
3170	0.9789
3161	0.9777
3152	0.9767
3143	0.9732
3134	0.9741
3125	0.9744
3116	0.9721
3107	0.9637
3098	0.9488
3089	0.938
3080	0.899
3071	0.872
3062	0.8739
3053	0.9166
3044	0.9343
3035	0.9332
3026	0.9443
3017	0.9557
3008	0.9664
2999	0.9681
2990	0.9668
2981	0.9659
2972	0.9655
2963	0.9618
2954	0.9336
2945	0.9375
2936	0.9456
2927	0.9538
2918	0.9617
2909	0.9675
2900	0.9718
2891	0.9725
2882	0.9732
2873	0.974
2864	0.9749
2855	0.9758
2846	0.9767
2837	0.9778
2828	0.979
2819	0.9801
2810	0.9804
2801	0.9806
2792	0.9809
2783	0.9811
2774	0.9811
2765	0.9811
2756	0.9811
2747	0.9811
2738	0.9807
2729	0.9803
2720	0.98
2711	0.9796
2702	0.9792
2693	0.9786
2684	0.9781
2675	0.9775
2666	0.977
2657	0.9763
2648	0.9757
2639	0.975
2630	0.9745
2621	0.9739
2612	0.9734
2603	0.9728
2594	0.9723
2585	0.9717
2576	0.9713
2567	0.9708
2558	0.9703
2549	0.97
2540	0.9698
2531	0.9696
2522	0.9694
2513	0.9692
2504	0.9689
2495	0.9687
2486	0.9687
2477	0.9688
2468	0.9688
2459	0.9686
2450	0.9684
2441	0.9682
2432	0.9683
2423	0.9684
2414	0.9688
2405	0.9691
2396	0.9693
2387	0.9697
2378	0.9715
2369	0.9739
2360	0.9757
2351	0.9752
2342	0.9743
2333	0.9749
2324	0.9752
2315	0.9728
2306	0.9716
2297	0.9709
2288	0.9703
2279	0.9701
2270	0.9699
2261	0.9697
2252	0.9696
2243	0.9698
2234	0.9699
2225	0.9701
2216	0.9703
2207	0.9705
2198	0.9711
2189	0.9716
2180	0.9721
2171	0.9727
2162	0.9734
2153	0.9739
2144	0.9746
2135	0.9751
2126	0.9758
2117	0.9761
2108	0.9766
2099	0.9768
2090	0.9771
2081	0.9773
2072	0.9771
2063	0.9762
2054	0.9747
2045	0.9732
2036	0.9732
2027	0.9743
2018	0.9754
2009	0.9754
2000	0.9721
1991	0.964
1982	0.974
1973	0.9736
1964	0.9709
1955	0.9445
1946	0.9575
1937	0.9646
1928	0.9596
1919	0.938
1910	0.9571
1901	0.9225
1892	0.9068
1883	0.9438
1874	0.9586
1865	0.9647
1856	0.9666
1847	0.9662
1838	0.9595
1829	0.96
1820	0.963
1811	0.9612
1802	0.9481
1793	0.9594
1784	0.9638
1775	0.9571
1766	0.9553
1757	0.9571
1748	0.961
1739	0.9633
1730	0.9637
1721	0.9642
1712	0.9636
1703	0.9634
1694	0.9618
1685	0.9571
1676	0.9568
1667	0.9541
1658	0.9507
1649	0.9421
1640	0.9263
1631	0.9361
1622	0.9364
1613	0.9321
1604	0.921
1595	0.7056
1586	0.9012
1577	0.9113
1568	0.8952
1559	0.9439
1550	0.9567
1541	0.9613
1532	0.9589
1523	0.9515
1514	0.9367
1505	0.8937
1496	0.2278
1487	0.6637
1478	0.4891
1469	0.6109
1460	0.8736
1451	0.5628
1442	0.6449
1433	0.8189
1424	0.8875
1415	0.6306
1406	0.8144
1397	0.8821
1388	0.8901
1379	0.9018
1370	0.9039
1361	0.9016
1352	0.8943
1343	0.9121
1334	0.9111
1325	0.9044
1316	0.9058
1307	0.9245
1298	0.93
1289	0.9206
1280	0.8995
1271	0.892
1262	0.9007
1253	0.9242
1244	0.9204
1235	0.8984
1226	0.9225
1217	0.9311
1208	0.9283
1199	0.8968
1190	0.8615
1181	0.8823
1172	0.9034
1163	0.8694
1154	0.9061
1145	0.9142
1136	0.8508
1127	0.8425
1118	0.8167
1109	0.6475
1100	0.5029
1091	0.4518
1082	0.8561
1073	0.9085
1064	0.9045
1055	0.5675
1046	0.6367
1037	0.5444
1028	0.8253
1019	0.1715
1010	0.7725
1001	0.8995
992	0.9128
983	0.9202
974	0.9262
965	0.9317
956	0.915
947	0.8485
938	0.904
929	0.9228
920	0.9294
911	0.9335
902	0.8825
893	0.7686
884	0.9086
875	0.9094
866	0.8301
857	0.7034
848	0.4554
839	0.5404
830	0.5194
821	0.6686
812	0.8286
803	0.7811
794	0.3775
785	0.0193
776	0.3174
767	0.6854
758	0.0251
749	0.6799
740	0.483
731	0.853
722	0.7168
713	0.6521
704	0.8571
695	0.7458
686	0.6958
677	0.6377
668	0.8083
659	0.8044
650	0.8001
641	0.8823
632	0.8909
623	0.6749
614	0.8268
605	0.5994
596	0.9021
587	0.9171
578	0.9246
569	0.9287
560	0.9325
551	0.9342
542	0.9317
533	0.861
524	0.8598
515	0.8228
506	0.4866
497	0.8647
488	0.9003
479	0.9025
470	0.7851
461	0.5868
452	0.8492
443	0.8488
434	0.8228
425	0.8042
416	0.8051
407	0.8058
398	0.8074
