Infrared Spectrum: ETHANE, 1,1,2,2-TETRACHLORO-
Formula: C2 H2 Cl4
CAS: 79-34-5
State: LIQUID (NEAT)
Melting point: -42 C
Boiling point: 147 C
Class: COBLENTZ III
Instrument: DOW KBr FOREPRISM-GRATING
Instrument parameters: BLAZED AT 3.5, 12.0, 20.0 MICRON, CHANGED AT 5.0, 7.5, 14.9 MICRON
Sampling: TRANSMISSION
Path length: 0.011 CM
Resolution: 4
Origin: DOW CHEMICAL COMPANY
1/CM	TRANSMITTANCE
454.63	0.903
463.889	0.902
473.149	0.899
482.408	0.9
491.667	0.895
500.927	0.86
510.186	0.813
519.445	0.771
528.704	0.579
537.964	0.218
547.223	0
556.482	0.113
565.742	0.525
575.001	0.76
584.26	0.821
593.52	0.834
602.779	0.843
612.038	0.795
621.297	0.678
630.557	0.449
639.816	0.007
649.075	0.002
658.335	0.145
667.594	0.528
676.853	0.619
686.113	0.551
695.372	0.3989
704.631	0.064
713.89	0.002
723.15	0.002
732.409	0.004
741.668	0.005
750.928	0.005
760.187	0.008
769.446	0.011
778.706	0.007
787.965	0.007
797.224	0.008
806.483	0.008
815.743	0.017
825.002	0.0731
834.261	0.331
843.521	0.464
852.78	0.647
862.039	0.83
871.299	0.895
880.558	0.899
889.817	0.889
899.076	0.889
908.336	0.854
917.595	0.916
926.854	0.971
936.114	0.978
945.373	0.995
954.632	0.952
963.892	0.836
973.151	0.666
982.41	0.6811
991.669	0.801
1000.93	0.6929
1010.19	0.3169
1019.45	0.01
1028.71	0.0791
1037.97	0.4481
1047.23	0.8
1056.48	0.883
1065.74	0.897
1075	0.864
1084.26	0.803
1093.52	0.785
1102.78	0.893
1112.04	0.948
1121.3	0.946
1130.56	0.939
1139.82	0.908
1149.08	0.9
1158.34	0.886
1167.6	0.823
1176.86	0.6919
1186.11	0.1649
1195.37	0.053
1204.63	0.01
1213.89	0.027
1223.15	0.03
1232.41	0.4081
1241.67	0.3799
1250.93	0.1761
1260.19	0.525
1269.45	0.524
1278.71	0.1228
1287.97	0.025
1297.23	0.5631
1306.49	0.714
1315.75	0.798
1325	0.873
1334.26	0.872
1343.52	0.873
1352.78	0.92
1362.04	0.992
1371.3	0.998
1380.56	1
1389.82	1.01
1399.08	1.028
1408.34	1.001
1417.6	0.916
1426.86	0.938
1436.12	0.872
1445.38	0.854
1454.63	0.85
1463.89	0.899
1473.15	0.968
1482.41	0.985
1491.67	1.011
1500.93	1
1510.19	0.955
1519.45	0.8487
1528.71	0.9681
1537.97	1.004
1547.23	1.021
1556.49	1.02
1565.75	1.014
1575.01	1.024
1584.26	1.02
1593.52	0.998
1602.78	0.994
1612.04	1.033
1621.3	1.048
1630.56	1.044
1639.82	1.076
1649.08	1.076
1658.34	1.04
1667.6	1.021
1676.86	1.031
1686.12	1.041
1695.38	1.047
1704.64	1.034
1713.89	1.024
1723.15	1.001
1732.41	0.982
1741.67	0.982
1750.93	1.001
1760.19	1.008
1769.45	1.034
1778.71	1.035
1787.97	1.022
1797.23	1.011
1806.49	1.002
1815.75	1.012
1825.01	1.031
1834.27	1.041
1843.53	1.047
1852.78	1.041
1862.04	1.034
1871.3	1.047
1880.56	1.05
1889.82	1.051
1899.08	1.054
1908.34	1.051
1917.6	1.043
1926.86	1.035
1936.12	1.047
1945.38	1.044
1954.64	1.041
1963.9	1.04
1973.16	1.041
1982.41	1.034
1991.67	1.037
2000.93	1.025
2010.19	1.021
2019.45	1.006
2028.71	1.0036
2037.97	1.015
2047.23	1.0261
2056.49	1.0289
2065.75	1.0076
2075.01	0.989
2084.27	1.0179
2093.53	1.0387
2102.79	1.048
2112.04	1.05
2121.3	1.051
2130.56	1.048
2139.82	1.05
2149.08	1.051
2158.34	1.053
2167.6	1.0517
2176.86	1.051
2186.12	1.051
2195.38	1.0487
2204.64	1.0473
2213.9	1.0357
2223.16	1.035
2232.42	1.037
2241.68	1.0424
2250.93	1.04
2260.19	1.0394
2269.45	1.045
2278.71	1.045
2287.97	1.047
2297.23	1.0455
2306.49	1.045
2315.75	1.044
2325.01	1.043
2334.27	1.041
2343.53	1.0354
2352.79	1.0276
2362.05	1.0126
2371.31	0.9961
2380.56	0.9469
2389.82	0.8075
2399.08	0.7295
2408.34	0.7248
2417.6	0.7847
2426.86	0.7498
2436.12	0.6833
2445.38	0.8002
2454.64	0.9084
2463.9	0.9347
2473.16	0.9032
2482.42	0.7738
2491.68	0.8774
2500.94	0.954
2510.19	0.9228
2519.45	0.8719
2528.71	0.934
2537.97	0.9909
2547.23	0.978
2556.49	0.9748
2565.75	1.0149
2575.01	1.028
2584.27	1.033
2593.53	1.031
2602.79	1.035
2612.05	1.04
2621.31	1.041
2630.57	1.043
2639.83	1.043
2649.08	1.041
2658.34	1.04
2667.6	1.041
2676.86	1.041
2686.12	1.043
2695.38	1.044
2704.64	1.045
2713.9	1.045
2723.16	1.045
2732.42	1.045
2741.68	1.045
2750.94	1.045
2760.2	1.045
2769.46	1.045
2778.71	1.044
2787.97	1.0408
2797.23	1.038
2806.49	1.035
2815.75	1.035
2825.01	1.035
2834.27	1.034
2843.53	1.0204
2852.79	1.0072
2862.05	1.014
2871.31	1.017
2880.57	1.0118
2889.83	1.008
2899.09	0.9973
2908.34	0.9785
2917.6	0.9511
2926.86	0.9101
2936.12	0.8797
2945.38	0.8591
2954.64	0.7918
2963.9	0.693
2973.16	0.3023
2982.42	0.007
2991.68	0.0073
3000.94	0.018
3010.2	0.0705
3019.46	0.2356
3028.72	0.43
3037.98	0.5395
3047.23	0.642
3056.49	0.7048
3065.75	0.7658
3075.01	0.8228
3084.27	0.8702
3093.53	0.905
3102.79	0.9366
3112.05	0.9599
3121.31	0.9792
3130.57	0.9928
3139.83	1.0083
3149.09	1.018
3158.35	1.0205
3167.61	1.022
3176.86	1.0245
3186.12	1.033
3195.38	1.037
3204.64	1.041
3213.9	1.041
3223.16	1.0435
3232.42	1.047
3241.68	1.05
3250.94	1.051
3260.2	1.05
3269.46	1.05
3278.72	1.048
3287.98	1.05
3297.24	1.051
3306.49	1.051
3315.75	1.051
3325.01	1.053
3334.27	1.0536
3343.53	1.0534
3352.79	1.051
3362.05	1.054
3371.31	1.0567
3380.57	1.058
3389.83	1.0573
3399.09	1.057
3408.35	1.057
3417.61	1.057
3426.87	1.056
3436.13	1.0546
3445.38	1.051
3454.64	1.0486
3463.9	1.0473
3473.16	1.047
3482.42	1.047
3491.68	1.0443
3500.94	1.0403
3510.2	1.038
3519.46	1.0277
3528.72	1.0005
3537.98	0.9848
3547.24	1.0064
3556.5	1.0296
3565.76	1.034
3575.01	1.031
3584.27	1.028
3593.53	1.0253
3602.79	1.022
3612.05	1.021
3621.31	1.0183
3630.57	1.017
3639.83	1.015
3649.09	1.014
3658.35	1.0111
3667.61	1.01
3676.87	1.008
3686.13	1.0071
3695.39	1.007
3704.64	1.005
3713.9	1.004
3723.16	1.002
3732.42	1.002
3741.68	1.002
3750.94	1.001
3760.2	1.001
3769.46	1.001
3778.72	1.001
3787.98	1.001
