Infrared Spectrum: CAMPHENE
Formula: C10 H16
CAS: 79-92-5
Class: COBLENTZ
Instrument: Not specified, most likely a prism, grating, or hybrid spectrometer.
Sampling: TRANSMISSION
Resolution: 4
Origin: INTERNATIONAL FLAVORS & FRAGRANCES, INC.
MICROMETERS	TRANSMITTANCE
2.024	0.941
2.0572	0.942
2.09041	0.942
2.12361	0.944
2.15681	0.942
2.19001	0.939
2.22322	0.939
2.25642	0.944
2.28962	0.926
2.32282	0.888
2.35603	0.893
2.38923	0.896
2.42243	0.913
2.45563	0.898
2.48884	0.911
2.52204	0.914
2.55524	0.924
2.58845	0.927
2.62165	0.916
2.65485	0.924
2.68805	0.934
2.72126	0.931
2.75446	0.936
2.78766	0.941
2.82086	0.942
2.85407	0.944
2.88727	0.944
2.92047	0.944
2.95367	0.942
2.98688	0.941
3.02008	0.936
3.05328	0.939
3.08649	0.944
3.11969	0.944
3.15289	0.926
3.18609	0.913
3.2193	0.916
3.2525	0.895
3.2857	0.635
3.3189	0.774
3.35211	0.199
3.38531	0.045
3.41851	0.04
3.45171	0.13
3.48492	0.126
3.51812	0.45
3.55132	0.752
3.58453	0.839
3.61773	0.89
3.65093	0.901
3.68413	0.908
3.71734	0.918
3.75054	0.924
3.78374	0.937
3.81694	0.942
3.85015	0.942
3.88335	0.942
3.91655	0.944
3.94975	0.944
3.98296	0.942
4.01616	0.944
4.04936	0.949
4.08256	0.95
4.11577	0.95
4.14897	0.952
4.18217	0.952
4.21538	0.949
4.24858	0.942
4.28178	0.941
4.31498	0.947
4.34819	0.957
4.38139	0.957
4.41459	0.955
4.44779	0.952
4.481	0.952
4.5142	0.949
4.5474	0.954
4.5806	0.952
4.61381	0.952
4.64701	0.947
4.68021	0.95
4.71342	0.944
4.74662	0.939
4.77982	0.95
4.81302	0.954
4.84623	0.954
4.87943	0.955
4.91263	0.957
4.94583	0.957
4.97904	0.957
5.01224	0.957
5.04544	0.955
5.07864	0.955
5.11185	0.955
5.14505	0.96
5.17825	0.96
5.21146	0.959
5.24466	0.96
5.27786	0.962
5.31106	0.962
5.34427	0.963
5.37747	0.963
5.41067	0.963
5.44387	0.963
5.47708	0.965
5.51028	0.967
5.54348	0.963
5.57668	0.959
5.60989	0.955
5.64309	0.949
5.67629	0.903
5.7095	0.841
5.7427	0.888
5.7759	0.936
5.8091	0.939
5.84231	0.941
5.87551	0.937
5.90871	0.924
5.94191	0.875
5.97512	0.648
6.00832	0.497
6.04152	0.425
6.07472	0.671
6.10793	0.797
6.14113	0.842
6.17433	0.862
6.20754	0.906
6.24074	0.936
6.27394	0.945
6.30714	0.949
6.34035	0.947
6.37355	0.924
6.40675	0.924
6.43995	0.934
6.47316	0.929
6.50636	0.929
6.53956	0.937
6.57276	0.941
6.60597	0.936
6.63917	0.921
6.67237	0.901
6.70558	0.854
6.73878	0.653
6.77198	0.635
6.80518	0.53
6.83839	0.263
6.87159	0.273
6.90479	0.343
6.93799	0.5
6.9712	0.62
7.0044	0.723
7.0376	0.72
7.0708	0.662
7.10401	0.728
7.13721	0.81
7.17041	0.821
7.20362	0.716
7.23682	0.579
7.27002	0.617
7.30322	0.667
7.33643	0.657
7.36963	0.369
7.40283	0.739
7.43603	0.877
7.46924	0.908
7.50244	0.926
7.53564	0.932
7.56884	0.934
7.60205	0.932
7.63525	0.865
7.66845	0.851
7.70166	0.697
7.73486	0.793
7.76806	0.767
7.80126	0.847
7.83447	0.896
7.86767	0.852
7.90087	0.842
7.93407	0.905
7.96728	0.914
8.00048	0.788
8.03368	0.88
8.06688	0.924
8.10009	0.931
8.13329	0.932
8.16649	0.934
8.19969	0.923
8.2329	0.923
8.2661	0.926
8.2993	0.898
8.33251	0.775
8.36571	0.841
8.39891	0.865
8.43211	0.873
8.46532	0.87
8.49852	0.873
8.53172	0.901
8.56492	0.898
8.59813	0.777
8.63133	0.621
8.66453	0.754
8.69773	0.847
8.73094	0.898
8.76414	0.908
8.79734	0.859
8.83055	0.795
8.86375	0.857
8.89695	0.89
8.93015	0.896
8.96336	0.873
8.99656	0.63
9.02976	0.495
9.06296	0.671
9.09617	0.801
9.12937	0.815
9.16257	0.625
9.19577	0.703
9.22898	0.818
9.26218	0.895
9.29538	0.913
9.32859	0.924
9.36179	0.936
9.39499	0.942
9.42819	0.945
9.4614	0.945
9.4946	0.949
9.5278	0.949
9.561	0.936
9.59421	0.851
9.62741	0.743
9.66061	0.847
9.69381	0.908
9.72702	0.937
9.76022	0.944
9.79342	0.937
9.82663	0.911
9.85983	0.921
9.89303	0.942
9.92623	0.952
9.95944	0.955
9.99264	0.96
10.0258	0.959
10.059	0.954
10.0922	0.95
10.1254	0.952
10.1587	0.949
10.1919	0.945
10.2251	0.941
10.2583	0.929
10.2915	0.87
10.3247	0.734
10.3579	0.79
10.3911	0.86
10.4243	0.875
10.4575	0.829
10.4907	0.819
10.5239	0.862
10.5571	0.88
10.5903	0.864
10.6235	0.857
10.6567	0.849
10.6899	0.823
10.7231	0.857
10.7563	0.882
10.7895	0.864
10.8227	0.813
10.8559	0.846
10.8891	0.875
10.9223	0.891
10.9555	0.888
10.9887	0.854
11.0219	0.854
11.0551	0.865
11.0883	0.873
11.1215	0.869
11.1547	0.846
11.1879	0.806
11.2211	0.728
11.2543	0.572
11.2875	0.302
11.3207	0.186
11.3539	0.098
11.3872	0.055
11.4204	0.042
11.4536	0.083
11.4868	0.304
11.52	0.468
11.5532	0.595
11.5864	0.692
11.6196	0.762
11.6528	0.811
11.686	0.846
11.7192	0.87
11.7524	0.888
11.7856	0.903
11.8188	0.913
11.852	0.923
11.8852	0.929
11.9184	0.934
11.9516	0.937
11.9848	0.939
12.018	0.941
12.0512	0.941
12.0844	0.937
12.1176	0.929
12.1508	0.914
12.184	0.903
12.2172	0.905
12.2504	0.909
12.2836	0.911
12.3168	0.878
12.35	0.833
12.3832	0.788
12.4164	0.81
12.4496	0.862
12.4828	0.905
12.516	0.923
12.5492	0.934
12.5824	0.936
12.6156	0.939
12.6489	0.941
12.6821	0.942
12.7153	0.944
12.7485	0.947
12.7817	0.947
12.8149	0.947
12.8481	0.947
12.8813	0.945
12.9145	0.942
12.9477	0.937
12.9809	0.927
13.0141	0.923
13.0473	0.919
13.0805	0.909
13.1137	0.872
13.1469	0.775
13.1801	0.711
13.2133	0.774
13.2465	0.821
13.2797	0.851
13.3129	0.854
13.3461	0.834
13.3793	0.765
13.4125	0.693
13.4457	0.7
13.4789	0.762
13.5121	0.815
13.5453	0.847
13.5785	0.87
13.6117	0.873
13.6449	0.883
13.6781	0.888
13.7113	0.888
13.7445	0.887
13.7777	0.887
13.8109	0.887
13.8441	0.887
13.8774	0.885
13.9106	0.878
13.9438	0.875
13.977	0.875
14.0102	0.873
14.0434	0.869
14.0766	0.864
14.1098	0.857
14.143	0.852
14.1762	0.847
14.2094	0.836
14.2426	0.821
14.2758	0.801
14.309	0.78
14.3422	0.779
14.3754	0.783
14.4086	0.798
14.4418	0.805
14.475	0.806
14.5082	0.808
14.5414	0.806
14.5746	0.805
14.6078	0.803
14.641	0.793
14.6742	0.779
14.7074	0.767
14.7406	0.751
14.7738	0.721
14.807	0.684
14.8402	0.623
14.8734	0.554
14.9066	0.49
14.9398	0.477
14.973	0.559
