Infrared Spectrum: PHOSPHINE OXIDE, TRIPHENYL-
Formula: C18 H15 O P
CAS: 791-28-6
State: SOLID (SPLIT MULL, FLUOROLUBE FOR 3800-1333 AND NUJOL FOR 1333-400 CM ^-^1)
Class: COBLENTZ III
Instrument: DOW KBr FOREPRISM-GRATING
Instrument parameters: BLAZED AT 3.5, 12.0, 20.0 MICRON, CHANGED AT 5.0, 7.5, 14.9 MICRON
Sampling: TRANSMISSION
Resolution: 4
Origin: DOW CHEMICAL COMPANY
1/CM	TRANSMITTANCE
385.666	0.882
394.198	0.882
402.731	0.883
411.263	0.886
419.796	0.887
428.328	0.886
436.861	0.879
445.393	0.844
453.925	0.803
462.458	0.909
470.99	0.945
479.523	0.943
488.055	0.93
496.587	0.846
505.12	0.807
513.652	0.89
522.185	0.847
530.717	0.74
539.25	0.131
547.782	0.122
556.314	0.901
564.847	0.954
573.379	0.966
581.912	0.978
590.444	0.981
598.976	0.981
607.509	0.978
616.041	0.977
624.574	0.994
633.106	0.998
641.639	0.998
650.171	0.993
658.703	0.978
667.236	0.947
675.768	0.893
684.301	0.839
692.833	0.3669
701.365	0.3851
709.898	0.659
718.43	0.2109
726.963	0.2391
735.495	0.796
744.028	0.771
752.56	0.586
761.092	0.494
769.625	0.917
778.157	0.957
786.69	0.959
795.222	0.965
803.754	0.97
812.287	0.973
820.819	0.975
829.352	0.973
837.884	0.969
846.417	0.965
854.949	0.954
863.481	0.958
872.014	0.967
880.546	0.965
889.079	0.959
897.611	0.961
906.143	0.957
914.676	0.953
923.208	0.943
931.741	0.911
940.273	0.915
948.806	0.939
957.338	0.939
965.87	0.925
974.403	0.93
982.935	0.907
991.468	0.72
1000	0.832
1008.53	0.913
1017.06	0.917
1025.6	0.894
1034.13	0.945
1042.66	0.942
1051.19	0.938
1059.73	0.913
1068.26	0.717
1076.79	0.885
1085.32	0.875
1093.86	0.811
1102.39	0.745
1110.92	0.344
1119.45	0.129
1127.99	0.762
1136.52	0.831
1145.05	0.826
1153.58	0.744
1162.12	0.458
1170.65	0.576
1179.18	0.387
1187.71	0.09
1196.25	0.6331
1204.78	0.855
1213.31	0.911
1221.84	0.931
1230.38	0.935
1238.91	0.934
1247.44	0.93
1255.97	0.911
1264.5	0.905
1273.04	0.862
1281.57	0.906
1290.1	0.902
1298.63	0.874
1307.17	0.787
1315.7	0.828
1324.23	0.89
1332.76	0.899
1341.3	0.899
1349.83	0.913
1358.36	0.911
1366.89	0.906
1375.43	0.907
1383.96	0.894
1392.49	0.872
1401.02	0.866
1409.56	0.872
1418.09	0.879
1426.62	0.839
1435.15	0.239
1443.69	0.8061
1452.22	0.939
1460.75	0.942
1469.28	0.942
1477.82	0.872
1486.35	0.8941
1494.88	0.969
1503.41	0.969
1511.95	0.971
1520.48	0.97
1529.01	0.97
1537.54	0.969
1546.07	0.965
1554.61	0.955
1563.14	0.946
1571.67	0.915
1580.2	0.913
1588.74	0.7512
1597.27	0.953
1605.8	0.946
1614.33	0.942
1622.87	0.963
1631.4	0.967
1639.93	0.965
1648.46	0.971
1657	0.97
1665.53	0.966
1674.06	0.957
1682.59	0.953
1691.13	0.961
1699.66	0.97
1708.19	0.977
1716.72	0.981
1725.26	0.983
1733.79	0.985
1742.32	0.981
1750.85	0.977
1759.39	0.966
1767.92	0.961
1776.45	0.957
1784.98	0.947
1793.51	0.945
1802.05	0.938
1810.58	0.941
1819.11	0.939
1827.64	0.934
1836.18	0.934
1844.71	0.954
1853.24	0.955
1861.77	0.955
1870.31	0.955
1878.84	0.951
1887.37	0.93
1895.9	0.938
1904.44	0.922
1912.97	0.914
1921.5	0.934
1930.03	0.945
1938.57	0.95
1947.1	0.95
1955.63	0.947
1964.16	0.926
1972.7	0.931
1981.23	0.931
1989.76	0.937
1998.29	0.942
2006.83	0.943
2015.36	0.939
2023.89	0.941
2032.42	0.943
2040.95	0.949
2049.49	0.95
2058.02	0.95
2066.55	0.949
2075.08	0.943
2083.62	0.943
2092.15	0.941
2100.68	0.939
2109.21	0.935
2117.75	0.933
2126.28	0.93
2134.81	0.926
2143.34	0.923
2151.88	0.9191
2160.41	0.919
2168.94	0.914
2177.47	0.923
2186.01	0.906
2194.54	0.8991
2203.07	0.894
2211.6	0.8822
2220.14	0.878
2228.67	0.8741
2237.2	0.87
2245.73	0.866
2254.27	0.86
2262.8	0.8561
2271.33	0.8541
2279.86	0.8521
2288.4	0.851
2296.93	0.848
2305.46	0.848
2313.99	0.847
2322.52	0.847
2331.06	0.847
2339.59	0.847
2348.12	0.847
2356.65	0.8509
2365.19	0.858
2373.72	0.859
2382.25	0.859
2390.78	0.8599
2399.32	0.86
2407.85	0.86
2416.38	0.86
2424.91	0.8581
2433.45	0.856
2441.98	0.856
2450.51	0.856
2459.04	0.855
2467.58	0.854
2476.11	0.854
2484.64	0.8522
2493.17	0.8501
2501.71	0.85
2510.24	0.848
2518.77	0.848
2527.3	0.847
2535.84	0.844
2544.37	0.843
2552.9	0.8391
2561.43	0.839
2569.96	0.8363
2578.5	0.8322
2587.03	0.831
2595.56	0.831
2604.09	0.831
2612.63	0.8301
2621.16	0.8309
2629.69	0.831
2638.22	0.83
2646.76	0.83
2655.29	0.8261
2663.82	0.823
2672.35	0.8191
2680.89	0.818
2689.42	0.818
2697.95	0.8111
2706.48	0.811
2715.02	0.8149
2723.55	0.8122
2732.08	0.812
2740.61	0.8083
2749.15	0.807
2757.68	0.806
2766.21	0.803
2774.74	0.7991
2783.28	0.798
2791.81	0.7951
2800.34	0.795
2808.87	0.795
2817.4	0.794
2825.94	0.7883
2834.47	0.786
2843	0.784
2851.53	0.783
2860.07	0.78
2868.6	0.7742
2877.13	0.772
2885.66	0.7702
2894.2	0.77
2902.73	0.7662
2911.26	0.764
2919.79	0.763
2928.33	0.76
2936.86	0.758
2945.39	0.7502
2953.92	0.7413
2962.46	0.7392
2970.99	0.7325
2979.52	0.718
2988.05	0.6933
2996.59	0.707
3005.12	0.6784
3013.65	0.654
3022.18	0.6631
3030.72	0.6391
3039.25	0.6447
3047.78	0.5518
3056.31	0.5774
3064.85	0.6642
3073.38	0.6727
3081.91	0.7086
3090.44	0.7246
3098.97	0.727
3107.51	0.727
3116.04	0.725
3124.57	0.725
3133.1	0.724
3141.64	0.723
3150.17	0.723
3158.7	0.7214
3167.23	0.721
3175.77	0.721
3184.3	0.72
3192.83	0.72
3201.36	0.7152
3209.9	0.713
3218.43	0.7112
3226.96	0.708
3235.49	0.707
3244.03	0.705
3252.56	0.704
3261.09	0.701
3269.62	0.7
3278.16	0.699
3286.69	0.695
3295.22	0.691
3303.75	0.689
3312.29	0.6882
3320.82	0.688
3329.35	0.685
3337.88	0.681
3346.41	0.68
3354.95	0.677
3363.48	0.677
3372.01	0.675
3380.54	0.675
3389.08	0.671
3397.61	0.668
3406.14	0.6655
3414.67	0.664
3423.21	0.661
3431.74	0.661
3440.27	0.659
3448.8	0.659
3457.34	0.6552
3465.87	0.653
3474.4	0.652
3482.93	0.652
3491.47	0.651
3500	0.648
3508.53	0.647
3517.06	0.644
3525.6	0.643
3534.13	0.6415
3542.66	0.64
3551.19	0.637
3559.73	0.636
3568.26	0.633
3576.79	0.632
3585.32	0.631
3593.85	0.6283
3602.39	0.627
3610.92	0.625
3619.45	0.621
3627.98	0.6195
3636.52	0.621
3645.05	0.62
3653.58	0.6173
3662.11	0.617
3670.65	0.614
3679.18	0.613
3687.71	0.612
3696.24	0.612
3704.78	0.612
3713.31	0.6083
3721.84	0.605
3730.37	0.604
3738.91	0.602
3747.44	0.6
3755.97	0.6003
3764.5	0.598
3773.04	0.597
3781.57	0.597
3790.1	0.594
