Infrared Spectrum: Ethanol, 1,1-bis-(p-chlorophenyl)-
Formula: C14 H12 Cl2 O
CAS: 80-06-8
State: SOLID (2.4 mg / 360 mg KBr DISC)
Class: COBLENTZ III
Instrument: PERKIN-ELMER 180 (GRATING)
Instrument parameters: GRATINGS: 2000, 1000, 500, 250 CM^-^1; FILTER CHANGE: 2970, 2000, 1485, 1000, 743, 500, 372, 250, 186 CM^-^1.
Sampling: TRANSMISSION
Resolution: 2
Origin: K. K. DEB-NCI FREDERICK CANCER RESEARCH CENTER
1/CM	TRANSMITTANCE
208	0.0093
217	0.0121
226	0.0225
235	0.0438
244	0.0808
253	0.177
262	0.2453
271	0.3137
280	0.3846
289	0.4317
298	0.4687
307	0.522
316	0.553
325	0.5802
334	0.6226
343	0.6372
352	0.6509
361	0.6551
370	0.5979
379	0.6981
388	0.684
397	0.6626
406	0.6513
415	0.6762
424	0.6699
433	0.6433
442	0.5584
451	0.5676
460	0.5307
469	0.6033
478	0.5459
487	0.3759
496	0.249
505	0.3814
514	0.31
523	0.1189
532	0.3236
541	0.4894
550	0.5641
559	0.674
568	0.6677
577	0.6461
586	0.6005
595	0.308
604	0.6002
613	0.6425
622	0.6709
631	0.6642
640	0.6667
649	0.6948
658	0.723
667	0.7461
676	0.7183
685	0.6011
694	0.7816
703	0.7744
712	0.7351
721	0.6229
730	0.3344
739	0.6489
748	0.325
757	0.7636
766	0.7177
775	0.6587
784	0.5493
793	0.4043
802	0.088
811	0.1231
820	0.1617
829	0.0673
838	0.1169
847	0.5547
856	0.9051
865	0.9215
874	0.8977
883	0.8419
892	0.7537
901	0.5791
910	0.3076
919	0.416
928	0.8026
937	0.7894
946	0.7146
955	0.7416
964	0.7223
973	0.7118
982	0.6569
991	0.5722
1000	0.4722
1009	0.0405
1018	0.6723
1027	0.6884
1036	0.5371
1045	0.5426
1054	0.3767
1063	0.3358
1072	0.1857
1081	0.0771
1090	0.0276
1099	0.1273
1108	0.6087
1117	0.7184
1126	0.4958
1135	0.6196
1144	0.7619
1153	0.7841
1162	0.695
1171	0.5899
1180	0.4576
1189	0.333
1198	0.3764
1207	0.4842
1216	0.4277
1225	0.5596
1234	0.7131
1243	0.7637
1252	0.7666
1261	0.736
1270	0.6824
1279	0.6406
1288	0.6779
1297	0.6173
1306	0.5503
1315	0.4774
1324	0.5011
1333	0.5348
1342	0.4592
1351	0.3361
1360	0.2968
1369	0.3999
1378	0.4104
1387	0.3932
1396	0.2001
1405	0.2261
1414	0.5795
1423	0.6964
1432	0.6512
1441	0.5177
1450	0.4275
1459	0.4279
1468	0.393
1477	0.1605
1486	0.0497
1495	0.221
1504	0.6156
1513	0.8637
1522	0.8958
1531	0.8787
1540	0.8567
1549	0.8285
1558	0.8059
1567	0.7555
1576	0.5844
1585	0.5888
1594	0.4878
1603	0.6762
1612	0.7824
1621	0.7584
1630	0.7506
1639	0.7439
1648	0.7223
1657	0.7167
1666	0.7156
1675	0.7447
1684	0.767
1693	0.774
1702	0.7759
1711	0.7741
1720	0.769
1729	0.7604
1738	0.75
1747	0.7414
1756	0.7376
1765	0.725
1774	0.699
1783	0.6911
1792	0.7085
1801	0.723
1810	0.7291
1819	0.7279
1828	0.724
1837	0.7159
1846	0.7185
1855	0.716
1864	0.7023
1873	0.6847
1882	0.6654
1891	0.613
1900	0.5995
1909	0.6041
1918	0.6311
1927	0.6912
1936	0.6999
1945	0.6998
1954	0.6942
1963	0.687
1972	0.6836
1981	0.6803
1990	0.677
1999	0.6825
2008	0.6915
2017	0.6901
2026	0.6888
2035	0.6867
2044	0.6844
2053	0.6817
2062	0.6787
2071	0.6754
2080	0.6721
2089	0.6688
2098	0.6656
2107	0.6627
2116	0.6599
2125	0.6571
2134	0.6547
2143	0.6522
2152	0.6498
2161	0.6469
2170	0.644
2179	0.6411
2188	0.6383
2197	0.6355
2206	0.6327
2215	0.63
2224	0.6273
2233	0.6246
2242	0.6219
2251	0.6188
2260	0.6154
2269	0.6118
2278	0.605
2287	0.6017
2296	0.6016
2305	0.5989
2314	0.5937
2323	0.5992
2332	0.6
2341	0.5977
2350	0.595
2359	0.5917
2368	0.5885
2377	0.5858
2386	0.5834
2395	0.5809
2404	0.5787
2413	0.5765
2422	0.5735
2431	0.5704
2440	0.5675
2449	0.5646
2458	0.5618
2467	0.5589
2476	0.5561
2485	0.5535
2494	0.551
2503	0.5485
2512	0.5456
2521	0.541
2530	0.5358
2539	0.5328
2548	0.5317
2557	0.5313
2566	0.5311
2575	0.5311
2584	0.5313
2593	0.5316
2602	0.5321
2611	0.5325
2620	0.5334
2629	0.531
2638	0.5286
2647	0.5255
2656	0.5216
2665	0.5177
2674	0.514
2683	0.5104
2692	0.5069
2701	0.5034
2710	0.5011
2719	0.4991
2728	0.4975
2737	0.4958
2746	0.4945
2755	0.4932
2764	0.4917
2773	0.49
2782	0.4886
2791	0.4882
2800	0.4841
2809	0.4773
2818	0.4735
2827	0.4703
2836	0.4698
2845	0.4698
2854	0.4632
2863	0.447
2872	0.4318
2881	0.4418
2890	0.4479
2899	0.4434
2908	0.4332
2917	0.4236
2926	0.38
2935	0.3622
2944	0.4123
2953	0.4198
2962	0.4046
2971	0.2656
2980	0.2852
2989	0.295
2998	0.3881
3007	0.4425
3016	0.4584
3025	0.4441
3034	0.4292
3043	0.438
3052	0.4177
3061	0.3988
3070	0.4263
3079	0.4294
3088	0.419
3097	0.4282
3106	0.4356
3115	0.4355
3124	0.4339
3133	0.4317
3142	0.4301
3151	0.4288
3160	0.4274
3169	0.4255
3178	0.4232
3187	0.4206
3196	0.4174
3205	0.4142
3214	0.4115
3223	0.4078
3232	0.4038
3241	0.3989
3250	0.3941
3259	0.3876
3268	0.3809
3277	0.3737
3286	0.3656
3295	0.3573
3304	0.3468
3313	0.336
3322	0.3221
3331	0.308
3340	0.2916
3349	0.2744
3358	0.2549
3367	0.2303
3376	0.2087
3385	0.1904
3394	0.1759
3403	0.1621
3412	0.1497
3421	0.1413
3430	0.1407
3439	0.1433
3448	0.1484
3457	0.1519
3466	0.1579
3475	0.1723
3484	0.1968
3493	0.2357
3502	0.2573
3511	0.28
3520	0.3162
3529	0.3447
3538	0.3802
3547	0.3915
3556	0.3918
3565	0.3568
3574	0.3151
3583	0.3335
3592	0.3387
3601	0.3903
3610	0.4242
3619	0.4271
3628	0.4271
3637	0.4243
3646	0.4212
3655	0.419
3664	0.4171
3673	0.4166
3682	0.4164
3691	0.4152
3700	0.4131
3709	0.4107
3718	0.4081
3727	0.4068
3736	0.407
3745	0.4045
3754	0.4014
3763	0.3995
3772	0.3978
3781	0.3961
3790	0.3943
