Infrared Spectrum: 4-CHLOROPHENYL-4-CHLOROBENZENE SULFONATE
Formula: C12 H8 Cl2 O3 S
CAS: 80-33-1
State: SOLUTION (10% CCl4 FOR 5000-1330, 10% CS2 FOR 1330-625 CM^-^1)
Class: COBLENTZ
Instrument: Not specified, most likely a prism, grating, or hybrid spectrometer.
Sampling: TRANSMISSION
Path length: 0.012 CM, 0.012 CM
Resolution: 4
Origin: DOW CHEMICAL COMPANY
MICROMETERS	TRANSMITTANCE
2.034	0.901
2.07504	0.892
2.11607	0.894
2.15711	0.897
2.19814	0.899
2.23918	0.896
2.28022	0.894
2.32125	0.894
2.36229	0.892
2.40332	0.894
2.44436	0.899
2.4854	0.904
2.52643	0.904
2.56747	0.899
2.6085	0.902
2.64954	0.901
2.69058	0.89
2.73161	0.89
2.77265	0.87
2.81368	0.86
2.85472	0.851
2.89576	0.843
2.93679	0.844
2.97783	0.846
3.01886	0.839
3.0599	0.841
3.10093	0.839
3.14197	0.827
3.18301	0.816
3.22404	0.775
3.26508	0.814
3.30611	0.836
3.34715	0.839
3.38819	0.841
3.42922	0.853
3.47026	0.851
3.51129	0.856
3.55233	0.863
3.59337	0.856
3.6344	0.868
3.67544	0.872
3.71647	0.863
3.75751	0.873
3.79855	0.875
3.83958	0.865
3.88062	0.855
3.92165	0.879
3.96269	0.877
4.00373	0.875
4.04476	0.877
4.0858	0.877
4.12683	0.868
4.16787	0.862
4.20891	0.856
4.24994	0.846
4.29098	0.844
4.33201	0.841
4.37305	0.855
4.41409	0.872
4.45512	0.88
4.49616	0.882
4.53719	0.882
4.57823	0.882
4.61927	0.889
4.6603	0.889
4.70134	0.887
4.74237	0.884
4.78341	0.889
4.82445	0.889
4.86548	0.884
4.90652	0.88
4.94755	0.879
4.98859	0.88
5.02962	0.884
5.07066	0.884
5.1117	0.882
5.15273	0.879
5.19377	0.844
5.2348	0.851
5.27584	0.834
5.31688	0.862
5.35791	0.873
5.39895	0.879
5.43998	0.873
5.48102	0.879
5.52206	0.872
5.56309	0.862
5.60413	0.858
5.64516	0.855
5.6862	0.855
5.72724	0.86
5.76827	0.868
5.80931	0.862
5.85034	0.853
5.89138	0.848
5.93242	0.848
5.97345	0.826
6.01449	0.792
6.05552	0.77
6.09656	0.793
6.1376	0.802
6.17863	0.758
6.21967	0.609
6.2607	0.361
6.30174	0.333
6.34278	0.371
6.38381	0.422
6.42485	0.424
6.46588	0.446
6.50692	0.541
6.54796	0.57
6.58899	0.582
6.63003	0.587
6.67106	0.485
6.7121	0.115
6.75314	0.386
6.79417	0.752
6.83521	0.761
6.87624	0.771
6.91728	0.756
6.95832	0.77
6.99935	0.761
7.04039	0.684
7.08142	0.505
7.12246	0.151
7.16349	0.044
7.20453	0.141
7.24557	0.272
7.2866	0.345
7.32764	0.628
7.36867	0.735
7.40971	0.788
7.45075	0.816
7.49178	0.826
7.53282	0.833
7.57385	0.838
7.61489	0.824
7.65593	0.798
7.69696	0.747
7.738	0.695
7.77903	0.586
7.82007	0.674
7.86111	0.764
7.90214	0.776
7.94318	0.773
7.98421	0.758
8.02525	0.73
8.06629	0.689
8.10732	0.635
8.14836	0.601
8.18939	0.572
8.23043	0.431
8.27147	0.115
8.3125	0.061
8.35354	0.31
8.39457	0.291
8.43561	0.12
8.47665	0.027
8.51768	0.221
8.55872	0.34
8.59975	0.214
8.64079	0.12
8.68183	0.342
8.72286	0.495
8.7639	0.567
8.80493	0.601
8.84597	0.603
8.88701	0.604
8.92804	0.589
8.96908	0.548
9.01011	0.495
9.05115	0.4
9.09218	0.197
9.13322	0.063
9.17426	0.03
9.21529	0.081
9.25633	0.385
9.29736	0.519
9.3384	0.577
9.37944	0.655
9.42047	0.696
9.46151	0.718
9.50254	0.729
9.54358	0.739
9.58462	0.747
9.62565	0.744
9.66669	0.739
9.70772	0.73
9.74876	0.695
9.7898	0.546
9.83083	0.281
9.87187	0.482
9.9129	0.679
9.95394	0.732
9.99498	0.749
10.036	0.752
10.077	0.752
10.1181	0.756
10.1591	0.758
10.2002	0.761
10.2412	0.761
10.2822	0.756
10.3233	0.751
10.3643	0.744
10.4053	0.742
10.4464	0.742
10.4874	0.729
10.5284	0.727
10.5695	0.737
10.6105	0.705
10.6516	0.65
10.6926	0.672
10.7336	0.737
10.7747	0.752
10.8157	0.756
10.8567	0.758
10.8978	0.752
10.9388	0.747
10.9798	0.739
11.0209	0.724
11.0619	0.708
11.1029	0.689
11.144	0.671
11.185	0.645
11.2261	0.597
11.2671	0.524
11.3081	0.454
11.3492	0.371
11.3902	0.274
11.4312	0.19
11.4723	0.112
11.5133	0.039
11.5543	0.01
11.5954	0.003
11.6364	0.013
11.6775	0.047
11.7185	0.105
11.7595	0.19
11.8006	0.236
11.8416	0.185
11.8826	0.061
11.9237	0.018
11.9647	0.049
12.0057	0.09
12.0468	0.066
12.0878	0.071
12.1288	0.245
12.1699	0.422
12.2109	0.563
12.252	0.614
12.293	0.643
12.334	0.662
12.3751	0.696
12.4161	0.72
12.4571	0.735
12.4982	0.741
12.5392	0.744
12.5802	0.744
12.6213	0.732
12.6623	0.72
12.7033	0.703
12.7444	0.674
12.7854	0.628
12.8265	0.534
12.8675	0.393
12.9085	0.17
12.9496	0.025
12.9906	0.005
13.0316	0.027
13.0727	0.153
13.1137	0.352
13.1547	0.48
13.1958	0.555
13.2368	0.577
13.2779	0.565
13.3189	0.502
13.3599	0.422
13.401	0.253
13.442	0.095
13.483	0.03
13.5241	0.097
13.5651	0.289
13.6061	0.444
13.6472	0.551
13.6882	0.604
13.7292	0.633
13.7703	0.652
13.8113	0.667
13.8524	0.667
13.8934	0.659
13.9344	0.638
13.9755	0.582
14.0165	0.509
14.0575	0.465
14.0986	0.47
14.1396	0.541
14.1806	0.589
14.2217	0.618
14.2627	0.637
14.3038	0.645
14.3448	0.652
14.3858	0.649
14.4269	0.645
14.4679	0.637
14.5089	0.63
14.55	0.621
14.591	0.609
14.632	0.601
14.6731	0.589
14.7141	0.577
14.7551	0.568
14.7962	0.553
14.8372	0.538
14.8783	0.522
14.9193	0.497
14.9603	0.454
15.0014	0.407
15.0424	0.344
15.0834	0.275
15.1245	0.216
15.1655	0.17
15.2065	0.158
15.2476	0.163
15.2886	0.199
15.3297	0.235
15.3707	0.277
15.4117	0.311
15.4528	0.327
15.4938	0.337
15.5348	0.337
15.5759	0.335
15.6169	0.32
15.6579	0.293
15.699	0.257
15.74	0.223
15.781	0.197
15.8221	0.173
