Infrared Spectrum: 4-Toluenesulfonamide, N-ethyl-
Formula: C9 H13 N O2 S
CAS: 80-39-7
State: SOLUTION (5% CCl4 FOR 2.7-7.5, 5% CS2 FOR 7.5-26 MICRON) VS SOLVENT
Class: COBLENTZ III
Instrument: DOW FOREPRISM-GRATING
Instrument parameters: BLAZED AT 3.5, 12.0, 20.0 MICRON AND CHANGED AT 5.0, 7.5, 14.9 MICRON
Sampling: TRANSMISSION
Path length: 0.011 CM, 0.011 CM
Resolution: 2
Origin: DOW CHEMICAL COMPANY
1/CM	TRANSMITTANCE
393	0.751
402	0.7486
411	0.7455
420	0.7438
429	0.7414
438	0.733
447	0.7232
456	0.7117
465	0.6994
474	0.6871
483	0.6766
492	0.6746
501	0.6829
510	0.6784
519	0.67
528	0.661
537	0.6455
546	0.5551
555	0.2053
564	0.5027
573	0.3445
582	0.4694
591	0.6406
600	0.6757
609	0.693
618	0.7047
627	0.7091
636	0.6933
645	0.629
654	0.3223
663	0.2855
672	0.3948
681	0.4857
690	0.5536
699	0.5826
708	0.5326
717	0.6768
726	0.7078
735	0.7179
744	0.7104
753	0.6533
762	0.5833
771	0.5716
780	0.7094
789	0.7116
798	0.6532
807	0.5895
816	0.2003
825	0.7059
834	0.6887
843	0.6509
852	0.6181
861	0.6217
870	0.6691
879	0.7541
888	0.7931
897	0.7953
906	0.788
915	0.7671
924	0.7037
933	0.5999
942	0.5106
951	0.5685
960	0.7323
969	0.7729
978	0.7905
987	0.7928
996	0.792
1005	0.7892
1014	0.734
1023	0.7669
1032	0.7359
1041	0.7021
1050	0.6379
1059	0.5105
1068	0.5593
1077	0.614
1086	0.5073
1095	0.1827
1104	0.4799
1113	0.4874
1122	0.5498
1131	0.5293
1140	0.4261
1149	0.258
1158	0.0338
1167	0.079
1176	0.6384
1185	0.6021
1194	0.76
1203	0.7634
1212	0.7667
1221	0.7795
1230	0.7759
1239	0.7728
1248	0.7667
1257	0.7568
1266	0.72
1275	0.6515
1284	0.5476
1293	0.556
1302	0.3974
1311	0.3939
1320	0.1909
1329	0.1305
1338	0.2687
1347	0.4055
1356	0.5423
1365	0.6917
1374	0.6836
1383	0.5856
1392	0.6358
1401	0.5706
1410	0.5107
1419	0.504
1428	0.4626
1437	0.5416
1446	0.5778
1455	0.5306
1464	0.6666
1473	0.7141
1482	0.7471
1491	0.7428
1500	0.7821
1509	0.8112
1518	0.8177
1527	0.8202
1536	0.8216
1545	0.8221
1554	0.8211
1563	0.8191
1572	0.8169
1581	0.8118
1590	0.769
1599	0.6055
1608	0.8169
1617	0.8388
1626	0.8462
1635	0.8492
1644	0.8339
1653	0.8366
1662	0.8564
1671	0.862
1680	0.8658
1689	0.8696
1698	0.871
1707	0.8714
1716	0.8711
1725	0.8709
1734	0.8711
1743	0.8714
1752	0.8719
1761	0.8728
1770	0.8716
1779	0.8674
1788	0.8594
1797	0.8564
1806	0.8678
1815	0.8703
1824	0.8706
1833	0.871
1842	0.8703
1851	0.8688
1860	0.868
1869	0.8677
1878	0.8672
1887	0.8643
1896	0.8586
1905	0.84
1914	0.8396
1923	0.8618
1932	0.8701
1941	0.8738
1950	0.8763
1959	0.8774
1968	0.8776
1977	0.8768
1986	0.8743
1995	0.8783
2004	0.8794
2013	0.8798
2022	0.88
2031	0.8802
2040	0.8805
2049	0.8807
2058	0.881
2067	0.8813
2076	0.8816
2085	0.8818
2094	0.882
2103	0.8821
2112	0.8821
2121	0.8822
2130	0.8823
2139	0.8824
2148	0.8827
2157	0.8821
2166	0.8821
2175	0.8861
2184	0.88
2193	0.8754
2202	0.8742
2211	0.8732
2220	0.8723
2229	0.8709
2238	0.8685
2247	0.8641
2256	0.8623
2265	0.8629
2274	0.8642
2283	0.8631
2292	0.8592
2301	0.8585
2310	0.8591
2319	0.8653
2328	0.8696
2337	0.8702
2346	0.8702
2355	0.87
2364	0.8698
2373	0.869
2382	0.8681
2391	0.8669
2400	0.8659
2409	0.8652
2418	0.8647
2427	0.8648
2436	0.8648
2445	0.8645
2454	0.8642
2463	0.8639
2472	0.8638
2481	0.8636
2490	0.8635
2499	0.8636
2508	0.864
2517	0.8643
2526	0.8647
2535	0.8638
2544	0.863
2553	0.8623
2562	0.86
2571	0.8569
2580	0.8561
2589	0.8564
2598	0.8576
2607	0.8589
2616	0.8603
2625	0.8622
2634	0.8635
2643	0.8618
2652	0.8601
2661	0.8579
2670	0.8556
2679	0.8536
2688	0.8523
2697	0.8512
2706	0.8501
2715	0.8491
2724	0.8486
2733	0.8491
2742	0.8501
2751	0.8511
2760	0.8521
2769	0.8517
2778	0.85
2787	0.8473
2796	0.8435
2805	0.8381
2814	0.8297
2823	0.8192
2832	0.806
2841	0.7876
2850	0.765
2859	0.7192
2868	0.6845
2877	0.688
2886	0.7382
2895	0.7439
2904	0.7405
2913	0.7121
2922	0.6811
2931	0.6786
2940	0.7101
2949	0.7275
2958	0.7205
2967	0.6542
2976	0.5764
2985	0.536
2994	0.7001
3003	0.8016
3012	0.8009
3021	0.7904
3030	0.7833
3039	0.789
3048	0.7941
3057	0.7899
3066	0.8202
3075	0.8469
3084	0.8534
3093	0.8564
3102	0.8583
3111	0.8583
3120	0.8569
3129	0.8543
3138	0.8513
3147	0.8459
3156	0.8383
3165	0.8286
3174	0.8171
3183	0.8042
3192	0.7855
3201	0.763
3210	0.7333
3219	0.6756
3228	0.6106
3237	0.5455
3246	0.4805
3255	0.4118
3264	0.3689
3273	0.3521
3282	0.3544
3291	0.3817
3300	0.4252
3309	0.5118
3318	0.5933
3327	0.6763
3336	0.7308
3345	0.7548
3354	0.7666
3363	0.774
3372	0.782
3381	0.7925
3390	0.8061
3399	0.8346
3408	0.8578
3417	0.8654
3426	0.8677
3435	0.8693
3444	0.8691
3453	0.8681
3462	0.8667
3471	0.8653
3480	0.8641
3489	0.8629
3498	0.8617
3507	0.8605
3516	0.8599
3525	0.8593
3534	0.8588
3543	0.8583
3552	0.8577
3561	0.857
3570	0.8562
3579	0.851
3588	0.8506
3597	0.8506
3606	0.8504
3615	0.8499
3624	0.8493
3633	0.8488
3642	0.8484
3651	0.848
3660	0.8481
3669	0.8481
3678	0.8482
3687	0.8483
3696	0.8483
3705	0.8484
3714	0.8484
3723	0.8484
3732	0.8483
3741	0.8483
3750	0.8481
3759	0.8479
3768	0.8477
3777	0.8466
3786	0.8455
