Infrared Spectrum: Alpha-PINENE
Formula: C10 H16
CAS: 80-56-8
State: SOLUTION (10% CCl4 FOR 3800-1330, 10% CS2 FOR 1330-450 CM^-^1)
Class: COBLENTZ III
Instrument: DOW KBr FOREPRISM-GRATING
Instrument parameters: BLAZED AT 3.5, 12.0, 20.0 MICRON AND CHANGED AT 5.0, 7.5, 14.9 MICRON
Sampling: TRANSMISSION
Path length: 0.011 CM, 0.010 CM
Resolution: 2
Origin: DOW CHEMICAL COMPANY
1/CM	TRANSMITTANCE
450	0.9304
459	0.9152
468	0.911
477	0.9057
486	0.9173
495	0.9275
504	0.9334
513	0.9356
522	0.9363
531	0.9412
540	0.9447
549	0.9415
558	0.9174
567	0.9137
576	0.9503
585	0.9536
594	0.9497
603	0.9421
612	0.9278
621	0.9166
630	0.9313
639	0.9237
648	0.9128
657	0.9094
666	0.9168
675	0.8818
684	0.8875
693	0.8886
702	0.8845
711	0.8815
720	0.8815
729	0.8828
738	0.8831
747	0.8809
756	0.8699
765	0.8194
774	0.6728
783	0.481
792	0.4039
801	0.8024
810	0.8554
819	0.8694
828	0.8728
837	0.8251
846	0.7899
855	0.7465
864	0.7571
873	0.7307
882	0.7007
891	0.6826
900	0.8559
909	0.8758
918	0.8723
927	0.7685
936	0.859
945	0.8172
954	0.7208
963	0.8271
972	0.8724
981	0.8775
990	0.8674
999	0.8575
1008	0.8137
1017	0.6832
1026	0.8374
1035	0.8267
1044	0.801
1053	0.8403
1062	0.7136
1071	0.8327
1080	0.7669
1089	0.7765
1098	0.7281
1107	0.8317
1116	0.8454
1125	0.6432
1134	0.8538
1143	0.866
1152	0.8665
1161	0.8032
1170	0.8065
1179	0.7961
1188	0.8398
1197	0.8056
1206	0.676
1215	0.6928
1224	0.7047
1233	0.8512
1242	0.8436
1251	0.8221
1260	0.7324
1269	0.6925
1278	0.8409
1287	0.8514
1296	0.841
1305	0.8265
1314	0.8232
1323	0.7465
1332	0.7038
1341	0.8056
1350	0.8168
1359	0.7601
1368	0.4239
1377	0.4875
1386	0.6675
1395	0.8003
1404	0.8033
1413	0.7818
1422	0.7325
1431	0.5306
1440	0.3684
1449	0.2851
1458	0.584
1467	0.4315
1476	0.5869
1485	0.7344
1494	0.755
1503	0.7335
1512	0.7018
1521	0.6558
1530	0.6031
1539	0.5324
1548	0.453
1557	0.4838
1566	0.5572
1575	0.5981
1584	0.6221
1593	0.6672
1602	0.7274
1611	0.8045
1620	0.8261
1629	0.832
1638	0.8325
1647	0.8378
1656	0.775
1665	0.8323
1674	0.8521
1683	0.8663
1692	0.8651
1701	0.8794
1710	0.8717
1719	0.8707
1728	0.8696
1737	0.8687
1746	0.8675
1755	0.8745
1764	0.8721
1773	0.8787
1782	0.8762
1791	0.8773
1800	0.8767
1809	0.8765
1818	0.8753
1827	0.873
1836	0.8697
1845	0.8702
1854	0.8685
1863	0.8696
1872	0.8708
1881	0.8718
1890	0.8736
1899	0.8783
1908	0.8812
1917	0.882
1926	0.8808
1935	0.8789
1944	0.8775
1953	0.8752
1962	0.8794
1971	0.8762
1980	0.8764
1989	0.88
1998	0.884
2007	0.9039
2016	0.9054
2025	0.9044
2034	0.9016
2043	0.9017
2052	0.9023
2061	0.9025
2070	0.9034
2079	0.9043
2088	0.9055
2097	0.9046
2106	0.9039
2115	0.903
2124	0.9021
2133	0.9023
2142	0.9025
2151	0.903
2160	0.904
2169	0.9052
2178	0.9064
2187	0.9067
2196	0.9046
2205	0.9034
2214	0.9028
2223	0.9032
2232	0.9035
2241	0.9035
2250	0.9018
2259	0.8978
2268	0.8937
2277	0.8893
2286	0.885
2295	0.8861
2304	0.8888
2313	0.8921
2322	0.8956
2331	0.8986
2340	0.9014
2349	0.9038
2358	0.904
2367	0.9011
2376	0.8963
2385	0.894
2394	0.8965
2403	0.8991
2412	0.9017
2421	0.901
2430	0.9005
2439	0.9001
2448	0.8987
2457	0.8971
2466	0.8958
2475	0.8962
2484	0.8967
2493	0.8975
2502	0.8986
2511	0.8981
2520	0.896
2529	0.8948
2538	0.895
2547	0.8959
2556	0.8977
2565	0.8964
2574	0.8933
2583	0.8968
2592	0.8974
2601	0.8952
2610	0.893
2619	0.8913
2628	0.889
2637	0.892
2646	0.879
2655	0.8503
2664	0.875
2673	0.8894
2682	0.8915
2691	0.8887
2700	0.8815
2709	0.8588
2718	0.8328
2727	0.841
2736	0.8709
2745	0.8646
2754	0.8471
2763	0.8632
2772	0.8599
2781	0.8521
2790	0.8361
2799	0.7915
2808	0.7515
2817	0.7008
2826	0.4954
2835	0.162
2844	0.4012
2853	0.3416
2862	0.1659
2871	0.0616
2880	0.0551
2889	0.0657
2898	0.0483
2907	0.0174
2916	0.0119
2925	0.0153
2934	0.0215
2943	0.0325
2952	0.04
2961	0.0577
2970	0.0732
2979	0.0596
2988	0.0423
2997	0.3108
3006	0.5289
3015	0.5256
3024	0.4248
3033	0.5789
3042	0.7249
3051	0.7715
3060	0.8106
3069	0.8268
3078	0.8353
3087	0.8428
3096	0.8459
3105	0.8457
3114	0.8463
3123	0.849
3132	0.851
3141	0.8528
3150	0.8559
3159	0.8596
3168	0.8636
3177	0.8689
3186	0.8738
3195	0.8771
3204	0.8793
3213	0.881
3222	0.8817
3231	0.8833
3240	0.8849
3249	0.8859
3258	0.8865
3267	0.8871
3276	0.8878
3285	0.8885
3294	0.8891
3303	0.8898
3312	0.8904
3321	0.8907
3330	0.891
3339	0.8912
3348	0.8921
3357	0.893
3366	0.8938
3375	0.8942
3384	0.8947
3393	0.8951
3402	0.8956
3411	0.896
3420	0.8965
3429	0.8968
3438	0.8974
3447	0.8978
3456	0.8982
3465	0.8985
3474	0.8989
3483	0.8989
3492	0.8988
3501	0.8986
3510	0.8986
3519	0.8985
3528	0.8984
3537	0.8987
3546	0.8993
3555	0.9003
3564	0.9014
3573	0.903
3582	0.9046
3591	0.903
3600	0.9028
3609	0.9031
3618	0.9041
3627	0.9039
3636	0.9016
3645	0.903
3654	0.9001
3663	0.8982
3672	0.8975
3681	0.8964
3690	0.8955
3699	0.8953
3708	0.8967
3717	0.8991
3726	0.9049
3735	0.9054
3744	0.8977
3753	0.8953
3762	0.8945
3771	0.8942
3780	0.8937
3789	0.8931
3798	0.8925
