Infrared Spectrum: 2-METHYLACRYLIC, METHYL ESTER
Formula: C5 H8 O2
CAS: 80-62-6
State: GAS (30 mmHg, N2 ADDED, TOTAL PRESSURE 600 mmHg)
Class: COBLENTZ
Instrument: DOW KBr FOREPRISM-GRATING
Instrument parameters: GRATING CHANGED AT 5.0, 7.5, 15.0 MICRON
Sampling: TRANSMISSION
Path length: 5 CM
Resolution: 2
Origin: DOW CHEMICAL COMPANY
1/CM	TRANSMITTANCE
455.938	0.968
464.376	0.973
472.813	0.975
481.251	0.966
489.688	0.952
498.126	0.947
506.563	0.953
515.001	0.962
523.438	0.971
531.876	0.973
540.313	0.978
548.751	0.976
557.188	0.976
565.626	0.978
574.063	0.978
582.501	0.965
590.938	0.944
599.376	0.937
607.813	0.963
616.251	0.984
624.688	0.985
633.126	0.969
641.563	0.928
650.001	0.914
658.438	0.913
666.876	0.952
675.313	0.969
683.751	0.986
692.188	0.994
700.626	0.995
709.064	0.992
717.501	0.991
725.939	0.986
734.376	0.985
742.814	0.984
751.251	0.981
759.689	0.981
768.126	0.981
776.564	0.979
785.001	0.965
793.439	0.879
801.876	0.7809
810.314	0.798
818.751	0.692
827.189	0.723
835.626	0.833
844.064	0.923
852.501	0.959
860.939	0.972
869.376	0.976
877.814	0.978
886.251	0.981
894.689	0.984
903.126	0.982
911.564	0.959
920.001	0.881
928.439	0.708
936.877	0.568
945.314	0.591
953.752	0.757
962.189	0.884
970.627	0.931
979.064	0.923
987.502	0.881
995.939	0.868
1004.38	0.859
1012.81	0.782
1021.25	0.705
1029.69	0.766
1038.13	0.868
1046.56	0.971
1055	0.979
1063.44	0.971
1071.88	0.953
1080.31	0.946
1088.75	0.953
1097.19	0.966
1105.63	0.962
1114.06	0.952
1122.5	0.936
1130.94	0.911
1139.38	0.8241
1147.81	0.6181
1156.25	0.1951
1164.69	0.039
1173.13	0.031
1181.56	0.15
1190	0.223
1198.44	0.117
1206.88	0.124
1215.31	0.2881
1223.75	0.5969
1232.19	0.791
1240.63	0.846
1249.06	0.892
1257.5	0.913
1265.94	0.897
1274.38	0.846
1282.81	0.786
1291.25	0.6529
1299.69	0.376
1308.13	0.298
1316.56	0.294
1325	0.282
1333.44	0.244
1341.88	0.35
1350.31	0.588
1358.75	0.876
1367.19	0.894
1375.63	0.852
1384.06	0.823
1392.5	0.797
1400.94	0.763
1409.38	0.742
1417.82	0.76
1426.25	0.808
1434.69	0.686
1443.13	0.447
1451.57	0.392
1460	0.514
1468.44	0.556
1476.88	0.6849
1485.32	0.843
1493.75	0.908
1502.19	0.914
1510.63	0.911
1519.07	0.923
1527.5	0.927
1535.94	0.931
1544.38	0.921
1552.82	0.94
1561.25	0.92
1569.69	0.94
1578.13	0.93
1586.57	0.934
1595	0.933
1603.44	0.933
1611.88	0.917
1620.32	0.876
1628.75	0.82
1637.19	0.684
1645.63	0.697
1654.07	0.695
1662.5	0.885
1670.94	0.918
1679.38	0.915
1687.82	0.889
1696.25	0.865
1704.69	0.859
1713.13	0.843
1721.57	0.7229
1730	0.3171
1738.44	0.04
1746.88	0.03
1755.32	0.06
1763.75	0.366
1772.19	0.743
1780.63	0.894
1789.07	0.91
1797.5	0.898
1805.94	0.923
1814.38	0.944
1822.82	0.962
1831.25	0.966
1839.69	0.973
1848.13	0.973
1856.57	0.968
1865	0.957
1873.44	0.939
1881.88	0.931
1890.32	0.933
1898.75	0.952
1907.19	0.966
1915.63	0.969
1924.07	0.966
1932.5	0.966
1940.94	0.968
1949.38	0.969
1957.82	0.971
1966.25	0.972
1974.69	0.971
1983.13	0.966
1991.57	0.959
2000	0.952
2008.44	0.955
2016.88	0.952
2025.32	0.956
2033.75	0.962
2042.19	0.9685
2050.63	0.973
2059.07	0.977
2067.5	0.981
2075.94	0.984
2084.38	0.984
2092.82	0.982
2101.25	0.981
2109.69	0.979
2118.13	0.978
2126.57	0.976
2135	0.976
2143.44	0.9755
2151.88	0.9749
2160.32	0.973
2168.75	0.975
2177.19	0.9785
2185.63	0.982
2194.07	0.982
2202.5	0.984
2210.94	0.985
2219.38	0.985
2227.82	0.985
2236.25	0.985
2244.69	0.985
2253.13	0.985
2261.57	0.985
2270	0.986
2278.44	0.986
2286.88	0.9861
2295.32	0.988
2303.75	0.988
2312.19	0.988
2320.63	0.988
2329.07	0.988
2337.5	0.986
2345.94	0.986
2354.38	0.986
2362.82	0.986
2371.25	0.985
2379.69	0.985
2388.13	0.985
2396.57	0.985
2405	0.9862
2413.44	0.988
2421.88	0.988
2430.32	0.988
2438.75	0.988
2447.19	0.988
2455.63	0.988
2464.07	0.988
2472.5	0.988
2480.94	0.988
2489.38	0.988
2497.82	0.988
2506.25	0.988
2514.69	0.988
2523.13	0.988
2531.57	0.988
2540	0.988
2548.44	0.988
2556.88	0.986
2565.32	0.985
2573.75	0.9837
2582.19	0.982
2590.63	0.984
2599.07	0.9846
2607.51	0.985
2615.94	0.9856
2624.38	0.986
2632.82	0.988
2641.26	0.986
2649.69	0.986
2658.13	0.9858
2666.57	0.9843
2675.01	0.984
2683.44	0.985
2691.88	0.9863
2700.32	0.9867
2708.76	0.986
2717.19	0.986
2725.63	0.985
2734.07	0.984
2742.51	0.981
2750.94	0.981
2759.38	0.9794
2767.82	0.981
2776.26	0.981
2784.69	0.981
2793.13	0.979
2801.57	0.978
2810.01	0.976
2818.44	0.973
2826.88	0.9676
2835.32	0.9606
2843.76	0.9234
2852.19	0.8617
2860.63	0.863
2869.07	0.8941
2877.51	0.91
2885.94	0.9059
2894.38	0.89
2902.82	0.8707
2911.26	0.8524
2919.69	0.8371
2928.13	0.8042
2936.57	0.7455
2945.01	0.7327
2953.44	0.6202
2961.88	0.495
2970.32	0.4748
2978.76	0.582
2987.19	0.6233
2995.63	0.6116
3004.07	0.5935
3012.51	0.6982
3020.94	0.7282
3029.38	0.7505
3037.82	0.7922
3046.26	0.8462
3054.69	0.8958
3063.13	0.9155
3071.57	0.9393
3080.01	0.9463
3088.44	0.949
3096.88	0.9382
3105.32	0.9001
3113.76	0.8955
3122.19	0.9138
3130.63	0.9554
3139.07	0.9705
3147.51	0.972
3155.94	0.973
3164.38	0.976
3172.82	0.9788
3181.26	0.981
3189.69	0.981
3198.13	0.982
3206.57	0.984
3215.01	0.985
3223.44	0.985
3231.88	0.985
3240.32	0.986
3248.76	0.986
3257.19	0.986
3265.63	0.988
3274.07	0.988
3282.51	0.9883
3290.94	0.989
3299.38	0.991
3307.82	0.991
3316.26	0.992
3324.69	0.994
3333.13	0.994
3341.57	0.992
3350.01	0.992
3358.44	0.989
3366.88	0.988
3375.32	0.989
3383.76	0.991
3392.19	0.991
3400.63	0.9913
3409.07	0.992
3417.51	0.992
3425.94	0.991
3434.38	0.989
3442.82	0.9852
3451.26	0.9759
3459.69	0.965
3468.13	0.959
3476.57	0.9647
3485.01	0.9778
3493.44	0.9859
3501.88	0.989
3510.32	0.991
3518.76	0.991
3527.19	0.991
3535.63	0.991
3544.07	0.991
3552.51	0.991
3560.94	0.991
3569.38	0.989
3577.82	0.989
3586.26	0.989
3594.69	0.986
3603.13	0.982
3611.57	0.984
3620.01	0.985
3628.44	0.985
3636.88	0.982
3645.32	0.982
3653.76	0.984
3662.19	0.9841
3670.63	0.981
3679.07	0.9838
3687.51	0.985
3695.94	0.986
3704.38	0.9856
3712.82	0.985
3721.26	0.9832
3729.69	0.9819
3738.13	0.9844
3746.57	0.9889
3755.01	0.991
3763.44	0.991
3771.88	0.991
3780.32	0.9891
3788.76	0.989
