Infrared Spectrum: CYCLODECYLAMINE, N-METHYL-
Formula: C11 H23 N
CAS: 80789-66-8
State: LIQUID (NEAT)
Class: COBLENTZ III
Instrument: DOW KBr FOREPRISM-GRATING
Instrument parameters: BLAZED AT 3.5, 12.0, 20.0 MICRON AND CHANGED AT 5.0, 7.5, 14.9 MICRON
Sampling: TRANSMISSION
Path length: CAPILLARY
Resolution: 2
Origin: DOW CHEMICAL COMPANY
1/CM	TRANSMITTANCE
382	0.8882
391	0.8925
400	0.8932
409	0.8935
418	0.8931
427	0.8921
436	0.8917
445	0.8915
454	0.8915
463	0.8923
472	0.8967
481	0.9124
490	0.9191
499	0.9175
508	0.9143
517	0.914
526	0.9251
535	0.9356
544	0.9371
553	0.936
562	0.9302
571	0.9127
580	0.9193
589	0.9294
598	0.9342
607	0.9462
616	0.9521
625	0.9525
634	0.9488
643	0.9397
652	0.9264
661	0.9068
670	0.853
679	0.7761
688	0.7496
697	0.7292
706	0.7205
715	0.68
724	0.6565
733	0.6641
742	0.6853
751	0.7149
760	0.744
769	0.7546
778	0.7532
787	0.6971
796	0.7705
805	0.7997
814	0.7999
823	0.8233
832	0.8417
841	0.8507
850	0.8515
859	0.8601
868	0.8685
877	0.8578
886	0.8491
895	0.8521
904	0.8568
913	0.8627
922	0.8616
931	0.8574
940	0.8654
949	0.856
958	0.8398
967	0.851
976	0.8558
985	0.823
994	0.8151
1003	0.8165
1012	0.8198
1021	0.8039
1030	0.8117
1039	0.8418
1048	0.8491
1057	0.8373
1066	0.8075
1075	0.7758
1084	0.75
1093	0.7048
1102	0.6886
1111	0.6535
1120	0.6474
1129	0.5727
1138	0.6266
1147	0.7097
1156	0.7285
1165	0.7803
1174	0.7867
1183	0.7925
1192	0.7925
1201	0.7786
1210	0.7793
1219	0.7871
1228	0.793
1237	0.7911
1246	0.7861
1255	0.7924
1264	0.7907
1273	0.7761
1282	0.7558
1291	0.7533
1300	0.7649
1309	0.739
1318	0.7293
1327	0.719
1336	0.6828
1345	0.6415
1354	0.6331
1363	0.616
1372	0.6237
1381	0.7288
1390	0.7649
1399	0.7801
1408	0.778
1417	0.7501
1426	0.7071
1435	0.5558
1444	0.3482
1453	0.3976
1462	0.5205
1471	0.5197
1480	0.3291
1489	0.4342
1498	0.6734
1507	0.7515
1516	0.7758
1525	0.7882
1534	0.7932
1543	0.7982
1552	0.8015
1561	0.8045
1570	0.8068
1579	0.8082
1588	0.8092
1597	0.808
1606	0.8058
1615	0.8053
1624	0.8053
1633	0.8055
1642	0.808
1651	0.814
1660	0.8151
1669	0.8165
1678	0.818
1687	0.8189
1696	0.8142
1705	0.8133
1714	0.8182
1723	0.8296
1732	0.832
1741	0.8341
1750	0.8356
1759	0.8357
1768	0.8388
1777	0.8409
1786	0.8411
1795	0.8425
1804	0.8439
1813	0.8442
1822	0.8445
1831	0.8451
1840	0.8458
1849	0.8464
1858	0.8474
1867	0.8484
1876	0.8493
1885	0.8499
1894	0.8494
1903	0.8488
1912	0.8483
1921	0.8478
1930	0.8475
1939	0.8475
1948	0.8493
1957	0.8475
1966	0.852
1975	0.851
1984	0.8484
1993	0.846
2002	0.826
2011	0.8111
2020	0.8108
2029	0.8111
2038	0.8115
2047	0.8117
2056	0.8122
2065	0.8128
2074	0.8135
2083	0.8136
2092	0.8138
2101	0.8139
2110	0.8138
2119	0.8137
2128	0.8136
2137	0.8135
2146	0.8134
2155	0.8133
2164	0.8132
2173	0.8131
2182	0.813
2191	0.8128
2200	0.8139
2209	0.8151
2218	0.8164
2227	0.8172
2236	0.8181
2245	0.8203
2254	0.8228
2263	0.8168
2272	0.8195
2281	0.8231
2290	0.827
2299	0.8323
2308	0.8397
2317	0.8489
2326	0.8499
2335	0.8478
2344	0.8409
2353	0.8364
2362	0.8348
2371	0.8331
2380	0.8313
2389	0.8295
2398	0.8287
2407	0.8284
2416	0.8281
2425	0.8274
2434	0.8266
2443	0.8255
2452	0.8239
2461	0.822
2470	0.8198
2479	0.8175
2488	0.8154
2497	0.813
2506	0.8106
2515	0.8081
2524	0.8053
2533	0.8025
2542	0.7989
2551	0.7951
2560	0.7912
2569	0.7881
2578	0.785
2587	0.7818
2596	0.7789
2605	0.776
2614	0.7718
2623	0.7671
2632	0.7619
2641	0.7565
2650	0.751
2659	0.743
2668	0.7304
2677	0.7194
2686	0.724
2695	0.7295
2704	0.7375
2713	0.7395
2722	0.7395
2731	0.7347
2740	0.7242
2749	0.686
2758	0.6358
2767	0.5195
2776	0.3662
2785	0.3887
2794	0.4435
2803	0.568
2812	0.5665
2821	0.5187
2830	0.4356
2839	0.1314
2848	0.1557
2857	0.1466
2866	0.1301
2875	0.1559
2884	0.1423
2893	0.0746
2902	0.0562
2911	0.0381
2920	0.036
2929	0.0406
2938	0.054
2947	0.0996
2956	0.1961
2965	0.2002
2974	0.255
2983	0.3167
2992	0.3837
3001	0.6262
3010	0.7047
3019	0.7486
3028	0.7655
3037	0.7721
3046	0.7786
3055	0.7837
3064	0.7875
3073	0.7904
3082	0.7922
3091	0.7933
3100	0.7936
3109	0.7935
3118	0.7933
3127	0.7925
3136	0.7914
3145	0.7901
3154	0.7887
3163	0.7869
3172	0.7854
3181	0.7836
3190	0.7806
3199	0.7775
3208	0.7738
3217	0.7694
3226	0.765
3235	0.7597
3244	0.7545
3253	0.7484
3262	0.7421
3271	0.7324
3280	0.7231
3289	0.7248
3298	0.7315
3307	0.7435
3316	0.7501
3325	0.755
3334	0.7615
3343	0.7654
3352	0.7687
3361	0.7717
3370	0.7738
3379	0.7753
3388	0.7768
3397	0.7788
3406	0.7807
3415	0.7825
3424	0.7843
3433	0.786
3442	0.7881
3451	0.7906
3460	0.7931
3469	0.7958
3478	0.7994
3487	0.8028
3496	0.8062
3505	0.8099
3514	0.8134
3523	0.8169
3532	0.8201
3541	0.8232
3550	0.8263
3559	0.8293
3568	0.832
3577	0.8346
3586	0.8368
3595	0.8391
3604	0.8405
3613	0.8416
3622	0.8425
3631	0.8431
3640	0.8431
3649	0.8416
3658	0.8381
3667	0.8339
3676	0.8342
3685	0.8386
3694	0.8425
3703	0.8489
3712	0.8505
3721	0.85
3730	0.8495
3739	0.8493
3748	0.849
3757	0.8482
3766	0.8475
3775	0.847
3784	0.8468
3793	0.8467
