Infrared Spectrum: 11-DEOXYCORTICOSTERONE, PIVALATE
Formula: C26 H38 O4
CAS: 808-48-0
State: SOLID (1 mg / 200 mg KBr DISC) VS KBr
Class: COBLENTZ III
Instrument: PERKIN-ELMER 21 (GRATING)
Instrument parameters: FILTER AT ABOUT 10 MICRONS
Sampling: TRANSMISSION
Path length: 0.055 CM (THICKNESS)
Resolution: 2
1/CM	TRANSMITTANCE
3984.06	0.8848
3975.11	0.8848
3966.15	0.8849
3957.2	0.885
3948.25	0.8855
3939.3	0.8861
3930.34	0.8868
3921.39	0.8874
3912.44	0.888
3903.49	0.8887
3894.53	0.8894
3885.58	0.8902
3876.63	0.8909
3867.67	0.8917
3858.72	0.8924
3849.77	0.8932
3840.82	0.894
3831.86	0.8948
3822.91	0.8955
3813.96	0.8961
3805	0.8968
3796.05	0.8972
3787.1	0.8977
3778.15	0.898
3769.19	0.8984
3760.24	0.8987
3751.29	0.8986
3742.34	0.8986
3733.38	0.8986
3724.43	0.8985
3715.48	0.8986
3706.52	0.8988
3697.57	0.8989
3688.62	0.8991
3679.67	0.8994
3670.71	0.8999
3661.76	0.9004
3652.81	0.9004
3643.85	0.9005
3634.9	0.9006
3625.95	0.9004
3617	0.9002
3608.04	0.8999
3599.09	0.8994
3590.14	0.8978
3581.19	0.8951
3572.23	0.8925
3563.28	0.8918
3554.33	0.8911
3545.37	0.89
3536.42	0.8886
3527.47	0.8868
3518.52	0.8844
3509.56	0.882
3500.61	0.8793
3491.66	0.8765
3482.7	0.8737
3473.75	0.8701
3464.8	0.8664
3455.85	0.8632
3446.89	0.8604
3437.94	0.8564
3428.99	0.8533
3420.04	0.8525
3411.08	0.8537
3402.13	0.8552
3393.18	0.8564
3384.22	0.8571
3375.27	0.8578
3366.32	0.8585
3357.37	0.8591
3348.41	0.8593
3339.46	0.8596
3330.51	0.8599
3321.55	0.8602
3312.6	0.8605
3303.65	0.8609
3294.7	0.8619
3285.74	0.8629
3276.79	0.8642
3267.84	0.8662
3258.89	0.8683
3249.93	0.8704
3240.98	0.8726
3232.03	0.8747
3223.07	0.8761
3214.12	0.8771
3205.17	0.8775
3196.22	0.8777
3187.26	0.8778
3178.31	0.8784
3169.36	0.8793
3160.4	0.8802
3151.45	0.882
3142.5	0.8839
3133.55	0.8867
3124.59	0.8885
3115.64	0.8884
3106.69	0.8856
3097.74	0.8845
3088.78	0.8844
3079.83	0.8847
3070.88	0.8851
3061.92	0.8846
3052.97	0.8831
3044.02	0.8801
3035.07	0.8744
3026.11	0.8647
3017.16	0.8491
3008.21	0.8187
2999.26	0.7839
2990.3	0.6884
2981.35	0.5919
2972.4	0.4947
2963.44	0.4368
2954.49	0.4347
2945.54	0.4346
2936.59	0.4184
2927.63	0.4134
2918.68	0.414
2909.73	0.4345
2900.77	0.4699
2891.82	0.5023
2882.87	0.5423
2873.92	0.5557
2864.96	0.5688
2856.01	0.5827
2847.06	0.5972
2838.11	0.6139
2829.15	0.6399
2820.2	0.6954
2811.25	0.7863
2802.29	0.8302
2793.34	0.8485
2784.39	0.8584
2775.44	0.8675
2766.48	0.8728
2757.53	0.8764
2748.58	0.8793
2739.62	0.8817
2730.67	0.8841
2721.72	0.8866
2712.77	0.8889
2703.81	0.8908
2694.86	0.8925
2685.91	0.8944
2676.96	0.8963
2668	0.898
2659.05	0.8996
2650.1	0.9012
2641.14	0.9028
2632.19	0.904
2623.24	0.9053
2614.29	0.9065
2605.33	0.9077
2596.38	0.9086
2587.43	0.9092
2578.47	0.9099
2569.52	0.9102
2560.57	0.9102
2551.62	0.9101
2542.66	0.9104
2533.71	0.9107
2524.76	0.9108
2515.81	0.911
2506.85	0.9113
2497.9	0.9124
2488.95	0.9141
2479.99	0.9173
2471.04	0.9224
2462.09	0.9244
2453.14	0.9247
2444.18	0.9241
2435.23	0.9237
2426.28	0.9235
2417.32	0.9236
2408.37	0.9248
2399.42	0.9263
2390.47	0.9283
2381.51	0.9306
2372.56	0.9318
2363.61	0.9301
2354.66	0.9263
2345.7	0.9221
2336.75	0.9218
2327.8	0.9221
2318.84	0.9227
2309.89	0.9251
2300.94	0.9277
2291.99	0.9301
2283.03	0.9317
2274.08	0.9325
2265.13	0.9332
2256.17	0.9338
2247.22	0.9345
2238.27	0.9352
2229.32	0.9359
2220.36	0.9347
2211.41	0.9332
2202.46	0.9324
2193.51	0.9327
2184.55	0.9352
2175.6	0.9359
2166.65	0.9366
2157.69	0.9362
2148.74	0.9355
2139.79	0.9352
2130.84	0.935
2121.88	0.9349
2112.93	0.9348
2103.98	0.9367
2095.03	0.9391
2086.07	0.9392
2077.12	0.9374
2068.17	0.9368
2059.21	0.9365
2050.26	0.9363
2041.31	0.9361
2032.36	0.9359
2023.4	0.9365
2014.45	0.9373
2005.5	0.938
1996.54	0.9378
1987.59	0.9377
1978.64	0.9384
1969.69	0.9391
1960.73	0.9395
1951.78	0.9402
1942.83	0.9405
1933.88	0.9408
1924.92	0.9403
1915.97	0.9391
1907.02	0.9373
1898.06	0.9355
1889.11	0.9353
1880.16	0.9346
1871.21	0.9335
1862.25	0.9318
1853.3	0.9308
1844.35	0.9294
1835.39	0.9256
1826.44	0.9172
1817.49	0.9083
1808.54	0.9031
1799.58	0.9
1790.63	0.8953
1781.68	0.8876
1772.73	0.8693
1763.77	0.8239
1754.82	0.7415
1745.87	0.3907
1736.91	0.3019
1727.96	0.1425
1719.01	0.5293
1710.06	0.6925
1701.1	0.7181
1692.15	0.5703
1683.2	0.327
1674.24	0.1985
1665.29	0.512
1656.34	0.6686
1647.39	0.7247
1638.43	0.8062
1629.48	0.8035
1620.53	0.6502
1611.58	0.807
1602.62	0.861
1593.67	0.881
1584.72	0.8923
1575.76	0.8925
1566.81	0.8941
1557.86	0.8998
1548.91	0.9039
1539.95	0.9038
1531	0.8987
1522.05	0.8959
1513.09	0.8893
1504.14	0.882
1495.19	0.8259
1486.24	0.6173
1477.28	0.7107
1468.33	0.6907
1459.38	0.6813
1450.43	0.678
1441.47	0.6756
1432.52	0.6338
1423.57	0.6119
1414.61	0.7685
1405.66	0.7647
1396.71	0.6678
1387.76	0.7152
1378.8	0.6402
1369.85	0.5982
1360.9	0.711
1351.94	0.7008
1342.99	0.729
1334.04	0.7679
1325.09	0.8426
1316.13	0.8416
1307.18	0.8251
1298.23	0.7536
1289.28	0.5418
1280.32	0.5608
1271.37	0.6911
1262.42	0.7958
1253.46	0.8005
1244.51	0.6891
1235.56	0.5406
1226.61	0.6008
1217.65	0.7112
1208.7	0.5833
1199.75	0.6313
1190.8	0.652
1181.84	0.5511
1172.89	0.4325
1163.94	0.177
1154.98	0.4766
1146.03	0.6718
1137.08	0.7636
1128.13	0.7725
1119.17	0.7491
1110.22	0.6012
1101.27	0.4054
1092.31	0.7076
1083.36	0.7755
1074.41	0.7959
1065.46	0.7927
1056.5	0.7071
1047.55	0.7716
1038.6	0.7618
1029.65	0.7558
1020.69	0.8126
1011.74	0.8021
1002.79	0.7426
993.834	0.8219
984.881	0.7921
975.929	0.8069
966.976	0.8488
958.023	0.7733
949.07	0.798
940.117	0.7545
931.165	0.8651
922.212	0.8717
913.259	0.8376
904.306	0.8219
895.354	0.8616
886.401	0.8431
877.448	0.7333
868.495	0.8127
859.542	0.8092
850.59	0.8925
841.637	0.8839
832.684	0.8905
823.731	0.9029
814.779	0.8972
805.826	0.8971
796.873	0.8215
787.92	0.8857
778.968	0.835
770.015	0.7298
761.062	0.8928
752.109	0.8833
743.156	0.88
734.204	0.8757
725.251	0.889
716.298	0.8909
707.345	0.8872
698.393	0.8816
689.44	0.8561
680.487	0.7906
671.534	0.8688
