Infrared Spectrum: BENZISOSULFONAZOLE, 2,3-DIHYDRO-3-OXO-
Formula: C7 H5 N O3 S
CAS: 81-07-2
State: SOLID (SPLIT MULL, FLUOROLUBE FOR 3800-1333 AND NUJOL FOR 1333-400 CM ^-^1)
Melting point: 227 C
Class: COBLENTZ III
Instrument: DOW KBr FOREPRISM-GRATING
Instrument parameters: BLAZED AT 3.5, 12.0, 20.0 MICRON, CHANGED AT 5.0, 7.5, 14.9 MICRON
Sampling: TRANSMISSION
Resolution: 4
Origin: DOW CHEMICAL COMPANY
1/CM	TRANSMITTANCE
457.332	0.88
465.866	0.887
474.399	0.892
482.933	0.89
491.466	0.886
500	0.871
508.533	0.7471
517.067	0.3021
525.6	0.2639
534.134	0.286
542.667	0.862
551.201	0.89
559.734	0.903
568.268	0.895
576.802	0.856
585.335	0.7201
593.869	0.1561
602.402	0.784
610.936	0.923
619.469	0.929
628.003	0.836
636.536	0.899
645.07	0.927
653.603	0.933
662.137	0.945
670.67	0.878
679.204	0.778
687.738	0.717
696.271	0.672
704.805	0.567
713.338	0.615
721.872	0.626
730.405	0.68
738.939	0.737
747.472	0.781
756.006	0.3054
764.539	0.821
773.073	0.6881
781.606	0.911
790.14	0.896
798.674	0.946
807.207	0.963
815.741	0.961
824.274	0.961
832.808	0.958
841.341	0.957
849.875	0.951
858.408	0.952
866.942	0.948
875.475	0.93
884.009	0.895
892.542	0.7191
901.076	0.6229
909.61	0.8739
918.143	0.93
926.677	0.943
935.21	0.946
943.744	0.952
952.277	0.954
960.811	0.948
969.344	0.927
977.878	0.963
986.411	0.979
994.945	0.977
1003.48	0.961
1012.01	0.935
1020.55	0.974
1029.08	0.97
1037.61	0.964
1046.15	0.957
1054.68	0.821
1063.21	0.939
1071.75	0.94
1080.28	0.936
1088.81	0.935
1097.35	0.929
1105.88	0.893
1114.41	0.711
1122.95	0.4071
1131.48	0.71
1140.02	0.2963
1148.55	0.818
1157.08	0.646
1165.62	0.5667
1174.15	0.1001
1182.68	0.079
1191.22	0.6299
1199.75	0.793
1208.28	0.853
1216.82	0.853
1225.35	0.859
1233.88	0.819
1242.42	0.768
1250.95	0.5961
1259.48	0.4989
1268.02	0.822
1276.55	0.744
1285.09	0.581
1293.62	0.3229
1302.15	0.525
1310.69	0.516
1319.22	0.304
1327.75	0.305
1336.29	0.033
1344.82	0.181
1353.35	0.426
1361.89	0.669
1370.42	0.816
1378.95	0.862
1387.49	0.887
1396.02	0.895
1404.55	0.903
1413.09	0.892
1421.62	0.901
1430.16	0.912
1438.69	0.923
1447.22	0.912
1455.76	0.6549
1464.29	0.5741
1472.82	0.933
1481.36	0.946
1489.89	0.949
1498.42	0.952
1506.96	0.958
1515.49	0.957
1524.02	0.955
1532.56	0.954
1541.09	0.951
1549.62	0.949
1558.16	0.951
1566.69	0.948
1575.23	0.921
1583.76	0.875
1592.29	0.598
1600.83	0.915
1609.36	0.957
1617.89	0.955
1626.43	0.946
1634.96	0.936
1643.49	0.92
1652.03	0.878
1660.56	0.878
1669.09	0.867
1677.63	0.834
1686.16	0.782
1694.7	0.719
1703.23	0.57
1711.76	0.2889
1720.3	0.029
1728.83	0.048
1737.36	0.2791
1745.9	0.7809
1754.43	0.914
1762.96	0.937
1771.5	0.957
1780.03	0.994
1788.56	1.001
1797.1	0.998
1805.63	0.992
1814.16	0.989
1822.7	0.989
1831.23	0.989
1839.77	0.988
1848.3	0.983
1856.83	0.968
1865.37	0.949
1873.9	0.976
1882.43	0.982
1890.97	0.986
1899.5	0.98
1908.03	0.988
1916.57	0.986
1925.1	0.986
1933.63	0.979
1942.17	0.98
1950.7	0.982
1959.23	0.979
1967.77	0.97
1976.3	0.964
1984.84	0.979
1993.37	0.974
2001.9	0.97
2010.44	0.959
2018.97	0.9551
2027.5	0.9665
2036.04	0.968
2044.57	0.9664
2053.1	0.964
2061.64	0.963
2070.17	0.961
2078.7	0.961
2087.24	0.96
2095.77	0.96
2104.3	0.957
2112.84	0.9544
2121.37	0.951
2129.91	0.949
2138.44	0.9493
2146.97	0.949
2155.51	0.949
2164.04	0.9466
2172.57	0.9446
2181.11	0.939
2189.64	0.936
2198.17	0.9353
2206.71	0.9315
2215.24	0.9232
2223.77	0.9195
2232.31	0.9124
2240.84	0.909
2249.38	0.9082
2257.91	0.9057
2266.44	0.9012
2274.98	0.898
2283.51	0.8951
2292.04	0.8926
2300.58	0.892
2309.11	0.892
2317.64	0.8902
2326.18	0.887
2334.71	0.889
2343.24	0.89
2351.78	0.892
2360.31	0.893
2368.84	0.892
2377.38	0.8895
2385.91	0.884
2394.45	0.883
2402.98	0.886
2411.51	0.886
2420.05	0.886
2428.58	0.883
2437.11	0.88
2445.65	0.878
2454.18	0.874
2462.71	0.8689
2471.25	0.864
2479.78	0.8614
2488.31	0.8589
2496.85	0.853
2505.38	0.85
2513.91	0.847
2522.45	0.8457
2530.98	0.84
2539.52	0.834
2548.05	0.8286
2556.58	0.822
2565.12	0.8166
2573.65	0.8107
2582.18	0.796
2590.72	0.7865
2599.25	0.7795
2607.78	0.7783
2616.32	0.7795
2624.85	0.7701
2633.38	0.7527
2641.92	0.7393
2650.45	0.7252
2658.98	0.7084
2667.52	0.687
2676.05	0.657
2684.59	0.6308
2693.12	0.615
2701.65	0.618
2710.19	0.6278
2718.72	0.6348
2727.25	0.6444
2735.79	0.6489
2744.32	0.6544
2752.85	0.6638
2761.39	0.6764
2769.92	0.6909
2778.45	0.7035
2786.99	0.7129
2795.52	0.717
2804.06	0.717
2812.59	0.716
2821.12	0.714
2829.66	0.708
2838.19	0.7
2846.72	0.6929
2855.26	0.6828
2863.79	0.6716
2872.32	0.6506
2880.86	0.6324
2889.39	0.6146
2897.92	0.5936
2906.46	0.5664
2914.99	0.5375
2923.52	0.5136
2932.06	0.4834
2940.59	0.4585
2949.13	0.4356
2957.66	0.4223
2966.19	0.4046
2974.73	0.4002
2983.26	0.4127
2991.79	0.4287
3000.33	0.4475
3008.86	0.471
3017.39	0.493
3025.93	0.5113
3034.46	0.539
3042.99	0.5695
3051.53	0.5708
3060.06	0.5338
3068.59	0.4818
3077.13	0.443
3085.66	0.4002
3094.2	0.3865
3102.73	0.4612
3111.26	0.4862
3119.8	0.5173
3128.33	0.5565
3136.86	0.5927
3145.4	0.625
3153.93	0.6536
3162.46	0.6778
3171	0.7064
3179.53	0.719
3188.06	0.7309
3196.6	0.7549
3205.13	0.7749
3213.66	0.7865
3222.2	0.803
3230.73	0.8155
3239.27	0.8281
3247.8	0.831
3256.33	0.8341
3264.87	0.8537
3273.4	0.8622
3281.93	0.87
3290.47	0.874
3299	0.874
3307.53	0.875
3316.07	0.875
3324.6	0.875
3333.13	0.875
3341.67	0.875
3350.2	0.8727
3358.74	0.8696
3367.27	0.8596
3375.8	0.8528
3384.34	0.8468
3392.87	0.8432
3401.4	0.858
3409.94	0.867
3418.47	0.87
3427	0.868
3435.54	0.867
3444.07	0.865
3452.6	0.864
3461.14	0.859
3469.67	0.858
3478.2	0.856
3486.74	0.855
3495.27	0.855
3503.81	0.853
3512.34	0.8526
3520.87	0.8502
3529.41	0.8496
3537.94	0.847
3546.47	0.846
3555.01	0.8431
3563.54	0.8391
3572.07	0.84
3580.61	0.841
3589.14	0.84
3597.67	0.838
3606.21	0.837
3614.74	0.835
3623.27	0.833
3631.81	0.833
3640.34	0.833
3648.88	0.834
3657.41	0.8329
3665.94	0.83
3674.48	0.828
3683.01	0.827
3691.54	0.825
3700.08	0.825
3708.61	0.824
3717.14	0.8214
3725.68	0.821
3734.21	0.819
3742.74	0.8177
3751.28	0.8137
3759.81	0.812
3768.34	0.8114
3776.88	0.812
3785.41	0.81
3793.95	0.81
