Infrared Spectrum: Anthraquinone, 1-amino-2,4-dibromo-,
Formula: C14 H7 Br2 N O2
CAS: 81-49-2
State: SOLID (SPLIT MULL), FLUOROLUBE FOR 3800-1335 CM^-^1, NUJOL FOR 1335-460 CM^-^1
Melting point: 222 C
Class: COBLENTZ III
Instrument: DOW KBr FOREPRISM-GRATING
Instrument parameters: BLAZED AT 3.5, 12.0, 20.0 MICRON AND CHANGED AT 5.0, 7.5, 14.9 MICRON
Sampling: TRANSMISSION
Resolution: 2
Origin: DOW CHEMICAL COMPANY
1/CM	TRANSMITTANCE
3790	0.7215
3781	0.723
3772	0.7247
3763	0.7267
3754	0.7289
3745	0.7308
3736	0.7333
3727	0.7338
3718	0.7336
3709	0.7334
3700	0.7322
3691	0.7308
3682	0.7317
3673	0.7339
3664	0.735
3655	0.7354
3646	0.7355
3637	0.7362
3628	0.7375
3619	0.7369
3610	0.7351
3601	0.7315
3592	0.7374
3583	0.7378
3574	0.7312
3565	0.736
3556	0.7391
3547	0.7404
3538	0.7415
3529	0.7422
3520	0.743
3511	0.7432
3502	0.7432
3493	0.7425
3484	0.7417
3475	0.7395
3466	0.7358
3457	0.7307
3448	0.7228
3439	0.7055
3430	0.6674
3421	0.5962
3412	0.3909
3403	0.2853
3394	0.3262
3385	0.5396
3376	0.6049
3367	0.6328
3358	0.6547
3349	0.6708
3340	0.683
3331	0.6906
3322	0.6893
3313	0.6872
3304	0.6758
3295	0.627
3286	0.5549
3277	0.4862
3268	0.5484
3259	0.6198
3250	0.6584
3241	0.6783
3232	0.6875
3223	0.69
3214	0.6921
3205	0.6957
3196	0.7011
3187	0.7072
3178	0.7132
3169	0.7189
3160	0.7243
3151	0.7308
3142	0.7364
3133	0.7406
3124	0.7393
3115	0.7393
3106	0.7407
3097	0.7444
3088	0.7469
3079	0.7154
3070	0.7078
3061	0.728
3052	0.7365
3043	0.7431
3034	0.7484
3025	0.7524
3016	0.7505
3007	0.7517
2998	0.7571
2989	0.759
2980	0.7578
2971	0.754
2962	0.748
2953	0.7465
2944	0.7425
2935	0.7332
2926	0.7301
2917	0.7399
2908	0.7518
2899	0.76
2890	0.7653
2881	0.7671
2872	0.7664
2863	0.7625
2854	0.7605
2845	0.7676
2836	0.7748
2827	0.7815
2818	0.786
2809	0.7899
2800	0.7922
2791	0.7939
2782	0.7946
2773	0.7946
2764	0.796
2755	0.7968
2746	0.7988
2737	0.8007
2728	0.8022
2719	0.8031
2710	0.8043
2701	0.8055
2692	0.8064
2683	0.8041
2674	0.8001
2665	0.8005
2656	0.8026
2647	0.8047
2638	0.8067
2629	0.8083
2620	0.8095
2611	0.8107
2602	0.8118
2593	0.8128
2584	0.8141
2575	0.8151
2566	0.816
2557	0.8165
2548	0.8171
2539	0.8176
2530	0.8183
2521	0.8189
2512	0.8194
2503	0.8196
2494	0.8198
2485	0.8201
2476	0.8209
2467	0.8216
2458	0.8221
2449	0.8218
2440	0.8215
2431	0.821
2422	0.8209
2413	0.8207
2404	0.8203
2395	0.8181
2386	0.8151
2377	0.8149
2368	0.8158
2359	0.8158
2350	0.8171
2341	0.8151
2332	0.8105
2323	0.8091
2314	0.8084
2305	0.8106
2296	0.8115
2287	0.8114
2278	0.8118
2269	0.8146
2260	0.8197
2251	0.8246
2242	0.8296
2233	0.8342
2224	0.8385
2215	0.8415
2206	0.8437
2197	0.8434
2188	0.8425
2179	0.8438
2170	0.8454
2161	0.8471
2152	0.8487
2143	0.8503
2134	0.852
2125	0.8537
2116	0.8555
2107	0.8573
2098	0.8596
2089	0.862
2080	0.8641
2071	0.8659
2062	0.8678
2053	0.8699
2044	0.8721
2035	0.8742
2026	0.8763
2017	0.8777
2008	0.8777
1999	0.8602
1990	0.8543
1981	0.8599
1972	0.8587
1963	0.8561
1954	0.8623
1945	0.8592
1936	0.8601
1927	0.8655
1918	0.8656
1909	0.8662
1900	0.8661
1891	0.8661
1882	0.8649
1873	0.8616
1864	0.8612
1855	0.8645
1846	0.8658
1837	0.8667
1828	0.868
1819	0.8695
1810	0.8697
1801	0.8677
1792	0.8527
1783	0.8507
1774	0.8618
1765	0.8685
1756	0.8696
1747	0.8675
1738	0.8656
1729	0.8642
1720	0.8634
1711	0.8541
1702	0.8297
1693	0.7846
1684	0.7635
1675	0.4012
1666	0.6856
1657	0.7988
1648	0.8136
1639	0.6171
1630	0.563
1621	0.6883
1612	0.6562
1603	0.4143
1594	0.177
1585	0.3108
1576	0.6207
1567	0.7431
1558	0.7837
1549	0.8085
1540	0.622
1531	0.71
1522	0.4435
1513	0.4282
1504	0.7162
1495	0.7825
1486	0.7955
1477	0.7961
1468	0.8115
1459	0.8081
1450	0.8253
1441	0.8238
1432	0.7883
1423	0.808
1414	0.8101
1405	0.7822
1396	0.7187
1387	0.4441
1378	0.5933
1369	0.7511
1360	0.7804
1351	0.7358
1342	0.6442
1333	0.6392
1324	0.6754
1315	0.6699
1306	0.6393
1297	0.5999
1288	0.3579
1279	0.4198
1270	0.2928
1261	0.313
1252	0.5187
1243	0.5935
1234	0.6583
1225	0.7011
1216	0.7167
1207	0.719
1198	0.7176
1189	0.7071
1180	0.6711
1171	0.6009
1162	0.5893
1153	0.6344
1144	0.5657
1135	0.4606
1126	0.5373
1117	0.6117
1108	0.636
1099	0.6581
1090	0.6758
1081	0.6794
1072	0.6748
1063	0.6808
1054	0.689
1045	0.6834
1036	0.6994
1027	0.6986
1018	0.6123
1009	0.5721
1000	0.7093
991	0.7257
982	0.7342
973	0.7251
964	0.7256
955	0.7387
946	0.7317
937	0.7407
928	0.7495
919	0.7575
910	0.7657
901	0.7685
892	0.6038
883	0.7568
874	0.7774
865	0.7842
856	0.7832
847	0.7838
838	0.7825
829	0.791
820	0.7915
811	0.7862
802	0.6438
793	0.7495
784	0.7874
775	0.7806
766	0.7775
757	0.7739
748	0.7615
739	0.4104
730	0.7171
721	0.5441
712	0.6067
703	0.6765
694	0.7778
685	0.7856
676	0.7906
667	0.7865
658	0.7911
649	0.8084
640	0.8068
631	0.8071
622	0.7772
613	0.7978
604	0.8043
595	0.7968
586	0.6733
577	0.7907
568	0.7892
559	0.7849
550	0.7788
541	0.7705
532	0.7542
523	0.738
514	0.7189
505	0.6814
496	0.631
487	0.5755
478	0.6144
469	0.6435
460	0.6651
