Infrared Spectrum: 3-(Alpha-ACETONYLBENZYL)-4-HYDROXYCOUMARIN
Formula: C19 H16 O4
CAS: 81-81-2
State: SOLID (KBr PELLET)
Class: COBLENTZ
Instrument: PERKIN-ELMER
Sampling: TRANSMISSION
Resolution: 4
Origin: ABBOTT LABORATORIES - WASHBURN
MICROMETERS	TRANSMITTANCE
2.546	0.793
2.57907	0.793
2.61214	0.796
2.64521	0.796
2.67828	0.795
2.71135	0.795
2.74442	0.8
2.77749	0.7751
2.81056	0.7615
2.84363	0.7192
2.8767	0.6621
2.90977	0.6169
2.94284	0.5632
2.97591	0.5092
3.00898	0.4421
3.04205	0.3807
3.07512	0.4805
3.10819	0.5911
3.14126	0.6419
3.17433	0.6757
3.2074	0.7038
3.24047	0.7022
3.27354	0.6941
3.30661	0.695
3.33968	0.695
3.37275	0.692
3.40582	0.671
3.43889	0.6947
3.47196	0.714
3.50503	0.728
3.5381	0.742
3.57117	0.753
3.60424	0.757
3.63731	0.7631
3.67038	0.7682
3.70345	0.771
3.73652	0.775
3.76959	0.776
3.80266	0.776
3.83573	0.7761
3.8688	0.776
3.90187	0.775
3.93494	0.775
3.96801	0.775
4.00108	0.775
4.03415	0.775
4.06722	0.776
4.10029	0.776
4.13336	0.776
4.16643	0.776
4.1995	0.776
4.23257	0.776
4.26564	0.776
4.29871	0.776
4.33178	0.776
4.36485	0.78
4.39792	0.7859
4.43099	0.79
4.46406	0.79
4.49713	0.79
4.5302	0.79
4.56327	0.79
4.59634	0.79
4.62941	0.79
4.66248	0.79
4.69555	0.79
4.72862	0.79
4.76169	0.7909
4.79476	0.79
4.82783	0.79
4.8609	0.79
4.89397	0.79
4.92704	0.79
4.96011	0.791
4.99318	0.791
5.02625	0.791
5.05932	0.7883
5.09239	0.788
5.12546	0.7894
5.15853	0.79
5.1916	0.79
5.22467	0.79
5.25774	0.79
5.29081	0.7895
5.32388	0.7863
5.35695	0.788
5.39002	0.788
5.42309	0.786
5.45616	0.785
5.48923	0.7801
5.5223	0.7784
5.55537	0.7775
5.58844	0.778
5.62151	0.776
5.65458	0.7643
5.68765	0.7254
5.72072	0.58
5.75379	0.4292
5.78686	0.3596
5.81993	0.3419
5.853	0.2991
5.88607	0.1887
5.91914	0.0754
5.95221	0.0713
5.98528	0.5027
6.01834	0.5394
6.05141	0.5627
6.08448	0.4178
6.11755	0.2384
6.15062	0.0785
6.18369	0.0512
6.21676	0.2453
6.24983	0.5823
6.2829	0.5993
6.31597	0.37
6.34904	0.198
6.38211	0.4903
6.41518	0.6537
6.44825	0.6814
6.48132	0.706
6.51439	0.704
6.54746	0.707
6.58053	0.7064
6.6136	0.6806
6.64667	0.5594
6.67974	0.2959
6.71281	0.6048
6.74588	0.6849
6.77895	0.6777
6.81202	0.6099
6.84509	0.5361
6.87816	0.36
6.91123	0.598
6.9443	0.6273
6.97737	0.6485
7.01044	0.657
7.04351	0.6229
7.07658	0.5605
7.10965	0.5247
7.14272	0.4653
7.17579	0.3582
7.20886	0.2929
7.24193	0.2743
7.275	0.3781
7.30807	0.6007
7.34114	0.634
7.37421	0.6429
7.40728	0.6384
7.44035	0.5804
7.47342	0.565
7.50649	0.542
7.53956	0.5019
7.57263	0.605
7.6057	0.628
7.63877	0.6161
7.67184	0.6189
7.70491	0.6247
7.73798	0.5775
7.77105	0.5155
7.80412	0.4195
7.83719	0.3759
7.87026	0.4923
7.90333	0.4897
7.9364	0.4348
7.96947	0.4873
8.00254	0.4167
8.03561	0.305
8.06868	0.4439
8.10175	0.5527
8.13482	0.5723
8.16789	0.5196
8.20096	0.438
8.23403	0.5114
8.2671	0.5517
8.30017	0.557
8.33324	0.5307
8.36631	0.4223
8.39938	0.307
8.43245	0.3977
8.46552	0.3855
8.49859	0.3322
8.53166	0.3728
8.56473	0.3639
8.5978	0.3369
8.63087	0.3788
8.66394	0.4845
8.69701	0.5222
8.73008	0.5457
8.76315	0.5783
8.79622	0.5985
8.82929	0.604
8.86236	0.616
8.89543	0.6408
8.9285	0.642
8.96157	0.6143
8.99464	0.5271
9.02771	0.3948
9.06078	0.3179
9.09385	0.3393
9.12692	0.4628
9.15999	0.4682
9.19306	0.3927
9.22613	0.3619
9.2592	0.2671
9.29227	0.1905
9.32534	0.1898
9.35841	0.2174
9.39148	0.2719
9.42455	0.4504
9.45762	0.5316
9.49069	0.5894
9.52376	0.6353
9.55683	0.6547
9.5899	0.671
9.62297	0.6481
9.65604	0.5577
9.68911	0.54
9.72218	0.5296
9.75525	0.6544
9.78832	0.673
9.82139	0.684
9.85446	0.6593
9.88753	0.5999
9.9206	0.5358
9.95367	0.5049
9.98674	0.5262
10.0198	0.3839
10.0529	0.4506
10.0859	0.5094
10.119	0.56
10.1521	0.5893
10.1852	0.6287
10.2182	0.6636
10.2513	0.6898
10.2844	0.7015
10.3174	0.7097
10.3505	0.71
10.3836	0.714
10.4166	0.714
10.4497	0.6753
10.4828	0.5719
10.5159	0.5406
10.5489	0.6181
10.582	0.6804
10.6151	0.702
10.6481	0.7199
10.6812	0.727
10.7143	0.728
10.7473	0.7273
10.7804	0.7097
10.8135	0.6632
10.8466	0.5899
10.8796	0.5425
10.9127	0.5804
10.9458	0.5781
10.9788	0.5192
11.0119	0.4821
11.045	0.532
11.078	0.5388
11.1111	0.4836
11.1442	0.5186
11.1773	0.6486
11.2103	0.6897
11.2434	0.6894
11.2765	0.6436
11.3095	0.5561
11.3426	0.5733
11.3757	0.5886
11.4087	0.596
11.4418	0.6044
11.4749	0.621
11.508	0.6468
11.541	0.673
11.5741	0.6848
11.6072	0.69
11.6402	0.7047
11.6733	0.7269
11.7064	0.733
11.7394	0.7375
11.7725	0.7438
11.8056	0.748
11.8387	0.7483
11.8717	0.7502
11.9048	0.75
11.9379	0.7569
11.9709	0.763
12.004	0.763
12.0371	0.7625
12.0701	0.763
12.1032	0.7588
12.1363	0.7323
12.1694	0.6931
12.2024	0.6487
12.2355	0.6016
12.2686	0.585
12.3016	0.583
12.3347	0.59
12.3678	0.6029
12.4008	0.606
12.4339	0.6115
12.467	0.6138
12.5001	0.6365
12.5331	0.6467
12.5662	0.6602
12.5993	0.6628
12.6323	0.6682
12.6654	0.6677
12.6985	0.6451
12.7315	0.6258
12.7646	0.6392
12.7977	0.657
12.8308	0.666
12.8638	0.667
12.8969	0.6535
12.93	0.6091
12.963	0.5464
12.9961	0.451
13.0292	0.3208
13.0622	0.2103
13.0953	0.152
13.1284	0.2413
13.1615	0.2841
13.1945	0.2706
13.2276	0.19
13.2607	0.2231
13.2937	0.3579
13.3268	0.4114
13.3599	0.4674
13.3929	0.5281
13.426	0.609
13.4591	0.6584
13.4922	0.6943
13.5252	0.7148
13.5583	0.7186
13.5914	0.727
13.6244	0.728
13.6575	0.728
13.6906	0.73
13.7236	0.73
13.7567	0.73
13.7898	0.73
13.8229	0.73
13.8559	0.73
13.889	0.7242
13.9221	0.723
13.9551	0.7184
13.9882	0.712
14.0213	0.6982
14.0543	0.6706
14.0874	0.6485
14.1205	0.6002
14.1536	0.5454
14.1866	0.4709
14.2197	0.3889
14.2528	0.323
14.2858	0.289
14.3189	0.3141
14.352	0.3718
14.385	0.493
14.4181	0.587
14.4512	0.6169
14.4843	0.636
14.5173	0.6413
14.5504	0.651
14.5835	0.6538
14.6165	0.657
14.6496	0.6606
14.6827	0.6782
14.7157	0.68
14.7488	0.6795
14.7819	0.674
14.815	0.667
14.848	0.6655
14.8811	0.662
14.9142	0.662
14.9472	0.661
14.9803	0.636
15.0134	0.6291
