Infrared Spectrum: NAPHTHALIC ANHYDRIDE
Formula: C12 H6 O3
CAS: 81-84-5
State: SOLID (1.0% IN KBr PELLET)
Class: COBLENTZ
Instrument: Not specified, most likely a prism, grating, or hybrid spectrometer.
Sampling: TRANSMISSION
Path length: 0.0355 CM THICK
Resolution: 4
Origin: ANDERSON PHYSICAL LABORATORY
1/CM	TRANSMITTANCE
667.813	0.557
676.251	0.795
684.688	0.789
693.126	0.777
701.563	0.754
710.001	0.723
718.438	0.5382
726.876	0.79
735.313	0.768
743.751	0.724
752.188	0.657
760.626	0.5092
769.063	0.0614
777.501	0.1927
785.938	0.7999
794.376	0.769
802.813	0.857
811.251	0.84
819.688	0.839
828.126	0.813
836.563	0.711
845.001	0.4507
853.438	0.861
861.876	0.846
870.313	0.833
878.751	0.827
887.188	0.81
895.626	0.798
904.063	0.784
912.501	0.769
920.938	0.739
929.376	0.72
937.813	0.712
946.251	0.693
954.688	0.625
963.126	0.619
971.563	0.557
980.001	0.545
988.438	0.451
996.876	0.342
1005.31	0.21
1013.75	0.069
1022.19	0.2268
1030.63	0.4779
1039.06	0.696
1047.5	0.702
1055.94	0.69
1064.38	0.652
1072.81	0.374
1081.25	0.654
1089.69	0.621
1098.13	0.5651
1106.56	0.4931
1115	0.3052
1123.44	0.135
1131.88	0.6358
1140.31	0.757
1148.75	0.721
1157.19	0.693
1165.63	0.606
1174.06	0.363
1182.5	0.584
1190.94	0.3231
1199.38	0.6149
1207.81	0.616
1216.25	0.372
1224.69	0.607
1233.13	0.23
1241.56	0.624
1250	0.688
1258.44	0.676
1266.88	0.658
1275.31	0.6
1283.75	0.5091
1292.19	0.2731
1300.63	0.0601
1309.06	0.112
1317.5	0.4039
1325.94	0.813
1334.38	0.878
1342.81	0.83
1351.25	0.6422
1359.69	0.697
1368.13	0.685
1376.56	0.681
1385	0.575
1393.44	0.69
1401.88	0.496
1410.31	0.469
1418.75	0.768
1427.19	0.715
1435.63	0.5441
1444.06	0.5958
1452.5	0.756
1460.94	0.732
1469.38	0.735
1477.81	0.732
1486.25	0.721
1494.69	0.7
1503.13	0.64
1511.56	0.372
1520	0.6959
1528.44	0.697
1536.88	0.666
1545.31	0.598
1553.75	0.539
1562.19	0.401
1570.63	0.239
1579.06	0.117
1587.5	0.248
1595.94	0.415
1604.38	0.5829
1612.81	0.723
1621.25	0.684
1629.69	0.666
1638.13	0.633
1646.56	0.598
1655	0.55
1663.44	0.514
1671.88	0.479
1680.31	0.46
1688.75	0.446
1697.19	0.4
1705.63	0.368
1714.06	0.272
1722.5	0.193
1730.94	0.048
1739.38	0.034
1747.81	0.124
1756.25	0.066
1764.69	0.028
1773.13	0.0699
1781.56	0.3079
1790	0.452
1798.44	0.5529
1806.88	0.795
1815.31	0.903
1823.75	0.908
1832.19	0.876
1840.63	0.902
1849.06	0.927
1857.5	0.938
1865.94	0.948
1874.38	0.95
1882.81	0.93
1891.25	0.929
1899.69	0.93
1908.13	0.92
1916.56	0.909
1925	0.899
1933.44	0.888
1941.88	0.888
1950.31	0.893
1958.75	0.884
1967.19	0.86
1975.63	0.851
1984.06	0.852
1992.5	0.861
2000.94	0.8805
2009.38	0.8765
2017.81	0.8705
2026.25	0.864
2034.69	0.8563
2043.13	0.8515
2051.56	0.8487
2060	0.848
2068.44	0.8475
2076.88	0.8424
2085.31	0.8351
2093.75	0.8219
2102.19	0.8145
2110.63	0.813
2119.06	0.8158
2127.5	0.818
2135.94	0.818
2144.38	0.816
2152.81	0.8106
2161.25	0.801
2169.69	0.7994
2178.13	0.796
2186.56	0.795
2195	0.7929
2203.44	0.7911
2211.88	0.7834
2220.31	0.7802
2228.75	0.78
2237.19	0.78
2245.63	0.7783
2254.06	0.7687
2262.5	0.7627
2270.94	0.7583
2279.38	0.754
2287.81	0.7477
2296.25	0.7438
2304.69	0.742
2313.13	0.7414
2321.56	0.741
2330	0.7411
2338.44	0.742
2346.88	0.742
2355.31	0.742
2363.75	0.741
2372.19	0.7379
2380.63	0.7354
2389.06	0.7333
2397.5	0.7318
2405.94	0.726
2414.38	0.7234
2422.81	0.7201
2431.25	0.7176
2439.69	0.7105
2448.13	0.7067
2456.56	0.705
2465	0.7029
2473.44	0.6996
2481.88	0.6977
2490.31	0.6961
2498.75	0.696
2507.19	0.696
2515.63	0.694
2524.06	0.693
2532.5	0.69
2540.94	0.688
2549.38	0.688
2557.81	0.688
2566.25	0.688
2574.69	0.688
2583.13	0.6873
2591.56	0.687
2600	0.684
2608.44	0.6816
2616.88	0.678
2625.31	0.676
2633.75	0.6728
2642.19	0.6686
2650.63	0.666
2659.06	0.663
2667.5	0.6604
2675.94	0.6561
2684.38	0.655
2692.81	0.658
2701.25	0.66
2709.69	0.66
2718.13	0.66
2726.56	0.66
2735	0.6573
2743.44	0.6506
2751.88	0.6482
2760.31	0.642
2768.75	0.639
2777.19	0.6355
2785.63	0.6257
2794.06	0.622
2802.5	0.6205
2810.94	0.617
2819.38	0.6152
2827.81	0.615
2836.25	0.615
2844.69	0.615
2853.13	0.6158
2861.56	0.6149
2870	0.6121
2878.44	0.6065
2886.88	0.5971
2895.31	0.5949
2903.75	0.593
2912.19	0.593
2920.63	0.592
2929.06	0.592
2937.5	0.59
2945.94	0.5862
2954.38	0.5814
2962.81	0.5748
2971.25	0.5704
2979.69	0.569
2988.13	0.5655
2996.56	0.5556
3005	0.5477
3013.44	0.5432
3021.88	0.531
3030.31	0.5239
3038.75	0.5233
3047.19	0.5308
3055.63	0.5431
3064.06	0.5534
3072.5	0.5593
3080.94	0.5626
3089.38	0.5604
3097.81	0.553
3106.25	0.5506
3114.69	0.55
3123.13	0.5483
3131.56	0.5479
3140	0.5463
3148.44	0.545
3156.88	0.544
3165.31	0.5406
3173.75	0.538
3182.19	0.5335
3190.63	0.5302
3199.06	0.5255
3207.5	0.5206
3215.94	0.518
3224.38	0.5152
3232.81	0.5137
3241.25	0.5102
3249.69	0.5047
3258.13	0.5003
3266.56	0.497
3275	0.4935
3283.44	0.4873
3291.88	0.4792
3300.31	0.4747
3308.75	0.4711
3317.19	0.4669
3325.63	0.4582
3334.06	0.4484
3342.5	0.4424
3350.94	0.4363
3359.38	0.4331
3367.81	0.4208
3376.25	0.4111
3384.69	0.41
3393.13	0.409
3401.56	0.4092
3410	0.41
3418.44	0.412
3426.88	0.413
3435.31	0.4194
3443.75	0.4229
3452.19	0.4264
3460.63	0.431
3469.06	0.4422
3477.5	0.4455
3485.94	0.448
3494.38	0.454
3502.81	0.4607
3511.25	0.4665
3519.69	0.4685
3528.13	0.47
3536.56	0.4728
3545	0.4795
3553.44	0.482
3561.88	0.485
3570.31	0.4885
3578.75	0.4935
3587.19	0.496
3595.63	0.497
3604.06	0.4993
3612.5	0.5011
3620.94	0.502
3629.38	0.502
3637.81	0.502
3646.25	0.502
3654.69	0.502
3663.13	0.502
3671.56	0.502
3680	0.502
3688.44	0.502
3696.88	0.4999
3705.31	0.499
3713.75	0.499
3722.19	0.4974
3730.63	0.497
3739.06	0.497
3747.5	0.497
3755.94	0.497
3764.38	0.496
3772.81	0.496
3781.25	0.496
3789.69	0.4932
3798.13	0.4898
3806.56	0.487
3815	0.4822
3823.44	0.4785
3831.88	0.476
3840.31	0.476
3848.75	0.475
3857.19	0.475
3865.63	0.475
3874.06	0.475
3882.5	0.475
3890.94	0.475
3899.38	0.475
3907.81	0.475
3916.25	0.475
3924.69	0.475
3933.13	0.475
3941.56	0.475
3950	0.4737
3958.44	0.473
3966.88	0.472
3975.31	0.472
3983.75	0.472
