Infrared Spectrum: PHOSPHOROCHLORIDIC ACID, DIMETHYL ESTER
Formula: C2 H6 Cl O3 P
CAS: 813-77-4
State: SOLUTION (2% IN CCl4 FOR 3800-1333, 2% IN CS2 FOR 1333-450 CM^-^1)
Class: COBLENTZ III
Instrument: DOW KBr FOREPRISM-GRATING
Instrument parameters: BLAZED AT 3.5, 12.0, 20.0 MICRON, CHANGED AT 5.0, 7.5, 14.9 MICRON
Sampling: TRANSMISSION
Path length: 0.011, 0.011 CM
Resolution: 4
Origin: DOW CHEMICAL COMPANY
1/CM	TRANSMITTANCE
445.773	0.877
454.519	0.877
463.266	0.877
472.012	0.877
480.759	0.886
489.505	0.899
498.251	0.931
506.998	0.931
515.744	0.931
524.49	0.925
533.237	0.888
541.983	0.767
550.73	0.479
559.476	0.49
568.222	0.702
576.969	0.758
585.715	0.813
594.461	0.777
603.208	0.784
611.954	0.915
620.701	0.976
629.447	0.978
638.193	0.972
646.94	0.952
655.686	0.955
664.433	0.989
673.179	1.006
681.925	1.016
690.672	1.014
699.418	1.013
708.164	1.013
716.911	1.013
725.657	1.012
734.404	1.008
743.15	1.002
751.896	0.967
760.643	0.8479
769.389	0.513
778.135	0.727
786.882	0.694
795.628	0.745
804.375	0.91
813.121	0.979
821.867	0.98
830.614	0.929
839.36	0.723
848.107	0.524
856.853	0.692
865.599	0.825
874.346	0.899
883.092	0.953
891.838	1
900.585	1.019
909.331	1.027
918.078	1.027
926.824	1.027
935.57	1.024
944.317	1.021
953.063	1.016
961.81	1.012
970.556	1.005
979.302	1.002
988.049	0.997
996.795	0.979
1005.54	0.94
1014.29	0.841
1023.03	0.5439
1031.78	0.096
1040.53	0.074
1049.27	0.1191
1058.02	0.38
1066.77	0.376
1075.51	0.6221
1084.26	0.847
1093.01	0.925
1101.75	0.957
1110.5	0.979
1119.24	0.994
1127.99	0.998
1136.74	1
1145.48	0.997
1154.23	0.994
1162.98	0.983
1171.72	0.945
1180.47	0.8159
1189.22	0.803
1197.96	0.934
1206.71	0.986
1215.45	1.001
1224.2	1.01
1232.95	1.01
1241.69	0.997
1250.44	0.979
1259.19	0.964
1267.93	0.922
1276.68	0.847
1285.43	0.6669
1294.17	0.343
1302.92	0.4069
1311.66	0.3961
1320.41	0.746
1329.16	0.824
1337.9	0.914
1346.65	0.955
1355.4	0.963
1364.14	0.97
1372.89	0.976
1381.64	0.98
1390.38	0.98
1399.13	0.976
1407.87	0.955
1416.62	0.953
1425.37	0.95
1434.11	0.942
1442.86	0.905
1451.61	0.78
1460.35	0.795
1469.1	0.837
1477.85	0.882
1486.59	0.881
1495.34	0.858
1504.09	0.814
1512.83	0.761
1521.58	0.716
1530.32	0.662
1539.07	0.57
1547.82	0.472
1556.56	0.482
1565.31	0.562
1574.06	0.649
1582.8	0.681
1591.55	0.73
1600.3	0.814
1609.04	0.893
1617.79	0.933
1626.53	0.953
1635.28	0.956
1644.03	0.956
1652.77	0.968
1661.52	0.976
1670.27	0.983
1679.01	0.987
1687.76	0.989
1696.51	0.99
1705.25	0.99
1714	0.989
1722.74	0.99
1731.49	0.99
1740.24	0.99
1748.98	0.99
1757.73	0.99
1766.48	0.99
1775.22	0.99
1783.97	0.989
1792.72	0.987
1801.46	0.985
1810.21	0.978
1818.95	0.976
1827.7	0.976
1836.45	0.976
1845.19	0.978
1853.94	0.982
1862.69	0.983
1871.43	0.983
1880.18	0.983
1888.93	0.983
1897.67	0.98
1906.42	0.979
1915.17	0.98
1923.91	0.983
1932.66	0.987
1941.4	0.99
1950.15	0.99
1958.9	0.989
1967.64	0.989
1976.39	0.989
1985.14	0.987
1993.88	0.986
2002.63	0.983
2011.38	0.983
2020.12	0.982
2028.87	0.982
2037.61	0.98
2046.36	0.98
2055.11	0.98
2063.85	0.98
2072.6	0.982
2081.35	0.98
2090.09	0.98
2098.84	0.98
2107.59	0.9812
2116.33	0.982
2125.08	0.982
2133.82	0.98
2142.57	0.98
2151.32	0.98
2160.06	0.98
2168.81	0.979
2177.56	0.9784
2186.3	0.978
2195.05	0.978
2203.8	0.978
2212.54	0.976
2221.29	0.976
2230.03	0.976
2238.78	0.975
2247.53	0.975
2256.27	0.968
2265.02	0.964
2273.77	0.9593
2282.51	0.9563
2291.26	0.9535
2300.01	0.953
2308.75	0.9545
2317.5	0.959
2326.25	0.961
2334.99	0.961
2343.74	0.964
2352.48	0.964
2361.23	0.9666
2369.98	0.98
2378.72	0.9804
2387.47	0.979
2396.22	0.979
2404.96	0.979
2413.71	0.979
2422.46	0.979
2431.2	0.979
2439.95	0.979
2448.69	0.979
2457.44	0.979
2466.19	0.979
2474.93	0.979
2483.68	0.979
2492.43	0.979
2501.17	0.979
2509.92	0.9791
2518.67	0.979
2527.41	0.979
2536.16	0.978
2544.9	0.9761
2553.65	0.978
2562.4	0.976
2571.14	0.975
2579.89	0.975
2588.64	0.975
2597.38	0.975
2606.13	0.975
2614.88	0.975
2623.62	0.975
2632.37	0.975
2641.11	0.975
2649.86	0.975
2658.61	0.975
2667.35	0.975
2676.1	0.975
2684.85	0.975
2693.59	0.975
2702.34	0.975
2711.09	0.975
2719.83	0.975
2728.58	0.975
2737.32	0.975
2746.07	0.975
2754.82	0.9751
2763.56	0.975
2772.31	0.975
2781.06	0.974
2789.8	0.972
2798.55	0.972
2807.3	0.972
2816.04	0.971
2824.79	0.97
2833.54	0.9678
2842.28	0.9624
2851.03	0.9397
2859.77	0.8187
2868.52	0.9531
2877.27	0.964
2886.01	0.9638
2894.76	0.9593
2903.51	0.955
2912.25	0.953
2921	0.952
2929.75	0.9497
2938.49	0.941
2947.24	0.921
2955.98	0.7518
2964.73	0.7114
2973.48	0.9147
2982.22	0.933
2990.97	0.9257
2999.72	0.906
3008.46	0.903
3017.21	0.908
3025.96	0.91
3034.7	0.9201
3043.45	0.9357
3052.19	0.9428
3060.94	0.9505
3069.69	0.9606
3078.43	0.964
3087.18	0.965
3095.93	0.965
3104.67	0.965
3113.42	0.963
3122.17	0.9606
3130.91	0.959
3139.66	0.959
3148.4	0.96
3157.15	0.9619
3165.9	0.964
3174.64	0.965
3183.39	0.97
3192.14	0.9715
3200.88	0.9715
3209.63	0.9745
3218.38	0.975
3227.12	0.975
3235.87	0.976
3244.62	0.976
3253.36	0.976
3262.11	0.978
3270.85	0.976
3279.6	0.976
3288.35	0.976
3297.09	0.976
3305.84	0.976
3314.59	0.976
3323.33	0.976
3332.08	0.975
3340.83	0.975
3349.57	0.9744
3358.32	0.974
3367.06	0.974
3375.81	0.9727
3384.56	0.972
3393.3	0.972
3402.05	0.974
3410.8	0.975
3419.54	0.976
3428.29	0.976
3437.04	0.978
3445.78	0.9783
3454.53	0.979
3463.27	0.98
3472.02	0.9845
3480.77	0.9857
3489.51	0.986
3498.26	0.9885
3507.01	0.989
3515.75	0.989
3524.5	0.991
3533.25	0.993
3541.99	0.9938
3550.74	0.995
3559.48	0.998
3568.23	0.998
3576.98	0.998
3585.72	0.998
3594.47	0.998
3603.22	0.998
3611.96	1
3620.71	1
3629.46	1
3638.2	1.001
3646.95	1.001
3655.7	1.001
3664.44	1.001
3673.19	1
3681.93	0.9971
3690.68	0.995
3699.43	0.9998
3708.17	1.001
3716.92	1.001
3725.67	1.001
3734.41	1.002
3743.16	1.002
3751.91	1.002
3760.65	1.002
3769.4	1.002
3778.14	1.002
3786.89	1.001
