Infrared Spectrum: ACRYLYL CHLORIDE
Formula: C3 H3 O Cl
CAS: 814-68-6
Class: COBLENTZ
Instrument: Not specified, most likely a grating spectrometer.
Sampling: TRANSMISSION
Path length: CAPILLARY FILM
Resolution: 4
Origin: STANDARD OIL OF OHIO
1/CM	TRANSMITTANCE
603.14	0.712
611.594	0.714
620.048	0.729
628.502	0.75
636.956	0.758
645.411	0.756
653.865	0.767
662.319	0.702
670.773	0.636
679.227	0.685
687.681	0.659
696.135	0.534
704.589	0.411
713.044	0.702
721.498	0.799
729.952	0.785
738.406	0.687
746.86	0.748
755.314	0.651
763.768	0.821
772.222	0.852
780.676	0.863
789.131	0.863
797.585	0.86
806.039	0.862
814.493	0.862
822.947	0.863
831.401	0.863
839.855	0.858
848.309	0.843
856.763	0.806
865.218	0.744
873.672	0.732
882.126	0.75
890.58	0.731
899.034	0.707
907.488	0.707
915.942	0.647
924.396	0.467
932.851	0.277
941.305	0.372
949.759	0.447
958.213	0.318
966.667	0.176
975.121	0.175
983.575	0.248
992.029	0.46
1000.48	0.603
1008.94	0.705
1017.39	0.755
1025.85	0.772
1034.3	0.748
1042.75	0.627
1051.21	0.698
1059.66	0.724
1068.12	0.732
1076.57	0.714
1085.02	0.772
1093.48	0.761
1101.93	0.763
1110.39	0.755
1118.84	0.746
1127.3	0.666
1135.75	0.375
1144.2	0.217
1152.66	0.557
1161.11	0.697
1169.57	0.687
1178.02	0.721
1186.47	0.785
1194.93	0.777
1203.38	0.758
1211.84	0.819
1220.29	0.829
1228.74	0.835
1237.2	0.831
1245.65	0.838
1254.11	0.85
1262.56	0.848
1271.02	0.84
1279.47	0.807
1287.92	0.812
1296.38	0.799
1304.83	0.853
1313.29	0.86
1321.74	0.858
1330.19	0.84
1338.65	0.821
1347.1	0.835
1355.56	0.84
1364.01	0.823
1372.46	0.789
1380.92	0.654
1389.37	0.457
1397.83	0.552
1406.28	0.695
1414.74	0.801
1423.19	0.838
1431.64	0.84
1440.1	0.845
1448.55	0.86
1457.01	0.901
1465.46	0.903
1473.91	0.903
1482.37	0.904
1490.82	0.903
1499.28	0.897
1507.73	0.906
1516.18	0.909
1524.64	0.909
1533.09	0.909
1541.55	0.909
1550	0.909
1558.46	0.908
1566.91	0.906
1575.36	0.899
1583.82	0.882
1592.27	0.877
1600.73	0.838
1609.18	0.627
1617.63	0.799
1626.09	0.852
1634.54	0.867
1643	0.879
1651.45	0.879
1659.9	0.872
1668.36	0.87
1676.81	0.867
1685.27	0.862
1693.72	0.841
1702.18	0.792
1710.63	0.761
1719.08	0.704
1727.54	0.649
1735.99	0.476
1744.45	0.29
1752.9	0.161
1761.35	0.142
1769.81	0.159
1778.26	0.2
1786.72	0.306
1795.17	0.396
1803.62	0.469
1812.08	0.593
1820.53	0.697
1828.99	0.78
1837.44	0.824
1845.9	0.846
1854.35	0.85
1862.8	0.846
1871.26	0.846
1879.71	0.857
1888.17	0.877
1896.62	0.884
1905.07	0.886
1913.53	0.884
1921.98	0.882
1930.44	0.879
1938.89	0.875
1947.34	0.869
1955.8	0.867
1964.25	0.875
1972.71	0.88
1981.16	0.894
1989.62	0.901
1998.07	0.903
2006.52	0.904
2014.98	0.904
2023.43	0.903
2031.89	0.903
2040.34	0.903
2048.79	0.904
2057.25	0.904
2065.7	0.904
2074.16	0.901
2082.61	0.904
2091.06	0.909
2099.52	0.913
2107.97	0.914
2116.43	0.914
2124.88	0.914
2133.34	0.914
2141.79	0.914
2150.24	0.914
2158.7	0.914
2167.15	0.914
2175.61	0.914
2184.06	0.913
2192.51	0.911
2200.97	0.911
2209.42	0.913
2217.88	0.911
2226.33	0.914
2234.78	0.914
2243.24	0.914
2251.69	0.913
2260.15	0.914
2268.6	0.913
2277.05	0.911
2285.51	0.909
2293.96	0.913
2302.42	0.914
2310.87	0.916
2319.33	0.916
2327.78	0.916
2336.23	0.914
2344.69	0.911
2353.14	0.914
2361.6	0.911
2370.05	0.913
2378.5	0.911
2386.96	0.911
2395.41	0.909
2403.87	0.909
2412.32	0.911
2420.77	0.908
2429.23	0.909
2437.68	0.909
2446.14	0.909
2454.59	0.909
2463.05	0.908
2471.5	0.909
2479.95	0.908
2488.41	0.908
2496.86	0.911
2505.32	0.909
2513.77	0.909
2522.22	0.908
2530.68	0.904
2539.13	0.906
2547.59	0.906
2556.04	0.906
2564.49	0.904
2572.95	0.904
2581.4	0.904
2589.86	0.904
2598.31	0.904
2606.77	0.904
2615.22	0.904
2623.67	0.904
2632.13	0.904
2640.58	0.904
2649.04	0.904
2657.49	0.903
2665.94	0.901
2674.4	0.897
2682.85	0.897
2691.31	0.901
2699.76	0.903
2708.21	0.904
2716.67	0.903
2725.12	0.904
2733.58	0.901
2742.03	0.901
2750.49	0.901
2758.94	0.901
2767.39	0.901
2775.85	0.901
2784.3	0.903
2792.76	0.901
2801.21	0.901
2809.66	0.903
2818.12	0.901
2826.57	0.904
2835.03	0.903
2843.48	0.901
2851.93	0.899
2860.39	0.897
2868.84	0.896
2877.3	0.891
2885.75	0.889
2894.21	0.889
2902.66	0.886
2911.11	0.886
2919.57	0.884
2928.02	0.882
2936.48	0.884
2944.93	0.887
2953.38	0.884
2961.84	0.88
2970.29	0.874
2978.75	0.874
2987.2	0.879
2995.65	0.88
3004.11	0.88
3012.56	0.88
3021.02	0.879
3029.47	0.875
3037.93	0.875
3046.38	0.877
3054.83	0.879
3063.29	0.877
3071.74	0.875
3080.2	0.875
3088.65	0.875
3097.1	0.877
3105.56	0.877
3114.01	0.87
3122.47	0.875
3130.92	0.882
3139.37	0.886
3147.83	0.887
3156.28	0.889
3164.74	0.891
3173.19	0.891
3181.65	0.891
3190.1	0.892
3198.55	0.896
3207.01	0.897
3215.46	0.899
3223.92	0.899
3232.37	0.899
3240.82	0.899
3249.28	0.899
3257.73	0.899
3266.19	0.899
3274.64	0.899
3283.09	0.897
3291.55	0.897
3300	0.897
3308.46	0.897
3316.91	0.897
3325.37	0.896
3333.82	0.896
3342.27	0.894
3350.73	0.892
3359.18	0.889
3367.64	0.889
3376.09	0.891
3384.54	0.889
3393	0.892
3401.45	0.892
3409.91	0.889
3418.36	0.887
3426.81	0.887
3435.27	0.886
3443.72	0.886
3452.18	0.882
3460.63	0.88
3469.09	0.874
3477.54	0.867
3485.99	0.863
3494.45	0.863
3502.9	0.865
3511.36	0.865
3519.81	0.869
3528.26	0.874
3536.72	0.88
3545.17	0.887
3553.63	0.891
3562.08	0.894
3570.53	0.896
3578.99	0.896
3587.44	0.897
3595.9	0.897
3604.35	0.897
3612.81	0.899
3621.26	0.901
3629.71	0.901
3638.17	0.901
3646.62	0.901
3655.08	0.901
3663.53	0.901
3671.98	0.901
3680.44	0.901
3688.89	0.901
3697.35	0.901
3705.8	0.901
3714.25	0.901
3722.71	0.901
3731.16	0.901
3739.62	0.901
3748.07	0.901
3756.53	0.901
3764.98	0.901
3773.43	0.901
3781.89	0.901
3790.34	0.901
3798.8	0.901
3807.25	0.901
3815.7	0.901
3824.16	0.901
3832.61	0.901
3841.07	0.901
3849.52	0.899
3857.97	0.899
3866.43	0.899
3874.88	0.899
3883.34	0.899
3891.79	0.899
3900.25	0.897
3908.7	0.897
3917.15	0.897
3925.61	0.897
3934.06	0.897
3942.52	0.897
3950.97	0.897
