Infrared Spectrum: 2-HYDROXYISOBUTYRIC ACID, BUTYLESTER
Formula: C8 H16 O3
CAS: 816-50-2
State: SOLUTION (10% IN CCl4 FOR 5000-1350 CM^-^1, 10% IN CS2 FOR 1350-625 CM^-^1)
Class: COBLENTZ
Instrument: Not specified, most likely a prism, grating, or hybrid spectrometer.
Sampling: TRANSMISSION
Path length: 0.01 CM, 0.01 CM
Resolution: 4
Origin: DOW CHEMICAL COMPANY
MICROMETERS	TRANSMITTANCE
2.021	0.873
2.06016	0.873
2.09931	0.876
2.13847	0.878
2.17762	0.875
2.21678	0.862
2.25593	0.855
2.29509	0.867
2.33425	0.871
2.3734	0.868
2.41256	0.867
2.45171	0.875
2.49087	0.878
2.53002	0.876
2.56918	0.871
2.60833	0.876
2.64749	0.868
2.68665	0.849
2.7258	0.792
2.76496	0.653
2.80411	0.479
2.84327	0.387
2.88242	0.442
2.92158	0.479
2.96074	0.539
2.99989	0.578
3.03905	0.601
3.0782	0.614
3.11736	0.623
3.15651	0.645
3.19567	0.656
3.23482	0.653
3.27398	0.635
3.31314	0.499
3.35229	0.189
3.39145	0.149
3.4306	0.314
3.46976	0.379
3.50891	0.649
3.54807	0.709
3.58723	0.739
3.62638	0.75
3.66554	0.768
3.70469	0.773
3.74385	0.776
3.783	0.787
3.82216	0.786
3.86132	0.789
3.90047	0.797
3.93963	0.8
3.97878	0.818
4.01794	0.834
4.05709	0.839
4.09625	0.849
4.1354	0.86
4.17456	0.863
4.21372	0.858
4.25287	0.86
4.29203	0.862
4.33118	0.868
4.37034	0.875
4.40949	0.884
4.44865	0.889
4.48781	0.894
4.52696	0.889
4.56612	0.893
4.60527	0.889
4.64443	0.888
4.68358	0.894
4.72274	0.891
4.76189	0.896
4.80105	0.891
4.84021	0.888
4.87936	0.886
4.91852	0.883
4.95767	0.876
4.99683	0.878
5.03598	0.881
5.07514	0.881
5.1143	0.88
5.15345	0.88
5.19261	0.883
5.23176	0.876
5.27092	0.876
5.31007	0.871
5.34923	0.87
5.38838	0.87
5.42754	0.867
5.4667	0.847
5.50585	0.816
5.54501	0.784
5.58416	0.714
5.62332	0.602
5.66247	0.479
5.70163	0.29
5.74079	0.066
5.77994	0.029
5.8191	0.132
5.85825	0.304
5.89741	0.538
5.93656	0.648
5.97572	0.717
6.01488	0.724
6.05403	0.726
6.09319	0.724
6.13234	0.721
6.1715	0.714
6.21065	0.669
6.24981	0.604
6.28896	0.578
6.32812	0.559
6.36728	0.518
6.40643	0.476
6.44559	0.452
6.48474	0.521
6.5239	0.551
6.56305	0.601
6.60221	0.651
6.64137	0.693
6.68052	0.666
6.71968	0.544
6.75883	0.33
6.79799	0.212
6.83714	0.377
6.8763	0.534
6.91545	0.559
6.95461	0.635
6.99377	0.649
7.03292	0.641
7.07208	0.604
7.11123	0.546
7.15039	0.473
7.18954	0.392
7.2287	0.379
7.26786	0.457
7.30701	0.41
7.34617	0.534
7.38532	0.549
7.42448	0.56
7.46363	0.596
7.50279	0.576
7.54195	0.567
7.5811	0.534
7.62026	0.492
7.65941	0.482
7.69857	0.452
7.73772	0.395
7.77688	0.278
7.81603	0.155
7.85519	0.098
7.89435	0.079
7.9335	0.097
7.97266	0.16
8.01181	0.254
8.05097	0.316
8.09012	0.361
8.12928	0.387
8.16844	0.398
8.20759	0.384
8.24675	0.317
8.2859	0.235
8.32506	0.15
8.36421	0.059
8.40337	0.012
8.44252	0.006
8.48168	0.004
8.52084	0.019
8.55999	0.027
8.59915	0.04
8.6383	0.051
8.67746	0.061
8.71661	0.079
8.75577	0.116
8.79493	0.175
8.83408	0.236
8.87324	0.272
8.91239	0.307
8.95155	0.385
8.9907	0.491
9.02986	0.585
9.06902	0.635
9.10817	0.654
9.14733	0.666
9.18648	0.666
9.22564	0.649
9.26479	0.617
9.30395	0.554
9.3431	0.523
9.38226	0.52
9.42142	0.525
9.46057	0.604
9.49973	0.653
9.53888	0.649
9.57804	0.646
9.61719	0.653
9.65635	0.633
9.69551	0.604
9.73466	0.599
9.77382	0.601
9.81297	0.615
9.85213	0.64
9.89128	0.649
9.93044	0.653
9.96959	0.648
10.0088	0.635
10.0479	0.619
10.0871	0.58
10.1262	0.51
10.1654	0.427
10.2045	0.294
10.2437	0.241
10.2828	0.332
10.322	0.431
10.3612	0.478
10.4003	0.499
10.4395	0.547
10.4786	0.56
10.5178	0.56
10.5569	0.547
10.5961	0.52
10.6352	0.518
10.6744	0.581
10.7136	0.659
10.7527	0.7
10.7919	0.722
10.831	0.729
10.8702	0.722
10.9093	0.711
10.9485	0.698
10.9876	0.693
11.0268	0.693
11.066	0.695
11.1051	0.698
11.1443	0.682
11.1834	0.661
11.2226	0.638
11.2617	0.648
11.3009	0.659
11.34	0.664
11.3792	0.661
11.4184	0.658
11.4575	0.649
11.4967	0.643
11.5358	0.635
11.575	0.62
11.6141	0.611
11.6533	0.602
11.6924	0.598
11.7316	0.586
11.7708	0.58
11.8099	0.578
11.8491	0.589
11.8882	0.623
11.9274	0.651
11.9665	0.662
12.0057	0.67
12.0448	0.669
12.084	0.656
12.1232	0.646
12.1623	0.641
12.2015	0.641
12.2406	0.646
12.2798	0.653
12.3189	0.659
12.3581	0.667
12.3972	0.669
12.4364	0.67
12.4756	0.667
12.5147	0.661
12.5539	0.656
12.593	0.656
12.6322	0.658
12.6713	0.664
12.7105	0.666
12.7496	0.666
12.7888	0.661
12.828	0.651
12.8671	0.632
12.9063	0.588
12.9454	0.529
12.9846	0.484
13.0237	0.492
13.0629	0.557
13.102	0.599
13.1412	0.628
13.1804	0.635
13.2195	0.628
13.2587	0.615
13.2978	0.609
13.337	0.609
13.3761	0.623
13.4153	0.632
13.4544	0.63
13.4936	0.612
13.5328	0.599
13.5719	0.601
13.6111	0.63
13.6502	0.649
13.6894	0.662
13.7285	0.667
13.7677	0.669
13.8068	0.669
13.846	0.666
13.8852	0.662
13.9243	0.661
13.9635	0.654
14.0026	0.651
14.0418	0.645
14.0809	0.641
14.1201	0.636
14.1592	0.633
14.1984	0.628
14.2376	0.622
14.2767	0.615
14.3159	0.607
14.355	0.599
14.3942	0.586
14.4333	0.578
14.4725	0.57
14.5116	0.568
14.5508	0.565
14.59	0.562
14.6291	0.554
14.6683	0.549
14.7074	0.541
14.7466	0.531
14.7857	0.529
14.8249	0.521
14.864	0.512
14.9032	0.499
14.9424	0.497
14.9815	0.495
15.0207	0.482
15.0598	0.471
15.099	0.46
15.1381	0.448
15.1773	0.439
15.2165	0.429
15.2556	0.421
15.2948	0.411
15.3339	0.408
15.3731	0.405
15.4122	0.398
15.4514	0.387
15.4905	0.38
15.5297	0.372
15.5689	0.363
15.608	0.359
15.6472	0.351
15.6863	0.346
15.7255	0.34
15.7646	0.33
15.8038	0.322
15.8429	0.322
15.8821	0.325
