Infrared Spectrum: 2-METHYL-3-PHYTYL-1,4-NAPHTHOQUINONE
Formula: C31 H46 O2
CAS: 81818-54-4
State: LIQUID (NEAT)
Boiling point: 140-145 C AT 10^-^3 mmHg
Class: COBLENTZ III
Instrument: PERKIN-ELMER 521 (GRATING)
Instrument parameters: GRATING CHANGE AT 1996 CM^-^1
Sampling: TRANSMISSION
Path length: CAPILLARY
Resolution: 4
Origin: MERCK SHARPE & DOHME RESEARCH LABORATORIES, Nelson Trenner
1/CM	TRANSMITTANCE
600	0.469
609.091	0.502
618.182	0.537
627.273	0.533
636.364	0.497
645.455	0.588
654.546	0.695
663.636	0.612
672.727	0.646
681.818	0.71
690.909	0.508
700	0.655
709.091	0.3571
718.182	0.055
727.273	0.6289
736.364	0.626
745.455	0.723
754.546	0.801
763.637	0.825
772.728	0.759
781.819	0.581
790.909	0.415
800	0.7369
809.091	0.828
818.182	0.7961
827.273	0.832
836.364	0.8
845.455	0.767
854.546	0.76
863.637	0.748
872.728	0.768
881.819	0.817
890.91	0.732
900.001	0.6999
909.092	0.833
918.182	0.857
927.273	0.83
936.364	0.808
945.455	0.684
954.546	0.482
963.637	0.649
972.728	0.392
981.819	0.5709
990.91	0.714
1000	0.77
1009.09	0.777
1018.18	0.813
1027.27	0.798
1036.36	0.763
1045.46	0.837
1054.55	0.798
1063.64	0.734
1072.73	0.713
1081.82	0.723
1090.91	0.795
1100	0.724
1109.09	0.824
1118.18	0.843
1127.27	0.78
1136.36	0.7041
1145.46	0.723
1154.55	0.749
1163.64	0.586
1172.73	0.658
1181.82	0.605
1190.91	0.64
1200	0.655
1209.09	0.743
1218.18	0.721
1227.27	0.66
1236.36	0.618
1245.46	0.658
1254.55	0.647
1263.64	0.3451
1272.73	0.555
1281.82	0.3179
1290.91	0.083
1300	0.007
1309.09	0.119
1318.18	0.232
1327.27	0.198
1336.37	0.091
1345.46	0.3
1354.55	0.507
1363.64	0.53
1372.73	0.275
1381.82	0.14
1390.91	0.22
1400	0.5209
1409.09	0.657
1418.18	0.638
1427.27	0.522
1436.37	0.37
1445.46	0.289
1454.55	0.241
1463.64	0.1
1472.73	0.164
1481.82	0.538
1490.91	0.684
1500	0.795
1509.09	0.829
1518.18	0.848
1527.27	0.857
1536.37	0.855
1545.46	0.879
1554.55	0.871
1563.64	0.863
1572.73	0.824
1581.82	0.678
1590.91	0.431
1600	0.093
1609.09	0.385
1618.18	0.326
1627.27	0.35
1636.37	0.587
1645.46	0.438
1654.55	0.167
1663.64	0.013
1672.73	0.06
1681.82	0.4209
1690.91	0.671
1700	0.753
1709.09	0.794
1718.18	0.806
1727.28	0.863
1736.37	0.886
1745.46	0.895
1754.55	0.902
1763.64	0.921
1772.73	0.935
1781.82	0.942
1790.91	0.945
1800	0.946
1809.09	0.952
1818.18	0.963
1827.28	0.968
1836.37	0.971
1845.46	0.973
1854.55	0.97
1863.64	0.947
1872.73	0.951
1881.82	0.959
1890.91	0.957
1900	0.968
1909.09	0.977
1918.18	0.981
1927.28	0.975
1936.37	0.965
1945.46	0.954
1954.55	0.947
1963.64	0.943
1972.73	0.953
1981.82	0.955
1990.91	0.958
2000	0.972
2009.09	0.9768
2018.18	0.9795
2027.28	0.981
2036.37	0.9821
2045.46	0.9858
2054.55	0.988
2063.64	0.99
2072.73	0.99
2081.82	0.99
2090.91	0.989
2100	0.987
2109.09	0.9858
2118.18	0.984
2127.28	0.9813
2136.37	0.981
2145.46	0.98
2154.55	0.9801
2163.64	0.981
2172.73	0.982
2181.82	0.9824
2190.91	0.983
2200	0.983
2209.09	0.983
2218.19	0.982
2227.28	0.9808
2236.37	0.977
2245.46	0.9723
2254.55	0.9715
2263.64	0.9697
2272.73	0.968
2281.82	0.969
2290.91	0.97
2300	0.9713
2309.09	0.9731
2318.19	0.9759
2327.28	0.977
2336.37	0.979
2345.46	0.9792
2354.55	0.98
2363.64	0.9793
2372.73	0.9755
2381.82	0.973
2390.91	0.972
2400	0.971
2409.09	0.9704
2418.19	0.969
2427.28	0.968
2436.37	0.969
2445.46	0.971
2454.55	0.973
2463.64	0.976
2472.73	0.979
2481.82	0.978
2490.91	0.976
2500	0.9728
2509.09	0.97
2518.19	0.967
2527.28	0.966
2536.37	0.965
2545.46	0.963
2554.55	0.9621
2563.64	0.956
2572.73	0.9536
2581.82	0.9467
2590.91	0.9371
2600	0.9239
2609.1	0.9141
2618.19	0.908
2627.28	0.903
2636.37	0.9012
2645.46	0.9
2654.55	0.898
2663.64	0.895
2672.73	0.893
2681.82	0.891
2690.91	0.8896
2700	0.8807
2709.1	0.8692
2718.19	0.8469
2727.28	0.8426
2736.37	0.8597
2745.46	0.87
2754.55	0.874
2763.64	0.871
2772.73	0.8544
2781.82	0.8245
2790.91	0.7912
2800	0.7224
2809.1	0.6678
2818.19	0.5888
2827.28	0.5213
2836.37	0.409
2845.46	0.1878
2854.55	0.0466
2863.64	0.049
2872.73	0.0592
2881.82	0.0615
2890.91	0.0499
2900	0.0367
2909.1	0.0206
2918.19	0.0174
2927.28	0.013
2936.37	0.011
2945.46	0.012
2954.55	0.0157
2963.64	0.02
2972.73	0.0362
2981.82	0.125
2990.91	0.3461
3000	0.5285
3009.1	0.6304
3018.19	0.6952
3027.28	0.7296
3036.37	0.7573
3045.46	0.777
3054.55	0.7709
3063.64	0.7341
3072.73	0.697
3081.82	0.7404
3090.91	0.8248
3100.01	0.8956
3109.1	0.9177
3118.19	0.9245
3127.28	0.9343
3136.37	0.935
3145.46	0.935
3154.55	0.933
3163.64	0.9267
3172.73	0.9261
3181.82	0.9327
3190.91	0.9395
3200.01	0.954
3209.1	0.9542
3218.19	0.9559
3227.28	0.956
3236.37	0.9565
3245.46	0.9555
3254.55	0.954
3263.64	0.9484
3272.73	0.9378
3281.82	0.9128
3290.91	0.8835
3300.01	0.8539
3309.1	0.8672
3318.19	0.924
3327.28	0.9506
3336.37	0.9629
3345.46	0.9687
3354.55	0.9729
3363.64	0.976
3372.73	0.976
3381.82	0.973
3390.91	0.973
3400.01	0.973
3409.1	0.975
3418.19	0.9778
3427.28	0.978
3436.37	0.9756
3445.46	0.973
3454.55	0.973
3463.64	0.9757
3472.73	0.98
3481.82	0.981
3490.92	0.98
3500.01	0.978
3509.1	0.976
3518.19	0.9747
3527.28	0.9739
3536.37	0.9722
3545.46	0.972
3554.55	0.972
3563.64	0.9721
3572.73	0.974
3581.82	0.974
3590.92	0.974
3600.01	0.975
3609.1	0.976
3618.19	0.9777
3627.28	0.979
3636.37	0.98
3645.46	0.981
3654.55	0.9818
3663.64	0.9836
3672.73	0.985
3681.82	0.987
3690.92	0.987
3700.01	0.987
3709.1	0.987
3718.19	0.9868
3727.28	0.986
3736.37	0.985
3745.46	0.985
3754.55	0.983
3763.64	0.982
3772.73	0.981
3781.82	0.98
3790.92	0.978
3800.01	0.9769
3809.1	0.975
3818.19	0.9734
3827.28	0.973
3836.37	0.973
3845.46	0.973
3854.55	0.9723
3863.64	0.972
3872.73	0.972
3881.82	0.972
3890.92	0.971
3900.01	0.969
3909.1	0.968
3918.19	0.97
3927.28	0.971
3936.37	0.972
3945.46	0.9734
3954.55	0.975
3963.64	0.9731
3972.73	0.9703
3981.83	0.9675
3990.92	0.9648
4000.01	0.962
