Infrared Spectrum: ANTHRAQUINONE, 1-METHYLAMINE
Formula: C15 H11 O2 N
CAS: 82-38-2
State: SOLID (KBr PELLET)
Class: COBLENTZ
Instrument: Not specified, most likely a prism, grating, or hybrid spectrometer.
Sampling: TRANSMISSION
Resolution: 4
Origin: TENNESSEE EASTMAN COMPANY, RESEARCH LABORATORIES
MICROMETERS	TRANSMITTANCE
2.048	1.011
2.08795	1.01
2.12789	1.006
2.16784	1.003
2.20779	1.001
2.24774	1
2.28768	1
2.32763	0.996
2.36758	0.996
2.40753	0.994
2.44747	0.991
2.48742	0.991
2.52737	0.988
2.56731	0.984
2.60726	0.984
2.64721	0.993
2.68716	0.991
2.7271	0.986
2.76705	0.934
2.807	0.861
2.84695	0.792
2.88689	0.739
2.92684	0.716
2.96679	0.712
3.00673	0.722
3.04668	0.602
3.08663	0.687
3.12658	0.747
3.16652	0.782
3.20647	0.794
3.24642	0.801
3.28637	0.759
3.32631	0.789
3.36626	0.787
3.40621	0.722
3.44615	0.662
3.4861	0.709
3.52605	0.736
3.566	0.744
3.60594	0.794
3.64589	0.804
3.68584	0.804
3.72579	0.806
3.76573	0.818
3.80568	0.821
3.84563	0.814
3.88557	0.823
3.92552	0.831
3.96547	0.831
4.00542	0.838
4.04536	0.838
4.08531	0.839
4.12526	0.844
4.16521	0.843
4.20515	0.849
4.2451	0.841
4.28505	0.856
4.32499	0.891
4.36494	0.903
4.40489	0.874
4.44484	0.874
4.48478	0.874
4.52473	0.876
4.56468	0.883
4.60463	0.881
4.64457	0.883
4.68452	0.883
4.72447	0.888
4.76441	0.888
4.80436	0.886
4.84431	0.889
4.88426	0.889
4.9242	0.891
4.96415	0.891
5.0041	0.893
5.04405	0.886
5.08399	0.863
5.12394	0.879
5.16389	0.886
5.20383	0.888
5.24378	0.894
5.28373	0.889
5.32368	0.888
5.36362	0.881
5.40357	0.886
5.44352	0.899
5.48347	0.889
5.52341	0.893
5.56336	0.889
5.60331	0.876
5.64326	0.843
5.6832	0.868
5.72315	0.853
5.7631	0.848
5.80304	0.848
5.84299	0.834
5.88294	0.821
5.92289	0.803
5.96283	0.644
6.00278	0.277
6.04273	0.55
6.08268	0.59
6.12262	0.307
6.16257	0.17
6.20252	0.45
6.24246	0.489
6.28241	0.17
6.32236	0.419
6.36231	0.407
6.40225	0.323
6.4422	0.514
6.48215	0.552
6.5221	0.639
6.56204	0.574
6.60199	0.156
6.64194	0.387
6.68188	0.626
6.72183	0.677
6.76178	0.682
6.80173	0.666
6.84167	0.632
6.88162	0.671
6.92157	0.721
6.96152	0.727
7.00146	0.604
7.04141	0.672
7.08136	0.701
7.1213	0.585
7.16125	0.452
7.2012	0.624
7.24115	0.697
7.28109	0.667
7.32104	0.604
7.36099	0.419
7.40094	0.495
7.44088	0.572
7.48083	0.502
7.52078	0.31
7.56072	0.312
7.60067	0.222
7.64062	0.093
7.68057	0.121
7.72051	0.272
7.76046	0.402
7.80041	0.322
7.84036	0.09
7.8803	0.001
7.92025	0.023
7.9602	0.08
8.00014	0.188
8.04009	0.312
8.08004	0.308
8.11999	0.265
8.15993	0.4
8.19988	0.475
8.23983	0.529
8.27978	0.57
8.31972	0.587
8.35967	0.555
8.39962	0.484
8.43956	0.232
8.47951	0.275
8.51946	0.489
8.55941	0.5
8.59935	0.375
8.6393	0.33
8.67925	0.363
8.7192	0.462
8.75914	0.5
8.79909	0.495
8.83904	0.527
8.87898	0.529
8.91893	0.555
8.95888	0.584
8.99883	0.597
9.03877	0.601
9.07872	0.601
9.11867	0.601
9.15862	0.601
9.19856	0.582
9.23851	0.607
9.27846	0.517
9.3184	0.363
9.35835	0.477
9.3983	0.582
9.43825	0.609
9.47819	0.619
9.51814	0.624
9.55809	0.629
9.59804	0.629
9.63798	0.622
9.67793	0.624
9.71788	0.641
9.75782	0.651
9.79777	0.652
9.83772	0.654
9.87767	0.654
9.91761	0.654
9.95756	0.641
9.99751	0.609
10.0375	0.529
10.0774	0.372
10.1174	0.203
10.1573	0.245
10.1972	0.412
10.2372	0.529
10.2771	0.572
10.3171	0.592
10.357	0.594
10.397	0.614
10.4369	0.624
10.4769	0.632
10.5168	0.642
10.5568	0.649
10.5967	0.654
10.6367	0.654
10.6766	0.659
10.7166	0.666
10.7565	0.669
10.7965	0.674
10.8364	0.674
10.8763	0.672
10.9163	0.642
10.9562	0.646
10.9962	0.662
11.0361	0.672
11.0761	0.672
11.116	0.662
11.156	0.659
11.1959	0.666
11.2359	0.664
11.2758	0.652
11.3158	0.667
11.3557	0.674
11.3957	0.679
11.4356	0.682
11.4756	0.682
11.5155	0.682
11.5555	0.671
11.5954	0.609
11.6353	0.514
11.6753	0.567
11.7152	0.621
11.7552	0.649
11.7951	0.659
11.8351	0.664
11.875	0.666
11.915	0.666
11.9549	0.664
11.9949	0.624
12.0348	0.51
12.0748	0.422
12.1147	0.535
12.1547	0.617
12.1946	0.637
12.2346	0.646
12.2745	0.639
12.3145	0.584
12.3544	0.412
12.3943	0.36
12.4343	0.465
12.4742	0.482
12.5142	0.592
12.5541	0.629
12.5941	0.642
12.634	0.647
12.674	0.646
12.7139	0.629
12.7539	0.599
12.7938	0.569
12.8338	0.512
12.8737	0.532
12.9137	0.612
12.9536	0.632
12.9936	0.642
13.0335	0.649
13.0734	0.651
13.1134	0.651
13.1533	0.651
13.1933	0.652
13.2332	0.652
13.2732	0.652
13.3131	0.652
13.3531	0.651
13.393	0.641
13.433	0.622
13.4729	0.564
13.5129	0.465
13.5528	0.375
13.5928	0.31
13.6327	0.27
13.6727	0.397
13.7126	0.554
13.7526	0.612
13.7925	0.636
13.8324	0.642
13.8724	0.642
13.9123	0.614
13.9523	0.534
13.9922	0.4
14.0322	0.228
14.0721	0.121
14.1121	0.108
14.152	0.2
14.192	0.33
14.2319	0.449
14.2719	0.512
14.3118	0.552
14.3518	0.575
14.3917	0.594
14.4317	0.601
14.4716	0.604
14.5116	0.604
14.5515	0.604
14.5914	0.604
14.6314	0.607
14.6713	0.607
14.7113	0.607
14.7512	0.601
14.7912	0.59
14.8311	0.574
14.8711	0.552
14.911	0.525
14.951	0.499
14.9909	0.474
15.0309	0.437
15.0708	0.422
15.1108	0.422
15.1507	0.439
15.1907	0.479
15.2306	0.519
15.2705	0.549
15.3105	0.557
15.3504	0.559
15.3904	0.559
15.4303	0.557
15.4703	0.557
15.5102	0.555
15.5502	0.552
15.5901	0.552
15.6301	0.55
15.67	0.55
15.71	0.55
15.7499	0.55
15.7899	0.549
15.8298	0.55
15.8698	0.547
15.9097	0.545
15.9497	0.544
15.9896	0.542
