Infrared Spectrum: BENZENE, PENTACHLORONITRO-
Formula: C6 Cl5 N O2
CAS: 82-68-8
State: SOLUTION (10% IN CCl4 FOR 3800-1330, 10% IN CS2 FOR 1330-400 CM^-^1) VS. SOLVENT
Class: COBLENTZ III
Instrument: DOW KBr FOREPRISM-GRATING
Instrument parameters: BLAZED AT 3.5, 12.0, 20.0 MICRON, CHANGED AT 5.0, 7.5, 14.9 MICRON
Sampling: TRANSMISSION
Path length: 0.0554 (VS. 0.0543), 0.0558 (VS. 0.0518) CM
Resolution: 4
Origin: DOW CHEMICAL COMPANY
1/CM	TRANSMITTANCE
449.652	0.894
458.202	0.892
466.751	0.891
475.301	0.891
483.851	0.889
492.401	0.888
500.95	0.885
509.5	0.88
518.05	0.879
526.599	0.879
535.149	0.879
543.699	0.87
552.249	0.808
560.798	0.879
569.348	0.885
577.898	0.885
586.447	0.886
594.997	0.883
603.547	0.883
612.097	0.891
620.646	0.882
629.196	0.87
637.746	0.872
646.295	0.832
654.845	0.3082
663.395	0.785
671.945	0.694
680.494	0.617
689.044	0.792
697.594	0.789
706.143	0.882
714.693	0.894
723.243	0.911
731.793	0.919
740.342	0.907
748.892	0.925
757.442	0.927
765.991	0.926
774.541	0.914
783.091	0.852
791.641	0.866
800.19	0.91
808.74	0.911
817.29	0.927
825.839	0.926
834.389	0.917
842.939	0.875
851.489	0.852
860.038	0.861
868.588	0.873
877.138	0.889
885.687	0.905
894.237	0.914
902.787	0.916
911.337	0.901
919.886	0.8361
928.436	0.6201
936.986	0.904
945.535	0.926
954.085	0.929
962.635	0.933
971.184	0.936
979.734	0.935
988.284	0.935
996.834	0.939
1005.38	0.939
1013.93	0.938
1022.48	0.941
1031.03	0.938
1039.58	0.935
1048.13	0.932
1056.68	0.933
1065.23	0.923
1073.78	0.914
1082.33	0.894
1090.88	0.894
1099.43	0.902
1107.98	0.888
1116.53	0.885
1125.08	0.892
1133.63	0.917
1142.18	0.911
1150.73	0.919
1159.28	0.93
1167.83	0.926
1176.38	0.935
1184.93	0.935
1193.48	0.922
1202.03	0.9
1210.58	0.919
1219.13	0.889
1227.68	0.872
1236.23	0.8219
1244.78	0.929
1253.33	0.938
1261.87	0.932
1270.42	0.93
1278.97	0.926
1287.52	0.914
1296.07	0.894
1304.62	0.875
1313.17	0.825
1321.72	0.6113
1330.27	0.4053
1338.82	0.1449
1347.37	0.3051
1355.92	0.569
1364.47	0.1701
1373.02	0.583
1381.57	0.879
1390.12	0.891
1398.67	0.911
1407.22	0.914
1415.77	0.904
1424.32	0.911
1432.87	0.916
1441.42	0.916
1449.97	0.919
1458.52	0.922
1467.07	0.919
1475.62	0.914
1484.17	0.91
1492.72	0.902
1501.27	0.897
1509.82	0.886
1518.37	0.835
1526.92	0.71
1535.47	0.575
1544.02	0.37
1552.56	0.27
1561.11	0.326
1569.66	0.7579
1578.21	0.82
1586.76	0.864
1595.31	0.892
1603.86	0.894
1612.41	0.895
1620.96	0.897
1629.51	0.9
1638.06	0.898
1646.61	0.891
1655.16	0.907
1663.71	0.92
1672.26	0.929
1680.81	0.933
1689.36	0.933
1697.91	0.935
1706.46	0.933
1715.01	0.933
1723.56	0.933
1732.11	0.936
1740.66	0.939
1749.21	0.942
1757.76	0.944
1766.31	0.945
1774.86	0.948
1783.41	0.95
1791.96	0.952
1800.51	0.952
1809.06	0.954
1817.61	0.955
1826.16	0.954
1834.71	0.955
1843.26	0.957
1851.8	0.957
1860.35	0.957
1868.9	0.957
1877.45	0.957
1886	0.957
1894.55	0.957
1903.1	0.957
1911.65	0.957
1920.2	0.958
1928.75	0.958
1937.3	0.958
1945.85	0.96
1954.4	0.961
1962.95	0.963
1971.5	0.961
1980.05	0.958
1988.6	0.957
1997.15	0.961
2005.7	0.96
2014.25	0.9589
2022.8	0.957
2031.35	0.9563
2039.9	0.957
2048.45	0.955
2057	0.955
2065.55	0.957
2074.1	0.958
2082.65	0.958
2091.2	0.958
2099.75	0.96
2108.3	0.961
2116.85	0.961
2125.4	0.961
2133.95	0.9612
2142.5	0.964
2151.04	0.9643
2159.59	0.964
2168.14	0.9645
2176.69	0.964
2185.24	0.966
2193.79	0.966
2202.34	0.967
2210.89	0.967
2219.44	0.966
2227.99	0.964
2236.54	0.964
2245.09	0.966
2253.64	0.966
2262.19	0.964
2270.74	0.966
2279.29	0.9662
2287.84	0.967
2296.39	0.967
2304.94	0.9673
2313.49	0.9677
2322.04	0.967
2330.59	0.969
2339.14	0.969
2347.69	0.967
2356.24	0.967
2364.79	0.969
2373.34	0.9687
2381.89	0.9663
2390.44	0.967
2398.99	0.967
2407.54	0.967
2416.09	0.9668
2424.64	0.967
2433.19	0.967
2441.74	0.9664
2450.28	0.966
2458.83	0.966
2467.38	0.964
2475.93	0.963
2484.48	0.961
2493.03	0.96
2501.58	0.963
2510.13	0.964
2518.68	0.964
2527.23	0.964
2535.78	0.964
2544.33	0.964
2552.88	0.9636
2561.43	0.963
2569.98	0.963
2578.53	0.963
2587.08	0.963
2595.63	0.961
2604.18	0.961
2612.73	0.961
2621.28	0.961
2629.83	0.96
2638.38	0.96
2646.93	0.96
2655.48	0.96
2664.03	0.958
2672.58	0.958
2681.13	0.958
2689.68	0.957
2698.23	0.955
2706.78	0.954
2715.33	0.955
2723.88	0.957
2732.43	0.957
2740.98	0.954
2749.52	0.952
2758.07	0.955
2766.62	0.957
2775.17	0.958
2783.72	0.9599
2792.27	0.958
2800.82	0.957
2809.37	0.958
2817.92	0.958
2826.47	0.958
2835.02	0.9578
2843.57	0.9556
2852.12	0.9493
2860.67	0.942
2869.22	0.942
2877.77	0.9393
2886.32	0.9339
2894.87	0.92
2903.42	0.9274
2911.97	0.93
2920.52	0.924
2929.07	0.9039
2937.62	0.9068
2946.17	0.9256
2954.72	0.9344
2963.27	0.9364
2971.82	0.939
2980.37	0.944
2988.92	0.948
2997.47	0.951
3006.02	0.954
3014.57	0.955
3023.12	0.955
3031.67	0.954
3040.22	0.954
3048.76	0.954
3057.31	0.954
3065.86	0.954
3074.41	0.952
3082.96	0.952
3091.51	0.952
3100.06	0.952
3108.61	0.952
3117.16	0.952
3125.71	0.951
3134.26	0.95
3142.81	0.948
3151.36	0.948
3159.91	0.948
3168.46	0.948
3177.01	0.948
3185.56	0.947
3194.11	0.947
3202.66	0.947
3211.21	0.945
3219.76	0.944
3228.31	0.942
3236.86	0.942
3245.41	0.942
3253.96	0.942
3262.51	0.942
3271.06	0.9399
3279.61	0.941
3288.16	0.941
3296.71	0.942
3305.26	0.944
3313.81	0.945
3322.36	0.945
3330.91	0.9456
3339.45	0.947
3348	0.945
3356.55	0.944
3365.1	0.942
3373.65	0.947
3382.2	0.944
3390.75	0.9452
3399.3	0.9493
3407.85	0.952
3416.4	0.9547
3424.95	0.9555
3433.5	0.957
3442.05	0.957
3450.6	0.9579
3459.15	0.96
3467.7	0.961
3476.25	0.964
3484.8	0.966
3493.35	0.967
3501.9	0.9691
3510.45	0.969
3519	0.97
3527.55	0.972
3536.1	0.972
3544.65	0.973
3553.2	0.9753
3561.75	0.976
3570.3	0.976
3578.85	0.976
3587.4	0.977
3595.95	0.977
3604.5	0.9681
3613.05	0.9771
3621.6	0.982
3630.15	0.9821
3638.69	0.985
3647.24	0.985
3655.79	0.985
3664.34	0.985
3672.89	0.985
3681.44	0.985
3689.99	0.983
3698.54	0.9854
3707.09	0.986
3715.64	0.986
3724.19	0.988
3732.74	0.988
3741.29	0.986
3749.84	0.986
3758.39	0.986
3766.94	0.986
3775.49	0.986
3784.04	0.986
