Infrared Spectrum: 5-DECANONE
Formula: C10 H20 O
CAS: 820-29-1
State: SOLUTION (10% IN CCl4 FOR 4000-1340, 10% IN CS2 FOR 1340-650, AND 10% IN CCl4 FOR 650-350 CM^-^1) VS. SOLVENT
Class: COBLENTZ II
Instrument: PERKIN-ELMER 521 (GRATING)
Instrument parameters: FILTERS AT 3150, 2500, 2000, 1150, 700, 410. GRATING CHANGES: 2000, 630 CM^-^1
Sampling: TRANSMISSION
Path length: 0.01 CM, 0.01 CM, AND 0.01 CM; KBr CELLS
Resolution: 2
Origin: STANDARD OIL OF OHIO
1/CM	TRANSMITTANCE
354.742	0.836
363.986	0.854
373.229	0.875
382.473	0.895
391.717	0.899
400.96	0.906
410.204	0.918
419.448	0.928
428.692	0.94
437.935	0.948
447.179	0.948
456.423	0.939
465.666	0.943
474.91	0.956
484.154	0.964
493.397	0.973
502.641	0.978
511.885	0.978
521.128	0.976
530.372	0.973
539.616	0.972
548.86	0.974
558.103	0.989
567.347	0.994
576.591	0.996
585.834	0.996
595.078	0.996
604.322	0.993
613.565	0.98
622.809	0.98
632.053	0.948
641.296	0.951
650.54	0.955
659.784	0.964
669.028	0.98
678.271	0.992
687.515	0.986
696.759	0.974
706.002	0.956
715.246	0.919
724.49	0.874
733.733	0.828
742.977	0.875
752.221	0.914
761.464	0.933
770.708	0.947
779.952	0.951
789.196	0.959
798.439	0.974
807.683	0.978
816.927	0.974
826.17	0.974
835.414	0.973
844.658	0.976
853.901	0.982
863.145	0.976
872.389	0.968
881.632	0.963
890.876	0.952
900.12	0.939
909.364	0.928
918.607	0.926
927.851	0.932
937.095	0.941
946.338	0.941
955.582	0.932
964.826	0.916
974.069	0.91
983.313	0.912
992.557	0.912
1001.8	0.914
1011.04	0.918
1020.29	0.895
1029.53	0.815
1038.78	0.774
1048.02	0.714
1057.26	0.722
1066.51	0.813
1075.75	0.862
1084.99	0.878
1094.24	0.915
1103.48	0.906
1112.72	0.867
1121.97	0.756
1131.21	0.636
1140.46	0.645
1149.7	0.799
1158.94	0.795
1168.19	0.805
1177.43	0.87
1186.67	0.886
1195.92	0.87
1205.16	0.846
1214.41	0.846
1223.65	0.849
1232.89	0.846
1242.14	0.795
1251.38	0.801
1260.62	0.804
1269.87	0.826
1279.11	0.819
1288.35	0.779
1297.6	0.774
1306.84	0.775
1316.09	0.775
1325.33	0.767
1334.57	0.749
1343.82	0.669
1353.06	0.631
1362.3	0.527
1371.55	0.507
1380.79	0.442
1390.04	0.733
1399.28	0.671
1408.52	0.519
1417.77	0.611
1427.01	0.712
1436.25	0.69
1445.5	0.631
1454.74	0.43
1463.99	0.377
1473.23	0.671
1482.47	0.862
1491.72	0.903
1500.96	0.92
1510.2	0.931
1519.45	0.935
1528.69	0.94
1537.93	0.945
1547.18	0.953
1556.42	0.953
1565.67	0.949
1574.91	0.947
1584.15	0.945
1593.4	0.944
1602.64	0.937
1611.88	0.935
1621.13	0.932
1630.37	0.929
1639.62	0.927
1648.86	0.92
1658.1	0.914
1667.35	0.885
1676.59	0.834
1685.83	0.787
1695.08	0.676
1704.32	0.18
1713.56	0.056
1722.81	0.107
1732.05	0.569
1741.3	0.771
1750.54	0.85
1759.78	0.89
1769.03	0.912
1778.27	0.924
1787.51	0.933
1796.76	0.94
1806	0.948
1815.25	0.953
1824.49	0.956
1833.73	0.957
1842.98	0.959
1852.22	0.959
1861.46	0.959
1870.71	0.959
1879.95	0.96
1889.19	0.96
1898.44	0.96
1907.68	0.959
1916.93	0.959
1926.17	0.959
1935.41	0.959
1944.66	0.959
1953.9	0.959
1963.14	0.959
1972.39	0.959
1981.63	0.959
1990.88	0.959
2000.12	0.957
2009.36	0.956
2018.61	0.956
2027.85	0.953
2037.09	0.955
2046.34	0.955
2055.58	0.955
2064.83	0.953
2074.07	0.953
2083.31	0.953
2092.56	0.952
2101.8	0.952
2111.04	0.952
2120.29	0.951
2129.53	0.951
2138.77	0.951
2148.02	0.949
2157.26	0.949
2166.51	0.948
2175.75	0.948
2184.99	0.948
2194.24	0.948
2203.48	0.949
2212.72	0.949
2221.97	0.949
2231.21	0.948
2240.46	0.948
2249.7	0.949
2258.94	0.951
2268.19	0.952
2277.43	0.952
2286.67	0.952
2295.92	0.952
2305.16	0.949
2314.4	0.948
2323.65	0.947
2332.89	0.947
2342.14	0.947
2351.38	0.948
2360.62	0.948
2369.87	0.948
2379.11	0.948
2388.35	0.948
2397.6	0.948
2406.84	0.948
2416.09	0.948
2425.33	0.949
2434.57	0.952
2443.82	0.952
2453.06	0.952
2462.3	0.952
2471.55	0.952
2480.79	0.953
2490.04	0.953
2499.28	0.953
2508.52	0.953
2517.77	0.953
2527.01	0.953
2536.25	0.953
2545.5	0.952
2554.74	0.951
2563.98	0.951
2573.23	0.948
2582.47	0.947
2591.72	0.945
2600.96	0.944
2610.2	0.944
2619.45	0.943
2628.69	0.94
2637.93	0.936
2647.18	0.933
2656.42	0.928
2665.67	0.924
2674.91	0.922
2684.15	0.927
2693.4	0.929
2702.64	0.931
2711.88	0.927
2721.13	0.92
2730.37	0.911
2739.61	0.907
2748.86	0.916
2758.1	0.919
2767.35	0.916
2776.59	0.908
2785.83	0.891
2795.08	0.865
2804.32	0.838
2813.56	0.826
2822.81	0.784
2832.05	0.729
2841.3	0.64
2850.54	0.413
2859.78	0.206
2869.03	0.194
2878.27	0.162
2887.51	0.307
2896.76	0.282
2906	0.236
2915.24	0.177
2924.49	0.076
2933.73	0.058
2942.98	0.095
2952.22	0.073
2961.46	0.051
2970.71	0.134
2979.95	0.397
2989.19	0.612
2998.44	0.723
3007.68	0.796
3016.93	0.842
3026.17	0.865
3035.41	0.883
3044.66	0.892
3053.9	0.904
3063.14	0.911
3072.39	0.914
3081.63	0.92
3090.88	0.926
3100.12	0.931
3109.36	0.935
3118.61	0.936
3127.85	0.936
3137.09	0.937
3146.34	0.937
3155.58	0.937
3164.82	0.937
3174.07	0.937
3183.31	0.937
3192.56	0.937
3201.8	0.939
3211.04	0.943
3220.29	0.945
3229.53	0.947
3238.77	0.949
3248.02	0.952
3257.26	0.952
3266.51	0.952
3275.75	0.952
3284.99	0.952
3294.24	0.952
3303.48	0.952
3312.72	0.952
3321.97	0.952
3331.21	0.951
3340.45	0.951
3349.7	0.951
3358.94	0.952
3368.19	0.951
3377.43	0.948
3386.67	0.944
3395.92	0.937
3405.16	0.924
3414.4	0.919
3423.65	0.926
3432.89	0.944
3442.14	0.953
3451.38	0.956
3460.62	0.957
3469.87	0.957
3479.11	0.959
3488.35	0.959
3497.6	0.959
3506.84	0.959
3516.08	0.959
3525.33	0.959
3534.57	0.959
3543.82	0.96
3553.06	0.961
3562.3	0.961
3571.55	0.961
3580.79	0.963
3590.03	0.963
3599.28	0.963
3608.52	0.963
3617.77	0.963
3627.01	0.963
3636.25	0.963
3645.5	0.964
3654.74	0.964
3663.98	0.964
3673.23	0.964
3682.47	0.964
3691.72	0.964
3700.96	0.964
3710.2	0.964
3719.45	0.964
3728.69	0.964
3737.93	0.963
3747.18	0.963
3756.42	0.963
3765.66	0.963
3774.91	0.963
3784.15	0.963
3793.4	0.963
3802.64	0.964
3811.88	0.964
3821.13	0.964
3830.37	0.964
3839.61	0.963
3848.86	0.963
3858.1	0.963
3867.35	0.963
3876.59	0.963
3885.83	0.964
3895.08	0.964
3904.32	0.964
