Infrared Spectrum: 2-NONANONE
Formula: C9 H18 O
CAS: 821-55-6
State: LIQUID
Class: COBLENTZ
Instrument: Not specified, most likely a prism, grating, or hybrid spectrometer.
Sampling: TRANSMISSION
Path length: 0.0025 CM
Resolution: 4
Origin: INFRACORD
MICROMETERS	TRANSMITTANCE
2.524	0.894
2.55939	0.898
2.59479	0.893
2.63018	0.894
2.66558	0.898
2.70097	0.888
2.73637	0.889
2.77176	0.88
2.80715	0.876
2.84255	0.87
2.87794	0.862
2.91334	0.855
2.94873	0.855
2.98413	0.862
3.01952	0.867
3.05491	0.869
3.09031	0.872
3.1257	0.873
3.1611	0.87
3.19649	0.864
3.23189	0.849
3.26728	0.824
3.30268	0.649
3.33807	0.56
3.37346	0.265
3.40886	0.056
3.44425	0.22
3.47965	0.283
3.51504	0.424
3.55044	0.761
3.58583	0.827
3.62122	0.859
3.65662	0.859
3.69201	0.862
3.72741	0.855
3.7628	0.856
3.7982	0.868
3.83359	0.872
3.86898	0.876
3.90438	0.877
3.93977	0.883
3.97517	0.888
4.01056	0.892
4.04596	0.893
4.08135	0.894
4.11674	0.895
4.15214	0.893
4.18753	0.888
4.22293	0.904
4.25832	0.901
4.29372	0.894
4.32911	0.886
4.3645	0.889
4.3999	0.883
4.43529	0.889
4.47069	0.89
4.50608	0.887
4.54148	0.89
4.57687	0.89
4.61227	0.892
4.64766	0.892
4.68305	0.892
4.71845	0.889
4.75384	0.89
4.78924	0.894
4.82463	0.894
4.86003	0.893
4.89542	0.89
4.93081	0.889
4.96621	0.893
5.0016	0.893
5.037	0.892
5.07239	0.89
5.10779	0.892
5.14318	0.894
5.17857	0.895
5.21397	0.893
5.24936	0.889
5.28476	0.892
5.32015	0.893
5.35555	0.894
5.39094	0.892
5.42633	0.892
5.46173	0.889
5.49712	0.885
5.53252	0.877
5.56791	0.874
5.60331	0.868
5.6387	0.861
5.67409	0.836
5.70949	0.797
5.74488	0.739
5.78028	0.627
5.81567	0.265
5.85107	0.231
5.88646	0.463
5.92186	0.731
5.95725	0.789
5.99264	0.815
6.02804	0.831
6.06343	0.84
6.09883	0.85
6.13422	0.859
6.16962	0.862
6.20501	0.866
6.2404	0.869
6.2758	0.872
6.31119	0.873
6.34659	0.875
6.38198	0.876
6.41738	0.879
6.45277	0.872
6.48816	0.868
6.52356	0.868
6.55895	0.869
6.59435	0.868
6.62974	0.866
6.66514	0.854
6.70053	0.843
6.73592	0.831
6.77132	0.798
6.80671	0.7
6.84211	0.478
6.8775	0.472
6.9129	0.575
6.94829	0.606
6.98368	0.622
7.01908	0.662
7.05447	0.671
7.08987	0.661
7.12526	0.662
7.16066	0.713
7.19605	0.764
7.23145	0.74
7.26684	0.639
7.30223	0.571
7.33763	0.534
7.37302	0.51
7.40842	0.527
7.44381	0.659
7.47921	0.731
7.5146	0.785
7.54999	0.792
7.58539	0.791
7.62078	0.783
7.65618	0.774
7.69157	0.772
7.72697	0.777
7.76236	0.784
7.79775	0.785
7.83315	0.783
7.86854	0.789
7.90394	0.792
7.93933	0.789
7.97473	0.792
8.01012	0.793
8.04551	0.783
8.08091	0.772
8.1163	0.761
8.1517	0.75
8.18709	0.752
8.22249	0.767
8.25788	0.779
8.29327	0.784
8.32867	0.783
8.36406	0.778
8.39946	0.768
8.43485	0.753
8.47025	0.725
8.50564	0.689
8.54104	0.64
8.57643	0.625
8.61182	0.629
8.64722	0.665
8.68261	0.712
8.71801	0.771
8.7534	0.797
8.7888	0.809
8.82419	0.816
8.85958	0.817
8.89498	0.815
8.93037	0.818
8.96577	0.819
9.00116	0.822
9.03656	0.828
9.07195	0.83
9.10734	0.83
9.14274	0.828
9.17813	0.825
9.21353	0.83
9.24892	0.834
9.28432	0.828
9.31971	0.83
9.3551	0.836
9.3905	0.828
9.42589	0.834
9.46129	0.83
9.49668	0.835
9.53208	0.834
9.56747	0.84
9.60286	0.829
9.63826	0.837
9.67365	0.834
9.70905	0.824
9.74444	0.829
9.77984	0.834
9.81523	0.829
9.85062	0.834
9.88602	0.835
9.92141	0.83
9.95681	0.835
9.9922	0.83
10.0276	0.827
10.063	0.819
10.0984	0.816
10.1338	0.813
10.1692	0.804
10.2046	0.785
10.24	0.763
10.2754	0.721
10.3108	0.683
10.3461	0.694
10.3815	0.732
10.4169	0.779
10.4523	0.797
10.4877	0.8
10.5231	0.803
10.5585	0.811
10.5939	0.815
10.6293	0.829
10.6647	0.83
10.7001	0.836
10.7355	0.838
10.7709	0.844
10.8063	0.843
10.8417	0.845
10.8771	0.844
10.9125	0.85
10.9478	0.855
10.9832	0.853
11.0186	0.85
11.054	0.848
11.0894	0.848
11.1248	0.849
11.1602	0.849
11.1956	0.847
11.231	0.85
11.2664	0.843
11.3018	0.848
11.3372	0.85
11.3726	0.853
11.408	0.856
11.4434	0.855
11.4788	0.855
11.5142	0.85
11.5496	0.847
11.5849	0.844
11.6203	0.843
11.6557	0.853
11.6911	0.85
11.7265	0.843
11.7619	0.847
11.7973	0.845
11.8327	0.845
11.8681	0.851
11.9035	0.853
11.9389	0.851
11.9743	0.85
12.0097	0.847
12.0451	0.843
12.0805	0.848
12.1159	0.843
12.1513	0.843
12.1867	0.842
12.222	0.845
12.2574	0.845
12.2928	0.841
12.3282	0.842
12.3636	0.837
12.399	0.841
12.4344	0.837
12.4698	0.842
12.5052	0.836
12.5406	0.841
12.576	0.835
12.6114	0.829
12.6468	0.827
12.6822	0.827
12.7176	0.828
12.753	0.829
12.7884	0.825
12.8237	0.818
12.8591	0.818
12.8945	0.818
12.9299	0.813
12.9653	0.813
13.0007	0.81
13.0361	0.804
13.0715	0.806
13.1069	0.806
13.1423	0.799
13.1777	0.798
13.2131	0.797
13.2485	0.795
13.2839	0.783
13.3193	0.778
13.3547	0.774
13.3901	0.771
13.4255	0.766
13.4608	0.76
13.4962	0.744
13.5316	0.732
13.567	0.721
13.6024	0.709
13.6378	0.703
13.6732	0.687
13.7086	0.676
13.744	0.655
13.7794	0.639
13.8148	0.626
13.8502	0.613
13.8856	0.614
13.921	0.629
13.9564	0.637
13.9918	0.652
14.0272	0.677
14.0625	0.68
14.0979	0.683
14.1333	0.688
14.1687	0.7
14.2041	0.706
14.2395	0.704
14.2749	0.706
14.3103	0.703
14.3457	0.706
14.3811	0.707
14.4165	0.712
14.4519	0.709
14.4873	0.704
14.5227	0.704
14.5581	0.706
14.5935	0.708
14.6289	0.704
14.6643	0.699
14.6996	0.7
14.735	0.697
14.7704	0.702
14.8058	0.704
14.8412	0.702
14.8766	0.697
14.912	0.694
14.9474	0.695
14.9828	0.694
