Infrared Spectrum: 2-Chloroethanamine, N-2-chloroethyl-, hydrochloride
Formula: C4 H10 Cl3 N
CAS: 821-48-7
State: SOLID (SPLIT MULL), FLUOROLUBE FOR 3800-1330 CM^-^1, NUJOL FOR 1330-400 CM^-^1
Class: COBLENTZ III
Instrument: DOW KBr FOREPRISM-GRATING
Instrument parameters: BLAZED AT 3.5, 12.0, 20.0 MICRON AND CHANGED AT 5.0, 7.5, 14.9 MICRON
Sampling: TRANSMISSION
Resolution: 2
Origin: DOW CHEMICAL COMPANY
1/CM	TRANSMITTANCE
3776	0.6257
3767	0.6275
3758	0.6297
3749	0.6319
3740	0.6342
3731	0.6364
3722	0.6386
3713	0.6408
3704	0.6428
3695	0.6441
3686	0.6455
3677	0.6478
3668	0.6507
3659	0.6535
3650	0.6561
3641	0.6585
3632	0.6611
3623	0.664
3614	0.6669
3605	0.6701
3596	0.671
3587	0.6661
3578	0.671
3569	0.6771
3560	0.6791
3551	0.6811
3542	0.6832
3533	0.6853
3524	0.6874
3515	0.6894
3506	0.6915
3497	0.6936
3488	0.696
3479	0.6987
3470	0.7014
3461	0.7042
3452	0.7068
3443	0.7096
3434	0.7124
3425	0.7151
3416	0.7185
3407	0.7218
3398	0.7251
3389	0.7284
3380	0.7322
3371	0.7368
3362	0.7415
3353	0.7461
3344	0.751
3335	0.7558
3326	0.7608
3317	0.7657
3308	0.7707
3299	0.7757
3290	0.7807
3281	0.7856
3272	0.7906
3263	0.7955
3254	0.8004
3245	0.8046
3236	0.8085
3227	0.8121
3218	0.8146
3209	0.8161
3200	0.8083
3191	0.7987
3182	0.7974
3173	0.8058
3164	0.816
3155	0.8257
3146	0.8312
3137	0.832
3128	0.8307
3119	0.8263
3110	0.8203
3101	0.8118
3092	0.8006
3083	0.7874
3074	0.77
3065	0.7514
3056	0.733
3047	0.7132
3038	0.6425
3029	0.545
3020	0.5308
3011	0.5627
3002	0.3926
2993	0.4587
2984	0.4243
2975	0.3299
2966	0.2356
2957	0.1533
2948	0.1813
2939	0.2132
2930	0.2184
2921	0.2053
2912	0.1967
2903	0.2167
2894	0.2488
2885	0.2809
2876	0.2839
2867	0.3082
2858	0.3128
2849	0.3194
2840	0.3237
2831	0.2756
2822	0.2662
2813	0.2656
2804	0.2511
2795	0.158
2786	0.1323
2777	0.1081
2768	0.0892
2759	0.0758
2750	0.0667
2741	0.0645
2732	0.0581
2723	0.0564
2714	0.0743
2705	0.1223
2696	0.1491
2687	0.1592
2678	0.1528
2669	0.1189
2660	0.1146
2651	0.1579
2642	0.1885
2633	0.2126
2624	0.2243
2615	0.2002
2606	0.1863
2597	0.2216
2588	0.2767
2579	0.3111
2570	0.3407
2561	0.3459
2552	0.3156
2543	0.3273
2534	0.3954
2525	0.4427
2516	0.473
2507	0.5053
2498	0.5264
2489	0.5294
2480	0.447
2471	0.3033
2462	0.225
2453	0.2428
2444	0.2406
2435	0.1986
2426	0.2705
2417	0.3564
2408	0.404
2399	0.4258
2390	0.4308
2381	0.4324
2372	0.4357
2363	0.4514
2354	0.4881
2345	0.5118
2336	0.5322
2327	0.5504
2318	0.5673
2309	0.5836
2300	0.5939
2291	0.6026
2282	0.6093
2273	0.616
2264	0.6232
2255	0.6306
2246	0.6408
2237	0.6553
2228	0.6692
2219	0.6828
2210	0.6943
2201	0.7037
2192	0.7132
2183	0.7205
2174	0.7276
2165	0.7348
2156	0.7418
2147	0.7486
2138	0.7542
2129	0.7598
2120	0.7651
2111	0.7703
2102	0.7755
2093	0.7805
2084	0.7847
2075	0.7889
2066	0.793
2057	0.7969
2048	0.8014
2039	0.8057
2030	0.8093
2021	0.8133
2012	0.8168
2003	0.8165
1994	0.7885
1985	0.8121
1976	0.8144
1967	0.8174
1958	0.821
1949	0.8275
1940	0.8356
1931	0.843
1922	0.8404
1913	0.8394
1904	0.8425
1895	0.8396
1886	0.822
1877	0.8032
1868	0.7968
1859	0.8058
1850	0.8148
1841	0.8236
1832	0.8302
1823	0.8367
1814	0.8442
1805	0.8541
1796	0.86
1787	0.8592
1778	0.8577
1769	0.8598
1760	0.8654
1751	0.8715
1742	0.876
1733	0.8763
1724	0.8771
1715	0.8784
1706	0.8797
1697	0.8797
1688	0.879
1679	0.876
1670	0.8743
1661	0.8749
1652	0.8785
1643	0.8792
1634	0.874
1625	0.8725
1616	0.8736
1607	0.8768
1598	0.8298
1589	0.6578
1580	0.7938
1571	0.8397
1562	0.8566
1553	0.8645
1544	0.8688
1535	0.8711
1526	0.8733
1517	0.872
1508	0.8667
1499	0.868
1490	0.8746
1481	0.8752
1472	0.6991
1463	0.5567
1454	0.554
1445	0.615
1436	0.3799
1427	0.3928
1418	0.4727
1409	0.5721
1400	0.5719
1391	0.6353
1382	0.696
1373	0.7362
1364	0.7443
1355	0.6888
1346	0.5643
1337	0.4952
1328	0.6055
1319	0.6262
1310	0.4016
1301	0.3845
1292	0.5181
1283	0.5889
1274	0.6193
1265	0.681
1256	0.6871
1247	0.7165
1238	0.7192
1229	0.6474
1220	0.6961
1211	0.7188
1202	0.7083
1193	0.7449
1184	0.7482
1175	0.7471
1166	0.7467
1157	0.7151
1148	0.7191
1139	0.7481
1130	0.7589
1121	0.7656
1112	0.7681
1103	0.7658
1094	0.7469
1085	0.7111
1076	0.7218
1067	0.6908
1058	0.6317
1049	0.5702
1040	0.6894
1031	0.7064
1022	0.7369
1013	0.7175
1004	0.6284
995	0.71
986	0.7335
977	0.7478
968	0.7181
959	0.4903
950	0.5305
941	0.6646
932	0.7398
923	0.76
914	0.7671
905	0.7704
896	0.7175
887	0.6131
878	0.5753
869	0.7294
860	0.5759
851	0.7003
842	0.7769
833	0.7311
824	0.7972
815	0.8037
806	0.7965
797	0.7875
788	0.6354
779	0.7491
770	0.7768
761	0.7718
752	0.4866
743	0.6685
734	0.7395
725	0.7306
716	0.6961
707	0.7931
698	0.8122
689	0.8158
680	0.7571
671	0.3405
662	0.4532
653	0.7078
644	0.7887
635	0.8118
626	0.8209
617	0.8259
608	0.8294
599	0.8303
590	0.8303
581	0.8307
572	0.8309
563	0.8283
554	0.8256
545	0.823
536	0.8198
527	0.8165
518	0.8108
509	0.8025
500	0.789
491	0.7161
482	0.7438
473	0.584
464	0.7412
455	0.7526
446	0.7518
437	0.7461
428	0.7381
419	0.7281
410	0.7162
401	0.7037
392	0.6936
