Infrared Spectrum: PYRIMIDINE, 2-(METHYLTHIO)-
Formula: C5 H6 N2 S
CAS: 823-09-6
State: LIQUID (NEAT)
Class: COBLENTZ III
Instrument: PERKIN-ELMER 521 (GRATING)
Instrument parameters: FILTER CHANGE AT ABOUT 1020 CM^-^1
Sampling: TRANSMISSION
Path length: 0.002 CM (SPACER CsBr WINDOWS) NaCl WINDOWS
Resolution: 2
Origin: SOUTHERN RESEARCH INSTITUTE
1/CM	TRANSMITTANCE
592.88	0.83
601.89	0.6533
610.901	0.51
619.911	0.5551
628.922	0.8487
637.932	0.9166
646.943	0.9298
655.953	0.9303
664.964	0.9253
673.974	0.9214
682.984	0.9092
691.995	0.8856
701.005	0.8329
710.016	0.7219
719.026	0.5534
728.037	0.7696
737.047	0.6433
746.058	0.3758
755.068	0.2767
764.079	0.3
773.089	0.082
782.099	0.5562
791.11	0.3065
800.12	0.1371
809.131	0.199
818.141	0.4184
827.152	0.7163
836.162	0.8067
845.173	0.8309
854.183	0.829
863.193	0.845
872.204	0.85
881.214	0.8493
890.225	0.839
899.235	0.8327
908.246	0.8208
917.256	0.8003
926.267	0.7749
935.277	0.711
944.287	0.6532
953.298	0.5143
962.308	0.3079
971.319	0.3481
980.329	0.3764
989.34	0.674
998.35	0.7786
1007.36	0.8026
1016.37	0.7836
1025.38	0.8143
1034.39	0.8231
1043.4	0.83
1052.41	0.816
1061.42	0.7962
1070.43	0.7293
1079.44	0.7725
1088.45	0.6726
1097.47	0.7555
1106.48	0.7897
1115.49	0.79
1124.5	0.774
1133.51	0.7062
1142.52	0.5786
1151.53	0.4106
1160.54	0.269
1169.55	0.1248
1178.56	0.061
1187.57	0.0688
1196.58	0.131
1205.59	0.074
1214.6	0.1026
1223.61	0.4386
1232.62	0.6344
1241.63	0.6335
1250.64	0.4408
1259.65	0.4597
1268.66	0.7436
1277.67	0.79
1286.68	0.7821
1295.69	0.7673
1304.71	0.6793
1313.72	0.4219
1322.73	0.4519
1331.74	0.6458
1340.75	0.6344
1349.76	0.5614
1358.77	0.389
1367.78	0.1373
1376.79	0.0462
1385.8	0.035
1394.81	0.1004
1403.82	0.205
1412.83	0.2544
1421.84	0.2066
1430.85	0.1593
1439.86	0.2211
1448.87	0.3961
1457.88	0.5629
1466.89	0.6237
1475.9	0.6923
1484.91	0.7181
1493.92	0.7209
1502.94	0.6989
1511.95	0.6402
1520.96	0.4965
1529.97	0.297
1538.98	0.1056
1547.99	0.0496
1557	0.1482
1566.01	0.0762
1575.02	0.1403
1584.03	0.397
1593.04	0.5857
1602.05	0.6177
1611.06	0.623
1620.07	0.659
1629.08	0.6693
1638.09	0.7251
1647.1	0.7623
1656.11	0.7803
1665.12	0.8334
1674.13	0.858
1683.14	0.8588
1692.15	0.8205
1701.17	0.8364
1710.18	0.865
1719.19	0.8474
1728.2	0.8041
1737.21	0.865
1746.22	0.885
1755.23	0.8624
1764.24	0.8343
1773.25	0.8202
1782.26	0.8308
1791.27	0.8465
1800.28	0.8569
1809.29	0.8673
1818.3	0.858
1827.31	0.8662
1836.32	0.8836
1845.33	0.8965
1854.34	0.903
1863.35	0.9036
1872.36	0.8968
1881.37	0.8944
1890.38	0.8927
1899.4	0.888
1908.41	0.8798
1917.42	0.8526
1926.43	0.8377
1935.44	0.823
1944.45	0.8027
1953.46	0.7678
1962.47	0.736
1971.48	0.7449
1980.49	0.7946
1989.5	0.8305
1998.51	0.8497
2007.52	0.8568
2016.53	0.857
2025.54	0.8677
2034.55	0.8742
2043.56	0.8658
2052.57	0.8737
2061.58	0.8834
2070.59	0.889
2079.6	0.893
2088.61	0.895
2097.62	0.894
2106.64	0.893
2115.65	0.89
2124.66	0.8842
2133.67	0.8428
2142.68	0.8244
2151.69	0.8524
2160.7	0.859
2169.71	0.8498
2178.72	0.8588
2187.73	0.8737
2196.74	0.89
2205.75	0.89
2214.76	0.8863
2223.77	0.8753
2232.78	0.8545
2241.79	0.8393
2250.8	0.843
2259.81	0.841
2268.82	0.839
2277.83	0.835
2286.84	0.8377
2295.85	0.8448
2304.87	0.852
2313.88	0.8522
2322.89	0.847
2331.9	0.8342
2340.91	0.834
2349.92	0.836
2358.93	0.84
2367.94	0.845
2376.95	0.849
2385.96	0.8433
2394.97	0.8253
2403.98	0.822
2412.99	0.83
2422	0.8377
2431.01	0.8524
2440.02	0.866
2449.03	0.8734
2458.04	0.8834
2467.05	0.8917
2476.06	0.893
2485.07	0.888
2494.08	0.881
2503.1	0.866
2512.11	0.8578
2521.12	0.853
2530.13	0.857
2539.14	0.859
2548.15	0.859
2557.16	0.859
2566.17	0.8572
2575.18	0.856
2584.19	0.852
2593.2	0.849
2602.21	0.849
2611.22	0.85
2620.23	0.856
2629.24	0.8675
2638.25	0.8825
2647.26	0.886
2656.27	0.8792
2665.28	0.8675
2674.29	0.8563
2683.3	0.848
2692.31	0.844
2701.32	0.843
2710.34	0.8498
2719.35	0.852
2728.36	0.857
2737.37	0.859
2746.38	0.861
2755.39	0.8572
2764.4	0.8522
2773.41	0.8453
2782.42	0.8343
2791.43	0.8203
2800.44	0.8143
2809.45	0.8072
2818.46	0.7963
2827.47	0.793
2836.48	0.791
2845.49	0.791
2854.5	0.7938
2863.51	0.794
2872.52	0.7892
2881.53	0.7636
2890.54	0.7195
2899.55	0.6608
2908.57	0.5516
2917.58	0.4147
2926.59	0.4105
2935.6	0.5112
2944.61	0.6346
2953.62	0.6433
2962.63	0.6255
2971.64	0.6023
2980.65	0.5893
2989.66	0.5615
2998.67	0.5472
3007.68	0.5305
3016.69	0.4894
3025.7	0.444
3034.71	0.4335
3043.72	0.4839
3052.73	0.5365
3061.74	0.6177
3070.75	0.6487
3079.76	0.672
3088.77	0.682
3097.78	0.6762
3106.8	0.6683
3115.81	0.661
3124.82	0.6638
3133.83	0.6778
3142.84	0.7109
3151.85	0.7657
3160.86	0.7895
3169.87	0.7998
3178.88	0.8053
3187.89	0.8042
3196.9	0.8047
3205.91	0.808
3214.92	0.809
3223.93	0.809
3232.94	0.809
3241.95	0.811
3250.96	0.812
3259.97	0.812
3268.98	0.812
3277.99	0.812
3287	0.809
3296.01	0.809
3305.03	0.809
3314.04	0.8093
3323.05	0.807
3332.06	0.8032
3341.07	0.7932
3350.08	0.787
3359.09	0.781
3368.1	0.7762
3377.11	0.769
3386.12	0.7496
3395.13	0.7373
3404.14	0.7262
3413.15	0.707
3422.16	0.696
3431.17	0.69
3440.18	0.686
3449.19	0.682
3458.2	0.681
3467.21	0.683
3476.22	0.6868
3485.23	0.69
3494.24	0.6948
3503.25	0.7008
3512.27	0.705
3521.28	0.7165
3530.29	0.723
3539.3	0.727
3548.31	0.7308
3557.32	0.7368
3566.33	0.7567
3575.34	0.759
3584.35	0.759
3593.36	0.76
3602.37	0.7737
3611.38	0.777
3620.39	0.777
3629.4	0.778
3638.41	0.778
3647.42	0.7808
3656.43	0.785
3665.44	0.789
3674.45	0.793
3683.46	0.7977
3692.47	0.8038
3701.48	0.805
3710.5	0.8165
3719.51	0.8337
3728.52	0.847
3737.53	0.85
3746.54	0.853
3755.55	0.854
3764.56	0.854
3773.57	0.854
3782.58	0.853
3791.59	0.8528
3800.6	0.853
3809.61	0.853
3818.62	0.853
3827.63	0.852
3836.64	0.8445
3845.65	0.843
3854.66	0.847
3863.67	0.845
3872.68	0.841
3881.69	0.834
3890.7	0.83
3899.71	0.8337
3908.73	0.836
3917.74	0.839
3926.75	0.839
3935.76	0.84
3944.77	0.8382
3953.78	0.834
3962.79	0.83
3971.8	0.829
3980.81	0.8252
3989.82	0.822
3998.83	0.8212
4007.84	0.8202
