Infrared Spectrum: CYCLOHEXYLBENZENE
Formula: C12 H16
CAS: 827-52-1
State: VAPOR (35 MICROLITER AT 150 C)
Boiling point: 238 C
Class: COBLENTZ
Instrument: PERKIN-ELMER 180
Sampling: TRANSMISSION
Path length: 5 CM KBr CELL, CELL VOLUME: 80 CM^3
Resolution: 2-3 CM^-^1
Origin: PERKIN-ELMER CORP. (M. ZELLER)
1/CM	TRANSMITTANCE
409.451	0.562
418.903	0.611
428.354	0.686
437.806	0.729
447.257	0.7799
456.709	0.814
466.16	0.843
475.612	0.864
485.063	0.876
494.515	0.876
503.966	0.821
513.418	0.7381
522.869	0.723
532.321	0.818
541.772	0.898
551.224	0.914
560.675	0.92
570.127	0.921
579.578	0.93
589.03	0.928
598.481	0.926
607.933	0.916
617.384	0.872
626.836	0.912
636.288	0.916
645.739	0.895
655.191	0.861
664.642	0.806
674.094	0.6721
683.545	0.3591
692.997	0.296
702.448	0.5269
711.9	0.7
721.351	0.692
730.803	0.6001
740.254	0.5
749.706	0.503
759.157	0.6757
768.609	0.8179
778.06	0.861
787.512	0.893
796.963	0.901
806.415	0.901
815.866	0.887
825.318	0.893
834.769	0.905
844.221	0.891
853.673	0.851
863.124	0.849
872.576	0.852
882.027	0.844
891.479	0.88
900.93	0.901
910.382	0.899
919.833	0.902
929.285	0.912
938.736	0.909
948.188	0.902
957.639	0.886
967.091	0.874
976.542	0.848
985.994	0.782
995.445	0.76
1004.9	0.783
1014.35	0.74
1023.8	0.752
1033.25	0.84
1042.7	0.838
1052.15	0.803
1061.61	0.78
1071.06	0.807
1080.51	0.84
1089.96	0.852
1099.41	0.851
1108.86	0.851
1118.32	0.844
1127.77	0.84
1137.22	0.852
1146.67	0.849
1156.12	0.84
1165.57	0.824
1175.02	0.797
1184.48	0.81
1193.93	0.813
1203.38	0.818
1212.83	0.813
1222.28	0.798
1231.73	0.803
1241.18	0.799
1250.64	0.768
1260.09	0.741
1269.54	0.782
1278.99	0.806
1288.44	0.814
1297.89	0.815
1307.35	0.81
1316.8	0.81
1326.25	0.805
1335.7	0.772
1345.15	0.728
1354.6	0.763
1364.05	0.779
1373.51	0.791
1382.96	0.82
1392.41	0.825
1401.86	0.824
1411.31	0.809
1420.76	0.783
1430.22	0.677
1439.67	0.442
1449.12	0.4111
1458.57	0.6
1468.02	0.707
1477.47	0.6919
1486.92	0.573
1496.38	0.606
1505.83	0.73
1515.28	0.83
1524.73	0.84
1534.18	0.834
1543.63	0.843
1553.09	0.832
1562.54	0.829
1571.99	0.786
1581.44	0.741
1590.89	0.648
1600.34	0.591
1609.79	0.6979
1619.25	0.805
1628.7	0.825
1638.15	0.836
1647.6	0.832
1657.05	0.83
1666.5	0.813
1675.95	0.78
1685.41	0.748
1694.86	0.721
1704.31	0.732
1713.76	0.765
1723.21	0.799
1732.66	0.797
1742.12	0.813
1751.57	0.814
1761.02	0.824
1770.47	0.834
1779.92	0.852
1789.37	0.83
1798.82	0.848
1808.28	0.884
1817.73	0.897
1827.18	0.899
1836.63	0.895
1846.08	0.89
1855.53	0.879
1864.99	0.876
1874.44	0.882
1883.89	0.89
1893.34	0.899
1902.79	0.901
1912.24	0.898
1921.69	0.88
1931.15	0.86
1940.6	0.853
1950.05	0.856
1959.5	0.889
1968.95	0.899
1978.4	0.903
1987.86	0.906
1997.31	0.901
2006.76	0.898
2016.21	0.898
2025.66	0.8945
2035.11	0.893
2044.56	0.895
2054.02	0.898
2063.47	0.8946
2072.92	0.893
2082.37	0.891
2091.82	0.893
2101.27	0.891
2110.72	0.891
2120.18	0.891
2129.63	0.891
2139.08	0.891
2148.53	0.89
2157.98	0.8884
2167.43	0.8832
2176.89	0.883
2186.34	0.88
2195.79	0.88
2205.24	0.879
2214.69	0.8776
2224.14	0.876
2233.59	0.8792
2243.05	0.8827
2252.5	0.883
2261.95	0.881
2271.4	0.8794
2280.85	0.8807
2290.3	0.875
2299.76	0.8674
2309.21	0.864
2318.66	0.8618
2328.11	0.86
2337.56	0.863
2347.01	0.856
2356.46	0.853
2365.92	0.866
2375.37	0.87
2384.82	0.872
2394.27	0.874
2403.72	0.872
2413.17	0.874
2422.63	0.872
2432.08	0.872
2441.53	0.872
2450.98	0.871
2460.43	0.87
2469.88	0.8636
2479.33	0.863
2488.79	0.87
2498.24	0.8702
2507.69	0.861
2517.14	0.8626
2526.59	0.8663
2536.04	0.8662
2545.49	0.8591
2554.95	0.856
2564.4	0.8485
2573.85	0.8443
2583.3	0.838
2592.75	0.838
2602.2	0.84
2611.66	0.8373
2621.11	0.8328
2630.56	0.8293
2640.01	0.8199
2649.46	0.8028
2658.91	0.7981
2668.36	0.8049
2677.82	0.8173
2687.27	0.8216
2696.72	0.8251
2706.17	0.8317
2715.62	0.8371
2725.07	0.84
2734.53	0.84
2743.98	0.8339
2753.43	0.826
2762.88	0.8155
2772.33	0.8021
2781.78	0.7863
2791.23	0.7712
2800.69	0.7667
2810.14	0.7533
2819.59	0.7429
2829.04	0.6635
2838.49	0.4146
2847.94	0.1002
2857.4	0.0552
2866.85	0.2195
2876.3	0.3781
2885.75	0.439
2895.2	0.2937
2904.65	0.1137
2914.1	0.0099
2923.56	0
2933.01	0.0017
2942.46	0.1188
2951.91	0.4126
2961.36	0.5819
2970.81	0.6864
2980.26	0.747
2989.72	0.735
2999.17	0.5861
3008.62	0.545
3018.07	0.3823
3027.52	0.3177
3036.97	0.4819
3046.43	0.4537
3055.88	0.3378
3065.33	0.3961
3074.78	0.5088
3084.23	0.578
3093.68	0.6636
3103.13	0.7242
3112.59	0.7763
3122.04	0.809
3131.49	0.807
3140.94	0.798
3150.39	0.8005
3159.84	0.8149
3169.3	0.824
3178.75	0.824
3188.2	0.8244
3197.65	0.825
3207.1	0.826
3216.55	0.8278
3226	0.826
3235.46	0.826
3244.91	0.828
3254.36	0.8263
3263.81	0.825
3273.26	0.825
3282.71	0.828
3292.17	0.8298
3301.62	0.83
3311.07	0.829
3320.52	0.826
3329.97	0.824
3339.42	0.822
3348.87	0.82
3358.33	0.82
3367.78	0.818
3377.23	0.82
3386.68	0.8203
3396.13	0.817
3405.58	0.814
3415.03	0.814
3424.49	0.8176
3433.94	0.8211
3443.39	0.825
3452.84	0.826
3462.29	0.826
3471.74	0.8249
3481.2	0.824
3490.65	0.822
3500.1	0.822
3509.55	0.821
3519	0.8205
3528.45	0.818
3537.9	0.8175
3547.36	0.8151
3556.81	0.8145
3566.26	0.8101
3575.71	0.8104
3585.16	0.8168
3594.61	0.8162
3604.07	0.8112
3613.52	0.81
3622.97	0.81
3632.42	0.807
3641.87	0.809
3651.32	0.811
3660.77	0.811
3670.23	0.809
3679.68	0.8062
3689.13	0.803
3698.58	0.803
3708.03	0.8027
3717.48	0.802
3726.94	0.802
3736.39	0.802
3745.84	0.8034
3755.29	0.8057
3764.74	0.806
3774.19	0.806
3783.64	0.805
3793.1	0.803
3802.55	0.805
3812	0.803
3821.45	0.803
3830.9	0.802
3840.35	0.7989
3849.8	0.798
3859.26	0.798
3868.71	0.798
3878.16	0.798
3887.61	0.7975
3897.06	0.7969
3906.51	0.792
3915.97	0.791
3925.42	0.791
3934.87	0.792
3944.32	0.7944
3953.77	0.795
3963.22	0.7946
3972.67	0.794
3982.13	0.7944
3991.58	0.794
4001.03	0.7944
