Infrared Spectrum: 1-ADAMANTANECARBOXYLIC ACID
Formula: C11 H16 O2
CAS: 828-51-3
State: SOLUTION (10% CCl4 FOR 4000-1220, 10% CS2 FOR 1220-450 CM^-^1) VS SOLVENT
Class: COBLENTZ III
Instrument: CARY 90 (GRATING)
Instrument parameters: ORDER CHANGES: 3000, 2000, 1200 CM^-^1
Sampling: TRANSMISSION
Path length: 0.011 CM, AND 0.010 CM
Resolution: 2
Origin: WESTERN REGIONAL RES. USDA
1/CM	TRANSMITTANCE
3946	0.9094
3937	0.9089
3928	0.9083
3919	0.9075
3910	0.9068
3901	0.9062
3892	0.9059
3883	0.9056
3874	0.9054
3865	0.905
3856	0.9053
3847	0.9056
3838	0.9061
3829	0.9064
3820	0.9068
3811	0.9066
3802	0.9062
3793	0.9058
3784	0.9055
3775	0.9051
3766	0.9048
3757	0.9043
3748	0.904
3739	0.9036
3730	0.9037
3721	0.9039
3712	0.9042
3703	0.9044
3694	0.9046
3685	0.9049
3676	0.9051
3667	0.9053
3658	0.9051
3649	0.9045
3640	0.9039
3631	0.9033
3622	0.9027
3613	0.9018
3604	0.8996
3595	0.8981
3586	0.8962
3577	0.8938
3568	0.8915
3559	0.8841
3550	0.874
3541	0.863
3532	0.8687
3523	0.8768
3514	0.8828
3505	0.8864
3496	0.8875
3487	0.8866
3478	0.8857
3469	0.8793
3460	0.8752
3451	0.8696
3442	0.8636
3433	0.8575
3424	0.8518
3415	0.8462
3406	0.8406
3397	0.833
3388	0.826
3379	0.8191
3370	0.8108
3361	0.7982
3352	0.7865
3343	0.7751
3334	0.7592
3325	0.7378
3316	0.7276
3307	0.7174
3298	0.7051
3289	0.6919
3280	0.6794
3271	0.6644
3262	0.6456
3253	0.6229
3244	0.5959
3235	0.5684
3226	0.549
3217	0.5293
3208	0.513
3199	0.4948
3190	0.4759
3181	0.4548
3172	0.4353
3163	0.413
3154	0.3942
3145	0.3756
3136	0.3623
3127	0.3462
3118	0.3307
3109	0.3155
3100	0.2961
3091	0.276
3082	0.2588
3073	0.2456
3064	0.2462
3055	0.2469
3046	0.2395
3037	0.2309
3028	0.2223
3019	0.2143
3010	0.2089
3001	0.2057
2992	0.2043
2983	0.2166
2974	0.22
2965	0.2082
2956	0.1569
2947	0.1005
2938	0.0465
2929	0.0111
2920	0.0078
2911	0.0081
2902	0.007
2893	0.0232
2884	0.0722
2875	0.1039
2866	0.1074
2857	0.0668
2848	0.016
2839	0.1727
2830	0.266
2821	0.2741
2812	0.289
2803	0.31
2794	0.334
2785	0.3566
2776	0.3764
2767	0.4114
2758	0.426
2749	0.4221
2740	0.4158
2731	0.423
2722	0.435
2713	0.4551
2704	0.4528
2695	0.4452
2686	0.4383
2677	0.3818
2668	0.3696
2659	0.3618
2650	0.3559
2641	0.3529
2632	0.3809
2623	0.4044
2614	0.4062
2605	0.4064
2596	0.414
2587	0.4344
2578	0.4424
2569	0.4492
2560	0.4712
2551	0.4978
2542	0.5043
2533	0.4814
2524	0.4706
2515	0.5048
2506	0.5234
2497	0.5368
2488	0.5653
2479	0.5928
2470	0.6157
2461	0.6494
2452	0.6691
2443	0.6818
2434	0.6924
2425	0.7022
2416	0.7117
2407	0.7188
2398	0.7267
2389	0.7348
2380	0.7404
2371	0.7487
2362	0.7585
2353	0.7678
2344	0.7743
2335	0.7808
2326	0.7875
2317	0.7939
2308	0.7964
2299	0.7991
2290	0.8018
2281	0.8048
2272	0.8075
2263	0.8092
2254	0.8111
2245	0.8135
2236	0.8186
2227	0.8225
2218	0.8238
2209	0.8249
2200	0.8267
2191	0.8255
2182	0.8161
2173	0.8078
2164	0.809
2155	0.8232
2146	0.8242
2137	0.8275
2128	0.8364
2119	0.8436
2110	0.8434
2101	0.8421
2092	0.8406
2083	0.8383
2074	0.8361
2065	0.8336
2056	0.8344
2047	0.8364
2038	0.8349
2029	0.8264
2020	0.8164
2011	0.8108
2002	0.8061
1993	0.8005
1984	0.7968
1975	0.7939
1966	0.7931
1957	0.7911
1948	0.7878
1939	0.7849
1930	0.7818
1921	0.7808
1912	0.7814
1903	0.781
1894	0.7794
1885	0.7732
1876	0.7658
1867	0.7599
1858	0.7586
1849	0.7615
1840	0.765
1831	0.7667
1822	0.7701
1813	0.7721
1804	0.7671
1795	0.7601
1786	0.7374
1777	0.7415
1768	0.7381
1759	0.7165
1750	0.6484
1741	0.5997
1732	0.5622
1723	0.4442
1714	0.1961
1705	0.0465
1696	0.0024
1687	0.0492
1678	0.2268
1669	0.4232
1660	0.579
1651	0.6329
1642	0.6668
1633	0.7105
1624	0.7306
1615	0.7414
1606	0.7554
1597	0.7776
1588	0.7945
1579	0.8028
1570	0.8045
1561	0.8044
1552	0.8228
1543	0.8368
1534	0.8477
1525	0.8577
1516	0.8488
1507	0.8281
1498	0.7991
1489	0.7851
1480	0.7451
1471	0.6933
1462	0.7165
1453	0.1058
1444	0.4984
1435	0.663
1426	0.6575
1417	0.454
1408	0.3006
1399	0.4488
1390	0.5889
1381	0.7085
1372	0.7358
1363	0.7041
1354	0.7178
1345	0.391
1336	0.6618
1327	0.4383
1318	0.5167
1309	0.6761
1300	0.5266
1291	0.1959
1282	0.0375
1273	0.2334
1264	0.4269
1255	0.1515
1246	0.3598
1237	0.5419
1228	0.6355
1219	0.7012
1210	0.7231
1201	0.7489
1192	0.7365
1183	0.4412
1174	0.6965
1165	0.7875
1156	0.7992
1147	0.8118
1138	0.8321
1129	0.8289
1120	0.8018
1111	0.7243
1102	0.3427
1093	0.7208
1084	0.3061
1075	0.7026
1066	0.7758
1057	0.8106
1048	0.8007
1039	0.7955
1030	0.7884
1021	0.7761
1012	0.7612
1003	0.7447
994	0.7161
985	0.6089
976	0.443
967	0.4781
958	0.4169
949	0.3709
940	0.3455
931	0.3795
922	0.4555
913	0.5229
904	0.584
895	0.5693
886	0.5792
877	0.6721
868	0.7111
859	0.74
850	0.7642
841	0.7825
832	0.7951
823	0.7604
814	0.7043
805	0.7961
796	0.8305
787	0.8403
778	0.827
769	0.847
760	0.8457
751	0.8251
742	0.4459
733	0.7746
724	0.8395
715	0.8589
706	0.8638
697	0.8646
688	0.8615
679	0.8465
670	0.2029
661	0.7465
652	0.8301
643	0.8349
634	0.8464
625	0.851
616	0.8512
607	0.8518
598	0.8515
589	0.8459
580	0.8332
571	0.8297
562	0.8278
553	0.8167
544	0.7701
535	0.5385
526	0.3584
517	0.7083
508	0.7975
499	0.8252
490	0.8289
481	0.8275
