Infrared Spectrum: Acetamide, N-methyl-2-(N-methylanilino)-
Formula: C10 H14 N2 O
CAS: 82898-85-9
State: SOLID (NUJOL MULL)
Class: COBLENTZ III
Instrument: PERKIN-ELMER 21 (GRATING)
Instrument parameters: FILTER AT ABOUT 10 MICRONS
Resolution: 2
Origin: ABBOTT LABORATORIES
1/CM	TRANSMITTANCE
654	0.496
663	0.5253
672	0.5933
681	0.5925
690	0.4556
699	0.5018
708	0.5484
717	0.5337
726	0.5702
735	0.5952
744	0.5534
753	0.1396
762	0.5564
771	0.7359
780	0.7568
789	0.7722
798	0.7757
807	0.7759
816	0.776
825	0.7842
834	0.7804
843	0.7747
852	0.7606
861	0.7051
870	0.6368
879	0.7686
888	0.7663
897	0.7601
906	0.7572
915	0.7431
924	0.7283
933	0.7079
942	0.6395
951	0.5722
960	0.7233
969	0.7027
978	0.6971
987	0.4775
996	0.7134
1005	0.6124
1014	0.666
1023	0.6535
1032	0.5687
1041	0.648
1050	0.6941
1059	0.6797
1068	0.6422
1077	0.6305
1086	0.6749
1095	0.6762
1104	0.6551
1113	0.5989
1122	0.4658
1131	0.5982
1140	0.5718
1149	0.4554
1158	0.5816
1167	0.6013
1176	0.6104
1185	0.5031
1194	0.4771
1203	0.526
1212	0.311
1221	0.5069
1230	0.5653
1239	0.5368
1248	0.396
1257	0.5121
1266	0.5355
1275	0.5397
1284	0.5281
1293	0.483
1302	0.378
1311	0.2164
1320	0.2718
1329	0.3917
1338	0.4526
1347	0.3134
1356	0.3731
1365	0.2437
1374	0.2697
1383	0.3504
1392	0.3649
1401	0.4243
1410	0.5692
1419	0.4696
1428	0.5442
1437	0.4059
1446	0.3078
1455	0.1953
1464	0.16
1473	0.3128
1482	0.3492
1491	0.2923
1500	0.1507
1509	0.1652
1518	0.2776
1527	0.1902
1536	0.1699
1545	0.3755
1554	0.4562
1563	0.4596
1572	0.4064
1581	0.4109
1590	0.3599
1599	0.2
1608	0.1761
1617	0.3396
1626	0.3994
1635	0.348
1644	0.231
1653	0.098
1662	0.1766
1671	0.3306
1680	0.4867
1689	0.6144
1698	0.6823
1707	0.7314
1716	0.7579
1725	0.7726
1734	0.7766
1743	0.7781
1752	0.7794
1761	0.7815
1770	0.7867
1779	0.7962
1788	0.8013
1797	0.8001
1806	0.7969
1815	0.7908
1824	0.7867
1833	0.7858
1842	0.788
1851	0.7889
1860	0.7889
1869	0.7885
1878	0.7853
1887	0.7817
1896	0.7762
1905	0.7706
1914	0.7588
1923	0.7506
1932	0.7544
1941	0.7629
1950	0.7701
1959	0.7732
1968	0.774
1977	0.7724
1986	0.7701
1995	0.7675
2004	0.7651
2013	0.7631
2022	0.7612
2031	0.7593
2040	0.7571
2049	0.755
2058	0.7529
2067	0.75
2076	0.7471
2085	0.7442
2094	0.7413
2103	0.7384
2112	0.7368
2121	0.7357
2130	0.7345
2139	0.7335
2148	0.7327
2157	0.7319
2166	0.7311
2175	0.7302
2184	0.729
2193	0.7276
2202	0.7263
2211	0.725
2220	0.7234
2229	0.7208
2238	0.7183
2247	0.7158
2256	0.713
2265	0.7101
2274	0.7073
2283	0.7045
2292	0.7021
2301	0.7004
2310	0.6989
2319	0.6973
2328	0.6956
2337	0.694
2346	0.6926
2355	0.692
2364	0.6914
2373	0.6909
2382	0.6903
2391	0.6894
2400	0.6883
2409	0.6871
2418	0.686
2427	0.6849
2436	0.6838
2445	0.6827
2454	0.6816
2463	0.678
2472	0.6741
2481	0.6703
2490	0.6664
2499	0.6622
2508	0.658
2517	0.6539
2526	0.65
2535	0.6462
2544	0.6423
2553	0.6385
2562	0.6348
2571	0.6322
2580	0.6298
2589	0.6276
2598	0.6253
2607	0.6237
2616	0.6226
2625	0.6215
2634	0.6204
2643	0.6192
2652	0.6181
2661	0.616
2670	0.614
2679	0.6121
2688	0.6103
2697	0.6085
2706	0.6069
2715	0.6082
2724	0.6095
2733	0.6071
2742	0.5987
2751	0.5887
2760	0.5765
2769	0.563
2778	0.5419
2787	0.5212
2796	0.479
2805	0.4523
2814	0.3665
2823	0.2429
2832	0.0613
2841	0.0446
2850	0.0405
2859	0.0367
2868	0.0331
2877	0.0304
2886	0.0276
2895	0.0258
2904	0.0259
2913	0.0273
2922	0.0316
2931	0.0375
2940	0.045
2949	0.0853
2958	0.13
2967	0.1743
2976	0.2184
2985	0.2622
2994	0.3058
3003	0.3481
3012	0.3879
3021	0.4045
3030	0.4204
3039	0.4361
3048	0.4513
3057	0.4665
3066	0.4817
3075	0.4967
3084	0.5031
3093	0.508
3102	0.5091
3111	0.5099
3120	0.5092
3129	0.5079
3138	0.5063
3147	0.5019
3156	0.4949
3165	0.4892
3174	0.4856
3183	0.4826
3192	0.4797
3201	0.477
3210	0.4725
3219	0.4652
3228	0.4556
3237	0.4435
3246	0.4325
3255	0.422
3264	0.4115
3273	0.3988
3282	0.3862
3291	0.3684
3300	0.3467
3309	0.3211
3318	0.295
3327	0.2738
3336	0.2895
3345	0.3551
3354	0.4219
3363	0.4884
3372	0.5312
3381	0.5447
3390	0.5579
3399	0.5684
3408	0.5775
3417	0.5788
3426	0.5779
3435	0.5753
3444	0.5716
3453	0.5691
3462	0.5671
3471	0.565
3480	0.5635
3489	0.5634
3498	0.5633
3507	0.5623
3516	0.5606
3525	0.5589
3534	0.5573
3543	0.5551
3552	0.5509
3561	0.5467
3570	0.5425
3579	0.5391
3588	0.5376
3597	0.5362
3606	0.5348
3615	0.5333
3624	0.5319
3633	0.5307
3642	0.5295
3651	0.5283
3660	0.527
3669	0.5258
3678	0.5247
3687	0.5234
3696	0.522
3705	0.5207
3714	0.5193
3723	0.518
3732	0.5166
3741	0.5153
3750	0.5139
3759	0.5127
3768	0.5116
3777	0.5106
3786	0.5096
3795	0.5086
3804	0.5076
3813	0.5066
3822	0.5056
3831	0.5046
3840	0.5038
3849	0.503
3858	0.5023
3867	0.5014
3876	0.5006
3885	0.4999
3894	0.4992
3903	0.4983
3912	0.4959
3921	0.4928
3930	0.4883
3939	0.4824
3948	0.4784
3957	0.4772
3966	0.4769
3975	0.4766
3984	0.4764
3993	0.4761
