Infrared Spectrum: Indan-1-one
Formula: C9 H8 O
CAS: 83-33-0
State: SOLID (SPLIT MULL)
Class: COBLENTZ III
Instrument: DOW KBr FOREPRISM-GRATING
Instrument parameters: BLAZED AT 3.5, 12.0, 20.0 MICRON AND CHANGED AT 5.0, 7.5, 14.9 MICRON
Sampling: TRANSMISSION
Resolution: 2
Origin: DOW CHEMICAL COMPANY
1/CM	TRANSMITTANCE
383	0.5958
392	0.5996
401	0.6092
410	0.6364
419	0.6665
428	0.6996
437	0.7288
446	0.7528
455	0.7433
464	0.4162
473	0.8111
482	0.7441
491	0.8609
500	0.8708
509	0.8738
518	0.8771
527	0.8743
536	0.8507
545	0.7854
554	0.7798
563	0.7618
572	0.7896
581	0.8971
590	0.8968
599	0.8932
608	0.8868
617	0.8794
626	0.8685
635	0.8531
644	0.8204
653	0.7438
662	0.8432
671	0.8732
680	0.8721
689	0.8653
698	0.8493
707	0.8087
716	0.7207
725	0.7199
734	0.735
743	0.7461
752	0.3882
761	0.5203
770	0.0855
779	0.6019
788	0.7672
797	0.7967
806	0.7951
815	0.7521
824	0.651
833	0.7706
842	0.8068
851	0.8114
860	0.8101
869	0.8038
878	0.7998
887	0.7631
896	0.7925
905	0.79
914	0.7772
923	0.7701
932	0.7684
941	0.7575
950	0.6682
959	0.7471
968	0.7345
977	0.6811
986	0.7425
995	0.7238
1004	0.7091
1013	0.6404
1022	0.6352
1031	0.4312
1040	0.6901
1049	0.7445
1058	0.7558
1067	0.7453
1076	0.7099
1085	0.6434
1094	0.7146
1103	0.7192
1112	0.7318
1121	0.7175
1130	0.6796
1139	0.5912
1148	0.5473
1157	0.686
1166	0.608
1175	0.6498
1184	0.6719
1193	0.615
1202	0.276
1211	0.6841
1220	0.678
1229	0.6578
1238	0.5417
1247	0.661
1256	0.6432
1265	0.4952
1274	0.2714
1283	0.3664
1292	0.4808
1301	0.5978
1310	0.579
1319	0.4889
1328	0.3169
1337	0.7018
1346	0.6957
1355	0.7105
1364	0.7354
1373	0.7361
1382	0.7219
1391	0.6848
1400	0.7042
1409	0.7372
1418	0.7506
1427	0.6143
1436	0.7983
1445	0.6965
1454	0.6951
1463	0.6653
1472	0.6564
1481	0.811
1490	0.7996
1499	0.7918
1508	0.7834
1517	0.7789
1526	0.7721
1535	0.7643
1544	0.7533
1553	0.7493
1562	0.7303
1571	0.7058
1580	0.638
1589	0.6239
1598	0.5986
1607	0.512
1616	0.7025
1625	0.7168
1634	0.693
1643	0.6628
1652	0.6126
1661	0.5994
1670	0.5096
1679	0.3705
1688	0.2882
1697	0.1842
1706	0.1893
1715	0.1871
1724	0.4535
1733	0.8085
1742	0.8542
1751	0.8642
1760	0.8701
1769	0.8703
1778	0.8741
1787	0.8723
1796	0.8635
1805	0.8542
1814	0.8488
1823	0.8444
1832	0.8368
1841	0.833
1850	0.8339
1859	0.8263
1868	0.8216
1877	0.8133
1886	0.8191
1895	0.8212
1904	0.8154
1913	0.813
1922	0.8058
1931	0.7965
1940	0.7915
1949	0.7908
1958	0.7907
1967	0.7855
1976	0.7786
1985	0.7743
1994	0.7596
2003	0.7732
2012	0.7684
2021	0.7628
2030	0.7581
2039	0.7551
2048	0.7526
2057	0.7497
2066	0.7468
2075	0.7442
2084	0.7421
2093	0.7388
2102	0.7355
2111	0.7319
2120	0.7286
2129	0.7251
2138	0.7225
2147	0.7199
2156	0.7178
2165	0.7158
2174	0.7125
2183	0.7085
2192	0.7044
2201	0.7
2210	0.6946
2219	0.6896
2228	0.6851
2237	0.6804
2246	0.6791
2255	0.6783
2264	0.6772
2273	0.6764
2282	0.6758
2291	0.6758
2300	0.6764
2309	0.6771
2318	0.678
2327	0.6786
2336	0.6793
2345	0.6821
2354	0.6865
2363	0.6785
2372	0.668
2381	0.6622
2390	0.663
2399	0.6628
2408	0.6624
2417	0.6618
2426	0.6614
2435	0.6608
2444	0.6604
2453	0.6594
2462	0.6585
2471	0.6575
2480	0.6565
2489	0.6551
2498	0.6539
2507	0.6525
2516	0.6512
2525	0.6499
2534	0.6487
2543	0.6474
2552	0.6461
2561	0.6449
2570	0.6437
2579	0.6422
2588	0.6407
2597	0.6391
2606	0.6375
2615	0.6359
2624	0.6344
2633	0.6329
2642	0.6316
2651	0.6303
2660	0.6291
2669	0.6275
2678	0.6253
2687	0.6228
2696	0.6205
2705	0.6178
2714	0.6153
2723	0.6125
2732	0.6097
2741	0.6069
2750	0.604
2759	0.601
2768	0.5981
2777	0.5952
2786	0.5922
2795	0.5889
2804	0.5855
2813	0.5821
2822	0.5788
2831	0.5755
2840	0.5727
2849	0.5715
2858	0.5689
2867	0.5668
2876	0.5632
2885	0.5579
2894	0.545
2903	0.5209
2912	0.4991
2921	0.49
2930	0.545
2939	0.5481
2948	0.5605
2957	0.5625
2966	0.5639
2975	0.5617
2984	0.5579
2993	0.5518
3002	0.5479
3011	0.5573
3020	0.5506
3029	0.5396
3038	0.5383
3047	0.5418
3056	0.5423
3065	0.5379
3074	0.5408
3083	0.5457
3092	0.5491
3101	0.5516
3110	0.5519
3119	0.5508
3128	0.5497
3137	0.5476
3146	0.5455
3155	0.5432
3164	0.5409
3173	0.5386
3182	0.5364
3191	0.5341
3200	0.532
3209	0.5297
3218	0.5273
3227	0.5249
3236	0.5225
3245	0.52
3254	0.5178
3263	0.5157
3272	0.5136
3281	0.5115
3290	0.509
3299	0.5065
3308	0.5039
3317	0.5014
3326	0.4986
3335	0.4958
3344	0.493
3353	0.4901
3362	0.4876
3371	0.4857
3380	0.4839
3389	0.4889
3398	0.4919
3407	0.4907
3416	0.4862
3425	0.4822
3434	0.4812
3443	0.48
3452	0.4787
3461	0.4762
3470	0.4739
3479	0.4716
3488	0.47
3497	0.4683
3506	0.4666
3515	0.4653
3524	0.4644
3533	0.4634
3542	0.4625
3551	0.4616
3560	0.4609
3569	0.4601
3578	0.4593
3587	0.4586
3596	0.4577
3605	0.4562
3614	0.4549
3623	0.4535
3632	0.4521
3641	0.4507
3650	0.4498
3659	0.449
3668	0.4482
3677	0.4473
3686	0.4464
3695	0.4454
3704	0.4444
3713	0.4434
3722	0.4417
3731	0.4399
3740	0.4383
3749	0.4372
3758	0.436
3767	0.4348
3776	0.4336
3785	0.4322
