Infrared Spectrum: ACENAPHTHENE
Formula: C12 H10
CAS: 83-32-9
Melting point: 95.4 C
Class: COBLENTZ
Instrument: Not specified, most likely a prism, grating, or hybrid spectrometer.
Sampling: TRANSMISSION
Resolution: 4
Origin: PROF. T. URBANSKI, INSTITUTE OF TECHNOLOGY, WARSZAWA, POLAND
1/CM	TRANSMITTANCE
999.183	0.968
1004.9	0.969
1010.63	0.973
1016.35	0.985
1022.07	0.985
1027.79	0.977
1033.51	0.929
1039.23	0.952
1044.95	0.958
1050.67	0.954
1056.4	0.952
1062.12	0.953
1067.84	0.955
1073.56	0.961
1079.28	0.969
1085	0.97
1090.72	0.968
1096.45	0.966
1102.17	0.965
1107.89	0.965
1113.61	0.969
1119.33	0.971
1125.05	0.97
1130.77	0.963
1136.49	0.906
1142.22	0.911
1147.94	0.938
1153.66	0.939
1159.38	0.928
1165.1	0.822
1170.82	0.721
1176.54	0.627
1182.26	0.911
1187.99	0.936
1193.71	0.938
1199.43	0.933
1205.15	0.926
1210.87	0.897
1216.59	0.868
1222.31	0.936
1228.03	0.935
1233.76	0.931
1239.48	0.925
1245.2	0.907
1250.92	0.8
1256.64	0.748
1262.36	0.852
1268.08	0.885
1273.81	0.889
1279.53	0.904
1285.25	0.933
1290.97	0.931
1296.69	0.922
1302.41	0.909
1308.13	0.889
1313.85	0.891
1319.58	0.895
1325.3	0.895
1331.02	0.902
1336.74	0.902
1342.46	0.894
1348.18	0.77
1353.9	0.595
1359.62	0.451
1365.35	0.246
1371.07	0.163
1376.79	0.478
1382.51	0.787
1388.23	0.881
1393.95	0.885
1399.67	0.87
1405.39	0.846
1411.12	0.729
1416.84	0.603
1422.56	0.463
1428.28	0.665
1434	0.803
1439.72	0.699
1445.44	0.64
1451.17	0.636
1456.89	0.837
1462.61	0.896
1468.33	0.899
1474.05	0.896
1479.77	0.893
1485.49	0.887
1491.21	0.865
1496.94	0.825
1502.66	0.836
1508.38	0.887
1514.1	0.896
1519.82	0.901
1525.54	0.909
1531.26	0.913
1536.98	0.912
1542.71	0.911
1548.43	0.914
1554.15	0.915
1559.87	0.91
1565.59	0.902
1571.31	0.863
1577.03	0.652
1582.76	0.494
1588.48	0.382
1594.2	0.255
1599.92	0.175
1605.64	0.185
1611.36	0.526
1617.08	0.864
1622.8	0.874
1628.53	0.866
1634.25	0.857
1639.97	0.869
1645.69	0.881
1651.41	0.884
1657.13	0.896
1662.85	0.9
1668.57	0.89
1674.3	0.879
1680.02	0.862
1685.74	0.812
1691.46	0.811
1697.18	0.797
1702.9	0.81
1708.62	0.828
1714.34	0.833
1720.07	0.838
1725.79	0.846
1731.51	0.844
1737.23	0.833
1742.95	0.83
1748.67	0.829
1754.39	0.829
1760.12	0.83
1765.84	0.829
1771.56	0.828
1777.28	0.827
1783	0.826
1788.72	0.824
1794.44	0.826
1800.16	0.832
1805.89	0.837
1811.61	0.841
1817.33	0.841
1823.05	0.832
1828.77	0.81
1834.49	0.79
1840.21	0.782
1845.93	0.783
1851.66	0.797
1857.38	0.797
1863.1	0.785
1868.82	0.774
1874.54	0.773
1880.26	0.774
1885.98	0.799
1891.71	0.811
1897.43	0.82
1903.15	0.833
1908.87	0.828
1914.59	0.819
1920.31	0.795
1926.03	0.779
1931.75	0.783
1937.48	0.805
1943.2	0.816
1948.92	0.84
1954.64	0.848
1960.36	0.845
1966.08	0.841
1971.8	0.839
1977.52	0.839
1983.25	0.839
1988.97	0.835
1994.69	0.828
2000.41	0.828
2006.13	0.831
2011.85	0.835
2017.57	0.839
2023.29	0.841
2029.02	0.843
2034.74	0.844
2040.46	0.844
2046.18	0.844
2051.9	0.846
2057.62	0.847
2063.34	0.849
2069.07	0.849
2074.79	0.849
2080.51	0.851
2086.23	0.853
2091.95	0.854
2097.67	0.854
2103.39	0.853
2109.11	0.852
2114.84	0.851
2120.56	0.848
2126.28	0.847
2132	0.846
2137.72	0.844
2143.44	0.843
2149.16	0.841
2154.88	0.839
2160.61	0.838
2166.33	0.836
2172.05	0.835
2177.77	0.834
2183.49	0.835
2189.21	0.836
2194.93	0.837
2200.65	0.836
2206.38	0.833
2212.1	0.827
2217.82	0.824
2223.54	0.824
2229.26	0.825
2234.98	0.827
2240.7	0.828
2246.43	0.829
2252.15	0.83
2257.87	0.835
2263.59	0.833
2269.31	0.829
2275.03	0.823
2280.75	0.818
2286.47	0.814
2292.2	0.814
2297.92	0.819
2303.64	0.824
2309.36	0.824
2315.08	0.82
2320.8	0.817
2326.52	0.813
2332.24	0.811
2337.97	0.808
2343.69	0.808
2349.41	0.806
2355.13	0.804
2360.85	0.805
2366.57	0.808
2372.29	0.818
2378.02	0.825
2383.74	0.83
2389.46	0.832
2395.18	0.833
2400.9	0.831
2406.62	0.827
2412.34	0.823
2418.06	0.821
2423.79	0.824
2429.51	0.827
2435.23	0.831
2440.95	0.834
2446.67	0.835
2452.39	0.836
2458.11	0.836
2463.83	0.834
2469.56	0.832
2475.28	0.828
2481	0.821
2486.72	0.813
2492.44	0.808
2498.16	0.806
2503.88	0.816
2509.6	0.824
2515.33	0.835
2521.05	0.839
2526.77	0.839
2532.49	0.84
2538.21	0.84
2543.93	0.84
2549.65	0.841
2555.38	0.843
2561.1	0.843
2566.82	0.843
2572.54	0.842
2578.26	0.842
2583.98	0.841
2589.7	0.841
2595.42	0.841
2601.15	0.84
2606.87	0.84
2612.59	0.839
2618.31	0.838
2624.03	0.836
2629.75	0.836
2635.47	0.836
2641.19	0.838
2646.92	0.839
2652.64	0.839
2658.36	0.84
2664.08	0.841
2669.8	0.843
2675.52	0.843
2681.24	0.843
2686.97	0.841
2692.69	0.842
2698.41	0.841
2704.13	0.841
2709.85	0.841
2715.57	0.84
2721.29	0.84
2727.01	0.839
2732.74	0.838
2738.46	0.838
2744.18	0.838
2749.9	0.839
2755.62	0.839
2761.34	0.838
2767.06	0.837
2772.78	0.835
2778.51	0.832
2784.23	0.828
2789.95	0.824
2795.67	0.817
2801.39	0.806
2807.11	0.791
2812.83	0.782
2818.55	0.749
2824.28	0.705
2830	0.648
2835.72	0.633
2841.44	0.667
2847.16	0.721
2852.88	0.762
2858.6	0.743
2864.33	0.708
2870.05	0.672
2875.77	0.646
2881.49	0.645
2887.21	0.671
2892.93	0.695
2898.65	0.703
2904.37	0.679
2910.1	0.577
2915.82	0.496
2921.54	0.421
2927.26	0.404
2932.98	0.429
2938.7	0.479
2944.42	0.568
2950.14	0.669
2955.87	0.719
2961.59	0.759
2967.31	0.778
2973.03	0.785
2978.75	0.779
2984.47	0.765
2990.19	0.755
2995.91	0.743
3001.64	0.727
3007.36	0.713
3013.08	0.694
3018.8	0.663
3024.52	0.626
3030.24	0.56
3035.96	0.508
3041.69	0.459
3047.41	0.421
3053.13	0.465
3058.85	0.555
3064.57	0.654
3070.29	0.744
3076.01	0.786
3081.73	0.792
3087.46	0.8
3093.18	0.805
3098.9	0.815
3104.62	0.82
3110.34	0.827
3116.06	0.839
3121.78	0.845
3127.5	0.848
3133.23	0.85
3138.95	0.851
3144.67	0.852
3150.39	0.852
3156.11	0.849
3161.83	0.846
3167.55	0.846
3173.28	0.85
3179	0.857
3184.72	0.863
3190.44	0.868
3196.16	0.871
3201.88	0.873
3207.6	0.876
3213.32	0.877
3219.05	0.879
3224.77	0.882
3230.49	0.885
3236.21	0.886
3241.93	0.887
