Infrared Spectrum: 1-METHYL-PHENANTHRENE
Formula: C15 H12
CAS: 832-69-9
State: SOLUTION (25 g/L IN HEPTANE)
Class: COBLENTZ
Instrument: Not specified, most likely a prism, grating, or hybrid spectrometer.
Sampling: TRANSMISSION
Path length: 0.01 CM
Resolution: 4
Origin: CENTRE D'ETUDES NUCLEAIRES DE GRENOBLE
MICROMETERS	TRANSMITTANCE
1.999	0.914
2.03904	0.916
2.07908	0.916
2.11912	0.919
2.15917	0.921
2.19921	0.922
2.23925	0.924
2.27929	0.924
2.31933	0.922
2.35937	0.921
2.39941	0.922
2.43945	0.926
2.4795	0.931
2.51954	0.932
2.55958	0.931
2.59962	0.927
2.63966	0.929
2.6797	0.932
2.71974	0.941
2.75979	0.948
2.79983	0.948
2.83987	0.946
2.87991	0.948
2.91995	0.949
2.95999	0.949
3.00003	0.954
3.04007	0.954
3.08012	0.958
3.12016	0.958
3.1602	0.958
3.20024	0.956
3.24028	0.949
3.28032	0.904
3.32036	0.84
3.36041	0.867
3.40045	0.897
3.44049	0.896
3.48053	0.887
3.52057	0.896
3.56061	0.891
3.60065	0.896
3.6407	0.929
3.68074	0.951
3.72078	0.956
3.76082	0.969
3.80086	0.971
3.8409	0.969
3.88094	0.969
3.92098	0.971
3.96103	0.971
4.00107	0.973
4.04111	0.978
4.08115	0.983
4.12119	0.984
4.16123	0.983
4.20127	0.981
4.24132	0.978
4.28136	0.974
4.3214	0.971
4.36144	0.971
4.40148	0.978
4.44152	0.983
4.48156	0.993
4.5216	0.994
4.56165	0.989
4.60169	0.986
4.64173	0.991
4.68177	0.989
4.72181	0.993
4.76185	0.994
4.80189	0.994
4.84194	0.996
4.88198	0.996
4.92202	0.996
4.96206	0.998
5.0021	0.998
5.04214	0.998
5.08218	0.998
5.12223	1
5.16227	0.996
5.20231	0.988
5.24235	0.973
5.28239	0.976
5.32243	0.993
5.36247	0.996
5.40251	0.994
5.44256	0.986
5.4826	0.988
5.52264	0.991
5.56268	0.994
5.60272	0.998
5.64276	0.991
5.6828	0.974
5.72285	0.976
5.76289	0.993
5.80293	0.998
5.84297	0.998
5.88301	0.996
5.92305	0.989
5.96309	0.981
6.00313	0.986
6.04318	0.981
6.08322	0.973
6.12326	0.973
6.1633	0.979
6.20334	0.984
6.24338	0.968
6.28342	0.914
6.32347	0.969
6.36351	0.974
6.40355	0.978
6.44359	0.986
6.48363	0.988
6.52367	0.984
6.56371	0.959
6.60375	0.959
6.6438	0.963
6.68384	0.944
6.72388	0.946
6.76392	0.943
6.80396	0.939
6.844	0.932
6.88404	0.927
6.92409	0.921
6.96413	0.917
7.00417	0.914
7.04421	0.912
7.08425	0.927
7.12429	0.954
7.16433	0.968
7.20438	0.968
7.24442	0.954
7.28446	0.944
7.3245	0.934
7.36454	0.951
7.40458	0.964
7.44462	0.973
7.48466	0.974
7.52471	0.979
7.56475	0.989
7.60479	0.998
7.64483	0.984
7.68487	0.971
7.72491	0.954
7.76495	0.958
7.805	0.986
7.84504	0.989
7.88508	0.988
7.92512	0.978
7.96516	0.976
8.0052	0.991
8.04524	0.976
8.08528	0.956
8.12533	0.974
8.16537	0.974
8.20541	0.981
8.24545	0.989
8.28549	0.988
8.32553	0.984
8.36557	0.951
8.40562	0.969
8.44566	0.991
8.4857	0.991
8.52574	0.986
8.56578	0.991
8.60582	0.978
8.64586	0.976
8.6859	0.983
8.72595	0.983
8.76599	0.978
8.80603	0.969
8.84607	0.948
8.88611	0.971
8.92615	0.974
8.96619	0.988
9.00624	0.998
9.04628	1
9.08632	0.996
9.12636	0.989
9.1664	0.984
9.20644	0.973
9.24648	0.959
9.28652	0.958
9.32657	0.969
9.36661	0.976
9.40665	0.983
9.44669	0.989
9.48673	0.986
9.52677	0.991
9.56681	1
9.60686	1.003
9.6469	0.991
9.68694	0.926
9.72698	0.966
9.76702	0.984
9.80706	0.993
9.8471	0.998
9.88715	1.005
9.92719	1.006
9.96723	1.003
10.0073	1.003
10.0473	1.001
10.0874	1
10.1274	1
10.1674	1.001
10.2075	1.005
10.2475	1.006
10.2876	1.001
10.3276	1.005
10.3676	1
10.4077	0.983
10.4477	0.979
10.4878	0.994
10.5278	1.001
10.5678	0.996
10.6079	0.978
10.6479	0.981
10.688	0.996
10.728	0.991
10.7681	0.986
10.8081	1
10.8481	1.003
10.8882	1.001
10.9282	1.001
10.9683	1.001
11.0083	1.001
11.0483	1.003
11.0884	1.001
11.1284	0.993
11.1685	0.991
11.2085	0.998
11.2486	1.001
11.2886	1
11.3286	0.994
11.3687	0.961
11.4087	0.946
11.4488	0.969
11.4888	0.983
11.5288	0.991
11.5689	0.964
11.6089	0.917
11.649	0.954
11.689	0.989
11.729	1.001
11.7691	1
11.8091	1.003
11.8492	1.001
11.8892	1.005
11.9293	1.003
11.9693	1.003
12.0093	1
12.0494	0.993
12.0894	0.986
12.1295	0.963
12.1695	0.926
12.2095	0.783
12.2496	0.557
12.2896	0.768
12.3297	0.889
12.3697	0.924
12.4098	0.922
12.4498	0.827
12.4898	0.53
12.5299	0.685
12.5699	0.876
12.61	0.946
12.65	0.973
12.69	0.974
12.7301	0.974
12.7701	0.979
12.8102	0.979
12.8502	0.978
12.8902	0.976
12.9303	0.974
12.9703	0.974
13.0104	0.973
13.0504	0.973
13.0905	0.973
13.1305	0.971
13.1705	0.953
13.2106	0.926
13.2506	0.788
13.2907	0.703
13.3307	0.757
13.3707	0.663
13.4108	0.45
13.4508	0.316
13.4909	0.668
13.5309	0.817
13.5709	0.889
13.611	0.912
13.651	0.922
13.6911	0.927
13.7311	0.938
13.7712	0.938
13.8112	0.927
13.8512	0.917
13.8913	0.911
13.9313	0.912
13.9714	0.924
14.0114	0.941
14.0514	0.948
14.0915	0.938
14.1315	0.956
14.1716	0.969
14.2116	0.981
14.2517	0.989
14.2917	0.993
14.3317	0.998
14.3718	1
14.4118	1
14.4519	1
14.4919	1
14.5319	1.003
14.572	1
14.612	0.998
14.6521	0.998
14.6921	1.001
14.7321	1.001
14.7722	1.001
14.8122	1.001
14.8523	1.001
14.8923	1
14.9324	0.998
14.9724	0.998
15.0124	0.998
15.0525	0.996
15.0925	0.996
15.1326	0.989
15.1726	0.983
15.2126	0.981
15.2527	0.986
15.2927	0.984
15.3328	0.981
15.3728	0.979
15.4129	0.979
15.4529	0.973
15.4929	0.976
15.533	0.976
15.573	0.976
15.6131	0.976
15.6531	0.976
15.6931	0.974
15.7332	0.974
15.7732	0.976
15.8133	0.976
15.8533	0.973
