Infrared Spectrum: 4-METHYL-PHENANTHRENE
Formula: C15 H12
CAS: 832-64-4
State: SOLUTION (100 g/L IN HEPTANE)
Class: COBLENTZ
Instrument: Not specified, most likely a prism, grating, or hybrid spectrometer.
Sampling: TRANSMISSION
Path length: 0.1 CM
Resolution: 4
Origin: CENTRE D'ETUDES NUCLEAIRES DE GRENOBLE
MICROMETERS	TRANSMITTANCE
14.709	0.86
14.7647	0.859
14.8203	0.857
14.876	0.834
14.9316	0.78
14.9873	0.651
15.0429	0.552
15.0986	0.527
15.1542	0.592
15.2099	0.745
15.2655	0.798
15.3212	0.876
15.3768	0.899
15.4325	0.921
15.4882	0.934
15.5438	0.948
15.5995	0.953
15.6551	0.961
15.7108	0.964
15.7664	0.966
15.8221	0.974
15.8777	0.981
15.9334	0.984
15.989	0.988
16.0447	0.983
16.1003	0.979
16.156	0.969
16.2117	0.946
16.2673	0.934
16.323	0.922
16.3786	0.926
16.4343	0.934
16.4899	0.941
16.5456	0.946
16.6012	0.941
16.6569	0.917
16.7125	0.857
16.7682	0.815
16.8238	0.742
16.8795	0.726
16.9352	0.747
16.9908	0.787
17.0465	0.865
17.1021	0.897
17.1578	0.912
17.2134	0.919
17.2691	0.943
17.3247	0.934
17.3804	0.944
17.436	0.931
17.4917	0.917
17.5473	0.904
17.603	0.869
17.6587	0.84
17.7143	0.819
17.77	0.8
17.8256	0.793
17.8813	0.785
17.9369	0.767
17.9926	0.75
18.0482	0.737
18.1039	0.748
18.1595	0.772
18.2152	0.802
18.2708	0.854
18.3265	0.867
18.3822	0.877
18.4378	0.881
18.4935	0.874
18.5491	0.85
18.6048	0.807
18.6604	0.752
18.7161	0.706
18.7717	0.664
18.8274	0.661
18.883	0.698
18.9387	0.737
18.9943	0.772
19.05	0.79
19.1057	0.814
19.1613	0.815
19.217	0.81
19.2726	0.809
19.3283	0.792
19.3839	0.773
19.4396	0.738
19.4952	0.711
19.5509	0.659
19.6065	0.613
19.6622	0.559
19.7178	0.477
19.7735	0.402
19.8292	0.35
19.8848	0.283
19.9405	0.221
19.9961	0.195
20.0518	0.18
20.1074	0.182
20.1631	0.216
20.2187	0.298
20.2744	0.386
20.33	0.457
20.3857	0.552
20.4414	0.648
20.497	0.705
20.5527	0.77
20.6083	0.809
20.664	0.835
20.7196	0.854
20.7753	0.857
20.8309	0.864
20.8866	0.874
20.9422	0.879
20.9979	0.884
21.0535	0.886
21.1092	0.889
21.1649	0.891
21.2205	0.889
21.2762	0.887
21.3318	0.884
21.3875	0.882
21.4431	0.879
21.4988	0.876
21.5544	0.874
21.6101	0.874
21.6657	0.872
21.7214	0.859
21.777	0.852
21.8327	0.849
21.8884	0.844
21.944	0.842
21.9997	0.845
22.0553	0.847
22.111	0.85
22.1666	0.855
22.2223	0.864
22.2779	0.871
22.3336	0.877
22.3892	0.881
22.4449	0.886
22.5005	0.887
22.5562	0.887
22.6119	0.889
22.6675	0.889
22.7232	0.891
22.7788	0.892
22.8345	0.894
22.8901	0.896
22.9458	0.897
23.0014	0.899
23.0571	0.901
23.1127	0.901
23.1684	0.896
23.224	0.889
23.2797	0.879
23.3354	0.864
23.391	0.849
23.4467	0.832
23.5023	0.824
23.558	0.817
23.6136	0.817
23.6693	0.827
23.7249	0.837
23.7806	0.847
23.8362	0.852
23.8919	0.849
23.9475	0.85
24.0032	0.847
24.0589	0.834
24.1145	0.822
24.1702	0.807
24.2258	0.758
24.2815	0.726
24.3371	0.676
24.3928	0.618
24.4484	0.559
24.5041	0.525
24.5597	0.504
24.6154	0.492
24.671	0.494
24.7267	0.502
24.7824	0.522
24.838	0.562
24.8937	0.597
24.9493	0.614
25.005	0.639
25.0606	0.648
25.1163	0.659
25.1719	0.698
25.2276	0.72
25.2832	0.752
25.3389	0.77
25.3945	0.792
25.4502	0.82
25.5059	0.837
25.5615	0.85
25.6172	0.864
25.6728	0.871
25.7285	0.882
25.7841	0.891
25.8398	0.894
25.8954	0.896
25.9511	0.897
26.0067	0.899
26.0624	0.902
26.118	0.906
26.1737	0.909
26.2294	0.909
26.285	0.912
26.3407	0.914
26.3963	0.917
26.452	0.919
26.5076	0.917
26.5633	0.916
26.6189	0.919
26.6746	0.917
26.7302	0.921
26.7859	0.924
26.8415	0.926
26.8972	0.921
26.9529	0.921
27.0085	0.917
27.0642	0.914
27.1198	0.914
27.1755	0.916
27.2311	0.917
27.2868	0.921
27.3424	0.921
27.3981	0.917
27.4537	0.916
27.5094	0.917
27.565	0.919
27.6207	0.919
27.6764	0.919
27.732	0.916
27.7877	0.912
27.8433	0.914
27.899	0.914
27.9546	0.914
28.0103	0.911
28.0659	0.909
28.1216	0.907
28.1772	0.904
28.2329	0.904
28.2885	0.904
28.3442	0.901
28.3999	0.901
28.4555	0.899
28.5112	0.897
28.5668	0.894
28.6225	0.891
28.6781	0.882
28.7338	0.881
28.7894	0.879
28.8451	0.872
28.9007	0.867
28.9564	0.864
29.012	0.86
29.0677	0.857
29.1234	0.845
29.179	0.842
29.2347	0.839
29.2903	0.834
29.346	0.825
29.4016	0.82
29.4573	0.814
29.5129	0.797
29.5686	0.782
29.6242	0.765
29.6799	0.758
29.7355	0.742
29.7912	0.728
29.8469	0.72
29.9025	0.698
29.9582	0.685
30.0138	0.676
30.0695	0.664
30.1251	0.659
30.1808	0.663
30.2364	0.668
30.2921	0.675
30.3477	0.683
30.4034	0.688
30.4591	0.698
30.5147	0.713
30.5704	0.721
30.626	0.737
30.6817	0.748
30.7373	0.767
30.793	0.772
30.8486	0.783
30.9043	0.787
30.9599	0.798
31.0156	0.804
31.0712	0.805
31.1269	0.809
31.1826	0.814
31.2382	0.819
31.2939	0.83
31.3495	0.837
31.4052	0.844
31.4608	0.85
31.5165	0.854
31.5721	0.857
31.6278	0.86
31.6834	0.864
31.7391	0.867
31.7947	0.855
31.8504	0.869
31.9061	0.869
31.9617	0.871
32.0174	0.874
32.073	0.879
32.1287	0.886
32.1843	0.892
32.24	0.891
32.2956	0.882
32.3513	0.889
32.4069	0.897
32.4626	0.894
32.5182	0.892
32.5739	0.894
32.6296	0.894
32.6852	0.897
32.7409	0.901
32.7965	0.901
32.8522	0.897
32.9078	0.901
32.9635	0.902
33.0191	0.909
33.0748	0.912
33.1304	0.914
33.1861	0.911
33.2417	0.909
33.2974	0.912
33.3531	0.911
33.4087	0.912
33.4644	0.912
33.52	0.911
33.5757	0.907
33.6313	0.906
33.687	0.909
33.7426	0.912
33.7983	0.912
33.8539	0.909
33.9096	0.907
33.9652	0.904
34.0209	0.902
34.0766	0.906
34.1322	0.906
34.1879	0.904
34.2435	0.897
34.2992	0.894
34.3548	0.894
34.4105	0.897
34.4661	0.899
34.5218	0.896
34.5774	0.887
34.6331	0.882
34.6887	0.874
34.7444	0.872
34.8001	0.874
34.8557	0.872
34.9114	0.869
34.967	0.869
35.0227	0.862
