Infrared Spectrum: 3-METHYL-PHENANTHRENE
Formula: C15 H12
CAS: 832-71-3
State: SOLUTION (100 g/L IN HEPTANE)
Class: COBLENTZ
Instrument: Not specified, most likely a prism, grating, or hybrid spectrometer.
Sampling: TRANSMISSION
Path length: 0.01 CM
Resolution: 4
Origin: CENTRE D'ETUDES NUCLEAIRES DE GRENOBLE
MICROMETERS	TRANSMITTANCE
2.013	0.892
2.053	0.893
2.093	0.893
2.133	0.895
2.173	0.897
2.21301	0.897
2.25301	0.9
2.29301	0.903
2.33301	0.906
2.37301	0.911
2.41301	0.916
2.45301	0.92
2.49301	0.923
2.53301	0.925
2.57301	0.923
2.61302	0.92
2.65302	0.923
2.69302	0.926
2.73302	0.931
2.77302	0.933
2.81302	0.933
2.85302	0.933
2.89302	0.933
2.93302	0.935
2.97303	0.935
3.01303	0.938
3.05303	0.938
3.09303	0.94
3.13303	0.941
3.17303	0.943
3.21303	0.946
3.25303	0.933
3.29303	0.847
3.33303	0.639
3.37304	0.694
3.41304	0.81
3.45304	0.863
3.49304	0.9
3.53304	0.976
3.57304	1.009
3.61304	1.011
3.65304	0.995
3.69304	0.971
3.73305	0.968
3.77305	0.968
3.81305	0.97
3.85305	0.965
3.89305	0.958
3.93305	0.961
3.97305	0.963
4.01305	0.96
4.05305	0.956
4.09305	0.956
4.13306	0.956
4.17306	0.958
4.21306	0.96
4.25306	0.963
4.29306	0.973
4.33306	0.971
4.37306	0.97
4.41306	0.966
4.45306	0.966
4.49307	0.968
4.53307	0.968
4.57307	0.97
4.61307	0.97
4.65307	0.97
4.69307	0.97
4.73307	0.97
4.77307	0.97
4.81307	0.97
4.85308	0.968
4.89308	0.968
4.93308	0.97
4.97308	0.97
5.01308	0.97
5.05308	0.97
5.09308	0.971
5.13308	0.973
5.17308	0.968
5.21308	0.936
5.25309	0.938
5.29309	0.918
5.33309	0.911
5.37309	0.935
5.41309	0.966
5.45309	0.971
5.49309	0.965
5.53309	0.948
5.57309	0.938
5.6131	0.943
5.6531	0.953
5.6931	0.935
5.7331	0.965
5.7731	0.95
5.8131	0.94
5.8531	0.946
5.8931	0.956
5.9331	0.96
5.9731	0.955
6.01311	0.946
6.05311	0.941
6.09311	0.941
6.13311	0.94
6.17311	0.935
6.21311	0.843
6.25311	0.822
6.29311	0.735
6.33311	0.905
6.37312	0.948
6.41312	0.948
6.45312	0.941
6.49312	0.96
6.53312	0.966
6.57312	0.953
6.61312	0.941
6.65312	0.925
6.69312	0.754
6.73312	0.877
6.77313	0.926
6.81313	0.956
6.85313	0.99
6.89313	1.013
6.93313	1.018
6.97313	1.011
7.01313	0.988
7.05313	0.9
7.09313	0.878
7.13314	0.92
7.17314	0.93
7.21314	0.946
7.25314	0.968
7.29314	0.991
7.33314	1.011
7.37314	0.97
7.41314	0.958
7.45314	0.951
7.49314	0.956
7.53315	0.975
7.57315	0.971
7.61315	0.971
7.65315	0.971
7.69315	0.973
7.73315	0.958
7.77315	0.916
7.81315	0.94
7.85315	0.958
7.89316	0.971
7.93316	0.973
7.97316	0.973
8.01316	0.968
8.05316	0.923
8.09316	0.858
8.13316	0.863
8.17316	0.936
8.21316	0.948
8.25316	0.933
8.29317	0.943
8.33317	0.958
8.37317	0.945
8.41317	0.857
8.45317	0.843
8.49317	0.936
8.53317	0.95
8.57317	0.946
8.61317	0.936
8.65318	0.911
8.69318	0.928
8.73318	0.842
8.77318	0.833
8.81318	0.916
8.85318	0.93
8.89318	0.941
8.93318	0.945
8.97318	0.951
9.01319	0.955
9.05319	0.96
9.09319	0.953
9.13319	0.931
9.17319	0.925
9.21319	0.945
9.25319	0.951
9.29319	0.96
9.33319	0.968
9.37319	0.971
9.4132	0.968
9.4532	0.96
9.4932	0.955
9.5332	0.946
9.5732	0.935
9.6132	0.87
9.6532	0.755
9.6932	0.838
9.7332	0.906
9.77321	0.93
9.81321	0.946
9.85321	0.953
9.89321	0.956
9.93321	0.958
9.97321	0.956
10.0132	0.951
10.0532	0.945
10.0932	0.941
10.1332	0.945
10.1732	0.948
10.2132	0.956
10.2532	0.956
10.2932	0.955
10.3332	0.961
10.3732	0.963
10.4132	0.961
10.4532	0.955
10.4932	0.94
10.5332	0.89
10.5732	0.87
10.6132	0.897
10.6532	0.88
10.6932	0.945
10.7332	0.973
10.7732	0.973
10.8132	0.97
10.8532	0.971
10.8932	0.971
10.9332	0.971
10.9732	0.971
11.0132	0.971
11.0532	0.968
11.0932	0.973
11.1332	0.975
11.1732	0.971
11.2132	0.968
11.2532	0.941
11.2932	0.903
11.3332	0.908
11.3732	0.921
11.4132	0.85
11.4532	0.784
11.4933	0.795
11.5333	0.878
11.5733	0.887
11.6133	0.75
11.6533	0.767
11.6933	0.883
11.7333	0.916
11.7733	0.92
11.8133	0.913
11.8533	0.905
11.8933	0.878
11.9333	0.799
11.9733	0.602
12.0133	0.255
12.0533	0.063
12.0933	0.179
12.1333	0.568
12.1733	0.792
12.2133	0.863
12.2533	0.9
12.2933	0.921
12.3333	0.923
12.3733	0.921
12.4133	0.93
12.4533	0.931
12.4933	0.93
12.5333	0.915
12.5733	0.895
12.6133	0.87
12.6533	0.787
12.6933	0.735
12.7333	0.837
12.7733	0.893
12.8133	0.926
12.8533	0.94
12.8933	0.948
12.9333	0.951
12.9733	0.951
13.0133	0.94
13.0533	0.933
13.0933	0.93
13.1333	0.93
13.1733	0.938
13.2133	0.938
13.2533	0.928
13.2933	0.921
13.3333	0.897
13.3733	0.838
13.4133	0.715
13.4533	0.5
13.4933	0.222
13.5333	0.139
13.5733	0.181
13.6133	0.493
13.6533	0.714
13.6933	0.81
13.7333	0.853
13.7733	0.878
13.8133	0.888
13.8533	0.893
13.8933	0.898
13.9333	0.906
13.9733	0.916
14.0133	0.926
14.0533	0.94
14.0933	0.945
14.1333	0.923
14.1733	0.84
14.2133	0.827
14.2533	0.895
14.2933	0.933
14.3333	0.943
14.3733	0.948
14.4133	0.953
14.4533	0.958
14.4933	0.96
14.5333	0.956
14.5733	0.936
14.6133	0.926
14.6533	0.938
14.6933	0.941
14.7333	0.946
14.7733	0.953
14.8133	0.96
14.8533	0.961
14.8933	0.961
14.9333	0.96
14.9733	0.963
15.0133	0.961
15.0533	0.955
15.0933	0.956
15.1333	0.958
15.1733	0.96
15.2133	0.945
15.2533	0.946
15.2934	0.943
15.3334	0.946
15.3734	0.948
15.4134	0.945
15.4534	0.95
15.4934	0.95
15.5334	0.948
15.5734	0.95
15.6134	0.946
15.6534	0.943
15.6934	0.941
15.7334	0.94
15.7734	0.936
15.8134	0.935
15.8534	0.936
