Infrared Spectrum: PHENANTHRAQUINONE
Formula: C14 H8 O2
CAS: 84-11-7
State: SOLID (MINERAL OIL MULL)
Class: COBLENTZ
Instrument: Not specified, most likely a prism, grating, or hybrid spectrometer.
Sampling: TRANSMISSION
Resolution: 4
Origin: DOW CHEMICAL COMPANY
MICROMETERS	TRANSMITTANCE
2.014	0.587
2.05512	0.587
2.09623	0.594
2.13735	0.603
2.17847	0.613
2.21958	0.621
2.2607	0.623
2.30181	0.628
2.34293	0.638
2.38405	0.643
2.42516	0.659
2.46628	0.672
2.5074	0.679
2.54851	0.691
2.58963	0.696
2.63074	0.705
2.67186	0.717
2.71298	0.72
2.75409	0.732
2.79521	0.734
2.83633	0.735
2.87744	0.737
2.91856	0.746
2.95967	0.746
3.00079	0.751
3.04191	0.759
3.08302	0.761
3.12414	0.761
3.16526	0.749
3.20637	0.713
3.24749	0.695
3.2886	0.695
3.32972	0.586
3.37084	0.124
3.41195	0.074
3.45307	0.201
3.49419	0.533
3.5353	0.768
3.57642	0.802
3.61753	0.81
3.65865	0.809
3.69977	0.809
3.74088	0.824
3.782	0.827
3.82312	0.833
3.86423	0.838
3.90535	0.85
3.94646	0.858
3.98758	0.865
4.0287	0.872
4.06981	0.875
4.11093	0.877
4.15205	0.879
4.19316	0.879
4.23428	0.88
4.27539	0.889
4.31651	0.89
4.35763	0.889
4.39874	0.894
4.43986	0.897
4.48098	0.896
4.52209	0.899
4.56321	0.901
4.60432	0.902
4.64544	0.902
4.68656	0.904
4.72767	0.906
4.76879	0.908
4.80991	0.909
4.85102	0.913
4.89214	0.914
4.93325	0.916
4.97437	0.906
5.01549	0.894
5.0566	0.896
5.09772	0.899
5.13884	0.904
5.17995	0.913
5.22107	0.919
5.26218	0.918
5.3033	0.918
5.34442	0.916
5.38553	0.913
5.42665	0.913
5.46777	0.925
5.50888	0.931
5.55	0.928
5.59111	0.926
5.63223	0.919
5.67335	0.909
5.71446	0.897
5.75558	0.897
5.7967	0.887
5.83781	0.833
5.87893	0.664
5.92004	0.412
5.96116	0.127
6.00228	0.463
6.04339	0.56
6.08451	0.771
6.12563	0.8
6.16674	0.795
6.20786	0.637
6.24897	0.212
6.29009	0.514
6.33121	0.759
6.37232	0.785
6.41344	0.843
6.45456	0.85
6.49567	0.855
6.53679	0.868
6.5779	0.879
6.61902	0.879
6.66014	0.875
6.70125	0.829
6.74237	0.7
6.78349	0.553
6.8246	0.41
6.86572	0.27
6.90683	0.516
6.94795	0.744
6.98907	0.802
7.03018	0.814
7.0713	0.838
7.11242	0.862
7.15353	0.858
7.19465	0.761
7.23576	0.655
7.27688	0.689
7.318	0.781
7.35911	0.833
7.40023	0.829
7.44135	0.729
7.48246	0.652
7.52358	0.725
7.56469	0.701
7.60581	0.642
7.64693	0.442
7.68804	0.287
7.72916	0.245
7.77028	0.187
7.81139	0.507
7.85251	0.735
7.89362	0.781
7.93474	0.795
7.97586	0.819
8.01697	0.826
8.05809	0.706
8.09921	0.442
8.14032	0.504
8.18144	0.739
8.22255	0.819
8.26367	0.839
8.30479	0.853
8.3459	0.865
8.38702	0.875
8.42814	0.875
8.46925	0.862
8.51037	0.817
8.55148	0.781
8.5926	0.746
8.63372	0.816
8.67483	0.853
8.71595	0.865
8.75707	0.875
8.79818	0.875
8.8393	0.863
8.88041	0.766
8.92153	0.686
8.96265	0.8
9.00376	0.877
9.04488	0.88
9.086	0.877
9.12711	0.872
9.16823	0.879
9.20934	0.885
9.25046	0.889
9.29158	0.89
9.33269	0.892
9.37381	0.89
9.41493	0.887
9.45604	0.875
9.49716	0.887
9.53827	0.887
9.57939	0.896
9.62051	0.899
9.66162	0.901
9.70274	0.902
9.74386	0.906
9.78497	0.904
9.82609	0.836
9.8672	0.795
9.90832	0.877
9.94944	0.899
9.99055	0.908
10.0317	0.914
10.0728	0.914
10.1139	0.914
10.155	0.904
10.1961	0.904
10.2373	0.884
10.2784	0.867
10.3195	0.865
10.3606	0.868
10.4017	0.87
10.4428	0.894
10.4839	0.904
10.5251	0.913
10.5662	0.913
10.6073	0.913
10.6484	0.913
10.6895	0.908
10.7306	0.872
10.7718	0.66
10.8129	0.444
10.854	0.781
10.8951	0.856
10.9362	0.887
10.9773	0.901
11.0185	0.908
11.0596	0.913
11.1007	0.913
11.1418	0.896
11.1829	0.885
11.224	0.894
11.2652	0.906
11.3063	0.909
11.3474	0.902
11.3885	0.908
11.4296	0.921
11.4707	0.93
11.5119	0.933
11.553	0.933
11.5941	0.935
11.6352	0.935
11.6763	0.933
11.7174	0.933
11.7586	0.933
11.7997	0.933
11.8408	0.933
11.8819	0.933
11.923	0.933
11.9641	0.933
12.0053	0.931
12.0464	0.923
12.0875	0.916
12.1286	0.921
12.1697	0.931
12.2108	0.933
12.2519	0.933
12.2931	0.933
12.3342	0.933
12.3753	0.931
12.4164	0.928
12.4575	0.925
12.4986	0.914
12.5398	0.909
12.5809	0.902
12.622	0.887
12.6631	0.865
12.7042	0.819
12.7453	0.749
12.7865	0.686
12.8276	0.725
12.8687	0.766
12.9098	0.698
12.9509	0.507
12.992	0.296
13.0332	0.183
13.0743	0.228
13.1154	0.274
13.1565	0.441
13.1976	0.574
13.2387	0.725
13.2799	0.79
13.321	0.809
13.3621	0.833
13.4032	0.834
13.4443	0.834
13.4854	0.831
13.5266	0.826
13.5677	0.822
13.6088	0.822
13.6499	0.816
13.691	0.804
13.7321	0.792
13.7732	0.77
13.8144	0.744
13.8555	0.684
13.8966	0.572
13.9377	0.429
13.9788	0.413
14.0199	0.538
14.0611	0.679
14.1022	0.734
14.1433	0.754
14.1844	0.773
14.2255	0.775
14.2666	0.775
14.3078	0.776
14.3489	0.778
14.39	0.771
14.4311	0.768
14.4722	0.761
14.5133	0.754
14.5545	0.741
14.5956	0.73
14.6367	0.708
14.6778	0.695
14.7189	0.678
14.76	0.676
14.8012	0.678
14.8423	0.676
14.8834	0.664
14.9245	0.638
14.9656	0.616
15.0067	0.601
15.0479	0.594
15.089	0.601
15.1301	0.613
15.1712	0.618
15.2123	0.62
15.2534	0.611
15.2946	0.604
15.3357	0.601
15.3768	0.594
15.4179	0.589
15.459	0.584
15.5001	0.572
15.5412	0.565
15.5824	0.555
15.6235	0.545
15.6646	0.538
15.7057	0.533
15.7468	0.526
15.7879	0.524
15.8291	0.519
15.8702	0.516
15.9113	0.507
