Infrared Spectrum: 2-BROMO-3-METHYLANTHRAQUINONE
Formula: C15 H9 Br O2
CAS: 84-44-6
State: SOLID (KBr PELLET)
Class: COBLENTZ
Instrument: Not specified, most likely a prism, grating, or hybrid spectrometer.
Sampling: TRANSMISSION
Resolution: 4
Origin: CORN PRODUCTS COMPANY
MICROMETERS	TRANSMITTANCE
2.034	0.233
2.06778	0.235
2.10157	0.238
2.13535	0.241
2.16914	0.248
2.20292	0.255
2.2367	0.262
2.27049	0.267
2.30427	0.27
2.33806	0.274
2.37184	0.28
2.40562	0.287
2.43941	0.291
2.47319	0.297
2.50698	0.306
2.54076	0.313
2.57454	0.318
2.60833	0.321
2.64211	0.324
2.6759	0.324
2.70968	0.328
2.74346	0.331
2.77725	0.335
2.81103	0.333
2.84482	0.326
2.8786	0.319
2.91238	0.316
2.94617	0.304
2.97995	0.301
3.01374	0.318
3.04752	0.326
3.0813	0.338
3.11509	0.353
3.14887	0.36
3.18266	0.365
3.21644	0.377
3.25022	0.384
3.28401	0.38
3.31779	0.351
3.35158	0.36
3.38536	0.37
3.41914	0.387
3.45293	0.395
3.48671	0.401
3.5205	0.404
3.55428	0.409
3.58806	0.419
3.62185	0.424
3.65563	0.433
3.68942	0.438
3.7232	0.441
3.75698	0.446
3.79077	0.448
3.82455	0.451
3.85834	0.458
3.89212	0.458
3.9259	0.46
3.95969	0.472
3.99347	0.478
4.02726	0.482
4.06104	0.485
4.09482	0.489
4.12861	0.492
4.16239	0.494
4.19618	0.497
4.22996	0.502
4.26374	0.502
4.29753	0.502
4.33131	0.502
4.3651	0.505
4.39888	0.517
4.43266	0.524
4.46645	0.529
4.50023	0.532
4.53402	0.538
4.5678	0.541
4.60158	0.544
4.63537	0.549
4.66915	0.553
4.70294	0.554
4.73672	0.558
4.7705	0.556
4.80429	0.563
4.83807	0.565
4.87186	0.57
4.90564	0.573
4.93942	0.576
4.97321	0.578
5.00699	0.583
5.04078	0.582
5.07456	0.582
5.10834	0.583
5.14213	0.585
5.17591	0.593
5.2097	0.6
5.24348	0.604
5.27726	0.604
5.31105	0.604
5.34483	0.605
5.37862	0.605
5.4124	0.607
5.44618	0.612
5.47997	0.622
5.51375	0.622
5.54754	0.622
5.58132	0.626
5.6151	0.629
5.64889	0.632
5.68267	0.634
5.71646	0.637
5.75024	0.639
5.78402	0.641
5.81781	0.642
5.85159	0.641
5.88538	0.604
5.91916	0.473
5.95294	0.087
5.98673	0.099
6.02051	0.291
6.0543	0.389
6.08808	0.482
6.12186	0.5
6.15565	0.529
6.18943	0.538
6.22322	0.524
6.257	0.346
6.29078	0.099
6.32457	0.137
6.35835	0.309
6.39214	0.35
6.42592	0.34
6.4597	0.411
6.49349	0.445
6.52727	0.514
6.56106	0.538
6.59484	0.563
6.62862	0.575
6.66241	0.593
6.69619	0.605
6.72998	0.61
6.76376	0.592
6.79754	0.593
6.83133	0.612
6.86511	0.615
6.8989	0.619
6.93268	0.605
6.96646	0.575
7.00025	0.59
7.03403	0.615
7.06782	0.631
7.1016	0.644
7.13538	0.656
7.16917	0.658
7.20295	0.6
7.23674	0.617
7.27052	0.629
7.3043	0.642
7.33809	0.661
7.37187	0.661
7.40566	0.605
7.43944	0.5
7.47322	0.368
7.50701	0.214
7.54079	0.082
7.57458	0.086
7.60836	0.111
7.64214	0.072
7.67593	0.13
7.70971	0.186
7.74349	0.14
7.77728	0.087
7.81106	0.089
7.84485	0.214
7.87863	0.321
7.91241	0.367
7.9462	0.387
7.97998	0.424
8.01377	0.439
8.04755	0.47
8.08133	0.5
8.11512	0.517
8.1489	0.524
8.18269	0.538
8.21647	0.536
8.25025	0.431
8.28404	0.368
8.31782	0.438
8.35161	0.521
8.38539	0.538
8.41917	0.556
8.45296	0.565
8.48674	0.582
8.52053	0.59
8.55431	0.585
8.58809	0.512
8.62188	0.524
8.65566	0.553
8.68945	0.563
8.72323	0.582
8.75701	0.595
8.7908	0.602
8.82458	0.593
8.85837	0.573
8.89215	0.549
8.92593	0.585
8.95972	0.61
8.9935	0.622
9.02729	0.629
9.06107	0.632
9.09485	0.629
9.12864	0.615
9.16242	0.583
9.19621	0.61
9.22999	0.632
9.26377	0.634
9.29756	0.639
9.33134	0.651
9.36513	0.654
9.39891	0.661
9.43269	0.663
9.46648	0.664
9.50026	0.668
9.53405	0.668
9.56783	0.661
9.60161	0.634
9.6354	0.614
9.66918	0.631
9.70297	0.642
9.73675	0.658
9.77053	0.67
9.80432	0.675
9.8381	0.67
9.87189	0.659
9.90567	0.651
9.93945	0.649
9.97324	0.641
10.007	0.607
10.0408	0.51
10.0746	0.28
10.1084	0.184
10.1422	0.292
10.1759	0.428
10.2097	0.478
10.2435	0.534
10.2773	0.587
10.3111	0.614
10.3449	0.624
10.3786	0.629
10.4124	0.641
10.4462	0.626
10.48	0.477
10.5138	0.34
10.5476	0.429
10.5814	0.556
10.6151	0.595
10.6489	0.607
10.6827	0.619
10.7165	0.622
10.7503	0.615
10.7841	0.575
10.8178	0.549
10.8516	0.571
10.8854	0.617
10.9192	0.644
10.953	0.644
10.9868	0.637
11.0205	0.582
11.0543	0.524
11.0881	0.571
11.1219	0.634
11.1557	0.663
11.1895	0.671
11.2232	0.678
11.257	0.683
11.2908	0.686
11.3246	0.69
11.3584	0.692
11.3922	0.692
11.426	0.693
11.4597	0.697
11.4935	0.698
11.5273	0.698
11.5611	0.7
11.5949	0.702
11.6287	0.708
11.6624	0.71
11.6962	0.71
11.73	0.708
11.7638	0.708
11.7976	0.708
11.8314	0.712
11.8651	0.712
11.8989	0.714
11.9327	0.715
11.9665	0.719
12.0003	0.72
12.0341	0.72
12.0678	0.72
12.1016	0.725
12.1354	0.727
12.1692	0.727
12.203	0.724
12.2368	0.72
12.2706	0.7
12.3043	0.7
12.3381	0.703
12.3719	0.708
12.4057	0.714
12.4395	0.719
12.4733	0.722
12.507	0.722
12.5408	0.717
12.5746	0.707
12.6084	0.688
12.6422	0.595
12.676	0.527
12.7097	0.629
12.7435	0.681
12.7773	0.707
12.8111	0.722
12.8449	0.729
12.8787	0.729
12.9124	0.727
12.9462	0.725
12.98	0.727
13.0138	0.727
13.0476	0.729
13.0814	0.73
13.1152	0.725
13.1489	0.725
13.1827	0.725
13.2165	0.727
13.2503	0.727
13.2841	0.725
13.3179	0.724
13.3516	0.724
13.3854	0.727
13.4192	0.727
13.453	0.715
13.4868	0.693
13.5206	0.644
13.5543	0.632
13.5881	0.648
13.6219	0.666
13.6557	0.686
13.6895	0.686
13.7233	0.683
13.757	0.673
13.7908	0.651
13.8246	0.61
13.8584	0.527
13.8922	0.35
13.926	0.194
13.9597	0.165
13.9935	0.191
14.0273	0.174
14.0611	0.115
14.0949	0.111
14.1287	0.223
14.1625	0.411
14.1962	0.527
14.23	0.597
14.2638	0.631
14.2976	0.653
14.3314	0.666
14.3652	0.663
14.3989	0.607
14.4327	0.554
14.4665	0.624
14.5003	0.67
14.5341	0.693
14.5679	0.707
14.6016	0.717
14.6354	0.719
14.6692	0.72
14.703	0.725
14.7368	0.727
14.7706	0.727
14.8043	0.725
14.8381	0.72
14.8719	0.7
14.9057	0.683
14.9395	0.676
14.9733	0.671
15.0071	0.666
15.0408	0.664
15.0746	0.673
15.1084	0.69
15.1422	0.693
15.176	0.68
15.2098	0.649
15.2435	0.619
15.2773	0.6
15.3111	0.612
15.3449	0.653
15.3787	0.678
15.4125	0.707
15.4462	0.715
15.48	0.724
