Infrared Spectrum: ANTHRAQUINONE, 2-TERT-BUTYL-
Formula: C18 H16 O2
CAS: 84-47-9
State: SOLID (SPLIT MULL)
Class: COBLENTZ II
Instrument: BECKMAN IR-9 (GRATING)
Instrument parameters: ORDER CHANGES: 670, 1200, 2000 CM^-^1
Sampling: TRANSMISSION
Resolution: 2
Origin: DOW CHEMICAL COMPANY
1/CM	TRANSMITTANCE
400	0.5221
409	0.5312
418	0.6106
427	0.6818
436	0.7076
445	0.7326
454	0.7667
463	0.7908
472	0.8071
481	0.8108
490	0.8365
499	0.8421
508	0.8478
517	0.8536
526	0.8602
535	0.8668
544	0.8727
553	0.8715
562	0.8366
571	0.708
580	0.8381
589	0.8754
598	0.8787
607	0.8807
616	0.8853
625	0.8818
634	0.6783
643	0.875
652	0.8628
661	0.8291
670	0.3046
679	0.8281
688	0.8399
697	0.842
706	0.3432
715	0.4397
724	0.4988
733	0.7206
742	0.8018
751	0.8378
760	0.8453
769	0.849
778	0.8514
787	0.8158
796	0.5976
805	0.8477
814	0.8423
823	0.8561
832	0.8496
841	0.8328
850	0.519
859	0.5774
868	0.8351
877	0.8487
886	0.8337
895	0.8117
904	0.8343
913	0.7234
922	0.7782
931	0.4416
940	0.7671
949	0.8217
958	0.8175
967	0.6542
976	0.7696
985	0.8271
994	0.8402
1003	0.8428
1012	0.8404
1021	0.8367
1030	0.8301
1039	0.8292
1048	0.8321
1057	0.8288
1066	0.8223
1075	0.8125
1084	0.7775
1093	0.7689
1102	0.816
1111	0.818
1120	0.8061
1129	0.8061
1138	0.806
1147	0.7871
1156	0.7733
1165	0.756
1174	0.5144
1183	0.7136
1192	0.7831
1201	0.7343
1210	0.6985
1219	0.729
1228	0.7169
1237	0.6558
1246	0.6157
1255	0.1515
1264	0.3879
1273	0.2216
1282	0.4444
1291	0.2078
1300	0.1254
1309	0.268
1318	0.3133
1327	0.1085
1336	0.3954
1345	0.733
1354	0.8017
1363	0.3147
1372	0.8267
1381	0.8423
1390	0.7028
1399	0.8478
1408	0.8368
1417	0.8243
1426	0.8468
1435	0.8473
1444	0.7654
1453	0.7601
1462	0.6512
1471	0.7319
1480	0.8154
1489	0.8433
1498	0.874
1507	0.8762
1516	0.8755
1525	0.8632
1534	0.8493
1543	0.8345
1552	0.8161
1561	0.7015
1570	0.6532
1579	0.5122
1588	0.2657
1597	0.2225
1606	0.6758
1615	0.8497
1624	0.8321
1633	0.8261
1642	0.7911
1651	0.7168
1660	0.1775
1669	0.1796
1678	0.2999
1687	0.769
1696	0.8631
1705	0.8698
1714	0.8824
1723	0.8809
1732	0.8783
1741	0.8836
1750	0.8951
1759	0.8934
1768	0.8951
1777	0.8945
1786	0.8943
1795	0.8959
1804	0.8985
1813	0.8956
1822	0.8883
1831	0.8828
1840	0.89
1849	0.8884
1858	0.8806
1867	0.8828
1876	0.8921
1885	0.8885
1894	0.8803
1903	0.8838
1912	0.888
1921	0.8868
1930	0.8802
1939	0.871
1948	0.869
1957	0.8728
1966	0.8614
1975	0.8516
1984	0.8668
1993	0.8642
2002	0.842
2011	0.8521
2020	0.8577
2029	0.8606
2038	0.859
2047	0.8564
2056	0.8537
2065	0.8508
2074	0.8483
2083	0.8458
2092	0.8432
2101	0.8403
2110	0.8375
2119	0.8347
2128	0.8318
2137	0.829
2146	0.8262
2155	0.8233
2164	0.8206
2173	0.8178
2182	0.8153
2191	0.8126
2200	0.8099
2209	0.8068
2218	0.8036
2227	0.7999
2236	0.7961
2245	0.7904
2254	0.7864
2263	0.7844
2272	0.7822
2281	0.7792
2290	0.7761
2299	0.7726
2308	0.769
2317	0.7639
2326	0.7641
2335	0.7637
2344	0.7632
2353	0.763
2362	0.7664
2371	0.7678
2380	0.7605
2389	0.7568
2398	0.756
2407	0.756
2416	0.7558
2425	0.7551
2434	0.7544
2443	0.7537
2452	0.7526
2461	0.7512
2470	0.75
2479	0.7486
2488	0.7468
2497	0.7451
2506	0.7434
2515	0.7417
2524	0.7401
2533	0.7384
2542	0.7367
2551	0.735
2560	0.7333
2569	0.731
2578	0.7286
2587	0.7261
2596	0.7232
2605	0.7197
2614	0.715
2623	0.7099
2632	0.7061
2641	0.7058
2650	0.7025
2659	0.6968
2668	0.6975
2677	0.6993
2686	0.7017
2695	0.7005
2704	0.6989
2713	0.6939
2722	0.6893
2731	0.6893
2740	0.6878
2749	0.6819
2758	0.6788
2767	0.678
2776	0.675
2785	0.6719
2794	0.6725
2803	0.6717
2812	0.6628
2821	0.6518
2830	0.6421
2839	0.6307
2848	0.6131
2857	0.5915
2866	0.4683
2875	0.4494
2884	0.531
2893	0.5371
2902	0.4876
2911	0.4532
2920	0.4921
2929	0.4769
2938	0.4382
2947	0.3516
2956	0.2668
2965	0.2726
2974	0.3428
2983	0.5355
2992	0.6241
3001	0.6338
3010	0.622
3019	0.62
3028	0.6269
3037	0.6186
3046	0.6084
3055	0.6066
3064	0.5638
3073	0.5223
3082	0.5768
3091	0.617
3100	0.62
3109	0.6216
3118	0.6218
3127	0.6214
3136	0.6199
3145	0.6181
3154	0.6169
3163	0.6148
3172	0.6127
3181	0.6098
3190	0.6068
3199	0.6046
3208	0.6024
3217	0.6016
3226	0.6018
3235	0.6017
3244	0.5977
3253	0.5927
3262	0.5894
3271	0.5874
3280	0.5869
3289	0.586
3298	0.5844
3307	0.5798
3316	0.5714
3325	0.5627
3334	0.5609
3343	0.5678
3352	0.5753
3361	0.5767
3370	0.5762
3379	0.5733
3388	0.5699
3397	0.5693
3406	0.5685
3415	0.5666
3424	0.5647
3433	0.5626
3442	0.5606
3451	0.5584
3460	0.5567
3469	0.5567
3478	0.5566
3487	0.5542
3496	0.5521
3505	0.5501
3514	0.5488
3523	0.5484
3532	0.548
3541	0.5474
3550	0.5468
3559	0.5462
3568	0.5459
3577	0.5455
3586	0.5452
3595	0.5417
3604	0.5366
3613	0.54
3622	0.5397
3631	0.5386
3640	0.5374
3649	0.5358
3658	0.5339
3667	0.5323
3676	0.5315
3685	0.5307
3694	0.5299
3703	0.5285
3712	0.5271
3721	0.5251
3730	0.5235
3739	0.5226
3748	0.5215
3757	0.5199
3766	0.5178
3775	0.5156
3784	0.5136
3793	0.5115
3802	0.5101
3811	0.5099
