Infrared Spectrum: Anthraquinone
Formula: C14 H8 O2
CAS: 84-65-1
State: SOLID (2.4 mg / 360 mg KBr DISC)
Class: COBLENTZ III
Instrument: PERKIN-ELMER 180 (GRATING)
Instrument parameters: GRATINGS: 2000, 1000, 500, 250 CM^-^1; FILTER CHANGE: 2970, 2000, 1485, 1000, 743, 500, 372, 250, 186 CM^-^1.
Sampling: TRANSMISSION
Resolution: 2
Origin: K. K. DEB-NCI FREDERICK CANCER RESEARCH CENTER
1/CM	TRANSMITTANCE
404	0.8616
413	0.8688
422	0.8881
431	0.8989
440	0.8976
449	0.8982
458	0.8983
467	0.8984
476	0.8984
485	0.8983
494	0.8981
503	0.8973
512	0.8957
521	0.8928
530	0.8897
539	0.8871
548	0.8848
557	0.8828
566	0.8805
575	0.8779
584	0.8754
593	0.8701
602	0.8649
611	0.8532
620	0.7438
629	0.8208
638	0.8606
647	0.8566
656	0.8481
665	0.8294
674	0.8006
683	0.7468
692	0.2347
701	0.3402
710	0.7553
719	0.8351
728	0.862
737	0.8689
746	0.8675
755	0.8684
764	0.8726
773	0.8704
782	0.8632
791	0.85
800	0.8557
809	0.6225
818	0.7493
827	0.84
836	0.8584
845	0.8593
854	0.8583
863	0.8554
872	0.855
881	0.8508
890	0.8347
899	0.8062
908	0.8247
917	0.8069
926	0.8152
935	0.6457
944	0.6048
953	0.7634
962	0.8443
971	0.7843
980	0.8357
989	0.8447
998	0.8444
1007	0.8427
1016	0.8391
1025	0.8349
1034	0.8302
1043	0.8262
1052	0.8186
1061	0.8179
1070	0.8162
1079	0.8062
1088	0.7886
1097	0.7426
1106	0.7939
1115	0.7932
1124	0.7904
1133	0.7761
1142	0.7492
1151	0.7128
1160	0.6997
1169	0.4488
1178	0.7637
1187	0.794
1196	0.7729
1205	0.7192
1214	0.766
1223	0.756
1232	0.742
1241	0.7271
1250	0.6885
1259	0.6466
1268	0.596
1277	0.3961
1286	0.083
1295	0.3667
1304	0.3519
1313	0.4275
1322	0.3536
1331	0.2994
1340	0.5544
1349	0.8054
1358	0.8296
1367	0.8233
1376	0.8017
1385	0.8324
1394	0.8304
1403	0.824
1412	0.8182
1421	0.8192
1430	0.815
1439	0.7986
1448	0.7799
1457	0.755
1466	0.8007
1475	0.7184
1484	0.8075
1493	0.7961
1502	0.7888
1511	0.777
1520	0.771
1529	0.7677
1538	0.7488
1547	0.7211
1556	0.6805
1565	0.6433
1574	0.4457
1583	0.3547
1592	0.2411
1601	0.5782
1610	0.8075
1619	0.7738
1628	0.7389
1637	0.7301
1646	0.7418
1655	0.6968
1664	0.5844
1673	0.2699
1682	0.2213
1691	0.735
1700	0.781
1709	0.7848
1718	0.8044
1727	0.8097
1736	0.809
1745	0.8111
1754	0.8103
1763	0.8202
1772	0.8284
1781	0.8271
1790	0.8196
1799	0.8155
1808	0.8162
1817	0.8172
1826	0.8175
1835	0.8166
1844	0.8148
1853	0.8092
1862	0.8018
1871	0.7946
1880	0.7946
1889	0.7961
1898	0.7948
1907	0.7936
1916	0.7951
1925	0.7953
1934	0.794
1943	0.7919
1952	0.7853
1961	0.7754
1970	0.7801
1979	0.7742
1988	0.7728
1997	0.7787
2006	0.7773
2015	0.7869
2024	0.7986
2033	0.7993
2042	0.7986
2051	0.7964
2060	0.7943
2069	0.7921
2078	0.7895
2087	0.7869
2096	0.7844
2105	0.782
2114	0.7798
2123	0.7782
2132	0.7766
2141	0.7751
2150	0.7736
2159	0.7724
2168	0.7712
2177	0.77
2186	0.7686
2195	0.7671
2204	0.7657
2213	0.7642
2222	0.7621
2231	0.7593
2240	0.7565
2249	0.7524
2258	0.7534
2267	0.7533
2276	0.7525
2285	0.7515
2294	0.7505
2303	0.7493
2312	0.748
2321	0.7466
2330	0.7454
2339	0.7441
2348	0.7429
2357	0.7416
2366	0.7403
2375	0.739
2384	0.7378
2393	0.7364
2402	0.7348
2411	0.7331
2420	0.7313
2429	0.7296
2438	0.728
2447	0.7266
2456	0.7252
2465	0.7232
2474	0.7223
2483	0.7216
2492	0.721
2501	0.7208
2510	0.7206
2519	0.72
2528	0.7187
2537	0.7173
2546	0.716
2555	0.7143
2564	0.7121
2573	0.7098
2582	0.7077
2591	0.705
2600	0.7023
2609	0.6997
2618	0.6972
2627	0.6952
2636	0.6937
2645	0.6908
2654	0.6871
2663	0.6873
2672	0.6903
2681	0.6919
2690	0.693
2699	0.6935
2708	0.6932
2717	0.6912
2726	0.6893
2735	0.6868
2744	0.6841
2753	0.6811
2762	0.678
2771	0.6772
2780	0.6777
2789	0.6776
2798	0.6766
2807	0.675
2816	0.6734
2825	0.6714
2834	0.6694
2843	0.6671
2852	0.6624
2861	0.6595
2870	0.6605
2879	0.6576
2888	0.6542
2897	0.6508
2906	0.6483
2915	0.646
2924	0.6448
2933	0.6442
2942	0.6438
2951	0.6438
2960	0.6436
2969	0.6425
2978	0.6413
2987	0.639
2996	0.6367
3005	0.6337
3014	0.6307
3023	0.6276
3032	0.6245
3041	0.6212
3050	0.6207
3059	0.6204
3068	0.6125
3077	0.604
3086	0.6122
3095	0.6224
3104	0.6208
3113	0.6184
3122	0.6145
3131	0.6116
3140	0.6091
3149	0.6078
3158	0.6063
3167	0.6047
3176	0.6037
3185	0.6028
3194	0.6032
3203	0.604
3212	0.6026
3221	0.6002
3230	0.597
3239	0.5927
3248	0.5897
3257	0.5889
3266	0.59
3275	0.5896
3284	0.5881
3293	0.5862
3302	0.5822
3311	0.5769
3320	0.5601
3329	0.5646
3338	0.5809
3347	0.5796
3356	0.5777
3365	0.5756
3374	0.5736
3383	0.5715
3392	0.5698
3401	0.5683
3410	0.5668
3419	0.5657
3428	0.5649
3437	0.564
3446	0.5634
3455	0.5631
3464	0.5629
3473	0.5626
3482	0.5624
3491	0.562
3500	0.5616
3509	0.5611
3518	0.5607
3527	0.5598
3536	0.559
3545	0.5582
3554	0.5573
3563	0.557
3572	0.5569
3581	0.5569
3590	0.5568
3599	0.5568
3608	0.5568
3617	0.5568
3626	0.5568
3635	0.5568
3644	0.5568
3653	0.5568
3662	0.5568
3671	0.5557
3680	0.5545
3689	0.5533
3698	0.5522
3707	0.551
3716	0.55
3725	0.549
3734	0.5481
3743	0.5471
3752	0.5461
3761	0.5451
3770	0.5441
3779	0.5445
3788	0.545
3797	0.5454
