Infrared Spectrum: 1,2-BENZENEDICARBOXYLIC ACID, DIETHYL ESTER
Formula: C12 H14 O4
CAS: 84-66-2
State: SOLUTION (10% IN CCl4 FOR 3800-1330, 10% IN CS2 FOR 1330-620, AND 10% CCl4 FOR 620-240 CM^-^1) VERSUS SOLVENT
Class: COBLENTZ III
Instrument: PERKIN-ELMER 521 (GRATING)
Instrument parameters: FILTERS AT 3150, 2500, 2000, 1150, 700, 410; GRATING CHANGES AT 2000, 630 CM^-^1
Sampling: TRANSMISSION
Path length: 0.011, 0.010, AND 0.010 CM (CsBr CELL)
Resolution: 4
Origin: DOW CORNING CORP.
1/CM	TRANSMITTANCE
233.443	0.818
243.279	0.817
253.115	0.814
262.951	0.81
272.787	0.812
282.623	0.814
292.459	0.813
302.296	0.806
312.132	0.797
321.968	0.793
331.804	0.785
341.64	0.777
351.476	0.775
361.312	0.794
371.148	0.83
380.984	0.853
390.82	0.856
400.656	0.808
410.492	0.798
420.329	0.871
430.165	0.888
440.001	0.887
449.837	0.889
459.673	0.884
469.509	0.916
479.345	0.935
489.181	0.942
499.017	0.943
508.853	0.935
518.689	0.924
528.525	0.923
538.361	0.923
548.198	0.916
558.034	0.849
567.87	0.872
577.706	0.938
587.542	0.953
597.378	0.963
607.214	0.966
617.05	0.969
626.886	0.969
636.722	0.962
646.558	0.944
656.394	0.812
666.23	0.939
676.067	0.938
685.903	0.904
695.739	0.707
705.575	0.566
715.411	0.758
725.247	0.775
735.083	0.597
744.919	0.139
754.755	0.3471
764.591	0.625
774.427	0.673
784.263	0.661
794.1	0.696
803.936	0.871
813.772	0.93
823.608	0.947
833.444	0.934
843.28	0.875
853.116	0.798
862.952	0.731
872.788	0.762
882.624	0.906
892.46	0.908
902.296	0.973
912.132	0.978
921.969	0.977
931.805	0.967
941.641	0.962
951.477	0.934
961.313	0.8631
971.149	0.938
980.985	0.918
990.821	0.881
1000.66	0.791
1010.49	0.5829
1020.33	0.426
1030.17	0.673
1040	0.3729
1049.84	0.668
1059.67	0.6359
1069.51	0.034
1079.35	0.1121
1089.18	0.524
1099.02	0.412
1108.85	0.2709
1118.69	0.032
1128.53	0.037
1138.36	0.064
1148.2	0.3631
1158.03	0.553
1167.87	0.496
1177.71	0.441
1187.54	0.766
1197.38	0.801
1207.21	0.786
1217.05	0.748
1226.89	0.657
1236.72	0.4649
1246.56	0.15
1256.4	0.013
1266.23	0
1276.07	0
1285.9	0
1295.74	0.005
1305.58	0.064
1315.41	0.3551
1325.25	0.625
1335.08	0.739
1344.92	0.786
1354.76	0.767
1364.59	0.4888
1374.43	0.4322
1384.26	0.652
1394.1	0.4681
1403.94	0.744
1413.77	0.804
1423.61	0.802
1433.44	0.758
1443.28	0.5689
1453.12	0.5481
1462.95	0.532
1472.79	0.539
1482.63	0.602
1492.46	0.6171
1502.3	0.846
1512.13	0.86
1521.97	0.871
1531.81	0.88
1541.64	0.884
1551.48	0.879
1561.31	0.861
1571.15	0.8
1580.99	0.5739
1590.82	0.789
1600.66	0.5929
1610.49	0.7771
1620.33	0.833
1630.17	0.836
1640	0.838
1649.84	0.834
1659.67	0.82
1669.51	0.787
1679.35	0.719
1689.18	0.59
1699.02	0.507
1708.85	0.3609
1718.69	0.013
1728.53	0
1738.36	0.001
1748.2	0.032
1758.04	0.311
1767.87	0.569
1777.71	0.715
1787.54	0.797
1797.38	0.84
1807.22	0.86
1817.05	0.865
1826.89	0.872
1836.72	0.875
1846.56	0.872
1856.4	0.891
1866.23	0.9
1876.07	0.907
1885.9	0.911
1895.74	0.911
1905.58	0.911
1915.41	0.908
1925.25	0.91
1935.08	0.891
1944.92	0.873
1954.76	0.907
1964.59	0.903
1974.43	0.888
1984.27	0.908
1994.1	0.916
2003.94	0.95
2013.77	0.965
2023.61	0.965
2033.45	0.967
2043.28	0.969
2053.12	0.966
2062.95	0.966
2072.79	0.965
2082.63	0.958
2092.46	0.958
2102.3	0.957
2112.13	0.957
2121.97	0.9513
2131.81	0.946
2141.64	0.9508
2151.48	0.9568
2161.31	0.9646
2171.15	0.966
2180.99	0.966
2190.82	0.966
2200.66	0.965
2210.49	0.965
2220.33	0.959
2230.17	0.9581
2240	0.9571
2249.84	0.957
2259.68	0.957
2269.51	0.959
2279.35	0.962
2289.18	0.963
2299.02	0.965
2308.86	0.966
2318.69	0.967
2328.53	0.9652
2338.36	0.965
2348.2	0.963
2358.04	0.9612
2367.87	0.958
2377.71	0.9514
2387.54	0.95
2397.38	0.9496
2407.22	0.951
2417.05	0.954
2426.89	0.9565
2436.72	0.9618
2446.56	0.965
2456.4	0.965
2466.23	0.9685
2476.07	0.966
2485.91	0.965
2495.74	0.965
2505.58	0.963
2515.41	0.962
2525.25	0.9583
2535.09	0.959
2544.92	0.9583
2554.76	0.958
2564.59	0.958
2574.43	0.958
2584.27	0.963
2594.1	0.965
2603.94	0.967
2613.77	0.969
2623.61	0.9706
2633.45	0.973
2643.28	0.974
2653.12	0.974
2662.95	0.973
2672.79	0.9746
2682.63	0.9758
2692.46	0.973
2702.3	0.97
2712.13	0.966
2721.97	0.959
2731.81	0.958
2741.64	0.957
2751.48	0.9574
2761.32	0.955
2771.15	0.9546
2780.99	0.9601
2790.82	0.9599
2800.66	0.9554
2810.5	0.9435
2820.33	0.94
2830.17	0.9345
2840	0.9289
2849.84	0.9189
2859.68	0.8944
2869.51	0.8117
2879.35	0.7894
2889.18	0.8054
2899.02	0.7096
2908.86	0.6289
2918.69	0.7565
2928.53	0.6845
2938.36	0.5846
2948.2	0.6364
2958.04	0.6209
2967.87	0.5141
2977.71	0.4319
2987.55	0.2285
2997.38	0.2959
3007.22	0.5257
3017.05	0.7673
3026.89	0.8623
3036.73	0.8838
3046.56	0.902
3056.4	0.8842
3066.23	0.8428
3076.07	0.818
3085.91	0.8975
3095.74	0.9434
3105.58	0.9614
3115.41	0.9704
3125.25	0.9755
3135.09	0.969
3144.92	0.967
3154.76	0.9666
3164.59	0.9683
3174.43	0.966
3184.27	0.978
3194.1	0.981
3203.94	0.981
3213.77	0.9787
3223.61	0.983
3233.45	0.983
3243.28	0.985
3253.12	0.9827
3262.96	0.983
3272.79	0.9804
3282.63	0.978
3292.46	0.977
3302.3	0.973
3312.14	0.971
3321.97	0.971
3331.81	0.9693
3341.64	0.971
3351.48	0.9698
3361.32	0.969
3371.15	0.967
3380.99	0.9635
3390.82	0.9618
3400.66	0.9566
3410.5	0.95
3420.33	0.9327
3430.17	0.9158
3440	0.914
3449.84	0.9224
3459.68	0.9363
3469.51	0.9577
3479.35	0.9662
3489.19	0.971
3499.02	0.973
3508.86	0.973
3518.69	0.97
3528.53	0.97
3538.37	0.9701
3548.2	0.9699
3558.04	0.9691
3567.87	0.971
3577.71	0.975
3587.55	0.9792
3597.38	0.981
3607.22	0.985
3617.05	0.985
3626.89	0.985
3636.73	0.985
3646.56	0.985
3656.4	0.9821
3666.23	0.9829
3676.07	0.977
3685.91	0.9781
3695.74	0.9821
3705.58	0.9871
3715.41	0.99
3725.25	0.99
3735.09	0.989
3744.92	0.986
3754.76	0.982
3764.6	0.99
3774.43	0.991
3784.27	0.993
