Infrared Spectrum: 1,2-Benzenedioic acid, dicyclohexyl ester
Formula: C20 H26 O4
CAS: 84-61-7
State: SOLUTION (10% CCl4 FOR 2.7-7.5, 10% CS2 FOR 7.5-26 MICRON) VS SOLVENT
Class: COBLENTZ III
Instrument: DOW KBr FOREPRISM-GRATING
Instrument parameters: BLAZED AT 3.5, 12.0, 20.0 MICRON AND CHANGED AT 5.0, 7.5, 14.9 MICRON
Sampling: TRANSMISSION
Path length: 0.011 CM, 0.011 CM
Resolution: 2
Origin: DOW CHEMICAL COMPANY
1/CM	TRANSMITTANCE
3794	0.8353
3785	0.8358
3776	0.8364
3767	0.8386
3758	0.8402
3749	0.8413
3740	0.8413
3731	0.8414
3722	0.8417
3713	0.842
3704	0.8424
3695	0.843
3686	0.8439
3677	0.8448
3668	0.8452
3659	0.8456
3650	0.8461
3641	0.8468
3632	0.8477
3623	0.8485
3614	0.8497
3605	0.8521
3596	0.8521
3587	0.8523
3578	0.8531
3569	0.8564
3560	0.8582
3551	0.8598
3542	0.8611
3533	0.8621
3524	0.8634
3515	0.8648
3506	0.8662
3497	0.8675
3488	0.869
3479	0.8704
3470	0.8713
3461	0.8715
3452	0.8703
3443	0.8621
3434	0.8545
3425	0.8491
3416	0.8454
3407	0.8437
3398	0.8496
3389	0.8575
3380	0.8638
3371	0.8694
3362	0.8728
3353	0.8752
3344	0.8774
3335	0.8784
3326	0.8794
3317	0.8803
3308	0.8809
3299	0.8815
3290	0.8821
3281	0.8828
3272	0.8835
3263	0.8842
3254	0.885
3245	0.8854
3236	0.8859
3227	0.886
3218	0.8858
3209	0.8853
3200	0.8843
3191	0.883
3182	0.881
3173	0.8775
3164	0.8736
3155	0.8714
3146	0.8698
3137	0.869
3128	0.8684
3119	0.8678
3110	0.8695
3101	0.8648
3092	0.8584
3083	0.8547
3074	0.8076
3065	0.7615
3056	0.7711
3047	0.8033
3038	0.8274
3029	0.8246
3020	0.8172
3011	0.8156
3002	0.8111
2993	0.7851
2984	0.7507
2975	0.6895
2966	0.5392
2957	0.2872
2948	0.1281
2939	0.0372
2930	0.0207
2921	0.0315
2912	0.1148
2903	0.2829
2894	0.378
2885	0.5485
2876	0.5791
2867	0.4491
2858	0.1465
2849	0.1545
2840	0.4885
2831	0.6976
2822	0.7569
2813	0.7799
2804	0.7887
2795	0.7908
2786	0.7944
2777	0.8047
2768	0.8162
2759	0.8262
2750	0.8344
2741	0.8397
2732	0.8412
2723	0.8394
2714	0.8365
2705	0.833
2696	0.8298
2687	0.8283
2678	0.8289
2669	0.8214
2660	0.8007
2651	0.8003
2642	0.8105
2633	0.8205
2624	0.8281
2615	0.8325
2606	0.8331
2597	0.8321
2588	0.831
2579	0.8286
2570	0.8304
2561	0.8328
2552	0.8359
2543	0.8397
2534	0.8421
2525	0.8423
2516	0.8424
2507	0.8425
2498	0.8431
2489	0.8437
2480	0.8449
2471	0.8471
2462	0.85
2453	0.852
2444	0.852
2435	0.8515
2426	0.8504
2417	0.8451
2408	0.8417
2399	0.839
2390	0.837
2381	0.8367
2372	0.8378
2363	0.8389
2354	0.8393
2345	0.8389
2336	0.8383
2327	0.8385
2318	0.8391
2309	0.84
2300	0.8394
2291	0.8371
2282	0.8378
2273	0.8388
2264	0.8389
2255	0.8378
2246	0.8377
2237	0.8386
2228	0.8468
2219	0.8498
2210	0.8491
2201	0.8458
2192	0.8448
2183	0.8466
2174	0.8547
2165	0.8525
2156	0.8471
2147	0.8465
2138	0.8478
2129	0.8485
2120	0.8491
2111	0.8493
2102	0.8495
2093	0.8496
2084	0.85
2075	0.8507
2066	0.8509
2057	0.8511
2048	0.8517
2039	0.8523
2030	0.8527
2021	0.852
2012	0.8512
2003	0.8512
1994	0.8521
1985	0.8438
1976	0.8436
1967	0.832
1958	0.8274
1949	0.8305
1940	0.8261
1931	0.8158
1922	0.8307
1913	0.8399
1904	0.8381
1895	0.8399
1886	0.8428
1877	0.8418
1868	0.8387
1859	0.8337
1850	0.8341
1841	0.835
1832	0.815
1823	0.81
1814	0.814
1805	0.8118
1796	0.8075
1787	0.7997
1778	0.7818
1769	0.7605
1760	0.7257
1751	0.6417
1742	0.3856
1733	0.073
1724	0.005
1715	0.0029
1706	0.064
1697	0.3934
1688	0.5619
1679	0.6406
1670	0.7118
1661	0.76
1652	0.7799
1643	0.7983
1634	0.8061
1625	0.8041
1616	0.8031
1607	0.7991
1598	0.5932
1589	0.729
1580	0.5448
1571	0.6964
1562	0.7786
1553	0.8045
1544	0.8128
1535	0.8118
1526	0.8082
1517	0.8065
1508	0.7949
1499	0.7762
1490	0.6525
1481	0.6687
1472	0.7388
1463	0.6303
1454	0.226
1445	0.4978
1436	0.6592
1427	0.7215
1418	0.7621
1409	0.766
1400	0.7644
1391	0.7578
1382	0.7354
1373	0.536
1364	0.6373
1355	0.57
1346	0.5622
1337	0.4115
1328	0.4717
1319	0.4175
1310	0.2799
1301	0.2304
1292	0.0882
1283	0.0081
1274	0.0035
1265	0.0074
1256	0.0069
1247	0.0803
1238	0.2834
1229	0.5588
1220	0.6711
1211	0.7287
1202	0.7578
1193	0.7401
1184	0.7754
1175	0.7897
1166	0.7703
1157	0.4741
1148	0.5571
1139	0.335
1130	0.1126
1121	0.0396
1112	0.0596
1103	0.5114
1094	0.6643
1085	0.6592
1076	0.3134
1067	0.031
1058	0.516
1049	0.6457
1040	0.5671
1031	0.2626
1022	0.6
1013	0.3294
1004	0.2152
995	0.7528
986	0.8363
977	0.8527
968	0.8748
959	0.8666
950	0.7521
941	0.4462
932	0.4423
923	0.547
914	0.4795
905	0.6915
896	0.7511
887	0.552
878	0.8135
869	0.878
860	0.7904
851	0.8257
842	0.8442
833	0.5723
824	0.7811
815	0.8865
806	0.8864
797	0.785
788	0.7304
779	0.7217
770	0.7145
761	0.6985
752	0.6073
743	0.3609
734	0.3108
725	0.7361
716	0.7932
707	0.6377
698	0.6
689	0.7
680	0.8728
671	0.8957
662	0.8992
653	0.8197
644	0.7628
635	0.864
626	0.8875
617	0.8894
608	0.882
599	0.804
590	0.8091
581	0.8489
572	0.8706
563	0.8755
554	0.8625
545	0.8595
536	0.8595
527	0.844
518	0.8424
509	0.8513
500	0.8613
491	0.8449
482	0.8175
473	0.7934
464	0.8003
455	0.8145
446	0.8142
437	0.8158
428	0.8188
419	0.8211
410	0.823
401	0.825
392	0.8271
