Infrared Spectrum: 1,2-BENZENEDICARBOXYLIC ACID, DIDECYL ESTER (ISO)
Formula: C28 H46 O4
CAS: 84-77-5
State: SOLUTION (10% IN CCl4 FOR 3800-1333, 10% IN CS2 FOR 1333-420 CM^-^1) VS. SOLVENT
Class: COBLENTZ III
Instrument: PERKIN-ELMER 180
Sampling: TRANSMISSION
Path length: 0.011, 0.011 CM
Resolution: 4
Origin: DOW CHEMICAL COMPANY
1/CM	TRANSMITTANCE
419.289	0.917
428.426	0.926
437.563	0.935
446.7	0.933
455.837	0.938
464.974	0.934
474.112	0.931
483.249	0.93
492.386	0.927
501.523	0.923
510.66	0.926
519.797	0.925
528.934	0.921
538.071	0.924
547.208	0.921
556.345	0.898
565.482	0.896
574.619	0.904
583.757	0.932
592.894	0.948
602.031	0.955
611.168	0.957
620.305	0.959
629.442	0.956
638.579	0.939
647.716	0.84
656.853	0.932
665.99	0.948
675.127	0.94
684.264	0.876
693.402	0.737
702.539	0.633
711.676	0.827
720.813	0.7811
729.95	0.5422
739.087	0.298
748.224	0.5879
757.361	0.717
766.498	0.742
775.635	0.754
784.772	0.763
793.91	0.812
803.047	0.876
812.184	0.882
821.321	0.884
830.458	0.881
839.595	0.884
848.732	0.875
857.869	0.859
867.006	0.854
876.143	0.851
885.28	0.867
894.417	0.868
903.555	0.872
912.692	0.856
921.829	0.849
930.966	0.827
940.103	0.774
949.24	0.698
958.377	0.644
967.514	0.647
976.651	0.7
985.788	0.752
994.925	0.789
1004.06	0.824
1013.2	0.822
1022.34	0.796
1031.47	0.669
1040.61	0.575
1049.75	0.671
1058.89	0.515
1068.02	0.181
1077.16	0.2939
1086.3	0.6629
1095.43	0.708
1104.57	0.558
1113.71	0.1541
1122.84	0.083
1131.98	0.125
1141.12	0.3041
1150.26	0.6
1159.39	0.659
1168.53	0.773
1177.67	0.827
1186.8	0.832
1195.94	0.811
1205.08	0.791
1214.22	0.756
1223.35	0.685
1232.49	0.521
1241.63	0.313
1250.76	0.1171
1259.9	0.041
1269.04	0.016
1278.18	0.018
1287.31	0.018
1296.45	0.09
1305.59	0.267
1314.72	0.461
1323.86	0.602
1333	0.669
1342.13	0.707
1351.27	0.712
1360.41	0.619
1369.55	0.544
1378.68	0.387
1387.82	0.616
1396.96	0.794
1406.09	0.832
1415.23	0.831
1424.37	0.793
1433.51	0.706
1442.64	0.495
1451.78	0.355
1460.92	0.262
1470.05	0.5089
1479.19	0.718
1488.33	0.757
1497.47	0.849
1506.6	0.864
1515.74	0.87
1524.88	0.879
1534.01	0.889
1543.15	0.883
1552.29	0.878
1561.42	0.867
1570.56	0.808
1579.7	0.715
1588.84	0.822
1597.97	0.706
1607.11	0.855
1616.25	0.868
1625.38	0.869
1634.52	0.869
1643.66	0.863
1652.8	0.855
1661.93	0.844
1671.07	0.815
1680.21	0.758
1689.34	0.708
1698.48	0.6399
1707.62	0.4511
1716.76	0.059
1725.89	0.007
1735.03	0.028
1744.17	0.218
1753.3	0.619
1762.44	0.749
1771.58	0.806
1780.71	0.844
1789.85	0.865
1798.99	0.877
1808.13	0.887
1817.26	0.892
1826.4	0.888
1835.54	0.888
1844.67	0.903
1853.81	0.906
1862.95	0.905
1872.09	0.914
1881.22	0.915
1890.36	0.916
1899.5	0.913
1908.63	0.912
1917.77	0.914
1926.91	0.91
1936.05	0.893
1945.18	0.91
1954.32	0.915
1963.46	0.905
1972.59	0.913
1981.73	0.923
1990.87	0.924
2000	0.921
2009.14	0.92
2018.28	0.919
2027.42	0.917
2036.55	0.917
2045.69	0.9205
2054.83	0.921
2063.96	0.9174
2073.1	0.9161
2082.24	0.916
2091.38	0.9139
2100.51	0.913
2109.65	0.917
2118.79	0.918
2127.92	0.917
2137.06	0.916
2146.2	0.9181
2155.34	0.92
2164.47	0.9202
2173.61	0.92
2182.75	0.92
2191.88	0.92
2201.02	0.9204
2210.16	0.9187
2219.29	0.921
2228.43	0.9193
2237.57	0.9188
2246.71	0.917
2255.84	0.915
2264.98	0.9205
2274.12	0.9197
2283.25	0.9188
2292.39	0.921
2301.53	0.9218
2310.67	0.9187
2319.8	0.917
2328.94	0.913
2338.08	0.9178
2347.21	0.915
2356.35	0.915
2365.49	0.9143
2374.63	0.911
2383.76	0.9111
2392.9	0.913
2402.04	0.911
2411.17	0.9129
2420.31	0.9158
2429.45	0.9209
2438.58	0.9214
2447.72	0.924
2456.86	0.926
2466	0.926
2475.13	0.9255
2484.27	0.922
2493.41	0.922
2502.54	0.922
2511.68	0.919
2520.82	0.917
2529.96	0.9145
2539.09	0.914
2548.23	0.914
2557.37	0.9099
2566.5	0.9054
2575.64	0.9019
2584.78	0.8974
2593.92	0.897
2603.05	0.898
2612.19	0.898
2621.33	0.9006
2630.46	0.903
2639.6	0.9034
2648.74	0.8997
2657.88	0.8973
2667.01	0.896
2676.15	0.8953
2685.29	0.892
2694.42	0.891
2703.56	0.8886
2712.7	0.8786
2721.83	0.867
2730.97	0.8697
2740.11	0.8785
2749.25	0.8812
2758.38	0.879
2767.52	0.8772
2776.66	0.8734
2785.79	0.8627
2794.93	0.8498
2804.07	0.825
2813.21	0.7978
2822.34	0.7449
2831.48	0.6403
2840.62	0.4748
2849.75	0.3047
2858.89	0.2226
2868.03	0.1513
2877.17	0.203
2886.3	0.2448
2895.44	0.1696
2904.58	0.109
2913.71	0.0784
2922.85	0.0533
2931.99	0.0627
2941.12	0.0876
2950.26	0.0296
2959.4	0.0188
2968.54	0.0751
2977.67	0.2864
2986.81	0.5453
2995.95	0.6999
3005.08	0.784
3014.22	0.8231
3023.36	0.842
3032.5	0.8491
3041.63	0.868
3050.77	0.8598
3059.91	0.8457
3069.04	0.829
3078.18	0.85
3087.32	0.8949
3096.46	0.9009
3105.59	0.9072
3114.73	0.9121
3123.87	0.914
3133	0.914
3142.14	0.9107
3151.28	0.9091
3160.41	0.9117
3169.55	0.909
3178.69	0.9107
3187.83	0.9182
3196.96	0.9207
3206.1	0.9242
3215.24	0.927
3224.37	0.9324
3233.51	0.935
3242.65	0.9372
3251.79	0.938
3260.92	0.938
3270.06	0.9365
3279.2	0.9363
3288.33	0.94
3297.47	0.94
3306.61	0.938
3315.75	0.939
3324.88	0.939
3334.02	0.9433
3343.16	0.9402
3352.29	0.9403
3361.43	0.944
3370.57	0.945
3379.7	0.945
3388.84	0.944
3397.98	0.943
3407.12	0.9406
3416.25	0.9323
3425.39	0.9247
3434.53	0.921
3443.66	0.9254
3452.8	0.9329
3461.94	0.9404
3471.08	0.947
3480.21	0.9505
3489.35	0.955
3498.49	0.953
3507.62	0.955
3516.76	0.953
3525.9	0.952
3535.04	0.9535
3544.17	0.953
3553.31	0.9514
3562.45	0.952
3571.58	0.9556
3580.72	0.9645
3589.86	0.953
3598.99	0.951
3608.13	0.9488
3617.27	0.947
3626.41	0.946
3635.54	0.948
3644.68	0.947
3653.82	0.9472
3662.95	0.948
3672.09	0.947
3681.23	0.9436
3690.37	0.945
3699.5	0.948
3708.64	0.946
3717.78	0.9487
3726.91	0.9468
3736.05	0.9469
3745.19	0.9483
3754.33	0.9458
3763.46	0.9473
3772.6	0.948
3781.74	0.948
3790.87	0.9488
3800.01	0.9493
3809.15	0.951
3818.28	0.951
3827.42	0.949
3836.56	0.9487
3845.7	0.9502
3854.83	0.948
3863.97	0.95
3873.11	0.9506
3882.24	0.9484
3891.38	0.949
3900.52	0.947
3909.66	0.95
3918.79	0.948
3927.93	0.9504
3937.07	0.95
3946.2	0.951
3955.34	0.951
3964.48	0.949
3973.62	0.951
3982.75	0.9505
3991.89	0.948
