Infrared Spectrum: Dibutyl phthalate
Formula: C16 H22 O4
CAS: 84-74-2
State: SOLUTION (10% CCl4 FOR 2.7-7.5, 10% CS2 FOR 7.5-26 MICRON) VS SOLVENT
Class: COBLENTZ III
Instrument: DOW KBr FOREPRISM-GRATING
Instrument parameters: BLAZED AT 3.5, 12.0, 20.0 MICRON AND CHANGED AT 5.0, 7.5, 14.9 MICRON
Sampling: TRANSMISSION
Path length: 0.011 CM, 0.011 CM
Resolution: 2
Origin: DOW CHEMICAL COMPANY
1/CM	TRANSMITTANCE
3792	0.848
3783	0.8475
3774	0.8471
3765	0.8471
3756	0.8471
3747	0.847
3738	0.8468
3729	0.8468
3720	0.8468
3711	0.8468
3702	0.847
3693	0.847
3684	0.8471
3675	0.8471
3666	0.8475
3657	0.848
3648	0.8486
3639	0.8492
3630	0.85
3621	0.8508
3612	0.8517
3603	0.8525
3594	0.8542
3585	0.8557
3576	0.8573
3567	0.8588
3558	0.8603
3549	0.8618
3540	0.8634
3531	0.865
3522	0.8666
3513	0.8683
3504	0.8702
3495	0.8718
3486	0.8728
3477	0.8732
3468	0.873
3459	0.871
3450	0.8617
3441	0.8495
3432	0.8392
3423	0.8366
3414	0.8392
3405	0.8502
3396	0.8625
3387	0.8724
3378	0.8787
3369	0.8812
3360	0.8832
3351	0.8843
3342	0.8855
3333	0.8862
3324	0.8868
3315	0.8873
3306	0.8878
3297	0.8882
3288	0.8887
3279	0.8891
3270	0.8894
3261	0.8895
3252	0.8897
3243	0.8893
3234	0.8888
3225	0.8877
3216	0.8864
3207	0.885
3198	0.8834
3189	0.8812
3180	0.8788
3171	0.8771
3162	0.876
3153	0.8751
3144	0.8748
3135	0.8746
3126	0.8741
3117	0.8731
3108	0.8678
3099	0.8611
3090	0.856
3081	0.8508
3072	0.7968
3063	0.7453
3054	0.7592
3045	0.7818
3036	0.8045
3027	0.7975
3018	0.7828
3009	0.7798
3000	0.7337
2991	0.6052
2982	0.4282
2973	0.2511
2964	0.0853
2955	0.0487
2946	0.0991
2937	0.1964
2928	0.1556
2919	0.2494
2910	0.3392
2901	0.3675
2892	0.3866
2883	0.4488
2874	0.2771
2865	0.3074
2856	0.476
2847	0.5881
2838	0.606
2829	0.6971
2820	0.7618
2811	0.7905
2802	0.8078
2793	0.8211
2784	0.8303
2775	0.8365
2766	0.8392
2757	0.8387
2748	0.8374
2739	0.835
2730	0.8324
2721	0.8302
2712	0.8367
2703	0.8446
2694	0.8504
2685	0.8498
2676	0.8491
2667	0.8491
2658	0.8494
2649	0.8505
2640	0.8525
2631	0.8546
2622	0.8564
2613	0.8566
2604	0.8561
2595	0.8546
2586	0.8533
2577	0.8527
2568	0.8521
2559	0.8527
2550	0.8533
2541	0.8551
2532	0.8571
2523	0.8587
2514	0.8603
2505	0.8621
2496	0.8647
2487	0.8668
2478	0.8673
2469	0.8673
2460	0.8671
2451	0.8659
2442	0.8641
2433	0.8618
2424	0.859
2415	0.8564
2406	0.8547
2397	0.8546
2388	0.8547
2379	0.8554
2370	0.8563
2361	0.8571
2352	0.8578
2343	0.8586
2334	0.8593
2325	0.8593
2316	0.8592
2307	0.859
2298	0.8586
2289	0.8582
2280	0.858
2271	0.8577
2262	0.8573
2253	0.857
2244	0.8571
2235	0.8571
2226	0.8583
2217	0.8594
2208	0.8605
2199	0.8621
2190	0.8646
2181	0.8708
2172	0.8739
2163	0.8704
2154	0.8683
2145	0.8665
2136	0.8647
2127	0.8628
2118	0.8616
2109	0.8612
2100	0.8608
2091	0.8604
2082	0.8601
2073	0.8612
2064	0.8624
2055	0.8633
2046	0.8642
2037	0.8648
2028	0.8649
2019	0.8651
2010	0.8654
2001	0.8659
1992	0.8652
1983	0.8644
1974	0.8621
1965	0.8425
1956	0.8478
1947	0.8531
1938	0.8353
1929	0.8342
1920	0.8473
1911	0.8456
1902	0.8467
1893	0.8484
1884	0.8495
1875	0.8499
1866	0.8408
1857	0.8387
1848	0.8409
1839	0.8298
1830	0.8145
1821	0.8171
1812	0.8158
1803	0.81
1794	0.8011
1785	0.7846
1776	0.7533
1767	0.7076
1758	0.6119
1749	0.4084
1740	0.0752
1731	0.0085
1722	0.0033
1713	0.0155
1704	0.2668
1695	0.5164
1686	0.5673
1677	0.636
1668	0.7393
1659	0.7676
1650	0.7818
1641	0.7924
1632	0.7968
1623	0.7984
1614	0.799
1605	0.7839
1596	0.5897
1587	0.7384
1578	0.5147
1569	0.7476
1560	0.7956
1551	0.8178
1542	0.8253
1533	0.8205
1524	0.8097
1515	0.8084
1506	0.7953
1497	0.7692
1488	0.5703
1479	0.6349
1470	0.382
1461	0.3488
1452	0.4236
1443	0.487
1434	0.6341
1425	0.7504
1416	0.7597
1407	0.7458
1398	0.6457
1389	0.422
1380	0.441
1371	0.597
1362	0.6607
1353	0.5779
1344	0.6276
1335	0.5812
1326	0.5551
1317	0.4322
1308	0.2634
1299	0.0992
1290	0.0187
1281	0.0004
1272	0.0002
1263	0.0001
1254	0.0095
1245	0.1257
1236	0.3234
1227	0.4882
1218	0.6097
1209	0.6911
1200	0.7318
1191	0.7481
1182	0.7574
1173	0.7356
1164	0.5967
1155	0.4864
1146	0.348
1137	0.0754
1128	0.0436
1119	0.0226
1110	0.1581
1101	0.4837
1092	0.5977
1083	0.4937
1074	0.0492
1065	0.1039
1056	0.3489
1047	0.6247
1038	0.3964
1029	0.6858
1020	0.7569
1011	0.7136
1002	0.7861
993	0.7528
984	0.7361
975	0.7778
966	0.5559
957	0.5078
948	0.5838
939	0.4951
930	0.6222
921	0.8021
912	0.8415
903	0.8308
894	0.8308
885	0.8365
876	0.8087
867	0.8018
858	0.8084
849	0.7897
840	0.691
831	0.7343
822	0.7806
813	0.8053
804	0.7604
795	0.6808
786	0.6262
777	0.6252
768	0.6297
759	0.5697
750	0.417
741	0.1911
732	0.1994
723	0.5698
714	0.7144
705	0.5559
696	0.5185
687	0.6484
678	0.8258
669	0.8663
660	0.883
651	0.7887
642	0.7856
633	0.8693
624	0.8808
615	0.881
606	0.8808
597	0.8803
588	0.8793
579	0.8671
570	0.7858
561	0.7789
552	0.8254
543	0.8403
534	0.8409
525	0.8414
516	0.8415
507	0.808
498	0.7896
489	0.8203
480	0.8299
471	0.8339
462	0.8398
453	0.8414
444	0.8384
435	0.8344
426	0.8325
417	0.8313
408	0.831
399	0.8315
