Infrared Spectrum: N,N-DIETHYL-1-NAPHTHYLAMINE
Formula: C14 H17 N
CAS: 84-95-7
State: LIQUID
Class: COBLENTZ
Instrument: Not specified, most likely a prism, grating, or hybrid spectrometer.
Sampling: TRANSMISSION
Path length: 0.003 CM
Resolution: 4
Origin: WYANDOTTE CHEMICALS CORP., WYANDOTTE, MICHIGAN, USA
MICROMETERS	TRANSMITTANCE
2.048	0.962
2.08878	0.965
2.12955	0.965
2.17033	0.945
2.21111	0.938
2.25188	0.945
2.29266	0.941
2.33344	0.95
2.37421	0.941
2.41499	0.94
2.45577	0.941
2.49654	0.94
2.53732	0.955
2.5781	0.955
2.61887	0.959
2.65965	0.972
2.70043	0.965
2.7412	0.972
2.78198	0.964
2.82276	0.941
2.86353	0.94
2.90431	0.93
2.94509	0.926
2.98586	0.919
3.02664	0.918
3.06742	0.912
3.10819	0.882
3.14897	0.858
3.18975	0.837
3.23052	0.709
3.2713	0.457
3.31208	0.592
3.35285	0.143
3.39363	0.402
3.43441	0.47
3.47518	0.515
3.51596	0.511
3.55673	0.407
3.59751	0.689
3.63829	0.773
3.67906	0.805
3.71984	0.832
3.76062	0.87
3.80139	0.875
3.84217	0.878
3.88295	0.883
3.92372	0.894
3.9645	0.901
4.00528	0.901
4.04605	0.899
4.08683	0.902
4.12761	0.904
4.16838	0.904
4.20916	0.894
4.24994	0.914
4.29071	0.924
4.33149	0.924
4.37227	0.919
4.41304	0.907
4.45382	0.911
4.4946	0.912
4.53537	0.916
4.57615	0.916
4.61693	0.919
4.6577	0.919
4.69848	0.914
4.73926	0.914
4.78003	0.918
4.82081	0.918
4.86159	0.919
4.90236	0.911
4.94314	0.912
4.98392	0.914
5.02469	0.912
5.06547	0.904
5.10625	0.897
5.14702	0.87
5.1878	0.87
5.22858	0.827
5.26935	0.854
5.31013	0.901
5.35091	0.902
5.39168	0.873
5.43246	0.849
5.47324	0.846
5.51401	0.863
5.55479	0.88
5.59557	0.875
5.63634	0.861
5.67712	0.861
5.7179	0.851
5.75867	0.844
5.79945	0.86
5.84023	0.844
5.881	0.829
5.92178	0.831
5.96256	0.793
6.00333	0.8
6.04411	0.82
6.08489	0.819
6.12566	0.762
6.16644	0.767
6.20722	0.573
6.24799	0.508
6.28877	0.269
6.32955	0.679
6.37032	0.773
6.4111	0.791
6.45187	0.776
6.49265	0.786
6.53343	0.771
6.5742	0.621
6.61498	0.634
6.65576	0.742
6.69653	0.607
6.73731	0.523
6.77809	0.416
6.81886	0.377
6.85964	0.363
6.90042	0.436
6.94119	0.597
6.98197	0.653
7.02275	0.626
7.06352	0.431
7.1043	0.174
7.14508	0.327
7.18585	0.363
7.22663	0.211
7.26741	0.356
7.30818	0.474
7.34896	0.626
7.38974	0.699
7.43051	0.643
7.47129	0.66
7.51207	0.549
7.55284	0.68
7.59362	0.701
7.6344	0.602
7.67517	0.59
7.71595	0.564
7.75673	0.558
7.7975	0.648
7.83828	0.61
7.87906	0.331
7.91983	0.317
7.96061	0.573
8.00139	0.598
8.04216	0.457
8.08294	0.3
8.12372	0.61
8.16449	0.653
8.20527	0.578
8.24605	0.67
8.28682	0.684
8.3276	0.658
8.36838	0.66
8.40915	0.689
8.44993	0.621
8.49071	0.428
8.53148	0.426
8.57226	0.569
8.61304	0.571
8.65381	0.633
8.69459	0.563
8.73537	0.651
8.77614	0.723
8.81692	0.711
8.8577	0.665
8.89847	0.581
8.93925	0.54
8.98003	0.604
9.0208	0.604
9.06158	0.503
9.10236	0.46
9.14313	0.404
9.18391	0.315
9.22469	0.291
9.26546	0.419
9.30624	0.423
9.34701	0.436
9.38779	0.47
9.42857	0.477
9.46934	0.472
9.51012	0.409
9.5509	0.547
9.59167	0.687
9.63245	0.728
9.67323	0.735
9.714	0.684
9.75478	0.501
9.79556	0.382
9.83633	0.573
9.87711	0.677
9.91789	0.718
9.95866	0.716
9.99944	0.728
10.0402	0.771
10.081	0.796
10.1218	0.8
10.1625	0.81
10.2033	0.812
10.2441	0.813
10.2849	0.798
10.3257	0.764
10.3664	0.733
10.4072	0.745
10.448	0.773
10.4888	0.767
10.5295	0.793
10.5703	0.82
10.6111	0.829
10.6519	0.829
10.6926	0.825
10.7334	0.82
10.7742	0.812
10.815	0.805
10.8557	0.819
10.8965	0.822
10.9373	0.827
10.9781	0.825
11.0189	0.824
11.0596	0.786
11.1004	0.759
11.1412	0.738
11.182	0.749
11.2227	0.788
11.2635	0.805
11.3043	0.812
11.3451	0.822
11.3858	0.82
11.4266	0.822
11.4674	0.815
11.5082	0.798
11.549	0.766
11.5897	0.757
11.6305	0.784
11.6713	0.807
11.7121	0.819
11.7528	0.812
11.7936	0.822
11.8344	0.815
11.8752	0.807
11.9159	0.812
11.9567	0.807
11.9975	0.803
12.0383	0.793
12.079	0.779
12.1198	0.755
12.1606	0.723
12.2014	0.694
12.2422	0.699
12.2829	0.708
12.3237	0.677
12.3645	0.609
12.4053	0.488
12.446	0.303
12.4868	0.196
12.5276	0.213
12.5684	0.284
12.6091	0.339
12.6499	0.218
12.6907	0.213
12.7315	0.206
12.7723	0.139
12.813	0.08
12.8538	0.051
12.8946	0.044
12.9354	0.054
12.9761	0.146
13.0169	0.348
13.0577	0.522
13.0985	0.61
13.1392	0.677
13.18	0.708
13.2208	0.738
13.2616	0.745
13.3023	0.762
13.3431	0.767
13.3839	0.773
13.4247	0.773
13.4655	0.764
13.5062	0.745
13.547	0.723
13.5878	0.716
13.6286	0.723
13.6693	0.742
13.7101	0.774
13.7509	0.791
13.7917	0.803
13.8324	0.805
13.8732	0.803
13.914	0.805
13.9548	0.808
13.9955	0.812
14.0363	0.813
14.0771	0.812
14.1179	0.812
14.1587	0.812
14.1994	0.812
14.2402	0.81
14.281	0.81
14.3218	0.808
14.3625	0.803
14.4033	0.8
14.4441	0.788
14.4849	0.773
14.5256	0.75
14.5664	0.73
14.6072	0.728
14.648	0.737
14.6888	0.738
14.7295	0.744
14.7703	0.757
14.8111	0.773
14.8519	0.779
14.8926	0.778
14.9334	0.781
14.9742	0.761
15.015	0.73
15.0557	0.738
15.0965	0.744
15.1373	0.738
15.1781	0.725
15.2188	0.711
15.2596	0.711
15.3004	0.718
15.3412	0.723
15.382	0.725
15.4227	0.726
15.4635	0.732
15.5043	0.73
15.5451	0.728
15.5858	0.726
15.6266	0.721
15.6674	0.708
15.7082	0.706
15.7489	0.709
15.7897	0.703
15.8305	0.701
15.8713	0.694
15.9121	0.686
15.9528	0.682
15.9936	0.68
