Infrared Spectrum: PHENANTHRENE
Formula: C14 H10
CAS: 85-01-8
State: SOLUTION (SATURATED IN HEPTANE)
Class: COBLENTZ
Instrument: Not specified, most likely a prism, grating, or hybrid spectrometer.
Sampling: TRANSMISSION
Path length: 0.01 CM
Resolution: 4
Origin: CENTRE D'ETUDES NUCLEAIRES DE GRENOBLE
MICROMETERS	TRANSMITTANCE
1.951	0.91
1.9911	0.901
2.0312	0.896
2.07131	0.901
2.11141	0.896
2.15151	0.895
2.19161	0.9
2.23171	0.903
2.27182	0.903
2.31192	0.903
2.35202	0.903
2.39212	0.903
2.43222	0.903
2.47233	0.905
2.51243	0.905
2.55253	0.906
2.59263	0.906
2.63273	0.91
2.67284	0.916
2.71294	0.921
2.75304	0.918
2.79314	0.911
2.83325	0.901
2.87335	0.895
2.91345	0.89
2.95355	0.886
2.99365	0.885
3.03376	0.881
3.07386	0.883
3.11396	0.886
3.15406	0.888
3.19416	0.883
3.23427	0.843
3.27437	0.615
3.31447	0.678
3.35457	0.743
3.39467	0.791
3.43478	0.823
3.47488	0.87
3.51498	0.9
3.55508	0.906
3.59518	0.908
3.63529	0.911
3.67539	0.918
3.71549	0.918
3.75559	0.92
3.79569	0.921
3.8358	0.921
3.8759	0.923
3.916	0.925
3.9561	0.925
3.9962	0.926
4.03631	0.928
4.07641	0.93
4.11651	0.931
4.15661	0.933
4.19672	0.938
4.23682	0.941
4.27692	0.95
4.31702	0.945
4.35712	0.936
4.39723	0.933
4.43733	0.933
4.47743	0.935
4.51753	0.935
4.55763	0.936
4.59774	0.936
4.63784	0.938
4.67794	0.938
4.71804	0.938
4.75814	0.938
4.79825	0.938
4.83835	0.94
4.87845	0.94
4.91855	0.94
4.95865	0.941
4.99876	0.943
5.03886	0.943
5.07896	0.945
5.11906	0.93
5.15916	0.893
5.19927	0.898
5.23937	0.893
5.27947	0.901
5.31957	0.913
5.35967	0.933
5.39978	0.938
5.43988	0.928
5.47998	0.903
5.52008	0.896
5.56019	0.898
5.60029	0.918
5.64039	0.918
5.68049	0.908
5.72059	0.9
5.7607	0.923
5.8008	0.918
5.8409	0.913
5.881	0.908
5.9211	0.905
5.96121	0.9
6.00131	0.898
6.04141	0.895
6.08151	0.896
6.12161	0.883
6.16172	0.861
6.20182	0.815
6.24192	0.741
6.28202	0.758
6.32212	0.793
6.36223	0.828
6.40233	0.856
6.44243	0.88
6.48253	0.891
6.52263	0.895
6.56274	0.878
6.60284	0.881
6.64294	0.891
6.68304	0.771
6.72314	0.886
6.76325	0.898
6.80335	0.918
6.84345	0.925
6.88355	0.918
6.92366	0.911
6.96376	0.905
7.00386	0.895
7.04396	0.866
7.08406	0.86
7.12417	0.871
7.16427	0.875
7.20437	0.88
7.24447	0.885
7.28457	0.886
7.32468	0.868
7.36478	0.863
7.40488	0.875
7.44498	0.893
7.48508	0.911
7.52519	0.908
7.56529	0.905
7.60539	0.901
7.64549	0.896
7.68559	0.888
7.7257	0.873
7.7658	0.903
7.8059	0.906
7.846	0.913
7.8861	0.911
7.92621	0.905
7.96631	0.903
8.00641	0.9
8.04651	0.685
8.08661	0.803
8.12672	0.841
8.16682	0.883
8.20692	0.89
8.24702	0.896
8.28713	0.898
8.32723	0.871
8.36733	0.878
8.40743	0.91
8.44753	0.913
8.48764	0.906
8.52774	0.905
8.56784	0.903
8.60794	0.898
8.64804	0.9
8.68815	0.901
8.72825	0.888
8.76835	0.843
8.80845	0.87
8.84855	0.881
8.88866	0.876
8.92876	0.875
8.96886	0.881
9.00896	0.89
9.04906	0.9
9.08917	0.903
9.12927	0.888
9.16937	0.871
9.20947	0.903
9.24957	0.915
9.28968	0.925
9.32978	0.923
9.36988	0.92
9.40998	0.92
9.45008	0.921
9.49019	0.92
9.53029	0.913
9.57039	0.896
9.61049	0.743
9.6506	0.801
9.6907	0.881
9.7308	0.898
9.7709	0.905
9.811	0.911
9.85111	0.921
9.89121	0.928
9.93131	0.928
9.97141	0.88
10.0115	0.888
10.0516	0.92
10.0917	0.923
10.1318	0.925
10.1719	0.923
10.212	0.916
10.2521	0.91
10.2922	0.918
10.3323	0.926
10.3724	0.923
10.4125	0.923
10.4526	0.921
10.4927	0.916
10.5328	0.873
10.5729	0.765
10.613	0.868
10.6531	0.905
10.6932	0.913
10.7334	0.92
10.7735	0.923
10.8136	0.926
10.8537	0.931
10.8938	0.933
10.9339	0.936
10.974	0.938
11.0141	0.938
11.0542	0.94
11.0943	0.941
11.1344	0.941
11.1745	0.94
11.2146	0.94
11.2547	0.938
11.2948	0.933
11.3349	0.928
11.375	0.92
11.4151	0.881
11.4552	0.873
11.4953	0.896
11.5354	0.883
11.5755	0.545
11.6156	0.623
11.6557	0.791
11.6958	0.861
11.7359	0.891
11.776	0.901
11.8161	0.91
11.8562	0.916
11.8963	0.92
11.9364	0.923
11.9765	0.921
12.0166	0.915
12.0567	0.9
12.0968	0.895
12.1369	0.886
12.177	0.87
12.2171	0.838
12.2572	0.663
12.2973	0.101
12.3374	0.161
12.3775	0.413
12.4176	0.62
12.4577	0.788
12.4978	0.838
12.5379	0.876
12.578	0.89
12.6181	0.901
12.6582	0.906
12.6984	0.913
12.7385	0.915
12.7786	0.915
12.8187	0.923
12.8588	0.921
12.8989	0.918
12.939	0.918
12.9791	0.916
13.0192	0.918
13.0593	0.92
13.0994	0.923
13.1395	0.925
13.1796	0.923
13.2197	0.92
13.2598	0.915
13.2999	0.911
13.34	0.908
13.3801	0.905
13.4202	0.901
13.4603	0.898
13.5004	0.838
13.5405	0.65
13.5806	0.263
13.6207	0.105
13.6608	0.115
13.7009	0.268
13.741	0.448
13.7811	0.55
13.8212	0.595
13.8613	0.646
13.9014	0.698
13.9415	0.761
13.9816	0.823
14.0217	0.846
14.0618	0.818
14.1019	0.793
14.142	0.781
14.1821	0.828
14.2222	0.865
14.2623	0.896
14.3024	0.91
14.3425	0.913
14.3826	0.913
14.4227	0.92
14.4628	0.92
14.5029	0.921
14.543	0.926
14.5831	0.928
14.6233	0.928
14.6634	0.925
14.7035	0.925
14.7436	0.93
14.7837	0.933
14.8238	0.925
14.8639	0.928
14.904	0.923
14.9441	0.931
14.9842	0.925
15.0243	0.93
15.0644	0.921
15.1045	0.918
15.1446	0.918
15.1847	0.92
15.2248	0.921
15.2649	0.921
15.305	0.92
15.3451	0.918
15.3852	0.92
15.4253	0.92
15.4654	0.918
15.5055	0.913
15.5456	0.91
15.5857	0.911
15.6258	0.913
15.6659	0.916
15.706	0.918
15.7461	0.918
15.7862	0.911
15.8263	0.911
15.8664	0.911
15.9065	0.911
