Infrared Spectrum: BENZO(F)QUINOLINE
Formula: C13 H9 N
CAS: 85-02-9
State: SOLID (KBr PELLET)
Class: COBLENTZ
Instrument: Not specified, most likely a prism, grating, or hybrid spectrometer.
Sampling: TRANSMISSION
Resolution: 4
Origin: TENNESSEE EASTMAN COMPANY, RESEARCH LABORATORIES
MICROMETERS	TRANSMITTANCE
2.096	0.931
2.1356	0.931
2.17521	0.931
2.21481	0.936
2.25441	0.938
2.29401	0.941
2.33362	0.945
2.37322	0.95
2.41282	0.953
2.45243	0.955
2.49203	0.96
2.53163	0.963
2.57123	0.971
2.61084	0.976
2.65044	0.988
2.69004	0.991
2.72965	0.995
2.76925	0.985
2.80885	0.943
2.84845	0.876
2.88806	0.818
2.92766	0.771
2.96726	0.765
3.00687	0.783
3.04647	0.808
3.08607	0.833
3.12567	0.845
3.16528	0.851
3.20488	0.863
3.24448	0.873
3.28409	0.791
3.32369	0.798
3.36329	0.836
3.4029	0.836
3.4425	0.831
3.4821	0.853
3.5217	0.858
3.56131	0.885
3.60091	0.893
3.64051	0.898
3.68012	0.901
3.71972	0.905
3.75932	0.903
3.79892	0.903
3.83853	0.91
3.87813	0.911
3.91773	0.911
3.95734	0.916
3.99694	0.92
4.03654	0.921
4.07614	0.925
4.11575	0.926
4.15535	0.933
4.19495	0.933
4.23456	0.933
4.27416	0.951
4.31376	0.99
4.35336	1.001
4.39297	0.965
4.43257	0.96
4.47217	0.963
4.51178	0.965
4.55138	0.966
4.59098	0.97
4.63058	0.971
4.67019	0.971
4.70979	0.973
4.74939	0.973
4.789	0.973
4.8286	0.976
4.8682	0.98
4.9078	0.98
4.94741	0.98
4.98701	0.98
5.02661	0.991
5.06622	0.981
5.10582	0.971
5.14542	0.955
5.18502	0.958
5.22463	0.961
5.26423	0.975
5.30383	0.975
5.34344	0.985
5.38304	0.993
5.42264	0.986
5.46224	0.985
5.50185	0.983
5.54145	0.968
5.58105	0.98
5.62066	0.981
5.66026	0.981
5.69986	0.971
5.73947	0.97
5.77907	0.966
5.81867	0.953
5.85827	0.953
5.89788	0.943
5.93748	0.94
5.97708	0.941
6.01669	0.94
6.05629	0.916
6.09589	0.928
6.13549	0.908
6.1751	0.901
6.2147	0.891
6.2543	0.813
6.29391	0.791
6.33351	0.815
6.37311	0.735
6.41271	0.901
6.45232	0.905
6.49192	0.951
6.53152	0.955
6.57113	0.955
6.61073	0.97
6.65033	0.911
6.68993	0.6
6.72954	0.883
6.76914	0.915
6.80874	0.918
6.84835	0.816
6.88795	0.715
6.92755	0.82
6.96715	0.888
7.00676	0.873
7.04636	0.833
7.08596	0.9
7.12557	0.918
7.16517	0.825
7.20477	0.598
7.24437	0.685
7.28398	0.821
7.32358	0.87
7.36318	0.906
7.40279	0.905
7.44239	0.9
7.48199	0.91
7.52159	0.931
7.5612	0.933
7.6008	0.883
7.6404	0.913
7.68001	0.716
7.71961	0.723
7.75921	0.888
7.79881	0.911
7.83842	0.801
7.87802	0.843
7.91762	0.888
7.95723	0.888
7.99683	0.895
8.03643	0.891
8.07603	0.803
8.11564	0.795
8.15524	0.88
8.19484	0.796
8.23445	0.841
8.27405	0.863
8.31365	0.875
8.35326	0.811
8.39286	0.82
8.43246	0.846
8.47206	0.855
8.51167	0.861
8.55127	0.861
8.59087	0.83
8.63048	0.816
8.67008	0.826
8.70968	0.815
8.74928	0.781
8.78889	0.741
8.82849	0.786
8.86809	0.806
8.9077	0.808
8.9473	0.808
8.9869	0.808
9.0265	0.81
9.06611	0.81
9.10571	0.756
9.14531	0.65
9.18492	0.768
9.22452	0.783
9.26412	0.786
9.30372	0.793
9.34333	0.795
9.38293	0.806
9.42253	0.803
9.46214	0.736
9.50174	0.761
9.54134	0.803
9.58094	0.806
9.62055	0.755
9.66015	0.76
9.69975	0.791
9.73936	0.805
9.77896	0.815
9.81856	0.818
9.85816	0.821
9.89777	0.826
9.93737	0.83
9.97697	0.828
10.0166	0.71
10.0562	0.776
10.0958	0.791
10.1354	0.8
10.175	0.805
10.2146	0.801
10.2542	0.801
10.2938	0.815
10.3334	0.828
10.373	0.83
10.4126	0.83
10.4522	0.825
10.4918	0.81
10.5314	0.803
10.571	0.803
10.6106	0.808
10.6502	0.835
10.6898	0.845
10.7294	0.846
10.769	0.851
10.8086	0.851
10.8482	0.855
10.8878	0.856
10.9274	0.856
10.967	0.858
11.0066	0.858
11.0463	0.858
11.0859	0.861
11.1255	0.863
11.1651	0.865
11.2047	0.865
11.2443	0.865
11.2839	0.865
11.3235	0.861
11.3631	0.845
11.4027	0.841
11.4423	0.748
11.4819	0.671
11.5215	0.785
11.5611	0.845
11.6007	0.861
11.6403	0.866
11.6799	0.865
11.7195	0.853
11.7591	0.823
11.7987	0.746
11.8383	0.553
11.8779	0.275
11.9175	0.173
11.9571	0.436
11.9967	0.616
12.0363	0.771
12.0759	0.808
12.1155	0.8
12.1551	0.643
12.1947	0.39
12.2343	0.221
12.2739	0.313
12.3135	0.558
12.3531	0.681
12.3927	0.736
12.4324	0.758
12.472	0.785
12.5116	0.8
12.5512	0.811
12.5908	0.821
12.6304	0.825
12.67	0.828
12.7096	0.828
12.7492	0.811
12.7888	0.755
12.8284	0.741
12.868	0.77
12.9076	0.82
12.9472	0.823
12.9868	0.823
13.0264	0.758
13.066	0.635
13.1056	0.525
13.1452	0.463
13.1848	0.408
13.2244	0.34
13.264	0.271
13.3036	0.223
13.3432	0.208
13.3828	0.336
13.4224	0.54
13.462	0.611
13.5016	0.671
13.5412	0.703
13.5808	0.731
13.6204	0.743
13.66	0.755
13.6996	0.768
13.7392	0.768
13.7788	0.74
13.8185	0.723
13.8581	0.731
13.8977	0.766
13.9373	0.786
13.9769	0.796
14.0165	0.803
14.0561	0.795
14.0957	0.731
14.1353	0.698
14.1749	0.716
14.2145	0.76
14.2541	0.786
14.2937	0.798
14.3333	0.803
14.3729	0.806
14.4125	0.811
14.4521	0.811
14.4917	0.811
14.5313	0.813
14.5709	0.813
14.6105	0.813
14.6501	0.813
14.6897	0.813
14.7293	0.815
14.7689	0.816
14.8085	0.816
14.8481	0.816
14.8877	0.815
14.9273	0.816
14.9669	0.816
15.0065	0.816
15.0461	0.816
15.0857	0.816
15.1253	0.818
15.165	0.82
15.2046	0.82
15.2442	0.82
15.2838	0.82
15.3234	0.82
15.363	0.82
15.4026	0.82
15.4422	0.82
15.4818	0.82
15.5214	0.821
15.561	0.818
15.6006	0.82
15.6402	0.82
15.6798	0.82
15.7194	0.818
15.759	0.816
15.7986	0.813
15.8382	0.815
