Infrared Spectrum: 1,3-ISOBENZOFURANDIONE
Formula: C8 H4 O3
CAS: 85-44-9
State: SOLID (SPLIT MULL, FLUOROLUBE FOR 3800-1300 AND NUJOL FOR 1300-240 CM ^-^1)
Class: COBLENTZ III
Instrument: PERKIN-ELMER 521 (GRATING)
Instrument parameters: FILTERS AT 3150, 2500, 2000, 1150, 700, 410; GRATING CHANGES AT 2000, 630 CM^-^1
Sampling: TRANSMISSION
Resolution: 4
Origin: DOW CORNING CORP.
1/CM	TRANSMITTANCE
242.341	0.72
252.188	0.751
262.035	0.801
271.882	0.834
281.728	0.863
291.575	0.899
301.422	0.912
311.269	0.922
321.116	0.924
330.963	0.923
340.809	0.888
350.656	0.655
360.503	0.849
370.35	0.916
380.197	0.919
390.044	0.904
399.89	0.924
409.737	0.923
419.584	0.922
429.431	0.94
439.278	0.935
449.125	0.927
458.971	0.923
468.818	0.92
478.665	0.918
488.512	0.915
498.359	0.915
508.206	0.908
518.052	0.893
527.899	0.699
537.746	0.583
547.593	0.896
557.44	0.889
567.287	0.888
577.133	0.912
586.98	0.918
596.827	0.915
606.674	0.912
616.521	0.907
626.368	0.881
636.214	0.844
646.061	0.848
655.908	0.873
665.755	0.871
675.602	0.801
685.449	0.859
695.295	0.814
705.142	0.634
714.989	0.097
724.836	0.697
734.683	0.758
744.53	0.828
754.376	0.836
764.223	0.836
774.07	0.838
783.917	0.838
793.764	0.8
803.611	0.763
813.457	0.813
823.304	0.798
833.151	0.699
842.998	0.769
852.845	0.736
862.692	0.689
872.538	0.542
882.385	0.251
892.232	0.131
902.079	0.009
911.926	0.03
921.773	0.2421
931.619	0.518
941.466	0.665
951.313	0.719
961.16	0.747
971.007	0.773
980.854	0.781
990.7	0.781
1000.55	0.748
1010.39	0.7341
1020.24	0.824
1030.09	0.821
1039.93	0.818
1049.78	0.809
1059.63	0.79
1069.48	0.673
1079.32	0.747
1089.17	0.677
1099.02	0.595
1108.86	0.132
1118.71	0.777
1128.56	0.809
1138.4	0.805
1148.25	0.763
1158.1	0.716
1167.94	0.554
1177.79	0.73
1187.64	0.742
1197.48	0.691
1207.33	0.559
1217.18	0.609
1227.02	0.519
1236.87	0.281
1246.72	0.099
1256.56	0.018
1266.41	0.095
1276.26	0.4681
1286.11	0.389
1295.95	0.775
1305.8	0.888
1315.65	0.885
1325.49	0.825
1335.34	0.646
1345.19	0.797
1355.03	0.5619
1364.88	0.853
1374.73	0.849
1384.57	0.863
1394.42	0.91
1404.27	0.893
1414.11	0.861
1423.96	0.853
1433.81	0.859
1443.65	0.825
1453.5	0.825
1463.35	0.6639
1473.2	0.7701
1483.04	0.923
1492.89	0.914
1502.74	0.904
1512.58	0.868
1522.43	0.896
1532.28	0.896
1542.12	0.893
1551.97	0.887
1561.82	0.876
1571.66	0.856
1581.51	0.83
1591.36	0.7549
1601.2	0.692
1611.05	0.794
1620.9	0.834
1630.74	0.841
1640.59	0.828
1650.44	0.82
1660.29	0.808
1670.13	0.778
1679.98	0.747
1689.83	0.689
1699.67	0.653
1709.52	0.641
1719.37	0.6129
1729.21	0.4919
1739.06	0.3849
1748.91	0.245
1758.75	0.026
1768.6	0.036
1778.45	0.163
1788.29	0.183
1798.14	0.263
1807.99	0.347
1817.83	0.441
1827.68	0.495
1837.53	0.4599
1847.37	0.161
1857.22	0.2772
1867.07	0.7751
1876.92	0.887
1886.76	0.881
1896.61	0.842
1906.46	0.891
1916.3	0.932
1926.15	0.924
1936	0.914
1945.84	0.928
1955.69	0.935
1965.54	0.93
1975.38	0.903
1985.23	0.872
1995.08	0.876
2004.92	0.879
2014.77	0.877
2024.62	0.8795
2034.46	0.925
2044.31	0.926
2054.16	0.9195
2064.01	0.914
2073.85	0.907
2083.7	0.903
2093.55	0.9
2103.39	0.9035
2113.24	0.9035
2123.09	0.8945
2132.93	0.891
2142.78	0.884
2152.63	0.872
2162.47	0.871
2172.32	0.869
2182.17	0.8825
2192.01	0.883
2201.86	0.8845
2211.71	0.887
2221.55	0.8855
2231.4	0.878
2241.25	0.8715
2251.1	0.864
2260.94	0.862
2270.79	0.859
2280.64	0.8635
2290.48	0.8615
2300.33	0.858
2310.18	0.853
2320.02	0.8595
2329.87	0.853
2339.72	0.851
2349.56	0.851
2359.41	0.8525
2369.26	0.848
2379.1	0.843
2388.95	0.843
2398.8	0.8445
2408.64	0.839
2418.49	0.8395
2428.34	0.8405
2438.18	0.838
2448.03	0.838
2457.88	0.837
2467.73	0.8325
2477.57	0.83
2487.42	0.8325
2497.27	0.83
2507.11	0.825
2516.96	0.824
2526.81	0.8245
2536.65	0.822
2546.5	0.8205
2556.35	0.82
2566.19	0.818
2576.04	0.818
2585.89	0.813
2595.73	0.8135
2605.58	0.8075
2615.43	0.802
2625.27	0.8015
2635.12	0.794
2644.97	0.795
2654.82	0.796
2664.66	0.799
2674.51	0.795
2684.36	0.787
2694.2	0.7855
2704.05	0.789
2713.9	0.7895
2723.74	0.791
2733.59	0.792
2743.44	0.787
2753.28	0.7855
2763.13	0.778
2772.98	0.781
2782.82	0.782
2792.67	0.782
2802.52	0.7815
2812.36	0.779
2822.21	0.777
2832.06	0.7775
2841.91	0.7735
2851.75	0.7745
2861.6	0.767
2871.45	0.768
2881.29	0.765
2891.14	0.766
2900.99	0.766
2910.83	0.762
2920.68	0.761
2930.53	0.754
2940.37	0.751
2950.22	0.753
2960.07	0.752
2969.91	0.755
2979.76	0.7515
2989.61	0.75
2999.45	0.749
3009.3	0.742
3019.15	0.7385
3029	0.734
3038.84	0.7315
3048.69	0.723
3058.54	0.703
3068.38	0.6895
3078.23	0.7094
3088.08	0.7055
3097.92	0.6889
3107.77	0.719
3117.62	0.7335
3127.46	0.7115
3137.31	0.725
3147.16	0.726
3157	0.726
3166.85	0.7265
3176.7	0.726
3186.54	0.724
3196.39	0.7245
3206.24	0.723
3216.08	0.724
3225.93	0.726
3235.78	0.726
3245.63	0.726
3255.47	0.724
3265.32	0.7225
3275.17	0.72
3285.01	0.719
3294.86	0.718
3304.71	0.715
3314.55	0.712
3324.4	0.711
3334.25	0.709
3344.09	0.7065
3353.94	0.7035
3363.79	0.6995
3373.63	0.698
3383.48	0.697
3393.33	0.6965
3403.17	0.695
3413.02	0.694
3422.87	0.693
3432.72	0.6925
3442.56	0.691
3452.41	0.688
3462.26	0.687
3472.1	0.686
3481.95	0.685
3491.8	0.6835
3501.64	0.68
3511.49	0.676
3521.34	0.673
3531.18	0.671
3541.03	0.668
3550.88	0.661
3560.72	0.653
3570.57	0.651
3580.42	0.655
3590.26	0.6525
3600.11	0.647
3609.96	0.6545
3619.81	0.6635
3629.65	0.666
3639.5	0.666
3649.35	0.665
3659.19	0.6645
3669.04	0.663
3678.89	0.6635
3688.73	0.661
3698.58	0.6635
3708.43	0.661
3718.27	0.6605
3728.12	0.657
3737.97	0.657
3747.81	0.655
3757.66	0.653
3767.51	0.652
3777.35	0.652
3787.2	0.649
