Infrared Spectrum: Phthalic acid, benzyl butyl ester
Formula: C19 H20 O4
CAS: 85-68-7
State: SOLUTION (10% CCl4 FOR 2.7-7.5, 10% CS2 FOR 7.5-26 MICRON) VS SOLVENT
Class: COBLENTZ III
Instrument: DOW KBr FOREPRISM-GRATING
Instrument parameters: BLAZED AT 3.5, 12.0, 20.0 MICRON AND CHANGED AT 5.0, 7.5, 14.9 MICRON
Sampling: TRANSMISSION
Path length: 0.011 CM, 0.011 CM
Resolution: 2
Origin: DOW CHEMICAL COMPANY
1/CM	TRANSMITTANCE
3792	0.8514
3783	0.8543
3774	0.8563
3765	0.8562
3756	0.853
3747	0.8517
3738	0.8507
3729	0.852
3720	0.8533
3711	0.8544
3702	0.8553
3693	0.8546
3684	0.8534
3675	0.853
3666	0.853
3657	0.8537
3648	0.8544
3639	0.8551
3630	0.8557
3621	0.8563
3612	0.8571
3603	0.8586
3594	0.8602
3585	0.8621
3576	0.8643
3567	0.8687
3558	0.8691
3549	0.8691
3540	0.8696
3531	0.8707
3522	0.873
3513	0.8754
3504	0.8778
3495	0.8795
3486	0.8806
3477	0.8809
3468	0.8793
3459	0.875
3450	0.8652
3441	0.8566
3432	0.8534
3423	0.8555
3414	0.8604
3405	0.8664
3396	0.875
3387	0.8821
3378	0.8853
3369	0.8863
3360	0.8873
3351	0.8875
3342	0.8878
3333	0.8881
3324	0.8884
3315	0.8886
3306	0.8885
3297	0.8883
3288	0.8882
3279	0.888
3270	0.8878
3261	0.8875
3252	0.8875
3243	0.8878
3234	0.8881
3225	0.8883
3216	0.8885
3207	0.8878
3198	0.8875
3189	0.8852
3180	0.8807
3171	0.8803
3162	0.8807
3153	0.881
3144	0.881
3135	0.8808
3126	0.878
3117	0.8578
3108	0.8459
3099	0.8438
3090	0.7845
3081	0.7647
3072	0.7169
3063	0.6451
3054	0.7258
3045	0.7419
3036	0.6222
3027	0.6489
3018	0.7667
3009	0.7699
3000	0.7537
2991	0.7095
2982	0.5406
2973	0.3464
2964	0.1769
2955	0.2755
2946	0.4046
2937	0.3682
2928	0.4162
2919	0.5395
2910	0.5642
2901	0.5769
2892	0.5915
2883	0.6096
2874	0.4226
2865	0.5595
2856	0.6974
2847	0.7394
2838	0.7651
2829	0.7986
2820	0.8201
2811	0.8354
2802	0.8446
2793	0.8509
2784	0.8545
2775	0.8566
2766	0.8575
2757	0.8578
2748	0.8577
2739	0.8561
2730	0.8531
2721	0.8556
2712	0.8584
2703	0.8608
2694	0.8634
2685	0.8634
2676	0.8618
2667	0.8607
2658	0.8624
2649	0.8617
2640	0.8611
2631	0.8603
2622	0.8596
2613	0.859
2604	0.8594
2595	0.8597
2586	0.86
2577	0.8601
2568	0.8602
2559	0.8603
2550	0.8602
2541	0.86
2532	0.8602
2523	0.8611
2514	0.8633
2505	0.866
2496	0.8686
2487	0.8713
2478	0.8728
2469	0.873
2460	0.8724
2451	0.8712
2442	0.8689
2433	0.8664
2424	0.8641
2415	0.8624
2406	0.8609
2397	0.86
2388	0.8597
2379	0.8621
2370	0.864
2361	0.8651
2352	0.8656
2343	0.8657
2334	0.8657
2325	0.8651
2316	0.8644
2307	0.8636
2298	0.8627
2289	0.862
2280	0.8615
2271	0.8611
2262	0.861
2253	0.8621
2244	0.8651
2235	0.8667
2226	0.8678
2217	0.8689
2208	0.8694
2199	0.8695
2190	0.8697
2181	0.878
2172	0.872
2163	0.8688
2154	0.8687
2145	0.8692
2136	0.869
2127	0.8686
2118	0.8674
2109	0.8647
2100	0.8621
2091	0.862
2082	0.863
2073	0.8639
2064	0.8647
2055	0.8652
2046	0.8651
2037	0.865
2028	0.8655
2019	0.8659
2010	0.8667
2001	0.8682
1992	0.8694
1983	0.8688
1974	0.8564
1965	0.8434
1956	0.8459
1947	0.8259
1938	0.8234
1929	0.8458
1920	0.8532
1911	0.8554
1902	0.8562
1893	0.8551
1884	0.8502
1875	0.8355
1866	0.8297
1857	0.8333
1848	0.839
1839	0.8271
1830	0.8246
1821	0.8265
1812	0.8203
1803	0.7965
1794	0.7919
1785	0.7812
1776	0.7425
1767	0.6568
1758	0.484
1749	0.2263
1740	0.026
1731	0.0068
1722	0.0052
1713	0.1136
1704	0.4073
1695	0.5681
1686	0.6367
1677	0.7036
1668	0.7574
1659	0.7826
1650	0.7989
1641	0.8092
1632	0.8125
1623	0.8115
1614	0.8026
1605	0.6115
1596	0.7231
1587	0.6501
1578	0.7153
1569	0.7854
1560	0.8198
1551	0.8323
1542	0.8293
1533	0.8213
1524	0.8178
1515	0.8103
1506	0.7505
1497	0.6619
1488	0.6514
1479	0.6219
1470	0.4456
1461	0.3131
1452	0.4086
1443	0.6903
1434	0.7476
1425	0.7815
1416	0.7791
1407	0.7638
1398	0.6695
1389	0.5034
1380	0.3942
1371	0.595
1362	0.6798
1353	0.6821
1344	0.6585
1335	0.6323
1326	0.5124
1317	0.4769
1308	0.3116
1299	0.1371
1290	0.0129
1281	0.0045
1272	0.0033
1263	0.0057
1254	0.0332
1245	0.1556
1236	0.4006
1227	0.5339
1218	0.5825
1209	0.598
1200	0.6811
1191	0.7206
1182	0.723
1173	0.6976
1164	0.6052
1155	0.5404
1146	0.3855
1137	0.091
1128	0.057
1119	0.0298
1110	0.202
1101	0.5237
1092	0.6024
1083	0.4156
1074	0.0895
1065	0.1032
1056	0.4612
1047	0.6347
1038	0.4028
1029	0.4854
1020	0.7
1011	0.7084
1002	0.7187
993	0.7154
984	0.6711
975	0.6611
966	0.5387
957	0.4896
948	0.5596
939	0.5827
930	0.6825
921	0.7546
912	0.6283
903	0.7197
894	0.7508
885	0.7338
876	0.7596
867	0.7715
858	0.7818
849	0.751
840	0.7301
831	0.7538
822	0.7562
813	0.7461
804	0.7192
795	0.6314
786	0.6289
777	0.6271
768	0.611
759	0.4309
750	0.196
741	0.1253
732	0.2272
723	0.5274
714	0.6385
705	0.33
696	0.1786
687	0.633
678	0.7546
669	0.7896
660	0.834
651	0.7475
642	0.7765
633	0.8111
624	0.8268
615	0.8241
606	0.7936
597	0.7394
588	0.7542
579	0.7774
570	0.7461
561	0.7025
552	0.7696
543	0.7783
534	0.7803
525	0.7888
516	0.798
507	0.7891
498	0.7825
489	0.7596
480	0.7541
471	0.756
462	0.7619
453	0.7725
444	0.7803
435	0.7811
426	0.7815
417	0.7818
408	0.7821
399	0.7824
