Infrared Spectrum: Butylphthalyl butyl glycolate
Formula: C18 H24 O6
CAS: 85-70-1
State: SOLUTION (10% CCl4 FOR 2.7-7.5, 10% CS2 FOR 7.5-26 MICRON) VS SOLVENT
Class: COBLENTZ III
Instrument: DOW KBr FOREPRISM-GRATING
Instrument parameters: BLAZED AT 3.5, 12.0, 20.0 MICRON AND CHANGED AT 5.0, 7.5, 14.9 MICRON
Sampling: TRANSMISSION
Path length: 0.011 CM, 0.011 CM
Resolution: 2
Origin: DOW CHEMICAL COMPANY
1/CM	TRANSMITTANCE
3766	0.8707
3757	0.8708
3748	0.8711
3739	0.8712
3730	0.8715
3721	0.8716
3712	0.8718
3703	0.8716
3694	0.8715
3685	0.8714
3676	0.8715
3667	0.8715
3658	0.8714
3649	0.8713
3640	0.8714
3631	0.8724
3622	0.8745
3613	0.8764
3604	0.877
3595	0.8771
3586	0.8771
3577	0.8798
3568	0.8821
3559	0.8828
3550	0.8817
3541	0.8827
3532	0.8842
3523	0.8837
3514	0.8831
3505	0.882
3496	0.8809
3487	0.8796
3478	0.8783
3469	0.8768
3460	0.8756
3451	0.8744
3442	0.8751
3433	0.8761
3424	0.8809
3415	0.8865
3406	0.8923
3397	0.8975
3388	0.9017
3379	0.9025
3370	0.9032
3361	0.9031
3352	0.903
3343	0.9028
3334	0.903
3325	0.9031
3316	0.9032
3307	0.9028
3298	0.9025
3289	0.9021
3280	0.9023
3271	0.9025
3262	0.9028
3253	0.9033
3244	0.9038
3235	0.9042
3226	0.9036
3217	0.9027
3208	0.9016
3199	0.8998
3190	0.8974
3181	0.8946
3172	0.8933
3163	0.892
3154	0.8917
3145	0.8914
3136	0.891
3127	0.8896
3118	0.8874
3109	0.8837
3100	0.8795
3091	0.8724
3082	0.8383
3073	0.795
3064	0.7948
3055	0.8093
3046	0.8263
3037	0.8347
3028	0.824
3019	0.8135
3010	0.7987
3001	0.7625
2992	0.6825
2983	0.4585
2974	0.247
2965	0.0816
2956	0.1341
2947	0.26
2938	0.2456
2929	0.2297
2920	0.3764
2911	0.4375
2902	0.4646
2893	0.5155
2884	0.5538
2875	0.2945
2866	0.4437
2857	0.5477
2848	0.6645
2839	0.714
2830	0.7704
2821	0.8099
2812	0.832
2803	0.8411
2794	0.8484
2785	0.8535
2776	0.8577
2767	0.8601
2758	0.8608
2749	0.86
2740	0.8541
2731	0.8494
2722	0.8506
2713	0.8562
2704	0.8596
2695	0.8625
2686	0.8653
2677	0.8671
2668	0.8667
2659	0.8642
2650	0.8656
2641	0.8678
2632	0.8702
2623	0.8702
2614	0.8695
2605	0.8671
2596	0.865
2587	0.8628
2578	0.8627
2569	0.8628
2560	0.8633
2551	0.8645
2542	0.8657
2533	0.8671
2524	0.8686
2515	0.8702
2506	0.8721
2497	0.8741
2488	0.8762
2479	0.8783
2470	0.8794
2461	0.8789
2452	0.8771
2443	0.8745
2434	0.8717
2425	0.869
2416	0.8664
2407	0.8657
2398	0.8661
2389	0.867
2380	0.8682
2371	0.8693
2362	0.87
2353	0.8703
2344	0.8708
2335	0.8714
2326	0.8714
2317	0.8703
2308	0.8665
2299	0.863
2290	0.8621
2281	0.8625
2272	0.8641
2263	0.8656
2254	0.8678
2245	0.8699
2236	0.8718
2227	0.8734
2218	0.8752
2209	0.8785
2200	0.8806
2191	0.8797
2182	0.8808
2173	0.8801
2164	0.8712
2155	0.8693
2146	0.8683
2137	0.8678
2128	0.8668
2119	0.8656
2110	0.8649
2101	0.8649
2092	0.8649
2083	0.8658
2074	0.8668
2065	0.8678
2056	0.869
2047	0.8696
2038	0.8702
2029	0.8706
2020	0.8706
2011	0.8706
2002	0.8708
1993	0.8711
1984	0.8711
1975	0.8692
1966	0.8583
1957	0.8607
1948	0.8577
1939	0.84
1930	0.8454
1921	0.8545
1912	0.8561
1903	0.8558
1894	0.8556
1885	0.8554
1876	0.8548
1867	0.8468
1858	0.8396
1849	0.8394
1840	0.8259
1831	0.8121
1822	0.8103
1813	0.8025
1804	0.7841
1795	0.7511
1786	0.6984
1777	0.5715
1768	0.2122
1759	0.0609
1750	0.0416
1741	0.0128
1732	0.0096
1723	0.0092
1714	0.0296
1705	0.4216
1696	0.5608
1687	0.6451
1678	0.6943
1669	0.7406
1660	0.7731
1651	0.7968
1642	0.8058
1633	0.811
1624	0.8134
1615	0.8128
1606	0.7928
1597	0.616
1588	0.7561
1579	0.5719
1570	0.7472
1561	0.8036
1552	0.8213
1543	0.8328
1534	0.8325
1525	0.8204
1516	0.8121
1507	0.8025
1498	0.7722
1489	0.6187
1480	0.679
1471	0.4615
1462	0.4124
1453	0.4745
1444	0.5495
1435	0.575
1426	0.4571
1417	0.5569
1408	0.6511
1399	0.3956
1390	0.4387
1381	0.4146
1372	0.3172
1363	0.4408
1354	0.5497
1345	0.6469
1336	0.6199
1327	0.6077
1318	0.476
1309	0.2531
1300	0.1059
1291	0.0247
1282	0.0071
1273	0.0065
1264	0.0152
1255	0.0412
1246	0.0917
1237	0.2209
1228	0.3284
1219	0.3582
1210	0.1631
1201	0.0356
1192	0.0828
1183	0.3984
1174	0.5229
1165	0.5647
1156	0.5183
1147	0.3797
1138	0.1021
1129	0.0231
1120	0.013
1111	0.1039
1102	0.4504
1093	0.5042
1084	0.1396
1075	0.0523
1066	0.3072
1057	0.417
1048	0.5857
1039	0.426
1030	0.5588
1021	0.571
1012	0.5791
1003	0.5938
994	0.6838
985	0.7007
976	0.7375
967	0.6711
958	0.5243
949	0.5841
940	0.5682
931	0.6098
922	0.7722
913	0.8218
904	0.8325
895	0.8331
886	0.8375
877	0.8287
868	0.8199
859	0.8206
850	0.8036
841	0.7275
832	0.756
823	0.7511
814	0.7385
805	0.7765
796	0.7175
787	0.6597
778	0.6316
769	0.626
760	0.5192
751	0.3723
742	0.2353
733	0.3512
724	0.6221
715	0.6598
706	0.6195
697	0.589
688	0.724
679	0.7894
670	0.8393
661	0.8696
652	0.7803
643	0.7818
634	0.8463
625	0.8612
616	0.86
607	0.8564
598	0.8487
589	0.837
580	0.8082
571	0.7528
562	0.7444
553	0.8011
544	0.824
535	0.8318
526	0.8364
517	0.838
508	0.8181
499	0.8088
490	0.8205
481	0.8284
472	0.8324
463	0.8343
454	0.834
445	0.8316
436	0.8245
427	0.8211
418	0.8214
409	0.8231
400	0.825
