Infrared Spectrum: BENZOIC ACID,o-(METHYLAMINO)-, METHYL ESTER
Formula: C9 H11 N O2
CAS: 85-91-6
State: SOLUTION 7% (CCl4 FOR 2.5-15 microns)
Class: COBLENTZ III
Instrument: PERKIN-ELMER 21 (GRATING)
Instrument parameters: FILTER AT ABOUT 10 MICRONS
Path length: 0.01 CM
Resolution: 2
Origin: ABBOTT LABORATORIES
1/CM	TRANSMITTANCE
666	0.7718
675	0.8009
684	0.7783
693	0.634
702	0.3173
711	0.7431
720	0.7351
729	0.7118
738	0.5258
747	0.0162
756	0.5722
765	0.7543
774	0.7804
783	0.7484
792	0.5885
801	0.7889
810	0.7892
819	0.7438
828	0.5417
837	0.6396
846	0.8018
855	0.842
864	0.8427
873	0.8431
882	0.8344
891	0.8317
900	0.8332
909	0.8364
918	0.8333
927	0.8282
936	0.8015
945	0.7469
954	0.777
963	0.7415
972	0.7691
981	0.7964
990	0.799
999	0.7911
1008	0.7868
1017	0.77
1026	0.7236
1035	0.5404
1044	0.6501
1053	0.6208
1062	0.336
1071	0.5899
1080	0.385
1089	0.1299
1098	0.5834
1107	0.5424
1116	0.2879
1125	0.0315
1134	0.3689
1143	0.5014
1152	0.2998
1161	0.1729
1170	0.0292
1179	0.3493
1188	0.2191
1197	0.4981
1206	0.516
1215	0.4019
1224	0.0977
1233	0.0164
1242	0.0167
1251	0.0175
1260	0.0467
1269	0.2642
1278	0.4792
1287	0.5926
1296	0.6112
1305	0.509
1314	0.3457
1323	0.244
1332	0.3944
1341	0.6392
1350	0.7635
1359	0.7699
1368	0.7681
1377	0.7824
1386	0.7767
1395	0.7532
1404	0.7198
1413	0.6764
1422	0.3846
1431	0.1649
1440	0.2167
1449	0.4419
1458	0.4479
1467	0.5251
1476	0.418
1485	0.5941
1494	0.5009
1503	0.3714
1512	0.2283
1521	0.1715
1530	0.4941
1539	0.7346
1548	0.7267
1557	0.6491
1566	0.6075
1575	0.2602
1584	0.0493
1593	0.3117
1602	0.3042
1611	0.151
1620	0.5186
1629	0.5969
1638	0.5991
1647	0.5911
1656	0.5569
1665	0.4927
1674	0.2063
1683	0.0175
1692	0.0187
1701	0.1922
1710	0.4017
1719	0.6312
1728	0.7066
1737	0.758
1746	0.7808
1755	0.793
1764	0.803
1773	0.8197
1782	0.8257
1791	0.8286
1800	0.8408
1809	0.8456
1818	0.8513
1827	0.8605
1836	0.8635
1845	0.8612
1854	0.8579
1863	0.8532
1872	0.8485
1881	0.8438
1890	0.8392
1899	0.835
1908	0.8318
1917	0.8321
1926	0.8339
1935	0.8395
1944	0.8552
1953	0.8723
1962	0.8744
1971	0.8756
1980	0.8765
1989	0.8765
1998	0.8761
2007	0.8705
2016	0.864
2025	0.861
2034	0.8615
2043	0.8624
2052	0.8638
2061	0.8668
2070	0.8714
2079	0.8752
2088	0.8771
2097	0.8766
2106	0.8761
2115	0.8752
2124	0.8742
2133	0.8733
2142	0.8726
2151	0.873
2160	0.8785
2169	0.8826
2178	0.8833
2187	0.8834
2196	0.883
2205	0.8825
2214	0.8818
2223	0.8808
2232	0.8799
2241	0.8793
2250	0.8787
2259	0.8781
2268	0.877
2277	0.8757
2286	0.8736
2295	0.8677
2304	0.8667
2313	0.8666
2322	0.8666
2331	0.8667
2340	0.8671
2349	0.8675
2358	0.8688
2367	0.8717
2376	0.8795
2385	0.8826
2394	0.8834
2403	0.8838
2412	0.8842
2421	0.8847
2430	0.8855
2439	0.8863
2448	0.8876
2457	0.8857
2466	0.883
2475	0.8812
2484	0.8795
2493	0.8794
2502	0.8797
2511	0.8813
2520	0.8834
2529	0.8847
2538	0.8832
2547	0.8798
2556	0.8762
2565	0.8722
2574	0.8681
2583	0.8641
2592	0.8612
2601	0.8587
2610	0.8573
2619	0.8562
2628	0.8552
2637	0.8554
2646	0.8558
2655	0.8564
2664	0.8578
2673	0.8572
2682	0.8558
2691	0.8538
2700	0.85
2709	0.8464
2718	0.8428
2727	0.839
2736	0.834
2745	0.829
2754	0.824
2763	0.8184
2772	0.8128
2781	0.8073
2790	0.7989
2799	0.7887
2808	0.7239
2817	0.6598
2826	0.656
2835	0.6731
2844	0.6709
2853	0.6471
2862	0.6142
2871	0.5882
2880	0.5733
2889	0.5629
2898	0.5553
2907	0.5525
2916	0.5519
2925	0.5521
2934	0.5529
2943	0.5551
2952	0.559
2961	0.5667
2970	0.5946
2979	0.6517
2988	0.6524
2997	0.6494
3006	0.6486
3015	0.6819
3024	0.7106
3033	0.7284
3042	0.7437
3051	0.7583
3060	0.772
3069	0.7803
3078	0.7835
3087	0.7857
3096	0.7881
3105	0.7964
3114	0.8169
3123	0.8407
3132	0.8567
3141	0.8588
3150	0.8589
3159	0.8588
3168	0.8587
3177	0.8584
3186	0.8582
3195	0.858
3204	0.8576
3213	0.8565
3222	0.8554
3231	0.8542
3240	0.8516
3249	0.8463
3258	0.84
3267	0.8352
3276	0.8323
3285	0.831
3294	0.8296
3303	0.8282
3312	0.8235
3321	0.7658
3330	0.689
3339	0.6127
3348	0.5368
3357	0.4612
3366	0.3862
3375	0.3303
3384	0.3366
3393	0.4133
3402	0.4991
3411	0.5844
3420	0.6694
3429	0.7539
3438	0.8303
3447	0.8512
3456	0.859
3465	0.8649
3474	0.8698
3483	0.874
3492	0.8781
3501	0.8813
3510	0.8831
3519	0.8849
3528	0.8867
3537	0.8885
3546	0.8894
3555	0.8901
3564	0.8906
3573	0.8912
3582	0.8919
3591	0.8923
3600	0.8921
3609	0.8918
3618	0.8915
3627	0.8913
3636	0.891
3645	0.8907
3654	0.8905
3663	0.8901
3672	0.8896
3681	0.8892
3690	0.8887
3699	0.8883
3708	0.8878
3717	0.8874
3726	0.8869
3735	0.8865
3744	0.8861
3753	0.8857
3762	0.8852
3771	0.8848
3780	0.8844
3789	0.884
3798	0.8836
3807	0.8832
3816	0.8829
3825	0.8826
3834	0.8822
3843	0.8821
3852	0.8826
3861	0.8832
3870	0.8842
3879	0.8858
3888	0.8866
3897	0.8863
3906	0.8859
3915	0.8855
3924	0.8853
3933	0.885
3942	0.8847
3951	0.8844
3960	0.8841
3969	0.8838
3978	0.8835
3987	0.8834
3996	0.8831
