Infrared Spectrum: 2-NITROBIPHENYL
Formula: C12 H9 N O2
CAS: 86-00-0
State: SOLUTION (10% IN CCl4 FOR 3800-1330, 10% IN CS2 FOR 1330-440 CM^-^1)
Class: COBLENTZ III
Instrument: DOW KBr FOREPRISM-GRATING
Instrument parameters: BLAZED AT 3.5, 12.0, 20.0 MICRONS AND CHANGED AT 5.0, 7.5, 14.9 MICRONS
Sampling: TRANSMISSION
Path length: 0.011 CM, 0.011 CM
Resolution: 2
Origin: DOW CHEMICAL COMPANY
1/CM	TRANSMITTANCE
438.863	1.045
447.474	1.038
456.085	1.029
464.695	1.025
473.306	1.024
481.917	1.02
490.528	1.013
499.139	0.985
507.75	0.86
516.36	0.832
524.971	0.947
533.582	0.9
542.193	0.943
550.804	1.012
559.414	1.017
568.025	0.971
576.636	0.864
585.247	1.009
593.858	1.022
602.468	1.013
611.079	0.707
619.69	1.006
628.301	0.998
636.912	0.977
645.523	0.93
654.133	0.891
662.744	0.245
671.355	0.844
679.966	0.864
688.577	0.661
697.187	0.02
705.798	0.575
714.409	0.825
723.02	0.82
731.631	0.526
740.241	0.02
748.852	0.459
757.463	0.634
766.074	0.198
774.685	0.528
783.296	0.354
791.906	0.904
800.517	0.944
809.128	0.955
817.739	0.961
826.35	0.951
834.96	0.899
843.571	0.795
852.182	0.034
860.793	0.774
869.404	0.818
878.014	0.873
886.625	0.938
895.236	0.969
903.847	0.953
912.458	0.805
921.069	0.971
929.679	0.979
938.29	0.97
946.901	0.856
955.512	0.951
964.123	0.963
972.733	0.965
981.344	0.951
989.955	0.965
998.566	0.957
1007.18	0.357
1015.79	0.981
1024.4	0.978
1033.01	0.958
1041.62	0.837
1050.23	0.975
1058.84	0.971
1067.45	0.885
1076.06	0.86
1084.67	0.944
1093.28	0.871
1101.9	0.97
1110.51	0.995
1119.12	1.006
1127.73	0.997
1136.34	0.954
1144.95	0.938
1153.56	0.907
1162.17	0.891
1170.78	0.938
1179.39	0.915
1188	0.975
1196.61	0.995
1205.23	1.001
1213.84	1.005
1222.45	1.009
1231.06	1.002
1239.67	0.969
1248.28	0.916
1256.89	0.919
1265.5	0.888
1274.11	0.706
1282.72	0.813
1291.33	0.865
1299.94	0.791
1308.56	0.812
1317.17	0.822
1325.78	0.763
1334.39	0.656
1343	0.395
1351.61	0.037
1360.22	0.099
1368.83	0.343
1377.44	0.625
1386.05	0.822
1394.66	0.887
1403.27	0.897
1411.88	0.892
1420.5	0.889
1429.11	0.7949
1437.72	0.844
1446.33	0.7849
1454.94	0.79
1463.55	0.754
1472.16	0.328
1480.77	0.683
1489.38	0.677
1497.99	0.558
1506.6	0.426
1515.21	0.3019
1523.83	0.036
1532.44	0.03
1541.05	0.228
1549.66	0.289
1558.27	0.39
1566.88	0.358
1575.49	0.476
1584.1	0.57
1592.71	0.61
1601.32	0.506
1609.93	0.5002
1618.54	0.814
1627.16	0.872
1635.77	0.936
1644.38	0.946
1652.99	0.936
1661.6	0.943
1670.21	0.955
1678.82	0.947
1687.43	0.942
1696.04	0.97
1704.65	0.971
1713.26	0.97
1721.87	0.962
1730.48	0.957
1739.1	0.954
1747.71	0.939
1756.32	0.926
1764.93	0.954
1773.54	0.967
1782.15	0.966
1790.76	0.966
1799.37	0.95
1807.98	0.912
1816.59	0.931
1825.2	0.902
1833.81	0.935
1842.43	0.957
1851.04	0.955
1859.65	0.938
1868.26	0.954
1876.87	0.935
1885.48	0.924
1894.09	0.935
1902.7	0.931
1911.31	0.951
1919.92	0.958
1928.53	0.946
1937.14	0.911
1945.76	0.911
1954.37	0.915
1962.98	0.931
1971.59	0.908
1980.2	0.953
1988.81	0.986
1997.42	1.014
2006.03	1.016
2014.64	1.0124
2023.25	1.006
2031.86	1.0028
2040.47	1.0168
2049.08	1.017
2057.7	1.012
2066.31	1.009
2074.92	1.006
2083.53	1.0053
2092.14	1.01
2100.75	1.001
2109.36	1.0065
2117.97	1.0133
2126.58	1.012
2135.19	1.008
2143.8	1.006
2152.41	1.0055
2161.03	1.005
2169.64	1.005
2178.25	1.0013
2186.86	1.001
2195.47	0.9997
2204.08	1.001
2212.69	1
2221.3	0.997
2229.91	0.9939
2238.52	0.99
2247.13	0.9886
2255.74	0.985
2264.36	0.9827
2272.97	0.979
2281.58	0.9746
2290.19	0.9735
2298.8	0.9745
2307.41	0.979
2316.02	0.9857
2324.63	0.9964
2333.24	0.998
2341.85	0.9953
2350.46	0.9891
2359.07	0.982
2367.69	0.97
2376.3	0.9661
2384.91	0.983
2393.52	0.9818
2402.13	0.986
2410.74	0.989
2419.35	0.99
2427.96	0.9896
2436.57	0.986
2445.18	0.986
2453.79	0.987
2462.4	0.9883
2471.01	0.9879
2479.63	0.9874
2488.24	0.9833
2496.85	0.9829
2505.46	0.9889
2514.07	0.99
2522.68	0.99
2531.29	0.991
2539.9	0.99
2548.51	0.989
2557.12	0.987
2565.73	0.982
2574.34	0.981
2582.96	0.979
2591.57	0.979
2600.18	0.979
2608.79	0.977
2617.4	0.977
2626.01	0.983
2634.62	0.989
2643.23	0.989
2651.84	0.989
2660.45	0.985
2669.06	0.982
2677.67	0.981
2686.29	0.982
2694.9	0.983
2703.51	0.986
2712.12	0.986
2720.73	0.987
2729.34	0.9865
2737.95	0.9879
2746.56	0.987
2755.17	0.987
2763.78	0.987
2772.39	0.987
2781	0.986
2789.61	0.9832
2798.23	0.983
2806.84	0.981
2815.45	0.979
2824.06	0.977
2832.67	0.9748
2841.28	0.95
2849.89	0.9305
2858.5	0.9085
2867.11	0.8794
2875.72	0.8943
2884.33	0.9362
2892.94	0.9488
2901.56	0.951
2910.17	0.9397
2918.78	0.9563
2927.39	0.9663
2936	0.973
2944.61	0.978
2953.22	0.978
2961.83	0.978
2970.44	0.9767
2979.05	0.9708
2987.66	0.9585
2996.27	0.9501
3004.89	0.9204
3013.5	0.8835
3022.11	0.7722
3030.72	0.7356
3039.33	0.8248
3047.94	0.7875
3056.55	0.6882
3065.16	0.6373
3073.77	0.7761
3082.38	0.8154
3090.99	0.873
3099.6	0.927
3108.21	0.9363
3116.83	0.9576
3125.44	0.9754
3134.05	0.9795
3142.66	0.982
3151.27	0.983
3159.88	0.9864
3168.49	0.989
3177.1	0.99
3185.71	0.99
3194.32	0.993
3202.93	0.994
3211.54	0.994
3220.16	0.995
3228.77	0.997
3237.38	0.998
3245.99	0.998
3254.6	1
3263.21	1
3271.82	1
3280.43	1
3289.04	1
3297.65	1
3306.26	1
3314.87	1
3323.49	1
3332.1	0.998
3340.71	0.995
3349.32	0.995
3357.93	0.995
3366.54	0.995
3375.15	0.995
3383.76	0.995
3392.37	0.994
3400.98	0.994
3409.59	0.994
3418.2	0.993
3426.82	0.993
3435.43	0.993
3444.04	0.993
3452.65	0.991
3461.26	0.991
3469.87	0.991
3478.48	0.991
3487.09	0.991
3495.7	0.991
3504.31	0.991
3512.92	0.991
3521.53	0.991
3530.14	0.991
3538.76	0.991
3547.37	0.991
3555.98	0.991
3564.59	0.991
3573.2	0.99
3581.81	0.9783
3590.42	0.99
3599.03	0.989
3607.64	0.99
3616.25	0.993
3624.86	0.994
3633.47	0.99
3642.09	0.987
3650.7	0.9886
3659.31	0.9908
3667.92	0.993
3676.53	0.993
3685.14	0.993
3693.75	0.991
3702.36	0.99
3710.97	0.9902
3719.58	0.994
3728.19	0.9986
3736.8	1
3745.42	0.998
3754.03	0.998
3762.64	0.998
3771.25	0.998
3779.86	0.998
3788.47	0.998
3797.08	0.998
