Infrared Spectrum: 1-NAPHTHOIC ACID
Formula: C11 H8 O2
CAS: 86-55-5
State: SOLID (MINERAL OIL MULL)
Melting point: 161-163 C
Class: COBLENTZ
Instrument: Not specified, most likely a prism, grating, or hybrid spectrometer.
Sampling: TRANSMISSION
Resolution: 4
Origin: WYANDOTTE CHEMICALS CORP., WYANDOTTE, MICHIGAN, USA
MICROMETERS	TRANSMITTANCE
2.027	0.494
2.06683	0.502
2.10666	0.507
2.14649	0.51
2.18631	0.514
2.22614	0.517
2.26597	0.522
2.3058	0.53
2.34563	0.547
2.38546	0.557
2.42528	0.572
2.46511	0.582
2.50494	0.585
2.54477	0.601
2.5846	0.611
2.62443	0.626
2.66426	0.636
2.70408	0.64
2.74391	0.656
2.78374	0.661
2.82357	0.66
2.8634	0.66
2.90323	0.658
2.94306	0.656
2.98288	0.658
3.02271	0.646
3.06254	0.603
3.10237	0.533
3.1422	0.461
3.18203	0.409
3.22185	0.334
3.26168	0.258
3.30151	0.24
3.34134	0.034
3.38117	0.034
3.421	0.041
3.46083	0.041
3.50065	0.079
3.54048	0.291
3.58031	0.376
3.62014	0.444
3.65997	0.462
3.6998	0.462
3.73963	0.454
3.77945	0.434
3.81928	0.446
3.85911	0.5
3.89894	0.532
3.93877	0.542
3.9786	0.552
4.01842	0.575
4.05825	0.605
4.09808	0.641
4.13791	0.658
4.17774	0.676
4.21757	0.693
4.2574	0.684
4.29722	0.698
4.33705	0.726
4.37688	0.772
4.41671	0.772
4.45654	0.771
4.49637	0.789
4.53619	0.797
4.57602	0.805
4.61585	0.81
4.65568	0.814
4.69551	0.822
4.73534	0.834
4.77517	0.845
4.81499	0.859
4.85482	0.868
4.89465	0.87
4.93448	0.877
4.97431	0.875
5.01414	0.878
5.05397	0.87
5.09379	0.872
5.13362	0.882
5.17345	0.842
5.21328	0.875
5.25311	0.87
5.29294	0.883
5.33276	0.888
5.37259	0.88
5.41242	0.875
5.45225	0.88
5.49208	0.883
5.53191	0.892
5.57174	0.892
5.61156	0.898
5.65139	0.895
5.69122	0.882
5.73105	0.868
5.77088	0.81
5.81071	0.691
5.85054	0.538
5.89036	0.26
5.93019	0.111
5.97002	0.061
6.00985	0.144
6.04968	0.286
6.08951	0.429
6.12933	0.394
6.16916	0.529
6.20899	0.603
6.24882	0.301
6.28865	0.592
6.32848	0.623
6.36831	0.674
6.40813	0.751
6.44796	0.742
6.48779	0.762
6.52762	0.761
6.56745	0.5
6.60728	0.517
6.6471	0.696
6.68693	0.703
6.72676	0.61
6.76659	0.386
6.80642	0.142
6.84625	0.18
6.88608	0.195
6.9259	0.336
6.96573	0.527
7.00556	0.628
7.04539	0.436
7.08522	0.59
7.12505	0.699
7.16488	0.676
7.2047	0.469
7.24453	0.301
7.28436	0.388
7.32419	0.484
7.36402	0.572
7.40385	0.547
7.44367	0.621
7.4835	0.683
7.52333	0.663
7.56316	0.565
7.60299	0.328
7.64282	0.185
7.68265	0.232
7.72247	0.399
7.7623	0.543
7.80213	0.621
7.84196	0.658
7.88179	0.625
7.92162	0.462
7.96145	0.411
8.00127	0.429
8.0411	0.585
8.08093	0.671
8.12076	0.711
8.16059	0.723
8.20042	0.646
8.24024	0.65
8.28007	0.451
8.3199	0.524
8.35973	0.679
8.39956	0.736
8.43939	0.766
8.47922	0.779
8.51904	0.779
8.55887	0.747
8.5987	0.777
8.63853	0.772
8.67836	0.598
8.71819	0.517
8.75801	0.674
8.79784	0.786
8.83767	0.83
8.8775	0.84
8.91733	0.847
8.95716	0.85
8.99699	0.855
9.03681	0.862
9.07664	0.87
9.11647	0.864
9.1563	0.87
9.19613	0.842
9.23596	0.829
9.27579	0.837
9.31561	0.844
9.35544	0.859
9.39527	0.862
9.4351	0.862
9.47493	0.862
9.51476	0.862
9.55458	0.86
9.59441	0.86
9.63424	0.86
9.67407	0.849
9.7139	0.762
9.75373	0.832
9.79356	0.84
9.83338	0.84
9.87321	0.835
9.91304	0.83
9.95287	0.822
9.9927	0.729
10.0325	0.742
10.0724	0.815
10.1122	0.837
10.152	0.839
10.1918	0.832
10.2317	0.81
10.2715	0.8
10.3113	0.794
10.3512	0.802
10.391	0.817
10.4308	0.814
10.4706	0.799
10.5105	0.794
10.5503	0.807
10.5901	0.781
10.63	0.762
10.6698	0.812
10.7096	0.81
10.7494	0.791
10.7893	0.741
10.8291	0.791
10.8689	0.799
10.9088	0.771
10.9486	0.754
10.9884	0.739
11.0282	0.714
11.0681	0.673
11.1079	0.628
11.1477	0.57
11.1876	0.51
11.2274	0.485
11.2672	0.482
11.307	0.505
11.3469	0.542
11.3867	0.582
11.4265	0.628
11.4664	0.674
11.5062	0.719
11.546	0.751
11.5858	0.737
11.6257	0.648
11.6655	0.66
11.7053	0.638
11.7452	0.713
11.785	0.764
11.8248	0.789
11.8646	0.804
11.9045	0.819
11.9443	0.829
11.9841	0.839
12.024	0.845
12.0638	0.85
12.1036	0.854
12.1434	0.859
12.1833	0.864
12.2231	0.868
12.2629	0.87
12.3028	0.865
12.3426	0.815
12.3824	0.631
12.4222	0.548
12.4621	0.653
12.5019	0.737
12.5417	0.771
12.5815	0.789
12.6214	0.723
12.6612	0.752
12.701	0.782
12.7409	0.757
12.7807	0.686
12.8205	0.542
12.8603	0.306
12.9002	0.162
12.94	0.111
12.9798	0.082
13.0197	0.22
13.0595	0.412
13.0993	0.563
13.1391	0.645
13.179	0.679
13.2188	0.689
13.2586	0.669
13.2985	0.668
13.3383	0.658
13.3781	0.668
13.4179	0.726
13.4578	0.772
13.4976	0.81
13.5374	0.827
13.5773	0.835
13.6171	0.849
13.6569	0.85
13.6967	0.86
13.7366	0.857
13.7764	0.854
13.8162	0.852
13.8561	0.832
13.8959	0.771
13.9357	0.719
13.9755	0.796
14.0154	0.865
14.0552	0.897
14.095	0.922
14.1349	0.927
14.1747	0.938
14.2145	0.943
14.2543	0.946
14.2942	0.95
14.334	0.951
14.3738	0.953
14.4137	0.948
14.4535	0.948
14.4933	0.945
14.5331	0.943
14.573	0.938
14.6128	0.93
14.6526	0.928
14.6925	0.927
14.7323	0.922
14.7721	0.912
14.8119	0.908
14.8518	0.905
14.8916	0.898
14.9314	0.895
14.9713	0.885
15.0111	0.865
15.0509	0.812
15.0907	0.781
15.1306	0.812
15.1704	0.85
15.2102	0.855
15.2501	0.84
15.2899	0.815
15.3297	0.771
15.3695	0.699
15.4094	0.631
15.4492	0.621
15.489	0.655
15.5289	0.696
15.5687	0.709
15.6085	0.714
15.6483	0.706
15.6882	0.698
15.728	0.689
15.7678	0.676
15.8077	0.668
15.8475	0.656
15.8873	0.643
15.9271	0.631
15.967	0.623
16.0068	0.616
