Infrared Spectrum: 1-Nitronaphthalene
Formula: C10 H7 N O2
CAS: 86-57-7
State: SOLUTION (10% CCl4 FOR 3800-1330, 10% CS2 FOR 1330-450 CM^-^1)
Class: COBLENTZ III
Instrument: DOW KBr FOREPRISM-GRATING
Instrument parameters: BLAZED AT 3.5, 12.0, 20.0 MICRON AND CHANGED AT 5.0, 7.5, 14.9 MICRON
Sampling: TRANSMISSION
Path length: 0.011 CM, 0.011 CM
Resolution: 2
Origin: DOW CHEMICAL COMPANY
1/CM	TRANSMITTANCE
3782	0.9219
3773	0.9217
3764	0.9222
3755	0.9251
3746	0.9271
3737	0.9299
3728	0.9302
3719	0.9287
3710	0.9301
3701	0.9298
3692	0.9267
3683	0.9232
3674	0.9256
3665	0.9274
3656	0.9257
3647	0.9241
3638	0.9256
3629	0.9281
3620	0.9279
3611	0.9214
3602	0.9212
3593	0.9212
3584	0.9023
3575	0.9162
3566	0.9217
3557	0.9234
3548	0.9258
3539	0.9263
3530	0.9272
3521	0.9262
3512	0.9266
3503	0.927
3494	0.9273
3485	0.9275
3476	0.9278
3467	0.9281
3458	0.9286
3449	0.9293
3440	0.9299
3431	0.9306
3422	0.931
3413	0.9312
3404	0.9314
3395	0.9315
3386	0.9317
3377	0.9316
3368	0.9312
3359	0.9309
3350	0.9305
3341	0.9301
3332	0.9296
3323	0.929
3314	0.9286
3305	0.9297
3296	0.9282
3287	0.9277
3278	0.9279
3269	0.9277
3260	0.9271
3251	0.9269
3242	0.9271
3233	0.9274
3224	0.9277
3215	0.9251
3206	0.9122
3197	0.9159
3188	0.9169
3179	0.9136
3170	0.912
3161	0.9104
3152	0.9079
3143	0.9009
3134	0.8947
3125	0.8881
3116	0.8865
3107	0.8781
3098	0.7894
3089	0.7771
3080	0.7512
3071	0.668
3062	0.6289
3053	0.7744
3044	0.8146
3035	0.8422
3026	0.8483
3017	0.8507
3008	0.8769
2999	0.894
2990	0.9034
2981	0.9013
2972	0.9033
2963	0.903
2954	0.9054
2945	0.909
2936	0.9063
2927	0.8953
2918	0.8789
2909	0.8816
2900	0.8839
2891	0.8832
2882	0.8833
2873	0.8814
2864	0.8589
2855	0.8229
2846	0.8281
2837	0.8618
2828	0.8888
2819	0.9013
2810	0.9087
2801	0.9128
2792	0.9087
2783	0.9062
2774	0.9086
2765	0.9122
2756	0.915
2747	0.9153
2738	0.9153
2729	0.9137
2720	0.9102
2711	0.9117
2702	0.9159
2693	0.9193
2684	0.9222
2675	0.9237
2666	0.9235
2657	0.9246
2648	0.9232
2639	0.9213
2630	0.9208
2621	0.9239
2612	0.9251
2603	0.9245
2594	0.9229
2585	0.9223
2576	0.9224
2567	0.9231
2558	0.9237
2549	0.9234
2540	0.9182
2531	0.9131
2522	0.9134
2513	0.9168
2504	0.9211
2495	0.9227
2486	0.9217
2477	0.9242
2468	0.9253
2459	0.9265
2450	0.9255
2441	0.9254
2432	0.9222
2423	0.9209
2414	0.9233
2405	0.9234
2396	0.914
2387	0.9187
2378	0.9322
2369	0.9434
2360	0.9465
2351	0.9513
2342	0.9526
2333	0.9505
2324	0.9465
2315	0.9294
2306	0.9224
2297	0.9227
2288	0.9237
2279	0.9247
2270	0.9245
2261	0.9253
2252	0.9273
2243	0.9291
2234	0.9319
2225	0.935
2216	0.9364
2207	0.9379
2198	0.9388
2189	0.9382
2180	0.9389
2171	0.9396
2162	0.9364
2153	0.9341
2144	0.9333
2135	0.9379
2126	0.9418
2117	0.9423
2108	0.9388
2099	0.9337
2090	0.9382
2081	0.9408
2072	0.939
2063	0.9398
2054	0.9428
2045	0.9476
2036	0.9476
2027	0.9465
2018	0.9522
2009	0.9495
2000	0.9512
1991	0.9278
1982	0.8968
1973	0.8776
1964	0.853
1955	0.8615
1946	0.8433
1937	0.8384
1928	0.8703
1919	0.8878
1910	0.8812
1901	0.8787
1892	0.8668
1883	0.8695
1874	0.881
1865	0.8872
1856	0.8738
1847	0.8489
1838	0.8543
1829	0.8587
1820	0.846
1811	0.885
1802	0.8928
1793	0.8783
1784	0.8835
1775	0.8934
1766	0.8923
1757	0.8938
1748	0.8905
1739	0.8811
1730	0.8465
1721	0.8523
1712	0.8787
1703	0.8918
1694	0.878
1685	0.8807
1676	0.8779
1667	0.889
1658	0.8942
1649	0.8973
1640	0.8448
1631	0.7665
1622	0.8259
1613	0.798
1604	0.4558
1595	0.7021
1586	0.6717
1577	0.629
1568	0.5201
1559	0.5718
1550	0.457
1541	0.2268
1532	0.02
1523	0.0305
1514	0.1824
1505	0.5203
1496	0.6252
1487	0.7382
1478	0.7807
1469	0.7663
1460	0.4385
1451	0.6583
1442	0.5626
1433	0.6863
1424	0.8428
1415	0.8557
1406	0.8468
1397	0.8063
1388	0.7157
1379	0.4986
1370	0.2596
1361	0.1486
1352	0.1708
1343	0.0244
1334	0.0312
1325	0.1772
1316	0.4722
1307	0.6653
1298	0.7833
1289	0.8277
1280	0.8488
1271	0.7696
1262	0.4043
1253	0.8108
1244	0.871
1235	0.8507
1226	0.8004
1217	0.6172
1208	0.8491
1199	0.7538
1190	0.8464
1181	0.8561
1172	0.7845
1163	0.8028
1154	0.7357
1145	0.6911
1136	0.8426
1127	0.9073
1118	0.9273
1109	0.9323
1100	0.9272
1091	0.9173
1082	0.874
1073	0.7634
1064	0.8984
1055	0.9101
1046	0.9135
1037	0.8992
1028	0.6686
1019	0.8502
1010	0.8867
1001	0.8114
992	0.8373
983	0.855
974	0.7996
965	0.8453
956	0.8137
947	0.8725
938	0.8884
929	0.885
920	0.8677
911	0.8702
902	0.8884
893	0.8798
884	0.8093
875	0.3884
866	0.6084
857	0.7886
848	0.8591
839	0.862
830	0.8578
821	0.8041
812	0.3783
803	0.2813
794	0.3314
785	0.4714
776	0.1848
767	0.1519
758	0.7004
749	0.7866
740	0.7978
731	0.8334
722	0.7943
713	0.8606
704	0.8814
695	0.8913
686	0.8948
677	0.8917
668	0.9168
659	0.7966
650	0.7582
641	0.8894
632	0.9039
623	0.905
614	0.9268
605	0.9345
596	0.9304
587	0.8694
578	0.8116
569	0.8943
560	0.9219
551	0.9283
542	0.9276
533	0.9182
524	0.868
515	0.8576
506	0.5375
497	0.7935
488	0.8704
479	0.8862
470	0.873
461	0.8481
452	0.8401
443	0.849
