Infrared Spectrum: FLUORENE
Formula: C13 H10
CAS: 86-73-7
State: SOLUTION (10% IN CCl4 FOR 4000-1330 CM^-^1, 10% IN CS2 FOR 1330-600 CM^-^1)
Class: COBLENTZ III
Instrument: BECKMAN IR-7 (GRATING)
Instrument parameters: GRATING CHANGES AT 3000, 2200, 1150 CM^-^1
Sampling: TRANSMISSION
Path length: 0.01 CM, 0.011 CM
Resolution: 4
Origin: WESTERN REGIONAL RES. USDA
1/CM	TRANSMITTANCE
594.665	0.83
603.17	0.83
611.676	0.803
620.181	0.5652
628.686	0.798
637.192	0.843
645.697	0.837
654.202	0.816
662.707	0.868
671.213	0.867
679.718	0.883
688.223	0.864
696.729	0.7329
705.234	0.876
713.739	0.858
722.245	0.734
730.75	0.3302
739.255	0.001
747.761	0.3479
756.266	0.6819
764.771	0.798
773.277	0.83
781.782	0.841
790.287	0.869
798.792	0.861
807.298	0.88
815.803	0.889
824.308	0.889
832.814	0.88
841.319	0.822
849.824	0.7
858.33	0.667
866.835	0.688
875.34	0.747
883.846	0.821
892.351	0.859
900.856	0.876
909.361	0.88
917.867	0.882
926.372	0.885
934.877	0.874
943.383	0.859
951.888	0.366
960.393	0.844
968.899	0.859
977.404	0.867
985.909	0.879
994.415	0.869
1002.92	0.737
1011.43	0.869
1019.93	0.829
1028.44	0.744
1036.94	0.841
1045.45	0.902
1053.95	0.903
1062.46	0.908
1070.96	0.901
1079.47	0.898
1087.97	0.857
1096.48	0.803
1104.98	0.859
1113.49	0.852
1121.99	0.869
1130.5	0.859
1139	0.843
1147.51	0.815
1156.02	0.771
1164.52	0.823
1173.03	0.739
1181.53	0.842
1190.04	0.4681
1198.54	0.698
1207.05	0.856
1215.55	0.877
1224.06	0.853
1232.56	0.746
1241.07	0.87
1249.57	0.888
1258.08	0.89
1266.58	0.877
1275.09	0.869
1283.6	0.864
1292.1	0.837
1300.61	0.5289
1309.11	0.796
1317.62	0.805
1326.12	0.84
1334.63	0.864
1343.13	0.818
1351.64	0.884
1360.14	0.912
1368.65	0.912
1377.15	0.896
1385.66	0.773
1394.16	0.856
1402.67	0.3591
1411.17	0.692
1419.68	0.739
1428.19	0.836
1436.69	0.78
1445.2	0.25
1453.7	0.2671
1462.21	0.739
1470.71	0.835
1479.22	0.357
1487.72	0.805
1496.23	0.828
1504.73	0.784
1513.24	0.746
1521.74	0.685
1530.25	0.664
1538.75	0.59
1547.26	0.516
1555.77	0.503
1564.27	0.566
1572.78	0.617
1581.28	0.525
1589.79	0.587
1598.29	0.668
1606.8	0.752
1615.3	0.748
1623.81	0.867
1632.31	0.89
1640.82	0.882
1649.32	0.869
1657.83	0.893
1666.33	0.906
1674.84	0.898
1683.34	0.871
1691.85	0.895
1700.36	0.869
1708.86	0.906
1717.37	0.901
1725.87	0.882
1734.38	0.909
1742.88	0.917
1751.39	0.921
1759.89	0.905
1768.4	0.91
1776.9	0.901
1785.41	0.914
1793.91	0.906
1802.42	0.844
1810.92	0.843
1819.43	0.882
1827.93	0.867
1836.44	0.861
1844.95	0.874
1853.45	0.859
1861.96	0.898
1870.46	0.912
1878.97	0.912
1887.47	0.869
1895.98	0.838
1904.48	0.893
1912.99	0.825
1921.49	0.885
1930	0.885
1938.5	0.877
1947.01	0.793
1955.51	0.857
1964.02	0.904
1972.53	0.922
1981.03	0.927
1989.54	0.928
1998.04	0.923
2006.55	0.922
2015.05	0.9228
2023.56	0.923
2032.06	0.925
2040.57	0.9256
2049.07	0.9269
2057.58	0.928
2066.08	0.928
2074.59	0.928
2083.09	0.928
2091.6	0.929
2100.1	0.93
2108.61	0.93
2117.12	0.93
2125.62	0.93
2134.13	0.93
2142.63	0.93
2151.14	0.931
2159.64	0.932
2168.15	0.933
2176.65	0.933
2185.16	0.933
2193.66	0.933
2202.17	0.9311
2210.67	0.9298
2219.18	0.9275
2227.68	0.9242
2236.19	0.9219
2244.7	0.9183
2253.2	0.9134
2261.71	0.9091
2270.21	0.9056
2278.72	0.9015
2287.22	0.8992
2295.73	0.898
2304.23	0.8967
2312.74	0.895
2321.24	0.893
2329.75	0.893
2338.25	0.893
2346.76	0.8957
2355.26	0.897
2363.77	0.8983
2372.27	0.901
2380.78	0.904
2389.29	0.9092
2397.79	0.914
2406.3	0.9177
2414.8	0.92
2423.31	0.922
2431.81	0.9225
2440.32	0.923
2448.82	0.923
2457.33	0.923
2465.83	0.923
2474.34	0.923
2482.84	0.924
2491.35	0.924
2499.85	0.924
2508.36	0.925
2516.87	0.925
2525.37	0.925
2533.88	0.925
2542.38	0.925
2550.89	0.924
2559.39	0.923
2567.9	0.922
2576.4	0.922
2584.91	0.922
2593.41	0.922
2601.92	0.921
2610.42	0.92
2618.93	0.92
2627.43	0.919
2635.94	0.919
2644.44	0.9195
2652.95	0.9208
2661.46	0.9221
2669.96	0.9243
2678.47	0.926
2686.97	0.9279
2695.48	0.928
2703.98	0.929
2712.49	0.93
2720.99	0.931
2729.5	0.931
2738	0.931
2746.51	0.93
2755.01	0.93
2763.52	0.9282
2772.02	0.9236
2780.53	0.907
2789.03	0.9005
2797.54	0.876
2806.05	0.8642
2814.55	0.9041
2823.06	0.9084
2831.56	0.912
2840.07	0.914
2848.57	0.913
2857.08	0.912
2865.58	0.9094
2874.09	0.9059
2882.59	0.8462
2891.1	0.8252
2899.6	0.6441
2908.11	0.6723
2916.61	0.7126
2925.12	0.7484
2933.63	0.7923
2942.13	0.8636
2950.64	0.8676
2959.14	0.8699
2967.65	0.875
2976.15	0.8797
2984.66	0.8897
2993.16	0.886
3001.67	0.5916
3010.17	0.5459
3018.68	0.4865
3027.18	0.4506
3035.69	0.4771
3044.19	0.4815
3052.7	0.3262
3061.2	0.3469
3069.71	0.388
3078.22	0.6289
3086.72	0.6761
3095.23	0.7124
3103.73	0.8453
3112.24	0.8916
3120.74	0.9047
3129.25	0.9125
3137.75	0.9105
3146.26	0.9019
3154.76	0.8921
3163.27	0.8934
3171.77	0.91
3180.28	0.9171
3188.78	0.92
3197.29	0.922
3205.8	0.922
3214.3	0.923
3222.81	0.9245
3231.31	0.925
3239.82	0.927
3248.32	0.928
3256.83	0.929
3265.33	0.928
3273.84	0.929
3282.34	0.929
3290.85	0.928
3299.35	0.928
3307.86	0.928
3316.36	0.929
3324.87	0.93
3333.37	0.9302
3341.88	0.931
3350.39	0.9313
3358.89	0.93
3367.4	0.9287
3375.9	0.928
3384.41	0.928
3392.91	0.928
3401.42	0.9294
3409.92	0.93
3418.43	0.931
3426.93	0.9313
3435.44	0.932
3443.94	0.932
3452.45	0.931
3460.95	0.931
3469.46	0.931
3477.97	0.932
3486.47	0.933
3494.98	0.933
3503.48	0.933
3511.99	0.933
3520.49	0.933
3529	0.933
3537.5	0.933
3546.01	0.933
3554.51	0.934
3563.02	0.935
3571.52	0.935
3580.03	0.935
3588.53	0.934
3597.04	0.9332
3605.54	0.933
3614.05	0.933
3622.56	0.931
3631.06	0.931
3639.57	0.931
3648.07	0.93
3656.58	0.93
3665.08	0.9289
3673.59	0.928
3682.09	0.928
3690.6	0.928
3699.1	0.929
3707.61	0.93
3716.11	0.93
3724.62	0.931
3733.12	0.9323
3741.63	0.933
3750.13	0.933
3758.64	0.933
3767.15	0.9325
3775.65	0.932
3784.16	0.931
3792.66	0.93
