Infrared Spectrum: Phosphonic acid, dimethyl ester
Formula: C2 H7 O3 P
CAS: 868-85-9
State: LIQUID (NEAT)
Class: COBLENTZ III
Instrument: DOW KBr FOREPRISM-GRATING
Instrument parameters: BLAZED AT 3.5, 12.0, 20.0 MICRON AND CHANGED AT 5.0, 7.5, 14.9 MICRON
Sampling: TRANSMISSION
Path length: CAPILLARY
Resolution: 2
Origin: DOW CHEMICAL COMPANY
1/CM	TRANSMITTANCE
3800	0.8847
3791	0.8839
3782	0.8828
3773	0.8828
3764	0.8828
3755	0.8821
3746	0.8815
3737	0.8808
3728	0.8802
3719	0.8797
3710	0.8786
3701	0.8752
3692	0.8687
3683	0.8595
3674	0.8471
3665	0.8315
3656	0.8167
3647	0.8028
3638	0.7903
3629	0.7791
3620	0.7671
3611	0.7537
3602	0.7362
3593	0.7139
3584	0.6854
3575	0.6578
3566	0.6308
3557	0.6092
3548	0.5973
3539	0.5954
3530	0.5948
3521	0.5937
3512	0.5912
3503	0.5866
3494	0.5851
3485	0.5887
3476	0.5995
3467	0.6148
3458	0.6295
3449	0.6442
3440	0.6574
3431	0.6697
3422	0.6869
3413	0.7018
3404	0.716
3395	0.7272
3386	0.7376
3377	0.7467
3368	0.7551
3359	0.7634
3350	0.7711
3341	0.7788
3332	0.7858
3323	0.7922
3314	0.7958
3305	0.7991
3296	0.8018
3287	0.8047
3278	0.8076
3269	0.8115
3260	0.8156
3251	0.8196
3242	0.8237
3233	0.8277
3224	0.8303
3215	0.8325
3206	0.8348
3197	0.8368
3188	0.8384
3179	0.8397
3170	0.8396
3161	0.8395
3152	0.8393
3143	0.8384
3134	0.8368
3125	0.8352
3116	0.8334
3107	0.8314
3098	0.829
3089	0.8255
3080	0.8217
3071	0.8171
3062	0.8056
3053	0.7856
3044	0.766
3035	0.7382
3026	0.7175
3017	0.7028
3008	0.6958
2999	0.7039
2990	0.7075
2981	0.6715
2972	0.5498
2963	0.5288
2954	0.6383
2945	0.7353
2936	0.7487
2927	0.7594
2918	0.7725
2909	0.7895
2900	0.8071
2891	0.8178
2882	0.814
2873	0.7342
2864	0.6595
2855	0.7665
2846	0.8208
2837	0.8481
2828	0.8649
2819	0.8739
2810	0.8789
2801	0.8823
2792	0.8846
2783	0.8858
2774	0.8871
2765	0.8883
2756	0.8891
2747	0.8899
2738	0.8907
2729	0.8911
2720	0.8913
2711	0.8915
2702	0.8909
2693	0.8902
2684	0.8896
2675	0.8884
2666	0.8874
2657	0.8851
2648	0.8835
2639	0.8833
2630	0.884
2621	0.8847
2612	0.8854
2603	0.8859
2594	0.8865
2585	0.8865
2576	0.8861
2567	0.8852
2558	0.8836
2549	0.8803
2540	0.876
2531	0.872
2522	0.8681
2513	0.8639
2504	0.8596
2495	0.8502
2486	0.8332
2477	0.7998
2468	0.7621
2459	0.7378
2450	0.7285
2441	0.7254
2432	0.7265
2423	0.7314
2414	0.7456
2405	0.7661
2396	0.8008
2387	0.8206
2378	0.8282
2369	0.8341
2360	0.8401
2351	0.8461
2342	0.8518
2333	0.8575
2324	0.8628
2315	0.8663
2306	0.8683
2297	0.8683
2288	0.8675
2279	0.8671
2270	0.867
2261	0.8668
2252	0.8666
2243	0.8665
2234	0.8664
2225	0.8663
2216	0.8664
2207	0.8668
2198	0.8671
2189	0.8675
2180	0.8677
2171	0.868
2162	0.868
2153	0.8674
2144	0.8668
2135	0.8664
2126	0.8659
2117	0.8654
2108	0.8656
2099	0.8657
2090	0.8659
2081	0.8662
2072	0.8667
2063	0.8671
2054	0.8677
2045	0.8682
2036	0.8688
2027	0.8693
2018	0.8699
2009	0.8706
2000	0.8716
1991	0.8721
1982	0.8723
1973	0.8718
1964	0.8706
1955	0.8759
1946	0.8716
1937	0.8701
1928	0.8675
1919	0.8633
1910	0.8559
1901	0.8488
1892	0.8453
1883	0.8441
1874	0.8453
1865	0.8468
1856	0.8477
1847	0.843
1838	0.8382
1829	0.8345
1820	0.8346
1811	0.838
1802	0.8445
1793	0.8468
1784	0.8487
1775	0.8495
1766	0.8488
1757	0.845
1748	0.8401
1739	0.836
1730	0.8318
1721	0.8262
1712	0.8215
1703	0.8328
1694	0.8315
1685	0.8211
1676	0.804
1667	0.788
1658	0.7762
1649	0.7734
1640	0.7778
1631	0.7857
1622	0.7974
1613	0.8099
1604	0.815
1595	0.8175
1586	0.818
1577	0.8169
1568	0.8154
1559	0.8133
1550	0.8111
1541	0.8061
1532	0.8001
1523	0.7931
1514	0.7833
1505	0.7722
1496	0.7539
1487	0.7068
1478	0.6551
1469	0.5592
1460	0.531
1451	0.5678
1442	0.6714
1433	0.7384
1424	0.7698
1415	0.7837
1406	0.7948
1397	0.8025
1388	0.8147
1379	0.815
1370	0.8001
1361	0.7941
1352	0.7878
1343	0.7808
1334	0.7715
1325	0.7525
1316	0.7112
1307	0.6625
1298	0.5651
1289	0.4421
1280	0.1398
1271	0.0627
1262	0.0569
1253	0.0799
1244	0.1473
1235	0.2675
1226	0.4189
1217	0.5394
1208	0.5874
1199	0.4971
1190	0.3684
1181	0.3864
1172	0.5156
1163	0.5894
1154	0.6345
1145	0.6699
1136	0.6765
1127	0.6571
1118	0.6212
1109	0.5641
1100	0.4141
1091	0.2275
1082	0.1436
1073	0.1616
1064	0.1299
1055	0.0722
1046	0.0546
1037	0.0763
1028	0.1286
1019	0.1906
1010	0.1736
1001	0.1182
992	0.0802
983	0.0525
974	0.0464
965	0.1272
956	0.4104
947	0.6518
938	0.7414
929	0.7828
920	0.8051
911	0.8176
902	0.8258
893	0.8306
884	0.8323
875	0.8285
866	0.8131
857	0.7718
848	0.6865
839	0.5028
830	0.3166
821	0.2682
812	0.4268
803	0.5822
794	0.5965
785	0.4818
776	0.4968
767	0.5489
758	0.5642
749	0.7133
740	0.8041
731	0.8378
722	0.8497
713	0.8517
704	0.8509
695	0.8468
686	0.8405
677	0.8402
668	0.8425
659	0.8375
650	0.8303
641	0.8225
632	0.8149
623	0.8076
614	0.7993
605	0.7886
596	0.7757
587	0.7636
578	0.7445
569	0.6974
560	0.6029
551	0.4886
542	0.4494
533	0.577
524	0.6218
515	0.6235
506	0.5889
497	0.5905
488	0.6401
479	0.6815
470	0.7048
