Infrared Spectrum: Benzoic acid, o-hydroxy, 3-methylbutyl ester
Formula: C12 H16 O3
CAS: 87-20-7
State: SOLUTION (10% CCl4 FOR 3800-1330, 10% CS2 FOR 1330-400 CM^-^1)
Class: COBLENTZ III
Instrument: DOW KBr FOREPRISM-GRATING
Instrument parameters: BLAZED AT 3.5, 12.0, 20.0 MICRON AND CHANGED AT 5.0, 7.5, 14.9 MICRON
Sampling: TRANSMISSION
Path length: 0.010 CM, 0.010 CM
Resolution: 2
Origin: DOW CHEMICAL COMPANY
1/CM	TRANSMITTANCE
3800	0.9118
3791	0.9138
3782	0.9106
3773	0.9072
3764	0.9057
3755	0.9059
3746	0.9087
3737	0.9135
3728	0.9131
3719	0.9082
3710	0.9074
3701	0.9097
3692	0.9072
3683	0.9065
3674	0.907
3665	0.907
3656	0.9031
3647	0.9027
3638	0.9038
3629	0.8979
3620	0.903
3611	0.9009
3602	0.8963
3593	0.8962
3584	0.8951
3575	0.8921
3566	0.8897
3557	0.8873
3548	0.8858
3539	0.8828
3530	0.8804
3521	0.8752
3512	0.8711
3503	0.8683
3494	0.8655
3485	0.8635
3476	0.8617
3467	0.858
3458	0.8531
3449	0.8475
3440	0.8414
3431	0.8388
3422	0.838
3413	0.8397
3404	0.8408
3395	0.8393
3386	0.8326
3377	0.8222
3368	0.8105
3359	0.7955
3350	0.7824
3341	0.7713
3332	0.7648
3323	0.7605
3314	0.7549
3305	0.737
3296	0.7021
3287	0.6787
3278	0.6564
3269	0.6396
3260	0.625
3251	0.5984
3242	0.5655
3233	0.5106
3224	0.4718
3215	0.4343
3206	0.3985
3197	0.3724
3188	0.3634
3179	0.3756
3170	0.4097
3161	0.4184
3152	0.4356
3143	0.4735
3134	0.5102
3125	0.5527
3116	0.5856
3107	0.6149
3098	0.6181
3089	0.6158
3080	0.6291
3071	0.6169
3062	0.6204
3053	0.6277
3044	0.6491
3035	0.6877
3026	0.688
3017	0.6832
3008	0.6853
2999	0.6358
2990	0.5585
2981	0.3744
2972	0.2294
2963	0.0753
2954	0.0719
2945	0.2646
2936	0.2952
2927	0.2644
2918	0.3273
2909	0.3629
2900	0.3865
2891	0.4385
2882	0.4889
2873	0.3721
2864	0.4574
2855	0.5828
2846	0.6912
2837	0.7137
2828	0.7432
2819	0.7681
2810	0.7823
2801	0.7918
2792	0.7956
2783	0.798
2774	0.8037
2765	0.8023
2756	0.8068
2747	0.8141
2738	0.8133
2729	0.8127
2720	0.8133
2711	0.8203
2702	0.8226
2693	0.8202
2684	0.8261
2675	0.8333
2666	0.834
2657	0.8272
2648	0.8226
2639	0.821
2630	0.8204
2621	0.821
2612	0.8218
2603	0.8245
2594	0.8285
2585	0.8315
2576	0.832
2567	0.831
2558	0.8291
2549	0.8261
2540	0.8252
2531	0.8304
2522	0.8314
2513	0.8307
2504	0.829
2495	0.827
2486	0.8259
2477	0.8255
2468	0.8251
2459	0.8248
2450	0.824
2441	0.8229
2432	0.8168
2423	0.8195
2414	0.8208
2405	0.8192
2396	0.8153
2387	0.8173
2378	0.8311
2369	0.8317
2360	0.8341
2351	0.8337
2342	0.8294
2333	0.8273
2324	0.8258
2315	0.8195
2306	0.8128
2297	0.8083
2288	0.8055
2279	0.8081
2270	0.8103
2261	0.8096
2252	0.8095
2243	0.8098
2234	0.8107
2225	0.8117
2216	0.8116
2207	0.8127
2198	0.8138
2189	0.8118
2180	0.8108
2171	0.8129
2162	0.8127
2153	0.8131
2144	0.8132
2135	0.8134
2126	0.8135
2117	0.8133
2108	0.8133
2099	0.8133
2090	0.8134
2081	0.8137
2072	0.8138
2063	0.8147
2054	0.8163
2045	0.8152
2036	0.8152
2027	0.8167
2018	0.8191
2009	0.8212
2000	0.8217
1991	0.797
1982	0.7413
1973	0.7241
1964	0.7707
1955	0.7496
1946	0.7754
1937	0.7892
1928	0.7744
1919	0.7827
1910	0.8192
1901	0.8326
1892	0.8482
1883	0.8582
1874	0.8593
1865	0.8583
1856	0.8571
1847	0.8561
1838	0.8499
1829	0.8568
1820	0.8548
1811	0.8145
1802	0.8409
1793	0.8557
1784	0.8585
1775	0.8505
1766	0.8443
1757	0.8235
1748	0.8085
1739	0.7996
1730	0.7667
1721	0.7236
1712	0.7139
1703	0.5967
1694	0.3937
1685	0.1025
1676	0.0727
1667	0.1055
1658	0.2933
1649	0.5214
1640	0.6297
1631	0.6909
1622	0.506
1613	0.0942
1604	0.4458
1595	0.5021
1586	0.2418
1577	0.5308
1568	0.6281
1559	0.6446
1550	0.6583
1541	0.6679
1532	0.6732
1523	0.679
1514	0.6487
1505	0.5123
1496	0.5448
1487	0.0243
1478	0.1888
1469	0.154
1460	0.1681
1451	0.4025
1442	0.5351
1433	0.4684
1424	0.3654
1415	0.3011
1406	0.2596
1397	0.2323
1388	0.2707
1379	0.4192
1370	0.4257
1361	0.4224
1352	0.3238
1343	0.2196
1334	0.1753
1325	0.2071
1316	0.2586
1307	0.1532
1298	0.0077
1289	0.1249
1280	0.2829
1271	0.5016
1262	0.4358
1253	0.1177
1244	0.0297
1235	0.2013
1226	0.203
1217	0.2303
1208	0.0028
1199	0.0562
1190	0.3797
1181	0.2056
1172	0.4081
1163	0.4332
1154	0.0049
1145	0.4797
1136	0.2316
1127	0.3008
1118	0.6528
1109	0.7208
1100	0.7359
1091	0.3638
1082	0.0578
1073	0.673
1064	0.8206
1055	0.8349
1046	0.8427
1037	0.7772
1028	0.3611
1019	0.7984
1010	0.8548
1001	0.8579
992	0.8479
983	0.8312
974	0.8133
965	0.7123
956	0.6194
947	0.5968
938	0.7091
929	0.7969
920	0.8555
911	0.854
902	0.8739
893	0.9044
884	0.9243
875	0.8118
866	0.7441
857	0.4945
848	0.7083
839	0.7863
830	0.84
821	0.7493
812	0.7399
803	0.7642
794	0.5349
785	0.7995
776	0.7862
767	0.6744
758	0.2393
749	0.1388
740	0.5454
731	0.4555
722	0.2688
713	0.2278
704	0.2875
695	0.0723
686	0.5955
677	0.6964
668	0.7255
659	0.5035
650	0.785
641	0.8271
632	0.8556
623	0.8641
614	0.8591
605	0.8452
596	0.8607
587	0.8672
578	0.8668
569	0.8606
560	0.7268
551	0.8099
542	0.7608
533	0.6582
524	0.4897
515	0.7646
506	0.7521
497	0.7475
488	0.8205
479	0.8634
470	0.8715
461	0.8517
452	0.8452
443	0.8426
434	0.8225
425	0.8101
416	0.7954
407	0.7604
398	0.6948
389	0.632
