Infrared Spectrum: O-SEC-AMYLPHENOL
Formula: C11 H16 O
CAS: 87-26-3
State: SOLUTION (10% CCl4 FOR 5000-1330, 10% CS2 FOR 1330-625 CM^-^1)
Class: COBLENTZ
Instrument: Not specified, most likely a prism, grating, or hybrid spectrometer.
Sampling: TRANSMISSION
Path length: 0.0119 CM, 0.0115 CM
Resolution: 4
Origin: DOW CHEMICAL COMPANY
MICROMETERS	TRANSMITTANCE
1.993	0.9
2.03418	0.9
2.07535	0.903
2.11653	0.905
2.15771	0.907
2.19889	0.903
2.24006	0.886
2.28124	0.886
2.32242	0.893
2.3636	0.895
2.40477	0.9
2.44595	0.91
2.48713	0.91
2.5283	0.907
2.56948	0.905
2.61066	0.922
2.65184	0.919
2.69301	0.886
2.73419	0.71
2.77537	0.535
2.81655	0.639
2.85772	0.596
2.8989	0.636
2.94008	0.711
2.98125	0.761
3.02243	0.816
3.06361	0.847
3.10479	0.873
3.14596	0.888
3.18714	0.861
3.22832	0.766
3.2695	0.687
3.31067	0.662
3.35185	0.305
3.39303	0.217
3.4342	0.361
3.47538	0.473
3.51656	0.85
3.55774	0.902
3.59891	0.909
3.64009	0.903
3.68127	0.919
3.72244	0.921
3.76362	0.924
3.8048	0.931
3.84598	0.931
3.88715	0.936
3.92833	0.939
3.96951	0.939
4.01069	0.939
4.05186	0.938
4.09304	0.931
4.13422	0.933
4.17539	0.926
4.21657	0.924
4.25775	0.922
4.29893	0.938
4.3401	0.939
4.38128	0.957
4.42246	0.963
4.46364	0.965
4.50481	0.97
4.54599	0.97
4.58717	0.972
4.62834	0.972
4.66952	0.972
4.7107	0.972
4.75188	0.972
4.79305	0.97
4.83423	0.962
4.87541	0.97
4.91659	0.972
4.95776	0.972
4.99894	0.967
5.04012	0.969
5.08129	0.969
5.12247	0.962
5.16365	0.945
5.20483	0.95
5.246	0.931
5.28718	0.929
5.32836	0.941
5.36954	0.953
5.41071	0.958
5.45189	0.962
5.49307	0.962
5.53424	0.953
5.57542	0.951
5.6166	0.943
5.65778	0.957
5.69895	0.96
5.74013	0.963
5.78131	0.97
5.82249	0.951
5.86366	0.941
5.90484	0.939
5.94602	0.936
5.98719	0.939
6.02837	0.933
6.06955	0.931
6.11073	0.895
6.1519	0.773
6.19308	0.578
6.23426	0.524
6.27544	0.401
6.31661	0.49
6.35779	0.56
6.39897	0.543
6.44014	0.507
6.48132	0.509
6.5225	0.562
6.56368	0.528
6.60485	0.397
6.64603	0.308
6.68721	0.353
6.72839	0.598
6.76956	0.552
6.81074	0.339
6.85192	0.18
6.89309	0.42
6.93427	0.694
6.97545	0.807
7.01663	0.838
7.0578	0.869
7.09898	0.867
7.14016	0.854
7.18133	0.765
7.22251	0.581
7.26369	0.646
7.30487	0.735
7.34604	0.739
7.38722	0.699
7.4284	0.639
7.46958	0.543
7.51075	0.368
7.55193	0.492
7.59311	0.629
7.63428	0.639
7.67546	0.631
7.71664	0.596
7.75782	0.617
7.79899	0.699
7.84017	0.619
7.88135	0.471
7.92253	0.356
7.9637	0.288
8.00488	0.289
8.04606	0.397
8.08723	0.452
8.12841	0.48
8.16959	0.478
8.21077	0.463
8.25194	0.43
8.29312	0.344
8.3343	0.271
8.37548	0.336
8.41665	0.404
8.45783	0.317
8.49901	0.176
8.54018	0.152
8.58136	0.346
8.62254	0.463
8.66372	0.416
8.70489	0.38
8.74607	0.469
8.78725	0.591
8.82843	0.696
8.8696	0.73
8.91078	0.716
8.95196	0.67
8.99313	0.65
9.03431	0.665
9.07549	0.694
9.11667	0.667
9.15784	0.598
9.19902	0.569
9.2402	0.576
9.28138	0.59
9.32255	0.655
9.36373	0.732
9.40491	0.77
9.44608	0.816
9.48726	0.821
9.52844	0.797
9.56962	0.727
9.61079	0.679
9.65197	0.74
9.69315	0.842
9.73433	0.869
9.7755	0.876
9.81668	0.881
9.85786	0.881
9.89903	0.885
9.94021	0.885
9.98139	0.89
10.0226	0.895
10.0637	0.895
10.1049	0.895
10.1461	0.921
10.1873	0.936
10.2285	0.945
10.2696	0.948
10.3108	0.95
10.352	0.948
10.3932	0.95
10.4343	0.95
10.4755	0.946
10.5167	0.945
10.5579	0.943
10.599	0.936
10.6402	0.915
10.6814	0.89
10.7226	0.861
10.7638	0.833
10.8049	0.83
10.8461	0.831
10.8873	0.842
10.9285	0.864
10.9696	0.898
11.0108	0.914
11.052	0.921
11.0932	0.895
11.1344	0.903
11.1755	0.883
11.2167	0.854
11.2579	0.83
11.2991	0.811
11.3402	0.799
11.3814	0.79
11.4226	0.78
11.4638	0.761
11.5049	0.744
11.5461	0.74
11.5873	0.734
11.6285	0.718
11.6697	0.701
11.7108	0.691
11.752	0.689
11.7932	0.687
11.8344	0.686
11.8755	0.68
11.9167	0.643
11.9579	0.6
11.9991	0.53
12.0403	0.411
12.0814	0.341
12.1226	0.409
12.1638	0.538
12.205	0.61
12.2461	0.674
12.2873	0.711
12.3285	0.732
12.3697	0.739
12.4108	0.761
12.452	0.799
12.4932	0.819
12.5344	0.831
12.5756	0.837
12.6167	0.842
12.6579	0.843
12.6991	0.84
12.7403	0.828
12.7814	0.819
12.8226	0.804
12.8638	0.799
12.905	0.789
12.9462	0.775
12.9873	0.756
13.0285	0.722
13.0697	0.677
13.1109	0.619
13.152	0.526
13.1932	0.399
13.2344	0.26
13.2756	0.116
13.3167	0.029
13.3579	0.001
13.3991	0.025
13.4403	0.149
13.4815	0.255
13.5226	0.332
13.5638	0.447
13.605	0.547
13.6462	0.629
13.6873	0.672
13.7285	0.699
13.7697	0.706
13.8109	0.708
13.8521	0.708
13.8932	0.699
13.9344	0.687
13.9756	0.675
14.0168	0.665
14.0579	0.66
14.0991	0.658
14.1403	0.668
14.1815	0.679
14.2226	0.679
14.2638	0.679
14.305	0.672
14.3462	0.668
14.3874	0.665
14.4285	0.658
14.4697	0.651
14.5109	0.648
14.5521	0.643
14.5932	0.643
14.6344	0.638
14.6756	0.632
14.7168	0.624
14.758	0.617
14.7991	0.61
14.8403	0.6
14.8815	0.59
14.9227	0.579
14.9638	0.569
15.005	0.562
15.0462	0.552
15.0874	0.542
15.1285	0.53
15.1697	0.518
15.2109	0.504
15.2521	0.488
15.2933	0.476
15.3344	0.464
15.3756	0.457
15.4168	0.451
15.458	0.442
15.4991	0.433
15.5403	0.428
15.5815	0.418
15.6227	0.408
15.6639	0.401
15.705	0.394
15.7462	0.389
15.7874	0.38
15.8286	0.373
15.8697	0.365
