Infrared Spectrum: 3-INDOLE ACETIC ACID
Formula: C10 H9 N O2
CAS: 87-51-4
State: SOLID (1.9 mg / 200 mg KBr PELLET)
Class: COBLENTZ
Instrument: Not specified, most likely a grating spectrometer.
Sampling: TRANSMISSION
Resolution: 4
Origin: CITRUS EXPERIMENT STATION, UNIVERSITY OF FLORIDA (G. EDWARDS)
MICROMETERS	TRANSMITTANCE
2.036	0.756
2.07208	0.759
2.10816	0.761
2.14423	0.763
2.18031	0.768
2.21639	0.77
2.25247	0.77
2.28855	0.775
2.32463	0.784
2.3607	0.785
2.39678	0.79
2.43286	0.792
2.46894	0.794
2.50502	0.796
2.5411	0.808
2.57717	0.82
2.61325	0.816
2.64933	0.84
2.68541	0.84
2.72149	0.848
2.75757	0.851
2.79364	0.851
2.82972	0.85
2.8658	0.831
2.90188	0.735
2.93796	0.42
2.97404	0.46
3.01011	0.647
3.04619	0.685
3.08227	0.688
3.11835	0.668
3.15443	0.641
3.1905	0.576
3.22658	0.558
3.26266	0.557
3.29874	0.557
3.33482	0.553
3.3709	0.498
3.40697	0.437
3.44305	0.518
3.47913	0.518
3.51521	0.58
3.55129	0.624
3.58737	0.63
3.62344	0.617
3.65952	0.624
3.6956	0.632
3.73168	0.63
3.76776	0.633
3.80384	0.638
3.83991	0.648
3.87599	0.661
3.91207	0.659
3.94815	0.663
3.98423	0.687
4.02031	0.705
4.05638	0.724
4.09246	0.732
4.12854	0.74
4.16462	0.755
4.2007	0.802
4.23677	0.819
4.27285	0.819
4.30893	0.819
4.34501	0.819
4.38109	0.813
4.41717	0.814
4.45324	0.814
4.48932	0.828
4.5254	0.834
4.56148	0.845
4.59756	0.856
4.63364	0.861
4.66971	0.866
4.70579	0.867
4.74187	0.87
4.77795	0.87
4.81403	0.867
4.85011	0.878
4.88618	0.889
4.92226	0.893
4.95834	0.901
4.99442	0.914
5.0305	0.911
5.06657	0.919
5.10265	0.92
5.13873	0.928
5.17481	0.909
5.21089	0.892
5.24697	0.92
5.28304	0.911
5.31912	0.898
5.3552	0.933
5.39128	0.919
5.42736	0.93
5.46344	0.942
5.49951	0.903
5.53559	0.864
5.57167	0.879
5.60775	0.833
5.64383	0.802
5.67991	0.755
5.71598	0.698
5.75206	0.599
5.78814	0.489
5.82422	0.324
5.8603	0.279
5.89638	0.3
5.93245	0.342
5.96853	0.402
6.00461	0.48
6.04069	0.548
6.07677	0.591
6.11284	0.623
6.14892	0.633
6.185	0.659
6.22108	0.703
6.25716	0.718
6.29324	0.723
6.32931	0.743
6.36539	0.785
6.40147	0.796
6.43755	0.815
6.47363	0.863
6.50971	0.863
6.54578	0.891
6.58186	0.892
6.61794	0.902
6.65402	0.876
6.6901	0.834
6.72618	0.873
6.76225	0.874
6.79833	0.759
6.83441	0.57
6.87049	0.61
6.90657	0.734
6.94265	0.7
6.97872	0.579
7.0148	0.524
7.05088	0.558
7.08696	0.477
7.12304	0.563
7.15911	0.723
7.19519	0.773
7.23127	0.762
7.26735	0.774
7.30343	0.699
7.33951	0.611
7.37558	0.675
7.41166	0.669
7.44774	0.613
7.48382	0.62
7.5199	0.72
7.55598	0.809
7.59205	0.779
7.62813	0.645
7.66421	0.611
7.70029	0.677
7.73637	0.699
7.77245	0.758
7.80852	0.804
7.8446	0.826
7.88068	0.817
7.91676	0.752
7.95284	0.633
7.98892	0.562
8.02499	0.58
8.06107	0.633
8.09715	0.739
8.13323	0.579
8.16931	0.428
8.20538	0.452
8.24146	0.429
8.27754	0.405
8.31362	0.429
8.3497	0.512
8.38578	0.576
8.42185	0.618
8.45793	0.651
8.49401	0.669
8.53009	0.699
8.56617	0.71
8.60225	0.712
8.63832	0.71
8.6744	0.734
8.71048	0.769
8.74656	0.782
8.78264	0.798
8.81872	0.814
8.85479	0.816
8.89087	0.834
8.92695	0.852
8.96303	0.861
8.99911	0.822
9.03518	0.729
9.07126	0.551
9.10734	0.522
9.14342	0.588
9.1795	0.677
9.21558	0.735
9.25165	0.773
9.28773	0.788
9.32381	0.756
9.35989	0.648
9.39597	0.679
9.43205	0.699
9.46812	0.683
9.5042	0.659
9.54028	0.633
9.57636	0.617
9.61244	0.615
9.64852	0.621
9.68459	0.638
9.72067	0.661
9.75675	0.687
9.79283	0.711
9.82891	0.739
9.86499	0.749
9.90106	0.665
9.93714	0.657
9.97322	0.733
10.0093	0.77
10.0454	0.782
10.0815	0.787
10.1175	0.788
10.1536	0.788
10.1897	0.79
10.2258	0.788
10.2618	0.79
10.2979	0.788
10.334	0.785
10.3701	0.776
10.4062	0.772
10.4422	0.761
10.4783	0.749
10.5144	0.728
10.5505	0.699
10.5866	0.653
10.6226	0.604
10.6587	0.55
10.6948	0.504
10.7309	0.465
10.7669	0.475
10.803	0.533
10.8391	0.548
10.8752	0.556
10.9113	0.556
10.9473	0.563
10.9834	0.583
11.0195	0.592
11.0556	0.558
11.0916	0.556
11.1277	0.571
11.1638	0.585
11.1999	0.605
11.236	0.62
11.272	0.639
11.3081	0.658
11.3442	0.679
11.3803	0.676
11.4164	0.664
11.4524	0.679
11.4885	0.704
11.5246	0.715
11.5607	0.729
11.5967	0.749
11.6328	0.758
11.6689	0.761
11.705	0.75
11.7411	0.731
11.7771	0.699
11.8132	0.68
11.8493	0.653
11.8854	0.653
11.9214	0.723
11.9575	0.785
11.9936	0.811
12.0297	0.835
12.0658	0.849
12.1018	0.864
12.1379	0.875
12.174	0.879
12.2101	0.895
12.2462	0.901
12.2822	0.904
12.3183	0.908
12.3544	0.908
12.3905	0.907
12.4265	0.899
12.4626	0.884
12.4987	0.851
12.5348	0.786
12.5709	0.722
12.6069	0.64
12.643	0.55
12.6791	0.507
12.7152	0.509
12.7512	0.541
12.7873	0.609
12.8234	0.68
12.8595	0.744
12.8956	0.802
12.9316	0.84
12.9677	0.864
13.0038	0.884
13.0399	0.891
13.076	0.886
13.112	0.862
13.1481	0.8
13.1842	0.752
13.2203	0.681
13.2563	0.533
13.2924	0.504
13.3285	0.534
13.3646	0.5
13.4007	0.442
13.4367	0.359
13.4728	0.279
13.5089	0.23
13.545	0.22
13.581	0.234
13.6171	0.285
13.6532	0.349
13.6893	0.404
13.7254	0.459
13.7614	0.493
13.7975	0.528
13.8336	0.546
13.8697	0.572
13.9058	0.603
13.9418	0.624
13.9779	0.63
14.014	0.641
14.0501	0.658
14.0861	0.668
14.1222	0.683
14.1583	0.689
14.1944	0.703
14.2305	0.715
14.2665	0.724
14.3026	0.731
14.3387	0.741
14.3748	0.744
14.4108	0.741
14.4469	0.735
14.483	0.718
14.5191	0.682
14.5552	0.645
14.5912	0.611
14.6273	0.603
14.6634	0.607
14.6995	0.62
14.7356	0.642
14.7716	0.679
14.8077	0.699
14.8438	0.704
14.8799	0.708
14.9159	0.702
14.952	0.714
14.9881	0.72
