Infrared Spectrum: BENZENE, 1,2,3-TRICHLORO-
Formula: C6 H3 Cl3
CAS: 87-61-6
State: SOLUTION (10% CCl4 FOR 3800-1330, 10% CS2 FOR 1330-400) VS SOLVENT
Class: COBLENTZ III
Instrument: DOW KBr FOREPRISM-GRATING
Instrument parameters: BLAZED AT 3.5, 12.0, 20.0 MICRON AND CHANGED AT 5.0, 7.5, 14.9 MICRON
Sampling: TRANSMISSION
Path length: 0.0115 CM, 0.0113 CM
Resolution: 2
Origin: DOW CHEMICAL COMPANY
1/CM	TRANSMITTANCE
3792	0.8758
3783	0.8834
3774	0.8913
3765	0.8928
3756	0.8921
3747	0.8914
3738	0.8912
3729	0.891
3720	0.8908
3711	0.8906
3702	0.8904
3693	0.89
3684	0.8896
3675	0.8892
3666	0.8888
3657	0.8884
3648	0.8881
3639	0.888
3630	0.8878
3621	0.8878
3612	0.8878
3603	0.8877
3594	0.8875
3585	0.8875
3576	0.8887
3567	0.8899
3558	0.8912
3549	0.8924
3540	0.8937
3531	0.8949
3522	0.8964
3513	0.8977
3504	0.8992
3495	0.9005
3486	0.9014
3477	0.9023
3468	0.9032
3459	0.904
3450	0.9049
3441	0.9056
3432	0.9063
3423	0.9068
3414	0.9075
3405	0.9083
3396	0.9089
3387	0.909
3378	0.9091
3369	0.9092
3360	0.9092
3351	0.909
3342	0.9084
3333	0.9077
3324	0.9071
3315	0.9064
3306	0.9058
3297	0.9051
3288	0.9045
3279	0.9038
3270	0.9032
3261	0.9023
3252	0.9012
3243	0.9
3234	0.8989
3225	0.8978
3216	0.8968
3207	0.8957
3198	0.8943
3189	0.8921
3180	0.89
3171	0.8878
3162	0.8848
3153	0.8802
3144	0.8758
3135	0.8724
3126	0.8721
3117	0.8758
3108	0.877
3099	0.8733
3090	0.8671
3081	0.8601
3072	0.8474
3063	0.8401
3054	0.8554
3045	0.8691
3036	0.878
3027	0.8832
3018	0.888
3009	0.8874
3000	0.886
2991	0.8805
2982	0.8774
2973	0.8815
2964	0.8854
2955	0.8895
2946	0.8917
2937	0.8927
2928	0.8931
2919	0.8924
2910	0.8916
2901	0.8908
2892	0.89
2883	0.8892
2874	0.8885
2865	0.8878
2856	0.8871
2847	0.8864
2838	0.8857
2829	0.8853
2820	0.8852
2811	0.8851
2802	0.8851
2793	0.8852
2784	0.8856
2775	0.8859
2766	0.8864
2757	0.8867
2748	0.8871
2739	0.8874
2730	0.8873
2721	0.8871
2712	0.8871
2703	0.8868
2694	0.8868
2685	0.8867
2676	0.8866
2667	0.8864
2658	0.8863
2649	0.8861
2640	0.886
2631	0.8858
2622	0.8859
2613	0.886
2604	0.8861
2595	0.8862
2586	0.8865
2577	0.8868
2568	0.8874
2559	0.8878
2550	0.8878
2541	0.8873
2532	0.8868
2523	0.8782
2514	0.8718
2505	0.8752
2496	0.8794
2487	0.8832
2478	0.8833
2469	0.8833
2460	0.8833
2451	0.8832
2442	0.8834
2433	0.8837
2424	0.884
2415	0.8843
2406	0.8842
2397	0.884
2388	0.8832
2379	0.8811
2370	0.8792
2361	0.8778
2352	0.8775
2343	0.8794
2334	0.8816
2325	0.884
2316	0.8804
2307	0.8771
2298	0.8768
2289	0.8807
2280	0.8818
2271	0.8827
2262	0.8836
2253	0.8841
2244	0.8845
2235	0.8849
2226	0.8854
2217	0.8857
2208	0.8859
2199	0.886
2190	0.8861
2181	0.8863
2172	0.8866
2163	0.8868
2154	0.8871
2145	0.8875
2136	0.8884
2127	0.8892
2118	0.89
2109	0.8905
2100	0.891
2091	0.8918
2082	0.8927
2073	0.8933
2064	0.8938
2055	0.8942
2046	0.8943
2037	0.8957
2028	0.8971
2019	0.8975
2010	0.8978
2001	0.8981
1992	0.8945
1983	0.8724
1974	0.8725
1965	0.8711
1956	0.8697
1947	0.8627
1938	0.8498
1929	0.7851
1920	0.857
1911	0.8657
1902	0.8696
1893	0.87
1884	0.8705
1875	0.8682
1866	0.8528
1857	0.8065
1848	0.8578
1839	0.867
1830	0.8699
1821	0.8727
1812	0.8733
1803	0.8735
1794	0.8668
1785	0.8305
1776	0.8517
1767	0.8675
1758	0.8692
1749	0.8687
1740	0.8645
1731	0.8659
1722	0.8701
1713	0.8718
1704	0.8732
1695	0.8724
1686	0.869
1677	0.8586
1668	0.8356
1659	0.8374
1650	0.8786
1641	0.8871
1632	0.8862
1623	0.8838
1614	0.8844
1605	0.8831
1596	0.8798
1587	0.8733
1578	0.8555
1569	0.5338
1560	0.5681
1551	0.8114
1542	0.8257
1533	0.8537
1524	0.8656
1515	0.8674
1506	0.8666
1497	0.8582
1488	0.7575
1479	0.8119
1470	0.8468
1461	0.8405
1452	0.8056
1443	0.6722
1434	0.0128
1425	0.669
1416	0.0835
1407	0.4056
1398	0.6654
1389	0.7365
1380	0.8553
1371	0.8686
1362	0.8667
1353	0.8673
1344	0.8675
1335	0.8704
1326	0.8725
1317	0.8741
1308	0.8702
1299	0.8586
1290	0.8432
1281	0.8553
1272	0.8421
1263	0.8385
1254	0.7969
1245	0.8543
1236	0.8703
1227	0.8571
1218	0.8112
1209	0.8389
1200	0.7787
1191	0.3398
1182	0.7743
1173	0.7668
1164	0.3342
1155	0.2495
1146	0.7211
1137	0.8187
1128	0.8538
1119	0.8745
1110	0.8737
1101	0.8653
1092	0.8486
1083	0.7518
1074	0.8403
1065	0.8541
1056	0.8399
1047	0.5952
1038	0.7335
1029	0.8078
1020	0.8411
1011	0.8224
1002	0.8413
993	0.858
984	0.8599
975	0.8556
966	0.8335
957	0.8394
948	0.857
939	0.8583
930	0.8658
921	0.8687
912	0.8647
903	0.8497
894	0.8503
885	0.85
876	0.8574
867	0.863
858	0.8653
849	0.8648
840	0.8467
831	0.8336
822	0.8354
813	0.8289
804	0.7697
795	0.3436
786	0.1932
777	0.227
768	0.5947
759	0.7476
750	0.7971
741	0.7951
732	0.6841
723	0.8392
714	0.8662
705	0.8614
696	0.1225
687	0.8237
678	0.8686
669	0.8899
660	0.8809
651	0.8759
642	0.8807
633	0.8825
624	0.8839
615	0.8812
606	0.8747
597	0.8731
588	0.8718
579	0.8685
570	0.8663
561	0.866
552	0.8656
543	0.8607
534	0.8528
525	0.8071
516	0.6945
507	0.7351
498	0.778
489	0.7817
480	0.7893
471	0.8313
462	0.8346
453	0.8373
444	0.8413
435	0.8477
426	0.8549
417	0.8608
408	0.8665
399	0.8715
390	0.8764
381	0.8817
