Infrared Spectrum: PHENOL, 2,6-DICHLORO-
Formula: C6 H4 Cl2 O
CAS: 87-65-0
State: SOLUTION (10% IN CCl4 FOR 3800-1330, 10% IN CS2 FOR 1330-450 CM^-^1)
Class: COBLENTZ III
Instrument: DOW KBr FOREPRISM-GRATING
Instrument parameters: BLAZED AT 3.5, 12.0, 20.0 MICRON, CHANGED AT 5.0, 7.5, 14.9 MICRON
Sampling: TRANSMISSION
Path length: 0.011, 0.011 CM
Resolution: 4
Origin: DOW CHEMICAL COMPANY
1/CM	TRANSMITTANCE
452.229	0.933
460.915	0.956
469.6	0.974
478.286	0.993
486.971	1.006
495.657	1.014
504.343	1.023
513.028	1.033
521.714	1.031
530.399	1.009
539.085	0.379
547.771	1.002
556.456	1.051
565.142	1.062
573.827	1.063
582.513	1.062
591.199	1.046
599.884	0.822
608.57	0.991
617.255	1.052
625.941	1.047
634.627	1.033
643.312	1.01
651.998	0.987
660.683	1.014
669.369	1.046
678.055	1.046
686.74	1.037
695.426	1.012
704.111	0.899
712.797	0.234
721.483	0.966
730.168	1.005
738.854	1.01
747.539	0.97
756.225	0.582
764.911	0.1
773.596	0.244
782.282	0.369
790.967	0.093
799.653	0.553
808.339	0.849
817.024	0.848
825.71	0.876
834.395	0.53
843.081	0.876
851.766	0.858
860.452	0.875
869.138	0.919
877.823	0.952
886.509	0.979
895.194	1.013
903.88	1.043
912.566	1.046
921.251	1.048
929.937	1.043
938.622	1.04
947.308	1.01
955.994	1
964.679	1.046
973.365	1.042
982.05	1.036
990.736	1.047
999.422	1.059
1008.11	1.028
1016.79	1.048
1025.48	1.047
1034.16	1.035
1042.85	1.001
1051.54	0.985
1060.22	0.789
1068.91	0.869
1077.59	0.924
1086.28	0.911
1094.96	0.6869
1103.65	0.485
1112.33	0.82
1121.02	0.804
1129.71	0.743
1138.39	0.392
1147.08	0.295
1155.76	0.503
1164.45	0.042
1173.13	0.051
1181.82	0.331
1190.5	0.837
1199.19	0.957
1207.88	0.941
1216.56	0.776
1225.25	0.791
1233.93	0.575
1242.62	0.01
1251.3	0.755
1259.99	0.751
1268.68	0.21
1277.36	0.298
1286.05	0.952
1294.73	0.96
1303.42	0.838
1312.1	0.815
1320.79	0.4428
1329.47	0.0991
1338.16	0.818
1346.85	0.947
1355.53	0.978
1364.22	0.994
1372.9	0.989
1381.59	0.99
1390.27	0.987
1398.96	0.963
1407.64	0.971
1416.33	0.952
1425.02	0.838
1433.7	0.691
1442.39	0.119
1451.07	0.1471
1459.76	0.036
1468.44	0.105
1477.13	0.132
1485.82	0.6181
1494.5	0.71
1503.19	0.769
1511.87	0.774
1520.56	0.719
1529.24	0.674
1537.93	0.564
1546.61	0.51
1555.3	0.533
1563.99	0.576
1572.67	0.5179
1581.36	0.227
1590.04	0.594
1598.73	0.829
1607.41	0.914
1616.1	0.963
1624.78	0.99
1633.47	0.995
1642.16	0.986
1650.84	0.962
1659.53	0.983
1668.21	1.001
1676.9	1.012
1685.58	1.013
1694.27	1.008
1702.96	1.006
1711.64	1.008
1720.33	1.013
1729.01	1.01
1737.7	1.01
1746.38	1.01
1755.07	1.013
1763.75	1.005
1772.44	0.983
1781.13	0.974
1789.81	1.005
1798.5	1.01
1807.18	1.009
1815.87	1.009
1824.55	1
1833.24	0.976
1841.92	0.936
1850.61	0.986
1859.3	0.997
1867.98	0.998
1876.67	1.005
1885.35	1.005
1894.04	0.986
1902.72	0.937
1911.41	0.993
1920.1	1.008
1928.78	1.009
1937.47	1.012
1946.15	1.017
1954.84	1.014
1963.52	1.01
1972.21	1.01
1980.89	1.009
1989.58	1.006
1998.27	0.991
2006.95	0.991
2015.64	0.998
2024.32	1.002
2033.01	0.998
2041.69	1
2050.38	0.994
2059.06	0.993
2067.75	0.994
2076.44	0.998
2085.12	0.997
2093.81	0.995
2102.49	0.995
2111.18	1.0011
2119.86	1.005
2128.55	1.006
2137.23	1.006
2145.92	1.006
2154.61	1.005
2163.29	1.005
2171.98	1.005
2180.66	1.005
2189.35	1.005
2198.03	1.004
2206.72	1.001
2215.41	0.9999
2224.09	0.9969
2232.78	0.993
2241.46	0.991
2250.15	0.987
2258.83	0.982
2267.52	0.976
2276.2	0.968
2284.89	0.964
2293.58	0.964
2302.26	0.9681
2310.95	0.9682
2319.63	0.9782
2328.32	0.972
2337	0.9909
2345.69	0.989
2354.37	0.998
2363.06	1
2371.75	0.9939
2380.43	0.991
2389.12	0.9909
2397.8	0.9859
2406.49	0.982
2415.17	0.9811
2423.86	0.9971
2432.55	0.997
2441.23	1.0001
2449.92	1.001
2458.6	0.998
2467.29	0.99
2475.97	0.9899
2484.66	0.9829
2493.34	0.9747
2502.03	0.9559
2510.72	0.9796
2519.4	0.993
2528.09	0.993
2536.77	0.993
2545.46	0.9928
2554.14	0.987
2562.83	0.9953
2571.51	1.001
2580.2	1.001
2588.89	1.001
2597.57	1.001
2606.26	1.0009
2614.94	0.998
2623.63	0.997
2632.31	0.9899
2641	0.9863
2649.69	0.9982
2658.37	1
2667.06	1
2675.74	1
2684.43	1.0009
2693.11	0.9979
2701.8	0.9998
2710.48	1
2719.17	1.0001
2727.86	1.001
2736.54	1.001
2745.23	1.001
2753.91	1.004
2762.6	1.0038
2771.28	1.001
2779.97	1
2788.65	1.001
2797.34	1.001
2806.03	1.001
2814.71	1.002
2823.4	1.002
2832.08	0.9975
2840.77	0.987
2849.45	0.9914
2858.14	1.001
2866.83	1.001
2875.51	0.9997
2884.2	0.9949
2892.88	0.9869
2901.57	0.9847
2910.25	0.9833
2918.94	0.9914
2927.62	1
2936.31	1.001
2945	1.001
2953.68	1.001
2962.37	1.001
2971.05	1.001
2979.74	1.0008
2988.42	0.998
2997.11	0.9925
3005.79	0.983
3014.48	0.983
3023.17	0.983
3031.85	0.9777
3040.54	0.9758
3049.22	0.974
3057.91	0.9705
3066.59	0.9534
3075.28	0.9182
3083.97	0.9578
3092.65	0.979
3101.34	0.982
3110.02	0.982
3118.71	0.982
3127.39	0.983
3136.08	0.983
3144.76	0.985
3153.45	0.985
3162.14	0.9862
3170.82	0.991
3179.51	0.994
3188.19	0.9972
3196.88	0.9984
3205.56	0.998
3214.25	0.998
3222.93	0.998
3231.62	0.9978
3240.31	0.997
3248.99	0.995
3257.68	0.9984
3266.36	1.001
3275.05	1.001
3283.73	1.0012
3292.42	1.002
3301.11	1.002
3309.79	1.004
3318.48	1.0036
3327.16	1.001
3335.85	1.001
3344.53	1.001
3353.22	1
3361.9	1
3370.59	1
3379.28	0.9995
3387.96	0.998
3396.65	0.995
3405.33	0.991
3414.02	0.9868
3422.7	0.9828
3431.39	0.976
3440.07	0.9675
3448.76	0.958
3457.45	0.9418
3466.13	0.9301
3474.82	0.8978
3483.5	0.8583
3492.19	0.8126
3500.87	0.7668
3509.56	0.6686
3518.25	0.4787
3526.93	0.1363
3535.62	0.024
3544.3	0.0656
3552.99	0.4375
3561.67	0.7973
3570.36	0.9176
3579.04	0.956
3587.73	0.9768
3596.42	0.987
3605.1	0.9903
3613.79	0.991
3622.47	0.9943
3631.16	0.995
3639.84	0.998
3648.53	1.001
3657.21	0.998
3665.9	0.997
3674.59	0.994
3683.27	0.994
3691.96	0.997
3700.64	1.001
3709.33	1.001
3718.01	1.0002
3726.7	1.002
3735.38	1.0003
3744.07	1.0017
3752.76	0.9977
3761.44	1.0028
3770.13	0.9961
3778.81	0.9551
