Infrared Spectrum: 2,6-DIMETHYL ANILINE
Formula: C8 H11 N
CAS: 87-62-7
State: SOLUTION (10% IN CCl4 FOR 5000-1350 CM^-^1, 10% IN CS2 FOR 1350-625 CM^-^1)
Class: COBLENTZ
Instrument: Not specified, most likely a prism, grating, or hybrid spectrometer.
Sampling: TRANSMISSION
Path length: 0.01 CM, 0.01 CM
Resolution: 4
Origin: DOW CHEMICAL COMPANY
MICROMETERS	TRANSMITTANCE
2.028	0.803
2.06716	0.808
2.10631	0.811
2.14547	0.811
2.18462	0.821
2.22378	0.821
2.26293	0.814
2.30209	0.814
2.34125	0.821
2.3804	0.829
2.41956	0.827
2.45871	0.826
2.49787	0.827
2.53703	0.827
2.57618	0.824
2.61534	0.834
2.65449	0.845
2.69365	0.848
2.7328	0.852
2.77196	0.85
2.81112	0.819
2.85027	0.695
2.88943	0.63
2.92858	0.627
2.96774	0.811
3.00689	0.842
3.04605	0.852
3.08521	0.84
3.12436	0.83
3.16352	0.848
3.20267	0.822
3.24183	0.725
3.28099	0.595
3.32014	0.562
3.3593	0.53
3.39845	0.458
3.43761	0.413
3.47676	0.512
3.51592	0.721
3.55508	0.847
3.59423	0.869
3.63339	0.852
3.67254	0.855
3.7117	0.892
3.75085	0.91
3.79001	0.881
3.82917	0.91
3.86832	0.912
3.90748	0.917
3.94663	0.92
3.98579	0.917
4.02495	0.931
4.0641	0.921
4.10326	0.934
4.14241	0.943
4.18157	0.928
4.22072	0.92
4.25988	0.918
4.29904	0.918
4.33819	0.921
4.37735	0.93
4.4165	0.936
4.45566	0.944
4.49481	0.947
4.53397	0.946
4.57313	0.943
4.61228	0.946
4.65144	0.938
4.69059	0.941
4.72975	0.941
4.7689	0.938
4.80806	0.941
4.84722	0.938
4.88637	0.938
4.92553	0.938
4.96468	0.938
5.00384	0.941
5.043	0.943
5.08215	0.943
5.12131	0.934
5.16046	0.931
5.19962	0.925
5.23877	0.905
5.27793	0.868
5.31709	0.928
5.35624	0.93
5.3954	0.915
5.43455	0.863
5.47371	0.93
5.51286	0.93
5.55202	0.913
5.59118	0.869
5.63033	0.891
5.66949	0.923
5.70864	0.917
5.7478	0.92
5.78696	0.92
5.82611	0.905
5.86527	0.889
5.90442	0.871
5.94358	0.84
5.98273	0.786
6.02189	0.707
6.06105	0.56
6.1002	0.334
6.13936	0.115
6.17851	0.141
6.21767	0.388
6.25682	0.513
6.29598	0.543
6.33514	0.552
6.37429	0.533
6.41345	0.489
6.4526	0.469
6.49176	0.515
6.53092	0.559
6.57007	0.583
6.60923	0.6
6.64838	0.564
6.68754	0.336
6.72669	0.022
6.76585	0.147
6.80501	0.422
6.84416	0.508
6.88332	0.338
6.92247	0.37
6.96163	0.445
7.00078	0.655
7.03994	0.845
7.0791	0.863
7.11825	0.861
7.15741	0.852
7.19656	0.749
7.23572	0.666
7.27488	0.874
7.31403	0.887
7.35319	0.921
7.39234	0.92
7.4315	0.918
7.47065	0.9
7.50981	0.84
7.54897	0.7
7.58812	0.72
7.62728	0.785
7.66643	0.8
7.70559	0.759
7.74474	0.616
7.7839	0.4
7.82306	0.195
7.86221	0.478
7.90137	0.695
7.94052	0.801
7.97968	0.843
8.01884	0.855
8.05799	0.721
8.09715	0.582
8.1363	0.73
8.17546	0.826
8.21461	0.858
8.25377	0.871
8.29293	0.873
8.33208	0.874
8.37124	0.874
8.41039	0.868
8.44955	0.861
8.4887	0.855
8.52786	0.801
8.56702	0.826
8.60617	0.822
8.64533	0.826
8.68448	0.806
8.72364	0.765
8.7628	0.73
8.80195	0.773
8.84111	0.821
8.88026	0.835
8.91942	0.842
8.95857	0.832
8.99773	0.796
9.03689	0.681
9.07604	0.562
9.1152	0.502
9.15435	0.479
9.19351	0.508
9.23266	0.645
9.27182	0.769
9.31098	0.819
9.35013	0.843
9.38929	0.863
9.42844	0.868
9.4676	0.871
9.50676	0.868
9.54591	0.861
9.58507	0.853
9.62422	0.826
9.66338	0.756
9.70253	0.692
9.74169	0.796
9.78085	0.834
9.82	0.834
9.85916	0.79
9.89831	0.695
9.93747	0.648
9.97662	0.741
10.0158	0.764
10.0549	0.746
10.0941	0.707
10.1332	0.752
10.1724	0.832
10.2116	0.871
10.2507	0.881
10.2899	0.887
10.329	0.892
10.3682	0.892
10.4073	0.889
10.4465	0.879
10.4856	0.86
10.5248	0.809
10.564	0.813
10.6031	0.86
10.6423	0.874
10.6814	0.874
10.7206	0.873
10.7597	0.869
10.7989	0.868
10.8381	0.863
10.8772	0.856
10.9164	0.85
10.9555	0.842
10.9947	0.834
11.0338	0.817
11.073	0.801
11.1121	0.78
11.1513	0.749
11.1905	0.731
11.2296	0.736
11.2688	0.746
11.3079	0.743
11.3471	0.736
11.3862	0.725
11.4254	0.712
11.4645	0.699
11.5037	0.684
11.5429	0.669
11.582	0.656
11.6212	0.643
11.6603	0.642
11.6995	0.642
11.7386	0.655
11.7778	0.673
11.8169	0.691
11.8561	0.691
11.8953	0.679
11.9344	0.669
11.9736	0.669
12.0127	0.669
12.0519	0.669
12.091	0.665
12.1302	0.663
12.1693	0.663
12.2085	0.663
12.2477	0.661
12.2868	0.66
12.326	0.656
12.3651	0.655
12.4043	0.652
12.4434	0.647
12.4826	0.642
12.5218	0.635
12.5609	0.63
12.6001	0.624
12.6392	0.616
12.6784	0.611
12.7175	0.603
12.7567	0.593
12.7958	0.585
12.835	0.567
12.8742	0.544
12.9133	0.512
12.9525	0.468
12.9916	0.409
13.0308	0.318
13.0699	0.201
13.1091	0.086
13.1482	0.011
13.1874	0
13.2266	0.019
13.2657	0.11
13.3049	0.252
13.344	0.339
13.3832	0.395
13.4223	0.416
13.4615	0.417
13.5006	0.391
13.5398	0.346
13.579	0.279
13.6181	0.226
13.6573	0.201
13.6964	0.261
13.7356	0.354
13.7747	0.448
13.8139	0.504
13.853	0.533
13.8922	0.551
13.9314	0.554
13.9705	0.556
14.0097	0.552
14.0488	0.547
14.088	0.541
14.1271	0.534
14.1663	0.528
14.2054	0.523
14.2446	0.513
14.2838	0.508
14.3229	0.504
14.3621	0.495
14.4012	0.491
14.4404	0.482
14.4795	0.476
14.5187	0.469
14.5579	0.461
14.597	0.452
14.6362	0.443
14.6753	0.439
14.7145	0.432
14.7536	0.43
14.7928	0.434
14.8319	0.44
14.8711	0.43
14.9103	0.417
14.9494	0.404
14.9886	0.4
15.0277	0.38
15.0669	0.369
15.106	0.359
15.1452	0.344
15.1843	0.333
15.2235	0.32
15.2627	0.312
15.3018	0.305
15.341	0.3
15.3801	0.297
15.4193	0.292
15.4584	0.287
15.4976	0.284
15.5367	0.282
15.5759	0.276
15.6151	0.271
15.6542	0.269
15.6934	0.263
15.7325	0.261
15.7717	0.258
15.8108	0.253
15.85	0.252
15.8891	0.253
