Infrared Spectrum: BUTADIENE, HEXACHLORO-
Formula: C4 Cl6
CAS: 87-68-3
State: SOLUTION (10% IN CCl4 FOR 3800-1340, 10% IN CS2 FOR 1340-400 CM^-^1)
Melting point: -19 C
Boiling point: 210-220 C
Class: COBLENTZ III
Instrument: PERKIN-ELMER 180
Sampling: TRANSMISSION
Path length: 0.009, 0.009 CM
Resolution: 4
Origin: DOW CHEMICAL COMPANY
1/CM	TRANSMITTANCE
251.372	0.005
261.506	0.005
271.639	0.006
281.773	0.006
291.907	0.01
302.041	0.025
312.174	0.041
322.308	0.066
332.442	0.11
342.576	0.173
352.709	0.24
362.843	0.284
372.977	0.24
383.11	0.0471
393.244	0.052
403.378	0.3159
413.512	0.642
423.645	0.759
433.779	0.824
443.913	0.864
454.047	0.903
464.18	0.935
474.314	0.954
484.448	0.973
494.581	0.979
504.715	0.986
514.849	0.994
524.983	1
535.116	0.987
545.25	0.976
555.384	0.982
565.517	0.985
575.651	0.987
585.785	0.996
595.919	1.002
606.052	1
616.186	0.993
626.32	0.983
636.454	0.932
646.587	0.502
656.721	0.631
666.855	0.926
676.988	0.979
687.122	0.995
697.256	0.997
707.39	1.004
717.523	1.005
727.657	1.004
737.791	1
747.925	0.984
758.058	0.942
768.192	0.8571
778.326	0.6151
788.459	0.3691
798.593	0.5808
808.727	0.711
818.861	0.904
828.994	0.872
839.128	0.619
849.262	0.123
859.396	0.646
869.529	0.852
879.663	0.91
889.797	0.933
899.93	0.966
910.064	0.959
920.198	0.901
930.332	0.726
940.465	0.543
950.599	0.893
960.733	0.839
970.866	0.4624
981	0.182
991.134	0.7899
1001.27	0.951
1011.4	0.968
1021.54	0.969
1031.67	0.97
1041.8	0.98
1051.94	0.991
1062.07	0.992
1072.2	0.991
1082.34	0.989
1092.47	0.985
1102.6	0.982
1112.74	0.979
1122.87	0.973
1133.01	0.961
1143.14	0.949
1153.27	0.868
1163.41	0.741
1173.54	0.783
1183.67	0.8788
1193.81	0.974
1203.94	0.982
1214.08	0.98
1224.21	0.969
1234.34	0.976
1244.48	0.986
1254.61	0.992
1264.74	0.993
1274.88	0.998
1285.01	0.998
1295.15	0.996
1305.28	0.992
1315.41	0.988
1325.55	0.993
1335.68	0.996
1345.81	0.994
1355.95	0.991
1366.08	0.992
1376.22	0.993
1386.35	0.993
1396.48	0.989
1406.62	0.989
1416.75	0.987
1426.88	0.984
1437.02	0.983
1447.15	0.982
1457.29	0.976
1467.42	0.967
1477.55	0.951
1487.69	0.92
1497.82	0.875
1507.95	0.816
1518.09	0.762
1528.22	0.684
1538.36	0.559
1548.49	0.472
1558.62	0.338
1568.76	0.5361
1578.89	0.718
1589.02	0.781
1599.16	0.792
1609.29	0.82
1619.42	0.935
1629.56	0.929
1639.69	0.966
1649.83	0.979
1659.96	0.985
1670.09	0.991
1680.23	0.993
1690.36	0.995
1700.49	0.997
1710.63	0.998
1720.76	1.001
1730.9	1.002
1741.03	1.003
1751.16	1.004
1761.3	1.005
1771.43	1.005
1781.56	1.004
1791.7	1.002
1801.83	1.002
1811.97	1.002
1822.1	1.001
1832.23	1
1842.37	1
1852.5	1
1862.63	1.001
1872.77	1.002
1882.9	1.002
1893.04	1.001
1903.17	0.998
1913.3	0.997
1923.44	1
1933.57	1
1943.7	0.998
1953.84	1
1963.97	1
1974.11	0.997
1984.24	0.993
1994.37	0.985
2004.51	0.995
2014.64	0.996
2024.77	0.997
2034.91	0.997
2045.04	0.998
2055.18	0.998
2065.31	0.9998
2075.44	1.002
2085.58	1.002
2095.71	1.002
2105.84	1.001
2115.98	1.0013
2126.11	1.002
2136.24	1.0003
2146.38	1.002
2156.51	1.002
2166.65	1.001
2176.78	1
2186.91	1.0007
2197.05	1.001
2207.18	1
2217.31	0.998
2227.45	0.9973
2237.58	0.9968
2247.72	0.9913
2257.85	0.9839
2267.98	0.98
2278.12	0.98
2288.25	0.98
2298.38	0.98
2308.52	0.9836
2318.65	0.986
2328.79	0.987
2338.92	0.987
2349.05	0.9915
2359.19	0.994
2369.32	1.0015
2379.45	1.001
2389.59	1.0025
2399.72	1.002
2409.86	1.001
2419.99	1.001
2430.12	1.003
2440.26	1.0021
2450.39	1.0006
2460.52	1
2470.66	1
2480.79	1
2490.93	1
2501.06	1
2511.19	1
2521.33	1
2531.46	1
2541.59	1
2551.73	1
2561.86	0.998
2572	0.998
2582.13	0.998
2592.26	0.998
2602.4	0.998
2612.53	0.998
2622.66	0.998
2632.8	0.998
2642.93	0.998
2653.06	0.998
2663.2	0.998
2673.33	0.997
2683.47	0.996
2693.6	0.995
2703.73	0.994
2713.87	0.993
2724	0.9925
2734.13	0.991
2744.27	0.991
2754.4	0.991
2764.54	0.989
2774.67	0.987
2784.8	0.988
2794.94	0.991
2805.07	0.9886
2815.2	0.9871
2825.34	0.987
2835.47	0.9852
2845.61	0.983
2855.74	0.982
2865.87	0.983
2876.01	0.9805
2886.14	0.979
2896.27	0.9773
2906.41	0.976
2916.54	0.9753
2926.68	0.974
2936.81	0.974
2946.94	0.974
2957.08	0.974
2967.21	0.974
2977.34	0.974
2987.48	0.975
2997.61	0.975
3007.75	0.975
3017.88	0.974
3028.01	0.974
3038.15	0.973
3048.28	0.97
3058.41	0.97
3068.55	0.97
3078.68	0.97
3088.82	0.97
3098.95	0.97
3109.08	0.97
3119.22	0.97
3129.35	0.97
3139.48	0.97
3149.62	0.97
3159.75	0.969
3169.88	0.969
3180.02	0.969
3190.15	0.968
3200.29	0.968
3210.42	0.967
3220.55	0.9667
3230.69	0.967
3240.82	0.967
3250.95	0.966
3261.09	0.9658
3271.22	0.965
3281.36	0.9648
3291.49	0.9616
3301.62	0.961
3311.76	0.961
3321.89	0.959
3332.02	0.958
3342.16	0.958
3352.29	0.957
3362.43	0.956
3372.56	0.952
3382.69	0.951
3392.83	0.95
3402.96	0.949
3413.09	0.948
3423.23	0.947
3433.36	0.947
3443.5	0.946
3453.63	0.946
3463.76	0.946
3473.9	0.945
3484.03	0.945
3494.16	0.944
3504.3	0.945
3514.43	0.947
3524.57	0.9489
3534.7	0.9504
3544.83	0.9537
3554.97	0.9556
3565.1	0.958
3575.23	0.9587
3585.37	0.9598
3595.5	0.9673
3605.64	0.9728
3615.77	0.9742
3625.9	0.977
3636.04	0.9804
3646.17	0.9847
3656.3	0.987
3666.44	0.988
3676.57	0.9893
3686.7	0.991
3696.84	0.991
3706.97	0.991
3717.11	0.991
3727.24	0.992
3737.37	0.9919
3747.51	0.989
3757.64	0.992
3767.77	0.992
3777.91	0.994
3788.04	0.992
3798.18	0.993
3808.31	0.9925
3818.44	0.994
3828.58	0.993
3838.71	0.993
3848.84	0.995
3858.98	0.996
3869.11	0.996
3879.25	0.994
3889.38	0.992
3899.51	0.9939
3909.65	0.994
3919.78	0.9922
3929.91	0.993
3940.05	0.992
3950.18	0.992
3960.32	0.992
3970.45	0.992
3980.58	0.992
3990.72	0.992
4000.85	0.992
4010.98	0.991
