Infrared Spectrum: PENTACHLOROPHENOL
Formula: C6 H Cl5 O
CAS: 87-86-5
State: SOLID (MINERAL OIL MULL)
Class: COBLENTZ
Instrument: PERKIN-ELMER
Sampling: TRANSMISSION
Resolution: 4
MICROMETERS	TRANSMITTANCE
2.025	0.203
2.06176	0.206
2.09851	0.215
2.13527	0.218
2.17202	0.226
2.20878	0.229
2.24553	0.235
2.28229	0.238
2.31904	0.241
2.3558	0.252
2.39256	0.264
2.42931	0.27
2.46607	0.276
2.50282	0.29
2.53958	0.304
2.57633	0.307
2.61309	0.316
2.64984	0.319
2.6866	0.331
2.72335	0.337
2.76011	0.356
2.79687	0.37
2.83362	0.386
2.87038	0.4
2.90713	0.337
2.94389	0.209
2.98064	0.171
3.0174	0.221
3.05415	0.264
3.09091	0.298
3.12767	0.316
3.16442	0.324
3.20118	0.337
3.23793	0.34
3.27469	0.334
3.31144	0.313
3.3482	0.235
3.38495	0.195
3.42171	0.177
3.45846	0.148
3.49522	0.131
3.53198	0.224
3.56873	0.434
3.60549	0.51
3.64224	0.538
3.679	0.535
3.71575	0.533
3.75251	0.532
3.78926	0.533
3.82602	0.536
3.86278	0.551
3.89953	0.568
3.93629	0.577
3.97304	0.588
4.0098	0.596
4.04655	0.6
4.08331	0.608
4.12006	0.613
4.15682	0.613
4.19357	0.616
4.23033	0.619
4.26709	0.623
4.30384	0.629
4.3406	0.642
4.37735	0.646
4.41411	0.655
4.45086	0.662
4.48762	0.672
4.52437	0.677
4.56113	0.675
4.59789	0.688
4.63464	0.691
4.6714	0.698
4.70815	0.704
4.74491	0.704
4.78166	0.709
4.81842	0.715
4.85517	0.718
4.89193	0.723
4.92868	0.724
4.96544	0.733
5.0022	0.74
5.03895	0.741
5.07571	0.744
5.11246	0.756
5.14922	0.764
5.18597	0.764
5.22273	0.77
5.25948	0.77
5.29624	0.775
5.333	0.781
5.36975	0.782
5.40651	0.79
5.44326	0.793
5.48002	0.799
5.51677	0.804
5.55353	0.807
5.59028	0.81
5.62704	0.816
5.6638	0.813
5.70055	0.821
5.73731	0.833
5.77406	0.839
5.81082	0.842
5.84757	0.848
5.88433	0.854
5.92108	0.847
5.95784	0.848
5.99459	0.851
6.03135	0.848
6.06811	0.854
6.10486	0.86
6.14162	0.863
6.17837	0.874
6.21513	0.886
6.25188	0.883
6.28864	0.883
6.32539	0.874
6.36215	0.833
6.39891	0.792
6.43566	0.568
6.47242	0.507
6.50917	0.723
6.54593	0.764
6.58268	0.813
6.61944	0.827
6.65619	0.83
6.69295	0.807
6.7297	0.74
6.76646	0.61
6.80322	0.321
6.83997	0.24
6.87673	0.238
6.91348	0.252
6.95024	0.432
6.98699	0.636
7.02375	0.509
7.0605	0.392
7.09726	0.6
7.13402	0.617
7.17077	0.296
7.20753	0.142
7.24428	0.055
7.28104	0.07
7.31779	0.241
7.35455	0.426
7.3913	0.472
7.42806	0.495
7.46481	0.533
7.50157	0.55
7.53833	0.519
7.57508	0.38
7.61184	0.322
7.64859	0.209
7.68535	0.221
7.7221	0.249
7.75886	0.299
7.79561	0.353
7.83237	0.409
7.86913	0.522
7.90588	0.587
7.94264	0.629
7.97939	0.672
8.01615	0.7
8.0529	0.724
8.08966	0.729
8.12641	0.648
8.16317	0.501
8.19992	0.275
8.23668	0.35
8.27344	0.409
8.31019	0.408
8.34695	0.356
8.3837	0.348
8.42046	0.489
8.45721	0.607
8.49397	0.643
8.53072	0.636
8.56748	0.642
8.60424	0.652
8.64099	0.672
8.67775	0.695
8.7145	0.715
8.75126	0.727
8.78801	0.732
8.82477	0.741
8.86152	0.759
8.89828	0.758
8.93503	0.709
8.97179	0.749
9.00855	0.773
9.0453	0.785
9.08206	0.793
9.11881	0.801
9.15557	0.801
9.19232	0.804
9.22908	0.805
9.26583	0.808
9.30259	0.793
9.33935	0.825
9.3761	0.83
9.41286	0.833
9.44961	0.834
9.48637	0.84
9.52312	0.847
9.55988	0.848
9.59663	0.851
9.63339	0.857
9.67015	0.856
9.7069	0.856
9.74366	0.856
9.78041	0.86
9.81717	0.863
9.85392	0.859
9.89068	0.859
9.92743	0.86
9.96419	0.862
10.0009	0.868
10.0377	0.866
10.0745	0.831
10.1112	0.663
10.148	0.628
10.1847	0.703
10.2215	0.74
10.2582	0.772
10.295	0.798
10.3317	0.807
10.3685	0.804
10.4053	0.799
10.442	0.808
10.4788	0.818
10.5155	0.824
10.5523	0.819
10.589	0.798
10.6258	0.799
10.6625	0.819
10.6993	0.83
10.7361	0.84
10.7728	0.851
10.8096	0.856
10.8463	0.854
10.8831	0.857
10.9198	0.862
10.9566	0.873
10.9933	0.885
11.0301	0.888
11.0669	0.891
11.1036	0.894
11.1404	0.896
11.1771	0.899
11.2139	0.9
11.2506	0.9
11.2874	0.908
11.3241	0.912
11.3609	0.911
11.3977	0.905
11.4344	0.908
11.4712	0.911
11.5079	0.896
11.5447	0.828
11.5814	0.814
11.6182	0.767
11.6549	0.842
11.6917	0.883
11.7285	0.9
11.7652	0.914
11.802	0.915
11.8387	0.912
11.8755	0.915
11.9122	0.918
11.949	0.923
11.9857	0.929
12.0225	0.931
12.0593	0.932
12.096	0.92
12.1328	0.87
12.1695	0.773
12.2063	0.735
12.243	0.813
12.2798	0.873
12.3165	0.903
12.3533	0.915
12.3901	0.925
12.4268	0.932
12.4636	0.935
12.5003	0.938
12.5371	0.935
12.5738	0.932
12.6106	0.932
12.6473	0.929
12.6841	0.931
12.7209	0.937
12.7576	0.938
12.7944	0.923
12.8311	0.889
12.8679	0.79
12.9046	0.587
12.9414	0.4
12.9781	0.307
13.0149	0.319
13.0517	0.444
13.0884	0.61
13.1252	0.694
13.1619	0.727
13.1987	0.7
13.2354	0.692
13.2722	0.723
13.3089	0.772
13.3457	0.81
13.3825	0.83
13.4192	0.845
13.456	0.85
13.4927	0.85
13.5295	0.834
13.5662	0.825
13.603	0.821
13.6397	0.805
13.6765	0.785
13.7133	0.762
13.75	0.74
13.7868	0.692
13.8235	0.631
13.8603	0.542
13.897	0.467
13.9338	0.418
13.9705	0.437
14.0073	0.417
14.0441	0.362
14.0808	0.324
14.1176	0.304
14.1543	0.302
14.1911	0.319
14.2278	0.399
14.2646	0.503
14.3013	0.611
14.3381	0.674
14.3748	0.72
14.4116	0.755
14.4484	0.787
14.4851	0.807
14.5219	0.827
14.5586	0.84
14.5954	0.86
14.6321	0.873
14.6689	0.885
14.7056	0.897
14.7424	0.906
14.7792	0.911
14.8159	0.914
14.8527	0.923
14.8894	0.925
14.9262	0.925
14.9629	0.926
14.9997	0.938
15.0364	0.94
15.0732	0.937
15.11	0.946
15.1467	0.943
15.1835	0.951
15.2202	0.946
15.257	0.94
15.2937	0.906
15.3305	0.779
15.3672	0.732
15.404	0.72
15.4408	0.796
15.4775	0.848
15.5143	0.888
