Infrared Spectrum: PYRIDINE-4-ALDEHYDE
Formula: C6 H5 N O
CAS: 872-85-5
State: SOLUTION (10% CCl4 FOR 5000-1330, 10% CS2 FOR 1330-625 CM^-^1)
Class: COBLENTZ
Instrument: Not specified, most likely a prism, grating, or hybrid spectrometer.
Sampling: TRANSMISSION
Path length: 0.0125 CM, 0.0123 CM
Resolution: 4
Origin: DOW CHEMICAL COMPANY
MICROMETERS	TRANSMITTANCE
2.048	0.904
2.08916	0.899
2.13031	0.887
2.17147	0.895
2.21263	0.901
2.25378	0.904
2.29494	0.895
2.3361	0.902
2.37725	0.89
2.41841	0.899
2.45957	0.906
2.50072	0.909
2.54188	0.907
2.58304	0.909
2.62419	0.909
2.66535	0.897
2.70651	0.892
2.74766	0.901
2.78882	0.894
2.82997	0.885
2.87113	0.863
2.91229	0.844
2.95344	0.882
2.9946	0.88
3.03576	0.882
3.07691	0.878
3.11807	0.872
3.15923	0.863
3.20038	0.791
3.24154	0.662
3.2827	0.641
3.32385	0.803
3.36501	0.831
3.40617	0.827
3.44732	0.725
3.48848	0.501
3.52964	0.503
3.57079	0.733
3.61195	0.66
3.65311	0.65
3.69426	0.813
3.73542	0.88
3.77658	0.894
3.81773	0.899
3.85889	0.904
3.90005	0.902
3.9412	0.907
3.98236	0.907
4.02352	0.909
4.06467	0.906
4.10583	0.902
4.14698	0.894
4.18814	0.887
4.2293	0.897
4.27045	0.897
4.31161	0.887
4.35277	0.899
4.39392	0.907
4.43508	0.918
4.47624	0.919
4.51739	0.914
4.55855	0.926
4.59971	0.919
4.64086	0.911
4.68202	0.914
4.72318	0.926
4.76433	0.924
4.80549	0.919
4.84665	0.902
4.8878	0.909
4.92896	0.883
4.97012	0.904
5.01127	0.901
5.05243	0.901
5.09359	0.873
5.13474	0.812
5.1759	0.889
5.21706	0.909
5.25821	0.911
5.29937	0.899
5.34053	0.878
5.38168	0.858
5.42284	0.878
5.46399	0.89
5.50515	0.895
5.54631	0.883
5.58746	0.87
5.62862	0.825
5.66978	0.778
5.71093	0.713
5.75209	0.535
5.79325	0.133
5.8344	0.08
5.87556	0.329
5.91672	0.59
5.95787	0.523
5.99903	0.549
6.04019	0.767
6.08134	0.832
6.1225	0.822
6.16366	0.786
6.20481	0.711
6.24597	0.522
6.28713	0.505
6.32828	0.44
6.36944	0.17
6.4106	0.389
6.45175	0.462
6.49291	0.561
6.53407	0.619
6.57522	0.679
6.61638	0.728
6.65754	0.757
6.69869	0.774
6.73985	0.832
6.781	0.854
6.82216	0.839
6.86332	0.849
6.90447	0.854
6.94563	0.819
6.98679	0.74
7.02794	0.469
7.0691	0.196
7.11026	0.631
7.15141	0.658
7.19257	0.406
7.23373	0.636
7.27488	0.851
7.31604	0.873
7.3572	0.868
7.39835	0.861
7.43951	0.861
7.48067	0.764
7.52182	0.474
7.56298	0.465
7.60414	0.825
7.64529	0.878
7.68645	0.882
7.72761	0.88
7.76876	0.878
7.80992	0.878
7.85108	0.851
7.89223	0.817
7.93339	0.819
7.97455	0.795
8.0157	0.769
8.05686	0.691
8.09802	0.477
8.13917	0.168
8.18033	0.221
8.22148	0.168
8.26264	0.412
8.3038	0.351
8.34495	0.126
8.38611	0.109
8.42727	0.481
8.46842	0.735
8.50958	0.788
8.55074	0.846
8.59189	0.877
8.63305	0.887
8.67421	0.899
8.71536	0.909
8.75652	0.914
8.79768	0.919
8.83883	0.914
8.87999	0.911
8.92115	0.906
8.9623	0.899
9.00346	0.88
9.04462	0.872
9.08577	0.882
9.12693	0.889
9.16809	0.89
9.20924	0.877
9.2504	0.846
9.29156	0.8
9.33271	0.822
9.37387	0.802
9.41503	0.641
9.45618	0.656
9.49734	0.861
9.53849	0.877
9.57965	0.878
9.62081	0.889
9.66196	0.894
9.70312	0.899
9.74428	0.889
9.78543	0.89
9.82659	0.899
9.86775	0.88
9.9089	0.846
9.95006	0.747
9.99122	0.706
10.0324	0.776
10.0735	0.66
10.1147	0.569
10.1558	0.846
10.197	0.875
10.2382	0.887
10.2793	0.899
10.3205	0.901
10.3616	0.899
10.4028	0.892
10.4439	0.89
10.4851	0.899
10.5263	0.904
10.5674	0.909
10.6086	0.909
10.6497	0.909
10.6909	0.902
10.732	0.902
10.7732	0.895
10.8143	0.89
10.8555	0.889
10.8967	0.887
10.9378	0.882
10.979	0.872
11.0201	0.866
11.0613	0.87
11.1024	0.87
11.1436	0.861
11.1848	0.846
11.2259	0.829
11.2671	0.81
11.3082	0.779
11.3494	0.757
11.3905	0.733
11.4317	0.703
11.4729	0.687
11.514	0.679
11.5552	0.672
11.5963	0.662
11.6375	0.648
11.6786	0.641
11.7198	0.633
11.7609	0.627
11.8021	0.626
11.8433	0.605
11.8844	0.556
11.9256	0.43
11.9667	0.278
12.0079	0.196
12.049	0.331
12.0902	0.525
12.1314	0.61
12.1725	0.638
12.2137	0.639
12.2548	0.605
12.296	0.523
12.3371	0.378
12.3783	0.213
12.4195	0.061
12.4606	0.005
12.5018	0.015
12.5429	0.143
12.5841	0.312
12.6252	0.474
12.6664	0.544
12.7076	0.581
12.7487	0.619
12.7899	0.653
12.831	0.68
12.8722	0.697
12.9133	0.704
12.9545	0.716
12.9956	0.728
13.0368	0.747
13.078	0.757
13.1191	0.762
13.1603	0.767
13.2014	0.776
13.2426	0.781
13.2837	0.786
13.3249	0.793
13.3661	0.8
13.4072	0.802
13.4484	0.802
13.4895	0.802
13.5307	0.802
13.5718	0.795
13.613	0.781
13.6542	0.767
13.6953	0.733
13.7365	0.68
13.7776	0.651
13.8188	0.65
13.8599	0.68
13.9011	0.703
13.9422	0.711
13.9834	0.715
14.0246	0.711
14.0657	0.703
14.1069	0.691
14.148	0.67
14.1892	0.651
14.2303	0.638
14.2715	0.631
14.3127	0.638
14.3538	0.645
14.395	0.646
14.4361	0.639
14.4773	0.633
14.5184	0.624
14.5596	0.616
14.6008	0.605
14.6419	0.598
14.6831	0.587
14.7242	0.571
14.7654	0.559
14.8065	0.549
14.8477	0.532
14.8888	0.515
14.93	0.481
14.9712	0.426
15.0123	0.392
15.0535	0.387
15.0946	0.402
15.1358	0.416
15.1769	0.412
15.2181	0.387
15.2593	0.36
15.3004	0.331
15.3416	0.281
15.3827	0.215
15.4239	0.141
15.465	0.075
15.5062	0.04
15.5474	0.039
15.5885	0.073
15.6297	0.122
15.6708	0.172
15.712	0.211
15.7531	0.24
15.7943	0.261
15.8354	0.276
15.8766	0.283
15.9178	0.255
