Infrared Spectrum: 4,7-METHANOINDAN-2,5-DICARBOXYLIC ACID, HEXAHYDRO-
Formula: C12 H16 O4
CAS: 87324-44-5
State: SOLID (SPLIT MULL), FLUOROLUBE FOR 3800-1330 CM^-^1, NUJOL FOR 1330-400 CM^-^1
Class: COBLENTZ III
Instrument: BECKMAN IR-9 (GRATING)
Instrument parameters: ORDER CHANGES: 670, 1200, 2000 CM^-^1
Sampling: TRANSMISSION
Resolution: 2
Origin: DOW CHEMICAL COMPANY
1/CM	TRANSMITTANCE
402	0.6935
411	0.6601
420	0.6392
429	0.6395
438	0.6306
447	0.6123
456	0.6946
465	0.6819
474	0.7218
483	0.8145
492	0.8484
501	0.8483
510	0.7553
519	0.8444
528	0.8845
537	0.8983
546	0.8193
555	0.8784
564	0.8605
573	0.7998
582	0.8777
591	0.8862
600	0.8465
609	0.8752
618	0.876
627	0.8607
636	0.833
645	0.7325
654	0.5872
663	0.4693
672	0.5215
681	0.554
690	0.6448
699	0.5375
708	0.6222
717	0.5558
726	0.5073
735	0.6016
744	0.5623
753	0.6894
762	0.6975
771	0.7111
780	0.7131
789	0.7168
798	0.6483
807	0.6222
816	0.6233
825	0.5852
834	0.4805
843	0.5205
852	0.5073
861	0.4472
870	0.4023
879	0.3989
888	0.3264
897	0.271
906	0.1746
915	0.1176
924	0.0867
933	0.0806
942	0.098
951	0.1706
960	0.238
969	0.2942
978	0.3287
987	0.4367
996	0.4993
1005	0.4797
1014	0.467
1023	0.5048
1032	0.5247
1041	0.6439
1050	0.6569
1059	0.6532
1068	0.6038
1077	0.6157
1086	0.601
1095	0.5179
1104	0.5636
1113	0.5543
1122	0.4853
1131	0.4343
1140	0.4183
1149	0.3247
1158	0.2945
1167	0.237
1176	0.1941
1185	0.2405
1194	0.2063
1203	0.1208
1212	0.0501
1221	0.0229
1230	0.013
1239	0.0128
1248	0.0146
1257	0.1524
1266	0.1328
1275	0.0774
1284	0.067
1293	0.1133
1302	0.0602
1311	0.0996
1320	0.1
1329	0.3222
1338	0.5512
1347	0.5508
1356	0.6249
1365	0.6861
1374	0.7094
1383	0.7019
1392	0.6746
1401	0.6217
1410	0.494
1419	0.4251
1428	0.5024
1437	0.6453
1446	0.6961
1455	0.6654
1464	0.6421
1473	0.7154
1482	0.79
1491	0.8268
1500	0.8313
1509	0.8325
1518	0.8328
1527	0.8307
1536	0.8281
1545	0.8239
1554	0.819
1563	0.8078
1572	0.8005
1581	0.7922
1590	0.7745
1599	0.7553
1608	0.7326
1617	0.7082
1626	0.6781
1635	0.6438
1644	0.6105
1653	0.5679
1662	0.4881
1671	0.374
1680	0.2714
1689	0.1333
1698	0.0688
1707	0.0915
1716	0.2769
1725	0.53
1734	0.6656
1743	0.735
1752	0.7928
1761	0.8732
1770	0.8832
1779	0.8863
1788	0.884
1797	0.8802
1806	0.8791
1815	0.875
1824	0.8746
1833	0.8736
1842	0.8725
1851	0.872
1860	0.8718
1869	0.8721
1878	0.8749
1887	0.8775
1896	0.8786
1905	0.8796
1914	0.8801
1923	0.88
1932	0.8806
1941	0.8811
1950	0.881
1959	0.8805
1968	0.8795
1977	0.8751
1986	0.8706
1995	0.8568
2004	0.8723
2013	0.8712
2022	0.8692
2031	0.867
2040	0.8639
2049	0.8605
2058	0.8566
2067	0.8527
2076	0.8486
2085	0.8445
2094	0.8406
2103	0.8362
2112	0.8318
2121	0.8275
2130	0.8231
2139	0.8184
2148	0.813
2157	0.8084
2166	0.8042
2175	0.7994
2184	0.7951
2193	0.7922
2202	0.7907
2211	0.7885
2220	0.7828
2229	0.7765
2238	0.7706
2247	0.7644
2256	0.7576
2265	0.751
2274	0.7443
2283	0.7374
2292	0.7299
2301	0.7235
2310	0.719
2319	0.7144
2328	0.711
2337	0.7075
2346	0.7044
2355	0.7028
2364	0.7022
2373	0.7015
2382	0.7001
2391	0.6975
2400	0.6926
2409	0.6876
2418	0.6821
2427	0.6765
2436	0.6706
2445	0.6647
2454	0.6581
2463	0.6508
2472	0.6428
2481	0.6348
2490	0.6265
2499	0.6179
2508	0.6086
2517	0.5985
2526	0.5889
2535	0.5793
2544	0.5714
2553	0.564
2562	0.5598
2571	0.5591
2580	0.5583
2589	0.5582
2598	0.5576
2607	0.5505
2616	0.5433
2625	0.537
2634	0.5347
2643	0.5351
2652	0.536
2661	0.5364
2670	0.5362
2679	0.536
2688	0.536
2697	0.536
2706	0.5359
2715	0.5346
2724	0.5336
2733	0.5327
2742	0.5294
2751	0.525
2760	0.5226
2769	0.5224
2778	0.5229
2787	0.5224
2796	0.518
2805	0.5096
2814	0.4992
2823	0.4885
2832	0.4766
2841	0.4632
2850	0.4475
2859	0.4299
2868	0.408
2877	0.3812
2886	0.373
2895	0.384
2904	0.3822
2913	0.3695
2922	0.3575
2931	0.3441
2940	0.3205
2949	0.2897
2958	0.2783
2967	0.2912
2976	0.3254
2985	0.4109
2994	0.4501
3003	0.4731
3012	0.4776
3021	0.4777
3030	0.4767
3039	0.476
3048	0.4774
3057	0.4842
3066	0.4945
3075	0.5019
3084	0.5066
3093	0.5098
3102	0.5156
3111	0.526
3120	0.5423
3129	0.5566
3138	0.5705
3147	0.5821
3156	0.5921
3165	0.6022
3174	0.6126
3183	0.6236
3192	0.636
3201	0.6483
3210	0.6592
3219	0.6697
3228	0.6775
3237	0.6854
3246	0.6945
3255	0.7036
3264	0.7126
3273	0.7217
3282	0.729
3291	0.7358
3300	0.7412
3309	0.7455
3318	0.748
3327	0.7494
3336	0.7519
3345	0.7545
3354	0.7575
3363	0.7641
3372	0.7715
3381	0.7742
3390	0.7751
3399	0.7751
3408	0.7755
3417	0.7764
3426	0.7771
3435	0.7775
3444	0.7778
3453	0.778
3462	0.778
3471	0.7778
3480	0.7778
3489	0.7778
3498	0.7776
3507	0.7775
3516	0.7772
3525	0.7771
3534	0.7769
3543	0.7768
3552	0.7767
3561	0.7765
3570	0.7761
3579	0.7758
3588	0.7757
3597	0.7754
3606	0.775
3615	0.7745
3624	0.774
3633	0.7735
3642	0.7728
3651	0.7721
3660	0.7712
3669	0.7701
3678	0.7692
3687	0.768
3696	0.7665
3705	0.7649
3714	0.7634
3723	0.7615
3732	0.7598
3741	0.7575
3750	0.7545
3759	0.7511
3768	0.7481
3777	0.7461
3786	0.7443
3795	0.7424
