Infrared Spectrum: 1,3-DIMETHYL-4-ETHYL BENZENE
Formula: C10 H14
CAS: 874-41-9
State: LIQUID
Class: COBLENTZ
Instrument: PERKIN-ELMER
Sampling: TRANSMISSION
Path length: 0.0024 CM
Resolution: 4
Origin: STANDARD OIL OF OHIO
1/CM	TRANSMITTANCE
618.243	0.54
626.675	0.542
635.106	0.552
643.538	0.5719
651.97	0.6078
660.402	0.6318
668.833	0.647
677.265	0.691
685.697	0.7107
694.128	0.725
702.56	0.7317
710.992	0.751
719.423	0.7993
727.855	0.7998
736.287	0.8001
744.719	0.7774
753.15	0.83
761.582	0.8233
770.014	0.8108
778.445	0.7528
786.877	0.7314
795.309	0.6876
803.74	0.7164
812.172	0.5048
820.604	0.0539
829.036	0.1394
837.467	0.5446
845.899	0.7763
854.331	0.8268
862.762	0.8308
871.194	0.7609
879.626	0.511
888.057	0.7356
896.489	0.8456
904.921	0.8584
913.353	0.857
921.784	0.8415
930.216	0.8137
938.648	0.83
947.079	0.8
955.511	0.808
963.943	0.7487
972.374	0.6985
980.806	0.7653
989.238	0.7891
997.67	0.7992
1006.1	0.7807
1014.53	0.7044
1022.96	0.701
1031.4	0.6322
1039.83	0.5719
1048.26	0.6088
1056.69	0.637
1065.12	0.5273
1073.55	0.7242
1081.99	0.8133
1090.42	0.8401
1098.85	0.847
1107.28	0.845
1115.71	0.818
1124.15	0.795
1132.58	0.7979
1141.01	0.8298
1149.44	0.8243
1157.87	0.7185
1166.3	0.7494
1174.74	0.8417
1183.17	0.849
1191.6	0.8437
1200.03	0.8254
1208.46	0.7852
1216.89	0.8059
1225.33	0.8392
1233.76	0.8338
1242.19	0.8376
1250.62	0.833
1259.05	0.832
1267.48	0.833
1275.92	0.8263
1284.35	0.806
1292.78	0.8166
1301.21	0.8084
1309.64	0.8
1318.07	0.7561
1326.51	0.7504
1334.94	0.7429
1343.37	0.7503
1351.8	0.766
1360.23	0.723
1368.66	0.5599
1377.1	0.4346
1385.53	0.6038
1393.96	0.6938
1402.39	0.6587
1410.82	0.6182
1419.25	0.5541
1427.69	0.4581
1436.12	0.3826
1444.55	0.2929
1452.98	0.1626
1461.41	0.1966
1469.84	0.2482
1478.28	0.4519
1486.71	0.518
1495.14	0.4761
1503.57	0.204
1512	0.2756
1520.44	0.4374
1528.87	0.6796
1537.3	0.7294
1545.73	0.7773
1554.16	0.7862
1562.59	0.789
1571.03	0.789
1579.46	0.788
1587.89	0.8272
1596.32	0.835
1604.75	0.816
1613.18	0.7492
1621.62	0.5774
1630.05	0.7595
1638.48	0.8449
1646.91	0.8789
1655.34	0.8999
1663.77	0.903
1672.21	0.905
1680.64	0.9001
1689.07	0.896
1697.5	0.896
1705.93	0.9078
1714.36	0.91
1722.8	0.908
1731.23	0.9062
1739.66	0.8729
1748.09	0.8687
1756.52	0.872
1764.95	0.8787
1773.39	0.899
1781.82	0.9193
1790.25	0.925
1798.68	0.925
1807.11	0.923
1815.54	0.9136
1823.98	0.9108
1832.41	0.9223
1840.84	0.925
1849.27	0.925
1857.7	0.92
1866.13	0.9153
1874.57	0.8988
1883	0.8568
1891.43	0.8342
1899.86	0.8652
1908.29	0.8895
1916.73	0.9171
1925.16	0.9294
1933.59	0.9313
1942.02	0.9327
1950.45	0.937
1958.88	0.937
1967.32	0.937
1975.75	0.937
1984.18	0.935
1992.61	0.9338
2001.04	0.933
2009.47	0.938
2017.91	0.938
2026.34	0.94
2034.77	0.94
2043.2	0.94
2051.63	0.94
2060.06	0.94
2068.5	0.9388
2076.93	0.938
2085.36	0.938
2093.79	0.938
2102.22	0.938
2110.65	0.94
2119.09	0.94
2127.52	0.94
2135.95	0.94
2144.38	0.94
2152.81	0.94
2161.24	0.94
2169.68	0.94
2178.11	0.94
2186.54	0.938
2194.97	0.938
2203.4	0.9374
2211.83	0.935
2220.27	0.935
2228.7	0.935
2237.13	0.935
2245.56	0.935
2253.99	0.935
2262.42	0.935
2270.86	0.935
2279.29	0.93
2287.72	0.9274
2296.15	0.927
2304.58	0.923
2313.02	0.923
2321.45	0.9224
2329.88	0.922
2338.31	0.922
2346.74	0.923
2355.17	0.922
2363.61	0.922
2372.04	0.9224
2380.47	0.922
2388.9	0.922
2397.33	0.92
2405.76	0.9168
2414.2	0.916
2422.63	0.916
2431.06	0.916
2439.49	0.9192
2447.92	0.922
2456.35	0.922
2464.79	0.922
2473.22	0.922
2481.65	0.922
2490.08	0.9226
2498.51	0.927
2506.94	0.9212
2515.38	0.92
2523.81	0.92
2532.24	0.92
2540.67	0.92
2549.1	0.922
2557.53	0.922
2565.97	0.92
2574.4	0.918
2582.83	0.916
2591.26	0.915
2599.69	0.9138
2608.12	0.913
2616.56	0.91
2624.99	0.9054
2633.42	0.9072
2641.85	0.9106
2650.28	0.9104
2658.71	0.9088
2667.15	0.906
2675.58	0.906
2684.01	0.905
2692.44	0.901
2700.87	0.901
2709.31	0.8988
2717.74	0.8848
2726.17	0.8554
2734.6	0.7863
2743.03	0.7713
2751.46	0.8639
2759.9	0.872
2768.33	0.8672
2776.76	0.85
2785.19	0.8395
2793.62	0.8288
2802.05	0.8238
2810.49	0.8049
2818.92	0.7749
2827.35	0.7308
2835.78	0.6674
2844.21	0.5937
2852.64	0.4999
2861.08	0.3634
2869.51	0.2493
2877.94	0.1165
2886.37	0.0996
2894.8	0.169
2903.23	0.1798
2911.67	0.1701
2920.1	0.1214
2928.53	0.0578
2936.96	0.044
2945.39	0.0509
2953.82	0.071
2962.26	0.0577
2970.69	0.0188
2979.12	0.0212
2987.55	0.0834
2995.98	0.2103
3004.41	0.2099
3012.85	0.177
3021.28	0.1991
3029.71	0.3003
3038.14	0.3747
3046.57	0.3902
3055	0.46
3063.44	0.5675
3071.87	0.6575
3080.3	0.6872
3088.73	0.7026
3097.16	0.7595
3105.6	0.8131
3114.03	0.818
3122.46	0.8075
3130.89	0.8019
3139.32	0.8369
3147.75	0.8682
3156.19	0.877
3164.62	0.8822
3173.05	0.8852
3181.48	0.888
3189.91	0.8936
3198.34	0.8992
3206.78	0.9
3215.21	0.901
3223.64	0.9042
3232.07	0.906
3240.5	0.908
3248.93	0.908
3257.37	0.908
3265.8	0.908
3274.23	0.908
3282.66	0.908
3291.09	0.908
3299.52	0.908
3307.96	0.908
3316.39	0.908
3324.82	0.908
3333.25	0.908
3341.68	0.908
3350.11	0.908
3358.55	0.9068
3366.98	0.906
3375.41	0.905
3383.84	0.905
3392.27	0.903
3400.7	0.901
3409.14	0.901
3417.57	0.9
3426	0.9
3434.43	0.9
3442.86	0.9
3451.29	0.9
3459.73	0.8988
3468.16	0.898
3476.59	0.898
3485.02	0.896
3493.45	0.896
3501.89	0.896
3510.32	0.898
3518.75	0.8992
3527.18	0.9
3535.61	0.9
3544.04	0.9
3552.48	0.9
3560.91	0.9
3569.34	0.9
3577.77	0.9
3586.2	0.9
3594.63	0.9
3603.07	0.9
3611.5	0.9
3619.93	0.9
3628.36	0.9
3636.79	0.9
3645.22	0.9
3653.66	0.8918
3662.09	0.889
3670.52	0.889
3678.95	0.888
3687.38	0.889
3695.81	0.888
3704.25	0.888
3712.68	0.888
3721.11	0.888
3729.54	0.888
3737.97	0.888
3746.4	0.888
3754.84	0.888
3763.27	0.889
3771.7	0.889
3780.13	0.889
3788.56	0.888
3796.99	0.888
3805.43	0.884
3813.86	0.884
3822.29	0.883
3830.72	0.881
3839.15	0.879
3847.58	0.879
3856.02	0.8764
3864.45	0.876
3872.88	0.876
3881.31	0.874
3889.74	0.874
3898.18	0.874
3906.61	0.869
3915.04	0.867
3923.47	0.866
3931.9	0.864
3940.33	0.864
