Infrared Spectrum: Aniline, 2,4,6-trimethyl-
Formula: C9 H13 N
CAS: 88-05-1
State: LIQUID (NEAT)
Class: COBLENTZ III
Instrument: BECKMAN IR-4 (HYBRID PRISM-GRATING)
Instrument parameters: NaCl PRISM
Sampling: TRANSMISSION
Path length: CAPILLARY
Resolution: 2
Origin: MONSANTO (J. FREEMAN)
1/CM	TRANSMITTANCE
4000	0.8757
3991	0.8774
3982	0.8792
3973	0.8808
3964	0.8821
3955	0.8837
3946	0.8852
3937	0.8867
3928	0.8881
3919	0.8896
3910	0.8911
3901	0.8925
3892	0.894
3883	0.8949
3874	0.8958
3865	0.8967
3856	0.8975
3847	0.8985
3838	0.8993
3829	0.9002
3820	0.9008
3811	0.9011
3802	0.9015
3793	0.9018
3784	0.9018
3775	0.9014
3766	0.9008
3757	0.9002
3748	0.8995
3739	0.8988
3730	0.8981
3721	0.8973
3712	0.8966
3703	0.8958
3694	0.8951
3685	0.8944
3676	0.8936
3667	0.8928
3658	0.8921
3649	0.8913
3640	0.8904
3631	0.8896
3622	0.8887
3613	0.8875
3604	0.886
3595	0.8841
3586	0.8808
3577	0.8773
3568	0.868
3559	0.8575
3550	0.8378
3541	0.8078
3532	0.7999
3523	0.7911
3514	0.7284
3505	0.6439
3496	0.559
3487	0.5082
3478	0.5108
3469	0.5248
3460	0.5403
3451	0.5559
3442	0.5715
3433	0.5786
3424	0.5714
3415	0.5217
3406	0.4716
3397	0.4212
3388	0.39
3379	0.3893
3370	0.3927
3361	0.4868
3352	0.561
3343	0.6359
3334	0.711
3325	0.7453
3316	0.7625
3307	0.7799
3298	0.7971
3289	0.8017
3280	0.8
3271	0.7968
3262	0.7911
3253	0.7841
3244	0.7764
3235	0.773
3226	0.7746
3217	0.7942
3208	0.8146
3199	0.835
3190	0.8494
3181	0.852
3172	0.8542
3163	0.8555
3154	0.8545
3145	0.8528
3136	0.849
3127	0.8428
3118	0.8243
3109	0.8051
3100	0.7921
3091	0.779
3082	0.7581
3073	0.7267
3064	0.6868
3055	0.6145
3046	0.5523
3037	0.4897
3028	0.4267
3019	0.3655
3010	0.365
3001	0.3634
2992	0.335
2983	0.3104
2974	0.3131
2965	0.2975
2956	0.2432
2947	0.1931
2938	0.1883
2929	0.2074
2920	0.238
2911	0.2687
2902	0.2996
2893	0.3218
2884	0.3142
2875	0.304
2866	0.2948
2857	0.3434
2848	0.547
2839	0.723
2830	0.7632
2821	0.7894
2812	0.8158
2803	0.8424
2794	0.8538
2785	0.8489
2776	0.8231
2767	0.7967
2758	0.7712
2749	0.7686
2740	0.8019
2731	0.8425
2722	0.8806
2713	0.889
2704	0.8951
2695	0.9013
2686	0.9071
2677	0.9089
2668	0.9068
2659	0.9031
2650	0.8989
2641	0.8955
2632	0.8948
2623	0.8973
2614	0.9008
2605	0.903
2596	0.9047
2587	0.9063
2578	0.9078
2569	0.9085
2560	0.9088
2551	0.9092
2542	0.9094
2533	0.9097
2524	0.9101
2515	0.9103
2506	0.9104
2497	0.9106
2488	0.9107
2479	0.9109
2470	0.911
2461	0.9107
2452	0.9097
2443	0.9086
2434	0.9042
2425	0.9004
2416	0.8981
2407	0.896
2398	0.8945
2389	0.9051
2380	0.9134
2371	0.9146
2362	0.9165
2353	0.921
2344	0.9275
2335	0.9271
2326	0.9214
2317	0.9186
2308	0.9158
2299	0.9145
2290	0.9135
2281	0.9128
2272	0.9124
2263	0.9127
2254	0.913
2245	0.9134
2236	0.9137
2227	0.914
2218	0.9143
2209	0.9145
2200	0.9134
2191	0.912
2182	0.9074
2173	0.905
2164	0.907
2155	0.9092
2146	0.9125
2137	0.9153
2128	0.9166
2119	0.9156
2110	0.9151
2101	0.9201
2092	0.9127
2083	0.9014
2074	0.8964
2065	0.8948
2056	0.8954
2047	0.9024
2038	0.9105
2029	0.9099
2020	0.9025
2011	0.9014
2002	0.9007
1993	0.901
1984	0.9012
1975	0.9
1966	0.8951
1957	0.8907
1948	0.893
1939	0.8899
1930	0.8783
1921	0.8695
1912	0.8685
1903	0.8677
1894	0.8652
1885	0.882
1876	0.8948
1867	0.8959
1858	0.8954
1849	0.8949
1840	0.8932
1831	0.891
1822	0.8888
1813	0.8855
1804	0.8807
1795	0.8717
1786	0.8588
1777	0.8318
1768	0.8151
1759	0.8097
1750	0.7982
1741	0.7821
1732	0.7825
1723	0.8076
1714	0.8273
1705	0.8342
1696	0.8305
1687	0.8142
1678	0.77
1669	0.7065
1660	0.6165
1651	0.4679
1642	0.3234
1633	0.1488
1624	0.1587
1615	0.2753
1606	0.2084
1597	0.3627
1588	0.5302
1579	0.6518
1570	0.6836
1561	0.7136
1552	0.711
1543	0.6925
1534	0.6615
1525	0.6033
1516	0.5294
1507	0.2834
1498	0.1038
1489	0.0641
1480	0.2625
1471	0.2876
1462	0.336
1453	0.3198
1444	0.218
1435	0.32
1426	0.5372
1417	0.5994
1408	0.6432
1399	0.6914
1390	0.6537
1381	0.4642
1372	0.6346
1363	0.7732
1354	0.7947
1345	0.7975
1336	0.7867
1327	0.7315
1318	0.5298
1309	0.2247
1300	0.4637
1291	0.6958
1282	0.7585
1273	0.7362
1264	0.514
1255	0.2672
1246	0.2408
1237	0.5454
1228	0.6536
1219	0.7214
1210	0.7636
1201	0.7895
1192	0.8049
1183	0.8094
1174	0.8057
1165	0.7681
1156	0.4003
1147	0.6212
1138	0.7005
1129	0.7496
1120	0.7808
1111	0.7985
1102	0.8046
1093	0.8071
1084	0.8022
1075	0.7936
1066	0.7805
1057	0.7545
1048	0.7031
1039	0.6219
1030	0.5071
1021	0.5727
1012	0.3846
1003	0.4289
994	0.6649
985	0.7369
976	0.7558
967	0.7617
958	0.7126
949	0.7449
940	0.7522
931	0.745
922	0.7228
913	0.7026
904	0.704
895	0.6683
886	0.6321
877	0.6025
868	0.4947
859	0.1723
850	0.2262
841	0.5622
832	0.621
823	0.6126
814	0.5902
805	0.566
796	0.5423
787	0.521
778	0.5218
769	0.6017
760	0.5843
751	0.4752
742	0.3673
733	0.2571
724	0.4721
715	0.5066
706	0.4446
697	0.4131
688	0.398
679	0.3787
670	0.3775
661	0.3802
652	0.4124
643	0.4359
634	0.4219
