Infrared Spectrum: 2-Furoic acid
Formula: C 5 H 4 O 3
CAS: 88-14-2
State: solid
Instrument: Bruker Tensor 37 FTIR
Resolution: 0.96450084
Origin: Pacific Northwest National Laboratory Under IARPA Contract
1/cm	Reflectance
7498.03	0.69045
7480.67	0.687285
7463.31	0.685088
7445.95	0.657637
7428.59	0.661721
7411.23	0.653078
7393.87	0.643034
7376.51	0.650904
7359.15	0.651226
7341.79	0.644875
7324.43	0.64685
7307.07	0.649965
7289.71	0.646709
7272.35	0.640676
7254.99	0.642184
7237.63	0.644229
7220.27	0.639236
7202.91	0.624013
7185.55	0.642374
7168.19	0.638756
7150.83	0.639227
7133.47	0.63013
7116.11	0.631689
7098.75	0.627141
7081.39	0.623515
7064.03	0.61813
7046.67	0.61026
7029.31	0.603845
7011.96	0.592932
6994.6	0.584256
6977.24	0.573379
6959.88	0.563097
6942.52	0.548107
6925.16	0.533501
6907.8	0.507161
6890.44	0.462926
6873.08	0.441949
6855.72	0.370847
6838.36	0.222748
6821	0.242524
6803.64	0.339591
6786.28	0.329959
6768.92	0.371006
6751.56	0.363776
6734.2	0.360358
6716.84	0.353862
6699.48	0.33902
6682.12	0.329879
6664.76	0.313237
6647.4	0.309898
6630.04	0.306857
6612.68	0.298425
6595.32	0.294525
6577.96	0.291714
6560.6	0.287161
6543.24	0.279845
6525.88	0.270615
6508.52	0.260546
6491.16	0.254464
6473.8	0.246611
6456.44	0.240027
6439.08	0.230206
6421.72	0.221614
6404.36	0.218214
6387	0.210875
6369.64	0.207707
6352.28	0.205317
6334.92	0.202753
6317.56	0.201309
6300.2	0.200527
6282.84	0.196362
6265.48	0.194075
6248.12	0.19155
6230.76	0.190412
6213.4	0.188518
6196.04	0.187551
6178.68	0.187746
6161.32	0.18175
6143.97	0.181814
6126.61	0.180149
6109.25	0.171812
6091.89	0.170173
6074.53	0.168793
6057.17	0.142432
6039.81	0.159236
6022.45	0.131233
6005.09	0.125518
5987.73	0.147702
5970.37	0.142395
5953.01	0.145404
5935.65	0.0995804
5918.29	0.130943
5900.93	0.125511
5883.57	0.117027
5866.21	0.121976
5848.85	0.105395
5831.49	0.121907
5814.13	0.120664
5796.77	0.107291
5779.41	0.0873963
5762.05	0.0617253
5744.69	0.0872891
5727.33	0.0955419
5709.97	0.0908343
5692.61	0.0887366
5675.25	0.0914685
5657.89	0.0926032
5640.53	0.0925667
5623.17	0.0897513
5605.81	0.0885841
5588.45	0.0871168
5571.09	0.0859226
5553.73	0.0831833
5536.37	0.0800557
5519.01	0.0766287
5501.65	0.0715311
5484.29	0.0643123
5466.93	0.0570781
5449.57	0.049851
5432.21	0.0421435
5414.85	0.0369786
5397.49	0.0333992
5380.13	0.0311347
5362.77	0.0293551
5345.41	0.0285695
5328.05	0.0274301
5310.69	0.0280211
5293.33	0.0282184
5275.97	0.028834
5258.62	0.0293645
5241.26	0.0296839
5223.9	0.0296924
5206.54	0.0296896
5189.18	0.0305824
5171.82	0.0311986
5154.46	0.0316837
5137.1	0.0319298
5119.74	0.0313461
5102.38	0.0310091
5085.02	0.0317425
5067.66	0.0322537
5050.3	0.0312809
5032.94	0.0330041
5015.58	0.0334833
4998.22	0.033162
4980.86	0.0340313
4963.5	0.0338529
4946.14	0.034626
4928.78	0.035318
4911.42	0.0351693
4894.06	0.0366895
4876.7	0.0360524
4859.34	0.0367811
4841.98	0.0369328
4824.62	0.0382806
4807.26	0.0390152
4789.9	0.0376272
4772.54	0.0345009
4755.18	0.038586
4737.82	0.0377671
4720.46	0.0349943
4703.1	0.0332719
4685.74	0.0331498
4668.38	0.0310952
4651.02	0.0275474
4633.66	0.0240135
4616.3	0.019322
4598.94	0.051673
4581.58	0.0407238
4564.22	0.0319243
4546.86	0.025426
4529.5	0.0323135
4512.14	0.0320128
4494.78	0.0292933
4477.42	0.0335278
4460.06	0.0332667
4442.7	0.0275696
4425.34	0.0302394
4407.98	0.0345119
4390.63	0.038233
4373.27	0.0399416
4355.91	0.0314961
4338.55	0.0345078
4321.19	0.0308545
4303.83	0.0495121
4286.47	0.0317223
4269.11	0.0336655
4251.75	0.0336143
4234.39	0.0339168
4217.03	0.032666
4199.67	0.0302237
4182.31	0.0357059
4164.95	0.0357501
4147.59	0.0317101
4130.23	0.0901278
4112.87	0.0567246
4095.51	0.0714133
4078.15	0.0668275
4060.79	0.0810968
4043.43	0.691682
4026.07	0.687241
4008.71	0.678585
3991.35	0.664613
3973.99	0.665841
3956.63	0.662456
3939.27	0.651434
3921.91	0.654675
3904.55	0.659193
3887.19	0.645731
3869.83	0.658157
3852.47	0.65853
3835.11	0.653089
3817.75	0.648728
3800.39	0.648291
3783.03	0.651115
3765.67	0.641436
3748.31	0.639015
3730.95	0.646833
3713.59	0.647532
3696.23	0.645704
3678.87	0.635743
3661.51	0.637636
3644.15	0.633539
3626.79	0.627766
3609.43	0.620772
3592.07	0.614044
3574.71	0.608083
3557.35	0.599785
3539.99	0.58849
3522.64	0.579313
3505.28	0.564444
3487.92	0.551501
3470.56	0.535619
3453.2	0.505162
3435.84	0.453328
3418.48	0.442906
3401.12	0.318944
3383.76	0.173575
3366.4	0.305923
3349.04	0.340018
3331.68	0.363304
3314.32	0.384986
3296.96	0.367627
3279.6	0.372245
3262.24	0.36127
3244.88	0.347869
3227.52	0.335682
3210.16	0.325361
3192.8	0.31941
3175.44	0.311963
3158.08	0.310539
3140.72	0.308691
3123.36	0.302457
3106	0.29478
3088.64	0.288515
3071.28	0.279271
3053.92	0.270288
3036.56	0.262916
3019.2	0.257159
3001.84	0.247685
2984.48	0.239514
2967.12	0.232228
2949.76	0.226298
2932.4	0.220261
2915.04	0.216586
2897.68	0.214881
2880.32	0.210693
2862.96	0.209137
2845.6	0.208147
2828.24	0.20535
2810.88	0.202173
2793.52	0.19927
2776.16	0.197855
2758.8	0.197062
2741.44	0.197163
2724.08	0.195195
2706.72	0.188709
2689.36	0.189084
2672	0.186888
2654.64	0.172539
2637.29	0.180607
2619.93	0.165028
2602.57	0.159148
2585.21	0.161757
2567.85	0.120747
2550.49	0.147705
2533.13	0.153141
2515.77	0.147501
2498.41	0.148268
2481.05	0.124412
2463.69	0.127216
2446.33	0.134071
2428.97	0.122351
2411.61	0.103335
2394.25	0.128381
2376.89	0.124187
2359.53	0.125586
2342.17	0.104146
2324.81	0.0920667
2307.45	0.0644222
2290.09	0.091649
2272.73	0.0986284
2255.37	0.0913945
2238.01	0.096115
2220.65	0.0974241
2203.29	0.0974813
2185.93	0.0967904
2168.57	0.0945386
2151.21	0.0929602
2133.85	0.0912375
2116.49	0.0895075
2099.13	0.0856651
2081.77	0.0821967
2064.41	0.0779016
2047.05	0.0715377
2029.69	0.0643418
2012.33	0.0562282
1994.97	0.0488183
1977.61	0.0415994
1960.25	0.0360934
1942.89	0.0332336
1925.53	0.0305026
1908.17	0.0292964
1890.81	0.0285097
1873.45	0.0270286
1856.09	0.028557
1838.73	0.0291918
1821.37	0.0295368
1804.01	0.0301373
1786.65	0.030426
1769.3	0.0298345
1751.94	0.0304902
1734.58	0.0311059
1717.22	0.0320738
1699.86	0.0321971
1682.5	0.0323125
1665.14	0.0315765
1647.78	0.031828
1630.42	0.0327054
1613.06	0.0320862
1595.7	0.0323866
1578.34	0.0334994
1560.98	0.0338379
1543.62	0.0341012
1526.26	0.0345855
1508.9	0.0345936
1491.54	0.0350581
1474.18	0.0360201
1456.82	0.0361672
1439.46	0.0369005
1422.1	0.0374077
1404.74	0.0371641
1387.38	0.0385876
1370.02	0.0400196
1352.66	0.0387793
1335.3	0.0370473
1317.94	0.036496
1300.58	0.0391748
1283.22	0.0373734
1265.86	0.0342517
1248.5	0.0338822
1231.14	0.0330634
1213.78	0.0308055
1196.42	0.0263831
1179.06	0.0231496
1161.7	0.0202875
1144.34	0.0612428
1126.98	0.0361084
1109.62	0.0300097
1092.26	0.0416886
1074.9	0.0321293
1057.54	0.0325224
1040.18	0.0416022
1022.82	0.0302688
1005.46	0.0323866
988.104	0.0300774
970.744	0.0255885
953.384	0.0466238
936.025	0.0382777
918.665	0.0342284
901.305	0.0252314
883.945	0.0402772
866.585	0.0259259
849.226	0.0538427
831.866	0.0360992
814.506	0.0228027
797.146	0.0342203
779.786	0.0316883
762.427	0.0371368
745.067	0.0361778
727.707	0.0324371
710.347	0.032888
692.987	0.0346885
675.628	0.0483218
658.268	0.0640543
640.908	0.0573331
623.548	0.0671541
606.188	0.0459235
