Infrared Spectrum: CARBAMOYL CHLORIDE, DIETHYL-
Formula: C5 H10 Cl N O
CAS: 88-10-8
State: SOLUTION (2% CCl4 FOR 3800-1350, 2% CS2 FOR 1350-430 CM^-^1)
Class: COBLENTZ III
Instrument: DOW KBr FOREPRISM-GRATING
Instrument parameters: BLAZED AT 3.5, 12.0, 20.0 MICRON AND CHANGED AT 5.0, 7.5, 14.9 MICRON
Sampling: TRANSMISSION
Path length: 0.0116 CM, 0.0116 CM
Resolution: 2
Origin: DOW CHEMICAL COMPANY
1/CM	TRANSMITTANCE
3800	0.8875
3791	0.8878
3782	0.8883
3773	0.8887
3764	0.8893
3755	0.8898
3746	0.8903
3737	0.8909
3728	0.8914
3719	0.892
3710	0.8928
3701	0.8934
3692	0.8942
3683	0.8948
3674	0.8945
3665	0.8941
3656	0.8937
3647	0.8933
3638	0.893
3629	0.8928
3620	0.8925
3611	0.8923
3602	0.8917
3593	0.891
3584	0.8902
3575	0.8891
3566	0.8881
3557	0.8873
3548	0.8867
3539	0.8861
3530	0.8854
3521	0.8846
3512	0.8836
3503	0.8827
3494	0.8817
3485	0.8746
3476	0.8692
3467	0.8664
3458	0.8638
3449	0.8632
3440	0.8642
3431	0.8658
3422	0.8665
3413	0.8671
3404	0.8671
3395	0.8671
3386	0.8671
3377	0.8674
3368	0.8678
3359	0.8684
3350	0.8691
3341	0.8699
3332	0.8708
3323	0.8716
3314	0.8724
3305	0.8731
3296	0.8738
3287	0.8748
3278	0.8758
3269	0.8767
3260	0.8784
3251	0.8798
3242	0.8807
3233	0.8804
3224	0.8787
3215	0.8777
3206	0.8773
3197	0.8783
3188	0.8798
3179	0.8803
3170	0.8808
3161	0.881
3152	0.8811
3143	0.8796
3134	0.8755
3125	0.8771
3116	0.8785
3107	0.8794
3098	0.8796
3089	0.8794
3080	0.8791
3071	0.8785
3062	0.8778
3053	0.8768
3044	0.875
3035	0.8714
3026	0.866
3017	0.8575
3008	0.828
2999	0.7551
2990	0.6592
2981	0.5956
2972	0.5829
2963	0.671
2954	0.7375
2945	0.7378
2936	0.6864
2927	0.7401
2918	0.7911
2909	0.8004
2900	0.8008
2891	0.7971
2882	0.7983
2873	0.7845
2864	0.8252
2855	0.8467
2846	0.8553
2837	0.8588
2828	0.8616
2819	0.8638
2810	0.8658
2801	0.8682
2792	0.8707
2783	0.8746
2774	0.8777
2765	0.8789
2756	0.8796
2747	0.8799
2738	0.8804
2729	0.8811
2720	0.8821
2711	0.8833
2702	0.8835
2693	0.8831
2684	0.8828
2675	0.8834
2666	0.8839
2657	0.8844
2648	0.8844
2639	0.8842
2630	0.884
2621	0.8841
2612	0.8841
2603	0.8841
2594	0.8842
2585	0.8837
2576	0.8832
2567	0.8825
2558	0.8821
2549	0.8818
2540	0.8816
2531	0.8814
2522	0.8814
2513	0.8816
2504	0.8818
2495	0.8821
2486	0.8827
2477	0.8832
2468	0.8834
2459	0.883
2450	0.8825
2441	0.8824
2432	0.8821
2423	0.8821
2414	0.8825
2405	0.8828
2396	0.8827
2387	0.8832
2378	0.8861
2369	0.8884
2360	0.8893
2351	0.89
2342	0.8904
2333	0.8815
2324	0.8704
2315	0.8635
2306	0.8625
2297	0.8624
2288	0.8643
2279	0.8677
2270	0.872
2261	0.8761
2252	0.8773
2243	0.879
2234	0.8817
2225	0.8846
2216	0.8868
2207	0.8877
2198	0.888
2189	0.8881
2180	0.8883
2171	0.8882
2162	0.8875
2153	0.887
2144	0.8868
2135	0.8871
2126	0.8873
2117	0.8875
2108	0.8883
2099	0.8889
2090	0.8895
2081	0.8901
2072	0.8907
2063	0.891
2054	0.8914
2045	0.8915
2036	0.8916
2027	0.8913
2018	0.891
2009	0.8902
2000	0.8695
1991	0.8747
1982	0.8785
1973	0.8805
1964	0.881
1955	0.8809
1946	0.8813
1937	0.8842
1928	0.8863
1919	0.8859
1910	0.8803
1901	0.8791
1892	0.8799
1883	0.8795
1874	0.8775
1865	0.874
1856	0.8637
1847	0.86
1838	0.8646
1829	0.8659
1820	0.8645
1811	0.863
1802	0.8571
1793	0.8441
1784	0.8165
1775	0.7649
1766	0.6832
1757	0.3997
1748	0.0254
1739	0.0153
1730	0.2088
1721	0.5746
1712	0.709
1703	0.7319
1694	0.7487
1685	0.7949
1676	0.8259
1667	0.8361
1658	0.8362
1649	0.83
1640	0.8198
1631	0.8138
1622	0.8096
1613	0.7934
1604	0.7471
1595	0.6711
1586	0.6094
1577	0.5874
1568	0.5473
1559	0.4576
1550	0.4176
1541	0.4625
1532	0.5843
1523	0.6278
1514	0.6625
1505	0.7183
1496	0.7618
1487	0.7791
1478	0.7445
1469	0.6678
1460	0.6115
1451	0.7145
1442	0.7431
1433	0.8047
1424	0.8062
1415	0.6812
1406	0.3203
1397	0.5197
1388	0.5569
1379	0.6899
1370	0.6825
1361	0.7741
1352	0.7857
1343	0.8244
1334	0.8371
1325	0.8523
1316	0.8086
1307	0.7168
1298	0.8296
1289	0.8524
1280	0.8613
1271	0.8568
1262	0.8014
1253	0.4016
1244	0.5441
1235	0.8097
1226	0.8259
1217	0.5802
1208	0.4946
1199	0.8111
1190	0.8638
1181	0.8718
1172	0.8861
1163	0.8854
1154	0.8802
1145	0.87
1136	0.8554
1127	0.773
1118	0.34
1109	0.5503
1100	0.5823
1091	0.653
1082	0.7287
1073	0.653
1064	0.7962
1055	0.8449
1046	0.8667
1037	0.8768
1028	0.881
1019	0.8821
1010	0.8521
1001	0.8448
992	0.8717
983	0.8901
974	0.896
965	0.8996
956	0.8971
947	0.8693
938	0.8675
929	0.895
920	0.9006
911	0.8975
902	0.8874
893	0.8585
884	0.8106
875	0.7686
866	0.7203
857	0.631
848	0.3824
839	0.6366
830	0.8161
821	0.86
812	0.8716
803	0.8718
794	0.8528
785	0.7891
776	0.8755
767	0.8902
758	0.8952
749	0.8983
740	0.8941
731	0.8709
722	0.8883
713	0.8906
704	0.89
695	0.891
686	0.8905
677	0.848
668	0.635
659	0.7383
650	0.6269
641	0.8104
632	0.8873
623	0.9074
614	0.9173
605	0.921
596	0.9239
587	0.925
578	0.9151
569	0.9145
560	0.9142
551	0.914
542	0.9134
533	0.9123
524	0.9071
515	0.8715
506	0.8525
497	0.861
488	0.8698
479	0.8643
470	0.8561
461	0.8468
452	0.8361
443	0.83
434	0.8315
425	0.8348
