Infrared Spectrum: PHENOL, 2,2'-METHYLENEBIS[4-ETHYL-6(1,1-DIMETHYLETHYL)]-
Formula: C25 H36 O2
CAS: 88-24-4
State: SOLID (1% IN KBr DISC)
Class: COBLENTZ III
Instrument: PERKIN-ELMER 421 (GRATING)
Instrument parameters: GRATING CHANGE AT 1999 CM^-^1
Sampling: TRANSMISSION
Path length: 0.045 CM
Resolution: 4
Origin: US INDUSTRIAL CHEMICALS COMPANY, CINCINNATI, OHIO
1/CM	TRANSMITTANCE
602.851	0.73
611.405	0.714
619.959	0.704
628.513	0.69
637.067	0.696
645.621	0.734
654.175	0.731
662.729	0.729
671.283	0.73
679.837	0.731
688.391	0.731
696.945	0.73
705.499	0.731
714.053	0.729
722.607	0.723
731.161	0.712
739.715	0.672
748.269	0.493
756.823	0.5061
765.377	0.641
773.931	0.649
782.485	0.615
791.039	0.604
799.593	0.482
808.147	0.75
816.701	0.753
825.255	0.751
833.809	0.751
842.363	0.75
850.917	0.741
859.471	0.706
868.024	0.618
876.578	0.2481
885.132	0.641
893.686	0.7029
902.24	0.721
910.794	0.726
919.348	0.656
927.902	0.726
936.456	0.744
945.01	0.739
953.564	0.754
962.118	0.771
970.672	0.771
979.226	0.765
987.78	0.763
996.334	0.754
1004.89	0.747
1013.44	0.74
1022	0.696
1030.55	0.679
1039.1	0.737
1047.66	0.731
1056.21	0.692
1064.77	0.712
1073.32	0.739
1081.87	0.739
1090.43	0.736
1098.98	0.727
1107.54	0.713
1116.09	0.695
1124.64	0.655
1133.2	0.628
1141.75	0.564
1150.31	0.53
1158.86	0.453
1167.41	0.27
1175.97	0.085
1184.52	0.2239
1193.08	0.2591
1201.63	0.289
1210.18	0.429
1218.74	0.2281
1227.29	0.2989
1235.85	0.442
1244.4	0.37
1252.95	0.442
1261.51	0.6
1270.06	0.605
1278.62	0.564
1287.17	0.441
1295.72	0.568
1304.28	0.582
1312.83	0.497
1321.39	0.2851
1329.94	0.489
1338.49	0.67
1347.05	0.672
1355.6	0.612
1364.16	0.4148
1372.71	0.643
1381.26	0.648
1389.82	0.536
1398.37	0.66
1406.93	0.652
1415.48	0.514
1424.03	0.302
1432.59	0.344
1441.14	0.26
1449.7	0.171
1458.25	0.143
1466.8	0.127
1475.36	0.299
1483.91	0.5729
1492.47	0.692
1501.02	0.741
1509.57	0.757
1518.13	0.773
1526.68	0.775
1535.24	0.781
1543.79	0.782
1552.34	0.784
1560.9	0.778
1569.45	0.773
1578.01	0.757
1586.56	0.75
1595.11	0.747
1603.67	0.756
1612.22	0.757
1620.78	0.754
1629.33	0.757
1637.88	0.756
1646.44	0.764
1654.99	0.773
1663.54	0.782
1672.1	0.79
1680.65	0.792
1689.21	0.795
1697.76	0.802
1706.31	0.798
1714.87	0.797
1723.42	0.797
1731.98	0.795
1740.53	0.792
1749.08	0.787
1757.64	0.781
1766.19	0.778
1774.75	0.8
1783.3	0.817
1791.85	0.825
1800.41	0.832
1808.96	0.839
1817.52	0.842
1826.07	0.846
1834.62	0.848
1843.18	0.848
1851.73	0.853
1860.29	0.851
1868.84	0.853
1877.39	0.848
1885.95	0.849
1894.5	0.853
1903.06	0.851
1911.61	0.851
1920.16	0.848
1928.72	0.846
1937.27	0.846
1945.83	0.852
1954.38	0.851
1962.93	0.852
1971.49	0.851
1980.04	0.852
1988.6	0.858
1997.15	0.863
2005.7	0.8631
2014.26	0.859
2022.81	0.859
2031.37	0.859
2039.92	0.862
2048.47	0.863
2057.03	0.862
2065.58	0.863
2074.14	0.862
2082.69	0.862
2091.24	0.862
2099.8	0.862
2108.35	0.863
2116.91	0.86
2125.46	0.86
2134.01	0.859
2142.57	0.859
2151.12	0.859
2159.68	0.859
2168.23	0.8619
2176.78	0.863
2185.34	0.863
2193.89	0.863
2202.45	0.863
2211	0.863
2219.55	0.863
2228.11	0.863
2236.66	0.863
2245.22	0.863
2253.77	0.862
2262.32	0.862
2270.88	0.862
2279.43	0.862
2287.99	0.862
2296.54	0.862
2305.09	0.8602
2313.65	0.86
2322.2	0.8591
2330.76	0.8589
2339.31	0.8599
2347.86	0.86
2356.42	0.862
2364.97	0.86
2373.53	0.86
2382.08	0.86
2390.63	0.8627
2399.19	0.863
2407.74	0.865
2416.3	0.862
2424.85	0.859
2433.4	0.8618
2441.96	0.863
2450.51	0.863
2459.07	0.863
2467.62	0.863
2476.17	0.863
2484.73	0.868
2493.28	0.8629
2501.84	0.852
2510.39	0.8556
2518.94	0.859
2527.5	0.86
2536.05	0.86
2544.61	0.8564
2553.16	0.856
2561.71	0.856
2570.27	0.856
2578.82	0.8533
2587.38	0.853
2595.93	0.853
2604.48	0.8511
2613.04	0.853
2621.59	0.853
2630.15	0.853
2638.7	0.851
2647.25	0.851
2655.81	0.851
2664.36	0.851
2672.92	0.853
2681.47	0.853
2690.02	0.8521
2698.58	0.8495
2707.13	0.8433
2715.68	0.843
2724.24	0.843
2732.79	0.843
2741.35	0.8422
2749.9	0.841
2758.45	0.8382
2767.01	0.8315
2775.56	0.828
2784.12	0.8215
2792.67	0.8145
2801.22	0.803
2809.78	0.792
2818.33	0.7727
2826.89	0.742
2835.44	0.6989
2843.99	0.6242
2852.55	0.3615
2861.1	0.2662
2869.66	0.2871
2878.21	0.3442
2886.76	0.3127
2895.32	0.2689
2903.87	0.2115
2912.43	0.1884
2920.98	0.1582
2929.53	0.1633
2938.09	0.1516
2946.64	0.0261
2955.2	0.0214
2963.75	0.1066
2972.3	0.3028
2980.86	0.4648
2989.41	0.5323
2997.97	0.5901
3006.52	0.5694
3015.07	0.6422
3023.63	0.7448
3032.18	0.7693
3040.74	0.771
3049.29	0.7738
3057.84	0.7803
3066.4	0.8001
3074.95	0.8118
3083.51	0.8256
3092.06	0.8375
3100.61	0.8388
3109.17	0.8365
3117.72	0.835
3126.28	0.8312
3134.83	0.829
3143.38	0.828
3151.94	0.8253
3160.49	0.821
3169.05	0.8175
3177.6	0.815
3186.15	0.814
3194.71	0.8113
3203.26	0.8113
3211.82	0.809
3220.37	0.805
3228.92	0.804
3237.48	0.802
3246.03	0.801
3254.59	0.798
3263.14	0.795
3271.69	0.7926
3280.25	0.7886
3288.8	0.7813
3297.36	0.778
3305.91	0.7756
3314.46	0.7718
3323.02	0.7656
3331.57	0.7589
3340.13	0.7563
3348.68	0.7482
3357.23	0.7382
3365.79	0.7303
3374.34	0.7182
3382.9	0.7093
3391.45	0.7023
3400	0.6963
3408.56	0.6829
3417.11	0.679
3425.67	0.6729
3434.22	0.6629
3442.77	0.6549
3451.33	0.6392
3459.88	0.6293
3468.44	0.5982
3476.99	0.5549
3485.54	0.4977
3494.1	0.4071
3502.65	0.2595
3511.21	0.0541
3519.76	0.0407
3528.31	0.1082
3536.87	0.2575
3545.42	0.445
3553.98	0.5911
3562.53	0.6907
3571.08	0.7523
3579.64	0.7879
3588.19	0.8066
3596.75	0.8147
3605.3	0.823
3613.85	0.826
3622.41	0.8333
3630.96	0.8409
3639.52	0.8529
3648.07	0.8768
3656.62	0.8896
3665.18	0.89
3673.73	0.893
3682.29	0.8943
3690.84	0.896
3699.39	0.896
3707.95	0.896
3716.5	0.895
3725.06	0.893
3733.61	0.893
3742.16	0.893
3750.72	0.893
3759.27	0.893
3767.82	0.893
3776.38	0.893
3784.93	0.8924
3793.49	0.892
3802.04	0.89
3810.59	0.89
3819.15	0.89
3827.7	0.8894
3836.26	0.887
3844.81	0.886
3853.36	0.886
3861.92	0.886
3870.47	0.886
3879.03	0.885
3887.58	0.882
3896.13	0.88
3904.69	0.8812
3913.24	0.882
3921.8	0.885
3930.35	0.8866
3938.9	0.89
3947.46	0.8926
3956.01	0.8941
3964.57	0.893
3973.12	0.893
3981.67	0.893
