Infrared Spectrum: 2,6-DI-TERT-BUTYL-Alpha-DIMETHYLAMINO-P-CRESOL
Formula: C17 H29 N O
CAS: 88-27-7
State: SOLID (1.3% IN KBr DISC)
Class: COBLENTZ
Instrument: PERKIN-ELMER (GRATING)
Sampling: TRANSMISSION
Path length: 0.040 CM
Resolution: 4
Origin: US INDUSTRIAL CHEMICALS COMPANY, CINCINNATI, OHIO
1/CM	TRANSMITTANCE
602.141	0.645
611.421	0.627
620.7	0.508
629.98	0.638
639.26	0.671
648.54	0.644
657.819	0.61
667.099	0.684
676.379	0.705
685.658	0.715
694.938	0.728
704.218	0.738
713.498	0.745
722.777	0.745
732.057	0.742
741.337	0.732
750.616	0.672
759.896	0.737
769.176	0.718
778.456	0.708
787.735	0.723
797.015	0.627
806.295	0.616
815.574	0.579
824.854	0.2281
834.134	0.2299
843.413	0.703
852.693	0.745
861.973	0.735
871.253	0.691
880.532	0.466
889.812	0.535
899.092	0.588
908.371	0.732
917.651	0.698
926.931	0.638
936.211	0.718
945.49	0.716
954.77	0.686
964.05	0.693
973.329	0.649
982.609	0.669
991.889	0.644
1001.17	0.501
1010.45	0.276
1019.73	0.398
1029.01	0.52
1038.29	0.442
1047.57	0.467
1056.85	0.425
1066.13	0.3
1075.41	0.144
1084.69	0.125
1093.97	0.218
1103.25	0.21
1112.53	0.366
1121.8	0.511
1131.08	0.603
1140.36	0.593
1149.64	0.347
1158.92	0.576
1168.2	0.432
1177.48	0.455
1186.76	0.555
1196.04	0.422
1205.32	0.493
1214.6	0.286
1223.88	0.332
1233.16	0.094
1242.44	0.201
1251.72	0.264
1261	0.357
1270.28	0.461
1279.56	0.544
1288.84	0.562
1298.12	0.428
1307.4	0.705
1316.68	0.732
1325.96	0.732
1335.24	0.708
1344.52	0.679
1353.8	0.267
1363.08	0.218
1372.36	0.471
1381.64	0.622
1390.92	0.588
1400.2	0.603
1409.48	0.611
1418.76	0.422
1428.04	0.064
1437.32	0.161
1446.59	0.355
1455.87	0.328
1465.15	0.322
1474.43	0.435
1483.71	0.442
1492.99	0.725
1502.27	0.781
1511.55	0.786
1520.83	0.786
1530.11	0.786
1539.39	0.783
1548.67	0.779
1557.95	0.772
1567.23	0.766
1576.51	0.738
1585.79	0.755
1595.07	0.766
1604.35	0.761
1613.63	0.805
1622.91	0.81
1632.19	0.81
1641.47	0.81
1650.75	0.811
1660.03	0.815
1669.31	0.813
1678.59	0.816
1687.87	0.815
1697.15	0.813
1706.43	0.818
1715.71	0.82
1724.99	0.816
1734.27	0.815
1743.55	0.818
1752.83	0.818
1762.1	0.818
1771.38	0.811
1780.66	0.803
1789.94	0.789
1799.22	0.816
1808.5	0.837
1817.78	0.838
1827.06	0.842
1836.34	0.845
1845.62	0.845
1854.9	0.847
1864.18	0.847
1873.46	0.847
1882.74	0.845
1892.02	0.847
1901.3	0.847
1910.58	0.847
1919.86	0.847
1929.14	0.847
1938.42	0.849
1947.7	0.85
1956.98	0.847
1966.26	0.849
1975.54	0.845
1984.82	0.842
1994.1	0.84
2003.38	0.827
2012.66	0.825
2021.94	0.825
2031.22	0.825
2040.5	0.825
2049.78	0.8265
2059.06	0.828
2068.34	0.828
2077.62	0.828
2086.89	0.828
2096.17	0.828
2105.45	0.828
2114.73	0.828
2124.01	0.828
2133.29	0.827
2142.57	0.827
2151.85	0.827
2161.13	0.825
2170.41	0.825
2179.69	0.825
2188.97	0.825
2198.25	0.8263
2207.53	0.825
2216.81	0.823
2226.09	0.823
2235.37	0.8243
2244.65	0.823
2253.93	0.823
2263.21	0.823
2272.49	0.823
2281.77	0.823
2291.05	0.823
2300.33	0.823
2309.61	0.8224
2318.89	0.822
2328.17	0.82
2337.45	0.82
2346.73	0.818
2356.01	0.818
2365.29	0.8178
2374.57	0.816
2383.85	0.816
2393.13	0.818
2402.4	0.822
2411.68	0.8229
2420.96	0.825
2430.24	0.825
2439.52	0.825
2448.8	0.825
2458.08	0.8238
2467.36	0.823
2476.64	0.822
2485.92	0.8203
2495.2	0.82
2504.48	0.8194
2513.76	0.818
2523.04	0.8152
2532.32	0.8139
2541.6	0.811
2550.88	0.8111
2560.16	0.813
2569.44	0.8119
2578.72	0.8107
2588	0.8099
2597.28	0.808
2606.56	0.81
2615.84	0.81
2625.12	0.808
2634.4	0.8035
2643.68	0.8005
2652.96	0.7955
2662.24	0.791
2671.52	0.7865
2680.8	0.7754
2690.08	0.7201
2699.36	0.694
2708.64	0.7175
2717.92	0.746
2727.19	0.7543
2736.47	0.75
2745.75	0.7306
2755.03	0.6631
2764.31	0.5225
2773.59	0.1529
2782.87	0.1277
2792.15	0.3775
2801.43	0.4573
2810.71	0.3846
2819.99	0.2989
2829.27	0.4842
2838.55	0.5514
2847.83	0.366
2857.11	0.203
2866.39	0.2144
2875.67	0.237
2884.95	0.2188
2894.23	0.1938
2903.51	0.1537
2912.79	0.1603
2922.07	0.1785
2931.35	0.1459
2940.63	0.0326
2949.91	0.0662
2959.19	0.0708
2968.47	0.2134
2977.75	0.2374
2987.03	0.2908
2996.31	0.3926
3005.59	0.5419
3014.87	0.6278
3024.15	0.6893
3033.43	0.691
3042.71	0.6897
3051.98	0.6751
3061.26	0.6661
3070.54	0.6766
3079.82	0.683
3089.1	0.681
3098.38	0.6769
3107.66	0.6723
3116.94	0.6635
3126.22	0.6526
3135.5	0.6467
3144.78	0.6336
3154.06	0.6308
3163.34	0.6196
3172.62	0.6007
3181.9	0.5935
3191.18	0.5787
3200.46	0.5697
3209.74	0.5587
3219.02	0.5495
3228.3	0.5383
3237.58	0.5321
3246.86	0.5197
3256.14	0.5073
3265.42	0.4958
3274.7	0.4904
3283.98	0.4787
3293.26	0.465
3302.54	0.4534
3311.82	0.4447
3321.1	0.4398
3330.38	0.4304
3339.66	0.4275
3348.94	0.4195
3358.22	0.4159
3367.49	0.413
3376.77	0.413
3386.05	0.411
3395.33	0.411
3404.61	0.415
3413.89	0.419
3423.17	0.4223
3432.45	0.428
3441.73	0.4372
3451.01	0.4485
3460.29	0.4567
3469.57	0.472
3478.85	0.4876
3488.13	0.5064
3497.41	0.5251
3506.69	0.5467
3515.97	0.5711
3525.25	0.5977
3534.53	0.6195
3543.81	0.6515
3553.09	0.6798
3562.37	0.7065
3571.65	0.7264
3580.93	0.7542
3590.21	0.7731
3599.49	0.7912
3608.77	0.8056
3618.05	0.808
3627.33	0.81
3636.61	0.8143
3645.89	0.8255
3655.17	0.8317
3664.45	0.84
3673.73	0.844
3683.01	0.844
3692.28	0.844
3701.56	0.844
3710.84	0.844
3720.12	0.842
3729.4	0.84
3738.68	0.838
3747.96	0.842
3757.24	0.842
3766.52	0.842
3775.8	0.842
3785.08	0.8413
3794.36	0.838
3803.64	0.837
3812.92	0.837
3822.2	0.838
3831.48	0.838
3840.76	0.838
3850.04	0.838
3859.32	0.838
3868.6	0.838
3877.88	0.838
3887.16	0.838
3896.44	0.8377
3905.72	0.837
3915	0.837
3924.28	0.837
3933.56	0.837
3942.84	0.8371
3952.12	0.838
3961.4	0.838
3970.68	0.84
3979.96	0.84
3989.24	0.84
