Infrared Spectrum: o-NITROTOLUENE
Formula: C7 H7 N O2
CAS: 88-72-2
State: LIQUID (NEAT)
Class: COBLENTZ III
Instrument: PERKIN-ELMER 21 (GRATING)
Instrument parameters: FILTER CHANGE AT ABOUT 1090 CM^-^1.
Sampling: TRANSMISSION
Path length: CAPILLARY
Resolution: 2
Origin: SOUTHERN RESEARCH INSTITUTE
1/CM	TRANSMITTANCE
606.409	0.879
615.604	0.8819
624.8	0.885
633.995	0.885
643.191	0.8793
652.386	0.8597
661.581	0.708
670.777	0.6289
679.972	0.863
689.168	0.837
698.363	0.9053
707.559	0.8735
716.754	0.7017
725.949	0.127
735.145	0.1402
744.34	0.704
753.536	0.8657
762.731	0.8711
771.926	0.8412
781.122	0.6647
790.317	0.138
799.513	0.5539
808.708	0.9055
817.904	0.943
827.099	0.947
836.294	0.9369
845.49	0.8904
854.685	0.4283
863.881	0.4182
873.076	0.8669
882.271	0.9412
891.467	0.968
900.662	0.972
909.858	0.969
919.053	0.9602
928.249	0.9503
937.444	0.94
946.639	0.9195
955.835	0.8564
965.03	0.9229
974.226	0.9436
983.421	0.9307
992.616	0.929
1001.81	0.929
1011.01	0.925
1020.2	0.9088
1029.4	0.87
1038.59	0.7055
1047.79	0.7645
1056.98	0.8159
1066.18	0.885
1075.38	0.8603
1084.57	0.7518
1093.77	0.819
1102.96	0.892
1112.16	0.906
1121.35	0.9047
1130.55	0.891
1139.74	0.866
1148.94	0.7441
1158.13	0.6164
1167.33	0.6619
1176.52	0.8251
1185.72	0.874
1194.92	0.854
1204.11	0.7375
1213.31	0.7312
1222.5	0.8312
1231.7	0.887
1240.89	0.881
1250.09	0.8613
1259.28	0.8384
1268.48	0.8065
1277.67	0.7242
1286.87	0.7237
1296.07	0.7045
1305.26	0.4501
1314.46	0.42
1323.65	0.5678
1332.85	0.3554
1342.04	0.0518
1351.24	0.009
1360.43	0.0358
1369.63	0.194
1378.82	0.4091
1388.02	0.3616
1397.21	0.4876
1406.41	0.6396
1415.61	0.6887
1424.8	0.6175
1434	0.4097
1443.19	0.4456
1452.39	0.501
1461.58	0.4185
1470.78	0.3311
1479.97	0.3986
1489.17	0.2895
1498.36	0.3515
1507.56	0.2123
1516.76	0.0275
1525.95	0.022
1535.15	0.0283
1544.34	0.1925
1553.54	0.3602
1562.73	0.4817
1571.93	0.5061
1581.12	0.3903
1590.32	0.4906
1599.51	0.595
1608.71	0.4636
1617.9	0.2886
1627.1	0.735
1636.3	0.8263
1645.49	0.8413
1654.69	0.846
1663.88	0.8665
1673.08	0.885
1682.27	0.887
1691.47	0.887
1700.66	0.885
1709.86	0.885
1719.05	0.887
1728.25	0.887
1737.45	0.888
1746.64	0.8988
1755.84	0.9027
1765.03	0.903
1774.23	0.9047
1783.42	0.9127
1792.62	0.9076
1801.81	0.8829
1811.01	0.866
1820.2	0.8732
1829.4	0.8913
1838.59	0.899
1847.79	0.9
1856.99	0.904
1866.18	0.9091
1875.38	0.913
1884.57	0.9101
1893.77	0.9012
1902.96	0.896
1912.16	0.8898
1921.35	0.888
1930.55	0.8858
1939.74	0.882
1948.94	0.882
1958.14	0.8838
1967.33	0.887
1976.53	0.887
1985.72	0.8935
1994.92	0.8992
2004.11	0.9063
2013.31	0.9174
2022.5	0.925
2031.7	0.925
2040.89	0.9291
2050.09	0.93
2059.28	0.927
2068.48	0.9269
2077.68	0.925
2086.87	0.9229
2096.07	0.926
2105.26	0.927
2114.46	0.927
2123.65	0.927
2132.85	0.925
2142.04	0.9219
2151.24	0.9179
2160.43	0.914
2169.63	0.912
2178.83	0.913
2188.02	0.914
2197.22	0.9143
2206.41	0.918
2215.61	0.918
2224.8	0.9179
2234	0.917
2243.19	0.917
2252.39	0.917
2261.58	0.917
2270.78	0.917
2279.97	0.916
2289.17	0.9089
2298.37	0.8999
2307.56	0.8947
2316.76	0.8919
2325.95	0.889
2335.15	0.889
2344.34	0.888
2353.54	0.885
2362.73	0.885
2371.93	0.885
2381.12	0.885
2390.32	0.884
2399.52	0.8829
2408.71	0.875
2417.91	0.87
2427.1	0.87
2436.3	0.8821
2445.49	0.8871
2454.69	0.889
2463.88	0.889
2473.08	0.891
2482.27	0.891
2491.47	0.891
2500.66	0.891
2509.86	0.892
2519.06	0.892
2528.25	0.893
2537.45	0.891
2546.64	0.8868
2555.84	0.882
2565.03	0.879
2574.23	0.876
2583.42	0.874
2592.62	0.872
2601.81	0.872
2611.01	0.874
2620.2	0.8741
2629.4	0.876
2638.6	0.874
2647.79	0.8719
2656.99	0.87
2666.18	0.87
2675.38	0.871
2684.57	0.871
2693.77	0.871
2702.96	0.868
2712.16	0.866
2721.35	0.863
2730.55	0.8589
2739.75	0.854
2748.94	0.85
2758.14	0.8488
2767.33	0.847
2776.53	0.8469
2785.72	0.846
2794.92	0.8356
2804.11	0.8209
2813.31	0.8079
2822.5	0.799
2831.7	0.7742
2840.89	0.7317
2850.09	0.72
2859.29	0.7276
2868.48	0.7643
2877.68	0.7752
2886.87	0.778
2896.07	0.7749
2905.26	0.7606
2914.46	0.7116
2923.65	0.6719
2932.85	0.6824
2942.04	0.706
2951.24	0.7056
2960.44	0.676
2969.63	0.6378
2978.83	0.6434
2988.02	0.6701
2997.22	0.7326
3006.41	0.7645
3015.61	0.779
3024.8	0.779
3034	0.7726
3043.19	0.7566
3052.39	0.7426
3061.58	0.7199
3070.78	0.6934
3079.98	0.7094
3089.17	0.7477
3098.37	0.7874
3107.56	0.8003
3116.76	0.8213
3125.95	0.8331
3135.15	0.8423
3144.34	0.8491
3153.54	0.854
3162.73	0.857
3171.93	0.859
3181.13	0.859
3190.32	0.862
3199.52	0.8683
3208.71	0.874
3217.91	0.875
3227.1	0.872
3236.3	0.8763
3245.49	0.88
3254.69	0.88
3263.88	0.88
3273.08	0.88
3282.27	0.8821
3291.47	0.884
3300.67	0.884
3309.86	0.885
3319.06	0.885
3328.25	0.885
3337.45	0.8871
3346.64	0.888
3355.84	0.888
3365.03	0.887
3374.23	0.884
3383.42	0.884
3392.62	0.884
3401.82	0.8839
3411.01	0.8791
3420.21	0.882
3429.4	0.884
3438.6	0.8853
3447.79	0.8881
3456.99	0.889
3466.18	0.888
3475.38	0.888
3484.57	0.888
3493.77	0.888
3502.96	0.888
3512.16	0.888
3521.36	0.889
3530.55	0.891
3539.75	0.892
3548.94	0.892
3558.14	0.893
3567.33	0.893
3576.53	0.8927
3585.72	0.891
3594.92	0.891
3604.11	0.891
3613.31	0.891
3622.51	0.891
3631.7	0.8911
3640.9	0.892
3650.09	0.892
3659.29	0.893
3668.48	0.895
3677.68	0.895
3686.87	0.896
3696.07	0.897
3705.26	0.897
3714.46	0.896
3723.65	0.895
3732.85	0.895
3742.05	0.893
3751.24	0.893
3760.44	0.893
3769.63	0.893
3778.83	0.893
3788.02	0.892
3797.22	0.891
3806.41	0.888
3815.61	0.885
3824.8	0.883
3834	0.8818
3843.2	0.879
3852.39	0.876
3861.59	0.874
3870.78	0.8719
3879.98	0.871
3889.17	0.871
3898.37	0.871
3907.56	0.871
3916.76	0.871
3925.95	0.8709
3935.15	0.867
3944.34	0.867
3953.54	0.871
3962.74	0.872
3971.93	0.872
3981.13	0.872
3990.32	0.875
3999.52	0.8737
4008.71	0.8698
