Infrared Spectrum: ORTHOPHTHALIC ACID
Formula: C8 H6 O4
CAS: 88-99-3
State: SOLID (MINERAL OIL MULL)
Class: COBLENTZ
Instrument: Not specified, most likely a prism, grating, or hybrid spectrometer.
Sampling: TRANSMISSION
Resolution: 4
Origin: WYANDOTTE CHEMICALS CORP., WYANDOTTE, MICHIGAN, USA
MICROMETERS	TRANSMITTANCE
2.061	0.54
2.10188	0.56
2.14275	0.574
2.18363	0.589
2.22451	0.594
2.26538	0.603
2.30626	0.614
2.34714	0.63
2.38801	0.645
2.42889	0.664
2.46977	0.678
2.51064	0.684
2.55152	0.701
2.59239	0.722
2.63327	0.73
2.67415	0.739
2.71502	0.764
2.7559	0.773
2.79678	0.78
2.83765	0.788
2.87853	0.79
2.91941	0.788
2.96028	0.788
3.00116	0.775
3.04204	0.749
3.08291	0.664
3.12379	0.575
3.16467	0.497
3.20554	0.415
3.24642	0.327
3.2873	0.31
3.32817	0.26
3.36905	0.163
3.40992	0.071
3.4508	0.074
3.49168	0.109
3.53255	0.139
3.57343	0.333
3.61431	0.398
3.65518	0.448
3.69606	0.471
3.73694	0.477
3.77781	0.429
3.81869	0.439
3.85957	0.482
3.90044	0.514
3.94132	0.522
3.9822	0.499
4.02307	0.495
4.06395	0.565
4.10483	0.609
4.1457	0.642
4.18658	0.659
4.22745	0.679
4.26833	0.693
4.30921	0.695
4.35008	0.703
4.39096	0.737
4.43184	0.771
4.47271	0.785
4.51359	0.802
4.55447	0.812
4.59534	0.812
4.63622	0.814
4.6771	0.826
4.71797	0.846
4.75885	0.86
4.79973	0.86
4.8406	0.86
4.88148	0.86
4.92236	0.86
4.96323	0.862
5.00411	0.872
5.04498	0.889
5.08586	0.897
5.12674	0.902
5.16761	0.902
5.20849	0.904
5.24937	0.901
5.29024	0.908
5.33112	0.909
5.372	0.909
5.41287	0.904
5.45375	0.901
5.49463	0.906
5.5355	0.908
5.57638	0.906
5.61726	0.901
5.65813	0.88
5.69901	0.856
5.73989	0.802
5.78076	0.695
5.82164	0.422
5.86251	0.153
5.90339	0.083
5.94427	0.074
5.98514	0.124
6.02602	0.342
6.0669	0.47
6.10777	0.584
6.14865	0.64
6.18953	0.678
6.2304	0.586
6.27128	0.436
6.31216	0.638
6.35303	0.71
6.39391	0.741
6.43479	0.758
6.47566	0.761
6.51654	0.788
6.55742	0.798
6.59829	0.798
6.63917	0.713
6.68004	0.7
6.72092	0.761
6.7618	0.701
6.80267	0.512
6.84355	0.494
6.88443	0.58
6.9253	0.642
6.96618	0.667
7.00706	0.655
7.04793	0.514
7.08881	0.257
7.12969	0.178
7.17056	0.34
7.21144	0.475
7.25232	0.49
7.29319	0.597
7.33407	0.659
7.37495	0.698
7.41582	0.71
7.4567	0.705
7.49757	0.679
7.53845	0.652
7.57933	0.553
7.6202	0.408
7.66108	0.366
7.70196	0.318
7.74283	0.229
7.78371	0.137
7.82459	0.126
7.86546	0.177
7.90634	0.245
7.94722	0.362
7.98809	0.448
8.02897	0.516
8.06985	0.558
8.11072	0.582
8.1516	0.606
8.19248	0.632
8.23335	0.638
8.27423	0.645
8.3151	0.669
8.35598	0.7
8.39686	0.717
8.43773	0.722
8.47861	0.727
8.51949	0.73
8.56036	0.749
8.60124	0.751
8.64212	0.64
8.68299	0.649
8.72387	0.7
8.76475	0.684
8.80562	0.729
8.8465	0.756
8.88738	0.759
8.92825	0.754
8.96913	0.747
9.01001	0.751
9.05088	0.761
9.09176	0.776
9.13263	0.788
9.17351	0.798
9.21439	0.78
9.25526	0.725
9.29614	0.488
9.33702	0.379
9.37789	0.614
9.41877	0.691
9.45965	0.727
9.50052	0.752
9.5414	0.756
9.58228	0.756
9.62315	0.758
9.66403	0.759
9.70491	0.764
9.74578	0.761
9.78666	0.754
9.82754	0.752
9.86841	0.751
9.90929	0.706
9.95016	0.649
9.99104	0.72
10.0319	0.778
10.0728	0.778
10.1137	0.78
10.1545	0.775
10.1954	0.756
10.2363	0.715
10.2772	0.689
10.3181	0.768
10.3589	0.776
10.3998	0.775
10.4407	0.768
10.4816	0.77
10.5224	0.761
10.5633	0.749
10.6042	0.732
10.6451	0.703
10.6859	0.654
10.7268	0.614
10.7677	0.572
10.8086	0.536
10.8494	0.497
10.8903	0.451
10.9312	0.431
10.9721	0.41
11.013	0.393
11.0538	0.393
11.0947	0.403
11.1356	0.436
11.1765	0.478
11.2173	0.528
11.2582	0.579
11.2991	0.611
11.34	0.662
11.3808	0.703
11.4217	0.737
11.4626	0.763
11.5035	0.781
11.5443	0.798
11.5852	0.814
11.6261	0.817
11.667	0.821
11.7079	0.841
11.7487	0.848
11.7896	0.851
11.8305	0.853
11.8714	0.858
11.9122	0.856
11.9531	0.844
11.994	0.8
12.0349	0.741
12.0757	0.695
12.1166	0.715
12.1575	0.788
12.1984	0.826
12.2392	0.844
12.2801	0.848
12.321	0.839
12.3619	0.804
12.4028	0.737
12.4436	0.551
12.4845	0.478
12.5254	0.477
12.5663	0.446
12.6071	0.458
12.648	0.592
12.6889	0.65
12.7298	0.686
12.7706	0.718
12.8115	0.759
12.8524	0.78
12.8933	0.793
12.9341	0.807
12.975	0.81
13.0159	0.824
13.0568	0.838
13.0977	0.848
13.1385	0.853
13.1794	0.856
13.2203	0.858
13.2612	0.855
13.302	0.841
13.3429	0.812
13.3838	0.775
13.4247	0.696
13.4655	0.514
13.5064	0.417
13.5473	0.415
13.5882	0.494
13.6291	0.635
13.6699	0.73
13.7108	0.783
13.7517	0.822
13.7926	0.839
13.8334	0.853
13.8743	0.86
13.9152	0.86
13.9561	0.873
13.9969	0.887
14.0378	0.899
14.0787	0.908
14.1196	0.916
14.1604	0.918
14.2013	0.923
14.2422	0.923
14.2831	0.921
14.324	0.914
14.3648	0.89
14.4057	0.862
14.4466	0.831
14.4875	0.822
14.5283	0.829
14.5692	0.846
14.6101	0.851
14.651	0.851
14.6918	0.85
14.7327	0.831
14.7736	0.781
14.8145	0.724
14.8553	0.616
14.8962	0.531
14.9371	0.512
14.978	0.553
15.0189	0.58
15.0597	0.638
15.1006	0.705
15.1415	0.749
15.1824	0.773
15.2232	0.78
15.2641	0.78
15.305	0.778
15.3459	0.778
15.3867	0.775
15.4276	0.77
15.4685	0.763
15.5094	0.761
15.5502	0.747
15.5911	0.739
15.632	0.724
15.6729	0.71
15.7138	0.698
15.7546	0.693
15.7955	0.689
15.8364	0.686
15.8773	0.684
15.9181	0.681
15.959	0.667
15.9999	0.662
