Infrared Spectrum: Diphenyldisulfide
Formula: C12 H10 S2
CAS: 882-33-7
State: SOLUTION (5% CCl4 FOR 3800-1330, 5% CS2 FOR 1330-420 CM^-^1)
Melting point: 59 C
Class: COBLENTZ III
Instrument: DOW KBr FOREPRISM-GRATING
Instrument parameters: BLAZED AT 3.5, 12.0, 20.0 MICRON AND CHANGED AT 5.0, 7.5, 14.9 MICRON
Sampling: TRANSMISSION
Path length: 0.011 CM, 0.011 CM
Resolution: 2
Origin: DOW CHEMICAL COMPANY
1/CM	TRANSMITTANCE
3796	0.9507
3787	0.9502
3778	0.949
3769	0.9485
3760	0.9487
3751	0.947
3742	0.9469
3733	0.9466
3724	0.948
3715	0.9475
3706	0.9486
3697	0.9477
3688	0.9455
3679	0.9435
3670	0.945
3661	0.9435
3652	0.9438
3643	0.943
3634	0.9424
3625	0.9441
3616	0.946
3607	0.9475
3598	0.9476
3589	0.9494
3580	0.9499
3571	0.9485
3562	0.9489
3553	0.9491
3544	0.9497
3535	0.9507
3526	0.9488
3517	0.9485
3508	0.9483
3499	0.9479
3490	0.9476
3481	0.9474
3472	0.9471
3463	0.9469
3454	0.9467
3445	0.9465
3436	0.9462
3427	0.946
3418	0.9458
3409	0.9456
3400	0.9454
3391	0.9452
3382	0.9451
3373	0.945
3364	0.9448
3355	0.945
3346	0.9453
3337	0.9475
3328	0.9461
3319	0.947
3310	0.9498
3301	0.9488
3292	0.9488
3283	0.9507
3274	0.9506
3265	0.9506
3256	0.9489
3247	0.9505
3238	0.9505
3229	0.9506
3220	0.9512
3211	0.9518
3202	0.9507
3193	0.9531
3184	0.9508
3175	0.9501
3166	0.9479
3157	0.9453
3148	0.9406
3139	0.9429
3130	0.9439
3121	0.9451
3112	0.9454
3103	0.9451
3094	0.9418
3085	0.9129
3076	0.7993
3067	0.7303
3058	0.6895
3049	0.7974
3040	0.8787
3031	0.8932
3022	0.9009
3013	0.8719
3004	0.8851
2995	0.8922
2986	0.9203
2977	0.9347
2968	0.9442
2959	0.9481
2950	0.9482
2941	0.9469
2932	0.9468
2923	0.9471
2914	0.946
2905	0.9468
2896	0.9474
2887	0.9478
2878	0.9472
2869	0.947
2860	0.947
2851	0.9453
2842	0.9472
2833	0.9455
2824	0.9456
2815	0.9457
2806	0.9477
2797	0.9477
2788	0.9459
2779	0.9473
2770	0.947
2761	0.9464
2752	0.9461
2743	0.946
2734	0.9459
2725	0.9457
2716	0.9456
2707	0.9457
2698	0.9459
2689	0.946
2680	0.9461
2671	0.9462
2662	0.9464
2653	0.9482
2644	0.9465
2635	0.9465
2626	0.9485
2617	0.9486
2608	0.9486
2599	0.9487
2590	0.9488
2581	0.9489
2572	0.9491
2563	0.9492
2554	0.9494
2545	0.9495
2536	0.9497
2527	0.9499
2518	0.9501
2509	0.9502
2500	0.9504
2491	0.9506
2482	0.9508
2473	0.9536
2464	0.9546
2455	0.9535
2446	0.956
2437	0.9564
2428	0.9568
2419	0.9566
2410	0.956
2401	0.9567
2392	0.9556
2383	0.9569
2374	0.9605
2365	0.9603
2356	0.9776
2347	0.9679
2338	0.9578
2329	0.9555
2320	0.9573
2311	0.9556
2302	0.9553
2293	0.9562
2284	0.9531
2275	0.9499
2266	0.9532
2257	0.9519
2248	0.9522
2239	0.9537
2230	0.9546
2221	0.955
2212	0.9553
2203	0.9552
2194	0.955
2185	0.9528
2176	0.9543
2167	0.9519
2158	0.9515
2149	0.9508
2140	0.9503
2131	0.9506
2122	0.9492
2113	0.9509
2104	0.9511
2095	0.9515
2086	0.9521
2077	0.9528
2068	0.9539
2059	0.9547
2050	0.9577
2041	0.9566
2032	0.9571
2023	0.9548
2014	0.9488
2005	0.95
1996	0.9396
1987	0.9425
1978	0.9354
1969	0.9283
1960	0.9331
1951	0.9185
1942	0.9033
1933	0.9034
1924	0.9267
1915	0.935
1906	0.9378
1897	0.9325
1888	0.9251
1879	0.9074
1870	0.9123
1861	0.9072
1852	0.9194
1843	0.9319
1834	0.9335
1825	0.932
1816	0.9325
1807	0.9236
1798	0.9076
1789	0.9049
1780	0.9238
1771	0.9295
1762	0.9315
1753	0.9348
1744	0.93
1735	0.9246
1726	0.9235
1717	0.9367
1708	0.938
1699	0.9386
1690	0.9381
1681	0.9373
1672	0.9394
1663	0.9369
1654	0.9342
1645	0.9296
1636	0.9233
1627	0.9298
1618	0.9366
1609	0.939
1600	0.9231
1591	0.7799
1582	0.4695
1573	0.7236
1564	0.8193
1555	0.858
1546	0.8649
1537	0.9227
1528	0.9118
1519	0.9149
1510	0.9078
1501	0.9148
1492	0.8851
1483	0.3861
1474	0.6238
1465	0.8407
1456	0.8732
1447	0.8559
1438	0.649
1429	0.8992
1420	0.9343
1411	0.9468
1402	0.9538
1393	0.9548
1384	0.9665
1375	0.9321
1366	0.9395
1357	0.9471
1348	0.9503
1339	0.942
1330	0.9254
1321	0.9153
1312	0.9241
1303	0.8961
1294	0.8904
1285	0.9313
1276	0.9318
1267	0.9332
1258	0.9435
1249	0.9467
1240	0.9498
1231	0.9596
1222	0.9576
1213	0.9609
1204	0.9586
1195	0.952
1186	0.9375
1177	0.8948
1168	0.9202
1159	0.9184
1150	0.9134
1141	0.9301
1132	0.9523
1123	0.9574
1114	0.9519
1105	0.9366
1096	0.9034
1087	0.9171
1078	0.8096
1069	0.7773
1060	0.9141
1051	0.9403
1042	0.947
1033	0.9295
1024	0.5175
1015	0.9031
1006	0.9302
997	0.8802
988	0.9444
979	0.9432
970	0.9423
961	0.9435
952	0.9473
943	0.95
934	0.9503
925	0.9487
916	0.9429
907	0.9283
898	0.8754
889	0.937
880	0.9611
871	0.9555
862	0.9492
853	0.952
844	0.9542
835	0.9316
826	0.9413
817	0.9547
808	0.9682
799	0.9676
790	0.9591
781	0.9593
772	0.9519
763	0.9262
754	0.8629
745	0.3612
736	0.1449
727	0.7996
718	0.9017
709	0.9095
700	0.7744
691	0.2915
682	0.602
673	0.8861
664	0.9267
655	0.9642
646	0.9655
637	0.9765
628	0.9778
619	0.9817
610	0.9745
601	0.9807
592	0.9807
583	0.9745
574	0.9682
565	0.9674
556	0.9676
547	0.9656
538	0.9644
529	0.9609
520	0.9564
511	0.9487
502	0.9254
493	0.8666
484	0.8045
475	0.7316
466	0.7178
457	0.7601
448	0.7731
439	0.7735
430	0.7712
421	0.7694
