Infrared Spectrum: BENZOTHIAZOLE, 2-PHENYL-
Formula: C13 H9 N S
CAS: 883-93-2
State: SOLID (SPLIT MULL)
Melting point: 114 C
Class: COBLENTZ II
Instrument: PERKIN-ELMER 621 (GRATING)
Instrument parameters: GRATING CHANGE AT 623; ORDER CHANGE AT 2000. FILTERS AT 3146, 2494, 2000, 1146, 698, 497 CM^-^1
Sampling: TRANSMISSION
Path length: CAPILLARY: KBr PLATES FOR 4000-1335 AND CsBr PLATES FOR 1335-300
Resolution: 2
Origin: PERKIN-ELMER CORP. (R. HANNAH)
1/CM	TRANSMITTANCE
4000	0.718
3990	0.7182
3980	0.7184
3970	0.7186
3960	0.7188
3950	0.7189
3940	0.7186
3930	0.7182
3920	0.7194
3910	0.7208
3900	0.7221
3890	0.7236
3880	0.7251
3870	0.7265
3860	0.7278
3850	0.7288
3840	0.7296
3830	0.7305
3820	0.7312
3810	0.7321
3800	0.733
3790	0.7338
3780	0.7346
3770	0.7355
3760	0.7371
3750	0.7389
3740	0.7406
3730	0.7422
3720	0.7439
3710	0.7454
3700	0.7469
3690	0.7485
3680	0.7494
3670	0.7504
3660	0.7512
3650	0.7522
3640	0.753
3630	0.7533
3620	0.7536
3610	0.7539
3600	0.7542
3590	0.7545
3580	0.7549
3570	0.7553
3560	0.7557
3550	0.7561
3540	0.7562
3530	0.7562
3520	0.7562
3510	0.7564
3500	0.7565
3490	0.756
3480	0.7555
3470	0.7549
3460	0.7548
3450	0.7551
3440	0.7558
3430	0.7562
3420	0.7569
3410	0.7576
3400	0.7584
3390	0.7594
3380	0.7603
3370	0.7612
3360	0.7621
3350	0.7631
3340	0.7641
3330	0.7655
3320	0.7674
3310	0.7691
3300	0.7701
3290	0.7704
3280	0.7711
3270	0.7725
3260	0.7739
3250	0.7751
3240	0.7767
3230	0.7782
3220	0.7798
3210	0.7804
3200	0.7808
3190	0.7815
3180	0.7821
3170	0.7834
3160	0.7851
3150	0.7887
3140	0.7922
3130	0.7925
3120	0.7917
3110	0.7906
3100	0.7901
3090	0.7825
3080	0.7649
3070	0.7278
3060	0.7337
3050	0.7697
3040	0.7808
3030	0.7811
3020	0.7707
3010	0.7804
3000	0.7874
2990	0.7915
2980	0.793
2970	0.7934
2960	0.7938
2950	0.7939
2940	0.7937
2930	0.7928
2920	0.7939
2910	0.7984
2900	0.8036
2890	0.8068
2880	0.8075
2870	0.8081
2860	0.8072
2850	0.8076
2840	0.8108
2830	0.8148
2820	0.8176
2810	0.8204
2800	0.822
2790	0.8236
2780	0.8249
2770	0.8261
2760	0.8271
2750	0.8278
2740	0.8285
2730	0.8292
2720	0.8301
2710	0.831
2700	0.8318
2690	0.8325
2680	0.8333
2670	0.8344
2660	0.8356
2650	0.8368
2640	0.838
2630	0.839
2620	0.8401
2610	0.8402
2600	0.8403
2590	0.8404
2580	0.8407
2570	0.8411
2560	0.8414
2550	0.842
2540	0.8425
2530	0.8433
2520	0.8436
2510	0.8438
2500	0.844
2490	0.8442
2480	0.8445
2470	0.8453
2460	0.8461
2450	0.8468
2440	0.8477
2430	0.8481
2420	0.8483
2410	0.8485
2400	0.8487
2390	0.8489
2380	0.8488
2370	0.8486
2360	0.8485
2350	0.8481
2340	0.8473
2330	0.8451
2320	0.8428
2310	0.8417
2300	0.8425
2290	0.8434
2280	0.8442
2270	0.8451
2260	0.8463
2250	0.8474
2240	0.8494
2230	0.8514
2220	0.8535
2210	0.8546
2200	0.8554
2190	0.8563
2180	0.8571
2170	0.858
2160	0.8589
2150	0.8599
2140	0.8609
2130	0.8618
2120	0.8628
2110	0.8639
2100	0.8653
2090	0.8667
2080	0.8681
2070	0.8695
2060	0.8708
2050	0.872
2040	0.8732
2030	0.8737
2020	0.8735
2010	0.8723
2000	0.8749
1990	0.8739
1980	0.8732
1970	0.8668
1960	0.8653
1950	0.8651
1940	0.8704
1930	0.8731
1920	0.8728
1910	0.8656
1900	0.8662
1890	0.8655
1880	0.8678
1870	0.8745
1860	0.8756
1850	0.8747
1840	0.8702
1830	0.8713
1820	0.8718
1810	0.8675
1800	0.8617
1790	0.859
1780	0.8646
1770	0.8658
1760	0.8647
1750	0.8625
1740	0.8647
1730	0.8671
1720	0.8674
1710	0.8623
1700	0.861
1690	0.8597
1680	0.8581
1670	0.8575
1660	0.8571
1650	0.8556
1640	0.8541
1630	0.8509
1620	0.8491
1610	0.8494
1600	0.8504
1590	0.8359
1580	0.8421
1570	0.8477
1560	0.8353
1550	0.8165
1540	0.8394
1530	0.8371
1520	0.8347
1510	0.6674
1500	0.7615
1490	0.8174
1480	0.3403
1470	0.7505
1460	0.7921
1450	0.7211
1440	0.7404
1430	0.5767
1420	0.8053
1410	0.7948
1400	0.8088
1390	0.8178
1380	0.8181
1370	0.8212
1360	0.8208
1350	0.8015
1340	0.7644
1330	0.7958
1320	0.6858
1310	0.479
1300	0.7943
1290	0.7274
1280	0.7658
1270	0.8259
1260	0.8338
1250	0.6558
1240	0.7837
1230	0.6318
1220	0.6438
1210	0.8196
1200	0.8321
1190	0.8484
1180	0.8111
1170	0.8242
1160	0.6316
1150	0.7768
1140	0.8468
1130	0.8338
1120	0.8049
1110	0.8521
1100	0.8261
1090	0.8525
1080	0.8544
1070	0.5322
1060	0.8462
1050	0.8606
1040	0.8702
1030	0.7681
1020	0.8438
1010	0.7692
1000	0.6878
990	0.8528
980	0.8035
970	0.6884
960	0.1915
950	0.7691
940	0.7493
930	0.8268
920	0.7625
910	0.8571
900	0.881
890	0.883
880	0.8878
870	0.8901
860	0.8681
850	0.8428
840	0.8875
830	0.899
820	0.9016
810	0.9018
800	0.9018
790	0.9025
780	0.8901
770	0.4434
760	0.1935
750	0.8044
740	0.8665
730	0.4056
720	0.8153
710	0.8608
700	0.452
690	0.4928
680	0.6322
670	0.8499
660	0.8861
650	0.9115
640	0.9157
630	0.9147
620	0.7332
610	0.8787
600	0.8925
590	0.8939
580	0.8962
570	0.8953
560	0.8895
550	0.7447
540	0.8884
530	0.8957
520	0.8981
510	0.899
500	0.8932
490	0.8964
480	0.8914
470	0.8243
460	0.8364
450	0.886
440	0.8931
430	0.7997
420	0.8894
410	0.9007
400	0.9068
390	0.9086
380	0.9089
370	0.9084
360	0.9086
350	0.9073
340	0.9054
330	0.9017
320	0.8908
310	0.8557
300	0.8003
290	0.8061
