Infrared Spectrum: 2-Naphthoic acid, 3-hydroxy-, methyl ester
Formula: C12 H10 O3
CAS: 883-99-8
State: SOLUTION (10% CCl4 FOR 3800-1330, 10% CS2 FOR 1330-400 CM^-^1)
Class: COBLENTZ III
Instrument: DOW KBr FOREPRISM-GRATING
Instrument parameters: BLAZED AT 3.5, 12.0, 20.0 MICRON AND CHANGED AT 5.0, 7.5, 14.9 MICRON
Sampling: TRANSMISSION
Path length: 0.011 CM, 0.011 CM
Resolution: 2
Origin: DOW CHEMICAL COMPANY
1/CM	TRANSMITTANCE
3798	0.91
3789	0.9123
3780	0.9133
3771	0.9142
3762	0.9145
3753	0.9106
3744	0.9091
3735	0.9113
3726	0.9128
3717	0.9137
3708	0.9157
3699	0.9156
3690	0.9121
3681	0.9074
3672	0.899
3663	0.9021
3654	0.9036
3645	0.9012
3636	0.9007
3627	0.8998
3618	0.8951
3609	0.8898
3600	0.8882
3591	0.8898
3582	0.883
3573	0.8768
3564	0.8778
3555	0.8795
3546	0.8793
3537	0.8776
3528	0.8751
3519	0.8735
3510	0.8716
3501	0.8659
3492	0.8559
3483	0.8445
3474	0.8366
3465	0.8323
3456	0.8309
3447	0.8294
3438	0.8287
3429	0.8285
3420	0.8215
3411	0.8102
3402	0.7958
3393	0.781
3384	0.7631
3375	0.744
3366	0.724
3357	0.7025
3348	0.6691
3339	0.6383
3330	0.6005
3321	0.5387
3312	0.4783
3303	0.4316
3294	0.3477
3285	0.3045
3276	0.2719
3267	0.2539
3258	0.2454
3249	0.2435
3240	0.2693
3231	0.3102
3222	0.3554
3213	0.3846
3204	0.3898
3195	0.4156
3186	0.4888
3177	0.5532
3168	0.6027
3159	0.6221
3150	0.6521
3141	0.6754
3132	0.6949
3123	0.7107
3114	0.7204
3105	0.7258
3096	0.7266
3087	0.6996
3078	0.6822
3069	0.629
3060	0.5399
3051	0.5549
3042	0.65
3033	0.6506
3024	0.6647
3015	0.6726
3006	0.6645
2997	0.6699
2988	0.7365
2979	0.7435
2970	0.7175
2961	0.4293
2952	0.5031
2943	0.7523
2934	0.7971
2925	0.8051
2916	0.8086
2907	0.8005
2898	0.7969
2889	0.8098
2880	0.8232
2871	0.8273
2862	0.825
2853	0.7905
2844	0.753
2835	0.8113
2826	0.8371
2817	0.8408
2808	0.8462
2799	0.8511
2790	0.8511
2781	0.8483
2772	0.8559
2763	0.8631
2754	0.8675
2745	0.8686
2736	0.8633
2727	0.859
2718	0.8641
2709	0.8709
2700	0.8752
2691	0.8767
2682	0.8774
2673	0.8775
2664	0.877
2655	0.8775
2646	0.8763
2637	0.8737
2628	0.8741
2619	0.8744
2610	0.8733
2601	0.8718
2592	0.8724
2583	0.8793
2574	0.8852
2565	0.8877
2556	0.8879
2547	0.8845
2538	0.8788
2529	0.878
2520	0.8801
2511	0.883
2502	0.886
2493	0.8906
2484	0.8967
2475	0.9021
2466	0.9037
2457	0.9042
2448	0.9055
2439	0.9059
2430	0.9066
2421	0.9072
2412	0.9069
2403	0.9037
2394	0.8971
2385	0.9004
2376	0.9059
2367	0.9027
2358	0.9025
2349	0.9023
2340	0.9046
2331	0.9139
2322	0.9223
2313	0.9222
2304	0.9187
2295	0.9129
2286	0.9093
2277	0.9168
2268	0.9193
2259	0.9232
2250	0.9247
2241	0.9273
2232	0.9284
2223	0.9302
2214	0.9291
2205	0.9287
2196	0.9279
2187	0.9247
2178	0.9182
2169	0.9128
2160	0.9171
2151	0.9224
2142	0.9232
2133	0.9253
2124	0.9296
2115	0.934
2106	0.9322
2097	0.929
2088	0.9317
2079	0.9331
2070	0.9306
2061	0.92
2052	0.9176
2043	0.9155
2034	0.903
2025	0.8984
2016	0.9086
2007	0.9128
1998	0.8955
1989	0.9305
1980	0.9391
1971	0.9406
1962	0.9429
1953	0.9308
1944	0.8911
1935	0.9246
1926	0.9035
1917	0.8992
1908	0.8993
1899	0.9035
1890	0.9178
1881	0.9279
1872	0.9335
1863	0.9166
1854	0.9125
1845	0.9147
1836	0.9244
1827	0.9113
1818	0.8703
1809	0.8402
1800	0.894
1791	0.8893
1782	0.8885
1773	0.8853
1764	0.8562
1755	0.8254
1746	0.7884
1737	0.7263
1728	0.6877
1719	0.665
1710	0.345
1701	0.0282
1692	0.0072
1683	0.0054
1674	0.1287
1665	0.4433
1656	0.6207
1647	0.5679
1638	0.2786
1629	0.3853
1620	0.6782
1611	0.6886
1602	0.6466
1593	0.692
1584	0.5571
1575	0.4595
1566	0.6671
1557	0.688
1548	0.7499
1539	0.6917
1530	0.6104
1521	0.1037
1512	0.0925
1503	0.326
1494	0.7378
1485	0.7801
1476	0.7142
1467	0.0408
1458	0.1948
1449	0.1681
1440	0.0702
1431	0.5555
1422	0.582
1413	0.241
1404	0.449
1395	0.72
1386	0.5931
1377	0.5761
1368	0.6783
1359	0.5032
1350	0.4897
1341	0.6401
1332	0.1413
1323	0.0098
1314	0.1153
1305	0.1824
1296	0.0605
1287	0.0281
1278	0.0674
1269	0.3944
1260	0.6356
1251	0.6435
1242	0.5406
1233	0.2506
1224	0.0408
1215	0.0182
1206	0.0264
1197	0.2436
1188	0.3361
1179	0.5101
1170	0.1505
1161	0.4672
1152	0.6133
1143	0.0219
1134	0.292
1125	0.6229
1116	0.7601
1107	0.8009
1098	0.7852
1089	0.6849
1080	0.2642
1071	0.0427
1062	0.5898
1053	0.7693
1044	0.8241
1035	0.8535
1026	0.8662
1017	0.8526
1008	0.7629
999	0.8481
990	0.8621
981	0.863
972	0.829
963	0.8142
954	0.4121
945	0.6271
936	0.8168
927	0.8456
918	0.8196
909	0.457
900	0.7322
891	0.8299
882	0.8077
873	0.4457
864	0.5375
855	0.7941
846	0.6439
837	0.6449
828	0.8187
819	0.8212
810	0.8262
801	0.7974
792	0.2472
783	0.3755
774	0.7249
765	0.8095
756	0.7126
747	0.01
738	0.1522
729	0.6344
720	0.7123
711	0.6722
702	0.5283
693	0.3427
684	0.2622
675	0.3219
666	0.429
657	0.5756
648	0.6543
639	0.7353
630	0.7917
621	0.4844
612	0.8388
603	0.848
594	0.6046
585	0.8893
576	0.9063
567	0.9031
558	0.891
549	0.8947
540	0.8936
531	0.8947
522	0.9041
513	0.9196
504	0.9255
495	0.9292
486	0.9176
477	0.5127
468	0.719
459	0.8887
450	0.7854
441	0.8655
432	0.8909
423	0.8421
414	0.6554
405	0.4035
396	0.2678
387	0.2177
