Infrared Spectrum: 9-METHYL-PHENANTHRENE
Formula: C15 H12
CAS: 883-20-5
State: SOLUTION (SATURATED IN BENZENE)
Class: COBLENTZ
Instrument: Not specified, most likely a prism, grating, or hybrid spectrometer.
Sampling: TRANSMISSION
Path length: 0.05 CM
Resolution: 4
Origin: CENTRE D'ETUDES NUCLEAIRES DE GRENOBLE
MICROMETERS	TRANSMITTANCE
15.967	0.82
16.0226	0.8
16.0782	0.751
16.1339	0.601
16.1895	0.53
16.2451	0.543
16.3007	0.605
16.3563	0.736
16.412	0.795
16.4676	0.811
16.5232	0.843
16.5788	0.853
16.6344	0.863
16.6901	0.871
16.7457	0.876
16.8013	0.88
16.8569	0.883
16.9125	0.888
16.9682	0.898
17.0238	0.916
17.0794	0.921
17.135	0.921
17.1906	0.931
17.2463	0.933
17.3019	0.935
17.3575	0.936
17.4131	0.938
17.4687	0.94
17.5244	0.94
17.58	0.94
17.6356	0.938
17.6912	0.936
17.7468	0.928
17.8025	0.921
17.8581	0.916
17.9137	0.9
17.9693	0.888
18.0249	0.855
18.0806	0.825
18.1362	0.803
18.1918	0.8
18.2474	0.806
18.303	0.816
18.3587	0.825
18.4143	0.838
18.4699	0.86
18.5255	0.878
18.5811	0.895
18.6368	0.906
18.6924	0.905
18.748	0.903
18.8036	0.901
18.8592	0.903
18.9149	0.903
18.9705	0.898
19.0261	0.89
19.0817	0.881
19.1373	0.865
19.193	0.846
19.2486	0.808
19.3042	0.74
19.3598	0.636
19.4154	0.496
19.4711	0.406
19.5267	0.308
19.5823	0.303
19.6379	0.351
19.6935	0.44
19.7492	0.541
19.8048	0.605
19.8604	0.648
19.916	0.658
19.9716	0.686
20.0273	0.725
20.0829	0.76
20.1385	0.783
20.1941	0.808
20.2497	0.838
20.3054	0.858
20.361	0.868
20.4166	0.883
20.4722	0.898
20.5278	0.906
20.5835	0.915
20.6391	0.92
20.6947	0.925
20.7503	0.925
20.806	0.925
20.8616	0.925
20.9172	0.926
20.9728	0.926
21.0284	0.93
21.0841	0.935
21.1397	0.935
21.1953	0.936
21.2509	0.938
21.3065	0.938
21.3622	0.931
21.4178	0.93
21.4734	0.933
21.529	0.936
21.5846	0.936
21.6403	0.935
21.6959	0.933
21.7515	0.93
21.8071	0.923
21.8627	0.918
21.9184	0.911
21.974	0.906
22.0296	0.901
22.0852	0.9
22.1408	0.896
22.1965	0.89
22.2521	0.876
22.3077	0.86
22.3633	0.843
22.4189	0.813
22.4746	0.795
22.5302	0.726
22.5858	0.685
22.6414	0.63
22.697	0.543
22.7527	0.47
22.8083	0.371
22.8639	0.328
22.9195	0.27
22.9751	0.251
23.0308	0.253
23.0864	0.271
23.142	0.318
23.1976	0.385
23.2532	0.453
23.3089	0.538
23.3645	0.566
23.4201	0.626
23.4757	0.661
23.5313	0.708
23.587	0.723
23.6426	0.731
23.6982	0.735
23.7538	0.731
23.8094	0.716
23.8651	0.685
23.9207	0.621
23.9763	0.565
24.0319	0.446
24.0875	0.386
24.1432	0.326
24.1988	0.28
24.2544	0.271
24.31	0.276
24.3656	0.295
24.4213	0.325
24.4769	0.363
24.5325	0.44
24.5881	0.495
24.6437	0.548
24.6994	0.625
24.755	0.688
24.8106	0.711
24.8662	0.751
24.9218	0.783
24.9775	0.803
25.0331	0.818
25.0887	0.846
25.1443	0.858
25.1999	0.866
25.2556	0.875
25.3112	0.883
25.3668	0.895
25.4224	0.906
25.478	0.911
25.5337	0.913
25.5893	0.915
25.6449	0.92
25.7005	0.925
25.7561	0.928
25.8118	0.93
25.8674	0.931
25.923	0.933
25.9786	0.933
26.0342	0.936
26.0899	0.941
26.1455	0.943
26.2011	0.945
26.2567	0.946
26.3123	0.948
26.368	0.95
26.4236	0.95
26.4792	0.951
26.5348	0.951
26.5904	0.951
26.6461	0.951
26.7017	0.95
26.7573	0.948
26.8129	0.95
26.8685	0.956
26.9242	0.955
26.9798	0.951
27.0354	0.951
27.091	0.95
27.1466	0.95
27.2023	0.95
27.2579	0.95
27.3135	0.95
27.3691	0.951
27.4247	0.953
27.4804	0.953
27.536	0.953
27.5916	0.955
27.6472	0.956
27.7028	0.956
27.7585	0.955
27.8141	0.955
27.8697	0.956
27.9253	0.956
27.9809	0.956
28.0366	0.958
28.0922	0.958
28.1478	0.958
28.2034	0.958
28.259	0.956
28.3147	0.955
28.3703	0.953
28.4259	0.955
28.4815	0.955
28.5371	0.955
28.5928	0.953
28.6484	0.95
28.704	0.953
28.7596	0.956
28.8152	0.956
28.8709	0.955
28.9265	0.953
28.9821	0.951
29.0377	0.951
29.0933	0.951
29.149	0.951
29.2046	0.953
29.2602	0.953
29.3158	0.953
29.3714	0.953
29.4271	0.953
29.4827	0.953
29.5383	0.953
29.5939	0.953
29.6495	0.951
29.7052	0.95
29.7608	0.948
29.8164	0.95
29.872	0.951
29.9276	0.951
29.9833	0.95
30.0389	0.95
30.0945	0.95
30.1501	0.95
30.2057	0.953
30.2614	0.953
30.317	0.95
30.3726	0.95
30.4282	0.953
30.4839	0.953
30.5395	0.953
30.5951	0.953
30.6507	0.95
30.7063	0.948
30.762	0.948
30.8176	0.946
30.8732	0.946
30.9288	0.946
30.9844	0.948
31.0401	0.948
31.0957	0.948
31.1513	0.948
31.2069	0.948
31.2625	0.946
31.3182	0.946
31.3738	0.943
31.4294	0.945
31.485	0.948
31.5406	0.95
31.5963	0.95
31.6519	0.948
31.7075	0.946
31.7631	0.946
31.8187	0.951
31.8744	0.946
31.93	0.945
31.9856	0.94
32.0412	0.941
32.0968	0.943
32.1525	0.941
32.2081	0.94
32.2637	0.938
32.3193	0.936
32.3749	0.94
32.4306	0.938
32.4862	0.936
32.5418	0.933
32.5974	0.935
32.653	0.933
32.7087	0.926
32.7643	0.921
32.8199	0.921
32.8755	0.923
32.9311	0.923
32.9868	0.92
33.0424	0.92
33.098	0.918
33.1536	0.918
33.2092	0.915
33.2649	0.91
33.3205	0.901
33.3761	0.903
33.4317	0.9
33.4873	0.896
33.543	0.883
33.5986	0.881
33.6542	0.883
33.7098	0.881
33.7654	0.875
33.8211	0.87
33.8767	0.868
33.9323	0.866
33.9879	0.866
34.0435	0.868
34.0992	0.87
34.1548	0.868
34.2104	0.866
34.266	0.865
34.3216	0.865
34.3773	0.865
34.4329	0.865
34.4885	0.868
34.5441	0.87
34.5997	0.871
34.6554	0.871
34.711	0.871
34.7666	0.875
34.8222	0.878
34.8778	0.881
34.9335	0.885
34.9891	0.886
35.0447	0.883
