Infrared Spectrum: 1H-v-TRIAZOLO[4,5-d]PYRIMIDINE, 5-AMINO-7-CHLORO-
Formula: C4 H3 Cl N6
CAS: 88780-84-1
State: SOLID (0.7 mg / 650 mg KBr DISC)
Class: COBLENTZ III
Instrument: PERKIN-ELMER 21 (GRATING)
Instrument parameters: FILTER CHANGE AT 1090 CM^-^1
Sampling: TRANSMISSION
Resolution: 4
Origin: SOUTHERN RESEARCH INSTITUTE
1/CM	TRANSMITTANCE
601.173	0.913
610.042	0.913
618.911	0.91
627.78	0.9
636.649	0.884
645.518	0.866
654.387	0.861
663.256	0.877
672.126	0.911
680.995	0.911
689.864	0.903
698.733	0.89
707.602	0.885
716.471	0.875
725.34	0.872
734.209	0.84
743.078	0.852
751.947	0.848
760.816	0.831
769.685	0.787
778.554	0.734
787.423	0.721
796.293	0.836
805.162	0.817
814.031	0.799
822.9	0.756
831.769	0.685
840.638	0.734
849.507	0.748
858.376	0.808
867.245	0.827
876.114	0.848
884.983	0.852
893.852	0.848
902.721	0.842
911.59	0.821
920.46	0.782
929.329	0.682
938.198	0.663
947.067	0.824
955.936	0.809
964.805	0.775
973.674	0.75
982.543	0.696
991.412	0.593
1000.28	0.662
1009.15	0.772
1018.02	0.735
1026.89	0.707
1035.76	0.721
1044.63	0.745
1053.5	0.76
1062.36	0.783
1071.23	0.811
1080.1	0.774
1088.97	0.751
1097.84	0.745
1106.71	0.761
1115.58	0.763
1124.45	0.787
1133.32	0.794
1142.19	0.787
1151.06	0.784
1159.92	0.782
1168.79	0.772
1177.66	0.765
1186.53	0.759
1195.4	0.751
1204.27	0.725
1213.14	0.675
1222.01	0.512
1230.88	0.476
1239.75	0.584
1248.62	0.792
1257.48	0.804
1266.35	0.743
1275.22	0.72
1284.09	0.75
1292.96	0.79
1301.83	0.807
1310.7	0.795
1319.57	0.787
1328.44	0.78
1337.31	0.775
1346.17	0.754
1355.04	0.693
1363.91	0.544
1372.78	0.552
1381.65	0.659
1390.52	0.754
1399.39	0.744
1408.26	0.739
1417.13	0.734
1426	0.71
1434.87	0.748
1443.73	0.75
1452.6	0.749
1461.47	0.719
1470.34	0.698
1479.21	0.656
1488.08	0.595
1496.95	0.494
1505.82	0.394
1514.69	0.401
1523.56	0.463
1532.43	0.599
1541.29	0.625
1550.16	0.595
1559.03	0.447
1567.9	0.357
1576.77	0.362
1585.64	0.546
1594.51	0.613
1603.38	0.54
1612.25	0.336
1621.12	0.149
1629.99	0.158
1638.85	0.256
1647.72	0.258
1656.59	0.389
1665.46	0.467
1674.33	0.559
1683.2	0.701
1692.07	0.759
1700.94	0.79
1709.81	0.823
1718.68	0.842
1727.54	0.852
1736.41	0.863
1745.28	0.866
1754.15	0.874
1763.02	0.877
1771.89	0.886
1780.76	0.892
1789.63	0.896
1798.5	0.903
1807.37	0.906
1816.24	0.909
1825.1	0.908
1833.97	0.905
1842.84	0.896
1851.71	0.892
1860.58	0.892
1869.45	0.892
1878.32	0.892
1887.19	0.894
1896.06	0.89
1904.93	0.887
1913.8	0.886
1922.66	0.885
1931.53	0.886
1940.4	0.884
1949.27	0.88
1958.14	0.879
1967.01	0.88
1975.88	0.867
1984.75	0.871
1993.62	0.872
2002.49	0.871
2011.36	0.867
2020.22	0.862
2029.09	0.861
2037.96	0.863
2046.83	0.86
2055.7	0.853
2064.57	0.852
2073.44	0.851
2082.31	0.85
2091.18	0.848
2100.05	0.851
2108.91	0.857
2117.78	0.85
2126.65	0.85
2135.52	0.847
2144.39	0.838
2153.26	0.837
2162.13	0.836
2171	0.836
2179.87	0.829
2188.74	0.828
2197.61	0.828
2206.47	0.827
2215.34	0.826
2224.21	0.824
2233.08	0.822
2241.95	0.819
2250.82	0.819
2259.69	0.818
2268.56	0.816
2277.43	0.809
2286.3	0.809
2295.17	0.801
2304.03	0.794
2312.9	0.79
2321.77	0.78
2330.64	0.78
2339.51	0.783
2348.38	0.785
2357.25	0.785
2366.12	0.788
2374.99	0.783
2383.86	0.778
2392.73	0.777
2401.59	0.773
2410.46	0.768
2419.33	0.769
2428.2	0.767
2437.07	0.751
2445.94	0.74
2454.81	0.744
2463.68	0.74
2472.55	0.738
2481.42	0.734
2490.29	0.731
2499.15	0.727
2508.02	0.722
2516.89	0.712
2525.76	0.706
2534.63	0.704
2543.5	0.705
2552.37	0.704
2561.24	0.698
2570.11	0.692
2578.98	0.688
2587.84	0.685
2596.71	0.675
2605.58	0.662
2614.45	0.656
2623.32	0.649
2632.19	0.644
2641.06	0.642
2649.93	0.636
2658.8	0.628
2667.67	0.625
2676.54	0.628
2685.4	0.624
2694.27	0.613
2703.14	0.612
2712.01	0.613
2720.88	0.609
2729.75	0.604
2738.62	0.6
2747.49	0.599
2756.36	0.595
2765.23	0.578
2774.1	0.564
2782.96	0.557
2791.83	0.56
2800.7	0.561
2809.57	0.559
2818.44	0.56
2827.31	0.571
2836.18	0.58
2845.05	0.586
2853.92	0.59
2862.79	0.605
2871.66	0.61
2880.52	0.618
2889.39	0.619
2898.26	0.617
2907.13	0.614
2916	0.61
2924.87	0.604
2933.74	0.596
2942.61	0.588
2951.48	0.575
2960.35	0.568
2969.21	0.555
2978.08	0.549
2986.95	0.536
2995.82	0.531
3004.69	0.532
3013.56	0.536
3022.43	0.536
3031.3	0.534
3040.17	0.535
3049.04	0.532
3057.91	0.526
3066.77	0.522
3075.64	0.511
3084.51	0.507
3093.38	0.491
3102.25	0.474
3111.12	0.462
3119.99	0.455
3128.86	0.453
3137.73	0.457
3146.6	0.467
3155.47	0.469
3164.33	0.472
3173.2	0.477
3182.07	0.472
3190.94	0.467
3199.81	0.459
3208.68	0.458
3217.55	0.465
3226.42	0.496
3235.29	0.523
3244.16	0.552
3253.03	0.569
3261.89	0.57
3270.76	0.564
3279.63	0.555
3288.5	0.546
3297.37	0.532
3306.24	0.513
3315.11	0.488
3323.98	0.462
3332.85	0.433
3341.72	0.426
3350.58	0.425
3359.45	0.428
3368.32	0.44
3377.19	0.44
3386.06	0.434
3394.93	0.426
3403.8	0.428
3412.67	0.435
3421.54	0.433
3430.41	0.429
3439.28	0.435
3448.14	0.45
3457.01	0.471
3465.88	0.502
3474.75	0.53
3483.62	0.551
3492.49	0.566
3501.36	0.589
3510.23	0.605
3519.1	0.622
3527.97	0.625
3536.84	0.642
3545.7	0.649
3554.57	0.666
3563.44	0.675
3572.31	0.685
3581.18	0.698
3590.05	0.71
3598.92	0.72
3607.79	0.726
3616.66	0.741
3625.53	0.75
3634.4	0.756
3643.26	0.761
3652.13	0.769
3661	0.777
3669.87	0.788
3678.74	0.795
3687.61	0.801
3696.48	0.801
3705.35	0.799
3714.22	0.797
3723.09	0.797
3731.95	0.799
3740.82	0.802
3749.69	0.801
3758.56	0.798
3767.43	0.797
3776.3	0.799
3785.17	0.799
3794.04	0.799
3802.91	0.797
3811.78	0.795
3820.65	0.793
3829.51	0.785
3838.38	0.785
3847.25	0.787
3856.12	0.789
3864.99	0.79
3873.86	0.789
3882.73	0.792
3891.6	0.792
3900.47	0.792
3909.34	0.787
3918.21	0.785
3927.07	0.784
3935.94	0.78
3944.81	0.778
3953.68	0.782
3962.55	0.782
3971.42	0.778
3980.29	0.779
3989.16	0.793
