Infrared Spectrum: 5-BROMOSALICYLIC ACID
Formula: C7 H5 Br O3
CAS: 89-55-4
State: SOLID (MULL)
Melting point: 168-170 C
Class: COBLENTZ
Instrument: Not specified, most likely a prism, grating, or hybrid spectrometer.
Sampling: TRANSMISSION
Resolution: 4
Origin: WYANDOTTE CHEMICALS CORP., WYANDOTTE, MICHIGAN, USA
MICROMETERS	TRANSMITTANCE
2.027	0.379
2.06671	0.386
2.10642	0.394
2.14612	0.4
2.18583	0.404
2.22554	0.405
2.26525	0.41
2.30496	0.412
2.34466	0.424
2.38437	0.442
2.42408	0.449
2.46379	0.455
2.5035	0.464
2.5432	0.48
2.58291	0.509
2.62262	0.515
2.66233	0.534
2.70204	0.545
2.74174	0.565
2.78145	0.572
2.82116	0.577
2.86087	0.602
2.90057	0.61
2.94028	0.61
2.97999	0.615
3.0197	0.587
3.05941	0.444
3.09911	0.312
3.13882	0.302
3.17853	0.284
3.21824	0.247
3.25795	0.212
3.29765	0.178
3.33736	0.123
3.37707	0.036
3.41678	0.034
3.45649	0.041
3.49619	0.039
3.5359	0.088
3.57561	0.181
3.61532	0.237
3.65503	0.256
3.69473	0.257
3.73444	0.282
3.77415	0.304
3.81386	0.307
3.85357	0.307
3.89327	0.301
3.93298	0.307
3.97269	0.319
4.0124	0.329
4.05211	0.336
4.09181	0.372
4.13152	0.402
4.17123	0.425
4.21094	0.45
4.25065	0.454
4.29035	0.444
4.33006	0.47
4.36977	0.499
4.40948	0.554
4.44919	0.567
4.48889	0.577
4.5286	0.594
4.56831	0.613
4.60802	0.632
4.64772	0.637
4.68743	0.642
4.72714	0.652
4.76685	0.68
4.80656	0.677
4.84626	0.683
4.88597	0.698
4.92568	0.713
4.96539	0.742
5.0051	0.757
5.0448	0.767
5.08451	0.773
5.12422	0.79
5.16393	0.808
5.20364	0.831
5.24334	0.841
5.28305	0.825
5.32276	0.841
5.36247	0.87
5.40218	0.903
5.44188	0.895
5.48159	0.926
5.5213	0.943
5.56101	0.948
5.60072	0.886
5.64042	0.933
5.68013	0.971
5.71984	0.965
5.75955	0.965
5.79926	0.995
5.83896	0.99
5.87867	0.868
5.91838	0.605
5.95809	0.382
5.9978	0.148
6.0375	0.099
6.07721	0.194
6.11692	0.304
6.15663	0.337
6.19634	0.159
6.23604	0.354
6.27575	0.434
6.31546	0.43
6.35517	0.425
6.39487	0.552
6.43458	0.602
6.47429	0.65
6.514	0.677
6.55371	0.718
6.59341	0.765
6.63312	0.783
6.67283	0.652
6.71254	0.384
6.75225	0.236
6.79195	0.091
6.83166	0.089
6.87137	0.079
6.91108	0.054
6.95079	0.084
6.99049	0.133
7.0302	0.183
7.06991	0.286
7.10962	0.349
7.14933	0.399
7.18903	0.384
7.22874	0.246
7.26845	0.222
7.30816	0.297
7.34787	0.327
7.38757	0.399
7.42728	0.495
7.46699	0.549
7.5067	0.584
7.54641	0.59
7.58611	0.517
7.62582	0.445
7.66553	0.449
7.70524	0.207
7.74495	0.146
7.78465	0.244
7.82436	0.312
7.86407	0.369
7.90378	0.424
7.94349	0.44
7.98319	0.425
8.0229	0.347
8.06261	0.229
8.10232	0.174
8.14203	0.184
8.18173	0.146
8.22144	0.161
8.26115	0.136
8.30086	0.104
8.34056	0.091
8.38027	0.096
8.41998	0.131
8.45969	0.186
8.4994	0.246
8.5391	0.289
8.57881	0.336
8.61852	0.349
8.65823	0.371
8.69794	0.386
8.73764	0.439
8.77735	0.472
8.81706	0.497
8.85677	0.495
8.89648	0.505
8.93618	0.532
8.97589	0.547
9.0156	0.56
9.05531	0.552
9.09502	0.5
9.13472	0.547
9.17443	0.582
9.21414	0.603
9.25385	0.512
9.29356	0.555
9.33326	0.592
9.37297	0.615
9.41268	0.637
9.45239	0.638
9.4921	0.643
9.5318	0.653
9.57151	0.662
9.61122	0.673
9.65093	0.678
9.69064	0.682
9.73034	0.685
9.77005	0.688
9.80976	0.682
9.84947	0.683
9.88917	0.68
9.92888	0.682
9.96859	0.675
10.0083	0.677
10.048	0.673
10.0877	0.67
10.1274	0.667
10.1671	0.662
10.2068	0.653
10.2465	0.633
10.2863	0.628
10.326	0.622
10.3657	0.61
10.4054	0.6
10.4451	0.55
10.4848	0.502
10.5245	0.653
10.5642	0.668
10.6039	0.667
10.6436	0.657
10.6833	0.643
10.723	0.633
10.7628	0.625
10.8025	0.603
10.8422	0.599
10.8819	0.575
10.9216	0.547
10.9613	0.522
11.001	0.495
11.0407	0.457
11.0804	0.427
11.1201	0.356
11.1598	0.314
11.1995	0.321
11.2392	0.342
11.279	0.362
11.3187	0.414
11.3584	0.449
11.3981	0.484
11.4378	0.525
11.4775	0.545
11.5172	0.519
11.5569	0.499
11.5966	0.57
11.6363	0.62
11.676	0.64
11.7157	0.662
11.7554	0.682
11.7952	0.7
11.8349	0.71
11.8746	0.73
11.9143	0.74
11.954	0.713
11.9937	0.66
12.0334	0.59
12.0731	0.43
12.1128	0.244
12.1525	0.133
12.1922	0.247
12.2319	0.399
12.2717	0.549
12.3114	0.658
12.3511	0.717
12.3908	0.752
12.4305	0.792
12.4702	0.811
12.5099	0.831
12.5496	0.833
12.5893	0.813
12.629	0.775
12.6687	0.642
12.7084	0.497
12.7481	0.487
12.7879	0.67
12.8276	0.792
12.8673	0.86
12.907	0.89
12.9467	0.915
12.9864	0.938
13.0261	0.96
13.0658	0.971
13.1055	0.983
13.1452	0.98
13.1849	0.951
13.2246	0.871
13.2644	0.868
13.3041	0.933
13.3438	0.981
13.3835	0.995
13.4232	1.004
13.4629	0.988
13.5026	0.988
13.5423	0.976
13.582	0.97
13.6217	0.968
13.6614	0.966
13.7011	0.963
13.7408	0.963
13.7806	0.965
13.8203	0.956
13.86	0.938
13.8997	0.935
13.9394	0.931
13.9791	0.95
14.0188	0.958
14.0585	0.96
14.0982	0.955
14.1379	0.943
14.1776	0.918
14.2173	0.888
14.257	0.856
14.2968	0.8
14.3365	0.748
14.3762	0.672
14.4159	0.597
14.4556	0.49
14.4953	0.396
14.535	0.299
14.5747	0.231
14.6144	0.201
14.6541	0.191
14.6938	0.201
14.7335	0.202
14.7733	0.206
14.813	0.216
14.8527	0.219
14.8924	0.232
14.9321	0.262
14.9718	0.286
15.0115	0.309
15.0512	0.341
15.0909	0.366
15.1306	0.415
15.1703	0.447
15.21	0.499
15.2497	0.55
15.2895	0.59
15.3292	0.612
15.3689	0.637
15.4086	0.653
15.4483	0.662
15.488	0.677
15.5277	0.69
15.5674	0.69
15.6071	0.698
15.6468	0.705
15.6865	0.707
15.7262	0.705
15.766	0.687
15.8057	0.675
15.8454	0.637
15.8851	0.59
15.9248	0.529
15.9645	0.45
16.0042	0.442
