Infrared Spectrum: 2,5-Dichloronitrobenzene
Formula: C6 H3 Cl2 N O2
CAS: 89-61-2
State: SOLUTION (10% CCl4 FOR 3800-1340, 10% CS2 FOR 1340-400 CM^-^1)
Class: COBLENTZ III
Instrument: BECKMAN IR-9 (GRATING)
Instrument parameters: ORDER CHANGES: 670, 1200, 2000 CM^-^1
Sampling: TRANSMISSION
Path length: 0.011 CM, 0.011 CM
Resolution: 2
Origin: DOW CHEMICAL COMPANY
1/CM	TRANSMITTANCE
3804	0.8634
3795	0.8602
3786	0.8601
3777	0.8589
3768	0.8593
3759	0.8627
3750	0.8635
3741	0.8649
3732	0.8673
3723	0.8683
3714	0.8684
3705	0.8705
3696	0.8686
3687	0.8673
3678	0.8651
3669	0.8649
3660	0.8641
3651	0.8636
3642	0.863
3633	0.8629
3624	0.8641
3615	0.8637
3606	0.8633
3597	0.8628
3588	0.8624
3579	0.862
3570	0.8596
3561	0.8599
3552	0.8624
3543	0.8628
3534	0.8632
3525	0.8613
3516	0.8615
3507	0.8614
3498	0.8614
3489	0.8613
3480	0.8612
3471	0.8611
3462	0.8608
3453	0.8606
3444	0.8605
3435	0.8603
3426	0.8602
3417	0.8603
3408	0.8605
3399	0.8606
3390	0.8608
3381	0.861
3372	0.8614
3363	0.862
3354	0.8624
3345	0.8647
3336	0.8654
3327	0.864
3318	0.8643
3309	0.8667
3300	0.8648
3291	0.865
3282	0.8672
3273	0.8671
3264	0.8665
3255	0.8658
3246	0.8651
3237	0.8644
3228	0.8636
3219	0.8626
3210	0.8607
3201	0.8556
3192	0.8548
3183	0.8502
3174	0.8473
3165	0.8436
3156	0.8399
3147	0.835
3138	0.8306
3129	0.819
3120	0.7999
3111	0.7698
3102	0.6188
3093	0.6671
3084	0.7446
3075	0.7763
3066	0.8209
3057	0.8439
3048	0.8443
3039	0.8523
3030	0.8387
3021	0.8431
3012	0.8543
3003	0.8579
2994	0.858
2985	0.8596
2976	0.8596
2967	0.8602
2958	0.8613
2949	0.8599
2940	0.8573
2931	0.8534
2922	0.8487
2913	0.8403
2904	0.8214
2895	0.8006
2886	0.7907
2877	0.8086
2868	0.8271
2859	0.8393
2850	0.8456
2841	0.8452
2832	0.8409
2823	0.8467
2814	0.8402
2805	0.8491
2796	0.8574
2787	0.8595
2778	0.8629
2769	0.8628
2760	0.8617
2751	0.8587
2742	0.8543
2733	0.8489
2724	0.8454
2715	0.8439
2706	0.8441
2697	0.8469
2688	0.8499
2679	0.8528
2670	0.8554
2661	0.8578
2652	0.8617
2643	0.8602
2634	0.8631
2625	0.8638
2616	0.8646
2607	0.8653
2598	0.8658
2589	0.8656
2580	0.8656
2571	0.8652
2562	0.8642
2553	0.8617
2544	0.8597
2535	0.8632
2526	0.8655
2517	0.8669
2508	0.8669
2499	0.867
2490	0.8667
2481	0.8672
2472	0.8671
2463	0.8666
2454	0.8641
2445	0.8621
2436	0.8562
2427	0.8591
2418	0.8607
2409	0.8626
2400	0.8651
2391	0.8659
2382	0.87
2373	0.8725
2364	0.8663
2355	0.8748
2346	0.8764
2337	0.8734
2328	0.8735
2319	0.8748
2310	0.8721
2301	0.8705
2292	0.8741
2283	0.8723
2274	0.8714
2265	0.8695
2256	0.8681
2247	0.8674
2238	0.8675
2229	0.8661
2220	0.8646
2211	0.8661
2202	0.8672
2193	0.8671
2184	0.8664
2175	0.8672
2166	0.8647
2157	0.8647
2148	0.8644
2139	0.8643
2130	0.8642
2121	0.8637
2112	0.8639
2103	0.8637
2094	0.8617
2085	0.8634
2076	0.8631
2067	0.863
2058	0.863
2049	0.864
2040	0.8628
2031	0.8628
2022	0.8649
2013	0.8649
2004	0.8641
1995	0.8597
1986	0.861
1977	0.8589
1968	0.859
1959	0.8601
1950	0.8566
1941	0.854
1932	0.8513
1923	0.8404
1914	0.8146
1905	0.8067
1896	0.8461
1887	0.8536
1878	0.8504
1869	0.8535
1860	0.8519
1851	0.8498
1842	0.8477
1833	0.8447
1824	0.8449
1815	0.8471
1806	0.8443
1797	0.8413
1788	0.8343
1779	0.8055
1770	0.7936
1761	0.8038
1752	0.8211
1743	0.832
1734	0.8342
1725	0.836
1716	0.8345
1707	0.8304
1698	0.8303
1689	0.8314
1680	0.8307
1671	0.8307
1662	0.8165
1653	0.7936
1644	0.7754
1635	0.794
1626	0.7839
1617	0.7594
1608	0.7393
1599	0.6416
1590	0.4689
1581	0.5384
1572	0.3984
1563	0.2446
1554	-0.0036
1545	-0.0036
1536	0.0418
1527	0.2179
1518	0.4757
1509	0.5806
1500	0.6329
1491	0.6709
1482	0.6167
1473	0.2419
1464	0.1734
1455	0.5644
1446	0.7025
1437	0.7117
1428	0.7425
1419	0.7704
1410	0.7584
1401	0.6867
1392	0.6931
1383	0.6671
1374	0.5626
1365	0.217
1356	-0.0036
1347	0.009
1338	0.3446
1329	0.6219
1320	0.7292
1311	0.7593
1302	0.7747
1293	0.8
1284	0.8036
1275	0.6202
1266	0.7915
1257	0.7962
1248	0.5617
1239	0.8223
1230	0.8756
1221	0.8891
1212	0.8933
1203	0.8899
1194	0.8794
1185	0.8627
1176	0.8487
1167	0.845
1158	0.6526
1149	0.7241
1140	0.7366
1131	0.8199
1122	0.789
1113	0.5269
1104	0.1039
1095	0.3151
1086	0.729
1077	0.806
1068	0.7957
1059	0.6433
1050	0.3657
1041	0.7834
1032	0.8659
1023	0.8839
1014	0.8894
1005	0.8898
996	0.8861
987	0.8879
978	0.8856
969	0.8805
960	0.861
951	0.8745
942	0.887
933	0.8878
924	0.8808
915	0.8681
906	0.8496
897	0.7796
888	0.2172
879	0.4614
870	0.8317
861	0.8885
852	0.9423
843	0.8872
834	0.7506
825	-0.0026
816	0.6521
807	0.8522
798	0.8609
789	0.8406
780	0.6948
771	0.2583
762	0.7694
753	0.5826
744	0.8641
735	0.8732
726	0.8725
717	0.8685
708	0.8487
699	0.7704
690	0.8034
681	0.8349
672	0.7395
663	0.8048
654	0.8892
645	0.8988
636	0.8683
627	0.7811
618	0.5482
609	0.781
600	0.8225
591	0.8352
582	0.8372
573	0.8244
564	0.7823
555	0.6163
546	0.5255
537	0.6788
528	0.8039
519	0.819
510	0.8033
501	0.7544
492	0.6365
483	0.6629
474	0.7562
465	0.7486
456	0.7177
447	0.6546
438	0.5969
429	0.4816
420	0.3632
411	0.3146
