Infrared Spectrum: O-TOLUIC ACID, METHYL ESTER
Formula: C9 H10 O2
CAS: 89-71-4
Class: COBLENTZ
Instrument: Not specified, most likely a prism, grating, or hybrid spectrometer.
Sampling: TRANSMISSION
Path length: SMEAR
Resolution: 4
Origin: TENNESSEE EASTMAN COMPANY, RESEARCH LABORATORIES
MICROMETERS	TRANSMITTANCE
2.041	0.99
2.08095	0.99
2.12089	0.99
2.16084	0.99
2.20079	0.99
2.24074	0.983
2.28068	0.976
2.32063	0.976
2.36058	0.976
2.40053	0.98
2.44047	0.975
2.48042	0.978
2.52037	0.978
2.56032	0.98
2.60026	0.981
2.64021	0.978
2.68016	0.986
2.7201	0.981
2.76005	0.976
2.8	0.978
2.83995	0.976
2.87989	0.976
2.91984	0.961
2.95979	0.968
2.99974	0.973
3.03968	0.973
3.07963	0.973
3.11958	0.973
3.15952	0.97
3.19947	0.961
3.23942	0.923
3.27937	0.84
3.31931	0.79
3.35926	0.723
3.39921	0.792
3.43916	0.88
3.4791	0.898
3.51905	0.9
3.559	0.96
3.59895	0.968
3.63889	0.963
3.67884	0.966
3.71879	0.968
3.75873	0.968
3.79868	0.968
3.83863	0.97
3.87858	0.961
3.91852	0.965
3.95847	0.966
3.99842	0.968
4.03837	0.968
4.07831	0.968
4.11826	0.968
4.15821	0.968
4.19815	0.968
4.2381	1.008
4.27805	0.991
4.318	0.966
4.35794	0.953
4.39789	0.951
4.43784	0.963
4.47779	0.961
4.51773	0.961
4.55768	0.961
4.59763	0.961
4.63758	0.961
4.67752	0.96
4.71747	0.951
4.75742	0.935
4.79736	0.94
4.83731	0.943
4.87726	0.936
4.91721	0.94
4.95715	0.945
4.9971	0.953
5.03705	0.94
5.077	0.931
5.11694	0.928
5.15689	0.911
5.19684	0.911
5.23678	0.908
5.27673	0.936
5.31668	0.936
5.35663	0.933
5.39657	0.931
5.43652	0.921
5.47647	0.9
5.51642	0.911
5.55636	0.911
5.59631	0.88
5.63626	0.85
5.67621	0.767
5.71615	0.6
5.7561	0.078
5.79605	0.073
5.83599	0.341
5.87594	0.632
5.91589	0.73
5.95584	0.772
5.99578	0.825
6.03573	0.865
6.07568	0.863
6.11563	0.878
6.15557	0.873
6.19552	0.843
6.23547	0.688
6.27541	0.838
6.31536	0.838
6.35531	0.81
6.39526	0.868
6.4352	0.881
6.47515	0.89
6.5151	0.89
6.55505	0.891
6.59499	0.881
6.63494	0.813
6.67489	0.708
6.71484	0.72
6.75478	0.777
6.79473	0.675
6.83468	0.504
6.87462	0.494
6.91457	0.405
6.95452	0.445
6.99447	0.697
7.03441	0.806
7.07436	0.856
7.11431	0.865
7.15426	0.863
7.1942	0.803
7.23415	0.768
7.2741	0.841
7.31404	0.868
7.35399	0.87
7.39394	0.87
7.43389	0.865
7.47383	0.861
7.51378	0.846
7.55373	0.815
7.59368	0.75
7.63362	0.527
7.67357	0.252
7.71352	0.181
7.75347	0.359
7.79341	0.425
7.83336	0.319
7.87331	0.108
7.91325	0.049
7.9532	0.068
7.99315	0.191
8.0331	0.445
8.07304	0.62
8.11299	0.692
8.15294	0.673
8.19289	0.662
8.23283	0.722
8.27278	0.717
8.31273	0.715
8.35267	0.632
8.39262	0.542
8.43257	0.665
8.47252	0.73
8.51246	0.743
8.55241	0.698
8.59236	0.717
8.63231	0.748
8.67225	0.682
8.7122	0.475
8.75215	0.484
8.7921	0.525
8.83204	0.565
8.87199	0.632
8.91194	0.698
8.95188	0.747
8.99183	0.753
9.03178	0.72
9.07173	0.56
9.11167	0.282
9.15162	0.141
9.19157	0.094
9.23152	0.339
9.27146	0.554
9.31141	0.683
9.35136	0.763
9.3913	0.801
9.43125	0.788
9.4712	0.678
9.51115	0.723
9.55109	0.78
9.59104	0.787
9.63099	0.79
9.67094	0.828
9.71088	0.86
9.75083	0.873
9.79078	0.878
9.83073	0.88
9.87067	0.881
9.91062	0.881
9.95057	0.881
9.99051	0.883
10.0305	0.883
10.0704	0.881
10.1104	0.89
10.1503	0.881
10.1903	0.876
10.2302	0.865
10.2701	0.823
10.3101	0.75
10.35	0.74
10.39	0.767
10.4299	0.798
10.4699	0.813
10.5098	0.831
10.5498	0.853
10.5897	0.866
10.6297	0.873
10.6696	0.876
10.7096	0.878
10.7495	0.878
10.7895	0.878
10.8294	0.878
10.8694	0.878
10.9093	0.88
10.9492	0.881
10.9892	0.883
11.0291	0.885
11.0691	0.885
11.109	0.881
11.149	0.885
11.1889	0.886
11.2289	0.883
11.2688	0.883
11.3088	0.883
11.3487	0.883
11.3887	0.883
11.4286	0.88
11.4686	0.876
11.5085	0.878
11.5485	0.881
11.5884	0.881
11.6284	0.883
11.6683	0.886
11.7082	0.89
11.7482	0.89
11.7881	0.888
11.8281	0.88
11.868	0.853
11.908	0.843
11.9479	0.811
11.9879	0.738
12.0278	0.732
12.0678	0.82
12.1077	0.863
12.1477	0.873
12.1876	0.88
12.2276	0.885
12.2675	0.886
12.3075	0.886
12.3474	0.881
12.3874	0.868
12.4273	0.85
12.4672	0.84
12.5072	0.845
12.5471	0.861
12.5871	0.868
12.627	0.868
12.667	0.855
12.7069	0.82
12.7469	0.81
12.7868	0.831
12.8268	0.855
12.8667	0.866
12.9067	0.871
12.9466	0.87
12.9866	0.871
13.0265	0.87
13.0665	0.863
13.1064	0.853
13.1464	0.833
13.1863	0.798
13.2262	0.748
13.2662	0.662
13.3061	0.517
13.3461	0.397
13.386	0.277
13.426	0.202
13.4659	0.156
13.5059	0.141
13.5458	0.151
13.5858	0.286
13.6257	0.429
13.6657	0.582
13.7056	0.688
13.7456	0.76
13.7855	0.798
13.8255	0.823
13.8654	0.823
13.9054	0.841
13.9453	0.85
13.9852	0.856
14.0252	0.858
14.0651	0.858
14.1051	0.858
14.145	0.853
14.185	0.838
14.2249	0.816
14.2649	0.795
14.3048	0.76
14.3448	0.743
14.3847	0.733
14.4247	0.742
14.4646	0.772
14.5046	0.795
14.5445	0.818
14.5845	0.825
14.6244	0.833
14.6643	0.835
14.7043	0.835
14.7442	0.835
14.7842	0.835
14.8241	0.833
14.8641	0.833
14.904	0.826
14.944	0.82
14.9839	0.801
15.0239	0.762
15.0638	0.727
15.1038	0.715
15.1437	0.725
15.1837	0.738
15.2236	0.757
15.2636	0.768
15.3035	0.782
15.3435	0.792
15.3834	0.793
15.4233	0.793
15.4633	0.793
15.5032	0.793
15.5432	0.793
15.5831	0.793
15.6231	0.792
15.663	0.79
15.703	0.79
15.7429	0.79
15.7829	0.79
15.8228	0.788
15.8628	0.787
15.9027	0.785
15.9427	0.783
15.9826	0.785
