Infrared Spectrum: Benzoic acid, 2,4-dihydroxy-
Formula: C7 H6 O4
CAS: 89-86-1
State: SOLID (SPLIT MULL), FLUOROLUBE FOR 3800-1330 CM^-^1, NUJOL FOR 1330-450 CM^-^1
Class: COBLENTZ II
Instrument: DOW KBr FOREPRISM-GRATING
Instrument parameters: BLAZED AT 3.5, 12.0, 20.0 MICRON AND CHANGED AT 5.0, 7.5, 14.9 MICRON
Sampling: TRANSMISSION
Resolution: 2
Origin: DOW CHEMICAL COMPANY
1/CM	TRANSMITTANCE
3770	0.8525
3761	0.8539
3752	0.8554
3743	0.8568
3734	0.8582
3725	0.8594
3716	0.8614
3707	0.8635
3698	0.8657
3689	0.8678
3680	0.8701
3671	0.8723
3662	0.8746
3653	0.8767
3644	0.8792
3635	0.8818
3626	0.8842
3617	0.886
3608	0.888
3599	0.8886
3590	0.8741
3581	0.881
3572	0.8883
3563	0.8904
3554	0.8915
3545	0.8918
3536	0.8911
3527	0.8821
3518	0.8573
3509	0.8294
3500	0.8134
3491	0.8061
3482	0.7972
3473	0.7831
3464	0.7549
3455	0.7207
3446	0.6901
3437	0.6603
3428	0.6115
3419	0.5619
3410	0.4472
3401	0.3444
3392	0.2406
3383	0.1402
3374	0.1364
3365	0.2083
3356	0.3792
3347	0.436
3338	0.5051
3329	0.5498
3320	0.5771
3311	0.5972
3302	0.6104
3293	0.6204
3284	0.6297
3275	0.6362
3266	0.6382
3257	0.6355
3248	0.6272
3239	0.6169
3230	0.6085
3221	0.603
3212	0.5984
3203	0.5904
3194	0.5784
3185	0.564
3176	0.5487
3167	0.5326
3158	0.5181
3149	0.5078
3140	0.4994
3131	0.4917
3122	0.4781
3113	0.4626
3104	0.4569
3095	0.4541
3086	0.4482
3077	0.4401
3068	0.4306
3059	0.422
3050	0.4134
3041	0.41
3032	0.408
3023	0.4064
3014	0.4064
3005	0.408
2996	0.413
2987	0.4185
2978	0.4246
2969	0.4315
2960	0.4387
2951	0.4476
2942	0.456
2933	0.4641
2924	0.4737
2915	0.4817
2906	0.4806
2897	0.4769
2888	0.4705
2879	0.4634
2870	0.4588
2861	0.4577
2852	0.4597
2843	0.47
2834	0.4831
2825	0.4966
2816	0.5117
2807	0.526
2798	0.5391
2789	0.5493
2780	0.5594
2771	0.5693
2762	0.5794
2753	0.5888
2744	0.5971
2735	0.5989
2726	0.599
2717	0.5983
2708	0.598
2699	0.598
2690	0.5985
2681	0.6007
2672	0.6066
2663	0.6105
2654	0.6117
2645	0.6128
2636	0.6139
2627	0.615
2618	0.616
2609	0.6165
2600	0.6164
2591	0.6154
2582	0.6104
2573	0.6036
2564	0.5999
2555	0.597
2546	0.596
2537	0.601
2528	0.6094
2519	0.6205
2510	0.638
2501	0.6548
2492	0.6693
2483	0.6832
2474	0.6961
2465	0.7081
2456	0.7212
2447	0.7361
2438	0.7474
2429	0.758
2420	0.7688
2411	0.7767
2402	0.7837
2393	0.7904
2384	0.7968
2375	0.8033
2366	0.8101
2357	0.8167
2348	0.8256
2339	0.8338
2330	0.8321
2321	0.8285
2312	0.836
2303	0.848
2294	0.8575
2285	0.8621
2276	0.8661
2267	0.8696
2258	0.8732
2249	0.8767
2240	0.8799
2231	0.883
2222	0.8862
2213	0.8893
2204	0.8924
2195	0.8964
2186	0.9008
2177	0.9052
2168	0.91
2159	0.9151
2150	0.9174
2141	0.9187
2132	0.9201
2123	0.9215
2114	0.9234
2105	0.9253
2096	0.9271
2087	0.9293
2078	0.9315
2069	0.9325
2060	0.934
2051	0.938
2042	0.9452
2033	0.9523
2024	0.9789
2015	0.9638
2006	0.9666
1997	0.9743
1988	0.9806
1979	0.9834
1970	0.9828
1961	0.9952
1952	0.9809
1943	0.9821
1934	0.9759
1925	0.9625
1916	0.9698
1907	0.9844
1898	0.9883
1889	0.989
1880	0.9844
1871	0.976
1862	0.9744
1853	0.9752
1844	0.9663
1835	0.9736
1826	0.9795
1817	0.9799
1808	0.9764
1799	0.9785
1790	0.9767
1781	0.9681
1772	0.9675
1763	0.9675
1754	0.9631
1745	0.9464
1736	0.9246
1727	0.9005
1718	0.8775
1709	0.8668
1700	0.8297
1691	0.7707
1682	0.6176
1673	0.3941
1664	0.1445
1655	0.0475
1646	0.0533
1637	0.0853
1628	0.1513
1619	0.4104
1610	0.5429
1601	0.6154
1592	0.6282
1583	0.6949
1574	0.8106
1565	0.8425
1556	0.8471
1547	0.8442
1538	0.8232
1529	0.6109
1520	0.631
1511	0.7815
1502	0.7356
1493	0.7017
1484	0.6431
1475	0.5204
1466	0.3562
1457	0.3541
1448	0.1646
1439	0.3368
1430	0.4442
1421	0.3666
1412	0.3034
1403	0.385
1394	0.5056
1385	0.6458
1376	0.6919
1367	0.6942
1358	0.5506
1349	0.4912
1340	0.5131
1331	0.556
1322	0.6136
1313	0.635
1304	0.491
1295	0.2879
1286	0.1994
1277	0.2294
1268	0.2579
1259	0.1979
1250	0.1238
1241	0.0521
1232	0.0194
1223	0.1184
1214	0.3336
1205	0.4004
1196	0.4808
1187	0.3156
1178	0.6294
1169	0.7217
1160	0.2305
1151	0.688
1142	0.7841
1133	0.8398
1124	0.8853
1115	0.9028
1106	0.8989
1097	0.5469
1088	0.7674
1079	0.8604
1070	0.8962
1061	0.9152
1052	0.9271
1043	0.9355
1034	0.9401
1025	0.9418
1016	0.94
1007	0.9362
998	0.9257
989	0.9086
980	0.2378
971	0.861
962	0.9068
953	0.8928
944	0.9199
935	0.914
926	0.8997
917	0.8745
908	0.8352
899	0.7497
890	0.6344
881	0.5534
872	0.6138
863	0.7422
854	0.7662
845	0.5481
836	0.8842
827	0.911
818	0.8925
809	0.9055
800	0.6164
791	0.8408
782	0.7915
773	0.4158
764	0.9009
755	0.9183
746	0.8521
737	0.9055
728	0.896
719	0.8644
710	0.8061
701	0.694
692	0.463
683	0.6381
674	0.8051
665	0.8532
656	0.8803
647	0.8952
638	0.7748
629	0.6665
620	0.6908
611	0.6758
602	0.6007
593	0.7781
584	0.8464
575	0.88
566	0.9006
557	0.9121
548	0.9225
539	0.9
530	0.6055
521	0.9321
512	0.9593
503	0.9554
494	0.9025
485	0.8265
476	0.7445
467	0.8992
458	0.9121
