Infrared Spectrum: BENZYLAMINE, o-METHYL-
Formula: C8 H11 N
CAS: 89-93-0
State: CAPILLARY
Class: COBLENTZ III
Instrument: BECKMAN IR-9 (GRATING)
Instrument parameters: ORDER CHANGES: 670, 1200, 2000 CM^-^1
Sampling: TRANSMISSION
Resolution: 2
Origin: DOW CHEMICAL COMPANY
1/CM	TRANSMITTANCE
402	0.5285
411	0.4874
420	0.4938
429	0.5293
438	0.5193
447	0.5634
456	0.5279
465	0.6428
474	0.6806
483	0.6999
492	0.7058
501	0.6889
510	0.6931
519	0.7103
528	0.7292
537	0.7418
546	0.75
555	0.7443
564	0.7531
573	0.7695
582	0.7703
591	0.7471
600	0.6626
609	0.7078
618	0.7585
627	0.7724
636	0.7831
645	0.7849
654	0.7856
663	0.7856
672	0.7839
681	0.7787
690	0.771
699	0.7578
708	0.7331
717	0.7024
726	0.6215
735	0.34
744	0.1639
753	0.1882
762	0.2255
771	0.3462
780	0.5896
789	0.6421
798	0.6037
807	0.5528
816	0.4825
825	0.4892
834	0.5015
843	0.4738
852	0.4389
861	0.4319
870	0.4348
879	0.431
888	0.4483
897	0.4877
906	0.5285
915	0.5692
924	0.6065
933	0.6209
942	0.6099
951	0.6561
960	0.6947
969	0.6938
978	0.6776
987	0.6739
996	0.6805
1005	0.7139
1014	0.7247
1023	0.7008
1032	0.6517
1041	0.6112
1050	0.5791
1059	0.6204
1068	0.6836
1077	0.7368
1086	0.7808
1095	0.7875
1104	0.7864
1113	0.785
1122	0.7833
1131	0.7808
1140	0.7878
1149	0.7725
1158	0.7424
1167	0.7544
1176	0.765
1185	0.7258
1194	0.7622
1203	0.7896
1212	0.7881
1221	0.7671
1230	0.7742
1239	0.7948
1248	0.7961
1257	0.7928
1266	0.7793
1275	0.7421
1284	0.7222
1293	0.7494
1302	0.7765
1311	0.7712
1320	0.7705
1329	0.776
1338	0.7541
1347	0.7326
1356	0.7172
1365	0.7288
1374	0.714
1383	0.5974
1392	0.5832
1401	0.6934
1410	0.7454
1419	0.7453
1428	0.7103
1437	0.664
1446	0.5851
1455	0.5356
1464	0.3797
1473	0.4912
1482	0.5789
1491	0.4975
1500	0.4497
1509	0.6745
1518	0.7371
1527	0.7455
1536	0.7428
1545	0.7342
1554	0.7237
1563	0.7097
1572	0.6876
1581	0.6561
1590	0.6276
1599	0.594
1608	0.5524
1617	0.5889
1626	0.6287
1635	0.6511
1644	0.6588
1653	0.6997
1662	0.7351
1671	0.7555
1680	0.7712
1689	0.7826
1698	0.7917
1707	0.8005
1716	0.8068
1725	0.8133
1734	0.8227
1743	0.8243
1752	0.8251
1761	0.8281
1770	0.8307
1779	0.8304
1788	0.8285
1797	0.8196
1806	0.8106
1815	0.8119
1824	0.8175
1833	0.8207
1842	0.8136
1851	0.8137
1860	0.8192
1869	0.822
1878	0.8215
1887	0.8205
1896	0.8202
1905	0.8128
1914	0.8018
1923	0.7975
1932	0.8107
1941	0.8106
1950	0.806
1959	0.8036
1968	0.8076
1977	0.8211
1986	0.8244
1995	0.8292
2004	0.8294
2013	0.8297
2022	0.8305
2031	0.8311
2040	0.8317
2049	0.8318
2058	0.8318
2067	0.8318
2076	0.8317
2085	0.8317
2094	0.8321
2103	0.8324
2112	0.8327
2121	0.8328
2130	0.8325
2139	0.8323
2148	0.8321
2157	0.8315
2166	0.8309
2175	0.8302
2184	0.8295
2193	0.8289
2202	0.8284
2211	0.8278
2220	0.8263
2229	0.8225
2238	0.8202
2247	0.8225
2256	0.8259
2265	0.8261
2274	0.826
2283	0.8248
2292	0.8218
2301	0.8145
2310	0.8096
2319	0.8126
2328	0.814
2337	0.8131
2346	0.8134
2355	0.8136
2364	0.8137
2373	0.8136
2382	0.815
2391	0.8194
2400	0.8248
2409	0.8239
2418	0.8228
2427	0.8221
2436	0.8216
2445	0.8213
2454	0.8213
2463	0.8214
2472	0.8212
2481	0.8206
2490	0.8198
2499	0.8188
2508	0.8174
2517	0.8141
2526	0.8115
2535	0.8107
2544	0.8105
2553	0.8099
2562	0.8089
2571	0.808
2580	0.8071
2589	0.8062
2598	0.8051
2607	0.8038
2616	0.8026
2625	0.8022
2634	0.8021
2643	0.8015
2652	0.8008
2661	0.8001
2670	0.7992
2679	0.7978
2688	0.796
2697	0.7942
2706	0.7918
2715	0.7894
2724	0.7848
2733	0.7726
2742	0.7586
2751	0.7542
2760	0.7532
2769	0.753
2778	0.7531
2787	0.7532
2796	0.749
2805	0.7393
2814	0.7258
2823	0.703
2832	0.6734
2841	0.6407
2850	0.6027
2859	0.5786
2868	0.5417
2877	0.487
2886	0.4744
2895	0.4884
2904	0.5099
2913	0.5141
2922	0.4877
2931	0.4675
2940	0.4694
2949	0.4779
2958	0.491
2967	0.5124
2976	0.5373
2985	0.5526
2994	0.596
3003	0.6232
3012	0.6312
3021	0.591
3030	0.5095
3039	0.5331
3048	0.5873
3057	0.5897
3066	0.5867
3075	0.5726
3084	0.5821
3093	0.6854
3102	0.6988
3111	0.6971
3120	0.7042
3129	0.726
3138	0.7326
3147	0.7318
3156	0.7275
3165	0.7205
3174	0.7141
3183	0.7076
3192	0.7018
3201	0.6975
3210	0.6958
3219	0.6943
3228	0.6935
3237	0.6925
3246	0.6914
3255	0.6848
3264	0.6769
3273	0.6665
3282	0.6524
3291	0.6394
3300	0.6279
3309	0.6245
3318	0.6266
3327	0.6335
3336	0.6439
3345	0.6525
3354	0.6471
3363	0.6251
3372	0.5956
3381	0.5876
3390	0.5933
3399	0.6379
3408	0.6758
3417	0.6918
3426	0.7019
3435	0.7115
3444	0.721
3453	0.7293
3462	0.7371
3471	0.7438
3480	0.7501
3489	0.756
3498	0.7614
3507	0.7661
3516	0.7708
3525	0.7747
3534	0.7782
3543	0.7817
3552	0.7851
3561	0.7882
3570	0.7912
3579	0.7944
3588	0.7968
3597	0.7993
3606	0.8008
3615	0.8019
3624	0.8026
3633	0.8019
3642	0.8011
3651	0.7997
3660	0.8007
3669	0.8054
3678	0.8121
3687	0.8195
3696	0.8245
3705	0.8282
3714	0.8302
3723	0.8313
3732	0.8317
3741	0.8321
3750	0.8325
3759	0.8332
3768	0.8339
3777	0.8342
3786	0.8339
3795	0.8325
