Infrared Spectrum: BENZALDEHYDE, o-CHLORO-
Formula: C7 H5 Cl O
CAS: 89-98-5
State: SOLUTION (10% IN CCl4 FOR 4000-1350 CM^-^1, 10% IN CS2 FOR 1350-600 CM^-^1)
Class: COBLENTZ III
Instrument: BECKMAN IR-7 (GRATING)
Instrument parameters: GRATING CHANGES AT 3000, 2200, 1150 CM^-^1
Sampling: TRANSMISSION
Path length: 0.01 CM, 0.01 CM
Resolution: 4
Origin: WESTERN REGIONAL RES. USDA
1/CM	TRANSMITTANCE
597.006	0.902
605.927	0.902
614.848	0.902
623.768	0.901
632.689	0.518
641.61	0.843
650.531	0.847
659.451	0.862
668.372	0.8701
677.293	0.842
686.214	0.83
695.135	0.815
704.055	0.736
712.976	0.381
721.897	0.7329
730.818	0.758
739.738	0.6011
748.659	0.1501
757.58	0.0899
766.501	0.5939
775.422	0.754
784.342	0.789
793.263	0.799
802.184	0.796
811.105	0.669
820.026	0.2301
828.946	0.5119
837.867	0.706
846.788	0.656
855.709	0.654
864.629	0.661
873.55	0.698
882.471	0.763
891.392	0.808
900.313	0.829
909.233	0.833
918.154	0.832
927.075	0.831
935.996	0.83
944.916	0.822
953.837	0.716
962.758	0.814
971.679	0.826
980.6	0.805
989.52	0.807
998.441	0.76
1007.36	0.817
1016.28	0.815
1025.2	0.7451
1034.12	0.365
1043.05	0.686
1051.97	0.08
1060.89	0.655
1069.81	0.73
1078.73	0.804
1087.65	0.811
1096.57	0.799
1105.49	0.779
1114.41	0.627
1123.33	0.697
1132.25	0.691
1141.17	0.73
1150.09	0.754
1159.02	0.558
1167.94	0.752
1176.86	0.697
1185.78	0.4241
1194.7	0.1731
1203.62	0.4768
1212.54	0.717
1221.46	0.771
1230.38	0.785
1239.3	0.763
1248.22	0.682
1257.14	0.5421
1266.06	0.114
1274.99	0.636
1283.91	0.716
1292.83	0.672
1301.75	0.716
1310.67	0.762
1319.59	0.805
1328.51	0.817
1337.43	0.822
1346.35	0.821
1355.27	0.814
1364.19	0.781
1373.11	0.792
1382.03	0.7291
1390.96	0.3531
1399.88	0.53
1408.8	0.69
1417.72	0.725
1426.64	0.72
1435.56	0.466
1444.48	0.164
1453.4	0.5329
1462.32	0.4033
1471.24	0.569
1480.16	0.612
1489.08	0.703
1498	0.717
1506.93	0.693
1515.85	0.655
1524.77	0.62
1533.69	0.557
1542.61	0.488
1551.53	0.428
1560.45	0.429
1569.37	0.303
1578.29	0.432
1587.21	0.213
1596.13	0.114
1605.05	0.566
1613.98	0.667
1622.9	0.667
1631.82	0.691
1640.74	0.689
1649.66	0.5511
1658.58	0.62
1667.5	0.627
1676.42	0.542
1685.34	0.331
1694.26	0.019
1703.18	0
1712.1	0.1939
1721.02	0.418
1729.95	0.5929
1738.87	0.651
1747.79	0.681
1756.71	0.731
1765.63	0.781
1774.55	0.799
1783.47	0.796
1792.39	0.772
1801.31	0.782
1810.23	0.795
1819.15	0.775
1828.07	0.785
1836.99	0.817
1845.92	0.818
1854.84	0.802
1863.76	0.815
1872.68	0.819
1881.6	0.832
1890.52	0.833
1899.44	0.828
1908.36	0.818
1917.28	0.826
1926.2	0.822
1935.12	0.793
1944.04	0.793
1952.96	0.814
1961.89	0.813
1970.81	0.8
1979.73	0.813
1988.65	0.821
1997.57	0.828
2006.49	0.8249
2015.41	0.8212
2024.33	0.8184
2033.25	0.8202
2042.17	0.8264
2051.09	0.834
2060.01	0.8396
2068.93	0.842
2077.86	0.843
2086.78	0.8408
2095.7	0.838
2104.62	0.838
2113.54	0.8415
2122.46	0.843
2131.38	0.8441
2140.3	0.845
2149.22	0.8467
2158.14	0.847
2167.06	0.847
2175.98	0.845
2184.9	0.844
2193.83	0.844
2202.75	0.8455
2211.67	0.847
2220.59	0.8469
2229.51	0.8451
2238.43	0.8417
2247.35	0.8361
2256.27	0.834
2265.19	0.833
2274.11	0.8302
2283.03	0.8264
2291.95	0.8212
2300.88	0.8166
2309.8	0.812
2318.72	0.8098
2327.64	0.8136
2336.56	0.8174
2345.48	0.8223
2354.4	0.826
2363.32	0.83
2372.24	0.8321
2381.16	0.834
2390.08	0.8341
2399	0.835
2407.92	0.836
2416.85	0.837
2425.77	0.837
2434.69	0.837
2443.61	0.8361
2452.53	0.8353
2461.45	0.834
2470.37	0.8337
2479.29	0.8331
2488.21	0.834
2497.13	0.834
2506.05	0.834
2514.97	0.833
2523.89	0.832
2532.82	0.8302
2541.74	0.83
2550.66	0.8296
2559.58	0.8288
2568.5	0.828
2577.42	0.827
2586.34	0.826
2595.26	0.8246
2604.18	0.823
2613.1	0.822
2622.02	0.8212
2630.94	0.8194
2639.86	0.8116
2648.79	0.8133
2657.71	0.8169
2666.63	0.818
2675.55	0.818
2684.47	0.817
2693.39	0.816
2702.31	0.8132
2711.23	0.8038
2720.15	0.786
2729.07	0.7705
2737.99	0.7185
2746.91	0.6728
2755.83	0.6888
2764.76	0.7564
2773.68	0.794
2782.6	0.81
2791.52	0.81
2800.44	0.8025
2809.36	0.7733
2818.28	0.7441
2827.2	0.716
2836.12	0.6714
2845.04	0.6277
2853.96	0.5768
2862.88	0.4607
2871.81	0.437
2880.73	0.4816
2889.65	0.6956
2898.57	0.7556
2907.49	0.7787
2916.41	0.7908
2925.33	0.7957
2934.25	0.7985
2943.17	0.8003
2952.09	0.7999
2961.01	0.7962
2969.93	0.7896
2978.85	0.787
2987.78	0.785
2996.7	0.783
3005.62	0.7783
3014.54	0.7727
3023.46	0.7695
3032.38	0.7655
3041.3	0.7589
3050.22	0.747
3059.14	0.7272
3068.06	0.6974
3076.98	0.648
3085.9	0.7075
3094.82	0.7582
3103.75	0.7808
3112.67	0.7864
3121.59	0.7882
3130.51	0.789
3139.43	0.7908
3148.35	0.792
3157.27	0.7947
3166.19	0.7982
3175.11	0.8
3184.03	0.802
3192.95	0.804
3201.87	0.805
3210.79	0.8071
3219.72	0.809
3228.64	0.81
3237.56	0.811
3246.48	0.812
3255.4	0.813
3264.32	0.813
3273.24	0.813
3282.16	0.813
3291.08	0.814
3300	0.814
3308.92	0.814
3317.84	0.813
3326.76	0.8126
3335.69	0.8098
3344.61	0.8069
3353.53	0.8026
3362.45	0.7902
3371.37	0.7814
3380.29	0.759
3389.21	0.746
3398.13	0.7764
3407.05	0.7949
3415.97	0.8105
3424.89	0.8153
3433.81	0.817
3442.74	0.8178
3451.66	0.8185
3460.58	0.819
3469.5	0.819
3478.42	0.8181
3487.34	0.817
3496.26	0.816
3505.18	0.8147
3514.1	0.8139
3523.02	0.813
3531.94	0.813
3540.86	0.813
3549.78	0.814
3558.71	0.8161
3567.63	0.817
3576.55	0.8186
3585.47	0.8204
3594.39	0.8242
3603.31	0.827
3612.23	0.8288
3621.15	0.8316
3630.07	0.8334
3638.99	0.834
3647.91	0.835
3656.83	0.835
3665.75	0.8344
3674.68	0.834
3683.6	0.833
3692.52	0.834
3701.44	0.834
3710.36	0.834
3719.28	0.8363
3728.2	0.838
3737.12	0.839
3746.04	0.841
3754.96	0.842
3763.88	0.842
3772.8	0.841
3781.72	0.8401
3790.65	0.839
3799.57	0.838
3808.49	0.837
3817.41	0.8371
3826.33	0.838
3835.25	0.838
3844.17	0.837
3853.09	0.836
3862.01	0.835
3870.93	0.834
3879.85	0.8334
3888.77	0.833
3897.69	0.834
3906.62	0.838
3915.54	0.839
3924.46	0.8396
3933.38	0.84
3942.3	0.84
3951.22	0.84
3960.14	0.84
3969.06	0.839
