Infrared Spectrum: BENZENE, 1-(BROMOMETHYL)-2-METHYL-
Formula: C8 H9 Br
CAS: 89-92-9
State: SOLUTION (10% IN CCl4 FOR 3800-1330 AND 10% IN CS2 FOR 1330-400 CM^-^1)
Class: COBLENTZ III
Instrument: DOW KBr FOREPRISM-GRATING
Instrument parameters: BLAZED AT 3.5, 12.0, 20.0 MICRON, CHANGED AT 5.0, 7.5, 14.9 MICRON
Sampling: TRANSMISSION
Path length: 0.011, 0.011 CM
Resolution: 4
Origin: DOW CHEMICAL COMPANY
1/CM	TRANSMITTANCE
384.339	0.115
393.039	0.13
401.74	0.244
410.44	0.571
419.141	0.736
427.841	0.746
436.541	0.78
445.242	0.871
453.942	0.899
462.643	0.918
471.343	0.924
480.044	0.885
488.744	0.733
497.444	0.952
506.145	0.944
514.845	0.678
523.546	0.882
532.246	0.95
540.946	0.972
549.647	0.983
558.347	0.963
567.048	0.979
575.748	0.952
584.448	0.643
593.149	0.796
601.849	0.372
610.55	0.2461
619.25	0.856
627.95	0.934
636.651	0.941
645.351	0.919
654.052	0.923
662.752	0.948
671.453	0.968
680.153	0.979
688.853	0.975
697.554	0.929
706.254	0.952
714.955	0.77
723.655	0.1453
732.355	0.837
741.056	0.435
749.756	0.789
758.457	0.435
767.157	0.4431
775.857	0.924
784.558	0.949
793.258	0.984
801.959	0.989
810.659	0.99
819.36	0.993
828.06	0.961
836.76	0.6601
845.461	0.893
854.161	0.809
862.862	0.8
871.562	0.836
880.262	0.881
888.963	0.969
897.663	0.991
906.364	1.002
915.064	1.005
923.764	1
932.465	0.99
941.165	0.964
949.866	1.002
958.566	1.002
967.266	0.997
975.967	0.991
984.667	0.978
993.368	0.987
1002.07	0.989
1010.77	0.99
1019.47	0.96
1028.17	0.878
1036.87	0.889
1045.57	0.818
1054.27	0.974
1062.97	0.989
1071.67	0.987
1080.37	0.95
1089.07	0.7991
1097.77	0.965
1106.47	0.98
1115.17	0.98
1123.87	0.971
1132.57	0.95
1141.27	0.927
1149.98	0.934
1158.68	0.903
1167.38	0.929
1176.08	0.912
1184.78	0.804
1193.48	0.847
1202.18	0.762
1210.88	0.3937
1219.58	0.727
1228.28	0.5469
1236.98	0.84
1245.68	0.933
1254.38	0.949
1263.08	0.954
1271.78	0.956
1280.48	0.949
1289.18	0.897
1297.88	0.918
1306.58	0.937
1315.28	0.959
1323.98	0.959
1332.68	0.971
1341.38	0.968
1350.08	0.944
1358.78	0.923
1367.49	0.915
1376.19	0.826
1384.89	0.884
1393.59	0.926
1402.29	0.93
1410.99	0.912
1419.69	0.873
1428.39	0.7949
1437.09	0.748
1445.79	0.6609
1454.49	0.612
1463.19	0.478
1471.89	0.757
1480.59	0.759
1489.29	0.6239
1497.99	0.5831
1506.69	0.744
1515.39	0.708
1524.09	0.669
1532.79	0.604
1541.49	0.514
1550.19	0.497
1558.89	0.564
1567.59	0.638
1576.3	0.657
1585	0.676
1593.7	0.759
1602.4	0.702
1611.1	0.882
1619.8	0.908
1628.5	0.939
1637.2	0.959
1645.9	0.968
1654.6	0.968
1663.3	0.974
1672	0.978
1680.7	0.974
1689.4	0.956
1698.1	0.95
1706.8	0.972
1715.5	0.967
1724.2	0.959
1732.9	0.965
1741.6	0.967
1750.3	0.971
1759	0.974
1767.7	0.969
1776.4	0.972
1785.11	0.965
1793.81	0.929
1802.51	0.954
1811.21	0.971
1819.91	0.972
1828.61	0.953
1837.31	0.957
1846.01	0.974
1854.71	0.978
1863.41	0.978
1872.11	0.956
1880.81	0.967
1889.51	0.969
1898.21	0.965
1906.91	0.933
1915.61	0.934
1924.31	0.971
1933.01	0.974
1941.71	0.945
1950.41	0.934
1959.11	0.967
1967.81	0.967
1976.51	0.972
1985.21	0.969
1993.91	0.954
2002.62	0.9535
2011.32	0.963
2020.02	0.962
2028.72	0.9645
2037.42	0.968
2046.12	0.9654
2054.82	0.9685
2063.52	0.963
2072.22	0.9614
2080.92	0.9731
2089.62	0.972
2098.32	0.971
2107.02	0.972
2115.72	0.972
2124.42	0.971
2133.12	0.976
2141.82	0.9752
2150.52	0.974
2159.22	0.972
2167.92	0.972
2176.62	0.971
2185.32	0.9743
2194.02	0.9717
2202.72	0.974
2211.43	0.971
2220.13	0.9696
2228.83	0.971
2237.53	0.9677
2246.23	0.968
2254.93	0.9637
2263.63	0.9584
2272.33	0.9537
2281.03	0.9474
2289.73	0.9447
2298.43	0.945
2307.13	0.948
2315.83	0.9498
2324.53	0.9583
2333.23	0.9539
2341.93	0.9632
2350.63	0.968
2359.33	0.9678
2368.03	0.963
2376.73	0.9594
2385.43	0.968
2394.13	0.963
2402.83	0.9614
2411.53	0.961
2420.24	0.9632
2428.94	0.965
2437.64	0.968
2446.34	0.967
2455.04	0.968
2463.74	0.9693
2472.44	0.972
2481.14	0.974
2489.84	0.971
2498.54	0.972
2507.24	0.972
2515.94	0.969
2524.64	0.9711
2533.34	0.9739
2542.04	0.974
2550.74	0.9721
2559.44	0.9709
2568.14	0.9691
2576.84	0.971
2585.54	0.964
2594.24	0.9651
2602.94	0.967
2611.64	0.965
2620.34	0.964
2629.04	0.967
2637.75	0.964
2646.45	0.963
2655.15	0.9571
2663.85	0.96
2672.55	0.96
2681.25	0.96
2689.95	0.963
2698.65	0.963
2707.35	0.963
2716.05	0.9601
2724.75	0.9531
2733.45	0.9422
2742.15	0.9514
2750.85	0.959
2759.55	0.96
2768.25	0.963
2776.95	0.9601
2785.65	0.954
2794.35	0.9529
2803.05	0.9523
2811.75	0.9463
2820.45	0.9415
2829.15	0.938
2837.85	0.9302
2846.56	0.9099
2855.26	0.8724
2863.96	0.83
2872.66	0.8408
2881.36	0.8332
2890.06	0.8446
2898.76	0.8501
2907.46	0.8147
2916.16	0.7694
2924.86	0.743
2933.56	0.7795
2942.26	0.7845
2950.96	0.7212
2959.66	0.7332
2968.36	0.7255
2977.06	0.6344
2985.76	0.6487
2994.46	0.7602
3003.16	0.8393
3011.86	0.7963
3020.56	0.7004
3029.26	0.6135
3037.96	0.7092
3046.66	0.7673
3055.36	0.7627
3064.07	0.729
3072.77	0.7068
3081.47	0.7598
3090.17	0.8601
3098.87	0.8934
3107.57	0.875
3116.27	0.9273
3124.97	0.944
3133.67	0.9472
3142.37	0.952
3151.07	0.949
3159.77	0.949
3168.47	0.954
3177.17	0.956
3185.87	0.957
3194.57	0.96
3203.27	0.96
3211.97	0.9635
3220.67	0.9645
3229.37	0.963
3238.07	0.963
3246.77	0.961
3255.47	0.965
3264.17	0.965
3272.88	0.966
3281.58	0.965
3290.28	0.9635
3298.98	0.9645
3307.68	0.967
3316.38	0.968
3325.08	0.967
3333.78	0.965
3342.48	0.9657
3351.18	0.9658
3359.88	0.968
3368.58	0.9686
3377.28	0.967
3385.98	0.9676
3394.68	0.967
3403.38	0.967
3412.08	0.9684
3420.78	0.9663
3429.48	0.9697
3438.18	0.968
3446.88	0.968
3455.58	0.969
3464.28	0.971
3472.98	0.969
3481.69	0.971
3490.39	0.9713
3499.09	0.971
3507.79	0.9747
3516.49	0.9726
3525.19	0.976
3533.89	0.974
3542.59	0.976
3551.29	0.9753
3559.99	0.9753
3568.69	0.974
3577.39	0.975
3586.09	0.976
3594.79	0.978
3603.49	0.9742
3612.19	0.9764
3620.89	0.978
3629.59	0.976
3638.29	0.978
3646.99	0.978
3655.69	0.978
3664.39	0.9803
3673.09	0.983
3681.79	0.983
3690.49	0.982
3699.2	0.9831
3707.9	0.9831
3716.6	0.987
3725.3	0.9869
3734	0.983
3742.7	0.982
3751.4	0.983
3760.1	0.9842
3768.8	0.987
3777.5	0.989
3786.2	0.9861
3794.9	0.9831
