Infrared Spectrum: Urea, 1-(2,4-dihydroxy-5-pyrimidinyl)-3-methyl-
Formula: C6 H8 N4 O3
CAS: 89533-45-9
State: SOLID (0.5 mg / 650 mg KBr DISC)
Class: COBLENTZ III
Instrument: PERKIN-ELMER 221 (GRATING)
Instrument parameters: FILTER AT 980 CM^-^1. GRATING 4000-1428 CM^-^1, NaCl PRISM 1428-650 CM^-^1
Sampling: TRANSMISSION
Resolution: 2
Origin: SOUTHERN RESEARCH INSTITUTE
1/CM	TRANSMITTANCE
612	0.7331
621.032	0.7383
630.064	0.7477
639.096	0.7654
648.128	0.7829
657.159	0.7822
666.191	0.7728
675.223	0.7557
684.255	0.7631
693.287	0.8076
702.319	0.8743
711.351	0.9
720.383	0.9074
729.414	0.9071
738.446	0.8234
747.478	0.7315
756.51	0.8868
765.542	0.8657
774.574	0.8505
783.606	0.8425
792.638	0.8917
801.669	0.8922
810.701	0.8847
819.733	0.874
828.765	0.8597
837.797	0.8392
846.829	0.7789
855.861	0.6247
864.893	0.6534
873.924	0.6539
882.956	0.7502
891.988	0.8453
901.02	0.8474
910.052	0.8126
919.084	0.7665
928.116	0.915
937.148	0.9146
946.179	0.9099
955.211	0.9008
964.243	0.885
973.275	0.8606
982.307	0.8381
991.339	0.861
1000.37	0.8196
1009.4	0.8814
1018.43	0.8728
1027.47	0.8672
1036.5	0.8535
1045.53	0.8331
1054.56	0.8222
1063.59	0.8176
1072.63	0.8152
1081.66	0.8133
1090.69	0.8113
1099.72	0.8089
1108.75	0.8052
1117.79	0.7994
1126.82	0.7857
1135.85	0.7561
1144.88	0.5846
1153.91	0.4304
1162.94	0.5466
1171.98	0.715
1181.01	0.7305
1190.04	0.73
1199.07	0.7252
1208.1	0.6779
1217.14	0.5212
1226.17	0.3214
1235.2	0.216
1244.23	0.3736
1253.26	0.696
1262.3	0.7663
1271.33	0.7648
1280.36	0.7385
1289.39	0.705
1298.42	0.7489
1307.45	0.7918
1316.49	0.7852
1325.52	0.7708
1334.55	0.7332
1343.58	0.4044
1352.61	0.4024
1361.65	0.6595
1370.68	0.7833
1379.71	0.7795
1388.74	0.7531
1397.77	0.7124
1406.81	0.6224
1415.84	0.4419
1424.87	0.3754
1433.9	0.632
1442.93	0.6347
1451.96	0.4878
1461	0.2479
1470.03	0.2112
1479.06	0.577
1488.09	0.6001
1497.12	0.6121
1506.16	0.6207
1515.19	0.5676
1524.22	0.4814
1533.25	0.4071
1542.28	0.2454
1551.32	0.1722
1560.35	0.1072
1569.38	0.1097
1578.41	0.1458
1587.44	0.2993
1596.47	0.4444
1605.51	0.4555
1614.54	0.3471
1623.57	0.2218
1632.6	0.097
1641.63	0.0655
1650.67	0.0674
1659.7	0.08
1668.73	0.1132
1677.76	0.2086
1686.79	0.2875
1695.83	0.3824
1704.86	0.2578
1713.89	0.1026
1722.92	0.1364
1731.95	0.3365
1740.98	0.5148
1750.02	0.6373
1759.05	0.6743
1768.08	0.679
1777.11	0.7012
1786.14	0.7384
1795.18	0.8049
1804.21	0.837
1813.24	0.8687
1822.27	0.897
1831.3	0.9185
1840.34	0.9336
1849.37	0.9433
1858.4	0.9649
1867.43	0.9755
1876.46	0.981
1885.49	0.9841
1894.53	0.9911
1903.56	0.9958
1912.59	0.9958
1921.62	0.9947
1930.65	0.9936
1939.69	0.9924
1948.72	0.9905
1957.75	0.9876
1966.78	0.987
1975.81	0.9836
1984.85	0.9842
1993.88	0.9886
2002.91	1.0019
2011.94	1.0017
2020.97	1.0015
2030	1.0007
2039.04	0.9996
2048.07	0.9983
2057.1	0.9969
2066.13	0.9954
2075.16	0.9939
2084.2	0.9925
2093.23	0.9911
2102.26	0.9897
2111.29	0.9891
2120.32	0.9885
2129.36	0.988
2138.39	0.988
2147.42	0.9878
2156.45	0.9868
2165.48	0.9851
2174.51	0.9827
2183.55	0.9799
2192.58	0.9781
2201.61	0.977
2210.64	0.976
2219.67	0.9757
2228.71	0.9757
2237.74	0.9756
2246.77	0.9753
2255.8	0.9747
2264.83	0.9742
2273.87	0.9735
2282.9	0.9729
2291.93	0.972
2300.96	0.9682
2309.99	0.9611
2319.02	0.9543
2328.06	0.9484
2337.09	0.9455
2346.12	0.9438
2355.15	0.9424
2364.18	0.9411
2373.22	0.9399
2382.25	0.9386
2391.28	0.9376
2400.31	0.9375
2409.34	0.9373
2418.38	0.9372
2427.41	0.9372
2436.44	0.9375
2445.47	0.9381
2454.5	0.9388
2463.53	0.9392
2472.57	0.9396
2481.6	0.9255
2490.63	0.9247
2499.66	0.9228
2508.69	0.9206
2517.73	0.9186
2526.76	0.9165
2535.79	0.9147
2544.82	0.9128
2553.85	0.9101
2562.89	0.9072
2571.92	0.9044
2580.95	0.9017
2589.98	0.8991
2599.01	0.8959
2608.04	0.8928
2617.08	0.8899
2626.11	0.8873
2635.14	0.8812
2644.17	0.8763
2653.2	0.8756
2662.24	0.8738
2671.27	0.8721
2680.3	0.8705
2689.33	0.8678
2698.36	0.8643
2707.4	0.8585
2716.43	0.8516
2725.46	0.8451
2734.49	0.8389
2743.52	0.8323
2752.55	0.8247
2761.59	0.8164
2770.62	0.805
2779.65	0.7845
2788.68	0.7595
2797.71	0.744
2806.75	0.7198
2815.78	0.6776
2824.81	0.6021
2833.84	0.6229
2842.87	0.7223
2851.91	0.7293
2860.94	0.7272
2869.97	0.722
2879	0.7078
2888.03	0.6839
2897.06	0.6751
2906.1	0.67
2915.13	0.6671
2924.16	0.6679
2933.19	0.6672
2942.22	0.6592
2951.26	0.6396
2960.29	0.614
2969.32	0.6038
2978.35	0.6029
2987.38	0.5976
2996.42	0.5767
3005.45	0.5413
3014.48	0.5099
3023.51	0.4735
3032.54	0.4493
3041.57	0.4485
3050.61	0.4642
3059.64	0.5326
3068.67	0.5678
3077.7	0.5799
3086.73	0.5775
3095.77	0.5769
3104.8	0.575
3113.83	0.5728
3122.86	0.5682
3131.89	0.546
3140.93	0.5152
3149.96	0.4768
3158.99	0.4295
3168.02	0.4266
3177.05	0.5521
3186.09	0.5934
3195.12	0.6143
3204.15	0.6243
3213.18	0.6319
3222.21	0.6367
3231.24	0.6398
3240.28	0.6411
3249.31	0.64
3258.34	0.6364
3267.37	0.629
3276.4	0.6085
3285.44	0.5945
3294.47	0.5641
3303.5	0.5355
3312.53	0.4766
3321.56	0.4392
3330.6	0.396
3339.63	0.2965
3348.66	0.2138
3357.69	0.1896
3366.72	0.125
3375.75	0.1187
3384.79	0.1881
3393.82	0.2982
3402.85	0.4404
3411.88	0.5147
3420.91	0.5805
3429.95	0.6376
3438.98	0.678
3448.01	0.7113
3457.04	0.7228
3466.07	0.7346
3475.11	0.7462
3484.14	0.7627
3493.17	0.7695
3502.2	0.7801
3511.23	0.7863
3520.26	0.7905
3529.3	0.794
3538.33	0.7967
3547.36	0.801
3556.39	0.814
3565.42	0.8188
3574.46	0.8288
3583.49	0.8426
3592.52	0.8528
3601.55	0.8678
3610.58	0.8727
3619.62	0.8772
3628.65	0.8819
3637.68	0.8891
3646.71	0.9006
3655.74	0.9023
3664.77	0.9021
3673.81	0.903
3682.84	0.9082
3691.87	0.9002
3700.9	0.8985
3709.93	0.8972
3718.97	0.8963
3728	0.8957
3737.03	0.8949
3746.06	0.894
3755.09	0.8929
3764.13	0.8924
3773.16	0.8917
3782.19	0.8903
3791.22	0.8883
3800.25	0.885
3809.28	0.8812
3818.32	0.8806
3827.35	0.8812
3836.38	0.882
3845.41	0.8832
3854.44	0.8832
3863.48	0.8824
3872.51	0.8806
3881.54	0.8781
3890.57	0.8752
3899.6	0.8737
3908.64	0.8726
3917.67	0.8718
3926.7	0.8713
3935.73	0.8709
3944.76	0.8706
3953.79	0.8709
3962.83	0.8712
3971.86	0.8713
3980.89	0.8713
3989.92	0.8711
3998.95	0.8709
4007.99	0.8706
