Infrared Spectrum: BENZALDEHYDE, 2-HYDROXY-
Formula: C7 H6 O2
CAS: 90-02-8
State: VAPOR (6 MICROLITER AT 150 C)
Boiling point: 196 C
Class: COBLENTZ
Instrument: PERKIN-ELMER 180
Sampling: TRANSMISSION
Path length: 5 CM KBr CELL, CELL VOLUME: 80 CM^3
Resolution: 2-3 CM^-^1
Origin: PERKIN-ELMER CORP. (M. ZELLER)
1/CM	TRANSMITTANCE
403.865	0.465
413.334	0.5209
422.802	0.583
432.271	0.648
441.739	0.682
451.208	0.723
460.677	0.77
470.145	0.826
479.614	0.852
489.082	0.871
498.551	0.88
508.02	0.864
517.488	0.864
526.957	0.864
536.425	0.849
545.894	0.867
555.363	0.871
564.831	0.876
574.3	0.887
583.769	0.894
593.237	0.886
602.706	0.88
612.174	0.867
621.643	0.853
631.112	0.869
640.58	0.881
650.049	0.85
659.517	0.7741
668.986	0.704
678.455	0.728
687.923	0.742
697.392	0.69
706.86	0.618
716.329	0.625
725.798	0.702
735.266	0.671
744.735	0.599
754.203	0.4802
763.672	0.5689
773.141	0.649
782.609	0.829
792.078	0.884
801.546	0.891
811.015	0.89
820.484	0.891
829.952	0.892
839.421	0.888
848.889	0.884
858.358	0.875
867.827	0.861
877.295	0.72
886.764	0.6701
896.233	0.731
905.701	0.898
915.17	0.906
924.638	0.903
934.107	0.9
943.576	0.898
953.044	0.896
962.513	0.891
971.981	0.888
981.45	0.89
990.919	0.886
1000.39	0.88
1009.86	0.854
1019.32	0.808
1028.79	0.8
1038.26	0.818
1047.73	0.858
1057.2	0.865
1066.67	0.867
1076.14	0.862
1085.6	0.864
1095.07	0.858
1104.54	0.8161
1114.01	0.805
1123.48	0.804
1132.95	0.7741
1142.42	0.6391
1151.88	0.629
1161.35	0.655
1170.82	0.706
1180.29	0.691
1189.76	0.613
1199.23	0.587
1208.7	0.571
1218.17	0.649
1227.63	0.649
1237.1	0.691
1246.57	0.773
1256.04	0.758
1265.51	0.6332
1274.98	0.4591
1284.45	0.344
1293.91	0.3539
1303.38	0.5499
1312.85	0.74
1322.32	0.772
1331.79	0.739
1341.26	0.731
1350.73	0.751
1360.19	0.767
1369.66	0.736
1379.13	0.641
1388.6	0.649
1398.07	0.652
1407.54	0.681
1417.01	0.679
1426.47	0.698
1435.94	0.72
1445.41	0.721
1454.88	0.6411
1464.35	0.565
1473.82	0.521
1483.29	0.534
1492.75	0.56
1502.22	0.624
1511.69	0.7439
1521.16	0.804
1530.63	0.82
1540.1	0.823
1549.57	0.812
1559.03	0.797
1568.5	0.746
1577.97	0.6301
1587.44	0.587
1596.91	0.587
1606.38	0.622
1615.85	0.542
1625.32	0.545
1634.78	0.611
1644.25	0.622
1653.72	0.597
1663.19	0.4191
1672.66	0.0892
1682.13	0.069
1691.6	0.3209
1701.06	0.6628
1710.53	0.705
1720	0.729
1729.47	0.785
1738.94	0.826
1748.41	0.829
1757.88	0.835
1767.34	0.841
1776.81	0.853
1786.28	0.853
1795.75	0.857
1805.22	0.865
1814.69	0.871
1824.16	0.872
1833.62	0.872
1843.09	0.873
1852.56	0.873
1862.03	0.871
1871.5	0.869
1880.97	0.867
1890.44	0.873
1899.9	0.871
1909.37	0.869
1918.84	0.865
1928.31	0.872
1937.78	0.864
1947.25	0.858
1956.72	0.862
1966.19	0.867
1975.65	0.872
1985.12	0.872
1994.59	0.873
2004.06	0.8715
2013.53	0.8689
2023	0.871
2032.47	0.869
2041.93	0.8662
2051.4	0.8667
2060.87	0.8674
2070.34	0.867
2079.81	0.8646
2089.28	0.864
2098.75	0.868
2108.21	0.869
2117.68	0.869
2127.15	0.868
2136.62	0.868
2146.09	0.8642
2155.56	0.862
2165.03	0.861
2174.49	0.861
2183.96	0.861
2193.43	0.861
2202.9	0.861
2212.37	0.8609
2221.84	0.8587
2231.31	0.8543
2240.77	0.8592
2250.24	0.858
2259.71	0.8574
2269.18	0.857
2278.65	0.857
2288.12	0.853
2297.59	0.852
2307.05	0.846
2316.52	0.842
2325.99	0.8381
2335.46	0.837
2344.93	0.8352
2354.4	0.8313
2363.87	0.8327
2373.34	0.8384
2382.8	0.8447
2392.27	0.848
2401.74	0.8498
2411.21	0.849
2420.68	0.8482
2430.15	0.848
2439.62	0.848
2449.08	0.8483
2458.55	0.8465
2468.02	0.8458
2477.49	0.8436
2486.96	0.842
2496.43	0.841
2505.9	0.839
2515.36	0.839
2524.83	0.8429
2534.3	0.839
2543.77	0.8348
2553.24	0.8282
2562.71	0.8291
2572.18	0.8321
2581.64	0.831
2591.11	0.829
2600.58	0.826
2610.05	0.823
2619.52	0.822
2628.99	0.8225
2638.46	0.822
2647.92	0.82
2657.39	0.818
2666.86	0.8132
2676.33	0.8101
2685.8	0.808
2695.27	0.807
2704.74	0.803
2714.2	0.7992
2723.67	0.7667
2733.14	0.7105
2742.61	0.7091
2752.08	0.7438
2761.55	0.7912
2771.02	0.7923
2780.49	0.7856
2789.95	0.7772
2799.42	0.7479
2808.89	0.6874
2818.36	0.5949
2827.83	0.548
2837.3	0.5761
2846.77	0.708
2856.23	0.7573
2865.7	0.769
2875.17	0.7761
2884.64	0.778
2894.11	0.777
2903.58	0.7725
2913.05	0.769
2922.51	0.7615
2931.98	0.7669
2941.45	0.77
2950.92	0.7671
2960.39	0.7678
2969.86	0.7729
2979.33	0.7804
2988.79	0.781
2998.26	0.7756
3007.73	0.7619
3017.2	0.7514
3026.67	0.74
3036.14	0.7387
3045.61	0.7259
3055.07	0.7134
3064.54	0.6817
3074.01	0.6947
3083.48	0.722
3092.95	0.7344
3102.42	0.7454
3111.89	0.748
3121.35	0.7444
3130.82	0.7355
3140.29	0.7255
3149.76	0.7127
3159.23	0.7022
3168.7	0.6937
3178.17	0.6796
3187.64	0.6587
3197.1	0.6501
3206.57	0.664
3216.04	0.673
3225.51	0.689
3234.98	0.6999
3244.45	0.7147
3253.92	0.72
3263.38	0.723
3272.85	0.7204
3282.32	0.721
3291.79	0.7183
3301.26	0.7208
3310.73	0.72
3320.2	0.717
3329.66	0.7176
3339.13	0.7208
3348.6	0.7216
3358.07	0.7263
3367.54	0.7352
3377.01	0.7387
3386.48	0.742
3395.94	0.7427
3405.41	0.7472
3414.88	0.7507
3424.35	0.754
3433.82	0.754
3443.29	0.754
3452.76	0.757
3462.22	0.7583
3471.69	0.7656
3481.16	0.767
3490.63	0.7681
3500.1	0.7721
3509.57	0.7765
3519.04	0.778
3528.51	0.7761
3537.97	0.776
3547.44	0.7791
3556.91	0.778
3566.38	0.7712
3575.85	0.777
3585.32	0.7736
3594.79	0.7795
3604.25	0.7789
3613.72	0.7778
3623.19	0.779
3632.66	0.778
3642.13	0.7791
3651.6	0.7756
3661.07	0.7803
3670.53	0.7803
3680	0.78
3689.47	0.777
3698.94	0.776
3708.41	0.776
3717.88	0.777
3727.35	0.78
3736.81	0.7721
3746.28	0.7753
3755.75	0.778
3765.22	0.7792
3774.69	0.778
3784.16	0.7753
3793.63	0.77
3803.09	0.7765
3812.56	0.778
3822.03	0.7805
3831.5	0.776
3840.97	0.7765
3850.44	0.772
3859.91	0.769
3869.37	0.7718
3878.84	0.772
3888.31	0.77
3897.78	0.7666
3907.25	0.769
3916.72	0.772
3926.19	0.7675
3935.66	0.765
3945.12	0.765
3954.59	0.766
3964.06	0.767
3973.53	0.767
3983	0.767
3992.47	0.767
