Infrared Spectrum: 2-METHOXYPHENOL
Formula: C7 H8 O2
CAS: 90-05-1
State: SOLUTION (10% IN CCl4 FOR 4000-1350 CM^-^1, 10% IN CS2 FOR 1350-600 CM^-^1)
Class: COBLENTZ III
Instrument: BECKMAN IR-7 (GRATING)
Instrument parameters: GRATING CHANGES AT 3000, 2200, 1150 CM^-^1
Sampling: TRANSMISSION
Path length: 0.01 CM, 0.01 CM
Resolution: 4
Origin: WESTERN REGIONAL RES. USDA
1/CM	TRANSMITTANCE
603.973	0.793
612.849	0.793
621.726	0.791
630.602	0.785
639.479	0.768
648.355	0.741
657.232	0.707
666.108	0.731
674.985	0.747
683.861	0.734
692.738	0.615
701.614	0.726
710.491	0.727
719.367	0.695
728.244	0.597
737.12	0.0231
745.996	0.09
754.873	0.152
763.749	0.33
772.626	0.492
781.502	0.576
790.379	0.714
799.255	0.74
808.132	0.668
817.008	0.622
825.885	0.634
834.761	0.603
843.638	0.561
852.514	0.609
861.39	0.627
870.267	0.656
879.143	0.668
888.02	0.73
896.896	0.769
905.773	0.731
914.649	0.5249
923.526	0.728
932.402	0.687
941.279	0.788
950.155	0.801
959.032	0.799
967.908	0.8
976.785	0.801
985.661	0.789
994.537	0.759
1003.41	0.716
1012.29	0.653
1021.17	0.2671
1030.04	0.2526
1038.92	0.081
1047.8	0.396
1056.67	0.673
1065.55	0.759
1074.43	0.78
1083.3	0.756
1092.18	0.733
1101.06	0.5166
1109.93	0.2028
1118.81	0.5039
1127.68	0.668
1136.56	0.688
1145.44	0.614
1154.31	0.312
1163.19	0.409
1172.07	0.212
1180.94	0.259
1189.82	0.334
1198.7	0.1671
1207.57	0.037
1216.45	0.0551
1225.33	0.008
1234.2	0.19
1243.08	0.27
1251.95	0
1260.83	0.014
1269.71	0.2039
1278.58	0.41
1287.46	0.4609
1296.34	0.601
1305.21	0.458
1314.09	0.638
1322.97	0.662
1331.84	0.642
1340.72	0.616
1349.6	0.551
1358.47	0.346
1367.35	0.22
1376.23	0.4549
1385.1	0.632
1393.98	0.662
1402.85	0.606
1411.73	0.608
1420.61	0.652
1429.48	0.621
1438.36	0.531
1447.24	0.1769
1456.11	0.284
1464.99	0.253
1473.87	0.2479
1482.74	0.449
1491.62	0.173
1500.5	0
1509.37	0.098
1518.25	0.162
1527.13	0.312
1536	0.409
1544.88	0.395
1553.75	0.391
1562.63	0.424
1571.51	0.457
1580.38	0.423
1589.26	0.328
1598.14	0.122
1607.01	0.314
1615.89	0.334
1624.77	0.4749
1633.64	0.636
1642.52	0.684
1651.4	0.704
1660.27	0.714
1669.15	0.718
1678.03	0.722
1686.9	0.725
1695.78	0.728
1704.65	0.73
1713.53	0.734
1722.41	0.736
1731.28	0.734
1740.16	0.73
1749.04	0.697
1757.91	0.696
1766.79	0.725
1775.67	0.737
1784.54	0.742
1793.42	0.736
1802.3	0.734
1811.17	0.74
1820.05	0.74
1828.93	0.732
1837.8	0.737
1846.68	0.74
1855.55	0.739
1864.43	0.707
1873.31	0.685
1882.18	0.725
1891.06	0.738
1899.94	0.74
1908.81	0.726
1917.69	0.708
1926.57	0.732
1935.44	0.742
1944.32	0.741
1953.2	0.746
1962.07	0.746
1970.95	0.739
1979.82	0.731
1988.7	0.732
1997.58	0.734
2006.45	0.7259
2015.33	0.7184
2024.21	0.7128
2033.08	0.7056
2041.96	0.7042
2050.84	0.706
2059.71	0.7114
2068.59	0.7211
2077.47	0.738
2086.34	0.7401
2095.22	0.7457
2104.1	0.7503
2112.97	0.7544
2121.85	0.755
2130.72	0.755
2139.6	0.755
2148.48	0.7566
2157.35	0.759
2166.23	0.7613
2175.11	0.765
2183.98	0.7653
2192.86	0.764
2201.74	0.7624
2210.61	0.7579
2219.49	0.7559
2228.37	0.7596
2237.24	0.7601
2246.12	0.7504
2255	0.743
2263.87	0.7302
2272.75	0.7351
2281.62	0.7423
2290.5	0.746
2299.38	0.747
2308.25	0.749
2317.13	0.748
2326.01	0.745
2334.88	0.744
2343.76	0.7458
2352.64	0.746
2361.51	0.7474
2370.39	0.7502
2379.27	0.751
2388.14	0.7528
2397.02	0.753
2405.9	0.753
2414.77	0.7519
2423.65	0.7472
2432.52	0.7426
2441.4	0.7415
2450.28	0.7423
2459.15	0.746
2468.03	0.747
2476.91	0.748
2485.78	0.749
2494.66	0.748
2503.54	0.747
2512.41	0.746
2521.29	0.7304
2530.17	0.721
2539.04	0.7181
2547.92	0.7255
2556.8	0.7367
2565.67	0.7449
2574.55	0.7493
2583.42	0.752
2592.3	0.754
2601.18	0.755
2610.05	0.7536
2618.93	0.7468
2627.81	0.745
2636.68	0.7468
2645.56	0.7521
2654.44	0.7556
2663.31	0.759
2672.19	0.759
2681.07	0.7583
2689.94	0.7561
2698.82	0.7525
2707.7	0.75
2716.57	0.749
2725.45	0.7448
2734.32	0.7416
2743.2	0.742
2752.08	0.743
2760.95	0.7437
2769.83	0.747
2778.71	0.7493
2787.58	0.7501
2796.46	0.7501
2805.34	0.7393
2814.21	0.7291
2823.09	0.725
2831.97	0.6994
2840.84	0.5372
2849.72	0.4346
2858.59	0.5379
2867.47	0.6357
2876.35	0.6969
2885.22	0.6868
2894.1	0.6398
2902.98	0.5901
2911.85	0.521
2920.73	0.5408
2929.61	0.4857
2938.48	0.4618
2947.36	0.465
2956.24	0.416
2965.11	0.4312
2973.99	0.4825
2982.87	0.5345
2991.74	0.6127
3000.62	0.5357
3009.49	0.5326
3018.37	0.619
3027.25	0.6006
3036.12	0.5578
3045	0.5151
3053.88	0.498
3062.75	0.5369
3071.63	0.5806
3080.51	0.6189
3089.38	0.6693
3098.26	0.6924
3107.14	0.7118
3116.01	0.7223
3124.89	0.7298
3133.77	0.7377
3142.64	0.7385
3151.52	0.7413
3160.39	0.742
3169.27	0.742
3178.15	0.742
3187.02	0.7406
3195.9	0.7378
3204.78	0.734
3213.65	0.7322
3222.53	0.7304
3231.41	0.729
3240.28	0.7277
3249.16	0.7231
3258.04	0.7196
3266.91	0.714
3275.79	0.7074
3284.67	0.7008
3293.54	0.6933
3302.42	0.6848
3311.29	0.6757
3320.17	0.6674
3329.05	0.6571
3337.92	0.6477
3346.8	0.6356
3355.68	0.6227
3364.55	0.6117
3373.43	0.6013
3382.31	0.5895
3391.18	0.5762
3400.06	0.5602
3408.94	0.5427
3417.81	0.525
3426.69	0.5079
3435.57	0.4914
3444.44	0.4772
3453.32	0.4661
3462.19	0.4595
3471.07	0.4565
3479.95	0.454
3488.82	0.453
3497.7	0.4521
3506.58	0.4486
3515.45	0.4289
3524.33	0.2969
3533.21	0.1997
3542.08	0.0909
3550.96	0.1049
3559.84	0.3002
3568.71	0.4175
3577.59	0.5315
3586.47	0.6
3595.34	0.5543
3604.22	0.5226
3613.09	0.5621
3621.97	0.6349
3630.85	0.7045
3639.72	0.7389
3648.6	0.742
3657.48	0.741
3666.35	0.741
3675.23	0.7452
3684.11	0.7474
3692.98	0.749
3701.86	0.751
3710.74	0.7547
3719.61	0.7565
3728.49	0.7573
3737.36	0.7581
3746.24	0.759
3755.12	0.758
3763.99	0.7546
3772.87	0.7518
3781.75	0.751
3790.62	0.7502
3799.5	0.7506
3808.38	0.751
3817.25	0.751
3826.13	0.7491
3835.01	0.7473
3843.88	0.7445
3852.76	0.742
3861.64	0.7409
3870.51	0.74
3879.39	0.739
3888.26	0.738
3897.14	0.737
3906.02	0.737
3914.89	0.737
3923.77	0.738
3932.65	0.7376
3941.52	0.736
3950.4	0.7351
3959.28	0.7323
3968.15	0.7305
