Infrared Spectrum: MONOCHLORO NAPHTHALENE
Formula: C10 H7 Cl
CAS: 90-13-1
State: LIQUID
Boiling point: 263 C
Class: COBLENTZ
Instrument: Not specified, most likely a prism, grating, or hybrid spectrometer.
Sampling: TRANSMISSION
Path length: 0.003 CM
Resolution: 4
Origin: WYANDOTTE CHEMICALS CORP., WYANDOTTE, MICHIGAN, USA
MICROMETERS	TRANSMITTANCE
2.037	0.948
2.07686	0.951
2.11671	0.956
2.15657	0.951
2.19642	0.955
2.23628	0.953
2.27613	0.95
2.31599	0.951
2.35585	0.945
2.3957	0.928
2.43556	0.948
2.47541	0.95
2.51527	0.951
2.55512	0.953
2.59498	0.96
2.63484	0.961
2.67469	0.965
2.71455	0.968
2.7544	0.963
2.79426	0.961
2.83411	0.965
2.87397	0.963
2.91382	0.966
2.95368	0.963
2.99354	0.965
3.03339	0.958
3.07325	0.951
3.1131	0.948
3.15296	0.925
3.19281	0.865
3.23267	0.503
3.27253	0.815
3.31238	0.913
3.35224	0.913
3.39209	0.926
3.43195	0.941
3.4718	0.943
3.51166	0.95
3.55152	0.953
3.59137	0.956
3.63123	0.955
3.67108	0.956
3.71094	0.96
3.75079	0.963
3.79065	0.966
3.83051	0.961
3.87036	0.956
3.91022	0.958
3.95007	0.966
3.98993	0.965
4.02978	0.968
4.06964	0.961
4.10949	0.956
4.14935	0.951
4.18921	0.956
4.22906	0.97
4.26892	0.993
4.30877	1
4.34863	0.976
4.38848	0.953
4.42834	0.958
4.4682	0.966
4.50805	0.973
4.54791	0.965
4.58776	0.971
4.62762	0.975
4.66747	0.976
4.70733	0.973
4.74719	0.968
4.78704	0.975
4.8269	0.976
4.86675	0.975
4.90661	0.971
4.94646	0.971
4.98632	0.975
5.02618	0.965
5.06603	0.968
5.10589	0.928
5.14574	0.885
5.1856	0.858
5.22545	0.853
5.26531	0.916
5.30517	0.943
5.34502	0.931
5.38488	0.883
5.42473	0.9
5.46459	0.9
5.50444	0.898
5.5443	0.865
5.58415	0.89
5.62401	0.915
5.66387	0.896
5.70372	0.891
5.74358	0.908
5.78343	0.901
5.82329	0.893
5.86314	0.861
5.903	0.876
5.94286	0.915
5.98271	0.906
6.02257	0.906
6.06242	0.815
6.10228	0.845
6.14213	0.86
6.18199	0.511
6.22185	0.568
6.2617	0.703
6.30156	0.425
6.34141	0.656
6.38127	0.901
6.42112	0.91
6.46098	0.89
6.50084	0.88
6.54069	0.843
6.58055	0.428
6.6204	0.72
6.66026	0.865
6.70011	0.898
6.73997	0.901
6.77982	0.79
6.81968	0.801
6.85954	0.84
6.89939	0.84
6.93925	0.843
6.9791	0.876
7.01896	0.885
7.05881	0.873
7.09867	0.786
7.13853	0.583
7.17838	0.243
7.21824	0.263
7.25809	0.673
7.29795	0.73
7.3378	0.795
7.37766	0.78
7.41752	0.718
7.45737	0.861
7.49723	0.9
7.53708	0.905
7.57694	0.921
7.61679	0.928
7.65665	0.94
7.69651	0.936
7.73636	0.93
7.77622	0.895
7.81607	0.811
7.85593	0.715
7.89578	0.515
7.93564	0.353
7.9755	0.74
8.01535	0.861
8.05521	0.841
8.09506	0.846
8.13492	0.79
8.17477	0.643
8.21463	0.68
8.25448	0.408
8.29434	0.276
8.3342	0.625
8.37405	0.793
8.41391	0.845
8.45376	0.853
8.49362	0.848
8.53347	0.785
8.57333	0.755
8.61319	0.801
8.65304	0.77
8.6929	0.566
8.73275	0.581
8.77261	0.71
8.81246	0.816
8.85232	0.898
8.89218	0.911
8.93203	0.92
8.97189	0.925
9.01174	0.916
9.0516	0.903
9.09145	0.898
9.13131	0.885
9.17117	0.868
9.21102	0.718
9.25088	0.571
9.29073	0.808
9.33059	0.725
9.37044	0.553
9.4103	0.756
9.45016	0.845
9.49001	0.881
9.52987	0.893
9.56972	0.885
9.60958	0.865
9.64943	0.85
9.68929	0.751
9.72914	0.501
9.769	0.765
9.80886	0.838
9.84871	0.853
9.88857	0.861
9.92842	0.866
9.96828	0.875
10.0081	0.886
10.048	0.87
10.0878	0.828
10.1277	0.778
10.1676	0.726
10.2074	0.548
10.2473	0.196
10.2871	0.05
10.327	0.195
10.3668	0.455
10.4067	0.603
10.4465	0.658
10.4864	0.686
10.5263	0.721
10.5661	0.726
10.606	0.661
10.6458	0.786
10.6857	0.843
10.7255	0.853
10.7654	0.871
10.8052	0.881
10.8451	0.891
10.885	0.891
10.9248	0.89
10.9647	0.895
11.0045	0.883
11.0444	0.865
11.0842	0.835
11.1241	0.821
11.1639	0.833
11.2038	0.843
11.2437	0.821
11.2835	0.766
11.3234	0.761
11.3632	0.813
11.4031	0.85
11.4429	0.865
11.4828	0.87
11.5226	0.846
11.5625	0.798
11.6024	0.665
11.6422	0.59
11.6821	0.533
11.7219	0.496
11.7618	0.423
11.8016	0.68
11.8415	0.783
11.8814	0.816
11.9212	0.818
11.9611	0.788
12.0009	0.598
12.0408	0.356
12.0806	0.351
12.1205	0.601
12.1603	0.666
12.2002	0.683
12.2401	0.631
12.2799	0.516
12.3198	0.42
12.3596	0.381
12.3995	0.438
12.4393	0.485
12.4792	0.4
12.519	0.201
12.5589	0.066
12.5988	0.041
12.6386	0.041
12.6785	0.078
12.7183	0.266
12.7582	0.475
12.798	0.566
12.8379	0.57
12.8777	0.475
12.9176	0.238
12.9575	0.08
12.9973	0.04
13.0372	0.04
13.077	0.073
13.1169	0.2
13.1567	0.391
13.1966	0.568
13.2364	0.65
13.2763	0.668
13.3162	0.633
13.356	0.576
13.3959	0.521
13.4357	0.535
13.4756	0.61
13.5154	0.666
13.5553	0.701
13.5951	0.726
13.635	0.733
13.6749	0.755
13.7147	0.783
13.7546	0.825
13.7944	0.848
13.8343	0.875
13.8741	0.888
13.914	0.905
13.9538	0.908
13.9937	0.916
14.0336	0.921
14.0734	0.925
14.1133	0.925
14.1531	0.925
14.193	0.925
14.2328	0.925
14.2727	0.925
14.3125	0.931
14.3524	0.935
14.3923	0.933
14.4321	0.926
14.472	0.928
14.5118	0.93
14.5517	0.916
14.5915	0.926
14.6314	0.918
14.6712	0.916
14.7111	0.911
14.751	0.908
14.7908	0.898
14.8307	0.881
14.8705	0.871
14.9104	0.855
14.9502	0.833
14.9901	0.766
15.0299	0.588
15.0698	0.443
15.1097	0.423
15.1495	0.571
15.1894	0.69
15.2292	0.775
15.2691	0.821
15.3089	0.855
15.3488	0.866
15.3887	0.875
15.4285	0.878
15.4684	0.878
15.5082	0.878
15.5481	0.88
15.5879	0.873
15.6278	0.865
15.6676	0.863
15.7075	0.866
15.7474	0.866
15.7872	0.858
15.8271	0.858
15.8669	0.858
15.9068	0.858
15.9466	0.86
