Infrared Spectrum: NAPHTHALENE, 1-METHYL-
Formula: C11 H10
CAS: 90-12-0
State: VAPOR (65 MICROLITER AT 150 C)
Boiling point: 241 C
Class: COBLENTZ
Instrument: PERKIN-ELMER 180
Sampling: TRANSMISSION
Path length: 5 CM KBr CELL, CELL VOLUME: 80 CM^3
Resolution: 2-3 CM^-^1
Origin: PERKIN-ELMER CORP. (M. ZELLER)
1/CM	TRANSMITTANCE
404.047	0.36
413.491	0.4388
422.934	0.5869
432.378	0.659
441.821	0.7199
451.265	0.776
460.708	0.702
470.152	0.5642
479.595	0.6289
489.039	0.7739
498.482	0.907
507.926	0.909
517.369	0.876
526.813	0.788
536.257	0.6887
545.7	0.8479
555.144	0.929
564.587	0.896
574.031	0.903
583.474	0.955
592.918	0.953
602.361	0.94
611.805	0.921
621.248	0.88
630.692	0.9019
640.136	0.956
649.579	0.966
659.023	0.97
668.466	0.96
677.91	0.93
687.353	0.856
696.797	0.805
706.24	0.808
715.684	0.754
725.127	0.5353
734.571	0.3711
744.014	0.4639
753.458	0.4402
762.902	0.2222
772.345	0.1008
781.789	0.059
791.232	0.0689
800.676	0.1499
810.119	0.226
819.563	0.5137
829.006	0.7099
838.45	0.659
847.893	0.571
857.337	0.7229
866.781	0.83
876.224	0.854
885.668	0.823
895.111	0.846
904.555	0.881
913.998	0.919
923.442	0.928
932.885	0.906
942.329	0.868
951.772	0.826
961.216	0.812
970.659	0.865
980.103	0.883
989.547	0.877
998.99	0.837
1008.43	0.7271
1017.88	0.647
1027.32	0.709
1036.76	0.8329
1046.21	0.864
1055.65	0.86
1065.09	0.834
1074.54	0.784
1083.98	0.795
1093.43	0.854
1102.87	0.876
1112.31	0.867
1121.76	0.835
1131.2	0.815
1140.64	0.804
1150.09	0.807
1159.53	0.789
1168.97	0.77
1178.42	0.81
1187.86	0.853
1197.3	0.842
1206.75	0.807
1216.19	0.8
1225.64	0.833
1235.08	0.83
1244.52	0.824
1253.97	0.789
1263.41	0.7131
1272.85	0.721
1282.3	0.804
1291.74	0.857
1301.18	0.86
1310.63	0.85
1320.07	0.837
1329.51	0.822
1338.96	0.795
1348.4	0.781
1357.84	0.769
1367.29	0.751
1376.73	0.694
1386.18	0.5971
1395.62	0.489
1405.06	0.564
1414.51	0.7019
1423.95	0.683
1433.39	0.616
1442.84	0.584
1452.28	0.602
1461.72	0.599
1471.17	0.636
1480.61	0.716
1490.05	0.721
1499.5	0.527
1508.94	0.43
1518.38	0.5689
1527.83	0.754
1537.27	0.781
1546.72	0.786
1556.16	0.778
1565.6	0.742
1575.05	0.693
1584.49	0.624
1593.93	0.512
1603.38	0.549
1612.82	0.6809
1622.26	0.74
1631.71	0.729
1641.15	0.727
1650.59	0.765
1660.04	0.796
1669.48	0.772
1678.93	0.731
1688.37	0.739
1697.81	0.781
1707.26	0.793
1716.7	0.778
1726.14	0.763
1735.59	0.751
1745.03	0.757
1754.47	0.795
1763.92	0.833
1773.36	0.837
1782.8	0.814
1792.25	0.823
1801.69	0.861
1811.13	0.86
1820.58	0.856
1830.02	0.876
1839.47	0.881
1848.91	0.856
1858.35	0.869
1867.8	0.903
1877.24	0.905
1886.68	0.879
1896.13	0.839
1905.57	0.791
1915.01	0.773
1924.46	0.792
1933.9	0.793
1943.34	0.822
1952.79	0.883
1962.23	0.932
1971.67	0.938
1981.12	0.937
1990.56	0.936
2000.01	0.93
2009.45	0.9185
2018.89	0.917
2028.34	0.9135
2037.78	0.91
2047.22	0.912
2056.67	0.914
2066.11	0.9084
2075.55	0.906
2085	0.9095
2094.44	0.914
2103.88	0.915
2113.33	0.913
2122.77	0.9135
2132.22	0.911
2141.66	0.913
2151.1	0.913
2160.55	0.913
2169.99	0.9109
2179.43	0.9096
2188.88	0.911
2198.32	0.914
2207.76	0.9089
2217.21	0.9054
2226.65	0.905
2236.09	0.905
2245.54	0.902
2254.98	0.9
2264.42	0.899
2273.87	0.8928
2283.31	0.8898
2292.76	0.888
2302.2	0.8869
2311.64	0.8794
2321.09	0.8791
2330.53	0.8852
2339.97	0.8902
2349.42	0.8904
2358.86	0.891
2368.3	0.89
2377.75	0.891
2387.19	0.888
2396.63	0.8809
2406.08	0.8753
2415.52	0.8775
2424.96	0.881
2434.41	0.883
2443.85	0.883
2453.3	0.883
2462.74	0.881
2472.18	0.881
2481.63	0.88
2491.07	0.88
2500.51	0.88
2509.96	0.88
2519.4	0.88
2528.84	0.881
2538.29	0.883
2547.73	0.8832
2557.17	0.884
2566.62	0.8838
2576.06	0.883
2585.51	0.8808
2594.95	0.879
2604.39	0.8786
2613.84	0.876
2623.28	0.877
2632.72	0.877
2642.17	0.879
2651.61	0.879
2661.05	0.879
2670.5	0.8763
2679.94	0.8757
2689.38	0.8722
2698.83	0.8677
2708.27	0.8625
2717.71	0.8527
2727.16	0.8316
2736.6	0.8198
2746.05	0.8394
2755.49	0.8566
2764.93	0.8562
2774.38	0.8527
2783.82	0.8456
2793.26	0.8408
2802.71	0.825
2812.15	0.8092
2821.59	0.7926
2831.04	0.769
2840.48	0.7169
2849.92	0.6141
2859.37	0.4827
2868.81	0.4286
2878.25	0.4569
2887.7	0.498
2897.14	0.4485
2906.59	0.3643
2916.03	0.2844
2925.47	0.2013
2934.92	0.237
2944.36	0.2644
2953.8	0.2808
2963.25	0.282
2972.69	0.2935
2982.13	0.3488
2991.58	0.4389
3001.02	0.3897
3010.46	0.2926
3019.91	0.249
3029.35	0.1932
3038.8	0.0854
3048.24	0.0131
3057.68	0.0054
3067.13	0.0224
3076.57	0.121
3086.01	0.2846
3095.46	0.4158
3104.9	0.5912
3114.34	0.7209
3123.79	0.7795
3133.23	0.8
3142.67	0.8115
3152.12	0.8213
3161.56	0.822
3171	0.819
3180.45	0.82
3189.89	0.8283
3199.34	0.8329
3208.78	0.8306
3218.22	0.83
3227.67	0.8345
3237.11	0.838
3246.55	0.8415
3256	0.846
3265.44	0.849
3274.88	0.846
3284.33	0.847
3293.77	0.85
3303.21	0.846
3312.66	0.848
3322.1	0.849
3331.54	0.846
3340.99	0.846
3350.43	0.85
3359.88	0.849
3369.32	0.849
3378.76	0.848
3388.21	0.845
3397.65	0.845
3407.09	0.842
3416.54	0.842
3425.98	0.843
3435.42	0.843
3444.87	0.8409
3454.31	0.8385
3463.75	0.838
3473.2	0.8324
3482.64	0.8239
3492.09	0.8147
3501.53	0.7904
3510.97	0.7771
3520.42	0.7801
3529.86	0.8151
3539.3	0.8381
3548.75	0.841
3558.19	0.8408
3567.63	0.839
3577.08	0.839
3586.52	0.839
3595.96	0.841
3605.41	0.839
3614.85	0.838
3624.29	0.8374
3633.74	0.8349
3643.18	0.8336
3652.63	0.8352
3662.07	0.837
3671.51	0.837
3680.96	0.837
3690.4	0.835
3699.84	0.834
3709.29	0.8327
3718.73	0.831
3728.17	0.8301
3737.62	0.833
3747.06	0.83
3756.5	0.829
3765.95	0.826
3775.39	0.826
3784.83	0.823
3794.28	0.8193
3803.72	0.822
3813.17	0.8206
3822.61	0.8198
3832.05	0.8169
3841.5	0.8108
3850.94	0.8117
3860.38	0.8124
3869.83	0.814
3879.27	0.812
3888.71	0.81
3898.16	0.8048
3907.6	0.803
3917.04	0.801
3926.49	0.801
3935.93	0.803
3945.38	0.805
3954.82	0.807
3964.26	0.8055
3973.71	0.803
3983.15	0.803
3992.59	0.803
