Infrared Spectrum: 1-Iodonaphthalene
Formula: C10 H7 I
CAS: 90-14-2
State: SOLUTION (10% CCl4 FOR 3800-1335, 10% CS2 FOR 1335-450 CM^-^1)
Boiling point: 171 C AT 21 mmHg
Class: COBLENTZ III
Instrument: DOW KBr FOREPRISM-GRATING
Instrument parameters: BLAZED AT 3.5, 12.0, 20.0 MICRON AND CHANGED AT 5.0, 7.5, 14.9 MICRON
Sampling: TRANSMISSION
Path length: 0.011 CM, 0.011 CM
Resolution: 2
Origin: DOW CHEMICAL COMPANY
1/CM	TRANSMITTANCE
3796	0.8911
3787	0.8914
3778	0.8911
3769	0.8914
3760	0.8922
3751	0.8913
3742	0.8911
3733	0.8909
3724	0.8924
3715	0.8922
3706	0.8937
3697	0.8934
3688	0.8917
3679	0.8898
3670	0.8915
3661	0.8905
3652	0.8908
3643	0.8911
3634	0.8916
3625	0.8938
3616	0.8945
3607	0.8952
3598	0.895
3589	0.8967
3580	0.8976
3571	0.8968
3562	0.8978
3553	0.8991
3544	0.9011
3535	0.9032
3526	0.903
3517	0.9044
3508	0.9058
3499	0.9072
3490	0.9086
3481	0.9101
3472	0.9117
3463	0.913
3454	0.9145
3445	0.9159
3436	0.9176
3427	0.9199
3418	0.9224
3409	0.9254
3400	0.9276
3391	0.9282
3382	0.9279
3373	0.9271
3364	0.9262
3355	0.9253
3346	0.925
3337	0.9265
3328	0.9248
3319	0.9248
3310	0.9267
3301	0.9252
3292	0.9252
3283	0.9261
3274	0.925
3265	0.9241
3256	0.9215
3247	0.9219
3238	0.921
3229	0.9199
3220	0.9189
3211	0.9178
3202	0.9152
3193	0.9162
3184	0.9137
3175	0.9118
3166	0.9097
3157	0.9091
3148	0.9062
3139	0.906
3130	0.903
3121	0.8966
3112	0.8888
3103	0.8794
3094	0.8586
3085	0.7836
3076	0.7482
3067	0.6644
3058	0.5764
3049	0.6914
3040	0.7878
3031	0.8112
3022	0.8285
3013	0.8454
3004	0.8595
2995	0.8673
2986	0.8752
2977	0.8822
2968	0.8881
2959	0.8928
2950	0.8918
2941	0.8874
2932	0.8891
2923	0.8911
2914	0.8904
2905	0.8906
2896	0.8909
2887	0.8913
2878	0.8918
2869	0.8919
2860	0.8919
2851	0.8903
2842	0.8919
2833	0.8903
2824	0.8902
2815	0.8897
2806	0.8907
2797	0.8899
2788	0.888
2779	0.8892
2770	0.8889
2761	0.8893
2752	0.8899
2743	0.8904
2734	0.8907
2725	0.891
2716	0.8907
2707	0.8898
2698	0.8887
2689	0.8875
2680	0.8866
2671	0.8857
2662	0.8855
2653	0.8865
2644	0.8844
2635	0.8836
2626	0.8846
2617	0.8852
2608	0.8868
2599	0.8865
2590	0.8856
2581	0.8844
2572	0.8842
2563	0.8845
2554	0.8853
2545	0.8865
2536	0.8875
2527	0.8884
2518	0.8891
2509	0.8889
2500	0.8884
2491	0.8881
2482	0.8878
2473	0.8889
2464	0.8884
2455	0.8862
2446	0.8872
2437	0.8859
2428	0.885
2419	0.8848
2410	0.8843
2401	0.8853
2392	0.8849
2383	0.8889
2374	0.8947
2365	0.8937
2356	0.8977
2347	0.8976
2338	0.8942
2329	0.8932
2320	0.8936
2311	0.8901
2302	0.8864
2293	0.886
2284	0.8857
2275	0.8845
2266	0.8854
2257	0.8842
2248	0.8837
2239	0.8842
2230	0.8849
2221	0.8854
2212	0.8866
2203	0.8877
2194	0.8886
2185	0.8878
2176	0.8902
2167	0.8885
2158	0.8883
2149	0.8883
2140	0.8883
2131	0.8885
2122	0.8872
2113	0.889
2104	0.8896
2095	0.891
2086	0.8912
2077	0.8895
2068	0.8882
2059	0.8905
2050	0.8926
2041	0.8912
2032	0.891
2023	0.8911
2014	0.8905
2005	0.8897
1996	0.8778
1987	0.8746
1978	0.8697
1969	0.8682
1960	0.8556
1951	0.841
1942	0.8455
1933	0.8204
1924	0.8232
1915	0.8378
1906	0.8539
1897	0.8589
1888	0.8597
1879	0.8578
1870	0.8246
1861	0.8435
1852	0.8495
1843	0.8562
1834	0.8307
1825	0.8466
1816	0.8512
1807	0.803
1798	0.8313
1789	0.8571
1780	0.8658
1771	0.8573
1762	0.8457
1753	0.8465
1744	0.8446
1735	0.8513
1726	0.8595
1717	0.8527
1708	0.8613
1699	0.8421
1690	0.834
1681	0.8531
1672	0.8704
1663	0.8819
1654	0.8966
1645	0.9062
1636	0.8883
1627	0.8636
1618	0.8639
1609	0.8638
1600	0.6842
1591	0.7248
1582	0.7757
1573	0.8078
1564	0.7093
1555	0.621
1546	0.7855
1537	0.8713
1528	0.8475
1519	0.8222
1510	0.8107
1501	0.32
1492	0.8137
1483	0.8699
1474	0.8659
1465	0.8643
1456	0.8538
1447	0.8641
1438	0.8643
1429	0.8688
1420	0.8745
1411	0.8802
1402	0.8826
1393	0.8558
1384	0.5633
1375	0.5449
1366	0.7577
1357	0.8151
1348	0.8373
1339	0.7956
1330	0.8102
1321	0.8265
1312	0.8252
1303	0.8362
1294	0.8368
1285	0.8371
1276	0.8395
1267	0.8217
1258	0.5489
1249	0.7262
1240	0.8356
1231	0.8486
1222	0.8382
1213	0.7356
1204	0.5202
1195	0.723
1186	0.8133
1177	0.8302
1168	0.8251
1159	0.8073
1150	0.8212
1141	0.8039
1132	0.6675
1123	0.8517
1114	0.869
1105	0.8671
1096	0.8656
1087	0.8633
1078	0.851
1069	0.851
1060	0.801
1051	0.8292
1042	0.8402
1033	0.848
1024	0.5925
1015	0.8192
1006	0.8432
997	0.8432
988	0.8368
979	0.8278
970	0.8112
961	0.7651
952	0.5988
943	0.2903
934	0.7864
925	0.8202
916	0.8294
907	0.8256
898	0.8106
889	0.8255
880	0.8177
871	0.8213
862	0.7974
853	0.7155
844	0.8095
835	0.8202
826	0.8112
817	0.7924
808	0.6608
799	0.5468
790	0.0084
781	0.7123
772	0.6843
763	0.4
754	0.7728
745	0.7866
736	0.7798
727	0.7716
718	0.812
709	0.8268
700	0.8289
691	0.8286
682	0.8354
673	0.8457
664	0.8562
655	0.8379
646	0.7574
637	0.7767
628	0.8458
619	0.8557
610	0.8486
601	0.8597
592	0.8617
583	0.8653
574	0.8656
565	0.8642
556	0.8663
547	0.8643
538	0.8559
529	0.7928
520	0.7199
511	0.8301
502	0.8407
493	0.8407
484	0.8355
475	0.8246
466	0.8142
457	0.8083
