Infrared Spectrum: 1-HYDROXYNAPHTHALENE
Formula: C10 H8 O
CAS: 90-15-3
State: SOLUTION (SATURATED IN CCl4 FOR 4000-1340 CM^-^1, SATURATED IN CS2 FOR 1370-600 CM^-^1)
Class: COBLENTZ III
Instrument: BECKMAN IR-7 (GRATING)
Instrument parameters: GRATING CHANGES AT 3000, 2200, 1150 CM^-^1
Sampling: TRANSMISSION
Path length: 0.01 CM, 0.011 CM
Resolution: 4
Origin: WESTERN REGIONAL RES. USDA
1/CM	TRANSMITTANCE
599.194	0.878
607.704	0.878
616.213	0.874
624.723	0.861
633.232	0.837
641.742	0.857
650.251	0.84
658.761	0.822
667.27	0.867
675.78	0.873
684.29	0.883
692.799	0.894
701.309	0.89
709.818	0.8191
718.328	0.81
726.837	0.85
735.347	0.856
743.857	0.846
752.366	0.844
760.876	0.7251
769.385	0.026
777.895	0.5439
786.404	0.2456
794.914	0.3329
803.423	0.782
811.933	0.84
820.443	0.896
828.952	0.907
837.462	0.864
845.971	0.802
854.481	0.699
862.99	0.731
871.5	0.742
880.009	0.4059
888.519	0.82
897.029	0.895
905.538	0.905
914.048	0.93
922.557	0.935
931.067	0.932
939.576	0.924
948.086	0.91
956.596	0.856
965.105	0.8699
973.615	0.918
982.124	0.919
990.634	0.915
999.143	0.91
1007.65	0.883
1016.16	0.3661
1024.67	0.842
1033.18	0.826
1041.69	0.2858
1050.2	0.6839
1058.71	0.804
1067.22	0.898
1075.73	0.848
1084.24	0.332
1092.75	0.86
1101.26	0.907
1109.77	0.913
1118.28	0.899
1126.79	0.868
1135.3	0.8021
1143.81	0.433
1152.32	0.5689
1160.82	0.6029
1169.33	0.677
1177.84	0.523
1186.35	0.628
1194.86	0.629
1203.37	0.581
1211.88	0.69
1220.39	0.735
1228.9	0.628
1237.41	0.409
1245.92	0.3139
1254.43	0.65
1262.94	0.594
1271.45	0.3312
1279.96	0.352
1288.47	0.735
1296.98	0.78
1305.49	0.836
1314	0.833
1322.51	0.877
1331.02	0.899
1339.53	0.898
1348.04	0.854
1356.54	0.714
1365.05	0.709
1373.56	0.788
1382.07	0.7301
1390.58	0.5328
1399.09	0.758
1407.6	0.5229
1416.11	0.872
1424.62	0.869
1433.13	0.891
1441.64	0.883
1450.15	0.834
1458.66	0.806
1467.17	0.6442
1475.68	0.864
1484.19	0.852
1492.7	0.84
1501.21	0.7821
1509.72	0.704
1518.23	0.439
1526.74	0.591
1535.25	0.582
1543.76	0.495
1552.26	0.462
1560.77	0.501
1569.28	0.553
1577.79	0.406
1586.3	0.481
1594.81	0.5
1603.32	0.5759
1611.83	0.766
1620.34	0.841
1628.85	0.81
1637.36	0.741
1645.87	0.85
1654.38	0.888
1662.89	0.895
1671.4	0.894
1679.91	0.902
1688.42	0.9
1696.93	0.91
1705.44	0.91
1713.95	0.902
1722.46	0.89
1730.97	0.897
1739.47	0.904
1747.98	0.907
1756.49	0.91
1765	0.914
1773.51	0.918
1782.02	0.921
1790.53	0.919
1799.04	0.912
1807.55	0.904
1816.06	0.908
1824.57	0.899
1833.08	0.893
1841.59	0.907
1850.1	0.907
1858.61	0.918
1867.12	0.922
1875.63	0.922
1884.14	0.921
1892.65	0.918
1901.16	0.905
1909.67	0.89
1918.18	0.902
1926.69	0.904
1935.19	0.911
1943.7	0.914
1952.21	0.905
1960.72	0.912
1969.23	0.92
1977.74	0.922
1986.25	0.918
1994.76	0.918
2003.27	0.9193
2011.78	0.9205
2020.29	0.921
2028.8	0.9221
2037.31	0.9236
2045.82	0.922
2054.33	0.922
2062.84	0.9218
2071.35	0.921
2079.86	0.921
2088.37	0.921
2096.88	0.922
2105.39	0.923
2113.9	0.924
2122.41	0.924
2130.91	0.924
2139.42	0.924
2147.93	0.9231
2156.44	0.922
2164.95	0.922
2173.46	0.922
2181.97	0.924
2190.48	0.9253
2198.99	0.926
2207.5	0.9279
2216.01	0.9302
2224.52	0.932
2233.03	0.9313
2241.54	0.929
2250.05	0.9267
2258.56	0.9245
2267.07	0.9222
2275.58	0.9198
2284.09	0.9143
2292.6	0.9077
2301.11	0.905
2309.62	0.906
2318.13	0.908
2326.63	0.9117
2335.14	0.913
2343.65	0.912
2352.16	0.9104
2360.67	0.909
2369.18	0.9121
2377.69	0.9158
2386.2	0.9187
2394.71	0.921
2403.22	0.922
2411.73	0.9235
2420.24	0.924
2428.75	0.924
2437.26	0.925
2445.77	0.9266
2454.28	0.927
2462.79	0.926
2471.3	0.926
2479.81	0.926
2488.32	0.926
2496.83	0.929
2505.34	0.9285
2513.84	0.928
2522.35	0.928
2530.86	0.928
2539.37	0.928
2547.88	0.928
2556.39	0.927
2564.9	0.927
2573.41	0.927
2581.92	0.927
2590.43	0.927
2598.94	0.927
2607.45	0.926
2615.96	0.926
2624.47	0.926
2632.98	0.926
2641.49	0.926
2650	0.9258
2658.51	0.925
2667.02	0.926
2675.53	0.926
2684.04	0.926
2692.55	0.926
2701.06	0.926
2709.56	0.925
2718.07	0.925
2726.58	0.924
2735.09	0.924
2743.6	0.9243
2752.11	0.926
2760.62	0.927
2769.13	0.929
2777.64	0.929
2786.15	0.929
2794.66	0.929
2803.17	0.927
2811.68	0.926
2820.19	0.926
2828.7	0.925
2837.21	0.924
2845.72	0.924
2854.23	0.924
2862.74	0.924
2871.25	0.924
2879.76	0.924
2888.27	0.923
2896.78	0.9217
2905.28	0.921
2913.79	0.919
2922.3	0.918
2930.81	0.9166
2939.32	0.915
2947.83	0.9131
2956.34	0.9078
2964.85	0.905
2973.36	0.9033
2981.87	0.903
2990.38	0.9027
2998.89	0.902
3007.4	0.899
3015.91	0.8949
3024.42	0.8792
3032.93	0.8557
3041.44	0.8294
3049.95	0.7938
3058.46	0.7411
3066.97	0.7388
3075.48	0.7535
3083.99	0.7958
3092.49	0.8547
3101	0.8812
3109.51	0.8965
3118.02	0.9059
3126.53	0.9144
3135.04	0.92
3143.55	0.9223
3152.06	0.9235
3160.57	0.923
3169.08	0.9209
3177.59	0.918
3186.1	0.918
3194.61	0.9171
3203.12	0.917
3211.63	0.916
3220.14	0.916
3228.65	0.915
3237.16	0.913
3245.67	0.912
3254.18	0.91
3262.69	0.9099
3271.2	0.907
3279.71	0.905
3288.21	0.904
3296.72	0.902
3305.23	0.9005
3313.74	0.899
3322.25	0.8969
3330.76	0.894
3339.27	0.8914
3347.78	0.89
3356.29	0.8878
3364.8	0.8846
3373.31	0.8803
3381.82	0.877
3390.33	0.875
3398.84	0.8699
3407.35	0.8672
3415.86	0.8639
3424.37	0.8593
3432.88	0.8547
3441.39	0.8501
3449.9	0.8466
3458.41	0.8425
3466.92	0.8402
3475.43	0.839
3483.93	0.838
3492.44	0.84
3500.95	0.842
3509.46	0.844
3517.97	0.845
3526.48	0.8443
3534.99	0.841
3543.5	0.8373
3552.01	0.826
3560.52	0.8212
3569.03	0.8179
3577.54	0.8127
3586.05	0.7883
3594.56	0.6535
3603.07	0.4895
3611.58	0.4241
3620.09	0.6119
3628.6	0.7421
3637.11	0.8541
3645.62	0.9072
3654.13	0.9127
3662.64	0.915
3671.15	0.9154
3679.65	0.918
3688.16	0.9189
3696.67	0.921
3705.18	0.9225
3713.69	0.924
3722.2	0.925
3730.71	0.926
3739.22	0.926
3747.73	0.924
3756.24	0.922
3764.75	0.923
3773.26	0.9247
3781.77	0.926
3790.28	0.9255
3798.79	0.9215
3807.3	0.921
3815.81	0.9221
3824.32	0.9236
3832.83	0.9204
3841.34	0.918
3849.85	0.918
3858.36	0.92
3866.86	0.922
3875.37	0.918
3883.88	0.9193
3892.39	0.921
3900.9	0.9192
3909.41	0.918
3917.92	0.918
3926.43	0.9163
3934.94	0.9151
3943.45	0.9152
3951.96	0.9165
3960.47	0.9188
3968.98	0.92
