Infrared Spectrum: 2-Phenylbutyramide
Formula: C10 H13 N O
CAS: 90-26-6
State: SOLID (SPLIT MULL)
Melting point: 84 C
Class: COBLENTZ III
Instrument: DOW KBr FOREPRISM-GRATING
Instrument parameters: BLAZED AT 3.5, 12.0, 20.0 MICRON AND CHANGED AT 5.0, 7.5, 14.9 MICRON
Sampling: TRANSMISSION
Resolution: 2
Origin: DOW CHEMICAL COMPANY
1/CM	TRANSMITTANCE
3800	0.6875
3791	0.6884
3782	0.6893
3773	0.6901
3764	0.6908
3755	0.6914
3746	0.6922
3737	0.6937
3728	0.6951
3719	0.6967
3710	0.699
3701	0.7011
3692	0.7034
3683	0.7057
3674	0.7078
3665	0.7089
3656	0.7099
3647	0.7107
3638	0.7115
3629	0.713
3620	0.716
3611	0.719
3602	0.7219
3593	0.7247
3584	0.7247
3575	0.7199
3566	0.7251
3557	0.7276
3548	0.7289
3539	0.7299
3530	0.7325
3521	0.7349
3512	0.7375
3503	0.7406
3494	0.7436
3485	0.7457
3476	0.7461
3467	0.745
3458	0.7415
3449	0.7346
3440	0.7147
3431	0.6656
3422	0.5812
3413	0.474
3404	0.3809
3395	0.22
3386	0.0592
3377	0.0392
3368	0.1104
3359	0.2201
3350	0.3151
3341	0.3679
3332	0.3982
3323	0.4098
3314	0.4273
3305	0.4478
3296	0.4737
3287	0.4934
3278	0.5089
3269	0.5146
3260	0.5158
3251	0.5129
3242	0.5029
3233	0.4791
3224	0.4377
3215	0.3856
3206	0.3034
3197	0.2242
3188	0.1779
3179	0.1689
3170	0.2229
3161	0.3362
3152	0.389
3143	0.421
3134	0.4537
3125	0.4816
3116	0.5126
3107	0.5278
3098	0.5323
3089	0.5162
3080	0.5502
3071	0.5584
3062	0.567
3053	0.5864
3044	0.5925
3035	0.5302
3026	0.5715
3017	0.6208
3008	0.6461
2999	0.6621
2990	0.6678
2981	0.546
2972	0.4516
2963	0.3338
2954	0.5742
2945	0.4364
2936	0.3796
2927	0.4583
2918	0.5682
2909	0.5834
2900	0.6122
2891	0.6393
2882	0.5954
2873	0.5529
2864	0.6376
2855	0.6449
2846	0.6599
2837	0.6758
2828	0.6906
2819	0.7037
2810	0.7131
2801	0.7104
2792	0.7037
2783	0.703
2774	0.7112
2765	0.7187
2756	0.7219
2747	0.7275
2738	0.7341
2729	0.7401
2720	0.7468
2711	0.7536
2702	0.7597
2693	0.7656
2684	0.7704
2675	0.7749
2666	0.7786
2657	0.7808
2648	0.7832
2639	0.7851
2630	0.7871
2621	0.789
2612	0.7903
2603	0.791
2594	0.7918
2585	0.7925
2576	0.7933
2567	0.7944
2558	0.7961
2549	0.7981
2540	0.7996
2531	0.8006
2522	0.8015
2513	0.8025
2504	0.8035
2495	0.8044
2486	0.8054
2477	0.8064
2468	0.8071
2459	0.8078
2450	0.8087
2441	0.8094
2432	0.81
2423	0.8105
2414	0.8111
2405	0.8115
2396	0.8121
2387	0.8126
2378	0.8131
2369	0.8135
2360	0.8138
2351	0.8139
2342	0.8137
2333	0.8138
2324	0.8135
2315	0.811
2306	0.8082
2297	0.8138
2288	0.8191
2279	0.819
2270	0.819
2261	0.8233
2252	0.8277
2243	0.8324
2234	0.8377
2225	0.842
2216	0.8442
2207	0.8455
2198	0.8473
2189	0.8491
2180	0.851
2171	0.8525
2162	0.8538
2153	0.8548
2144	0.8559
2135	0.8578
2126	0.8599
2117	0.8617
2108	0.8627
2099	0.8637
2090	0.8647
2081	0.8662
2072	0.8678
2063	0.869
2054	0.8701
2045	0.8717
2036	0.8741
2027	0.8759
2018	0.8771
2009	0.8773
2000	0.8718
1991	0.8585
1982	0.8545
1973	0.8436
1964	0.8525
1955	0.8377
1946	0.8453
1937	0.8548
1928	0.8557
1919	0.8581
1910	0.8578
1901	0.8546
1892	0.8481
1883	0.8543
1874	0.8389
1865	0.8524
1856	0.8609
1847	0.8596
1838	0.8621
1829	0.8575
1820	0.8589
1811	0.8499
1802	0.8405
1793	0.8478
1784	0.8458
1775	0.8411
1766	0.8404
1757	0.8387
1748	0.82
1739	0.8204
1730	0.8043
1721	0.7412
1712	0.7671
1703	0.753
1694	0.7015
1685	0.5767
1676	0.3854
1667	0.1024
1658	0.0118
1649	0.0407
1640	0.1505
1631	0.1671
1622	0.4833
1613	0.5644
1604	0.5314
1595	0.6485
1586	0.5744
1577	0.7049
1568	0.7226
1559	0.7338
1550	0.7469
1541	0.7611
1532	0.7708
1523	0.7762
1514	0.768
1505	0.6837
1496	0.6437
1487	0.6242
1478	0.7292
1469	0.4874
1460	0.5342
1451	0.5799
1442	0.3984
1433	0.5776
1424	0.4458
1415	0.4084
1406	0.5517
1397	0.6332
1388	0.6615
1379	0.618
1370	0.6617
1361	0.6362
1352	0.6235
1343	0.6255
1334	0.6154
1325	0.5794
1316	0.5147
1307	0.3858
1298	0.2907
1289	0.5234
1280	0.5777
1271	0.5977
1262	0.6132
1253	0.5237
1244	0.3573
1235	0.588
1226	0.6774
1217	0.7089
1208	0.7295
1199	0.7454
1190	0.6567
1181	0.6825
1172	0.7633
1163	0.7534
1154	0.7472
1145	0.6981
1136	0.56
1127	0.4053
1118	0.618
1109	0.4798
1100	0.7241
1091	0.725
1082	0.7425
1073	0.6896
1064	0.8162
1055	0.8416
1046	0.8489
1037	0.8095
1028	0.8107
1019	0.8554
1010	0.8486
1001	0.8489
992	0.8553
983	0.8668
974	0.8625
965	0.8586
956	0.8625
947	0.862
938	0.8555
929	0.8575
920	0.8461
911	0.7734
902	0.8199
893	0.798
884	0.847
875	0.851
866	0.8406
857	0.8011
848	0.6351
839	0.7767
830	0.7001
821	0.589
812	0.5973
803	0.6824
794	0.7649
785	0.759
776	0.479
767	0.5995
758	0.4057
749	0.6055
740	0.6489
731	0.5324
722	0.3044
713	0.5639
704	0.2304
695	0.5746
686	0.6173
677	0.4781
668	0.3307
659	0.3264
650	0.3829
641	0.5698
632	0.6708
623	0.7428
614	0.7489
605	0.769
596	0.6533
587	0.7531
578	0.7936
569	0.8068
560	0.8141
551	0.8167
542	0.8143
533	0.8126
524	0.8128
515	0.7794
506	0.5478
497	0.7604
488	0.7774
479	0.7578
470	0.7203
461	0.7318
