Infrared Spectrum: 1-Naphthylamine, N-phenyl-
Formula: C16 H13 N
CAS: 90-30-2
State: SOLUTION (10% CCl4 FOR 3800-1335, 10% CS2 FOR 1335-450 CM^-^1)
Melting point: 60 C
Class: COBLENTZ III
Instrument: DOW KBr FOREPRISM-GRATING
Instrument parameters: BLAZED AT 3.5, 12.0, 20.0 MICRON AND CHANGED AT 5.0, 7.5, 14.9 MICRON
Sampling: TRANSMISSION
Path length: 0.011 CM, 0.011 CM
Resolution: 2
Origin: DOW CHEMICAL COMPANY
1/CM	TRANSMITTANCE
3816	0.8666
3807	0.8671
3798	0.8678
3789	0.8686
3780	0.8697
3771	0.8708
3762	0.8718
3753	0.8728
3744	0.8741
3735	0.8744
3726	0.8745
3717	0.8745
3708	0.8746
3699	0.8742
3690	0.8737
3681	0.8732
3672	0.8725
3663	0.8718
3654	0.8713
3645	0.8711
3636	0.8716
3627	0.8725
3618	0.8735
3609	0.8739
3600	0.8741
3591	0.8743
3582	0.8745
3573	0.8749
3564	0.8753
3555	0.8754
3546	0.8753
3537	0.8752
3528	0.8749
3519	0.8744
3510	0.874
3501	0.8733
3492	0.872
3483	0.8687
3474	0.8632
3465	0.8536
3456	0.8395
3447	0.7042
3438	0.651
3429	0.6175
3420	0.5912
3411	0.6104
3402	0.6805
3393	0.7284
3384	0.7681
3375	0.7998
3366	0.8221
3357	0.836
3348	0.849
3339	0.8574
3330	0.8616
3321	0.8636
3312	0.8663
3303	0.8678
3294	0.8682
3285	0.8684
3276	0.869
3267	0.8691
3258	0.8692
3249	0.8671
3240	0.8656
3231	0.8639
3222	0.8624
3213	0.861
3204	0.8603
3195	0.8603
3186	0.8601
3177	0.8597
3168	0.8591
3159	0.8578
3150	0.8566
3141	0.8539
3132	0.8492
3123	0.841
3114	0.7888
3105	0.7375
3096	0.643
3087	0.6127
3078	0.5276
3069	0.3907
3060	0.3322
3051	0.3809
3042	0.4652
3033	0.5588
3024	0.5885
3015	0.5954
3006	0.6438
2997	0.7667
2988	0.7911
2979	0.8069
2970	0.8125
2961	0.8115
2952	0.8135
2943	0.8183
2934	0.8191
2925	0.816
2916	0.8186
2907	0.8255
2898	0.8313
2889	0.837
2880	0.8423
2871	0.8447
2862	0.8406
2853	0.8382
2844	0.8402
2835	0.8458
2826	0.8501
2817	0.852
2808	0.8538
2799	0.8547
2790	0.8554
2781	0.856
2772	0.8558
2763	0.8554
2754	0.8548
2745	0.8575
2736	0.8578
2727	0.8567
2718	0.8554
2709	0.8546
2700	0.8563
2691	0.857
2682	0.8563
2673	0.8552
2664	0.8541
2655	0.8528
2646	0.8518
2637	0.8508
2628	0.8499
2619	0.849
2610	0.8487
2601	0.8485
2592	0.8484
2583	0.8483
2574	0.8483
2565	0.8481
2556	0.8478
2547	0.8448
2538	0.8406
2529	0.8364
2520	0.8342
2511	0.8383
2502	0.8428
2493	0.8462
2484	0.8492
2475	0.8509
2466	0.8525
2457	0.8543
2448	0.8554
2439	0.8554
2430	0.8549
2421	0.8523
2412	0.8497
2403	0.8491
2394	0.8495
2385	0.8502
2376	0.8528
2367	0.8562
2358	0.8575
2349	0.8561
2340	0.8513
2331	0.8468
2322	0.8431
2313	0.84
2304	0.8374
2295	0.8349
2286	0.8324
2277	0.8323
2268	0.8371
2259	0.8425
2250	0.8468
2241	0.8499
2232	0.8523
2223	0.8533
2214	0.8544
2205	0.8556
2196	0.8571
2187	0.8564
2178	0.8554
2169	0.8541
2160	0.8528
2151	0.8514
2142	0.85
2133	0.849
2124	0.8481
2115	0.8478
2106	0.8478
2097	0.8477
2088	0.8477
2079	0.8484
2070	0.8482
2061	0.8464
2052	0.8456
2043	0.8448
2034	0.8439
2025	0.8428
2016	0.841
2007	0.8411
1998	0.8421
1989	0.8128
1980	0.8406
1971	0.8411
1962	0.8404
1953	0.8293
1944	0.7974
1935	0.7743
1926	0.7676
1917	0.7465
1908	0.7569
1899	0.784
1890	0.8122
1881	0.8216
1872	0.8246
1863	0.8182
1854	0.8042
1845	0.79
1836	0.7825
1827	0.7772
1818	0.7875
1809	0.7971
1800	0.7985
1791	0.7961
1782	0.7925
1773	0.7891
1764	0.791
1755	0.796
1746	0.7995
1737	0.7943
1728	0.7869
1719	0.7801
1710	0.7836
1701	0.7807
1692	0.7728
1683	0.7661
1674	0.7701
1665	0.7598
1656	0.6925
1647	0.7215
1638	0.721
1629	0.6307
1620	0.5806
1611	0.5192
1602	0.0461
1593	0.0471
1584	0.1234
1575	0.0401
1566	0.2495
1557	0.3412
1548	0.3196
1539	0.312
1530	0.2532
1521	0.0784
1512	0.1195
1503	0.1483
1494	0.0104
1485	0.2522
1476	0.4505
1467	0.496
1458	0.2814
1449	0.2604
1440	0.5305
1431	0.6095
1422	0.4974
1413	0.3225
1404	0.1991
1395	0.1349
1386	0.499
1377	0.6266
1368	0.6458
1359	0.6882
1350	0.6525
1341	0.5002
1332	0.6555
1323	0.6245
1314	0.3371
1305	0.0632
1296	0.171
1287	0.4448
1278	0.5475
1269	0.5295
1260	0.5412
1251	0.4287
1242	0.5747
1233	0.7312
1224	0.6564
1215	0.7715
1206	0.7932
1197	0.8246
1188	0.8275
1179	0.7855
1170	0.6077
1161	0.6412
1152	0.6888
1143	0.7685
1134	0.7976
1125	0.8512
1116	0.8588
1107	0.8546
1098	0.8091
1089	0.6525
1080	0.6891
1071	0.7187
1062	0.8106
1053	0.8366
1044	0.6907
1035	0.8418
1026	0.6939
1017	0.7178
1008	0.6688
999	0.844
990	0.7925
981	0.8386
972	0.8394
963	0.8181
954	0.7518
945	0.7894
936	0.7935
927	0.852
918	0.8582
909	0.8554
900	0.8435
891	0.7851
882	0.6896
873	0.6383
864	0.6643
855	0.6112
846	0.6327
837	0.7201
828	0.7511
819	0.7486
810	0.7411
801	0.6533
792	0.3123
783	0.2066
774	0.0274
765	0.2227
756	0.4721
747	0.1967
738	0.1017
729	0.3336
720	0.5966
711	0.7392
702	0.7514
693	0.2839
684	0.4202
675	0.7599
666	0.7817
657	0.8007
648	0.7751
639	0.8062
630	0.8282
621	0.6856
612	0.8203
603	0.8511
594	0.8428
585	0.7798
576	0.7636
567	0.7226
558	0.6441
549	0.7887
540	0.824
531	0.8223
522	0.7835
513	0.6908
504	0.7299
495	0.7171
486	0.7024
477	0.6996
468	0.678
459	0.6678
