Infrared Spectrum: 7-HYDROXY-4-METHYL COUMARIN
Formula: C10 H8 O3
CAS: 90-33-5
State: SOLID (SPLIT MULL)
Class: COBLENTZ
Instrument: Not specified, most likely a grating or hybrid spectrometer.
Sampling: TRANSMISSION
Resolution: 4
Origin: DOW CORNING CORP.
1/CM	TRANSMITTANCE
360.32	1
369.28	0.979
378.24	0.96
387.2	0.935
396.16	0.93
405.12	0.916
414.08	0.875
423.04	0.899
432	0.8851
440.96	0.831
449.92	0.848
458.88	0.885
467.84	0.836
476.8	0.803
485.76	0.864
494.72	0.868
503.68	0.875
512.64	0.868
521.6	0.838
530.56	0.727
539.52	0.746
548.48	0.743
557.44	0.727
566.4	0.72
575.36	0.717
584.32	0.6969
593.28	0.751
602.24	0.786
611.2	0.828
620.16	0.7761
629.12	0.774
638.08	0.7789
647.04	0.824
656	0.819
664.96	0.822
673.92	0.848
682.88	0.826
691.84	0.8136
700.8	0.845
709.76	0.835
718.72	0.828
727.68	0.828
736.64	0.796
745.6	0.762
754.56	0.842
763.52	0.803
772.48	0.781
781.44	0.7321
790.4	0.6611
799.36	0.59
808.32	0.644
817.28	0.751
826.24	0.727
835.2	0.456
844.16	0.411
853.12	0.814
862.08	0.859
871.04	0.855
880	0.852
888.96	0.828
897.92	0.809
906.88	0.883
915.84	0.892
924.8	0.878
933.76	0.871
942.72	0.852
951.68	0.822
960.64	0.829
969.6	0.812
978.56	0.75
987.52	0.741
996.48	0.862
1005.44	0.852
1014.4	0.812
1023.36	0.835
1032.32	0.822
1041.28	0.81
1050.24	0.7761
1059.2	0.7271
1068.16	0.557
1077.12	0.829
1086.08	0.819
1095.04	0.8
1104	0.763
1112.96	0.73
1121.92	0.6681
1130.88	0.545
1139.84	0.671
1148.8	0.631
1157.76	0.583
1166.72	0.743
1175.68	0.743
1184.64	0.725
1193.6	0.692
1202.56	0.6211
1211.52	0.5969
1220.48	0.63
1229.44	0.637
1238.4	0.567
1247.36	0.484
1256.32	0.486
1265.28	0.4791
1274.24	0.25
1283.2	0.703
1292.16	0.71
1301.12	0.71
1310.08	0.706
1319.04	0.701
1328	0.684
1336.96	0.581
1345.92	0.67
1354.88	0.659
1363.84	0.572
1372.8	0.406
1381.76	0.3811
1390.72	0.2551
1399.68	0.4059
1408.64	0.699
1417.6	0.744
1426.56	0.717
1435.52	0.602
1444.48	0.565
1453.44	0.427
1462.4	0.659
1471.36	0.6989
1480.32	0.708
1489.28	0.703
1498.24	0.687
1507.2	0.649
1516.16	0.586
1525.12	0.678
1534.08	0.659
1543.04	0.623
1552	0.574
1560.96	0.5001
1569.92	0.42
1578.88	0.385
1587.84	0.2891
1596.8	0.177
1605.76	0.151
1614.72	0.194
1623.68	0.2369
1632.64	0.38
1641.6	0.458
1650.56	0.3401
1659.52	0.2601
1668.48	0.142
1677.44	0.1779
1686.4	0.4139
1695.36	0.465
1704.32	0.625
1713.28	0.6889
1722.24	0.776
1731.2	0.796
1740.16	0.802
1749.12	0.817
1758.08	0.85
1767.04	0.885
1776	0.906
1784.96	0.913
1793.92	0.907
1802.88	0.89
1811.84	0.909
1820.8	0.92
1829.76	0.925
1838.72	0.925
1847.68	0.921
1856.64	0.92
1865.6	0.914
1874.56	0.906
1883.52	0.901
1892.48	0.901
1901.44	0.899
1910.4	0.888
1919.36	0.899
1928.32	0.899
1937.28	0.904
1946.24	0.899
1955.2	0.901
1964.16	0.899
1973.12	0.895
1982.08	0.895
1991.04	0.899
2000	0.914
2008.96	0.914
2017.92	0.909
2026.88	0.907
2035.84	0.906
2044.8	0.8997
2053.76	0.8921
2062.72	0.8929
2071.68	0.8921
2080.64	0.8891
2089.6	0.8811
2098.56	0.8733
2107.52	0.8661
2116.48	0.864
2125.44	0.864
2134.4	0.866
2143.36	0.8622
2152.32	0.859
2161.28	0.8608
2170.24	0.857
2179.2	0.8588
2188.16	0.855
2197.12	0.857
2206.08	0.848
2215.04	0.8403
2224	0.8393
2232.96	0.84
2241.92	0.8413
2250.88	0.838
2259.84	0.8343
2268.8	0.835
2277.76	0.833
2286.72	0.833
2295.68	0.835
2304.64	0.8314
2313.6	0.8296
2322.56	0.8358
2331.52	0.838
2340.48	0.8352
2349.44	0.838
2358.4	0.8352
2367.36	0.8277
2376.32	0.822
2385.28	0.8135
2394.24	0.8093
2403.2	0.7975
2412.16	0.79
2421.12	0.7818
2430.08	0.7919
2439.04	0.796
2448	0.796
2456.96	0.7958
2465.92	0.7902
2474.88	0.784
2483.84	0.7813
2492.8	0.7752
2501.76	0.7693
2510.72	0.769
2519.68	0.767
2528.64	0.765
2537.6	0.763
2546.56	0.76
2555.52	0.756
2564.48	0.7547
2573.44	0.7467
2582.4	0.7299
2591.36	0.725
2600.32	0.7179
2609.28	0.7118
2618.24	0.71
2627.2	0.7104
2636.16	0.7062
2645.12	0.7142
2654.08	0.715
2663.04	0.713
2672	0.7077
2680.96	0.6962
2689.92	0.6838
2698.88	0.6693
2707.84	0.6711
2716.8	0.678
2725.76	0.6799
2734.72	0.68
2743.68	0.6708
2752.64	0.6539
2761.6	0.638
2770.56	0.64
2779.52	0.644
2788.48	0.634
2797.44	0.626
2806.4	0.6135
2815.36	0.597
2824.32	0.6
2833.28	0.605
2842.24	0.6129
2851.2	0.6121
2860.16	0.6115
2869.12	0.6119
2878.08	0.607
2887.04	0.5881
2896	0.5684
2904.96	0.56
2913.92	0.5596
2922.88	0.5432
2931.84	0.538
2940.8	0.5293
2949.76	0.5208
2958.72	0.5218
2967.68	0.541
2976.64	0.5381
2985.6	0.5212
2994.56	0.5068
3003.52	0.515
3012.48	0.5121
3021.44	0.5157
3030.4	0.524
3039.36	0.5153
3048.32	0.5002
3057.28	0.4917
3066.24	0.4773
3075.2	0.469
3084.16	0.4567
3093.12	0.4467
3102.08	0.4424
3111.04	0.442
3120	0.4456
3128.96	0.449
3137.92	0.451
3146.88	0.4545
3155.84	0.4608
3164.8	0.4658
3173.76	0.478
3182.72	0.486
3191.68	0.4905
3200.64	0.5
3209.6	0.503
3218.56	0.5105
3227.52	0.5144
3236.48	0.5205
3245.44	0.526
3254.4	0.526
3263.36	0.524
3272.32	0.526
3281.28	0.527
3290.24	0.531
3299.2	0.531
3308.16	0.5306
3317.12	0.529
3326.08	0.5257
3335.04	0.52
3344	0.5145
3352.96	0.51
3361.92	0.5027
3370.88	0.4967
3379.84	0.4796
3388.8	0.4707
3397.76	0.4554
3406.72	0.436
3415.68	0.4172
3424.64	0.3886
3433.6	0.3604
3442.56	0.3462
3451.52	0.3572
3460.48	0.3578
3469.44	0.3355
3478.4	0.3102
3487.36	0.2765
3496.32	0.2624
3505.28	0.2774
3514.24	0.3046
3523.2	0.3487
3532.16	0.3976
3541.12	0.4548
3550.08	0.511
3559.04	0.5533
3568	0.5932
3576.96	0.616
3585.92	0.6315
3594.88	0.644
3603.84	0.659
3612.8	0.6799
3621.76	0.7104
3630.72	0.7299
3639.68	0.7424
3648.64	0.7479
3657.6	0.75
3666.56	0.7481
3675.52	0.746
3684.48	0.744
3693.44	0.7401
3702.4	0.7341
3711.36	0.7296
3720.32	0.7252
3729.28	0.7226
3738.24	0.718
3747.2	0.7142
3756.16	0.711
3765.12	0.71
3774.08	0.7062
3783.04	0.706
3792	0.704
