Infrared Spectrum: o-PHENYLPHENOL
Formula: C12 H10 O
CAS: 90-43-7
State: SOLUTION (10% IN CCl4 FOR 4000-1380 CM^-^1, 10% IN CS2 FOR 1380-600 CM^-^1)
Melting point: 287 C
Class: COBLENTZ III
Instrument: BECKMAN IR-7 (GRATING)
Instrument parameters: GRATING CHANGES AT 3000, 2200, 1150 CM^-^1
Sampling: TRANSMISSION
Path length: 0.010 CM, 0.010 CM
Resolution: 4
Origin: WESTERN REGIONAL RES. USDA
1/CM	TRANSMITTANCE
598.683	0.747
607.244	0.741
615.804	0.5801
624.365	0.649
632.926	0.716
641.486	0.714
650.047	0.694
658.608	0.673
667.169	0.691
675.729	0.682
684.29	0.688
692.851	0.548
701.411	0.1001
709.972	0.3949
718.533	0.355
727.093	0.38
735.654	0.3799
744.215	0.351
752.775	0
761.336	0.3759
769.897	0.171
778.458	0.643
787.018	0.698
795.579	0.721
804.14	0.73
812.7	0.729
821.261	0.708
829.822	0.331
838.382	0.631
846.943	0.629
855.504	0.554
864.064	0.617
872.625	0.659
881.186	0.694
889.746	0.725
898.307	0.749
906.868	0.756
915.429	0.695
923.989	0.71
932.55	0.7211
941.111	0.667
949.671	0.758
958.232	0.762
966.793	0.743
975.353	0.737
983.914	0.745
992.475	0.74
1001.04	0.722
1009.6	0.445
1018.16	0.7
1026.72	0.752
1035.28	0.646
1043.84	0.628
1052.4	0.691
1060.96	0.755
1069.52	0.706
1078.08	0.6739
1086.64	0.723
1095.2	0.696
1103.76	0.465
1112.32	0.647
1120.89	0.708
1129.45	0.694
1138.01	0.647
1146.57	0.517
1155.13	0.318
1163.69	0.435
1172.25	0.154
1180.81	0.047
1189.37	0.241
1197.93	0.387
1206.49	0.511
1215.05	0.401
1223.61	0.428
1232.17	0.116
1240.73	0.447
1249.3	0.553
1257.86	0.536
1266.42	0.395
1274.98	0.284
1283.54	0.317
1292.1	0.463
1300.66	0.617
1309.22	0.663
1317.78	0.646
1326.34	0.476
1334.9	0.198
1343.46	0.521
1352.02	0.646
1360.58	0.696
1369.15	0.723
1377.71	0.733
1386.27	0.75
1394.83	0.739
1403.39	0.727
1411.95	0.701
1420.51	0.66
1429.07	0.666
1437.63	0.21
1446.19	0.573
1454.75	0.634
1463.31	0.546
1471.87	0.509
1480.43	0.007
1488.99	0.345
1497.56	0.474
1506.12	0.3619
1514.68	0.55
1523.24	0.545
1531.8	0.513
1540.36	0.465
1548.92	0.406
1557.48	0.399
1566.04	0.434
1574.6	0.405
1583.16	0.247
1591.72	0.344
1600.28	0.462
1608.84	0.551
1617.41	0.503
1625.97	0.631
1634.53	0.706
1643.09	0.748
1651.65	0.756
1660.21	0.758
1668.77	0.758
1677.33	0.753
1685.89	0.736
1694.45	0.735
1703.01	0.752
1711.57	0.753
1720.13	0.747
1728.69	0.756
1737.25	0.76
1745.82	0.761
1754.38	0.757
1762.94	0.75
1771.5	0.742
1780.06	0.753
1788.62	0.745
1797.18	0.722
1805.74	0.745
1814.3	0.733
1822.86	0.728
1831.42	0.739
1839.98	0.754
1848.54	0.76
1857.1	0.761
1865.67	0.755
1874.23	0.743
1882.79	0.734
1891.35	0.716
1899.91	0.716
1908.47	0.698
1917.03	0.752
1925.59	0.762
1934.15	0.731
1942.71	0.733
1951.27	0.732
1959.83	0.725
1968.39	0.742
1976.95	0.753
1985.51	0.762
1994.08	0.76
2002.64	0.758
2011.2	0.758
2019.76	0.759
2028.32	0.758
2036.88	0.758
2045.44	0.757
2054	0.757
2062.56	0.758
2071.12	0.7603
2079.68	0.7616
2088.24	0.7637
2096.8	0.766
2105.36	0.7664
2113.93	0.768
2122.49	0.767
2131.05	0.766
2139.61	0.766
2148.17	0.766
2156.73	0.766
2165.29	0.765
2173.85	0.765
2182.41	0.766
2190.97	0.766
2199.53	0.768
2208.09	0.77
2216.65	0.777
2225.21	0.778
2233.77	0.7773
2242.34	0.777
2250.9	0.7747
2259.46	0.772
2268.02	0.7692
2276.58	0.7679
2285.14	0.7632
2293.7	0.7586
2302.26	0.756
2310.82	0.754
2319.38	0.754
2327.94	0.7577
2336.5	0.759
2345.06	0.76
2353.62	0.7637
2362.19	0.766
2370.75	0.7693
2379.31	0.772
2387.87	0.774
2396.43	0.776
2404.99	0.775
2413.55	0.774
2422.11	0.774
2430.67	0.7707
2439.23	0.7695
2447.79	0.7672
2456.35	0.766
2464.91	0.7674
2473.47	0.7707
2482.04	0.773
2490.6	0.773
2499.16	0.7709
2507.72	0.7682
2516.28	0.768
2524.84	0.7728
2533.4	0.7767
2541.96	0.779
2550.52	0.78
2559.08	0.781
2567.64	0.781
2576.2	0.782
2584.76	0.781
2593.32	0.7803
2601.88	0.779
2610.45	0.777
2619.01	0.7755
2627.57	0.774
2636.13	0.774
2644.69	0.774
2653.25	0.775
2661.81	0.776
2670.37	0.776
2678.93	0.777
2687.49	0.777
2696.05	0.778
2704.61	0.778
2713.17	0.778
2721.73	0.778
2730.3	0.778
2738.86	0.779
2747.42	0.779
2755.98	0.779
2764.54	0.779
2773.1	0.779
2781.66	0.78
2790.22	0.781
2798.78	0.781
2807.34	0.781
2815.9	0.781
2824.46	0.781
2833.02	0.779
2841.58	0.778
2850.14	0.776
2858.71	0.7745
2867.27	0.7722
2875.83	0.7699
2884.39	0.768
2892.95	0.7673
2901.51	0.7651
2910.07	0.7628
2918.63	0.7605
2927.19	0.76
2935.75	0.7601
2944.31	0.762
2952.87	0.7613
2961.43	0.76
2969.99	0.7578
2978.56	0.756
2987.12	0.7544
2995.68	0.7405
3004.24	0.7235
3012.8	0.7065
3021.36	0.6063
3029.92	0.5705
3038.48	0.5354
3047.04	0.5026
3055.6	0.571
3064.16	0.5597
3072.72	0.4757
3081.28	0.4785
3089.84	0.5764
3098.4	0.6618
3106.97	0.7017
3115.53	0.7284
3124.09	0.7465
3132.65	0.7579
3141.21	0.7649
3149.77	0.7672
3158.33	0.768
3166.89	0.768
3175.45	0.7701
3184.01	0.7724
3192.57	0.774
3201.13	0.774
3209.69	0.774
3218.25	0.7755
3226.82	0.776
3235.38	0.777
3243.94	0.7784
3252.5	0.779
3261.06	0.778
3269.62	0.777
3278.18	0.776
3286.74	0.774
3295.3	0.772
3303.86	0.7706
3312.42	0.7694
3320.98	0.768
3329.54	0.766
3338.1	0.7645
3346.66	0.7612
3355.23	0.7569
3363.79	0.7517
3372.35	0.7451
3380.91	0.7402
3389.47	0.7336
3398.03	0.7265
3406.59	0.7187
3415.15	0.7068
3423.71	0.693
3432.27	0.6763
3440.83	0.6623
3449.39	0.6504
3457.95	0.641
3466.51	0.637
3475.08	0.6381
3483.64	0.6423
3492.2	0.6506
3500.76	0.6511
3509.32	0.6386
3517.88	0.6107
3526.44	0.5847
3535	0.5565
3543.56	0.5236
3552.12	0.2028
3560.68	0.0827
3569.24	0.2215
3577.8	0.3728
3586.36	0.5564
3594.92	0.6501
3603.49	0.6257
3612.05	0.578
3620.61	0.6756
3629.17	0.7509
3637.73	0.7605
3646.29	0.762
3654.85	0.763
3663.41	0.764
3671.97	0.7656
3680.53	0.766
3689.09	0.7672
3697.65	0.768
3706.21	0.77
3714.77	0.773
3723.34	0.774
3731.9	0.774
3740.46	0.773
3749.02	0.772
3757.58	0.771
3766.14	0.77
3774.7	0.768
3783.26	0.768
3791.82	0.7674
3800.38	0.7661
3808.94	0.766
3817.5	0.766
3826.06	0.765
3834.62	0.764
3843.18	0.764
3851.75	0.763
3860.31	0.762
3868.87	0.7608
3877.43	0.76
3885.99	0.759
3894.55	0.758
3903.11	0.758
3911.67	0.757
3920.23	0.7561
3928.79	0.756
3937.35	0.756
3945.91	0.7553
3954.47	0.755
3963.03	0.754
3971.6	0.754
3980.16	0.754
