Infrared Spectrum: 2-AMINOBIPHENYL
Formula: C12 H11 N
CAS: 90-41-5
State: SOLID (MINERAL OIL MULL)
Melting point: 50-52 C
Class: COBLENTZ
Instrument: Not specified, most likely a prism, grating, or hybrid spectrometer.
Sampling: TRANSMISSION
Resolution: 4
Origin: WYANDOTTE CHEMICALS CORP., WYANDOTTE, MICHIGAN, USA
MICROMETERS	TRANSMITTANCE
2.019	0.372
2.05615	0.371
2.0933	0.371
2.13045	0.371
2.1676	0.374
2.20475	0.375
2.2419	0.378
2.27904	0.377
2.31619	0.381
2.35334	0.377
2.39049	0.378
2.42764	0.372
2.46479	0.374
2.50194	0.377
2.53909	0.391
2.57624	0.391
2.61339	0.395
2.65054	0.402
2.68769	0.388
2.72484	0.395
2.76199	0.395
2.79913	0.388
2.83628	0.282
2.87343	0.25
2.91058	0.279
2.94773	0.231
2.98488	0.263
3.02203	0.343
3.05918	0.352
3.09633	0.346
3.13348	0.336
3.17063	0.35
3.20778	0.319
3.24493	0.243
3.28208	0.197
3.31922	0.096
3.35637	0.032
3.39352	0.038
3.43067	0.072
3.46782	0.082
3.50497	0.257
3.54212	0.465
3.57927	0.509
3.61642	0.509
3.65357	0.503
3.69072	0.5
3.72787	0.492
3.76502	0.496
3.80216	0.492
3.83931	0.501
3.87646	0.521
3.91361	0.524
3.95076	0.531
3.98791	0.534
4.02506	0.551
4.06221	0.551
4.09936	0.548
4.13651	0.541
4.17366	0.554
4.21081	0.559
4.24796	0.543
4.28511	0.559
4.32225	0.568
4.3594	0.588
4.39655	0.58
4.4337	0.582
4.47085	0.585
4.508	0.582
4.54515	0.591
4.5823	0.59
4.61945	0.597
4.6566	0.607
4.69375	0.613
4.7309	0.619
4.76805	0.621
4.8052	0.633
4.84234	0.638
4.87949	0.636
4.91664	0.647
4.95379	0.65
4.99094	0.655
5.02809	0.661
5.06524	0.655
5.10239	0.641
5.13954	0.624
5.17669	0.625
5.21384	0.649
5.25099	0.644
5.28814	0.618
5.32528	0.633
5.36243	0.658
5.39958	0.687
5.43673	0.687
5.47388	0.67
5.51103	0.678
5.54818	0.683
5.58533	0.698
5.62248	0.689
5.65963	0.706
5.69678	0.717
5.73393	0.723
5.77108	0.748
5.80823	0.74
5.84537	0.718
5.88252	0.737
5.91967	0.74
5.95682	0.753
5.99397	0.768
6.03112	0.767
6.06827	0.653
6.10542	0.309
6.14257	0.111
6.17972	0.178
6.21687	0.299
6.25402	0.305
6.29117	0.349
6.32832	0.399
6.36546	0.465
6.40261	0.52
6.43976	0.571
6.47691	0.618
6.51406	0.636
6.55121	0.68
6.58836	0.5
6.62551	0.304
6.66266	0.35
6.69981	0.082
6.73696	0.116
6.77411	0.124
6.81126	0.1
6.84841	0.189
6.88555	0.291
6.9227	0.172
6.95985	0.349
6.997	0.453
7.03415	0.518
7.0713	0.535
7.10845	0.545
7.1456	0.526
7.18275	0.433
7.2199	0.319
7.25705	0.433
7.2942	0.49
7.33135	0.619
7.36849	0.649
7.40564	0.663
7.44279	0.683
7.47994	0.698
7.51709	0.698
7.55424	0.524
7.59139	0.448
7.62854	0.501
7.66569	0.295
7.70284	0.319
7.73999	0.305
7.77714	0.302
7.81429	0.391
7.85144	0.453
7.88858	0.529
7.92573	0.568
7.96288	0.552
8.00003	0.501
8.03718	0.568
8.07433	0.614
8.11148	0.638
8.14863	0.638
8.18578	0.655
8.22293	0.658
8.26008	0.661
8.29723	0.687
8.33438	0.694
8.37153	0.698
8.40867	0.703
8.44582	0.704
8.48297	0.708
8.52012	0.729
8.55727	0.715
8.59442	0.36
8.63157	0.364
8.66872	0.548
8.70587	0.498
8.74302	0.489
8.78017	0.596
8.81732	0.658
8.85447	0.684
8.89161	0.698
8.92876	0.712
8.96591	0.728
9.00306	0.739
9.04021	0.757
9.07736	0.751
9.11451	0.756
9.15166	0.76
9.18881	0.757
9.22596	0.748
9.26311	0.599
9.30026	0.47
9.33741	0.597
9.37456	0.658
9.4117	0.658
9.44885	0.649
9.486	0.656
9.52315	0.613
9.5603	0.585
9.59745	0.661
9.6346	0.725
9.67175	0.746
9.7089	0.697
9.74605	0.74
9.7832	0.781
9.82035	0.795
9.8575	0.742
9.89465	0.341
9.93179	0.607
9.96894	0.726
10.0061	0.745
10.0432	0.689
10.0804	0.722
10.1175	0.771
10.1547	0.79
10.1918	0.801
10.229	0.785
10.2661	0.779
10.3033	0.779
10.3404	0.791
10.3776	0.812
10.4147	0.815
10.4519	0.818
10.489	0.821
10.5262	0.832
10.5633	0.847
10.6005	0.838
10.6376	0.804
10.6748	0.759
10.7119	0.728
10.7491	0.734
10.7862	0.798
10.8234	0.807
10.8605	0.722
10.8977	0.673
10.9348	0.715
10.972	0.812
11.0091	0.854
11.0463	0.877
11.0834	0.897
11.1206	0.903
11.1577	0.916
11.1949	0.903
11.232	0.906
11.2692	0.908
11.3063	0.913
11.3435	0.919
11.3806	0.914
11.4178	0.919
11.4549	0.923
11.4921	0.931
11.5292	0.911
11.5664	0.908
11.6035	0.909
11.6407	0.903
11.6778	0.899
11.715	0.874
11.7521	0.855
11.7893	0.866
11.8264	0.903
11.8636	0.928
11.9007	0.947
11.9379	0.925
11.975	0.86
12.0122	0.776
12.0493	0.767
12.0865	0.816
12.1236	0.855
12.1608	0.875
12.1979	0.908
12.235	0.909
12.2722	0.911
12.3093	0.923
12.3465	0.92
12.3836	0.937
12.4208	0.939
12.4579	0.939
12.4951	0.94
12.5322	0.944
12.5694	0.947
12.6065	0.937
12.6437	0.94
12.6808	0.937
12.718	0.931
12.7551	0.899
12.7923	0.832
12.8294	0.69
12.8666	0.545
12.9037	0.433
12.9409	0.336
12.978	0.322
13.0152	0.368
13.0523	0.35
13.0895	0.285
13.1266	0.215
13.1638	0.178
13.2009	0.15
13.2381	0.141
13.2752	0.138
13.3124	0.136
13.3495	0.145
13.3867	0.175
13.4238	0.239
13.461	0.29
13.4981	0.318
13.5353	0.298
13.5724	0.257
13.6096	0.262
13.6467	0.321
13.6839	0.431
13.721	0.504
13.7582	0.588
13.7953	0.624
13.8325	0.628
13.8696	0.548
13.9068	0.513
13.9439	0.574
13.9811	0.605
14.0182	0.61
14.0554	0.538
14.0925	0.413
14.1297	0.296
14.1668	0.209
14.204	0.169
14.2411	0.145
14.2783	0.172
14.3154	0.236
14.3526	0.326
14.3897	0.405
14.4269	0.473
14.464	0.509
14.5012	0.54
14.5383	0.559
14.5755	0.563
14.6126	0.568
14.6498	0.572
14.6869	0.58
14.7241	0.579
14.7612	0.58
14.7983	0.579
14.8355	0.577
14.8726	0.572
14.9098	0.568
14.9469	0.56
14.9841	0.549
15.0212	0.523
15.0584	0.495
15.0955	0.475
15.1327	0.487
15.1698	0.504
15.207	0.532
15.2441	0.534
15.2813	0.54
15.3184	0.541
15.3556	0.543
15.3927	0.545
15.4299	0.538
15.467	0.54
15.5042	0.537
15.5413	0.529
15.5785	0.532
15.6156	0.527
15.6528	0.517
15.6899	0.513
15.7271	0.52
15.7642	0.509
15.8014	0.507
15.8385	0.493
15.8757	0.503
15.9128	0.489
15.95	0.487
15.9871	0.479
