Infrared Spectrum: 3,5-DIBROMOSALICYLALDEHYDE
Formula: C7 H4 Br2 O2
CAS: 90-59-5
State: SOLUTION (10% IN CCl4 FOR 5000-1350 CM^-^1, 10% IN CS2 FOR 1350-625 CM^-^1)
Class: COBLENTZ
Instrument: Not specified, most likely a prism, grating, or hybrid spectrometer.
Sampling: TRANSMISSION
Path length: 0.01 CM, 0.01 CM
Resolution: 4
Origin: DOW CHEMICAL COMPANY
MICROMETERS	TRANSMITTANCE
2.041	0.901
2.08014	0.899
2.11927	0.898
2.15841	0.893
2.19755	0.893
2.23668	0.896
2.27582	0.899
2.31496	0.901
2.35409	0.901
2.39323	0.902
2.43236	0.901
2.4715	0.899
2.51064	0.902
2.54977	0.904
2.58891	0.904
2.62805	0.904
2.66718	0.904
2.70632	0.901
2.74546	0.891
2.78459	0.88
2.82373	0.867
2.86287	0.854
2.902	0.834
2.94114	0.812
2.98028	0.776
3.01941	0.76
3.05855	0.741
3.09768	0.707
3.13682	0.666
3.17596	0.66
3.21509	0.645
3.25423	0.692
3.29337	0.766
3.3325	0.778
3.37164	0.828
3.41078	0.802
3.44991	0.702
3.48905	0.618
3.52819	0.826
3.56732	0.841
3.60646	0.828
3.6456	0.841
3.68473	0.878
3.72387	0.886
3.76301	0.893
3.80214	0.888
3.84128	0.88
3.88041	0.881
3.91955	0.901
3.95869	0.901
3.99782	0.904
4.03696	0.909
4.0761	0.909
4.11523	0.911
4.15437	0.912
4.19351	0.906
4.23264	0.901
4.27178	0.893
4.31092	0.889
4.35005	0.899
4.38919	0.909
4.42833	0.917
4.46746	0.922
4.5066	0.922
4.54573	0.925
4.58487	0.925
4.62401	0.927
4.66314	0.922
4.70228	0.915
4.74142	0.911
4.78055	0.919
4.81969	0.919
4.85883	0.927
4.89796	0.923
4.9371	0.919
4.97624	0.911
5.01537	0.92
5.05451	0.919
5.09365	0.917
5.13278	0.922
5.17192	0.922
5.21105	0.92
5.25019	0.909
5.28933	0.911
5.32846	0.912
5.3676	0.912
5.40674	0.885
5.44587	0.909
5.48501	0.915
5.52415	0.906
5.56328	0.88
5.60242	0.877
5.64156	0.859
5.68069	0.846
5.71983	0.802
5.75897	0.823
5.7981	0.818
5.83724	0.826
5.87637	0.786
5.91551	0.647
5.95465	0.325
5.99378	0.067
6.03292	0.449
6.07206	0.674
6.11119	0.702
6.15033	0.71
6.18947	0.588
6.2286	0.524
6.26774	0.567
6.30688	0.563
6.34601	0.524
6.38515	0.454
6.42429	0.42
6.46342	0.467
6.50256	0.574
6.5417	0.621
6.58083	0.661
6.61997	0.702
6.6591	0.708
6.69824	0.671
6.73738	0.639
6.77651	0.616
6.81565	0.385
6.85479	0.213
6.89392	0.14
6.93306	0.179
6.9722	0.195
7.01133	0.131
7.05047	0.194
7.08961	0.475
7.12874	0.658
7.16788	0.76
7.20702	0.739
7.24615	0.621
7.28529	0.474
7.32442	0.543
7.36356	0.579
7.4027	0.658
7.44183	0.561
7.48097	0.5
7.52011	0.495
7.55924	0.658
7.59838	0.731
7.63752	0.687
7.67665	0.571
7.71579	0.32
7.75493	0.059
7.79406	0.132
7.8332	0.425
7.87234	0.579
7.91147	0.621
7.95061	0.728
7.98974	0.674
8.02888	0.597
8.06802	0.634
8.10715	0.752
8.14629	0.69
8.18543	0.629
8.22456	0.548
8.2637	0.412
8.30284	0.127
8.34197	0.294
8.38111	0.58
8.42025	0.605
8.45938	0.559
8.49852	0.545
8.53766	0.519
8.57679	0.334
8.61593	0.153
8.65507	0.119
8.6942	0.325
8.73334	0.605
8.77247	0.754
8.81161	0.771
8.85075	0.773
8.88988	0.794
8.92902	0.818
8.96816	0.857
9.00729	0.872
9.04643	0.878
9.08557	0.865
9.1247	0.828
9.16384	0.851
9.20298	0.878
9.24211	0.878
9.28125	0.86
9.32039	0.81
9.35952	0.859
9.39866	0.898
9.43779	0.907
9.47693	0.909
9.51607	0.911
9.5552	0.906
9.59434	0.904
9.63348	0.907
9.67261	0.906
9.71175	0.899
9.75089	0.898
9.79002	0.901
9.82916	0.901
9.8683	0.894
9.90743	0.878
9.94657	0.868
9.98571	0.867
10.0248	0.822
10.064	0.755
10.1031	0.733
10.1423	0.788
10.1814	0.82
10.2205	0.818
10.2597	0.771
10.2988	0.681
10.3379	0.585
10.3771	0.588
10.4162	0.711
10.4553	0.731
10.4945	0.8
10.5336	0.859
10.5728	0.88
10.6119	0.894
10.651	0.898
10.6902	0.899
10.7293	0.898
10.7684	0.881
10.8076	0.826
10.8467	0.674
10.8858	0.524
10.925	0.749
10.9641	0.82
11.0033	0.831
11.0424	0.833
11.0815	0.83
11.1207	0.783
11.1598	0.749
11.1989	0.778
11.2381	0.797
11.2772	0.781
11.3163	0.749
11.3555	0.708
11.3946	0.648
11.4338	0.496
11.4729	0.292
11.512	0.241
11.5512	0.48
11.5903	0.598
11.6294	0.665
11.6686	0.689
11.7077	0.708
11.7468	0.739
11.786	0.768
11.8251	0.8
11.8643	0.823
11.9034	0.838
11.9425	0.841
11.9817	0.834
12.0208	0.776
12.0599	0.734
12.0991	0.789
12.1382	0.839
12.1773	0.839
12.2165	0.82
12.2556	0.831
12.2948	0.851
12.3339	0.859
12.373	0.86
12.4122	0.862
12.4513	0.862
12.4904	0.86
12.5296	0.851
12.5687	0.847
12.6078	0.831
12.647	0.81
12.6861	0.771
12.7253	0.757
12.7644	0.768
12.8035	0.786
12.8427	0.796
12.8818	0.796
12.9209	0.784
12.9601	0.771
12.9992	0.758
13.0384	0.739
13.0775	0.718
13.1166	0.689
13.1558	0.661
13.1949	0.627
13.234	0.58
13.2732	0.533
13.3123	0.488
13.3514	0.43
13.3906	0.368
13.4297	0.313
13.4689	0.245
13.508	0.186
13.5471	0.132
13.5863	0.111
13.6254	0.189
13.6645	0.365
13.7037	0.398
13.7428	0.364
13.7819	0.328
13.8211	0.31
13.8602	0.304
13.8994	0.299
13.9385	0.279
13.9776	0.231
14.0168	0.158
14.0559	0.11
14.095	0.184
14.1342	0.322
14.1733	0.404
14.2124	0.444
14.2516	0.459
14.2907	0.461
14.3299	0.444
14.369	0.411
14.4081	0.364
14.4473	0.331
14.4864	0.299
14.5255	0.288
14.5647	0.286
14.6038	0.276
14.6429	0.252
14.6821	0.211
14.7212	0.169
14.7604	0.142
14.7995	0.155
14.8386	0.21
14.8778	0.268
14.9169	0.318
14.956	0.388
14.9952	0.419
15.0343	0.43
15.0734	0.43
15.1126	0.432
15.1517	0.435
15.1909	0.438
15.23	0.444
15.2691	0.446
15.3083	0.446
15.3474	0.446
15.3865	0.444
15.4257	0.44
15.4648	0.436
15.5039	0.432
15.5431	0.428
15.5822	0.425
15.6214	0.422
15.6605	0.417
15.6996	0.411
15.7388	0.406
15.7779	0.401
15.817	0.393
15.8562	0.391
