Infrared Spectrum: HYDRATROPIC ALDEHYDE, DIMETHYL ACETAL
Formula: C11 H16 O2
CAS: 90-87-9
State: LIQUID
Class: COBLENTZ
Instrument: Not specified, most likely a prism, grating, or hybrid spectrometer.
Sampling: TRANSMISSION
Path length: 0.0025 CM
Resolution: 4
Origin: INFRACORD
MICROMETERS	TRANSMITTANCE
2.529	0.906
2.56438	0.907
2.59976	0.907
2.63514	0.907
2.67052	0.907
2.7059	0.892
2.74128	0.881
2.77666	0.878
2.81204	0.864
2.84742	0.851
2.8828	0.849
2.91818	0.849
2.95356	0.851
2.98894	0.858
3.02432	0.865
3.0597	0.866
3.09508	0.867
3.13046	0.867
3.16584	0.866
3.20122	0.835
3.2366	0.716
3.27198	0.6
3.30736	0.497
3.34274	0.351
3.37812	0.224
3.4135	0.196
3.44888	0.25
3.48426	0.397
3.51964	0.483
3.55502	0.465
3.5904	0.76
3.62578	0.841
3.66116	0.848
3.69654	0.851
3.73192	0.852
3.7673	0.852
3.80268	0.851
3.83806	0.852
3.87344	0.861
3.90882	0.874
3.9442	0.884
3.97958	0.888
4.01496	0.892
4.05034	0.893
4.08573	0.893
4.12111	0.894
4.15649	0.895
4.19187	0.895
4.22725	0.895
4.26263	0.895
4.29801	0.895
4.33339	0.895
4.36877	0.895
4.40415	0.898
4.43953	0.899
4.47491	0.903
4.51029	0.905
4.54567	0.906
4.58105	0.907
4.61643	0.907
4.65181	0.906
4.68719	0.901
4.72257	0.898
4.75795	0.898
4.79333	0.898
4.82871	0.894
4.86409	0.885
4.89947	0.882
4.93485	0.882
4.97023	0.882
5.00561	0.887
5.04099	0.888
5.07637	0.888
5.11175	0.887
5.14713	0.878
5.18251	0.878
5.21789	0.893
5.25327	0.906
5.28865	0.907
5.32403	0.901
5.35941	0.892
5.39479	0.895
5.43017	0.91
5.46555	0.912
5.50093	0.913
5.53631	0.904
5.57169	0.898
5.60707	0.9
5.64245	0.904
5.67783	0.905
5.71321	0.899
5.74859	0.882
5.78397	0.88
5.81935	0.874
5.85473	0.875
5.89011	0.886
5.92549	0.877
5.96087	0.84
5.99625	0.847
6.03163	0.858
6.06701	0.862
6.10239	0.864
6.13777	0.873
6.17315	0.875
6.20853	0.869
6.24391	0.756
6.27929	0.703
6.31467	0.803
6.35005	0.829
6.38543	0.871
6.42081	0.885
6.45619	0.886
6.49157	0.886
6.52695	0.886
6.56233	0.886
6.59771	0.885
6.63309	0.869
6.66847	0.774
6.70385	0.508
6.73923	0.471
6.77461	0.666
6.80999	0.637
6.84537	0.463
6.88075	0.38
6.91613	0.236
6.95151	0.303
6.98689	0.495
7.02227	0.711
7.05765	0.793
7.09303	0.814
7.12841	0.817
7.16379	0.816
7.19917	0.764
7.23456	0.612
7.26994	0.427
7.30532	0.468
7.3407	0.526
7.37608	0.533
7.41146	0.549
7.44684	0.664
7.48222	0.685
7.5176	0.698
7.55298	0.782
7.58836	0.793
7.62374	0.795
7.65912	0.793
7.6945	0.781
7.72988	0.781
7.76526	0.781
7.80064	0.781
7.83602	0.781
7.8714	0.777
7.90678	0.763
7.94216	0.725
7.97754	0.755
8.01292	0.784
8.0483	0.793
8.08368	0.793
8.11906	0.783
8.15444	0.734
8.18982	0.634
8.2252	0.52
8.26058	0.439
8.29596	0.426
8.33134	0.414
8.36672	0.332
8.4021	0.303
8.43748	0.275
8.47286	0.32
8.50824	0.492
8.54362	0.57
8.579	0.581
8.61438	0.544
8.64976	0.446
8.68514	0.342
8.72052	0.243
8.7559	0.176
8.79128	0.132
8.82666	0.092
8.86204	0.094
8.89742	0.212
8.9328	0.245
8.96818	0.176
9.00356	0.106
9.03894	0.093
9.07432	0.052
9.1097	0.05
9.14508	0.05
9.18046	0.056
9.21584	0.056
9.25122	0.049
9.2866	0.044
9.32198	0.034
9.35736	0.029
9.39274	0.027
9.42812	0.027
9.4635	0.029
9.49888	0.047
9.53426	0.081
9.56964	0.115
9.60502	0.245
9.6404	0.382
9.67578	0.416
9.71116	0.481
9.74654	0.524
9.78192	0.495
9.8173	0.419
9.85268	0.458
9.88806	0.605
9.92344	0.677
9.95882	0.686
9.9942	0.676
10.0296	0.67
10.065	0.666
10.1003	0.602
10.1357	0.518
10.1711	0.436
10.2065	0.362
10.2419	0.317
10.2772	0.291
10.3126	0.261
10.348	0.249
10.3834	0.249
10.4188	0.333
10.4541	0.404
10.4895	0.418
10.5249	0.384
10.5603	0.359
10.5957	0.349
10.631	0.343
10.6664	0.349
10.7018	0.423
10.7372	0.526
10.7726	0.617
10.8079	0.68
10.8433	0.705
10.8787	0.713
10.9141	0.715
10.9495	0.687
10.9848	0.66
11.0202	0.659
11.0556	0.669
11.091	0.682
11.1264	0.697
11.1617	0.708
11.1971	0.71
11.2325	0.71
11.2679	0.708
11.3033	0.708
11.3386	0.728
11.374	0.776
11.4094	0.809
11.4448	0.834
11.4802	0.845
11.5155	0.851
11.5509	0.853
11.5863	0.862
11.6217	0.871
11.6571	0.877
11.6924	0.88
11.7278	0.88
11.7632	0.88
11.7986	0.88
11.834	0.88
11.8693	0.877
11.9047	0.874
11.9401	0.874
11.9755	0.877
12.0109	0.88
12.0463	0.881
12.0816	0.886
12.117	0.888
12.1524	0.89
12.1878	0.89
12.2232	0.89
12.2585	0.89
12.2939	0.89
12.3293	0.89
12.3647	0.89
12.4001	0.89
12.4354	0.89
12.4708	0.886
12.5062	0.877
12.5416	0.868
12.577	0.859
12.6123	0.851
12.6477	0.84
12.6831	0.832
12.7185	0.821
12.7539	0.804
12.7892	0.796
12.8246	0.79
12.86	0.752
12.8954	0.708
12.9308	0.635
12.9661	0.567
13.0015	0.458
13.0369	0.352
13.0723	0.254
13.1077	0.199
13.143	0.185
13.1784	0.242
13.2138	0.391
13.2492	0.535
13.2846	0.634
13.3199	0.706
13.3553	0.751
13.3907	0.775
13.4261	0.793
13.4615	0.8
13.4968	0.808
13.5322	0.813
13.5676	0.816
13.603	0.816
13.6384	0.817
13.6737	0.817
13.7091	0.817
13.7445	0.817
13.7799	0.817
13.8153	0.812
13.8506	0.8
13.886	0.787
13.9214	0.765
13.9568	0.739
13.9922	0.705
14.0275	0.641
14.0629	0.562
14.0983	0.46
14.1337	0.345
14.1691	0.216
14.2044	0.105
14.2398	0.057
14.2752	0.034
14.3106	0.033
14.346	0.088
14.3813	0.231
14.4167	0.36
14.4521	0.46
14.4875	0.529
14.5229	0.596
14.5582	0.63
14.5936	0.654
14.629	0.678
14.6644	0.684
14.6998	0.691
14.7351	0.695
14.7705	0.696
14.8059	0.697
14.8413	0.698
14.8767	0.698
14.912	0.698
14.9474	0.697
14.9828	0.693
