Infrared Spectrum: Methanol, bis-(p-chlorophenyl)-
Formula: C13 H10 Cl2 O
CAS: 90-97-1
State: SOLID (1.2 mg / 300 mg KBr DISC)
Class: COBLENTZ II
Instrument: PERKIN-ELMER 180 (GRATING)
Instrument parameters: GRATINGS: 2000, 1000, 500, 250 CM^-^1; FILTER CHANGE: 2970, 2000, 1485, 1000, 743, 500, 372, 250, 186 CM^-^1.
Sampling: TRANSMISSION
Resolution: 2
Origin: K. K. DEB-NCI FREDERICK CANCER RESEARCH CENTER
1/CM	TRANSMITTANCE
349	0.816
358	0.8243
367	0.8532
376	0.8576
385	0.8622
394	0.8617
403	0.84
412	0.8609
421	0.871
430	0.8708
439	0.8198
448	0.8091
457	0.8593
466	0.8607
475	0.8557
484	0.8396
493	0.5894
502	0.6771
511	0.7428
520	0.2856
529	0.7975
538	0.8037
547	0.7119
556	0.4683
565	0.8103
574	0.8431
583	0.8401
592	0.8284
601	0.8084
610	0.7844
619	0.7502
628	0.6786
637	0.73
646	0.6956
655	0.6852
664	0.7315
673	0.7858
682	0.7769
691	0.7497
700	0.7994
709	0.788
718	0.7769
727	0.7575
736	0.7102
745	0.8473
754	0.8537
763	0.8517
772	0.8436
781	0.7893
790	0.5482
799	0.2003
808	0.3145
817	0.2305
826	0.4771
835	0.6087
844	0.8172
853	0.7209
862	0.7347
871	0.8277
880	0.8689
889	0.8756
898	0.8763
907	0.8758
916	0.8764
925	0.8755
934	0.8714
943	0.8031
952	0.8551
961	0.8523
970	0.8494
979	0.8463
988	0.8349
997	0.8066
1006	0.6666
1015	0.0851
1024	0.6985
1033	0.4106
1042	0.2238
1051	0.5259
1060	0.7406
1069	0.7593
1078	0.7494
1087	0.2649
1096	0.3471
1105	0.7011
1114	0.6782
1123	0.7902
1132	0.8406
1141	0.8423
1150	0.8353
1159	0.8321
1168	0.8171
1177	0.7206
1186	0.6384
1195	0.5785
1204	0.7615
1213	0.7896
1222	0.7782
1231	0.7852
1240	0.7561
1249	0.7463
1258	0.813
1267	0.7825
1276	0.7413
1285	0.7982
1294	0.6545
1303	0.8346
1312	0.7619
1321	0.742
1330	0.6908
1339	0.7621
1348	0.8024
1357	0.796
1366	0.796
1375	0.7968
1384	0.7398
1393	0.6319
1402	0.4546
1411	0.4163
1420	0.7134
1429	0.7092
1438	0.7461
1447	0.7589
1456	0.764
1465	0.7534
1474	0.6874
1483	0.3991
1492	0.1438
1501	0.619
1510	0.8017
1519	0.8588
1528	0.8735
1537	0.8762
1546	0.8835
1555	0.8833
1564	0.8778
1573	0.8564
1582	0.756
1591	0.7291
1600	0.6767
1609	0.821
1618	0.8456
1627	0.8455
1636	0.8361
1645	0.8311
1654	0.8504
1663	0.8683
1672	0.8715
1681	0.8605
1690	0.8435
1699	0.8532
1708	0.8631
1717	0.8645
1726	0.8684
1735	0.8715
1744	0.8734
1753	0.8757
1762	0.8735
1771	0.8748
1780	0.8686
1789	0.8536
1798	0.8705
1807	0.8833
1816	0.8874
1825	0.8861
1834	0.8873
1843	0.8862
1852	0.8842
1861	0.8821
1870	0.8793
1879	0.8747
1888	0.8643
1897	0.8395
1906	0.7628
1915	0.8282
1924	0.8439
1933	0.8769
1942	0.8817
1951	0.8829
1960	0.8847
1969	0.886
1978	0.8863
1987	0.886
1996	0.8857
2005	0.8851
2014	0.8848
2023	0.8842
2032	0.8835
2041	0.8827
2050	0.8819
2059	0.8811
2068	0.8806
2077	0.8804
2086	0.881
2095	0.8818
2104	0.8838
2113	0.8846
2122	0.8846
2131	0.8842
2140	0.8838
2149	0.8833
2158	0.8827
2167	0.8821
2176	0.8815
2185	0.881
2194	0.8807
2203	0.8803
2212	0.8799
2221	0.8795
2230	0.8787
2239	0.8775
2248	0.8765
2257	0.875
2266	0.8723
2275	0.8695
2284	0.8664
2293	0.8661
2302	0.8696
2311	0.8723
2320	0.8747
2329	0.8754
2338	0.8759
2347	0.8752
2356	0.8746
2365	0.8737
2374	0.8727
2383	0.8716
2392	0.8705
2401	0.8693
2410	0.868
2419	0.8666
2428	0.8653
2437	0.8639
2446	0.8623
2455	0.8607
2464	0.859
2473	0.8574
2482	0.8558
2491	0.8541
2500	0.8526
2509	0.851
2518	0.8495
2527	0.8479
2536	0.846
2545	0.8438
2554	0.8416
2563	0.8394
2572	0.8372
2581	0.8352
2590	0.8333
2599	0.8314
2608	0.8295
2617	0.8276
2626	0.8257
2635	0.8238
2644	0.822
2653	0.8201
2662	0.8186
2671	0.8174
2680	0.8188
2689	0.8209
2698	0.8235
2707	0.8245
2716	0.8236
2725	0.8219
2734	0.8203
2743	0.8185
2752	0.8167
2761	0.8147
2770	0.8127
2779	0.8129
2788	0.8143
2797	0.8122
2806	0.8059
2815	0.7998
2824	0.7935
2833	0.785
2842	0.7752
2851	0.7654
2860	0.76
2869	0.7626
2878	0.761
2887	0.7485
2896	0.7232
2905	0.7051
2914	0.7247
2923	0.7453
2932	0.7602
2941	0.7742
2950	0.7777
2959	0.7786
2968	0.7794
2977	0.7802
2986	0.7814
2995	0.7813
3004	0.7793
3013	0.7711
3022	0.7555
3031	0.7476
3040	0.7609
3049	0.7548
3058	0.7427
3067	0.7151
3076	0.7351
3085	0.7399
3094	0.7371
3103	0.7389
3112	0.7419
3121	0.7336
3130	0.724
3139	0.7142
3148	0.7045
3157	0.695
3166	0.6847
3175	0.674
3184	0.6619
3193	0.644
3202	0.624
3211	0.5972
3220	0.5579
3229	0.5225
3238	0.4871
3247	0.4515
3256	0.4109
3265	0.3861
3274	0.3581
3283	0.3359
3292	0.32
3301	0.3079
3310	0.296
3319	0.2848
3328	0.2741
3337	0.2636
3346	0.2541
3355	0.2469
3364	0.2467
3373	0.2581
3382	0.2806
3391	0.3207
3400	0.3608
3409	0.3914
3418	0.4241
3427	0.4656
3436	0.52
3445	0.5525
3454	0.6012
3463	0.6351
3472	0.6632
3481	0.6884
3490	0.7067
3499	0.7219
3508	0.7336
3517	0.7434
3526	0.7508
3535	0.758
3544	0.7628
3553	0.7676
3562	0.7724
3571	0.7762
3580	0.7798
3589	0.7834
3598	0.7868
3607	0.7901
3616	0.7935
3625	0.7964
3634	0.799
3643	0.8006
3652	0.8012
3661	0.7997
3670	0.7972
3679	0.7942
3688	0.7925
3697	0.7926
3706	0.7948
3715	0.7937
3724	0.7929
3733	0.7936
3742	0.7946
3751	0.7942
3760	0.7939
3769	0.7937
3778	0.7935
3787	0.7929
3796	0.7921
