Infrared Spectrum: BENZOPHENONE, 4,4'-DIMETHOXY-
Formula: C15 H14 O3
CAS: 90-96-0
State: SOLID (0.6 mg / 300 mg KBr DISC)
Class: COBLENTZ II
Instrument: PERKIN-ELMER 180 (GRATING)
Instrument parameters: GRATINGS: 2000, 1000, 500, 250 CM^-^1; FILTER CHANGE: 2970, 2000, 1485, 1000, 743, 500, 372, 250, 186 CM^-^1.
Sampling: TRANSMISSION
Resolution: 2
Origin: K. K. DEB-NCI FREDERICK CANCER RESEARCH CENTER
1/CM	TRANSMITTANCE
331	0.7988
340	0.8247
349	0.8413
358	0.8535
367	0.8677
376	0.8637
385	0.8811
394	0.8855
403	0.8843
412	0.88
421	0.8748
430	0.8956
439	0.8964
448	0.8968
457	0.8968
466	0.8974
475	0.9003
484	0.8928
493	0.8962
502	0.8793
511	0.8011
520	0.8205
529	0.8919
538	0.8945
547	0.8915
556	0.8852
565	0.8636
574	0.8307
583	0.5445
592	0.7903
601	0.7935
610	0.8757
619	0.8833
628	0.8138
637	0.8886
646	0.8859
655	0.8305
664	0.893
673	0.8902
682	0.8112
691	0.7203
700	0.8923
709	0.9025
718	0.8994
727	0.8905
736	0.8885
745	0.8955
754	0.8911
763	0.8255
772	0.4145
781	0.8725
790	0.8876
799	0.8934
808	0.731
817	0.8249
826	0.8155
835	0.6961
844	0.6586
853	0.2823
862	0.8365
871	0.8822
880	0.8872
889	0.8885
898	0.8872
907	0.8809
916	0.868
925	0.8113
934	0.4326
943	0.8543
952	0.7463
961	0.8354
970	0.7825
979	0.8628
988	0.8757
997	0.8632
1006	0.8304
1015	0.7356
1024	0.3324
1033	0.588
1042	0.831
1051	0.8612
1060	0.8627
1069	0.8608
1078	0.858
1087	0.8542
1096	0.8434
1105	0.8052
1114	0.7456
1123	0.7533
1132	0.8157
1141	0.7737
1150	0.5398
1159	0.5959
1168	0.2721
1177	0.5461
1186	0.6746
1195	0.8142
1204	0.8195
1213	0.809
1222	0.7741
1231	0.6944
1240	0.547
1249	0.2089
1258	0.1221
1267	0.4233
1276	0.6913
1285	0.635
1294	0.5849
1303	0.5785
1312	0.4775
1321	0.2498
1330	0.6085
1339	0.7165
1348	0.815
1357	0.8459
1366	0.8521
1375	0.8411
1384	0.7428
1393	0.8488
1402	0.8585
1411	0.8048
1420	0.7357
1429	0.8563
1438	0.8379
1447	0.7207
1456	0.6437
1465	0.6436
1474	0.7776
1483	0.8378
1492	0.8244
1501	0.6552
1510	0.4874
1519	0.7493
1528	0.8508
1537	0.8578
1546	0.8474
1555	0.8252
1564	0.8076
1573	0.7004
1582	0.6091
1591	0.4502
1600	0.1845
1609	0.2484
1618	0.6243
1627	0.6714
1636	0.3941
1645	0.2412
1654	0.6914
1663	0.7718
1672	0.8331
1681	0.861
1690	0.8708
1699	0.8734
1708	0.8736
1717	0.8733
1726	0.8736
1735	0.8745
1744	0.8792
1753	0.887
1762	0.8896
1771	0.8907
1780	0.8916
1789	0.8919
1798	0.8931
1807	0.8966
1816	0.8964
1825	0.8959
1834	0.8955
1843	0.8953
1852	0.8943
1861	0.8925
1870	0.8908
1879	0.8874
1888	0.8836
1897	0.8809
1906	0.8795
1915	0.8763
1924	0.8683
1933	0.8766
1942	0.8872
1951	0.8895
1960	0.8881
1969	0.888
1978	0.8905
1987	0.8943
1996	0.8914
2005	0.8851
2014	0.8802
2023	0.8752
2032	0.8693
2041	0.8655
2050	0.8659
2059	0.8716
2068	0.8784
2077	0.8823
2086	0.8826
2095	0.8825
2104	0.8827
2113	0.8829
2122	0.8831
2131	0.8832
2140	0.883
2149	0.8828
2158	0.8827
2167	0.8824
2176	0.8821
2185	0.8818
2194	0.8816
2203	0.8813
2212	0.881
2221	0.8807
2230	0.8805
2239	0.8801
2248	0.8799
2257	0.8796
2266	0.8793
2275	0.879
2284	0.8789
2293	0.8787
2302	0.8785
2311	0.8783
2320	0.8781
2329	0.8779
2338	0.8779
2347	0.878
2356	0.878
2365	0.8766
2374	0.8746
2383	0.8725
2392	0.8705
2401	0.8684
2410	0.8664
2419	0.8648
2428	0.8651
2437	0.8657
2446	0.8665
2455	0.8661
2464	0.8653
2473	0.8637
2482	0.8619
2491	0.8602
2500	0.8584
2509	0.8567
2518	0.8568
2527	0.8571
2536	0.8561
2545	0.8537
2554	0.8466
2563	0.8411
2572	0.8446
2581	0.8481
2590	0.8516
2599	0.8522
2608	0.8519
2617	0.85
2626	0.8508
2635	0.8529
2644	0.8552
2653	0.8584
2662	0.8595
2671	0.859
2680	0.8587
2689	0.858
2698	0.8569
2707	0.8559
2716	0.8548
2725	0.8536
2734	0.8509
2743	0.8481
2752	0.8478
2761	0.8481
2770	0.8486
2779	0.8491
2788	0.8481
2797	0.8455
2806	0.8409
2815	0.8356
2824	0.8299
2833	0.82
2842	0.7606
2851	0.771
2860	0.8196
2869	0.8261
2878	0.8244
2887	0.8196
2896	0.8073
2905	0.7912
2914	0.7783
2923	0.7746
2932	0.7747
2941	0.7583
2950	0.766
2959	0.7575
2968	0.7403
2977	0.7526
2986	0.7843
2995	0.8014
3004	0.7776
3013	0.7391
3022	0.7629
3031	0.8052
3040	0.8047
3049	0.8004
3058	0.7966
3067	0.7981
3076	0.8022
3085	0.8068
3094	0.8099
3103	0.8105
3112	0.8107
3121	0.8104
3130	0.8096
3139	0.8087
3148	0.8079
3157	0.807
3166	0.8061
3175	0.8051
3184	0.8042
3193	0.8033
3202	0.8024
3211	0.8015
3220	0.8006
3229	0.7996
3238	0.7987
3247	0.7978
3256	0.797
3265	0.7964
3274	0.7959
3283	0.7953
3292	0.7949
3301	0.7942
3310	0.7934
3319	0.7926
3328	0.7918
3337	0.791
3346	0.7902
3355	0.7884
3364	0.7866
3373	0.7848
3382	0.7824
3391	0.7797
3400	0.7771
3409	0.7745
3418	0.7733
3427	0.772
3436	0.7709
3445	0.7696
3454	0.7692
3463	0.7703
3472	0.7714
3481	0.7724
3490	0.7735
3499	0.7745
3508	0.7761
3517	0.7775
3526	0.7791
3535	0.7806
3544	0.7821
3553	0.7835
3562	0.7848
3571	0.786
3580	0.7873
3589	0.7885
3598	0.7898
3607	0.7911
3616	0.7926
3625	0.7941
3634	0.7956
3643	0.7971
3652	0.7985
3661	0.7991
3670	0.7997
3679	0.8002
3688	0.8009
3697	0.8013
3706	0.8005
3715	0.7997
3724	0.7983
3733	0.7966
3742	0.7961
3751	0.7961
3760	0.7963
3769	0.7966
3778	0.7969
3787	0.7971
