Infrared Spectrum: 3,3,3-Triphenylpropionic acid
Formula: C21 H18 O2
CAS: 900-91-4
State: SOLID (SPLIT MULL), FLUOROLUBE FOR 3800-1330 CM^-^1, NUJOL FOR 1330-460 CM^-^1
Melting point: 177 C
Class: COBLENTZ III
Instrument: DOW KBr FOREPRISM-GRATING
Instrument parameters: BLAZED AT 3.5, 12.0, 20.0 MICRON AND CHANGED AT 5.0, 7.5, 14.9 MICRON
Sampling: TRANSMISSION
Resolution: 2
Origin: DOW CHEMICAL COMPANY
1/CM	TRANSMITTANCE
3808	0.6856
3799	0.6872
3790	0.6901
3781	0.6915
3772	0.693
3763	0.6943
3754	0.6956
3745	0.6968
3736	0.698
3727	0.699
3718	0.7001
3709	0.7011
3700	0.7024
3691	0.7035
3682	0.7047
3673	0.7065
3664	0.7083
3655	0.71
3646	0.7114
3637	0.7126
3628	0.714
3619	0.7151
3610	0.7164
3601	0.7178
3592	0.7191
3583	0.7197
3574	0.7131
3565	0.7145
3556	0.719
3547	0.7194
3538	0.7191
3529	0.7178
3520	0.7165
3511	0.7154
3502	0.7151
3493	0.7148
3484	0.7145
3475	0.714
3466	0.713
3457	0.7121
3448	0.7111
3439	0.7087
3430	0.7065
3421	0.7056
3412	0.7046
3403	0.7037
3394	0.7041
3385	0.7046
3376	0.7051
3367	0.7055
3358	0.706
3349	0.7065
3340	0.7075
3331	0.7085
3322	0.7093
3313	0.7099
3304	0.7097
3295	0.7076
3286	0.7031
3277	0.6962
3268	0.6895
3259	0.6825
3250	0.6755
3241	0.6683
3232	0.6611
3223	0.6528
3214	0.6434
3205	0.6342
3196	0.626
3187	0.6178
3178	0.6096
3169	0.6003
3160	0.5908
3151	0.5814
3142	0.5724
3133	0.5626
3124	0.5503
3115	0.5349
3106	0.5203
3097	0.513
3088	0.5062
3079	0.4877
3070	0.4559
3061	0.4308
3052	0.4341
3043	0.4598
3034	0.4441
3025	0.4569
3016	0.5084
3007	0.519
2998	0.5197
2989	0.516
2980	0.5105
2971	0.506
2962	0.5056
2953	0.5102
2944	0.5178
2935	0.5258
2926	0.5341
2917	0.541
2908	0.5472
2899	0.5525
2890	0.5571
2881	0.561
2872	0.5678
2863	0.5768
2854	0.5864
2845	0.5959
2836	0.6055
2827	0.6149
2818	0.6244
2809	0.6339
2800	0.6441
2791	0.6542
2782	0.6637
2773	0.6715
2764	0.6767
2755	0.6722
2746	0.6625
2737	0.6551
2728	0.6533
2719	0.6626
2710	0.6782
2701	0.6944
2692	0.7031
2683	0.6988
2674	0.6931
2665	0.6911
2656	0.6919
2647	0.6935
2638	0.696
2629	0.6989
2620	0.7043
2611	0.7118
2602	0.7199
2593	0.7256
2584	0.7284
2575	0.7296
2566	0.7306
2557	0.7312
2548	0.7321
2539	0.7386
2530	0.7528
2521	0.7584
2512	0.7639
2503	0.7698
2494	0.7771
2485	0.7844
2476	0.791
2467	0.7954
2458	0.799
2449	0.8015
2440	0.8045
2431	0.8075
2422	0.8121
2413	0.8165
2404	0.8194
2395	0.8211
2386	0.8203
2377	0.818
2368	0.816
2359	0.8142
2350	0.8122
2341	0.8108
2332	0.8121
2323	0.8153
2314	0.8187
2305	0.8221
2296	0.8256
2287	0.829
2278	0.8325
2269	0.8362
2260	0.8398
2251	0.8434
2242	0.847
2233	0.8506
2224	0.8543
2215	0.858
2206	0.8616
2197	0.8653
2188	0.8689
2179	0.8724
2170	0.876
2161	0.8795
2152	0.8831
2143	0.8866
2134	0.8897
2125	0.8925
2116	0.8954
2107	0.8977
2098	0.9001
2089	0.9016
2080	0.9028
2071	0.9028
2062	0.9018
2053	0.9011
2044	0.9005
2035	0.9005
2026	0.9041
2017	0.9058
2008	0.9078
1999	0.9065
1990	0.8921
1981	0.8944
1972	0.8921
1963	0.8771
1954	0.8728
1945	0.8827
1936	0.8962
1927	0.9046
1918	0.9049
1909	0.8987
1900	0.8868
1891	0.8789
1882	0.8821
1873	0.8895
1864	0.8962
1855	0.8964
1846	0.8952
1837	0.8964
1828	0.8875
1819	0.8715
1810	0.8689
1801	0.8739
1792	0.8782
1783	0.8802
1774	0.8693
1765	0.8611
1756	0.8536
1747	0.8274
1738	0.7824
1729	0.7175
1720	0.2876
1711	0.1731
1702	0.4388
1693	0.6152
1684	0.6899
1675	0.7383
1666	0.7897
1657	0.8165
1648	0.8292
1639	0.8435
1630	0.8596
1621	0.8678
1612	0.8536
1603	0.7934
1594	0.7631
1585	0.8356
1576	0.8601
1567	0.8913
1558	0.892
1549	0.8964
1540	0.9049
1531	0.9084
1522	0.9066
1513	0.8673
1504	0.7917
1495	0.5017
1486	0.6382
1477	0.7987
1468	0.848
1459	0.8546
1450	0.645
1441	0.581
1432	0.7693
1423	0.5975
1414	0.4886
1405	0.491
1396	0.7422
1387	0.8075
1378	0.8144
1369	0.809
1360	0.7897
1351	0.7096
1342	0.6448
1333	0.7231
1324	0.7561
1315	0.7739
1306	0.7768
1297	0.7625
1288	0.7486
1279	0.7558
1270	0.7715
1261	0.7526
1252	0.7238
1243	0.6388
1234	0.3728
1225	0.2507
1216	0.6289
1207	0.7281
1198	0.721
1189	0.6499
1180	0.4941
1171	0.7355
1162	0.7405
1153	0.7517
1144	0.8069
1135	0.8201
1126	0.8263
1117	0.8244
1108	0.8324
1099	0.8285
1090	0.7405
1081	0.8
1072	0.838
1063	0.8442
1054	0.8434
1045	0.8118
1036	0.7181
1027	0.7721
1018	0.821
1009	0.8208
1000	0.741
991	0.7924
982	0.6173
973	0.7961
964	0.8057
955	0.7876
946	0.76
937	0.7517
928	0.7188
919	0.6893
910	0.6755
901	0.7051
892	0.7212
883	0.7511
874	0.7719
865	0.7905
856	0.8101
847	0.7842
838	0.7999
829	0.7944
820	0.8275
811	0.839
802	0.84
793	0.8364
784	0.7743
775	0.7078
766	0.5959
757	0.4259
748	0.7457
739	0.7643
730	0.7592
721	0.5225
712	0.6653
703	0.0872
694	0.704
685	0.7196
676	0.8204
667	0.8442
658	0.8461
649	0.799
640	0.4903
631	0.744
622	0.7325
613	0.7126
604	0.8184
595	0.8325
586	0.833
577	0.8309
568	0.8252
559	0.8149
550	0.7939
541	0.8106
532	0.8126
523	0.7925
514	0.7746
505	0.7911
496	0.7555
487	0.7758
478	0.7851
469	0.7755
