Infrared Spectrum: Polyethylene, medium density
Formula: H ( C H 2 C H 2 ) n H
CAS: 9002-88-4
State: solid
Instrument: Bruker Tensor 37 FTIR
Resolution: 0.96450084
Origin: Pacific Northwest National Laboratory Under IARPA Contract
1/cm	Reflectance
7498.03	0.807326
7480.67	0.80209
7463.31	0.799292
7445.95	0.792631
7428.59	0.771356
7411.23	0.75139
7393.87	0.719155
7376.51	0.680196
7359.15	0.630007
7341.79	0.547752
7324.43	0.591408
7307.07	0.602666
7289.71	0.554532
7272.35	0.530005
7254.99	0.568382
7237.63	0.580977
7220.27	0.589481
7202.91	0.615937
7185.55	0.632652
7168.19	0.64733
7150.83	0.674315
7133.47	0.691629
7116.11	0.707727
7098.75	0.719735
7081.39	0.727664
7064.03	0.734975
7046.67	0.734443
7029.31	0.730571
7011.96	0.720722
6994.6	0.707407
6977.24	0.738565
6959.88	0.75426
6942.52	0.764171
6925.16	0.77256
6907.8	0.77528
6890.44	0.774057
6873.08	0.774471
6855.72	0.772329
6838.36	0.768043
6821	0.760835
6803.64	0.753048
6786.28	0.745283
6768.92	0.730159
6751.56	0.705272
6734.2	0.664116
6716.84	0.597452
6699.48	0.522905
6682.12	0.431627
6664.76	0.320207
6647.4	0.233867
6630.04	0.228191
6612.68	0.353474
6595.32	0.342741
6577.96	0.289313
6560.6	0.392031
6543.24	0.420054
6525.88	0.398352
6508.52	0.403306
6491.16	0.399833
6473.8	0.415876
6456.44	0.43533
6439.08	0.463421
6421.72	0.487576
6404.36	0.486267
6387	0.490468
6369.64	0.488762
6352.28	0.486339
6334.92	0.485758
6317.56	0.492138
6300.2	0.486858
6282.84	0.489712
6265.48	0.494073
6248.12	0.478764
6230.76	0.460025
6213.4	0.479509
6196.04	0.476316
6178.68	0.473613
6161.32	0.494173
6143.96	0.508239
6126.61	0.521367
6109.25	0.534578
6091.89	0.539557
6074.53	0.537434
6057.17	0.533616
6039.81	0.524335
6022.45	0.499767
6005.09	0.470381
5987.73	0.42878
5970.37	0.363636
5953.01	0.262801
5935.65	0.17246
5918.29	0.0852582
5900.93	0.133412
5883.57	0.11652
5866.21	0.113172
5848.85	0.0936992
5831.49	0.0912847
5814.13	0.0949895
5796.77	0.0949345
5779.41	0.132604
5762.05	0.14467
5744.69	0.183486
5727.33	0.187828
5709.97	0.171136
5692.61	0.172543
5675.25	0.189069
5657.89	0.189092
5640.53	0.218668
5623.17	0.233457
5605.81	0.228598
5588.45	0.210274
5571.09	0.175089
5553.73	0.11557
5536.37	0.261536
5519.01	0.249571
5501.65	0.185466
5484.29	0.157907
5466.93	0.137065
5449.57	0.124145
5432.21	0.113192
5414.85	0.124394
5397.49	0.152103
5380.13	0.187568
5362.77	0.212759
5345.41	0.211126
5328.05	0.207015
5310.69	0.177912
5293.33	0.0964665
5275.97	0.0727361
5258.62	0.0523011
5241.26	0.0361706
5223.9	0.0260833
5206.54	0.0348514
5189.18	0.0323403
5171.82	0.0361379
5154.46	0.043019
5137.1	0.0567522
5119.74	0.0647196
5102.38	0.073913
5085.02	0.0702581
5067.66	0.0669986
5050.3	0.0930331
5032.94	0.127306
5015.58	0.156551
4998.22	0.201532
4980.86	0.243547
4963.5	0.23417
4946.14	0.234947
4928.78	0.199761
4911.42	0.153368
4894.06	0.206934
4876.7	0.251926
4859.34	0.288277
4841.98	0.294933
4824.62	0.26369
4807.26	0.331344
4789.9	0.319789
4772.54	0.261644
4755.18	0.225227
4737.82	0.336495
4720.46	0.311709
4703.1	0.251184
4685.74	0.34219
4668.38	0.369241
4651.02	0.330995
4633.66	0.343718
4616.3	0.304397
4598.94	0.254139
4581.58	0.284691
4564.22	0.228984
4546.86	0.214366
4529.5	0.207242
4512.14	0.156423
4494.78	0.0754322
4477.42	0.0315414
4460.06	0.0921534
4442.7	0.0763394
4425.34	0.0590655
4407.98	0.0861478
4390.63	0.0930411
4373.27	0.11125
4355.91	0.0978946
4338.55	0.0907761
4321.19	0.0843337
4303.83	0.133942
4286.47	0.113595
4269.11	0.183495
4251.75	0.208595
4234.39	0.173178
4217.03	0.12898
4199.67	0.106523
4182.31	0.222604
4164.95	0.223454
4147.59	0.173599
4130.23	0.110482
4112.87	0.0261704
4095.51	0.163869
4078.15	0.258689
4060.79	0.298451
4043.43	0.805683
4026.07	0.792795
4008.71	0.792506
3991.35	0.778808
3973.99	0.764163
3956.63	0.735139
3939.27	0.7031
3921.91	0.65476
3904.55	0.59876
3887.19	0.512391
3869.83	0.593272
3852.47	0.577282
3835.11	0.509547
3817.75	0.536684
3800.39	0.562383
3783.03	0.568277
3765.67	0.587741
3748.31	0.607193
3730.95	0.623844
3713.59	0.642004
3696.23	0.668059
3678.87	0.687764
3661.51	0.698914
3644.15	0.713624
3626.79	0.718002
3609.43	0.723772
3592.07	0.72194
3574.71	0.718696
3557.35	0.707467
3539.99	0.693081
3522.63	0.737013
3505.28	0.746554
3487.92	0.757875
3470.56	0.761682
3453.2	0.768419
3435.84	0.766351
3418.48	0.767181
3401.12	0.761123
3383.76	0.757348
3366.4	0.74554
3349.04	0.741812
3331.68	0.730478
3314.32	0.712944
3296.96	0.680344
3279.6	0.631089
3262.24	0.559322
3244.88	0.489312
3227.52	0.377588
3210.16	0.276876
3192.8	0.189734
3175.44	0.26761
3158.08	0.36668
3140.72	0.307337
3123.36	0.334351
3106	0.38879
3088.64	0.399998
3071.28	0.385291
3053.92	0.384362
3036.56	0.391853
3019.2	0.404988
3001.84	0.431577
2984.48	0.452553
2967.12	0.478004
2949.76	0.47115
2932.4	0.476137
2915.04	0.470824
2897.68	0.47022
2880.32	0.470828
2862.96	0.475648
2845.6	0.472224
2828.24	0.474769
2810.88	0.474752
2793.52	0.455068
2776.16	0.455809
2758.8	0.463414
2741.44	0.457567
2724.08	0.464719
2706.72	0.483504
2689.36	0.493907
2672	0.506386
2654.64	0.523532
2637.29	0.517468
2619.93	0.523186
2602.57	0.515963
2585.21	0.50277
2567.85	0.476059
2550.49	0.442637
2533.13	0.397445
2515.77	0.324691
2498.41	0.217168
2481.05	0.144126
2463.69	0.0630381
2446.33	0.133392
2428.97	0.0824695
2411.61	0.0978785
2394.25	0.0843604
2376.89	0.0870579
2359.53	0.0903073
2342.17	0.104223
2324.81	0.132065
2307.45	0.154898
2290.09	0.169546
2272.73	0.176783
2255.37	0.160881
2238.01	0.165758
2220.65	0.181421
2203.29	0.188734
2185.93	0.214252
2168.57	0.22649
2151.21	0.211569
2133.85	0.196857
2116.49	0.179559
2099.13	0.148386
2081.77	0.260384
2064.41	0.220056
2047.05	0.167744
2029.69	0.144383
2012.33	0.12757
1994.97	0.114404
1977.61	0.110876
1960.25	0.125381
1942.89	0.156078
1925.53	0.189956
1908.17	0.206909
1890.81	0.204119
1873.45	0.19397
1856.09	0.152578
1838.73	0.084565
1821.37	0.0623842
1804.01	0.0467501
1786.65	0.0304015
1769.3	0.0229765
1751.94	0.0315516
1734.58	0.0304186
1717.22	0.0366931
1699.86	0.0443984
1682.5	0.0594575
1665.14	0.0631874
1647.78	0.0743557
1630.42	0.0645855
1613.06	0.0699406
1595.7	0.097657
1578.34	0.129677
1560.98	0.1575
1543.62	0.201181
1526.26	0.24295
1508.9	0.203606
1491.54	0.227241
1474.18	0.150189
1456.82	0.168456
1439.46	0.2029
1422.1	0.238556
1404.74	0.29104
1387.38	0.288008
1370.02	0.272959
1352.66	0.324556
1335.3	0.298903
1317.94	0.224351
1300.58	0.297392
1283.22	0.317512
1265.86	0.2957
1248.5	0.208602
1231.14	0.355368
1213.78	0.33881
1196.42	0.336754
1179.06	0.332867
1161.7	0.179574
1144.34	0.280923
1126.98	0.271117
1109.62	0.227116
1092.26	0.206319
1074.9	0.191126
1057.54	0.135758
1040.18	0.0421281
1022.82	0.0378675
1005.46	0.106113
988.104	0.0413603
970.744	0.0703095
953.384	0.0732525
936.025	0.098683
918.665	0.107483
901.305	0.0963848
883.945	0.0921728
866.585	0.0947889
849.226	0.135187
831.866	0.135424
814.506	0.196451
797.146	0.209156
779.786	0.157034
762.427	0.128911
745.067	0.141608
727.707	0.227732
710.347	0.218497
692.987	0.15349
675.628	0.103345
658.268	0.0313115
640.908	0.201387
623.548	0.284611
606.188	0.303184
