Infrared Spectrum: Benzhydrol
Formula: C13 H12 O
CAS: 91-01-0
State: SOLUTION (10% CCl4 FOR 3800-1330, 10% CS2 FOR 1330-440 CM^-^1)
Class: COBLENTZ III
Instrument: DOW KBr FOREPRISM-GRATING
Instrument parameters: BLAZED AT 3.5, 12.0, 20.0 MICRON AND CHANGED AT 5.0, 7.5, 14.9 MICRON
Sampling: TRANSMISSION
Path length: 0.011 CM, 0.011 CM
Resolution: 2
Origin: DOW CHEMICAL COMPANY
1/CM	TRANSMITTANCE
3797.35	0.9173
3788.38	0.9165
3779.42	0.9175
3770.45	0.9177
3761.49	0.9183
3752.52	0.9178
3743.55	0.9173
3734.59	0.9171
3725.62	0.9176
3716.65	0.9158
3707.69	0.912
3698.72	0.9057
3689.76	0.9046
3680.79	0.9069
3671.82	0.9028
3662.86	0.893
3653.89	0.8808
3644.92	0.8669
3635.96	0.7898
3626.99	0.5166
3618.03	0.5299
3609.06	0.609
3600.09	0.6876
3591.13	0.7279
3582.16	0.7367
3573.2	0.7396
3564.23	0.7397
3555.26	0.7383
3546.3	0.7332
3537.33	0.716
3528.36	0.7088
3519.4	0.699
3510.43	0.6835
3501.47	0.6661
3492.5	0.648
3483.53	0.6324
3474.57	0.6186
3465.6	0.6061
3456.63	0.595
3447.67	0.5871
3438.7	0.582
3429.74	0.5784
3420.77	0.5746
3411.8	0.5727
3402.84	0.5723
3393.87	0.5733
3384.9	0.5747
3375.94	0.5779
3366.97	0.5816
3358.01	0.5869
3349.04	0.5932
3340.07	0.6025
3331.11	0.6137
3322.14	0.6259
3313.18	0.6391
3304.21	0.6525
3295.24	0.6682
3286.28	0.6839
3277.31	0.7001
3268.34	0.7158
3259.38	0.7318
3250.41	0.7466
3241.45	0.7619
3232.48	0.7771
3223.51	0.7908
3214.55	0.8034
3205.58	0.8149
3196.61	0.8245
3187.65	0.8353
3178.68	0.845
3169.72	0.8463
3160.75	0.8491
3151.78	0.86
3142.82	0.8676
3133.85	0.8715
3124.89	0.8736
3115.92	0.8569
3106.95	0.8199
3097.99	0.7193
3089.02	0.5772
3080.05	0.6053
3071.09	0.5629
3062.12	0.4101
3053.16	0.5101
3044.19	0.6335
3035.22	0.5314
3026.26	0.3489
3017.29	0.5914
3008.32	0.7626
2999.36	0.7717
2990.39	0.8264
2981.43	0.853
2972.46	0.8566
2963.49	0.8638
2954.53	0.8717
2945.56	0.8776
2936.6	0.8747
2927.63	0.865
2918.66	0.8584
2909.7	0.8497
2900.73	0.8274
2891.76	0.7982
2882.8	0.7582
2873.83	0.7129
2864.87	0.704
2855.9	0.7275
2846.93	0.7643
2837.97	0.8051
2829	0.8347
2820.03	0.8526
2811.07	0.8667
2802.1	0.8726
2793.14	0.8773
2784.17	0.8804
2775.2	0.8841
2766.24	0.8894
2757.27	0.8931
2748.3	0.8958
2739.34	0.8971
2730.37	0.8984
2721.41	0.8997
2712.44	0.901
2703.47	0.9009
2694.51	0.8998
2685.54	0.901
2676.58	0.8995
2667.61	0.8979
2658.64	0.8994
2649.68	0.9017
2640.71	0.899
2631.74	0.896
2622.78	0.8957
2613.81	0.8968
2604.85	0.8978
2595.88	0.8989
2586.91	0.8999
2577.95	0.9009
2568.98	0.9018
2560.01	0.9027
2551.05	0.9036
2542.08	0.9048
2533.12	0.906
2524.15	0.9072
2515.18	0.9085
2506.22	0.9099
2497.25	0.9112
2488.29	0.9125
2479.32	0.9133
2470.35	0.9149
2461.39	0.9153
2452.42	0.9153
2443.45	0.9148
2434.49	0.9154
2425.52	0.9154
2416.56	0.9154
2407.59	0.9154
2398.62	0.9163
2389.66	0.9165
2380.69	0.9177
2371.72	0.9219
2362.76	0.9246
2353.79	0.9267
2344.83	0.9281
2335.86	0.9175
2326.89	0.913
2317.93	0.915
2308.96	0.9025
2300	0.9077
2291.03	0.9149
2282.06	0.9149
2273.1	0.9141
2264.13	0.9111
2255.16	0.9114
2246.2	0.9118
2237.23	0.9123
2228.27	0.9149
2219.3	0.9179
2210.33	0.9184
2201.37	0.9189
2192.4	0.9195
2183.43	0.9186
2174.47	0.9193
2165.5	0.9217
2156.54	0.9212
2147.57	0.9216
2138.6	0.9217
2129.64	0.9218
2120.67	0.9222
2111.7	0.9227
2102.74	0.9226
2093.77	0.9224
2084.81	0.9221
2075.84	0.9217
2066.87	0.9213
2057.91	0.9192
2048.94	0.9156
2039.98	0.9094
2031.01	0.9106
2022.04	0.9112
2013.08	0.9099
2004.11	0.9047
1995.14	0.9065
1986.18	0.9082
1977.21	0.9081
1968.25	0.8582
1959.28	0.888
1950.31	0.8088
1941.35	0.8688
1932.38	0.902
1923.41	0.9099
1914.45	0.9089
1905.48	0.8853
1896.52	0.857
1887.55	0.8478
1878.58	0.8618
1869.62	0.8849
1860.65	0.9069
1851.69	0.9137
1842.72	0.9116
1833.75	0.8926
1824.79	0.8813
1815.82	0.8507
1806.85	0.8109
1797.89	0.8545
1788.92	0.884
1779.96	0.883
1770.99	0.863
1762.02	0.8514
1753.06	0.8558
1744.09	0.8692
1735.12	0.8791
1726.16	0.8866
1717.19	0.8881
1708.23	0.8879
1699.26	0.8882
1690.29	0.8884
1681.33	0.8745
1672.36	0.8327
1663.4	0.7039
1654.43	0.7602
1645.46	0.8258
1636.5	0.8555
1627.53	0.8708
1618.56	0.8455
1609.6	0.8166
1600.63	0.6984
1591.67	0.7376
1582.7	0.7678
1573.73	0.7869
1564.77	0.8375
1555.8	0.8509
1546.83	0.7629
1537.87	0.7775
1528.9	0.7997
1519.94	0.8149
1510.97	0.8046
1502	0.7548
1493.04	0.1958
1484.07	0.7458
1475.1	0.8022
1466.14	0.794
1457.17	0.6599
1448.21	0.2894
1439.24	0.6927
1430.27	0.7863
1421.31	0.7975
1412.34	0.7881
1403.38	0.7705
1394.41	0.7497
1385.44	0.723
1376.48	0.6838
1367.51	0.6292
1358.54	0.6393
1349.58	0.6816
1340.61	0.6778
1331.65	0.6748
1322.68	0.5844
1313.71	0.5788
1304.75	0.6398
1295.78	0.656
1286.81	0.6471
1277.85	0.4701
1268.88	0.5273
1259.92	0.4789
1250.95	0.4654
1241.98	0.426
1233.02	0.6027
1224.05	0.6396
1215.09	0.6314
1206.12	0.6453
1197.15	0.6366
1188.19	0.4566
1179.22	0.386
1170.25	0.3582
1161.29	0.5741
1152.32	0.5033
1143.36	0.7241
1134.39	0.7989
1125.42	0.8284
1116.46	0.8418
1107.49	0.815
1098.52	0.8008
1089.56	0.7977
1080.59	0.691
1071.63	0.6873
1062.66	0.7411
1053.69	0.7402
1044.73	0.5618
1035.76	0.3364
1026.8	0.288
1017.83	0.1772
1008.86	0.2012
999.896	0.3981
990.93	0.6125
981.964	0.7026
972.998	0.7316
964.032	0.7751
955.065	0.8
946.099	0.8219
937.133	0.7487
928.167	0.8088
919.201	0.77
910.234	0.6119
901.268	0.742
892.302	0.826
883.336	0.8504
874.37	0.8344
865.404	0.8002
856.437	0.7216
847.471	0.6222
838.505	0.6466
829.539	0.7466
820.573	0.7416
811.606	0.7802
802.64	0.8074
793.674	0.821
784.708	0.819
775.742	0.7565
766.775	0.5624
757.809	0.1395
748.843	0.2784
739.877	0.2147
730.911	0.1258
721.944	0.5143
712.978	0.6543
704.012	0.1737
695.046	0.0075
686.08	0.4263
677.113	0.6418
668.147	0.6794
659.181	0.6834
650.215	0.323
641.249	0.587
632.282	0.6413
623.316	0.7442
614.35	0.6072
605.384	0.7099
596.418	0.2836
587.451	0.704
578.485	0.7658
569.519	0.7744
560.553	0.746
551.587	0.6026
542.62	0.6429
533.654	0.7344
524.688	0.7564
515.722	0.7612
506.756	0.7629
497.789	0.7629
488.823	0.762
479.857	0.7575
470.891	0.7461
461.925	0.7067
452.958	0.6985
443.992	0.7104
