Infrared Spectrum: CIS-DECAHYDRONAPHTHALENE
Formula: C10 H18
CAS: 91-17-8
State: SOLUTION VS. SOLVENT
Class: COBLENTZ III
Instrument: CARY 90 (GRATING)
Instrument parameters: GRATING CHANGES: 3000, 2000, 1200 CM^-^1
Sampling: TRANSMISSION
Resolution: 2
Origin: WESTERN REGIONAL RES. USDA
1/CM	TRANSMITTANCE
490.653	0.915
499.616	0.926
508.579	0.937
517.542	0.952
526.505	0.966
535.467	0.979
544.43	0.987
553.393	0.996
562.356	1.002
571.319	1.007
580.282	1.008
589.245	0.976
598.208	0.748
607.171	1.007
616.133	1.022
625.096	1.027
634.059	1.035
643.022	1.041
651.985	1.046
660.948	1.046
669.911	1.047
678.874	1.047
687.837	1.047
696.799	1.045
705.762	1.045
714.725	1.047
723.688	1.046
732.651	1.044
741.614	1.017
750.577	1.044
759.54	1.046
768.503	1.046
777.466	1.042
786.428	1.025
795.391	0.964
804.354	1.001
813.317	1.029
822.28	0.927
831.243	0.927
840.206	0.895
849.169	0.861
858.132	0.714
867.094	0.977
876.057	0.914
885.02	1.013
893.983	1.028
902.946	1.036
911.909	1.033
920.872	0.966
929.835	0.964
938.798	1.02
947.76	1.015
956.723	0.984
965.686	0.713
974.649	0.775
983.612	0.874
992.575	0.99
1001.54	0.993
1010.5	0.771
1019.46	0.991
1028.43	0.995
1037.39	0.959
1046.35	0.963
1055.32	0.981
1064.28	0.965
1073.24	0.864
1082.2	0.962
1091.17	0.968
1100.13	0.994
1109.09	0.99
1118.06	0.939
1127.02	0.949
1135.98	0.958
1144.94	0.902
1153.91	0.988
1162.87	0.987
1171.83	0.861
1180.8	1.006
1189.76	1.029
1198.72	1.023
1207.68	1.003
1216.65	0.981
1225.61	0.922
1234.57	0.93
1243.54	0.863
1252.5	0.851
1261.46	0.786
1270.42	0.818
1279.39	0.869
1288.35	0.859
1297.31	0.767
1306.28	0.735
1315.24	0.863
1324.2	0.868
1333.16	0.812
1342.13	0.821
1351.09	0.779
1360.05	0.861
1369.02	0.859
1377.98	0.764
1386.94	0.867
1395.9	0.874
1404.87	0.874
1413.83	0.862
1422.79	0.831
1431.76	0.743
1440.72	0.4799
1449.68	0.174
1458.65	0.442
1467.61	0.3751
1476.57	0.771
1485.53	0.841
1494.5	0.861
1503.46	0.885
1512.42	0.902
1521.39	0.917
1530.35	0.926
1539.31	0.94
1548.27	0.955
1557.24	0.966
1566.2	0.959
1575.16	0.94
1584.13	0.928
1593.09	0.932
1602.05	0.919
1611.01	0.907
1619.98	0.9
1628.94	0.898
1637.9	0.896
1646.87	0.896
1655.83	0.895
1664.79	0.894
1673.75	0.893
1682.72	0.893
1691.68	0.893
1700.64	0.891
1709.61	0.888
1718.57	0.883
1727.53	0.865
1736.49	0.842
1745.46	0.854
1754.42	0.876
1763.38	0.885
1772.35	0.888
1781.31	0.887
1790.27	0.885
1799.24	0.884
1808.2	0.883
1817.16	0.883
1826.12	0.884
1835.09	0.885
1844.05	0.886
1853.01	0.887
1861.98	0.887
1870.94	0.885
1879.9	0.883
1888.86	0.88
1897.83	0.879
1906.79	0.877
1915.75	0.876
1924.72	0.877
1933.68	0.878
1942.64	0.879
1951.6	0.88
1960.57	0.88
1969.53	0.883
1978.49	0.884
1987.46	0.885
1996.42	0.885
2005.38	0.886
2014.34	0.886
2023.31	0.8864
2032.27	0.887
2041.23	0.886
2050.2	0.886
2059.16	0.887
2068.12	0.887
2077.08	0.887
2086.05	0.886
2095.01	0.886
2103.97	0.886
2112.94	0.886
2121.9	0.886
2130.86	0.886
2139.82	0.886
2148.79	0.886
2157.75	0.885
2166.71	0.884
2175.68	0.884
2184.64	0.881
2193.6	0.879
2202.57	0.877
2211.53	0.878
2220.49	0.879
2229.45	0.882
2238.42	0.883
2247.38	0.883
2256.34	0.884
2265.31	0.885
2274.27	0.887
2283.23	0.8876
2292.19	0.886
2301.16	0.886
2310.12	0.886
2319.08	0.886
2328.05	0.887
2337.01	0.886
2345.97	0.886
2354.93	0.8853
2363.9	0.885
2372.86	0.885
2381.82	0.884
2390.79	0.883
2399.75	0.8824
2408.71	0.882
2417.67	0.88
2426.64	0.88
2435.6	0.879
2444.56	0.879
2453.53	0.8784
2462.49	0.878
2471.45	0.878
2480.41	0.877
2489.38	0.877
2498.34	0.877
2507.3	0.8796
2516.27	0.883
2525.23	0.883
2534.19	0.883
2543.16	0.882
2552.12	0.88
2561.08	0.8783
2570.04	0.8697
2579.01	0.863
2587.97	0.8536
2596.93	0.8383
2605.9	0.8185
2614.86	0.8197
2623.82	0.8276
2632.78	0.845
2641.75	0.835
2650.71	0.776
2659.67	0.7607
2668.64	0.6769
2677.6	0.7133
2686.56	0.7471
2695.52	0.7743
2704.49	0.8257
2713.45	0.834
2722.41	0.8084
2731.38	0.8359
2740.34	0.8077
2749.3	0.8177
2758.26	0.8364
2767.23	0.8312
2776.19	0.8125
2785.15	0.7858
2794.12	0.73
2803.08	0.7447
2812.04	0.7126
2821	0.6597
2829.97	0.5568
2838.93	0.373
2847.89	0.1479
2856.86	0.0274
2865.82	0.0275
2874.78	0.0941
2883.74	0.1834
2892.71	0.1274
2901.67	0.072
2910.63	0.0315
2919.6	0
2928.56	0
2937.52	0.0008
2946.49	0.001
2955.45	0.168
2964.41	0.3895
2973.37	0.5518
2982.34	0.6669
2991.3	0.7238
3000.26	0.7732
3009.23	0.8132
3018.19	0.8404
3027.15	0.8551
3036.11	0.8644
3045.08	0.8707
3054.04	0.876
3063	0.8804
3071.97	0.8844
3080.93	0.8886
3089.89	0.8924
3098.85	0.895
3107.82	0.898
3116.78	0.9002
3125.74	0.9032
3134.71	0.9076
3143.67	0.91
3152.63	0.912
3161.59	0.914
3170.56	0.9135
3179.52	0.911
3188.48	0.9084
3197.45	0.904
3206.41	0.8981
3215.37	0.896
3224.33	0.895
3233.3	0.895
3242.26	0.895
3251.22	0.895
3260.19	0.897
3269.15	0.9
3278.11	0.9026
3287.08	0.9065
3296.04	0.9106
3305	0.915
3313.96	0.917
3322.93	0.917
3331.89	0.917
3340.85	0.917
3349.82	0.9143
3358.78	0.9102
3367.74	0.906
3376.7	0.902
3385.67	0.902
3394.63	0.9055
3403.59	0.9087
3412.56	0.9081
3421.52	0.907
3430.48	0.9048
3439.44	0.9016
3448.41	0.901
3457.37	0.901
3466.33	0.902
3475.3	0.904
3484.26	0.905
3493.22	0.906
3502.18	0.9076
3511.15	0.909
3520.11	0.911
3529.07	0.9141
3538.04	0.9162
3547	0.918
3555.96	0.919
3564.92	0.919
3573.89	0.919
3582.85	0.919
3591.81	0.9177
3600.78	0.9166
3609.74	0.9144
3618.7	0.911
3627.66	0.911
3636.63	0.9101
3645.59	0.912
3654.55	0.914
3663.52	0.915
3672.48	0.917
3681.44	0.915
3690.41	0.914
3699.37	0.911
3708.33	0.909
3717.29	0.907
3726.26	0.909
3735.22	0.911
3744.18	0.91
3753.15	0.909
3762.11	0.908
3771.07	0.91
3780.03	0.9148
3789	0.915
3797.96	0.915
3806.92	0.9133
3815.89	0.9095
3824.85	0.9043
3833.81	0.899
3842.77	0.9
3851.74	0.905
3860.7	0.905
3869.66	0.9014
3878.63	0.8983
3887.59	0.8941
3896.55	0.89
3905.51	0.888
3914.48	0.888
3923.44	0.889
3932.4	0.894
3941.37	0.8979
3950.33	0.9
3959.29	0.8987
3968.25	0.8966
3977.22	0.893
3986.18	0.8882
3995.14	0.887
