Infrared Spectrum: NAPHTHALENE
Formula: C10 H8
CAS: 91-20-3
State: VAPOR (1.0 MICROLITER AT 245 C)
Boiling point: 218 C
Class: COBLENTZ
Instrument: NICOLET FTIR
Instrument parameters: Hg-Cd-Te DETECTOR - TYPE A, DEAD BELOW 680 CM^-^1, LOW S/N 710 - 680
Sampling: TRANSMISSION
Path length: 0.2 CM x 30 CM GOLD-PLATED LIGHT PIPE. HELIUM CARRIER. INTERFEROGRAMS CO-ADDED FOR FULL TRANSIT TIME.
Resolution: 4 CM^-^1
Origin: MONSANTO (JOHN J. FREEMAN)
1/CM	TRANSMITTANCE
702.383	0.977
710.724	0.958
719.065	0.9609
727.406	0.998
735.747	0.9581
744.088	0.907
752.429	0.851
760.77	0.7373
769.111	0.4961
777.452	0.2571
785.793	0.327
794.135	0.4269
802.476	0.7658
810.817	0.935
819.158	0.958
827.499	0.954
835.84	0.969
844.181	0.983
852.522	0.994
860.863	1
869.204	0.994
877.545	0.99
885.886	0.985
894.227	0.995
902.568	0.995
910.909	0.998
919.25	1.001
927.591	0.993
935.932	0.975
944.273	0.957
952.614	0.951
960.955	0.951
969.296	0.976
977.638	0.993
985.979	1.001
994.32	0.993
1002.66	0.942
1011	0.901
1019.34	0.91
1027.68	0.985
1036.02	1.004
1044.37	1.004
1052.71	1.005
1061.05	1.004
1069.39	1.007
1077.73	1.005
1086.07	1.004
1094.41	1.007
1102.75	1.004
1111.09	0.995
1119.44	0.976
1127.78	0.95
1136.12	0.947
1144.46	0.958
1152.8	0.977
1161.14	0.997
1169.48	1.003
1177.82	1.006
1186.16	1.005
1194.5	1.004
1202.85	1.002
1211.19	0.992
1219.53	0.985
1227.87	0.981
1236.21	0.985
1244.55	0.981
1252.89	0.981
1261.23	0.95
1269.57	0.938
1277.92	0.93
1286.26	0.969
1294.6	0.994
1302.94	1.003
1311.28	1.006
1319.62	1.003
1327.96	1.003
1336.3	1.003
1344.64	0.997
1352.98	0.994
1361.33	0.995
1369.67	0.996
1378.01	0.98
1386.35	0.956
1394.69	0.962
1403.03	0.964
1411.37	0.989
1419.71	0.996
1428.05	1.002
1436.4	1.002
1444.74	1.006
1453.08	1.002
1461.42	0.998
1469.76	1.002
1478.1	1.005
1486.44	0.991
1494.78	0.97
1503.12	0.927
1511.46	0.886
1519.81	0.896
1528.15	0.945
1536.49	0.958
1544.83	0.964
1553.17	0.974
1561.51	0.987
1569.85	0.998
1578.19	1.005
1586.53	0.992
1594.87	0.967
1603.22	0.967
1611.56	0.971
1619.9	0.993
1628.24	0.997
1636.58	0.995
1644.92	1.002
1653.26	0.986
1661.6	0.983
1669.94	0.967
1678.29	0.976
1686.63	0.992
1694.97	0.998
1703.31	0.992
1711.65	0.967
1719.99	0.952
1728.33	0.951
1736.67	0.974
1745.01	0.985
1753.35	0.986
1761.7	0.977
1770.04	0.979
1778.38	0.987
1786.72	0.986
1795.06	0.975
1803.4	0.967
1811.74	0.974
1820.08	0.98
1828.42	0.972
1836.77	0.963
1845.11	0.967
1853.45	0.987
1861.79	1
1870.13	1.001
1878.47	0.992
1886.81	0.977
1895.15	0.964
1903.49	0.963
1911.83	0.971
1920.18	0.967
1928.52	0.956
1936.86	0.935
1945.2	0.947
1953.54	0.977
1961.88	0.997
1970.22	0.998
1978.56	1.001
1986.9	1.001
1995.25	1.002
2003.59	1.002
2011.93	1.002
2020.27	1.0036
2028.61	1.003
2036.95	1.0034
2045.29	1.004
2053.63	1.003
2061.97	1.003
2070.31	1.004
2078.66	1.004
2087	1.003
2095.34	1.003
2103.68	1.003
2112.02	1.003
2120.36	1.004
2128.7	1.0039
2137.04	1.003
2145.38	1.0035
2153.73	1.006
2162.07	1.004
2170.41	1.0048
2178.75	1.005
2187.09	1.004
2195.43	1.005
2203.77	1.004
2212.11	1.004
2220.45	1.003
2228.79	1.005
2237.14	1.003
2245.48	1.0029
2253.82	1.002
2262.16	1.002
2270.5	1.0015
2278.84	0.998
2287.18	0.9946
2295.52	0.993
2303.86	0.994
2312.2	0.9979
2320.55	1.001
2328.89	1.0036
2337.23	1.0083
2345.57	1.009
2353.91	1.01
2362.25	1.006
2370.59	1.0116
2378.93	1.003
2387.27	1.0018
2395.62	1.001
2403.96	1.001
2412.3	1.0005
2420.64	0.998
2428.98	0.9956
2437.32	0.994
2445.66	0.9964
2454	1.001
2462.34	1.0013
2470.68	1.002
2479.03	1.003
2487.37	1.0023
2495.71	1.003
2504.05	1.003
2512.39	1.002
2520.73	1.002
2529.07	1.002
2537.41	1.002
2545.75	1.002
2554.1	1.003
2562.44	1.003
2570.78	1.003
2579.12	1.003
2587.46	1.002
2595.8	1.002
2604.14	1.002
2612.48	1.002
2620.82	1.003
2629.16	1.003
2637.51	1.002
2645.85	1.0013
2654.19	1.002
2662.53	1.002
2670.87	1.002
2679.21	1.003
2687.55	1.003
2695.89	1.003
2704.23	1.004
2712.58	1.002
2720.92	1.002
2729.26	1.0014
2737.6	1.002
2745.94	1.0013
2754.28	1.003
2762.62	1.003
2770.96	1.003
2779.3	1.003
2787.64	1.002
2795.99	1.0021
2804.33	1.0024
2812.67	1.002
2821.01	1.002
2829.35	1.001
2837.69	0.9965
2846.03	0.9931
2854.37	0.9934
2862.71	0.996
2871.06	1.0004
2879.4	1.001
2887.74	1.001
2896.08	1.001
2904.42	1.001
2912.76	0.9986
2921.1	0.995
2929.44	0.9907
2937.78	0.9829
2946.12	0.9743
2954.47	0.9589
2962.81	0.9449
2971.15	0.939
2979.49	0.941
2987.83	0.9575
2996.17	0.9576
3004.51	0.9485
3012.85	0.9286
3021.19	0.912
3029.53	0.8882
3037.88	0.8424
3046.22	0.7787
3054.56	0.5891
3062.9	0.4549
3071.24	0.396
3079.58	0.4789
3087.92	0.5973
3096.26	0.7447
3104.6	0.7917
3112.95	0.8833
3121.29	0.9622
3129.63	0.985
3137.97	0.989
3146.31	0.9919
3154.65	0.994
3162.99	0.995
3171.33	0.993
3179.67	0.9923
3188.01	0.9932
3196.36	0.9967
3204.7	0.998
3213.04	0.9964
3221.38	0.993
3229.72	0.993
3238.06	0.993
3246.4	0.9945
3254.74	0.997
3263.08	1
3271.43	1
3279.77	0.998
3288.11	0.9997
3296.45	1
3304.79	1
3313.13	1
3321.47	1.001
3329.81	1.001
3338.15	1.0017
3346.49	1.001
3354.84	1.0016
3363.18	1.0021
3371.52	1
3379.86	1.002
3388.2	1.0015
3396.54	1.001
3404.88	1
3413.22	1
3421.56	1.002
3429.91	1.002
3438.25	1.001
3446.59	1.0007
3454.93	1
3463.27	1.0024
3471.61	1.002
3479.95	1.002
3488.29	1.001
3496.63	1
3504.97	1.002
3513.32	1
3521.66	0.997
3530	1.0015
3538.34	1
3546.68	0.997
3555.02	1
3563.36	0.9959
3571.7	1.001
3580.04	1.0016
3588.39	0.9999
3596.73	1.002
3605.07	0.9942
3613.41	1.0025
3621.75	1
3630.09	0.9858
3638.43	0.9968
3646.77	1.003
3655.11	1.009
3663.45	0.9999
3671.8	1.0042
3680.14	0.9971
3688.48	0.989
3696.82	1.01
3705.16	1.009
3713.5	0.983
3721.84	0.992
3730.18	1.0075
3738.52	0.9914
3746.86	1.01
3755.21	1.0088
3763.55	1.0037
3771.89	0.9969
3780.23	0.992
3788.57	0.996
3796.91	0.997
3805.25	1
3813.59	0.9964
3821.93	0.9993
3830.28	0.9969
3838.62	1.001
3846.96	0.992
3855.3	0.9722
3863.64	0.9805
3871.98	0.9989
3880.32	0.9841
3888.66	1.003
3897	0.992
3905.34	0.9969
3913.69	1
3922.03	1
3930.37	0.998
3938.71	0.997
3947.05	0.9911
3955.39	0.991
3963.73	0.99
3972.07	0.9876
3980.41	0.9835
3988.76	0.982
