Infrared Spectrum: 1,2,3,4-TETRAHYDROISOQUINOLINE
Formula: C9 H11 N
CAS: 91-21-4
State: LIQUID
Boiling point: 115-116 C AT 15 mmHg
Class: COBLENTZ
Instrument: Not specified, most likely a prism, grating, or hybrid spectrometer.
Sampling: TRANSMISSION
Path length: 0.003 CM
Resolution: 4
Origin: WYANDOTTE CHEMICALS CORP., WYANDOTTE, MICHIGAN, USA
MICROMETERS	TRANSMITTANCE
2.022	0.988
2.06087	0.983
2.09975	0.977
2.13862	0.973
2.1775	0.985
2.21637	0.986
2.25525	0.97
2.29412	0.972
2.333	0.967
2.37187	0.96
2.41075	0.972
2.44962	0.977
2.48849	0.975
2.52737	0.98
2.56624	0.98
2.60512	0.975
2.64399	0.983
2.68287	0.983
2.72174	0.959
2.76062	0.938
2.79949	0.925
2.83837	0.899
2.87724	0.85
2.91611	0.803
2.95499	0.773
2.99386	0.728
3.03274	0.626
3.07161	0.478
3.11049	0.445
3.14936	0.557
3.18824	0.673
3.22711	0.721
3.26599	0.645
3.30486	0.442
3.34373	0.378
3.38261	0.458
3.42148	0.133
3.46036	0.134
3.49923	0.235
3.53811	0.354
3.57698	0.245
3.61586	0.256
3.65473	0.526
3.69361	0.452
3.73248	0.71
3.77135	0.819
3.81023	0.892
3.8491	0.892
3.88798	0.943
3.92685	0.951
3.96573	0.978
4.0046	0.972
4.04348	0.965
4.08235	0.978
4.12123	0.982
4.1601	0.972
4.19897	0.973
4.23785	0.98
4.27672	0.978
4.3156	0.988
4.35447	0.983
4.39335	0.977
4.43222	0.978
4.4711	0.983
4.50997	0.982
4.54885	0.98
4.58772	0.982
4.62659	0.986
4.66547	0.983
4.70434	0.991
4.74322	0.996
4.78209	0.998
4.82097	1
4.85984	0.996
4.89872	0.993
4.93759	0.99
4.97647	1.001
5.01534	0.995
5.05421	1.001
5.09309	0.978
5.13196	0.98
5.17084	0.957
5.20971	0.923
5.24859	0.93
5.28746	0.931
5.32634	0.917
5.36521	0.959
5.40409	0.96
5.44296	0.947
5.48183	0.934
5.52071	0.938
5.55958	0.936
5.59846	0.933
5.63733	0.936
5.67621	0.96
5.71508	0.972
5.75396	0.967
5.79283	0.956
5.83171	0.952
5.87058	0.923
5.90945	0.904
5.94833	0.873
5.9872	0.785
6.02608	0.759
6.06495	0.827
6.10383	0.824
6.1427	0.721
6.18158	0.816
6.22045	0.765
6.25933	0.822
6.2982	0.72
6.33707	0.793
6.37595	0.891
6.41482	0.899
6.4537	0.926
6.49257	0.918
6.53145	0.92
6.57032	0.895
6.6092	0.865
6.64807	0.617
6.68695	0.133
6.72582	0.504
6.76469	0.567
6.80357	0.505
6.84244	0.403
6.88132	0.117
6.92019	0.278
6.95907	0.321
6.99794	0.286
7.03682	0.422
7.07569	0.77
7.11457	0.809
7.15344	0.826
7.19231	0.785
7.23119	0.681
7.27006	0.663
7.30894	0.734
7.34781	0.544
7.38669	0.718
7.42556	0.803
7.46444	0.689
7.50331	0.665
7.54219	0.681
7.58106	0.406
7.61993	0.452
7.65881	0.676
7.69768	0.713
7.73656	0.751
7.77543	0.816
7.81431	0.806
7.85318	0.782
7.89206	0.749
7.93093	0.534
7.96981	0.544
8.00868	0.754
8.04755	0.835
8.08643	0.822
8.1253	0.79
8.16418	0.712
8.20305	0.691
8.24193	0.712
8.2808	0.749
8.31968	0.734
8.35855	0.64
8.39743	0.635
8.4363	0.669
8.47517	0.733
8.51405	0.751
8.55292	0.767
8.5918	0.819
8.63067	0.816
8.66955	0.778
8.70842	0.827
8.7473	0.808
8.78617	0.738
8.82505	0.575
8.86392	0.331
8.90279	0.183
8.94167	0.235
8.98054	0.463
9.01942	0.682
9.05829	0.759
9.09717	0.76
9.13604	0.775
9.17492	0.793
9.21379	0.798
9.25267	0.813
9.29154	0.834
9.33042	0.829
9.36929	0.783
9.40816	0.673
9.44704	0.645
9.48591	0.773
9.52479	0.837
9.56366	0.852
9.60254	0.757
9.64141	0.478
9.68029	0.573
9.71916	0.773
9.75804	0.816
9.79691	0.819
9.83578	0.804
9.87466	0.759
9.91353	0.749
9.95241	0.777
9.99128	0.793
10.0302	0.798
10.069	0.707
10.1079	0.596
10.1468	0.65
10.1857	0.738
10.2245	0.743
10.2634	0.733
10.3023	0.708
10.3412	0.669
10.38	0.611
10.4189	0.476
10.4578	0.4
10.4967	0.448
10.5355	0.469
10.5744	0.416
10.6133	0.344
10.6521	0.282
10.691	0.248
10.7299	0.364
10.7688	0.531
10.8076	0.639
10.8465	0.689
10.8854	0.744
10.9243	0.78
10.9631	0.786
11.002	0.775
11.0409	0.762
11.0798	0.743
11.1186	0.726
11.1575	0.73
11.1964	0.721
11.2353	0.705
11.2741	0.678
11.313	0.653
11.3519	0.635
11.3908	0.621
11.4296	0.635
11.4685	0.663
11.5074	0.635
11.5463	0.577
11.5851	0.507
11.624	0.456
11.6629	0.435
11.7018	0.416
11.7406	0.396
11.7795	0.385
11.8184	0.403
11.8573	0.404
11.8961	0.39
11.935	0.364
11.9739	0.333
12.0128	0.305
12.0516	0.276
12.0905	0.247
12.1294	0.227
12.1683	0.216
12.2071	0.235
12.246	0.289
12.2849	0.343
12.3238	0.323
12.3626	0.331
12.4015	0.343
12.4404	0.315
12.4793	0.299
12.5181	0.282
12.557	0.26
12.5959	0.255
12.6348	0.258
12.6736	0.253
12.7125	0.256
12.7514	0.268
12.7902	0.273
12.8291	0.287
12.868	0.302
12.9069	0.313
12.9457	0.328
12.9846	0.339
13.0235	0.334
13.0624	0.321
13.1012	0.305
13.1401	0.279
13.179	0.227
13.2179	0.17
13.2567	0.099
13.2956	0.073
13.3345	0.048
13.3734	0.045
13.4122	0.04
13.4511	0.039
13.49	0.042
13.5289	0.045
13.5677	0.048
13.6066	0.06
13.6455	0.126
13.6844	0.186
13.7232	0.226
13.7621	0.263
13.801	0.313
13.8399	0.377
13.8787	0.456
13.9176	0.534
13.9565	0.586
13.9954	0.63
14.0342	0.661
14.0731	0.678
14.112	0.692
14.1509	0.699
14.1897	0.686
14.2286	0.647
14.2675	0.59
14.3064	0.533
14.3452	0.526
14.3841	0.552
14.423	0.604
14.4619	0.647
14.5007	0.673
14.5396	0.692
14.5785	0.707
14.6174	0.725
14.6562	0.738
14.6951	0.752
14.734	0.757
14.7729	0.759
14.8117	0.767
14.8506	0.772
14.8895	0.769
14.9283	0.773
14.9672	0.769
15.0061	0.77
15.045	0.751
15.0838	0.738
15.1227	0.743
15.1616	0.757
15.2005	0.767
15.2393	0.764
15.2782	0.756
15.3171	0.754
15.356	0.741
15.3948	0.739
15.4337	0.736
15.4726	0.733
15.5115	0.725
15.5503	0.707
15.5892	0.702
15.6281	0.682
15.667	0.681
15.7058	0.669
15.7447	0.65
15.7836	0.64
15.8225	0.64
15.8613	0.65
15.9002	0.65
15.9391	0.673
15.978	0.668
