Infrared Spectrum: ACETANILIDE, N-BUTYL-
Formula: C12 H17 N O
CAS: 91-49-6
State: LIQUID (NEAT)
Boiling point: 141 C AT 9 mmHg
Class: COBLENTZ III
Instrument: BAIRD (PRISM)
Instrument parameters: NaCl PRISM
Sampling: TRANSMISSION
Path length: 0.003 CM
Resolution: 2
Origin: WYANDOTTE CHEMICALS CORP.
MICROMETERS	TRANSMITTANCE
2.031	0.9
2.07016	0.9
2.10932	0.905
2.14847	0.904
2.18763	0.894
2.22679	0.898
2.26595	0.901
2.30511	0.902
2.34426	0.9
2.38342	0.9
2.42258	0.911
2.46174	0.917
2.5009	0.928
2.54005	0.931
2.57921	0.933
2.61837	0.943
2.65753	0.923
2.69668	0.92
2.73584	0.905
2.775	0.877
2.81416	0.859
2.85332	0.848
2.89247	0.853
2.93163	0.864
2.97079	0.883
3.00995	0.889
3.04911	0.883
3.08826	0.898
3.12742	0.895
3.16658	0.885
3.20574	0.85
3.2449	0.703
3.28405	0.615
3.32321	0.562
3.36237	0.152
3.40153	0.175
3.44069	0.382
3.47984	0.359
3.519	0.739
3.55816	0.842
3.59732	0.912
3.63648	0.915
3.67563	0.921
3.71479	0.941
3.75395	0.938
3.79311	0.942
3.83227	0.945
3.87142	0.961
3.91058	0.963
3.94974	0.966
3.9889	0.972
4.02805	0.972
4.06721	0.984
4.10637	0.984
4.14553	0.981
4.18469	0.98
4.22384	0.975
4.263	0.986
4.30216	0.993
4.34132	0.995
4.38048	0.99
4.41963	0.982
4.45879	0.991
4.49795	0.99
4.53711	0.99
4.57627	0.991
4.61542	0.991
4.65458	0.991
4.69374	0.993
4.7329	0.99
4.77206	0.991
4.81121	0.993
4.85037	0.992
4.88953	0.992
4.92869	0.995
4.96785	0.993
5.007	0.993
5.04616	0.992
5.08532	0.982
5.12448	0.975
5.16364	0.969
5.20279	0.97
5.24195	0.988
5.28111	0.976
5.32027	0.964
5.35942	0.969
5.39858	0.987
5.43774	0.992
5.4769	0.986
5.51606	0.981
5.55521	0.969
5.59437	0.968
5.63353	0.968
5.67269	0.945
5.71185	0.927
5.751	0.923
5.79016	0.898
5.82932	0.847
5.86848	0.803
5.90764	0.632
5.94679	0.316
5.98595	0.099
6.02511	0.05
6.06427	0.063
6.10343	0.205
6.14258	0.405
6.18174	0.447
6.2209	0.095
6.26006	0.232
6.29922	0.523
6.33837	0.697
6.37753	0.732
6.41669	0.761
6.45585	0.781
6.49501	0.797
6.53416	0.804
6.57332	0.773
6.61248	0.552
6.65164	0.151
6.69079	0.23
6.72995	0.433
6.76911	0.438
6.80827	0.336
6.84743	0.271
6.88658	0.242
6.92574	0.237
6.9649	0.25
7.00406	0.299
7.04322	0.262
7.08237	0.104
7.12153	0.061
7.16069	0.047
7.19985	0.049
7.23901	0.083
7.27816	0.124
7.31732	0.158
7.35648	0.246
7.39564	0.383
7.4348	0.522
7.47395	0.598
7.51311	0.603
7.55227	0.48
7.59143	0.377
7.63059	0.196
7.66974	0.079
7.7089	0.06
7.74806	0.124
7.78722	0.153
7.82637	0.156
7.86553	0.254
7.90469	0.427
7.94385	0.486
7.98301	0.54
8.02216	0.608
8.06132	0.674
8.10048	0.706
8.13964	0.694
8.1788	0.455
8.21795	0.332
8.25711	0.428
8.29627	0.654
8.33543	0.787
8.37459	0.815
8.41374	0.842
8.4529	0.853
8.49206	0.846
8.53122	0.826
8.57038	0.837
8.60953	0.821
8.64869	0.696
8.68785	0.556
8.72701	0.584
8.76617	0.592
8.80532	0.674
8.84448	0.756
8.88364	0.799
8.9228	0.802
8.96196	0.733
9.00111	0.76
9.04027	0.807
9.07943	0.796
9.11859	0.64
9.15774	0.573
9.1969	0.621
9.23606	0.724
9.27522	0.664
9.31438	0.595
9.35353	0.726
9.39269	0.82
9.43185	0.867
9.47101	0.862
9.51017	0.861
9.54932	0.835
9.58848	0.796
9.62764	0.703
9.6668	0.647
9.70596	0.616
9.74511	0.603
9.78427	0.646
9.82343	0.73
9.86259	0.743
9.90175	0.743
9.9409	0.723
9.98006	0.711
10.0192	0.735
10.0584	0.74
10.0975	0.733
10.1367	0.727
10.1759	0.726
10.215	0.713
10.2542	0.711
10.2933	0.711
10.3325	0.711
10.3716	0.724
10.4108	0.751
10.45	0.765
10.4891	0.761
10.5283	0.764
10.5674	0.803
10.6066	0.853
10.6457	0.898
10.6849	0.918
10.7241	0.932
10.7632	0.941
10.8024	0.941
10.8415	0.926
10.8807	0.912
10.9199	0.886
10.959	0.88
10.9982	0.855
11.0373	0.832
11.0765	0.848
11.1156	0.875
11.1548	0.911
11.194	0.922
11.2331	0.943
11.2723	0.952
11.3114	0.954
11.3506	0.964
11.3897	0.964
11.4289	0.954
11.4681	0.95
11.5072	0.954
11.5464	0.954
11.5855	0.95
11.6247	0.953
11.6639	0.957
11.703	0.957
11.7422	0.963
11.7813	0.96
11.8205	0.947
11.8596	0.938
11.8988	0.929
11.938	0.928
11.9771	0.926
12.0163	0.943
12.0554	0.945
12.0946	0.945
12.1337	0.952
12.1729	0.954
12.2121	0.947
12.2512	0.942
12.2904	0.927
12.3295	0.923
12.3687	0.917
12.4079	0.922
12.447	0.918
12.4862	0.917
12.5253	0.923
12.5645	0.918
12.6036	0.905
12.6428	0.895
12.682	0.875
12.7211	0.816
12.7603	0.733
12.7994	0.601
12.8386	0.519
12.8777	0.415
12.9169	0.364
12.9561	0.361
12.9952	0.422
13.0344	0.535
13.0735	0.647
13.1127	0.721
13.1519	0.75
13.191	0.757
13.2302	0.754
13.2693	0.717
13.3085	0.678
13.3476	0.636
13.3868	0.613
13.426	0.603
13.4651	0.619
13.5043	0.673
13.5434	0.722
13.5826	0.742
13.6217	0.735
13.6609	0.705
13.7001	0.676
13.7392	0.643
13.7784	0.633
13.8175	0.63
13.8567	0.657
13.8959	0.716
13.935	0.751
13.9742	0.775
14.0133	0.782
14.0525	0.773
14.0916	0.683
14.1308	0.544
14.17	0.385
14.2091	0.275
14.2483	0.2
14.2874	0.159
14.3266	0.153
14.3658	0.159
14.4049	0.24
14.4441	0.343
14.4832	0.5
14.5224	0.619
14.5615	0.696
14.6007	0.753
14.6399	0.793
14.679	0.842
14.7182	0.861
14.7573	0.873
14.7965	0.878
14.8356	0.894
14.8748	0.901
14.914	0.902
14.9531	0.904
14.9923	0.902
15.0314	0.904
15.0706	0.905
15.1098	0.895
15.1489	0.89
15.1881	0.89
15.2272	0.895
15.2664	0.89
15.3055	0.884
15.3447	0.884
15.3839	0.886
15.423	0.888
15.4622	0.886
15.5013	0.883
15.5405	0.882
15.5796	0.883
15.6188	0.872
15.658	0.855
15.6971	0.845
15.7363	0.835
15.7754	0.818
15.8146	0.818
15.8538	0.816
15.8929	0.819
15.9321	0.82
15.9712	0.819
