Infrared Spectrum: 2-NAPHTHYLAMINE
Formula: C10 H9 N
CAS: 91-59-8
State: SOLID (1.0% IN KBr PELLET)
Class: COBLENTZ
Instrument: Not specified, most likely a prism, grating, or hybrid spectrometer.
Sampling: TRANSMISSION
Path length: 0.0355 CM THICK
Resolution: 4
Origin: ANDERSON PHYSICAL LABORATORY
1/CM	TRANSMITTANCE
672.682	0.652
681.083	0.646
689.484	0.629
697.884	0.606
706.285	0.591
714.686	0.5311
723.087	0.667
731.487	0.6501
739.888	0.448
748.289	0.242
756.69	0.486
765.09	0.7749
773.491	0.796
781.892	0.84
790.293	0.84
798.693	0.837
807.094	0.825
815.495	0.4391
823.896	0.322
832.296	0.71
840.697	0.918
849.098	0.515
857.499	0.5213
865.899	0.6286
874.3	0.969
882.701	0.96
891.102	0.703
899.502	0.944
907.903	0.939
916.304	0.965
924.705	0.978
933.105	0.969
941.506	0.96
949.907	0.9141
958.308	0.7691
966.708	0.655
975.109	0.856
983.51	0.884
991.911	0.881
1000.31	0.885
1008.71	0.882
1017.11	0.87
1025.51	0.777
1033.91	0.862
1042.32	0.867
1050.72	0.868
1059.12	0.867
1067.52	0.861
1075.92	0.858
1084.32	0.853
1092.72	0.849
1101.12	0.826
1109.52	0.817
1117.92	0.81
1126.32	0.793
1134.72	0.6459
1143.12	0.811
1151.53	0.743
1159.93	0.75
1168.33	0.775
1176.73	0.777
1185.13	0.748
1193.53	0.5362
1201.93	0.7687
1210.33	0.814
1218.73	0.799
1227.13	0.728
1235.53	0.501
1243.93	0.796
1252.33	0.817
1260.73	0.813
1269.14	0.7591
1277.54	0.567
1285.94	0.5942
1294.34	0.5029
1302.74	0.7069
1311.14	0.852
1319.54	0.855
1327.94	0.855
1336.34	0.84
1344.74	0.822
1353.14	0.792
1361.54	0.728
1369.94	0.629
1378.35	0.603
1386.75	0.653
1395.15	0.6381
1403.55	0.634
1411.95	0.805
1420.35	0.807
1428.75	0.807
1437.15	0.811
1445.55	0.805
1453.95	0.7501
1462.35	0.695
1470.75	0.731
1479.15	0.581
1487.56	0.665
1495.96	0.766
1504.36	0.757
1512.76	0.626
1521.16	0.3324
1529.56	0.5418
1537.96	0.7989
1546.36	0.81
1554.76	0.807
1563.16	0.799
1571.56	0.78
1579.96	0.728
1588.36	0.644
1596.77	0.585
1605.17	0.4201
1613.57	0.4779
1621.97	0.433
1630.37	0.2531
1638.77	0.185
1647.17	0.347
1655.57	0.527
1663.97	0.725
1672.37	0.775
1680.77	0.771
1689.17	0.787
1697.57	0.829
1705.97	0.837
1714.38	0.843
1722.78	0.844
1731.18	0.847
1739.58	0.837
1747.98	0.84
1756.38	0.838
1764.78	0.837
1773.18	0.832
1781.58	0.843
1789.98	0.837
1798.38	0.832
1806.78	0.825
1815.18	0.825
1823.59	0.822
1831.99	0.813
1840.39	0.814
1848.79	0.819
1857.19	0.822
1865.59	0.817
1873.99	0.817
1882.39	0.813
1890.79	0.802
1899.19	0.795
1907.59	0.784
1915.99	0.777
1924.39	0.78
1932.8	0.78
1941.2	0.781
1949.6	0.783
1958	0.783
1966.4	0.784
1974.8	0.798
1983.2	0.799
1991.6	0.798
2000	0.798
2008.4	0.7975
2016.8	0.796
2025.2	0.796
2033.6	0.7921
2042.01	0.7898
2050.41	0.7865
2058.81	0.783
2067.21	0.7781
2075.61	0.777
2084.01	0.777
2092.41	0.7756
2100.81	0.7711
2109.21	0.7706
2117.61	0.769
2126.01	0.769
2134.41	0.768
2142.81	0.7658
2151.21	0.763
2159.62	0.7609
2168.02	0.7561
2176.42	0.753
2184.82	0.751
2193.22	0.7503
2201.62	0.75
2210.02	0.751
2218.42	0.7506
2226.82	0.748
2235.22	0.748
2243.62	0.745
2252.02	0.743
2260.42	0.742
2268.83	0.7372
2277.23	0.7357
2285.63	0.734
2294.03	0.7334
2302.43	0.7282
2310.83	0.7267
2319.23	0.7246
2327.63	0.724
2336.03	0.725
2344.43	0.725
2352.83	0.7246
2361.23	0.7191
2369.63	0.716
2378.04	0.7151
2386.44	0.718
2394.84	0.719
2403.24	0.718
2411.64	0.7129
2420.04	0.7096
2428.44	0.707
2436.84	0.707
2445.24	0.707
2453.64	0.706
2462.04	0.706
2470.44	0.7043
2478.84	0.704
2487.25	0.704
2495.65	0.704
2504.05	0.7032
2512.45	0.7009
2520.85	0.6994
2529.25	0.6974
2537.65	0.6954
2546.05	0.6919
2554.45	0.6887
2562.85	0.686
2571.25	0.685
2579.65	0.68
2588.05	0.6784
2596.45	0.676
2604.86	0.676
2613.26	0.6759
2621.66	0.6737
2630.06	0.672
2638.46	0.6702
2646.86	0.6699
2655.26	0.6672
2663.66	0.663
2672.06	0.6582
2680.46	0.656
2688.86	0.6545
2697.26	0.653
2705.66	0.6505
2714.07	0.649
2722.47	0.6462
2730.87	0.642
2739.27	0.641
2747.67	0.641
2756.07	0.6408
2764.47	0.6365
2772.87	0.6343
2781.27	0.634
2789.67	0.631
2798.07	0.628
2806.47	0.6253
2814.87	0.623
2823.28	0.621
2831.68	0.6186
2840.08	0.6126
2848.48	0.611
2856.88	0.609
2865.28	0.609
2873.68	0.609
2882.08	0.608
2890.48	0.6058
2898.88	0.6041
2907.28	0.6023
2915.68	0.6001
2924.08	0.5968
2932.49	0.5891
2940.89	0.585
2949.29	0.5812
2957.69	0.5715
2966.09	0.5682
2974.49	0.5626
2982.89	0.5582
2991.29	0.5515
2999.69	0.5436
3008.09	0.5258
3016.49	0.5039
3024.89	0.4977
3033.29	0.4956
3041.69	0.4937
3050.1	0.4893
3058.5	0.4746
3066.9	0.4642
3075.3	0.4656
3083.7	0.4829
3092.1	0.5008
3100.5	0.5141
3108.9	0.5239
3117.3	0.527
3125.7	0.528
3134.1	0.5259
3142.5	0.5214
3150.9	0.5075
3159.31	0.4936
3167.71	0.466
3176.11	0.436
3184.51	0.4133
3192.91	0.4016
3201.31	0.3939
3209.71	0.3826
3218.11	0.3782
3226.51	0.3782
3234.91	0.386
3243.31	0.3941
3251.71	0.3986
3260.11	0.4
3268.52	0.399
3276.92	0.3979
3285.32	0.3883
3293.72	0.3646
3302.12	0.3436
3310.52	0.3226
3318.92	0.316
3327.32	0.308
3335.72	0.3112
3344.12	0.3258
3352.52	0.3497
3360.92	0.3792
3369.32	0.3898
3377.73	0.397
3386.13	0.3885
3394.53	0.3745
3402.93	0.3261
3411.33	0.306
3419.73	0.3124
3428.13	0.3494
3436.53	0.3947
3444.93	0.4276
3453.33	0.4492
3461.73	0.4601
3470.13	0.4673
3478.53	0.473
3486.93	0.4747
3495.34	0.475
3503.74	0.4755
3512.14	0.477
3520.54	0.4777
3528.94	0.478
3537.34	0.48
3545.74	0.4805
3554.14	0.4824
3562.54	0.484
3570.94	0.486
3579.34	0.487
3587.74	0.489
3596.14	0.49
3604.55	0.4922
3612.95	0.4939
3621.35	0.4957
3629.75	0.4998
3638.15	0.503
3646.55	0.5035
3654.95	0.504
3663.35	0.504
3671.75	0.504
3680.15	0.504
3688.55	0.504
3696.95	0.504
3705.35	0.504
3713.76	0.504
3722.16	0.503
3730.56	0.503
3738.96	0.504
3747.36	0.503
3755.76	0.503
3764.16	0.503
3772.56	0.5027
3780.96	0.501
3789.36	0.501
3797.76	0.4962
3806.16	0.492
3814.56	0.49
3822.97	0.489
3831.37	0.4872
3839.77	0.4869
3848.17	0.4852
3856.57	0.483
3864.97	0.481
3873.37	0.481
3881.77	0.4806
3890.17	0.4788
3898.57	0.4771
3906.97	0.475
3915.37	0.475
3923.77	0.475
3932.17	0.4742
3940.58	0.4719
3948.98	0.4703
3957.38	0.4684
3965.78	0.4655
3974.18	0.463
3982.58	0.463
