Infrared Spectrum: NAPHTHALENE, 2-CHLORO-
Formula: C10 H7 Cl
CAS: 91-58-7
State: SOLUTION (10% IN CCl4 FOR 3800-1300 AND 10% IN CS2 FOR 1300-400 CM^-^1)
Class: COBLENTZ III
Instrument: BECKMAN IR-9 (GRATING)
Instrument parameters: ORDER CHANGES AT 670, 1200, 2000 CM^-^1
Sampling: TRANSMISSION
Path length: 0.011, 0.011 CM
Resolution: 4
Origin: DOW CHEMICAL COMPANY
1/CM	TRANSMITTANCE
400	0.375
408.677	0.322
417.354	0.379
426.03	0.586
434.707	0.674
443.384	0.731
452.061	0.778
460.738	0.789
469.414	0.282
478.091	0.61
486.768	0.859
495.445	0.894
504.122	0.91
512.798	0.924
521.475	0.94
530.152	0.945
538.829	0.952
547.506	0.955
556.182	0.958
564.859	0.958
573.536	0.958
582.213	0.939
590.89	0.941
599.566	0.728
608.243	0.909
616.92	0.931
625.597	0.9
634.274	0.932
642.95	0.805
651.627	0.895
660.304	0.912
668.981	0.933
677.658	0.947
686.334	0.954
695.011	0.954
703.688	0.948
712.365	0.947
721.042	0.927
729.718	0.863
738.395	0.375
747.072	0.593
755.749	0.616
764.426	0.863
773.102	0.875
781.779	0.24
790.456	0.84
799.133	0.702
807.81	0.074
816.486	0.782
825.163	0.863
833.84	0.829
842.517	0.616
851.194	0.017
859.87	0.645
868.547	0.768
877.224	0.5429
885.901	0.791
894.578	0.866
903.254	0.924
911.931	0.94
920.608	0.94
929.285	0.901
937.962	0.6849
946.638	0.759
955.315	0.61
963.992	0.9
972.669	0.918
981.346	0.928
990.022	0.943
998.699	0.941
1007.38	0.851
1016.05	0.912
1024.73	0.941
1033.41	0.952
1042.08	0.955
1050.76	0.944
1059.44	0.89
1068.11	0.762
1076.79	0.0752
1085.47	0.921
1094.14	0.947
1102.82	0.955
1111.5	0.947
1120.17	0.891
1128.85	0.4
1137.53	0.7969
1146.2	0.87
1154.88	0.89
1163.56	0.917
1172.24	0.935
1180.91	0.929
1189.59	0.627
1198.27	0.874
1206.94	0.875
1215.62	0.92
1224.3	0.89
1232.97	0.79
1241.65	0.92
1250.33	0.932
1259	0.786
1267.68	0.824
1276.36	0.935
1285.03	0.955
1293.71	0.96
1302.39	0.963
1311.06	0.951
1319.74	0.954
1328.42	0.944
1337.09	0.889
1345.77	0.61
1354.45	0.801
1363.12	0.809
1371.8	0.914
1380.48	0.901
1389.16	0.889
1397.83	0.947
1406.51	0.947
1415.19	0.94
1423.86	0.935
1432.54	0.901
1441.22	0.913
1449.89	0.66
1458.57	0.716
1467.25	0.909
1475.92	0.87
1484.6	0.813
1493.28	0.716
1501.95	0.101
1510.63	0.706
1519.31	0.708
1527.98	0.667
1536.66	0.581
1545.34	0.482
1554.01	0.491
1562.69	0.539
1571.37	0.548
1580.04	0.393
1588.72	0.4041
1597.4	0.533
1606.08	0.802
1614.75	0.837
1623.43	0.6599
1632.11	0.872
1640.78	0.925
1649.46	0.932
1658.14	0.928
1666.81	0.933
1675.49	0.932
1684.17	0.925
1692.84	0.914
1701.52	0.901
1710.2	0.918
1718.87	0.913
1727.55	0.912
1736.23	0.905
1744.9	0.922
1753.58	0.886
1762.26	0.904
1770.93	0.937
1779.61	0.943
1788.29	0.937
1796.96	0.913
1805.64	0.932
1814.32	0.941
1823	0.916
1831.67	0.918
1840.35	0.922
1849.03	0.941
1857.7	0.939
1866.38	0.954
1875.06	0.958
1883.73	0.944
1892.41	0.912
1901.09	0.883
1909.76	0.921
1918.44	0.908
1927.12	0.925
1935.79	0.927
1944.47	0.9
1953.15	0.924
1961.82	0.956
1970.5	0.959
1979.18	0.956
1987.85	0.956
1996.53	0.956
2005.21	0.958
2013.88	0.958
2022.56	0.959
2031.24	0.9601
2039.92	0.9619
2048.59	0.9629
2057.27	0.966
2065.95	0.966
2074.62	0.963
2083.3	0.9657
2091.98	0.967
2100.65	0.966
2109.33	0.967
2118.01	0.968
2126.68	0.9695
2135.36	0.968
2144.04	0.9673
2152.71	0.9663
2161.39	0.97
2170.07	0.968
2178.74	0.968
2187.42	0.9707
2196.1	0.97
2204.77	0.97
2213.45	0.9692
2222.13	0.9674
2230.8	0.964
2239.48	0.967
2248.16	0.9635
2256.84	0.9595
2265.51	0.954
2274.19	0.944
2282.87	0.9165
2291.54	0.928
2300.22	0.9374
2308.9	0.941
2317.57	0.9459
2326.25	0.948
2334.93	0.95
2343.6	0.9527
2352.28	0.956
2360.96	0.958
2369.63	0.956
2378.31	0.9566
2386.99	0.96
2395.66	0.9633
2404.34	0.9655
2413.02	0.9598
2421.69	0.958
2430.37	0.9637
2439.05	0.9668
2447.72	0.966
2456.4	0.966
2465.08	0.9657
2473.76	0.959
2482.43	0.9631
2491.11	0.9679
2499.79	0.966
2508.46	0.9671
2517.14	0.9681
2525.82	0.9699
2534.49	0.97
2543.17	0.971
2551.85	0.974
2560.52	0.97
2569.2	0.967
2577.88	0.967
2586.55	0.968
2595.23	0.9679
2603.91	0.97
2612.58	0.9701
2621.26	0.97
2629.94	0.968
2638.61	0.966
2647.29	0.967
2655.97	0.9678
2664.64	0.97
2673.32	0.971
2682	0.97
2690.68	0.9685
2699.35	0.97
2708.03	0.9686
2716.71	0.967
2725.38	0.968
2734.06	0.9707
2742.74	0.972
2751.41	0.97
2760.09	0.9706
2768.77	0.9716
2777.44	0.972
2786.12	0.972
2794.8	0.971
2803.47	0.971
2812.15	0.9691
2820.83	0.969
2829.5	0.9705
2838.18	0.971
2846.86	0.968
2855.53	0.968
2864.21	0.97
2872.89	0.97
2881.56	0.968
2890.24	0.967
2898.92	0.968
2907.6	0.966
2916.27	0.9637
2924.95	0.956
2933.63	0.95
2942.3	0.947
2950.98	0.9357
2959.66	0.9317
2968.33	0.9225
2977.01	0.933
2985.69	0.928
2994.36	0.9218
3003.04	0.9018
3011.72	0.8776
3020.39	0.8318
3029.07	0.8274
3037.75	0.811
3046.42	0.6911
3055.1	0.4538
3063.78	0.5086
3072.45	0.7793
3081.13	0.8309
3089.81	0.8594
3098.48	0.9241
3107.16	0.94
3115.84	0.948
3124.52	0.951
3133.19	0.9539
3141.87	0.9559
3150.55	0.958
3159.22	0.958
3167.9	0.959
3176.58	0.96
3185.25	0.966
3193.93	0.97
3202.61	0.967
3211.28	0.9678
3219.96	0.9696
3228.64	0.9718
3237.31	0.974
3245.99	0.974
3254.67	0.974
3263.34	0.975
3272.02	0.974
3280.7	0.9747
3289.37	0.975
3298.05	0.975
3306.73	0.975
3315.4	0.9746
3324.08	0.975
3332.76	0.975
3341.43	0.975
3350.11	0.975
3358.79	0.975
3367.47	0.975
3376.14	0.974
3384.82	0.974
3393.5	0.975
3402.17	0.975
3410.85	0.975
3419.53	0.975
3428.2	0.975
3436.88	0.975
3445.56	0.975
3454.23	0.975
3462.91	0.975
3471.59	0.975
3480.26	0.974
3488.94	0.974
3497.62	0.974
3506.29	0.974
3514.97	0.974
3523.65	0.974
3532.32	0.9748
3541	0.972
3549.68	0.9736
3558.35	0.972
3567.03	0.972
3575.71	0.972
3584.39	0.9737
3593.06	0.972
3601.74	0.972
3610.42	0.974
3619.09	0.974
3627.77	0.974
3636.45	0.972
3645.12	0.972
3653.8	0.972
3662.48	0.972
3671.15	0.971
3679.83	0.97
3688.51	0.9739
3697.18	0.972
3705.86	0.972
3714.54	0.9711
3723.21	0.972
3731.89	0.971
3740.57	0.974
3749.24	0.974
3757.92	0.974
3766.6	0.975
3775.27	0.974
3783.95	0.974
3792.63	0.975
