Infrared Spectrum: N,N-DIETHYLANILINE
Formula: C10 H15 N
CAS: 91-66-7
State: LIQUID (NEAT)
Boiling point: 217 C
Class: COBLENTZ III
Instrument: BECKMAN IR-4 (HYBRID PRISM-GRATING)
Sampling: TRANSMISSION
Path length: CAPILLARY
Resolution: 4
Origin: UNIVERSITY OF FLORIDA
MICROMETERS	TRANSMITTANCE
0.975	0.911
1.01162	0.912
1.04824	0.914
1.08486	0.914
1.12148	0.914
1.1581	0.913
1.19472	0.914
1.23134	0.916
1.26795	0.916
1.30457	0.916
1.34119	0.916
1.37781	0.916
1.41443	0.913
1.45105	0.912
1.48767	0.911
1.52429	0.913
1.56091	0.914
1.59753	0.915
1.63415	0.916
1.67077	0.917
1.70739	0.917
1.74401	0.917
1.78063	0.917
1.81724	0.918
1.85386	0.918
1.89048	0.918
1.9271	0.917
1.96372	0.917
2.00034	0.915
2.03696	0.914
2.07358	0.909
2.1102	0.909
2.14682	0.909
2.18344	0.907
2.22006	0.898
2.25668	0.894
2.2933	0.9
2.32991	0.904
2.36653	0.903
2.40315	0.898
2.43977	0.889
2.47639	0.906
2.51301	0.908
2.54963	0.909
2.58625	0.908
2.62287	0.908
2.65949	0.911
2.69611	0.908
2.73273	0.908
2.76935	0.907
2.80597	0.907
2.84259	0.906
2.8792	0.897
2.91582	0.887
2.95244	0.886
2.98906	0.896
3.02568	0.898
3.0623	0.896
3.09892	0.895
3.13554	0.882
3.17216	0.876
3.20878	0.838
3.2454	0.726
3.28202	0.657
3.31864	0.666
3.35526	0.419
3.39188	0.462
3.42849	0.51
3.46511	0.51
3.50173	0.686
3.53835	0.762
3.57497	0.83
3.61159	0.867
3.64821	0.873
3.68483	0.871
3.72145	0.874
3.75807	0.88
3.79469	0.881
3.83131	0.88
3.86793	0.881
3.90455	0.882
3.94117	0.885
3.97778	0.9
4.0144	0.9
4.05102	0.903
4.08764	0.904
4.12426	0.905
4.16088	0.899
4.1975	0.901
4.23412	0.907
4.27074	0.907
4.30736	0.907
4.34398	0.908
4.3806	0.907
4.41722	0.908
4.45384	0.908
4.49045	0.906
4.52707	0.907
4.56369	0.908
4.60031	0.907
4.63693	0.909
4.67355	0.908
4.71017	0.904
4.74679	0.905
4.78341	0.907
4.82003	0.903
4.85665	0.907
4.89327	0.907
4.92989	0.908
4.96651	0.908
5.00313	0.9
5.03974	0.89
5.07636	0.9
5.11298	0.897
5.1496	0.882
5.18622	0.864
5.22284	0.854
5.25946	0.863
5.29608	0.883
5.3327	0.889
5.36932	0.897
5.40594	0.896
5.44256	0.888
5.47918	0.873
5.5158	0.87
5.55242	0.88
5.58903	0.884
5.62565	0.881
5.66227	0.879
5.69889	0.876
5.73551	0.873
5.77213	0.869
5.80875	0.859
5.84537	0.85
5.88199	0.855
5.91861	0.85
5.95523	0.839
5.99185	0.823
6.02847	0.816
6.06509	0.798
6.1017	0.779
6.13832	0.72
6.17494	0.5
6.21156	0.265
6.24818	0.129
6.2848	0.241
6.32142	0.51
6.35804	0.51
6.39466	0.697
6.43128	0.736
6.4679	0.71
6.50452	0.678
6.54114	0.503
6.57776	0.299
6.61438	0.159
6.65099	0.202
6.68761	0.429
6.72423	0.556
6.76085	0.53
6.79747	0.49
6.83409	0.575
6.87071	0.537
6.90733	0.548
6.94395	0.674
6.98057	0.748
7.01719	0.751
7.05381	0.732
7.09043	0.693
7.12705	0.47
7.16367	0.391
7.20028	0.459
7.2369	0.409
7.27352	0.31
7.31014	0.412
7.34676	0.25
7.38338	0.233
7.42	0.415
7.45662	0.572
7.49324	0.635
7.52986	0.686
7.56648	0.702
7.6031	0.73
7.63972	0.75
7.67634	0.743
7.71296	0.728
7.74957	0.701
7.78619	0.635
7.82281	0.514
7.85943	0.369
7.89605	0.21
7.93267	0.26
7.96929	0.416
8.00591	0.573
8.04253	0.669
8.07915	0.74
8.11577	0.76
8.15239	0.759
8.18901	0.752
8.22563	0.717
8.26224	0.646
8.29886	0.473
8.33548	0.28
8.3721	0.303
8.40872	0.434
8.44534	0.61
8.48196	0.695
8.51858	0.74
8.5552	0.73
8.59182	0.689
8.62844	0.534
8.66506	0.486
8.70168	0.586
8.7383	0.645
8.77492	0.69
8.81153	0.767
8.84815	0.792
8.88477	0.799
8.92139	0.796
8.95801	0.785
8.99463	0.774
9.03125	0.763
9.06787	0.737
9.10449	0.686
9.14111	0.591
9.17773	0.602
9.21435	0.639
9.25097	0.6
9.28759	0.515
9.32421	0.529
9.36082	0.59
9.39744	0.65
9.43406	0.727
9.47068	0.765
9.5073	0.785
9.54392	0.775
9.58054	0.751
9.61716	0.563
9.65378	0.47
9.6904	0.599
9.72702	0.736
9.76364	0.741
9.80026	0.715
9.83688	0.654
9.8735	0.591
9.91011	0.597
9.94673	0.643
9.98335	0.72
10.02	0.765
10.0566	0.768
10.0932	0.755
10.1298	0.676
10.1664	0.701
10.2031	0.793
10.2397	0.84
10.2763	0.847
10.3129	0.857
10.3495	0.859
10.3862	0.863
10.4228	0.866
10.4594	0.866
10.496	0.865
10.5326	0.866
10.5693	0.869
10.6059	0.869
10.6425	0.869
10.6791	0.869
10.7157	0.867
10.7524	0.864
10.789	0.859
10.8256	0.848
10.8622	0.842
10.8988	0.837
10.9355	0.85
10.9721	0.857
11.0087	0.865
11.0453	0.863
11.0819	0.858
11.1186	0.851
11.1552	0.844
11.1918	0.846
11.2284	0.852
11.265	0.86
11.3016	0.866
11.3383	0.864
11.3749	0.86
11.4115	0.855
11.4481	0.849
11.4847	0.843
11.5214	0.814
11.558	0.794
11.5946	0.762
11.6312	0.728
11.6678	0.722
11.7045	0.744
11.7411	0.784
11.7777	0.814
11.8143	0.841
11.8509	0.855
11.8876	0.859
11.9242	0.862
11.9608	0.861
11.9974	0.86
12.034	0.857
12.0707	0.856
12.1073	0.854
12.1439	0.849
12.1805	0.845
12.2171	0.841
12.2538	0.835
12.2904	0.827
12.327	0.814
12.3636	0.798
12.4002	0.793
12.4368	0.777
12.4735	0.771
12.5101	0.755
12.5467	0.719
12.5833	0.675
12.6199	0.61
12.6566	0.559
12.6932	0.562
12.7298	0.604
12.7664	0.645
12.803	0.698
12.8397	0.74
12.8763	0.766
12.9129	0.777
12.9495	0.779
12.9861	0.778
13.0228	0.769
13.0594	0.763
13.096	0.746
13.1326	0.724
13.1692	0.694
13.2059	0.647
13.2425	0.574
13.2791	0.501
13.3157	0.371
13.3523	0.244
13.3889	0.136
13.4256	0.106
13.4622	0.119
13.4988	0.191
13.5354	0.296
13.572	0.423
13.6087	0.531
13.6453	0.612
13.6819	0.672
13.7185	0.702
13.7551	0.72
13.7918	0.727
13.8284	0.728
13.865	0.723
13.9016	0.713
13.9382	0.694
13.9749	0.677
14.0115	0.686
14.0481	0.699
14.0847	0.714
14.1213	0.715
14.158	0.705
14.1946	0.693
14.2312	0.67
14.2678	0.635
14.3044	0.588
14.3411	0.517
14.3777	0.42
14.4143	0.302
14.4509	0.21
14.4875	0.171
14.5241	0.202
14.5608	0.261
14.5974	0.355
14.634	0.443
14.6706	0.513
14.7072	0.57
14.7439	0.6
14.7805	0.626
14.8171	0.64
14.8537	0.648
14.8903	0.652
14.927	0.652
14.9636	0.652
15.0002	0.652
