Infrared Spectrum: ANILINE, DIBENZYL-
Formula: C20 H19 N
CAS: 91-73-6
State: SOLUTION (10% CCl4 FOR 3800-1330, 10% CS2 FOR 1330-400)
Class: COBLENTZ III
Instrument: BECKMAN IR-9 (GRATING)
Instrument parameters: ORDER CHANGES: 670, 1200, 2000 CM^-^1
Sampling: TRANSMISSION
Path length: 0.010 CM, 0.010 CM
Resolution: 2
Origin: DOW CHEMICAL COMPANY
1/CM	TRANSMITTANCE
399	0.3052
408	0.303
417	0.3584
426	0.481
435	0.6038
444	0.6445
453	0.4931
462	0.7096
471	0.7698
480	0.7985
489	0.7998
498	0.6984
507	0.6911
516	0.7372
525	0.7158
534	0.7538
543	0.8042
552	0.8474
561	0.8657
570	0.8623
579	0.8489
588	0.8439
597	0.8211
606	0.8088
615	0.7956
624	0.7697
633	0.7351
642	0.7274
651	0.7761
660	0.7756
669	0.7453
678	0.6019
687	0.1103
696	0.1366
705	0.6637
714	0.4412
723	0.0514
732	0.2669
741	0.1689
750	0.2665
759	0.5419
768	0.7043
777	0.7807
786	0.7641
795	0.7805
804	0.7878
813	0.8047
822	0.8235
831	0.8094
840	0.7558
849	0.6925
858	0.5903
867	0.715
876	0.7556
885	0.773
894	0.7745
903	0.8025
912	0.8286
921	0.8134
930	0.7426
939	0.6309
948	0.407
957	0.499
966	0.7675
975	0.7528
984	0.4056
993	0.791
1002	0.8296
1011	0.8092
1020	0.4985
1029	0.7532
1038	0.7855
1047	0.7915
1056	0.8115
1065	0.7031
1074	0.7008
1083	0.8274
1092	0.8373
1101	0.8172
1110	0.8371
1119	0.8371
1128	0.798
1137	0.7328
1146	0.6251
1155	0.5044
1164	0.52
1173	0.6462
1182	0.6292
1191	0.4699
1200	0.337
1209	0.4872
1218	0.3472
1227	0.2106
1236	0.4662
1245	0.6196
1254	0.5857
1263	0.6803
1272	0.6611
1281	0.6936
1290	0.5021
1299	0.7155
1308	0.7371
1317	0.6327
1326	0.6978
1335	0.6014
1344	0.4538
1353	0.167
1362	0.5681
1371	0.6155
1380	0.491
1389	0.3864
1398	0.5345
1407	0.7401
1416	0.773
1425	0.7005
1434	0.6268
1443	0.4282
1452	0.1729
1461	0.7067
1470	0.6833
1479	0.6508
1488	0.3209
1497	0.1545
1506	0.0123
1515	0.4485
1524	0.5269
1533	0.5275
1542	0.4755
1551	0.4408
1560	0.476
1569	0.4124
1578	0.3542
1587	0.2988
1596	0.035
1605	0.2413
1614	0.5315
1623	0.7314
1632	0.8015
1641	0.8259
1650	0.8342
1659	0.8366
1668	0.8398
1677	0.8487
1686	0.8599
1695	0.8725
1704	0.879
1713	0.874
1722	0.8648
1731	0.8541
1740	0.8582
1749	0.8546
1758	0.8681
1767	0.8704
1776	0.8694
1785	0.8694
1794	0.8463
1803	0.7946
1812	0.8389
1821	0.8488
1830	0.865
1839	0.8734
1848	0.8431
1857	0.8344
1866	0.8439
1875	0.8551
1884	0.8732
1893	0.8708
1902	0.8533
1911	0.8374
1920	0.8533
1929	0.8466
1938	0.8001
1947	0.8268
1956	0.8458
1965	0.8631
1974	0.8775
1983	0.8758
1992	0.878
2001	0.8815
2010	0.8875
2019	0.8903
2028	0.8939
2037	0.8953
2046	0.8965
2055	0.8971
2064	0.898
2073	0.8977
2082	0.8973
2091	0.8967
2100	0.8958
2109	0.8951
2118	0.8947
2127	0.8947
2136	0.8946
2145	0.8943
2154	0.8938
2163	0.8932
2172	0.8927
2181	0.892
2190	0.8912
2199	0.8904
2208	0.8896
2217	0.8882
2226	0.8862
2235	0.8821
2244	0.8756
2253	0.8691
2262	0.8673
2271	0.8668
2280	0.8677
2289	0.8682
2298	0.8684
2307	0.8688
2316	0.8698
2325	0.8708
2334	0.8721
2343	0.8738
2352	0.8756
2361	0.8773
2370	0.8789
2379	0.8805
2388	0.8821
2397	0.8828
2406	0.8833
2415	0.8849
2424	0.8875
2433	0.8886
2442	0.8884
2451	0.8874
2460	0.8862
2469	0.8849
2478	0.8832
2487	0.8812
2496	0.8791
2505	0.8778
2514	0.8797
2523	0.8808
2532	0.8796
2541	0.8765
2550	0.8736
2559	0.8705
2568	0.8674
2577	0.8646
2586	0.8625
2595	0.8605
2604	0.8592
2613	0.859
2622	0.8631
2631	0.8688
2640	0.8717
2649	0.8735
2658	0.8749
2667	0.8747
2676	0.8736
2685	0.8721
2694	0.8709
2703	0.8709
2712	0.8705
2721	0.8699
2730	0.8693
2739	0.869
2748	0.8688
2757	0.8681
2766	0.8634
2775	0.8533
2784	0.8406
2793	0.8268
2802	0.8121
2811	0.8068
2820	0.7978
2829	0.7644
2838	0.715
2847	0.6725
2856	0.6541
2865	0.6758
2874	0.7168
2883	0.7092
2892	0.696
2901	0.6778
2910	0.6692
2919	0.6728
2928	0.7087
2937	0.7525
2946	0.788
2955	0.8092
2964	0.8281
2973	0.8356
2982	0.8315
2991	0.795
3000	0.7454
3009	0.614
3018	0.4601
3027	0.3998
3036	0.5632
3045	0.6172
3054	0.5071
3063	0.4237
3072	0.6521
3081	0.5657
3090	0.6778
3099	0.7536
3108	0.8195
3117	0.8599
3126	0.8786
3135	0.8845
3144	0.8878
3153	0.8904
3162	0.891
3171	0.8914
3180	0.892
3189	0.8927
3198	0.8937
3207	0.8936
3216	0.8936
3225	0.8936
3234	0.8936
3243	0.8936
3252	0.8933
3261	0.8928
3270	0.8923
3279	0.8917
3288	0.8913
3297	0.891
3306	0.8908
3315	0.8906
3324	0.8904
3333	0.8902
3342	0.8901
3351	0.8899
3360	0.8897
3369	0.8894
3378	0.8892
3387	0.889
3396	0.8888
3405	0.8885
3414	0.8883
3423	0.8882
3432	0.8882
3441	0.8882
3450	0.8882
3459	0.8882
3468	0.8882
3477	0.888
3486	0.8878
3495	0.8878
3504	0.8875
3513	0.8877
3522	0.8881
3531	0.8885
3540	0.8889
3549	0.8894
3558	0.8875
3567	0.8703
3576	0.8724
3585	0.8793
3594	0.882
3603	0.8825
3612	0.8838
3621	0.8848
3630	0.8856
3639	0.8864
3648	0.8871
3657	0.8883
3666	0.8895
3675	0.8905
3684	0.8902
3693	0.8898
3702	0.8895
3711	0.889
3720	0.8889
3729	0.8888
3738	0.8888
3747	0.8892
3756	0.8898
3765	0.8903
3774	0.89
3783	0.8897
3792	0.8894
