Infrared Spectrum: CHOLESTERYL CHLORIDE
Formula: C27 H45 Cl
CAS: 910-31-6
State: SOLID (1.5% IN KBr PELLET)
Class: COBLENTZ
Instrument: Not specified, most likely a prism, grating, or hybrid spectrometer.
Sampling: TRANSMISSION
Path length: 0.0355 CM THICK
Resolution: 4
Origin: ANDERSON PHYSICAL LABORATORY
1/CM	TRANSMITTANCE
669.054	0.834
677.46	0.837
685.866	0.839
694.272	0.839
702.678	0.837
711.084	0.828
719.49	0.798
727.896	0.635
736.302	0.752
744.708	0.765
753.114	0.424
761.52	0.456
769.926	0.837
778.332	0.869
786.738	0.867
795.144	0.846
803.55	0.683
811.956	0.767
820.362	0.836
828.768	0.816
837.174	0.785
845.58	0.797
853.986	0.84
862.392	0.828
870.798	0.596
879.204	0.815
887.61	0.848
896.016	0.852
904.422	0.827
912.828	0.833
921.234	0.809
929.64	0.7591
938.046	0.77
946.451	0.776
954.857	0.677
963.263	0.6869
971.669	0.795
980.075	0.747
988.481	0.687
996.887	0.585
1005.29	0.731
1013.7	0.764
1022.11	0.756
1030.51	0.71
1038.92	0.7399
1047.32	0.794
1055.73	0.795
1064.14	0.794
1072.54	0.764
1080.95	0.782
1089.35	0.792
1097.76	0.78
1106.17	0.786
1114.57	0.761
1122.98	0.708
1131.38	0.705
1139.79	0.725
1148.2	0.728
1156.6	0.708
1165.01	0.647
1173.41	0.45
1181.82	0.6739
1190.23	0.747
1198.63	0.738
1207.04	0.752
1215.44	0.726
1223.85	0.737
1232.25	0.695
1240.66	0.69
1249.07	0.749
1257.47	0.714
1265.88	0.71
1274.28	0.711
1282.69	0.662
1291.1	0.692
1299.5	0.716
1307.91	0.723
1316.31	0.722
1324.72	0.699
1333.13	0.708
1341.53	0.623
1349.94	0.602
1358.34	0.6409
1366.75	0.666
1375.16	0.516
1383.56	0.489
1391.97	0.453
1400.37	0.618
1408.78	0.731
1417.19	0.737
1425.59	0.725
1434	0.696
1442.4	0.591
1450.81	0.445
1459.22	0.388
1467.62	0.285
1476.03	0.216
1484.43	0.49
1492.84	0.668
1501.25	0.741
1509.65	0.755
1518.06	0.764
1526.46	0.771
1534.87	0.773
1543.28	0.773
1551.68	0.774
1560.09	0.771
1568.49	0.771
1576.9	0.771
1585.31	0.768
1593.71	0.764
1602.12	0.755
1610.52	0.746
1618.93	0.737
1627.34	0.731
1635.74	0.732
1644.15	0.734
1652.55	0.752
1660.96	0.758
1669.37	0.764
1677.77	0.77
1686.18	0.77
1694.58	0.771
1702.99	0.771
1711.4	0.771
1719.8	0.774
1728.21	0.771
1736.61	0.771
1745.02	0.773
1753.43	0.773
1761.83	0.774
1770.24	0.774
1778.64	0.779
1787.05	0.776
1795.46	0.776
1803.86	0.776
1812.27	0.776
1820.67	0.774
1829.08	0.774
1837.49	0.774
1845.89	0.776
1854.3	0.771
1862.7	0.771
1871.11	0.771
1879.52	0.771
1887.92	0.771
1896.33	0.768
1904.73	0.768
1913.14	0.768
1921.55	0.77
1929.95	0.771
1938.36	0.77
1946.76	0.77
1955.17	0.77
1963.58	0.768
1971.98	0.764
1980.39	0.765
1988.79	0.764
1997.2	0.762
2005.61	0.762
2014.01	0.7635
2022.42	0.764
2030.82	0.762
2039.23	0.761
2047.64	0.759
2056.04	0.758
2064.45	0.758
2072.85	0.758
2081.26	0.758
2089.67	0.756
2098.07	0.755
2106.48	0.755
2114.88	0.7535
2123.29	0.753
2131.7	0.7516
2140.1	0.75
2148.51	0.749
2156.91	0.7471
2165.32	0.747
2173.73	0.746
2182.13	0.746
2190.54	0.746
2198.94	0.744
2207.35	0.744
2215.76	0.744
2224.16	0.743
2232.57	0.7426
2240.97	0.7391
2249.38	0.738
2257.79	0.738
2266.19	0.7348
2274.6	0.732
2283	0.7313
2291.41	0.7291
2299.82	0.7288
2308.22	0.728
2316.63	0.728
2325.03	0.728
2333.44	0.728
2341.84	0.729
2350.25	0.729
2358.66	0.729
2367.06	0.728
2375.47	0.7271
2383.87	0.7236
2392.28	0.7221
2400.69	0.719
2409.09	0.719
2417.5	0.719
2425.9	0.717
2434.31	0.716
2442.72	0.714
2451.12	0.713
2459.53	0.711
2467.93	0.7097
2476.34	0.7076
2484.75	0.707
2493.15	0.7052
2501.56	0.7048
2509.96	0.704
2518.37	0.702
2526.78	0.7011
2535.18	0.699
2543.59	0.699
2551.99	0.698
2560.4	0.698
2568.81	0.6955
2577.21	0.6912
2585.62	0.6877
2594.02	0.6833
2602.43	0.6809
2610.84	0.6788
2619.24	0.6751
2627.65	0.6666
2636.05	0.662
2644.46	0.66
2652.87	0.659
2661.27	0.657
2669.68	0.6558
2678.08	0.6522
2686.49	0.6409
2694.9	0.6364
2703.3	0.63
2711.71	0.63
2720.11	0.6271
2728.52	0.6213
2736.93	0.617
2745.33	0.6146
2753.74	0.6114
2762.14	0.6038
2770.55	0.595
2778.96	0.5707
2787.36	0.5476
2795.77	0.5129
2804.17	0.4642
2812.58	0.3854
2820.99	0.3126
2829.39	0.2223
2837.8	0.1383
2846.2	0.105
2854.61	0.1042
2863.02	0.1106
2871.42	0.1201
2879.83	0.121
2888.23	0.1174
2896.64	0.1047
2905.05	0.0611
2913.45	0.0226
2921.86	0.0138
2930.26	0.013
2938.67	0.0165
2947.08	0.0374
2955.48	0.0592
2963.89	0.0884
2972.29	0.122
2980.7	0.1827
2989.11	0.2659
2997.51	0.3681
3005.92	0.4306
3014.32	0.4779
3022.73	0.5109
3031.14	0.5294
3039.54	0.5394
3047.95	0.5497
3056.35	0.5537
3064.76	0.5604
3073.17	0.5662
3081.57	0.5693
3089.98	0.5711
3098.38	0.5728
3106.79	0.573
3115.2	0.573
3123.6	0.573
3132.01	0.575
3140.41	0.575
3148.82	0.575
3157.23	0.5739
3165.63	0.573
3174.04	0.5719
3182.44	0.57
3190.85	0.5695
3199.26	0.5674
3207.66	0.567
3216.07	0.567
3224.47	0.567
3232.88	0.5662
3241.29	0.5659
3249.69	0.5601
3258.1	0.5575
3266.5	0.555
3274.91	0.554
3283.32	0.552
3291.72	0.552
3300.13	0.5512
3308.53	0.551
3316.94	0.549
3325.35	0.5439
3333.75	0.5309
3342.16	0.524
3350.56	0.518
3358.97	0.5155
3367.38	0.5107
3375.78	0.506
3384.19	0.4989
3392.59	0.4915
3401	0.4862
3409.41	0.48
3417.81	0.4777
3426.22	0.477
3434.62	0.475
3443.03	0.475
3451.43	0.478
3459.84	0.4805
3468.25	0.483
3476.65	0.49
3485.06	0.497
3493.46	0.5025
3501.87	0.5082
3510.28	0.515
3518.68	0.5225
3527.09	0.5275
3535.49	0.5325
3543.9	0.534
3552.31	0.5375
3560.71	0.5395
3569.12	0.5427
3577.52	0.546
3585.93	0.5487
3594.34	0.5628
3602.74	0.5749
3611.15	0.5839
3619.55	0.585
3627.96	0.5864
3636.37	0.5907
3644.77	0.593
3653.18	0.5944
3661.58	0.596
3669.99	0.5967
3678.4	0.597
3686.8	0.5974
3695.21	0.599
3703.61	0.6
3712.02	0.6
3720.43	0.6
3728.83	0.5995
3737.24	0.5976
3745.64	0.597
3754.05	0.596
3762.46	0.597
3770.86	0.5984
3779.27	0.599
3787.67	0.6
3796.08	0.6034
3804.49	0.6074
3812.89	0.612
3821.3	0.5984
3829.7	0.5964
3838.11	0.6078
3846.52	0.6148
3854.92	0.617
3863.33	0.6149
3871.73	0.6053
3880.14	0.602
3888.55	0.6065
3896.95	0.6214
3905.36	0.6297
3913.76	0.5782
3922.17	0.578
3930.58	0.5815
3938.98	0.588
3947.39	0.5899
3955.79	0.59
3964.2	0.59
3972.61	0.59
3981.01	0.591
3989.42	0.5932
