Infrared Spectrum: NAPHTHACENE
Formula: C18 H12
CAS: 92-24-0
State: SOLID (SPLIT MULL), FLUOROLUBE FOR 3800-1330 CM^-^1, NUJOL FOR 1330-400 CM^-^1
Class: COBLENTZ III
Instrument: DOW KBr FOREPRISM-GRATING
Instrument parameters: BLAZED AT 3.5, 12.0, 20.0 MICRON AND CHANGED AT 5.0, 7.5, 14.9 MICRON
Sampling: TRANSMISSION
Resolution: 2
Origin: DOW CHEMICAL COMPANY
1/CM	TRANSMITTANCE
381	0.9225
390	0.913
399	0.9025
408	0.8912
417	0.8828
426	0.8718
435	0.8611
444	0.8508
453	0.7808
462	0.7946
471	0.107
480	0.8544
489	0.8787
498	0.8823
507	0.8842
516	0.8849
525	0.8843
534	0.8835
543	0.8807
552	0.8499
561	0.8775
570	0.8766
579	0.8792
588	0.897
597	0.8809
606	0.8399
615	0.8868
624	0.8623
633	0.8896
642	0.8888
651	0.8866
660	0.8849
669	0.8835
678	0.883
687	0.8765
696	0.8671
705	0.8406
714	0.7633
723	0.6383
732	0.6151
741	0.026
750	0.3921
759	0.8048
768	0.8493
777	0.8602
786	0.8728
795	0.8791
804	0.8799
813	0.8787
822	0.8771
831	0.8631
840	0.8631
849	0.8603
858	0.8559
867	0.8478
876	0.7697
885	0.774
894	0.4543
903	0.1779
912	0.8218
921	0.8412
930	0.8418
939	0.8421
948	0.8037
957	0.6165
966	0.8058
975	0.8425
984	0.8413
993	0.7632
1002	0.8506
1011	0.8499
1020	0.8467
1029	0.8445
1038	0.8428
1047	0.8431
1056	0.8367
1065	0.8341
1074	0.8312
1083	0.8286
1092	0.8254
1101	0.8212
1110	0.7797
1119	0.6805
1128	0.815
1137	0.8034
1146	0.7793
1155	0.751
1164	0.7358
1173	0.7925
1182	0.7875
1191	0.7625
1200	0.7757
1209	0.7837
1218	0.7783
1227	0.773
1236	0.7668
1245	0.7599
1254	0.7498
1263	0.7375
1272	0.6974
1281	0.6615
1290	0.4805
1299	0.6932
1308	0.7191
1317	0.726
1326	0.71
1335	0.6897
1344	0.6981
1353	0.7391
1362	0.7495
1371	0.7489
1380	0.7262
1389	0.689
1398	0.7955
1407	0.79
1416	0.7975
1425	0.7985
1434	0.7958
1443	0.7937
1452	0.7775
1461	0.6191
1470	0.8204
1479	0.819
1488	0.8143
1497	0.811
1506	0.8111
1515	0.8121
1524	0.8078
1533	0.7348
1542	0.8157
1551	0.811
1560	0.7843
1569	0.7958
1578	0.7998
1587	0.7892
1596	0.789
1605	0.7882
1614	0.7751
1623	0.7054
1632	0.7575
1641	0.7855
1650	0.7842
1659	0.7658
1668	0.7467
1677	0.7415
1686	0.7395
1695	0.7289
1704	0.743
1713	0.7372
1722	0.728
1731	0.6969
1740	0.7428
1749	0.7442
1758	0.7444
1767	0.7401
1776	0.7268
1785	0.7112
1794	0.6811
1803	0.6655
1812	0.7221
1821	0.7299
1830	0.7225
1839	0.7212
1848	0.7164
1857	0.7103
1866	0.71
1875	0.7105
1884	0.7072
1893	0.7034
1902	0.6983
1911	0.6871
1920	0.6743
1929	0.6762
1938	0.6768
1947	0.6975
1956	0.8236
1965	0.6861
1974	0.676
1983	0.6668
1992	0.6537
2001	0.6662
2010	0.6708
2019	0.666
2028	0.6678
2037	0.6765
2046	0.6569
2055	0.6497
2064	0.643
2073	0.6374
2082	0.6332
2091	0.6296
2100	0.6256
2109	0.6214
2118	0.6172
2127	0.6134
2136	0.6098
2145	0.6058
2154	0.6012
2163	0.5966
2172	0.592
2181	0.5873
2190	0.5827
2199	0.578
2208	0.5729
2217	0.5677
2226	0.5624
2235	0.5567
2244	0.551
2253	0.5454
2262	0.5401
2271	0.535
2280	0.53
2289	0.5252
2298	0.5205
2307	0.5158
2316	0.5118
2325	0.5076
2334	0.5037
2343	0.5004
2352	0.4989
2361	0.4987
2370	0.4991
2379	0.4995
2388	0.4993
2397	0.4978
2406	0.4957
2415	0.493
2424	0.4903
2433	0.4876
2442	0.4852
2451	0.4828
2460	0.4806
2469	0.4783
2478	0.476
2487	0.4738
2496	0.4715
2505	0.4691
2514	0.4667
2523	0.4642
2532	0.4618
2541	0.4594
2550	0.457
2559	0.4546
2568	0.4523
2577	0.4499
2586	0.4475
2595	0.445
2604	0.442
2613	0.439
2622	0.436
2631	0.433
2640	0.43
2649	0.427
2658	0.4249
2667	0.423
2676	0.421
2685	0.4191
2694	0.4172
2703	0.4148
2712	0.4119
2721	0.4089
2730	0.406
2739	0.4036
2748	0.4012
2757	0.3987
2766	0.3962
2775	0.3937
2784	0.3914
2793	0.389
2802	0.3859
2811	0.3828
2820	0.3791
2829	0.3743
2838	0.3695
2847	0.3646
2856	0.3594
2865	0.3558
2874	0.3532
2883	0.349
2892	0.3444
2901	0.3386
2910	0.3325
2919	0.324
2928	0.3197
2937	0.3192
2946	0.3207
2955	0.3218
2964	0.32
2973	0.3179
2982	0.3151
2991	0.3105
3000	0.3058
3009	0.3003
3018	0.2944
3027	0.2881
3036	0.2773
3045	0.2608
3054	0.2916
3063	0.3096
3072	0.3156
3081	0.3156
3090	0.321
3099	0.3193
3108	0.316
3117	0.3127
3126	0.3098
3135	0.3067
3144	0.3038
3153	0.3011
3162	0.2985
3171	0.2966
3180	0.2949
3189	0.2934
3198	0.292
3207	0.2904
3216	0.2887
3225	0.287
3234	0.2853
3243	0.2838
3252	0.2827
3261	0.2815
3270	0.2804
3279	0.2793
3288	0.2781
3297	0.2765
3306	0.2751
3315	0.2735
3324	0.2721
3333	0.2703
3342	0.2683
3351	0.2663
3360	0.2643
3369	0.2623
3378	0.2603
3387	0.2582
3396	0.2566
3405	0.255
3414	0.2534
3423	0.2519
3432	0.2504
3441	0.2488
3450	0.2473
3459	0.2457
3468	0.2442
3477	0.2426
3486	0.2412
3495	0.2397
3504	0.2383
3513	0.2368
3522	0.2353
3531	0.2338
3540	0.2324
3549	0.2309
3558	0.2295
3567	0.228
3576	0.2265
3585	0.225
3594	0.2234
3603	0.222
3612	0.2206
3621	0.219
3630	0.2173
3639	0.2156
3648	0.2139
3657	0.2123
3666	0.2106
3675	0.2089
3684	0.2073
3693	0.2055
3702	0.2036
3711	0.2018
3720	0.1999
3729	0.1981
3738	0.1967
3747	0.1954
3756	0.1944
3765	0.1932
3774	0.1921
3783	0.1909
3792	0.1898
