Infrared Spectrum: BIPHENYL
Formula: C12 H10
CAS: 92-52-4
State: VAPOR (1.0 MICROLITER AT 245 C)
Boiling point: 255 C
Class: COBLENTZ
Instrument: NICOLET FTIR
Instrument parameters: Hg-Cd-Te DETECTOR - TYPE A, DEAD BELOW 680 CM^-^1, LOW S/N 710 - 680
Sampling: TRANSMISSION
Path length: 0.2 CM x 30 CM GOLD-PLATED LIGHT PIPE. HELIUM CARRIER. INTERFEROGRAMS CO-ADDED FOR FULL TRANSIT TIME.
Resolution: 4 CM^-^1
Origin: MONSANTO (JOHN J. FREEMAN)
1/CM	TRANSMITTANCE
703.594	0.441
711.981	0.5608
720.368	0.7959
728.755	0.728
737.142	0.4756
745.53	0.5609
753.917	0.7319
762.304	0.8969
770.691	0.916
779.078	0.927
787.465	0.961
795.852	0.985
804.239	0.994
812.627	0.997
821.014	0.997
829.401	0.995
837.788	0.995
846.175	0.994
854.562	0.982
862.949	0.971
871.336	0.979
879.724	0.989
888.111	0.989
896.498	0.982
904.885	0.975
913.272	0.982
921.659	0.989
930.046	0.994
938.433	0.997
946.821	0.997
955.208	0.995
963.595	0.993
971.982	0.995
980.369	0.996
988.756	0.984
997.143	0.965
1005.53	0.919
1013.92	0.901
1022.3	0.9719
1030.69	0.989
1039.08	0.977
1047.47	0.967
1055.85	0.97
1064.24	0.955
1072.63	0.946
1081.01	0.956
1089.4	0.978
1097.79	0.989
1106.18	0.993
1114.56	0.994
1122.95	0.997
1131.34	0.999
1139.72	1
1148.11	1
1156.5	1
1164.89	1
1173.27	0.995
1181.66	0.986
1190.05	0.994
1198.43	0.999
1206.82	1.001
1215.21	1.001
1223.6	1
1231.98	0.996
1240.37	0.993
1248.76	0.995
1257.14	0.997
1265.53	0.994
1273.92	0.993
1282.31	0.991
1290.69	0.993
1299.08	0.995
1307.47	0.993
1315.85	0.992
1324.24	0.99
1332.63	0.989
1341.02	0.994
1349.4	0.996
1357.79	0.997
1366.18	0.993
1374.56	0.989
1382.95	0.987
1391.34	0.991
1399.73	0.995
1408.11	0.993
1416.5	0.984
1424.89	0.962
1433.27	0.937
1441.66	0.938
1450.05	0.96
1458.44	0.967
1466.82	0.947
1475.21	0.866
1483.6	0.72
1491.98	0.7339
1500.37	0.9629
1508.76	0.987
1517.15	0.983
1525.53	0.982
1533.92	0.984
1542.31	0.986
1550.69	0.988
1559.08	0.983
1567.47	0.971
1575.85	0.958
1584.24	0.934
1592.63	0.869
1601.02	0.8569
1609.4	0.932
1617.79	0.964
1626.18	0.976
1634.56	0.991
1642.95	0.993
1651.34	0.989
1659.73	0.986
1668.11	0.987
1676.5	0.984
1684.89	0.986
1693.27	0.993
1701.66	0.998
1710.05	0.996
1718.44	0.995
1726.82	0.991
1735.21	0.985
1743.6	0.983
1751.98	0.984
1760.37	0.986
1768.76	0.991
1777.15	0.991
1785.53	0.978
1793.92	0.958
1802.31	0.968
1810.69	0.982
1819.08	0.986
1827.47	0.993
1835.86	0.997
1844.24	0.995
1852.63	0.988
1861.02	0.981
1869.4	0.973
1877.79	0.966
1886.18	0.971
1894.57	0.981
1902.95	0.991
1911.34	0.993
1919.73	0.987
1928.11	0.976
1936.5	0.965
1944.89	0.959
1953.28	0.961
1961.66	0.98
1970.05	0.998
1978.44	0.999
1986.82	1
1995.21	0.999
2003.6	1
2011.99	1
2020.37	1.0012
2028.76	1
2037.15	1.0007
2045.53	1
2053.92	1
2062.31	1
2070.7	1.0019
2079.08	1.0004
2087.47	1.001
2095.86	1
2104.24	1.002
2112.63	1.0015
2121.02	1.0002
2129.41	1.0004
2137.79	1.001
2146.18	1.001
2154.57	1
2162.95	1
2171.34	1
2179.73	1.0001
2188.11	1
2196.5	1
2204.89	1
2213.28	1
2221.66	1
2230.05	1
2238.44	1
2246.82	1.0002
2255.21	1
2263.6	0.999
2271.99	1
2280.37	0.999
2288.76	1
2297.15	1
2305.53	0.999
2313.92	0.995
2322.31	0.9949
2330.7	0.996
2339.08	0.9959
2347.47	0.996
2355.86	0.996
2364.24	0.996
2372.63	0.9994
2381.02	0.998
2389.41	1
2397.79	1
2406.18	1
2414.57	1
2422.95	1
2431.34	1
2439.73	1
2448.12	1
2456.5	1.001
2464.89	1.001
2473.28	1.0002
2481.66	1.002
2490.05	1
2498.44	1
2506.83	1
2515.21	1.0005
2523.6	1
2531.99	1.002
2540.37	1
2548.76	1
2557.15	1
2565.54	1.001
2573.92	1.001
2582.31	1
2590.7	0.9983
2599.08	0.997
2607.47	0.9982
2615.86	0.998
2624.25	0.997
2632.63	0.998
2641.02	1
2649.41	1
2657.79	1
2666.18	1.001
2674.57	1.002
2682.96	1.002
2691.34	1.002
2699.73	1.0004
2708.12	1.002
2716.5	1.002
2724.89	1.002
2733.28	1.002
2741.67	1.0011
2750.05	1
2758.44	1
2766.83	1
2775.21	1
2783.6	1
2791.99	1
2800.37	1.0012
2808.76	1.002
2817.15	1.0009
2825.54	1
2833.92	0.999
2842.31	0.998
2850.7	0.997
2859.08	0.995
2867.47	0.993
2875.86	0.991
2884.25	0.9893
2892.63	0.9912
2901.02	0.9937
2909.41	0.995
2917.79	0.995
2926.18	0.993
2934.57	0.991
2942.96	0.993
2951.34	0.993
2959.73	0.9949
2968.12	0.9957
2976.5	0.993
2984.89	0.989
2993.28	0.991
3001.67	0.9835
3010.05	0.9543
3018.44	0.9109
3026.83	0.838
3035.21	0.7415
3043.6	0.6935
3051.99	0.7601
3060.38	0.7771
3068.76	0.61
3077.15	0.5684
3085.54	0.7048
3093.92	0.7729
3102.31	0.8318
3110.7	0.8912
3119.09	0.9397
3127.47	0.9675
3135.86	0.9826
3144.25	0.989
3152.63	0.991
3161.02	0.9919
3169.41	0.9954
3177.8	1.0008
3186.18	1.0023
3194.57	1.003
3202.96	1.004
3211.34	1.004
3219.73	1.0041
3228.12	1.004
3236.51	1.004
3244.89	1.004
3253.28	1.005
3261.67	1.004
3270.05	1.004
3278.44	1.004
3286.83	1.005
3295.22	1.005
3303.6	1.004
3311.99	1.004
3320.38	1.004
3328.76	1.004
3337.15	1.004
3345.54	1.004
3353.93	1.0035
3362.31	1.002
3370.7	1.003
3379.09	1.004
3387.47	1.003
3395.86	1.003
3404.25	1.004
3412.64	1.004
3421.02	1.0028
3429.41	1.0026
3437.8	1.003
3446.18	1.003
3454.57	1.003
3462.96	1.0025
3471.34	1.002
3479.73	1.004
3488.12	1.004
3496.51	1.004
3504.89	1.0032
3513.28	1.004
3521.67	1.004
3530.05	1.004
3538.44	1.004
3546.83	1.004
3555.22	1.004
3563.6	1.003
3571.99	1.0046
3580.38	1.004
3588.76	1.003
3597.15	1.003
3605.54	1.004
3613.93	1.004
3622.31	1.0028
3630.7	1.002
3639.09	1
3647.47	1
3655.86	1
3664.25	0.9985
3672.64	0.999
3681.02	1
3689.41	1
3697.8	0.9977
3706.18	0.9978
3714.57	0.9993
3722.96	1.0007
3731.35	1.001
3739.73	1.002
3748.12	1.003
3756.51	1.0035
3764.89	1.002
3773.28	1.0005
3781.67	1.002
3790.06	1.0006
3798.44	1
3806.83	0.999
3815.22	0.999
3823.6	1.0002
3831.99	1.002
3840.38	1.002
3848.77	1.002
3857.15	1.004
3865.54	1.0025
3873.93	1.002
3882.31	1.003
3890.7	1.003
3899.09	1.003
3907.48	1.002
3915.86	1.001
3924.25	1.002
3932.64	1.004
3941.02	1.0023
3949.41	1.0009
3957.8	0.9994
3966.19	1.002
3974.57	1.0015
3982.96	1
3991.35	0.999
3999.73	1.0001
