Infrared Spectrum: 4-BROMODIPHENYL
Formula: C12 H9 Br
CAS: 92-66-0
State: SOLUTION (10% CCl4 FOR 5000-1330, 10% CS2 FOR 1330-625 CM^-^1)
Class: COBLENTZ
Instrument: Not specified, most likely a prism, grating, or hybrid spectrometer.
Sampling: TRANSMISSION
Path length: 0.0121 CM, 0.0121 CM
Resolution: 4
Origin: DOW CHEMICAL COMPANY
MICROMETERS	TRANSMITTANCE
2	0.897
2.04114	0.897
2.08227	0.89
2.12341	0.894
2.16454	0.899
2.20568	0.902
2.24681	0.897
2.28795	0.897
2.32909	0.902
2.37022	0.897
2.41136	0.882
2.45249	0.892
2.49363	0.904
2.53476	0.902
2.5759	0.902
2.61704	0.899
2.65817	0.904
2.69931	0.892
2.74044	0.902
2.78158	0.904
2.82271	0.905
2.86385	0.907
2.90498	0.907
2.94612	0.909
2.98726	0.905
3.02839	0.909
3.06953	0.909
3.11066	0.902
3.1518	0.888
3.19293	0.852
3.23407	0.748
3.27521	0.692
3.31634	0.817
3.35748	0.887
3.39861	0.892
3.43975	0.895
3.48088	0.899
3.52202	0.905
3.56316	0.905
3.60429	0.907
3.64543	0.907
3.68656	0.909
3.7277	0.907
3.76883	0.907
3.80997	0.907
3.85111	0.905
3.89224	0.911
3.93338	0.912
3.97451	0.919
4.01565	0.917
4.05678	0.921
4.09792	0.919
4.13905	0.919
4.18019	0.905
4.22133	0.897
4.26246	0.895
4.3036	0.89
4.34473	0.892
4.38587	0.909
4.427	0.914
4.46814	0.923
4.50928	0.926
4.55041	0.926
4.59155	0.929
4.63268	0.929
4.67382	0.924
4.71495	0.929
4.75609	0.929
4.79723	0.929
4.83836	0.924
4.8795	0.924
4.92063	0.923
4.96177	0.919
5.0029	0.912
5.04404	0.919
5.08518	0.89
5.12631	0.88
5.16745	0.912
5.20858	0.902
5.24972	0.83
5.29085	0.885
5.33199	0.88
5.37312	0.912
5.41426	0.919
5.4554	0.902
5.49653	0.9
5.53767	0.883
5.5788	0.904
5.61994	0.894
5.66107	0.907
5.70221	0.894
5.74335	0.902
5.78448	0.911
5.82562	0.919
5.86675	0.919
5.90789	0.911
5.94902	0.899
5.99016	0.88
6.0313	0.87
6.07243	0.885
6.11357	0.89
6.1547	0.864
6.19584	0.769
6.23697	0.615
6.27811	0.588
6.31925	0.586
6.36038	0.572
6.40152	0.516
6.44265	0.466
6.48379	0.516
6.52492	0.6
6.56606	0.629
6.60719	0.641
6.64833	0.69
6.68947	0.576
6.7306	0.27
6.77174	0.299
6.81287	0.753
6.85401	0.762
6.89514	0.772
6.93628	0.871
6.97742	0.888
7.01855	0.902
7.05969	0.905
7.10082	0.876
7.14196	0.717
7.18309	0.688
7.22423	0.842
7.26537	0.897
7.3065	0.89
7.34764	0.902
7.38877	0.904
7.42991	0.902
7.47104	0.883
7.51218	0.89
7.55332	0.909
7.59445	0.882
7.63559	0.902
7.67672	0.916
7.71786	0.916
7.75899	0.882
7.80013	0.897
7.84126	0.929
7.8824	0.94
7.92354	0.94
7.96467	0.931
8.00581	0.926
8.04694	0.929
8.08808	0.924
8.12921	0.921
8.17035	0.931
8.21149	0.936
8.25262	0.936
8.29376	0.929
8.33489	0.917
8.37603	0.9
8.41716	0.885
8.4583	0.88
8.49944	0.885
8.54057	0.895
8.58171	0.9
8.62284	0.892
8.66398	0.907
8.70511	0.911
8.74625	0.917
8.78739	0.933
8.82852	0.941
8.86966	0.931
8.91079	0.902
8.95193	0.882
8.99306	0.882
9.0342	0.854
9.07533	0.806
9.11647	0.854
9.15761	0.882
9.19874	0.805
9.23988	0.627
9.28101	0.463
9.32215	0.324
9.36328	0.649
9.40442	0.8
9.44556	0.859
9.48669	0.892
9.52783	0.902
9.56896	0.883
9.6101	0.823
9.65123	0.866
9.69237	0.897
9.73351	0.902
9.77464	0.887
9.81578	0.798
9.85691	0.676
9.89805	0.63
9.93918	0.367
9.98032	0.422
10.0215	0.687
10.0626	0.808
10.1037	0.895
10.1449	0.909
10.186	0.911
10.2271	0.911
10.2683	0.912
10.3094	0.905
10.3505	0.902
10.3917	0.899
10.4328	0.892
10.4739	0.899
10.5151	0.904
10.5562	0.902
10.5974	0.897
10.6385	0.897
10.6796	0.9
10.7208	0.9
10.7619	0.895
10.803	0.894
10.8442	0.888
10.8853	0.88
10.9264	0.847
10.9676	0.789
11.0087	0.803
11.0498	0.858
11.091	0.866
11.1321	0.866
11.1733	0.858
11.2144	0.849
11.2555	0.83
11.2967	0.811
11.3378	0.793
11.3789	0.781
11.4201	0.765
11.4612	0.758
11.5023	0.747
11.5435	0.731
11.5846	0.712
11.6257	0.69
11.6669	0.676
11.708	0.671
11.7492	0.68
11.7903	0.694
11.8314	0.711
11.8726	0.714
11.9137	0.704
11.9548	0.682
11.996	0.596
12.0371	0.432
12.0782	0.17
12.1194	0.092
12.1605	0.353
12.2016	0.588
12.2428	0.694
12.2839	0.736
12.3251	0.723
12.3662	0.63
12.4073	0.656
12.4485	0.755
12.4896	0.789
12.5307	0.798
12.5719	0.801
12.613	0.805
12.6541	0.805
12.6953	0.805
12.7364	0.803
12.7775	0.801
12.8187	0.8
12.8598	0.796
12.901	0.789
12.9421	0.774
12.9832	0.748
13.0244	0.705
13.0655	0.6
13.1066	0.449
13.1478	0.206
13.1889	0.056
13.23	0.008
13.2712	0.058
13.3123	0.21
13.3534	0.437
13.3946	0.623
13.4357	0.687
13.4769	0.726
13.518	0.743
13.5591	0.743
13.6003	0.748
13.6414	0.758
13.6825	0.758
13.7237	0.752
13.7648	0.745
13.8059	0.74
13.8471	0.733
13.8882	0.728
13.9293	0.721
13.9705	0.702
14.0116	0.678
14.0528	0.618
14.0939	0.562
14.135	0.528
14.1762	0.494
14.2173	0.43
14.2584	0.341
14.2996	0.211
14.3407	0.126
14.3818	0.1
14.423	0.181
14.4641	0.323
14.5052	0.429
14.5464	0.519
14.5875	0.562
14.6287	0.582
14.6698	0.588
14.7109	0.589
14.7521	0.581
14.7932	0.572
14.8343	0.56
14.8755	0.552
14.9166	0.548
14.9577	0.55
14.9989	0.558
15.04	0.56
15.0811	0.552
15.1223	0.543
15.1634	0.536
15.2045	0.524
15.2457	0.517
15.2868	0.504
15.328	0.497
15.3691	0.488
15.4102	0.482
15.4514	0.476
15.4925	0.47
15.5336	0.463
15.5748	0.458
15.6159	0.452
15.657	0.447
15.6982	0.441
15.7393	0.434
15.7804	0.429
15.8216	0.42
15.8627	0.417
