Infrared Spectrum: p-AMINO DIPHENYL
Formula: C12 H11 N
CAS: 92-67-1
State: SOLUTION (10% CCl4 FOR 5000-1330, 10% CS2 FOR 1330-625 CM^-^1)
Class: COBLENTZ
Instrument: Not specified, most likely a prism, grating, or hybrid spectrometer.
Sampling: TRANSMISSION
Path length: 0.0118 CM, 0.0118 CM
Resolution: 4
Origin: DOW CHEMICAL COMPANY
MICROMETERS	TRANSMITTANCE
1.986	0.847
2.0272	0.844
2.0684	0.845
2.10959	0.839
2.15079	0.849
2.19199	0.851
2.23319	0.852
2.27439	0.849
2.31558	0.851
2.35678	0.849
2.39798	0.835
2.43918	0.82
2.48038	0.844
2.52157	0.845
2.56277	0.847
2.60397	0.847
2.64517	0.852
2.68637	0.845
2.72756	0.851
2.76876	0.845
2.80996	0.765
2.85116	0.601
2.89236	0.672
2.93355	0.558
2.97475	0.789
3.01595	0.823
3.05715	0.813
3.09835	0.799
3.13954	0.828
3.18074	0.78
3.22194	0.659
3.26314	0.52
3.30434	0.565
3.34553	0.833
3.38673	0.844
3.42793	0.845
3.46913	0.861
3.51033	0.878
3.55152	0.875
3.59272	0.873
3.63392	0.873
3.67512	0.876
3.71632	0.868
3.75751	0.864
3.79871	0.863
3.83991	0.857
3.88111	0.857
3.92231	0.873
3.9635	0.88
4.0047	0.878
4.0459	0.875
4.0871	0.878
4.1283	0.881
4.1695	0.885
4.21069	0.886
4.25189	0.876
4.29309	0.856
4.33429	0.852
4.37549	0.868
4.41668	0.875
4.45788	0.881
4.49908	0.881
4.54028	0.881
4.58148	0.873
4.62267	0.869
4.66387	0.873
4.70507	0.873
4.74627	0.864
4.78747	0.869
4.82866	0.875
4.86986	0.875
4.91106	0.868
4.95226	0.863
4.99346	0.857
5.03465	0.861
5.07585	0.842
5.11705	0.818
5.15825	0.83
5.19945	0.856
5.24064	0.844
5.28184	0.761
5.32304	0.785
5.36424	0.837
5.40544	0.851
5.44663	0.847
5.48783	0.832
5.52903	0.832
5.57023	0.851
5.61143	0.857
5.65262	0.84
5.69382	0.83
5.73502	0.83
5.77622	0.84
5.81742	0.849
5.85861	0.847
5.89981	0.837
5.94101	0.806
5.98221	0.734
6.02341	0.688
6.0646	0.505
6.1058	0.145
6.147	0.051
6.1882	0.184
6.2294	0.292
6.27059	0.4
6.31179	0.426
6.35299	0.47
6.39419	0.446
6.43539	0.41
6.47658	0.426
6.51778	0.313
6.55898	0.217
6.60018	0.398
6.64138	0.5
6.68257	0.094
6.72377	0.208
6.76497	0.686
6.80617	0.744
6.84737	0.693
6.88856	0.78
6.92976	0.787
6.97096	0.736
7.01216	0.736
7.05336	0.809
7.09455	0.839
7.13575	0.84
7.17695	0.839
7.21815	0.83
7.25935	0.835
7.30054	0.833
7.34174	0.823
7.38294	0.837
7.42414	0.842
7.46534	0.809
7.50653	0.77
7.54773	0.768
7.58893	0.732
7.63013	0.666
7.67133	0.476
7.71252	0.207
7.75372	0.107
7.79492	0.2
7.83612	0.296
7.87732	0.417
7.91851	0.602
7.95971	0.708
8.00091	0.758
8.04211	0.775
8.08331	0.792
8.1245	0.801
8.1657	0.803
8.2069	0.803
8.2481	0.784
8.2893	0.75
8.3305	0.667
8.37169	0.498
8.41289	0.426
8.45409	0.476
8.49529	0.578
8.53649	0.743
8.57768	0.753
8.61888	0.744
8.66008	0.755
8.70128	0.77
8.74248	0.758
8.78367	0.702
8.82487	0.642
8.86607	0.64
8.90727	0.696
8.94847	0.755
8.98966	0.782
9.03086	0.792
9.07206	0.799
9.11326	0.799
9.15446	0.799
9.19565	0.794
9.23685	0.772
9.27805	0.683
9.31925	0.669
9.36045	0.731
9.40164	0.767
9.44284	0.791
9.48404	0.799
9.52524	0.801
9.56644	0.739
9.60763	0.693
9.64883	0.784
9.69003	0.801
9.73123	0.804
9.77243	0.782
9.81362	0.784
9.85482	0.796
9.89602	0.763
9.93722	0.739
9.97842	0.789
10.0196	0.767
10.0608	0.777
10.102	0.806
10.1432	0.815
10.1844	0.809
10.2256	0.804
10.2668	0.804
10.308	0.803
10.3492	0.794
10.3904	0.789
10.4316	0.789
10.4728	0.789
10.514	0.777
10.5552	0.777
10.5964	0.78
10.6376	0.782
10.6788	0.772
10.72	0.77
10.7612	0.777
10.8024	0.779
10.8436	0.773
10.8848	0.767
10.926	0.75
10.9672	0.705
11.0084	0.647
11.0496	0.664
11.0908	0.727
11.132	0.744
11.1732	0.743
11.2144	0.738
11.2556	0.722
11.2968	0.702
11.338	0.69
11.3791	0.678
11.4203	0.662
11.4615	0.647
11.5027	0.63
11.5439	0.614
11.5851	0.59
11.6263	0.573
11.6675	0.554
11.7087	0.546
11.7499	0.539
11.7911	0.53
11.8323	0.501
11.8735	0.46
11.9147	0.402
11.9559	0.309
11.9971	0.215
12.0383	0.102
12.0795	0.058
12.1207	0.111
12.1619	0.25
12.2031	0.398
12.2443	0.498
12.2855	0.554
12.3267	0.58
12.3679	0.604
12.4091	0.631
12.4503	0.642
12.4915	0.652
12.5327	0.652
12.5739	0.654
12.6151	0.652
12.6563	0.645
12.6975	0.64
12.7387	0.633
12.7799	0.626
12.8211	0.606
12.8623	0.58
12.9035	0.539
12.9447	0.481
12.9859	0.366
13.0271	0.203
13.0683	0.061
13.1095	0.013
13.1507	0.035
13.1919	0.119
13.2331	0.268
13.2743	0.376
13.3155	0.433
13.3567	0.467
13.3979	0.491
13.439	0.518
13.4802	0.535
13.5214	0.539
13.5626	0.537
13.6038	0.535
13.645	0.532
13.6862	0.525
13.7274	0.511
13.7686	0.491
13.8098	0.469
13.851	0.424
13.8922	0.357
13.9334	0.321
13.9746	0.33
14.0158	0.371
14.057	0.388
14.0982	0.38
14.1394	0.328
14.1806	0.256
14.2218	0.164
14.263	0.094
14.3042	0.053
14.3454	0.046
14.3866	0.099
14.4278	0.181
14.469	0.256
14.5102	0.318
14.5514	0.356
14.5926	0.375
14.6338	0.386
14.675	0.392
14.7162	0.392
14.7574	0.383
14.7986	0.38
14.8398	0.375
14.881	0.373
14.9222	0.371
14.9634	0.373
15.0046	0.364
15.0458	0.354
15.087	0.351
15.1282	0.342
15.1694	0.337
15.2106	0.328
15.2518	0.32
15.293	0.32
15.3342	0.318
15.3754	0.313
15.4166	0.311
15.4578	0.311
15.499	0.308
15.5401	0.303
15.5813	0.303
15.6225	0.304
15.6637	0.308
15.7049	0.313
15.7461	0.316
15.7873	0.32
15.8285	0.323
