Infrared Spectrum: P-PHENYLPHENOL
Formula: C12 H10 O
CAS: 92-69-3
State: SOLUTION (ETHYL ETHER)
Class: COBLENTZ
Instrument: Not specified, most likely a prism, grating, or hybrid spectrometer.
Sampling: TRANSMISSION
Path length: 0.0200 CM
Resolution: 4
Origin: BATTELLE MEMORIAL INSTITUTE (R. JAKOBSEN)
1/CM	TRANSMITTANCE
300.265	0.405
301.193	0.407
302.122	0.436
303.05	0.473
303.979	0.469
304.907	0.517
305.835	0.552
306.764	0.593
307.692	0.635
308.62	0.674
309.549	0.699
310.477	0.716
311.406	0.726
312.334	0.754
313.262	0.726
314.191	0.716
315.119	0.722
316.047	0.73
316.976	0.725
317.904	0.724
318.833	0.707
319.761	0.728
320.689	0.732
321.618	0.737
322.546	0.728
323.475	0.751
324.403	0.732
325.331	0.733
326.26	0.751
327.188	0.751
328.116	0.751
329.045	0.744
329.973	0.729
330.902	0.844
331.83	0.853
332.758	0.843
333.687	0.846
334.615	0.857
335.543	0.862
336.472	0.852
337.4	0.87
338.329	0.861
339.257	0.862
340.185	0.862
341.114	0.86
342.042	0.86
342.971	0.861
343.899	0.872
344.827	0.869
345.756	0.877
346.684	0.877
347.612	0.872
348.541	0.866
349.469	0.856
350.398	0.854
351.326	0.85
352.254	0.848
353.183	0.857
354.111	0.86
355.04	0.85
355.968	0.852
356.896	0.85
357.825	0.848
358.753	0.839
359.681	0.829
360.61	0.839
361.538	0.846
362.467	0.846
363.395	0.837
364.323	0.833
365.252	0.829
366.18	0.816
367.108	0.806
368.037	0.794
368.965	0.787
369.894	0.787
370.822	0.784
371.75	0.782
372.679	0.779
373.607	0.769
374.536	0.763
375.464	0.759
376.392	0.761
377.321	0.761
378.249	0.749
379.177	0.741
380.106	0.738
381.034	0.744
381.963	0.744
382.891	0.742
383.819	0.753
384.748	0.765
385.676	0.771
386.604	0.777
387.533	0.787
388.461	0.788
389.39	0.79
390.318	0.796
391.246	0.8
392.175	0.8
393.103	0.803
394.032	0.815
394.96	0.821
395.888	0.825
396.817	0.837
397.745	0.848
398.673	0.85
399.602	0.856
400.53	0.857
401.459	0.856
402.387	0.852
403.315	0.852
404.244	0.852
405.172	0.856
406.1	0.858
407.029	0.858
407.957	0.858
408.886	0.858
409.814	0.865
410.742	0.866
411.671	0.866
412.599	0.864
413.528	0.858
414.456	0.856
415.384	0.858
416.313	0.85
417.241	0.849
418.169	0.85
419.098	0.853
420.026	0.857
420.955	0.858
421.883	0.86
422.811	0.857
423.74	0.856
424.668	0.854
425.596	0.85
426.525	0.849
427.453	0.84
428.382	0.832
429.31	0.821
430.238	0.815
431.167	0.807
432.095	0.788
433.024	0.767
433.952	0.726
434.88	0.697
435.809	0.667
436.737	0.631
437.665	0.601
438.594	0.579
439.522	0.569
440.451	0.568
441.379	0.568
442.307	0.573
443.236	0.592
444.164	0.618
445.093	0.634
446.021	0.651
446.949	0.668
447.878	0.691
448.806	0.703
449.734	0.715
450.663	0.726
451.591	0.733
452.52	0.745
453.448	0.761
454.376	0.778
455.305	0.79
456.233	0.799
457.161	0.808
458.09	0.819
459.018	0.829
459.947	0.831
460.875	0.831
461.803	0.836
462.732	0.844
463.66	0.848
464.589	0.85
465.517	0.86
466.445	0.868
467.374	0.872
468.302	0.868
469.23	0.864
470.159	0.864
471.087	0.866
472.016	0.869
472.944	0.872
473.872	0.873
474.801	0.874
475.729	0.878
476.657	0.877
477.586	0.875
478.514	0.875
479.443	0.875
480.371	0.87
481.299	0.869
482.228	0.866
483.156	0.857
484.085	0.846
485.013	0.845
485.941	0.841
486.87	0.84
487.798	0.829
488.726	0.824
489.655	0.82
490.583	0.813
491.512	0.81
492.44	0.81
493.368	0.79
494.297	0.771
495.225	0.757
496.153	0.74
497.082	0.715
498.01	0.693
498.939	0.67
499.867	0.659
500.795	0.651
501.724	0.638
502.652	0.618
503.581	0.591
504.509	0.568
505.437	0.555
506.366	0.546
507.294	0.535
508.222	0.531
509.151	0.53
510.079	0.532
511.008	0.539
511.936	0.548
512.864	0.567
513.793	0.593
514.721	0.62
515.649	0.649
516.578	0.68
517.506	0.717
518.435	0.744
519.363	0.765
520.291	0.773
521.22	0.781
522.148	0.799
523.077	0.808
524.005	0.829
524.933	0.844
525.862	0.849
526.79	0.852
527.718	0.857
528.647	0.86
529.575	0.864
530.504	0.864
531.432	0.862
532.36	0.862
533.289	0.864
534.217	0.865
535.146	0.865
536.074	0.865
537.002	0.861
537.931	0.858
538.859	0.853
539.787	0.852
540.716	0.849
541.644	0.839
542.573	0.821
543.501	0.782
544.429	0.749
545.358	0.699
546.286	0.672
547.214	0.651
548.143	0.654
549.071	0.664
550	0.682
550.928	0.7
551.856	0.724
552.785	0.742
553.713	0.753
554.642	0.753
555.57	0.744
556.498	0.72
557.427	0.659
558.355	0.598
559.283	0.542
560.212	0.501
561.14	0.463
562.069	0.44
562.997	0.47
563.925	0.544
564.854	0.634
565.782	0.7
566.71	0.761
567.639	0.813
568.567	0.836
569.496	0.843
570.424	0.848
571.352	0.852
572.281	0.856
573.209	0.864
574.138	0.866
575.066	0.872
575.994	0.874
576.923	0.877
577.851	0.881
578.779	0.883
579.708	0.883
580.636	0.883
581.565	0.882
582.493	0.883
583.421	0.885
584.35	0.885
585.278	0.882
586.206	0.878
587.135	0.877
588.063	0.875
588.992	0.875
589.92	0.877
590.848	0.873
591.777	0.872
592.705	0.872
593.634	0.872
594.562	0.875
595.49	0.874
596.419	0.87
597.347	0.87
598.275	0.869
599.204	0.869
600.132	0.869
601.061	0.872
601.989	0.875
602.917	0.874
603.846	0.869
604.774	0.873
605.703	0.873
606.631	0.873
607.559	0.864
608.488	0.864
609.416	0.858
610.344	0.858
611.273	0.856
612.201	0.853
613.13	0.845
614.058	0.843
614.986	0.844
615.915	0.844
616.843	0.846
617.771	0.846
618.7	0.845
619.628	0.85
620.557	0.852
621.485	0.845
622.413	0.844
623.342	0.844
624.27	0.839
625.199	0.832
626.127	0.828
627.055	0.827
627.984	0.825
628.912	0.827
629.84	0.829
630.769	0.828
631.697	0.829
632.626	0.825
633.554	0.823
634.482	0.817
635.411	0.817
636.339	0.817
637.267	0.808
638.196	0.794
639.124	0.79
640.053	0.787
640.981	0.775
641.909	0.77
642.838	0.77
643.766	0.774
644.695	0.777
645.623	0.782
646.551	0.794
647.48	0.795
648.408	0.794
649.336	0.794
650.265	0.795
651.193	0.795
652.122	0.796
653.05	0.8
653.978	0.803
654.907	0.802
655.835	0.8
656.763	0.8
657.692	0.794
658.62	0.792
