Infrared Spectrum: 2,5-DIPHENYLOXAZOLE
Formula: C15 H11 N O
CAS: 92-71-7
State: SOLID (MULL)
Melting point: 71.5-72.5 C
Class: COBLENTZ
Instrument: Not specified, most likely a prism, grating, or hybrid spectrometer.
Sampling: TRANSMISSION
Resolution: 4
Origin: WYANDOTTE CHEMICALS CORP., WYANDOTTE, MICHIGAN, USA
MICROMETERS	TRANSMITTANCE
2.021	0.186
2.06085	0.192
2.1007	0.197
2.14055	0.2
2.18041	0.199
2.22026	0.196
2.26011	0.194
2.29996	0.202
2.33981	0.202
2.37966	0.207
2.41951	0.21
2.45937	0.212
2.49922	0.217
2.53907	0.222
2.57892	0.225
2.61877	0.225
2.65862	0.234
2.69847	0.234
2.73833	0.239
2.77818	0.235
2.81803	0.234
2.85788	0.24
2.89773	0.234
2.93758	0.227
2.97743	0.227
3.01729	0.229
3.05714	0.23
3.09699	0.23
3.13684	0.227
3.17669	0.217
3.21654	0.197
3.25639	0.152
3.29624	0.131
3.3361	0.094
3.37595	0.033
3.4158	0.031
3.45565	0.036
3.4955	0.034
3.53535	0.114
3.5752	0.34
3.61506	0.38
3.65491	0.385
3.69476	0.373
3.73461	0.382
3.77446	0.385
3.81431	0.387
3.85416	0.392
3.89402	0.401
3.93387	0.415
3.97372	0.428
4.01357	0.438
4.05342	0.445
4.09327	0.451
4.13312	0.453
4.17298	0.453
4.21283	0.453
4.25268	0.46
4.29253	0.461
4.33238	0.463
4.37223	0.471
4.41208	0.48
4.45194	0.496
4.49179	0.503
4.53164	0.504
4.57149	0.514
4.61134	0.516
4.65119	0.521
4.69104	0.529
4.7309	0.536
4.77075	0.551
4.8106	0.558
4.85045	0.561
4.8903	0.559
4.93015	0.564
4.97	0.579
5.00986	0.579
5.04971	0.586
5.08956	0.581
5.12941	0.549
5.16926	0.539
5.20911	0.554
5.24896	0.581
5.28881	0.574
5.32867	0.559
5.36852	0.569
5.40837	0.601
5.44822	0.609
5.48807	0.599
5.52792	0.579
5.56777	0.584
5.60763	0.619
5.64748	0.629
5.68733	0.617
5.72718	0.609
5.76703	0.614
5.80688	0.632
5.84673	0.624
5.88659	0.601
5.92644	0.581
5.96629	0.571
6.00614	0.581
6.04599	0.581
6.08584	0.584
6.12569	0.594
6.16555	0.398
6.2054	0.536
6.24525	0.244
6.2851	0.493
6.32495	0.571
6.3648	0.604
6.40465	0.503
6.44451	0.431
6.48436	0.566
6.52421	0.619
6.56406	0.669
6.60391	0.657
6.64376	0.315
6.68361	0.081
6.72347	0.061
6.76332	0.094
6.80317	0.089
6.84302	0.127
6.88287	0.053
6.92272	0.292
6.96257	0.488
7.00243	0.531
7.04228	0.556
7.08213	0.589
7.12198	0.596
7.16183	0.509
7.20168	0.335
7.24153	0.264
7.28138	0.411
7.32124	0.548
7.36109	0.436
7.40094	0.322
7.44079	0.566
7.48064	0.584
7.52049	0.588
7.56034	0.556
7.6002	0.563
7.64005	0.601
7.6799	0.647
7.71975	0.656
7.7596	0.651
7.79945	0.629
7.8393	0.699
7.87916	0.71
7.91901	0.712
7.95886	0.691
7.99871	0.641
8.03856	0.672
8.07841	0.71
8.11826	0.739
8.15812	0.749
8.19797	0.745
8.23782	0.744
8.27767	0.754
8.31752	0.76
8.35737	0.757
8.39722	0.75
8.43708	0.727
8.47693	0.71
8.51678	0.687
8.55663	0.694
8.59648	0.541
8.63633	0.451
8.67618	0.674
8.71604	0.627
8.75589	0.252
8.79574	0.088
8.83559	0.353
8.87544	0.616
8.91529	0.662
8.95514	0.702
8.995	0.687
9.03485	0.621
9.0747	0.666
9.11455	0.72
9.1544	0.745
9.19425	0.739
9.2341	0.614
9.27396	0.495
9.31381	0.264
9.35366	0.478
9.39351	0.375
9.43336	0.466
9.47321	0.694
9.51306	0.755
9.55291	0.767
9.59277	0.78
9.63262	0.74
9.67247	0.433
9.71232	0.262
9.75217	0.433
9.79202	0.5
9.83187	0.574
9.87173	0.672
9.91158	0.727
9.95143	0.651
9.99128	0.717
10.0311	0.782
10.071	0.767
10.1108	0.737
10.1507	0.739
10.1905	0.774
10.2304	0.799
10.2702	0.79
10.3101	0.779
10.3499	0.759
10.3898	0.75
10.4296	0.717
10.4695	0.392
10.5093	0.32
10.5492	0.696
10.5891	0.777
10.6289	0.77
10.6688	0.602
10.7086	0.72
10.7485	0.789
10.7883	0.799
10.8282	0.747
10.868	0.596
10.9079	0.533
10.9477	0.644
10.9876	0.563
11.0274	0.566
11.0673	0.782
11.1071	0.83
11.147	0.858
11.1868	0.87
11.2267	0.873
11.2665	0.88
11.3064	0.887
11.3462	0.897
11.3861	0.898
11.4259	0.91
11.4658	0.925
11.5056	0.931
11.5455	0.931
11.5853	0.933
11.6252	0.926
11.665	0.911
11.7049	0.848
11.7447	0.687
11.7846	0.518
11.8244	0.586
11.8643	0.634
11.9041	0.583
11.944	0.446
11.9839	0.458
12.0237	0.573
12.0636	0.647
12.1034	0.568
12.1433	0.328
12.1831	0.229
12.223	0.48
12.2628	0.747
12.3027	0.828
12.3425	0.853
12.3824	0.865
12.4222	0.885
12.4621	0.9
12.5019	0.915
12.5418	0.928
12.5816	0.933
12.6215	0.941
12.6613	0.941
12.7012	0.92
12.741	0.842
12.7809	0.619
12.8207	0.252
12.8606	0.084
12.9004	0.071
12.9403	0.24
12.9801	0.395
13.02	0.232
13.0598	0.086
13.0997	0.048
13.1395	0.043
13.1794	0.101
13.2192	0.35
13.2591	0.548
13.2989	0.667
13.3388	0.747
13.3786	0.78
13.4185	0.812
13.4584	0.827
13.4982	0.84
13.5381	0.848
13.5779	0.853
13.6178	0.862
13.6576	0.865
13.6975	0.867
13.7373	0.86
13.7772	0.853
13.817	0.837
13.8569	0.805
13.8967	0.782
13.9366	0.734
13.9764	0.578
14.0163	0.45
14.0561	0.222
14.096	0.084
14.1358	0.046
14.1757	0.048
14.2155	0.053
14.2554	0.058
14.2952	0.069
14.3351	0.112
14.3749	0.192
14.4148	0.227
14.4546	0.234
14.4945	0.187
14.5343	0.126
14.5742	0.093
14.614	0.079
14.6539	0.078
14.6937	0.086
14.7336	0.114
14.7734	0.176
14.8133	0.202
14.8532	0.219
14.893	0.237
14.9329	0.297
14.9727	0.337
15.0126	0.363
15.0524	0.4
15.0923	0.433
15.1321	0.471
15.172	0.486
15.2118	0.483
15.2517	0.446
15.2915	0.435
15.3314	0.468
15.3712	0.508
15.4111	0.549
15.4509	0.573
15.4908	0.579
15.5306	0.581
15.5705	0.584
15.6103	0.589
15.6502	0.584
15.69	0.578
15.7299	0.573
15.7697	0.564
15.8096	0.551
15.8494	0.539
15.8893	0.533
15.9291	0.521
15.969	0.504
