Infrared Spectrum: BENZIDINE
Formula: C12 H12 N2
CAS: 92-87-5
State: SOLID (KBr PELLET)
Melting point: 128 C
Class: COBLENTZ
Instrument: Not specified, most likely a prism, grating, or hybrid spectrometer.
Sampling: TRANSMISSION
Resolution: 4
Origin: TENNESSEE EASTMAN COMPANY, RESEARCH LABORATORIES
MICROMETERS	TRANSMITTANCE
2.02	0.576
2.0596	0.584
2.09921	0.601
2.13881	0.611
2.17841	0.627
2.21801	0.641
2.25762	0.651
2.29722	0.662
2.33682	0.671
2.37643	0.674
2.41603	0.682
2.45563	0.686
2.49523	0.694
2.53484	0.704
2.57444	0.712
2.61404	0.715
2.65365	0.729
2.69325	0.735
2.73285	0.742
2.77245	0.74
2.81206	0.729
2.85166	0.71
2.89126	0.631
2.93087	0.352
2.97047	0.272
3.01007	0.139
3.04967	0.245
3.08928	0.307
3.12888	0.157
3.16848	0.35
3.20809	0.563
3.24769	0.651
3.28729	0.571
3.32689	0.637
3.3665	0.747
3.4061	0.764
3.4457	0.79
3.4853	0.808
3.52491	0.837
3.56451	0.842
3.60411	0.84
3.64372	0.847
3.68332	0.852
3.72292	0.853
3.76252	0.863
3.80213	0.87
3.84173	0.875
3.88133	0.893
3.92094	0.895
3.96054	0.885
4.00014	0.893
4.03974	0.915
4.07935	0.918
4.11895	0.916
4.15855	0.92
4.19816	0.921
4.23776	0.923
4.27736	0.92
4.31696	0.92
4.35657	0.92
4.39617	0.923
4.43577	0.926
4.47538	0.933
4.51498	0.938
4.55458	0.948
4.59418	0.95
4.63379	0.95
4.67339	0.948
4.71299	0.95
4.7526	0.948
4.7922	0.948
4.8318	0.951
4.8714	0.95
4.91101	0.948
4.95061	0.938
4.99021	0.945
5.02982	0.955
5.06942	0.955
5.10902	0.953
5.14862	0.95
5.18823	0.945
5.22783	0.948
5.26743	0.875
5.30704	0.878
5.34664	0.953
5.38624	0.981
5.42584	0.983
5.46545	0.985
5.50505	0.985
5.54465	0.985
5.58426	0.98
5.62386	0.973
5.66346	0.958
5.70306	0.961
5.74267	0.961
5.78227	0.956
5.82187	0.953
5.86147	0.946
5.90108	0.926
5.94068	0.883
5.98028	0.795
6.01989	0.631
6.05949	0.488
6.09909	0.34
6.13869	0.152
6.1783	0.106
6.2179	0.096
6.2575	0.415
6.29711	0.725
6.33671	0.812
6.37631	0.837
6.41591	0.852
6.45552	0.858
6.49512	0.852
6.53472	0.8
6.57433	0.611
6.61393	0.137
6.65353	0.054
6.69313	0.242
6.73274	0.463
6.77234	0.676
6.81194	0.707
6.85155	0.727
6.89115	0.795
6.93075	0.842
6.97035	0.865
7.00996	0.855
7.04956	0.807
7.08916	0.858
7.12877	0.89
7.16837	0.91
7.20797	0.915
7.24757	0.913
7.28718	0.9
7.32678	0.897
7.36638	0.89
7.40599	0.888
7.44559	0.898
7.48519	0.911
7.52479	0.923
7.5644	0.921
7.604	0.925
7.6436	0.895
7.68321	0.803
7.72281	0.719
7.76241	0.574
7.80201	0.275
7.84162	0.094
7.88122	0.031
7.92082	0.053
7.96043	0.245
8.00003	0.496
8.03963	0.639
8.07923	0.712
8.11884	0.767
8.15844	0.799
8.19804	0.822
8.23764	0.833
8.27725	0.845
8.31685	0.837
8.35645	0.822
8.39606	0.808
8.43566	0.707
8.47526	0.234
8.51486	0.533
8.55447	0.76
8.59407	0.795
8.63367	0.8
8.67328	0.779
8.71288	0.714
8.75248	0.7
8.79208	0.702
8.83169	0.737
8.87129	0.769
8.91089	0.787
8.9505	0.795
8.9901	0.799
9.0297	0.79
9.0693	0.757
9.10891	0.737
9.14851	0.759
9.18811	0.782
9.22772	0.799
9.26732	0.813
9.30692	0.828
9.34652	0.837
9.38613	0.843
9.42573	0.847
9.46533	0.847
9.50494	0.85
9.54454	0.853
9.58414	0.855
9.62374	0.857
9.66335	0.857
9.70295	0.852
9.74255	0.837
9.78216	0.847
9.82176	0.847
9.86136	0.847
9.90096	0.848
9.94057	0.823
9.98017	0.803
10.0198	0.85
10.0594	0.858
10.099	0.865
10.1386	0.867
10.1782	0.867
10.2178	0.867
10.2574	0.865
10.297	0.865
10.3366	0.858
10.3762	0.838
10.4158	0.82
10.4554	0.82
10.495	0.8
10.5346	0.802
10.5742	0.82
10.6138	0.815
10.6534	0.813
10.693	0.813
10.7326	0.813
10.7722	0.825
10.8118	0.83
10.8514	0.83
10.891	0.822
10.9306	0.818
10.9702	0.81
11.0098	0.799
11.0494	0.789
11.089	0.78
11.1287	0.767
11.1683	0.752
11.2079	0.742
11.2475	0.729
11.2871	0.717
11.3267	0.697
11.3663	0.682
11.4059	0.662
11.4455	0.642
11.4851	0.619
11.5247	0.594
11.5643	0.554
11.6039	0.516
11.6435	0.461
11.6831	0.401
11.7227	0.335
11.7623	0.31
11.8019	0.343
11.8415	0.395
11.8811	0.41
11.9207	0.352
11.9603	0.252
11.9999	0.169
12.0395	0.106
12.0791	0.068
12.1187	0.046
12.1583	0.033
12.1979	0.029
12.2375	0.049
12.2771	0.112
12.3167	0.245
12.3563	0.38
12.3959	0.471
12.4355	0.504
12.4751	0.508
12.5148	0.498
12.5544	0.478
12.594	0.458
12.6336	0.436
12.6732	0.411
12.7128	0.395
12.7524	0.37
12.792	0.35
12.8316	0.332
12.8712	0.317
12.9108	0.297
12.9504	0.28
12.99	0.27
13.0296	0.257
13.0692	0.239
13.1088	0.227
13.1484	0.222
13.188	0.219
13.2276	0.219
13.2672	0.219
13.3068	0.22
13.3464	0.227
13.386	0.237
13.4256	0.262
13.4652	0.284
13.5048	0.322
13.5444	0.357
13.584	0.372
13.6236	0.35
13.6632	0.299
13.7028	0.272
13.7424	0.262
13.782	0.264
13.8216	0.277
13.8612	0.3
13.9009	0.318
13.9405	0.328
13.9801	0.317
14.0197	0.287
14.0593	0.26
14.0989	0.25
14.1385	0.244
14.1781	0.24
14.2177	0.242
14.2573	0.25
14.2969	0.26
14.3365	0.272
14.3761	0.285
14.4157	0.297
14.4553	0.308
14.4949	0.323
14.5345	0.337
14.5741	0.357
14.6137	0.368
14.6533	0.387
14.6929	0.403
14.7325	0.42
14.7721	0.436
14.8117	0.46
14.8513	0.468
14.8909	0.471
14.9305	0.471
14.9701	0.468
15.0097	0.461
15.0493	0.458
15.0889	0.458
15.1285	0.46
15.1681	0.468
15.2077	0.478
15.2473	0.488
15.2869	0.496
15.3266	0.503
15.3662	0.506
15.4058	0.506
15.4454	0.501
15.485	0.501
15.5246	0.5
15.5642	0.501
15.6038	0.508
15.6434	0.508
15.683	0.509
15.7226	0.511
15.7622	0.509
15.8018	0.509
15.8414	0.509
15.881	0.511
15.9206	0.511
15.9602	0.511
