Infrared Spectrum: PHENOTHIAZINE
Formula: C12 H9 N S
CAS: 92-84-2
State: SOLUTION (5% CHCl3)
Class: COBLENTZ
Instrument: Not specified, most likely a grating spectrometer.
Sampling: TRANSMISSION
Path length: 0.010 CM CELL
Resolution: 4
Origin: ABBOTT LABORATORIES
MICROMETERS	TRANSMITTANCE
2	0.979
2.03418	0.976
2.06835	0.973
2.10253	0.973
2.1367	0.974
2.17088	0.974
2.20505	0.968
2.23923	0.961
2.2734	0.964
2.30758	0.969
2.34175	0.968
2.37593	0.964
2.4101	0.968
2.44428	0.964
2.47845	0.953
2.51263	0.949
2.5468	0.949
2.58098	0.956
2.61515	0.958
2.64933	0.959
2.6835	0.959
2.71768	0.959
2.75185	0.959
2.78603	0.956
2.8202	0.951
2.85438	0.938
2.88855	0.941
2.92273	0.938
2.9569	0.86
2.99108	0.763
3.02525	0.886
3.05943	0.901
3.0936	0.914
3.12778	0.931
3.16195	0.936
3.19613	0.938
3.2303	0.938
3.26448	0.932
3.29865	0.884
3.33283	0.845
3.367	0.849
3.40118	0.81
3.43535	0.894
3.46953	0.926
3.5037	0.934
3.53788	0.938
3.57205	0.938
3.60623	0.938
3.6404	0.938
3.67458	0.938
3.70875	0.938
3.74293	0.934
3.7771	0.934
3.81128	0.936
3.84545	0.936
3.87963	0.939
3.9138	0.936
3.94798	0.924
3.98215	0.911
4.01633	0.917
4.0505	0.921
4.08468	0.926
4.11885	0.924
4.15303	0.927
4.1872	0.929
4.22138	0.929
4.25555	0.934
4.28973	0.938
4.3239	0.943
4.35808	0.941
4.39225	0.931
4.42643	0.921
4.4606	0.929
4.49478	0.932
4.52895	0.932
4.56313	0.936
4.5973	0.936
4.63148	0.938
4.66565	0.934
4.69983	0.934
4.734	0.927
4.76818	0.926
4.80235	0.929
4.83653	0.931
4.8707	0.936
4.90488	0.934
4.93905	0.931
4.97323	0.929
5.0074	0.927
5.04158	0.929
5.07575	0.929
5.10993	0.929
5.1441	0.929
5.17828	0.926
5.21245	0.917
5.24663	0.894
5.2808	0.904
5.31498	0.906
5.34915	0.892
5.38333	0.909
5.4175	0.912
5.45168	0.906
5.48585	0.912
5.52003	0.919
5.5542	0.916
5.58838	0.914
5.62255	0.914
5.65673	0.912
5.6909	0.901
5.72508	0.899
5.75925	0.907
5.79343	0.916
5.8276	0.914
5.86178	0.916
5.89595	0.917
5.93013	0.919
5.9643	0.906
5.99848	0.902
6.03265	0.901
6.06683	0.902
6.101	0.907
6.13518	0.907
6.16935	0.907
6.20353	0.904
6.2377	0.889
6.27188	0.698
6.30605	0.703
6.34023	0.805
6.3744	0.524
6.40858	0.634
6.44275	0.792
6.47693	0.829
6.51111	0.852
6.54528	0.867
6.57946	0.874
6.61363	0.876
6.64781	0.859
6.68198	0.842
6.71616	0.75
6.75033	0.654
6.78451	0.613
6.81868	0.331
6.85286	0.038
6.88703	0.028
6.92121	0.381
6.95538	0.351
6.98956	0.574
7.02373	0.783
7.05791	0.855
7.09208	0.867
7.12626	0.537
7.16043	0.51
7.19461	0.638
7.22878	0.733
7.26296	0.78
7.29713	0.783
7.33131	0.804
7.36548	0.85
7.39966	0.879
7.43383	0.896
7.46801	0.899
7.50218	0.899
7.53636	0.894
7.57053	0.881
7.60471	0.854
7.63888	0.763
7.67306	0.534
7.70723	0.284
7.74141	0.261
7.77558	0.591
7.80976	0.725
7.84393	0.71
7.87811	0.72
7.91228	0.815
7.94646	0.842
7.98063	0.77
8.01481	0.631
8.04898	0.671
8.08316	0.725
8.11733	0.78
8.15151	0.812
8.18568	0.834
8.21986	0.845
8.25403	0.86
8.28821	0.867
8.32238	0.871
8.35656	0.877
8.39073	0.884
8.42491	0.886
8.45908	0.899
8.49326	0.899
8.52743	0.896
8.56161	0.896
8.59578	0.894
8.62996	0.889
8.66413	0.882
8.69831	0.822
8.73248	0.85
8.76666	0.871
8.80083	0.871
8.83501	0.857
8.86918	0.798
8.90336	0.731
8.93753	0.653
8.97171	0.649
9.00588	0.753
9.04006	0.827
9.07423	0.869
9.10841	0.886
9.14258	0.894
9.17676	0.901
9.21093	0.901
9.24511	0.897
9.27928	0.857
9.31346	0.855
9.34763	0.889
9.38181	0.907
9.41598	0.881
9.45016	0.824
9.48433	0.862
9.51851	0.897
9.55268	0.911
9.58686	0.912
9.62103	0.906
9.65521	0.879
9.68938	0.696
9.72356	0.597
9.75773	0.742
9.79191	0.82
9.82608	0.869
9.86026	0.886
9.89443	0.897
9.92861	0.901
9.96278	0.904
9.99696	0.906
10.0311	0.906
10.0653	0.907
10.0995	0.904
10.1337	0.911
10.1678	0.906
10.202	0.909
10.2362	0.911
10.2704	0.911
10.3045	0.911
10.3387	0.912
10.3729	0.914
10.4071	0.914
10.4412	0.907
10.4754	0.902
10.5096	0.902
10.5438	0.911
10.5779	0.917
10.6121	0.917
10.6463	0.917
10.6805	0.916
10.7146	0.914
10.7488	0.909
10.783	0.877
10.8172	0.847
10.8513	0.832
10.8855	0.854
10.9197	0.879
10.9539	0.897
10.988	0.902
11.0222	0.909
11.0564	0.916
11.0906	0.917
11.1247	0.919
11.1589	0.917
11.1931	0.914
11.2273	0.916
11.2614	0.911
11.2956	0.901
11.3298	0.881
11.364	0.852
11.3981	0.809
11.4323	0.805
11.4665	0.815
11.5007	0.839
11.5348	0.862
11.569	0.881
11.6032	0.889
11.6374	0.891
11.6715	0.892
11.7057	0.899
11.7399	0.901
11.7741	0.887
11.8082	0.877
11.8424	0.864
11.8766	0.854
11.9108	0.854
11.9449	0.867
11.9791	0.891
12.0133	0.904
12.0475	0.914
12.0816	0.916
12.1158	0.916
12.15	0.921
12.1842	0.921
12.2183	0.922
12.2525	0.922
12.2867	0.921
12.3209	0.922
12.355	0.929
12.3892	0.927
12.4234	0.917
12.4576	0.917
12.4917	0.919
12.5259	0.924
12.5601	0.926
12.5943	0.926
12.6284	0.927
12.6626	0.929
12.6968	0.932
12.731	0.938
12.7651	0.948
12.7993	0.953
12.8335	0.953
12.8677	0.956
12.9018	0.963
12.936	0.973
12.9702	0.979
13.0044	0.981
13.0385	0.984
13.0727	1
13.1069	1.001
13.1411	1
13.1752	1
13.2094	1.001
13.2436	1.001
13.2778	1.011
13.3119	1.013
13.3461	1.013
13.3803	1.013
13.4145	1.015
13.4486	1.015
13.4828	1.015
13.517	1.015
13.5512	1.013
13.5853	1.013
13.6195	1.013
13.6537	1.015
13.6879	1.015
13.722	1.016
13.7562	1.016
13.7904	1.016
13.8246	1.016
13.8587	1.015
13.8929	1.006
13.9271	0.994
13.9613	0.971
13.9954	0.959
14.0296	0.953
14.0638	0.949
14.098	0.939
14.1321	0.929
14.1663	0.922
14.2005	0.919
14.2347	0.916
14.2688	0.912
14.303	0.904
14.3372	0.901
14.3714	0.902
14.4055	0.899
14.4397	0.892
14.4739	0.877
14.5081	0.85
14.5422	0.824
14.5764	0.81
14.6106	0.809
14.6448	0.814
14.6789	0.824
14.7131	0.834
14.7473	0.842
14.7815	0.855
14.8156	0.864
14.8498	0.872
14.884	0.877
14.9182	0.891
14.9523	0.901
14.9865	0.907
15.0207	0.926
15.0549	0.927
15.089	0.907
15.1232	0.871
15.1574	0.81
15.1916	0.79
15.2257	0.783
15.2599	0.783
15.2941	0.802
15.3283	0.817
15.3624	0.835
15.3966	0.85
15.4308	0.872
15.465	0.899
