Infrared Spectrum: 4,4-DIHYDROXY BIPHENYL
Formula: C12 H10 O2
CAS: 92-88-6
State: SOLID (0.5% KBr PELLET)
Class: COBLENTZ
Instrument: Not specified, most likely a grating spectrometer.
Sampling: TRANSMISSION
Resolution: 4
Origin: STANDARD OIL OF OHIO
MICROMETERS	TRANSMITTANCE
2.041	0.905
2.0748	0.905
2.1086	0.905
2.1424	0.905
2.1762	0.909
2.21	0.914
2.2438	0.92
2.2776	0.922
2.3114	0.927
2.34519	0.929
2.37899	0.932
2.41279	0.93
2.44659	0.917
2.48039	0.917
2.51419	0.92
2.54799	0.922
2.58179	0.924
2.61559	0.93
2.64939	0.932
2.68319	0.925
2.71699	0.867
2.75079	0.627
2.78459	0.456
2.81839	0.296
2.85219	0.146
2.88599	0.058
2.91979	0.016
2.95358	0.015
2.98738	0.031
3.02118	0.117
3.05498	0.22
3.08878	0.36
3.12258	0.466
3.15638	0.521
3.19018	0.595
3.22398	0.612
3.25778	0.595
3.29158	0.658
3.32538	0.737
3.35918	0.75
3.39298	0.759
3.42678	0.779
3.46058	0.789
3.49438	0.796
3.52818	0.801
3.56197	0.809
3.59577	0.813
3.62957	0.814
3.66337	0.811
3.69717	0.816
3.73097	0.818
3.76477	0.819
3.79857	0.818
3.83237	0.831
3.86617	0.829
3.89997	0.831
3.93377	0.853
3.96757	0.851
4.00137	0.828
4.03517	0.818
4.06897	0.821
4.10277	0.831
4.13657	0.851
4.17036	0.892
4.20416	0.904
4.23796	0.904
4.27176	0.902
4.30556	0.902
4.33936	0.907
4.37316	0.909
4.40696	0.914
4.44076	0.92
4.47456	0.922
4.50836	0.922
4.54216	0.922
4.57596	0.922
4.60976	0.922
4.64356	0.919
4.67736	0.912
4.71116	0.904
4.74496	0.895
4.77875	0.875
4.81255	0.861
4.84635	0.877
4.88015	0.887
4.91395	0.885
4.94775	0.88
4.98155	0.892
5.01535	0.907
5.04915	0.912
5.08295	0.914
5.11675	0.914
5.15055	0.912
5.18435	0.907
5.21815	0.872
5.25195	0.784
5.28575	0.791
5.31955	0.875
5.35335	0.907
5.38714	0.912
5.42094	0.915
5.45474	0.917
5.48854	0.917
5.52234	0.915
5.55614	0.904
5.58994	0.897
5.62374	0.892
5.65754	0.883
5.69134	0.883
5.72514	0.89
5.75894	0.878
5.79274	0.873
5.82654	0.867
5.86034	0.855
5.89414	0.84
5.92794	0.814
5.96174	0.752
5.99553	0.664
6.02933	0.575
6.06313	0.528
6.09693	0.436
6.13073	0.267
6.16453	0.074
6.19833	0.119
6.23213	0.158
6.26593	0.409
6.29973	0.563
6.33353	0.735
6.36733	0.776
6.40113	0.784
6.43493	0.786
6.46873	0.784
6.50253	0.784
6.53633	0.781
6.57013	0.722
6.60392	0.39
6.63772	0.043
6.67152	0.037
6.70532	0.313
6.73912	0.37
6.77292	0.38
6.80672	0.296
6.84052	0.301
6.87432	0.378
6.90812	0.429
6.94192	0.299
6.97572	0.159
7.00952	0.178
7.04332	0.395
7.07712	0.542
7.11092	0.584
7.14472	0.439
7.17852	0.244
7.21231	0.131
7.24611	0.252
7.27991	0.393
7.31371	0.415
7.34751	0.422
7.38131	0.454
7.41511	0.5
7.44891	0.53
7.48271	0.624
7.51651	0.685
7.55031	0.735
7.58411	0.744
7.61791	0.685
7.65171	0.407
7.68551	0.292
7.71931	0.333
7.75311	0.387
7.78691	0.407
7.8207	0.452
7.8545	0.318
7.8883	0.183
7.9221	0.057
7.9559	0.011
7.9897	0.006
8.0235	0.006
8.0573	0.01
8.0911	0.025
8.1249	0.119
8.1587	0.207
8.1925	0.264
8.2263	0.326
8.2601	0.375
8.2939	0.419
8.3277	0.483
8.3615	0.525
8.3953	0.57
8.42909	0.597
8.46289	0.402
8.49669	0.25
8.53049	0.456
8.56429	0.589
8.59809	0.643
8.63189	0.675
8.66569	0.685
8.69949	0.688
8.73329	0.658
8.76709	0.538
8.80089	0.493
8.83469	0.531
8.86849	0.58
8.90229	0.577
8.93609	0.521
8.96989	0.548
9.00369	0.648
9.03748	0.68
9.07128	0.725
9.10508	0.752
9.13888	0.771
9.17268	0.779
9.20648	0.787
9.24028	0.797
9.27408	0.801
9.30788	0.801
9.34168	0.803
9.37548	0.803
9.40928	0.806
9.44308	0.808
9.47688	0.811
9.51068	0.819
9.54448	0.824
9.57828	0.826
9.61208	0.829
9.64587	0.831
9.67967	0.824
9.71347	0.767
9.74727	0.69
9.78107	0.742
9.81487	0.781
9.84867	0.808
9.88247	0.816
9.91627	0.717
9.95007	0.698
9.98387	0.797
10.0177	0.861
10.0515	0.861
10.0853	0.867
10.1191	0.865
10.1529	0.868
10.1867	0.877
10.2205	0.877
10.2543	0.878
10.2881	0.877
10.3219	0.873
10.3557	0.873
10.3895	0.872
10.4233	0.867
10.4571	0.853
10.4909	0.851
10.5247	0.87
10.5585	0.87
10.5923	0.873
10.6261	0.875
10.6599	0.873
10.6937	0.867
10.7275	0.868
10.7613	0.875
10.7951	0.875
10.8289	0.878
10.8627	0.88
10.8965	0.882
10.9303	0.88
10.9641	0.877
10.9979	0.875
11.0317	0.872
11.0655	0.875
11.0993	0.87
11.133	0.87
11.1668	0.87
11.2006	0.872
11.2344	0.872
11.2682	0.87
11.302	0.87
11.3358	0.868
11.3696	0.868
11.4034	0.863
11.4372	0.863
11.471	0.861
11.5048	0.86
11.5386	0.86
11.5724	0.858
11.6062	0.855
11.64	0.843
11.6738	0.829
11.7076	0.806
11.7414	0.789
11.7752	0.771
11.809	0.749
11.8428	0.72
11.8766	0.7
11.9104	0.634
11.9442	0.567
11.978	0.422
12.0118	0.269
12.0456	0.143
12.0794	0.067
12.1132	0.025
12.147	0.013
12.1808	0.011
12.2146	0.013
12.2484	0.028
12.2822	0.067
12.316	0.141
12.3498	0.156
12.3836	0.191
12.4174	0.372
12.4512	0.508
12.485	0.624
12.5188	0.703
12.5526	0.75
12.5864	0.765
12.6202	0.781
12.654	0.789
12.6878	0.797
12.7216	0.804
12.7554	0.809
12.7892	0.813
12.823	0.816
12.8568	0.818
12.8906	0.819
12.9244	0.821
12.9582	0.821
12.992	0.824
13.0258	0.824
13.0596	0.821
13.0934	0.821
13.1272	0.819
13.161	0.814
13.1948	0.813
13.2286	0.813
13.2624	0.813
13.2962	0.811
13.33	0.809
13.3638	0.808
13.3976	0.808
13.4314	0.806
13.4652	0.804
13.499	0.804
13.5328	0.801
13.5666	0.801
13.6004	0.799
13.6342	0.794
13.668	0.789
13.7018	0.786
13.7356	0.786
13.7694	0.784
13.8032	0.784
13.837	0.782
13.8708	0.781
13.9046	0.777
13.9384	0.772
13.9722	0.767
14.006	0.764
14.0398	0.75
14.0736	0.725
14.1074	0.703
14.1412	0.691
14.175	0.683
14.2088	0.681
14.2426	0.685
14.2764	0.702
14.3102	0.718
14.344	0.727
14.3778	0.73
14.4116	0.732
14.4454	0.73
14.4792	0.732
14.513	0.732
14.5468	0.732
14.5806	0.728
14.6144	0.725
14.6482	0.72
14.682	0.72
14.7158	0.717
14.7496	0.712
14.7834	0.695
14.8172	0.683
14.851	0.68
14.8848	0.678
14.9186	0.678
14.9524	0.678
14.9862	0.678
15.02	0.678
15.0538	0.681
15.0876	0.681
15.1214	0.68
15.1552	0.675
15.189	0.671
15.2228	0.668
15.2566	0.666
15.2904	0.664
15.3242	0.659
15.358	0.659
