Infrared Spectrum: PYRIMIDINE, 4-AMINO-6-BENZYLTHIO-5-(N-ETHYLFORMAMIDO)-
Formula: C14 H16 N4 O S
CAS: 92296-30-5
State: SOLID (0.8 mg / 650 mg KBr DISC)
Class: COBLENTZ III
Instrument: PERKIN-ELMER 221 (GRATING)
Instrument parameters: FILTER AT 2490, 980 CM^-^1. GRATING 4000-1428 CM^-^1, NaCl PRISM 1428-650 CM^-^1
Sampling: TRANSMISSION
Resolution: 2
Origin: SOUTHERN RESEARCH INSTITUTE
1/CM	TRANSMITTANCE
614.677	0.925
623.842	0.924
633.008	0.9172
642.173	0.8311
651.338	0.8811
660.504	0.936
669.669	0.9282
678.834	0.9176
688	0.8561
697.165	0.6959
706.33	0.8407
715.495	0.6104
724.661	0.6648
733.826	0.8131
742.991	0.7721
752.157	0.8698
761.322	0.8833
770.487	0.8471
779.653	0.8321
788.818	0.6589
797.983	0.6436
807.149	0.806
816.314	0.6772
825.479	0.8265
834.645	0.9554
843.81	0.9547
852.975	0.9524
862.141	0.9442
871.306	0.929
880.471	0.9198
889.636	0.913
898.802	0.9088
907.967	0.8974
917.132	0.7614
926.298	0.5909
935.463	0.8751
944.628	0.8389
953.794	0.6568
962.959	0.481
972.124	0.8119
981.29	0.8865
990.455	0.902
999.62	0.8861
1008.79	0.8518
1017.95	0.8203
1027.12	0.8305
1036.28	0.8162
1045.45	0.8305
1054.61	0.734
1063.78	0.74
1072.94	0.7761
1082.11	0.8087
1091.27	0.793
1100.44	0.7938
1109.6	0.7586
1118.77	0.6608
1127.93	0.6311
1137.1	0.79
1146.27	0.7916
1155.43	0.774
1164.6	0.7692
1173.76	0.7334
1182.93	0.6739
1192.09	0.6909
1201.26	0.6477
1210.42	0.6495
1219.59	0.716
1228.75	0.6932
1237.92	0.6398
1247.08	0.6143
1256.25	0.49
1265.41	0.5001
1274.58	0.6386
1283.75	0.515
1292.91	0.6933
1302.08	0.72
1311.24	0.718
1320.41	0.6683
1329.57	0.6131
1338.74	0.4786
1347.9	0.5193
1357.07	0.364
1366.23	0.4467
1375.4	0.5437
1384.56	0.375
1393.73	0.546
1402.89	0.697
1412.06	0.602
1421.22	0.5117
1430.39	0.7
1439.56	0.6674
1448.72	0.633
1457.89	0.5599
1467.05	0.651
1476.22	0.6461
1485.38	0.5378
1494.55	0.4869
1503.71	0.6394
1512.88	0.6619
1522.04	0.6051
1531.21	0.521
1540.37	0.3879
1549.54	0.2924
1558.7	0.1576
1567.87	0.1865
1577.04	0.3957
1586.2	0.6153
1595.37	0.7074
1604.53	0.7149
1613.7	0.7026
1622.86	0.6475
1632.03	0.5747
1641.19	0.4969
1650.36	0.3364
1659.52	0.184
1668.69	0.254
1677.85	0.1863
1687.02	0.1179
1696.18	0.2537
1705.35	0.5425
1714.51	0.6244
1723.68	0.7358
1732.85	0.8635
1742.01	0.9325
1751.18	0.9484
1760.34	0.985
1769.51	1.0039
1778.67	1.0104
1787.84	1.013
1797	1.013
1806.17	1.013
1815.33	1.013
1824.5	1.013
1833.66	1.013
1842.83	1.0106
1851.99	1.01
1861.16	1.009
1870.33	1.0067
1879.49	1.0027
1888.66	0.9994
1897.82	0.996
1906.99	0.992
1916.15	0.988
1925.32	0.984
1934.48	0.9716
1943.65	0.9629
1952.81	0.959
1961.98	0.959
1971.14	0.959
1980.31	0.959
1989.47	0.958
1998.64	0.958
2007.81	0.9471
2016.97	0.941
2026.14	0.938
2035.3	0.936
2044.47	0.936
2053.63	0.933
2062.8	0.93
2071.96	0.928
2081.13	0.925
2090.29	0.9221
2099.46	0.921
2108.62	0.916
2117.79	0.912
2126.95	0.909
2136.12	0.908
2145.28	0.906
2154.45	0.906
2163.62	0.906
2172.78	0.904
2181.95	0.9001
2191.11	0.895
2200.28	0.894
2209.44	0.891
2218.61	0.889
2227.77	0.887
2236.94	0.887
2246.1	0.886
2255.27	0.885
2264.43	0.883
2273.6	0.881
2282.76	0.877
2291.93	0.872
2301.1	0.868
2310.26	0.864
2319.43	0.856
2328.59	0.8531
2337.76	0.851
2346.92	0.848
2356.09	0.849
2365.25	0.851
2374.42	0.852
2383.58	0.852
2392.75	0.852
2401.91	0.851
2411.08	0.849
2420.24	0.848
2429.41	0.847
2438.57	0.845
2447.74	0.845
2456.91	0.8469
2466.07	0.847
2475.24	0.844
2484.4	0.84
2493.57	0.836
2502.73	0.834
2511.9	0.832
2521.06	0.831
2530.23	0.83
2539.39	0.827
2548.56	0.823
2557.72	0.817
2566.89	0.814
2576.05	0.812
2585.22	0.808
2594.39	0.801
2603.55	0.7931
2612.72	0.788
2621.88	0.784
2631.05	0.78
2640.21	0.776
2649.38	0.771
2658.54	0.767
2667.71	0.763
2676.87	0.757
2686.04	0.751
2695.2	0.745
2704.37	0.741
2713.53	0.744
2722.7	0.746
2731.87	0.75
2741.03	0.749
2750.2	0.746
2759.36	0.741
2768.53	0.737
2777.69	0.732
2786.86	0.728
2796.02	0.728
2805.19	0.7251
2814.35	0.7141
2823.52	0.707
2832.68	0.6951
2841.85	0.69
2851.01	0.684
2860.18	0.6692
2869.34	0.642
2878.51	0.637
2887.68	0.634
2896.84	0.633
2906.01	0.631
2915.17	0.629
2924.34	0.6121
2933.5	0.605
2942.67	0.605
2951.83	0.608
2961	0.608
2970.16	0.5804
2979.33	0.561
2988.49	0.558
2997.66	0.558
3006.82	0.557
3015.99	0.553
3025.16	0.5412
3034.32	0.523
3043.49	0.5201
3052.65	0.5092
3061.82	0.4842
3070.98	0.4801
3080.15	0.4564
3089.31	0.446
3098.48	0.434
3107.64	0.4242
3116.81	0.3981
3125.97	0.39
3135.14	0.39
3144.3	0.3939
3153.47	0.4029
3162.63	0.4466
3171.8	0.4718
3180.97	0.5105
3190.13	0.5517
3199.3	0.5867
3208.46	0.6239
3217.63	0.631
3226.79	0.6459
3235.96	0.6759
3245.12	0.681
3254.29	0.681
3263.45	0.6731
3272.62	0.6521
3281.78	0.6401
3290.95	0.6101
3300.11	0.5663
3309.28	0.4944
3318.45	0.486
3327.61	0.485
3336.78	0.483
3345.94	0.469
3355.11	0.466
3364.27	0.4492
3373.44	0.3656
3382.6	0.2934
3391.77	0.281
3400.93	0.3582
3410.1	0.4724
3419.26	0.5606
3428.43	0.6197
3437.59	0.6558
3446.76	0.6679
3455.93	0.7009
3465.09	0.707
3474.26	0.71
3483.42	0.7139
3492.59	0.7209
3501.75	0.725
3510.92	0.731
3520.08	0.733
3529.25	0.736
3538.41	0.738
3547.58	0.741
3556.74	0.7479
3565.91	0.75
3575.07	0.755
3584.24	0.763
3593.4	0.767
3602.57	0.772
3611.74	0.7779
3620.9	0.781
3630.07	0.784
3639.23	0.784
3648.4	0.784
3657.56	0.784
3666.73	0.784
3675.89	0.784
3685.06	0.783
3694.22	0.783
3703.39	0.7811
3712.55	0.78
3721.72	0.779
3730.88	0.778
3740.05	0.776
3749.22	0.775
3758.38	0.775
3767.55	0.776
3776.71	0.776
3785.88	0.775
3795.04	0.7721
3804.21	0.7681
3813.37	0.768
3822.54	0.767
3831.7	0.766
3840.87	0.763
3850.03	0.761
3859.2	0.761
3868.36	0.761
3877.53	0.759
3886.69	0.759
3895.86	0.758
3905.03	0.758
3914.19	0.758
3923.36	0.757
3932.52	0.7551
3941.69	0.755
3950.85	0.754
3960.02	0.754
3969.18	0.753
3978.35	0.751
3987.51	0.75
3996.68	0.75
4005.84	0.75
