Infrared Spectrum: 2-PYRAZOLINE-5-ONE, 4,4-DIMETHYL-3-ISOPROPYL-1-PHENYL-
Formula: C14 H18 N2 O
CAS: 92292-40-5
State: SOLID (KBr PELLET)
Melting point: 67-68 C
Class: COBLENTZ
Instrument: Not specified, most likely a prism, grating, or hybrid spectrometer.
Sampling: TRANSMISSION
Resolution: 4
Origin: TENNESSEE EASTMAN COMPANY, RESEARCH LABORATORIES
MICROMETERS	TRANSMITTANCE
2.034	0.409
2.07486	0.426
2.11571	0.445
2.15657	0.465
2.19742	0.484
2.23828	0.486
2.27913	0.496
2.31999	0.505
2.36084	0.515
2.4017	0.525
2.44256	0.537
2.48341	0.551
2.52427	0.563
2.56512	0.575
2.60598	0.58
2.64683	0.585
2.68769	0.599
2.72855	0.626
2.7694	0.594
2.81026	0.575
2.85111	0.547
2.89197	0.53
2.93282	0.523
2.97368	0.547
3.01453	0.592
3.05539	0.623
3.09625	0.635
3.1371	0.667
3.17796	0.678
3.21881	0.695
3.25967	0.691
3.30052	0.683
3.34138	0.643
3.38224	0.554
3.42309	0.604
3.46395	0.664
3.5048	0.731
3.54566	0.761
3.58651	0.779
3.62737	0.789
3.66822	0.792
3.70908	0.794
3.74994	0.801
3.79079	0.806
3.83165	0.811
3.8725	0.816
3.91336	0.821
3.95421	0.83
3.99507	0.837
4.03592	0.839
4.07678	0.84
4.11764	0.827
4.15849	0.847
4.19935	0.849
4.2402	0.851
4.28106	0.832
4.32191	0.837
4.36277	0.844
4.40363	0.873
4.44448	0.875
4.48534	0.886
4.52619	0.892
4.56705	0.893
4.6079	0.895
4.64876	0.898
4.68961	0.902
4.73047	0.902
4.77133	0.907
4.81218	0.91
4.85304	0.914
4.89389	0.914
4.93475	0.916
4.9756	0.917
5.01646	0.924
5.05732	0.922
5.09817	0.916
5.13903	0.912
5.17988	0.928
5.22074	0.929
5.26159	0.929
5.30245	0.924
5.3433	0.912
5.38416	0.931
5.42502	0.934
5.46587	0.931
5.50673	0.919
5.54758	0.912
5.58844	0.91
5.62929	0.89
5.67015	0.837
5.711	0.832
5.75186	0.796
5.79272	0.616
5.83357	0.058
5.87443	0.208
5.91528	0.695
5.95614	0.82
5.99699	0.84
6.03785	0.849
6.07871	0.859
6.11956	0.852
6.16042	0.859
6.20127	0.827
6.24213	0.527
6.28298	0.45
6.32384	0.818
6.36469	0.91
6.40555	0.914
6.44641	0.921
6.48726	0.898
6.52812	0.849
6.56897	0.835
6.60983	0.666
6.65068	0.383
6.69154	0.15
6.7324	0.686
6.77325	0.511
6.81411	0.428
6.85496	0.652
6.89582	0.714
6.93667	0.832
6.97753	0.89
7.01838	0.89
7.05924	0.898
7.1001	0.904
7.14095	0.823
7.18181	0.78
7.22266	0.628
7.26352	0.27
7.30437	0.601
7.34523	0.522
7.38608	0.484
7.42694	0.169
7.4678	0.354
7.50865	0.787
7.54951	0.559
7.59036	0.803
7.63122	0.647
7.67207	0.907
7.71293	0.861
7.75379	0.928
7.79464	0.967
7.8355	0.95
7.87635	0.775
7.91721	0.823
7.95806	0.868
7.99892	0.835
8.03977	0.84
8.08063	0.888
8.12149	0.953
8.16234	0.967
8.2032	0.977
8.24405	0.974
8.28491	0.969
8.32576	0.97
8.36662	0.969
8.40748	0.952
8.44833	0.869
8.48919	0.761
8.53004	0.885
8.5709	0.924
8.61175	0.9
8.65261	0.839
8.69346	0.647
8.73432	0.381
8.77518	0.578
8.81603	0.811
8.85689	0.881
8.89774	0.907
8.9386	0.868
8.97945	0.717
9.02031	0.791
9.06116	0.873
9.10202	0.905
9.14288	0.825
9.18373	0.554
9.22459	0.738
9.26544	0.623
9.3063	0.614
9.34715	0.84
9.38801	0.883
9.42887	0.813
9.46972	0.458
9.51058	0.63
9.55143	0.886
9.59229	0.928
9.63314	0.938
9.674	0.933
9.71485	0.929
9.75571	0.936
9.79657	0.95
9.83742	0.964
9.87828	0.962
9.91913	0.957
9.95999	0.972
10.0008	0.977
10.0417	0.977
10.0826	0.97
10.1234	0.974
10.1643	0.981
10.2051	0.982
10.246	0.981
10.2868	0.96
10.3277	0.921
10.3685	0.933
10.4094	0.953
10.4503	0.969
10.4911	0.969
10.532	0.91
10.5728	0.881
10.6137	0.952
10.6545	0.981
10.6954	0.989
10.7362	0.993
10.7771	0.998
10.818	0.989
10.8588	0.97
10.8997	0.964
10.9405	0.905
10.9814	0.816
11.0222	0.851
11.0631	0.926
11.1039	0.958
11.1448	0.964
11.1857	0.948
11.2265	0.878
11.2674	0.869
11.3082	0.921
11.3491	0.917
11.3899	0.823
11.4308	0.818
11.4716	0.926
11.5125	0.952
11.5534	0.964
11.5942	0.969
11.6351	0.97
11.6759	0.972
11.7168	0.972
11.7576	0.972
11.7985	0.974
11.8393	0.974
11.8802	0.97
11.9211	0.964
11.9619	0.962
12.0028	0.967
12.0436	0.969
12.0845	0.972
12.1253	0.972
12.1662	0.969
12.207	0.964
12.2479	0.967
12.2888	0.967
12.3296	0.97
12.3705	0.969
12.4113	0.965
12.4522	0.965
12.493	0.965
12.5339	0.965
12.5747	0.964
12.6156	0.958
12.6565	0.948
12.6973	0.938
12.7382	0.895
12.779	0.859
12.8199	0.886
12.8607	0.907
12.9016	0.905
12.9424	0.857
12.9833	0.628
13.0242	0.369
13.065	0.196
13.1059	0.2
13.1467	0.227
13.1876	0.535
13.2284	0.76
13.2693	0.839
13.3101	0.857
13.351	0.849
13.3919	0.854
13.4327	0.881
13.4736	0.902
13.5144	0.898
13.5553	0.809
13.5961	0.609
13.637	0.527
13.6778	0.726
13.7187	0.835
13.7596	0.881
13.8004	0.9
13.8413	0.905
13.8821	0.912
13.923	0.919
13.9638	0.919
14.0047	0.917
14.0455	0.912
14.0864	0.907
14.1273	0.895
14.1681	0.852
14.209	0.808
14.2498	0.773
14.2907	0.738
14.3315	0.672
14.3724	0.556
14.4132	0.5
14.4541	0.544
14.495	0.648
14.5358	0.732
14.5767	0.775
14.6175	0.789
14.6584	0.791
14.6992	0.785
14.7401	0.779
14.781	0.77
14.8218	0.765
14.8627	0.753
14.9035	0.726
14.9444	0.683
14.9852	0.655
15.0261	0.654
15.0669	0.672
15.1078	0.676
15.1487	0.664
15.1895	0.643
15.2304	0.619
15.2712	0.602
15.3121	0.587
15.3529	0.568
15.3938	0.556
15.4346	0.534
15.4755	0.517
15.5164	0.498
15.5572	0.464
15.5981	0.452
15.6389	0.443
15.6798	0.441
15.7206	0.448
15.7615	0.452
15.8023	0.448
15.8432	0.441
15.8841	0.436
15.9249	0.428
15.9658	0.426
