Infrared Spectrum: 3-DECANONE
Formula: C10 H20 O
CAS: 928-80-3
State: SOLUTION (10% IN CCl4 FOR 4000-1340, 10% IN CS2 FOR 1340-650, AND 10% IN CCl4 FOR 650-325 CM^-^1) VS. SOLVENT
Class: COBLENTZ II
Instrument: PERKIN-ELMER 521 (GRATING)
Instrument parameters: FILTERS AT 3150, 2500, 2000, 1150, 700, 410. GRATING CHANGES: 2000, 630 CM^-^1
Sampling: TRANSMISSION
Path length: 0.01 CM, 0.01 CM, AND 0.01 CM ; KBr CELLS
Resolution: 2
Origin: STANDARD OIL OF OHIO
1/CM	TRANSMITTANCE
323.332	0.709
332.561	0.721
341.79	0.75
351.019	0.81
360.248	0.825
369.477	0.854
378.706	0.885
387.935	0.894
397.164	0.899
406.392	0.908
415.621	0.919
424.85	0.931
434.079	0.945
443.308	0.956
452.537	0.96
461.766	0.963
470.995	0.976
480.224	0.977
489.453	0.976
498.682	0.976
507.911	0.973
517.14	0.972
526.369	0.972
535.598	0.973
544.827	0.98
554.055	0.992
563.284	0.997
572.513	1
581.742	1
590.971	1
600.2	0.997
609.429	0.992
618.658	0.984
627.887	0.973
637.116	0.959
646.345	0.952
655.574	0.955
664.803	0.98
674.032	0.989
683.261	0.992
692.49	0.986
701.718	0.968
710.947	0.937
720.176	0.872
729.405	0.882
738.634	0.927
747.863	0.941
757.092	0.948
766.321	0.948
775.55	0.943
784.779	0.944
794.008	0.951
803.237	0.951
812.466	0.944
821.695	0.939
830.924	0.943
840.153	0.949
849.381	0.953
858.61	0.956
867.839	0.96
877.068	0.961
886.297	0.96
895.526	0.947
904.755	0.945
913.984	0.949
923.213	0.941
932.442	0.932
941.671	0.91
950.9	0.889
960.129	0.89
969.358	0.885
978.587	0.866
987.816	0.873
997.044	0.898
1006.27	0.898
1015.5	0.889
1024.73	0.889
1033.96	0.879
1043.19	0.852
1052.42	0.889
1061.65	0.893
1070.88	0.903
1080.1	0.914
1089.33	0.902
1098.56	0.716
1107.79	0.585
1117.02	0.773
1126.25	0.716
1135.48	0.704
1144.71	0.841
1153.94	0.844
1163.17	0.836
1172.39	0.856
1181.62	0.866
1190.85	0.856
1200.08	0.857
1209.31	0.877
1218.54	0.895
1227.77	0.911
1237	0.906
1246.23	0.894
1255.45	0.866
1264.68	0.852
1273.91	0.858
1283.14	0.86
1292.37	0.843
1301.6	0.836
1310.83	0.832
1320.06	0.825
1329.29	0.775
1338.52	0.721
1347.74	0.646
1356.97	0.588
1366.2	0.596
1375.43	0.459
1384.66	0.6
1393.89	0.777
1403.12	0.678
1412.35	0.534
1421.58	0.638
1430.8	0.732
1440.03	0.692
1449.26	0.593
1458.49	0.341
1467.72	0.424
1476.95	0.813
1486.18	0.882
1495.41	0.91
1504.64	0.923
1513.87	0.93
1523.09	0.936
1532.32	0.941
1541.55	0.948
1550.78	0.949
1560.01	0.949
1569.24	0.947
1578.47	0.945
1587.7	0.943
1596.93	0.941
1606.15	0.935
1615.38	0.934
1624.61	0.934
1633.84	0.93
1643.07	0.926
1652.3	0.92
1661.53	0.912
1670.76	0.887
1679.99	0.845
1689.21	0.819
1698.44	0.692
1707.67	0.292
1716.9	0.072
1726.13	0.108
1735.36	0.581
1744.59	0.783
1753.82	0.866
1763.05	0.891
1772.28	0.912
1781.5	0.93
1790.73	0.939
1799.96	0.948
1809.19	0.953
1818.42	0.956
1827.65	0.957
1836.88	0.96
1846.11	0.96
1855.34	0.96
1864.56	0.96
1873.79	0.961
1883.02	0.964
1892.25	0.963
1901.48	0.963
1910.71	0.963
1919.94	0.963
1929.17	0.961
1938.4	0.961
1947.63	0.961
1956.85	0.96
1966.08	0.96
1975.31	0.96
1984.54	0.96
1993.77	0.96
2003	0.957
2012.23	0.955
2021.46	0.955
2030.69	0.955
2039.91	0.955
2049.14	0.956
2058.37	0.955
2067.6	0.955
2076.83	0.955
2086.06	0.955
2095.29	0.952
2104.52	0.952
2113.75	0.952
2122.97	0.952
2132.2	0.951
2141.43	0.951
2150.66	0.951
2159.89	0.952
2169.12	0.952
2178.35	0.952
2187.58	0.951
2196.81	0.951
2206.04	0.951
2215.26	0.951
2224.49	0.951
2233.72	0.951
2242.95	0.951
2252.18	0.951
2261.41	0.951
2270.64	0.951
2279.87	0.952
2289.1	0.952
2298.32	0.952
2307.55	0.949
2316.78	0.949
2326.01	0.948
2335.24	0.948
2344.47	0.948
2353.7	0.948
2362.93	0.949
2372.16	0.949
2381.39	0.949
2390.61	0.951
2399.84	0.952
2409.07	0.952
2418.3	0.952
2427.53	0.952
2436.76	0.952
2445.99	0.951
2455.22	0.951
2464.45	0.951
2473.67	0.951
2482.9	0.951
2492.13	0.952
2501.36	0.953
2510.59	0.953
2519.82	0.951
2529.05	0.952
2538.28	0.952
2547.51	0.952
2556.74	0.952
2565.96	0.952
2575.19	0.949
2584.42	0.948
2593.65	0.948
2602.88	0.947
2612.11	0.947
2621.34	0.945
2630.57	0.943
2639.8	0.94
2649.02	0.936
2658.25	0.934
2667.48	0.932
2676.71	0.93
2685.94	0.93
2695.17	0.931
2704.4	0.93
2713.63	0.928
2722.86	0.924
2732.08	0.916
2741.31	0.916
2750.54	0.923
2759.77	0.923
2769	0.918
2778.23	0.914
2787.46	0.897
2796.69	0.877
2805.92	0.849
2815.15	0.832
2824.37	0.792
2833.6	0.722
2842.83	0.616
2852.06	0.22
2861.29	0.195
2870.52	0.3
2879.75	0.333
2888.98	0.346
2898.21	0.277
2907.43	0.204
2916.66	0.124
2925.89	0.068
2935.12	0.069
2944.35	0.121
2953.58	0.137
2962.81	0.141
2972.04	0.251
2981.27	0.341
2990.5	0.49
2999.72	0.67
3008.95	0.783
3018.18	0.841
3027.41	0.868
3036.64	0.89
3045.87	0.902
3055.1	0.912
3064.33	0.918
3073.56	0.922
3082.78	0.927
3092.01	0.93
3101.24	0.934
3110.47	0.937
3119.7	0.939
3128.93	0.939
3138.16	0.939
3147.39	0.94
3156.62	0.94
3165.84	0.94
3175.07	0.939
3184.3	0.939
3193.53	0.94
3202.76	0.944
3211.99	0.948
3221.22	0.949
3230.45	0.952
3239.68	0.952
3248.91	0.952
3258.13	0.952
3267.36	0.952
3276.59	0.952
3285.82	0.952
3295.05	0.953
3304.28	0.953
3313.51	0.953
3322.74	0.953
3331.97	0.953
3341.19	0.952
3350.42	0.951
3359.65	0.949
3368.88	0.949
3378.11	0.949
3387.34	0.947
3396.57	0.941
3405.8	0.932
3415.03	0.923
3424.26	0.923
3433.48	0.935
3442.71	0.948
3451.94	0.953
3461.17	0.955
3470.4	0.955
3479.63	0.956
3488.86	0.957
3498.09	0.957
3507.32	0.957
3516.54	0.957
3525.77	0.957
3535	0.956
3544.23	0.956
3553.46	0.956
3562.69	0.959
3571.92	0.96
3581.15	0.961
3590.38	0.961
3599.61	0.961
3608.83	0.961
3618.06	0.961
3627.29	0.963
3636.52	0.963
3645.75	0.963
3654.98	0.963
3664.21	0.963
3673.44	0.96
3682.67	0.956
3691.89	0.956
3701.12	0.96
3710.35	0.96
3719.58	0.961
3728.81	0.961
3738.04	0.963
3747.27	0.963
3756.5	0.963
3765.73	0.963
3774.95	0.963
3784.18	0.963
3793.41	0.963
3802.64	0.964
3811.87	0.963
3821.1	0.961
3830.33	0.961
3839.56	0.96
3848.79	0.959
3858.02	0.959
3867.24	0.957
3876.47	0.956
3885.7	0.957
3894.93	0.959
3904.16	0.959
