Infrared Spectrum: Dodecanamine hydrochloride
Formula: C12 H28 Cl N
CAS: 929-73-7
State: SOLID (KBr DISC, 0.8% WT.)
Class: COBLENTZ
Instrument: PERKIN-ELMER 157
Sampling: TRANSMISSION
Resolution: 2
Origin: BRITISH PETROLEUM CO. LTD., ENGLAND
1/CM	TRANSMITTANCE
668	0.9185
677	0.8899
686	0.8662
695	0.8471
704	0.8001
713	0.704
722	0.4211
731	0.5878
740	0.6789
749	0.7064
758	0.7016
767	0.6593
776	0.6976
785	0.7041
794	0.6924
803	0.7184
812	0.7187
821	0.7182
830	0.6798
839	0.6375
848	0.6868
857	0.6966
866	0.679
875	0.6704
884	0.613
893	0.6181
902	0.6197
911	0.622
920	0.5426
929	0.4217
938	0.4857
947	0.5972
956	0.6132
965	0.6112
974	0.5605
983	0.5167
992	0.5507
1001	0.5395
1010	0.4971
1019	0.4759
1028	0.5106
1037	0.4923
1046	0.4973
1055	0.5299
1064	0.4994
1073	0.5067
1082	0.5687
1091	0.5829
1100	0.5704
1109	0.5057
1118	0.483
1127	0.5605
1136	0.4769
1145	0.325
1154	0.4159
1163	0.5199
1172	0.5382
1181	0.5487
1190	0.5491
1199	0.5447
1208	0.5214
1217	0.5373
1226	0.5356
1235	0.5104
1244	0.5238
1253	0.517
1262	0.5026
1271	0.4981
1280	0.496
1289	0.4852
1298	0.4667
1307	0.4481
1316	0.4705
1325	0.4789
1334	0.4773
1343	0.4767
1352	0.4849
1361	0.4777
1370	0.4477
1379	0.4011
1388	0.4219
1397	0.4108
1406	0.4432
1415	0.467
1424	0.4497
1433	0.3972
1442	0.3727
1451	0.2791
1460	0.1897
1469	0.1331
1478	0.1998
1487	0.2557
1496	0.2312
1505	0.1732
1514	0.1233
1523	0.1568
1532	0.213
1541	0.2983
1550	0.3112
1559	0.294
1568	0.2597
1577	0.2221
1586	0.1935
1595	0.1878
1604	0.194
1613	0.208
1622	0.2622
1631	0.3372
1640	0.3725
1649	0.3879
1658	0.394
1667	0.3958
1676	0.3965
1685	0.3971
1694	0.3978
1703	0.3981
1712	0.3983
1721	0.3986
1730	0.3989
1739	0.3989
1748	0.3985
1757	0.3984
1766	0.3988
1775	0.3988
1784	0.3981
1793	0.3973
1802	0.396
1811	0.3942
1820	0.3913
1829	0.3871
1838	0.3818
1847	0.3783
1856	0.3759
1865	0.3742
1874	0.3653
1883	0.3605
1892	0.3578
1901	0.3519
1910	0.3487
1919	0.3482
1928	0.348
1937	0.3479
1946	0.3484
1955	0.349
1964	0.3495
1973	0.35
1982	0.3501
1991	0.3502
2000	0.3502
2009	0.3506
2018	0.351
2027	0.3513
2036	0.3535
2045	0.357
2054	0.3593
2063	0.3611
2072	0.3625
2081	0.3628
2090	0.3627
2099	0.3626
2108	0.3624
2117	0.3621
2126	0.3617
2135	0.3611
2144	0.3601
2153	0.3589
2162	0.3575
2171	0.3555
2180	0.3533
2189	0.3517
2198	0.3502
2207	0.349
2216	0.3479
2225	0.3469
2234	0.3426
2243	0.3408
2252	0.3404
2261	0.3393
2270	0.3368
2279	0.331
2288	0.3257
2297	0.3209
2306	0.3165
2315	0.3138
2324	0.3114
2333	0.3093
2342	0.3076
2351	0.3061
2360	0.3049
2369	0.3035
2378	0.3016
2387	0.2987
2396	0.2926
2405	0.2855
2414	0.2801
2423	0.2764
2432	0.2732
2441	0.271
2450	0.2683
2459	0.2642
2468	0.2564
2477	0.2453
2486	0.2391
2495	0.2342
2504	0.2301
2513	0.2277
2522	0.2257
2531	0.2244
2540	0.2232
2549	0.2224
2558	0.2213
2567	0.2175
2576	0.2119
2585	0.2045
2594	0.1991
2603	0.1941
2612	0.1898
2621	0.1863
2630	0.1844
2639	0.1828
2648	0.1783
2657	0.1717
2666	0.1638
2675	0.157
2684	0.1508
2693	0.1438
2702	0.1366
2711	0.1299
2720	0.1235
2729	0.1166
2738	0.1093
2747	0.1026
2756	0.0959
2765	0.0889
2774	0.0814
2783	0.0715
2792	0.0609
2801	0.0537
2810	0.0513
2819	0.048
2828	0.041
2837	0.0346
2846	0.0326
2855	0.0322
2864	0.0317
2873	0.0315
2882	0.0314
2891	0.0313
2900	0.0313
2909	0.0313
2918	0.0313
2927	0.0313
2936	0.0313
2945	0.0314
2954	0.0315
2963	0.0316
2972	0.0318
2981	0.0319
2990	0.032
2999	0.0324
3008	0.0326
3017	0.0329
3026	0.0331
3035	0.0333
3044	0.0336
3053	0.0351
3062	0.0374
3071	0.0403
3080	0.0434
3089	0.0463
3098	0.0485
3107	0.05
3116	0.0506
3125	0.0509
3134	0.0512
3143	0.0515
3152	0.052
3161	0.0525
3170	0.0532
3179	0.0544
3188	0.0585
3197	0.0639
3206	0.068
3215	0.0696
3224	0.0707
3233	0.0719
3242	0.0754
3251	0.0802
3260	0.0852
3269	0.0905
3278	0.0944
3287	0.0978
3296	0.1004
3305	0.1025
3314	0.1046
3323	0.1065
3332	0.1074
3341	0.108
3350	0.1081
3359	0.1083
3368	0.1084
3377	0.1085
3386	0.1086
3395	0.1087
3404	0.1088
3413	0.1088
3422	0.1088
3431	0.1089
3440	0.1089
3449	0.109
3458	0.1091
3467	0.1091
3476	0.1092
3485	0.1093
3494	0.1094
3503	0.1095
3512	0.1096
3521	0.1097
3530	0.1097
3539	0.1096
3548	0.1096
3557	0.1096
3566	0.1096
3575	0.1096
3584	0.1095
3593	0.1095
3602	0.1094
3611	0.1092
3620	0.109
3629	0.1088
3638	0.1088
3647	0.1086
3656	0.1084
3665	0.1083
3674	0.1082
3683	0.108
3692	0.1078
3701	0.1074
3710	0.1072
3719	0.1069
3728	0.1067
3737	0.1064
3746	0.1055
3755	0.1047
3764	0.1038
3773	0.1027
3782	0.1017
3791	0.101
3800	0.1004
3809	0.0998
3818	0.0993
3827	0.0992
3836	0.0989
3845	0.0988
3854	0.0987
3863	0.0987
3872	0.0989
3881	0.0989
3890	0.099
3899	0.0991
3908	0.0992
3917	0.0993
3926	0.0993
3935	0.0993
3944	0.0993
3953	0.0993
3962	0.0993
3971	0.0994
3980	0.0994
3989	0.0994
3998	0.0994
