Infrared Spectrum: 2'-ACETONAPHTHONE
Formula: C12 H10 O
CAS: 93-08-3
State: SOLUTION (CCl4 FOR 2-9.0, CS2 FOR 9.0-16 MICRON)
Melting point: 54-55.5 C
Class: COBLENTZ III
Instrument: BAIRD (PRISM)
Instrument parameters: NaCl PRISM
Sampling: TRANSMISSION
Path length: 0.010 CM, 0.010 CM
Resolution: 2
Origin: WYANDOTTE CHEMICALS CORP.
MICROMETERS	TRANSMITTANCE
1.973	0.917
2.01212	0.919
2.05124	0.917
2.09036	0.914
2.12948	0.916
2.16859	0.916
2.20771	0.912
2.24683	0.91
2.28595	0.916
2.32507	0.919
2.36419	0.92
2.40331	0.916
2.44243	0.905
2.48155	0.909
2.52067	0.921
2.55978	0.93
2.5989	0.932
2.63802	0.938
2.67714	0.933
2.71626	0.934
2.75538	0.943
2.7945	0.938
2.83362	0.938
2.87274	0.942
2.91185	0.948
2.95097	0.943
2.99009	0.931
3.02921	0.901
3.06833	0.938
3.10745	0.933
3.14657	0.93
3.18569	0.91
3.22481	0.869
3.26392	0.385
3.30304	0.642
3.34216	0.77
3.38128	0.829
3.4204	0.861
3.45952	0.912
3.49864	0.923
3.53776	0.933
3.57688	0.948
3.616	0.949
3.65511	0.949
3.69423	0.953
3.73335	0.96
3.77247	0.958
3.81159	0.959
3.85071	0.961
3.88983	0.97
3.92895	0.96
3.96807	0.96
4.00718	0.966
4.0463	0.958
4.08542	0.96
4.12454	0.961
4.16366	0.963
4.20278	0.964
4.2419	0.965
4.28102	0.958
4.32014	0.966
4.35926	0.979
4.39837	0.963
4.43749	0.942
4.47661	0.971
4.51573	0.979
4.55485	0.981
4.59397	0.981
4.63309	0.986
4.67221	0.988
4.71133	0.991
4.75044	0.986
4.78956	0.992
4.82868	0.99
4.8678	0.996
4.90692	0.998
4.94604	0.991
4.98516	0.982
5.02428	0.984
5.0634	0.981
5.10252	0.984
5.14163	0.957
5.18075	0.873
5.21987	0.889
5.25899	0.894
5.29811	0.926
5.33723	0.961
5.37635	0.959
5.41547	0.957
5.45459	0.941
5.4937	0.911
5.53282	0.912
5.57194	0.895
5.61106	0.893
5.65018	0.893
5.6893	0.889
5.72842	0.862
5.76754	0.82
5.80666	0.768
5.84577	0.492
5.88489	0.101
5.92401	0.039
5.96313	0.04
6.00225	0.45
6.04137	0.661
6.08049	0.619
6.11961	0.144
6.15873	0.722
6.19785	0.461
6.23696	0.43
6.27608	0.641
6.3152	0.593
6.35432	0.7
6.39344	0.698
6.43256	0.699
6.47168	0.714
6.5108	0.76
6.54992	0.773
6.58903	0.748
6.62815	0.786
6.66727	0.871
6.70639	0.877
6.74551	0.769
6.78463	0.144
6.82375	0.549
6.86287	0.712
6.90199	0.623
6.94111	0.434
6.98022	0.381
7.01934	0.466
7.05846	0.693
7.09758	0.757
7.1367	0.759
7.17582	0.628
7.21494	0.473
7.25406	0.533
7.29318	0.085
7.33229	0.045
7.37141	0.226
7.41053	0.488
7.44965	0.672
7.48877	0.811
7.52789	0.861
7.56701	0.894
7.60613	0.892
7.64525	0.819
7.68436	0.737
7.72348	0.49
7.7626	0.101
7.80172	0.023
7.84084	0.034
7.87996	0.04
7.91908	0.141
7.9582	0.414
7.99732	0.466
8.03644	0.52
8.07555	0.346
8.11467	0.149
8.15379	0.072
8.19291	0.141
8.23203	0.3
8.27115	0.46
8.31027	0.461
8.34939	0.346
8.38851	0.057
8.42762	0.261
8.46674	0.604
8.50586	0.784
8.54498	0.828
8.5841	0.829
8.62322	0.787
8.66234	0.636
8.70146	0.704
8.74058	0.755
8.7797	0.797
8.81881	0.344
8.85793	0.165
8.89705	0.505
8.93617	0.801
8.97529	0.801
9.01441	0.846
9.05353	0.867
9.09265	0.874
9.13177	0.879
9.17088	0.895
9.21	0.901
9.24912	0.901
9.28824	0.882
9.32736	0.78
9.36648	0.631
9.4056	0.798
9.44472	0.86
9.48384	0.884
9.52295	0.896
9.56207	0.903
9.60119	0.899
9.64031	0.903
9.67943	0.894
9.71855	0.857
9.75767	0.78
9.79679	0.601
9.83591	0.341
9.87503	0.592
9.91414	0.743
9.95326	0.795
9.99238	0.823
10.0315	0.856
10.0706	0.855
10.1097	0.838
10.1489	0.797
10.188	0.733
10.2271	0.576
10.2662	0.482
10.3053	0.532
10.3445	0.58
10.3836	0.555
10.4227	0.434
10.4618	0.327
10.5009	0.366
10.54	0.379
10.5792	0.333
10.6183	0.381
10.6574	0.158
10.6965	0.126
10.7356	0.349
10.7748	0.579
10.8139	0.741
10.853	0.801
10.8921	0.812
10.9312	0.764
10.9704	0.615
11.0095	0.451
11.0486	0.48
11.0877	0.615
11.1268	0.657
11.166	0.596
11.2051	0.379
11.2442	0.241
11.2833	0.493
11.3224	0.719
11.3615	0.828
11.4007	0.869
11.4398	0.858
11.4789	0.824
11.518	0.77
11.5571	0.628
11.5963	0.381
11.6354	0.152
11.6745	0.056
11.7136	0.051
11.7527	0.163
11.7919	0.423
11.831	0.514
11.8701	0.65
11.9092	0.761
11.9483	0.803
11.9874	0.802
12.0266	0.761
12.0657	0.646
12.1048	0.468
12.1439	0.212
12.183	0.076
12.2222	0.04
12.2613	0.053
12.3004	0.095
12.3395	0.103
12.3786	0.095
12.4178	0.234
12.4569	0.44
12.496	0.602
12.5351	0.712
12.5742	0.763
12.6134	0.797
12.6525	0.825
12.6916	0.855
12.7307	0.88
12.7698	0.9
12.8089	0.885
12.8481	0.871
12.8872	0.85
12.9263	0.841
12.9654	0.833
13.0045	0.775
13.0437	0.734
13.0828	0.693
13.1219	0.685
13.161	0.683
13.2001	0.65
13.2393	0.527
13.2784	0.376
13.3175	0.187
13.3566	0.087
13.3957	0.062
13.4348	0.051
13.474	0.056
13.5131	0.098
13.5522	0.201
13.5913	0.407
13.6304	0.541
13.6696	0.711
13.7087	0.786
13.7478	0.853
13.7869	0.887
13.826	0.909
13.8652	0.925
13.9043	0.936
13.9434	0.947
13.9825	0.958
14.0216	0.965
14.0608	0.97
14.0999	0.973
14.139	0.973
14.1781	0.973
14.2172	0.973
14.2563	0.971
14.2955	0.966
14.3346	0.964
14.3737	0.964
14.4128	0.964
14.4519	0.963
14.4911	0.966
14.5302	0.971
14.5693	0.973
14.6084	0.971
14.6475	0.965
14.6867	0.961
14.7258	0.955
14.7649	0.949
14.804	0.933
14.8431	0.916
14.8822	0.9
14.9214	0.857
14.9605	0.809
14.9996	0.747
15.0387	0.674
15.0778	0.611
15.117	0.496
15.1561	0.44
15.1952	0.467
15.2343	0.549
15.2734	0.62
15.3126	0.667
15.3517	0.669
15.3908	0.646
15.4299	0.612
15.469	0.613
15.5082	0.661
15.5473	0.711
15.5864	0.752
15.6255	0.791
15.6646	0.818
15.7037	0.828
15.7429	0.834
15.782	0.84
15.8211	0.842
15.8602	0.841
15.8993	0.839
15.9385	0.835
