Infrared Spectrum: VERATRIC ACID
Formula: C9 H10 O4
CAS: 93-07-2
State: SOLID (MINERAL OIL MULL)
Class: COBLENTZ
Instrument: Not specified, most likely a prism, grating, or hybrid spectrometer.
Sampling: TRANSMISSION
Resolution: 4
Origin: DOW CHEMICAL COMPANY
MICROMETERS	TRANSMITTANCE
2.048	0.422
2.08922	0.427
2.13044	0.434
2.17165	0.439
2.21287	0.439
2.25409	0.432
2.29531	0.432
2.33653	0.454
2.37774	0.463
2.41896	0.473
2.46018	0.485
2.5014	0.495
2.54261	0.502
2.58383	0.511
2.62505	0.521
2.66627	0.528
2.70749	0.536
2.7487	0.543
2.78992	0.553
2.83114	0.564
2.87236	0.569
2.91358	0.576
2.95479	0.584
2.99601	0.584
3.03723	0.581
3.07845	0.564
3.11967	0.538
3.16088	0.517
3.2021	0.47
3.24332	0.425
3.28454	0.377
3.32576	0.194
3.36697	0.011
3.40819	0.027
3.44941	0.052
3.49063	0.263
3.53184	0.396
3.57306	0.447
3.61428	0.463
3.6555	0.454
3.69672	0.441
3.73793	0.43
3.77915	0.422
3.82037	0.439
3.86159	0.441
3.90281	0.444
3.94402	0.452
3.98524	0.476
4.02646	0.499
4.06768	0.514
4.1089	0.533
4.15011	0.543
4.19133	0.543
4.23255	0.565
4.27377	0.589
4.31499	0.6
4.3562	0.61
4.39742	0.615
4.43864	0.629
4.47986	0.632
4.52107	0.639
4.56229	0.644
4.60351	0.649
4.64473	0.658
4.68595	0.673
4.72716	0.683
4.76838	0.7
4.8096	0.705
4.85082	0.702
4.89204	0.688
4.93325	0.716
4.97447	0.731
5.01569	0.748
5.05691	0.752
5.09813	0.757
5.13934	0.772
5.18056	0.774
5.22178	0.779
5.263	0.781
5.30421	0.784
5.34543	0.77
5.38665	0.801
5.42787	0.811
5.46909	0.82
5.5103	0.823
5.55152	0.83
5.59274	0.841
5.63396	0.858
5.67518	0.854
5.71639	0.846
5.75761	0.846
5.79883	0.777
5.84005	0.664
5.88127	0.382
5.92248	0.172
5.9637	0.123
6.00492	0.282
6.04614	0.487
6.08736	0.584
6.12857	0.668
6.16979	0.652
6.21101	0.335
6.25223	0.237
6.29344	0.411
6.33466	0.584
6.37588	0.639
6.4171	0.711
6.45832	0.717
6.49953	0.649
6.54075	0.442
6.58197	0.321
6.62319	0.459
6.66441	0.601
6.70562	0.61
6.74684	0.379
6.78806	0.1
6.82928	0.145
6.8705	0.258
6.91171	0.288
6.95293	0.256
6.99415	0.201
7.03537	0.321
7.07659	0.401
7.1178	0.482
7.15902	0.502
7.20024	0.423
7.24146	0.425
7.28267	0.56
7.32389	0.507
7.36511	0.338
7.40633	0.492
7.44755	0.618
7.48876	0.622
7.52998	0.557
7.5712	0.4
7.61242	0.215
7.65364	0.141
7.69485	0.181
7.73607	0.324
7.77729	0.321
7.81851	0.15
7.85973	0.078
7.90094	0.126
7.94216	0.184
7.98338	0.21
8.0246	0.152
8.06581	0.109
8.10703	0.177
8.14825	0.282
8.18947	0.34
8.23069	0.427
8.2719	0.476
8.31312	0.471
8.35434	0.352
8.39556	0.246
8.43678	0.347
8.47799	0.441
8.51921	0.48
8.56043	0.509
8.60165	0.538
8.64287	0.55
8.68408	0.471
8.7253	0.353
8.76652	0.305
8.80774	0.297
8.84896	0.348
8.89017	0.441
8.93139	0.43
8.97261	0.36
9.01383	0.314
9.05504	0.411
9.09626	0.487
9.13748	0.516
9.1787	0.545
9.21992	0.569
9.26113	0.582
9.30235	0.596
9.34357	0.61
9.38479	0.623
9.42601	0.632
9.46722	0.642
9.50844	0.641
9.54966	0.569
9.59088	0.536
9.6321	0.509
9.67331	0.4
9.71453	0.256
9.75575	0.21
9.79697	0.324
9.83819	0.442
9.8794	0.492
9.92062	0.519
9.96184	0.547
10.0031	0.562
10.0443	0.576
10.0855	0.581
10.1267	0.588
10.1679	0.591
10.2091	0.594
10.2504	0.593
10.2916	0.591
10.3328	0.591
10.374	0.582
10.4152	0.572
10.4565	0.56
10.4977	0.543
10.5389	0.524
10.5801	0.504
10.6213	0.494
10.6625	0.488
10.7038	0.48
10.745	0.473
10.7862	0.482
10.8274	0.488
10.8686	0.471
10.9099	0.468
10.9511	0.512
10.9923	0.565
11.0335	0.6
11.0747	0.625
11.1159	0.647
11.1572	0.663
11.1984	0.671
11.2396	0.68
11.2808	0.685
11.322	0.676
11.3632	0.629
11.4045	0.565
11.4457	0.511
11.4869	0.505
11.5281	0.6
11.5693	0.673
11.6106	0.705
11.6518	0.721
11.693	0.731
11.7342	0.731
11.7754	0.733
11.8166	0.736
11.8579	0.74
11.8991	0.745
11.9403	0.747
11.9815	0.747
12.0227	0.745
12.064	0.738
12.1052	0.692
12.1464	0.668
12.1876	0.702
12.2288	0.717
12.27	0.741
12.3113	0.788
12.3525	0.8
12.3937	0.806
12.4349	0.818
12.4761	0.823
12.5173	0.829
12.5586	0.834
12.5998	0.841
12.641	0.847
12.6822	0.852
12.7234	0.851
12.7647	0.851
12.8059	0.841
12.8471	0.798
12.8883	0.719
12.9295	0.572
12.9707	0.377
13.012	0.319
13.0532	0.29
13.0944	0.268
13.1356	0.261
13.1768	0.264
13.2181	0.381
13.2593	0.475
13.3005	0.536
13.3417	0.577
13.3829	0.611
13.4241	0.629
13.4654	0.641
13.5066	0.646
13.5478	0.651
13.589	0.652
13.6302	0.651
13.6715	0.635
13.7127	0.622
13.7539	0.617
13.7951	0.617
13.8363	0.642
13.8775	0.663
13.9188	0.682
13.96	0.695
14.0012	0.704
14.0424	0.709
14.0836	0.714
14.1248	0.719
14.1661	0.721
14.2073	0.723
14.2485	0.723
14.2897	0.723
14.3309	0.723
14.3722	0.721
14.4134	0.721
14.4546	0.716
14.4958	0.712
14.537	0.707
14.5782	0.704
14.6195	0.7
14.6607	0.697
14.7019	0.692
14.7431	0.688
14.7843	0.683
14.8256	0.676
14.8668	0.671
14.908	0.666
14.9492	0.659
14.9904	0.659
15.0316	0.652
15.0729	0.646
15.1141	0.641
15.1553	0.637
15.1965	0.63
15.2377	0.625
15.2789	0.62
15.3202	0.615
15.3614	0.61
15.4026	0.601
15.4438	0.593
15.485	0.584
15.5263	0.581
15.5675	0.57
15.6087	0.56
15.6499	0.548
15.6911	0.535
15.7323	0.524
15.7736	0.504
15.8148	0.476
15.856	0.458
