Infrared Spectrum: 2-METHOXY NAPHTHALENE
Formula: C11 H10 O
CAS: 93-04-9
State: LIQUID (MELT)
Class: COBLENTZ
Instrument: Not specified, most likely a prism, grating, or hybrid spectrometer.
Sampling: TRANSMISSION
Path length: 0.0025 CM
Resolution: 4
Origin: INFRACORD
MICROMETERS	TRANSMITTANCE
2.524	0.862
2.55938	0.87
2.59475	0.876
2.63013	0.879
2.66551	0.877
2.70089	0.88
2.73626	0.882
2.77164	0.882
2.80702	0.877
2.8424	0.875
2.87777	0.876
2.91315	0.877
2.94853	0.876
2.9839	0.875
3.01928	0.874
3.05466	0.873
3.09004	0.87
3.12541	0.864
3.16079	0.856
3.19617	0.848
3.23155	0.815
3.26692	0.582
3.3023	0.463
3.33768	0.513
3.37306	0.577
3.40843	0.489
3.44381	0.56
3.47919	0.638
3.51456	0.767
3.54994	0.687
3.58532	0.765
3.6207	0.855
3.65607	0.867
3.69145	0.863
3.72683	0.864
3.76221	0.868
3.79758	0.86
3.83296	0.861
3.86834	0.841
3.90371	0.845
3.93909	0.862
3.97447	0.867
4.00985	0.869
4.04522	0.862
4.0806	0.863
4.11598	0.856
4.15136	0.834
4.18673	0.838
4.22211	0.835
4.25749	0.84
4.29286	0.837
4.32824	0.828
4.36362	0.797
4.399	0.76
4.43437	0.748
4.46975	0.738
4.50513	0.734
4.54051	0.738
4.57588	0.731
4.61126	0.735
4.64664	0.727
4.68201	0.731
4.71739	0.74
4.75277	0.738
4.78815	0.733
4.82352	0.74
4.8589	0.736
4.89428	0.716
4.92966	0.712
4.96503	0.731
5.00041	0.746
5.03579	0.746
5.07117	0.744
5.10654	0.745
5.14192	0.716
5.1773	0.706
5.21267	0.671
5.24805	0.649
5.28343	0.701
5.31881	0.727
5.35418	0.747
5.38956	0.746
5.42494	0.747
5.46032	0.738
5.49569	0.718
5.53107	0.68
5.56645	0.734
5.60182	0.738
5.6372	0.734
5.67258	0.747
5.70796	0.744
5.74333	0.747
5.77871	0.74
5.81409	0.74
5.84947	0.738
5.88484	0.683
5.92022	0.708
5.9556	0.71
5.99097	0.712
6.02635	0.716
6.06173	0.68
6.09711	0.674
6.13248	0.616
6.16786	0.357
6.20324	0.565
6.23862	0.687
6.27399	0.501
6.30937	0.464
6.34475	0.49
6.38013	0.585
6.4155	0.693
6.45088	0.722
6.48626	0.734
6.52163	0.725
6.55701	0.736
6.59239	0.745
6.62777	0.688
6.66314	0.554
6.69852	0.633
6.7339	0.712
6.76928	0.695
6.80465	0.439
6.84003	0.368
6.87541	0.356
6.91078	0.405
6.94616	0.427
6.98154	0.462
7.01692	0.372
7.05229	0.633
7.08767	0.72
7.12305	0.712
7.15843	0.67
7.1938	0.528
7.22918	0.478
7.26456	0.612
7.29993	0.688
7.33531	0.672
7.37069	0.588
7.40607	0.586
7.44144	0.535
7.47682	0.664
7.5122	0.738
7.54758	0.747
7.58295	0.751
7.61833	0.745
7.65371	0.752
7.68908	0.759
7.72446	0.758
7.75984	0.738
7.79522	0.728
7.83059	0.722
7.86597	0.649
7.90135	0.417
7.93673	0.459
7.9721	0.351
8.00748	0.399
8.04286	0.611
8.07824	0.648
8.11361	0.668
8.14899	0.674
8.18437	0.604
8.21974	0.332
8.25512	0.311
8.2905	0.513
8.32588	0.61
8.36125	0.639
8.39663	0.52
8.43201	0.672
8.46739	0.682
8.50276	0.594
8.53814	0.426
8.57352	0.313
8.60889	0.406
8.64427	0.524
8.67965	0.513
8.71503	0.425
8.7504	0.582
8.78578	0.47
8.82116	0.52
8.85654	0.687
8.89191	0.703
8.92729	0.722
8.96267	0.62
8.99804	0.683
9.03342	0.738
9.0688	0.746
9.10418	0.751
9.13955	0.757
9.17493	0.76
9.21031	0.759
9.24569	0.758
9.28106	0.755
9.31644	0.754
9.35182	0.753
9.3872	0.753
9.42257	0.753
9.45795	0.739
9.49333	0.728
9.5287	0.706
9.56408	0.657
9.59946	0.63
9.63484	0.587
9.67021	0.447
9.70559	0.138
9.74097	0.125
9.77635	0.37
9.81172	0.445
9.8471	0.401
9.88248	0.511
9.91785	0.667
9.95323	0.708
9.98861	0.739
10.024	0.75
10.0594	0.751
10.0947	0.76
10.1301	0.761
10.1655	0.759
10.2009	0.732
10.2363	0.736
10.2716	0.741
10.307	0.744
10.3424	0.691
10.3778	0.426
10.4131	0.414
10.4485	0.627
10.4839	0.652
10.5193	0.486
10.5546	0.35
10.59	0.481
10.6254	0.654
10.6608	0.721
10.6962	0.744
10.7315	0.755
10.7669	0.758
10.8023	0.77
10.8377	0.77
10.873	0.77
10.9084	0.766
10.9438	0.763
10.9792	0.76
11.0146	0.746
11.0499	0.722
11.0853	0.591
11.1207	0.476
11.1561	0.56
11.1914	0.7
11.2268	0.726
11.2622	0.738
11.2976	0.744
11.3329	0.726
11.3683	0.696
11.4037	0.561
11.4391	0.414
11.4745	0.481
11.5098	0.658
11.5452	0.707
11.5806	0.709
11.616	0.708
11.6513	0.699
11.6867	0.665
11.7221	0.636
11.7575	0.582
11.7929	0.509
11.8282	0.324
11.8636	0.074
11.899	0.031
11.9344	0.104
11.9697	0.184
12.0051	0.276
12.0405	0.343
12.0759	0.359
12.1112	0.374
12.1466	0.323
12.182	0.193
12.2174	0.063
12.2528	0.054
12.2881	0.148
12.3235	0.323
12.3589	0.42
12.3943	0.575
12.4296	0.646
12.465	0.689
12.5004	0.707
12.5358	0.723
12.5712	0.734
12.6065	0.739
12.6419	0.734
12.6773	0.74
12.7127	0.741
12.748	0.746
12.7834	0.75
12.8188	0.75
12.8542	0.745
12.8895	0.723
12.9249	0.683
12.9603	0.674
12.9957	0.619
13.0311	0.498
13.0664	0.469
13.1018	0.49
13.1372	0.574
13.1726	0.629
13.2079	0.59
13.2433	0.409
13.2787	0.264
13.3141	0.248
13.3495	0.263
13.3848	0.279
13.4202	0.266
13.4556	0.255
13.491	0.255
13.5263	0.315
13.5617	0.436
13.5971	0.537
13.6325	0.614
13.6678	0.661
13.7032	0.682
13.7386	0.696
13.774	0.707
13.8094	0.712
13.8447	0.708
13.8801	0.713
13.9155	0.71
13.9509	0.714
13.9862	0.713
14.0216	0.706
14.057	0.704
14.0924	0.701
14.1278	0.699
14.1631	0.699
14.1985	0.689
14.2339	0.665
14.2693	0.584
14.3046	0.476
14.34	0.424
14.3754	0.496
14.4108	0.585
14.4461	0.636
14.4815	0.652
14.5169	0.663
14.5523	0.668
14.5877	0.672
14.623	0.672
14.6584	0.669
14.6938	0.669
14.7292	0.668
14.7645	0.667
14.7999	0.665
14.8353	0.663
14.8707	0.659
14.9061	0.651
14.9414	0.642
14.9768	0.633
