Infrared Spectrum: 2-NAPHTHALENESULFONYL CHLORIDE
Formula: C10 H7 Cl O2 S
CAS: 93-11-8
State: SOLUTION (CCl4 FOR 2-9.2, CS2 FOR 8.7-16 MICRON) VS SOLVENT
Class: COBLENTZ III
Instrument: BAIRD (GRATING)
Instrument parameters: NaCl PRISM
Sampling: TRANSMISSION
Path length: 0.010 CM, AND 0.010 CM , REFERENCE CELLS : 0.05 CM
Resolution: 2
Origin: WYANDOTTE CHEMICALS CORP.
1/CM	TRANSMITTANCE
4000	0.9143
3991	0.9151
3982	0.916
3973	0.9174
3964	0.9188
3955	0.9202
3946	0.9215
3937	0.9227
3928	0.9238
3919	0.9249
3910	0.9258
3901	0.9263
3892	0.9268
3883	0.9275
3874	0.928
3865	0.9283
3856	0.9285
3847	0.9286
3838	0.9288
3829	0.9289
3820	0.9291
3811	0.9292
3802	0.9294
3793	0.9296
3784	0.9297
3775	0.9298
3766	0.9299
3757	0.93
3748	0.9302
3739	0.9303
3730	0.9304
3721	0.9305
3712	0.9306
3703	0.9307
3694	0.9308
3685	0.9309
3676	0.9311
3667	0.9312
3658	0.9313
3649	0.9314
3640	0.9315
3631	0.9316
3622	0.9316
3613	0.9316
3604	0.9315
3595	0.9314
3586	0.9314
3577	0.9313
3568	0.9312
3559	0.9312
3550	0.9312
3541	0.9313
3532	0.9314
3523	0.9316
3514	0.9317
3505	0.9318
3496	0.932
3487	0.9321
3478	0.9321
3469	0.9324
3460	0.9325
3451	0.9327
3442	0.9328
3433	0.933
3424	0.9331
3415	0.9333
3406	0.9333
3397	0.9334
3388	0.9336
3379	0.9337
3370	0.9338
3361	0.934
3352	0.9342
3343	0.9344
3334	0.9346
3325	0.9349
3316	0.9352
3307	0.9355
3298	0.9359
3289	0.9362
3280	0.9365
3271	0.9364
3262	0.9364
3253	0.9364
3244	0.9362
3235	0.9356
3226	0.9349
3217	0.9342
3208	0.9336
3199	0.9325
3190	0.9311
3181	0.929
3172	0.9266
3163	0.9224
3154	0.9107
3145	0.8862
3136	0.8539
3127	0.8215
3118	0.7888
3109	0.7617
3100	0.7611
3091	0.7817
3082	0.8191
3073	0.8568
3064	0.8947
3055	0.9073
3046	0.912
3037	0.9149
3028	0.9161
3019	0.9168
3010	0.9158
3001	0.9147
2992	0.9136
2983	0.9124
2974	0.9111
2965	0.9118
2956	0.9145
2947	0.9196
2938	0.9221
2929	0.9228
2920	0.9232
2911	0.9234
2902	0.9247
2893	0.9261
2884	0.9283
2875	0.9309
2866	0.9334
2857	0.9358
2848	0.9371
2839	0.9385
2830	0.9399
2821	0.9414
2812	0.9425
2803	0.9434
2794	0.9444
2785	0.9453
2776	0.9462
2767	0.9475
2758	0.9486
2749	0.95
2740	0.9514
2731	0.9532
2722	0.9559
2713	0.9575
2704	0.9585
2695	0.9594
2686	0.9594
2677	0.9596
2668	0.9616
2659	0.9651
2650	0.9678
2641	0.9696
2632	0.9695
2623	0.9692
2614	0.9693
2605	0.9693
2596	0.9694
2587	0.9694
2578	0.9691
2569	0.9687
2560	0.9687
2551	0.9689
2542	0.9691
2533	0.9698
2524	0.9707
2515	0.9716
2506	0.9723
2497	0.9724
2488	0.9724
2479	0.9727
2470	0.9731
2461	0.9734
2452	0.9738
2443	0.9742
2434	0.9737
2425	0.9727
2416	0.9718
2407	0.9718
2398	0.9718
2389	0.9727
2380	0.9737
2371	0.9747
2362	0.9758
2353	0.9771
2344	0.9782
2335	0.9793
2326	0.9805
2317	0.9813
2308	0.9821
2299	0.9802
2290	0.9775
2281	0.9745
2272	0.9734
2263	0.9736
2254	0.9748
2245	0.9777
2236	0.9815
2227	0.9847
2218	0.9878
2209	0.9918
2200	0.9961
2191	0.9999
2182	1.0009
2173	1.0015
2164	1.0023
2155	1.0027
2146	1.0028
2137	1.0031
2128	1.0033
2119	1.0034
2110	1.0036
2101	1.0038
2092	1.0038
2083	1.0038
2074	1.0037
2065	1.0034
2056	1.0031
2047	1.0028
2038	1.0027
2029	1.0025
2020	1.0027
2011	1.0028
2002	1.0027
1993	1.0027
1984	1.0025
1975	0.9998
1966	0.9958
1957	0.9928
1948	0.9931
1939	0.9921
1930	0.9911
1921	0.98
1912	0.9703
1903	0.9728
1894	0.9808
1885	0.986
1876	0.9897
1867	0.9925
1858	0.9945
1849	0.9961
1840	0.9964
1831	0.9957
1822	0.9923
1813	0.9866
1804	0.9825
1795	0.9852
1786	0.9887
1777	0.98
1768	0.9654
1759	0.9725
1750	0.9859
1741	0.9918
1732	0.9816
1723	0.9785
1714	0.9821
1705	0.9878
1696	0.9946
1687	0.998
1678	0.9849
1669	0.9814
1660	0.9708
1651	0.8893
1642	0.7784
1633	0.8699
1624	0.8616
1615	0.6704
1606	0.6551
1597	0.7328
1588	0.7405
1579	0.7339
1570	0.6892
1561	0.6868
1552	0.7261
1543	0.7644
1534	0.7894
1525	0.7685
1516	0.7921
1507	0.918
1498	0.9677
1489	0.9775
1480	0.9565
1471	0.9425
1462	0.9668
1453	0.9766
1444	0.9807
1435	0.978
1426	0.9564
1417	0.8657
1408	0.5362
1399	0.0774
1390	0.0584
1381	0.2503
1372	0.3809
1363	0.4822
1354	0.6517
1345	0.8895
1336	0.9761
1327	0.9874
1318	0.9891
1309	0.9868
1300	0.9881
1291	0.9828
1282	0.9442
1273	0.6726
1264	0.7624
1255	0.765
1246	0.7504
1237	0.7786
1228	0.7804
1219	0.7762
1210	0.7355
1201	0.6395
1192	0.3779
1183	0.0571
1174	0.0726
1165	0.4726
1156	0.7321
1147	0.7558
1138	0.3129
1129	0.5275
1120	0.7071
1111	0.7283
1102	0.7298
1093	0.7557
1084	0.7791
1075	0.2931
1066	0.663
1057	0.8625
1048	0.9337
1039	0.9511
1030	0.9448
1021	0.7554
1012	0.9184
1003	0.966
994	0.9846
985	0.9762
976	0.9707
967	0.8593
958	0.7796
949	0.841
940	0.9001
931	0.9603
922	0.9749
913	0.9405
904	0.5944
895	0.7511
886	0.9235
877	0.9292
868	0.8275
859	0.2801
850	0.4465
841	0.8459
832	0.9051
823	0.877
814	0.4059
805	0.2831
796	0.7697
787	0.8937
778	0.908
769	0.898
760	0.6152
751	0.4164
742	0.2572
733	0.8373
724	0.9425
715	0.9691
706	0.9784
697	0.9781
688	0.9773
679	0.9643
670	0.9318
661	0.858
652	0.5714
643	0.5289
634	0.6831
625	0.7176
