Infrared Spectrum: 1,2-DIMETHOXY-4-ALLYL BENZENE
Formula: C11 H14 O2
CAS: 93-15-2
State: LIQUID
Class: COBLENTZ
Instrument: Not specified, most likely a prism, grating, or hybrid spectrometer.
Sampling: TRANSMISSION
Path length: 0.0025 CM
Resolution: 4
Origin: INFRACORD
MICROMETERS	TRANSMITTANCE
2.524	0.953
2.55944	0.946
2.59489	0.944
2.63033	0.944
2.66577	0.944
2.70121	0.941
2.73666	0.918
2.7721	0.907
2.80754	0.875
2.84298	0.845
2.87843	0.846
2.91387	0.845
2.94931	0.851
2.98475	0.874
3.0202	0.882
3.05564	0.89
3.09108	0.893
3.12652	0.893
3.16197	0.893
3.19741	0.886
3.23285	0.817
3.26829	0.679
3.30374	0.67
3.33918	0.514
3.37462	0.415
3.41007	0.335
3.44551	0.353
3.48095	0.514
3.51639	0.565
3.55184	0.574
3.58728	0.825
3.62272	0.883
3.65816	0.889
3.69361	0.894
3.72905	0.9
3.76449	0.909
3.79993	0.912
3.83538	0.908
3.87082	0.883
3.90626	0.879
3.9417	0.884
3.97715	0.892
4.01259	0.901
4.04803	0.906
4.08347	0.909
4.11892	0.912
4.15436	0.916
4.1898	0.918
4.22525	0.918
4.26069	0.918
4.29613	0.926
4.33157	0.928
4.36702	0.928
4.40246	0.915
4.4379	0.914
4.47334	0.919
4.50879	0.93
4.54423	0.931
4.57967	0.93
4.61511	0.927
4.65056	0.928
4.686	0.931
4.72144	0.932
4.75688	0.935
4.79233	0.938
4.82777	0.919
4.86321	0.892
4.89866	0.882
4.9341	0.888
4.96954	0.894
5.00498	0.894
5.04043	0.893
5.07587	0.906
5.11131	0.924
5.14675	0.934
5.1822	0.935
5.21764	0.937
5.25308	0.938
5.28852	0.937
5.32397	0.934
5.35941	0.93
5.39485	0.921
5.43029	0.902
5.46574	0.894
5.50118	0.892
5.53662	0.896
5.57206	0.909
5.60751	0.914
5.64295	0.922
5.67839	0.926
5.71384	0.928
5.74928	0.927
5.78472	0.926
5.82016	0.909
5.85561	0.902
5.89105	0.897
5.92649	0.888
5.96193	0.869
5.99738	0.813
6.03282	0.79
6.06826	0.837
6.1037	0.832
6.13915	0.597
6.17459	0.717
6.21003	0.741
6.24547	0.603
6.28092	0.481
6.31636	0.32
6.3518	0.534
6.38724	0.729
6.42269	0.798
6.45813	0.812
6.49357	0.797
6.52902	0.72
6.56446	0.517
6.5999	0.259
6.63534	0.016
6.67079	0.029
6.70623	0.226
6.74167	0.524
6.77711	0.619
6.81256	0.501
6.848	0.25
6.88344	0.129
6.91888	0.156
6.95433	0.211
6.98977	0.25
7.02521	0.334
7.06065	0.4
7.0961	0.297
7.13154	0.404
7.16698	0.673
7.20242	0.772
7.23787	0.811
7.27331	0.822
7.30875	0.824
7.3442	0.82
7.37964	0.811
7.41508	0.787
7.45052	0.702
7.48597	0.559
7.52141	0.47
7.55685	0.5
7.59229	0.574
7.62774	0.587
7.66318	0.59
7.69862	0.556
7.73406	0.465
7.76951	0.386
7.80495	0.293
7.84039	0.19
7.87583	0.124
7.91128	0.051
7.94672	0.015
7.98216	0.001
8.01761	0.035
8.05305	0.092
8.08849	0.083
8.12393	0.026
8.15938	0.021
8.19482	0.118
8.23026	0.269
8.2657	0.441
8.30115	0.533
8.33659	0.577
8.37203	0.597
8.40747	0.558
8.44292	0.486
8.47836	0.499
8.5138	0.564
8.54924	0.613
8.58469	0.599
8.62013	0.435
8.65557	0.169
8.69101	0.056
8.72646	0.069
8.7619	0.094
8.79734	0.067
8.83279	0.106
8.86823	0.272
8.90367	0.355
8.93911	0.437
8.97456	0.574
9.01	0.685
9.04544	0.73
9.08088	0.735
9.11633	0.735
9.15177	0.735
9.18721	0.753
9.22265	0.778
9.2581	0.797
9.29354	0.812
9.32898	0.816
9.36442	0.814
9.39987	0.809
9.43531	0.797
9.47075	0.776
9.50619	0.735
9.54164	0.645
9.57708	0.488
9.61252	0.317
9.64797	0.2
9.68341	0.102
9.71885	0.029
9.75429	0.03
9.78974	0.113
9.82518	0.264
9.86062	0.362
9.89606	0.441
9.93151	0.492
9.96695	0.506
10.0024	0.483
10.0378	0.427
10.0733	0.411
10.1087	0.505
10.1442	0.639
10.1796	0.733
10.215	0.767
10.2505	0.779
10.2859	0.78
10.3214	0.773
10.3568	0.752
10.3923	0.731
10.4277	0.709
10.4631	0.674
10.4986	0.655
10.534	0.663
10.5695	0.695
10.6049	0.714
10.6404	0.718
10.6758	0.699
10.7112	0.653
10.7467	0.594
10.7821	0.545
10.8176	0.468
10.853	0.398
10.8885	0.346
10.9239	0.314
10.9593	0.303
10.9948	0.321
11.0302	0.377
11.0657	0.434
11.1011	0.494
11.1366	0.557
11.172	0.622
11.2074	0.685
11.2429	0.748
11.2783	0.781
11.3138	0.795
11.3492	0.807
11.3847	0.81
11.4201	0.81
11.4555	0.809
11.491	0.799
11.5264	0.786
11.5619	0.766
11.5973	0.733
11.6328	0.686
11.6682	0.615
11.7036	0.559
11.7391	0.529
11.7745	0.527
11.81	0.578
11.8454	0.658
11.8808	0.735
11.9163	0.775
11.9517	0.79
11.9872	0.791
12.0226	0.781
12.0581	0.75
12.0935	0.703
12.1289	0.665
12.1644	0.619
12.1998	0.567
12.2353	0.508
12.2707	0.443
12.3062	0.389
12.3416	0.342
12.377	0.32
12.4125	0.316
12.4479	0.361
12.4834	0.43
12.5188	0.556
12.5543	0.626
12.5897	0.698
12.6251	0.743
12.6606	0.778
12.696	0.797
12.7315	0.806
12.7669	0.806
12.8024	0.805
12.8378	0.786
12.8732	0.753
12.9087	0.702
12.9441	0.615
12.9796	0.518
13.015	0.428
13.0505	0.395
13.0859	0.43
13.1213	0.499
13.1568	0.559
13.1922	0.582
13.2277	0.583
13.2631	0.557
13.2986	0.517
13.334	0.491
13.3694	0.479
13.4049	0.481
13.4403	0.526
13.4758	0.59
13.5112	0.637
13.5467	0.689
13.5821	0.729
13.6175	0.749
13.653	0.758
13.6884	0.766
13.7239	0.767
13.7593	0.768
13.7948	0.769
13.8302	0.773
13.8656	0.787
13.9011	0.803
13.9365	0.82
13.972	0.832
14.0074	0.837
14.0428	0.839
14.0783	0.843
14.1137	0.843
14.1492	0.843
14.1846	0.843
14.2201	0.843
14.2555	0.844
14.2909	0.842
14.3264	0.839
14.3618	0.836
14.3973	0.832
14.4327	0.829
14.4682	0.827
14.5036	0.823
14.539	0.813
14.5745	0.809
14.6099	0.803
14.6454	0.797
14.6808	0.793
14.7163	0.788
14.7517	0.778
14.7871	0.774
14.8226	0.771
14.858	0.762
14.8935	0.756
14.9289	0.756
14.9644	0.746
14.9998	0.722
