Infrared Spectrum: ANISIDIDE, o-ACET-
Formula: C9 H11 N O2
CAS: 93-26-5
State: SOLID (SPLIT MULL)
Class: COBLENTZ III
Instrument: DOW KBr FOREPRISM-GRATING
Instrument parameters: BLAZED AT 3.5, 12.0, 20.0 MICRON AND CHANGED AT 5.0, 7.5, 14.9 MICRON
Sampling: TRANSMISSION
Resolution: 2
Origin: DOW CHEMICAL COMPANY
1/CM	TRANSMITTANCE
379	0.9505
388	0.9502
397	0.9471
406	0.9405
415	0.9345
424	0.9271
433	0.918
442	0.9071
451	0.8936
460	0.8534
469	0.868
478	0.9082
487	0.9133
496	0.9115
505	0.8448
514	0.8513
523	0.356
532	0.7817
541	0.9221
550	0.9003
559	0.9325
568	0.9262
577	0.855
586	0.9236
595	0.895
604	0.7038
613	0.8995
622	0.9086
631	0.8934
640	0.8668
649	0.7501
658	0.5826
667	0.8735
676	0.8387
685	0.7834
694	0.6875
703	0.5714
712	0.3629
721	0.4194
730	0.6187
739	0.587
748	0.2254
757	0.2895
766	0.7826
775	0.8494
784	0.6125
793	0.8931
802	0.9403
811	0.9549
820	0.9628
829	0.9634
838	0.9436
847	0.9008
856	0.7986
865	0.9631
874	0.9832
883	0.974
892	0.9564
901	0.9423
910	0.9368
919	0.8361
928	0.881
937	0.9097
946	0.8994
955	0.7818
964	0.5237
973	0.8433
982	0.8802
991	0.8518
1000	0.7978
1009	0.7068
1018	0.3124
1027	0.0664
1036	0.5679
1045	0.4535
1054	0.7771
1063	0.8165
1072	0.8164
1081	0.8252
1090	0.8258
1099	0.8044
1108	0.7657
1117	0.272
1126	0.5887
1135	0.7915
1144	0.7947
1153	0.7838
1162	0.5884
1171	0.751
1180	0.4897
1189	0.7388
1198	0.7289
1207	0.6774
1216	0.4677
1225	0.1924
1234	0.5323
1243	0.3623
1252	0.0798
1261	0.0606
1270	0.1774
1279	0.2067
1288	0.2527
1297	0.1194
1306	0.5386
1315	0.4814
1324	0.234
1333	0.5367
1342	0.5102
1351	0.4759
1360	0.4121
1369	0.1944
1378	0.4059
1387	0.5109
1396	0.4876
1405	0.459
1414	0.4336
1423	0.3671
1432	0.2731
1441	0.255
1450	0.3214
1459	0.1534
1468	0.1276
1477	0.3414
1486	0.3459
1495	0.09
1504	0.3407
1513	0.5125
1522	0.3198
1531	0.253
1540	0.0888
1549	0.0524
1558	0.2474
1567	0.5042
1576	0.564
1585	0.5612
1594	0.2493
1603	0.2573
1612	0.3786
1621	0.5077
1630	0.4976
1639	0.3232
1648	0.213
1657	0.0419
1666	0.1979
1675	0.4557
1684	0.7581
1693	0.8489
1702	0.8778
1711	0.9125
1720	0.9311
1729	0.9498
1738	0.9461
1747	0.9309
1756	0.9293
1765	0.9188
1774	0.9246
1783	0.9217
1792	0.921
1801	0.9121
1810	0.9098
1819	0.9105
1828	0.9091
1837	0.9014
1846	0.886
1855	0.8982
1864	0.8958
1873	0.8868
1882	0.8733
1891	0.8632
1900	0.8807
1909	0.8793
1918	0.8783
1927	0.8643
1936	0.867
1945	0.8758
1954	0.8794
1963	0.9644
1972	0.8668
1981	0.8592
1990	0.8571
1999	0.8503
2008	0.8443
2017	0.8404
2026	0.8339
2035	0.8108
2044	0.8019
2053	0.8154
2062	0.8216
2071	0.8195
2080	0.8154
2089	0.8106
2098	0.8061
2107	0.8018
2116	0.7975
2125	0.7936
2134	0.7891
2143	0.7838
2152	0.7792
2161	0.7751
2170	0.7715
2179	0.768
2188	0.7646
2197	0.7604
2206	0.7561
2215	0.7518
2224	0.7471
2233	0.7421
2242	0.7344
2251	0.7251
2260	0.719
2269	0.7128
2278	0.7068
2287	0.7021
2296	0.7011
2305	0.7003
2314	0.6985
2323	0.6943
2332	0.6858
2341	0.6875
2350	0.6897
2359	0.6906
2368	0.6926
2377	0.6949
2386	0.6955
2395	0.6958
2404	0.698
2413	0.6976
2422	0.6951
2431	0.6933
2440	0.6908
2449	0.6883
2458	0.6858
2467	0.6837
2476	0.6817
2485	0.678
2494	0.6753
2503	0.6751
2512	0.6764
2521	0.6754
2530	0.6738
2539	0.6714
2548	0.668
2557	0.6628
2566	0.6631
2575	0.6658
2584	0.6681
2593	0.6657
2602	0.6603
2611	0.6554
2620	0.653
2629	0.6547
2638	0.6543
2647	0.6519
2656	0.6493
2665	0.6464
2674	0.643
2683	0.6395
2692	0.636
2701	0.633
2710	0.63
2719	0.6269
2728	0.6225
2737	0.617
2746	0.6106
2755	0.6041
2764	0.5976
2773	0.5912
2782	0.585
2791	0.577
2800	0.566
2809	0.5508
2818	0.5428
2827	0.5419
2836	0.4954
2845	0.557
2854	0.5497
2863	0.5331
2872	0.5253
2881	0.5245
2890	0.521
2899	0.487
2908	0.4788
2917	0.4795
2926	0.4627
2935	0.4447
2944	0.4443
2953	0.4402
2962	0.3722
2971	0.4217
2980	0.4408
2989	0.4409
2998	0.4295
3007	0.388
3016	0.2991
3025	0.3043
3034	0.335
3043	0.3375
3052	0.2944
3061	0.2955
3070	0.3464
3079	0.4154
3088	0.4062
3097	0.4288
3106	0.4162
3115	0.395
3124	0.3684
3133	0.3304
3142	0.3502
3151	0.405
3160	0.4037
3169	0.3862
3178	0.3629
3187	0.3197
3196	0.2987
3205	0.3164
3214	0.3147
3223	0.3027
3232	0.2677
3241	0.2002
3250	0.1871
3259	0.2219
3268	0.2898
3277	0.3083
3286	0.3812
3295	0.491
3304	0.538
3313	0.5747
3322	0.5994
3331	0.6162
3340	0.6279
3349	0.6356
3358	0.6401
3367	0.6421
3376	0.6434
3385	0.6422
3394	0.6408
3403	0.6386
3412	0.635
3421	0.6303
3430	0.6235
3439	0.6171
3448	0.6184
3457	0.6172
3466	0.6136
3475	0.6097
3484	0.6055
3493	0.6014
3502	0.5975
3511	0.5936
3520	0.5897
3529	0.5864
3538	0.5831
3547	0.5797
3556	0.576
3565	0.5721
3574	0.5597
3583	0.5605
3592	0.5685
3601	0.5668
3610	0.5637
3619	0.5607
3628	0.5584
3637	0.5554
3646	0.5524
3655	0.5499
3664	0.5476
3673	0.5452
3682	0.543
3691	0.5408
3700	0.5386
3709	0.5362
3718	0.5339
3727	0.5315
3736	0.5293
3745	0.527
3754	0.525
3763	0.5234
3772	0.5219
3781	0.5201
3790	0.5182
