Infrared Spectrum: 2,5-Dimethylbenzylamine
Formula: C9 H13 N
CAS: 93-48-1
State: LIQUID (NEAT)
Class: COBLENTZ III
Instrument: DOW KBr FOREPRISM-GRATING
Instrument parameters: BLAZED AT 3.5, 12.0, 20.0 MICRON AND CHANGED AT 5.0, 7.5, 14.9 MICRON
Sampling: TRANSMISSION
Path length: CAPILLARY
Resolution: 2
Origin: DOW CHEMICAL COMPANY
1/CM	TRANSMITTANCE
3800	0.8931
3791	0.8914
3782	0.8893
3773	0.8867
3764	0.8842
3755	0.882
3746	0.8799
3737	0.8785
3728	0.8777
3719	0.8777
3710	0.8799
3701	0.8821
3692	0.8782
3683	0.8711
3674	0.8628
3665	0.8544
3656	0.8465
3647	0.84
3638	0.8357
3629	0.8361
3620	0.838
3611	0.8406
3602	0.8418
3593	0.841
3584	0.8365
3575	0.8307
3566	0.8245
3557	0.8171
3548	0.8104
3539	0.804
3530	0.7984
3521	0.7928
3512	0.7871
3503	0.7815
3494	0.7749
3485	0.768
3476	0.7608
3467	0.7533
3458	0.746
3449	0.7383
3440	0.7301
3431	0.7128
3422	0.6639
3413	0.5964
3404	0.6107
3395	0.5636
3386	0.5151
3377	0.5035
3368	0.5203
3359	0.5543
3350	0.594
3341	0.6133
3332	0.6133
3323	0.5943
3314	0.5782
3305	0.5654
3296	0.5642
3287	0.5728
3278	0.5866
3269	0.6023
3260	0.6175
3251	0.6328
3242	0.6469
3233	0.6555
3224	0.6601
3215	0.6611
3206	0.6611
3197	0.6612
3188	0.6624
3179	0.6662
3170	0.6739
3161	0.6819
3152	0.689
3143	0.6957
3134	0.7001
3125	0.6878
3116	0.6757
3107	0.6774
3098	0.6832
3089	0.6795
3080	0.6458
3071	0.6214
3062	0.6068
3053	0.5637
3044	0.4266
3035	0.4465
3026	0.4259
3017	0.377
3008	0.3582
2999	0.3614
2990	0.3806
2981	0.3516
2972	0.3123
2963	0.3039
2954	0.262
2945	0.24
2936	0.2258
2927	0.189
2918	0.157
2909	0.2109
2900	0.2728
2891	0.2918
2882	0.2853
2873	0.231
2864	0.22
2855	0.2588
2846	0.3543
2837	0.4327
2828	0.4855
2819	0.539
2810	0.5719
2801	0.5972
2792	0.624
2783	0.6506
2774	0.6676
2765	0.6822
2756	0.6932
2747	0.6925
2738	0.6801
2729	0.655
2720	0.6876
2711	0.724
2702	0.7412
2693	0.7446
2684	0.7462
2675	0.7456
2666	0.7456
2657	0.7469
2648	0.7495
2639	0.7517
2630	0.754
2621	0.7576
2612	0.7612
2603	0.7637
2594	0.7656
2585	0.7668
2576	0.7657
2567	0.7669
2558	0.7689
2549	0.7708
2540	0.7724
2531	0.7737
2522	0.775
2513	0.7758
2504	0.7768
2495	0.7772
2486	0.7768
2477	0.7765
2468	0.7767
2459	0.7769
2450	0.7792
2441	0.7812
2432	0.7835
2423	0.7856
2414	0.7878
2405	0.7905
2396	0.7935
2387	0.7968
2378	0.8011
2369	0.8042
2360	0.8089
2351	0.8175
2342	0.8249
2333	0.8278
2324	0.8267
2315	0.821
2306	0.8151
2297	0.8108
2288	0.8068
2279	0.8036
2270	0.8024
2261	0.8011
2252	0.8001
2243	0.7992
2234	0.7984
2225	0.7978
2216	0.7976
2207	0.7978
2198	0.7986
2189	0.7994
2180	0.8011
2171	0.804
2162	0.8068
2153	0.809
2144	0.8106
2135	0.8118
2126	0.8128
2117	0.8138
2108	0.8146
2099	0.8157
2090	0.8181
2081	0.8206
2072	0.8228
2063	0.8234
2054	0.8249
2045	0.8264
2036	0.8281
2027	0.8297
2018	0.8313
2009	0.8321
2000	0.8325
1991	0.8303
1982	0.8301
1973	0.8311
1964	0.8321
1955	0.833
1946	0.8343
1937	0.8339
1928	0.831
1919	0.8284
1910	0.8211
1901	0.8076
1892	0.7968
1883	0.7998
1874	0.8097
1865	0.8205
1856	0.8218
1847	0.8185
1838	0.8187
1829	0.8266
1820	0.8332
1811	0.836
1802	0.8363
1793	0.8368
1784	0.8336
1775	0.826
1766	0.8183
1757	0.815
1748	0.8205
1739	0.8263
1730	0.8297
1721	0.8292
1712	0.8241
1703	0.8131
1694	0.798
1685	0.7788
1676	0.7598
1667	0.7305
1658	0.6998
1649	0.6298
1640	0.5277
1631	0.4577
1622	0.3953
1613	0.4303
1604	0.4882
1595	0.4979
1586	0.4812
1577	0.5047
1568	0.5579
1559	0.5771
1550	0.5836
1541	0.5697
1532	0.5571
1523	0.5425
1514	0.4232
1505	0.1783
1496	0.2911
1487	0.3899
1478	0.3677
1469	0.3226
1460	0.2078
1451	0.1967
1442	0.2872
1433	0.4118
1424	0.5198
1415	0.5342
1406	0.5655
1397	0.5715
1388	0.4662
1379	0.3916
1370	0.5175
1361	0.6254
1352	0.6478
1343	0.6254
1334	0.6372
1325	0.6786
1316	0.6758
1307	0.5449
1298	0.612
1289	0.6223
1280	0.5977
1271	0.6864
1262	0.7289
1253	0.7414
1244	0.7251
1235	0.7551
1226	0.7492
1217	0.7306
1208	0.7019
1199	0.7612
1190	0.7628
1181	0.7571
1172	0.7395
1163	0.5762
1154	0.5737
1145	0.6836
1136	0.6958
1127	0.6991
1118	0.7014
1109	0.7257
1100	0.7355
1091	0.7419
1082	0.7422
1073	0.7032
1064	0.6178
1055	0.5617
1046	0.5016
1037	0.4918
1028	0.605
1019	0.6638
1010	0.6589
1001	0.6598
992	0.6008
983	0.6323
974	0.6388
965	0.6522
956	0.6488
947	0.5568
938	0.5473
929	0.5817
920	0.6116
911	0.5859
902	0.5143
893	0.4285
884	0.3921
875	0.3832
866	0.3522
857	0.328
848	0.3218
839	0.3262
830	0.3164
821	0.1542
812	0.0962
803	0.4692
794	0.5862
785	0.6442
776	0.6503
767	0.5981
758	0.5957
749	0.5946
740	0.6654
731	0.7118
722	0.7155
713	0.6897
704	0.6598
695	0.7648
686	0.7865
677	0.7911
668	0.8072
659	0.8103
650	0.8081
641	0.7961
632	0.7792
623	0.7037
614	0.7207
605	0.7105
596	0.7571
587	0.7639
578	0.7408
569	0.7186
560	0.7515
551	0.7444
542	0.5583
533	0.6934
524	0.7619
515	0.7778
506	0.7628
497	0.75
488	0.7743
479	0.7614
470	0.7085
461	0.615
452	0.7041
443	0.5995
434	0.6694
425	0.7308
416	0.7248
407	0.7135
398	0.7036
389	0.691
