Infrared Spectrum: Benzoic acid, Beta-naphthyl ester
Formula: C17 H12 O2
CAS: 93-44-7
State: SOLUTION (CCl4 FOR 2-10, CS2 FOR 9.1-16 MICRON) VS SOLVENT
Melting point: 107.5 C
Class: COBLENTZ III
Instrument: BAIRD (PRISM)
Instrument parameters: NaCl PRISM
Sampling: TRANSMISSION
Path length: 0.010 CM, 0.010 CM , REFERENCES : 0.005 CM
Resolution: 2
Origin: WYANDOTTE CHEMICALS CORP.
1/CM	TRANSMITTANCE
626	0.9511
635	0.9677
644	0.9655
653	0.9696
662	0.9215
671	0.8969
680	0.8804
689	0.7723
698	0.2414
707	0.4858
716	0.9081
725	0.898
734	0.6252
743	0.48
752	0.8595
761	0.9537
770	0.9428
779	0.9039
788	0.8311
797	0.4046
806	0.611
815	0.9433
824	0.9181
833	0.8428
842	0.8814
851	0.8102
860	0.766
869	0.9145
878	0.739
887	0.5617
896	0.7892
905	0.9741
914	0.9931
923	0.9916
932	0.9606
941	0.9342
950	0.8134
959	0.6428
968	0.9869
977	0.9834
986	0.9907
995	0.9797
1004	0.9333
1013	0.7989
1022	0.4353
1031	0.7611
1040	0.9051
1049	0.734
1058	0.16
1067	0.3209
1076	0.4097
1085	0.5147
1094	0.9096
1103	0.9182
1112	0.8744
1121	0.5902
1130	0.4921
1139	0.598
1148	0.5147
1157	0.1383
1166	0.2815
1175	0.5078
1184	0.5913
1193	0.8025
1202	0.4604
1211	0.1583
1220	0.2785
1229	0.4441
1238	0.1156
1247	0.1127
1256	0.1102
1265	0.0446
1274	0.0765
1283	0.5319
1292	0.8
1301	0.8876
1310	0.8623
1319	0.7654
1328	0.9051
1337	0.8999
1346	0.8265
1355	0.7848
1364	0.822
1373	0.8929
1382	0.9447
1391	0.9437
1400	0.9808
1409	0.9907
1418	0.9913
1427	0.9909
1436	0.9917
1445	0.9458
1454	0.8602
1463	0.6591
1472	0.7792
1481	0.8667
1490	0.912
1499	0.8751
1508	0.7945
1517	0.6842
1526	0.5683
1535	0.7514
1544	0.7623
1553	0.7582
1562	0.7553
1571	0.77
1580	0.7699
1589	0.7558
1598	0.6986
1607	0.682
1616	0.5197
1625	0.8803
1634	0.8828
1643	0.8271
1652	0.9495
1661	0.9859
1670	0.9814
1679	0.9633
1688	0.9498
1697	0.9231
1706	0.8857
1715	0.8412
1724	0.7761
1733	0.5017
1742	0.1839
1751	0.2497
1760	0.6142
1769	0.8519
1778	0.9643
1787	0.9822
1796	0.9886
1805	0.9906
1814	0.9904
1823	0.9903
1832	0.9952
1841	0.9996
1850	1.0013
1859	1.0022
1868	1.002
1877	1.0019
1886	1.0017
1895	1.0016
1904	1.0015
1913	1.0013
1922	1.0012
1931	1.001
1940	1.0009
1949	1.0008
1958	1.0007
1967	1.0006
1976	1.0005
1985	1.0003
1994	1.0001
2003	0.9997
2012	0.9991
2021	0.9987
2030	0.9981
2039	0.9977
2048	0.9974
2057	0.9971
2066	0.9969
2075	0.9966
2084	0.9964
2093	0.9962
2102	0.996
2111	0.9958
2120	0.9956
2129	0.9954
2138	0.9953
2147	0.9952
2156	0.9957
2165	0.9961
2174	0.9965
2183	0.9968
2192	0.9972
2201	0.9976
2210	0.9978
2219	0.9979
2228	0.998
2237	0.9981
2246	0.9979
2255	0.9975
2264	0.9972
2273	0.9968
2282	0.9969
2291	0.9976
2300	0.9984
2309	0.9993
2318	1.0007
2327	1.0013
2336	1.0009
2345	1.0005
2354	0.9997
2363	0.9988
2372	0.998
2381	0.9972
2390	0.9963
2399	0.9953
2408	0.9946
2417	0.9945
2426	0.9944
2435	0.9943
2444	0.9943
2453	0.9948
2462	0.9953
2471	0.9959
2480	0.9963
2489	0.9969
2498	0.9974
2507	0.9977
2516	0.9977
2525	0.9978
2534	0.9978
2543	0.9978
2552	0.9978
2561	0.9978
2570	0.9978
2579	0.9978
2588	0.9977
2597	0.9977
2606	0.9976
2615	0.9976
2624	0.9973
2633	0.997
2642	0.9967
2651	0.9964
2660	0.996
2669	0.9958
2678	0.9955
2687	0.9949
2696	0.9944
2705	0.9938
2714	0.9933
2723	0.9927
2732	0.9922
2741	0.9916
2750	0.9911
2759	0.9905
2768	0.99
2777	0.9895
2786	0.989
2795	0.9885
2804	0.9879
2813	0.987
2822	0.986
2831	0.9852
2840	0.9842
2849	0.9815
2858	0.9778
2867	0.9741
2876	0.9701
2885	0.9666
2894	0.9634
2903	0.9603
2912	0.9569
2921	0.9534
2930	0.95
2939	0.9465
2948	0.943
2957	0.9395
2966	0.936
2975	0.9325
2984	0.9291
2993	0.9258
3002	0.9226
3011	0.9193
3020	0.9147
3029	0.9092
3038	0.9001
3047	0.8889
3056	0.8716
3065	0.8494
3074	0.822
3083	0.8017
3092	0.7824
3101	0.7807
3110	0.7961
3119	0.8291
3128	0.8619
3137	0.8945
3146	0.927
3155	0.9588
3164	0.9756
3173	0.9801
3182	0.9814
3191	0.9824
3200	0.9828
3209	0.983
3218	0.9832
3227	0.9832
3236	0.9828
3245	0.9823
3254	0.9819
3263	0.9816
3272	0.9813
3281	0.981
3290	0.9808
3299	0.9806
3308	0.9804
3317	0.9802
3326	0.9801
3335	0.9799
3344	0.9798
3353	0.9796
3362	0.9795
3371	0.9793
3380	0.9793
3389	0.9793
3398	0.9794
3407	0.9794
3416	0.9795
3425	0.9795
3434	0.9795
3443	0.9796
3452	0.9796
3461	0.9799
3470	0.9801
3479	0.9803
3488	0.9805
3497	0.9807
3506	0.9808
3515	0.981
3524	0.9812
3533	0.9814
3542	0.9817
3551	0.982
3560	0.9823
3569	0.9827
3578	0.983
3587	0.9834
3596	0.9837
3605	0.984
3614	0.9843
3623	0.9844
3632	0.9844
3641	0.9844
3650	0.9844
3659	0.9844
3668	0.9844
3677	0.9844
3686	0.9844
3695	0.9841
3704	0.9836
3713	0.9832
3722	0.9829
3731	0.9825
3740	0.9821
3749	0.9817
3758	0.9813
3767	0.9809
3776	0.9805
3785	0.9802
3794	0.9797
3803	0.9794
3812	0.979
3821	0.9787
3830	0.9783
3839	0.978
3848	0.9777
3857	0.9773
3866	0.977
3875	0.9767
3884	0.9764
3893	0.976
3902	0.9757
3911	0.9754
3920	0.9751
3929	0.9746
3938	0.9742
3947	0.9738
3956	0.9734
3965	0.973
3974	0.9726
3983	0.9722
3992	0.9718
