Infrared Spectrum: PHENYL-1,2-ETHANEDIOL
Formula: C8 H10 O2
CAS: 93-56-1
State: SOLID (MULL)
Melting point: 64-67 C
Class: COBLENTZ
Instrument: Not specified, most likely a prism, grating, or hybrid spectrometer.
Sampling: TRANSMISSION
Resolution: 4
Origin: WYANDOTTE CHEMICALS CORP., WYANDOTTE, MICHIGAN, USA
MICROMETERS	TRANSMITTANCE
2.005	0.583
2.04377	0.599
2.08255	0.602
2.12132	0.607
2.16009	0.62
2.19886	0.635
2.23764	0.627
2.27641	0.615
2.31518	0.632
2.35395	0.649
2.39273	0.664
2.4315	0.656
2.47027	0.672
2.50904	0.675
2.54782	0.695
2.58659	0.724
2.62536	0.76
2.66413	0.743
2.70291	0.771
2.74168	0.787
2.78045	0.8
2.81922	0.805
2.858	0.79
2.89677	0.729
2.93554	0.615
2.97431	0.461
3.01309	0.273
3.05186	0.074
3.09063	0.034
3.1294	0.03
3.16818	0.03
3.20695	0.04
3.24572	0.09
3.28449	0.141
3.32327	0.165
3.36204	0.157
3.40081	0.027
3.43958	0.029
3.47836	0.035
3.51713	0.038
3.5559	0.076
3.59467	0.317
3.63345	0.408
3.67222	0.44
3.71099	0.453
3.74976	0.492
3.78854	0.517
3.82731	0.542
3.86608	0.596
3.90485	0.636
3.94363	0.643
3.9824	0.656
4.02117	0.666
4.05995	0.679
4.09872	0.703
4.13749	0.716
4.17626	0.732
4.21504	0.752
4.25381	0.758
4.29258	0.713
4.33135	0.743
4.37013	0.756
4.4089	0.823
4.44767	0.821
4.48644	0.818
4.52522	0.829
4.56399	0.837
4.60276	0.852
4.64153	0.85
4.68031	0.86
4.71908	0.862
4.75785	0.863
4.79662	0.87
4.8354	0.871
4.87417	0.881
4.91294	0.88
4.95171	0.893
4.99049	0.902
5.02926	0.905
5.06803	0.897
5.1068	0.894
5.14558	0.863
5.18435	0.829
5.22312	0.897
5.26189	0.91
5.30067	0.891
5.33944	0.858
5.37821	0.863
5.41698	0.928
5.45576	0.904
5.49453	0.912
5.5333	0.915
5.57207	0.893
5.61085	0.943
5.64962	0.91
5.68839	0.925
5.72716	0.884
5.76594	0.891
5.80471	0.886
5.84348	0.923
5.88226	0.899
5.92103	0.904
5.9598	0.894
5.99857	0.914
6.03735	0.888
6.07612	0.915
6.11489	0.914
6.15366	0.897
6.19244	0.837
6.23121	0.855
6.26998	0.863
6.30875	0.87
6.34753	0.871
6.3863	0.841
6.42507	0.831
6.46384	0.802
6.50262	0.831
6.54139	0.787
6.58016	0.763
6.61893	0.708
6.65771	0.58
6.69648	0.392
6.73525	0.348
6.77402	0.225
6.8128	0.108
6.85157	0.11
6.89034	0.085
6.92911	0.2
6.96789	0.358
7.00666	0.408
7.04543	0.465
7.0842	0.525
7.12298	0.551
7.16175	0.609
7.20052	0.559
7.23929	0.431
7.27807	0.38
7.31684	0.512
7.35561	0.576
7.39438	0.413
7.43316	0.338
7.47193	0.388
7.5107	0.512
7.54947	0.617
7.58825	0.646
7.62702	0.607
7.66579	0.662
7.70456	0.683
7.74334	0.688
7.78211	0.709
7.82088	0.7
7.85966	0.606
7.89843	0.552
7.9372	0.63
7.97597	0.659
8.01475	0.651
8.05352	0.614
8.09229	0.534
8.13106	0.453
8.16984	0.478
8.20861	0.596
8.24738	0.674
8.28615	0.653
8.32493	0.581
8.3637	0.565
8.40247	0.627
8.44124	0.755
8.48002	0.75
8.51879	0.768
8.55756	0.802
8.59633	0.748
8.63511	0.802
8.67388	0.818
8.71265	0.834
8.75142	0.868
8.7902	0.875
8.82897	0.86
8.86774	0.836
8.90651	0.747
8.94529	0.557
8.98406	0.547
9.02283	0.353
9.0616	0.085
9.10038	0.134
9.13915	0.145
9.17792	0.094
9.21669	0.163
9.25547	0.173
9.29424	0.186
9.33301	0.294
9.37178	0.309
9.41056	0.17
9.44933	0.118
9.4881	0.074
9.52687	0.144
9.56565	0.251
9.60442	0.282
9.64319	0.228
9.68197	0.26
9.72074	0.372
9.75951	0.226
9.79828	0.369
9.83706	0.549
9.87583	0.627
9.9146	0.682
9.95337	0.716
9.99215	0.659
10.0309	0.743
10.0697	0.716
10.1085	0.761
10.1472	0.774
10.186	0.776
10.2248	0.774
10.2636	0.789
10.3023	0.802
10.3411	0.802
10.3799	0.8
10.4186	0.803
10.4574	0.816
10.4962	0.821
10.535	0.82
10.5737	0.826
10.6125	0.833
10.6513	0.828
10.6901	0.828
10.7288	0.818
10.7676	0.803
10.8064	0.782
10.8451	0.732
10.8839	0.555
10.9227	0.518
10.9615	0.463
11.0002	0.491
11.039	0.695
11.0778	0.692
11.1165	0.539
11.1553	0.366
11.1941	0.366
11.2329	0.395
11.2716	0.298
11.3104	0.252
11.3492	0.435
11.388	0.602
11.4267	0.711
11.4655	0.766
11.5043	0.794
11.543	0.805
11.5818	0.807
11.6206	0.784
11.6594	0.752
11.6981	0.789
11.7369	0.779
11.7757	0.76
11.8145	0.713
11.8532	0.62
11.892	0.615
11.9308	0.528
11.9695	0.416
12.0083	0.319
12.0471	0.235
12.0859	0.291
12.1246	0.523
12.1634	0.69
12.2022	0.771
12.241	0.805
12.2797	0.813
12.3185	0.81
12.3573	0.805
12.396	0.802
12.4348	0.795
12.4736	0.792
12.5124	0.8
12.5511	0.803
12.5899	0.799
12.6287	0.789
12.6675	0.773
12.7062	0.758
12.745	0.742
12.7838	0.717
12.8225	0.688
12.8613	0.664
12.9001	0.64
12.9389	0.606
12.9776	0.564
13.0164	0.507
13.0552	0.431
13.0939	0.314
13.1327	0.204
13.1715	0.102
13.2103	0.17
13.249	0.251
13.2878	0.27
13.3266	0.204
13.3654	0.103
13.4041	0.081
13.4429	0.16
13.4817	0.23
13.5204	0.309
13.5592	0.346
13.598	0.364
13.6368	0.38
13.6755	0.377
13.7143	0.379
13.7531	0.384
13.7919	0.38
13.8306	0.369
13.8694	0.363
13.9082	0.353
13.9469	0.351
13.9857	0.341
14.0245	0.329
14.0633	0.309
14.102	0.285
14.1408	0.254
14.1796	0.207
14.2184	0.16
14.2571	0.102
14.2959	0.063
14.3347	0.047
14.3734	0.048
14.4122	0.076
14.451	0.147
14.4898	0.204
14.5285	0.267
14.5673	0.327
14.6061	0.359
14.6449	0.374
14.6836	0.382
14.7224	0.387
14.7612	0.382
14.7999	0.38
14.8387	0.372
14.8775	0.369
14.9163	0.367
14.955	0.367
14.9938	0.366
15.0326	0.363
15.0713	0.359
15.1101	0.356
15.1489	0.366
15.1877	0.367
15.2264	0.366
15.2652	0.369
15.304	0.367
15.3428	0.371
15.3815	0.376
15.4203	0.382
15.4591	0.387
15.4978	0.392
15.5366	0.395
15.5754	0.4
15.6142	0.406
15.6529	0.408
