Infrared Spectrum: BENZOIC ACID, METHYL ESTER
Formula: C8 H8 O2
CAS: 93-58-3
State: SOLUTION (10% IN CCl4 FOR 3800-1350, 10% IN CS2 FOR 1350-450 CM^-^1)
Class: COBLENTZ III
Instrument: DOW KBr FOREPRISM-GRATING
Instrument parameters: BLAZED AT 3.5, 12.0, 20.0 MICRON, CHANGED AT 5.0, 7.5, 14.9 MICRON
Sampling: TRANSMISSION
Path length: 0.010, 0.010 CM
Resolution: 4
Origin: DOW CHEMICAL COMPANY
1/CM	TRANSMITTANCE
451.337	0.904
459.874	0.904
468.412	0.904
476.949	0.904
485.486	0.917
494.023	0.949
502.561	0.969
511.098	0.987
519.635	1
528.173	1.008
536.71	1.014
545.247	1.016
553.784	1.016
562.322	1.022
570.859	1.021
579.396	1.016
587.934	0.993
596.471	1.01
605.008	1.002
613.545	0.986
622.083	0.994
630.62	0.981
639.157	0.957
647.695	0.917
656.232	0.898
664.769	0.87
673.306	0.763
681.844	0.76
690.381	0.554
698.918	0.627
707.456	0.008
715.993	0.117
724.53	0.684
733.067	0.844
741.605	0.894
750.142	0.914
758.679	0.926
767.217	0.95
775.754	0.955
784.291	0.942
792.828	0.925
801.366	0.883
809.903	0.852
818.44	0.779
826.978	0.761
835.515	0.892
844.052	0.838
852.589	0.787
861.127	0.807
869.664	0.847
878.201	0.882
886.738	0.927
895.276	0.954
903.813	0.958
912.35	0.95
920.888	0.931
929.425	0.879
937.962	0.851
946.499	0.93
955.037	0.899
963.574	0.741
972.111	0.56
980.649	0.894
989.186	0.918
997.723	0.926
1006.26	0.914
1014.8	0.875
1023.34	0.6838
1031.87	0.693
1040.41	0.925
1048.95	0.921
1057.48	0.876
1066.02	0.551
1074.56	0.527
1083.1	0.756
1091.63	0.4639
1100.17	0.113
1108.71	0.004
1117.25	0.124
1125.78	0.59
1134.32	0.669
1142.86	0.678
1151.39	0.684
1159.93	0.655
1168.47	0.631
1177.01	0.097
1185.54	0.504
1194.08	0.226
1202.62	0.676
1211.16	0.819
1219.69	0.85
1228.23	0.819
1236.77	0.718
1245.3	0.2989
1253.84	0.243
1262.38	0.105
1270.92	0.001
1279.45	0
1287.99	0.032
1296.53	0.24
1305.07	0.444
1313.6	0.099
1322.14	0.497
1330.68	0.722
1339.21	0.787
1347.75	0.815
1356.29	0.863
1364.83	0.867
1373.36	0.874
1381.9	0.887
1390.44	0.848
1398.98	0.87
1407.51	0.866
1416.05	0.831
1424.59	0.717
1433.12	0.3068
1441.66	0.2871
1450.2	0.2079
1458.74	0.4161
1467.27	0.708
1475.81	0.803
1484.35	0.801
1492.89	0.633
1501.42	0.748
1509.96	0.725
1518.5	0.678
1527.03	0.655
1535.57	0.587
1544.11	0.502
1552.65	0.488
1561.18	0.53
1569.72	0.597
1578.26	0.564
1586.8	0.514
1595.33	0.623
1603.87	0.25
1612.41	0.737
1620.94	0.8
1629.48	0.816
1638.02	0.795
1646.56	0.795
1655.09	0.846
1663.63	0.846
1672.17	0.832
1680.71	0.773
1689.24	0.694
1697.78	0.724
1706.32	0.634
1714.86	0.323
1723.39	0.005
1731.93	0.008
1740.47	0.0381
1749	0.4471
1757.54	0.716
1766.08	0.785
1774.62	0.789
1783.15	0.759
1791.69	0.793
1800.23	0.843
1808.77	0.868
1817.3	0.854
1825.84	0.831
1834.38	0.898
1842.91	0.915
1851.45	0.921
1859.99	0.925
1868.53	0.933
1877.06	0.933
1885.6	0.934
1894.14	0.917
1902.68	0.9
1911.21	0.847
1919.75	0.871
1928.29	0.844
1936.82	0.864
1945.36	0.907
1953.9	0.915
1962.44	0.9
1970.97	0.875
1979.51	0.896
1988.05	0.919
1996.59	0.943
2005.12	0.954
2013.66	0.949
2022.2	0.961
2030.73	0.962
2039.27	0.961
2047.81	0.959
2056.35	0.9528
2064.88	0.9348
2073.42	0.922
2081.96	0.9261
2090.5	0.926
2099.03	0.9265
2107.57	0.9532
2116.11	0.967
2124.64	0.969
2133.18	0.967
2141.72	0.967
2150.26	0.969
2158.79	0.969
2167.33	0.97
2175.87	0.9742
2184.41	0.975
2192.94	0.974
2201.48	0.973
2210.02	0.966
2218.55	0.965
2227.09	0.9628
2235.63	0.9578
2244.17	0.9468
2252.7	0.9492
2261.24	0.95
2269.78	0.945
2278.32	0.9463
2286.85	0.946
2295.39	0.946
2303.93	0.9476
2312.46	0.9451
2321	0.9372
2329.54	0.9567
2338.08	0.944
2346.61	0.9573
2355.15	0.9617
2363.69	0.959
2372.23	0.9559
2380.76	0.9494
2389.3	0.9544
2397.84	0.9592
2406.38	0.9654
2414.91	0.969
2423.45	0.967
2431.99	0.97
2440.52	0.971
2449.06	0.97
2457.6	0.9681
2466.14	0.9655
2474.67	0.967
2483.21	0.9695
2491.75	0.972
2500.29	0.974
2508.82	0.971
2517.36	0.967
2525.9	0.963
2534.43	0.9539
2542.97	0.9385
2551.51	0.9501
2560.05	0.9637
2568.58	0.966
2577.12	0.9639
2585.66	0.957
2594.2	0.9504
2602.73	0.9594
2611.27	0.97
2619.81	0.9664
2628.34	0.9702
2636.88	0.97
2645.42	0.97
2653.96	0.9763
2662.49	0.977
2671.03	0.9777
2679.57	0.977
2688.11	0.978
2696.64	0.977
2705.18	0.9742
2713.72	0.9731
2722.25	0.977
2730.79	0.975
2739.33	0.974
2747.87	0.974
2756.4	0.9702
2764.94	0.965
2773.48	0.9716
2782.02	0.977
2790.55	0.977
2799.09	0.974
2807.63	0.974
2816.16	0.9692
2824.7	0.9579
2833.24	0.9201
2841.78	0.771
2850.31	0.8958
2858.85	0.9447
2867.39	0.9344
2875.93	0.8955
2884.46	0.8955
2893	0.8991
2901.54	0.8384
2910.07	0.886
2918.61	0.9168
2927.15	0.9061
2935.69	0.8756
2944.22	0.6755
2952.76	0.317
2961.3	0.6864
2969.84	0.8469
2978.37	0.834
2986.91	0.7763
2995.45	0.653
3003.98	0.697
3012.52	0.755
3021.06	0.7378
3029.6	0.6976
3038.13	0.7288
3046.67	0.7977
3055.21	0.7953
3063.75	0.6775
3072.28	0.7033
3080.82	0.7979
3089.36	0.8126
3097.9	0.8805
3106.43	0.9267
3114.97	0.9673
3123.51	0.9811
3132.04	0.985
3140.58	0.987
3149.12	0.9859
3157.66	0.979
3166.19	0.9812
3174.73	0.9902
3183.27	0.9984
3191.81	0.9996
3200.34	0.9984
3208.88	1.002
3217.42	1.0024
3225.95	1.0064
3234.49	1.009
3243.03	1.009
3251.57	1.012
3260.1	1.013
3268.64	1.016
3277.18	1.017
3285.72	1.017
3294.25	1.017
3302.79	1.0154
3311.33	1.014
3319.86	1.0087
3328.4	1.0067
3336.94	1.013
3345.48	1.016
3354.01	1.016
3362.55	1.0166
3371.09	1.02
3379.63	1.022
3388.16	1.022
3396.7	1.021
3405.24	1.0152
3413.77	1.0034
3422.31	0.9776
3430.85	0.9563
3439.39	0.9602
3447.92	0.9857
3456.46	1.002
3465	1.005
3473.54	1.005
3482.07	1.004
3490.61	1.002
3499.15	1.001
3507.68	1
3516.22	0.994
3524.76	0.991
3533.3	0.99
3541.83	0.9895
3550.37	0.987
3558.91	0.99
3567.45	0.994
3575.98	0.997
3584.52	0.9958
3593.06	0.993
3601.59	0.994
3610.13	0.9944
3618.67	0.991
3627.21	0.99
3635.74	0.9864
3644.28	0.983
3652.82	0.985
3661.36	0.9837
3669.89	0.979
3678.43	0.9844
3686.97	0.989
3695.5	0.9867
3704.04	0.99
3712.58	0.9876
3721.12	0.9863
3729.65	0.989
3738.19	0.9907
3746.73	0.9925
3755.27	0.994
3763.8	0.997
3772.34	0.994
3780.88	0.993
3789.42	0.9938
