Infrared Spectrum: 2-METHOXY-4-METHYL PHENOL
Formula: C8 H10 O2
CAS: 93-51-6
Class: COBLENTZ
Instrument: Not specified, most likely a prism, grating, or hybrid spectrometer.
Sampling: TRANSMISSION
Path length: 0.0026 CM CELL
Resolution: 4
MICROMETERS	TRANSMITTANCE
2.047	0.918
2.087	0.925
2.127	0.95
2.167	0.936
2.207	0.9
2.247	0.93
2.28699	0.931
2.32699	0.95
2.36699	0.946
2.40699	0.935
2.44699	0.931
2.48699	0.916
2.52699	0.945
2.56699	0.955
2.60699	0.973
2.64699	0.965
2.68698	0.975
2.72698	0.936
2.76698	0.816
2.80698	0.26
2.84698	0.08
2.88698	0.09
2.92698	0.103
2.96698	0.181
3.00698	0.371
3.04698	0.56
3.08698	0.695
3.12697	0.768
3.16697	0.826
3.20697	0.843
3.24697	0.78
3.28697	0.521
3.32697	0.41
3.36697	0.416
3.40697	0.215
3.44697	0.241
3.48697	0.49
3.52696	0.41
3.56696	0.651
3.60696	0.876
3.64696	0.903
3.68696	0.86
3.72696	0.925
3.76696	0.953
3.80696	0.92
3.84696	0.916
3.88696	0.931
3.92696	0.91
3.96695	0.905
4.00695	0.906
4.04695	0.918
4.08695	0.921
4.12695	0.945
4.16695	0.933
4.20695	0.943
4.24695	0.951
4.28695	0.97
4.32695	0.953
4.36694	0.925
4.40694	0.98
4.44694	0.995
4.48694	1.001
4.52694	0.988
4.56694	0.98
4.60694	0.965
4.64694	0.976
4.68694	1.003
4.72694	1.006
4.76694	1
4.80693	0.975
4.84693	0.873
4.88693	0.92
4.92693	0.958
4.96693	0.971
5.00693	0.986
5.04693	0.986
5.08693	0.968
5.12693	0.951
5.16693	0.973
5.20692	0.99
5.24692	0.98
5.28692	0.983
5.32692	0.965
5.36692	0.918
5.40692	0.871
5.44692	0.9
5.48692	0.933
5.52692	0.973
5.56692	0.991
5.60691	0.976
5.64691	0.976
5.68691	0.973
5.72691	0.96
5.76691	0.936
5.80691	0.923
5.84691	0.923
5.88691	0.885
5.92691	0.851
5.96691	0.87
6.00691	0.88
6.0469	0.856
6.0869	0.803
6.1269	0.735
6.1669	0.536
6.2069	0.156
6.2469	0.26
6.2869	0.52
6.3269	0.676
6.3669	0.743
6.4069	0.735
6.44689	0.676
6.48689	0.556
6.52689	0.218
6.56689	0.023
6.60689	0.005
6.64689	0.038
6.68689	0.258
6.72689	0.356
6.76689	0.246
6.80689	0.04
6.84689	0.036
6.88688	0.04
6.92688	0.11
6.96688	0.175
7.00688	0.111
7.04688	0.188
7.08688	0.483
7.12688	0.583
7.16688	0.59
7.20688	0.468
7.24688	0.291
7.28687	0.201
7.32687	0.098
7.36687	0.141
7.40687	0.308
7.44687	0.471
7.48687	0.541
7.52687	0.638
7.56687	0.646
7.60687	0.585
7.64687	0.488
7.68687	0.35
7.72686	0.141
7.76686	0.023
7.80686	0.02
7.84686	0.006
7.88686	0.003
7.92686	0.011
7.96686	0.013
8.00686	0.021
8.04686	0.015
8.08686	0.01
8.12685	0.008
8.16685	0.021
8.20685	0.046
8.24685	0.035
8.28685	0.02
8.32685	0.03
8.36685	0.043
8.40685	0.081
8.44685	0.061
8.48685	0.085
8.52685	0.126
8.56684	0.17
8.60684	0.173
8.64684	0.06
8.68684	0.008
8.72684	0.078
8.76684	0.313
8.80684	0.383
8.84684	0.19
8.88684	0.04
8.92684	0.041
8.96683	0.301
9.00683	0.563
9.04683	0.681
9.08683	0.735
9.12683	0.763
9.16683	0.773
9.20683	0.781
9.24683	0.77
9.28683	0.79
9.32683	0.78
9.36683	0.763
9.40682	0.735
9.44682	0.681
9.48682	0.588
9.52682	0.401
9.56682	0.178
9.60682	0.035
9.64682	0.018
9.68682	0.02
9.72682	0.083
9.76682	0.226
9.80681	0.333
9.84681	0.49
9.88681	0.555
9.92681	0.576
9.96681	0.585
10.0068	0.626
10.0468	0.681
10.0868	0.731
10.1268	0.761
10.1668	0.781
10.2068	0.811
10.2468	0.82
10.2868	0.831
10.3268	0.84
10.3668	0.831
10.4068	0.84
10.4468	0.833
10.4868	0.846
10.5268	0.815
10.5668	0.785
10.6068	0.721
10.6468	0.733
10.6868	0.743
10.7268	0.71
10.7668	0.648
10.8068	0.571
10.8468	0.453
10.8868	0.361
10.9268	0.428
10.9668	0.561
11.0068	0.695
11.0468	0.773
11.0868	0.818
11.1268	0.84
11.1668	0.86
11.2068	0.88
11.2468	0.883
11.2868	0.88
11.3268	0.866
11.3668	0.855
11.4068	0.838
11.4468	0.81
11.4868	0.783
11.5268	0.753
11.5668	0.72
11.6068	0.673
11.6468	0.605
11.6868	0.553
11.7268	0.463
11.7668	0.415
11.8068	0.401
11.8468	0.413
11.8868	0.483
11.9268	0.575
11.9668	0.651
12.0068	0.691
12.0468	0.66
12.0868	0.585
12.1268	0.453
12.1668	0.31
12.2068	0.183
12.2468	0.103
12.2868	0.058
12.3268	0.05
12.3668	0.038
12.4068	0.063
12.4468	0.111
12.4868	0.176
12.5267	0.213
12.5667	0.17
12.6067	0.081
12.6467	0.046
12.6867	0.095
12.7267	0.281
12.7667	0.483
12.8067	0.628
12.8467	0.711
12.8867	0.765
12.9267	0.786
12.9667	0.81
13.0067	0.793
13.0467	0.75
13.0867	0.671
13.1267	0.681
13.1667	0.746
13.2067	0.796
13.2467	0.841
13.2867	0.851
13.3267	0.881
13.3667	0.888
13.4067	0.883
13.4467	0.881
13.4867	0.863
13.5267	0.851
13.5667	0.848
13.6067	0.845
13.6467	0.835
13.6867	0.826
13.7267	0.806
13.7667	0.798
13.8067	0.785
13.8467	0.771
13.8867	0.766
13.9267	0.745
13.9667	0.69
14.0067	0.6
14.0467	0.595
14.0867	0.68
14.1267	0.763
14.1667	0.818
14.2067	0.833
14.2467	0.84
14.2867	0.823
14.3267	0.845
14.3667	0.836
14.4067	0.838
14.4467	0.821
14.4867	0.811
14.5267	0.815
14.5667	0.806
14.6067	0.811
14.6467	0.8
14.6867	0.796
14.7267	0.79
14.7667	0.786
14.8067	0.785
14.8467	0.773
14.8867	0.761
14.9267	0.753
14.9667	0.755
15.0067	0.753
15.0467	0.743
15.0867	0.738
15.1267	0.721
15.1667	0.715
15.2067	0.715
15.2467	0.708
15.2867	0.7
15.3267	0.701
15.3667	0.696
15.4067	0.688
15.4467	0.678
15.4867	0.673
15.5267	0.668
15.5667	0.665
15.6067	0.655
15.6467	0.661
15.6867	0.666
15.7267	0.658
15.7667	0.653
15.8067	0.648
15.8467	0.645
15.8867	0.641
15.9267	0.645
15.9667	0.643
