Infrared Spectrum: ACETIC ACID, 2,4,5-TRICHLOROPHENOXY-
Formula: C8 H5 Cl3 O3
CAS: 93-76-5
State: SOLID (SPLIT MULL, FLUOROLUBE FOR 3800-1330 AND NUJOL FOR 1330-400 CM ^-^1)
Melting point: 158 C
Class: COBLENTZ III
Instrument: PERKIN-ELMER 283
Sampling: TRANSMISSION
Resolution: 4
Origin: DOW CHEMICAL COMPANY
1/CM	TRANSMITTANCE
205.047	0.861
215.429	0.902
225.811	0.967
236.193	0.957
246.576	0.924
256.958	0.993
267.34	0.961
277.722	0.901
288.104	0.983
298.486	1.005
308.868	1.001
319.251	1.001
329.633	1.003
340.015	1.005
350.397	1.002
360.779	1
371.161	0.986
381.544	1.002
391.926	1.003
402.308	0.998
412.69	0.997
423.072	0.99
433.454	0.9261
443.836	0.8828
454.219	0.8681
464.601	0.9259
474.983	0.977
485.365	0.99
495.747	1.002
506.129	1
516.511	0.998
526.894	0.997
537.276	0.974
547.658	0.9328
558.04	1
568.422	0.996
578.804	0.983
589.187	0.982
599.569	0.975
609.951	0.98
620.333	0.97
630.715	0.974
641.097	0.966
651.479	0.898
661.862	0.7438
672.244	0.9
682.626	0.5559
693.008	0.963
703.39	0.959
713.772	0.925
724.154	0.87
734.537	0.868
744.919	0.848
755.301	0.818
765.683	0.4752
776.065	0.7257
786.447	0.9
796.829	0.897
807.212	0.878
817.594	0.877
827.976	0.893
838.358	0.845
848.74	0.8319
859.122	0.772
869.505	0.4491
879.887	0.5119
890.269	0.542
900.651	0.744
911.033	0.774
921.415	0.813
931.797	0.7489
942.18	0.5299
952.562	0.847
962.944	0.866
973.326	0.875
983.708	0.887
994.09	0.878
1004.47	0.89
1014.85	0.881
1025.24	0.838
1035.62	0.864
1046	0.855
1056.38	0.8
1066.77	0.5661
1077.15	0.733
1087.53	0.343
1097.91	0.473
1108.29	0.8
1118.68	0.803
1129.06	0.6219
1139.44	0.2829
1149.82	0.8059
1160.2	0.851
1170.59	0.829
1180.97	0.821
1191.35	0.775
1201.73	0.711
1212.12	0.565
1222.5	0.308
1232.88	0.056
1243.26	0.2332
1253.64	0.259
1264.03	0.7467
1274.41	0.733
1284.79	0.4551
1295.17	0.6689
1305.55	0.795
1315.94	0.77
1326.32	0.791
1336.7	0.6839
1347.08	0.5401
1357.47	0.1803
1367.85	0.7259
1378.23	0.862
1388.61	0.893
1398.99	0.861
1409.38	0.821
1419.76	0.683
1430.14	0.2539
1440.52	0.602
1450.9	0.5261
1461.29	0.2841
1471.67	0.558
1482.05	0.156
1492.43	0.52
1502.82	0.917
1513.2	0.979
1523.58	0.975
1533.96	0.973
1544.34	0.965
1554.73	0.95
1565.11	0.868
1575.49	0.884
1585.87	0.718
1596.25	0.866
1606.64	0.971
1617.02	0.972
1627.4	0.97
1637.78	0.959
1648.17	0.93
1658.55	0.911
1668.93	0.883
1679.31	0.847
1689.69	0.838
1700.08	0.787
1710.46	0.74
1720.84	0.675
1731.22	0.57
1741.61	0.2548
1751.99	0.1941
1762.37	0.8062
1772.75	0.97
1783.13	0.991
1793.52	0.987
1803.9	0.993
1814.28	0.986
1824.66	0.963
1835.04	0.963
1845.43	0.983
1855.81	0.987
1866.19	0.985
1876.57	0.983
1886.96	0.981
1897.34	0.981
1907.72	0.989
1918.1	0.982
1928.48	0.982
1938.87	0.979
1949.25	0.977
1959.63	0.973
1970.01	0.972
1980.39	0.969
1990.78	0.963
2001.16	0.9605
2011.54	0.961
2021.92	0.9565
2032.31	0.957
2042.69	0.9545
2053.07	0.951
2063.45	0.951
2073.83	0.9491
2084.22	0.9416
2094.6	0.9341
2104.98	0.93
2115.36	0.9263
2125.74	0.9176
2136.13	0.9141
2146.51	0.9086
2156.89	0.9051
2167.27	0.903
2177.66	0.902
2188.04	0.9064
2198.42	0.9083
2208.8	0.901
2219.18	0.8934
2229.57	0.8897
2239.95	0.8824
2250.33	0.8714
2260.71	0.8662
2271.09	0.863
2281.48	0.8584
2291.86	0.8547
2302.24	0.855
2312.62	0.8575
2323.01	0.8515
2333.39	0.848
2343.77	0.85
2354.15	0.8502
2364.53	0.85
2374.92	0.8468
2385.3	0.845
2395.68	0.8428
2406.06	0.84
2416.44	0.8298
2426.83	0.825
2437.21	0.8185
2447.59	0.8087
2457.97	0.8113
2468.36	0.812
2478.74	0.8017
2489.12	0.8039
2499.5	0.805
2509.88	0.8024
2520.27	0.7898
2530.65	0.7834
2541.03	0.7696
2551.41	0.7466
2561.79	0.7215
2572.18	0.756
2582.56	0.7661
2592.94	0.77
2603.32	0.768
2613.71	0.7655
2624.09	0.767
2634.47	0.7645
2644.85	0.756
2655.23	0.751
2665.62	0.748
2676	0.7342
2686.38	0.72
2696.76	0.718
2707.14	0.719
2717.53	0.72
2727.91	0.718
2738.29	0.7126
2748.67	0.7043
2759.06	0.6886
2769.44	0.6831
2779.82	0.6718
2790.2	0.6572
2800.58	0.6516
2810.97	0.6415
2821.35	0.6223
2831.73	0.6134
2842.11	0.6107
2852.5	0.61
2862.88	0.5997
2873.26	0.5822
2883.64	0.5737
2894.02	0.5626
2904.41	0.5422
2914.79	0.5248
2925.17	0.5526
2935.55	0.5899
2945.93	0.604
2956.32	0.5982
2966.7	0.5938
2977.08	0.5868
2987.46	0.5808
2997.85	0.578
3008.23	0.58
3018.61	0.578
3028.99	0.5802
3039.37	0.582
3049.76	0.583
3060.14	0.5773
3070.52	0.5668
3080.9	0.5534
3091.28	0.5555
3101.67	0.5194
3112.05	0.5757
3122.43	0.5879
3132.81	0.5997
3143.2	0.6126
3153.58	0.6201
3163.96	0.6302
3174.34	0.6394
3184.72	0.6522
3195.11	0.6691
3205.49	0.6817
3215.87	0.6882
3226.25	0.6987
3236.63	0.7052
3247.02	0.7181
3257.4	0.7251
3267.78	0.7315
3278.16	0.744
3288.55	0.749
3298.93	0.756
3309.31	0.758
3319.69	0.759
3330.07	0.762
3340.46	0.763
3350.84	0.7635
3361.22	0.764
3371.6	0.764
3381.98	0.7649
3392.37	0.765
3402.75	0.765
3413.13	0.762
3423.51	0.7602
3433.9	0.76
3444.28	0.76
3454.66	0.759
3465.04	0.76
3475.42	0.76
3485.81	0.759
3496.19	0.758
3506.57	0.758
3516.95	0.757
3527.33	0.756
3537.72	0.755
3548.1	0.756
3558.48	0.755
3568.86	0.755
3579.25	0.7517
3589.63	0.75
3600.01	0.75
3610.39	0.7492
3620.77	0.7487
3631.16	0.747
3641.54	0.744
3651.92	0.7443
3662.3	0.7428
3672.68	0.741
3683.07	0.7386
3693.45	0.736
3703.83	0.735
3714.21	0.7323
3724.6	0.729
3734.98	0.728
3745.36	0.725
3755.74	0.723
3766.12	0.721
3776.51	0.7194
3786.89	0.717
3797.27	0.717
3807.65	0.716
3818.03	0.715
3828.42	0.715
3838.8	0.7138
3849.18	0.709
3859.56	0.707
3869.95	0.704
3880.33	0.703
3890.71	0.702
3901.09	0.701
3911.47	0.699
3921.86	0.697
3932.24	0.696
3942.62	0.696
3953	0.695
3963.38	0.695
3973.77	0.695
3984.15	0.695
3994.53	0.694
