Infrared Spectrum: BENZOIC ACID, ETHYL ESTER
Formula: C9 H10 O2
CAS: 93-89-0
State: LIQUID
Class: COBLENTZ
Instrument: Not specified, most likely a prism, grating, or hybrid spectrometer.
Sampling: TRANSMISSION
Path length: 0.0025 CM
Resolution: 4
Origin: INFRACORD
MICROMETERS	TRANSMITTANCE
2.535	0.877
2.57048	0.887
2.60596	0.888
2.64144	0.887
2.67692	0.883
2.7124	0.876
2.74788	0.874
2.78336	0.874
2.81884	0.876
2.85432	0.876
2.8898	0.873
2.92528	0.86
2.96076	0.848
2.99624	0.868
3.03172	0.87
3.0672	0.873
3.10268	0.872
3.13816	0.868
3.17364	0.859
3.20912	0.857
3.2446	0.806
3.28008	0.703
3.31556	0.731
3.35104	0.617
3.38652	0.46
3.422	0.637
3.45748	0.694
3.49296	0.745
3.52844	0.811
3.56392	0.85
3.5994	0.867
3.63488	0.869
3.67036	0.867
3.70584	0.869
3.74132	0.877
3.7768	0.88
3.81228	0.873
3.84776	0.872
3.88324	0.868
3.91872	0.869
3.9542	0.866
3.98968	0.866
4.02516	0.87
4.06064	0.873
4.09612	0.872
4.1316	0.87
4.16708	0.869
4.20256	0.864
4.23804	0.856
4.27352	0.864
4.309	0.869
4.34448	0.87
4.37996	0.87
4.41544	0.868
4.45092	0.867
4.4864	0.864
4.52188	0.864
4.55736	0.868
4.59284	0.872
4.62832	0.87
4.6638	0.869
4.69928	0.866
4.73476	0.855
4.77024	0.856
4.80572	0.863
4.8412	0.869
4.87668	0.867
4.91216	0.861
4.94764	0.868
4.98312	0.864
5.0186	0.86
5.05408	0.841
5.08956	0.818
5.12504	0.805
5.16052	0.83
5.196	0.837
5.23148	0.828
5.26696	0.817
5.30244	0.83
5.33792	0.841
5.3734	0.85
5.40888	0.86
5.44436	0.854
5.47984	0.831
5.51532	0.809
5.5508	0.811
5.58628	0.809
5.62176	0.773
5.65724	0.751
5.69272	0.751
5.7282	0.7
5.76368	0.579
5.79916	0.369
5.83464	0.095
5.87012	0.024
5.9056	0.135
5.94108	0.515
5.97656	0.648
6.01204	0.677
6.04752	0.754
6.083	0.766
6.11848	0.771
6.15396	0.789
6.18944	0.779
6.22492	0.725
6.2604	0.555
6.29588	0.6
6.33136	0.655
6.36684	0.654
6.40232	0.795
6.4378	0.808
6.47328	0.812
6.50876	0.818
6.54424	0.819
6.57972	0.809
6.6152	0.806
6.65068	0.815
6.68616	0.809
6.72164	0.747
6.75712	0.689
6.7926	0.651
6.82808	0.588
6.86356	0.542
6.89904	0.522
6.93452	0.26
6.97	0.488
7.00548	0.652
7.04096	0.742
7.07644	0.753
7.11192	0.75
7.1474	0.704
7.18288	0.637
7.21836	0.531
7.25384	0.597
7.28932	0.652
7.3248	0.494
7.36028	0.286
7.39576	0.611
7.43124	0.722
7.46672	0.722
7.5022	0.728
7.53768	0.722
7.57316	0.68
7.60864	0.543
7.64412	0.283
7.6796	0.31
7.71508	0.415
7.75056	0.331
7.78604	0.215
7.82152	0.099
7.857	0.036
7.89248	0.028
7.92796	0.045
7.96344	0.099
7.99892	0.171
8.0344	0.222
8.06988	0.308
8.10536	0.5
8.14084	0.629
8.17632	0.712
8.2118	0.732
8.24728	0.739
8.28276	0.735
8.31824	0.718
8.35372	0.707
8.3892	0.697
8.42468	0.686
8.46016	0.636
8.49564	0.464
8.53112	0.305
8.5666	0.297
8.60208	0.489
8.63756	0.553
8.67304	0.584
8.70852	0.627
8.744	0.636
8.77948	0.632
8.81496	0.597
8.85044	0.523
8.88592	0.395
8.9214	0.242
8.95688	0.162
8.99236	0.145
9.02784	0.097
9.06332	0.067
9.0988	0.105
9.13428	0.174
9.16976	0.33
9.20524	0.509
9.24072	0.624
9.2762	0.64
9.31168	0.573
9.34716	0.366
9.38264	0.279
9.41812	0.572
9.4536	0.693
9.48908	0.75
9.52456	0.764
9.56004	0.761
9.59552	0.757
9.631	0.706
9.66648	0.622
9.70196	0.437
9.73744	0.202
9.77292	0.231
9.8084	0.492
9.84388	0.552
9.87936	0.575
9.91484	0.612
9.95032	0.654
9.9858	0.599
10.0213	0.626
10.0568	0.699
10.0922	0.736
10.1277	0.761
10.1632	0.779
10.1987	0.787
10.2342	0.791
10.2696	0.797
10.3051	0.802
10.3406	0.805
10.3761	0.812
10.4116	0.818
10.447	0.818
10.4825	0.812
10.518	0.811
10.5535	0.798
10.589	0.787
10.6244	0.766
10.6599	0.723
10.6954	0.718
10.7309	0.748
10.7664	0.781
10.8018	0.795
10.8373	0.797
10.8728	0.802
10.9083	0.81
10.9438	0.811
10.9792	0.813
11.0147	0.817
11.0502	0.819
11.0857	0.819
11.1212	0.818
11.1566	0.815
11.1921	0.816
11.2276	0.812
11.2631	0.808
11.2986	0.798
11.334	0.776
11.3695	0.74
11.405	0.7
11.4405	0.683
11.476	0.671
11.5114	0.693
11.5469	0.723
11.5824	0.751
11.6179	0.757
11.6534	0.757
11.6888	0.72
11.7243	0.668
11.7598	0.64
11.7953	0.652
11.8308	0.708
11.8662	0.754
11.9017	0.766
11.9372	0.781
11.9727	0.789
12.0082	0.796
12.0436	0.795
12.0791	0.789
12.1146	0.792
12.1501	0.79
12.1856	0.786
12.221	0.773
12.2565	0.763
12.292	0.759
12.3275	0.746
12.363	0.734
12.3984	0.727
12.4339	0.729
12.4694	0.74
12.5049	0.758
12.5404	0.767
12.5758	0.77
12.6113	0.766
12.6468	0.76
12.6823	0.758
12.7178	0.736
12.7532	0.715
12.7887	0.707
12.8242	0.714
12.8597	0.723
12.8952	0.731
12.9306	0.757
12.9661	0.755
13.0016	0.758
13.0371	0.761
13.0726	0.764
13.108	0.76
13.1435	0.761
13.179	0.757
13.2145	0.755
13.25	0.752
13.2854	0.746
13.3209	0.734
13.3564	0.726
13.3919	0.727
13.4274	0.723
13.4628	0.72
13.4983	0.713
13.5338	0.706
13.5693	0.689
13.6048	0.678
13.6402	0.667
13.6757	0.638
13.7112	0.616
13.7467	0.578
13.7822	0.521
13.8176	0.441
13.8531	0.357
13.8886	0.244
13.9241	0.154
13.9596	0.1
13.995	0.078
14.0305	0.063
14.066	0.062
14.1015	0.063
14.137	0.066
14.1724	0.086
14.2079	0.157
14.2434	0.245
14.2789	0.341
14.3144	0.433
14.3498	0.475
14.3853	0.518
14.4208	0.535
14.4563	0.539
14.4918	0.516
14.5272	0.462
14.5627	0.405
14.5982	0.373
14.6337	0.398
14.6692	0.475
14.7046	0.53
14.7401	0.549
14.7756	0.536
14.8111	0.504
14.8466	0.466
14.882	0.439
14.9175	0.447
14.953	0.496
14.9885	0.526
