Infrared Spectrum: Alpha,Alpha'-Diphenyl diethyl ether
Formula: C16 H18 O
CAS: 93-96-9
State: SOLUTION (10% CCl4 FOR 2.7-7.5, 10% CS2 FOR 7.5-26 MICRON) VS SOLVENT
Class: COBLENTZ III
Instrument: DOW KBr FOREPRISM-GRATING
Instrument parameters: BLAZED AT 3.5, 12.0, 20.0 MICRON AND CHANGED AT 5.0, 7.5, 14.9 MICRON
Sampling: TRANSMISSION
Path length: 0.011 CM, 0.011 CM
Resolution: 2
Origin: DOW CHEMICAL COMPANY
1/CM	TRANSMITTANCE
3800	0.8375
3791	0.8386
3782	0.8398
3773	0.8405
3764	0.8413
3755	0.8418
3746	0.8424
3737	0.8428
3728	0.8435
3719	0.844
3710	0.8451
3701	0.8462
3692	0.8474
3683	0.848
3674	0.8475
3665	0.8468
3656	0.8456
3647	0.8445
3638	0.8437
3629	0.8437
3620	0.8448
3611	0.8458
3602	0.8478
3593	0.8501
3584	0.8524
3575	0.8547
3566	0.8566
3557	0.858
3548	0.8596
3539	0.8611
3530	0.8625
3521	0.8639
3512	0.8651
3503	0.8663
3494	0.8675
3485	0.8688
3476	0.87
3467	0.8712
3458	0.8725
3449	0.8736
3440	0.8748
3431	0.8759
3422	0.8771
3413	0.8781
3404	0.8792
3395	0.8803
3386	0.8814
3377	0.8824
3368	0.8835
3359	0.8846
3350	0.8855
3341	0.8863
3332	0.887
3323	0.8877
3314	0.8885
3305	0.8889
3296	0.8891
3287	0.8892
3278	0.8892
3269	0.8887
3260	0.8878
3251	0.8864
3242	0.885
3233	0.8838
3224	0.8825
3215	0.8813
3206	0.8801
3197	0.8791
3188	0.8782
3179	0.8771
3170	0.8754
3161	0.8667
3152	0.8675
3143	0.8688
3134	0.8689
3125	0.8678
3116	0.864
3107	0.852
3098	0.7651
3089	0.729
3080	0.5187
3071	0.6081
3062	0.4474
3053	0.5553
3044	0.6534
3035	0.4785
3026	0.3992
3017	0.5185
3008	0.6379
2999	0.6817
2990	0.5835
2981	0.1813
2972	0.247
2963	0.4683
2954	0.6597
2945	0.7222
2936	0.7261
2927	0.4197
2918	0.5694
2909	0.6701
2900	0.6747
2891	0.5552
2882	0.4616
2873	0.4692
2864	0.4838
2855	0.5602
2846	0.6934
2837	0.7738
2828	0.7971
2819	0.804
2810	0.8041
2801	0.803
2792	0.8065
2783	0.8206
2774	0.8336
2765	0.8442
2756	0.8503
2747	0.8521
2738	0.851
2729	0.8495
2720	0.8478
2711	0.8464
2702	0.846
2693	0.8468
2684	0.8466
2675	0.8455
2666	0.845
2657	0.8454
2648	0.8465
2639	0.8471
2630	0.8463
2621	0.8403
2612	0.8346
2603	0.8342
2594	0.8353
2585	0.8367
2576	0.8405
2567	0.8462
2558	0.8511
2549	0.8541
2540	0.8551
2531	0.8558
2522	0.8563
2513	0.8566
2504	0.8571
2495	0.8578
2486	0.8587
2477	0.8596
2468	0.8597
2459	0.8601
2450	0.8608
2441	0.8615
2432	0.8625
2423	0.8637
2414	0.8648
2405	0.8652
2396	0.8647
2387	0.8645
2378	0.865
2369	0.8654
2360	0.8661
2351	0.8668
2342	0.867
2333	0.8652
2324	0.8603
2315	0.8557
2306	0.8524
2297	0.8515
2288	0.8525
2279	0.8549
2270	0.8574
2261	0.8586
2252	0.8577
2243	0.8557
2234	0.8555
2225	0.8565
2216	0.8577
2207	0.8588
2198	0.86
2189	0.8615
2180	0.8641
2171	0.8714
2162	0.869
2153	0.8684
2144	0.8687
2135	0.8689
2126	0.8692
2117	0.8694
2108	0.8695
2099	0.8694
2090	0.8693
2081	0.8693
2072	0.8692
2063	0.8687
2054	0.8681
2045	0.8674
2036	0.8664
2027	0.8654
2018	0.8645
2009	0.8638
2000	0.8632
1991	0.8608
1982	0.8561
1973	0.857
1964	0.8542
1955	0.8161
1946	0.8015
1937	0.7408
1928	0.7933
1919	0.8267
1910	0.8448
1901	0.849
1892	0.8471
1883	0.8061
1874	0.7957
1865	0.7664
1856	0.8149
1847	0.8433
1838	0.8518
1829	0.8545
1820	0.8518
1811	0.8287
1802	0.7951
1793	0.7754
1784	0.8334
1775	0.8539
1766	0.8571
1757	0.8534
1748	0.8328
1739	0.8156
1730	0.842
1721	0.8532
1712	0.8563
1703	0.8565
1694	0.8555
1685	0.8531
1676	0.8459
1667	0.8302
1658	0.8228
1649	0.8365
1640	0.8466
1631	0.8481
1622	0.8468
1613	0.843
1604	0.8284
1595	0.7103
1586	0.8022
1577	0.8004
1568	0.8303
1559	0.8435
1550	0.8474
1541	0.8364
1532	0.8178
1523	0.8221
1514	0.8249
1505	0.8228
1496	0.7765
1487	0.3595
1478	0.7515
1469	0.7797
1460	0.7415
1451	0.2291
1442	0.4016
1433	0.666
1424	0.7725
1415	0.789
1406	0.7906
1397	0.7851
1388	0.7634
1379	0.6274
1370	0.4157
1361	0.4118
1352	0.5408
1343	0.521
1334	0.606
1325	0.6464
1316	0.5862
1307	0.5525
1298	0.4409
1289	0.5656
1280	0.4902
1271	0.5431
1262	0.7408
1253	0.7686
1244	0.7838
1235	0.7946
1226	0.7984
1217	0.7805
1208	0.5625
1199	0.3626
1190	0.7015
1181	0.7524
1172	0.7364
1163	0.7268
1154	0.7411
1145	0.7093
1136	0.6551
1127	0.6574
1118	0.5784
1109	0.3577
1100	0.2617
1091	0.0723
1082	0.0407
1073	0.1444
1064	0.197
1055	0.4629
1046	0.5943
1037	0.7033
1028	0.5639
1019	0.3055
1010	0.5795
1001	0.6707
992	0.6116
983	0.6129
974	0.7457
965	0.7691
956	0.7565
947	0.7331
938	0.4553
929	0.7451
920	0.7884
911	0.786
902	0.5099
893	0.7743
884	0.8092
875	0.8227
866	0.8168
857	0.7745
848	0.6843
839	0.7592
830	0.77
821	0.8051
812	0.8198
803	0.8228
794	0.8189
785	0.803
776	0.7667
767	0.6112
758	0.1627
749	0.098
740	0.43
731	0.6655
722	0.7448
713	0.7542
704	0.6839
695	0.0052
686	0.2351
677	0.6525
668	0.7668
659	0.7861
650	0.8008
641	0.81
632	0.8062
623	0.5575
614	0.7634
605	0.7437
596	0.7715
587	0.778
578	0.7991
569	0.801
560	0.7476
551	0.6928
542	0.4693
533	0.4954
524	0.6598
515	0.6898
506	0.7322
497	0.784
488	0.8028
479	0.8076
470	0.8099
461	0.8101
452	0.8101
443	0.8097
434	0.809
425	0.8071
416	0.8067
407	0.8068
398	0.8072
