Infrared Spectrum: BENZOIC ACID ANHYDRIDE
Formula: C14 H10 O3
CAS: 93-97-0
State: SOLUTION (10% IN CCl4 FOR 3800-1340, 10% IN CS2 FOR 1340-400 CM^-^1)
Melting point: 42 C
Class: COBLENTZ III
Instrument: BECKMAN IR-9 (GRATING)
Instrument parameters: ORDER CHANGES AT 670, 1200, 2000 CM^-^1
Sampling: TRANSMISSION
Path length: 0.011, 0.011 CM
Resolution: 4
Origin: DOW CHEMICAL COMPANY
1/CM	TRANSMITTANCE
404.382	0.091
412.919	0.245
421.457	0.43
429.994	0.54
438.531	0.627
447.068	0.676
455.606	0.714
464.143	0.766
472.68	0.805
481.218	0.837
489.755	0.856
498.292	0.871
506.83	0.88
515.367	0.888
523.904	0.89
532.441	0.887
540.979	0.887
549.516	0.891
558.053	0.895
566.591	0.902
575.128	0.906
583.665	0.903
592.203	0.892
600.74	0.871
609.277	0.498
617.814	0.407
626.352	0.686
634.889	0.733
643.426	0.735
651.964	0.746
660.501	0.768
669.038	0.774
677.575	0.616
686.113	0.261
694.65	0.166
703.187	0
711.725	0.221
720.262	0.644
728.799	0.776
737.337	0.828
745.874	0.831
754.411	0.793
762.948	0.642
771.486	0.504
780.023	0.219
788.56	0.675
797.098	0.764
805.635	0.766
814.172	0.84
822.71	0.873
831.247	0.871
839.784	0.831
848.321	0.734
856.859	0.686
865.396	0.644
873.933	0.601
882.471	0.73
891.008	0.817
899.545	0.837
908.083	0.824
916.62	0.793
925.157	0.773
933.694	0.471
942.232	0.634
950.769	0.595
959.306	0.446
967.844	0.128
976.381	0.033
984.918	0.01
993.455	0
1001.99	0.06
1010.53	0.001
1019.07	0
1027.6	0.211
1036.14	0.001
1044.68	0.004
1053.22	0.054
1061.75	0.231
1070.29	0.266
1078.83	0.213
1087.37	0.477
1095.9	0.563
1104.44	0.603
1112.98	0.722
1121.51	0.772
1130.05	0.772
1138.59	0.793
1147.13	0.796
1155.66	0.727
1164.2	0.541
1172.74	0.012
1181.28	0.3942
1189.81	0.647
1198.35	0.3865
1206.89	0.01
1215.43	0
1223.96	0.113
1232.5	0.282
1241.04	0.383
1249.57	0.364
1258.11	0.533
1266.65	0.509
1275.19	0.284
1283.72	0.4661
1292.26	0.656
1300.8	0.698
1309.34	0.577
1317.87	0.6501
1326.41	0.792
1334.95	0.8
1343.48	0.782
1352.02	0.851
1360.56	0.891
1369.1	0.896
1377.63	0.894
1386.17	0.892
1394.71	0.851
1403.25	0.887
1411.78	0.883
1420.32	0.882
1428.86	0.89
1437.39	0.879
1445.93	0.7249
1454.47	0.1084
1463.01	0.796
1471.54	0.853
1480.08	0.852
1488.62	0.801
1497.16	0.721
1505.69	0.766
1514.23	0.722
1522.77	0.69
1531.31	0.638
1539.84	0.564
1548.38	0.487
1556.92	0.477
1565.45	0.549
1573.99	0.601
1582.53	0.575
1591.07	0.4703
1599.6	0.2738
1608.14	0.5681
1616.68	0.723
1625.22	0.794
1633.75	0.837
1642.29	0.82
1650.83	0.837
1659.36	0.859
1667.9	0.871
1676.44	0.861
1684.98	0.844
1693.51	0.7609
1702.05	0.672
1710.59	0.611
1719.13	0.4669
1727.66	0.0689
1736.2	0.008
1744.74	0.2131
1753.27	0.445
1761.81	0.52
1770.35	0.4279
1778.89	0.107
1787.42	0.006
1795.96	0
1804.5	0.008
1813.04	0.3371
1821.57	0.4831
1830.11	0.6741
1838.65	0.776
1847.19	0.82
1855.72	0.835
1864.26	0.84
1872.8	0.851
1881.33	0.861
1889.87	0.875
1898.41	0.88
1906.95	0.833
1915.48	0.813
1924.02	0.855
1932.56	0.864
1941.1	0.896
1949.63	0.899
1958.17	0.884
1966.71	0.813
1975.24	0.864
1983.78	0.852
1992.32	0.873
2000.86	0.8795
2009.39	0.891
2017.93	0.891
2026.47	0.897
2035.01	0.9
2043.54	0.902
2052.08	0.9
2060.62	0.9051
2069.15	0.911
2077.69	0.914
2086.23	0.9186
2094.77	0.9252
2103.3	0.9306
2111.84	0.9316
2120.38	0.935
2128.92	0.9373
2137.45	0.942
2145.99	0.9414
2154.53	0.941
2163.07	0.941
2171.6	0.9427
2180.14	0.942
2188.68	0.942
2197.21	0.941
2205.75	0.941
2214.29	0.941
2222.83	0.941
2231.36	0.941
2239.9	0.939
2248.44	0.9365
2256.98	0.9302
2265.51	0.9272
2274.05	0.9232
2282.59	0.9184
2291.12	0.9148
2299.66	0.918
2308.2	0.919
2316.74	0.9228
2325.27	0.923
2333.81	0.919
2342.35	0.918
2350.89	0.9188
2359.42	0.9229
2367.96	0.9319
2376.5	0.9359
2385.03	0.936
2393.57	0.936
2402.11	0.9378
2410.65	0.943
2419.18	0.942
2427.72	0.9379
2436.26	0.936
2444.8	0.942
2453.33	0.9361
2461.87	0.935
2470.41	0.942
2478.95	0.939
2487.48	0.932
2496.02	0.922
2504.56	0.932
2513.09	0.939
2521.63	0.941
2530.17	0.9361
2538.71	0.9391
2547.24	0.941
2555.78	0.9409
2564.32	0.9391
2572.86	0.9419
2581.39	0.942
2589.93	0.9408
2598.47	0.9349
2607	0.927
2615.54	0.9322
2624.08	0.9318
2632.62	0.9311
2641.15	0.938
2649.69	0.9418
2658.23	0.9382
2666.77	0.943
2675.3	0.943
2683.84	0.943
2692.38	0.9434
2700.91	0.9446
2709.45	0.941
2717.99	0.9422
2726.53	0.9452
2735.06	0.9468
2743.6	0.9458
2752.14	0.946
2760.68	0.944
2769.21	0.935
2777.75	0.9266
2786.29	0.9423
2794.83	0.943
2803.36	0.939
2811.9	0.9301
2820.44	0.926
2828.97	0.9327
2837.51	0.938
2846.05	0.938
2854.59	0.9353
2863.12	0.931
2871.66	0.9276
2880.2	0.9226
2888.74	0.919
2897.27	0.918
2905.81	0.922
2914.35	0.92
2922.88	0.9236
2931.42	0.9211
2939.96	0.9217
2948.5	0.9171
2957.03	0.9265
2965.57	0.926
2974.11	0.926
2982.65	0.9195
2991.18	0.925
2999.72	0.9235
3008.26	0.9095
3016.79	0.8825
3025.33	0.892
3033.87	0.8634
3042.41	0.7673
3050.94	0.8026
3059.48	0.8216
3068.02	0.6517
3076.56	0.6488
3085.09	0.7449
3093.63	0.795
3102.17	0.7768
3110.71	0.8686
3119.24	0.8938
3127.78	0.9213
3136.32	0.9306
3144.85	0.935
3153.39	0.935
3161.93	0.936
3170.47	0.9343
3179	0.9267
3187.54	0.9354
3196.08	0.939
3204.62	0.9369
3213.15	0.9411
3221.69	0.945
3230.23	0.946
3238.76	0.949
3247.3	0.951
3255.84	0.954
3264.38	0.954
3272.91	0.957
3281.45	0.957
3289.99	0.957
3298.53	0.957
3307.06	0.958
3315.6	0.959
3324.14	0.958
3332.67	0.9532
3341.21	0.95
3349.75	0.954
3358.29	0.955
3366.82	0.958
3375.36	0.955
3383.9	0.9531
3392.44	0.95
3400.97	0.95
3409.51	0.951
3418.05	0.9568
3426.59	0.957
3435.12	0.955
3443.66	0.9462
3452.2	0.9351
3460.73	0.927
3469.27	0.9349
3477.81	0.945
3486.35	0.955
3494.88	0.954
3503.42	0.947
3511.96	0.941
3520.5	0.9431
3529.03	0.9551
3537.57	0.9591
3546.11	0.962
3554.64	0.962
3563.18	0.9609
3571.72	0.953
3580.26	0.9539
3588.79	0.947
3597.33	0.9541
3605.87	0.9632
3614.41	0.9691
3622.94	0.971
3631.48	0.975
3640.02	0.977
3648.55	0.974
3657.09	0.973
3665.63	0.97
3674.17	0.973
3682.7	0.9742
3691.24	0.974
3699.78	0.9738
3708.32	0.973
3716.85	0.973
3725.39	0.9732
3733.93	0.977
3742.47	0.979
3751	0.9835
3759.54	0.9863
3768.08	0.9867
3776.61	0.986
3785.15	0.9863
3793.69	0.987
