Infrared Spectrum: 2(N-METHYL-N-PHENYL AMINO)ETHANOL
Formula: C9 H13 O N
CAS: 93-90-3
State: LIQUID
Class: COBLENTZ
Instrument: Not specified, most likely a grating spectrometer.
Sampling: TRANSMISSION
Path length: 0.0032 CM
Resolution: 4
Origin: STANDARD OIL OF OHIO
MICROMETERS	TRANSMITTANCE
2.034	0.994
2.06775	0.986
2.1015	0.981
2.13525	0.978
2.169	0.966
2.20274	0.969
2.23649	0.976
2.27024	0.954
2.30399	0.927
2.33774	0.93
2.37149	0.937
2.40524	0.937
2.43899	0.936
2.47274	0.893
2.50648	0.919
2.54023	0.932
2.57398	0.944
2.60773	0.952
2.64148	0.962
2.67523	0.961
2.70898	0.957
2.74273	0.932
2.77647	0.609
2.81022	0.452
2.84397	0.22
2.87772	0.134
2.91147	0.069
2.94522	0.035
2.97897	0.023
3.01272	0.026
3.04647	0.058
3.08021	0.121
3.11396	0.173
3.14771	0.303
3.18146	0.385
3.21521	0.36
3.24896	0.257
3.28271	0.239
3.31646	0.277
3.35021	0.176
3.38395	0.072
3.4177	0.043
3.45145	0.026
3.4852	0.033
3.51895	0.129
3.5527	0.141
3.58645	0.336
3.6202	0.498
3.65395	0.627
3.68769	0.664
3.72144	0.681
3.75519	0.718
3.78894	0.745
3.82269	0.754
3.85644	0.752
3.89019	0.771
3.92394	0.789
3.95769	0.816
3.99143	0.836
4.02518	0.84
4.05893	0.838
4.09268	0.85
4.12643	0.868
4.16018	0.888
4.19393	0.893
4.22768	0.893
4.26142	0.892
4.29517	0.892
4.32892	0.9
4.36267	0.917
4.39642	0.922
4.43017	0.912
4.46392	0.909
4.49767	0.909
4.53142	0.924
4.56516	0.92
4.59891	0.93
4.63266	0.932
4.66641	0.925
4.70016	0.904
4.73391	0.895
4.76766	0.888
4.80141	0.887
4.83516	0.898
4.8689	0.912
4.90265	0.92
4.9364	0.925
4.97015	0.929
5.0039	0.925
5.03765	0.919
5.0714	0.902
5.10515	0.856
5.1389	0.786
5.17264	0.73
5.20639	0.732
5.24014	0.809
5.27389	0.856
5.30764	0.878
5.34139	0.887
5.37514	0.88
5.40889	0.868
5.44264	0.838
5.47638	0.818
5.51013	0.838
5.54388	0.868
5.57763	0.873
5.61138	0.85
5.64513	0.816
5.67888	0.806
5.71263	0.806
5.74637	0.811
5.78012	0.797
5.81387	0.772
5.84762	0.776
5.88137	0.771
5.91512	0.752
5.94887	0.715
5.98262	0.688
6.01637	0.681
6.05011	0.656
6.08386	0.599
6.11761	0.486
6.15136	0.136
6.18511	0.008
6.21886	0.003
6.25261	0.005
6.28636	0.062
6.32011	0.117
6.35385	0.185
6.3876	0.355
6.42135	0.419
6.4551	0.447
6.48885	0.39
6.5226	0.282
6.55635	0.191
6.5901	0.043
6.62385	0.01
6.65759	0.005
6.69134	0.013
6.72509	0.037
6.75884	0.052
6.79259	0.114
6.82634	0.119
6.86009	0.084
6.89384	0.072
6.92759	0.148
6.96133	0.163
6.99508	0.163
7.02883	0.227
7.06258	0.274
7.09633	0.271
7.13008	0.25
7.16383	0.188
7.19758	0.097
7.23132	0.031
7.26507	0.013
7.29882	0.006
7.33257	0.005
7.36632	0.005
7.40007	0.005
7.43382	0.015
7.46757	0.045
7.50132	0.114
7.53506	0.159
7.56881	0.175
7.60256	0.178
7.63631	0.183
7.67006	0.237
7.70381	0.252
7.73756	0.22
7.77131	0.171
7.80506	0.181
7.8388	0.181
7.87255	0.139
7.9063	0.139
7.94005	0.151
7.9738	0.164
8.00755	0.149
8.0413	0.112
8.07505	0.062
8.1088	0.028
8.14254	0.026
8.17629	0.055
8.21004	0.067
8.24379	0.058
8.27754	0.048
8.31129	0.031
8.34504	0.023
8.37879	0.016
8.41254	0.052
8.44628	0.141
8.48003	0.203
8.51378	0.289
8.54753	0.311
8.58128	0.296
8.61503	0.218
8.64878	0.249
8.68253	0.321
8.71627	0.338
8.75002	0.304
8.78377	0.235
8.81752	0.154
8.85127	0.119
8.88502	0.097
8.91877	0.101
8.95252	0.148
8.98627	0.24
9.02001	0.348
9.05376	0.4
9.08751	0.419
9.12126	0.407
9.15501	0.333
9.18876	0.234
9.22251	0.186
9.25626	0.146
9.29001	0.097
9.32375	0.038
9.3575	0.02
9.39125	0.018
9.425	0.02
9.45875	0.02
9.4925	0.018
9.52625	0.01
9.56	0.006
9.59375	0.01
9.62749	0.01
9.66124	0.01
9.69499	0.016
9.72874	0.04
9.76249	0.08
9.79624	0.146
9.82999	0.191
9.86374	0.239
9.89749	0.289
9.93123	0.299
9.96498	0.255
9.99873	0.158
10.0325	0.055
10.0662	0.018
10.1	0.094
10.1337	0.269
10.1675	0.318
10.2012	0.316
10.235	0.291
10.2687	0.323
10.3025	0.36
10.3362	0.363
10.37	0.296
10.4037	0.254
10.4375	0.259
10.4712	0.328
10.505	0.385
10.5387	0.462
10.5725	0.525
10.6062	0.562
10.64	0.599
10.6737	0.619
10.7075	0.631
10.7412	0.641
10.775	0.644
10.8087	0.636
10.8425	0.617
10.8762	0.589
10.91	0.56
10.9437	0.533
10.9774	0.503
11.0112	0.469
11.0449	0.451
11.0787	0.442
11.1124	0.442
11.1462	0.444
11.1799	0.441
11.2137	0.424
11.2474	0.393
11.2812	0.361
11.3149	0.36
11.3487	0.38
11.3824	0.402
11.4162	0.405
11.4499	0.398
11.4837	0.37
11.5174	0.329
11.5512	0.287
11.5849	0.26
11.6187	0.252
11.6524	0.272
11.6862	0.306
11.7199	0.34
11.7537	0.398
11.7874	0.464
11.8212	0.537
11.8549	0.599
11.8887	0.648
11.9224	0.668
11.9562	0.683
11.9899	0.691
12.0237	0.695
12.0574	0.695
12.0912	0.688
12.1249	0.675
12.1587	0.663
12.1924	0.654
12.2262	0.644
12.2599	0.629
12.2937	0.616
12.3274	0.614
12.3612	0.614
12.3949	0.619
12.4286	0.629
12.4624	0.639
12.4961	0.644
12.5299	0.638
12.5636	0.626
12.5974	0.611
12.6311	0.599
12.6649	0.582
12.6986	0.57
12.7324	0.563
12.7661	0.552
12.7999	0.543
12.8336	0.531
12.8674	0.518
12.9011	0.481
12.9349	0.437
12.9686	0.385
13.0024	0.313
13.0361	0.24
13.0699	0.143
13.1036	0.097
13.1374	0.052
13.1711	0.028
13.2049	0.016
13.2386	0.013
13.2724	0.013
13.3061	0.013
13.3399	0.011
13.3736	0.01
13.4074	0.011
13.4411	0.015
13.4749	0.033
13.5086	0.085
13.5424	0.154
13.5761	0.208
13.6099	0.274
13.6436	0.304
13.6774	0.328
13.7111	0.338
13.7449	0.336
13.7786	0.335
13.8124	0.341
13.8461	0.368
13.8799	0.387
13.9136	0.41
13.9473	0.424
13.9811	0.432
14.0148	0.43
14.0486	0.425
14.0823	0.415
14.1161	0.398
14.1498	0.356
14.1836	0.301
14.2173	0.244
14.2511	0.131
14.2848	0.102
14.3186	0.072
14.3523	0.043
14.3861	0.028
14.4198	0.026
14.4536	0.026
14.4873	0.028
14.5211	0.045
14.5548	0.099
14.5886	0.146
14.6223	0.181
14.6561	0.223
14.6898	0.262
14.7236	0.284
14.7573	0.304
14.7911	0.318
14.8248	0.328
14.8586	0.333
14.8923	0.34
14.9261	0.35
14.9598	0.368
14.9936	0.378
15.0273	0.382
15.0611	0.382
15.0948	0.382
15.1286	0.388
15.1623	0.393
15.1961	0.4
15.2298	0.402
15.2636	0.404
15.2973	0.405
15.3311	0.409
15.3648	0.412
