Infrared Spectrum: BENZOIC ACID, PHENYL ESTER
Formula: C13 H10 O2
CAS: 93-99-2
State: SOLUTION (10% IN CCl4 FOR 4000-1330 CM^-^1, 10% IN CS2 FOR 1330-600 CM^-^1)
Class: COBLENTZ III
Instrument: BECKMAN IR-7 (GRATING)
Instrument parameters: GRATING CHANGES AT 3000, 2200, 1150 CM^-^1
Sampling: TRANSMISSION
Path length: 0.010 CM, 0.011 CM
Resolution: 4
Origin: WESTERN REGIONAL RES. USDA
1/CM	TRANSMITTANCE
596.066	0.904
604.591	0.902
613.115	0.902
621.64	0.902
630.164	0.902
638.689	0.903
647.214	0.903
655.738	0.899
664.263	0.902
672.787	0.7831
681.312	0.447
689.837	0.18
698.361	0.37
706.886	0.0409
715.41	0.653
723.935	0.789
732.459	0.75
740.984	0.119
749.509	0.3319
758.033	0.715
766.558	0.816
775.082	0.851
783.607	0.848
792.132	0.808
800.656	0.806
809.181	0.756
817.705	0.742
826.23	0.735
834.755	0.816
843.279	0.6431
851.804	0.552
860.328	0.724
868.853	0.772
877.378	0.806
885.902	0.833
894.427	0.84
902.951	0.7161
911.476	0.629
920	0.842
928.525	0.8021
937.05	0.814
945.574	0.874
954.099	0.867
962.623	0.865
971.148	0.846
979.673	0.84
988.197	0.821
996.722	0.591
1005.25	0.657
1013.77	0.695
1022.3	0.052
1030.82	0.72
1039.34	0.819
1047.87	0.6761
1056.39	0.087
1064.92	0.116
1073.44	0.128
1081.97	0.18
1090.49	0.684
1099.02	0.718
1107.54	0.769
1116.07	0.816
1124.59	0.829
1133.12	0.808
1141.64	0.752
1150.16	0.65
1158.69	0.3512
1167.21	0.185
1175.74	0.1421
1184.26	0.327
1192.79	0.019
1201.31	0.001
1209.84	0.3019
1218.36	0.52
1226.89	0.512
1235.41	0.201
1243.93	0.078
1252.46	0.068
1260.98	0.004
1269.51	0.011
1278.03	0.285
1286.56	0.466
1295.08	0.466
1303.61	0.555
1312.13	0.598
1320.66	0.566
1329.18	0.737
1337.71	0.764
1346.23	0.762
1354.75	0.865
1363.28	0.871
1371.8	0.823
1380.33	0.832
1388.85	0.844
1397.38	0.823
1405.9	0.869
1414.43	0.846
1422.95	0.833
1431.48	0.871
1440	0.874
1448.53	0.684
1457.05	0.246
1465.57	0.798
1474.1	0.7451
1482.62	0.212
1491.15	0.1391
1499.67	0.1879
1508.2	0.497
1516.72	0.52
1525.25	0.4889
1533.77	0.592
1542.3	0.522
1550.82	0.469
1559.34	0.49
1567.87	0.536
1576.39	0.493
1584.92	0.3532
1593.44	0.098
1601.97	0.191
1610.49	0.6059
1619.02	0.78
1627.54	0.843
1636.07	0.863
1644.59	0.812
1653.12	0.858
1661.64	0.869
1670.16	0.875
1678.69	0.86
1687.21	0.837
1695.74	0.79
1704.26	0.669
1712.79	0.654
1721.31	0.581
1729.84	0.2441
1738.36	0
1746.89	0
1755.41	0.054
1763.94	0.318
1772.46	0.544
1780.98	0.676
1789.51	0.75
1798.03	0.753
1806.56	0.737
1815.08	0.723
1823.61	0.712
1832.13	0.759
1840.66	0.775
1849.18	0.814
1857.71	0.823
1866.23	0.806
1874.75	0.795
1883.28	0.822
1891.8	0.818
1900.33	0.82
1908.85	0.764
1917.38	0.753
1925.9	0.754
1934.43	0.733
1942.95	0.772
1951.48	0.805
1960	0.771
1968.53	0.766
1977.05	0.784
1985.57	0.799
1994.1	0.808
2002.62	0.815
2011.15	0.8088
2019.67	0.7962
2028.2	0.7901
2036.72	0.7848
2045.25	0.7825
2053.77	0.7818
2062.3	0.7853
2070.82	0.7967
2079.34	0.8006
2087.87	0.8049
2096.39	0.8092
2104.92	0.814
2113.44	0.8196
2121.97	0.8272
2130.49	0.8334
2139.02	0.8367
2147.54	0.837
2156.07	0.837
2164.59	0.8354
2173.12	0.8331
2181.64	0.8298
2190.16	0.8261
2198.69	0.8243
2207.21	0.822
2215.74	0.8197
2224.26	0.818
2232.79	0.818
2241.31	0.8182
2249.84	0.819
2258.36	0.821
2266.89	0.823
2275.41	0.825
2283.94	0.827
2292.46	0.829
2300.98	0.831
2309.51	0.8305
2318.03	0.8262
2326.56	0.8198
2335.08	0.8116
2343.61	0.81
2352.13	0.81
2360.66	0.8133
2369.18	0.8172
2377.71	0.8219
2386.23	0.8273
2394.75	0.833
2403.28	0.835
2411.8	0.838
2420.33	0.8403
2428.85	0.8496
2437.38	0.8539
2445.9	0.8562
2454.43	0.8585
2462.95	0.86
2471.48	0.861
2480	0.8606
2488.53	0.8593
2497.05	0.854
2505.57	0.852
2514.1	0.85
2522.62	0.85
2531.15	0.8511
2539.67	0.8564
2548.2	0.86
2556.72	0.861
2565.25	0.86
2573.77	0.8594
2582.3	0.8561
2590.82	0.8488
2599.35	0.846
2607.87	0.8478
2616.39	0.85
2624.92	0.852
2633.44	0.854
2641.97	0.8569
2650.49	0.858
2659.02	0.8595
2667.54	0.86
2676.07	0.8611
2684.59	0.862
2693.12	0.863
2701.64	0.863
2710.16	0.864
2718.69	0.865
2727.21	0.865
2735.74	0.864
2744.26	0.8625
2752.79	0.8585
2761.31	0.8539
2769.84	0.8517
2778.36	0.8526
2786.89	0.8559
2795.41	0.8592
2803.94	0.86
2812.46	0.8584
2820.98	0.858
2829.51	0.8566
2838.03	0.854
2846.56	0.8491
2855.08	0.8412
2863.61	0.8319
2872.13	0.8309
2880.66	0.8353
2889.18	0.839
2897.71	0.839
2906.23	0.839
2914.75	0.84
2923.28	0.8426
2931.8	0.844
2940.33	0.8368
2948.85	0.8345
2957.38	0.8368
2965.9	0.837
2974.43	0.8356
2982.95	0.8313
2991.48	0.829
3000	0.824
3008.53	0.8119
3017.05	0.7922
3025.57	0.7673
3034.1	0.7446
3042.62	0.6896
3051.15	0.5821
3059.67	0.5419
3068.2	0.6134
3076.72	0.5158
3085.25	0.4762
3093.77	0.5246
3102.3	0.6246
3110.82	0.6365
3119.35	0.7161
3127.87	0.8017
3136.39	0.8278
3144.92	0.8322
3153.44	0.835
3161.97	0.836
3170.49	0.8329
3179.02	0.8294
3187.54	0.8344
3196.07	0.838
3204.59	0.8403
3213.12	0.8457
3221.64	0.848
3230.16	0.849
3238.69	0.8494
3247.21	0.851
3255.74	0.852
3264.26	0.8523
3272.79	0.8524
3281.31	0.852
3289.84	0.852
3298.36	0.851
3306.89	0.851
3315.41	0.85
3323.94	0.849
3332.46	0.848
3340.98	0.8451
3349.51	0.8428
3358.03	0.842
3366.56	0.8458
3375.08	0.8471
3383.61	0.848
3392.13	0.847
3400.66	0.848
3409.18	0.849
3417.71	0.849
3426.23	0.849
3434.75	0.8468
3443.28	0.8412
3451.8	0.8317
3460.33	0.8118
3468.85	0.8037
3477.38	0.8033
3485.9	0.8185
3494.43	0.8319
3502.95	0.8405
3511.48	0.843
3520	0.8441
3528.53	0.8464
3537.05	0.848
3545.57	0.848
3554.1	0.8477
3562.62	0.8464
3571.15	0.846
3579.67	0.846
3588.2	0.8474
3596.72	0.8514
3605.25	0.854
3613.77	0.855
3622.3	0.8576
3630.82	0.8589
3639.35	0.859
3647.87	0.857
3656.39	0.8532
3664.92	0.852
3673.44	0.854
3681.97	0.854
3690.49	0.8521
3699.02	0.852
3707.54	0.8525
3716.07	0.854
3724.59	0.857
3733.12	0.8594
3741.64	0.862
3750.16	0.863
3758.69	0.863
3767.21	0.8624
3775.74	0.8601
3784.26	0.8612
3792.79	0.862
3801.31	0.86
3809.84	0.861
3818.36	0.862
3826.89	0.8607
3835.41	0.8562
3843.94	0.8552
3852.46	0.8575
3860.98	0.86
3869.51	0.8599
3878.03	0.858
3886.56	0.857
3895.08	0.856
3903.61	0.857
3912.13	0.8565
3920.66	0.857
3929.18	0.858
3937.71	0.858
3946.23	0.8597
3954.76	0.858
3963.28	0.858
3971.8	0.858
