Infrared Spectrum: BICYCLO[2.2.2]OCT-2-ENE
Formula: C8 H12
CAS: 931-64-6
State: GAS (6 mmHg) VS. EVACUATED CELL
Class: COBLENTZ
Instrument: CARY 90 (GRATING)
Instrument parameters: GRATING CHANGES AT 3000, 2000, 1200 CM^-^1
Sampling: TRANSMISSION
Path length: 20 CM CELL
Resolution: 4
Origin: WESTERN REGIONAL RES. USDA
1/CM	TRANSMITTANCE
497.697	0.926
506.769	0.924
515.841	0.922
524.913	0.917
533.985	0.915
543.056	0.914
552.128	0.916
561.2	0.918
570.272	0.916
579.344	0.915
588.416	0.914
597.488	0.914
606.56	0.914
615.632	0.914
624.703	0.915
633.775	0.916
642.847	0.917
651.919	0.918
660.991	0.914
670.063	0.9
679.135	0.781
688.207	0.637
697.279	0.616
706.35	0.637
715.422	0.786
724.494	0.886
733.566	0.9
742.638	0.908
751.71	0.918
760.782	0.917
769.854	0.914
778.926	0.911
787.997	0.891
797.069	0.846
806.141	0.86
815.213	0.886
824.285	0.905
833.357	0.902
842.429	0.902
851.501	0.896
860.573	0.855
869.644	0.865
878.716	0.848
887.788	0.9
896.86	0.91
905.932	0.91
915.004	0.908
924.076	0.909
933.148	0.899
942.22	0.892
951.291	0.887
960.363	0.88
969.435	0.897
978.507	0.907
987.579	0.913
996.651	0.911
1005.72	0.902
1014.79	0.898
1023.87	0.897
1032.94	0.884
1042.01	0.88
1051.08	0.892
1060.15	0.901
1069.23	0.906
1078.3	0.909
1087.37	0.905
1096.44	0.899
1105.51	0.901
1114.59	0.91
1123.66	0.916
1132.73	0.916
1141.8	0.911
1150.87	0.891
1159.94	0.88
1169.02	0.862
1178.09	0.857
1187.16	0.888
1196.23	0.902
1205.3	0.918
1214.38	0.915
1223.45	0.908
1232.52	0.909
1241.59	0.917
1250.66	0.92
1259.74	0.919
1268.81	0.919
1277.88	0.919
1286.95	0.922
1296.02	0.918
1305.1	0.916
1314.17	0.911
1323.24	0.907
1332.31	0.909
1341.38	0.913
1350.45	0.919
1359.53	0.908
1368.6	0.888
1377.67	0.871
1386.74	0.899
1395.81	0.909
1404.89	0.919
1413.96	0.918
1423.03	0.918
1432.1	0.917
1441.17	0.891
1450.25	0.828
1459.32	0.6891
1468.39	0.817
1477.46	0.882
1486.53	0.907
1495.6	0.917
1504.68	0.919
1513.75	0.92
1522.82	0.919
1531.89	0.919
1540.96	0.919
1550.04	0.919
1559.11	0.918
1568.18	0.919
1577.25	0.92
1586.32	0.92
1595.4	0.92
1604.47	0.907
1613.54	0.875
1622.61	0.8101
1631.68	0.851
1640.75	0.9
1649.83	0.911
1658.9	0.918
1667.97	0.923
1677.04	0.927
1686.11	0.923
1695.19	0.922
1704.26	0.922
1713.33	0.922
1722.4	0.923
1731.47	0.919
1740.55	0.919
1749.62	0.922
1758.69	0.92
1767.76	0.92
1776.83	0.923
1785.91	0.92
1794.98	0.925
1804.05	0.924
1813.12	0.92
1822.19	0.918
1831.26	0.919
1840.34	0.925
1849.41	0.924
1858.48	0.918
1867.55	0.919
1876.62	0.922
1885.7	0.917
1894.77	0.915
1903.84	0.917
1912.91	0.918
1921.98	0.917
1931.06	0.918
1940.13	0.919
1949.2	0.924
1958.27	0.926
1967.34	0.924
1976.41	0.922
1985.49	0.92
1994.56	0.918
2003.63	0.917
2012.7	0.918
2021.77	0.919
2030.85	0.92
2039.92	0.92
2048.99	0.922
2058.06	0.922
2067.13	0.922
2076.21	0.92
2085.28	0.92
2094.35	0.92
2103.42	0.919
2112.49	0.917
2121.57	0.9162
2130.64	0.918
2139.71	0.919
2148.78	0.92
2157.85	0.92
2166.92	0.92
2176	0.9226
2185.07	0.924
2194.14	0.925
2203.21	0.925
2212.28	0.923
2221.36	0.92
2230.43	0.919
2239.5	0.918
2248.57	0.916
2257.64	0.915
2266.72	0.915
2275.79	0.915
2284.86	0.916
2293.93	0.916
2303	0.916
2312.07	0.916
2321.15	0.916
2330.22	0.916
2339.29	0.917
2348.36	0.917
2357.43	0.917
2366.51	0.917
2375.58	0.917
2384.65	0.917
2393.72	0.917
2402.79	0.916
2411.87	0.915
2420.94	0.915
2430.01	0.915
2439.08	0.915
2448.15	0.915
2457.22	0.915
2466.3	0.915
2475.37	0.915
2484.44	0.915
2493.51	0.915
2502.58	0.916
2511.66	0.916
2520.73	0.917
2529.8	0.917
2538.87	0.918
2547.94	0.918
2557.02	0.918
2566.09	0.917
2575.16	0.915
2584.23	0.914
2593.3	0.911
2602.38	0.908
2611.45	0.9062
2620.52	0.905
2629.59	0.904
2638.66	0.9057
2647.73	0.907
2656.81	0.908
2665.88	0.909
2674.95	0.911
2684.02	0.913
2693.09	0.9156
2702.17	0.917
2711.24	0.915
2720.31	0.9104
2729.38	0.907
2738.45	0.905
2747.53	0.907
2756.6	0.909
2765.67	0.911
2774.74	0.91
2783.81	0.9086
2792.88	0.9046
2801.96	0.8972
2811.03	0.891
2820.1	0.8977
2829.17	0.905
2838.24	0.9047
2847.32	0.8901
2856.39	0.8131
2865.46	0.3689
2874.53	0.3181
2883.6	0.3404
2892.68	0.5308
2901.75	0.6506
2910.82	0.5507
2919.89	0.4645
2928.96	0.3887
2938.03	0.1857
2947.11	0.02
2956.18	0.0165
2965.25	0.0407
2974.32	0.4224
2983.39	0.7082
2992.47	0.8084
3001.54	0.8662
3010.61	0.898
3019.68	0.904
3028.75	0.9021
3037.83	0.8704
3046.9	0.5909
3055.97	0.4702
3065.04	0.6196
3074.11	0.7122
3083.19	0.8686
3092.26	0.8953
3101.33	0.902
3110.4	0.9078
3119.47	0.9125
3128.54	0.916
3137.62	0.917
3146.69	0.915
3155.76	0.914
3164.83	0.914
3173.9	0.914
3182.98	0.913
3192.05	0.9094
3201.12	0.907
3210.19	0.9044
3219.26	0.8993
3228.34	0.891
3237.41	0.8961
3246.48	0.9055
3255.55	0.909
3264.62	0.912
3273.69	0.9145
3282.77	0.915
3291.84	0.915
3300.91	0.915
3309.98	0.914
3319.05	0.913
3328.13	0.913
3337.2	0.913
3346.27	0.914
3355.34	0.9153
3364.41	0.918
3373.49	0.92
3382.56	0.923
3391.63	0.922
3400.7	0.9198
3409.77	0.919
3418.85	0.92
3427.92	0.92
3436.99	0.922
3446.06	0.922
3455.13	0.922
3464.2	0.922
3473.28	0.922
3482.35	0.922
3491.42	0.9219
3500.49	0.92
3509.56	0.919
3518.64	0.918
3527.71	0.917
3536.78	0.9151
3545.85	0.914
3554.92	0.913
3564	0.9101
3573.07	0.91
3582.14	0.91
3591.21	0.91
3600.28	0.91
3609.35	0.911
3618.43	0.911
3627.5	0.9125
3636.57	0.9137
3645.64	0.9147
3654.71	0.916
3663.79	0.9177
3672.86	0.919
3681.93	0.92
3691	0.92
3700.07	0.92
3709.15	0.9194
3718.22	0.919
3727.29	0.918
3736.36	0.915
3745.43	0.914
3754.5	0.914
3763.58	0.916
3772.65	0.918
3781.72	0.92
3790.79	0.92
3799.86	0.922
3808.94	0.922
3818.01	0.922
3827.08	0.922
3836.15	0.922
3845.22	0.922
3854.3	0.922
3863.37	0.922
3872.44	0.922
3881.51	0.92
3890.58	0.9198
3899.66	0.919
3908.73	0.918
3917.8	0.916
3926.87	0.914
3935.94	0.911
3945.01	0.9089
3954.09	0.908
3963.16	0.908
3972.23	0.909
3981.3	0.911
3990.37	0.914
