Infrared Spectrum: as-Triazine-3,5-diol, 6-methyl-
Formula: C4 H5 N3 O2
CAS: 932-53-6
State: SOLID (0.7 mg / 650 mg KBr DISC)
Class: COBLENTZ III
Instrument: PERKIN-ELMER 21 (GRATING)
Instrument parameters: FILTER CHANGE ABOUT 1085 CM^-^1
Resolution: 2
Origin: SOUTHERN RESEARCH INSTITUTE
1/CM	TRANSMITTANCE
604	0.9414
612	0.9413
620	0.936
628	0.9253
636	0.9079
644	0.8791
652	0.8624
660	0.8501
668	0.8318
676	0.7943
684	0.7772
692	0.7532
700	0.7262
708	0.6976
716	0.6449
724	0.5512
732	0.4802
740	0.4406
748	0.5612
756	0.7062
764	0.7094
772	0.6955
780	0.6538
788	0.5967
796	0.4784
804	0.3491
812	0.5641
820	0.6718
828	0.6435
836	0.6228
844	0.5863
852	0.5072
860	0.3907
868	0.3714
876	0.4673
884	0.6055
892	0.6514
900	0.66
908	0.6878
916	0.6906
924	0.6956
932	0.7021
940	0.7008
948	0.6913
956	0.6712
964	0.631
972	0.6215
980	0.6959
988	0.6934
996	0.6827
1004	0.6663
1012	0.624
1020	0.4958
1028	0.5156
1036	0.5889
1044	0.6977
1052	0.701
1060	0.7016
1068	0.6888
1076	0.6848
1084	0.6859
1092	0.6694
1100	0.6612
1108	0.6547
1116	0.6414
1124	0.622
1132	0.6079
1140	0.589
1148	0.5444
1156	0.6129
1164	0.6465
1172	0.6323
1180	0.6166
1188	0.6149
1196	0.6012
1204	0.5529
1212	0.4672
1220	0.2847
1228	0.3929
1236	0.708
1244	0.6956
1252	0.6729
1260	0.6438
1268	0.6163
1276	0.5756
1284	0.5086
1292	0.3943
1300	0.3673
1308	0.5671
1316	0.6276
1324	0.6875
1332	0.6863
1340	0.6778
1348	0.6648
1356	0.6402
1364	0.6108
1372	0.5651
1380	0.4582
1388	0.5239
1396	0.6185
1404	0.5441
1412	0.4992
1420	0.5034
1428	0.3991
1436	0.3618
1444	0.431
1452	0.5357
1460	0.5178
1468	0.4531
1476	0.4233
1484	0.5601
1492	0.5468
1500	0.5487
1508	0.5584
1516	0.5511
1524	0.5294
1532	0.5216
1540	0.5141
1548	0.5053
1556	0.475
1564	0.4682
1572	0.4604
1580	0.4441
1588	0.4077
1596	0.3857
1604	0.3725
1612	0.3632
1620	0.3461
1628	0.2962
1636	0.2551
1644	0.2088
1652	0.1566
1660	0.1268
1668	0.0765
1676	0.087
1684	0.1213
1692	0.1396
1700	0.1431
1708	0.1301
1716	0.0824
1724	0.1229
1732	0.1881
1740	0.2165
1748	0.2635
1756	0.3194
1764	0.3875
1772	0.4389
1780	0.4825
1788	0.5243
1796	0.5413
1804	0.5748
1812	0.6059
1820	0.6174
1828	0.6098
1836	0.6133
1844	0.642
1852	0.6702
1860	0.6901
1868	0.7026
1876	0.7156
1884	0.7181
1892	0.7346
1900	0.7416
1908	0.747
1916	0.7508
1924	0.7549
1932	0.7589
1940	0.7636
1948	0.7705
1956	0.7759
1964	0.7788
1972	0.7798
1980	0.7796
1988	0.7787
1996	0.7819
2004	0.7882
2012	0.7882
2020	0.7855
2028	0.7859
2036	0.7844
2044	0.7784
2052	0.7736
2060	0.7759
2068	0.7787
2076	0.7819
2084	0.7847
2092	0.782
2100	0.7771
2108	0.777
2116	0.7773
2124	0.7773
2132	0.7771
2140	0.7766
2148	0.7759
2156	0.7751
2164	0.7739
2172	0.7723
2180	0.7674
2188	0.7644
2196	0.7649
2204	0.7664
2212	0.7672
2220	0.7637
2228	0.761
2236	0.7608
2244	0.7597
2252	0.7576
2260	0.753
2268	0.7478
2276	0.7428
2284	0.7395
2292	0.737
2300	0.7348
2308	0.7329
2316	0.7253
2324	0.7223
2332	0.7225
2340	0.7166
2348	0.7106
2356	0.71
2364	0.7132
2372	0.7203
2380	0.7199
2388	0.718
2396	0.7153
2404	0.7123
2412	0.7009
2420	0.6971
2428	0.6995
2436	0.7078
2444	0.7137
2452	0.713
2460	0.7123
2468	0.7113
2476	0.7093
2484	0.7053
2492	0.6993
2500	0.6926
2508	0.6903
2516	0.6892
2524	0.6887
2532	0.6887
2540	0.6821
2548	0.6813
2556	0.6782
2564	0.6732
2572	0.6694
2580	0.6686
2588	0.6671
2596	0.6636
2604	0.6648
2612	0.6676
2620	0.6706
2628	0.669
2636	0.6646
2644	0.6591
2652	0.6528
2660	0.6526
2668	0.65
2676	0.6442
2684	0.6386
2692	0.6331
2700	0.6284
2708	0.6242
2716	0.6202
2724	0.6164
2732	0.6146
2740	0.6018
2748	0.5895
2756	0.573
2764	0.543
2772	0.5101
2780	0.5245
2788	0.589
2796	0.591
2804	0.5828
2812	0.5704
2820	0.5601
2828	0.5457
2836	0.5394
2844	0.5324
2852	0.5234
2860	0.5223
2868	0.523
2876	0.5213
2884	0.5178
2892	0.5177
2900	0.5184
2908	0.5181
2916	0.5143
2924	0.5036
2932	0.4905
2940	0.4793
2948	0.4685
2956	0.4581
2964	0.4461
2972	0.43
2980	0.4161
2988	0.4048
2996	0.3934
3004	0.381
3012	0.3672
3020	0.3524
3028	0.3355
3036	0.3176
3044	0.3026
3052	0.3
3060	0.3094
3068	0.3318
3076	0.3403
3084	0.3355
3092	0.3221
3100	0.3021
3108	0.2828
3116	0.2581
3124	0.2357
3132	0.2194
3140	0.2232
3148	0.2343
3156	0.2455
3164	0.2591
3172	0.2693
3180	0.2771
3188	0.2806
3196	0.2762
3204	0.2671
3212	0.2605
3220	0.2544
3228	0.2153
3236	0.2046
3244	0.2126
3252	0.2343
3260	0.2762
3268	0.2986
3276	0.3129
3284	0.3511
3292	0.3741
3300	0.3939
3308	0.4141
3316	0.4324
3324	0.45
3332	0.4636
3340	0.4786
3348	0.4882
3356	0.4963
3364	0.5006
3372	0.5032
3380	0.5077
3388	0.5129
3396	0.5169
3404	0.5189
3412	0.5202
3420	0.5329
3428	0.5407
3436	0.5463
3444	0.5518
3452	0.5567
3460	0.5582
3468	0.5706
3476	0.5746
3484	0.5795
3492	0.587
3500	0.5911
3508	0.5955
3516	0.6042
3524	0.6136
3532	0.6172
3540	0.6219
3548	0.6278
3556	0.6391
3564	0.6461
3572	0.6471
3580	0.659
3588	0.6718
3596	0.6801
3604	0.6841
3612	0.6851
3620	0.687
3628	0.6904
3636	0.693
3644	0.6927
3652	0.6915
3660	0.6909
3668	0.69
3676	0.6909
3684	0.6924
3692	0.6913
3700	0.6898
3708	0.6885
3716	0.6847
3724	0.6811
3732	0.6803
3740	0.6801
3748	0.6903
3756	0.6902
3764	0.6832
3772	0.6804
3780	0.68
3788	0.6795
3796	0.6791
