Infrared Spectrum: 1,2-DIMETHYL-3-ETHYL BENZENE
Formula: C10 H14
CAS: 933-98-2
State: LIQUID
Class: COBLENTZ
Instrument: PERKIN-ELMER
Sampling: TRANSMISSION
Path length: 0.0024 CM
Resolution: 4
Origin: STANDARD OIL OF OHIO
1/CM	TRANSMITTANCE
614.994	0.537
623.44	0.54
631.886	0.545
640.332	0.56
648.778	0.5759
657.224	0.6029
665.67	0.6308
674.116	0.6513
682.562	0.6918
691.008	0.7186
699.453	0.734
707.899	0.6806
716.345	0.6484
724.791	0.3235
733.237	0.3502
741.683	0.7075
750.129	0.6704
758.575	0.3635
767.021	0.5045
775.467	0.3696
783.913	0.0981
792.359	0.2392
800.805	0.451
809.251	0.452
817.697	0.6559
826.143	0.7803
834.589	0.8453
843.035	0.8605
851.48	0.869
859.926	0.8597
868.372	0.802
876.818	0.8676
885.264	0.8734
893.71	0.8523
902.156	0.8346
910.602	0.8604
919.048	0.871
927.494	0.875
935.94	0.873
944.386	0.8632
952.832	0.8424
961.278	0.7679
969.724	0.6355
978.17	0.7183
986.616	0.7485
995.062	0.6734
1003.51	0.7126
1011.95	0.7103
1020.4	0.6065
1028.85	0.6788
1037.29	0.6394
1045.74	0.7141
1054.18	0.761
1062.63	0.599
1071.08	0.6437
1079.52	0.7873
1087.97	0.7562
1096.41	0.7653
1104.86	0.6015
1113.3	0.7336
1121.75	0.8479
1130.2	0.861
1138.64	0.863
1147.09	0.8597
1155.53	0.851
1163.98	0.7952
1172.43	0.758
1180.87	0.8429
1189.32	0.844
1197.76	0.8598
1206.21	0.864
1214.66	0.861
1223.1	0.859
1231.55	0.8458
1239.99	0.8298
1248.44	0.795
1256.89	0.8298
1265.33	0.837
1273.78	0.8381
1282.22	0.841
1290.67	0.841
1299.12	0.837
1307.56	0.8315
1316.01	0.8117
1324.45	0.7458
1332.9	0.7435
1341.35	0.7561
1349.79	0.8
1358.24	0.7825
1366.68	0.6872
1375.13	0.4385
1383.58	0.409
1392.02	0.5857
1400.47	0.7057
1408.91	0.7067
1417.36	0.6745
1425.8	0.582
1434.25	0.5308
1442.7	0.4312
1451.14	0.2654
1459.59	0.1435
1468.03	0.133
1476.48	0.077
1484.93	0.1915
1493.37	0.5418
1501.82	0.6238
1510.26	0.705
1518.71	0.771
1527.16	0.8015
1535.6	0.822
1544.05	0.8196
1552.49	0.817
1560.94	0.8146
1569.39	0.81
1577.83	0.8033
1586.28	0.7482
1594.72	0.5265
1603.17	0.5776
1611.62	0.8136
1620.06	0.8553
1628.51	0.8766
1636.95	0.8903
1645.4	0.8907
1653.85	0.891
1662.29	0.891
1670.74	0.8744
1679.18	0.8716
1687.63	0.8803
1696.08	0.9023
1704.52	0.9141
1712.97	0.922
1721.41	0.923
1729.86	0.923
1738.3	0.922
1746.75	0.923
1755.2	0.927
1763.64	0.9265
1772.09	0.922
1780.53	0.9106
1788.98	0.8699
1797.43	0.876
1805.87	0.913
1814.32	0.9304
1822.76	0.932
1831.21	0.932
1839.66	0.9266
1848.1	0.9088
1856.55	0.8588
1864.99	0.8704
1873.44	0.9158
1881.89	0.9391
1890.33	0.94
1898.78	0.9337
1907.22	0.9213
1915.67	0.8792
1924.12	0.826
1932.56	0.8519
1941.01	0.904
1949.45	0.9345
1957.9	0.9441
1966.35	0.949
1974.79	0.949
1983.24	0.951
1991.68	0.949
2000.13	0.951
2008.58	0.951
2017.02	0.951
2025.47	0.944
2033.91	0.942
2042.36	0.9441
2050.8	0.947
2059.25	0.947
2067.7	0.951
2076.14	0.951
2084.59	0.951
2093.03	0.951
2101.48	0.951
2109.93	0.951
2118.37	0.951
2126.82	0.947
2135.26	0.9472
2143.71	0.951
2152.16	0.947
2160.6	0.9473
2169.05	0.951
2177.49	0.951
2185.94	0.951
2194.39	0.945
2202.83	0.947
2211.28	0.947
2219.72	0.951
2228.17	0.9469
2236.62	0.942
2245.06	0.94
2253.51	0.942
2261.95	0.944
2270.4	0.944
2278.85	0.944
2287.29	0.945
2295.74	0.944
2304.18	0.945
2312.63	0.945
2321.08	0.9438
2329.52	0.9349
2337.97	0.93
2346.41	0.9391
2354.86	0.94
2363.3	0.942
2371.75	0.942
2380.2	0.942
2388.64	0.942
2397.09	0.937
2405.53	0.9299
2413.98	0.9269
2422.43	0.9232
2430.87	0.923
2439.32	0.9252
2447.76	0.932
2456.21	0.932
2464.66	0.93
2473.1	0.93
2481.55	0.93
2489.99	0.93
2498.44	0.932
2506.89	0.929
2515.33	0.929
2523.78	0.9288
2532.22	0.9269
2540.67	0.925
2549.12	0.9251
2557.56	0.923
2566.01	0.922
2574.45	0.927
2582.9	0.929
2591.35	0.929
2599.79	0.927
2608.24	0.927
2616.68	0.9249
2625.13	0.918
2633.58	0.912
2642.02	0.9082
2650.47	0.9152
2658.91	0.922
2667.36	0.923
2675.8	0.9218
2684.25	0.9179
2692.7	0.915
2701.14	0.913
2709.59	0.9118
2718.03	0.9049
2726.48	0.8872
2734.93	0.8273
2743.37	0.8008
2751.82	0.8646
2760.26	0.8728
2768.71	0.8609
2777.16	0.8558
2785.6	0.8489
2794.05	0.8408
2802.49	0.8318
2810.94	0.8218
2819.39	0.8046
2827.83	0.7725
2836.28	0.7264
2844.72	0.6513
2853.17	0.5246
2861.62	0.4285
2870.06	0.3152
2878.51	0.1735
2886.95	0.0909
2895.4	0.1502
2903.85	0.1839
2912.29	0.1629
2920.74	0.1443
2929.18	0.0919
2937.63	0.0805
2946.08	0.0482
2954.52	0.0622
2962.97	0.0835
2971.41	0.0274
2979.86	0.0182
2988.3	0.074
2996.75	0.1948
3005.2	0.3374
3013.64	0.3306
3022.09	0.2811
3030.53	0.2717
3038.98	0.3142
3047.43	0.3385
3055.87	0.4492
3064.32	0.4518
3072.76	0.4076
3081.21	0.408
3089.66	0.5406
3098.1	0.7029
3106.55	0.8003
3114.99	0.8315
3123.44	0.8491
3131.89	0.8581
3140.33	0.8641
3148.78	0.8681
3157.22	0.869
3165.67	0.869
3174.12	0.869
3182.56	0.8712
3191.01	0.8811
3199.45	0.8901
3207.9	0.9001
3216.35	0.9033
3224.79	0.91
3233.24	0.913
3241.68	0.915
3250.13	0.915
3258.58	0.915
3267.02	0.915
3275.47	0.915
3283.91	0.915
3292.36	0.915
3300.8	0.915
3309.25	0.9151
3317.7	0.917
3326.14	0.917
3334.59	0.917
3343.03	0.917
3351.48	0.9179
3359.93	0.917
3368.37	0.917
3376.82	0.915
3385.26	0.915
3393.71	0.915
3402.16	0.915
3410.6	0.915
3419.05	0.913
3427.49	0.913
3435.94	0.912
3444.39	0.912
3452.83	0.91
3461.28	0.908
3469.72	0.907
3478.17	0.903
3486.62	0.902
3495.06	0.9
3503.51	0.9
3511.95	0.9
3520.4	0.9
3528.85	0.9001
3537.29	0.902
3545.74	0.902
3554.18	0.908
3562.63	0.908
3571.08	0.908
3579.52	0.907
3587.97	0.9002
3596.41	0.908
3604.86	0.91
3613.3	0.91
3621.75	0.91
3630.2	0.91
3638.64	0.908
3647.09	0.907
3655.53	0.905
3663.98	0.903
3672.43	0.9
3680.87	0.9
3689.32	0.9
3697.76	0.9
3706.21	0.9
3714.66	0.9
3723.1	0.9
3731.55	0.9
3739.99	0.9
3748.44	0.9
3756.89	0.9
3765.33	0.9
3773.78	0.9
3782.22	0.9
3790.67	0.9
3799.12	0.8979
3807.56	0.89
3816.01	0.886
3824.45	0.885
3832.9	0.885
3841.35	0.8859
3849.79	0.885
3858.24	0.883
3866.68	0.883
3875.13	0.881
3883.58	0.881
3892.02	0.881
3900.47	0.881
3908.91	0.881
3917.36	0.881
3925.8	0.881
3934.25	0.881
