Infrared Spectrum: 2,2,4,4-TETRAMETHYL CYCLOBUTANE-1,3-DIONE
Formula: C8 H12 O2
CAS: 933-52-8
State: SOLUTION (7% IN CHCl3)
Melting point: 110 C
Class: COBLENTZ
Instrument: PERKIN-ELMER 421 (GRATING)
Instrument parameters: FILTER CHANGE AT 1999 CM^-^1
Sampling: TRANSMISSION
Path length: 0.01 CM
Resolution: 2
Origin: ABBOTT LABORATORIES
1/CM	TRANSMITTANCE
793.958	0.974
802.378	0.968
810.798	0.9183
819.219	0.9208
827.639	0.929
836.059	0.9273
844.479	0.925
852.899	0.896
861.32	0.884
869.74	0.883
878.16	0.8847
886.58	0.8896
895	0.8978
903.421	0.9097
911.841	0.9246
920.261	0.949
928.681	0.9137
937.101	0.8788
945.522	0.8576
953.942	0.8148
962.362	0.81
970.782	0.8067
979.202	0.7959
987.623	0.7685
996.043	0.7319
1004.46	0.6365
1012.88	0.5384
1021.3	0.4051
1029.72	0.3068
1038.14	0.2531
1046.56	0.3758
1054.98	0.6088
1063.4	0.7634
1071.82	0.8287
1080.24	0.8447
1088.66	0.8567
1097.09	0.8608
1105.51	0.8658
1113.93	0.87
1122.35	0.8703
1130.77	0.8643
1139.19	0.8603
1147.61	0.8491
1156.03	0.8125
1164.45	0.7474
1172.87	0.7521
1181.29	0.864
1189.71	0.8053
1198.13	0.6572
1206.55	0.617
1214.97	0.6136
1223.39	0.6123
1231.81	0.6296
1240.23	0.6516
1248.65	0.5552
1257.07	0.2965
1265.49	0.1458
1273.91	0.6034
1282.33	0.8231
1290.75	0.8513
1299.17	0.8662
1307.59	0.872
1316.01	0.875
1324.43	0.883
1332.85	0.8771
1341.27	0.8581
1349.69	0.8357
1358.11	0.7033
1366.53	0.8296
1374.95	0.6175
1383.37	0.7459
1391.79	0.8547
1400.21	0.8513
1408.63	0.8364
1417.05	0.8406
1425.47	0.7952
1433.89	0.5339
1442.31	0.5072
1450.73	0.3633
1459.15	0.2595
1467.57	0.8481
1475.99	0.8634
1484.41	0.8824
1492.83	0.9249
1501.25	0.938
1509.67	0.9417
1518.09	0.9316
1526.52	0.9226
1534.94	0.915
1543.36	0.908
1551.78	0.896
1560.2	0.894
1568.62	0.891
1577.04	0.883
1585.46	0.877
1593.88	0.872
1602.3	0.8661
1610.72	0.865
1619.14	0.8652
1627.56	0.861
1635.98	0.8555
1644.4	0.849
1652.82	0.8413
1661.24	0.822
1669.66	0.7796
1678.08	0.741
1686.5	0.651
1694.92	0.4335
1703.34	0.1836
1711.76	0.0425
1720.18	0.0753
1728.6	0.0675
1737.02	0.016
1745.44	0.02
1753.86	0.1208
1762.28	0.5602
1770.7	0.6425
1779.12	0.6864
1787.54	0.8029
1795.96	0.8275
1804.38	0.8451
1812.8	0.8511
1821.22	0.853
1829.64	0.852
1838.06	0.849
1846.48	0.8529
1854.9	0.8599
1863.32	0.86
1871.74	0.858
1880.16	0.854
1888.58	0.8512
1897	0.852
1905.42	0.8473
1913.84	0.842
1922.26	0.8453
1930.68	0.842
1939.1	0.8466
1947.52	0.8526
1955.95	0.863
1964.37	0.8725
1972.79	0.875
1981.21	0.87
1989.63	0.872
1998.05	0.876
2006.47	0.877
2014.89	0.879
2023.31	0.879
2031.73	0.882
2040.15	0.884
2048.57	0.885
2056.99	0.8836
2065.41	0.883
2073.83	0.883
2082.25	0.8834
2090.67	0.885
2099.09	0.883
2107.51	0.882
2115.93	0.881
2124.35	0.8802
2132.77	0.8786
2141.19	0.881
2149.61	0.879
2158.03	0.877
2166.45	0.8774
2174.87	0.8834
2183.29	0.891
2191.71	0.893
2200.13	0.896
2208.55	0.894
2216.97	0.897
2225.39	0.899
2233.81	0.901
2242.23	0.902
2250.65	0.902
2259.07	0.902
2267.49	0.9024
2275.91	0.902
2284.33	0.905
2292.75	0.9074
2301.17	0.911
2309.59	0.9134
2318.01	0.914
2326.43	0.9144
2334.85	0.917
2343.27	0.9184
2351.69	0.92
2360.11	0.9186
2368.53	0.918
2376.95	0.9204
2385.38	0.9421
2393.8	0.9488
2402.22	0.9019
2410.64	0.8802
2419.06	0.875
2427.48	0.875
2435.9	0.8716
2444.32	0.8714
2452.74	0.8724
2461.16	0.877
2469.58	0.881
2478	0.881
2486.42	0.8803
2494.84	0.8756
2503.26	0.8754
2511.68	0.877
2520.1	0.881
2528.52	0.8809
2536.94	0.8814
2545.36	0.8844
2553.78	0.883
2562.2	0.882
2570.62	0.8814
2579.04	0.8836
2587.46	0.882
2595.88	0.881
2604.3	0.878
2612.72	0.8816
2621.14	0.884
2629.56	0.883
2637.98	0.8858
2646.4	0.887
2654.82	0.888
2663.24	0.885
2671.66	0.887
2680.08	0.887
2688.5	0.887
2696.92	0.887
2705.34	0.8874
2713.76	0.889
2722.18	0.89
2730.6	0.889
2739.02	0.888
2747.44	0.8876
2755.86	0.887
2764.28	0.885
2772.7	0.884
2781.12	0.8816
2789.54	0.8726
2797.96	0.871
2806.38	0.871
2814.81	0.871
2823.23	0.87
2831.65	0.871
2840.07	0.8726
2848.49	0.8506
2856.91	0.6572
2865.33	0.549
2873.75	0.7522
2882.17	0.7974
2890.59	0.7687
2899.01	0.7524
2907.43	0.7526
2915.85	0.6421
2924.27	0.449
2932.69	0.7074
2941.11	0.7387
2949.53	0.5874
2957.95	0.3476
2966.37	0.175
2974.79	0.287
2983.21	0.6432
2991.63	0.7707
3000.05	0.7635
3008.47	0.6545
3016.89	0.5886
3025.31	0.6064
3033.73	0.6936
3042.15	0.8003
3050.57	0.8435
3058.99	0.861
3067.41	0.864
3075.83	0.861
3084.25	0.86
3092.67	0.864
3101.09	0.8654
3109.51	0.867
3117.93	0.869
3126.35	0.8704
3134.77	0.873
3143.19	0.876
3151.61	0.8784
3160.03	0.882
3168.45	0.881
3176.87	0.882
3185.29	0.8857
3193.71	0.8894
3202.13	0.888
3210.55	0.888
3218.97	0.887
3227.39	0.888
3235.81	0.889
3244.24	0.89
3252.66	0.8904
3261.08	0.893
3269.5	0.893
3277.92	0.8934
3286.34	0.894
3294.76	0.895
3303.18	0.895
3311.6	0.895
3320.02	0.894
3328.44	0.894
3336.86	0.894
3345.28	0.894
3353.7	0.894
3362.12	0.894
3370.54	0.894
3378.96	0.893
3387.38	0.893
3395.8	0.893
3404.22	0.891
3412.64	0.891
3421.06	0.891
3429.48	0.89
3437.9	0.8896
3446.32	0.888
3454.74	0.884
3463.16	0.8816
3471.58	0.879
3480	0.882
3488.42	0.877
3496.84	0.8726
3505.26	0.87
3513.68	0.8623
3522.1	0.8536
3530.52	0.842
3538.94	0.842
3547.36	0.842
3555.78	0.836
3564.2	0.8414
3572.62	0.8534
3581.04	0.8714
3589.46	0.8784
3597.88	0.8834
3606.3	0.8884
3614.72	0.891
3623.14	0.891
3631.56	0.8906
3639.98	0.89
3648.4	0.89
3656.82	0.8917
3665.25	0.896
3673.67	0.901
3682.09	0.897
3690.51	0.897
3698.93	0.897
3707.35	0.897
3715.77	0.899
3724.19	0.9
3732.61	0.9014
3741.03	0.902
3749.45	0.903
3757.87	0.903
3766.29	0.903
3774.71	0.902
3783.13	0.8996
3791.55	0.897
3799.97	0.897
3808.39	0.896
3816.81	0.896
3825.23	0.895
3833.65	0.895
3842.07	0.894
3850.49	0.894
3858.91	0.893
3867.33	0.893
3875.75	0.893
3884.17	0.893
3892.59	0.893
3901.01	0.893
3909.43	0.893
3917.85	0.894
3926.27	0.894
3934.69	0.894
3943.11	0.894
3951.53	0.894
3959.95	0.8944
3968.37	0.895
3976.79	0.895
3985.21	0.895
3993.63	0.895
