Infrared Spectrum: Benzofuranone, 2(3H)-,3-(2',3'-dibromoproypyl)-3-phenyl-,
Formula: C17 H14 Br2 O2
CAS: 93319-87-0
State: SOLUTION (7% CHCl3 FOR 2.5-12.5 MICRON) VS SOLVENT
Class: COBLENTZ
Instrument: PERKIN-ELMER 21 (GRATING)
Instrument parameters: FILTER AT ABOUT 10 MICRONS
Path length: 0.010 CM
Resolution: 2
Origin: ABBOTT LABORATORIES
1/CM	TRANSMITTANCE
831	0.8373
839	0.8386
847	0.8337
855	0.8114
863	0.7897
871	0.7117
879	0.6245
887	0.7901
895	0.796
903	0.7699
911	0.7507
919	0.7763
927	0.7812
935	0.789
943	0.8243
951	0.8264
959	0.8216
967	0.776
975	0.7744
983	0.7676
991	0.7526
999	0.7038
1007	0.685
1015	0.5892
1023	0.6191
1031	0.5147
1039	0.4472
1047	0.5193
1055	0.4341
1063	0.334
1071	0.5177
1079	0.6668
1087	0.7252
1095	0.7825
1103	0.778
1111	0.7451
1119	0.5533
1127	0.5258
1135	0.6985
1143	0.7255
1151	0.7063
1159	0.6869
1167	0.638
1175	0.6326
1183	0.6235
1191	0.6067
1199	0.5359
1207	0.5128
1215	0.5033
1223	0.5035
1231	0.5764
1239	0.7159
1247	0.7686
1255	0.7712
1263	0.7714
1271	0.7631
1279	0.732
1287	0.6816
1295	0.7773
1303	0.7819
1311	0.768
1319	0.7671
1327	0.8004
1335	0.8359
1343	0.8344
1351	0.8345
1359	0.8469
1367	0.8537
1375	0.8545
1383	0.8534
1391	0.8507
1399	0.848
1407	0.8239
1415	0.7751
1423	0.7601
1431	0.7699
1439	0.7752
1447	0.7511
1455	0.5196
1463	0.4375
1471	0.605
1479	0.5351
1487	0.6934
1495	0.6936
1503	0.8245
1511	0.8687
1519	0.8691
1527	0.8684
1535	0.8673
1543	0.8663
1551	0.8632
1559	0.8558
1567	0.845
1575	0.8318
1583	0.8061
1591	0.7641
1599	0.7162
1607	0.7729
1615	0.7269
1623	0.6748
1631	0.8439
1639	0.8536
1647	0.8542
1655	0.8532
1663	0.8514
1671	0.85
1679	0.8487
1687	0.847
1695	0.8452
1703	0.8436
1711	0.8423
1719	0.8405
1727	0.8359
1735	0.8306
1743	0.8243
1751	0.8149
1759	0.7881
1767	0.7486
1775	0.6579
1783	0.5182
1791	0.3106
1799	0.1606
1807	0.3137
1815	0.4886
1823	0.6619
1831	0.7477
1839	0.7864
1847	0.8227
1855	0.841
1863	0.8487
1871	0.8512
1879	0.8524
1887	0.8534
1895	0.8534
1903	0.8533
1911	0.8562
1919	0.86
1927	0.8592
1935	0.8563
1943	0.8525
1951	0.8524
1959	0.8581
1967	0.8645
1975	0.8698
1983	0.8722
1991	0.8723
1999	0.8721
2007	0.8719
2015	0.8717
2023	0.8715
2031	0.8712
2039	0.8709
2047	0.8705
2055	0.8702
2063	0.87
2071	0.87
2079	0.8701
2087	0.87
2095	0.8699
2103	0.8699
2111	0.87
2119	0.87
2127	0.8708
2135	0.8719
2143	0.8738
2151	0.8744
2159	0.8746
2167	0.8744
2175	0.8738
2183	0.8732
2191	0.8726
2199	0.872
2207	0.8715
2215	0.8711
2223	0.8707
2231	0.8703
2239	0.8701
2247	0.8699
2255	0.8698
2263	0.8697
2271	0.8703
2279	0.871
2287	0.873
2295	0.8757
2303	0.8769
2311	0.877
2319	0.8769
2327	0.8768
2335	0.8767
2343	0.8766
2351	0.8763
2359	0.876
2367	0.8758
2375	0.8758
2383	0.8758
2391	0.8759
2399	0.8759
2407	0.876
2415	0.876
2423	0.876
2431	0.8759
2439	0.8759
2447	0.8758
2455	0.8758
2463	0.8758
2471	0.8757
2479	0.8757
2487	0.8758
2495	0.8759
2503	0.876
2511	0.8761
2519	0.8762
2527	0.8763
2535	0.8763
2543	0.8764
2551	0.8766
2559	0.8768
2567	0.877
2575	0.8772
2583	0.8774
2591	0.8775
2599	0.8777
2607	0.8779
2615	0.878
2623	0.8782
2631	0.8783
2639	0.8783
2647	0.8783
2655	0.8783
2663	0.8783
2671	0.8783
2679	0.8783
2687	0.8782
2695	0.8781
2703	0.8779
2711	0.8778
2719	0.8775
2727	0.8768
2735	0.876
2743	0.8752
2751	0.8739
2759	0.8728
2767	0.872
2775	0.8713
2783	0.8708
2791	0.8708
2799	0.8709
2807	0.8712
2815	0.8713
2823	0.8713
2831	0.8713
2839	0.871
2847	0.8708
2855	0.87
2863	0.8691
2871	0.8673
2879	0.865
2887	0.8621
2895	0.8588
2903	0.8558
2911	0.8535
2919	0.8513
2927	0.8497
2935	0.8483
2943	0.8475
2951	0.847
2959	0.8457
2967	0.8413
2975	0.8339
2983	0.8264
2991	0.8174
2999	0.808
3007	0.8073
3015	0.8088
3023	0.8116
3031	0.8147
3039	0.818
3047	0.821
3055	0.8248
3063	0.8309
3071	0.838
3079	0.8452
3087	0.8524
3095	0.8598
3103	0.8675
3111	0.874
3119	0.8775
3127	0.8786
3135	0.8792
3143	0.8798
3151	0.8801
3159	0.8805
3167	0.8806
3175	0.8807
3183	0.8807
3191	0.8807
3199	0.8807
3207	0.8806
3215	0.8805
3223	0.8804
3231	0.8803
3239	0.8802
3247	0.8802
3255	0.8802
3263	0.8802
3271	0.8802
3279	0.8801
3287	0.8801
3295	0.8801
3303	0.8801
3311	0.8801
3319	0.8801
3327	0.8801
3335	0.88
3343	0.88
3351	0.88
3359	0.8799
3367	0.8799
3375	0.8798
3383	0.8798
3391	0.8798
3399	0.8797
3407	0.8797
3415	0.8797
3423	0.8796
3431	0.8796
3439	0.8795
3447	0.8795
3455	0.8794
3463	0.8794
3471	0.8793
3479	0.8793
3487	0.8792
3495	0.8792
3503	0.8791
3511	0.8791
3519	0.879
3527	0.879
3535	0.8789
3543	0.879
3551	0.879
3559	0.879
3567	0.879
3575	0.879
3583	0.8791
3591	0.8791
3599	0.8791
3607	0.8791
3615	0.8791
3623	0.8792
3631	0.8792
3639	0.8792
3647	0.8792
3655	0.8792
3663	0.8791
3671	0.8791
3679	0.879
3687	0.8789
3695	0.8788
3703	0.8788
3711	0.8787
3719	0.8786
3727	0.8785
3735	0.8785
3743	0.8784
3751	0.8784
3759	0.8783
3767	0.8782
3775	0.8782
3783	0.8781
3791	0.8782
3799	0.8782
3807	0.8782
3815	0.8782
3823	0.8782
3831	0.8783
3839	0.8783
3847	0.8783
3855	0.8783
3863	0.8783
3871	0.8784
3879	0.8785
3887	0.8786
3895	0.8788
3903	0.879
3911	0.8791
3919	0.8793
3927	0.8794
3935	0.8796
3943	0.8797
3951	0.8799
3959	0.88
3967	0.8802
3975	0.8804
3983	0.8805
3991	0.8806
3999	0.8807
