Infrared Spectrum: 2,6-Methano-1,4-benzodioxocin-5(6H)-one, 2,3-dihydro-6-phenyl-,
Formula: C17 H14 O3
CAS: 93321-57-4
State: SOLID (NUJOL MULL)
Class: COBLENTZ III
Instrument: PERKIN-ELMER 21 (GRATING)
Instrument parameters: FILTER AT ABOUT 10 MICRONS
Resolution: 2
Origin: ABBOTT LABORATORIES
1/CM	TRANSMITTANCE
665	0.6496
674	0.5942
683	0.6615
692	0.5764
701	0.1841
710	0.5804
719	0.5622
728	0.5736
737	0.5108
746	0.1789
755	0.4612
764	0.2571
773	0.6873
782	0.7253
791	0.7057
800	0.7515
809	0.7383
818	0.7105
827	0.5515
836	0.6661
845	0.6891
854	0.6759
863	0.6487
872	0.6736
881	0.5775
890	0.6087
899	0.6748
908	0.6497
917	0.5218
926	0.5301
935	0.3386
944	0.5265
953	0.4406
962	0.5708
971	0.5155
980	0.3256
989	0.487
998	0.5758
1007	0.6354
1016	0.6339
1025	0.5704
1034	0.5014
1043	0.618
1052	0.6123
1061	0.5803
1070	0.5002
1079	0.4839
1088	0.5414
1097	0.4325
1106	0.5107
1115	0.485
1124	0.3489
1133	0.2886
1142	0.1431
1151	0.4377
1160	0.5762
1169	0.5811
1178	0.5221
1187	0.5395
1196	0.5663
1205	0.5166
1214	0.29
1223	0.3494
1232	0.4784
1241	0.4691
1250	0.2882
1259	0.3035
1268	0.2543
1277	0.3062
1286	0.4312
1295	0.3035
1304	0.3745
1313	0.5534
1322	0.547
1331	0.5108
1340	0.336
1349	0.4682
1358	0.3935
1367	0.2836
1376	0.1313
1385	0.312
1394	0.4526
1403	0.4922
1412	0.5446
1421	0.5185
1430	0.3584
1439	0.142
1448	0.0303
1457	0.0282
1466	0.0442
1475	0.1344
1484	0.1927
1493	0.4441
1502	0.5278
1511	0.6298
1520	0.6496
1529	0.6553
1538	0.6439
1547	0.6403
1556	0.6333
1565	0.6229
1574	0.5755
1583	0.5055
1592	0.5868
1601	0.4986
1610	0.5172
1619	0.6282
1628	0.6316
1637	0.6218
1646	0.6091
1655	0.6028
1664	0.595
1673	0.5663
1682	0.5368
1691	0.5035
1700	0.4648
1709	0.3934
1718	0.1966
1727	0.1075
1736	0.2049
1745	0.4549
1754	0.6006
1763	0.6852
1772	0.7146
1781	0.725
1790	0.726
1799	0.7151
1808	0.707
1817	0.7074
1826	0.7075
1835	0.7058
1844	0.7031
1853	0.7002
1862	0.6927
1871	0.6838
1880	0.6747
1889	0.6679
1898	0.6658
1907	0.6656
1916	0.6662
1925	0.6665
1934	0.6656
1943	0.6647
1952	0.6639
1961	0.663
1970	0.6621
1979	0.6611
1988	0.6602
1997	0.6592
2006	0.6577
2015	0.656
2024	0.6543
2033	0.6525
2042	0.6505
2051	0.6484
2060	0.6464
2069	0.6454
2078	0.6447
2087	0.6446
2096	0.6444
2105	0.6424
2114	0.6404
2123	0.6377
2132	0.6347
2141	0.6318
2150	0.6287
2159	0.6258
2168	0.623
2177	0.6203
2186	0.6175
2195	0.6148
2204	0.6121
2213	0.6096
2222	0.6069
2231	0.604
2240	0.6004
2249	0.5969
2258	0.5934
2267	0.5898
2276	0.5857
2285	0.5816
2294	0.5777
2303	0.5738
2312	0.5709
2321	0.568
2330	0.5676
2339	0.5677
2348	0.5679
2357	0.5683
2366	0.5719
2375	0.5726
2384	0.5715
2393	0.5699
2402	0.5653
2411	0.5622
2420	0.5618
2429	0.5615
2438	0.5608
2447	0.5602
2456	0.5595
2465	0.5584
2474	0.5556
2483	0.552
2492	0.5468
2501	0.5399
2510	0.5326
2519	0.526
2528	0.5208
2537	0.5156
2546	0.5105
2555	0.5055
2564	0.5008
2573	0.4964
2582	0.4919
2591	0.4875
2600	0.4834
2609	0.4804
2618	0.4775
2627	0.4745
2636	0.472
2645	0.4707
2654	0.4695
2663	0.4684
2672	0.4683
2681	0.4684
2690	0.4685
2699	0.4691
2708	0.4704
2717	0.4711
2726	0.4715
2735	0.471
2744	0.4626
2753	0.4505
2762	0.4372
2771	0.3979
2780	0.3291
2789	0.2607
2798	0.1927
2807	0.1251
2816	0.0586
2825	0.0255
2834	0.0099
2843	0.0069
2852	0.0048
2861	0.0044
2870	0.0043
2879	0.0047
2888	0.0057
2897	0.0071
2906	0.0084
2915	0.0097
2924	0.0122
2933	0.0153
2942	0.0195
2951	0.0255
2960	0.0633
2969	0.1111
2978	0.1587
2987	0.2057
2996	0.2309
3005	0.2539
3014	0.2721
3023	0.2873
3032	0.3011
3041	0.3135
3050	0.3242
3059	0.3353
3068	0.3466
3077	0.3573
3086	0.3677
3095	0.3726
3104	0.3774
3113	0.3813
3122	0.3816
3131	0.382
3140	0.3824
3149	0.3829
3158	0.3835
3167	0.3847
3176	0.386
3185	0.388
3194	0.3901
3203	0.3918
3212	0.3928
3221	0.3934
3230	0.3932
3239	0.3932
3248	0.393
3257	0.3926
3266	0.392
3275	0.3915
3284	0.3909
3293	0.3904
3302	0.3899
3311	0.3893
3320	0.3888
3329	0.3882
3338	0.3879
3347	0.3878
3356	0.3877
3365	0.3876
3374	0.3874
3383	0.3873
3392	0.3873
3401	0.3872
3410	0.3871
3419	0.3873
3428	0.3876
3437	0.3878
3446	0.3881
3455	0.3883
3464	0.3886
3473	0.3888
3482	0.3886
3491	0.3885
3500	0.3883
3509	0.3881
3518	0.3878
3527	0.3868
3536	0.3857
3545	0.3845
3554	0.3827
3563	0.3805
3572	0.3783
3581	0.3762
3590	0.3741
3599	0.3723
3608	0.3705
3617	0.3687
3626	0.367
3635	0.3653
3644	0.3646
3653	0.364
3662	0.3634
3671	0.3628
3680	0.3623
3689	0.3617
3698	0.3611
3707	0.3606
3716	0.3598
3725	0.3587
3734	0.3578
3743	0.3568
3752	0.3558
3761	0.3549
3770	0.3539
3779	0.353
3788	0.352
3797	0.3511
3806	0.3502
3815	0.3492
3824	0.348
3833	0.3467
3842	0.3455
3851	0.3443
3860	0.3431
3869	0.3419
3878	0.3406
3887	0.3394
3896	0.3382
3905	0.3369
3914	0.3357
3923	0.3345
3932	0.3333
3941	0.332
3950	0.3303
3959	0.3286
3968	0.3268
3977	0.3251
3986	0.3234
3995	0.3218
