Infrared Spectrum: 1,2-DIMETHYL-4-ETHYL BENZENE
Formula: C10 H14
CAS: 934-80-5
State: LIQUID
Class: COBLENTZ
Instrument: PERKIN-ELMER
Sampling: TRANSMISSION
Path length: 0.0024 CM
Resolution: 4
Origin: STANDARD OIL OF OHIO
1/CM	TRANSMITTANCE
616.685	0.549
625.131	0.546
633.577	0.5599
642.023	0.5779
650.469	0.6139
658.915	0.6387
667.361	0.6528
675.807	0.692
684.253	0.7137
692.698	0.7358
701.144	0.7171
709.59	0.6887
718.036	0.546
726.482	0.7204
734.928	0.797
743.374	0.802
751.82	0.8068
760.266	0.8
768.712	0.7715
777.158	0.766
785.604	0.7367
794.05	0.7299
802.496	0.7086
810.942	0.4716
819.388	0.045
827.834	0.3186
836.28	0.668
844.725	0.8043
853.171	0.8359
861.617	0.839
870.063	0.7922
878.509	0.3583
886.955	0.5582
895.401	0.7541
903.847	0.7545
912.293	0.7687
920.739	0.8514
929.185	0.864
937.631	0.8562
946.077	0.844
954.523	0.8445
962.969	0.8239
971.415	0.6593
979.861	0.6723
988.307	0.7735
996.752	0.7307
1005.2	0.5921
1013.64	0.6304
1022.09	0.476
1030.54	0.6724
1038.98	0.7924
1047.43	0.7939
1055.87	0.7265
1064.32	0.6294
1072.77	0.7517
1081.21	0.8297
1089.66	0.8467
1098.1	0.854
1106.55	0.8527
1115	0.8311
1123.44	0.661
1131.89	0.7666
1140.33	0.8239
1148.78	0.8029
1157.23	0.6834
1165.67	0.8099
1174.12	0.8459
1182.56	0.8532
1191.01	0.854
1199.46	0.8472
1207.9	0.7788
1216.35	0.8143
1224.79	0.851
1233.24	0.8417
1241.68	0.8278
1250.13	0.8331
1258.58	0.837
1267.02	0.834
1275.47	0.8207
1283.91	0.7989
1292.36	0.7932
1300.81	0.8
1309.25	0.7894
1317.7	0.6878
1326.14	0.6632
1334.59	0.7506
1343.04	0.792
1351.48	0.7865
1359.93	0.733
1368.37	0.5403
1376.82	0.4632
1385.27	0.6052
1393.71	0.6934
1402.16	0.6481
1410.6	0.5927
1419.05	0.5482
1427.5	0.5147
1435.94	0.4275
1444.39	0.1994
1452.83	0.111
1461.28	0.175
1469.73	0.3366
1478.17	0.5736
1486.62	0.6079
1495.06	0.5242
1503.51	0.071
1511.96	0.3832
1520.4	0.6541
1528.85	0.7478
1537.29	0.7869
1545.74	0.822
1554.18	0.829
1562.63	0.824
1571.08	0.7951
1579.52	0.7054
1587.97	0.7494
1596.41	0.822
1604.86	0.8053
1613.31	0.7162
1621.75	0.6512
1630.2	0.8085
1638.64	0.8483
1647.09	0.8675
1655.54	0.8975
1663.98	0.9129
1672.43	0.918
1680.87	0.92
1689.32	0.92
1697.77	0.92
1706.21	0.923
1714.66	0.9227
1723.1	0.922
1731.55	0.9173
1740	0.9023
1748.44	0.8558
1756.89	0.824
1765.33	0.8628
1773.78	0.9007
1782.23	0.9206
1790.67	0.9324
1799.12	0.937
1807.56	0.937
1816.01	0.9316
1824.45	0.925
1832.9	0.927
1841.35	0.925
1849.79	0.928
1858.24	0.9267
1866.68	0.9125
1875.13	0.867
1883.58	0.8341
1892.02	0.867
1900.47	0.9
1908.91	0.9224
1917.36	0.9372
1925.81	0.94
1934.25	0.94
1942.7	0.94
1951.14	0.94
1959.59	0.939
1968.04	0.94
1976.48	0.944
1984.93	0.944
1993.37	0.945
2001.82	0.9422
2010.27	0.9489
2018.71	0.9438
2027.16	0.939
2035.6	0.939
2044.05	0.9421
2052.5	0.9472
2060.94	0.949
2069.39	0.949
2077.83	0.947
2086.28	0.9472
2094.73	0.949
2103.17	0.949
2111.62	0.949
2120.06	0.939
2128.51	0.939
2136.95	0.9422
2145.4	0.947
2153.85	0.947
2162.29	0.945
2170.74	0.947
2179.18	0.947
2187.63	0.947
2196.08	0.945
2204.52	0.9468
2212.97	0.945
2221.41	0.9438
2229.86	0.94
2238.31	0.94
2246.75	0.94
2255.2	0.942
2263.64	0.944
2272.09	0.94
2280.54	0.93
2288.98	0.9322
2297.43	0.937
2305.87	0.937
2314.32	0.939
2322.77	0.94
2331.21	0.94
2339.66	0.939
2348.1	0.937
2356.55	0.9368
2365	0.935
2373.44	0.935
2381.89	0.934
2390.33	0.932
2398.78	0.9279
2407.23	0.927
2415.67	0.927
2424.12	0.9268
2432.56	0.92
2441.01	0.922
2449.45	0.923
2457.9	0.925
2466.35	0.927
2474.79	0.928
2483.24	0.928
2491.68	0.927
2500.13	0.9269
2508.58	0.927
2517.02	0.927
2525.47	0.927
2533.91	0.9271
2542.36	0.93
2550.81	0.93
2559.25	0.9298
2567.7	0.925
2576.14	0.923
2584.59	0.922
2593.04	0.922
2601.48	0.922
2609.93	0.9198
2618.37	0.917
2626.82	0.915
2635.27	0.917
2643.71	0.92
2652.16	0.92
2660.6	0.9198
2669.05	0.918
2677.5	0.9168
2685.94	0.9129
2694.39	0.9028
2702.83	0.898
2711.28	0.895
2719.72	0.8855
2728.17	0.8285
2736.62	0.7516
2745.06	0.8528
2753.51	0.8679
2761.95	0.8508
2770.4	0.852
2778.85	0.8508
2787.29	0.8369
2795.74	0.835
2804.18	0.8236
2812.63	0.7992
2821.08	0.7531
2829.52	0.6992
2837.97	0.6198
2846.41	0.5263
2854.86	0.308
2863.31	0.1635
2871.75	0.1467
2880.2	0.1406
2888.64	0.186
2897.09	0.1698
2905.54	0.169
2913.98	0.1498
2922.43	0.0611
2930.87	0.032
2939.32	0.0331
2947.77	0.0596
2956.21	0.0855
2964.66	0.0245
2973.1	0.0161
2981.55	0.0639
2990	0.242
2998.44	0.2558
3006.89	0.172
3015.33	0.2031
3023.78	0.3242
3032.22	0.4334
3040.67	0.4305
3049.12	0.4297
3057.56	0.5536
3066.01	0.6615
3074.45	0.6981
3082.9	0.705
3091.35	0.7386
3099.79	0.8024
3108.24	0.8219
3116.68	0.8148
3125.13	0.8
3133.58	0.8228
3142.02	0.8594
3150.47	0.8692
3158.91	0.8761
3167.36	0.878
3175.81	0.8812
3184.25	0.8901
3192.7	0.8981
3201.14	0.9001
3209.59	0.9051
3218.04	0.9062
3226.48	0.908
3234.93	0.912
3243.37	0.9131
3251.82	0.913
3260.27	0.915
3268.71	0.915
3277.16	0.915
3285.6	0.915
3294.05	0.915
3302.5	0.917
3310.94	0.915
3319.39	0.915
3327.83	0.915
3336.28	0.915
3344.72	0.917
3353.17	0.917
3361.62	0.915
3370.06	0.9168
3378.51	0.917
3386.95	0.9168
3395.4	0.913
3403.85	0.913
3412.29	0.913
3420.74	0.912
3429.18	0.9119
3437.63	0.908
3446.08	0.908
3454.52	0.905
3462.97	0.903
3471.41	0.9
3479.86	0.9
3488.31	0.9
3496.75	0.8999
3505.2	0.9
3513.64	0.9
3522.09	0.9
3530.54	0.903
3538.98	0.906
3547.43	0.906
3555.87	0.906
3564.32	0.906
3572.77	0.906
3581.21	0.905
3589.66	0.9082
3598.1	0.91
3606.55	0.91
3614.99	0.91
3623.44	0.91
3631.89	0.908
3640.33	0.9059
3648.78	0.9029
3657.22	0.9
3665.67	0.9
3674.12	0.9
3682.56	0.9
3691.01	0.9
3699.45	0.9
3707.9	0.898
3716.35	0.898
3724.79	0.898
3733.24	0.898
3741.68	0.898
3750.13	0.898
3758.58	0.898
3767.02	0.898
3775.47	0.898
3783.91	0.898
3792.36	0.898
3800.81	0.898
3809.25	0.898
3817.7	0.898
3826.14	0.896
3834.59	0.8949
3843.04	0.893
3851.48	0.8909
3859.93	0.89
3868.37	0.8899
3876.82	0.8878
3885.27	0.884
3893.71	0.883
3902.16	0.8789
3910.6	0.876
3919.05	0.873
3927.49	0.871
3935.94	0.871
