Infrared Spectrum: 2-BENZOTHIAZOLOL (KETO FORM)
Formula: C7 H5 N O S
CAS: 934-34-9
State: SOLID (SPLIT MULL)
Class: COBLENTZ II
Instrument: PERKIN-ELMER 621 (GRATING)
Instrument parameters: GRATING CHANGE AT 623; ORDER CHANGE AT 2000. FILTERS AT 3146, 2494, 2000, 1146, 698, 497 CM^-^1
Sampling: TRANSMISSION
Path length: CAPILLARY (KBr PLATES FOR 4000-1335 AND CsBr PLATES FOR 1335-250)
Resolution: 2
Origin: PERKIN-ELMER CORP. (R. HANNAH)
1/CM	TRANSMITTANCE
4000	0.6939
3990	0.694
3980	0.6942
3970	0.6943
3960	0.6943
3950	0.6944
3940	0.6948
3930	0.695
3920	0.695
3910	0.695
3900	0.6946
3890	0.6942
3880	0.694
3870	0.6937
3860	0.6937
3850	0.6948
3840	0.6961
3830	0.6968
3820	0.6975
3810	0.7049
3800	0.7068
3790	0.7065
3780	0.7065
3770	0.7065
3760	0.7062
3750	0.7061
3740	0.7067
3730	0.7071
3720	0.7075
3710	0.708
3700	0.7085
3690	0.7091
3680	0.7097
3670	0.7103
3660	0.7108
3650	0.7112
3640	0.7118
3630	0.7125
3620	0.7133
3610	0.714
3600	0.7148
3590	0.7156
3580	0.7162
3570	0.7165
3560	0.7167
3550	0.7169
3540	0.7171
3530	0.7176
3520	0.7182
3510	0.7187
3500	0.7192
3490	0.7197
3480	0.7201
3470	0.7206
3460	0.7211
3450	0.7221
3440	0.723
3430	0.7239
3420	0.7245
3410	0.725
3400	0.7255
3390	0.7257
3380	0.7258
3370	0.7257
3360	0.7253
3350	0.7232
3340	0.7215
3330	0.7199
3320	0.7064
3310	0.6903
3300	0.7011
3290	0.7056
3280	0.7031
3270	0.6864
3260	0.68
3250	0.6758
3240	0.6707
3230	0.6634
3220	0.6499
3210	0.6253
3200	0.6009
3190	0.556
3180	0.5324
3170	0.5015
3160	0.477
3150	0.5047
3140	0.5483
3130	0.5519
3120	0.4894
3110	0.4797
3100	0.5027
3090	0.5312
3080	0.5593
3070	0.5495
3060	0.4972
3050	0.5067
3040	0.5118
3030	0.5236
3020	0.5341
3010	0.5476
3000	0.5534
2990	0.5857
2980	0.6012
2970	0.6078
2960	0.6006
2950	0.5882
2940	0.5944
2930	0.6074
2920	0.6098
2910	0.6215
2900	0.6137
2890	0.5731
2880	0.5647
2870	0.5931
2860	0.6222
2850	0.6441
2840	0.6501
2830	0.6385
2820	0.644
2810	0.6572
2800	0.6675
2790	0.6767
2780	0.6868
2770	0.6944
2760	0.6951
2750	0.6911
2740	0.6948
2730	0.7042
2720	0.7141
2710	0.7211
2700	0.7225
2690	0.7183
2680	0.7139
2670	0.719
2660	0.7332
2650	0.7415
2640	0.7461
2630	0.7484
2620	0.7506
2610	0.7518
2600	0.7532
2590	0.7549
2580	0.7567
2570	0.7572
2560	0.7576
2550	0.7581
2540	0.7581
2530	0.7581
2520	0.7588
2510	0.7599
2500	0.7622
2490	0.7674
2480	0.769
2470	0.7692
2460	0.7694
2450	0.7696
2440	0.7696
2430	0.7696
2420	0.7696
2410	0.7699
2400	0.7711
2390	0.7726
2380	0.7746
2370	0.7764
2360	0.7778
2350	0.779
2340	0.7797
2330	0.7801
2320	0.7801
2310	0.7804
2300	0.7811
2290	0.7821
2280	0.7831
2270	0.7841
2260	0.785
2250	0.7865
2240	0.7884
2230	0.7901
2220	0.7919
2210	0.7938
2200	0.7953
2190	0.7965
2180	0.7976
2170	0.7989
2160	0.7994
2150	0.7998
2140	0.7997
2130	0.8004
2120	0.8015
2110	0.8028
2100	0.8038
2090	0.8046
2080	0.8056
2070	0.8071
2060	0.8086
2050	0.8118
2040	0.8155
2030	0.8172
2020	0.8186
2010	0.8178
2000	0.8165
1990	0.8161
1980	0.8165
1970	0.8171
1960	0.8178
1950	0.8176
1940	0.8185
1930	0.8142
1920	0.815
1910	0.8196
1900	0.8203
1890	0.8149
1880	0.825
1870	0.8302
1860	0.83
1850	0.828
1840	0.8313
1830	0.8347
1820	0.8356
1810	0.8349
1800	0.8362
1790	0.8375
1780	0.837
1770	0.8357
1760	0.8388
1750	0.8421
1740	0.8463
1730	0.841
1720	0.7611
1710	0.5867
1700	0.5215
1690	0.2806
1680	0.0773
1670	0.0482
1660	0.1719
1650	0.4558
1640	0.617
1630	0.6589
1620	0.7062
1610	0.7111
1600	0.7024
1590	0.6632
1580	0.7218
1570	0.7665
1560	0.7756
1550	0.7867
1540	0.7904
1530	0.7935
1520	0.7972
1510	0.7996
1500	0.8084
1490	0.8135
1480	0.7158
1470	0.6214
1460	0.5875
1450	0.7525
1440	0.7934
1430	0.8075
1420	0.8078
1410	0.7754
1400	0.8064
1390	0.8058
1380	0.8131
1370	0.8213
1360	0.8263
1350	0.8214
1340	0.8115
1330	0.8175
1320	0.8321
1310	0.8321
1300	0.8138
1290	0.8176
1280	0.7807
1270	0.7775
1260	0.8195
1250	0.8418
1240	0.8462
1230	0.8359
1220	0.5481
1210	0.5303
1200	0.6156
1190	0.7217
1180	0.7983
1170	0.8318
1160	0.8442
1150	0.7554
1140	0.8371
1130	0.8471
1120	0.6571
1110	0.8647
1100	0.8738
1090	0.8783
1080	0.8802
1070	0.766
1060	0.8785
1050	0.8828
1040	0.8864
1030	0.8878
1020	0.7767
1010	0.8537
1000	0.8821
990	0.8884
980	0.8892
970	0.8838
960	0.8802
950	0.885
940	0.8859
930	0.7396
920	0.8809
910	0.8925
900	0.8836
890	0.8828
880	0.8877
870	0.8911
860	0.8895
850	0.847
840	0.8747
830	0.8836
820	0.8768
810	0.861
800	0.8375
790	0.785
780	0.7211
770	0.6858
760	0.7324
750	0.6778
740	0.1983
730	0.6087
720	0.7796
710	0.8268
700	0.574
690	0.8606
680	0.898
670	0.9118
660	0.9235
650	0.8503
640	0.2976
630	0.5532
620	0.8898
610	0.9366
600	0.954
590	0.9604
580	0.9623
570	0.9628
560	0.9628
550	0.9625
540	0.9621
530	0.9637
520	0.9661
510	0.9688
500	0.969
490	0.8462
480	0.957
470	0.9777
460	0.9815
450	0.9785
440	0.7394
430	0.9436
420	0.9292
410	0.9842
400	0.9861
390	0.9882
380	0.99
370	0.9909
360	0.991
350	0.9916
340	0.9923
330	0.9921
320	0.9889
310	0.8364
300	0.943
290	0.964
280	0.9856
270	0.9904
260	0.9928
250	0.9951
240	0.9959
230	0.9952
