Infrared Spectrum: 2,3,5,6-TETRACHLORO PHENOL
Formula: C6 H2 Cl4 O
CAS: 935-95-5
State: SOLUTION (10% CCl4 FOR 2.5-7.5, 10% CS2 FOR 7.5-16 MICRON)
Class: COBLENTZ
Instrument: Not specified, most likely a prism, grating, or hybrid spectrometer.
Sampling: TRANSMISSION
Path length: 0.01 CM, 0.01 CM
Resolution: 4
Origin: DOW CHEMICAL COMPANY
MICROMETERS	TRANSMITTANCE
2.042	0.851
2.08221	0.844
2.12243	0.849
2.16264	0.864
2.20286	0.864
2.24307	0.867
2.28329	0.862
2.3235	0.866
2.36372	0.864
2.40393	0.872
2.44415	0.867
2.48436	0.871
2.52457	0.861
2.56479	0.864
2.605	0.864
2.64522	0.869
2.68543	0.871
2.72565	0.864
2.76586	0.864
2.80608	0.744
2.84629	0.443
2.88651	0.769
2.92672	0.841
2.96693	0.866
3.00715	0.867
3.04736	0.867
3.08758	0.867
3.12779	0.867
3.16801	0.856
3.20822	0.841
3.24844	0.819
3.28865	0.867
3.32887	0.869
3.36908	0.867
3.40929	0.871
3.44951	0.874
3.48972	0.874
3.52994	0.874
3.57015	0.876
3.61037	0.877
3.65058	0.874
3.6908	0.877
3.73101	0.881
3.77123	0.874
3.81144	0.882
3.85165	0.884
3.89187	0.882
3.93208	0.889
3.9723	0.879
4.01251	0.892
4.05273	0.886
4.09294	0.894
4.13316	0.889
4.17337	0.881
4.21359	0.871
4.2538	0.867
4.29401	0.874
4.33423	0.876
4.37444	0.879
4.41466	0.889
4.45487	0.896
4.49509	0.901
4.5353	0.896
4.57552	0.903
4.61573	0.896
4.65595	0.904
4.69616	0.906
4.73637	0.904
4.77659	0.904
4.8168	0.903
4.85702	0.901
4.89723	0.891
4.93745	0.889
4.97766	0.889
5.01788	0.892
5.05809	0.899
5.09831	0.899
5.13852	0.901
5.17873	0.903
5.21895	0.894
5.25916	0.899
5.29938	0.899
5.33959	0.894
5.37981	0.891
5.42002	0.894
5.46024	0.892
5.50045	0.892
5.54067	0.892
5.58088	0.899
5.62109	0.899
5.66131	0.892
5.70152	0.889
5.74174	0.891
5.78195	0.891
5.82217	0.894
5.86238	0.887
5.9026	0.867
5.94281	0.852
5.98303	0.861
6.02324	0.861
6.06345	0.861
6.10367	0.839
6.14388	0.816
6.1841	0.799
6.22431	0.719
6.26453	0.602
6.30474	0.476
6.34496	0.357
6.38517	0.254
6.42539	0.117
6.4656	0.295
6.50581	0.53
6.54603	0.581
6.58624	0.622
6.62646	0.67
6.66667	0.739
6.70689	0.797
6.7471	0.795
6.78732	0.735
6.82753	0.607
6.86775	0.334
6.90796	0.359
6.94817	0.458
6.98839	0.29
7.0286	0.26
7.06882	0.132
7.10903	0.108
7.14925	0.57
7.18946	0.744
7.22968	0.829
7.26989	0.846
7.31011	0.861
7.35032	0.871
7.39054	0.872
7.43075	0.854
7.47096	0.837
7.51118	0.859
7.55139	0.827
7.59161	0.75
7.63182	0.605
7.67204	0.404
7.71225	0.138
7.75247	0.142
7.79268	0.583
7.8329	0.789
7.87311	0.817
7.91332	0.77
7.95354	0.625
7.99375	0.478
8.03397	0.779
8.07418	0.74
8.1144	0.612
8.15461	0.367
8.19483	0.081
8.23504	0.142
8.27526	0.55
8.31547	0.724
8.35568	0.75
8.3959	0.692
8.43611	0.55
8.47633	0.418
8.51654	0.506
8.55676	0.434
8.59697	0.222
8.63719	0.354
8.6774	0.379
8.71762	0.397
8.75783	0.61
8.79804	0.61
8.83826	0.638
8.87847	0.678
8.91869	0.648
8.9589	0.476
8.99912	0.364
9.03933	0.692
9.07955	0.76
9.11976	0.769
9.15998	0.797
9.20019	0.812
9.2404	0.817
9.28062	0.817
9.32083	0.812
9.36105	0.812
9.40126	0.822
9.44148	0.827
9.48169	0.829
9.52191	0.841
9.56212	0.842
9.60234	0.847
9.64255	0.849
9.68276	0.857
9.72298	0.866
9.76319	0.866
9.80341	0.871
9.84362	0.872
9.88384	0.867
9.92405	0.861
9.96427	0.856
10.0045	0.844
10.0447	0.839
10.0849	0.857
10.1251	0.866
10.1653	0.867
10.2056	0.861
10.2458	0.844
10.286	0.801
10.3262	0.697
10.3664	0.484
10.4066	0.153
10.4468	0.035
10.4871	0.267
10.5273	0.576
10.5675	0.739
10.6077	0.789
10.6479	0.832
10.6881	0.839
10.7283	0.824
10.7686	0.822
10.8088	0.821
10.849	0.831
10.8892	0.836
10.9294	0.841
10.9696	0.841
11.0098	0.829
11.0501	0.822
11.0903	0.822
11.1305	0.826
11.1707	0.822
11.2109	0.812
11.2511	0.801
11.2913	0.774
11.3316	0.75
11.3718	0.725
11.412	0.675
11.4522	0.612
11.4924	0.612
11.5326	0.645
11.5728	0.652
11.6131	0.647
11.6533	0.633
11.6935	0.628
11.7337	0.623
11.7739	0.613
11.8141	0.568
11.8543	0.431
11.8946	0.265
11.9348	0.26
11.975	0.506
12.0152	0.645
12.0554	0.709
12.0956	0.732
12.1359	0.75
12.1761	0.757
12.2163	0.764
12.2565	0.765
12.2967	0.765
12.3369	0.762
12.3771	0.764
12.4174	0.755
12.4576	0.752
12.4978	0.75
12.538	0.75
12.5782	0.754
12.6184	0.754
12.6586	0.757
12.6989	0.76
12.7391	0.76
12.7793	0.765
12.8195	0.767
12.8597	0.77
12.8999	0.769
12.9401	0.774
12.9804	0.772
13.0206	0.772
13.0608	0.767
13.101	0.767
13.1412	0.762
13.1814	0.764
13.2216	0.759
13.2619	0.752
13.3021	0.745
13.3423	0.744
13.3825	0.744
13.4227	0.744
13.4629	0.742
13.5031	0.742
13.5434	0.737
13.5836	0.732
13.6238	0.725
13.664	0.717
13.7042	0.707
13.7444	0.698
13.7846	0.688
13.8249	0.677
13.8651	0.655
13.9053	0.64
13.9455	0.617
13.9857	0.593
14.0259	0.563
14.0662	0.528
14.1064	0.489
14.1466	0.436
14.1868	0.384
14.227	0.292
14.2672	0.2
14.3074	0.127
14.3477	0.096
14.3879	0.14
14.4281	0.257
14.4683	0.369
14.5085	0.469
14.5487	0.53
14.5889	0.56
14.6292	0.576
14.6694	0.585
14.7096	0.586
14.7498	0.585
14.79	0.581
14.8302	0.575
14.8704	0.568
14.9107	0.56
14.9509	0.553
14.9911	0.561
15.0313	0.553
15.0715	0.541
15.1117	0.528
15.1519	0.52
15.1922	0.508
15.2324	0.5
15.2726	0.491
15.3128	0.484
15.353	0.478
15.3932	0.473
15.4334	0.464
15.4737	0.458
15.5139	0.451
15.5541	0.444
15.5943	0.438
15.6345	0.433
15.6747	0.429
15.7149	0.424
15.7552	0.419
15.7954	0.413
15.8356	0.406
