Infrared Spectrum: 2',5'-Dihydroxypropiophenone
Formula: C9 H10 O3
CAS: 938-46-5
State: SOLID (SPLIT MULL)
Melting point: 96 C
Class: COBLENTZ III
Instrument: BECKMAN IR-9 (GRATING)
Instrument parameters: ORDER CHANGES: 670, 1200, 2000 CM^-^1
Sampling: TRANSMISSION
Resolution: 2
Origin: DOW CHEMICAL COMPANY
1/CM	TRANSMITTANCE
400	0.4544
409	0.4494
418	0.5241
427	0.5831
436	0.6394
445	0.5041
454	0.7286
463	0.7589
472	0.7822
481	0.8278
490	0.8361
499	0.8323
508	0.8171
517	0.6889
526	0.7525
535	0.7775
544	0.7849
553	0.7914
562	0.7948
571	0.7839
580	0.7651
589	0.7321
598	0.6617
607	0.5523
616	0.4436
625	0.3997
634	0.4854
643	0.5939
652	0.6599
661	0.7051
670	0.6093
679	0.6283
688	0.754
697	0.7911
706	0.7958
715	0.7557
724	0.7001
733	0.6299
742	0.7372
751	0.7507
760	0.7371
769	0.685
778	0.4969
787	0.1251
796	0.2463
805	0.6244
814	0.3389
823	0.2984
832	0.5795
841	0.7725
850	0.823
859	0.8456
868	0.8578
877	0.856
886	0.7736
895	0.5888
904	0.1291
913	0.8246
922	0.8833
931	0.8936
940	0.8108
949	0.8767
958	0.8743
967	0.8389
976	0.6781
985	0.4773
994	0.857
1003	0.8615
1012	0.7354
1021	0.6757
1030	0.8301
1039	0.8705
1048	0.8738
1057	0.8643
1066	0.8505
1075	0.8168
1084	0.7635
1093	0.8313
1102	0.8243
1111	0.8015
1120	0.7542
1129	0.6046
1138	0.6585
1147	0.6258
1156	0.5689
1165	0.428
1174	0.2659
1183	0.0332
1192	0.0896
1201	0.387
1210	0.5494
1219	0.6021
1228	0.5241
1237	0.417
1246	0.2099
1255	0.1031
1264	0.221
1273	0.0987
1282	0.0005
1291	0.1008
1300	0.4322
1309	0.5964
1318	0.6042
1327	0.6103
1336	0.3008
1345	0.1771
1354	0.1975
1363	0.317
1372	0.1345
1381	0.3422
1390	0.5789
1399	0.405
1408	0.2425
1417	0.607
1426	0.6518
1435	0.6528
1444	0.5774
1453	0.4183
1462	0.4677
1471	0.2521
1480	0.1891
1489	0.0417
1498	0.0697
1507	0.4341
1516	0.5371
1525	0.5849
1534	0.599
1543	0.6092
1552	0.6355
1561	0.6617
1570	0.6561
1579	0.5894
1588	0.3164
1597	0.3776
1606	0.5735
1615	0.5162
1624	0.2754
1633	0.2723
1642	0.0666
1651	0.235
1660	0.4695
1669	0.6894
1678	0.7467
1687	0.7876
1696	0.8274
1705	0.8548
1714	0.8407
1723	0.8084
1732	0.8324
1741	0.8351
1750	0.8156
1759	0.7917
1768	0.7421
1777	0.7301
1786	0.8075
1795	0.8193
1804	0.8184
1813	0.8227
1822	0.8141
1831	0.8128
1840	0.8246
1849	0.8198
1858	0.8015
1867	0.7612
1876	0.7898
1885	0.8004
1894	0.8012
1903	0.7978
1912	0.7964
1921	0.7897
1930	0.7901
1939	0.7872
1948	0.7837
1957	0.7804
1966	0.7767
1975	0.7711
1984	0.7662
1993	0.7611
2002	0.7568
2011	0.7561
2020	0.7515
2029	0.738
2038	0.7247
2047	0.725
2056	0.7365
2065	0.7351
2074	0.7308
2083	0.7261
2092	0.7218
2101	0.7172
2110	0.7125
2119	0.7076
2128	0.7035
2137	0.6994
2146	0.6938
2155	0.6876
2164	0.6818
2173	0.6758
2182	0.6697
2191	0.6635
2200	0.658
2209	0.6524
2218	0.6468
2227	0.6399
2236	0.6336
2245	0.6275
2254	0.6215
2263	0.6153
2272	0.6094
2281	0.6057
2290	0.6036
2299	0.599
2308	0.5921
2317	0.5873
2326	0.586
2335	0.5853
2344	0.5838
2353	0.5832
2362	0.582
2371	0.5792
2380	0.5706
2389	0.5616
2398	0.5552
2407	0.5495
2416	0.5438
2425	0.5379
2434	0.5314
2443	0.5266
2452	0.5225
2461	0.5193
2470	0.5162
2479	0.514
2488	0.5126
2497	0.5135
2506	0.5142
2515	0.515
2524	0.5112
2533	0.5042
2542	0.4976
2551	0.4924
2560	0.4883
2569	0.4841
2578	0.4822
2587	0.4812
2596	0.4803
2605	0.4791
2614	0.4746
2623	0.4676
2632	0.461
2641	0.4527
2650	0.4457
2659	0.438
2668	0.4329
2677	0.4258
2686	0.4191
2695	0.4138
2704	0.4093
2713	0.4056
2722	0.4032
2731	0.4032
2740	0.4039
2749	0.4045
2758	0.403
2767	0.3974
2776	0.392
2785	0.3871
2794	0.3812
2803	0.372
2812	0.37
2821	0.3677
2830	0.3664
2839	0.3602
2848	0.3518
2857	0.3418
2866	0.3309
2875	0.3152
2884	0.2974
2893	0.3096
2902	0.3082
2911	0.2898
2920	0.283
2929	0.2929
2938	0.2513
2947	0.2347
2956	0.3047
2965	0.3135
2974	0.3077
2983	0.2217
2992	0.269
3001	0.32
3010	0.3412
3019	0.3438
3028	0.3447
3037	0.3421
3046	0.3373
3055	0.328
3064	0.3129
3073	0.3183
3082	0.3275
3091	0.3412
3100	0.3459
3109	0.339
3118	0.3372
3127	0.3355
3136	0.333
3145	0.33
3154	0.327
3163	0.324
3172	0.3212
3181	0.3184
3190	0.3142
3199	0.31
3208	0.3041
3217	0.2955
3226	0.2864
3235	0.2765
3244	0.2614
3253	0.2482
3262	0.2365
3271	0.2253
3280	0.2143
3289	0.2027
3298	0.1884
3307	0.1724
3316	0.157
3325	0.1446
3334	0.132
3343	0.1164
3352	0.0887
3361	0.0567
3370	0.029
3379	0.0182
3388	0.0275
3397	0.1585
3406	0.2461
3415	0.2718
3424	0.2884
3433	0.3011
3442	0.3123
3451	0.3196
3460	0.3268
3469	0.3555
3478	0.3818
3487	0.3995
3496	0.4095
3505	0.4148
3514	0.4168
3523	0.4168
3532	0.4155
3541	0.4134
3550	0.4107
3559	0.4078
3568	0.404
3577	0.3975
3586	0.38
3595	0.3856
3604	0.386
3613	0.3797
3622	0.375
3631	0.3722
3640	0.3692
3649	0.3659
3658	0.3629
3667	0.3596
3676	0.3564
3685	0.3532
3694	0.3502
3703	0.347
3712	0.3437
3721	0.3402
3730	0.3366
3739	0.3327
3748	0.3286
3757	0.3242
3766	0.3212
3775	0.3189
3784	0.3167
3793	0.3145
