Infrared Spectrum: P-SEC-AMYL PHENOL
Formula: C11 H16 O
CAS: 94-06-4
State: LIQUID
Class: COBLENTZ
Instrument: PERKIN-ELMER
Sampling: TRANSMISSION
Path length: 0.0025 CM
Resolution: 4
Origin: STANDARD OIL OF OHIO
MICROMETERS	TRANSMITTANCE
2.027	0.998
2.06078	0.996
2.09457	0.993
2.12835	0.982
2.16214	0.977
2.19592	0.988
2.22971	0.993
2.26349	0.976
2.29728	0.954
2.33106	0.947
2.36484	0.962
2.39863	0.964
2.43241	0.965
2.4662	0.947
2.49998	0.967
2.53377	0.971
2.56755	0.972
2.60134	0.976
2.63512	0.982
2.6689	0.984
2.70269	0.977
2.73647	0.945
2.77026	0.809
2.80404	0.51
2.83783	0.343
2.87161	0.207
2.90539	0.129
2.93918	0.073
2.97296	0.052
3.00675	0.04
3.04053	0.052
3.07432	0.113
3.1081	0.178
3.14189	0.265
3.17567	0.406
3.20945	0.522
3.24324	0.515
3.27702	0.426
3.31081	0.437
3.34459	0.272
3.37838	0.054
3.41216	0.045
3.44595	0.086
3.47973	0.124
3.51351	0.486
3.5473	0.653
3.58108	0.744
3.61487	0.799
3.64865	0.812
3.68244	0.802
3.71622	0.804
3.75001	0.819
3.78379	0.838
3.81757	0.845
3.85136	0.843
3.88514	0.846
3.91893	0.86
3.95271	0.877
3.9865	0.887
4.02028	0.879
4.05406	0.87
4.08785	0.867
4.12163	0.87
4.15542	0.891
4.1892	0.906
4.22299	0.916
4.25677	0.92
4.29056	0.925
4.32434	0.931
4.35812	0.933
4.39191	0.94
4.42569	0.948
4.45948	0.95
4.49326	0.959
4.52705	0.959
4.56083	0.957
4.59462	0.954
4.6284	0.954
4.66218	0.957
4.69597	0.957
4.72975	0.952
4.76354	0.943
4.79732	0.933
4.83111	0.928
4.86489	0.928
4.89868	0.933
4.93246	0.937
4.96624	0.935
5.00003	0.938
5.03381	0.94
5.0676	0.942
5.10138	0.94
5.13517	0.937
5.16895	0.931
5.20273	0.921
5.23652	0.904
5.2703	0.857
5.30409	0.816
5.33787	0.874
5.37166	0.904
5.40544	0.92
5.43923	0.93
5.47301	0.935
5.50679	0.937
5.54058	0.937
5.57436	0.93
5.60815	0.921
5.64193	0.903
5.67572	0.889
5.7095	0.897
5.74329	0.904
5.77707	0.916
5.81085	0.92
5.84464	0.921
5.87842	0.918
5.91221	0.916
5.94599	0.904
5.97978	0.884
6.01356	0.857
6.04735	0.828
6.08113	0.787
6.11491	0.751
6.1487	0.552
6.18248	0.146
6.21627	0.221
6.25005	0.163
6.28384	0.428
6.31762	0.695
6.3514	0.765
6.38519	0.789
6.41897	0.794
6.45276	0.794
6.48654	0.778
6.52033	0.663
6.55411	0.421
6.5879	0.09
6.62168	0.02
6.65546	0.215
6.68925	0.355
6.72303	0.362
6.75682	0.358
6.7906	0.236
6.82439	0.102
6.85817	0.078
6.89196	0.051
6.92574	0.086
6.95952	0.153
6.99331	0.294
7.02709	0.54
7.06088	0.647
7.09466	0.671
7.12845	0.649
7.16223	0.537
7.19602	0.416
7.2298	0.224
7.26358	0.168
7.29737	0.147
7.33115	0.198
7.36494	0.217
7.39872	0.285
7.43251	0.318
7.46629	0.333
7.50007	0.343
7.53386	0.365
7.56764	0.477
7.60143	0.552
7.63521	0.549
7.669	0.503
7.70278	0.53
7.73657	0.534
7.77035	0.51
7.80413	0.515
7.83792	0.448
7.8717	0.324
7.90549	0.222
7.93927	0.136
7.97306	0.085
8.00684	0.051
8.04063	0.015
8.07441	0.01
8.10819	0.006
8.14198	0.005
8.17576	0.005
8.20955	0.01
8.24333	0.015
8.27712	0.03
8.3109	0.056
8.34469	0.09
8.37847	0.12
8.41225	0.136
8.44604	0.134
8.47982	0.12
8.51361	0.098
8.54739	0.085
8.58118	0.185
8.61496	0.314
8.64874	0.416
8.68253	0.488
8.71631	0.511
8.7501	0.508
8.78388	0.481
8.81767	0.586
8.85145	0.636
8.88524	0.668
8.91902	0.658
8.9528	0.612
8.98659	0.556
9.02037	0.493
9.05416	0.43
9.08794	0.462
9.12173	0.569
9.15551	0.651
9.1893	0.7
9.22308	0.717
9.25686	0.714
9.29065	0.692
9.32443	0.69
9.35822	0.715
9.392	0.76
9.42579	0.78
9.45957	0.787
9.49336	0.797
9.52714	0.799
9.56092	0.792
9.59471	0.784
9.62849	0.785
9.66228	0.816
9.69606	0.84
9.72985	0.841
9.76363	0.833
9.79741	0.818
9.8312	0.642
9.86498	0.61
9.89877	0.724
9.93255	0.746
9.96634	0.765
10.0001	0.79
10.0339	0.801
10.0677	0.801
10.1015	0.797
10.1353	0.807
10.169	0.846
10.2028	0.863
10.2366	0.872
10.2704	0.875
10.3042	0.877
10.338	0.877
10.3717	0.877
10.4055	0.874
10.4393	0.865
10.4731	0.853
10.5069	0.845
10.5407	0.84
10.5745	0.831
10.6082	0.816
10.642	0.79
10.6758	0.773
10.7096	0.763
10.7434	0.76
10.7772	0.767
10.8109	0.778
10.8447	0.789
10.8785	0.801
10.9123	0.806
10.9461	0.806
10.9799	0.807
11.0137	0.812
11.0474	0.816
11.0812	0.811
11.115	0.807
11.1488	0.806
11.1826	0.802
11.2164	0.797
11.2501	0.782
11.2839	0.768
11.3177	0.756
11.3515	0.739
11.3853	0.724
11.4191	0.715
11.4529	0.707
11.4866	0.702
11.5204	0.698
11.5542	0.704
11.588	0.709
11.6218	0.704
11.6556	0.693
11.6893	0.654
11.7231	0.607
11.7569	0.569
11.7907	0.517
11.8245	0.443
11.8583	0.36
11.892	0.277
11.9258	0.204
11.9596	0.147
11.9934	0.095
12.0272	0.02
12.061	0.01
12.0948	0.011
12.1285	0.052
12.1623	0.13
12.1961	0.176
12.2299	0.21
12.2637	0.251
12.2975	0.289
12.3312	0.329
12.365	0.392
12.3988	0.498
12.4326	0.569
12.4664	0.61
12.5002	0.629
12.534	0.639
12.5677	0.649
12.6015	0.649
12.6353	0.647
12.6691	0.637
12.7029	0.612
12.7367	0.588
12.7704	0.562
12.8042	0.54
12.838	0.53
12.8718	0.53
12.9056	0.551
12.9394	0.574
12.9731	0.591
13.0069	0.602
13.0407	0.603
13.0745	0.603
13.1083	0.6
13.1421	0.588
13.1759	0.569
13.2096	0.53
13.2434	0.488
13.2772	0.45
13.311	0.433
13.3448	0.44
13.3786	0.464
13.4123	0.486
13.4461	0.503
13.4799	0.522
13.5137	0.539
13.5475	0.551
13.5813	0.561
13.6151	0.574
13.6488	0.583
13.6826	0.583
13.7164	0.571
13.7502	0.557
13.784	0.551
13.8178	0.556
13.8515	0.564
13.8853	0.569
13.9191	0.573
13.9529	0.569
13.9867	0.562
14.0205	0.547
14.0543	0.527
14.088	0.51
14.1218	0.501
14.1556	0.482
14.1894	0.45
14.2232	0.409
14.257	0.375
14.2907	0.341
14.3245	0.341
14.3583	0.365
14.3921	0.387
14.4259	0.396
14.4597	0.399
14.4934	0.401
14.5272	0.406
14.561	0.42
14.5948	0.442
14.6286	0.467
14.6624	0.489
14.6962	0.501
14.7299	0.511
14.7637	0.517
14.7975	0.518
14.8313	0.52
14.8651	0.518
14.8989	0.515
14.9326	0.515
14.9664	0.513
15.0002	0.511
15.034	0.51
15.0678	0.506
15.1016	0.501
15.1354	0.5
15.1691	0.493
15.2029	0.489
15.2367	0.484
15.2705	0.474
15.3043	0.467
15.3381	0.464
15.3718	0.462
