Infrared Spectrum: ETHYL-P-AMINOBENZOATE
Formula: C9 H11 N O2
CAS: 94-09-7
State: SOLUTION (10% CCl4 FOR 5000-1330, 10% CS2 FOR 1330-625 CM^-^1)
Class: COBLENTZ
Instrument: Not specified, most likely a prism, grating, or hybrid spectrometer.
Sampling: TRANSMISSION
Path length: 0.0226 CM, 0.0226 CM
Resolution: 4
Origin: DOW CHEMICAL COMPANY
MICROMETERS	TRANSMITTANCE
2.021	0.892
2.06207	0.89
2.10315	0.892
2.14422	0.887
2.18529	0.88
2.22637	0.873
2.26744	0.873
2.30851	0.87
2.34959	0.868
2.39066	0.866
2.43173	0.868
2.47281	0.87
2.51388	0.878
2.55495	0.878
2.59602	0.87
2.6371	0.87
2.67817	0.87
2.71924	0.87
2.76032	0.868
2.80139	0.856
2.84246	0.813
2.88354	0.835
2.92461	0.769
2.96568	0.863
3.00676	0.873
3.04783	0.87
3.0889	0.861
3.12998	0.861
3.17105	0.866
3.21212	0.859
3.2532	0.839
3.29427	0.822
3.33534	0.75
3.37642	0.803
3.41749	0.822
3.45856	0.842
3.49963	0.851
3.54071	0.856
3.58178	0.856
3.62285	0.859
3.66393	0.859
3.705	0.851
3.74607	0.842
3.78715	0.846
3.82822	0.849
3.86929	0.847
3.91037	0.847
3.95144	0.849
3.99251	0.851
4.03359	0.849
4.07466	0.849
4.11573	0.852
4.15681	0.849
4.19788	0.847
4.23895	0.847
4.28003	0.844
4.3211	0.844
4.36217	0.849
4.40324	0.851
4.44432	0.849
4.48539	0.849
4.52646	0.849
4.56754	0.847
4.60861	0.847
4.64968	0.842
4.69076	0.839
4.73183	0.839
4.7729	0.842
4.81398	0.842
4.85505	0.842
4.89612	0.841
4.9372	0.839
4.97827	0.837
5.01934	0.841
5.06042	0.841
5.10149	0.839
5.14256	0.839
5.18364	0.839
5.22471	0.822
5.26578	0.832
5.30685	0.841
5.34793	0.842
5.389	0.839
5.43007	0.839
5.47115	0.835
5.51222	0.832
5.55329	0.835
5.59437	0.83
5.63544	0.823
5.67651	0.82
5.71759	0.793
5.75866	0.69
5.79973	0.471
5.84081	0.218
5.88188	0.331
5.92295	0.67
5.96403	0.772
6.0051	0.791
6.04617	0.791
6.08725	0.699
6.12832	0.422
6.16939	0.244
6.21046	0.439
6.25154	0.606
6.29261	0.74
6.33368	0.752
6.37476	0.777
6.41583	0.788
6.4569	0.796
6.49798	0.791
6.53905	0.779
6.58012	0.711
6.6212	0.716
6.66227	0.81
6.70334	0.818
6.74442	0.781
6.78549	0.765
6.82656	0.76
6.86764	0.764
6.90871	0.741
6.94978	0.741
6.99086	0.806
7.03193	0.822
7.073	0.827
7.11407	0.822
7.15515	0.767
7.19622	0.764
7.23729	0.793
7.27837	0.658
7.31944	0.647
7.36051	0.832
7.40159	0.827
7.44266	0.811
7.48373	0.789
7.52481	0.781
7.56588	0.68
7.60695	0.565
7.64803	0.548
7.6891	0.547
7.73017	0.547
7.77125	0.406
7.81232	0.107
7.85339	0.066
7.89447	0.299
7.93554	0.526
7.97661	0.635
8.01769	0.69
8.05876	0.717
8.09983	0.724
8.1409	0.729
8.18198	0.745
8.22305	0.758
8.26412	0.76
8.3052	0.757
8.34627	0.748
8.38734	0.747
8.42842	0.707
8.46949	0.596
8.51056	0.287
8.55164	0.309
8.59271	0.623
8.63378	0.699
8.67486	0.728
8.71593	0.731
8.757	0.738
8.79808	0.729
8.83915	0.697
8.88022	0.646
8.9213	0.569
8.96237	0.478
9.00344	0.317
9.04451	0.189
9.08559	0.247
9.12666	0.495
9.16773	0.617
9.20881	0.678
9.24988	0.719
9.29095	0.74
9.33203	0.745
9.3731	0.743
9.41417	0.733
9.45525	0.726
9.49632	0.736
9.53739	0.755
9.57847	0.76
9.61954	0.767
9.66061	0.76
9.70169	0.729
9.74276	0.695
9.78383	0.682
9.82491	0.68
9.86598	0.705
9.90705	0.738
9.94812	0.758
9.9892	0.772
10.0303	0.779
10.0713	0.779
10.1124	0.782
10.1535	0.781
10.1946	0.788
10.2356	0.788
10.2767	0.788
10.3178	0.788
10.3589	0.786
10.3999	0.779
10.441	0.779
10.4821	0.777
10.5231	0.774
10.5642	0.774
10.6053	0.779
10.6464	0.781
10.6874	0.782
10.7285	0.779
10.7696	0.779
10.8107	0.786
10.8517	0.786
10.8928	0.786
10.9339	0.781
10.975	0.781
11.016	0.782
11.0571	0.779
11.0982	0.779
11.1392	0.777
11.1803	0.776
11.2214	0.772
11.2625	0.77
11.3035	0.769
11.3446	0.765
11.3857	0.758
11.4268	0.75
11.4678	0.75
11.5089	0.75
11.55	0.75
11.5911	0.75
11.6321	0.745
11.6732	0.731
11.7143	0.717
11.7553	0.704
11.7964	0.69
11.8375	0.635
11.8786	0.564
11.9196	0.529
11.9607	0.594
12.0018	0.668
12.0429	0.716
12.0839	0.729
12.125	0.738
12.1661	0.745
12.2071	0.745
12.2482	0.745
12.2893	0.745
12.3304	0.747
12.3714	0.743
12.4125	0.738
12.4536	0.738
12.4947	0.74
12.5357	0.74
12.5768	0.738
12.6179	0.736
12.659	0.731
12.7	0.728
12.7411	0.723
12.7822	0.709
12.8232	0.697
12.8643	0.659
12.9054	0.608
12.9465	0.509
12.9875	0.432
13.0286	0.417
13.0697	0.497
13.1108	0.605
13.1518	0.649
13.1929	0.683
13.234	0.699
13.2751	0.705
13.3161	0.714
13.3572	0.724
13.3983	0.728
13.4393	0.724
13.4804	0.724
13.5215	0.724
13.5626	0.724
13.6036	0.726
13.6447	0.726
13.6858	0.726
13.7269	0.724
13.7679	0.726
13.809	0.724
13.8501	0.724
13.8912	0.719
13.9322	0.719
13.9733	0.717
14.0144	0.716
14.0554	0.712
14.0965	0.705
14.1376	0.704
14.1787	0.699
14.2197	0.687
14.2608	0.666
14.3019	0.635
14.343	0.596
14.384	0.577
14.4251	0.579
14.4662	0.598
14.5072	0.622
14.5483	0.647
14.5894	0.651
14.6305	0.656
14.6715	0.658
14.7126	0.658
14.7537	0.658
14.7948	0.659
14.8358	0.658
14.8769	0.656
14.918	0.647
14.9591	0.646
15.0001	0.646
15.0412	0.644
15.0823	0.637
15.1233	0.634
15.1644	0.63
15.2055	0.629
15.2466	0.62
15.2876	0.615
15.3287	0.61
15.3698	0.61
15.4109	0.606
15.4519	0.603
15.493	0.6
15.5341	0.598
15.5752	0.596
15.6162	0.594
15.6573	0.593
15.6984	0.589
15.7394	0.582
15.7805	0.581
15.8216	0.581
15.8627	0.581
