Infrared Spectrum: BENZOYL PEROXIDE
Formula: C14 H10 O4
CAS: 94-36-0
State: SOLID (SPLIT MULL)
Class: COBLENTZ III
Instrument: BECKMAN IR-7 (GRATING)
Instrument parameters: GRATING CHANGES AT 3000, 2200, 1150 CM^-^1
Sampling: TRANSMISSION
Resolution: 4
Origin: WESTERN REGIONAL RES. USDA
1/CM	TRANSMITTANCE
598.078	0.79
607.048	0.788
616.019	0.757
624.989	0.738
633.959	0.737
642.929	0.722
651.9	0.715
660.87	0.707
669.84	0.696
678.81	0.668
687.781	0.6
696.751	0.265
705.721	0.154
714.691	0.234
723.662	0.597
732.632	0.658
741.602	0.669
750.572	0.68
759.543	0.683
768.513	0.686
777.483	0.687
786.453	0.682
795.424	0.5761
804.394	0.627
813.364	0.679
822.334	0.678
831.305	0.673
840.275	0.655
849.245	0.554
858.215	0.577
867.186	0.636
876.156	0.656
885.126	0.651
894.096	0.629
903.067	0.638
912.037	0.651
921.007	0.65
929.978	0.643
938.948	0.626
947.918	0.554
956.888	0.61
965.859	0.588
974.829	0.552
983.799	0.48
992.769	0.261
1001.74	0.126
1010.71	0.239
1019.68	0.476
1028.65	0.542
1037.62	0.31
1046.59	0.5051
1055.56	0.642
1064.53	0.654
1073.5	0.611
1082.47	0.627
1091.44	0.648
1100.41	0.627
1109.38	0.644
1118.35	0.647
1127.32	0.639
1136.29	0.632
1145.26	0.614
1154.23	0.605
1163.2	0.585
1172.17	0.549
1181.14	0.324
1190.11	0.553
1199.09	0.575
1208.06	0.478
1217.03	0.306
1226	0.098
1234.97	0.166
1243.94	0.381
1252.91	0.494
1261.88	0.489
1270.85	0.616
1279.82	0.597
1288.79	0.579
1297.76	0.627
1306.73	0.622
1315.7	0.556
1324.67	0.493
1333.64	0.65
1342.61	0.647
1351.58	0.619
1360.55	0.637
1369.52	0.611
1378.49	0.625
1387.46	0.656
1396.43	0.669
1405.4	0.67
1414.37	0.68
1423.34	0.689
1432.31	0.693
1441.28	0.688
1450.25	0.629
1459.22	0.651
1468.19	0.703
1477.16	0.706
1486.13	0.7
1495.1	0.696
1504.07	0.707
1513.04	0.71
1522.01	0.713
1530.98	0.71
1539.95	0.709
1548.93	0.709
1557.9	0.706
1566.87	0.698
1575.84	0.697
1584.81	0.65
1593.78	0.663
1602.75	0.521
1611.72	0.719
1620.69	0.712
1629.66	0.712
1638.63	0.71
1647.6	0.697
1656.57	0.7
1665.54	0.702
1674.51	0.704
1683.48	0.699
1692.45	0.689
1701.42	0.684
1710.39	0.68
1719.36	0.668
1728.33	0.627
1737.3	0.62
1746.27	0.579
1755.24	0.249
1764.21	0.207
1773.18	0.543
1782.15	0.565
1791.12	0.504
1800.09	0.678
1809.06	0.714
1818.03	0.717
1827	0.712
1835.97	0.701
1844.94	0.71
1853.91	0.708
1862.88	0.712
1871.85	0.714
1880.82	0.712
1889.8	0.707
1898.77	0.709
1907.74	0.713
1916.71	0.71
1925.68	0.697
1934.65	0.703
1943.62	0.705
1952.59	0.704
1961.56	0.71
1970.53	0.707
1979.5	0.7
1988.47	0.695
1997.44	0.699
2006.41	0.697
2015.38	0.696
2024.35	0.695
2033.32	0.6952
2042.29	0.696
2051.26	0.697
2060.23	0.698
2069.2	0.6995
2078.17	0.7
2087.14	0.7
2096.11	0.701
2105.08	0.7002
2114.05	0.7
2123.02	0.6981
2131.99	0.698
2140.96	0.697
2149.93	0.697
2158.9	0.697
2167.87	0.698
2176.84	0.698
2185.81	0.698
2194.78	0.697
2203.75	0.695
2212.72	0.684
2221.69	0.6809
2230.66	0.6793
2239.64	0.679
2248.61	0.677
2257.58	0.675
2266.55	0.6731
2275.52	0.671
2284.49	0.67
2293.46	0.669
2302.43	0.6678
2311.4	0.6662
2320.37	0.666
2329.34	0.665
2338.31	0.664
2347.28	0.664
2356.25	0.6598
2365.22	0.657
2374.19	0.656
2383.16	0.652
2392.13	0.6511
2401.1	0.65
2410.07	0.648
2419.04	0.648
2428.01	0.647
2436.98	0.647
2445.95	0.645
2454.92	0.6422
2463.89	0.638
2472.86	0.639
2481.83	0.6425
2490.8	0.643
2499.77	0.643
2508.74	0.643
2517.71	0.642
2526.68	0.642
2535.65	0.641
2544.62	0.641
2553.59	0.64
2562.56	0.64
2571.53	0.638
2580.5	0.638
2589.48	0.638
2598.45	0.637
2607.42	0.636
2616.39	0.636
2625.36	0.636
2634.33	0.636
2643.3	0.6343
2652.27	0.6335
2661.24	0.632
2670.21	0.632
2679.18	0.632
2688.15	0.632
2697.12	0.631
2706.09	0.629
2715.06	0.629
2724.03	0.6282
2733	0.6276
2741.97	0.6251
2750.94	0.6225
2759.91	0.622
2768.88	0.621
2777.85	0.621
2786.82	0.62
2795.79	0.618
2804.76	0.6151
2813.73	0.6115
2822.7	0.611
2831.67	0.6104
2840.64	0.609
2849.61	0.6053
2858.58	0.6017
2867.55	0.601
2876.52	0.601
2885.49	0.604
2894.46	0.604
2903.43	0.602
2912.4	0.6013
2921.37	0.598
2930.34	0.597
2939.32	0.595
2948.29	0.595
2957.26	0.595
2966.23	0.5949
2975.2	0.592
2984.17	0.59
2993.14	0.5872
3002.11	0.5827
3011.08	0.581
3020.05	0.583
3029.02	0.582
3037.99	0.5814
3046.96	0.5788
3055.93	0.5753
3064.9	0.5594
3073.87	0.5694
3082.84	0.5786
3091.81	0.578
3100.78	0.5774
3109.75	0.577
3118.72	0.5763
3127.69	0.576
3136.66	0.574
3145.63	0.572
3154.6	0.571
3163.57	0.57
3172.54	0.5689
3181.51	0.5664
3190.48	0.565
3199.45	0.567
3208.42	0.567
3217.39	0.567
3226.36	0.5665
3235.33	0.563
3244.3	0.563
3253.27	0.562
3262.24	0.56
3271.21	0.558
3280.18	0.558
3289.16	0.556
3298.13	0.555
3307.1	0.554
3316.07	0.553
3325.04	0.5513
3334.01	0.5507
3342.98	0.5482
3351.95	0.547
3360.92	0.544
3369.89	0.542
3378.86	0.5409
3387.83	0.5393
3396.8	0.5388
3405.77	0.537
3414.74	0.537
3423.71	0.536
3432.68	0.5345
3441.65	0.533
3450.62	0.5314
3459.59	0.5308
3468.56	0.53
3477.53	0.529
3486.5	0.526
3495.47	0.5236
3504.44	0.519
3513.41	0.5174
3522.38	0.519
3531.35	0.521
3540.32	0.521
3549.29	0.521
3558.26	0.521
3567.23	0.52
3576.2	0.519
3585.17	0.5179
3594.14	0.5153
3603.11	0.514
3612.08	0.513
3621.05	0.512
3630.02	0.513
3639	0.512
3647.97	0.509
3656.94	0.508
3665.91	0.507
3674.88	0.506
3683.85	0.5037
3692.82	0.5021
3701.79	0.502
3710.76	0.503
3719.73	0.5014
3728.7	0.501
3737.67	0.5
3746.64	0.4954
3755.61	0.4932
3764.58	0.492
3773.55	0.492
3782.52	0.491
3791.49	0.491
3800.46	0.4893
3809.43	0.487
3818.4	0.485
3827.37	0.484
3836.34	0.4821
3845.31	0.482
3854.28	0.4819
3863.25	0.4804
3872.22	0.48
3881.19	0.48
3890.16	0.479
3899.13	0.478
3908.1	0.476
3917.07	0.475
3926.04	0.475
3935.01	0.4738
3943.98	0.4715
3952.95	0.4687
3961.92	0.4671
3970.89	0.466
3979.86	0.464
