Infrared Spectrum: Benzoic acid, isopentyl ester
Formula: C12 H16 O2
CAS: 94-46-2
State: SOLUTION (10% CCl4 FOR 3800-1330, 10% CS2 FOR 1330-400)
Class: COBLENTZ III
Instrument: BECKMAN IR-9 (GRATING)
Instrument parameters: ORDER CHANGES: 670, 1200, 2000 CM^-^1
Sampling: TRANSMISSION
Path length: 0.011 CM, 0.011 CM
Resolution: 2
Origin: DOW CHEMICAL COMPANY
1/CM	TRANSMITTANCE
410	0.4073
419	0.5092
428	0.5683
437	0.6208
446	0.6778
455	0.7225
464	0.7369
473	0.7596
482	0.7664
491	0.7902
500	0.8208
509	0.8292
518	0.8256
527	0.8135
536	0.8256
545	0.846
554	0.8566
563	0.8619
572	0.866
581	0.8685
590	0.8698
599	0.8683
608	0.8622
617	0.8223
626	0.8303
635	0.8279
644	0.8187
653	0.7838
662	0.7891
671	0.6873
680	0.7
689	0.626
698	0.5454
707	0.01
716	0.2412
725	0.6392
734	0.7671
743	0.7972
752	0.7969
761	0.7861
770	0.7811
779	0.8013
788	0.8102
797	0.7855
806	0.7649
815	0.7579
824	0.7343
833	0.7571
842	0.7264
851	0.6698
860	0.6614
869	0.7037
878	0.7576
887	0.7898
896	0.7989
905	0.7831
914	0.7501
923	0.745
932	0.6168
941	0.6355
950	0.5992
959	0.5956
968	0.6014
977	0.6802
986	0.7185
995	0.7369
1004	0.7368
1013	0.7004
1022	0.2093
1031	0.6454
1040	0.6538
1049	0.69
1058	0.532
1067	0.1531
1076	0.632
1085	0.5503
1094	0.1306
1103	0.0393
1112	0.0208
1121	0.3773
1130	0.4654
1139	0.5101
1148	0.5091
1157	0.5324
1166	0.3181
1175	0.4896
1184	0.7039
1193	0.738
1202	0.7385
1211	0.7134
1220	0.6273
1229	0.471
1238	0.2699
1247	0.1753
1256	0.0677
1265	0.003
1274	0.002
1283	0.1123
1292	0.3071
1301	0.4863
1310	0.1308
1319	0.5647
1328	0.5639
1337	0.5508
1346	0.5596
1355	0.6009
1364	0.4557
1373	0.5391
1382	0.3625
1391	0.453
1400	0.6293
1409	0.6545
1418	0.6551
1427	0.6318
1436	0.5987
1445	0.487
1454	0.2656
1463	0.2626
1472	0.3993
1481	0.5943
1490	0.5346
1499	0.6254
1508	0.6054
1517	0.5755
1526	0.5532
1535	0.502
1544	0.4324
1553	0.4193
1562	0.4623
1571	0.5262
1580	0.4562
1589	0.536
1598	0.4409
1607	0.6266
1616	0.7032
1625	0.7359
1634	0.7468
1643	0.713
1652	0.7276
1661	0.7378
1670	0.7124
1679	0.6486
1688	0.6432
1697	0.5774
1706	0.3197
1715	0.0065
1724	0
1733	0.1479
1742	0.5182
1751	0.636
1760	0.7179
1769	0.7327
1778	0.7162
1787	0.7291
1796	0.761
1805	0.7755
1814	0.7716
1823	0.7569
1832	0.7944
1841	0.8065
1850	0.8142
1859	0.8154
1868	0.8159
1877	0.8166
1886	0.8175
1895	0.8161
1904	0.7876
1913	0.785
1922	0.7812
1931	0.7985
1940	0.8125
1949	0.8135
1958	0.7989
1967	0.781
1976	0.7995
1985	0.8113
1994	0.8063
2003	0.8205
2012	0.8261
2021	0.8282
2030	0.8289
2039	0.8281
2048	0.8268
2057	0.8251
2066	0.8229
2075	0.8203
2084	0.818
2093	0.818
2102	0.8203
2111	0.8227
2120	0.8251
2129	0.828
2138	0.8304
2147	0.8311
2156	0.8317
2165	0.8321
2174	0.8324
2183	0.832
2192	0.8315
2201	0.8305
2210	0.8295
2219	0.8285
2228	0.8275
2237	0.8259
2246	0.8234
2255	0.8205
2264	0.8178
2273	0.8155
2282	0.8133
2291	0.8114
2300	0.8109
2309	0.8104
2318	0.81
2327	0.8093
2336	0.807
2345	0.8044
2354	0.8062
2363	0.8085
2372	0.808
2381	0.8043
2390	0.8014
2399	0.8033
2408	0.8082
2417	0.8122
2426	0.8152
2435	0.8172
2444	0.8188
2453	0.8194
2462	0.8192
2471	0.8179
2480	0.8166
2489	0.8146
2498	0.8122
2507	0.8097
2516	0.8077
2525	0.8056
2534	0.8044
2543	0.8033
2552	0.8021
2561	0.8009
2570	0.7994
2579	0.7975
2588	0.7956
2597	0.7935
2606	0.7915
2615	0.7904
2624	0.79
2633	0.7893
2642	0.7885
2651	0.7876
2660	0.7866
2669	0.7879
2678	0.79
2687	0.7922
2696	0.7917
2705	0.789
2714	0.7832
2723	0.7744
2732	0.7644
2741	0.7667
2750	0.7681
2759	0.7675
2768	0.7638
2777	0.763
2786	0.7648
2795	0.7625
2804	0.7555
2813	0.7471
2822	0.7367
2831	0.7216
2840	0.6986
2849	0.6538
2858	0.635
2867	0.475
2876	0.3388
2885	0.3442
2894	0.4341
2903	0.3929
2912	0.3357
2921	0.3161
2930	0.2867
2939	0.229
2948	0.2506
2957	0.1189
2966	0.0531
2975	0.1126
2984	0.2546
2993	0.3966
3002	0.5451
3011	0.614
3020	0.6687
3029	0.6836
3038	0.6585
3047	0.6314
3056	0.6531
3065	0.6566
3074	0.57
3083	0.5838
3092	0.6493
3101	0.621
3110	0.6761
3119	0.6852
3128	0.6945
3137	0.6982
3146	0.6978
3155	0.6921
3164	0.6844
3173	0.677
3182	0.6715
3191	0.6704
3200	0.6715
3209	0.6694
3218	0.665
3227	0.6664
3236	0.6711
3245	0.6758
3254	0.6802
3263	0.6848
3272	0.6903
3281	0.6961
3290	0.6998
3299	0.7033
3308	0.7055
3317	0.7072
3326	0.7086
3335	0.7099
3344	0.7123
3353	0.7165
3362	0.7205
3371	0.7238
3380	0.7263
3389	0.7282
3398	0.7296
3407	0.7296
3416	0.7285
3425	0.7265
3434	0.7219
3443	0.7226
3452	0.7306
3461	0.7408
3470	0.7489
3479	0.7525
3488	0.7558
3497	0.7585
3506	0.761
3515	0.7635
3524	0.766
3533	0.7685
3542	0.7709
3551	0.7731
3560	0.7755
3569	0.7779
3578	0.7805
3587	0.783
3596	0.7861
3605	0.7891
3614	0.7924
3623	0.7944
3632	0.7958
3641	0.797
3650	0.797
3659	0.7968
3668	0.7966
3677	0.7963
3686	0.7956
3695	0.7948
3704	0.7943
3713	0.7941
3722	0.7948
3731	0.7965
3740	0.7979
3749	0.7992
3758	0.7999
3767	0.8002
3776	0.8005
3785	0.8003
3794	0.8001
3803	0.7999
3812	0.7993
