Infrared Spectrum: O-PHENETIDINE
Formula: C8 H11 N O
CAS: 94-70-2
State: LIQUID
Boiling point: 132 C AT 25 mmHg
Class: COBLENTZ
Instrument: Not specified, most likely a prism, grating, or hybrid spectrometer.
Sampling: TRANSMISSION
Path length: 0.003 CM
Resolution: 4
Origin: WYANDOTTE CHEMICALS CORP., WYANDOTTE, MICHIGAN, USA
MICROMETERS	TRANSMITTANCE
2.014	0.982
2.05479	0.976
2.09559	0.976
2.13638	0.972
2.17718	0.965
2.21797	0.959
2.25876	0.962
2.29956	0.947
2.34035	0.921
2.38115	0.919
2.42194	0.923
2.46274	0.935
2.50353	0.936
2.54432	0.941
2.58512	0.948
2.62591	0.952
2.66671	0.945
2.7075	0.936
2.74829	0.902
2.78909	0.709
2.82988	0.259
2.87068	0.317
2.91147	0.406
2.95227	0.141
2.99306	0.337
3.03385	0.715
3.07465	0.687
3.11544	0.675
3.15624	0.769
3.19703	0.691
3.23782	0.394
3.27862	0.511
3.31941	0.138
3.36021	0.259
3.401	0.296
3.4418	0.416
3.48259	0.718
3.52338	0.795
3.56418	0.827
3.60497	0.817
3.64577	0.832
3.68656	0.863
3.72735	0.854
3.76815	0.841
3.80894	0.87
3.84974	0.889
3.89053	0.848
3.93133	0.872
3.97212	0.86
4.01291	0.889
4.05371	0.897
4.0945	0.851
4.1353	0.863
4.17609	0.895
4.21688	0.907
4.25768	0.923
4.29847	0.933
4.33927	0.909
4.38006	0.895
4.42086	0.878
4.46165	0.901
4.50244	0.914
4.54324	0.914
4.58403	0.906
4.62483	0.909
4.66562	0.907
4.70641	0.897
4.74721	0.894
4.788	0.892
4.8288	0.889
4.86959	0.865
4.91039	0.839
4.95118	0.868
4.99197	0.872
5.03277	0.805
5.07356	0.836
5.11436	0.822
5.15515	0.829
5.19594	0.841
5.23674	0.812
5.27753	0.791
5.31833	0.819
5.35912	0.784
5.39992	0.788
5.44071	0.834
5.4815	0.834
5.5223	0.817
5.56309	0.832
5.60389	0.839
5.64468	0.82
5.68547	0.791
5.72627	0.776
5.76706	0.8
5.80786	0.795
5.84865	0.773
5.88945	0.759
5.93024	0.721
5.97103	0.645
6.01183	0.559
6.05262	0.353
6.09342	0.085
6.13421	0.032
6.175	0.052
6.2158	0.087
6.25659	0.187
6.29739	0.341
6.33818	0.44
6.37898	0.496
6.41977	0.493
6.46056	0.356
6.50136	0.191
6.54215	0.051
6.58295	0.054
6.62374	0.078
6.66453	0.199
6.70533	0.064
6.74612	0.307
6.78692	0.087
6.82771	0.283
6.86851	0.284
6.9093	0.474
6.95009	0.6
6.99089	0.616
7.03168	0.558
7.07248	0.399
7.11327	0.189
7.15406	0.127
7.19486	0.325
7.23565	0.547
7.27645	0.527
7.31724	0.595
7.35804	0.539
7.39883	0.344
7.43962	0.344
7.48042	0.529
7.52121	0.6
7.56201	0.564
7.6028	0.421
7.64359	0.291
7.68439	0.226
7.72518	0.104
7.76598	0.032
7.80677	0.03
7.84757	0.032
7.88836	0.081
7.92915	0.194
7.96995	0.237
8.01074	0.194
8.05154	0.098
8.09233	0.03
8.13312	0.025
8.17392	0.023
8.21471	0.023
8.25551	0.029
8.2963	0.08
8.3371	0.177
8.37789	0.302
8.41868	0.373
8.45948	0.459
8.50027	0.476
8.54107	0.404
8.58186	0.331
8.62265	0.252
8.66345	0.156
8.70424	0.083
8.74504	0.078
8.78583	0.16
8.82663	0.237
8.86742	0.225
8.90821	0.114
8.94901	0.076
8.9898	0.23
9.0306	0.295
9.07139	0.233
9.11218	0.187
9.15298	0.22
9.19377	0.233
9.23457	0.192
9.27536	0.163
9.31616	0.17
9.35695	0.206
9.39774	0.23
9.43854	0.153
9.47933	0.042
9.52013	0.025
9.56092	0.027
9.60171	0.042
9.64251	0.085
9.6833	0.148
9.7241	0.232
9.76489	0.325
9.80569	0.409
9.84648	0.489
9.88727	0.534
9.92807	0.573
9.96886	0.592
10.0097	0.61
10.0505	0.629
10.0912	0.643
10.132	0.65
10.1728	0.651
10.2136	0.651
10.2544	0.651
10.2952	0.646
10.336	0.641
10.3768	0.629
10.4176	0.619
10.4584	0.609
10.4992	0.6
10.54	0.595
10.5808	0.588
10.6216	0.559
10.6624	0.518
10.7032	0.433
10.744	0.302
10.7847	0.143
10.8255	0.109
10.8663	0.197
10.9071	0.259
10.9479	0.259
10.9887	0.238
11.0295	0.244
11.0703	0.286
11.1111	0.385
11.1519	0.472
11.1927	0.511
11.2335	0.539
11.2743	0.561
11.3151	0.573
11.3559	0.575
11.3967	0.575
11.4375	0.573
11.4782	0.564
11.519	0.558
11.5598	0.546
11.6006	0.534
11.6414	0.522
11.6822	0.505
11.723	0.484
11.7638	0.459
11.8046	0.44
11.8454	0.416
11.8862	0.414
11.927	0.424
11.9678	0.436
12.0086	0.452
12.0494	0.484
12.0902	0.494
12.131	0.496
12.1717	0.498
12.2125	0.501
12.2533	0.503
12.2941	0.503
12.3349	0.494
12.3757	0.491
12.4165	0.482
12.4573	0.472
12.4981	0.455
12.5389	0.447
12.5797	0.435
12.6205	0.416
12.6613	0.39
12.7021	0.363
12.7429	0.325
12.7837	0.267
12.8245	0.172
12.8652	0.116
12.906	0.117
12.9468	0.151
12.9876	0.177
13.0284	0.177
13.0692	0.165
13.11	0.145
13.1508	0.122
13.1916	0.1
13.2324	0.076
13.2732	0.054
13.314	0.049
13.3548	0.04
13.3956	0.04
13.4364	0.04
13.4772	0.04
13.518	0.04
13.5587	0.042
13.5995	0.042
13.6403	0.044
13.6811	0.051
13.7219	0.064
13.7627	0.098
13.8035	0.146
13.8443	0.192
13.8851	0.223
13.9259	0.247
13.9667	0.259
14.0075	0.267
14.0483	0.267
14.0891	0.267
14.1299	0.267
14.1707	0.269
14.2115	0.271
14.2522	0.271
14.293	0.271
14.3338	0.271
14.3746	0.274
14.4154	0.274
14.4562	0.276
14.497	0.278
14.5378	0.281
14.5786	0.283
14.6194	0.284
14.6602	0.286
14.701	0.288
14.7418	0.291
14.7826	0.296
14.8234	0.296
14.8642	0.298
14.905	0.303
14.9457	0.308
14.9865	0.334
15.0273	0.36
15.0681	0.365
15.1089	0.332
15.1497	0.329
15.1905	0.334
15.2313	0.343
15.2721	0.354
15.3129	0.368
15.3537	0.375
15.3945	0.389
15.4353	0.397
15.4761	0.406
15.5169	0.416
15.5577	0.424
15.5985	0.431
15.6393	0.436
15.68	0.443
15.7208	0.455
15.7616	0.464
15.8024	0.474
15.8432	0.477
15.884	0.488
15.9248	0.498
15.9656	0.503
