Infrared Spectrum: BENZYLAMINE, 2,4-DIMETHYL-
Formula: C9 H13 N
CAS: 94-98-4
State: SOLUTION (10% CCl4 FOR 3800-460 CM^-^1)
Class: COBLENTZ
Instrument: DOW KBr FOREPRISM-GRATING
Instrument parameters: BLAZED AT 3.5, 12.0, 20.0 MICRON AND CHANGED AT 5.0, 7.5, 14.9 MICRON
Sampling: TRANSMISSION
Path length: 0.011 CM
Resolution: 2
Origin: DOW CHEMICAL COMPANY
1/CM	TRANSMITTANCE
457	0.7843
466	0.799
475	0.795
484	0.7878
493	0.7691
502	0.7501
511	0.7608
520	0.78
529	0.779
538	0.7346
547	0.7547
556	0.7657
565	0.7318
574	0.5709
583	0.754
592	0.7858
601	0.7928
610	0.7937
619	0.7962
628	0.7986
637	0.7949
646	0.7883
655	0.7672
664	0.7718
673	0.7867
682	0.7811
691	0.7534
700	0.6692
709	0.648
718	0.6669
727	0.5734
736	0.2222
745	0.2209
754	0.2281
763	0.2348
772	0.241
781	0.2472
790	0.2532
799	0.2576
808	0.2622
817	0.2673
826	0.3184
835	0.3774
844	0.3994
853	0.4086
862	0.4326
871	0.4155
880	0.4374
889	0.574
898	0.6515
907	0.7192
916	0.7267
925	0.7317
934	0.7381
943	0.7415
952	0.7745
961	0.7768
970	0.7622
979	0.7436
988	0.755
997	0.7782
1006	0.7611
1015	0.6824
1024	0.6561
1033	0.5859
1042	0.6167
1051	0.6469
1060	0.7443
1069	0.7857
1078	0.8112
1087	0.8068
1096	0.7847
1105	0.8111
1114	0.8045
1123	0.814
1132	0.8082
1141	0.793
1150	0.7865
1159	0.7271
1168	0.8245
1177	0.8304
1186	0.8354
1195	0.8314
1204	0.8245
1213	0.8017
1222	0.8298
1231	0.8161
1240	0.7706
1249	0.775
1258	0.809
1267	0.8041
1276	0.7887
1285	0.7832
1294	0.7987
1303	0.7962
1312	0.7925
1321	0.7857
1330	0.7668
1339	0.7408
1348	0.7215
1357	0.7326
1366	0.6884
1375	0.4881
1384	0.5759
1393	0.6965
1402	0.7036
1411	0.6864
1420	0.6704
1429	0.626
1438	0.5093
1447	0.3884
1456	0.377
1465	0.4153
1474	0.4868
1483	0.5771
1492	0.5809
1501	0.3753
1510	0.5846
1519	0.6542
1528	0.6771
1537	0.6878
1546	0.6921
1555	0.6911
1564	0.6706
1573	0.6376
1582	0.631
1591	0.6308
1600	0.6165
1609	0.5384
1618	0.3905
1627	0.6107
1636	0.6341
1645	0.6757
1654	0.7311
1663	0.7765
1672	0.7961
1681	0.8111
1690	0.8254
1699	0.8386
1708	0.8525
1717	0.8621
1726	0.86
1735	0.8524
1744	0.8366
1753	0.842
1762	0.8546
1771	0.8612
1780	0.862
1789	0.864
1798	0.864
1807	0.8624
1816	0.8577
1825	0.8525
1834	0.8588
1843	0.8598
1852	0.8559
1861	0.8541
1870	0.8557
1879	0.8471
1888	0.8307
1897	0.8252
1906	0.8415
1915	0.8481
1924	0.8506
1933	0.8539
1942	0.8656
1951	0.8659
1960	0.8723
1969	0.8698
1978	0.8684
1987	0.8692
1996	0.8803
2005	0.8941
2014	0.8933
2023	0.8918
2032	0.8918
2041	0.8912
2050	0.8908
2059	0.8911
2068	0.8915
2077	0.8916
2086	0.8918
2095	0.892
2104	0.8921
2113	0.8923
2122	0.8924
2131	0.8925
2140	0.8928
2149	0.8928
2158	0.8924
2167	0.8918
2176	0.8914
2185	0.891
2194	0.8912
2203	0.8915
2212	0.8917
2221	0.892
2230	0.8921
2239	0.8917
2248	0.8914
2257	0.891
2266	0.8907
2275	0.8909
2284	0.8912
2293	0.8889
2302	0.8847
2311	0.8899
2320	0.8923
2329	0.8875
2338	0.8844
2347	0.8802
2356	0.8761
2365	0.8721
2374	0.8718
2383	0.871
2392	0.8688
2401	0.8655
2410	0.8621
2419	0.8578
2428	0.8536
2437	0.8524
2446	0.855
2455	0.8548
2464	0.8521
2473	0.8491
2482	0.8489
2491	0.8509
2500	0.8533
2509	0.8551
2518	0.8542
2527	0.8511
2536	0.8494
2545	0.8503
2554	0.8508
2563	0.8501
2572	0.8485
2581	0.8464
2590	0.843
2599	0.8396
2608	0.8361
2617	0.8324
2626	0.8285
2635	0.8245
2644	0.8206
2653	0.8161
2662	0.8107
2671	0.8049
2680	0.7997
2689	0.7967
2698	0.7921
2707	0.7844
2716	0.7698
2725	0.7375
2734	0.6944
2743	0.7258
2752	0.7286
2761	0.7222
2770	0.7128
2779	0.6958
2788	0.6818
2797	0.6715
2806	0.6468
2815	0.6234
2824	0.5922
2833	0.5391
2842	0.4705
2851	0.3787
2860	0.3157
2869	0.3113
2878	0.3332
2887	0.3402
2896	0.3348
2905	0.3042
2914	0.2406
2923	0.2004
2932	0.2577
2941	0.2534
2950	0.2675
2959	0.3144
2968	0.3237
2977	0.35
2986	0.422
2995	0.4172
3004	0.3688
3013	0.3962
3022	0.461
3031	0.4964
3040	0.5133
3049	0.6085
3058	0.6611
3067	0.6785
3076	0.6984
3085	0.7381
3094	0.7768
3103	0.7844
3112	0.7798
3121	0.7818
3130	0.7926
3139	0.804
3148	0.8072
3157	0.8068
3166	0.8049
3175	0.8034
3184	0.805
3193	0.8071
3202	0.8095
3211	0.8115
3220	0.8126
3229	0.8124
3238	0.81
3247	0.8058
3256	0.8011
3265	0.7964
3274	0.7915
3283	0.7861
3292	0.781
3301	0.7761
3310	0.7698
3319	0.7651
3328	0.7715
3337	0.7814
3346	0.7826
3355	0.7784
3364	0.7671
3373	0.7511
3382	0.733
3391	0.7288
3400	0.7464
3409	0.7742
3418	0.7912
3427	0.8008
3436	0.8078
3445	0.8134
3454	0.8184
3463	0.8225
3472	0.8264
3481	0.8301
3490	0.8333
3499	0.8364
3508	0.8395
3517	0.8421
3526	0.8451
3535	0.8477
3544	0.8501
3553	0.8524
3562	0.8544
3571	0.8564
3580	0.8583
3589	0.8595
3598	0.8602
3607	0.8607
3616	0.8612
3625	0.862
3634	0.8625
3643	0.8614
3652	0.8541
3661	0.846
3670	0.8365
3679	0.8439
3688	0.8625
3697	0.866
3706	0.8674
3715	0.868
3724	0.8686
3733	0.8688
3742	0.8692
3751	0.8693
3760	0.8696
3769	0.8698
3778	0.8702
3787	0.8699
3796	0.8696
