Infrared Spectrum: N-BUTRALDEHYDE PHENYLHYDRAZONE
Formula: C10 H14 N2
CAS: 940-54-5
State: LIQUID
Boiling point: 135-137 C AT 8 mmHg
Class: COBLENTZ
Instrument: Not specified, most likely a prism, grating, or hybrid spectrometer.
Sampling: TRANSMISSION
Path length: 0.003 CM
Resolution: 4
Origin: WYANDOTTE CHEMICALS CORP., WYANDOTTE, MICHIGAN, USA
MICROMETERS	TRANSMITTANCE
2.088	0.965
2.12793	0.965
2.16785	0.971
2.20778	0.958
2.24771	0.951
2.28764	0.95
2.32756	0.951
2.36749	0.951
2.40742	0.93
2.44735	0.926
2.48727	0.936
2.5272	0.945
2.56713	0.95
2.60706	0.95
2.64698	0.958
2.68691	0.951
2.72684	0.926
2.76677	0.91
2.80669	0.918
2.84662	0.911
2.88655	0.9
2.92647	0.883
2.9664	0.84
3.00633	0.74
3.04626	0.536
3.08618	0.644
3.12611	0.724
3.16604	0.802
3.20597	0.797
3.24589	0.686
3.28582	0.508
3.32575	0.601
3.36568	0.182
3.4056	0.186
3.44553	0.355
3.48546	0.289
3.52539	0.485
3.56531	0.749
3.60524	0.825
3.64517	0.843
3.6851	0.855
3.72502	0.867
3.76495	0.87
3.80488	0.873
3.8448	0.873
3.88473	0.868
3.92466	0.852
3.96459	0.862
4.00451	0.882
4.04444	0.887
4.08437	0.885
4.1243	0.878
4.16422	0.885
4.20415	0.88
4.24408	0.888
4.28401	0.908
4.32393	0.901
4.36386	0.897
4.40379	0.882
4.44372	0.883
4.48364	0.892
4.52357	0.892
4.5635	0.883
4.60342	0.885
4.64335	0.88
4.68328	0.868
4.72321	0.87
4.76313	0.867
4.80306	0.873
4.84299	0.873
4.88292	0.875
4.92284	0.872
4.96277	0.875
5.0027	0.867
5.04263	0.865
5.08255	0.85
5.12248	0.85
5.16241	0.832
5.20234	0.81
5.24226	0.792
5.28219	0.82
5.32212	0.835
5.36204	0.84
5.40197	0.83
5.4419	0.803
5.48183	0.789
5.52175	0.81
5.56168	0.825
5.60161	0.82
5.64154	0.808
5.68146	0.812
5.72139	0.813
5.76132	0.805
5.80125	0.767
5.84117	0.722
5.8811	0.691
5.92103	0.652
5.96096	0.642
6.00088	0.656
6.04081	0.661
6.08074	0.584
6.12067	0.418
6.16059	0.093
6.20052	0.034
6.24045	0.181
6.28037	0.438
6.3203	0.559
6.36023	0.616
6.40016	0.644
6.44008	0.616
6.48001	0.485
6.51994	0.272
6.55987	0.054
6.59979	0.036
6.63972	0.044
6.67965	0.171
6.71958	0.29
6.7595	0.377
6.79943	0.29
6.83936	0.315
6.87929	0.312
6.91921	0.435
6.95914	0.461
6.99907	0.536
7.03899	0.637
7.07892	0.687
7.11885	0.696
7.15878	0.664
7.1987	0.563
7.23863	0.47
7.27856	0.528
7.31849	0.524
7.35841	0.509
7.39834	0.539
7.43827	0.5
7.4782	0.458
7.51812	0.501
7.55805	0.415
7.59798	0.307
7.63791	0.197
7.67783	0.23
7.71776	0.38
7.75769	0.428
7.79761	0.458
7.83754	0.435
7.87747	0.229
7.9174	0.053
7.95732	0.034
7.99725	0.137
8.03718	0.325
8.07711	0.406
8.11703	0.421
8.15696	0.493
8.19689	0.578
8.23682	0.626
8.27674	0.644
8.31667	0.659
8.3566	0.669
8.39653	0.681
8.43645	0.662
8.47638	0.602
8.51631	0.44
8.55624	0.445
8.59616	0.357
8.63609	0.21
8.67602	0.222
8.71594	0.317
8.75587	0.32
8.7958	0.317
8.83573	0.332
8.87565	0.322
8.91558	0.245
8.95551	0.182
8.99544	0.191
9.03536	0.176
9.07529	0.21
9.11522	0.264
9.15515	0.318
9.19507	0.436
9.235	0.48
9.27493	0.365
9.31486	0.254
9.35478	0.31
9.39471	0.34
9.43464	0.33
9.47456	0.367
9.51449	0.425
9.55442	0.478
9.59435	0.534
9.63427	0.602
9.6742	0.636
9.71413	0.651
9.75406	0.656
9.79398	0.662
9.83391	0.672
9.87384	0.691
9.91377	0.696
9.95369	0.687
9.99362	0.636
10.0335	0.529
10.0735	0.627
10.1134	0.687
10.1533	0.714
10.1933	0.729
10.2332	0.734
10.2731	0.722
10.313	0.729
10.353	0.734
10.3929	0.74
10.4328	0.74
10.4727	0.744
10.5127	0.749
10.5526	0.764
10.5925	0.77
10.6325	0.772
10.6724	0.759
10.7123	0.747
10.7522	0.717
10.7922	0.669
10.8321	0.612
10.872	0.563
10.912	0.539
10.9519	0.568
10.9918	0.617
11.0317	0.667
11.0717	0.7
11.1116	0.71
11.1515	0.697
11.1914	0.666
11.2314	0.609
11.2713	0.559
11.3112	0.503
11.3512	0.473
11.3911	0.504
11.431	0.564
11.4709	0.644
11.5109	0.684
11.5508	0.707
11.5907	0.724
11.6306	0.735
11.6706	0.75
11.7105	0.754
11.7504	0.754
11.7904	0.749
11.8303	0.75
11.8702	0.752
11.9101	0.754
11.9501	0.75
11.99	0.749
12.0299	0.742
12.0698	0.732
12.1098	0.72
12.1497	0.71
12.1896	0.717
12.2296	0.714
12.2695	0.724
12.3094	0.732
12.3493	0.737
12.3893	0.739
12.4292	0.744
12.4691	0.745
12.509	0.744
12.549	0.742
12.5889	0.737
12.6288	0.73
12.6688	0.727
12.7087	0.72
12.7486	0.707
12.7885	0.679
12.8285	0.666
12.8684	0.639
12.9083	0.616
12.9482	0.578
12.9882	0.528
13.0281	0.473
13.068	0.415
13.108	0.347
13.1479	0.265
13.1878	0.189
13.2277	0.112
13.2677	0.068
13.3076	0.053
13.3475	0.048
13.3874	0.051
13.4274	0.086
13.4673	0.152
13.5072	0.247
13.5472	0.363
13.5871	0.45
13.627	0.516
13.6669	0.556
13.7069	0.588
13.7468	0.614
13.7867	0.627
13.8266	0.642
13.8666	0.654
13.9065	0.661
13.9464	0.664
13.9864	0.667
14.0263	0.657
14.0662	0.646
14.1061	0.634
14.1461	0.619
14.186	0.586
14.2259	0.548
14.2658	0.496
14.3058	0.42
14.3457	0.33
14.3856	0.247
14.4256	0.176
14.4655	0.131
14.5054	0.132
14.5453	0.167
14.5853	0.234
14.6252	0.322
14.6651	0.382
14.7051	0.408
14.745	0.435
14.7849	0.453
14.8248	0.471
14.8648	0.511
14.9047	0.534
14.9446	0.574
14.9845	0.594
15.0245	0.606
15.0644	0.617
15.1043	0.627
15.1443	0.632
15.1842	0.634
15.2241	0.637
15.264	0.639
15.304	0.641
15.3439	0.639
15.3838	0.641
15.4237	0.641
15.4637	0.644
15.5036	0.637
15.5435	0.632
15.5835	0.641
15.6234	0.642
15.6633	0.632
15.7032	0.632
15.7432	0.629
15.7831	0.622
15.823	0.629
15.8629	0.631
15.9029	0.631
15.9428	0.632
15.9827	0.639
