Infrared Spectrum: N-PHENYL-2,5-DIOXO-ISO-PYRROLE
Formula: C10 H7 N O2
CAS: 941-69-5
State: SOLID (1.0% IN KBr PELLET)
Class: COBLENTZ
Instrument: Not specified, most likely a prism, grating, or hybrid spectrometer.
Sampling: TRANSMISSION
Path length: 0.0355 CM THICK
Resolution: 4
Origin: ANDERSON PHYSICAL LABORATORY
1/CM	TRANSMITTANCE
666.145	0.388
674.593	0.2911
683.041	0.22
691.489	0.084
699.937	0.3217
708.385	0.726
716.833	0.849
725.281	0.854
733.729	0.821
742.178	0.716
750.626	0.286
759.074	0.5066
767.522	0.8459
775.97	0.861
784.418	0.84
792.866	0.819
801.314	0.777
809.762	0.708
818.21	0.521
826.658	0.163
835.106	0.42
843.554	0.63
852.002	0.6689
860.45	0.773
868.898	0.788
877.347	0.797
885.795	0.803
894.243	0.8
902.691	0.651
911.139	0.78
919.587	0.791
928.035	0.782
936.483	0.77
944.931	0.645
953.379	0.767
961.827	0.774
970.275	0.758
978.723	0.753
987.171	0.719
995.619	0.714
1004.07	0.696
1012.52	0.729
1020.96	0.684
1029.41	0.528
1037.86	0.717
1046.31	0.701
1054.76	0.68
1063.2	0.6031
1071.65	0.456
1080.1	0.675
1088.55	0.657
1097	0.636
1105.44	0.594
1113.89	0.53
1122.34	0.436
1130.79	0.3271
1139.24	0.231
1147.68	0.22
1156.13	0.3191
1164.58	0.412
1173.03	0.674
1181.48	0.776
1189.92	0.786
1198.37	0.737
1206.82	0.5751
1215.27	0.7469
1223.72	0.768
1232.17	0.764
1240.61	0.749
1249.06	0.738
1257.51	0.719
1265.96	0.701
1274.41	0.677
1282.85	0.629
1291.3	0.581
1299.75	0.617
1308.2	0.509
1316.65	0.621
1325.09	0.576
1333.54	0.548
1341.99	0.551
1350.44	0.519
1358.89	0.459
1367.33	0.367
1375.78	0.258
1384.23	0.211
1392.68	0.183
1401.13	0.213
1409.57	0.319
1418.02	0.474
1426.47	0.63
1434.92	0.699
1443.37	0.686
1451.81	0.6051
1460.26	0.6569
1468.71	0.693
1477.16	0.606
1485.61	0.4741
1494.05	0.426
1502.5	0.349
1510.95	0.339
1519.4	0.5629
1527.85	0.627
1536.3	0.635
1544.74	0.647
1553.19	0.63
1561.64	0.624
1570.09	0.597
1578.54	0.515
1586.98	0.439
1595.43	0.352
1603.88	0.5249
1612.33	0.542
1620.78	0.519
1629.22	0.484
1637.67	0.46
1646.12	0.42
1654.57	0.381
1663.02	0.331
1671.46	0.265
1679.91	0.214
1688.36	0.1391
1696.81	0.061
1705.26	0.051
1713.7	0.07
1722.15	0.111
1730.6	0.264
1739.05	0.327
1747.5	0.405
1755.94	0.474
1764.39	0.504
1772.84	0.537
1781.29	0.662
1789.74	0.747
1798.19	0.8
1806.63	0.825
1815.08	0.843
1823.53	0.858
1831.98	0.864
1840.43	0.869
1848.87	0.855
1857.32	0.857
1865.77	0.842
1874.22	0.827
1882.67	0.819
1891.11	0.81
1899.56	0.827
1908.01	0.843
1916.46	0.864
1924.91	0.861
1933.35	0.852
1941.8	0.851
1950.25	0.845
1958.7	0.818
1967.15	0.825
1975.59	0.822
1984.04	0.813
1992.49	0.842
2000.94	0.8475
2009.39	0.8455
2017.83	0.8422
2026.28	0.84
2034.73	0.837
2043.18	0.8319
2051.63	0.8224
2060.07	0.819
2068.52	0.8174
2076.97	0.8133
2085.42	0.8104
2093.87	0.8101
2102.32	0.8139
2110.76	0.8154
2119.21	0.8122
2127.66	0.8098
2136.11	0.803
2144.56	0.7988
2153	0.798
2161.45	0.8
2169.9	0.7993
2178.35	0.7974
2186.8	0.795
2195.24	0.7919
2203.69	0.7886
2212.14	0.7854
2220.59	0.7821
2229.04	0.7787
2237.48	0.7766
2245.93	0.776
2254.38	0.776
2262.83	0.7735
2271.28	0.7691
2279.72	0.7656
2288.17	0.7554
2296.62	0.7456
2305.07	0.7435
2313.52	0.741
2321.96	0.7429
2330.41	0.7462
2338.86	0.747
2347.31	0.749
2355.76	0.749
2364.21	0.749
2372.65	0.748
2381.1	0.747
2389.55	0.746
2398	0.7437
2406.45	0.741
2414.89	0.7402
2423.34	0.738
2431.79	0.737
2440.24	0.7359
2448.69	0.7324
2457.13	0.7279
2465.58	0.7257
2474.03	0.7224
2482.48	0.7192
2490.93	0.716
2499.37	0.716
2507.82	0.716
2516.27	0.717
2524.72	0.7172
2533.17	0.719
2541.61	0.717
2550.06	0.7161
2558.51	0.714
2566.96	0.713
2575.41	0.711
2583.85	0.7101
2592.3	0.708
2600.75	0.707
2609.2	0.7057
2617.65	0.705
2626.09	0.7037
2634.54	0.7016
2642.99	0.699
2651.44	0.6961
2659.89	0.6946
2668.34	0.692
2676.78	0.692
2685.23	0.6901
2693.68	0.684
2702.13	0.6821
2710.58	0.68
2719.02	0.68
2727.47	0.6793
2735.92	0.677
2744.37	0.677
2752.82	0.674
2761.26	0.672
2769.71	0.671
2778.16	0.669
2786.61	0.6679
2795.06	0.6592
2803.5	0.6544
2811.95	0.6514
2820.4	0.651
2828.85	0.6507
2837.3	0.6489
2845.74	0.6472
2854.19	0.645
2862.64	0.644
2871.09	0.6414
2879.54	0.6393
2887.98	0.6378
2896.43	0.636
2904.88	0.635
2913.33	0.6333
2921.78	0.6329
2930.23	0.6313
2938.67	0.6294
2947.12	0.6242
2955.57	0.6176
2964.02	0.6116
2972.47	0.6061
2980.91	0.6003
2989.36	0.5935
2997.81	0.5868
3006.26	0.5794
3014.71	0.5702
3023.15	0.5591
3031.6	0.5464
3040.05	0.5329
3048.5	0.5164
3056.95	0.4996
3065.39	0.498
3073.84	0.5028
3082.29	0.5362
3090.74	0.5933
3099.19	0.617
3107.63	0.6148
3116.08	0.6061
3124.53	0.605
3132.98	0.605
3141.43	0.6035
3149.87	0.603
3158.32	0.6015
3166.77	0.6
3175.22	0.6
3183.67	0.6
3192.11	0.599
3200.56	0.5965
3209.01	0.5914
3217.46	0.5869
3225.91	0.5834
3234.36	0.5784
3242.8	0.5752
3251.25	0.5729
3259.7	0.57
3268.15	0.569
3276.6	0.5662
3285.04	0.5627
3293.49	0.5563
3301.94	0.5502
3310.39	0.5451
3318.84	0.5386
3327.28	0.5329
3335.73	0.5274
3344.18	0.5214
3352.63	0.516
3361.08	0.5138
3369.52	0.508
3377.97	0.504
3386.42	0.5027
3394.87	0.4997
3403.32	0.4909
3411.76	0.4745
3420.21	0.466
3428.66	0.4725
3437.11	0.4926
3445.56	0.5058
3454	0.5136
3462.45	0.5199
3470.9	0.5235
3479.35	0.527
3487.8	0.5285
3496.25	0.5305
3504.69	0.5353
3513.14	0.54
3521.59	0.5458
3530.04	0.55
3538.49	0.5518
3546.93	0.554
3555.38	0.5573
3563.83	0.5605
3572.28	0.5638
3580.73	0.5671
3589.17	0.57
3597.62	0.572
3606.07	0.5728
3614.52	0.573
3622.97	0.573
3631.41	0.573
3639.86	0.5722
3648.31	0.572
3656.76	0.572
3665.21	0.5708
3673.65	0.57
3682.1	0.567
3690.55	0.566
3699	0.564
3707.45	0.5658
3715.89	0.5691
3724.34	0.572
3732.79	0.572
3741.24	0.572
3749.69	0.5698
3758.14	0.5666
3766.58	0.566
3775.03	0.564
3783.48	0.563
3791.93	0.561
3800.38	0.5603
3808.82	0.5581
3817.27	0.558
3825.72	0.558
3834.17	0.557
3842.62	0.557
3851.06	0.557
3859.51	0.557
3867.96	0.557
3876.41	0.557
3884.86	0.557
3893.3	0.5575
3901.75	0.558
3910.2	0.558
3918.65	0.5562
3927.1	0.5529
3935.54	0.5512
3943.99	0.549
3952.44	0.548
3960.89	0.5469
3969.34	0.546
3977.78	0.543
3986.23	0.542
