Infrared Spectrum: p-Cymene, 2-nitro-
Formula: C10 H13 N O2
CAS: 943-15-7
State: SOLUTION (10% CCl4 FOR 3800-1330, 10% CS2 FOR 1330-400 CM^-^1)
Class: COBLENTZ III
Instrument: DOW KBr FOREPRISM-GRATING
Instrument parameters: BLAZED AT 3.5, 12.0, 20.0 MICRON AND CHANGED AT 5.0, 7.5, 14.9 MICRON
Sampling: TRANSMISSION
Path length: 0.011 CM, 0.011 CM
Resolution: 2
Origin: DOW CHEMICAL COMPANY
1/CM	TRANSMITTANCE
405	0.3019
414	0.4743
423	0.5853
432	0.6205
441	0.6538
450	0.6825
459	0.7037
468	0.7207
477	0.7336
486	0.731
495	0.7246
504	0.7133
513	0.7109
522	0.7231
531	0.7287
540	0.7294
549	0.7299
558	0.7421
567	0.753
576	0.7469
585	0.7248
594	0.6832
603	0.6736
612	0.712
621	0.7585
630	0.7768
639	0.7688
648	0.748
657	0.7545
666	0.7127
675	0.6977
684	0.7389
693	0.7006
702	0.7263
711	0.7522
720	0.6658
729	0.6433
738	0.7505
747	0.7626
756	0.7201
765	0.4947
774	0.7599
783	0.7688
792	0.744
801	0.359
810	0.7067
819	0.6275
828	0.2033
837	0.6195
846	0.6666
855	0.6223
864	0.558
873	0.5919
882	0.6598
891	0.5148
900	0.6544
909	0.7343
918	0.6217
927	0.7394
936	0.7767
945	0.7729
954	0.7604
963	0.7689
972	0.7778
981	0.7769
990	0.7695
999	0.752
1008	0.7689
1017	0.7637
1026	0.7394
1035	0.6311
1044	0.7398
1053	0.677
1062	0.7066
1071	0.627
1080	0.5218
1089	0.7391
1098	0.7478
1107	0.7472
1116	0.7732
1125	0.7656
1134	0.7399
1143	0.7511
1152	0.7224
1161	0.5762
1170	0.7639
1179	0.7737
1188	0.7678
1197	0.7422
1206	0.5974
1215	0.6883
1224	0.7539
1233	0.7546
1242	0.7451
1251	0.7267
1260	0.696
1269	0.6186
1278	0.5224
1287	0.4528
1296	0.5871
1305	0.5661
1314	0.5003
1323	0.3961
1332	0.1729
1341	0.0578
1350	0.0209
1359	0.0761
1368	0.1743
1377	0.4238
1386	0.2347
1395	0.5998
1404	0.5982
1413	0.6361
1422	0.6404
1431	0.6035
1440	0.5016
1449	0.3553
1458	0.3104
1467	0.2851
1476	0.5185
1485	0.4915
1494	0.2959
1503	0.2503
1512	0.1998
1521	0.0632
1530	0.0014
1539	0.0162
1548	0.1321
1557	0.2287
1566	0.2552
1575	0.4093
1584	0.479
1593	0.5325
1602	0.6053
1611	0.6779
1620	0.6731
1629	0.7151
1638	0.776
1647	0.7803
1656	0.7753
1665	0.7959
1674	0.8119
1683	0.8192
1692	0.8261
1701	0.8331
1710	0.8389
1719	0.8408
1728	0.8419
1737	0.8461
1746	0.8449
1755	0.8389
1764	0.8294
1773	0.8115
1782	0.7942
1791	0.8042
1800	0.8182
1809	0.824
1818	0.825
1827	0.8242
1836	0.8241
1845	0.8197
1854	0.8132
1863	0.812
1872	0.8182
1881	0.8239
1890	0.8252
1899	0.8233
1908	0.8151
1917	0.7955
1926	0.8032
1935	0.8213
1944	0.8255
1953	0.8298
1962	0.8312
1971	0.8297
1980	0.8269
1989	0.8238
1998	0.8435
2007	0.852
2016	0.8525
2025	0.8528
2034	0.8529
2043	0.853
2052	0.853
2061	0.8528
2070	0.8527
2079	0.8535
2088	0.8546
2097	0.8564
2106	0.8582
2115	0.8588
2124	0.8588
2133	0.8571
2142	0.8558
2151	0.8548
2160	0.8548
2169	0.8547
2178	0.8548
2187	0.8548
2196	0.8548
2205	0.8541
2214	0.8533
2223	0.8503
2232	0.8478
2241	0.8454
2250	0.8434
2259	0.8417
2268	0.8388
2277	0.8322
2286	0.8266
2295	0.8302
2304	0.8425
2313	0.8587
2322	0.8628
2331	0.8623
2340	0.86
2349	0.8558
2358	0.8548
2367	0.8546
2376	0.8535
2385	0.851
2394	0.8466
2403	0.8409
2412	0.838
2421	0.8392
2430	0.8429
2439	0.8473
2448	0.8509
2457	0.852
2466	0.8531
2475	0.8537
2484	0.8542
2493	0.8547
2502	0.8554
2511	0.8561
2520	0.8566
2529	0.8565
2538	0.8552
2547	0.8526
2556	0.8489
2565	0.8451
2574	0.8412
2583	0.8382
2592	0.8386
2601	0.8429
2610	0.8461
2619	0.847
2628	0.8475
2637	0.8477
2646	0.8477
2655	0.8476
2664	0.8475
2673	0.8474
2682	0.8466
2691	0.8447
2700	0.8429
2709	0.8386
2718	0.8345
2727	0.8311
2736	0.8292
2745	0.8279
2754	0.8294
2763	0.8303
2772	0.8302
2781	0.8276
2790	0.8204
2799	0.8121
2808	0.8047
2817	0.7965
2826	0.7829
2835	0.7636
2844	0.7414
2853	0.7
2862	0.647
2871	0.5493
2880	0.3972
2889	0.5146
2898	0.5287
2907	0.5293
2916	0.5251
2925	0.4826
2934	0.3804
2943	0.3306
2952	0.4339
2961	0.2738
2970	0.0769
2979	0.0873
2988	0.2681
2997	0.506
3006	0.7146
3015	0.7475
3024	0.7561
3033	0.749
3042	0.7453
3051	0.7724
3060	0.7595
3069	0.72
3078	0.7692
3087	0.8198
3096	0.8356
3105	0.8443
3114	0.8497
3123	0.8512
3132	0.852
3141	0.8524
3150	0.8524
3159	0.8522
3168	0.8519
3177	0.8501
3186	0.8461
3195	0.8435
3204	0.8452
3213	0.847
3222	0.8492
3231	0.8515
3240	0.8539
3249	0.856
3258	0.8581
3267	0.8602
3276	0.8613
3285	0.8622
3294	0.8629
3303	0.8634
3312	0.864
3321	0.8645
3330	0.8651
3339	0.8656
3348	0.8651
3357	0.8645
3366	0.8642
3375	0.8639
3384	0.8635
3393	0.8622
3402	0.8609
3411	0.86
3420	0.8606
3429	0.861
3438	0.8617
3447	0.8625
3456	0.8633
3465	0.8641
3474	0.8648
3483	0.8655
3492	0.8659
3501	0.866
3510	0.8664
3519	0.8672
3528	0.868
3537	0.8688
3546	0.8698
3555	0.8707
3564	0.8716
3573	0.8725
3582	0.8735
3591	0.8745
3600	0.8754
3609	0.8764
3618	0.8774
3627	0.8785
3636	0.8794
3645	0.8801
3654	0.8788
3663	0.8788
3672	0.8797
3681	0.8806
3690	0.8815
3699	0.8807
3708	0.8786
3717	0.8765
3726	0.8777
3735	0.8792
3744	0.8805
3753	0.8817
3762	0.8827
3771	0.8836
3780	0.8841
3789	0.8844
3798	0.884
3807	0.8837
