Infrared Spectrum: PHENYL SULFOXIDE
Formula: C12 H10 O S
CAS: 945-51-7
State: SOLID (MULL)
Melting point: 69-70 C
Class: COBLENTZ
Instrument: Not specified, most likely a prism, grating, or hybrid spectrometer.
Sampling: TRANSMISSION
Resolution: 4
Origin: WYANDOTTE CHEMICALS CORP., WYANDOTTE, MICHIGAN, USA
MICROMETERS	TRANSMITTANCE
2.029	0.585
2.06889	0.595
2.10879	0.6
2.14868	0.603
2.18858	0.603
2.22847	0.606
2.26837	0.61
2.30826	0.616
2.34815	0.621
2.38805	0.626
2.42794	0.628
2.46784	0.641
2.50773	0.648
2.54763	0.656
2.58752	0.658
2.62741	0.666
2.66731	0.673
2.7072	0.679
2.7471	0.673
2.78699	0.689
2.82689	0.683
2.86678	0.681
2.90667	0.681
2.94657	0.683
2.98646	0.688
3.02636	0.681
3.06625	0.693
3.10615	0.694
3.14604	0.693
3.18593	0.686
3.22583	0.686
3.26572	0.626
3.30562	0.562
3.34551	0.354
3.38541	0.011
3.4253	0.014
3.46519	0.031
3.50509	0.036
3.54498	0.197
3.58488	0.333
3.62477	0.364
3.66467	0.354
3.70456	0.353
3.74445	0.354
3.78435	0.349
3.82424	0.368
3.86414	0.378
3.90403	0.383
3.94393	0.399
3.98382	0.406
4.02371	0.412
4.06361	0.416
4.1035	0.429
4.1434	0.436
4.18329	0.436
4.22319	0.432
4.26308	0.417
4.30297	0.427
4.34287	0.441
4.38276	0.477
4.42266	0.48
4.46255	0.475
4.50245	0.485
4.54234	0.487
4.58223	0.499
4.62213	0.509
4.66202	0.507
4.70192	0.515
4.74181	0.524
4.78171	0.524
4.8216	0.537
4.86149	0.533
4.90139	0.52
4.94128	0.548
4.98118	0.562
5.02107	0.572
5.06097	0.567
5.10086	0.567
5.14075	0.529
5.18065	0.524
5.22054	0.58
5.26044	0.578
5.30033	0.535
5.34023	0.55
5.38012	0.572
5.42001	0.625
5.45991	0.62
5.4998	0.603
5.5397	0.595
5.57959	0.592
5.61949	0.631
5.65938	0.597
5.69927	0.625
5.73917	0.636
5.77906	0.676
5.81896	0.651
5.85885	0.661
5.89875	0.673
5.93864	0.651
5.97853	0.661
6.01843	0.645
6.05832	0.683
6.09822	0.694
6.13811	0.699
6.17801	0.656
6.2179	0.679
6.25779	0.631
6.29769	0.459
6.33758	0.673
6.37748	0.684
6.41737	0.698
6.45727	0.689
6.49716	0.713
6.53705	0.698
6.57695	0.721
6.61684	0.724
6.65674	0.703
6.69663	0.623
6.73653	0.184
6.77642	0.097
6.81631	0.091
6.85621	0.157
6.8961	0.112
6.936	0.059
6.97589	0.321
7.01579	0.529
7.05568	0.625
7.09557	0.628
7.13547	0.603
7.17536	0.552
7.21526	0.338
7.25515	0.218
7.29505	0.406
7.33494	0.54
7.37483	0.645
7.41473	0.676
7.45462	0.66
7.49452	0.681
7.53441	0.699
7.57431	0.684
7.6142	0.606
7.65409	0.626
7.69399	0.693
7.73388	0.704
7.77378	0.744
7.81367	0.733
7.85357	0.742
7.89346	0.792
7.93335	0.827
7.97325	0.83
8.01314	0.82
8.05304	0.835
8.09293	0.849
8.13283	0.852
8.17272	0.844
8.21261	0.862
8.25251	0.878
8.2924	0.882
8.3323	0.898
8.37219	0.913
8.41209	0.917
8.45198	0.892
8.49187	0.855
8.53177	0.847
8.57166	0.84
8.61156	0.815
8.65145	0.729
8.69135	0.898
8.73124	0.94
8.77113	0.948
8.81103	0.958
8.85092	0.981
8.89082	0.985
8.93071	0.983
8.97061	0.968
9.0105	0.88
9.05039	0.744
9.09029	0.439
9.13018	0.194
9.17008	0.031
9.20997	0.067
9.24987	0.271
9.28976	0.286
9.32965	0.238
9.36955	0.558
9.40944	0.593
9.44934	0.626
9.48923	0.578
9.52913	0.378
9.56902	0.169
9.60891	0.029
9.64881	0.028
9.6887	0.061
9.7286	0.165
9.76849	0.049
9.80839	0.076
9.84828	0.268
9.88817	0.359
9.92807	0.353
9.96796	0.356
10.0079	0.308
10.0478	0.119
10.0876	0.301
10.1275	0.406
10.1674	0.417
10.2073	0.542
10.2472	0.58
10.2871	0.598
10.327	0.615
10.3669	0.651
10.4068	0.668
10.4467	0.676
10.4866	0.679
10.5265	0.701
10.5664	0.723
10.6063	0.739
10.6462	0.742
10.6861	0.716
10.726	0.668
10.7658	0.671
10.8057	0.718
10.8456	0.744
10.8855	0.709
10.9254	0.592
10.9653	0.507
11.0052	0.66
11.0451	0.774
11.085	0.81
11.1249	0.837
11.1648	0.842
11.2047	0.854
11.2446	0.868
11.2845	0.878
11.3244	0.89
11.3643	0.9
11.4042	0.91
11.4441	0.915
11.4839	0.913
11.5238	0.923
11.5637	0.933
11.6036	0.932
11.6435	0.922
11.6834	0.887
11.7233	0.842
11.7632	0.832
11.8031	0.799
11.843	0.867
11.8829	0.9
11.9228	0.878
11.9627	0.875
12.0026	0.918
12.0425	0.938
12.0824	0.95
12.1223	0.948
12.1621	0.955
12.202	0.965
12.2419	0.965
12.2818	0.965
12.3217	0.963
12.3616	0.976
12.4015	0.983
12.4414	0.985
12.4813	0.983
12.5212	0.981
12.5611	0.98
12.601	0.973
12.6409	0.976
12.6808	0.973
12.7207	0.97
12.7606	0.971
12.8005	0.956
12.8404	0.945
12.8802	0.933
12.9201	0.915
12.96	0.89
12.9999	0.855
13.0398	0.804
13.0797	0.709
13.1196	0.582
13.1595	0.339
13.1994	0.15
13.2393	0.076
13.2792	0.228
13.3191	0.49
13.359	0.618
13.3989	0.64
13.4388	0.582
13.4787	0.459
13.5186	0.285
13.5584	0.121
13.5983	0.041
13.6382	0.086
13.6781	0.235
13.718	0.434
13.7579	0.562
13.7978	0.648
13.8377	0.693
13.8776	0.719
13.9175	0.733
13.9574	0.774
13.9973	0.802
14.0372	0.817
14.0771	0.81
14.117	0.789
14.1569	0.739
14.1968	0.665
14.2367	0.557
14.2765	0.401
14.3164	0.27
14.3563	0.142
14.3962	0.086
14.4361	0.061
14.476	0.051
14.5159	0.071
14.5558	0.101
14.5957	0.124
14.6356	0.111
14.6755	0.111
14.7154	0.17
14.7553	0.275
14.7952	0.404
14.8351	0.494
14.875	0.553
14.9149	0.595
14.9547	0.626
14.9946	0.631
15.0345	0.611
15.0744	0.587
15.1143	0.631
15.1542	0.679
15.1941	0.691
15.234	0.701
15.2739	0.699
15.3138	0.688
15.3537	0.693
15.3936	0.691
15.4335	0.678
15.4734	0.666
15.5133	0.66
15.5532	0.663
15.5931	0.648
15.633	0.64
15.6728	0.64
15.7127	0.625
15.7526	0.611
15.7925	0.595
15.8324	0.573
15.8723	0.56
15.9122	0.552
15.9521	0.533
15.992	0.525
