Infrared Spectrum: UREA, 1,1'-p-PHENYLENEBIS[3-METHYL-3-NITROSO]-
Formula: C10 H12 N6 O4
CAS: 94602-15-0
State: SOLID (1 mg / 650 mg KBr DISC)
Class: COBLENTZ III
Instrument: PERKIN-ELMER 221 (GRATING)
Instrument parameters: FILTERS AT 2490, 980 CM ^-^1, NaCl PRISM FOR 1428-650 CM^-^1
Sampling: TRANSMISSION
Resolution: 4
Origin: SOUTHERN RES. INSTITUTE
1/CM	TRANSMITTANCE
629.678	0.487
638.85	0.611
648.023	0.676
657.195	0.684
666.368	0.694
675.54	0.76
684.712	0.831
693.885	0.834
703.057	0.833
712.229	0.827
721.402	0.815
730.574	0.676
739.747	0.345
748.919	0.791
758.091	0.788
767.264	0.414
776.436	0.131
785.609	0.607
794.781	0.853
803.953	0.713
813.126	0.582
822.298	0.416
831.471	0.274
840.643	0.582
849.815	0.829
858.988	0.813
868.16	0.758
877.332	0.655
886.505	0.554
895.677	0.649
904.85	0.773
914.022	0.744
923.194	0.692
932.367	0.628
941.539	0.526
950.712	0.413
959.884	0.269
969.056	0.17
978.229	0.075
987.401	0.041
996.573	0.343
1005.75	0.573
1014.92	0.691
1024.09	0.732
1033.26	0.806
1042.44	0.802
1051.61	0.788
1060.78	0.767
1069.95	0.72
1079.12	0.647
1088.3	0.484
1097.47	0.237
1106.64	0.089
1115.81	0.144
1124.99	0.281
1134.16	0.392
1143.33	0.558
1152.5	0.742
1161.68	0.764
1170.85	0.763
1180.02	0.738
1189.19	0.681
1198.37	0.626
1207.54	0.373
1216.71	0.26
1225.88	0.39
1235.06	0.4
1244.23	0.599
1253.4	0.719
1262.57	0.733
1271.75	0.734
1280.92	0.718
1290.09	0.592
1299.26	0.534
1308.43	0.617
1317.61	0.496
1326.78	0.458
1335.95	0.572
1345.12	0.589
1354.3	0.543
1363.47	0.54
1372.64	0.549
1381.81	0.525
1390.99	0.436
1400.16	0.31
1409.33	0.112
1418.5	0.263
1427.68	0.458
1436.85	0.441
1446.02	0.405
1455.19	0.35
1464.37	0.236
1473.54	0.092
1482.71	0.08
1491.88	0.102
1501.05	0.224
1510.23	0.354
1519.4	0.27
1528.57	0.235
1537.74	0.199
1546.92	0.061
1556.09	0.044
1565.26	0.106
1574.43	0.194
1583.61	0.388
1592.78	0.512
1601.95	0.556
1611.12	0.637
1620.3	0.67
1629.47	0.678
1638.64	0.674
1647.81	0.671
1656.99	0.664
1666.16	0.611
1675.33	0.496
1684.5	0.433
1693.67	0.363
1702.85	0.139
1712.02	0.041
1721.19	0.079
1730.36	0.175
1739.54	0.363
1748.71	0.506
1757.88	0.603
1767.05	0.695
1776.23	0.764
1785.4	0.813
1794.57	0.847
1803.74	0.877
1812.92	0.9
1822.09	0.908
1831.26	0.928
1840.43	0.94
1849.61	0.952
1858.78	0.962
1867.95	0.968
1877.12	0.968
1886.29	0.96
1895.47	0.954
1904.64	0.949
1913.81	0.962
1922.98	0.971
1932.16	0.976
1941.33	0.986
1950.5	0.989
1959.67	0.99
1968.85	0.99
1978.02	0.987
1987.19	0.98
1996.36	0.978
2005.54	0.977
2014.71	0.977
2023.88	0.978
2033.05	0.977
2042.23	0.971
2051.4	0.966
2060.57	0.961
2069.74	0.958
2078.92	0.957
2088.09	0.957
2097.26	0.956
2106.43	0.952
2115.6	0.949
2124.78	0.947
2133.95	0.948
2143.12	0.949
2152.29	0.949
2161.47	0.949
2170.64	0.944
2179.81	0.939
2188.98	0.934
2198.16	0.928
2207.33	0.924
2216.5	0.926
2225.67	0.927
2234.85	0.926
2244.02	0.922
2253.19	0.917
2262.36	0.912
2271.54	0.907
2280.71	0.904
2289.88	0.904
2299.05	0.905
2308.22	0.907
2317.4	0.907
2326.57	0.907
2335.74	0.905
2344.91	0.904
2354.09	0.902
2363.26	0.901
2372.43	0.901
2381.6	0.9
2390.78	0.898
2399.95	0.895
2409.12	0.894
2418.29	0.891
2427.47	0.89
2436.64	0.889
2445.81	0.888
2454.98	0.887
2464.16	0.885
2473.33	0.882
2482.5	0.879
2491.67	0.877
2500.84	0.874
2510.02	0.871
2519.19	0.868
2528.36	0.865
2537.53	0.865
2546.71	0.866
2555.88	0.867
2565.05	0.866
2574.22	0.863
2583.4	0.859
2592.57	0.856
2601.74	0.854
2610.91	0.853
2620.09	0.853
2629.26	0.853
2638.43	0.853
2647.6	0.854
2656.78	0.856
2665.95	0.858
2675.12	0.859
2684.29	0.856
2693.46	0.854
2702.64	0.85
2711.81	0.846
2720.98	0.843
2730.15	0.842
2739.33	0.84
2748.5	0.839
2757.67	0.837
2766.84	0.835
2776.02	0.832
2785.19	0.831
2794.36	0.826
2803.53	0.815
2812.71	0.812
2821.88	0.808
2831.05	0.805
2840.22	0.802
2849.4	0.801
2858.57	0.806
2867.74	0.805
2876.91	0.802
2886.09	0.796
2895.26	0.792
2904.43	0.779
2913.6	0.763
2922.77	0.75
2931.95	0.748
2941.12	0.748
2950.29	0.752
2959.46	0.769
2968.64	0.777
2977.81	0.77
2986.98	0.765
2996.15	0.767
3005.33	0.768
3014.5	0.77
3023.67	0.768
3032.84	0.763
3042.02	0.757
3051.19	0.754
3060.36	0.752
3069.53	0.751
3078.71	0.75
3087.88	0.748
3097.05	0.748
3106.22	0.748
3115.39	0.749
3124.57	0.749
3133.74	0.75
3142.91	0.75
3152.08	0.751
3161.26	0.75
3170.43	0.749
3179.6	0.745
3188.77	0.741
3197.95	0.735
3207.12	0.731
3216.29	0.726
3225.46	0.719
3234.64	0.713
3243.81	0.706
3252.98	0.697
3262.15	0.684
3271.33	0.672
3280.5	0.659
3289.67	0.652
3298.84	0.629
3308.01	0.594
3317.19	0.538
3326.36	0.475
3335.53	0.404
3344.7	0.331
3353.88	0.257
3363.05	0.184
3372.22	0.458
3381.39	0.622
3390.57	0.719
3399.74	0.724
3408.91	0.726
3418.08	0.728
3427.26	0.734
3436.43	0.738
3445.6	0.745
3454.77	0.748
3463.95	0.751
3473.12	0.754
3482.29	0.757
3491.46	0.758
3500.63	0.759
3509.81	0.759
3518.98	0.76
3528.15	0.761
3537.32	0.762
3546.5	0.764
3555.67	0.766
3564.84	0.77
3574.01	0.773
3583.19	0.779
3592.36	0.783
3601.53	0.786
3610.7	0.789
3619.88	0.791
3629.05	0.791
3638.22	0.791
3647.39	0.791
3656.57	0.789
3665.74	0.789
3674.91	0.788
3684.08	0.786
3693.26	0.786
3702.43	0.786
3711.6	0.787
3720.77	0.787
3729.94	0.787
3739.12	0.786
3748.29	0.786
3757.46	0.785
3766.63	0.784
3775.81	0.783
3784.98	0.782
3794.15	0.78
3803.32	0.779
3812.5	0.777
3821.67	0.776
3830.84	0.774
3840.01	0.772
3849.19	0.771
3858.36	0.77
3867.53	0.768
3876.7	0.766
3885.88	0.765
3895.05	0.762
3904.22	0.759
3913.39	0.757
3922.56	0.756
3931.74	0.755
3940.91	0.755
3950.08	0.754
3959.25	0.754
3968.43	0.754
3977.6	0.754
3986.77	0.754
3995.94	0.754
