Infrared Spectrum: BENZOTRIAZOLE
Formula: C6 H5 N3
CAS: 95-14-7
State: SOLID (OIL MULL)
Class: COBLENTZ
Instrument: Not specified, most likely a prism, grating, or hybrid spectrometer.
Sampling: TRANSMISSION
Resolution: 4
Origin: WYANDOTTE CHEMICALS CORP., WYANDOTTE, MICHIGAN, USA
MICROMETERS	TRANSMITTANCE
2.034	0.259
2.0749	0.276
2.11579	0.279
2.15669	0.296
2.19759	0.291
2.23849	0.298
2.27938	0.308
2.32028	0.32
2.36118	0.339
2.40207	0.348
2.44297	0.348
2.48387	0.354
2.52476	0.375
2.56566	0.395
2.60656	0.406
2.64746	0.423
2.68835	0.423
2.72925	0.435
2.77015	0.45
2.81104	0.469
2.85194	0.47
2.89284	0.474
2.93373	0.501
2.97463	0.505
3.01553	0.477
3.05643	0.448
3.09732	0.409
3.13822	0.351
3.17912	0.281
3.22001	0.262
3.26091	0.196
3.30181	0.189
3.3427	0.087
3.3836	0.022
3.4245	0.022
3.4654	0.039
3.50629	0.03
3.54719	0.148
3.58809	0.179
3.62898	0.204
3.66988	0.235
3.71078	0.223
3.75167	0.244
3.79257	0.279
3.83347	0.286
3.87437	0.295
3.91526	0.322
3.95616	0.351
3.99706	0.36
4.03795	0.372
4.07885	0.397
4.11975	0.424
4.16065	0.436
4.20154	0.445
4.24244	0.455
4.28334	0.459
4.32423	0.482
4.36513	0.513
4.40603	0.54
4.44692	0.547
4.48782	0.566
4.52872	0.575
4.56962	0.592
4.61051	0.597
4.65141	0.61
4.69231	0.617
4.7332	0.629
4.7741	0.648
4.815	0.656
4.85589	0.658
4.89679	0.67
4.93769	0.677
4.97859	0.684
5.01948	0.699
5.06038	0.696
5.10128	0.699
5.14217	0.708
5.18307	0.697
5.22397	0.706
5.26486	0.699
5.30576	0.703
5.34666	0.706
5.38756	0.718
5.42845	0.73
5.46935	0.723
5.51025	0.72
5.55114	0.716
5.59204	0.708
5.63294	0.699
5.67383	0.706
5.71473	0.711
5.75563	0.703
5.79653	0.711
5.83742	0.708
5.87832	0.697
5.91922	0.701
5.96011	0.73
6.00101	0.752
6.04191	0.759
6.0828	0.767
6.1237	0.675
6.1646	0.764
6.2055	0.745
6.24639	0.738
6.28729	0.771
6.32819	0.791
6.36908	0.791
6.40998	0.8
6.45088	0.774
6.49178	0.786
6.53267	0.773
6.57357	0.766
6.61447	0.745
6.65536	0.761
6.69626	0.754
6.73716	0.668
6.77805	0.344
6.81895	0.199
6.85985	0.315
6.90075	0.482
6.94164	0.571
6.98254	0.65
7.02344	0.614
7.06433	0.585
7.10523	0.612
7.14613	0.646
7.18702	0.65
7.22792	0.474
7.26882	0.453
7.30972	0.61
7.35061	0.74
7.39151	0.767
7.43241	0.79
7.4733	0.82
7.5142	0.832
7.5551	0.831
7.59599	0.813
7.63689	0.75
7.67779	0.766
7.71869	0.839
7.75958	0.875
7.80048	0.713
7.84138	0.757
7.88227	0.621
7.92317	0.754
7.96407	0.875
8.00496	0.924
8.04586	0.936
8.08676	0.902
8.12766	0.851
8.16855	0.793
8.20945	0.401
8.25035	0.232
8.29124	0.196
8.33214	0.452
8.37304	0.558
8.41394	0.641
8.45483	0.697
8.49573	0.747
8.53663	0.769
8.57752	0.807
8.61842	0.843
8.65932	0.873
8.70021	0.708
8.74111	0.769
8.78201	0.798
8.82291	0.875
8.8638	0.853
8.9047	0.851
8.9456	0.87
8.98649	0.902
9.02739	0.843
9.06829	0.713
9.10918	0.715
9.15008	0.737
9.19098	0.74
9.23188	0.674
9.27277	0.726
9.31367	0.798
9.35457	0.848
9.39546	0.885
9.43636	0.899
9.47726	0.912
9.51815	0.904
9.55905	0.907
9.59995	0.94
9.64085	0.945
9.68174	0.945
9.72264	0.854
9.76354	0.489
9.80443	0.568
9.84533	0.564
9.88623	0.638
9.92712	0.426
9.96802	0.552
10.0089	0.738
10.0498	0.817
10.0907	0.812
10.1316	0.773
10.1725	0.721
10.2134	0.726
10.2543	0.8
10.2952	0.831
10.3361	0.858
10.377	0.863
10.4179	0.87
10.4588	0.873
10.4997	0.868
10.5406	0.853
10.5815	0.839
10.6224	0.853
10.6633	0.832
10.7042	0.817
10.7451	0.858
10.786	0.872
10.8269	0.873
10.8678	0.873
10.9087	0.872
10.9496	0.856
10.9904	0.829
11.0313	0.718
11.0722	0.732
11.1131	0.716
11.154	0.687
11.1949	0.715
11.2358	0.721
11.2767	0.697
11.3176	0.684
11.3585	0.663
11.3994	0.65
11.4403	0.636
11.4812	0.636
11.5221	0.636
11.563	0.643
11.6039	0.655
11.6448	0.674
11.6857	0.687
11.7266	0.701
11.7675	0.706
11.8084	0.72
11.8493	0.725
11.8902	0.732
11.9311	0.759
11.972	0.766
12.0129	0.771
12.0538	0.778
12.0947	0.783
12.1356	0.786
12.1765	0.796
12.2174	0.8
12.2583	0.798
12.2992	0.802
12.34	0.81
12.3809	0.808
12.4218	0.812
12.4627	0.812
12.5036	0.82
12.5445	0.822
12.5854	0.827
12.6263	0.836
12.6672	0.834
12.7081	0.831
12.749	0.81
12.7899	0.633
12.8308	0.443
12.8717	0.414
12.9126	0.573
12.9535	0.598
12.9944	0.6
13.0353	0.598
13.0762	0.675
13.1171	0.769
13.158	0.737
13.1989	0.662
13.2398	0.459
13.2807	0.244
13.3216	0.201
13.3625	0.218
13.4034	0.22
13.4443	0.158
13.4852	0.122
13.5261	0.131
13.567	0.165
13.6079	0.303
13.6488	0.441
13.6897	0.522
13.7305	0.588
13.7714	0.627
13.8123	0.658
13.8532	0.679
13.8941	0.687
13.935	0.709
13.9759	0.735
14.0168	0.755
14.0577	0.757
14.0986	0.766
14.1395	0.774
14.1804	0.776
14.2213	0.781
14.2622	0.798
14.3031	0.807
14.344	0.819
14.3849	0.829
14.4258	0.834
14.4667	0.844
14.5076	0.848
14.5485	0.851
14.5894	0.851
14.6303	0.851
14.6712	0.849
14.7121	0.846
14.753	0.849
14.7939	0.837
14.8348	0.837
14.8757	0.837
14.9166	0.834
14.9575	0.824
14.9984	0.779
15.0393	0.718
15.0801	0.696
15.121	0.74
15.1619	0.776
15.2028	0.764
15.2437	0.747
15.2846	0.73
15.3255	0.716
15.3664	0.697
15.4073	0.682
15.4482	0.668
15.4891	0.646
15.53	0.634
15.5709	0.636
15.6118	0.617
15.6527	0.609
15.6936	0.593
15.7345	0.578
15.7754	0.561
15.8163	0.534
15.8572	0.511
15.8981	0.486
15.939	0.477
15.9799	0.457
