Infrared Spectrum: INDENE
Formula: C9 H8
CAS: 95-13-6
State: SOLUTION (10% IN CCl4 FOR 3800-1330, 10% IN CS2 FOR 1330-450 CM^-^1)
Class: COBLENTZ III
Instrument: DOW KBr FOREPRISM-GRATING
Instrument parameters: BLAZED AT 3.5, 12.0, 20.0 MICRON, CHANGED AT 5.0, 7.5, 14.9 MICRON
Sampling: TRANSMISSION
Path length: 0.011, 0.011 CM
Resolution: 4
Origin: DOW CHEMICAL COMPANY
1/CM	TRANSMITTANCE
442.632	0.981
451.068	0.996
459.505	1.005
467.941	1.017
476.378	1.027
484.814	1.039
493.251	1.048
501.687	1.054
510.124	1.059
518.56	1.058
526.996	1.056
535.433	1.048
543.869	1.005
552.306	0.758
560.742	1.07
569.179	1.083
577.615	1.077
586.052	1.033
594.488	1.034
602.925	1.079
611.361	1.08
619.797	1.08
628.234	1.072
636.67	1.048
645.107	1.018
653.543	0.998
661.98	1.036
670.416	1.007
678.853	0.965
687.289	0.56
695.725	0.442
704.162	0.871
712.598	0.5698
721.035	0.307
729.471	0.807
737.908	0.945
746.344	0.912
754.781	0.808
763.217	0.009
771.653	0.175
780.09	0.84
788.526	0.981
796.963	1.025
805.399	1.036
813.836	1.033
822.272	1.029
830.709	0.927
839.145	0.965
847.582	0.9
856.018	0.788
864.454	0.6731
872.891	0.931
881.327	0.969
889.764	0.989
898.2	1
906.637	0.937
915.073	0.2152
923.51	0.815
931.946	0.885
940.382	0.59
948.819	0.5491
957.255	1.026
965.692	1.03
974.128	1.054
982.565	1.07
991.001	1.079
999.438	1.079
1007.87	1.059
1016.31	0.8739
1024.75	1.062
1033.18	1.073
1041.62	1.071
1050.06	1.063
1058.49	1.035
1066.93	0.7792
1075.37	1.035
1083.8	1.05
1092.24	1.046
1100.67	1.011
1109.11	0.985
1117.55	0.919
1125.98	1.002
1134.42	1.023
1142.86	1.021
1151.29	1.001
1159.73	1
1168.17	0.996
1176.6	1.05
1185.04	1.066
1193.48	1.059
1201.91	0.9519
1210.35	1.025
1218.79	0.961
1227.22	0.816
1235.66	1.058
1244.09	1.063
1252.53	1.068
1260.97	1.059
1269.4	1.051
1277.84	1.046
1286.28	0.957
1294.71	1.023
1303.15	0.959
1311.59	0.763
1320.02	0.941
1328.46	0.873
1336.9	0.941
1345.33	0.985
1353.77	0.963
1362.2	0.743
1370.64	0.963
1379.08	0.912
1387.51	0.799
1395.95	0.084
1404.39	0.932
1412.82	0.986
1421.26	0.997
1429.7	0.988
1438.13	0.973
1446.57	0.936
1455.01	0.7059
1463.44	0.4141
1471.88	0.7831
1480.32	0.924
1488.75	0.904
1497.19	0.883
1505.62	0.858
1514.06	0.811
1522.5	0.756
1530.93	0.715
1539.37	0.632
1547.81	0.533
1556.24	0.499
1564.68	0.643
1573.12	0.676
1581.55	0.726
1589.99	0.759
1598.43	0.825
1606.86	0.824
1615.3	0.772
1623.73	0.871
1632.17	0.898
1640.61	0.94
1649.04	0.963
1657.48	0.963
1665.92	0.99
1674.35	0.984
1682.79	0.951
1691.23	0.956
1699.66	0.985
1708.1	0.99
1716.54	1.009
1724.97	1.014
1733.41	1.006
1741.84	1.011
1750.28	1.019
1758.72	1.021
1767.15	1.013
1775.59	1.007
1784.03	0.988
1792.46	0.977
1800.9	0.96
1809.34	1
1817.77	0.988
1826.21	0.956
1834.65	0.985
1843.08	0.985
1851.52	0.974
1859.96	0.959
1868.39	0.965
1876.83	1
1885.26	0.957
1893.7	0.994
1902.14	1.002
1910.57	0.976
1919.01	1
1927.45	1.013
1935.88	0.988
1944.32	0.953
1952.76	1.021
1961.19	1.027
1969.63	1.03
1978.07	1.031
1986.5	1.034
1994.94	1.036
2003.37	1.038
2011.81	1.038
2020.25	1.04
2028.68	1.044
2037.12	1.044
2045.56	1.0251
2053.99	1.035
2062.43	1.04
2070.87	1.046
2079.3	1.046
2087.74	1.04
2096.18	1.042
2104.61	1.047
2113.05	1.048
2121.49	1.046
2129.92	1.043
2138.36	1.042
2146.79	1.043
2155.23	1.043
2163.67	1.0401
2172.1	1.035
2180.54	1.038
2188.98	1.04
2197.41	1.043
2205.85	1.042
2214.29	1.039
2222.72	1.038
2231.16	1.034
2239.6	1.025
2248.03	1.0251
2256.47	1.025
2264.9	1.022
2273.34	1.0171
2281.78	1.015
2290.21	1.017
2298.65	1.01
2307.09	1.009
2315.52	1.0139
2323.96	1.0208
2332.4	1.022
2340.83	1.0249
2349.27	1.027
2357.71	1.03
2366.14	1.033
2374.58	1.035
2383.02	1.036
2391.45	1.036
2399.89	1.0379
2408.32	1.0331
2416.76	1.0339
2425.2	1.036
2433.63	1.0302
2442.07	1.034
2450.51	1.035
2458.94	1.033
2467.38	1.033
2475.82	1.033
2484.25	1.03
2492.69	1.033
2501.13	1.033
2509.56	1.033
2518	1.026
2526.43	1.0309
2534.87	1.033
2543.31	1.031
2551.74	1.0261
2560.18	1.029
2568.62	1.027
2577.05	1.027
2585.49	1.025
2593.93	1.014
2602.36	1.026
2610.8	1.025
2619.24	1.025
2627.67	1.031
2636.11	1.0291
2644.54	1.0288
2652.98	1.0251
2661.42	1.0221
2669.85	1.021
2678.29	1.026
2686.73	1.027
2695.16	1.027
2703.6	1.025
2712.04	1.025
2720.47	1.023
2728.91	1.022
2737.35	1.0153
2745.78	1.0104
2754.22	1.0013
2762.66	0.9565
2771.09	0.8863
2779.53	0.999
2787.96	1.0179
2796.4	1.023
2804.84	1.0141
2813.27	1.014
2821.71	1.014
2830.15	1.0113
2838.58	1.009
2847.02	0.9974
2855.46	0.9824
2863.89	0.9643
2872.33	0.9174
2880.77	0.8113
2889.2	0.657
2897.64	0.7145
2906.07	0.7245
2914.51	0.8825
2922.95	0.9629
2931.38	0.973
2939.82	0.973
2948.26	0.981
2956.69	0.9695
2965.13	0.959
2973.57	0.9732
2982	0.9652
2990.44	0.9415
2998.88	0.8678
3007.31	0.7659
3015.75	0.6283
3024.19	0.5675
3032.62	0.7492
3041.06	0.6639
3049.49	0.5901
3057.93	0.5304
3066.37	0.3892
3074.8	0.5346
3083.24	0.6
3091.68	0.82
3100.11	0.9274
3108.55	0.9109
3116.99	0.9445
3125.42	0.9664
3133.86	0.9337
3142.3	0.9519
3150.73	0.9972
3159.17	1.0018
3167.6	1.0012
3176.04	1.0008
3184.48	1.0022
3192.91	1.0002
3201.35	0.9936
3209.79	0.992
3218.22	0.996
3226.66	0.993
3235.1	0.989
3243.53	0.9876
3251.97	0.988
3260.41	0.9812
3268.84	0.98
3277.28	0.977
3285.71	0.9684
3294.15	0.9602
3302.59	0.961
3311.02	0.961
3319.46	0.96
3327.9	0.9575
3336.33	0.957
3344.77	0.957
3353.21	0.9534
3361.64	0.948
3370.08	0.9415
3378.52	0.9362
3386.95	0.9335
3395.39	0.933
3403.83	0.933
3412.26	0.936
3420.7	0.94
3429.13	0.9438
3437.57	0.9505
3446.01	0.953
3454.44	0.9568
3462.88	0.961
3471.32	0.9675
3479.75	0.9723
3488.19	0.976
3496.63	0.9777
3505.06	0.984
3513.5	0.988
3521.94	0.9915
3530.37	0.99
3538.81	0.989
3547.24	0.99
3555.68	0.994
3564.12	0.9995
3572.55	1.001
3580.99	1
3589.43	0.9963
3597.86	0.9905
3606.3	0.9915
3614.74	0.9967
3623.17	1.001
3631.61	1.001
3640.05	1
3648.48	0.998
3656.92	0.998
3665.36	1
3673.79	1
3682.23	0.998
3690.66	0.997
3699.1	1.0007
3707.54	1
3715.97	0.998
3724.41	0.996
3732.85	0.993
3741.28	0.996
3749.72	1
3758.16	1.001
3766.59	1.0003
3775.03	0.9973
3783.47	0.996
