Infrared Spectrum: 2-AMINO-6-CHLOROBENZOTHIAZOLE
Formula: C7 H5 Cl N2 S
CAS: 95-24-9
State: SOLID (MINERAL OIL MULL)
Class: COBLENTZ
Instrument: Not specified, most likely a prism, grating, or hybrid spectrometer.
Sampling: TRANSMISSION
Resolution: 4
Origin: DOW CHEMICAL COMPANY
MICROMETERS	TRANSMITTANCE
2.021	0.562
2.06211	0.568
2.10323	0.58
2.14434	0.587
2.18545	0.589
2.22657	0.589
2.26768	0.589
2.30879	0.599
2.34991	0.603
2.39102	0.616
2.43213	0.63
2.47325	0.638
2.51436	0.649
2.55547	0.654
2.59659	0.664
2.6377	0.664
2.67881	0.678
2.71993	0.679
2.76104	0.679
2.80215	0.681
2.84327	0.63
2.88438	0.5
2.92549	0.659
2.96661	0.647
3.00772	0.599
3.04883	0.597
3.08995	0.614
3.13106	0.565
3.17217	0.494
3.21329	0.432
3.2544	0.458
3.29551	0.511
3.33663	0.449
3.37774	0.137
3.41885	0.168
3.45997	0.247
3.50108	0.519
3.54219	0.671
3.58331	0.703
3.62442	0.689
3.66553	0.705
3.70665	0.727
3.74776	0.739
3.78887	0.746
3.82999	0.758
3.8711	0.77
3.91221	0.773
3.95333	0.78
3.99444	0.787
4.03555	0.792
4.07667	0.798
4.11778	0.802
4.15889	0.804
4.2	0.809
4.24112	0.81
4.28223	0.821
4.32334	0.822
4.36446	0.827
4.40557	0.827
4.44668	0.829
4.4878	0.831
4.52891	0.834
4.57002	0.836
4.61114	0.838
4.65225	0.844
4.69336	0.85
4.73448	0.848
4.77559	0.85
4.8167	0.853
4.85782	0.865
4.89893	0.867
4.94004	0.868
4.98116	0.873
5.02227	0.873
5.06338	0.875
5.1045	0.879
5.14561	0.879
5.18672	0.88
5.22784	0.882
5.26895	0.875
5.31006	0.872
5.35118	0.884
5.39229	0.885
5.4334	0.889
5.47452	0.892
5.51563	0.894
5.55674	0.894
5.59786	0.894
5.63897	0.892
5.68008	0.884
5.7212	0.887
5.76231	0.889
5.80342	0.879
5.84454	0.884
5.88565	0.882
5.92676	0.87
5.96788	0.853
6.00899	0.792
6.0501	0.63
6.09122	0.354
6.13233	0.31
6.17344	0.632
6.21456	0.703
6.25567	0.718
6.29678	0.749
6.3379	0.768
6.37901	0.766
6.42012	0.701
6.46124	0.553
6.50235	0.269
6.54346	0.39
6.58458	0.676
6.62569	0.761
6.6668	0.754
6.70792	0.691
6.74903	0.635
6.79014	0.519
6.83126	0.39
6.87237	0.235
6.91348	0.311
6.9546	0.584
6.99571	0.604
7.03682	0.696
7.07794	0.717
7.11905	0.734
7.16016	0.727
7.20128	0.642
7.24239	0.577
7.2835	0.618
7.32462	0.66
7.36573	0.703
7.40684	0.678
7.44796	0.638
7.48907	0.666
7.53018	0.679
7.5713	0.645
7.61241	0.563
7.65352	0.62
7.69464	0.688
7.73575	0.695
7.77686	0.611
7.81798	0.597
7.85909	0.722
7.9002	0.766
7.94132	0.802
7.98243	0.776
8.02354	0.79
8.06466	0.793
8.10577	0.8
8.14688	0.816
8.188	0.826
8.22911	0.829
8.27022	0.834
8.31133	0.836
8.35245	0.841
8.39356	0.843
8.43467	0.846
8.47579	0.846
8.5169	0.843
8.55801	0.843
8.59913	0.843
8.64024	0.841
8.68135	0.841
8.72247	0.833
8.76358	0.829
8.80469	0.834
8.84581	0.829
8.88692	0.812
8.92803	0.775
8.96915	0.734
9.01026	0.708
9.05137	0.747
9.09249	0.749
9.1336	0.787
9.17471	0.819
9.21583	0.851
9.25694	0.867
9.29805	0.868
9.33917	0.87
9.38028	0.872
9.42139	0.873
9.46251	0.85
9.50362	0.81
9.54473	0.855
9.58585	0.872
9.62696	0.872
9.66807	0.87
9.70919	0.865
9.7503	0.86
9.79141	0.86
9.83253	0.863
9.87364	0.873
9.91475	0.877
9.95587	0.879
9.99698	0.88
10.0381	0.882
10.0792	0.875
10.1203	0.873
10.1614	0.872
10.2025	0.867
10.2437	0.87
10.2848	0.877
10.3259	0.879
10.367	0.882
10.4081	0.887
10.4492	0.887
10.4903	0.887
10.5315	0.885
10.5726	0.88
10.6137	0.877
10.6548	0.88
10.6959	0.885
10.737	0.887
10.7781	0.889
10.8192	0.89
10.8604	0.892
10.9015	0.896
10.9426	0.896
10.9837	0.899
11.0248	0.901
11.0659	0.899
11.107	0.88
11.1482	0.834
11.1893	0.788
11.2304	0.827
11.2715	0.868
11.3126	0.877
11.3537	0.879
11.3948	0.879
11.4359	0.872
11.4771	0.86
11.5182	0.807
11.5593	0.712
11.6004	0.65
11.6415	0.701
11.6826	0.788
11.7237	0.841
11.7649	0.867
11.806	0.875
11.8471	0.88
11.8882	0.885
11.9293	0.884
11.9704	0.87
12.0115	0.821
12.0526	0.734
12.0938	0.7
12.1349	0.77
12.176	0.781
12.2171	0.741
12.2582	0.614
12.2993	0.509
12.3404	0.64
12.3816	0.781
12.4227	0.79
12.4638	0.79
12.5049	0.798
12.546	0.819
12.5871	0.827
12.6282	0.827
12.6693	0.817
12.7105	0.807
12.7516	0.797
12.7927	0.785
12.8338	0.773
12.8749	0.759
12.916	0.739
12.9571	0.708
12.9983	0.669
13.0394	0.613
13.0805	0.584
13.1216	0.623
13.1627	0.696
13.2038	0.749
13.2449	0.776
13.286	0.787
13.3272	0.787
13.3683	0.787
13.4094	0.78
13.4505	0.775
13.4916	0.768
13.5327	0.761
13.5738	0.754
13.615	0.746
13.6561	0.737
13.6972	0.727
13.7383	0.717
13.7794	0.708
13.8205	0.705
13.8616	0.701
13.9027	0.706
13.9439	0.706
13.985	0.708
14.0261	0.708
14.0672	0.703
14.1083	0.698
14.1494	0.684
14.1905	0.669
14.2317	0.659
14.2728	0.655
14.3139	0.664
14.355	0.671
14.3961	0.672
14.4372	0.669
14.4783	0.664
14.5194	0.659
14.5606	0.652
14.6017	0.649
14.6428	0.642
14.6839	0.632
14.725	0.623
14.7661	0.618
14.8072	0.616
14.8483	0.609
14.8895	0.603
14.9306	0.601
14.9717	0.601
15.0128	0.599
15.0539	0.589
15.095	0.579
15.1361	0.567
15.1773	0.558
15.2184	0.551
15.2595	0.545
15.3006	0.538
15.3417	0.531
15.3828	0.522
15.4239	0.514
15.465	0.504
15.5062	0.499
15.5473	0.492
15.5884	0.485
15.6295	0.48
15.6706	0.477
15.7117	0.47
15.7528	0.466
15.794	0.461
15.8351	0.456
15.8762	0.454
15.9173	0.463
