Infrared Spectrum: 2-BENZOTHIAZOLESULFENAMIDE, N-(1,1-DIMETHYLETHYL)-
Formula: C11 H14 N2 S2
CAS: 95-31-8
State: SOLID (SPLIT MULL, FLUOROLUBE FOR 3800-1330, AND NUJOL FOR 1330-460 CM ^-^1)
Melting point: 105 C
Class: COBLENTZ III
Instrument: DOW KBr FOREPRISM-GRATING
Instrument parameters: BLAZED AT 3.5, 12.0, 20.0 MICRON, CHANGED AT 5.0, 7.5, 14.9 MICRON
Sampling: TRANSMISSION
Resolution: 4
Origin: DOW CHEMICAL COMPANY
1/CM	TRANSMITTANCE
379.3	0.815
388.046	0.815
396.793	0.819
405.539	0.818
414.285	0.813
423.032	0.762
431.778	0.725
440.525	0.893
449.271	0.897
458.017	0.897
466.764	0.889
475.51	0.916
484.256	0.92
493.003	0.941
501.749	0.946
510.495	0.946
519.242	0.946
527.988	0.952
536.734	0.949
545.481	0.945
554.227	0.949
562.974	0.946
571.72	0.934
580.466	0.901
589.213	0.8
597.959	0.905
606.705	0.871
615.452	0.828
624.198	0.791
632.944	0.832
641.691	0.923
650.437	0.957
659.183	0.96
667.93	0.717
676.676	0.991
685.423	1.002
694.169	1
702.915	0.982
711.662	0.971
720.408	0.828
729.154	0.169
737.901	0.98
746.647	0.931
755.393	0.098
764.14	0.813
772.886	1.002
781.632	1.012
790.379	1.016
799.125	1.012
807.872	1.004
816.618	0.994
825.364	0.991
834.111	0.979
842.857	0.949
851.603	0.74
860.35	0.892
869.096	0.832
877.842	0.851
886.589	0.914
895.335	0.926
904.082	0.89
912.828	0.601
921.574	0.811
930.321	0.744
939.067	0.877
947.813	0.905
956.56	0.903
965.306	0.89
974.052	0.897
982.799	0.892
991.545	0.87
1000.29	0.798
1009.04	0.332
1017.78	0.743
1026.53	0.549
1035.28	0.889
1044.02	0.884
1052.77	0.869
1061.52	0.882
1070.26	0.832
1079.01	0.742
1087.76	0.852
1096.5	0.881
1105.25	0.9
1113.99	0.893
1122.74	0.871
1131.49	0.86
1140.23	0.871
1148.98	0.852
1157.73	0.793
1166.47	0.822
1175.22	0.758
1183.96	0.618
1192.71	0.526
1201.46	0.38
1210.2	0.661
1218.95	0.678
1227.7	0.562
1236.44	0.416
1245.19	0.746
1253.94	0.774
1262.68	0.769
1271.43	0.678
1280.17	0.702
1288.92	0.725
1297.67	0.706
1306.41	0.658
1315.16	0.691
1323.91	0.714
1332.65	0.706
1341.4	0.687
1350.15	0.727
1358.89	0.684
1367.64	0.747
1376.38	0.727
1385.13	0.63
1393.88	0.753
1402.62	0.697
1411.37	0.631
1420.12	0.418
1428.86	0.125
1437.61	0.5751
1446.36	0.491
1455.1	0.2
1463.85	0.5251
1472.59	0.631
1481.34	0.98
1490.09	0.979
1498.83	0.972
1507.58	0.957
1516.33	0.945
1525.07	0.941
1533.82	0.934
1542.57	0.933
1551.31	0.924
1560.06	0.912
1568.8	0.939
1577.55	0.922
1586.3	0.912
1595.04	0.927
1603.79	0.915
1612.54	0.916
1621.28	0.918
1630.03	0.914
1638.78	0.914
1647.52	0.912
1656.27	0.904
1665.01	0.901
1673.76	0.897
1682.51	0.89
1691.25	0.89
1700	0.89
1708.75	0.892
1717.49	0.89
1726.24	0.892
1734.99	0.893
1743.73	0.893
1752.48	0.893
1761.22	0.892
1769.97	0.89
1778.72	0.866
1787.46	0.892
1796.21	0.892
1804.96	0.889
1813.7	0.884
1822.45	0.888
1831.2	0.89
1839.94	0.889
1848.69	0.885
1857.43	0.881
1866.18	0.877
1874.93	0.884
1883.67	0.882
1892.42	0.879
1901.17	0.863
1909.91	0.878
1918.66	0.878
1927.41	0.877
1936.15	0.869
1944.9	0.862
1953.64	0.878
1962.39	0.87
1971.14	0.869
1979.88	0.864
1988.63	0.862
1997.38	0.86
2006.12	0.859
2014.87	0.859
2023.62	0.8585
2032.36	0.8534
2041.11	0.849
2049.85	0.849
2058.6	0.845
2067.35	0.843
2076.09	0.84
2084.84	0.836
2093.59	0.833
2102.33	0.8308
2111.08	0.8244
2119.83	0.819
2128.57	0.818
2137.32	0.817
2146.06	0.814
2154.81	0.8094
2163.56	0.806
2172.3	0.8007
2181.05	0.7967
2189.8	0.795
2198.54	0.792
2207.29	0.788
2216.04	0.784
2224.78	0.7763
2233.53	0.7662
2242.27	0.7596
2251.02	0.757
2259.77	0.7519
2268.51	0.7446
2277.26	0.7406
2286.01	0.739
2294.75	0.7353
2303.5	0.732
2312.25	0.725
2320.99	0.7263
2329.74	0.7295
2338.48	0.731
2347.23	0.728
2355.98	0.727
2364.72	0.7242
2373.47	0.723
2382.22	0.721
2390.96	0.72
2399.71	0.718
2408.46	0.718
2417.2	0.717
2425.95	0.714
2434.69	0.7121
2443.44	0.71
2452.19	0.709
2460.93	0.7062
2469.68	0.705
2478.43	0.705
2487.17	0.705
2495.92	0.705
2504.67	0.703
2513.41	0.7021
2522.16	0.6991
2530.9	0.697
2539.65	0.694
2548.4	0.693
2557.14	0.69
2565.89	0.686
2574.64	0.682
2583.38	0.678
2592.13	0.675
2600.88	0.672
2609.62	0.669
2618.37	0.668
2627.11	0.665
2635.86	0.661
2644.61	0.66
2653.35	0.658
2662.1	0.657
2670.85	0.654
2679.59	0.6499
2688.34	0.646
2697.08	0.6429
2705.83	0.638
2714.58	0.635
2723.32	0.633
2732.07	0.63
2740.82	0.627
2749.56	0.6239
2758.31	0.6177
2767.06	0.615
2775.8	0.6107
2784.55	0.6036
2793.29	0.5937
2802.04	0.5887
2810.79	0.5843
2819.53	0.5713
2828.28	0.5586
2837.03	0.5488
2845.77	0.525
2854.52	0.5108
2863.27	0.512
2872.01	0.5174
2880.76	0.5218
2889.5	0.5143
2898.25	0.51
2907	0.51
2915.74	0.5027
2924.49	0.4847
2933.24	0.488
2941.98	0.4653
2950.73	0.3995
2959.48	0.3383
2968.22	0.3696
2976.97	0.5401
2985.71	0.476
2994.46	0.6047
3003.21	0.5933
3011.95	0.5836
3020.7	0.574
3029.45	0.574
3038.19	0.572
3046.94	0.5602
3055.69	0.537
3064.43	0.5594
3073.18	0.564
3081.92	0.562
3090.67	0.5574
3099.42	0.5502
3108.16	0.5427
3116.91	0.536
3125.66	0.5311
3134.4	0.5241
3143.15	0.5167
3151.9	0.5102
3160.64	0.503
3169.39	0.4971
3178.13	0.4861
3186.88	0.471
3195.63	0.449
3204.37	0.421
3213.12	0.3919
3221.87	0.3609
3230.61	0.3374
3239.36	0.3016
3248.11	0.2881
3256.85	0.3418
3265.6	0.4366
3274.34	0.4811
3283.09	0.507
3291.84	0.5319
3300.58	0.5486
3309.33	0.555
3318.08	0.556
3326.82	0.555
3335.57	0.551
3344.32	0.547
3353.06	0.5428
3361.81	0.5387
3370.55	0.5347
3379.3	0.532
3388.05	0.529
3396.79	0.526
3405.54	0.523
3414.29	0.5213
3423.03	0.519
3431.78	0.517
3440.53	0.515
3449.27	0.514
3458.02	0.512
3466.76	0.5103
3475.51	0.508
3484.26	0.507
3493	0.506
3501.75	0.5032
3510.5	0.503
3519.24	0.502
3527.99	0.502
3536.74	0.5
3545.48	0.4992
3554.23	0.497
3562.97	0.496
3571.72	0.495
3580.47	0.4934
3589.21	0.492
3597.96	0.491
3606.71	0.489
3615.45	0.488
3624.2	0.4853
3632.95	0.4823
3641.69	0.481
3650.44	0.4783
3659.18	0.478
3667.93	0.478
3676.68	0.477
3685.42	0.474
3694.17	0.473
3702.92	0.473
3711.66	0.472
3720.41	0.47
3729.16	0.47
3737.9	0.4671
3746.65	0.466
3755.39	0.466
3764.14	0.462
