Infrared Spectrum: BENZENE, 1-BROMO-2-METHYL-
Formula: C7 H7 Br
CAS: 95-46-5
State: SOLUTION (11% IN CCl4 FOR 3800-1300, 11% IN CS2 FOR 1300-620, AND 11% IN CCl4 FOR 620-250 CM^-^1) VERSUS SOLVENT
Class: COBLENTZ III
Instrument: PERKIN-ELMER 521 (GRATING)
Instrument parameters: FILTERS AT 3150, 2500, 2000, 1150, 700, 410; GRATING CHANGES AT 2000, 630 CM^-^1
Sampling: TRANSMISSION
Path length: 0.010, 0.010, AND 0.020 CM (CsBr CELL)
Resolution: 4
Origin: DOW CORNING CORP.
1/CM	TRANSMITTANCE
237.048	0.975
245.991	0.949
254.933	0.938
263.876	0.924
272.818	0.912
281.761	0.875
290.703	0.833
299.646	0.8469
308.588	0.914
317.531	0.914
326.473	0.91
335.416	0.912
344.358	0.907
353.301	0.909
362.243	0.902
371.186	0.903
380.128	0.902
389.071	0.909
398.013	0.898
406.956	0.881
415.898	0.863
424.841	0.8251
433.783	0.4303
442.726	0.7949
451.668	0.851
460.611	0.854
469.553	0.86
478.496	0.8351
487.438	0.865
496.381	0.868
505.323	0.867
514.266	0.868
523.208	0.867
532.151	0.86
541.093	0.7622
550.036	0.8329
558.978	0.867
567.921	0.874
576.863	0.874
585.806	0.874
594.748	0.87
603.691	0.867
612.633	0.863
621.576	0.861
630.518	0.858
639.461	0.847
648.403	0.823
657.346	0.5596
666.288	0.7769
675.231	0.853
684.173	0.865
693.116	0.874
702.058	0.868
711.001	0.879
719.943	0.863
728.886	0.823
737.828	0.5921
746.771	0.0894
755.713	0.5777
764.656	0.821
773.598	0.858
782.541	0.872
791.483	0.854
800.426	0.75
809.368	0.886
818.311	0.895
827.253	0.893
836.196	0.888
845.138	0.879
854.081	0.868
863.023	0.891
871.966	0.9
880.908	0.9
889.851	0.9
898.793	0.9
907.736	0.9
916.678	0.895
925.621	0.886
934.563	0.8121
943.506	0.874
952.448	0.868
961.391	0.884
970.333	0.868
979.276	0.853
988.218	0.818
997.161	0.7651
1006.1	0.776
1015.05	0.7529
1023.99	0.5902
1032.93	0.022
1041.87	0.631
1050.82	0.7895
1059.76	0.851
1068.7	0.816
1077.64	0.872
1086.59	0.87
1095.53	0.872
1104.47	0.891
1113.41	0.868
1122.36	0.823
1131.3	0.853
1140.24	0.8679
1149.18	0.875
1158.13	0.867
1167.07	0.884
1176.01	0.888
1184.95	0.893
1193.9	0.893
1202.84	0.886
1211.78	0.886
1220.72	0.896
1229.67	0.895
1238.61	0.898
1247.55	0.893
1256.49	0.893
1265.44	0.875
1274.38	0.8
1283.32	0.8579
1292.26	0.882
1301.21	0.91
1310.15	0.928
1319.09	0.93
1328.03	0.919
1336.98	0.91
1345.92	0.907
1354.86	0.893
1363.8	0.895
1372.75	0.888
1381.69	0.7812
1390.63	0.863
1399.57	0.865
1408.52	0.826
1417.46	0.826
1426.4	0.702
1435.34	0.5829
1444.29	0.643
1453.23	0.524
1462.17	0.351
1471.11	0.2772
1480.06	0.423
1489	0.639
1497.94	0.821
1506.88	0.875
1515.83	0.893
1524.77	0.902
1533.71	0.919
1542.65	0.93
1551.6	0.923
1560.54	0.884
1569.48	0.6202
1578.42	0.797
1587.37	0.844
1596.31	0.7601
1605.25	0.872
1614.19	0.895
1623.14	0.9
1632.08	0.9
1641.02	0.902
1649.96	0.902
1658.91	0.896
1667.85	0.895
1676.79	0.875
1685.73	0.875
1694.68	0.893
1703.62	0.893
1712.56	0.893
1721.5	0.9
1730.45	0.9
1739.39	0.895
1748.33	0.905
1757.27	0.905
1766.22	0.903
1775.16	0.895
1784.1	0.872
1793.04	0.8609
1801.99	0.9
1810.93	0.9
1819.87	0.889
1828.81	0.881
1837.76	0.898
1846.7	0.907
1855.64	0.907
1864.58	0.9
1873.53	0.884
1882.47	0.896
1891.41	0.891
1900.35	0.888
1909.3	0.832
1918.24	0.889
1927.18	0.903
1936.12	0.893
1945.07	0.868
1954.01	0.888
1962.95	0.905
1971.89	0.909
1980.84	0.907
1989.78	0.912
1998.72	0.914
2007.66	0.914
2016.61	0.913
2025.55	0.912
2034.49	0.912
2043.43	0.909
2052.38	0.9081
2061.32	0.905
2070.26	0.903
2079.2	0.903
2088.15	0.907
2097.09	0.907
2106.03	0.907
2114.97	0.907
2123.92	0.909
2132.86	0.9054
2141.8	0.9058
2150.74	0.907
2159.69	0.903
2168.63	0.902
2177.57	0.9
2186.51	0.902
2195.46	0.905
2204.4	0.905
2213.34	0.905
2222.28	0.905
2231.23	0.9056
2240.17	0.9034
2249.11	0.9027
2258.05	0.9
2267	0.9
2275.94	0.902
2284.88	0.9006
2293.82	0.902
2302.77	0.903
2311.71	0.9005
2320.65	0.9007
2329.59	0.9097
2338.54	0.912
2347.48	0.914
2356.42	0.9116
2365.36	0.907
2374.31	0.9028
2383.25	0.898
2392.19	0.8952
2401.13	0.8953
2410.08	0.891
2419.02	0.893
2427.96	0.8958
2436.9	0.895
2445.85	0.8958
2454.79	0.895
2463.73	0.8959
2472.67	0.893
2481.62	0.893
2490.56	0.893
2499.5	0.893
2508.44	0.891
2517.39	0.891
2526.33	0.891
2535.27	0.891
2544.21	0.8898
2553.16	0.8879
2562.1	0.8851
2571.04	0.8881
2579.98	0.8869
2588.93	0.8809
2597.87	0.8782
2606.81	0.886
2615.75	0.8885
2624.7	0.889
2633.64	0.89
2642.58	0.891
2651.52	0.891
2660.47	0.891
2669.41	0.891
2678.35	0.893
2687.29	0.8921
2696.24	0.891
2705.18	0.8901
2714.12	0.891
2723.06	0.891
2732.01	0.8882
2740.95	0.874
2749.89	0.8818
2758.83	0.889
2767.78	0.891
2776.72	0.891
2785.66	0.891
2794.6	0.891
2803.55	0.8881
2812.49	0.8842
2821.43	0.8746
2830.37	0.8669
2839.32	0.8549
2848.26	0.8299
2857.2	0.825
2866.14	0.8187
2875.09	0.814
2884.03	0.8282
2892.97	0.8322
2901.91	0.8153
2910.86	0.7728
2919.8	0.7523
2928.74	0.6668
2937.68	0.7187
2946.63	0.7449
2955.57	0.7002
2964.51	0.7083
2973.45	0.741
2982.4	0.6707
2991.34	0.704
3000.28	0.7959
3009.22	0.7869
3018.17	0.7479
3027.11	0.7432
3036.05	0.795
3044.99	0.7691
3053.94	0.73
3062.88	0.655
3071.82	0.6313
3080.76	0.7419
3089.71	0.806
3098.65	0.8489
3107.59	0.8725
3116.53	0.8807
3125.48	0.877
3134.42	0.877
3143.36	0.8802
3152.3	0.8842
3161.25	0.886
3170.19	0.888
3179.13	0.8902
3188.07	0.891
3197.02	0.8921
3205.96	0.896
3214.9	0.8971
3223.84	0.8981
3232.79	0.9
3241.73	0.9001
3250.67	0.902
3259.61	0.902
3268.56	0.9025
3277.5	0.9
3286.44	0.905
3295.38	0.905
3304.33	0.905
3313.27	0.905
3322.21	0.905
3331.15	0.907
3340.1	0.905
3349.04	0.905
3357.98	0.905
3366.92	0.905
3375.87	0.905
3384.81	0.905
3393.75	0.905
3402.69	0.905
3411.64	0.907
3420.58	0.907
3429.52	0.9078
3438.46	0.91
3447.41	0.909
3456.35	0.909
3465.29	0.9082
3474.23	0.907
3483.18	0.909
3492.12	0.909
3501.06	0.9093
3510	0.91
3518.95	0.912
3527.89	0.912
3536.83	0.91
3545.77	0.912
3554.72	0.912
3563.66	0.914
3572.6	0.912
3581.54	0.9186
3590.49	0.9213
3599.43	0.914
3608.37	0.9163
3617.31	0.919
3626.26	0.9213
3635.2	0.9158
3644.14	0.9152
3653.08	0.9377
3662.03	0.9194
3670.97	0.9339
3679.91	0.9191
3688.85	0.9254
3697.8	0.9162
3706.74	0.9204
3715.68	0.919
3724.62	0.921
3733.57	0.924
3742.51	0.9273
3751.45	0.9339
3760.39	0.9221
3769.34	0.9204
3778.28	0.916
3787.22	0.916
3796.16	0.9183
