Infrared Spectrum: DIMETHYLGLYOXIME
Formula: C4 H8 N2 O2
CAS: 95-45-4
State: SOLID (MINERAL OIL MULL)
Class: COBLENTZ
Instrument: Not specified, most likely a prism, grating, or hybrid spectrometer.
Sampling: TRANSMISSION
Resolution: 4
Origin: DOW CHEMICAL COMPANY
MICROMETERS	TRANSMITTANCE
2.027	0.799
2.0682	0.799
2.10939	0.799
2.15059	0.801
2.19179	0.806
2.23298	0.809
2.27418	0.812
2.31538	0.821
2.35658	0.833
2.39777	0.841
2.43897	0.853
2.48017	0.863
2.52136	0.872
2.56256	0.882
2.60376	0.892
2.64495	0.897
2.68615	0.901
2.72735	0.909
2.76854	0.909
2.80974	0.909
2.85094	0.88
2.89214	0.787
2.93333	0.629
2.97453	0.505
3.01573	0.392
3.05692	0.301
3.09812	0.244
3.13932	0.27
3.18051	0.318
3.22171	0.355
3.26291	0.391
3.3041	0.442
3.3453	0.416
3.3865	0.226
3.4277	0.205
3.46889	0.338
3.51009	0.545
3.55129	0.683
3.59248	0.726
3.63368	0.761
3.67488	0.782
3.71607	0.797
3.75727	0.804
3.79847	0.816
3.83966	0.84
3.88086	0.846
3.92206	0.855
3.96326	0.863
4.00445	0.875
4.04565	0.88
4.08685	0.884
4.12804	0.887
4.16924	0.886
4.21044	0.886
4.25163	0.886
4.29283	0.897
4.33403	0.904
4.37522	0.906
4.41642	0.908
4.45762	0.908
4.49882	0.908
4.54001	0.909
4.58121	0.911
4.62241	0.913
4.6636	0.914
4.7048	0.918
4.746	0.92
4.78719	0.921
4.82839	0.923
4.86959	0.93
4.91078	0.928
4.95198	0.909
4.99318	0.914
5.03438	0.93
5.07557	0.93
5.11677	0.921
5.15797	0.913
5.19916	0.921
5.24036	0.926
5.28156	0.925
5.32275	0.925
5.36395	0.93
5.40515	0.935
5.44634	0.937
5.48754	0.937
5.52874	0.937
5.56994	0.937
5.61113	0.937
5.65233	0.937
5.69353	0.937
5.73472	0.937
5.77592	0.937
5.81712	0.935
5.85831	0.935
5.89951	0.931
5.94071	0.93
5.98191	0.93
6.0231	0.931
6.0643	0.931
6.1055	0.931
6.14669	0.93
6.18789	0.93
6.22909	0.925
6.27028	0.92
6.31148	0.914
6.35268	0.913
6.39387	0.909
6.43507	0.908
6.47627	0.901
6.51747	0.904
6.55866	0.903
6.59986	0.894
6.64106	0.886
6.68225	0.865
6.72345	0.828
6.76465	0.732
6.80584	0.562
6.84704	0.51
6.88824	0.471
6.92943	0.482
6.97063	0.583
7.01183	0.663
7.05303	0.705
7.09422	0.721
7.13542	0.722
7.17662	0.698
7.21781	0.636
7.25901	0.573
7.30021	0.481
7.3414	0.517
7.3826	0.772
7.4238	0.799
7.46499	0.828
7.50619	0.855
7.54739	0.865
7.58859	0.877
7.62978	0.894
7.67098	0.892
7.71218	0.889
7.75337	0.891
7.79457	0.892
7.83577	0.894
7.87696	0.897
7.91816	0.903
7.95936	0.908
8.00055	0.914
8.04175	0.92
8.08295	0.92
8.12415	0.923
8.16534	0.923
8.20654	0.925
8.24774	0.928
8.28893	0.931
8.33013	0.931
8.37133	0.931
8.41252	0.931
8.45372	0.93
8.49492	0.926
8.53611	0.918
8.57731	0.918
8.61851	0.911
8.65971	0.889
8.7009	0.797
8.7421	0.719
8.7833	0.816
8.82449	0.886
8.86569	0.903
8.90689	0.914
8.94808	0.92
8.98928	0.921
9.03048	0.923
9.07167	0.923
9.11287	0.925
9.15407	0.926
9.19527	0.928
9.23646	0.931
9.27766	0.935
9.31886	0.937
9.36005	0.935
9.40125	0.935
9.44245	0.935
9.48364	0.935
9.52484	0.935
9.56604	0.935
9.60723	0.935
9.64843	0.938
9.68963	0.935
9.73083	0.92
9.77202	0.911
9.81322	0.92
9.85442	0.928
9.89561	0.931
9.93681	0.93
9.97801	0.901
10.0192	0.833
10.0604	0.761
10.1016	0.59
10.1428	0.341
10.184	0.144
10.2252	0.13
10.2664	0.285
10.3076	0.517
10.3488	0.666
10.39	0.748
10.4312	0.799
10.4724	0.841
10.5136	0.862
10.5548	0.877
10.596	0.891
10.6372	0.903
10.6784	0.913
10.7196	0.926
10.7607	0.93
10.8019	0.926
10.8431	0.887
10.8843	0.812
10.9255	0.676
10.9667	0.443
11.0079	0.224
11.0491	0.107
11.0903	0.127
11.1315	0.379
11.1727	0.545
11.2139	0.647
11.2551	0.71
11.2963	0.767
11.3375	0.795
11.3787	0.824
11.4199	0.848
11.4611	0.865
11.5023	0.879
11.5435	0.891
11.5847	0.894
11.6259	0.897
11.6671	0.903
11.7083	0.909
11.7495	0.916
11.7907	0.923
11.8319	0.925
11.8731	0.928
11.9143	0.928
11.9555	0.93
11.9967	0.928
12.0379	0.93
12.0791	0.933
12.1202	0.937
12.1614	0.938
12.2026	0.943
12.2438	0.945
12.285	0.945
12.3262	0.947
12.3674	0.945
12.4086	0.942
12.4498	0.928
12.491	0.914
12.5322	0.913
12.5734	0.908
12.6146	0.894
12.6558	0.887
12.697	0.87
12.7382	0.855
12.7794	0.841
12.8206	0.818
12.8618	0.799
12.903	0.784
12.9442	0.763
12.9854	0.755
13.0266	0.736
13.0678	0.722
13.109	0.707
13.1502	0.695
13.1914	0.678
13.2326	0.668
13.2738	0.659
13.315	0.658
13.3562	0.656
13.3974	0.656
13.4385	0.668
13.4797	0.681
13.5209	0.695
13.5621	0.712
13.6033	0.731
13.6445	0.741
13.6857	0.751
13.7269	0.758
13.7681	0.761
13.8093	0.761
13.8505	0.76
13.8917	0.748
13.9329	0.712
13.9741	0.647
14.0153	0.547
14.0565	0.44
14.0977	0.386
14.1389	0.404
14.1801	0.503
14.2213	0.571
14.2625	0.62
14.3037	0.658
14.3449	0.673
14.3861	0.693
14.4273	0.7
14.4685	0.707
14.5097	0.712
14.5509	0.712
14.5921	0.712
14.6333	0.712
14.6745	0.71
14.7157	0.704
14.7569	0.698
14.798	0.695
14.8392	0.687
14.8804	0.681
14.9216	0.675
14.9628	0.668
15.004	0.661
15.0452	0.654
15.0864	0.644
15.1276	0.634
15.1688	0.62
15.21	0.617
15.2512	0.607
15.2924	0.602
15.3336	0.596
15.3748	0.583
15.416	0.571
15.4572	0.566
15.4984	0.557
15.5396	0.551
15.5808	0.537
15.622	0.525
15.6632	0.52
15.7044	0.511
15.7456	0.501
15.7868	0.496
15.828	0.493
15.8692	0.488
