Infrared Spectrum: o-CHLOROTOLUENE
Formula: C7 H7 Cl
CAS: 95-49-8
State: LIQUID
Class: COBLENTZ
Instrument: Not specified, most likely a prism, grating, or hybrid spectrometer.
Sampling: TRANSMISSION
Path length: 0.003 CM
Resolution: 4
Origin: WYANDOTTE CHEMICALS CORP., WYANDOTTE, MICHIGAN, USA
MICROMETERS	TRANSMITTANCE
2.056	0.993
2.09313	1.004
2.13027	0.998
2.1674	0.996
2.20453	0.976
2.24167	0.982
2.2788	0.998
2.31593	0.982
2.35307	0.968
2.3902	0.989
2.42733	0.979
2.46447	0.995
2.5016	0.992
2.53873	0.97
2.57587	0.978
2.613	0.99
2.65013	0.984
2.68727	0.993
2.7244	0.996
2.76153	0.989
2.79867	0.976
2.8358	0.975
2.87293	0.99
2.91007	0.973
2.9472	0.962
2.98433	0.968
3.02147	0.958
3.0586	0.961
3.09573	0.941
3.13287	0.924
3.17	0.913
3.20713	0.868
3.24427	0.513
3.2814	0.644
3.31853	0.604
3.35567	0.511
3.3928	0.503
3.42993	0.697
3.46707	0.759
3.5042	0.768
3.54133	0.903
3.57847	0.916
3.6156	0.924
3.65273	0.889
3.68987	0.924
3.727	0.933
3.76413	0.924
3.80127	0.914
3.8384	0.925
3.87553	0.908
3.91267	0.905
3.9498	0.927
3.98693	0.937
4.02407	0.92
4.0612	0.913
4.09833	0.916
4.13547	0.908
4.1726	0.903
4.20974	0.905
4.24687	0.913
4.284	0.933
4.32114	0.93
4.35827	0.906
4.3954	0.913
4.43254	0.908
4.46967	0.917
4.5068	0.925
4.54394	0.924
4.58107	0.924
4.6182	0.916
4.65534	0.911
4.69247	0.93
4.7296	0.934
4.76674	0.922
4.80387	0.92
4.841	0.913
4.87814	0.927
4.91527	0.922
4.9524	0.922
4.98954	0.92
5.02667	0.91
5.0638	0.919
5.10094	0.908
5.13807	0.886
5.1752	0.81
5.21234	0.869
5.24947	0.798
5.2866	0.817
5.32374	0.858
5.36087	0.846
5.398	0.875
5.43514	0.91
5.47227	0.851
5.5094	0.846
5.54654	0.866
5.58367	0.798
5.6208	0.823
5.65794	0.885
5.69507	0.871
5.7322	0.869
5.76934	0.848
5.80647	0.855
5.8436	0.862
5.88074	0.832
5.91787	0.818
5.955	0.844
5.99214	0.879
6.02927	0.852
6.0664	0.865
6.10354	0.849
6.14067	0.79
6.1778	0.697
6.21494	0.568
6.25207	0.635
6.2892	0.37
6.32634	0.72
6.36347	0.772
6.4006	0.803
6.43774	0.81
6.47487	0.8
6.512	0.798
6.54914	0.751
6.58627	0.669
6.6234	0.508
6.66054	0.3
6.69767	0.108
6.7348	0.071
6.77194	0.144
6.80907	0.116
6.8462	0.221
6.88334	0.198
6.92047	0.203
6.9576	0.396
6.99474	0.576
7.03187	0.655
7.069	0.654
7.10614	0.705
7.14327	0.734
7.1804	0.607
7.21754	0.42
7.25467	0.739
7.2918	0.761
7.32894	0.792
7.36607	0.815
7.4032	0.832
7.44034	0.841
7.47747	0.852
7.5146	0.848
7.55174	0.844
7.58887	0.844
7.626	0.844
7.66314	0.827
7.70027	0.813
7.7374	0.772
7.77454	0.632
7.81167	0.737
7.8488	0.82
7.88594	0.832
7.92307	0.834
7.9602	0.813
7.99734	0.832
8.03447	0.843
8.0716	0.844
8.10874	0.848
8.14587	0.834
8.183	0.826
8.22014	0.781
8.25727	0.736
8.2944	0.82
8.33154	0.841
8.36867	0.831
8.40581	0.841
8.44294	0.832
8.48007	0.818
8.51721	0.812
8.55434	0.804
8.59147	0.764
8.62861	0.765
8.66574	0.779
8.70287	0.741
8.74001	0.627
8.77714	0.575
8.81427	0.403
8.85141	0.564
8.88854	0.744
8.92567	0.782
8.96281	0.81
8.99994	0.812
9.03707	0.801
9.07421	0.786
9.11134	0.742
9.14847	0.764
9.18561	0.762
9.22274	0.745
9.25987	0.713
9.29701	0.637
9.33414	0.505
9.37127	0.296
9.40841	0.041
9.44554	0.021
9.48267	0.043
9.51981	0.133
9.55694	0.06
9.59407	0.096
9.63121	0.215
9.66834	0.403
9.70547	0.541
9.74261	0.581
9.77974	0.5
9.81687	0.42
9.85401	0.536
9.89114	0.657
9.92827	0.722
9.96541	0.73
10.0025	0.719
10.0397	0.697
10.0768	0.637
10.1139	0.685
10.1511	0.728
10.1882	0.751
10.2253	0.761
10.2625	0.768
10.2996	0.79
10.3367	0.792
10.3739	0.796
10.411	0.806
10.4481	0.81
10.4853	0.804
10.5224	0.784
10.5595	0.768
10.5967	0.731
10.6338	0.686
10.6709	0.581
10.7081	0.64
10.7452	0.736
10.7823	0.786
10.8195	0.812
10.8566	0.82
10.8937	0.823
10.9309	0.824
10.968	0.824
11.0051	0.82
11.0423	0.823
11.0794	0.835
11.1165	0.84
11.1537	0.844
11.1908	0.837
11.2279	0.84
11.2651	0.854
11.3022	0.835
11.3393	0.841
11.3765	0.829
11.4136	0.831
11.4507	0.827
11.4879	0.817
11.525	0.812
11.5621	0.793
11.5993	0.779
11.6364	0.764
11.6735	0.742
11.7107	0.741
11.7478	0.765
11.7849	0.789
11.8221	0.796
11.8592	0.809
11.8963	0.823
11.9335	0.827
11.9706	0.827
12.0077	0.834
12.0449	0.831
12.082	0.834
12.1191	0.827
12.1563	0.824
12.1934	0.818
12.2305	0.81
12.2677	0.812
12.3048	0.776
12.3419	0.727
12.3791	0.64
12.4162	0.485
12.4533	0.302
12.4905	0.497
12.5276	0.668
12.5647	0.733
12.6019	0.765
12.639	0.773
12.6761	0.786
12.7133	0.787
12.7504	0.776
12.7875	0.765
12.8247	0.758
12.8618	0.731
12.8989	0.706
12.9361	0.665
12.9732	0.626
13.0103	0.595
13.0475	0.564
13.0846	0.494
13.1217	0.403
13.1589	0.275
13.196	0.155
13.2331	0.062
13.2703	0.041
13.3074	0.031
13.3445	0.035
13.3817	0.038
13.4188	0.04
13.4559	0.043
13.4931	0.062
13.5302	0.13
13.5673	0.251
13.6045	0.39
13.6416	0.491
13.6787	0.572
13.7159	0.62
13.753	0.663
13.7901	0.693
13.8273	0.714
13.8644	0.728
13.9015	0.741
13.9387	0.761
13.9758	0.761
14.0129	0.772
14.0501	0.782
14.0872	0.779
14.1243	0.767
14.1615	0.761
14.1986	0.736
14.2357	0.697
14.2729	0.609
14.31	0.541
14.3471	0.545
14.3843	0.615
14.4214	0.68
14.4585	0.688
14.4957	0.672
14.5328	0.646
14.5699	0.6
14.6071	0.536
14.6442	0.472
14.6813	0.41
14.7185	0.337
14.7556	0.286
14.7927	0.257
14.8299	0.258
14.867	0.288
14.9041	0.359
14.9413	0.465
14.9784	0.55
15.0155	0.637
15.0527	0.716
15.0898	0.755
15.1269	0.764
15.1641	0.784
15.2012	0.79
15.2383	0.784
15.2755	0.8
15.3126	0.801
15.3497	0.795
15.3869	0.792
15.424	0.804
15.4611	0.803
15.4983	0.784
15.5354	0.796
15.5725	0.796
15.6097	0.796
15.6468	0.79
15.6839	0.795
15.7211	0.778
15.7582	0.779
15.7953	0.784
15.8325	0.778
15.8696	0.772
15.9067	0.781
15.9439	0.776
15.981	0.767
