Infrared Spectrum: PHENOL, 2-METHYL-
Formula: C7 H8 O
CAS: 95-48-7
State: VAPOR (1.0 MICROLITER AT 245 C)
Boiling point: 191 C
Class: COBLENTZ
Instrument: NICOLET FTIR
Instrument parameters: Hg-Cd-Te DETECTOR - TYPE A, DEAD BELOW 680 CM^-^1, LOW S/N 710 - 680
Sampling: TRANSMISSION
Path length: 0.2 CM x 30 CM GOLD-PLATED LIGHT PIPE. HELIUM CARRIER. INTERFEROGRAMS CO-ADDED FOR FULL TRANSIT TIME.
Resolution: 4 CM^-^1
Origin: MONSANTO (JOHN J. FREEMAN)
1/CM	TRANSMITTANCE
695.229	0.961
703.578	0.9501
711.926	0.8478
720.275	0.907
728.624	0.7912
736.972	0.679
745.321	0.5151
753.67	0.5201
762.018	0.592
770.367	0.7729
778.716	0.932
787.064	0.972
795.413	0.981
803.761	0.981
812.11	0.977
820.459	0.957
828.807	0.9
837.156	0.818
845.505	0.819
853.853	0.836
862.202	0.942
870.551	0.974
878.899	0.982
887.248	0.986
895.597	0.987
903.945	0.985
912.294	0.978
920.643	0.968
928.991	0.966
937.34	0.974
945.689	0.974
954.037	0.972
962.386	0.961
970.734	0.944
979.083	0.935
987.432	0.933
995.78	0.938
1004.13	0.951
1012.48	0.951
1020.83	0.928
1029.18	0.884
1037.52	0.865
1045.87	0.876
1054.22	0.913
1062.57	0.936
1070.92	0.925
1079.27	0.892
1087.62	0.7791
1095.96	0.653
1104.31	0.638
1112.66	0.671
1121.01	0.8478
1129.36	0.892
1137.71	0.85
1146.06	0.775
1154.4	0.66
1162.75	0.61
1171.1	0.603
1179.45	0.589
1187.8	0.618
1196.15	0.53
1204.5	0.476
1212.85	0.466
1221.19	0.552
1229.54	0.6439
1237.89	0.676
1246.24	0.577
1254.59	0.546
1262.94	0.5679
1271.29	0.736
1279.63	0.872
1287.98	0.87
1296.33	0.849
1304.68	0.795
1313.03	0.7011
1321.38	0.67
1329.73	0.684
1338.08	0.7908
1346.42	0.927
1354.77	0.949
1363.12	0.949
1371.47	0.942
1379.82	0.93
1388.17	0.932
1396.52	0.945
1404.86	0.965
1413.21	0.967
1421.56	0.949
1429.91	0.918
1438.26	0.836
1446.61	0.769
1454.96	0.727
1463.3	0.71
1471.65	0.705
1480	0.647
1488.35	0.61
1496.7	0.57
1505.05	0.5889
1513.4	0.685
1521.75	0.809
1530.09	0.936
1538.44	0.967
1546.79	0.95
1555.14	0.96
1563.49	0.907
1571.84	0.831
1580.19	0.754
1588.53	0.702
1596.88	0.698
1605.23	0.751
1613.58	0.852
1621.93	0.914
1630.28	0.97
1638.63	0.979
1646.98	0.979
1655.32	0.968
1663.67	0.977
1672.02	0.972
1680.37	0.984
1688.72	0.98
1697.07	0.977
1705.42	0.97
1713.76	0.974
1722.11	0.967
1730.46	0.968
1738.81	0.957
1747.16	0.959
1755.51	0.958
1763.86	0.962
1772.2	0.963
1780.55	0.972
1788.9	0.983
1797.25	0.985
1805.6	0.984
1813.95	0.987
1822.3	0.989
1830.65	0.989
1838.99	0.988
1847.34	0.985
1855.69	0.986
1864.04	0.982
1872.39	0.972
1880.74	0.968
1889.09	0.969
1897.43	0.974
1905.78	0.979
1914.13	0.976
1922.48	0.976
1930.83	0.98
1939.18	0.987
1947.53	0.992
1955.88	0.993
1964.22	0.993
1972.57	0.995
1980.92	0.993
1989.27	0.992
1997.62	0.993
2005.97	0.993
2014.32	0.993
2022.66	0.995
2031.01	0.9942
2039.36	0.993
2047.71	0.993
2056.06	0.993
2064.41	0.993
2072.76	0.993
2081.1	0.992
2089.45	0.991
2097.8	0.9915
2106.15	0.993
2114.5	0.9944
2122.85	0.996
2131.2	0.998
2139.55	0.999
2147.89	0.999
2156.24	0.999
2164.59	0.998
2172.94	0.997
2181.29	0.996
2189.64	0.995
2197.99	0.995
2206.33	0.996
2214.68	0.995
2223.03	0.993
2231.38	0.993
2239.73	0.993
2248.08	0.993
2256.43	0.993
2264.78	0.993
2273.12	0.994
2281.47	0.9935
2289.82	0.993
2298.17	0.9898
2306.52	0.986
2314.87	0.9853
2323.22	0.987
2331.56	0.9889
2339.91	0.9886
2348.26	0.988
2356.61	0.9916
2364.96	0.9931
2373.31	0.9935
2381.66	0.993
2390.01	0.9916
2398.35	0.9871
2406.7	0.986
2415.05	0.985
2423.4	0.984
2431.75	0.984
2440.1	0.984
2448.45	0.984
2456.79	0.985
2465.14	0.986
2473.49	0.986
2481.84	0.987
2490.19	0.987
2498.54	0.986
2506.89	0.9878
2515.23	0.9912
2523.58	0.993
2531.93	0.992
2540.28	0.992
2548.63	0.9921
2556.98	0.993
2565.33	0.993
2573.68	0.993
2582.02	0.992
2590.37	0.9907
2598.72	0.991
2607.07	0.9897
2615.42	0.9887
2623.77	0.99
2632.12	0.9916
2640.46	0.9921
2648.81	0.994
2657.16	0.995
2665.51	0.995
2673.86	0.9941
2682.21	0.993
2690.56	0.9938
2698.91	0.993
2707.25	0.9923
2715.6	0.992
2723.95	0.9874
2732.3	0.983
2740.65	0.981
2749	0.983
2757.35	0.9879
2765.69	0.9919
2774.04	0.993
2782.39	0.992
2790.74	0.9897
2799.09	0.988
2807.44	0.986
2815.79	0.985
2824.13	0.9819
2832.48	0.9769
2840.83	0.964
2849.18	0.9457
2857.53	0.9103
2865.88	0.8865
2874.23	0.8682
2882.58	0.8683
2890.92	0.8732
2899.27	0.873
2907.62	0.8621
2915.97	0.8378
2924.32	0.8059
2932.67	0.783
2941.02	0.7867
2949.36	0.8175
2957.71	0.8508
2966.06	0.8612
2974.41	0.8614
2982.76	0.8707
2991.11	0.8784
2999.46	0.8903
3007.81	0.8899
3016.15	0.8334
3024.5	0.7707
3032.85	0.7353
3041.2	0.723
3049.55	0.7377
3057.9	0.7577
3066.25	0.7494
3074.59	0.7493
3082.94	0.7787
3091.29	0.8447
3099.64	0.889
3107.99	0.9344
3116.34	0.9561
3124.69	0.9695
3133.03	0.9789
3141.38	0.9874
3149.73	0.9919
3158.08	0.9933
3166.43	0.995
3174.78	0.9953
3183.13	0.9947
3191.48	0.996
3199.82	0.996
3208.17	0.997
3216.52	0.998
3224.87	0.997
3233.22	0.9974
3241.57	0.999
3249.92	0.999
3258.26	0.999
3266.61	1
3274.96	1
3283.31	1
3291.66	1
3300.01	0.999
3308.36	0.998
3316.71	0.997
3325.05	0.9946
3333.4	0.993
3341.75	0.993
3350.1	0.993
3358.45	0.993
3366.8	0.993
3375.15	0.9921
3383.49	0.993
3391.84	0.993
3400.19	0.993
3408.54	0.993
3416.89	0.9934
3425.24	0.997
3433.59	0.997
3441.94	0.998
3450.28	0.998
3458.63	0.9983
3466.98	0.9978
3475.33	0.997
3483.68	0.998
3492.03	0.999
3500.38	1
3508.72	0.999
3517.07	1
3525.42	1
3533.77	1.001
3542.12	0.9987
3550.47	1
3558.82	1.002
3567.16	0.997
3575.51	1.0003
3583.86	0.9979
3592.21	0.995
3600.56	0.9956
3608.91	0.9843
3617.26	0.964
3625.61	0.8634
3633.95	0.7629
3642.3	0.5788
3650.65	0.5603
3659	0.6748
3667.35	0.774
3675.7	0.9524
3684.05	0.971
3692.39	0.9807
3700.74	1.0007
3709.09	1.0013
3717.44	0.9913
3725.79	0.9993
3734.14	1.0071
3742.49	1.011
3750.84	1.0017
3759.18	0.999
3767.53	1.0026
3775.88	1.0059
3784.23	0.9965
3792.58	0.997
3800.93	0.9992
3809.28	0.993
3817.62	0.9994
3825.97	0.9933
3834.32	0.9946
3842.67	0.9918
3851.02	1.0112
3859.37	0.98
3867.72	0.985
3876.06	0.991
3884.41	0.9874
3892.76	0.9936
3901.11	0.9916
3909.46	0.985
3917.81	0.99
3926.16	0.9854
3934.51	0.991
3942.85	0.993
3951.2	0.992
3959.55	0.993
3967.9	0.992
3976.25	0.9929
3984.6	0.998
