Infrared Spectrum: BENZENE, 1,2-DIMETHYL-
Formula: C8 H10
CAS: 95-47-6
State: VAPOR (0.5 MICROLITER AT 150 C)
Boiling point: 144 C
Class: COBLENTZ
Instrument: NICOLET FTIR
Instrument parameters: Hg-Cd-Te DETECTOR - TYPE A, DEAD BELOW 680 CM^-^1, LOW S/N 710 - 680
Sampling: TRANSMISSION
Path length: 0.2 CM x 30 CM GOLD-PLATED LIGHT PIPE. HELIUM CARRIER. INTERFEROGRAMS CO-ADDED FOR FULL TRANSIT TIME.
Resolution: 4 CM^-^1
Origin: MONSANTO (JOHN J. FREEMAN)
1/CM	TRANSMITTANCE
714.054	0.929
723.423	0.6224
732.793	0.5869
742.162	0.1957
751.532	0.443
760.901	0.762
770.271	0.9479
779.64	0.984
789.009	0.987
798.379	0.988
807.748	0.989
817.118	0.989
826.487	0.987
835.857	0.987
845.226	0.989
854.596	0.981
863.965	0.978
873.334	0.98
882.704	0.988
892.073	0.99
901.443	0.989
910.812	0.987
920.182	0.987
929.551	0.979
938.92	0.981
948.29	0.981
957.659	0.982
967.029	0.968
976.398	0.949
985.768	0.939
995.137	0.941
1004.51	0.947
1013.88	0.942
1023.25	0.932
1032.61	0.946
1041.98	0.921
1051.35	0.89
1060.72	0.896
1070.09	0.935
1079.46	0.981
1088.83	0.99
1098.2	0.988
1107.57	0.973
1116.94	0.941
1126.31	0.933
1135.68	0.932
1145.05	0.954
1154.42	0.963
1163.79	0.972
1173.16	0.977
1182.53	0.98
1191.9	0.978
1201.26	0.974
1210.63	0.973
1220	0.964
1229.37	0.965
1238.74	0.974
1248.11	0.989
1257.48	0.989
1266.85	0.987
1276.22	0.984
1285.59	0.98
1294.96	0.978
1304.33	0.979
1313.7	0.981
1323.07	0.981
1332.44	0.978
1341.81	0.975
1351.18	0.972
1360.55	0.964
1369.91	0.945
1379.28	0.927
1388.65	0.905
1398.02	0.916
1407.39	0.945
1416.76	0.946
1426.13	0.935
1435.5	0.889
1444.87	0.819
1454.24	0.745
1463.61	0.665
1472.98	0.682
1482.35	0.689
1491.72	0.672
1501.09	0.687
1510.46	0.7881
1519.83	0.928
1529.2	0.946
1538.56	0.95
1547.93	0.954
1557.3	0.954
1566.67	0.95
1576.04	0.93
1585.41	0.902
1594.78	0.891
1604.15	0.881
1613.52	0.915
1622.89	0.938
1632.26	0.974
1641.63	0.984
1651	0.988
1660.37	0.972
1669.74	0.965
1679.11	0.966
1688.48	0.98
1697.84	0.974
1707.21	0.935
1716.58	0.918
1725.95	0.927
1735.32	0.958
1744.69	0.98
1754.06	0.99
1763.43	0.984
1772.8	0.971
1782.17	0.962
1791.54	0.964
1800.91	0.973
1810.28	0.981
1819.65	0.972
1829.02	0.972
1838.39	0.976
1847.76	0.982
1857.13	0.975
1866.49	0.974
1875.86	0.972
1885.23	0.96
1894.6	0.95
1903.97	0.956
1913.34	0.973
1922.71	0.976
1932.08	0.964
1941.45	0.963
1950.82	0.969
1960.19	0.983
1969.56	0.986
1978.93	0.988
1988.3	0.99
1997.67	0.991
2007.04	0.992
2016.41	0.992
2025.78	0.992
2035.14	0.992
2044.51	0.992
2053.88	0.992
2063.25	0.992
2072.62	0.992
2081.99	0.991
2091.36	0.991
2100.73	0.99
2110.1	0.989
2119.47	0.99
2128.84	0.9907
2138.21	0.991
2147.58	0.991
2156.95	0.9891
2166.32	0.991
2175.69	0.99
2185.06	0.99
2194.43	0.988
2203.79	0.9861
2213.16	0.988
2222.53	0.9882
2231.9	0.9893
2241.27	0.99
2250.64	0.989
2260.01	0.988
2269.38	0.988
2278.75	0.9886
2288.12	0.99
2297.49	0.991
2306.86	0.99
2316.23	0.988
2325.6	0.988
2334.97	0.987
2344.34	0.9831
2353.71	0.983
2363.07	0.982
2372.44	0.982
2381.81	0.9821
2391.18	0.983
2400.55	0.983
2409.92	0.983
2419.29	0.982
2428.66	0.981
2438.03	0.98
2447.4	0.9795
2456.77	0.982
2466.14	0.9852
2475.51	0.987
2484.88	0.9863
2494.25	0.984
2503.62	0.984
2512.99	0.9857
2522.36	0.987
2531.72	0.987
2541.09	0.986
2550.46	0.9829
2559.83	0.9799
2569.2	0.978
2578.57	0.978
2587.94	0.9783
2597.31	0.98
2606.68	0.9804
2616.05	0.981
2625.42	0.982
2634.79	0.982
2644.16	0.982
2653.53	0.9804
2662.9	0.98
2672.27	0.979
2681.64	0.9772
2691.01	0.976
2700.37	0.9713
2709.74	0.9611
2719.11	0.9529
2728.48	0.9389
2737.85	0.9392
2747.22	0.9453
2756.59	0.9574
2765.96	0.9607
2775.33	0.96
2784.7	0.961
2794.07	0.9586
2803.44	0.951
2812.81	0.9424
2822.18	0.9298
2831.55	0.9177
2840.92	0.8883
2850.29	0.8506
2859.66	0.7608
2869.02	0.683
2878.39	0.6391
2887.76	0.6538
2897.13	0.681
2906.5	0.6782
2915.87	0.6112
2925.24	0.5043
2934.61	0.4698
2943.98	0.475
2953.35	0.541
2962.72	0.5559
2972.09	0.5657
2981.46	0.6257
2990.83	0.7059
3000.2	0.7257
3009.57	0.5863
3018.94	0.5316
3028.3	0.5218
3037.67	0.6133
3047.04	0.6178
3056.41	0.56
3065.78	0.539
3075.15	0.5859
3084.52	0.7075
3093.89	0.8185
3103.26	0.8581
3112.63	0.8937
3122	0.9313
3131.37	0.9516
3140.74	0.9594
3150.11	0.964
3159.48	0.9669
3168.85	0.972
3178.22	0.974
3187.59	0.977
3196.95	0.978
3206.32	0.9787
3215.69	0.98
3225.06	0.9818
3234.43	0.982
3243.8	0.982
3253.17	0.982
3262.54	0.982
3271.91	0.981
3281.28	0.981
3290.65	0.98
3300.02	0.98
3309.39	0.98
3318.76	0.981
3328.13	0.9806
3337.5	0.98
3346.87	0.979
3356.24	0.98
3365.6	0.978
3374.97	0.978
3384.34	0.9773
3393.71	0.977
3403.08	0.977
3412.45	0.977
3421.82	0.977
3431.19	0.976
3440.56	0.975
3449.93	0.975
3459.3	0.9741
3468.67	0.975
3478.04	0.9742
3487.41	0.976
3496.78	0.977
3506.15	0.977
3515.52	0.977
3524.89	0.977
3534.25	0.975
3543.62	0.974
3552.99	0.975
3562.36	0.975
3571.73	0.9738
3581.1	0.978
3590.47	0.9731
3599.84	0.9739
3609.21	0.9769
3618.58	0.9669
3627.95	0.976
3637.32	0.9689
3646.69	0.962
3656.06	0.9647
3665.43	0.972
3674.8	0.9693
3684.17	0.9658
3693.54	0.977
3702.9	0.9685
3712.27	0.9731
3721.64	0.9748
3731.01	0.9698
3740.38	0.9746
3749.75	0.9718
3759.12	0.9624
3768.49	0.966
3777.86	0.965
3787.23	0.968
3796.6	0.968
3805.97	0.9674
3815.34	0.964
3824.71	0.9608
3834.08	0.9682
3843.45	0.9617
3852.82	0.951
3862.18	0.954
3871.55	0.9626
3880.92	0.954
3890.29	0.9497
3899.66	0.9522
3909.03	0.9566
3918.4	0.9587
3927.77	0.96
3937.14	0.9618
3946.51	0.9611
3955.88	0.959
3965.25	0.96
3974.62	0.962
3983.99	0.961
3993.36	0.9609
4002.73	0.962
