Infrared Spectrum: o-CHLOROPHENOL
Formula: C6 H5 Cl O
CAS: 95-57-8
State: SOLUTION (10% IN CCl4 FOR 4000-1350 CM^-^1, 10% IN CS2 FOR 1350-600 CM^-^1)
Class: COBLENTZ III
Instrument: BECKMAN IR-7 (GRATING)
Instrument parameters: GRATING CHANGES AT 3000, 2200, 1150 CM^-^1
Sampling: TRANSMISSION
Path length: 0.010 CM, 0.010 CM
Resolution: 4
Origin: WESTERN REGIONAL RES. USDA
1/CM	TRANSMITTANCE
600	0.717
609.057	0.727
618.115	0.729
627.172	0.721
636.229	0.711
645.287	0.691
654.344	0.666
663.401	0.661
672.458	0.585
681.516	0.2069
690.573	0.503
699.63	0.646
708.688	0.6
717.745	0.658
726.802	0.643
735.86	0.544
744.917	0.024
753.974	0.1619
763.032	0.51
772.089	0.628
781.146	0.662
790.204	0.674
799.261	0.679
808.318	0.651
817.375	0.663
826.433	0.624
835.49	0.2669
844.547	0.553
853.605	0.567
862.662	0.595
871.719	0.624
880.777	0.623
889.834	0.685
898.891	0.722
907.949	0.73
917.006	0.725
926.063	0.685
935.121	0.5949
944.178	0.723
953.235	0.732
962.292	0.731
971.35	0.72
980.407	0.722
989.464	0.731
998.522	0.731
1007.58	0.725
1016.64	0.663
1025.69	0.1722
1034.75	0.526
1043.81	0.62
1052.87	0.393
1061.92	0.4129
1070.98	0.648
1080.04	0.706
1089.09	0.699
1098.15	0.689
1107.21	0.664
1116.27	0.638
1125.32	0.366
1134.38	0.616
1143.44	0.577
1152.5	0.348
1161.55	0.4111
1170.61	0.193
1179.67	0.067
1188.73	0.029
1197.78	0.096
1206.84	0.3489
1215.9	0.53
1224.95	0.585
1234.01	0.507
1243.07	0.192
1252.13	0.113
1261.18	0.537
1270.24	0.621
1279.3	0.483
1288.36	0.126
1297.41	0.4088
1306.47	0.666
1315.53	0.645
1324.58	0.556
1333.64	0.243
1342.7	0.461
1351.76	0.663
1360.81	0.718
1369.87	0.737
1378.93	0.728
1387.99	0.628
1397.04	0.735
1406.1	0.743
1415.16	0.74
1424.22	0.745
1433.27	0.736
1442.33	0.72
1451.39	0.541
1460.44	0.294
1469.5	0.351
1478.56	0.005
1487.62	0.307
1496.67	0.367
1505.73	0.367
1514.79	0.31
1523.85	0.366
1532.9	0.482
1541.96	0.426
1551.02	0.395
1560.07	0.446
1569.13	0.472
1578.19	0.318
1587.25	0.199
1596.3	0.148
1605.36	0.484
1614.42	0.645
1623.48	0.694
1632.53	0.74
1641.59	0.757
1650.65	0.768
1659.71	0.76
1668.76	0.742
1677.82	0.747
1686.88	0.763
1695.93	0.758
1704.99	0.767
1714.05	0.769
1723.11	0.772
1732.16	0.771
1741.22	0.772
1750.28	0.779
1759.34	0.773
1768.39	0.751
1777.45	0.704
1786.51	0.765
1795.57	0.777
1804.62	0.766
1813.68	0.75
1822.74	0.773
1831.79	0.77
1840.85	0.775
1849.91	0.771
1858.97	0.75
1868.02	0.765
1877.08	0.778
1886.14	0.775
1895.2	0.724
1904.25	0.748
1913.31	0.775
1922.37	0.77
1931.42	0.743
1940.48	0.751
1949.54	0.775
1958.6	0.782
1967.65	0.777
1976.71	0.779
1985.77	0.782
1994.83	0.781
2003.88	0.78
2012.94	0.779
2022	0.78
2031.06	0.7794
2040.11	0.781
2049.17	0.781
2058.23	0.781
2067.28	0.781
2076.34	0.781
2085.4	0.78
2094.46	0.779
2103.51	0.777
2112.57	0.776
2121.63	0.775
2130.69	0.775
2139.74	0.7758
2148.8	0.7774
2157.86	0.779
2166.91	0.7817
2175.97	0.782
2185.03	0.7829
2194.09	0.784
2203.14	0.786
2212.2	0.7917
2221.26	0.791
2230.32	0.79
2239.37	0.7894
2248.43	0.787
2257.49	0.7852
2266.55	0.7831
2275.6	0.7779
2284.66	0.7696
2293.72	0.765
2302.77	0.7669
2311.83	0.7685
2320.89	0.75
2329.95	0.7515
2339	0.7635
2348.06	0.772
2357.12	0.7782
2366.18	0.7817
2375.23	0.7889
2384.29	0.7855
2393.35	0.782
2402.4	0.783
2411.46	0.782
2420.52	0.7811
2429.58	0.7764
2438.63	0.7733
2447.69	0.7808
2456.75	0.784
2465.81	0.785
2474.86	0.7814
2483.92	0.7696
2492.98	0.7551
2502.04	0.7645
2511.09	0.7791
2520.15	0.7803
2529.21	0.7693
2538.26	0.765
2547.32	0.7672
2556.38	0.7786
2565.44	0.7926
2574.49	0.79
2583.55	0.7891
2592.61	0.7907
2601.67	0.792
2610.72	0.788
2619.78	0.7825
2628.84	0.7769
2637.9	0.7823
2646.95	0.784
2656.01	0.782
2665.07	0.7782
2674.12	0.772
2683.18	0.7855
2692.24	0.7905
2701.3	0.792
2710.35	0.791
2719.41	0.79
2728.47	0.789
2737.53	0.788
2746.58	0.787
2755.64	0.786
2764.7	0.7854
2773.75	0.788
2782.81	0.7886
2791.87	0.7912
2800.93	0.793
2809.98	0.791
2819.04	0.791
2828.1	0.79
2837.16	0.7887
2846.21	0.7851
2855.27	0.7876
2864.33	0.791
2873.39	0.7882
2882.44	0.788
2891.5	0.791
2900.56	0.792
2909.61	0.7855
2918.67	0.7821
2927.73	0.782
2936.79	0.7841
2945.84	0.786
2954.9	0.7854
2963.96	0.787
2973.02	0.788
2982.07	0.786
2991.13	0.7842
3000.19	0.7826
3009.24	0.7809
3018.3	0.7603
3027.36	0.7317
3036.42	0.7159
3045.47	0.631
3054.53	0.6938
3063.59	0.7155
3072.65	0.68
3081.7	0.6
3090.76	0.6878
3099.82	0.7405
3108.88	0.7607
3117.93	0.7723
3126.99	0.781
3136.05	0.782
3145.1	0.782
3154.16	0.782
3163.22	0.782
3172.28	0.7818
3181.33	0.7802
3190.39	0.779
3199.45	0.781
3208.51	0.786
3217.56	0.788
3226.62	0.788
3235.68	0.788
3244.73	0.786
3253.79	0.784
3262.85	0.7817
3271.91	0.781
3280.96	0.7784
3290.02	0.7738
3299.08	0.772
3308.14	0.771
3317.19	0.77
3326.25	0.7683
3335.31	0.7667
3344.37	0.7641
3353.42	0.7595
3362.48	0.7537
3371.54	0.75
3380.59	0.7463
3389.65	0.739
3398.71	0.7302
3407.77	0.7226
3416.82	0.7172
3425.88	0.7056
3434.94	0.6917
3444	0.6729
3453.05	0.6588
3462.11	0.6404
3471.17	0.6303
3480.22	0.6167
3489.28	0.6069
3498.34	0.5937
3507.4	0.5728
3516.45	0.4983
3525.51	0.3081
3534.57	0.1585
3543.63	0.054
3552.68	0.1556
3561.74	0.3712
3570.8	0.6119
3579.86	0.6784
3588.91	0.6768
3597.97	0.6231
3607.03	0.6272
3616.08	0.6946
3625.14	0.7482
3634.2	0.7726
3643.26	0.7813
3652.31	0.784
3661.37	0.785
3670.43	0.784
3679.49	0.7813
3688.54	0.779
3697.6	0.78
3706.66	0.782
3715.72	0.7842
3724.77	0.7898
3733.83	0.791
3742.89	0.791
3751.94	0.7886
3761	0.7828
3770.06	0.779
3779.12	0.788
3788.17	0.7877
3797.23	0.7825
3806.29	0.7822
3815.35	0.788
3824.4	0.79
3833.46	0.7891
3842.52	0.7842
3851.57	0.7819
3860.63	0.786
3869.69	0.787
3878.75	0.7857
3887.8	0.7821
3896.86	0.7764
3905.92	0.7718
3914.98	0.7736
3924.03	0.775
3933.09	0.775
3942.15	0.7714
3951.21	0.772
3960.26	0.7819
3969.32	0.787
3978.38	0.788
3987.43	0.789
