Infrared Spectrum: BENZENE, 1,2-DICHLORO-
Formula: C6 H4 Cl2
CAS: 95-50-1
State: VAPOR (0.5 MICROLITER AT 195 C)
Boiling point: 180 C
Class: COBLENTZ
Instrument: NICOLET FTIR
Instrument parameters: Hg-Cd-Te DETECTOR - TYPE A, DEAD BELOW 680 CM^-^1, LOW S/N 710 - 680
Sampling: TRANSMISSION
Path length: 0.2 CM x 30 CM GOLD-PLATED LIGHT PIPE. HELIUM CARRIER. INTERFEROGRAMS CO-ADDED FOR FULL TRANSIT TIME.
Resolution: 4 CM^-^1
Origin: MONSANTO (JOHN J. FREEMAN)
1/CM	TRANSMITTANCE
698.819	1.058
707.084	1.028
715.349	1.0489
723.615	0.994
731.88	0.6366
740.145	0.2431
748.41	0.0591
756.676	0.152
764.941	0.5913
773.206	0.97
781.471	1.004
789.737	1.001
798.002	0.998
806.267	0.991
814.532	0.98
822.797	0.958
831.063	0.952
839.328	0.974
847.593	0.997
855.858	0.997
864.124	0.985
872.389	0.977
880.654	0.982
888.919	0.99
897.185	0.997
905.45	0.997
913.715	0.988
921.98	0.97
930.245	0.952
938.511	0.925
946.776	0.958
955.041	0.977
963.306	0.981
971.572	0.974
979.837	0.967
988.102	0.954
996.367	0.927
1004.63	0.8561
1012.9	0.8
1021.16	0.6691
1029.43	0.363
1037.69	0.3329
1045.96	0.3679
1054.22	0.843
1062.49	0.938
1070.75	0.95
1079.02	0.945
1087.28	0.93
1095.55	0.931
1103.82	0.903
1112.08	0.682
1120.35	0.4012
1128.61	0.299
1136.88	0.363
1145.14	0.7797
1153.41	0.834
1161.67	0.83
1169.94	0.811
1178.2	0.84
1186.47	0.918
1194.73	0.98
1203	0.987
1211.26	0.987
1219.53	0.988
1227.79	0.985
1236.06	0.965
1244.32	0.914
1252.59	0.877
1260.85	0.891
1269.12	0.934
1277.39	0.965
1285.65	0.988
1293.92	0.992
1302.18	0.998
1310.45	1
1318.71	0.998
1326.98	0.998
1335.24	0.997
1343.51	0.981
1351.77	0.952
1360.04	0.943
1368.3	0.96
1376.57	0.974
1384.83	0.962
1393.1	0.94
1401.36	0.931
1409.63	0.934
1417.89	0.8392
1426.16	0.6131
1434.42	0.566
1442.69	0.441
1450.95	0.2431
1459.22	0.195
1467.49	0.294
1475.75	0.5718
1484.02	0.7419
1492.28	0.866
1500.55	0.958
1508.81	0.98
1517.08	0.985
1525.34	0.995
1533.61	1.002
1541.87	0.981
1550.14	0.948
1558.4	0.8301
1566.67	0.77
1574.93	0.736
1583.2	0.7859
1591.46	0.8709
1599.73	0.9
1607.99	0.95
1616.26	0.98
1624.52	0.994
1632.79	0.998
1641.06	1.004
1649.32	1.004
1657.59	1.002
1665.85	0.994
1674.12	0.97
1682.38	0.964
1690.65	0.967
1698.91	0.971
1707.18	0.98
1715.44	0.991
1723.71	0.998
1731.97	1.004
1740.24	1.001
1748.5	1.001
1756.77	1.001
1765.03	0.994
1773.3	0.964
1781.56	0.937
1789.83	0.938
1798.09	0.955
1806.36	0.985
1814.63	0.978
1822.89	0.975
1831.16	0.987
1839.42	1.002
1847.69	1.004
1855.95	1.001
1864.22	0.994
1872.48	0.981
1880.75	0.981
1889.01	0.981
1897.28	0.958
1905.54	0.937
1913.81	0.943
1922.07	0.972
1930.34	0.972
1938.6	0.951
1946.87	0.957
1955.13	0.99
1963.4	1.005
1971.66	1.005
1979.93	1.005
1988.19	1.005
1996.46	1.005
2004.73	1.004
2012.99	1.005
2021.26	1.008
2029.52	1.0086
2037.79	1.008
2046.05	1.009
2054.32	1.009
2062.58	1.009
2070.85	1.009
2079.11	1.009
2087.38	1.009
2095.64	1.008
2103.91	1.007
2112.17	1.005
2120.44	1.007
2128.7	1.007
2136.97	1.007
2145.23	1.009
2153.5	1.009
2161.76	1.008
2170.03	1.008
2178.3	1.0082
2186.56	1.009
2194.83	1.009
2203.09	1.009
2211.36	1.009
2219.62	1.009
2227.89	1.011
2236.15	1.009
2244.42	1.009
2252.68	1.008
2260.95	1.007
2269.21	1.005
2277.48	1.0012
2285.74	1
2294.01	1
2302.27	1.0016
2310.54	1
2318.8	0.995
2327.07	0.9997
2335.33	1.0027
2343.6	1.008
2351.87	1.0064
2360.13	1.0012
2368.4	1.0003
2376.66	1.002
2384.93	1.004
2393.19	1.0047
2401.46	1.0082
2409.72	1.009
2417.99	1.0088
2426.25	1.008
2434.52	1.009
2442.78	1.009
2451.05	1.011
2459.31	1.0116
2467.58	1.012
2475.84	1.012
2484.11	1.012
2492.37	1.011
2500.64	1.012
2508.9	1.011
2517.17	1.009
2525.43	1.0011
2533.7	0.9941
2541.97	0.9929
2550.23	1.0017
2558.5	1.0098
2566.76	1.012
2575.03	1.012
2583.29	1.011
2591.56	1.009
2599.82	1.0106
2608.09	1.0084
2616.35	1.005
2624.62	1.011
2632.88	1.0135
2641.15	1.0125
2649.41	1.015
2657.68	1.017
2665.94	1.017
2674.21	1.017
2682.47	1.0157
2690.74	1.015
2699	1.014
2707.27	1.012
2715.54	1.0132
2723.8	1.015
2732.07	1.0161
2740.33	1.017
2748.6	1.017
2756.86	1.017
2765.13	1.018
2773.39	1.017
2781.66	1.018
2789.92	1.017
2798.19	1.0146
2806.45	1.0111
2814.72	1.0086
2822.98	1.008
2831.25	1.009
2839.51	1.009
2847.78	1.008
2856.04	1.0054
2864.31	1.0026
2872.57	1.004
2880.84	1.0058
2889.11	1.008
2897.37	1.008
2905.64	1.0043
2913.9	1.004
2922.17	1.001
2930.43	1
2938.7	1
2946.96	1
2955.23	1
2963.49	0.997
2971.76	0.9928
2980.02	0.9868
2988.29	0.985
2996.55	0.984
3004.82	0.982
3013.08	0.985
3021.35	0.989
3029.61	0.992
3037.88	0.9989
3046.14	1.0001
3054.41	0.9624
3062.67	0.8083
3070.94	0.6776
3079.21	0.6134
3087.47	0.7025
3095.74	0.9002
3104	0.9706
3112.27	0.9996
3120.53	1.005
3128.8	1.0024
3137.06	0.9942
3145.33	0.9908
3153.59	1.0049
3161.86	1.0177
3170.12	1.021
3178.39	1.021
3186.65	1.022
3194.92	1.022
3203.18	1.024
3211.45	1.022
3219.71	1.024
3227.98	1.024
3236.24	1.024
3244.51	1.0244
3252.78	1.022
3261.04	1.0231
3269.31	1.024
3277.57	1.023
3285.84	1.024
3294.1	1.024
3302.37	1.0241
3310.63	1.025
3318.9	1.025
3327.16	1.027
3335.43	1.0241
3343.69	1.0263
3351.96	1.025
3360.22	1.0257
3368.49	1.027
3376.75	1.027
3385.02	1.027
3393.28	1.027
3401.55	1.0273
3409.81	1.028
3418.08	1.028
3426.35	1.028
3434.61	1.028
3442.88	1.0282
3451.14	1.029
3459.41	1.0279
3467.67	1.028
3475.94	1.028
3484.2	1.028
3492.47	1.028
3500.73	1.0276
3509	1.028
3517.26	1.0285
3525.53	1.029
3533.79	1.029
3542.06	1.028
3550.32	1.028
3558.59	1.028
3566.85	1.027
3575.12	1.031
3583.38	1.0286
3591.65	1.029
3599.91	1.0314
3608.18	1.0272
3616.45	1.0343
3624.71	1.0316
3632.98	1.0259
3641.24	1.0306
3649.51	1.0242
3657.77	1.0265
3666.04	1.0235
3674.3	1.0234
3682.57	1.0286
3690.83	1.0226
3699.1	1.0293
3707.36	1.032
3715.63	1.0221
3723.89	1.0209
3732.16	1.0189
3740.42	1.0133
3748.69	1.021
3756.95	1.024
3765.22	1.029
3773.48	1.0315
3781.75	1.032
3790.02	1.031
3798.28	1.027
3806.55	1.0215
3814.81	1.0181
3823.08	1.0244
3831.34	1.027
3839.61	1.0314
3847.87	1.0367
3856.14	1.028
3864.4	1.0348
3872.67	1.035
3880.93	1.0312
3889.2	1.0373
3897.46	1.031
3905.73	1.035
3913.99	1.035
3922.26	1.034
3930.52	1.037
3938.79	1.037
3947.05	1.035
3955.32	1.037
3963.59	1.037
3971.85	1.037
3980.12	1.038
