Infrared Spectrum: o-Chloroaniline
Formula: C6 H6 Cl N
CAS: 95-51-2
State: SOLUTION (10% CCl4 FOR 3800-1340, 10% CS2 FOR 1340-450 CM^-^1)
Class: COBLENTZ III
Instrument: DOW KBr FOREPRISM-GRATING
Instrument parameters: BLAZED AT 3.5, 12.0, 20.0 MICRON AND CHANGED AT 5.0, 7.5, 14.9 MICRON
Sampling: TRANSMISSION
Path length: 0.012 CM, 0.012 CM
Resolution: 2
Origin: DOW CHEMICAL COMPANY
1/CM	TRANSMITTANCE
3802	0.9364
3793	0.9385
3784	0.9378
3775	0.9377
3766	0.9403
3757	0.941
3748	0.9417
3739	0.9426
3730	0.9444
3721	0.945
3712	0.9463
3703	0.9483
3694	0.9469
3685	0.9455
3676	0.9459
3667	0.9459
3658	0.9457
3649	0.9456
3640	0.9451
3631	0.9464
3622	0.946
3613	0.9457
3604	0.9458
3595	0.945
3586	0.9249
3577	0.9283
3568	0.9329
3559	0.9273
3550	0.9215
3541	0.9089
3532	0.8894
3523	0.8363
3514	0.7319
3505	0.5205
3496	0.3443
3487	0.4009
3478	0.5192
3469	0.6375
3460	0.7592
3451	0.8188
3442	0.8465
3433	0.8481
3424	0.8342
3415	0.5435
3406	0.2435
3397	0.3144
3388	0.4881
3379	0.6781
3370	0.7555
3361	0.8176
3352	0.8738
3343	0.9032
3334	0.9203
3325	0.9317
3316	0.9404
3307	0.9477
3298	0.9514
3289	0.9538
3280	0.9558
3271	0.9568
3262	0.9556
3253	0.9526
3244	0.9464
3235	0.9438
3226	0.939
3217	0.9365
3208	0.9204
3199	0.897
3190	0.8859
3181	0.9079
3172	0.912
3163	0.9216
3154	0.926
3145	0.9288
3136	0.933
3127	0.935
3118	0.9356
3109	0.9331
3100	0.924
3091	0.8591
3082	0.7263
3073	0.6807
3064	0.7562
3055	0.7469
3046	0.8215
3037	0.8021
3028	0.6676
3019	0.7628
3010	0.839
3001	0.8945
2992	0.9182
2983	0.9222
2974	0.9249
2965	0.9282
2956	0.9302
2947	0.931
2938	0.9301
2929	0.9171
2920	0.9047
2911	0.9035
2902	0.9181
2893	0.9169
2884	0.9146
2875	0.9148
2866	0.9209
2857	0.926
2848	0.9177
2839	0.9305
2830	0.9384
2821	0.9439
2812	0.9428
2803	0.9438
2794	0.9388
2785	0.935
2776	0.9371
2767	0.9398
2758	0.9388
2749	0.9392
2740	0.9413
2731	0.9441
2722	0.9451
2713	0.9442
2704	0.9417
2695	0.9427
2686	0.9436
2677	0.9425
2668	0.9411
2659	0.9364
2650	0.9356
2641	0.9373
2632	0.9277
2623	0.9001
2614	0.8795
2605	0.9006
2596	0.922
2587	0.93
2578	0.9343
2569	0.9263
2560	0.9175
2551	0.9281
2542	0.9378
2533	0.9434
2524	0.9459
2515	0.9479
2506	0.9498
2497	0.9504
2488	0.9508
2479	0.9521
2470	0.9497
2461	0.9448
2452	0.9413
2443	0.9416
2434	0.9483
2425	0.9514
2416	0.9514
2407	0.9519
2398	0.9532
2389	0.9552
2380	0.9586
2371	0.9634
2362	0.9586
2353	0.9579
2344	0.9599
2335	0.9543
2326	0.9526
2317	0.9433
2308	0.949
2299	0.9508
2290	0.9518
2281	0.9518
2272	0.9542
2263	0.9561
2254	0.956
2245	0.9577
2236	0.9597
2227	0.9605
2218	0.9595
2209	0.9587
2200	0.9579
2191	0.954
2182	0.95
2173	0.9513
2164	0.949
2155	0.9483
2146	0.9486
2137	0.948
2128	0.9527
2119	0.9562
2110	0.9577
2101	0.9401
2092	0.9357
2083	0.9434
2074	0.9471
2065	0.9336
2056	0.9256
2047	0.9256
2038	0.9424
2029	0.9461
2020	0.9418
2011	0.9414
2002	0.9477
1993	0.938
1984	0.9264
1975	0.9282
1966	0.935
1957	0.9359
1948	0.9314
1939	0.9242
1930	0.894
1921	0.8688
1912	0.914
1903	0.9221
1894	0.8632
1885	0.868
1876	0.9126
1867	0.9143
1858	0.8973
1849	0.9029
1840	0.9223
1831	0.9239
1822	0.9252
1813	0.9238
1804	0.9098
1795	0.9093
1786	0.9158
1777	0.9058
1768	0.8598
1759	0.8799
1750	0.9072
1741	0.9196
1732	0.9203
1723	0.9181
1714	0.9213
1705	0.9121
1696	0.9049
1687	0.8942
1678	0.8567
1669	0.8463
1660	0.846
1651	0.796
1642	0.6425
1633	0.3271
1624	0.0429
1615	0.0084
1606	0.2042
1597	0.5192
1588	0.557
1579	0.5169
1570	0.6767
1561	0.7566
1552	0.8143
1543	0.911
1534	0.8634
1525	0.7977
1516	0.6922
1507	0.349
1498	0.2054
1489	0.0055
1480	0.4651
1471	0.762
1462	0.7657
1453	0.0813
1444	0.7474
1435	0.8774
1426	0.8964
1417	0.8899
1408	0.916
1399	0.9051
1390	0.9149
1381	0.8799
1372	0.8963
1363	0.9167
1354	0.9049
1345	0.904
1336	0.886
1327	0.8378
1318	0.3176
1309	0.0852
1300	0.4998
1291	0.7815
1282	0.8288
1273	0.8285
1264	0.505
1255	0.7717
1246	0.865
1237	0.9056
1228	0.9241
1219	0.9274
1210	0.929
1201	0.929
1192	0.9276
1183	0.9156
1174	0.8843
1165	0.8752
1156	0.4371
1147	0.7299
1138	0.5367
1129	0.8836
1120	0.8967
1111	0.848
1102	0.6926
1093	0.4371
1084	0.3492
1075	0.3816
1066	0.5725
1057	0.6274
1048	0.4455
1039	0.7748
1030	0.7209
1021	0.2121
1012	0.7685
1003	0.8794
994	0.905
985	0.9084
976	0.8925
967	0.8812
958	0.88
949	0.8816
940	0.876
931	0.8227
922	0.6749
913	0.8626
904	0.8784
895	0.8803
886	0.8711
877	0.839
868	0.8066
859	0.8078
850	0.7808
841	0.6955
832	0.6695
823	0.742
814	0.7422
805	0.7519
796	0.7391
787	0.723
778	0.7027
769	0.6409
760	0.4974
751	0.2328
742	0.0021
733	0.2292
724	0.6094
715	0.6462
706	0.5996
697	0.5872
688	0.5465
679	0.0771
670	0.5785
661	0.6118
652	0.593
643	0.592
634	0.6129
625	0.6265
616	0.6391
607	0.6469
598	0.6531
589	0.6591
580	0.6642
571	0.6704
562	0.6232
553	0.6427
544	0.667
535	0.5348
526	0.5625
517	0.5661
508	0.558
499	0.537
490	0.5292
481	0.527
472	0.5263
463	0.527
454	0.5279
