Infrared Spectrum: PHENOL, 2-BROMO-
Formula: C6 H5 Br O
CAS: 95-56-7
State: SOLUTION (10% IN CCl4 FOR 3800-1330, 10% IN CS2 FOR 1330-400 CM^-^1)
Class: COBLENTZ III
Instrument: DOW KBr FOREPRISM-GRATING
Instrument parameters: BLAZED AT 3.5, 12.0, 20.0 MICRON, CHANGED AT 5.0, 7.5, 14.9 MICRON
Sampling: TRANSMISSION
Path length: 0.011, 0.011 CM
Resolution: 4
Origin: DOW CHEMICAL COMPANY
1/CM	TRANSMITTANCE
380.87	0.419
389.566	0.419
398.261	0.433
406.957	0.469
415.653	0.536
424.348	0.601
433.044	0.637
441.74	0.704
450.435	0.733
459.131	0.741
467.827	0.661
476.522	0.571
485.218	0.774
493.914	0.792
502.609	0.767
511.305	0.788
520.001	0.801
528.696	0.8
537.392	0.766
546.087	0.78
554.783	0.733
563.479	0.83
572.174	0.841
580.87	0.848
589.566	0.851
598.261	0.855
606.957	0.857
615.653	0.856
624.348	0.852
633.044	0.838
641.74	0.804
650.435	0.5
659.131	0.6581
667.827	0.758
676.522	0.77
685.218	0.707
693.914	0.75
702.609	0.747
711.305	0.762
720.001	0.754
728.696	0.714
737.392	0.542
746.088	0.02
754.783	0.288
763.479	0.666
772.175	0.745
780.87	0.751
789.566	0.765
798.262	0.793
806.957	0.785
815.653	0.777
824.348	0.684
833.044	0.5321
841.74	0.651
850.435	0.673
859.131	0.681
867.827	0.706
876.522	0.74
885.218	0.789
893.914	0.815
902.609	0.821
911.305	0.816
920.001	0.799
928.696	0.581
937.392	0.797
946.088	0.803
954.783	0.808
963.479	0.807
972.175	0.816
980.87	0.822
989.566	0.823
998.262	0.793
1006.96	0.71
1015.65	0.5958
1024.35	0.4081
1033.04	0.68
1041.74	0.5951
1050.44	0.778
1059.13	0.792
1067.83	0.778
1076.52	0.789
1085.22	0.774
1093.91	0.759
1102.61	0.728
1111.31	0.651
1120	0.721
1128.7	0.737
1137.39	0.709
1146.09	0.657
1154.78	0.512
1163.48	0.52
1172.17	0.278
1180.87	0.178
1189.57	0.024
1198.26	0.139
1206.96	0.502
1215.65	0.657
1224.35	0.691
1233.04	0.642
1241.74	0.5229
1250.44	0.064
1259.13	0.591
1267.83	0.724
1276.52	0.693
1285.22	0.575
1293.91	0.154
1302.61	0.68
1311.31	0.762
1320	0.695
1328.7	0.609
1337.39	0.281
1346.09	0.773
1354.78	0.878
1363.48	0.915
1372.17	0.908
1380.87	0.833
1389.57	0.872
1398.26	0.911
1406.96	0.9
1415.65	0.922
1424.35	0.919
1433.04	0.911
1441.74	0.87
1450.44	0.744
1459.13	0.535
1467.83	0.508
1476.52	0.015
1485.22	0.359
1493.91	0.616
1502.61	0.536
1511.31	0.658
1520	0.698
1528.7	0.659
1537.39	0.577
1546.09	0.491
1554.78	0.494
1563.48	0.539
1572.17	0.394
1580.87	0.422
1589.57	0.348
1598.26	0.243
1606.96	0.642
1615.65	0.855
1624.35	0.904
1633.04	0.926
1641.74	0.943
1650.44	0.956
1659.13	0.935
1667.83	0.922
1676.52	0.908
1685.22	0.934
1693.91	0.928
1702.61	0.937
1711.31	0.934
1720	0.937
1728.7	0.939
1737.39	0.935
1746.09	0.939
1754.78	0.939
1763.48	0.926
1772.18	0.879
1780.87	0.922
1789.57	0.943
1798.26	0.934
1806.96	0.926
1815.65	0.928
1824.35	0.935
1833.04	0.934
1841.74	0.937
1850.44	0.935
1859.13	0.923
1867.83	0.934
1876.52	0.941
1885.22	0.937
1893.91	0.911
1902.61	0.892
1911.31	0.937
1920	0.939
1928.7	0.927
1937.39	0.89
1946.09	0.928
1954.78	0.933
1963.48	0.935
1972.18	0.937
1980.87	0.934
1989.57	0.926
1998.26	0.893
2006.96	0.904
2015.65	0.901
2024.35	0.901
2033.04	0.908
2041.74	0.911
2050.44	0.909
2059.13	0.9041
2067.83	0.901
2076.52	0.8971
2085.22	0.9049
2093.91	0.9108
2102.61	0.9092
2111.31	0.9052
2120	0.9009
2128.7	0.907
2137.39	0.9079
2146.09	0.911
2154.78	0.908
2163.48	0.9053
2172.18	0.9101
2180.87	0.9053
2189.57	0.912
2198.26	0.9073
2206.96	0.905
2215.65	0.905
2224.35	0.9042
2233.04	0.8968
2241.74	0.901
2250.44	0.9038
2259.13	0.9032
2267.83	0.893
2276.52	0.883
2285.22	0.8822
2293.91	0.8812
2302.61	0.8775
2311.31	0.8799
2320	0.9002
2328.7	0.908
2337.39	0.924
2346.09	0.9139
2354.78	0.9227
2363.48	0.9307
2372.18	0.9253
2380.87	0.9153
2389.57	0.912
2398.26	0.915
2406.96	0.909
2415.65	0.9173
2424.35	0.915
2433.04	0.9143
2441.74	0.9137
2450.44	0.9186
2459.13	0.9252
2467.83	0.9208
2476.52	0.912
2485.22	0.9034
2493.91	0.9138
2502.61	0.9226
2511.31	0.9213
2520	0.9202
2528.7	0.92
2537.39	0.913
2546.09	0.9231
2554.78	0.935
2563.48	0.9421
2572.18	0.938
2580.87	0.945
2589.57	0.936
2598.26	0.939
2606.96	0.934
2615.65	0.934
2624.35	0.9305
2633.05	0.9389
2641.74	0.943
2650.44	0.9415
2659.13	0.9346
2667.83	0.9323
2676.52	0.9469
2685.22	0.95
2693.91	0.9494
2702.61	0.9486
2711.31	0.9468
2720	0.9484
2728.7	0.9484
2737.39	0.9526
2746.09	0.9496
2754.78	0.9534
2763.48	0.95
2772.18	0.953
2780.87	0.954
2789.57	0.956
2798.26	0.961
2806.96	0.9593
2815.65	0.9603
2824.35	0.9607
2833.05	0.9576
2841.74	0.9554
2850.44	0.9523
2859.13	0.956
2867.83	0.956
2876.52	0.9575
2885.22	0.96
2893.91	0.96
2902.61	0.957
2911.31	0.9515
2920	0.9488
2928.7	0.9492
2937.39	0.956
2946.09	0.9532
2954.78	0.956
2963.48	0.959
2972.18	0.9642
2980.87	0.968
2989.57	0.9602
2998.26	0.9627
3006.96	0.9585
3015.65	0.9384
3024.35	0.931
3033.05	0.8906
3041.74	0.8832
3050.44	0.9076
3059.13	0.9044
3067.83	0.8771
3076.52	0.8012
3085.22	0.833
3093.91	0.9246
3102.61	0.9533
3111.31	0.9591
3120	0.9649
3128.7	0.9631
3137.39	0.967
3146.09	0.9612
3154.78	0.969
3163.48	0.965
3172.18	0.965
3180.87	0.968
3189.57	0.967
3198.26	0.974
3206.96	0.972
3215.65	0.972
3224.35	0.972
3233.05	0.9691
3241.74	0.968
3250.44	0.969
3259.13	0.9709
3267.83	0.9691
3276.52	0.9691
3285.22	0.972
3293.91	0.9679
3302.61	0.9681
3311.31	0.9612
3320	0.957
3328.7	0.96
3337.39	0.961
3346.09	0.9609
3354.78	0.9605
3363.48	0.9557
3372.18	0.9613
3380.87	0.9598
3389.57	0.9602
3398.26	0.956
3406.96	0.9504
3415.65	0.9422
3424.35	0.938
3433.05	0.9278
3441.74	0.9156
3450.44	0.8975
3459.13	0.8797
3467.83	0.8577
3476.52	0.8337
3485.22	0.8097
3493.92	0.766
3502.61	0.6744
3511.31	0.464
3520	0.1804
3528.7	0.124
3537.39	0.3172
3546.09	0.6718
3554.78	0.8456
3563.48	0.8996
3572.18	0.9251
3580.87	0.9273
3589.57	0.9016
3598.26	0.8647
3606.96	0.8787
3615.65	0.9372
3624.35	0.967
3633.05	0.9703
3641.74	0.9809
3650.44	0.9834
3659.13	0.978
3667.83	0.983
3676.52	0.9714
3685.22	0.9772
3693.92	0.9788
3702.61	0.9786
3711.31	0.976
3720	0.982
3728.7	0.984
3737.39	0.9816
3746.09	0.9879
3754.78	0.9921
3763.48	0.9919
3772.18	0.9895
3780.87	0.994
