Infrared Spectrum: BENZENAMINE, 2,4-DIMETHYL-
Formula: C8 H11 N
CAS: 95-68-1
State: SOLUTION (10% IN CCl4 FOR 3800-1335, 10% IN CS2 FOR 1335-450 CM^-^1)
Class: COBLENTZ III
Instrument: DOW KBr FOREPRISM-GRATING
Instrument parameters: BLAZED AT 3.5, 12.0, 20.0 MICRON, CHANGED AT 5.0, 7.5, 14.9 MICRON
Sampling: TRANSMISSION
Path length: 0.011, 0.010 CM
Resolution: 4
Origin: DOW CHEMICAL COMPANY
1/CM	TRANSMITTANCE
450.377	0.589
459.083	0.585
467.789	0.57
476.494	0.559
485.2	0.565
493.906	0.551
502.612	0.525
511.317	0.503
520.023	0.488
528.729	0.466
537.435	0.435
546.14	0.338
554.846	0.436
563.552	0.613
572.258	0.595
580.963	0.586
589.669	0.579
598.375	0.574
607.081	0.574
615.786	0.579
624.492	0.587
633.198	0.587
641.904	0.578
650.609	0.561
659.315	0.602
668.021	0.632
676.727	0.651
685.432	0.67
694.138	0.702
702.844	0.725
711.55	0.691
720.255	0.715
728.961	0.725
737.667	0.759
746.373	0.772
755.078	0.717
763.784	0.759
772.49	0.823
781.196	0.821
789.901	0.744
798.607	0.431
807.313	0.046
816.019	0.363
824.724	0.651
833.43	0.744
842.136	0.736
850.842	0.691
859.547	0.693
868.253	0.469
876.959	0.697
885.665	0.84
894.37	0.885
903.076	0.914
911.782	0.917
920.488	0.902
929.193	0.873
937.899	0.933
946.605	0.948
955.311	0.956
964.016	0.946
972.722	0.915
981.428	0.881
990.134	0.881
998.839	0.827
1007.55	0.703
1016.25	0.851
1024.96	0.816
1033.66	0.768
1042.37	0.863
1051.07	0.902
1059.78	0.903
1068.49	0.915
1077.19	0.934
1085.9	0.933
1094.6	0.948
1103.31	0.957
1112.01	0.956
1120.72	0.946
1129.43	0.929
1138.13	0.873
1146.84	0.54
1155.54	0.68
1164.25	0.941
1172.95	0.96
1181.66	0.971
1190.37	0.972
1199.07	0.965
1207.78	0.949
1216.48	0.934
1225.19	0.912
1233.89	0.787
1242.6	0.695
1251.31	0.853
1260.01	0.731
1268.72	0.404
1277.42	0.16
1286.13	0.323
1294.83	0.634
1303.54	0.797
1312.25	0.693
1320.95	0.87
1329.66	0.907
1338.36	0.918
1347.07	0.921
1355.78	0.922
1364.48	0.897
1373.19	0.847
1381.89	0.782
1390.6	0.873
1399.3	0.859
1408.01	0.776
1416.72	0.774
1425.42	0.741
1434.13	0.669
1442.83	0.487
1451.54	0.551
1460.24	0.506
1468.95	0.526
1477.66	0.496
1486.36	0.45
1495.07	0.398
1503.77	0.131
1512.48	0.002
1521.18	0.356
1529.89	0.491
1538.6	0.448
1547.3	0.413
1556.01	0.446
1564.71	0.512
1573.42	0.527
1582.12	0.468
1590.83	0.414
1599.54	0.356
1608.24	0.234
1616.95	0.255
1625.65	0.072
1634.36	0.262
1643.07	0.589
1651.77	0.795
1660.48	0.853
1669.18	0.893
1677.89	0.911
1686.59	0.923
1695.3	0.933
1704.01	0.938
1712.71	0.937
1721.42	0.936
1730.12	0.918
1738.83	0.893
1747.53	0.892
1756.24	0.923
1764.95	0.936
1773.65	0.944
1782.36	0.945
1791.06	0.938
1799.77	0.915
1808.47	0.926
1817.18	0.942
1825.89	0.945
1834.59	0.938
1843.3	0.921
1852	0.874
1860.71	0.866
1869.41	0.911
1878.12	0.938
1886.83	0.944
1895.53	0.938
1904.24	0.93
1912.94	0.944
1921.65	0.951
1930.35	0.955
1939.06	0.956
1947.77	0.956
1956.47	0.957
1965.18	0.957
1973.88	0.96
1982.59	0.959
1991.3	0.957
2000	0.963
2008.71	0.964
2017.41	0.965
2026.12	0.964
2034.82	0.964
2043.53	0.957
2052.24	0.9569
2060.94	0.959
2069.65	0.964
2078.35	0.9682
2087.06	0.968
2095.76	0.967
2104.47	0.9709
2113.18	0.972
2121.88	0.9722
2130.59	0.972
2139.29	0.972
2148	0.971
2156.7	0.9737
2165.41	0.974
2174.12	0.978
2182.82	0.9764
2191.53	0.978
2200.23	0.978
2208.94	0.9742
2217.64	0.972
2226.35	0.9748
2235.06	0.976
2243.76	0.9725
2252.47	0.9713
2261.17	0.967
2269.88	0.9615
2278.59	0.955
2287.29	0.955
2296	0.957
2304.7	0.952
2313.41	0.9581
2322.11	0.9647
2330.82	0.9633
2339.53	0.972
2348.23	0.9674
2356.94	0.965
2365.64	0.968
2374.35	0.9756
2383.05	0.9728
2391.76	0.972
2400.47	0.9764
2409.17	0.979
2417.88	0.98
2426.58	0.979
2435.29	0.98
2443.99	0.98
2452.7	0.9795
2461.41	0.9795
2470.11	0.979
2478.82	0.984
2487.52	0.986
2496.23	0.9855
2504.93	0.981
2513.64	0.979
2522.35	0.98
2531.05	0.979
2539.76	0.979
2548.46	0.979
2557.17	0.979
2565.87	0.9839
2574.58	0.983
2583.29	0.983
2591.99	0.978
2600.7	0.97
2609.4	0.974
2618.11	0.97
2626.82	0.9767
2635.52	0.979
2644.23	0.979
2652.93	0.9753
2661.64	0.9743
2670.34	0.978
2679.05	0.978
2687.76	0.975
2696.46	0.9766
2705.17	0.978
2713.87	0.9714
2722.58	0.9583
2731.28	0.8659
2739.99	0.9194
2748.7	0.961
2757.4	0.968
2766.11	0.9702
2774.81	0.963
2783.52	0.9568
2792.22	0.955
2800.93	0.9484
2809.64	0.9303
2818.34	0.9028
2827.05	0.8843
2835.75	0.8266
2844.46	0.6361
2853.16	0.4389
2861.87	0.4661
2870.58	0.5151
2879.28	0.5221
2887.99	0.4608
2896.69	0.419
2905.4	0.4035
2914.1	0.2855
2922.81	0.2658
2931.52	0.3235
2940.22	0.4172
2948.93	0.5343
2957.63	0.5377
2966.34	0.4776
2975.05	0.4692
2983.75	0.5831
2992.46	0.571
3001.16	0.4531
3009.87	0.333
3018.57	0.4125
3027.28	0.5223
3035.99	0.6414
3044.69	0.6578
3053.4	0.73
3062.1	0.8334
3070.81	0.8757
3079.51	0.8957
3088.22	0.9
3096.93	0.9138
3105.63	0.936
3114.34	0.934
3123.04	0.9409
3131.75	0.9486
3140.45	0.9586
3149.16	0.965
3157.87	0.967
3166.57	0.964
3175.28	0.9614
3183.98	0.955
3192.69	0.9322
3201.39	0.923
3210.1	0.9258
3218.81	0.9308
3227.51	0.9393
3236.22	0.948
3244.92	0.957
3253.63	0.963
3262.34	0.9637
3271.04	0.967
3279.75	0.964
3288.45	0.9616
3297.16	0.9563
3305.86	0.9496
3314.57	0.934
3323.28	0.9153
3331.98	0.893
3340.69	0.8662
3349.39	0.8316
3358.1	0.7574
3366.8	0.6771
3375.51	0.5889
3384.22	0.5484
3392.92	0.607
3401.63	0.7816
3410.33	0.848
3419.04	0.862
3427.74	0.8504
3436.45	0.7958
3445.16	0.7133
3453.86	0.6204
3462.57	0.5865
3471.27	0.6143
3479.98	0.7033
3488.68	0.8291
3497.39	0.911
3506.1	0.944
3514.8	0.9595
3523.51	0.9664
3532.21	0.974
3540.92	0.979
3549.62	0.98
3558.33	0.985
3567.04	0.9792
3575.74	0.9704
3584.45	0.985
3593.15	0.9838
3601.86	0.9776
3610.57	0.9854
3619.27	0.9864
3627.98	0.986
3636.68	0.986
3645.39	0.983
3654.09	0.9757
3662.8	0.972
3671.51	0.9726
3680.21	0.976
3688.92	0.976
3697.62	0.979
3706.33	0.979
3715.03	0.979
3723.74	0.9815
3732.45	0.9798
3741.15	0.985
3749.86	0.9852
3758.56	0.993
3767.27	0.99
3775.97	0.9914
3784.68	0.993
3793.39	0.993
