Infrared Spectrum: 2,5-XYLIDINE
Formula: C8 H11 N
CAS: 95-78-3
State: LIQUID (NEAT)
Melting point: 13-14 C
Class: COBLENTZ III
Instrument: BAIRD NaCl PRISM
Sampling: TRANSMISSION
Path length: 0.003 CM
Resolution: 4
Origin: WYANDOTTE CHEMICALS CORP.
MICROMETERS	TRANSMITTANCE
2.065	0.868
2.10417	0.867
2.14333	0.868
2.1825	0.862
2.22167	0.854
2.26083	0.861
2.3	0.864
2.33916	0.869
2.37833	0.869
2.4175	0.876
2.45666	0.889
2.49583	0.889
2.535	0.886
2.57416	0.889
2.61333	0.889
2.65249	0.89
2.69166	0.891
2.73083	0.891
2.76999	0.878
2.80916	0.718
2.84833	0.523
2.88749	0.504
2.92666	0.437
2.96582	0.357
3.00499	0.496
3.04416	0.669
3.08332	0.671
3.12249	0.768
3.16166	0.831
3.20082	0.82
3.23999	0.712
3.27916	0.528
3.31832	0.489
3.35749	0.437
3.39665	0.366
3.43582	0.446
3.47499	0.537
3.51415	0.766
3.55332	0.848
3.59249	0.876
3.63165	0.873
3.67082	0.889
3.70998	0.906
3.74915	0.926
3.78832	0.926
3.82748	0.929
3.86665	0.932
3.90582	0.937
3.94498	0.942
3.98415	0.942
4.02331	0.942
4.06248	0.943
4.10165	0.94
4.14081	0.943
4.17998	0.945
4.21915	0.949
4.25831	0.955
4.29748	0.966
4.33664	0.974
4.37581	0.966
4.41498	0.958
4.45414	0.958
4.49331	0.952
4.53248	0.95
4.57164	0.955
4.61081	0.965
4.64998	0.969
4.68914	0.961
4.72831	0.956
4.76747	0.963
4.80664	0.964
4.84581	0.961
4.88497	0.959
4.92414	0.961
4.96331	0.964
5.00247	0.963
5.04164	0.966
5.0808	0.965
5.11997	0.961
5.15914	0.961
5.1983	0.966
5.23747	0.968
5.27664	0.964
5.3158	0.948
5.35497	0.934
5.39413	0.912
5.4333	0.921
5.47247	0.929
5.51163	0.94
5.5508	0.948
5.58997	0.947
5.62913	0.948
5.6683	0.943
5.70747	0.929
5.74663	0.923
5.7858	0.896
5.82496	0.892
5.86413	0.892
5.9033	0.892
5.94246	0.879
5.98163	0.806
6.0208	0.742
6.05996	0.361
6.09913	0.103
6.13829	0.107
6.17746	0.253
6.21663	0.386
6.25579	0.298
6.29496	0.268
6.33413	0.46
6.37329	0.568
6.41246	0.645
6.45162	0.658
6.49079	0.632
6.52996	0.528
6.56912	0.329
6.60829	0.359
6.64746	0.478
6.68662	0.504
6.72579	0.492
6.76496	0.349
6.80412	0.276
6.84329	0.314
6.88245	0.319
6.92162	0.37
6.96079	0.397
6.99995	0.402
7.03912	0.563
7.07829	0.71
7.11745	0.772
7.15662	0.792
7.19578	0.74
7.23495	0.64
7.27412	0.74
7.31328	0.804
7.35245	0.843
7.39162	0.861
7.43078	0.868
7.46995	0.854
7.50911	0.83
7.54828	0.761
7.58745	0.605
7.62661	0.424
7.66578	0.317
7.70495	0.277
7.74411	0.317
7.78328	0.329
7.82244	0.448
7.86161	0.573
7.90078	0.688
7.93994	0.763
7.97911	0.789
8.01828	0.811
8.05744	0.82
8.09661	0.83
8.13578	0.832
8.17494	0.741
8.21411	0.671
8.25327	0.76
8.29244	0.803
8.33161	0.826
8.37077	0.847
8.40994	0.861
8.44911	0.862
8.48827	0.854
8.52744	0.816
8.5666	0.745
8.60577	0.703
8.64494	0.681
8.6841	0.629
8.72327	0.629
8.76244	0.688
8.8016	0.74
8.84077	0.767
8.87993	0.801
8.9191	0.808
8.95827	0.822
8.99743	0.827
9.0366	0.824
9.07577	0.825
9.11493	0.825
9.1541	0.806
9.19327	0.8
9.23243	0.782
9.2716	0.773
9.31076	0.768
9.34993	0.772
9.3891	0.774
9.42826	0.778
9.46743	0.784
9.5066	0.772
9.54576	0.739
9.58493	0.702
9.62409	0.642
9.66326	0.635
9.70243	0.656
9.74159	0.692
9.78076	0.731
9.81993	0.747
9.85909	0.76
9.89826	0.744
9.93742	0.709
9.97659	0.606
10.0158	0.42
10.0549	0.458
10.0941	0.569
10.1333	0.678
10.1724	0.738
10.2116	0.779
10.2508	0.801
10.2899	0.813
10.3291	0.83
10.3683	0.838
10.4074	0.842
10.4466	0.846
10.4858	0.848
10.5249	0.849
10.5641	0.843
10.6033	0.83
10.6424	0.814
10.6816	0.783
10.7208	0.745
10.7599	0.731
10.7991	0.738
10.8382	0.75
10.8774	0.769
10.9166	0.789
10.9557	0.793
10.9949	0.803
11.0341	0.808
11.0732	0.801
11.1124	0.801
11.1516	0.803
11.1907	0.8
11.2299	0.79
11.2691	0.782
11.3082	0.779
11.3474	0.76
11.3866	0.74
11.4257	0.699
11.4649	0.65
11.5041	0.602
11.5432	0.542
11.5824	0.492
11.6216	0.451
11.6607	0.439
11.6999	0.43
11.7391	0.439
11.7782	0.474
11.8174	0.532
11.8566	0.615
11.8957	0.658
11.9349	0.675
11.9741	0.704
12.0132	0.708
12.0524	0.713
12.0916	0.702
12.1307	0.699
12.1699	0.697
12.2091	0.675
12.2482	0.649
12.2874	0.618
12.3266	0.558
12.3657	0.471
12.4049	0.381
12.4441	0.308
12.4832	0.227
12.5224	0.2
12.5616	0.159
12.6007	0.141
12.6399	0.138
12.6791	0.178
12.7182	0.271
12.7574	0.369
12.7966	0.44
12.8357	0.499
12.8749	0.52
12.9141	0.543
12.9532	0.559
12.9924	0.563
13.0316	0.559
13.0707	0.564
13.1099	0.567
13.1491	0.562
13.1882	0.565
13.2274	0.568
13.2666	0.569
13.3057	0.576
13.3449	0.583
13.3841	0.573
13.4232	0.569
13.4624	0.56
13.5016	0.559
13.5407	0.559
13.5799	0.562
13.6191	0.562
13.6582	0.562
13.6974	0.568
13.7366	0.579
13.7757	0.596
13.8149	0.613
13.8541	0.627
13.8932	0.627
13.9324	0.605
13.9716	0.591
14.0107	0.584
14.0499	0.568
14.0891	0.575
14.1282	0.573
14.1674	0.563
14.2066	0.541
14.2457	0.53
14.2849	0.527
14.324	0.52
14.3632	0.51
14.4024	0.506
14.4415	0.501
14.4807	0.504
14.5199	0.501
14.559	0.503
14.5982	0.501
14.6374	0.503
14.6765	0.507
14.7157	0.509
14.7549	0.517
14.794	0.52
14.8332	0.522
14.8724	0.526
14.9115	0.525
14.9507	0.526
14.9899	0.536
15.029	0.549
15.0682	0.564
15.1074	0.569
15.1465	0.562
15.1857	0.559
15.2249	0.558
15.264	0.568
15.3032	0.568
15.3424	0.579
15.3815	0.591
15.4207	0.597
15.4599	0.599
15.499	0.611
15.5382	0.618
15.5774	0.624
15.6165	0.629
15.6557	0.633
15.6949	0.645
15.734	0.645
15.7732	0.642
15.8124	0.649
15.8515	0.656
15.8907	0.66
15.9299	0.662
15.969	0.675
16.0082	0.68
