Infrared Spectrum: 2-AMINO-4-CHLOROTOLUENE
Formula: C7 H8 Cl N
CAS: 95-79-4
State: SOLUTION (10% CCl4 FOR 5000-1330, 10% CS2 FOR 1330-625 CM^-^1)
Class: COBLENTZ
Instrument: Not specified, most likely a prism, grating, or hybrid spectrometer.
Sampling: TRANSMISSION
Path length: 0.0123 CM, 0.0123 CM
Resolution: 4
Origin: DOW CHEMICAL COMPANY
MICROMETERS	TRANSMITTANCE
2.053	0.898
2.09298	0.898
2.13296	0.888
2.17294	0.889
2.21292	0.894
2.2529	0.879
2.29288	0.876
2.33286	0.883
2.37285	0.879
2.41283	0.874
2.45281	0.871
2.49279	0.874
2.53277	0.884
2.57275	0.891
2.61273	0.901
2.65271	0.896
2.69269	0.889
2.73267	0.896
2.77265	0.889
2.81263	0.749
2.85261	0.632
2.89259	0.612
2.93258	0.732
2.97256	0.876
3.01254	0.881
3.05252	0.851
3.0925	0.866
3.13248	0.883
3.17246	0.859
3.21244	0.821
3.25242	0.761
3.2924	0.759
3.33238	0.739
3.37236	0.664
3.41234	0.676
3.45232	0.719
3.4923	0.879
3.53229	0.883
3.57227	0.888
3.61225	0.869
3.65223	0.881
3.69221	0.898
3.73219	0.903
3.77217	0.901
3.81215	0.894
3.85213	0.901
3.89211	0.903
3.93209	0.908
3.97207	0.919
4.01205	0.919
4.05203	0.919
4.09202	0.916
4.132	0.914
4.17198	0.916
4.21196	0.916
4.25194	0.918
4.29192	0.921
4.3319	0.929
4.37188	0.926
4.41186	0.919
4.45184	0.926
4.49182	0.919
4.5318	0.919
4.57178	0.914
4.61176	0.913
4.65174	0.919
4.69173	0.916
4.73171	0.918
4.77169	0.919
4.81167	0.918
4.85165	0.919
4.89163	0.919
4.93161	0.923
4.97159	0.924
5.01157	0.923
5.05155	0.916
5.09153	0.916
5.13151	0.918
5.17149	0.919
5.21147	0.919
5.25146	0.918
5.29144	0.916
5.33142	0.886
5.3714	0.841
5.41138	0.894
5.45136	0.908
5.49134	0.901
5.53132	0.901
5.5713	0.904
5.61128	0.908
5.65126	0.896
5.69124	0.883
5.73122	0.869
5.7712	0.869
5.81119	0.871
5.85117	0.863
5.89115	0.828
5.93113	0.779
5.97111	0.722
6.01109	0.692
6.05107	0.624
6.09105	0.427
6.13103	0.08
6.17101	0.04
6.21099	0.225
6.25097	0.398
6.29095	0.348
6.33093	0.327
6.37091	0.534
6.4109	0.659
6.45088	0.729
6.49086	0.781
6.53084	0.787
6.57082	0.724
6.6108	0.507
6.65078	0.228
6.69076	0.16
6.73074	0.545
6.77072	0.599
6.8107	0.51
6.85068	0.477
6.89066	0.484
6.93064	0.582
6.97063	0.636
7.01061	0.535
7.05059	0.33
7.09057	0.732
7.13055	0.829
7.17053	0.839
7.21051	0.721
7.25049	0.706
7.29047	0.858
7.33045	0.858
7.37043	0.883
7.41041	0.898
7.45039	0.899
7.49037	0.893
7.53035	0.878
7.57034	0.772
7.61032	0.564
7.6503	0.472
7.69028	0.626
7.73026	0.636
7.77024	0.664
7.81022	0.644
7.8502	0.393
7.89018	0.31
7.93016	0.636
7.97014	0.761
8.01012	0.818
8.0501	0.821
8.09008	0.823
8.13007	0.848
8.17005	0.851
8.21003	0.828
8.25001	0.757
8.28999	0.589
8.32997	0.644
8.36995	0.858
8.40993	0.876
8.44991	0.873
8.48989	0.871
8.52987	0.873
8.56985	0.871
8.60983	0.859
8.64981	0.826
8.68979	0.754
8.72978	0.679
8.76976	0.641
8.80974	0.739
8.84972	0.826
8.8897	0.848
8.92968	0.849
8.96966	0.824
9.00964	0.786
9.04962	0.736
9.0896	0.522
9.12958	0.495
9.16956	0.797
9.20954	0.833
9.24952	0.833
9.28951	0.804
9.32949	0.751
9.36947	0.697
9.40945	0.682
9.44943	0.717
9.48941	0.767
9.52939	0.789
9.56937	0.799
9.60935	0.794
9.64933	0.746
9.68931	0.711
9.72929	0.781
9.76927	0.826
9.80925	0.839
9.84923	0.841
9.88922	0.838
9.9292	0.794
9.96918	0.741
10.0092	0.599
10.0491	0.343
10.0891	0.225
10.1291	0.539
10.1691	0.709
10.2091	0.789
10.249	0.816
10.289	0.831
10.329	0.843
10.369	0.848
10.409	0.849
10.4489	0.849
10.4889	0.849
10.5289	0.851
10.5689	0.848
10.6089	0.839
10.6488	0.829
10.6888	0.816
10.7288	0.796
10.7688	0.777
10.8088	0.767
10.8488	0.757
10.8887	0.736
10.9287	0.699
10.9687	0.614
11.0087	0.419
11.0487	0.19
11.0886	0.063
11.1286	0.212
11.1686	0.409
11.2086	0.525
11.2486	0.595
11.2885	0.656
11.3285	0.692
11.3685	0.712
11.4085	0.724
11.4485	0.724
11.4884	0.719
11.5284	0.707
11.5684	0.689
11.6084	0.651
11.6484	0.601
11.6883	0.524
11.7283	0.432
11.7683	0.263
11.8083	0.16
11.8483	0.103
11.8883	0.23
11.9282	0.455
11.9682	0.58
12.0082	0.656
12.0482	0.694
12.0882	0.716
12.1281	0.727
12.1681	0.732
12.2081	0.734
12.2481	0.732
12.2881	0.726
12.328	0.717
12.368	0.699
12.408	0.671
12.448	0.624
12.488	0.539
12.5279	0.429
12.5679	0.26
12.6079	0.075
12.6479	0.018
12.6879	0.068
12.7278	0.288
12.7678	0.45
12.8078	0.57
12.8478	0.621
12.8878	0.654
12.9277	0.672
12.9677	0.682
13.0077	0.687
13.0477	0.689
13.0877	0.689
13.1277	0.691
13.1676	0.691
13.2076	0.691
13.2476	0.689
13.2876	0.689
13.3276	0.691
13.3675	0.691
13.4075	0.691
13.4475	0.687
13.4875	0.687
13.5275	0.687
13.5674	0.686
13.6074	0.684
13.6474	0.682
13.6874	0.681
13.7274	0.677
13.7673	0.674
13.8073	0.671
13.8473	0.664
13.8873	0.664
13.9273	0.661
13.9672	0.659
14.0072	0.657
14.0472	0.656
14.0872	0.652
14.1272	0.649
14.1671	0.637
14.2071	0.627
14.2471	0.617
14.2871	0.612
14.3271	0.611
14.3671	0.612
14.407	0.616
14.447	0.617
14.487	0.617
14.527	0.617
14.567	0.616
14.6069	0.616
14.6469	0.612
14.6869	0.611
14.7269	0.609
14.7669	0.604
14.8068	0.599
14.8468	0.597
14.8868	0.592
14.9268	0.587
14.9668	0.58
15.0067	0.577
15.0467	0.57
15.0867	0.559
15.1267	0.552
15.1667	0.54
15.2066	0.525
15.2466	0.504
15.2866	0.487
15.3266	0.46
15.3666	0.449
15.4066	0.449
15.4465	0.457
15.4865	0.485
15.5265	0.514
15.5665	0.535
15.6065	0.549
15.6464	0.557
15.6864	0.565
15.7264	0.569
15.7664	0.57
15.8064	0.575
15.8463	0.577
15.8863	0.579
15.9263	0.579
