Infrared Spectrum: 4-CHLORORESORCINOL
Formula: C6 H5 Cl O2
CAS: 95-88-5
State: SOLID (MINERAL OIL MULL)
Melting point: 105-106 C
Class: COBLENTZ
Instrument: Not specified, most likely a prism, grating, or hybrid spectrometer.
Sampling: TRANSMISSION
Resolution: 4
Origin: WYANDOTTE CHEMICALS CORP., WYANDOTTE, MICHIGAN, USA
MICROMETERS	TRANSMITTANCE
2.019	0.468
2.05618	0.469
2.09337	0.465
2.13055	0.499
2.16774	0.506
2.20492	0.51
2.2421	0.524
2.27929	0.534
2.31647	0.555
2.35366	0.564
2.39084	0.565
2.42802	0.57
2.46521	0.592
2.50239	0.613
2.53958	0.627
2.57676	0.635
2.61394	0.665
2.65113	0.688
2.68831	0.706
2.7255	0.731
2.76268	0.7
2.79986	0.527
2.83705	0.159
2.87423	0.038
2.91142	0.027
2.9486	0.034
2.98578	0.055
3.02297	0.108
3.06015	0.26
3.09734	0.299
3.13452	0.345
3.17171	0.386
3.20889	0.406
3.24607	0.389
3.28326	0.358
3.32044	0.159
3.35763	0.024
3.39481	0.034
3.43199	0.063
3.46918	0.065
3.50636	0.231
3.54355	0.564
3.58073	0.618
3.61791	0.609
3.6551	0.607
3.69228	0.627
3.72947	0.638
3.76665	0.655
3.80383	0.657
3.84102	0.649
3.8782	0.674
3.91539	0.683
3.95257	0.691
3.98975	0.685
4.02694	0.682
4.06412	0.702
4.10131	0.72
4.13849	0.711
4.17567	0.719
4.21286	0.73
4.25004	0.699
4.28723	0.741
4.32441	0.772
4.36159	0.813
4.39878	0.789
4.43596	0.772
4.47315	0.789
4.51033	0.812
4.54751	0.821
4.5847	0.827
4.62188	0.817
4.65907	0.829
4.69625	0.848
4.73343	0.863
4.77062	0.862
4.8078	0.872
4.84499	0.88
4.88217	0.877
4.91935	0.879
4.95654	0.882
4.99372	0.882
5.03091	0.9
5.06809	0.908
5.10527	0.897
5.14246	0.893
5.17964	0.891
5.21683	0.891
5.25401	0.886
5.2912	0.899
5.32838	0.913
5.36556	0.877
5.40275	0.865
5.43993	0.924
5.47712	0.919
5.5143	0.93
5.55148	0.922
5.58867	0.942
5.62585	0.919
5.66304	0.939
5.70022	0.922
5.7374	0.903
5.77459	0.866
5.81177	0.875
5.84896	0.841
5.88614	0.844
5.92332	0.851
5.96051	0.868
5.99769	0.827
6.03488	0.745
6.07206	0.506
6.10924	0.297
6.14643	0.272
6.18361	0.049
6.2208	0.091
6.25798	0.406
6.29516	0.689
6.33235	0.669
6.36953	0.655
6.40672	0.606
6.4439	0.624
6.48108	0.582
6.51827	0.389
6.55545	0.02
6.59264	0.08
6.62982	0.227
6.667	0.376
6.70419	0.409
6.74137	0.359
6.77856	0.167
6.81574	0.106
6.85292	0.029
6.89011	0.02
6.92729	0.089
6.96448	0.316
7.00166	0.444
7.03884	0.496
7.07603	0.568
7.11321	0.542
7.1504	0.446
7.18758	0.266
7.22476	0.168
7.26195	0.282
7.29913	0.396
7.33632	0.551
7.3735	0.587
7.41069	0.6
7.44787	0.586
7.48505	0.511
7.52224	0.379
7.55942	0.127
7.59661	0.213
7.63379	0.324
7.67097	0.286
7.70816	0.124
7.74534	0.02
7.78253	0.027
7.81971	0.082
7.85689	0.179
7.89408	0.272
7.93126	0.251
7.96845	0.39
8.00563	0.482
8.04281	0.48
8.08	0.375
8.11718	0.184
8.15437	0.029
8.19155	0.021
8.22873	0.052
8.26592	0.176
8.3031	0.288
8.34029	0.286
8.37747	0.182
8.41465	0.103
8.45184	0.049
8.48902	0.024
8.52621	0.023
8.56339	0.01
8.60057	0.012
8.63776	0.024
8.67494	0.046
8.71213	0.083
8.74931	0.103
8.78649	0.032
8.82368	0.043
8.86086	0.037
8.89805	0.139
8.93523	0.251
8.97241	0.316
9.0096	0.373
9.04678	0.418
9.08397	0.451
9.12115	0.472
9.15833	0.494
9.19552	0.503
9.2327	0.499
9.26989	0.497
9.30707	0.524
9.34425	0.496
9.38144	0.303
9.41862	0.195
9.45581	0.379
9.49299	0.455
9.53018	0.522
9.56736	0.545
9.60454	0.564
9.64173	0.565
9.67891	0.57
9.7161	0.587
9.75328	0.596
9.79046	0.603
9.82765	0.615
9.86483	0.634
9.90202	0.644
9.9392	0.654
9.97638	0.666
10.0136	0.685
10.0508	0.691
10.0879	0.682
10.1251	0.624
10.1623	0.452
10.1995	0.105
10.2367	0.01
10.2739	0.024
10.311	0.018
10.3482	0.04
10.3854	0.136
10.4226	0.285
10.4598	0.395
10.497	0.452
10.5341	0.485
10.5713	0.427
10.6085	0.472
10.6457	0.592
10.6829	0.632
10.7201	0.654
10.7572	0.672
10.7944	0.691
10.8316	0.705
10.8688	0.714
10.906	0.724
10.9432	0.736
10.9804	0.733
11.0175	0.753
11.0547	0.765
11.0919	0.778
11.1291	0.789
11.1663	0.79
11.2035	0.796
11.2406	0.8
11.2778	0.804
11.315	0.815
11.3522	0.813
11.3894	0.81
11.4266	0.82
11.4637	0.82
11.5009	0.813
11.5381	0.781
11.5753	0.621
11.6125	0.542
11.6497	0.696
11.6868	0.731
11.724	0.722
11.7612	0.711
11.7984	0.675
11.8356	0.621
11.8728	0.506
11.91	0.353
11.9471	0.111
11.9843	0.027
12.0215	0.119
12.0587	0.39
12.0959	0.592
12.1331	0.675
12.1702	0.72
12.2074	0.747
12.2446	0.764
12.2818	0.781
12.319	0.781
12.3562	0.79
12.3933	0.789
12.4305	0.762
12.4677	0.725
12.5049	0.596
12.5421	0.355
12.5793	0.099
12.6165	0.052
12.6536	0.215
12.6908	0.483
12.728	0.601
12.7652	0.654
12.8024	0.668
12.8396	0.675
12.8767	0.677
12.9139	0.68
12.9511	0.674
12.9883	0.657
13.0255	0.641
13.0627	0.654
13.0998	0.675
13.137	0.672
13.1742	0.683
13.2114	0.686
13.2486	0.674
13.2858	0.658
13.3229	0.609
13.3601	0.497
13.3973	0.316
13.4345	0.182
13.4717	0.254
13.5089	0.361
13.5461	0.431
13.5832	0.454
13.6204	0.471
13.6576	0.462
13.6948	0.449
13.732	0.441
13.7692	0.431
13.8063	0.409
13.8435	0.384
13.8807	0.359
13.9179	0.339
13.9551	0.317
13.9923	0.291
14.0294	0.268
14.0666	0.235
14.1038	0.213
14.141	0.2
14.1782	0.21
14.2154	0.249
14.2525	0.339
14.2897	0.41
14.3269	0.401
14.3641	0.325
14.4013	0.246
14.4385	0.21
14.4757	0.22
14.5128	0.255
14.55	0.294
14.5872	0.317
14.6244	0.344
14.6616	0.364
14.6988	0.376
14.7359	0.386
14.7731	0.39
14.8103	0.403
14.8475	0.415
14.8847	0.418
14.9219	0.42
14.959	0.41
14.9962	0.398
15.0334	0.379
15.0706	0.355
15.1078	0.339
15.145	0.32
15.1821	0.306
15.2193	0.299
15.2565	0.299
15.2937	0.299
15.3309	0.293
15.3681	0.336
15.4053	0.364
15.4424	0.401
15.4796	0.421
15.5168	0.455
15.554	0.472
15.5912	0.482
15.6284	0.485
15.6655	0.488
15.7027	0.483
15.7399	0.482
15.7771	0.477
15.8143	0.471
15.8515	0.475
15.8886	0.474
15.9258	0.462
15.963	0.457
