Infrared Spectrum: PHENOL, 2,4,5-TRICHLORO-
Formula: C6 H3 Cl3 O
CAS: 95-95-4
State: SOLUTION (10% IN CCl4 FOR 3800-1333, 10% IN CS2 FOR 1333-450 CM^-^1)
Class: COBLENTZ III
Instrument: DOW KBr FOREPRISM-GRATING
Instrument parameters: BLAZED AT 3.5, 12.0, 20.0 MICRON, CHANGED AT 5.0, 7.5, 14.9 MICRON
Sampling: TRANSMISSION
Path length: 0.011, 0.010 CM
Resolution: 4
Origin: DOW CHEMICAL COMPANY
1/CM	TRANSMITTANCE
428.613	0.891
437.319	0.895
446.024	0.911
454.73	0.923
463.436	0.929
472.142	0.934
480.847	0.942
489.553	0.945
498.259	0.952
506.965	0.948
515.67	0.934
524.376	0.832
533.082	0.929
541.788	0.955
550.493	0.96
559.199	0.941
567.905	0.532
576.611	0.953
585.316	0.975
594.022	0.978
602.728	0.978
611.434	0.978
620.139	0.974
628.845	0.972
637.551	0.959
646.257	0.93
654.962	0.926
663.668	0.93
672.374	0.775
681.08	0.371
689.785	0.953
698.491	0.971
707.197	0.957
715.903	0.862
724.608	0.76
733.314	0.3209
742.02	0.891
750.726	0.968
759.431	0.978
768.137	0.98
776.843	0.972
785.549	0.971
794.254	0.976
802.96	0.97
811.666	0.98
820.372	0.985
829.077	0.972
837.783	0.923
846.489	0.839
855.195	0.769
863.9	0.73
872.606	0.1969
881.312	0.753
890.018	0.925
898.723	0.971
907.429	0.986
916.135	0.982
924.841	0.961
933.546	0.822
942.252	0.956
950.958	0.997
959.664	0.995
968.369	1
977.075	0.997
985.781	0.993
994.487	0.998
1003.19	0.994
1011.9	0.993
1020.6	0.985
1029.31	0.979
1038.02	0.974
1046.72	0.956
1055.43	0.859
1064.13	0.788
1072.84	0.1859
1081.54	0.732
1090.25	0.949
1098.96	0.964
1107.66	0.931
1116.37	0.6969
1125.07	0.685
1133.78	0.742
1142.48	0.925
1151.19	0.934
1159.9	0.895
1168.6	0.791
1177.31	0.4849
1186.01	0.02
1194.72	0.66
1203.42	0.814
1212.13	0.638
1220.84	0.836
1229.54	0.705
1238.25	0.6999
1246.95	0.739
1255.66	0.76
1264.36	0.737
1273.07	0.715
1281.78	0.704
1290.48	0.3929
1299.19	0.204
1307.89	0.811
1316.6	0.91
1325.3	0.959
1334.01	0.968
1342.72	0.978
1351.42	0.975
1360.13	0.964
1368.83	0.9249
1377.54	0.953
1386.25	0.953
1394.95	0.782
1403.66	0.7861
1412.36	0.956
1421.07	0.964
1429.77	0.959
1438.48	0.92
1447.19	0.7649
1455.89	0.1099
1464.6	0.029
1473.3	0.4381
1482.01	0.2919
1490.71	0.4642
1499.42	0.727
1508.13	0.622
1516.83	0.692
1525.54	0.674
1534.24	0.602
1542.95	0.49
1551.65	0.415
1560.36	0.355
1569.07	0.182
1577.77	0.614
1586.48	0.644
1595.18	0.606
1603.89	0.4761
1612.59	0.889
1621.3	0.953
1630.01	0.97
1638.71	0.972
1647.42	0.979
1656.12	0.985
1664.83	0.989
1673.53	0.99
1682.24	0.985
1690.95	0.986
1699.65	0.986
1708.36	0.979
1717.06	0.96
1725.77	0.897
1734.48	0.961
1743.18	0.975
1751.89	0.968
1760.59	0.98
1769.3	0.989
1778	0.993
1786.71	0.987
1795.42	0.983
1804.12	0.985
1812.83	0.983
1821.53	0.989
1830.24	0.99
1838.94	0.987
1847.65	0.983
1856.36	0.983
1865.06	0.986
1873.77	0.989
1882.47	0.991
1891.18	0.993
1899.88	0.998
1908.59	0.995
1917.3	0.993
1926	0.995
1934.71	0.998
1943.41	0.997
1952.12	0.998
1960.82	1.014
1969.53	0.991
1978.24	0.986
1986.94	0.985
1995.65	0.979
2004.35	0.9905
2013.06	0.993
2021.76	0.9935
2030.47	0.9975
2039.18	0.996
2047.88	0.998
2056.59	1
2065.29	1
2074	1
2082.71	1
2091.41	1
2100.12	0.998
2108.82	1
2117.53	0.9974
2126.23	0.993
2134.94	0.9962
2143.65	0.998
2152.35	1
2161.06	1
2169.76	0.9988
2178.47	0.995
2187.17	0.993
2195.88	0.9946
2204.59	0.998
2213.29	0.998
2222	0.9974
2230.7	0.994
2239.41	0.993
2248.11	0.9903
2256.82	0.9863
2265.53	0.983
2274.23	0.9786
2282.94	0.9753
2291.64	0.9643
2300.35	0.9677
2309.05	0.963
2317.76	0.9682
2326.47	0.9702
2335.17	0.9472
2343.88	0.9629
2352.58	0.9877
2361.29	0.9503
2369.99	0.9955
2378.7	0.985
2387.41	0.985
2396.11	0.9883
2404.82	0.991
2413.52	0.991
2422.23	0.991
2430.93	0.991
2439.64	0.99
2448.35	0.99
2457.05	0.9926
2465.76	0.9932
2474.46	0.991
2483.17	0.993
2491.88	0.9913
2500.58	0.9892
2509.29	0.985
2517.99	0.9822
2526.7	0.978
2535.4	0.98
2544.11	0.983
2552.82	0.9804
2561.52	0.9829
2570.23	0.9833
2578.93	0.9817
2587.64	0.99
2596.34	0.993
2605.05	0.993
2613.76	0.991
2622.46	0.9912
2631.17	0.9872
2639.87	0.986
2648.58	0.9899
2657.28	0.989
2665.99	0.9861
2674.7	0.983
2683.4	0.9801
2692.11	0.9889
2700.81	0.9871
2709.52	0.9889
2718.22	0.989
2726.93	0.987
2735.64	0.985
2744.34	0.978
2753.05	0.986
2761.75	0.989
2770.46	0.99
2779.16	0.99
2787.87	0.991
2796.58	0.99
2805.28	0.99
2813.99	0.989
2822.69	0.986
2831.4	0.983
2840.11	0.979
2848.81	0.978
2857.52	0.978
2866.22	0.9801
2874.93	0.9872
2883.63	0.993
2892.34	0.993
2901.05	0.9909
2909.75	0.986
2918.46	0.987
2927.16	0.989
2935.87	0.99
2944.57	0.991
2953.28	0.9901
2961.99	0.9931
2970.69	0.994
2979.4	0.9953
2988.1	0.998
2996.81	1
3005.51	0.997
3014.22	0.9927
3022.93	0.9813
3031.63	0.978
3040.34	0.9792
3049.04	0.9852
3057.75	0.985
3066.45	0.9824
3075.16	0.9718
3083.87	0.968
3092.57	0.9266
3101.28	0.9273
3109.98	0.9689
3118.69	0.9852
3127.39	0.9875
3136.1	0.99
3144.81	0.99
3153.51	0.991
3162.22	0.991
3170.92	0.9973
3179.63	0.998
3188.33	1
3197.04	1
3205.75	0.998
3214.45	1
3223.16	0.997
3231.86	0.9964
3240.57	0.9937
3249.28	0.994
3257.98	0.9943
3266.69	0.994
3275.39	0.9947
3284.1	0.994
3292.8	0.9946
3301.51	0.994
3310.22	0.994
3318.92	0.993
3327.63	0.9922
3336.33	0.989
3345.04	0.987
3353.74	0.986
3362.45	0.986
3371.16	0.985
3379.86	0.982
3388.57	0.98
3397.27	0.979
3405.98	0.978
3414.68	0.978
3423.39	0.978
3432.1	0.9713
3440.8	0.9661
3449.51	0.9621
3458.21	0.9555
3466.92	0.949
3475.62	0.943
3484.33	0.9295
3493.04	0.9221
3501.74	0.9005
3510.45	0.8435
3519.15	0.7512
3527.86	0.5782
3536.56	0.2337
3545.27	0.137
3553.98	0.2907
3562.68	0.7327
3571.39	0.9197
3580.09	0.9305
3588.8	0.9296
3597.51	0.9419
3606.21	0.9733
3614.92	0.9826
3623.62	0.9866
3632.33	0.99
3641.03	0.991
3649.74	0.991
3658.45	0.991
3667.15	0.991
3675.86	0.994
3684.56	0.995
3693.27	0.997
3701.97	0.9976
3710.68	0.9993
3719.39	1
3728.09	1
3736.8	1
3745.5	0.9973
3754.21	0.997
3762.91	0.997
3771.62	0.997
