Infrared Spectrum: BENZENE, 1,2,4,5-TETRACHLORO-
Formula: C6 H2 Cl4
CAS: 95-94-3
State: SOLUTION (10% IN CCl4 FOR 3800-1333, 10% IN CS2 FOR 1333-400 CM^-^1) VS. SOLVENT
Melting point: 139 C
Class: COBLENTZ II
Instrument: DOW KBr FOREPRISM-GRATING
Instrument parameters: BLAZED AT 3.5, 12.0, 20.0 MICRON, CHANGED AT 5.0, 7.5, 14.9 MICRON
Sampling: TRANSMISSION
Path length: 0.011, 0.011 CM
Resolution: 4
Origin: DOW CHEMICAL COMPANY
1/CM	TRANSMITTANCE
383.449	0.973
392.925	0.973
402.4	0.974
411.876	0.967
421.352	0.949
430.827	0.894
440.303	0.816
449.779	0.979
459.255	1.029
468.73	1.014
478.206	1.014
487.682	1.013
497.157	0.991
506.633	0.681
516.109	0.914
525.584	0.93
535.06	0.931
544.536	0.939
554.012	0.946
563.487	0.958
572.963	0.968
582.439	0.957
591.914	0.98
601.39	0.983
610.866	0.985
620.341	0.985
629.817	0.977
639.293	0.4948
648.769	0.4641
658.244	0.934
667.72	0.951
677.196	0.976
686.671	0.983
696.147	0.992
705.623	0.995
715.098	1.002
724.574	1.008
734.05	1.013
743.525	1.013
753.001	1.01
762.477	1.01
771.953	1.014
781.428	1.008
790.904	1
800.38	1.008
809.855	1.01
819.331	1.004
828.807	0.98
838.282	0.98
847.758	1.01
857.234	0.973
866.71	0.939
876.185	0.3148
885.661	0.7821
895.137	0.96
904.612	0.986
914.088	1.01
923.564	1.014
933.039	1.019
942.515	1.01
951.991	1.004
961.466	1.011
970.942	1.022
980.418	1.022
989.894	1.023
999.369	1.014
1008.84	1.005
1018.32	1.007
1027.8	0.98
1037.27	1.001
1046.75	0.968
1056.22	0.5509
1065.7	0.2642
1075.17	0.923
1084.65	0.957
1094.13	0.967
1103.6	0.96
1113.08	0.6097
1122.55	0.4271
1132.03	0.934
1141.5	0.991
1150.98	1
1160.46	0.994
1169.93	0.995
1179.41	1.004
1188.88	1.008
1198.36	1.001
1207.83	1.002
1217.31	0.991
1226.79	0.809
1236.26	0.958
1245.74	0.976
1255.21	0.834
1264.69	0.985
1274.16	1
1283.64	0.979
1293.12	0.991
1302.59	0.957
1312.07	0.934
1321.54	0.6357
1331.02	0.4483
1340.49	0.8661
1349.97	0.96
1359.45	0.94
1368.92	0.923
1378.4	0.905
1387.87	0.94
1397.35	0.958
1406.82	0.94
1416.3	0.942
1425.78	0.927
1435.25	0.4279
1444.73	0.01
1454.2	0.7841
1463.68	0.7969
1473.15	0.3866
1482.63	0.857
1492.11	0.971
1501.58	0.991
1511.06	1.001
1520.53	0.982
1530.01	0.997
1539.48	1.001
1548.96	0.992
1558.44	1.002
1567.91	1.001
1577.39	1.002
1586.86	1.011
1596.34	1.019
1605.81	1.017
1615.29	1.016
1624.77	1.014
1634.24	1.013
1643.72	1.008
1653.19	1.014
1662.67	1.011
1672.14	1.007
1681.62	1.011
1691.1	1.016
1700.57	1.016
1710.05	1.011
1719.52	1.008
1729	0.979
1738.47	0.899
1747.95	0.977
1757.42	1.002
1766.9	1.008
1776.38	1.01
1785.85	1.008
1795.33	1.002
1804.8	0.967
1814.28	1.002
1823.75	1.01
1833.23	1.013
1842.71	1.016
1852.18	1.013
1861.66	1.014
1871.13	1.019
1880.61	1.013
1890.08	1.016
1899.56	1.019
1909.04	1.017
1918.51	1.016
1927.99	1.016
1937.46	1.014
1946.94	1.014
1956.41	1.014
1965.89	1.014
1975.37	1.014
1984.84	1.011
1994.32	1.008
2003.79	1.008
2013.27	1.016
2022.74	1.016
2032.22	1.019
2041.7	1.016
2051.17	1.0189
2060.65	1.014
2070.12	1.0169
2079.6	1.0081
2089.07	1.013
2098.55	1.014
2108.03	1.01
2117.5	1.011
2126.98	1.0109
2136.45	1.0046
2145.93	1.0071
2155.4	1.008
2164.88	1.004
2174.36	1.002
2183.83	1.0018
2193.31	1.001
2202.78	1.001
2212.26	1.001
2221.73	1.001
2231.21	1.001
2240.69	1.002
2250.16	1.002
2259.64	1.002
2269.11	1.0025
2278.59	1.0048
2288.06	1.001
2297.54	1.002
2307.02	1.002
2316.49	1.001
2325.97	1
2335.44	1
2344.92	1
2354.39	1.0026
2363.87	1.001
2373.35	1.001
2382.82	1.002
2392.3	1.001
2401.77	1.002
2411.25	0.9993
2420.72	0.9974
2430.2	1.0014
2439.68	1.0046
2449.15	1.004
2458.63	1.0046
2468.1	1.0044
2477.58	1.0091
2487.05	1.0044
2496.53	1.0029
2506.01	1.0089
2515.48	1.011
2524.96	1.0089
2534.43	1.008
2543.91	1.008
2553.38	1.013
2562.86	1.01
2572.33	1.0115
2581.81	1.012
2591.29	1.011
2600.76	1.007
2610.24	1.0121
2619.71	1.013
2629.19	1.011
2638.66	1.013
2648.14	1.013
2657.62	1.01
2667.09	1.0022
2676.57	0.9866
2686.04	1.0092
2695.52	1.016
2704.99	1.0117
2714.47	1.016
2723.95	1.016
2733.42	1.016
2742.9	1.0163
2752.37	1.0147
2761.85	1.0056
2771.32	0.9986
2780.8	0.9973
2790.28	0.9883
2799.75	0.9999
2809.23	1.01
2818.7	1.011
2828.18	1.011
2837.65	1.011
2847.13	1.008
2856.61	1.0085
2866.08	1.01
2875.56	1.007
2885.03	1.008
2894.51	1.005
2903.98	1.008
2913.46	1.0072
2922.94	1.005
2932.41	1.0097
2941.89	1.0102
2951.36	1.0024
2960.84	0.997
2970.31	0.9979
2979.79	0.9982
2989.27	0.9793
2998.74	0.9677
3008.22	0.9949
3017.69	0.997
3027.17	0.9862
3036.64	0.9831
3046.12	0.9879
3055.6	0.998
3065.07	1
3074.55	0.9804
3084.02	0.9365
3093.5	0.7946
3102.97	0.893
3112.45	0.96
3121.93	0.971
3131.4	0.976
3140.88	0.9801
3150.35	0.9861
3159.83	0.994
3169.3	0.9982
3178.78	1.004
3188.26	1.008
3197.73	1.007
3207.21	1.011
3216.68	1.013
3226.16	1.017
3235.63	1.02
3245.11	1.0221
3254.59	1.0229
3264.06	1.023
3273.54	1.025
3283.01	1.026
3292.49	1.0263
3301.96	1.029
3311.44	1.031
3320.91	1.028
3330.39	1.031
3339.87	1.034
3349.34	1.031
3358.82	1.032
3368.29	1.032
3377.77	1.0288
3387.24	1.028
3396.72	1.0313
3406.2	1.031
3415.67	1.032
3425.15	1.0274
3434.62	1.0266
3444.1	1.0313
3453.57	1.029
3463.05	1.026
3472.53	1.026
3482	1.025
3491.48	1.023
3500.95	1.022
3510.43	1.0224
3519.9	1.0213
3529.38	1.019
3538.86	1.0224
3548.33	1.022
3557.81	1.0196
3567.28	1.0178
3576.76	1.02
3586.23	1.0209
3595.71	1.0256
3605.19	1.0226
3614.66	1.0195
3624.14	1.016
3633.61	1.013
3643.09	1.014
3652.56	1.017
3662.04	1.016
3671.52	1.011
3680.99	1.011
3690.47	1.0151
3699.94	1.0119
3709.42	1.0075
3718.89	1.005
3728.37	1.01
3737.85	1.005
3747.32	1.0004
3756.8	0.991
3766.27	0.998
3775.75	1
3785.22	0.9958
3794.7	0.998
