Infrared Spectrum: Hypoxanthine, 9-benzyl-2-chloro-
Formula: C12 H9 Cl N4 O
CAS: 95194-86-8
State: SOLID (0.7 mg / 650 mg KBr DISC)
Class: COBLENTZ III
Instrument: PERKIN-ELMER 21 (GRATING)
Instrument parameters: FILTER CHANGE ABOUT 1025 CM^-^1
Sampling: TRANSMISSION
Resolution: 2
Origin: SOUTHERN RESEARCH INSTITUTE
1/CM	TRANSMITTANCE
602.013	0.7107
611.039	0.5714
620.066	0.5502
629.092	0.6156
638.119	0.6995
647.145	0.7016
656.172	0.6786
665.198	0.6966
674.225	0.682
683.251	0.5991
692.278	0.5636
701.304	0.6541
710.33	0.5718
719.357	0.4788
728.383	0.7653
737.41	0.7507
746.436	0.7079
755.463	0.5175
764.489	0.7629
773.516	0.7433
782.542	0.5635
791.568	0.8114
800.595	0.7648
809.621	0.7124
818.648	0.7553
827.674	0.8341
836.701	0.8319
845.727	0.8239
854.754	0.8134
863.78	0.797
872.807	0.7654
881.833	0.6879
890.859	0.5673
899.886	0.4131
908.912	0.5144
917.939	0.7032
926.965	0.7121
935.992	0.675
945.018	0.6187
954.045	0.6207
963.071	0.6952
972.098	0.8505
981.124	0.856
990.15	0.8559
999.177	0.8528
1008.2	0.8486
1017.23	0.8476
1026.26	0.8255
1035.28	0.813
1044.31	0.8479
1053.34	0.8457
1062.36	0.836
1071.39	0.8008
1080.41	0.7017
1089.44	0.528
1098.47	0.7481
1107.49	0.73
1116.52	0.5409
1125.55	0.6601
1134.57	0.8456
1143.6	0.8395
1152.63	0.8153
1161.65	0.8028
1170.68	0.7401
1179.71	0.4747
1188.73	0.716
1197.76	0.6163
1206.79	0.6721
1215.81	0.6212
1224.84	0.5797
1233.86	0.2116
1242.89	0.5714
1251.92	0.8321
1260.94	0.8297
1269.97	0.8186
1279	0.7979
1288.02	0.6452
1297.05	0.6392
1306.08	0.7364
1315.1	0.8352
1324.13	0.8278
1333.16	0.7572
1342.18	0.7856
1351.21	0.6929
1360.23	0.4238
1369.26	0.2586
1378.29	0.396
1387.31	0.1708
1396.34	0.4248
1405.37	0.74
1414.39	0.6541
1423.42	0.4267
1432.45	0.494
1441.47	0.7923
1450.5	0.6892
1459.53	0.5455
1468.55	0.7939
1477.58	0.791
1486.61	0.7518
1495.63	0.6853
1504.66	0.5629
1513.68	0.3457
1522.71	0.6924
1531.74	0.7563
1540.76	0.7747
1549.79	0.7464
1558.82	0.6249
1567.84	0.5902
1576.87	0.3181
1585.9	0.3557
1594.92	0.648
1603.95	0.6959
1612.98	0.6888
1622	0.6686
1631.03	0.6263
1640.05	0.5491
1649.08	0.4631
1658.11	0.3704
1667.13	0.1056
1676.16	0.0223
1685.19	0.0262
1694.21	0.195
1703.24	0.4013
1712.27	0.5938
1721.29	0.735
1730.32	0.7855
1739.35	0.8108
1748.37	0.8304
1757.4	0.8537
1766.43	0.8724
1775.45	0.8656
1784.48	0.8412
1793.5	0.8386
1802.53	0.862
1811.56	0.8809
1820.58	0.8991
1829.61	0.908
1838.64	0.9085
1847.66	0.9055
1856.69	0.8987
1865.72	0.9115
1874.74	0.9213
1883.77	0.924
1892.8	0.9294
1901.82	0.9312
1910.85	0.9304
1919.87	0.928
1928.9	0.922
1937.93	0.9149
1946.95	0.9128
1955.98	0.9212
1965.01	0.922
1974.03	0.9257
1983.06	0.9368
1992.09	0.9423
2001.11	0.94
2010.14	0.9324
2019.17	0.9308
2028.19	0.9298
2037.22	0.9282
2046.25	0.9282
2055.27	0.927
2064.3	0.9259
2073.32	0.9253
2082.35	0.9241
2091.38	0.9239
2100.4	0.9224
2109.43	0.9204
2118.46	0.9135
2127.48	0.9088
2136.51	0.9105
2145.54	0.9132
2154.56	0.9129
2163.59	0.9119
2172.62	0.9112
2181.64	0.9102
2190.67	0.9077
2199.69	0.9055
2208.72	0.904
2217.75	0.9022
2226.77	0.9001
2235.8	0.8982
2244.83	0.8963
2253.85	0.8934
2262.88	0.89
2271.91	0.8874
2280.93	0.8851
2289.96	0.8832
2298.99	0.8814
2308.01	0.8788
2317.04	0.8761
2326.07	0.8735
2335.09	0.8713
2344.12	0.8691
2353.14	0.8672
2362.17	0.866
2371.2	0.8647
2380.22	0.8606
2389.25	0.8565
2398.28	0.8535
2407.3	0.8527
2416.33	0.8532
2425.36	0.8442
2434.38	0.8353
2443.41	0.8268
2452.44	0.8188
2461.46	0.8108
2470.49	0.8029
2479.51	0.796
2488.54	0.7889
2497.57	0.7816
2506.59	0.7731
2515.62	0.7637
2524.65	0.7526
2533.67	0.7391
2542.7	0.725
2551.73	0.7089
2560.75	0.6914
2569.78	0.6717
2578.81	0.6448
2587.83	0.6166
2596.86	0.6022
2605.89	0.5952
2614.91	0.5916
2623.94	0.5883
2632.96	0.5847
2641.99	0.5788
2651.02	0.5712
2660.04	0.5617
2669.07	0.5498
2678.1	0.535
2687.12	0.5184
2696.15	0.4919
2705.18	0.467
2714.2	0.4519
2723.23	0.4381
2732.26	0.4256
2741.28	0.4137
2750.31	0.4014
2759.33	0.3823
2768.36	0.3606
2777.39	0.3419
2786.41	0.3349
2795.44	0.3378
2804.47	0.3461
2813.49	0.3595
2822.52	0.3766
2831.55	0.4164
2840.57	0.4548
2849.6	0.4753
2858.63	0.4921
2867.65	0.4916
2876.68	0.4749
2885.71	0.4512
2894.73	0.4331
2903.76	0.4324
2912.78	0.4401
2921.81	0.4553
2930.84	0.4581
2939.86	0.4526
2948.89	0.4471
2957.92	0.4485
2966.94	0.4674
2975.97	0.4964
2985	0.5287
2994.02	0.534
3003.05	0.5236
3012.08	0.4901
3021.1	0.4608
3030.13	0.4589
3039.15	0.4732
3048.18	0.5017
3057.21	0.5281
3066.23	0.544
3075.26	0.5542
3084.29	0.6158
3093.31	0.662
3102.34	0.704
3111.37	0.7144
3120.39	0.716
3129.42	0.7313
3138.45	0.7516
3147.47	0.7709
3156.5	0.7836
3165.53	0.7893
3174.55	0.794
3183.58	0.7978
3192.6	0.8019
3201.63	0.8049
3210.66	0.8045
3219.68	0.8019
3228.71	0.8006
3237.74	0.8002
3246.76	0.8005
3255.79	0.8008
3264.82	0.8013
3273.84	0.8017
3282.87	0.8017
3291.9	0.8007
3300.92	0.7979
3309.95	0.7892
3318.97	0.777
3328	0.761
3337.03	0.7463
3346.05	0.7341
3355.08	0.7243
3364.11	0.7161
3373.13	0.7077
3382.16	0.7
3391.19	0.6953
3400.21	0.6928
3409.24	0.6921
3418.27	0.6914
3427.29	0.6914
3436.32	0.6926
3445.35	0.695
3454.37	0.6978
3463.4	0.7026
3472.42	0.7088
3481.45	0.7132
3490.48	0.7193
3499.5	0.7381
3508.53	0.7488
3517.56	0.7577
3526.58	0.7668
3535.61	0.7765
3544.64	0.788
3553.66	0.7958
3562.69	0.8039
3571.72	0.8127
3580.74	0.8209
3589.77	0.8285
3598.79	0.8373
3607.82	0.8465
3616.85	0.8544
3625.87	0.8634
3634.9	0.8638
3643.93	0.8708
3652.95	0.8744
3661.98	0.8747
3671.01	0.875
3680.03	0.8763
3689.06	0.8773
3698.09	0.8776
3707.11	0.8768
3716.14	0.876
3725.17	0.8756
3734.19	0.8765
3743.22	0.8787
3752.24	0.8828
3761.27	0.8896
3770.3	0.8912
3779.32	0.8893
3788.35	0.8858
3797.38	0.881
3806.4	0.8799
3815.43	0.8799
3824.46	0.8804
3833.48	0.8809
3842.51	0.8814
3851.54	0.8816
3860.56	0.8817
3869.59	0.8819
3878.61	0.8822
3887.64	0.8829
3896.67	0.8838
3905.69	0.8839
3914.72	0.8837
3923.75	0.8837
3932.77	0.884
3941.8	0.8836
3950.83	0.8823
3959.85	0.881
3968.88	0.8787
3977.91	0.8755
3986.93	0.8719
3995.96	0.8686
4004.99	0.8621
