Infrared Spectrum: 5,12-DIHYDRONAPHTHACENE
Formula: C18 H14
CAS: 959-02-4
State: SOLID (KBr PELLET)
Melting point: 208-209 C
Class: COBLENTZ
Instrument: Not specified, most likely a prism, grating, or hybrid spectrometer.
Sampling: TRANSMISSION
Resolution: 4
Origin: UNION CARBIDE CORPORATION (CARBON PRODUCTS DIVISION)
MICROMETERS	TRANSMITTANCE
2.02	0.287
2.0532	0.288
2.08639	0.289
2.11959	0.291
2.15279	0.295
2.18598	0.299
2.21918	0.303
2.25238	0.308
2.28557	0.313
2.31877	0.319
2.35197	0.323
2.38516	0.328
2.41836	0.332
2.45156	0.339
2.48475	0.341
2.51795	0.348
2.55115	0.349
2.58434	0.351
2.61754	0.359
2.65074	0.361
2.68393	0.365
2.71713	0.369
2.75033	0.375
2.78352	0.377
2.81672	0.377
2.84991	0.377
2.88311	0.377
2.91631	0.377
2.9495	0.384
2.9827	0.401
3.0159	0.412
3.04909	0.425
3.08229	0.436
3.11549	0.441
3.14868	0.448
3.18188	0.45
3.21508	0.458
3.24827	0.436
3.28147	0.406
3.31467	0.401
3.34786	0.437
3.38106	0.429
3.41426	0.452
3.44745	0.465
3.48065	0.469
3.51385	0.461
3.54704	0.449
3.58024	0.406
3.61344	0.466
3.64663	0.48
3.67983	0.488
3.71303	0.493
3.74622	0.498
3.77942	0.502
3.81262	0.509
3.84581	0.511
3.87901	0.515
3.91221	0.529
3.9454	0.531
3.9786	0.533
4.0118	0.537
4.04499	0.541
4.07819	0.547
4.11139	0.55
4.14458	0.553
4.17778	0.557
4.21098	0.561
4.24417	0.559
4.27737	0.561
4.31056	0.565
4.34376	0.573
4.37696	0.578
4.41015	0.589
4.44335	0.591
4.47655	0.601
4.50974	0.607
4.54294	0.611
4.57614	0.615
4.60933	0.617
4.64253	0.619
4.67573	0.621
4.70892	0.627
4.74212	0.634
4.77532	0.635
4.80851	0.638
4.84171	0.639
4.87491	0.648
4.9081	0.65
4.9413	0.652
4.9745	0.658
5.00769	0.66
5.04089	0.662
5.07409	0.672
5.10728	0.67
5.14048	0.66
5.17368	0.659
5.20687	0.663
5.24007	0.668
5.27327	0.671
5.30646	0.68
5.33966	0.68
5.37286	0.679
5.40605	0.682
5.43925	0.68
5.47245	0.679
5.50564	0.679
5.53884	0.68
5.57204	0.69
5.60523	0.7
5.63843	0.696
5.67163	0.702
5.70482	0.708
5.73802	0.718
5.77121	0.72
5.80441	0.719
5.83761	0.718
5.8708	0.718
5.904	0.718
5.9372	0.723
5.97039	0.723
6.00359	0.723
6.03679	0.723
6.06998	0.718
6.10318	0.72
6.13638	0.722
6.16957	0.719
6.20277	0.69
6.23597	0.704
6.26916	0.722
6.30236	0.724
6.33556	0.74
6.36875	0.748
6.40195	0.752
6.43515	0.764
6.46834	0.759
6.50154	0.765
6.53474	0.765
6.56793	0.765
6.60113	0.76
6.63433	0.744
6.66752	0.714
6.70072	0.549
6.73392	0.609
6.76711	0.662
6.80031	0.686
6.83351	0.476
6.8667	0.632
6.8999	0.707
6.9331	0.718
6.96629	0.654
6.99949	0.622
7.03269	0.623
7.06588	0.707
7.09908	0.739
7.13228	0.751
7.16547	0.748
7.19867	0.799
7.23186	0.789
7.26506	0.785
7.29826	0.788
7.33145	0.783
7.36465	0.66
7.39785	0.748
7.43104	0.767
7.46424	0.775
7.49744	0.78
7.53063	0.783
7.56383	0.784
7.59703	0.777
7.63022	0.757
7.66342	0.775
7.69662	0.788
7.72981	0.789
7.76301	0.792
7.79621	0.799
7.8294	0.71
7.8626	0.742
7.8958	0.751
7.92899	0.78
7.96219	0.791
7.99539	0.784
8.02858	0.777
8.06178	0.777
8.09498	0.771
8.12817	0.73
8.16137	0.777
8.19457	0.788
8.22776	0.787
8.26096	0.76
8.29416	0.789
8.32735	0.8
8.36055	0.805
8.39375	0.808
8.42694	0.799
8.46014	0.788
8.49334	0.801
8.52653	0.812
8.55973	0.812
8.59293	0.811
8.62612	0.797
8.65932	0.76
8.69252	0.783
8.72571	0.796
8.75891	0.8
8.7921	0.812
8.8253	0.817
8.8585	0.824
8.89169	0.828
8.92489	0.831
8.95809	0.831
8.99128	0.832
9.02448	0.799
9.05768	0.771
9.09087	0.804
9.12407	0.824
9.15727	0.837
9.19046	0.835
9.22366	0.835
9.25686	0.832
9.29005	0.832
9.32325	0.837
9.35645	0.839
9.38964	0.84
9.42284	0.841
9.45604	0.843
9.48923	0.844
9.52243	0.845
9.55563	0.845
9.58882	0.841
9.62202	0.828
9.65522	0.803
9.68841	0.797
9.72161	0.825
9.75481	0.836
9.788	0.844
9.8212	0.82
9.8544	0.792
9.88759	0.823
9.92079	0.839
9.95399	0.848
9.98718	0.847
10.0204	0.848
10.0536	0.848
10.0868	0.849
10.12	0.851
10.1532	0.852
10.1864	0.849
10.2196	0.825
10.2528	0.836
10.286	0.845
10.3191	0.851
10.3523	0.829
10.3855	0.829
10.4187	0.8
10.4519	0.587
10.4851	0.579
10.5183	0.702
10.5515	0.787
10.5847	0.812
10.6179	0.829
10.6511	0.841
10.6843	0.843
10.7175	0.844
10.7507	0.849
10.7839	0.848
10.8171	0.837
10.8503	0.775
10.8835	0.545
10.9167	0.477
10.9499	0.68
10.9831	0.727
11.0163	0.779
11.0495	0.808
11.0827	0.811
11.1159	0.825
11.1491	0.832
11.1823	0.841
11.2155	0.841
11.2487	0.84
11.2818	0.809
11.315	0.819
11.3482	0.829
11.3814	0.835
11.4146	0.833
11.4478	0.812
11.481	0.648
11.5142	0.324
11.5474	0.388
11.5806	0.628
11.6138	0.731
11.647	0.78
11.6802	0.8
11.7134	0.813
11.7466	0.824
11.7798	0.829
11.813	0.833
11.8462	0.837
11.8794	0.845
11.9126	0.848
11.9458	0.849
11.979	0.851
12.0122	0.851
12.0454	0.851
12.0786	0.852
12.1118	0.852
12.145	0.848
12.1782	0.831
12.2114	0.845
12.2446	0.851
12.2777	0.856
12.3109	0.86
12.3441	0.859
12.3773	0.861
12.4105	0.861
12.4437	0.861
12.4769	0.861
12.5101	0.861
12.5433	0.864
12.5765	0.865
12.6097	0.868
12.6429	0.868
12.6761	0.871
12.7093	0.869
12.7425	0.868
12.7757	0.868
12.8089	0.865
12.8421	0.86
12.8753	0.855
12.9085	0.855
12.9417	0.855
12.9749	0.852
13.0081	0.841
13.0413	0.78
13.0745	0.708
13.1077	0.502
13.1409	0.392
13.1741	0.32
13.2073	0.414
13.2404	0.424
13.2736	0.269
13.3068	0.115
13.34	0.106
13.3732	0.113
13.4064	0.192
13.4396	0.34
13.4728	0.449
13.506	0.501
13.5392	0.355
13.5724	0.248
13.6056	0.394
13.6388	0.484
13.672	0.582
13.7052	0.63
13.7384	0.668
13.7716	0.688
13.8048	0.702
13.838	0.718
13.8712	0.72
13.9044	0.731
13.9376	0.74
13.9708	0.742
14.004	0.748
14.0372	0.751
14.0704	0.755
14.1036	0.755
14.1368	0.753
14.17	0.753
14.2031	0.755
14.2363	0.759
14.2695	0.76
14.3027	0.76
14.3359	0.76
14.3691	0.761
14.4023	0.76
14.4355	0.76
14.4687	0.757
14.5019	0.756
14.5351	0.752
14.5683	0.748
14.6015	0.747
14.6347	0.738
14.6679	0.711
14.7011	0.699
14.7343	0.698
14.7675	0.699
14.8007	0.704
14.8339	0.708
14.8671	0.71
14.9003	0.71
14.9335	0.699
14.9667	0.67
14.9999	0.658
15.0331	0.7
15.0663	0.702
