Infrared Spectrum: SALICYLALAZINE
Formula: C14 H12 N2 O2
CAS: 959-36-4
State: SOLID (MINERAL OIL MULL, AFTER ETHANOL PPTN.)
Melting point: 217-219 C
Class: COBLENTZ
Instrument: Not specified, most likely a prism, grating, or hybrid spectrometer.
Sampling: TRANSMISSION
Resolution: 4
Origin: WYANDOTTE CHEMICALS CORP., WYANDOTTE, MICHIGAN, USA
MICROMETERS	TRANSMITTANCE
2.037	0.508
2.07687	0.516
2.11673	0.536
2.1566	0.545
2.19646	0.551
2.23633	0.575
2.27619	0.583
2.31606	0.598
2.35593	0.613
2.39579	0.638
2.43566	0.643
2.47552	0.65
2.51539	0.663
2.55525	0.685
2.59512	0.698
2.63499	0.72
2.67485	0.737
2.71472	0.752
2.75458	0.757
2.79445	0.764
2.83431	0.772
2.87418	0.777
2.91405	0.782
2.95391	0.775
2.99378	0.755
3.03364	0.745
3.07351	0.742
3.11337	0.707
3.15324	0.65
3.19311	0.61
3.23297	0.513
3.27284	0.424
3.3127	0.299
3.35257	0.045
3.39243	0.063
3.4323	0.11
3.47217	0.105
3.51203	0.28
3.5519	0.324
3.59176	0.29
3.63163	0.302
3.67149	0.326
3.71136	0.377
3.75123	0.341
3.79109	0.377
3.83096	0.408
3.87082	0.434
3.91069	0.459
3.95055	0.489
3.99042	0.52
4.03029	0.55
4.07015	0.568
4.11002	0.576
4.14988	0.588
4.18975	0.598
4.22961	0.596
4.26948	0.602
4.30935	0.623
4.34921	0.668
4.38908	0.688
4.42894	0.682
4.46881	0.693
4.50867	0.704
4.54854	0.712
4.58841	0.729
4.62827	0.732
4.66814	0.737
4.708	0.75
4.74787	0.76
4.78773	0.77
4.8276	0.78
4.86747	0.772
4.90733	0.784
4.9472	0.804
4.98706	0.799
5.02693	0.802
5.06679	0.78
5.10666	0.749
5.14653	0.757
5.18639	0.792
5.22626	0.801
5.26612	0.831
5.30599	0.826
5.34585	0.785
5.38572	0.841
5.42559	0.831
5.46545	0.811
5.50532	0.864
5.54518	0.832
5.58505	0.832
5.62491	0.876
5.66478	0.889
5.70465	0.886
5.74451	0.872
5.78438	0.837
5.82424	0.839
5.86411	0.831
5.90397	0.812
5.94384	0.827
5.98371	0.806
6.02357	0.585
6.06344	0.102
6.1033	0.045
6.14317	0.26
6.18303	0.448
6.2229	0.476
6.26277	0.162
6.30263	0.371
6.3425	0.392
6.38236	0.488
6.42223	0.52
6.46209	0.563
6.50196	0.566
6.54183	0.593
6.58169	0.595
6.62156	0.409
6.66142	0.102
6.70129	0.327
6.74115	0.346
6.78102	0.284
6.82089	0.234
6.86075	0.312
6.90062	0.478
6.94048	0.623
6.98035	0.648
7.02021	0.613
7.06008	0.585
7.09995	0.498
7.13981	0.185
7.17968	0.217
7.21954	0.339
7.25941	0.566
7.29927	0.655
7.33914	0.687
7.37901	0.69
7.41887	0.523
7.45874	0.372
7.4986	0.643
7.53847	0.451
7.57833	0.57
7.6182	0.698
7.65807	0.749
7.69793	0.677
7.7378	0.434
7.77766	0.03
7.81753	0.07
7.85739	0.235
7.89726	0.449
7.93713	0.632
7.97699	0.685
8.01686	0.52
8.05672	0.558
8.09659	0.503
8.13645	0.463
8.17632	0.438
8.21619	0.215
8.25605	0.105
8.29592	0.155
8.33578	0.369
8.37565	0.617
8.41551	0.725
8.45538	0.779
8.49525	0.814
8.53511	0.837
8.57498	0.543
8.61484	0.72
8.65471	0.441
8.69457	0.789
8.73444	0.854
8.77431	0.851
8.81417	0.846
8.85404	0.807
8.8939	0.473
8.93377	0.615
8.97363	0.628
9.0135	0.717
9.05337	0.795
9.09323	0.834
9.1331	0.867
9.17296	0.869
9.21283	0.869
9.25269	0.886
9.29256	0.881
9.33243	0.887
9.37229	0.903
9.41216	0.911
9.45202	0.913
9.49189	0.913
9.53175	0.903
9.57162	0.886
9.61149	0.712
9.65135	0.667
9.69122	0.849
9.73108	0.891
9.77095	0.904
9.81081	0.914
9.85068	0.918
9.89055	0.914
9.93041	0.923
9.97028	0.934
10.0101	0.924
10.05	0.862
10.0899	0.489
10.1297	0.581
10.1696	0.759
10.2095	0.581
10.2493	0.757
10.2892	0.852
10.3291	0.899
10.3689	0.916
10.4088	0.928
10.4487	0.938
10.4885	0.938
10.5284	0.929
10.5683	0.877
10.6081	0.844
10.648	0.926
10.6879	0.924
10.7277	0.944
10.7676	0.951
10.8075	0.943
10.8473	0.923
10.8872	0.904
10.9271	0.943
10.9669	0.944
11.0068	0.849
11.0467	0.553
11.0865	0.444
11.1264	0.339
11.1662	0.292
11.2061	0.638
11.246	0.851
11.2858	0.903
11.3257	0.934
11.3656	0.959
11.4054	0.966
11.4453	0.964
11.4852	0.958
11.525	0.958
11.5649	0.959
11.6048	0.966
11.6446	0.953
11.6845	0.871
11.7244	0.861
11.7642	0.908
11.8041	0.914
11.844	0.919
11.8838	0.909
11.9237	0.904
11.9636	0.894
12.0034	0.882
12.0433	0.882
12.0832	0.884
12.123	0.894
12.1629	0.892
12.2028	0.894
12.2426	0.894
12.2825	0.887
12.3224	0.876
12.3622	0.867
12.4021	0.837
12.442	0.79
12.4818	0.72
12.5217	0.607
12.5615	0.528
12.6014	0.488
12.6413	0.349
12.6811	0.163
12.721	0.125
12.7609	0.217
12.8007	0.312
12.8406	0.408
12.8805	0.54
12.9203	0.62
12.9602	0.677
13.0001	0.697
13.0399	0.672
13.0798	0.54
13.1197	0.366
13.1595	0.145
13.1994	0.046
13.2393	0.041
13.2791	0.046
13.319	0.075
13.3589	0.175
13.3987	0.302
13.4386	0.426
13.4785	0.525
13.5183	0.575
13.5582	0.556
13.5981	0.451
13.6379	0.302
13.6778	0.297
13.7177	0.408
13.7575	0.5
13.7974	0.583
13.8373	0.632
13.8771	0.67
13.917	0.714
13.9568	0.749
13.9967	0.775
14.0366	0.795
14.0764	0.816
14.1163	0.832
14.1562	0.841
14.196	0.861
14.2359	0.881
14.2758	0.887
14.3156	0.894
14.3555	0.901
14.3954	0.908
14.4352	0.906
14.4751	0.884
14.515	0.834
14.5548	0.725
14.5947	0.558
14.6346	0.416
14.6744	0.351
14.7143	0.404
14.7542	0.496
14.794	0.566
14.8339	0.612
14.8738	0.64
14.9136	0.668
14.9535	0.688
14.9934	0.68
15.0332	0.68
15.0731	0.72
15.113	0.757
15.1528	0.792
15.1927	0.819
15.2326	0.826
15.2724	0.826
15.3123	0.822
15.3521	0.814
15.392	0.802
15.4319	0.792
15.4717	0.787
15.5116	0.77
15.5515	0.762
15.5913	0.757
15.6312	0.74
15.6711	0.732
15.7109	0.72
15.7508	0.697
15.7907	0.687
15.8305	0.667
15.8704	0.65
15.9103	0.637
15.9501	0.617
15.99	0.61
