Infrared Spectrum: BENZENE, EPOXYMETHYL-
Formula: C8 H8 O
CAS: 96-09-3
State: SOLUTION (10% CCl4 FOR 3800-1340, 10% CS2 FOR 1340-400 CM^-^1)
Class: COBLENTZ III
Instrument: DOW KBr FOREPRISM-GRATING
Instrument parameters: BLAZED AT 3.5, 12.0, 20.0 MICRON AND CHANGED AT 5.0, 7.5, 14.9 MICRON
Sampling: TRANSMISSION
Path length: 0.010 CM, 0.010 CM
Resolution: 2
Origin: DOW CHEMICAL COMPANY
1/CM	TRANSMITTANCE
3802	0.8732
3793	0.875
3784	0.8771
3775	0.8786
3766	0.8809
3757	0.883
3748	0.883
3739	0.8803
3730	0.8786
3721	0.8774
3712	0.8762
3703	0.8675
3694	0.874
3685	0.8777
3676	0.8755
3667	0.8693
3658	0.8708
3649	0.8709
3640	0.8698
3631	0.8703
3622	0.8708
3613	0.8711
3604	0.8708
3595	0.8704
3586	0.8704
3577	0.8703
3568	0.8703
3559	0.8691
3550	0.8675
3541	0.8659
3532	0.8662
3523	0.8666
3514	0.8671
3505	0.8675
3496	0.8681
3487	0.8686
3478	0.8695
3469	0.8707
3460	0.8718
3451	0.8735
3442	0.8751
3433	0.8765
3424	0.8777
3415	0.8788
3406	0.88
3397	0.8811
3388	0.8821
3379	0.8831
3370	0.8841
3361	0.8849
3352	0.8853
3343	0.8856
3334	0.886
3325	0.8865
3316	0.8871
3307	0.8878
3298	0.8884
3289	0.8887
3280	0.8891
3271	0.8895
3262	0.8895
3253	0.8894
3244	0.8894
3235	0.8894
3226	0.8893
3217	0.8892
3208	0.889
3199	0.8888
3190	0.8884
3181	0.8849
3172	0.8814
3163	0.8835
3154	0.8825
3145	0.8808
3136	0.8753
3127	0.8598
3118	0.8193
3109	0.8112
3100	0.686
3091	0.6431
3082	0.6588
3073	0.5062
3064	0.4935
3055	0.3787
3046	0.3641
3037	0.4337
3028	0.5968
3019	0.635
3010	0.6069
3001	0.4923
2992	0.3903
2983	0.5642
2974	0.6592
2965	0.7206
2956	0.774
2947	0.7661
2938	0.7475
2929	0.7676
2920	0.7268
2911	0.651
2902	0.7845
2893	0.8192
2884	0.8363
2875	0.8392
2866	0.8475
2857	0.8566
2848	0.8651
2839	0.8723
2830	0.8787
2821	0.8815
2812	0.8791
2803	0.8795
2794	0.8831
2785	0.885
2776	0.8842
2767	0.884
2758	0.8857
2749	0.8875
2740	0.8889
2731	0.8899
2722	0.89
2713	0.8901
2704	0.8903
2695	0.8908
2686	0.8913
2677	0.8914
2668	0.8914
2659	0.8908
2650	0.8902
2641	0.8891
2632	0.8855
2623	0.8832
2614	0.8859
2605	0.8821
2596	0.8804
2587	0.8807
2578	0.8835
2569	0.8853
2560	0.8864
2551	0.8871
2542	0.8875
2533	0.8877
2524	0.8877
2515	0.8868
2506	0.8863
2497	0.8855
2488	0.8847
2479	0.8841
2470	0.8833
2461	0.8805
2452	0.8791
2443	0.8796
2434	0.88
2425	0.8798
2416	0.8791
2407	0.8777
2398	0.8762
2389	0.8758
2380	0.8868
2371	0.8975
2362	0.8936
2353	0.8784
2344	0.8744
2335	0.8681
2326	0.8639
2317	0.8547
2308	0.8501
2299	0.8468
2290	0.8466
2281	0.85
2272	0.8525
2263	0.852
2254	0.8388
2245	0.8463
2236	0.8532
2227	0.8562
2218	0.8544
2209	0.853
2200	0.8562
2191	0.8559
2182	0.8531
2173	0.8364
2164	0.822
2155	0.8205
2146	0.8375
2137	0.8466
2128	0.8537
2119	0.8575
2110	0.8589
2101	0.8597
2092	0.8598
2083	0.8577
2074	0.8506
2065	0.8521
2056	0.8527
2047	0.8525
2038	0.8508
2029	0.8487
2020	0.8465
2011	0.8437
2002	0.8554
1993	0.8639
1984	0.8758
1975	0.8757
1966	0.8521
1957	0.8507
1948	0.8062
1939	0.8508
1930	0.8834
1921	0.8904
1912	0.8899
1903	0.8862
1894	0.8561
1885	0.8606
1876	0.8255
1867	0.8627
1858	0.883
1849	0.8896
1840	0.8885
1831	0.8847
1822	0.8688
1813	0.8688
1804	0.8345
1795	0.8718
1786	0.8938
1777	0.8916
1768	0.8889
1759	0.8751
1750	0.8435
1741	0.8713
1732	0.8904
1723	0.8899
1714	0.8946
1705	0.8938
1696	0.9005
1687	0.8889
1678	0.8844
1669	0.8762
1660	0.8716
1651	0.9127
1642	0.894
1633	0.8768
1624	0.8388
1615	0.8178
1606	0.6407
1597	0.6739
1588	0.6089
1579	0.6171
1570	0.6165
1561	0.5605
1552	0.4909
1543	0.4898
1534	0.5551
1525	0.3436
1516	0.365
1507	0.5484
1498	0.2617
1489	0.6298
1480	0.363
1471	0.5888
1462	0.7295
1453	0.329
1444	0.8033
1435	0.846
1426	0.8641
1417	0.8612
1408	0.8451
1399	0.7817
1390	0.4093
1381	0.6461
1372	0.8258
1363	0.8598
1354	0.8533
1345	0.8659
1336	0.8612
1327	0.7686
1318	0.8115
1309	0.7157
1300	0.7841
1291	0.7965
1282	0.8343
1273	0.8371
1264	0.8209
1255	0.6243
1246	0.7178
1237	0.8257
1228	0.8453
1219	0.8432
1210	0.824
1201	0.5258
1192	0.7868
1183	0.8055
1174	0.7919
1165	0.8068
1156	0.7908
1147	0.7815
1138	0.7955
1129	0.7768
1120	0.7457
1111	0.8481
1102	0.8645
1093	0.8721
1084	0.8604
1075	0.7061
1066	0.7291
1057	0.8527
1048	0.8654
1039	0.8636
1030	0.7806
1021	0.7806
1012	0.8462
1003	0.7684
994	0.7518
985	0.335
976	0.7137
967	0.7907
958	0.8389
949	0.8598
940	0.8585
931	0.847
922	0.8227
913	0.7555
904	0.7151
895	0.5217
886	0.2431
877	0.0568
868	0.3925
859	0.6004
850	0.6608
841	0.7091
832	0.6578
823	0.5378
814	0.5817
805	0.7251
796	0.791
787	0.7975
778	0.7565
769	0.5742
760	0.0126
751	0.3043
742	0.6269
733	0.7322
724	0.7896
715	0.7751
706	0.455
697	0.0007
688	0.718
679	0.8012
670	0.7787
661	0.8085
652	0.8201
643	0.8489
634	0.862
625	0.8717
616	0.8775
607	0.8804
598	0.879
589	0.855
580	0.6076
571	0.7197
562	0.8449
553	0.8425
544	0.7664
535	0.3982
526	0.733
517	0.8314
508	0.8591
499	0.8668
490	0.8638
481	0.8565
472	0.8455
463	0.8292
454	0.8075
445	0.7815
436	0.7522
427	0.7144
418	0.6229
409	0.5105
400	0.4016
391	0.3697
382	0.3678
