Infrared Spectrum: BUTYRIC ACID, 4-HYDROXY-, Gamma-LACTONE
Formula: C4 H6 O2
CAS: 96-48-0
State: LIQUID
Boiling point: 206 C
Class: COBLENTZ III
Instrument: BAIRD (GRATING)
Instrument parameters: NaCl PRISM
Path length: 0.003 CM
Resolution: 2
Origin: WYANDOTTE CHEMICALS CORP.
1/CM	TRANSMITTANCE
625	0.7565
634	0.6812
643	0.7446
652	0.7794
661	0.7051
670	0.4856
679	0.5668
688	0.7665
697	0.8346
706	0.8726
715	0.9053
724	0.9241
733	0.9366
742	0.9343
751	0.9123
760	0.877
769	0.8525
778	0.8021
787	0.7111
796	0.4474
805	0.4163
814	0.6917
823	0.7623
832	0.7588
841	0.7119
850	0.6065
859	0.4243
868	0.2369
877	0.2814
886	0.3749
895	0.4483
904	0.6402
913	0.6767
922	0.5866
931	0.1898
940	0.6094
949	0.6992
958	0.681
967	0.6215
976	0.4522
985	0.1707
994	0.0988
1003	0.1226
1012	0.2852
1021	0.3038
1030	0.1656
1039	0.1075
1048	0.1285
1057	0.2704
1066	0.3977
1075	0.3904
1084	0.2976
1093	0.2908
1102	0.4456
1111	0.4739
1120	0.452
1129	0.3569
1138	0.2532
1147	0.1572
1156	0.0989
1165	0.0913
1174	0.0853
1183	0.0888
1192	0.0967
1201	0.1112
1210	0.1394
1219	0.2183
1228	0.2777
1237	0.2693
1246	0.1894
1255	0.2605
1264	0.4526
1273	0.4798
1282	0.3558
1291	0.3288
1300	0.4067
1309	0.5912
1318	0.6109
1327	0.5424
1336	0.6488
1345	0.6905
1354	0.6829
1363	0.6192
1372	0.3611
1381	0.1148
1390	0.1044
1399	0.2796
1408	0.3437
1417	0.2849
1426	0.2333
1435	0.1843
1444	0.3755
1453	0.5203
1462	0.4139
1471	0.246
1480	0.2635
1489	0.4432
1498	0.4438
1507	0.5905
1516	0.7649
1525	0.8281
1534	0.846
1543	0.8481
1552	0.872
1561	0.9077
1570	0.91
1579	0.91
1588	0.9081
1597	0.8975
1606	0.8718
1615	0.8144
1624	0.7705
1633	0.7683
1642	0.7695
1651	0.7656
1660	0.6883
1669	0.5879
1678	0.5658
1687	0.5644
1696	0.5562
1705	0.4452
1714	0.3058
1723	0.2058
1732	0.0849
1741	0.0489
1750	0.03
1759	0.0265
1768	0.0283
1777	0.0279
1786	0.0235
1795	0.0332
1804	0.0491
1813	0.0914
1822	0.1781
1831	0.2972
1840	0.3999
1849	0.5235
1858	0.6404
1867	0.7151
1876	0.7334
1885	0.7615
1894	0.8202
1903	0.8307
1912	0.8563
1921	0.8786
1930	0.8737
1939	0.8585
1948	0.8418
1957	0.8445
1966	0.8627
1975	0.8861
1984	0.8885
1993	0.8723
2002	0.8417
2011	0.8114
2020	0.8071
2029	0.8312
2038	0.8549
2047	0.8757
2056	0.8922
2065	0.9083
2074	0.9218
2083	0.9311
2092	0.9383
2101	0.9431
2110	0.9464
2119	0.9485
2128	0.9479
2137	0.9466
2146	0.9434
2155	0.9387
2164	0.9329
2173	0.9257
2182	0.9179
2191	0.9082
2200	0.898
2209	0.8887
2218	0.8827
2227	0.8883
2236	0.8989
2245	0.9057
2254	0.9022
2263	0.8845
2272	0.8639
2281	0.8484
2290	0.8421
2299	0.8505
2308	0.8653
2317	0.8799
2326	0.8944
2335	0.91
2344	0.9195
2353	0.9206
2362	0.9192
2371	0.9134
2380	0.9073
2389	0.9032
2398	0.8993
2407	0.8974
2416	0.8967
2425	0.8971
2434	0.8985
2443	0.9006
2452	0.9043
2461	0.909
2470	0.9102
2479	0.9091
2488	0.9065
2497	0.9027
2506	0.8962
2515	0.8867
2524	0.8777
2533	0.8722
2542	0.8749
2551	0.8801
2560	0.8873
2569	0.8951
2578	0.9018
2587	0.9057
2596	0.9065
2605	0.9048
2614	0.9026
2623	0.9006
2632	0.8995
2641	0.899
2650	0.9014
2659	0.9021
2668	0.8992
2677	0.8996
2686	0.8983
2695	0.8942
2704	0.8855
2713	0.8704
2722	0.8555
2731	0.8456
2740	0.8508
2749	0.8584
2758	0.858
2767	0.8535
2776	0.8433
2785	0.8252
2794	0.8068
2803	0.7886
2812	0.7636
2821	0.7136
2830	0.6867
2839	0.6269
2848	0.5533
2857	0.5196
2866	0.4218
2875	0.3237
2884	0.2262
2893	0.1542
2902	0.1333
2911	0.1248
2920	0.1217
2929	0.1212
2938	0.1205
2947	0.1173
2956	0.1092
2965	0.1045
2974	0.1043
2983	0.1066
2992	0.1167
3001	0.1421
3010	0.1907
3019	0.239
3028	0.2871
3037	0.3348
3046	0.3824
3055	0.4295
3064	0.4765
3073	0.5231
3082	0.5695
3091	0.6064
3100	0.6081
3109	0.605
3118	0.5932
3127	0.5812
3136	0.5745
3145	0.5758
3154	0.5889
3163	0.6072
3172	0.6253
3181	0.6432
3190	0.6612
3199	0.6789
3208	0.6966
3217	0.7142
3226	0.7311
3235	0.7523
3244	0.7692
3253	0.7809
3262	0.7936
3271	0.8084
3280	0.8188
3289	0.8282
3298	0.833
3307	0.8361
3316	0.8372
3325	0.8383
3334	0.8365
3343	0.8371
3352	0.8358
3361	0.8333
3370	0.83
3379	0.8268
3388	0.8221
3397	0.8168
3406	0.7878
3415	0.7536
3424	0.7194
3433	0.6856
3442	0.6518
3451	0.6187
3460	0.6037
3469	0.5951
3478	0.5916
3487	0.5911
3496	0.5917
3505	0.6033
3514	0.6186
3523	0.6338
3532	0.6489
3541	0.6639
3550	0.679
3559	0.6938
3568	0.7087
3577	0.7234
3586	0.738
3595	0.7526
3604	0.7672
3613	0.7863
3622	0.793
3631	0.8001
3640	0.8093
3649	0.819
3658	0.8305
3667	0.8501
3676	0.8674
3685	0.8787
3694	0.8866
3703	0.8914
3712	0.8952
3721	0.8976
3730	0.8987
3739	0.8997
3748	0.9006
3757	0.901
3766	0.9012
3775	0.9015
3784	0.9018
3793	0.902
3802	0.9022
3811	0.9018
3820	0.9014
3829	0.8998
3838	0.898
3847	0.8953
3856	0.893
3865	0.8909
3874	0.8891
3883	0.8875
3892	0.8866
3901	0.8868
3910	0.8869
3919	0.8871
3928	0.8872
3937	0.8873
3946	0.8878
3955	0.8883
3964	0.8888
3973	0.8894
3982	0.8898
3991	0.8905
4000	0.8914
