Infrared Spectrum: 2-CHLOROTHIOPHENE
Formula: C4 H3 Cl S
CAS: 96-43-5
State: LIQUID
Class: COBLENTZ
Instrument: Not specified, most likely a prism, grating, or hybrid spectrometer.
Sampling: TRANSMISSION
Path length: 0.003 CM
Resolution: 4
Origin: WYANDOTTE CHEMICALS CORP., WYANDOTTE, MICHIGAN, USA
MICROMETERS	TRANSMITTANCE
2.041	0.977
2.08186	0.977
2.12271	0.976
2.16357	0.974
2.20442	0.964
2.24528	0.955
2.28613	0.958
2.32699	0.969
2.36784	0.97
2.4087	0.967
2.44956	0.965
2.49041	0.96
2.53127	0.955
2.57212	0.96
2.61298	0.952
2.65383	0.95
2.69469	0.962
2.73555	0.965
2.7764	0.972
2.81726	0.965
2.85811	0.958
2.89897	0.952
2.93982	0.945
2.98068	0.931
3.02153	0.919
3.06239	0.912
3.10325	0.902
3.1441	0.88
3.18496	0.851
3.22581	0.798
3.26667	0.668
3.30752	0.774
3.34838	0.82
3.38924	0.815
3.43009	0.798
3.47095	0.801
3.5118	0.817
3.55266	0.817
3.59351	0.825
3.63437	0.858
3.67522	0.87
3.71608	0.875
3.75694	0.882
3.79779	0.899
3.83865	0.902
3.8795	0.905
3.92036	0.911
3.96121	0.912
4.00207	0.912
4.04292	0.909
4.08378	0.911
4.12464	0.904
4.16549	0.904
4.20635	0.899
4.2472	0.907
4.28806	0.914
4.32891	0.919
4.36977	0.917
4.41063	0.929
4.45148	0.936
4.49234	0.928
4.53319	0.917
4.57405	0.924
4.6149	0.928
4.65576	0.933
4.69661	0.928
4.73747	0.921
4.77833	0.926
4.81918	0.931
4.86004	0.926
4.90089	0.921
4.94175	0.923
4.9826	0.935
5.02346	0.938
5.06432	0.938
5.10517	0.933
5.14603	0.936
5.18688	0.936
5.22774	0.931
5.26859	0.938
5.30945	0.935
5.3503	0.931
5.39116	0.938
5.43202	0.936
5.47287	0.931
5.51373	0.929
5.55458	0.914
5.59544	0.921
5.63629	0.825
5.67715	0.81
5.718	0.887
5.75886	0.9
5.79972	0.885
5.84057	0.832
5.88143	0.801
5.92228	0.82
5.96314	0.811
6.00399	0.825
6.04485	0.822
6.08571	0.765
6.12656	0.75
6.16742	0.798
6.20827	0.817
6.24913	0.801
6.28998	0.748
6.33084	0.76
6.37169	0.825
6.41255	0.849
6.45341	0.852
6.49426	0.847
6.53512	0.779
6.57597	0.336
6.61683	0.381
6.65768	0.692
6.69854	0.798
6.7394	0.82
6.78025	0.823
6.82111	0.813
6.86196	0.791
6.90282	0.735
6.94367	0.709
6.98453	0.676
7.02538	0.558
7.06624	0.254
7.1071	0.088
7.14795	0.434
7.18881	0.552
7.22966	0.593
7.27052	0.61
7.31137	0.666
7.35223	0.738
7.39308	0.758
7.43394	0.558
7.4748	0.671
7.51565	0.805
7.55651	0.837
7.59736	0.852
7.63822	0.861
7.67907	0.859
7.71993	0.859
7.76079	0.856
7.80164	0.842
7.8425	0.829
7.88335	0.829
7.92421	0.832
7.96506	0.829
8.00592	0.772
8.04677	0.704
8.08763	0.668
8.12849	0.639
8.16934	0.386
8.2102	0.191
8.25105	0.62
8.29191	0.731
8.33276	0.758
8.37362	0.777
8.41448	0.786
8.45533	0.793
8.49619	0.796
8.53704	0.798
8.5779	0.801
8.61875	0.8
8.65961	0.796
8.70046	0.798
8.74132	0.793
8.78218	0.791
8.82303	0.788
8.86389	0.782
8.90474	0.77
8.9456	0.743
8.98645	0.736
9.02731	0.717
9.06816	0.7
9.10902	0.69
9.14988	0.661
9.19073	0.54
9.23159	0.449
9.27244	0.564
9.3133	0.632
9.35415	0.646
9.39501	0.642
9.43587	0.589
9.47672	0.425
9.51758	0.112
9.55843	0.222
9.59929	0.463
9.64014	0.62
9.681	0.659
9.72185	0.673
9.76271	0.676
9.80357	0.673
9.84442	0.651
9.88528	0.589
9.92613	0.42
9.96699	0.123
10.0078	0.046
10.0487	0.17
10.0896	0.403
10.1304	0.608
10.1713	0.692
10.2121	0.707
10.253	0.728
10.2938	0.777
10.3347	0.806
10.3755	0.815
10.4164	0.817
10.4573	0.822
10.4981	0.827
10.539	0.834
10.5798	0.835
10.6207	0.835
10.6615	0.844
10.7024	0.847
10.7432	0.842
10.7841	0.842
10.825	0.834
10.8658	0.811
10.9067	0.784
10.9475	0.774
10.9884	0.789
11.0292	0.808
11.0701	0.81
11.1109	0.806
11.1518	0.8
11.1927	0.781
11.2335	0.769
11.2744	0.77
11.3152	0.791
11.3561	0.803
11.3969	0.808
11.4378	0.818
11.4786	0.822
11.5195	0.817
11.5604	0.811
11.6012	0.803
11.6421	0.793
11.6829	0.77
11.7238	0.735
11.7646	0.687
11.8055	0.562
11.8463	0.393
11.8872	0.145
11.9281	0.061
11.9689	0.131
12.0098	0.335
12.0506	0.473
12.0915	0.485
12.1323	0.441
12.1732	0.292
12.214	0.179
12.2549	0.109
12.2958	0.082
12.3366	0.141
12.3775	0.288
12.4183	0.459
12.4592	0.586
12.5	0.676
12.5409	0.736
12.5817	0.762
12.6226	0.777
12.6635	0.789
12.7043	0.796
12.7452	0.801
12.786	0.806
12.8269	0.81
12.8677	0.808
12.9086	0.801
12.9494	0.794
12.9903	0.784
13.0312	0.777
13.072	0.776
13.1129	0.776
13.1537	0.776
13.1946	0.798
13.2354	0.796
13.2763	0.811
13.3171	0.811
13.358	0.811
13.3989	0.806
13.4397	0.8
13.4806	0.788
13.5214	0.789
13.5623	0.774
13.6031	0.77
13.644	0.765
13.6848	0.76
13.7257	0.758
13.7666	0.752
13.8074	0.743
13.8483	0.728
13.8891	0.711
13.93	0.683
13.9708	0.668
14.0117	0.627
14.0525	0.601
14.0934	0.572
14.1343	0.529
14.1751	0.497
14.216	0.427
14.2568	0.369
14.2977	0.29
14.3385	0.22
14.3794	0.17
14.4202	0.133
14.4611	0.114
14.502	0.112
14.5428	0.119
14.5837	0.119
14.6245	0.116
14.6654	0.124
14.7062	0.14
14.7471	0.155
14.788	0.164
14.8288	0.177
14.8697	0.201
14.9105	0.242
14.9514	0.292
14.9922	0.35
15.0331	0.408
15.0739	0.459
15.1148	0.538
15.1557	0.591
15.1965	0.611
15.2374	0.637
15.2782	0.658
15.3191	0.676
15.3599	0.688
15.4008	0.697
15.4416	0.702
15.4825	0.7
15.5234	0.673
15.5642	0.63
15.6051	0.591
15.6459	0.591
15.6868	0.613
15.7276	0.649
15.7685	0.695
15.8093	0.721
15.8502	0.729
15.8911	0.735
15.9319	0.743
15.9728	0.75
