Infrared Spectrum: CARBOCAINE
Formula: C15 H22 N2 O
CAS: 96-88-8
State: SOLUTION (CS2 FOR 7.2-15 microns, AND C2Cl4 FOR 2-7.2 microns)
Class: COBLENTZ III
Instrument: PERKIN-ELMER 21 (GRATING)
Instrument parameters: FILTER AT ABOUT 10 MICRONS
Sampling: TRANSMISSION
Path length: 0.1 CM
Resolution: 2
1/CM	TRANSMITTANCE
4000	0.934
3991	0.9343
3982	0.9347
3973	0.9351
3964	0.9355
3955	0.9359
3946	0.9363
3937	0.9367
3928	0.9371
3919	0.9373
3910	0.9375
3901	0.9375
3892	0.9375
3883	0.9375
3874	0.9377
3865	0.9377
3856	0.9378
3847	0.9383
3838	0.9389
3829	0.9394
3820	0.94
3811	0.9405
3802	0.9411
3793	0.9424
3784	0.9441
3775	0.9458
3766	0.9475
3757	0.9492
3748	0.9503
3739	0.9511
3730	0.952
3721	0.9528
3712	0.9533
3703	0.953
3694	0.9527
3685	0.9524
3676	0.952
3667	0.9512
3658	0.9503
3649	0.9494
3640	0.9485
3631	0.9488
3622	0.949
3613	0.9495
3604	0.9506
3595	0.9515
3586	0.9525
3577	0.9536
3568	0.9542
3559	0.9542
3550	0.9542
3541	0.9541
3532	0.9533
3523	0.9521
3514	0.9506
3505	0.9471
3496	0.9438
3487	0.9345
3478	0.9288
3469	0.9265
3460	0.925
3451	0.9242
3442	0.9237
3433	0.9214
3424	0.9121
3415	0.8925
3406	0.8755
3397	0.8488
3388	0.7568
3379	0.663
3370	0.5685
3361	0.4735
3352	0.378
3343	0.3414
3334	0.3929
3325	0.4873
3316	0.5823
3307	0.6778
3298	0.7425
3289	0.763
3280	0.8069
3271	0.8333
3262	0.8493
3253	0.8647
3244	0.8787
3235	0.8923
3226	0.9048
3217	0.9125
3208	0.9173
3199	0.9202
3190	0.9224
3181	0.9247
3172	0.9265
3163	0.928
3154	0.9296
3145	0.9307
3136	0.9316
3127	0.9314
3118	0.9312
3109	0.9294
3100	0.9248
3091	0.9137
3082	0.8868
3073	0.8463
3064	0.8055
3055	0.7645
3046	0.7231
3037	0.6881
3028	0.6796
3019	0.684
3010	0.691
3001	0.6906
2992	0.6012
2983	0.4969
2974	0.4141
2965	0.3692
2956	0.2958
2947	0.2218
2938	0.1475
2929	0.0914
2920	0.0909
2911	0.0936
2902	0.1346
2893	0.2217
2884	0.3091
2875	0.3971
2866	0.4195
2857	0.3529
2848	0.2634
2839	0.2655
2830	0.3114
2821	0.3586
2812	0.3662
2803	0.3605
2794	0.3386
2785	0.3059
2776	0.3161
2767	0.4326
2758	0.5558
2749	0.6799
2740	0.7935
2731	0.7858
2722	0.7332
2713	0.6861
2704	0.699
2695	0.7439
2686	0.789
2677	0.8345
2668	0.8655
2659	0.8694
2650	0.8725
2641	0.8756
2632	0.8848
2623	0.8949
2614	0.9061
2605	0.9174
2596	0.9253
2587	0.9307
2578	0.932
2569	0.9333
2560	0.9368
2551	0.9412
2542	0.9455
2533	0.9499
2524	0.954
2515	0.958
2506	0.9597
2497	0.9611
2488	0.9625
2479	0.9632
2470	0.963
2461	0.9628
2452	0.9634
2443	0.9643
2434	0.9652
2425	0.9661
2416	0.9668
2407	0.9682
2398	0.9702
2389	0.9723
2380	0.9744
2371	0.9762
2362	0.9781
2353	0.98
2344	0.982
2335	0.9838
2326	0.9838
2317	0.9837
2308	0.9827
2299	0.981
2290	0.9785
2281	0.9766
2272	0.9762
2263	0.9793
2254	0.983
2245	0.9861
2236	0.9891
2227	0.9921
2218	0.994
2209	0.9957
2200	0.9968
2191	0.9978
2182	0.9988
2173	0.9992
2164	0.9988
2155	0.9983
2146	0.9978
2137	0.9962
2128	0.9942
2119	0.9911
2110	0.9903
2101	0.9902
2092	0.9892
2083	0.9856
2074	0.9821
2065	0.9789
2056	0.9773
2047	0.9763
2038	0.9777
2029	0.9789
2020	0.979
2011	0.9773
2002	0.9755
1993	0.9753
1984	0.9763
1975	0.9778
1966	0.9795
1957	0.9814
1948	0.9777
1939	0.9613
1930	0.9442
1921	0.9263
1912	0.9268
1903	0.9411
1894	0.9518
1885	0.9544
1876	0.9559
1867	0.9557
1858	0.9467
1849	0.906
1840	0.9081
1831	0.9312
1822	0.9389
1813	0.941
1804	0.9285
1795	0.9256
1786	0.9246
1777	0.8978
1768	0.8771
1759	0.87
1750	0.8383
1741	0.7849
1732	0.7044
1723	0.5057
1714	0.2593
1705	0.0952
1696	0.0333
1687	0.0336
1678	0.1161
1669	0.413
1660	0.6403
1651	0.6625
1642	0.7648
1633	0.8055
1624	0.8275
1615	0.8263
1606	0.7505
1597	0.7095
1588	0.8019
1579	0.8165
1570	0.8172
1561	0.8121
1552	0.7586
1543	0.7212
1534	0.6547
1525	0.5075
1516	0.33
1507	0.0769
1498	0.0246
1489	0.0308
1480	0.0457
1471	0.066
1462	0.1092
1453	0.1629
1444	0.225
1435	0.4269
1426	0.557
1417	0.699
1408	0.7749
1399	0.8082
1390	0.7447
1381	0.6033
1372	0.3239
1363	0.6551
1354	0.6739
1345	0.7096
1336	0.6342
1327	0.655
1318	0.5591
1309	0.6886
1300	0.6192
1291	0.423
1282	0.5869
1273	0.1595
1264	0.4054
1255	0.5764
1246	0.736
1237	0.7478
1228	0.6044
1219	0.4082
1210	0.4819
1201	0.62
1192	0.4431
1183	0.6947
1174	0.756
1165	0.7181
1156	0.6621
1147	0.5149
1138	0.4604
1129	0.6836
1120	0.6216
1111	0.1049
1102	0.4875
1093	0.3904
1084	0.4744
1075	0.7197
1066	0.7583
1057	0.635
1048	0.6807
1039	0.6187
1030	0.2287
1021	0.7083
1012	0.8174
1003	0.8161
994	0.6756
985	0.7903
976	0.8668
967	0.8405
958	0.8309
949	0.7075
940	0.7643
931	0.869
922	0.8277
913	0.8652
904	0.8859
895	0.8766
886	0.6982
877	0.7387
868	0.8238
859	0.8351
850	0.8678
841	0.8891
832	0.7041
823	0.7971
814	0.891
805	0.8887
796	0.8435
787	0.6421
778	0.7499
769	0.1863
760	0.2917
751	0.8086
742	0.865
733	0.8121
724	0.774
715	0.8018
706	0.6607
697	0.8316
688	0.8444
679	0.8341
