Infrared Spectrum: Aniline, 2,4,6-tri-tert-butyl-
Formula: C18 H31 N
CAS: 961-38-6
State: SOLID (OIL MULL)
Melting point: 147 C
Class: COBLENTZ III
Instrument: BECKMAN IR-4 (HYBRID PRISM-GRATING)
Instrument parameters: NaCl PRISM
Sampling: TRANSMISSION
Resolution: 2
Origin: MONSANTO (J. FREEMAN)
1/CM	TRANSMITTANCE
628	0.7123
637	0.713
646	0.7004
655	0.7553
664	0.8119
673	0.8274
682	0.8389
691	0.8433
700	0.841
709	0.8136
718	0.7504
727	0.7756
736	0.8021
745	0.8322
754	0.8446
763	0.7971
772	0.709
781	0.8244
790	0.8517
799	0.8505
808	0.8416
817	0.8773
826	0.85
835	0.8973
844	0.8925
853	0.8939
862	0.8919
871	0.8507
880	0.356
889	0.8282
898	0.8709
907	0.8797
916	0.7798
925	0.7868
934	0.793
943	0.8605
952	0.8598
961	0.8619
970	0.8681
979	0.8753
988	0.8879
997	0.8879
1006	0.8744
1015	0.8074
1024	0.8067
1033	0.8431
1042	0.8731
1051	0.8622
1060	0.8357
1069	0.7897
1078	0.7813
1087	0.806
1096	0.8612
1105	0.8839
1114	0.8788
1123	0.8315
1132	0.8867
1141	0.8821
1150	0.859
1159	0.8645
1168	0.854
1177	0.8392
1186	0.7907
1195	0.6248
1204	0.6411
1213	0.759
1222	0.6887
1231	0.4597
1240	0.1448
1249	0.4775
1258	0.7071
1267	0.5325
1276	0.5451
1285	0.6538
1294	0.5376
1303	0.6548
1312	0.773
1321	0.8153
1330	0.8208
1339	0.8046
1348	0.7753
1357	0.6887
1366	0.4087
1375	0.2853
1384	0.3417
1393	0.4878
1402	0.391
1411	0.6512
1420	0.6348
1429	0.3987
1438	0.1599
1447	0.1485
1456	0.1675
1465	0.1182
1474	0.1003
1483	0.1763
1492	0.4832
1501	0.6974
1510	0.803
1519	0.8464
1528	0.873
1537	0.8854
1546	0.8906
1555	0.89
1564	0.8829
1573	0.8639
1582	0.8331
1591	0.7862
1600	0.6739
1609	0.6002
1618	0.5185
1627	0.4116
1636	0.5799
1645	0.7855
1654	0.8391
1663	0.8824
1672	0.8991
1681	0.9107
1690	0.9199
1699	0.9277
1708	0.9346
1717	0.9407
1726	0.9451
1735	0.9475
1744	0.9436
1753	0.9333
1762	0.9147
1771	0.8989
1780	0.9022
1789	0.9137
1798	0.9217
1807	0.9254
1816	0.9264
1825	0.9271
1834	0.9274
1843	0.9266
1852	0.926
1861	0.9256
1870	0.925
1879	0.9244
1888	0.9239
1897	0.9232
1906	0.9227
1915	0.9222
1924	0.9217
1933	0.9211
1942	0.9209
1951	0.9206
1960	0.9204
1969	0.9201
1978	0.9193
1987	0.9187
1996	0.9179
2005	0.9172
2014	0.9165
2023	0.9157
2032	0.9148
2041	0.9139
2050	0.9131
2059	0.9122
2068	0.9112
2077	0.9102
2086	0.9092
2095	0.9082
2104	0.9071
2113	0.906
2122	0.9049
2131	0.9038
2140	0.902
2149	0.9002
2158	0.8983
2167	0.8964
2176	0.8943
2185	0.8931
2194	0.8936
2203	0.8946
2212	0.8955
2221	0.8951
2230	0.8938
2239	0.8922
2248	0.8906
2257	0.8889
2266	0.8873
2275	0.8848
2284	0.8821
2293	0.8799
2302	0.88
2311	0.881
2320	0.8824
2329	0.8841
2338	0.8858
2347	0.8861
2356	0.8858
2365	0.8844
2374	0.882
2383	0.8786
2392	0.8728
2401	0.8692
2410	0.8681
2419	0.8671
2428	0.8663
2437	0.8657
2446	0.8649
2455	0.864
2464	0.8632
2473	0.8623
2482	0.8614
2491	0.8605
2500	0.8597
2509	0.858
2518	0.856
2527	0.8529
2536	0.8495
2545	0.8451
2554	0.8406
2563	0.8359
2572	0.8311
2581	0.8259
2590	0.8207
2599	0.8157
2608	0.8112
2617	0.8067
2626	0.8022
2635	0.7974
2644	0.7927
2653	0.7881
2662	0.7837
2671	0.7794
2680	0.7751
2689	0.7712
2698	0.7674
2707	0.7629
2716	0.756
2725	0.7448
2734	0.7403
2743	0.7408
2752	0.7429
2761	0.7459
2770	0.7495
2779	0.749
2788	0.7445
2797	0.7168
2806	0.6871
2815	0.6181
2824	0.5673
2833	0.533
2842	0.4974
2851	0.4663
2860	0.3814
2869	0.3032
2878	0.2254
2887	0.1481
2896	0.0713
2905	0.0425
2914	0.0309
2923	0.0198
2932	0.0139
2941	0.0092
2950	0.0059
2959	0.0034
2968	0.002
2977	0.0016
2986	0.0018
2995	0.0747
3004	0.2014
3013	0.3273
3022	0.4525
3031	0.5731
3040	0.6119
3049	0.6442
3058	0.6601
3067	0.6677
3076	0.6722
3085	0.6752
3094	0.6774
3103	0.6795
3112	0.6927
3121	0.7112
3130	0.7177
3139	0.7212
3148	0.7223
3157	0.7227
3166	0.7228
3175	0.7229
3184	0.7229
3193	0.723
3202	0.7232
3211	0.7239
3220	0.7254
3229	0.729
3238	0.7324
3247	0.7337
3256	0.7341
3265	0.7341
3274	0.7339
3283	0.7337
3292	0.7335
3301	0.7331
3310	0.7328
3319	0.7321
3328	0.731
3337	0.7292
3346	0.7264
3355	0.7231
3364	0.7193
3373	0.7144
3382	0.7069
3391	0.6983
3400	0.6891
3409	0.6766
3418	0.6508
3427	0.6234
3436	0.5962
3445	0.584
3454	0.5982
3463	0.6212
3472	0.644
3481	0.6566
3490	0.6493
3499	0.6336
3508	0.618
3517	0.6025
3526	0.5871
3535	0.5832
3544	0.6145
3553	0.6555
3562	0.6751
3571	0.6865
3580	0.6938
3589	0.6988
3598	0.7032
3607	0.7064
3616	0.7091
3625	0.711
3634	0.7125
3643	0.7129
3652	0.7126
3661	0.712
3670	0.7114
3679	0.7108
3688	0.7102
3697	0.7091
3706	0.708
3715	0.7067
3724	0.7052
3733	0.7032
3742	0.7012
3751	0.6991
3760	0.6971
3769	0.695
3778	0.6924
3787	0.6895
3796	0.6867
3805	0.6839
3814	0.6824
3823	0.6812
3832	0.6804
3841	0.6796
3850	0.6787
3859	0.677
3868	0.6751
3877	0.6732
3886	0.6715
3895	0.6697
3904	0.668
3913	0.6662
3922	0.6646
3931	0.6629
3940	0.6611
3949	0.6593
3958	0.6576
3967	0.6558
3976	0.6541
3985	0.6524
3994	0.6507
