Infrared Spectrum: 17Alpha,21 DIHYDROXYPREGNA-4-ENE-3,11,20-TRIONE,21 ACETATE
Formula: C23 H30 O6
CAS: 96843-92-4
State: SOLID (NUJOL MULL)
Melting point: 235-238 C
Class: COBLENTZ III
Instrument: PERKIN-ELMER 521 (GRATING)
Instrument parameters: GRATING CHANGE AT 1996 CM^-^1
Sampling: TRANSMISSION
Resolution: 4
Origin: MERCK SHARPE & DOHME RESEARCH LABORATORIES, Nelson Trenner
1/CM	TRANSMITTANCE
602.273	0.347
611.364	0.346
620.455	0.41
629.546	0.428
638.637	0.451
647.728	0.474
656.819	0.467
665.909	0.524
675	0.579
684.091	0.572
693.182	0.598
702.273	0.69
711.364	0.678
720.455	0.627
729.546	0.618
738.637	0.652
747.728	0.628
756.819	0.731
765.91	0.753
775.001	0.722
784.091	0.578
793.182	0.73
802.273	0.751
811.364	0.808
820.455	0.813
829.546	0.736
838.637	0.725
847.728	0.545
856.819	0.737
865.91	0.5782
875.001	0.62
884.092	0.628
893.182	0.591
902.273	0.6038
911.364	0.713
920.455	0.562
929.546	0.55
938.637	0.512
947.728	0.592
956.819	0.5999
965.91	0.736
975.001	0.648
984.092	0.4981
993.183	0.677
1002.27	0.695
1011.36	0.602
1020.46	0.566
1029.55	0.553
1038.64	0.366
1047.73	0.3401
1056.82	0.349
1065.91	0.576
1075	0.565
1084.09	0.559
1093.18	0.354
1102.27	0.474
1111.36	0.498
1120.46	0.439
1129.55	0.4781
1138.64	0.423
1147.73	0.568
1156.82	0.571
1165.91	0.441
1175	0.489
1184.09	0.502
1193.18	0.316
1202.27	0.286
1211.36	0.397
1220.46	0.186
1229.55	0.1501
1238.64	0.11
1247.73	0.196
1256.82	0.362
1265.91	0.293
1275	0.383
1284.09	0.2801
1293.18	0.498
1302.27	0.41
1311.36	0.557
1320.46	0.571
1329.55	0.509
1338.64	0.493
1347.73	0.312
1356.82	0.331
1365.91	0.306
1375	0.155
1384.09	0.29
1393.18	0.385
1402.27	0.513
1411.36	0.3031
1420.46	0.33
1429.55	0.296
1438.64	0.326
1447.73	0.231
1456.82	0.151
1465.91	0.151
1475	0.454
1484.09	0.644
1493.18	0.7
1502.27	0.716
1511.37	0.721
1520.46	0.719
1529.55	0.707
1538.64	0.686
1547.73	0.681
1556.82	0.682
1565.91	0.667
1575	0.634
1584.09	0.607
1593.18	0.551
1602.27	0.329
1611.37	0.362
1620.46	0.339
1629.55	0.277
1638.64	0.124
1647.73	0.107
1656.82	0.138
1665.91	0.334
1675	0.349
1684.09	0.29
1693.18	0.147
1702.27	0.218
1711.37	0.26
1720.46	0.139
1729.55	0.37
1738.64	0.3699
1747.73	0.127
1756.82	0.333
1765.91	0.675
1775	0.783
1784.09	0.821
1793.18	0.832
1802.27	0.855
1811.37	0.859
1820.46	0.863
1829.55	0.871
1838.64	0.887
1847.73	0.888
1856.82	0.888
1865.91	0.886
1875	0.888
1884.09	0.888
1893.18	0.891
1902.27	0.893
1911.37	0.892
1920.46	0.892
1929.55	0.889
1938.64	0.892
1947.73	0.89
1956.82	0.883
1965.91	0.88
1975	0.887
1984.09	0.878
1993.18	0.872
2002.27	0.8902
2011.37	0.892
2020.46	0.892
2029.55	0.8875
2038.64	0.8828
2047.73	0.874
2056.82	0.871
2065.91	0.8775
2075	0.8803
2084.09	0.881
2093.18	0.879
2102.28	0.88
2111.37	0.881
2120.46	0.877
2129.55	0.875
2138.64	0.875
2147.73	0.872
2156.82	0.87
2165.91	0.868
2175	0.866
2184.09	0.8635
2193.18	0.862
2202.28	0.863
2211.37	0.864
2220.46	0.864
2229.55	0.863
2238.64	0.861
2247.73	0.8572
2256.82	0.855
2265.91	0.853
2275	0.8509
2284.09	0.846
2293.18	0.847
2302.28	0.846
2311.37	0.845
2320.46	0.845
2329.55	0.8477
2338.64	0.849
2347.73	0.8522
2356.82	0.853
2365.91	0.851
2375	0.839
2384.09	0.8335
2393.18	0.83
2402.28	0.829
2411.37	0.827
2420.46	0.827
2429.55	0.827
2438.64	0.826
2447.73	0.8234
2456.82	0.821
2465.91	0.818
2475	0.818
2484.09	0.818
2493.18	0.817
2502.28	0.8126
2511.37	0.808
2520.46	0.807
2529.55	0.8045
2538.64	0.8
2547.73	0.798
2556.82	0.7942
2565.91	0.7794
2575	0.7757
2584.09	0.7649
2593.18	0.7582
2602.28	0.7514
2611.37	0.749
2620.46	0.7459
2629.55	0.7412
2638.64	0.7334
2647.73	0.7282
2656.82	0.723
2665.91	0.7181
2675	0.717
2684.09	0.716
2693.18	0.7138
2702.28	0.702
2711.37	0.6932
2720.46	0.6905
2729.55	0.689
2738.64	0.688
2747.73	0.6878
2756.82	0.6844
2765.91	0.6743
2775	0.6647
2784.09	0.6514
2793.19	0.5974
2802.28	0.5327
2811.37	0.4661
2820.46	0.3657
2829.55	0.1644
2838.64	0.0683
2847.73	0.0652
2856.82	0.082
2865.91	0.0875
2875	0.0705
2884.09	0.0605
2893.19	0.045
2902.28	0.0304
2911.37	0.029
2920.46	0.0303
2929.55	0.033
2938.64	0.034
2947.73	0.0356
2956.82	0.0501
2965.91	0.1318
2975	0.2107
2984.09	0.2912
2993.19	0.3896
3002.28	0.4385
3011.37	0.4588
3020.46	0.4811
3029.55	0.5277
3038.64	0.551
3047.73	0.567
3056.82	0.5718
3065.91	0.5755
3075	0.5803
3084.09	0.583
3093.19	0.583
3102.28	0.582
3111.37	0.579
3120.46	0.5768
3129.55	0.571
3138.64	0.5634
3147.73	0.5616
3156.82	0.5608
3165.91	0.5532
3175	0.5443
3184.09	0.5421
3193.19	0.5358
3202.28	0.53
3211.37	0.5195
3220.46	0.509
3229.55	0.5007
3238.64	0.4908
3247.73	0.4653
3256.82	0.4437
3265.91	0.4333
3275	0.4018
3284.09	0.3924
3293.19	0.3549
3302.28	0.3402
3311.37	0.3207
3320.46	0.2866
3329.55	0.2643
3338.64	0.2462
3347.73	0.227
3356.82	0.209
3365.91	0.2023
3375	0.2
3384.09	0.199
3393.19	0.2
3402.28	0.2038
3411.37	0.2077
3420.46	0.2166
3429.55	0.2395
3438.64	0.2642
3447.73	0.2998
3456.82	0.3467
3465.91	0.3912
3475	0.4293
3484.1	0.4699
3493.19	0.5405
3502.28	0.5702
3511.37	0.5877
3520.46	0.6099
3529.55	0.624
3538.64	0.6332
3547.73	0.642
3556.82	0.647
3565.91	0.6511
3575	0.6613
3584.1	0.669
3593.19	0.6708
3602.28	0.6726
3611.37	0.678
3620.46	0.6822
3629.55	0.6879
3638.64	0.691
3647.73	0.6944
3656.82	0.696
3665.91	0.698
3675	0.7007
3684.1	0.702
3693.19	0.702
3702.28	0.701
3711.37	0.7
3720.46	0.7
3729.55	0.698
3738.64	0.697
3747.73	0.696
3756.82	0.6924
3765.91	0.69
3775	0.6879
3784.1	0.6861
3793.19	0.684
3802.28	0.682
3811.37	0.678
3820.46	0.677
3829.55	0.6733
3838.64	0.671
3847.73	0.6698
3856.82	0.669
3865.91	0.667
3875	0.6655
3884.1	0.664
3893.19	0.662
3902.28	0.6602
3911.37	0.66
3920.46	0.6577
3929.55	0.6539
3938.64	0.6512
3947.73	0.65
3956.82	0.6486
3965.91	0.647
3975	0.646
3984.1	0.645
3993.19	0.644
