Infrared Spectrum: 1-CHLORO-2,4-DINITRO BENZENE
Formula: C6 H3 Cl N2 O4
CAS: 97-00-7
State: SOLID (MULL)
Melting point: 49.5-52 C
Class: COBLENTZ
Instrument: Not specified, most likely a prism, grating, or hybrid spectrometer.
Sampling: TRANSMISSION
Resolution: 4
Origin: WYANDOTTE CHEMICALS CORP., WYANDOTTE, MICHIGAN, USA
MICROMETERS	TRANSMITTANCE
2.015	0.46
2.05492	0.45
2.09484	0.44
2.13476	0.43
2.17468	0.421
2.2146	0.41
2.25452	0.403
2.29444	0.398
2.33436	0.398
2.37428	0.398
2.4142	0.4
2.45412	0.4
2.49404	0.405
2.53396	0.411
2.57388	0.413
2.6138	0.415
2.65372	0.418
2.69364	0.42
2.73356	0.42
2.77348	0.428
2.8134	0.426
2.85332	0.431
2.89324	0.415
2.93316	0.411
2.97308	0.41
3.013	0.41
3.05292	0.41
3.09284	0.406
3.13276	0.397
3.17268	0.372
3.2126	0.317
3.25252	0.176
3.29244	0.237
3.33236	0.212
3.37228	0.066
3.4122	0.029
3.45212	0.031
3.49204	0.038
3.53197	0.076
3.57189	0.363
3.61181	0.453
3.65173	0.465
3.69165	0.455
3.73157	0.428
3.77149	0.451
3.81141	0.471
3.85133	0.473
3.89125	0.468
3.93117	0.491
3.97109	0.501
4.01101	0.501
4.05093	0.504
4.09085	0.508
4.13077	0.5
4.17069	0.508
4.21061	0.519
4.25053	0.519
4.29045	0.519
4.33037	0.524
4.37029	0.529
4.41021	0.549
4.45013	0.544
4.49005	0.531
4.52997	0.553
4.56989	0.568
4.60981	0.568
4.64973	0.574
4.68965	0.583
4.72957	0.584
4.76949	0.601
4.80941	0.607
4.84933	0.607
4.88925	0.607
4.92917	0.619
4.96909	0.624
5.00901	0.631
5.04893	0.639
5.08885	0.654
5.12877	0.614
5.16869	0.578
5.20861	0.647
5.24853	0.672
5.28845	0.681
5.32837	0.692
5.36829	0.705
5.40821	0.722
5.44813	0.732
5.48805	0.71
5.52797	0.739
5.56789	0.71
5.60781	0.764
5.64773	0.784
5.68765	0.782
5.72757	0.8
5.76749	0.877
5.80741	0.855
5.84733	0.76
5.88725	0.843
5.92717	0.905
5.96709	0.935
6.00701	0.96
6.04693	0.97
6.08685	0.9
6.12677	0.729
6.16669	0.272
6.20661	0.098
6.24653	0.098
6.28645	0.26
6.32637	0.403
6.36629	0.262
6.40621	0.102
6.44613	0.066
6.48605	0.071
6.52598	0.073
6.5659	0.091
6.60582	0.109
6.64574	0.141
6.68566	0.176
6.72558	0.191
6.7655	0.106
6.80542	0.041
6.84534	0.056
6.88526	0.131
6.92518	0.252
6.9651	0.378
7.00502	0.453
7.04494	0.491
7.08486	0.558
7.12478	0.539
7.1647	0.406
7.20462	0.265
7.24454	0.124
7.28446	0.104
7.32438	0.063
7.3643	0.043
7.40422	0.038
7.44414	0.038
7.48406	0.049
7.52398	0.068
7.5639	0.107
7.60382	0.154
7.64374	0.151
7.68366	0.139
7.72358	0.197
7.7635	0.224
7.80342	0.239
7.84334	0.255
7.88326	0.305
7.92318	0.333
7.9631	0.317
8.00302	0.214
8.04294	0.292
8.08286	0.353
8.12278	0.388
8.1627	0.393
8.20262	0.375
8.24254	0.367
8.28246	0.408
8.32238	0.448
8.3623	0.463
8.40222	0.481
8.44214	0.488
8.48206	0.488
8.52198	0.501
8.5619	0.528
8.60182	0.435
8.64174	0.289
8.68166	0.39
8.72158	0.418
8.7615	0.29
8.80142	0.431
8.84134	0.503
8.88126	0.534
8.92118	0.553
8.9611	0.553
9.00102	0.509
9.04094	0.397
9.08086	0.533
9.12078	0.568
9.1607	0.571
9.20062	0.549
9.24054	0.569
9.28046	0.604
9.32038	0.644
9.3603	0.649
9.40022	0.601
9.44014	0.593
9.48006	0.438
9.51999	0.137
9.55991	0.101
9.59983	0.234
9.63975	0.307
9.67967	0.378
9.71959	0.415
9.75951	0.453
9.79943	0.485
9.83935	0.514
9.87927	0.531
9.91919	0.548
9.95911	0.573
9.99903	0.584
10.0389	0.601
10.0789	0.598
10.1188	0.531
10.1587	0.513
10.1986	0.534
10.2385	0.568
10.2785	0.588
10.3184	0.606
10.3583	0.612
10.3982	0.609
10.4381	0.612
10.4781	0.624
10.518	0.639
10.5579	0.667
10.5978	0.674
10.6377	0.679
10.6777	0.684
10.7176	0.689
10.7575	0.694
10.7974	0.694
10.8373	0.553
10.8773	0.257
10.9172	0.169
10.9571	0.274
10.997	0.387
11.037	0.323
11.0769	0.099
11.1168	0.144
11.1567	0.29
11.1966	0.421
11.2366	0.524
11.2765	0.583
11.3164	0.622
11.3563	0.652
11.3962	0.674
11.4362	0.694
11.4761	0.724
11.516	0.749
11.5559	0.775
11.5958	0.792
11.6358	0.8
11.6757	0.682
11.7156	0.466
11.7555	0.209
11.7954	0.24
11.8354	0.476
11.8753	0.568
11.9152	0.476
11.9551	0.272
11.995	0.217
12.035	0.265
12.0749	0.388
12.1148	0.463
12.1547	0.524
12.1946	0.563
12.2346	0.598
12.2745	0.614
12.3144	0.636
12.3543	0.649
12.3942	0.676
12.4342	0.7
12.4741	0.705
12.514	0.724
12.5539	0.735
12.5938	0.744
12.6338	0.752
12.6737	0.755
12.7136	0.764
12.7535	0.772
12.7934	0.784
12.8334	0.792
12.8733	0.792
12.9132	0.795
12.9531	0.799
12.993	0.799
13.033	0.777
13.0729	0.737
13.1128	0.634
13.1527	0.509
13.1926	0.548
13.2326	0.594
13.2725	0.441
13.3124	0.269
13.3523	0.237
13.3922	0.327
13.4322	0.468
13.4721	0.519
13.512	0.466
13.5519	0.325
13.5918	0.176
13.6318	0.131
13.6717	0.102
13.7116	0.107
13.7515	0.181
13.7914	0.28
13.8314	0.363
13.8713	0.448
13.9112	0.529
13.9511	0.583
13.991	0.632
14.031	0.674
14.0709	0.704
14.1108	0.73
14.1507	0.745
14.1906	0.755
14.2306	0.775
14.2705	0.775
14.3104	0.755
14.3503	0.712
14.3902	0.614
14.4302	0.48
14.4701	0.348
14.51	0.292
14.5499	0.322
14.5898	0.415
14.6298	0.503
14.6697	0.559
14.7096	0.619
14.7495	0.649
14.7894	0.672
14.8294	0.689
14.8693	0.719
14.9092	0.737
14.9491	0.735
14.989	0.72
15.029	0.689
15.0689	0.669
15.1088	0.639
15.1487	0.583
15.1886	0.511
15.2286	0.466
15.2685	0.48
15.3084	0.551
15.3483	0.602
15.3882	0.651
15.4282	0.667
15.4681	0.682
15.508	0.689
15.5479	0.7
15.5878	0.699
15.6278	0.702
15.6677	0.705
15.7076	0.702
15.7475	0.686
15.7874	0.689
15.8274	0.667
15.8673	0.666
15.9072	0.661
15.9471	0.651
15.987	0.634
