Infrared Spectrum: 2,4-DICHLOROPHENYLBENZENE SULFONATE
Formula: C12 H8 Cl2 O3 S
CAS: 97-16-5
State: SOLUTION (10% CCl4 FOR 3800-1330, 10% CS2 FOR 1330-450 CM^-^1)
Class: COBLENTZ
Instrument: Not specified, most likely a prism, grating, or hybrid spectrometer.
Sampling: TRANSMISSION
Path length: 0.0114 CM, 0.0118 CM
Resolution: 4
Origin: DOW CHEMICAL COMPANY
1/CM	TRANSMITTANCE
450.876	0.78
460.015	0.8589
469.155	0.893
478.294	0.881
487.434	0.858
496.573	0.959
505.713	0.9341
514.852	0.946
523.991	0.936
533.131	0.929
542.27	0.833
551.41	0.78
560.549	0.7961
569.688	0.636
578.828	0.2259
587.967	0.019
597.107	0.3307
606.246	0.2456
615.386	0.89
624.525	0.969
633.664	0.955
642.804	0.8951
651.943	0.524
661.083	0.8559
670.222	0.831
679.362	0.202
688.501	0.0629
697.64	0.757
706.78	0.891
715.919	0.757
725.059	0.734
734.198	0.4431
743.337	0.3309
752.477	0.07
761.616	0.5759
770.756	0.734
779.895	0.2195
789.035	0.005
798.174	0.134
807.313	0.523
816.453	0.698
825.592	0.026
834.732	0.5349
843.871	0.787
853.011	0.746
862.15	0.5279
871.289	0.039
880.429	0.3608
889.568	0.634
898.708	0.801
907.847	0.898
916.986	0.96
926.126	0.966
935.265	0.973
944.405	0.913
953.544	0.975
962.684	0.998
971.823	0.987
980.962	0.992
990.102	0.989
999.241	0.9678
1008.38	0.978
1017.52	0.975
1026.66	0.863
1035.8	0.968
1044.94	0.937
1054.08	0.6793
1063.22	0.5787
1072.36	0.785
1081.5	0.831
1090.64	0.0599
1099.77	0.3131
1108.91	0.5719
1118.05	0.893
1127.19	0.916
1136.33	0.911
1145.47	0.739
1154.61	0.842
1163.75	0.709
1172.89	0.299
1182.03	0.056
1191.17	0.008
1200.31	0.4409
1209.45	0.407
1218.59	0.088
1227.73	0.6911
1236.87	0.881
1246.01	0.815
1255.15	0.647
1264.28	0.906
1273.42	0.92
1282.56	0.907
1291.7	0.902
1300.84	0.833
1309.98	0.92
1319.12	0.909
1328.26	0.877
1337.4	0.764
1346.54	0.874
1355.68	0.815
1364.82	0.6076
1373.96	0.166
1383.1	0.0991
1392.24	0.015
1401.38	0.17
1410.52	0.751
1419.65	0.813
1428.79	0.828
1437.93	0.813
1447.07	0.627
1456.21	0.5529
1465.35	0.4231
1474.49	0.014
1483.63	0.437
1492.77	0.666
1501.91	0.696
1511.05	0.707
1520.19	0.666
1529.33	0.647
1538.47	0.5759
1547.61	0.485
1556.75	0.521
1565.89	0.572
1575.02	0.524
1584.16	0.4761
1593.3	0.7231
1602.44	0.822
1611.58	0.891
1620.72	0.946
1629.86	0.973
1639	0.985
1648.14	0.976
1657.28	0.978
1666.42	0.987
1675.56	0.971
1684.7	0.976
1693.84	0.98
1702.98	0.982
1712.12	0.984
1721.26	0.976
1730.39	0.957
1739.53	0.962
1748.67	0.984
1757.81	0.975
1766.95	0.953
1776.09	0.976
1785.23	0.992
1794.37	0.992
1803.51	0.968
1812.65	0.952
1821.79	0.976
1830.93	0.98
1840.07	0.989
1849.21	0.991
1858.35	0.985
1867.49	0.985
1876.63	0.976
1885.77	0.943
1894.9	0.925
1904.04	0.966
1913.18	0.975
1922.32	0.976
1931.46	0.989
1940.6	0.994
1949.74	0.991
1958.88	0.973
1968.02	0.976
1977.16	0.978
1986.3	0.971
1995.44	0.98
2004.58	0.992
2013.72	0.9941
2022.86	0.998
2032	0.9999
2041.14	0.996
2050.27	1.0011
2059.41	0.9961
2068.55	0.996
2077.69	1.0009
2086.83	1
2095.97	1.0001
2105.11	1.001
2114.25	1.001
2123.39	1.001
2132.53	1.003
2141.67	1.003
2150.81	1.001
2159.95	1.001
2169.09	1.003
2178.23	1.001
2187.37	1
2196.51	1.0008
2205.64	1.001
2214.78	1.001
2223.92	1
2233.06	0.9996
2242.2	0.9928
2251.34	0.989
2260.48	0.9854
2269.62	0.978
2278.76	0.9664
2287.9	0.9655
2297.04	0.966
2306.18	0.9682
2315.32	0.971
2324.46	0.9673
2333.6	0.9555
2342.74	0.9636
2351.88	0.98
2361.01	0.975
2370.15	0.9904
2379.29	0.9919
2388.43	0.994
2397.57	0.9913
2406.71	0.992
2415.85	0.994
2424.99	0.9913
2434.13	0.991
2443.27	0.994
2452.41	0.994
2461.55	0.994
2470.69	0.994
2479.83	0.994
2488.97	0.991
2498.11	0.994
2507.25	0.994
2516.39	0.9952
2525.52	0.994
2534.66	0.994
2543.8	0.9899
2552.94	0.989
2562.08	0.9859
2571.22	0.9789
2580.36	0.98
2589.5	0.9857
2598.64	0.991
2607.78	0.99
2616.92	0.992
2626.06	0.993
2635.2	0.992
2644.34	0.993
2653.48	0.9915
2662.62	0.985
2671.76	0.984
2680.89	0.984
2690.03	0.992
2699.17	0.992
2708.31	0.9884
2717.45	0.9844
2726.59	0.9898
2735.73	0.991
2744.87	0.991
2754.01	0.991
2763.15	0.989
2772.29	0.987
2781.43	0.9878
2790.57	0.987
2799.71	0.9897
2808.85	0.992
2817.99	0.989
2827.13	0.984
2836.26	0.9843
2845.4	0.987
2854.54	0.991
2863.68	0.992
2872.82	0.994
2881.96	0.992
2891.1	0.9898
2900.24	0.991
2909.38	0.9905
2918.52	0.987
2927.66	0.991
2936.8	0.991
2945.94	0.989
2955.08	0.987
2964.22	0.989
2973.36	0.991
2982.5	0.991
2991.63	0.989
3000.77	0.9812
3009.91	0.9726
3019.05	0.9676
3028.19	0.957
3037.33	0.9554
3046.47	0.962
3055.61	0.9448
3064.75	0.8591
3073.89	0.8114
3083.03	0.8779
3092.17	0.9052
3101.31	0.8683
3110.45	0.9225
3119.59	0.9573
3128.73	0.969
3137.87	0.976
3147.01	0.98
3156.14	0.98
3165.28	0.978
3174.42	0.98
3183.56	0.9911
3192.7	1
3201.84	1.001
3210.98	1.0011
3220.12	1.007
3229.26	1.007
3238.4	1.008
3247.54	1.012
3256.68	1.014
3265.82	1.014
3274.96	1.015
3284.1	1.017
3293.24	1.021
3302.38	1.024
3311.51	1.023
3320.65	1.017
3329.79	1.017
3338.93	1.0171
3348.07	1.017
3357.21	1.0209
3366.35	1.021
3375.49	1.021
3384.63	1.021
3393.77	1.021
3402.91	1.019
3412.05	1.019
3421.19	1.017
3430.33	1.017
3439.47	1.015
3448.61	1.015
3457.75	1.0153
3466.88	1.015
3476.02	1.015
3485.16	1.015
3494.3	1.015
3503.44	1.015
3512.58	1.012
3521.72	1.012
3530.86	1.012
3540	1.014
3549.14	1.0125
3558.28	1.0105
3567.42	1.01
3576.56	1.012
3585.7	1.0085
3594.84	1.0073
3603.98	1.0055
3613.12	1.003
3622.25	1.0016
3631.39	1
3640.53	1.001
3649.67	1.001
3658.81	1.0024
3667.95	1.003
3677.09	1.003
3686.23	1.001
3695.37	1
3704.51	0.998
3713.65	1
3722.79	0.9993
3731.93	1.0017
3741.07	1.001
3750.21	1.001
3759.35	1.001
3768.49	1.001
3777.63	1.001
