Infrared Spectrum: ETHYLENEDIAMINE, N,N,N'-TRIISOPROPYL-
Formula: C11 H26 N2
CAS: 97-13-2
State: LIQUID (NEAT)
Class: COBLENTZ III
Instrument: BECKMAN IR-9 (GRATING)
Instrument parameters: ORDER CHANGES: 670, 1200, 2000 CM^-^1
Sampling: TRANSMISSION
Path length: CAPILLARY
Resolution: 2
Origin: DOW CHEMICAL COMPANY
1/CM	TRANSMITTANCE
401	0.591
410	0.5537
419	0.5556
428	0.5949
437	0.6317
446	0.6621
455	0.6899
464	0.7185
473	0.7362
482	0.7253
491	0.71
500	0.7353
509	0.7321
518	0.7418
527	0.7642
536	0.7782
545	0.7848
554	0.775
563	0.7615
572	0.7948
581	0.7696
590	0.7905
599	0.8389
608	0.8448
617	0.847
626	0.8478
635	0.8486
644	0.8482
653	0.8458
662	0.8398
671	0.8275
680	0.788
689	0.7265
698	0.7322
707	0.7425
716	0.7382
725	0.7325
734	0.7254
743	0.6965
752	0.6892
761	0.6918
770	0.6821
779	0.7361
788	0.7884
797	0.8245
806	0.8315
815	0.8328
824	0.8082
833	0.7714
842	0.7611
851	0.7961
860	0.825
869	0.8333
878	0.8175
887	0.7519
896	0.805
905	0.8466
914	0.8454
923	0.8306
932	0.8366
941	0.8307
950	0.7701
959	0.7978
968	0.8057
977	0.7858
986	0.6728
995	0.7197
1004	0.7821
1013	0.8295
1022	0.8262
1031	0.814
1040	0.7925
1049	0.755
1058	0.6682
1067	0.6787
1076	0.7134
1085	0.6818
1094	0.6508
1103	0.6598
1112	0.6088
1121	0.4466
1130	0.4949
1139	0.5244
1148	0.5192
1157	0.4481
1166	0.464
1175	0.4635
1184	0.3668
1193	0.4832
1202	0.5679
1211	0.4108
1220	0.5658
1229	0.7061
1238	0.6558
1247	0.5752
1256	0.7201
1265	0.7712
1274	0.774
1283	0.6801
1292	0.7188
1301	0.7553
1310	0.7471
1319	0.6595
1328	0.5971
1337	0.6147
1346	0.6458
1355	0.6484
1364	0.3562
1373	0.3882
1382	0.34
1391	0.3759
1400	0.5562
1409	0.7161
1418	0.7539
1427	0.7432
1436	0.641
1445	0.5448
1454	0.5322
1463	0.4658
1472	0.3637
1481	0.3977
1490	0.6417
1499	0.7686
1508	0.8019
1517	0.8194
1526	0.8318
1535	0.8359
1544	0.8375
1553	0.8375
1562	0.8375
1571	0.838
1580	0.8386
1589	0.839
1598	0.8397
1607	0.8405
1616	0.8405
1625	0.8401
1634	0.8401
1643	0.8403
1652	0.8408
1661	0.8414
1670	0.8258
1679	0.8044
1688	0.798
1697	0.8236
1706	0.8415
1715	0.8524
1724	0.8571
1733	0.8597
1742	0.8607
1751	0.8618
1760	0.8635
1769	0.8654
1778	0.8696
1787	0.8711
1796	0.8721
1805	0.8727
1814	0.8721
1823	0.8718
1832	0.8708
1841	0.8683
1850	0.8671
1859	0.8661
1868	0.865
1877	0.8642
1886	0.8644
1895	0.8647
1904	0.865
1913	0.8653
1922	0.8651
1931	0.8639
1940	0.8632
1949	0.8628
1958	0.8634
1967	0.8607
1976	0.8642
1985	0.8644
1994	0.8645
2003	0.8651
2012	0.8728
2021	0.8787
2030	0.877
2039	0.876
2048	0.8744
2057	0.8736
2066	0.8725
2075	0.8706
2084	0.8702
2093	0.8698
2102	0.8692
2111	0.8685
2120	0.8675
2129	0.8661
2138	0.8648
2147	0.8634
2156	0.862
2165	0.8605
2174	0.8591
2183	0.8575
2192	0.8564
2201	0.855
2210	0.8535
2219	0.8517
2228	0.8499
2237	0.8474
2246	0.8462
2255	0.8477
2264	0.8495
2273	0.85
2282	0.8501
2291	0.8466
2300	0.8387
2309	0.8384
2318	0.8405
2327	0.8418
2336	0.8427
2345	0.8439
2354	0.8417
2363	0.8425
2372	0.8441
2381	0.8445
2390	0.8454
2399	0.8459
2408	0.8464
2417	0.846
2426	0.8457
2435	0.8453
2444	0.8449
2453	0.8445
2462	0.8438
2471	0.843
2480	0.8425
2489	0.8425
2498	0.8425
2507	0.8424
2516	0.8416
2525	0.8404
2534	0.8391
2543	0.8373
2552	0.8354
2561	0.8336
2570	0.831
2579	0.8232
2588	0.8125
2597	0.8
2606	0.7832
2615	0.7636
2624	0.7569
2633	0.77
2642	0.7865
2651	0.7945
2660	0.796
2669	0.7899
2678	0.7901
2687	0.7889
2696	0.7767
2705	0.7622
2714	0.7574
2723	0.7548
2732	0.753
2741	0.7508
2750	0.7406
2759	0.7195
2768	0.6856
2777	0.6494
2786	0.6185
2795	0.5816
2804	0.5351
2813	0.481
2822	0.4252
2831	0.3839
2840	0.3789
2849	0.4278
2858	0.4795
2867	0.4757
2876	0.3664
2885	0.3199
2894	0.3282
2903	0.3373
2912	0.3449
2921	0.3416
2930	0.3063
2939	0.2369
2948	0.222
2957	0.229
2966	0.0964
2975	0.0312
2984	0.0243
2993	0.2022
3002	0.5675
3011	0.656
3020	0.7031
3029	0.7275
3038	0.7521
3047	0.7654
3056	0.7741
3065	0.781
3074	0.7868
3083	0.7904
3092	0.7928
3101	0.7937
3110	0.7942
3119	0.7944
3128	0.7942
3137	0.793
3146	0.7908
3155	0.7876
3164	0.7846
3173	0.7811
3182	0.7771
3191	0.7765
3200	0.7761
3209	0.7761
3218	0.7768
3227	0.7778
3236	0.7787
3245	0.7789
3254	0.778
3263	0.7742
3272	0.7678
3281	0.7581
3290	0.7469
3299	0.7324
3308	0.7151
3317	0.7041
3326	0.7238
3335	0.7439
3344	0.7619
3353	0.7642
3362	0.7665
3371	0.7684
3380	0.7704
3389	0.7721
3398	0.7739
3407	0.7756
3416	0.7772
3425	0.779
3434	0.7807
3443	0.7821
3452	0.7836
3461	0.785
3470	0.7865
3479	0.7883
3488	0.79
3497	0.7917
3506	0.7934
3515	0.7955
3524	0.7975
3533	0.7996
3542	0.8017
3551	0.8041
3560	0.8065
3569	0.8089
3578	0.8121
3587	0.8167
3596	0.8207
3605	0.8238
3614	0.8254
3623	0.827
3632	0.8304
3641	0.8318
3650	0.8328
3659	0.8333
3668	0.8335
3677	0.8327
3686	0.8306
3695	0.825
3704	0.8305
3713	0.8345
3722	0.8363
3731	0.8371
3740	0.8371
3749	0.8365
3758	0.8361
3767	0.8359
3776	0.8355
3785	0.8346
3794	0.8331
