Infrared Spectrum: 5-NITROSALICYLALDEHYDE
Formula: C7 H5 N O4
CAS: 97-51-8
State: SOLID (MULL)
Melting point: 126-127 C
Class: COBLENTZ
Instrument: Not specified, most likely a prism, grating, or hybrid spectrometer.
Sampling: TRANSMISSION
Resolution: 4
Origin: WYANDOTTE CHEMICALS CORP., WYANDOTTE, MICHIGAN, USA
MICROMETERS	TRANSMITTANCE
2.023	0.292
2.0626	0.297
2.10221	0.295
2.14181	0.29
2.18141	0.289
2.22101	0.289
2.26062	0.289
2.30022	0.294
2.33982	0.294
2.37943	0.3
2.41903	0.295
2.45863	0.297
2.49823	0.303
2.53784	0.308
2.57744	0.31
2.61704	0.315
2.65665	0.315
2.69625	0.313
2.73585	0.325
2.77545	0.325
2.81506	0.323
2.85466	0.317
2.89426	0.315
2.93387	0.317
2.97347	0.308
3.01307	0.29
3.05267	0.297
3.09228	0.299
3.13188	0.282
3.17148	0.269
3.21109	0.219
3.25069	0.184
3.29029	0.181
3.32989	0.054
3.3695	0.036
3.4091	0.039
3.4487	0.046
3.4883	0.061
3.52791	0.232
3.56751	0.279
3.60711	0.299
3.64672	0.299
3.68632	0.305
3.72592	0.315
3.76552	0.322
3.80513	0.337
3.84473	0.34
3.88433	0.347
3.92394	0.353
3.96354	0.372
4.00314	0.38
4.04274	0.395
4.08235	0.405
4.12195	0.395
4.16155	0.397
4.20116	0.413
4.24076	0.415
4.28036	0.42
4.31996	0.425
4.35957	0.45
4.39917	0.456
4.43877	0.446
4.47838	0.456
4.51798	0.475
4.55758	0.48
4.59718	0.491
4.63679	0.5
4.67639	0.516
4.71599	0.524
4.7556	0.529
4.7952	0.538
4.8348	0.554
4.8744	0.558
4.91401	0.576
4.95361	0.583
4.99321	0.591
5.03282	0.598
5.07242	0.569
5.11202	0.619
5.15162	0.641
5.19123	0.647
5.23083	0.657
5.27043	0.689
5.31004	0.717
5.34964	0.724
5.38924	0.715
5.42884	0.737
5.46845	0.769
5.50805	0.765
5.54765	0.828
5.58726	0.877
5.62686	0.883
5.66646	0.95
5.70606	0.97
5.74567	0.895
5.78527	0.913
5.82487	0.704
5.86448	0.705
5.90408	0.456
5.94368	0.149
5.98328	0.091
6.02289	0.215
6.06249	0.244
6.10209	0.179
6.1417	0.279
6.1813	0.35
6.2209	0.229
6.2605	0.151
6.30011	0.299
6.33971	0.327
6.37931	0.378
6.41891	0.357
6.45852	0.363
6.49812	0.398
6.53772	0.287
6.57733	0.232
6.61693	0.284
6.65653	0.23
6.69613	0.126
6.73574	0.071
6.77534	0.064
6.81494	0.104
6.85455	0.156
6.89415	0.252
6.93375	0.435
6.97335	0.579
7.01296	0.674
7.05256	0.686
7.09216	0.671
7.13177	0.617
7.17137	0.468
7.21097	0.192
7.25057	0.144
7.29018	0.174
7.32978	0.254
7.36938	0.069
7.40899	0.046
7.44859	0.066
7.48819	0.088
7.52779	0.094
7.5674	0.132
7.607	0.235
7.6466	0.255
7.68621	0.112
7.72581	0.076
7.76541	0.083
7.80501	0.117
7.84462	0.151
7.88422	0.189
7.92382	0.217
7.96343	0.235
8.00303	0.275
8.04263	0.272
8.08223	0.204
8.12184	0.161
8.16144	0.245
8.20104	0.353
8.24065	0.433
8.28025	0.264
8.31985	0.149
8.35945	0.151
8.39906	0.137
8.43866	0.107
8.47826	0.131
8.51787	0.154
8.55747	0.179
8.59707	0.184
8.63667	0.196
8.67628	0.239
8.71588	0.274
8.75548	0.307
8.79509	0.302
8.83469	0.332
8.87429	0.365
8.91389	0.418
8.9535	0.475
8.9931	0.541
9.0327	0.327
9.0723	0.116
9.11191	0.114
9.15151	0.177
9.19111	0.197
9.23072	0.232
9.27032	0.252
9.30992	0.259
9.34952	0.292
9.38913	0.302
9.42873	0.323
9.46833	0.353
9.50794	0.363
9.54754	0.385
9.58714	0.385
9.62674	0.388
9.66635	0.392
9.70595	0.41
9.74555	0.428
9.78516	0.428
9.82476	0.372
9.86436	0.455
9.90396	0.475
9.94357	0.486
9.98317	0.476
10.0228	0.466
10.0624	0.496
10.102	0.498
10.1416	0.506
10.1812	0.509
10.2208	0.509
10.2604	0.519
10.3	0.528
10.3396	0.536
10.3792	0.546
10.4188	0.559
10.4584	0.568
10.498	0.581
10.5376	0.601
10.5772	0.616
10.6168	0.629
10.6564	0.637
10.696	0.504
10.7356	0.202
10.7752	0.151
10.8148	0.169
10.8544	0.194
10.894	0.169
10.9336	0.192
10.9732	0.406
11.0128	0.506
11.0524	0.539
11.092	0.541
11.1317	0.553
11.1713	0.561
11.2109	0.559
11.2505	0.559
11.2901	0.563
11.3297	0.556
11.3693	0.544
11.4089	0.523
11.4485	0.486
11.4881	0.403
11.5277	0.345
11.5673	0.503
11.6069	0.564
11.6465	0.593
11.6861	0.612
11.7257	0.616
11.7653	0.621
11.8049	0.627
11.8445	0.629
11.8841	0.593
11.9237	0.348
11.9633	0.237
12.0029	0.333
12.0425	0.397
12.0821	0.431
12.1217	0.443
12.1613	0.451
12.2009	0.453
12.2405	0.448
12.2801	0.446
12.3197	0.431
12.3593	0.41
12.3989	0.392
12.4385	0.372
12.4781	0.347
12.5178	0.333
12.5574	0.308
12.597	0.292
12.6366	0.275
12.6762	0.259
12.7158	0.245
12.7554	0.239
12.795	0.237
12.8346	0.214
12.8742	0.189
12.9138	0.152
12.9534	0.189
12.993	0.242
13.0326	0.308
13.0722	0.385
13.1118	0.45
13.1514	0.491
13.191	0.496
13.2306	0.425
13.2702	0.292
13.3098	0.24
13.3494	0.352
13.389	0.491
13.4286	0.598
13.4682	0.666
13.5078	0.696
13.5474	0.722
13.587	0.725
13.6266	0.692
13.6662	0.634
13.7058	0.5
13.7454	0.34
13.785	0.24
13.8246	0.224
13.8642	0.179
13.9039	0.131
13.9435	0.122
13.9831	0.161
14.0227	0.244
14.0623	0.308
14.1019	0.362
14.1415	0.413
14.1811	0.448
14.2207	0.478
14.2603	0.5
14.2999	0.518
14.3395	0.534
14.3791	0.559
14.4187	0.574
14.4583	0.602
14.4979	0.631
14.5375	0.652
14.5771	0.676
14.6167	0.699
14.6563	0.705
14.6959	0.725
14.7355	0.737
14.7751	0.752
14.8147	0.759
14.8543	0.76
14.8939	0.762
14.9335	0.76
14.9731	0.734
15.0127	0.691
15.0523	0.667
15.0919	0.692
15.1315	0.724
15.1711	0.735
15.2107	0.744
15.2503	0.745
15.29	0.744
15.3296	0.74
15.3692	0.73
15.4088	0.724
15.4484	0.717
15.488	0.707
15.5276	0.702
15.5672	0.686
15.6068	0.671
15.6464	0.647
15.686	0.598
15.7256	0.528
15.7652	0.448
15.8048	0.401
15.8444	0.387
15.884	0.398
15.9236	0.42
15.9632	0.448
