Infrared Spectrum: PHENOL, 4-ALLYL-2-METHOXY-
Formula: C10 H12 O2
CAS: 97-53-0
State: LIQUID (NEAT)
Boiling point: 254 C
Class: COBLENTZ III
Instrument: PERKIN-ELMER 21 (GRATING)
Instrument parameters: FILTER AT ABOUT 10 MICRONS
Sampling: TRANSMISSION
Path length: CAPILLARY
Resolution: 2
1/CM	TRANSMITTANCE
4000	0.9032
3991	0.9033
3982	0.9034
3973	0.9035
3964	0.9038
3955	0.9042
3946	0.9047
3937	0.9052
3928	0.9056
3919	0.9061
3910	0.9066
3901	0.907
3892	0.9075
3883	0.9078
3874	0.9082
3865	0.9086
3856	0.9089
3847	0.9092
3838	0.9096
3829	0.9099
3820	0.9102
3811	0.9103
3802	0.9103
3793	0.9103
3784	0.9103
3775	0.9103
3766	0.9103
3757	0.9103
3748	0.9101
3739	0.91
3730	0.9098
3721	0.9097
3712	0.9096
3703	0.9093
3694	0.909
3685	0.9087
3676	0.9083
3667	0.908
3658	0.9075
3649	0.907
3640	0.906
3631	0.9034
3622	0.8982
3613	0.8934
3604	0.8864
3595	0.8636
3586	0.8094
3577	0.7619
3568	0.7143
3559	0.6662
3550	0.6182
3541	0.5697
3532	0.521
3523	0.4967
3514	0.4932
3505	0.4925
3496	0.4928
3487	0.4954
3478	0.5119
3469	0.5206
3460	0.5238
3451	0.5282
3442	0.5386
3433	0.555
3424	0.5786
3415	0.5969
3406	0.6297
3397	0.6687
3388	0.6971
3379	0.7191
3370	0.7401
3361	0.7619
3352	0.7781
3343	0.7915
3334	0.8055
3325	0.8196
3316	0.8295
3307	0.8384
3298	0.8454
3289	0.8523
3280	0.8583
3271	0.864
3262	0.8692
3253	0.8718
3244	0.8736
3235	0.8744
3226	0.8741
3217	0.8737
3208	0.8735
3199	0.8743
3190	0.8773
3181	0.8802
3172	0.8807
3163	0.8808
3154	0.8804
3145	0.8792
3136	0.8764
3127	0.8707
3118	0.8425
3109	0.8071
3100	0.7748
3091	0.7693
3082	0.7704
3073	0.7751
3064	0.778
3055	0.7771
3046	0.7715
3037	0.7606
3028	0.7357
3019	0.7268
3010	0.724
3001	0.7114
2992	0.6968
2983	0.6878
2974	0.6845
2965	0.6833
2956	0.6831
2947	0.6835
2938	0.6846
2929	0.6861
2920	0.6901
2911	0.7085
2902	0.7361
2893	0.7644
2884	0.7837
2875	0.7801
2866	0.7561
2857	0.7421
2848	0.7518
2839	0.7769
2830	0.8021
2821	0.8275
2812	0.8532
2803	0.8778
2794	0.8875
2785	0.8914
2776	0.8912
2767	0.8904
2758	0.8893
2749	0.8917
2740	0.8956
2731	0.8994
2722	0.9027
2713	0.9056
2704	0.9068
2695	0.9075
2686	0.9078
2677	0.9078
2668	0.9075
2659	0.9036
2650	0.8996
2641	0.8998
2632	0.9018
2623	0.904
2614	0.9057
2605	0.907
2596	0.9078
2587	0.9075
2578	0.9048
2569	0.8999
2560	0.8944
2551	0.8915
2542	0.891
2533	0.8909
2524	0.8916
2515	0.8927
2506	0.8946
2497	0.8964
2488	0.8986
2479	0.9015
2470	0.9042
2461	0.9066
2452	0.9087
2443	0.9086
2434	0.9068
2425	0.9045
2416	0.9032
2407	0.9028
2398	0.9028
2389	0.9028
2380	0.9051
2371	0.9077
2362	0.909
2353	0.9096
2344	0.9094
2335	0.9065
2326	0.9025
2317	0.903
2308	0.9083
2299	0.9128
2290	0.9149
2281	0.9151
2272	0.9147
2263	0.9138
2254	0.9146
2245	0.914
2236	0.9128
2227	0.9118
2218	0.9118
2209	0.9117
2200	0.9116
2191	0.9116
2182	0.9116
2173	0.9116
2164	0.9131
2155	0.9143
2146	0.9139
2137	0.9137
2128	0.9137
2119	0.9137
2110	0.9135
2101	0.9125
2092	0.9108
2083	0.904
2074	0.8953
2065	0.8933
2056	0.8987
2047	0.903
2038	0.9057
2029	0.9078
2020	0.9077
2011	0.9064
2002	0.9053
1993	0.9048
1984	0.9044
1975	0.907
1966	0.9107
1957	0.9118
1948	0.9112
1939	0.9102
1930	0.9095
1921	0.9087
1912	0.9073
1903	0.9058
1894	0.9056
1885	0.8985
1876	0.8921
1867	0.8871
1858	0.8828
1849	0.8796
1840	0.8804
1831	0.8851
1822	0.89
1813	0.8953
1804	0.9005
1795	0.9023
1786	0.9033
1777	0.9035
1768	0.9037
1759	0.9009
1750	0.8948
1741	0.8916
1732	0.8911
1723	0.8893
1714	0.8867
1705	0.8871
1696	0.8859
1687	0.8863
1678	0.888
1669	0.8773
1660	0.8616
1651	0.7586
1642	0.6654
1633	0.8014
1624	0.612
1615	0.5236
1606	0.6244
1597	0.7845
1588	0.8284
1579	0.8475
1570	0.8503
1561	0.8434
1552	0.811
1543	0.7282
1534	0.5475
1525	0.2412
1516	0.0851
1507	0.3192
1498	0.6815
1489	0.7438
1480	0.6915
1471	0.4367
1462	0.4593
1453	0.4625
1444	0.4779
1435	0.3125
1426	0.5988
1417	0.7141
1408	0.7851
1399	0.7967
1390	0.7708
1381	0.6384
1372	0.5254
1363	0.5836
1354	0.6892
1345	0.7805
1336	0.7855
1327	0.7758
1318	0.7421
1309	0.6985
1300	0.6302
1291	0.4848
1282	0.3409
1273	0.1804
1264	0.1338
1255	0.338
1246	0.3702
1237	0.1984
1228	0.2328
1219	0.3716
1210	0.3202
1201	0.3288
1192	0.477
1183	0.5053
1174	0.5397
1165	0.6079
1156	0.4731
1147	0.3216
1138	0.658
1129	0.5777
1120	0.408
1111	0.7155
1102	0.7745
1093	0.8008
1084	0.8333
1075	0.8436
1066	0.8457
1057	0.8204
1048	0.7448
1039	0.4172
1030	0.3971
1021	0.6464
1012	0.7384
1003	0.6725
994	0.574
985	0.7725
976	0.8396
967	0.8321
958	0.7776
949	0.7375
940	0.7401
931	0.6939
922	0.5479
913	0.4605
904	0.5523
895	0.6796
886	0.7983
877	0.8382
868	0.8247
859	0.729
850	0.6434
841	0.7597
832	0.7735
823	0.5698
814	0.5225
805	0.6853
796	0.4809
787	0.6642
778	0.8143
769	0.8317
760	0.8047
751	0.6337
742	0.6242
733	0.7771
724	0.7811
715	0.7786
706	0.7958
697	0.7821
688	0.7614
679	0.7401
670	0.7075
