Infrared Spectrum: 2-PROPENOIC ACID, 2-METHYL-, ETHYL ESTER
Formula: C6 H10 O2
CAS: 97-63-2
State: SOLUTION (5% IN CCl4 FOR 3800-1300, 5% IN CS2 FOR 1300-625, AND 5% IN CCl4 FOR 625-240 CM^-^1) VERSUS SOLVENT
Class: COBLENTZ III
Instrument: PERKIN-ELMER 521 (GRATING)
Instrument parameters: FILTERS AT 3150, 2500, 2000, 1150, 700, 410; GRATING CHANGES AT 2000, 630 CM^-^1
Sampling: TRANSMISSION
Path length: 0.010, 0.010, AND 0.020 CM (CsBr CELL)
Resolution: 4
Origin: DOW CORNING CORP.
1/CM	TRANSMITTANCE
236.16	0.827
245.12	0.825
254.08	0.821
263.04	0.813
272	0.792
280.96	0.785
289.92	0.781
298.88	0.762
307.84	0.753
316.8	0.753
325.76	0.75
334.72	0.743
343.68	0.698
352.64	0.68
361.6	0.729
370.56	0.745
379.52	0.739
388.48	0.727
397.44	0.7289
406.4	0.797
415.361	0.813
424.321	0.808
433.281	0.787
442.241	0.79
451.201	0.804
460.161	0.811
469.121	0.821
478.081	0.825
487.041	0.825
496.001	0.821
504.961	0.78
513.921	0.734
522.881	0.816
531.841	0.825
540.801	0.828
549.761	0.83
558.721	0.828
567.681	0.828
576.641	0.818
585.601	0.778
594.561	0.736
603.521	0.8109
612.481	0.83
621.441	0.828
630.401	0.815
639.361	0.7551
648.321	0.671
657.281	0.692
666.241	0.788
675.201	0.816
684.161	0.855
693.121	0.855
702.081	0.862
711.041	0.863
720.001	0.863
728.961	0.863
737.921	0.865
746.881	0.865
755.841	0.858
764.801	0.853
773.762	0.816
782.722	0.787
791.682	0.797
800.642	0.729
809.602	0.5632
818.562	0.6159
827.522	0.816
836.482	0.821
845.442	0.783
854.402	0.759
863.362	0.776
872.322	0.766
881.282	0.816
890.242	0.848
899.202	0.848
908.162	0.837
917.122	0.811
926.082	0.7151
935.042	0.3401
944.002	0.335
952.962	0.7121
961.922	0.825
970.882	0.832
979.842	0.828
988.802	0.815
997.762	0.722
1006.72	0.68
1015.68	0.6661
1024.64	0.499
1033.6	0.31
1042.56	0.593
1051.52	0.748
1060.48	0.802
1069.44	0.816
1078.4	0.787
1087.36	0.729
1096.32	0.654
1105.28	0.703
1114.24	0.685
1123.2	0.699
1132.16	0.61
1141.12	0.4481
1150.08	0.085
1159.04	0.02
1168	0.027
1176.96	0.033
1185.92	0.108
1194.88	0.3379
1203.84	0.539
1212.8	0.664
1221.76	0.736
1230.72	0.767
1239.68	0.773
1248.64	0.773
1257.6	0.769
1266.56	0.75
1275.52	0.684
1284.48	0.5811
1293.44	0.256
1302.4	0.2911
1311.36	0.4379
1320.32	0.0992
1329.28	0.4571
1338.24	0.743
1347.2	0.78
1356.16	0.75
1365.12	0.5369
1374.08	0.593
1383.04	0.636
1392	0.63
1400.96	0.561
1409.92	0.596
1418.88	0.708
1427.84	0.666
1436.8	0.565
1445.76	0.45
1454.72	0.3991
1463.68	0.537
1472.64	0.596
1481.6	0.6031
1490.56	0.795
1499.52	0.827
1508.48	0.841
1517.44	0.848
1526.4	0.855
1535.36	0.855
1544.32	0.86
1553.28	0.858
1562.24	0.855
1571.2	0.846
1580.16	0.837
1589.12	0.835
1598.08	0.82
1607.04	0.795
1616	0.752
1624.96	0.649
1633.92	0.5089
1642.88	0.4688
1651.84	0.764
1660.8	0.783
1669.76	0.762
1678.72	0.708
1687.68	0.67
1696.64	0.605
1705.6	0.438
1714.56	0.031
1723.52	0.001
1732.48	0.076
1741.44	0.46
1750.4	0.6661
1759.36	0.745
1768.32	0.78
1777.28	0.809
1786.24	0.821
1795.2	0.828
1804.16	0.834
1813.12	0.839
1822.08	0.855
1831.04	0.856
1840	0.856
1848.96	0.856
1857.92	0.853
1866.88	0.844
1875.84	0.813
1884.8	0.813
1893.76	0.825
1902.72	0.835
1911.68	0.848
1920.64	0.851
1929.6	0.856
1938.56	0.858
1947.52	0.858
1956.48	0.856
1965.44	0.858
1974.4	0.86
1983.36	0.858
1992.32	0.862
2001.28	0.8625
2010.24	0.855
2019.21	0.855
2028.17	0.853
2037.13	0.8555
2046.09	0.86
2055.05	0.8661
2064.01	0.863
2072.97	0.863
2081.93	0.862
2090.89	0.863
2099.85	0.862
2108.81	0.8626
2117.77	0.863
2126.73	0.86
2135.69	0.856
2144.65	0.856
2153.61	0.856
2162.57	0.858
2171.53	0.856
2180.49	0.8568
2189.45	0.86
2198.41	0.862
2207.37	0.86
2216.33	0.8567
2225.29	0.855
2234.25	0.855
2243.21	0.858
2252.17	0.856
2261.13	0.8552
2270.09	0.855
2279.05	0.856
2288.01	0.856
2296.97	0.855
2305.93	0.855
2314.89	0.853
2323.85	0.851
2332.81	0.8534
2341.77	0.855
2350.73	0.855
2359.69	0.8557
2368.65	0.855
2377.61	0.855
2386.57	0.855
2395.53	0.855
2404.49	0.855
2413.45	0.8545
2422.41	0.856
2431.37	0.8552
2440.33	0.855
2449.29	0.855
2458.25	0.8544
2467.21	0.853
2476.17	0.855
2485.13	0.855
2494.09	0.855
2503.05	0.855
2512.01	0.855
2520.97	0.8534
2529.93	0.8544
2538.89	0.853
2547.85	0.853
2556.81	0.851
2565.77	0.851
2574.73	0.851
2583.69	0.8517
2592.65	0.853
2601.61	0.8543
2610.57	0.8533
2619.53	0.853
2628.49	0.853
2637.45	0.853
2646.41	0.855
2655.37	0.853
2664.33	0.853
2673.29	0.853
2682.25	0.8528
2691.21	0.853
2700.17	0.853
2709.13	0.8521
2718.09	0.8461
2727.05	0.844
2736.01	0.8459
2744.97	0.846
2753.93	0.846
2762.89	0.844
2771.85	0.844
2780.81	0.844
2789.77	0.841
2798.73	0.837
2807.69	0.83
2816.65	0.826
2825.61	0.821
2834.57	0.815
2843.53	0.795
2852.49	0.7829
2861.45	0.7729
2870.41	0.7417
2879.37	0.7498
2888.33	0.7211
2897.29	0.6842
2906.25	0.642
2915.21	0.6747
2924.17	0.5993
2933.13	0.5264
2942.09	0.6311
2951.05	0.5933
2960.01	0.4891
2968.97	0.493
2977.93	0.4099
2986.89	0.3033
2995.85	0.4144
3004.81	0.5968
3013.77	0.7168
3022.73	0.764
3031.69	0.7983
3040.65	0.8014
3049.61	0.811
3058.57	0.8286
3067.53	0.839
3076.49	0.8383
3085.45	0.8326
3094.41	0.8275
3103.37	0.8122
3112.33	0.8267
3121.29	0.8425
3130.25	0.851
3139.21	0.8483
3148.17	0.851
3157.13	0.853
3166.09	0.853
3175.05	0.8525
3184.01	0.8535
3192.97	0.855
3201.93	0.8565
3210.89	0.858
3219.85	0.858
3228.81	0.858
3237.77	0.858
3246.73	0.86
3255.69	0.8606
3264.65	0.8628
3273.61	0.865
3282.57	0.865
3291.53	0.865
3300.49	0.865
3309.45	0.862
3318.41	0.8622
3327.37	0.8627
3336.33	0.8583
3345.29	0.858
3354.25	0.86
3363.21	0.863
3372.17	0.863
3381.13	0.862
3390.09	0.862
3399.05	0.8573
3408.01	0.8512
3416.97	0.8432
3425.93	0.8438
3434.89	0.8518
3443.85	0.8616
3452.81	0.869
3461.77	0.869
3470.73	0.872
3479.69	0.872
3488.65	0.872
3497.61	0.872
3506.57	0.872
3515.53	0.872
3524.49	0.8729
3533.45	0.8739
3542.41	0.872
3551.37	0.872
3560.33	0.875
3569.29	0.876
3578.25	0.8824
3587.21	0.877
3596.17	0.877
3605.13	0.879
3614.09	0.88
3623.05	0.8811
3632.01	0.877
3640.97	0.8791
3649.93	0.884
3658.89	0.8761
3667.85	0.8921
3676.81	0.8769
3685.77	0.8812
3694.73	0.89
3703.69	0.8904
3712.65	0.883
3721.61	0.884
3730.57	0.8928
3739.53	0.898
3748.49	0.8964
3757.45	0.8834
3766.41	0.881
3775.37	0.881
3784.33	0.8831
