Infrared Spectrum: 2-PROPENOIC ACID, 2-METHYL-, 2-METHYLPROPYL ESTER
Formula: C8 H14 O2
CAS: 97-86-9
State: SOLUTION (5% IN CCl4 FOR 3800-1300, 5% IN CS2 FOR 1300-600, AND 5% IN CCl4 FOR 600-240 CM^-^1) VERSUS SOLVENT
Class: COBLENTZ III
Instrument: PERKIN-ELMER 521 (GRATING)
Instrument parameters: FILTERS AT 3150, 2500, 2000, 1150, 700, 410; GRATING CHANGES AT 2000, 630 CM^-^1
Sampling: TRANSMISSION
Path length: 0.010, 0.010, AND 0.020 CM (CsBr CELL)
Resolution: 4
Origin: DOW CORNING CORP.
1/CM	TRANSMITTANCE
231.175	0.809
240.128	0.807
249.081	0.805
258.034	0.811
266.986	0.807
275.939	0.807
284.892	0.807
293.845	0.809
302.798	0.809
311.751	0.809
320.704	0.814
329.656	0.7841
338.609	0.756
347.562	0.763
356.515	0.772
365.468	0.776
374.421	0.784
383.374	0.763
392.327	0.8
401.279	0.819
410.232	0.819
419.185	0.798
428.138	0.756
437.091	0.765
446.044	0.8
454.997	0.809
463.949	0.819
472.902	0.83
481.855	0.83
490.808	0.837
499.761	0.844
508.714	0.842
517.667	0.842
526.619	0.835
535.572	0.825
544.525	0.79
553.478	0.805
562.431	0.825
571.384	0.821
580.337	0.804
589.289	0.786
598.242	0.788
607.195	0.819
616.148	0.844
625.101	0.823
634.054	0.809
643.007	0.753
651.96	0.73
660.912	0.772
669.865	0.837
678.818	0.858
687.771	0.867
696.724	0.868
705.677	0.877
714.63	0.875
723.582	0.877
732.535	0.877
741.488	0.877
750.441	0.877
759.394	0.877
768.347	0.874
777.3	0.87
786.252	0.863
795.205	0.826
804.158	0.7501
813.111	0.4909
822.064	0.769
831.017	0.8369
839.97	0.853
848.922	0.853
857.875	0.846
866.828	0.839
875.781	0.842
884.734	0.853
893.687	0.844
902.64	0.8
911.593	0.769
920.545	0.7271
929.498	0.5522
938.451	0.253
947.404	0.627
956.357	0.781
965.31	0.767
974.263	0.793
983.215	0.7041
992.168	0.61
1001.12	0.575
1010.07	0.4242
1019.03	0.382
1027.98	0.783
1036.93	0.837
1045.89	0.849
1054.84	0.853
1063.79	0.851
1072.74	0.849
1081.7	0.84
1090.65	0.835
1099.6	0.812
1108.56	0.79
1117.51	0.756
1126.46	0.704
1135.41	0.5311
1144.37	0.2411
1153.32	0.04
1162.27	0.034
1171.23	0.062
1180.18	0.159
1189.13	0.2828
1198.08	0.4799
1207.04	0.648
1215.99	0.734
1224.94	0.769
1233.9	0.784
1242.85	0.783
1251.8	0.769
1260.75	0.758
1269.71	0.716
1278.66	0.6531
1287.61	0.3161
1296.57	0.248
1305.52	0.368
1314.47	0.4171
1323.42	0.143
1332.38	0.671
1341.33	0.6341
1350.28	0.7759
1359.24	0.769
1368.19	0.522
1377.14	0.5269
1386.09	0.7149
1395.05	0.631
1404	0.557
1412.95	0.699
1421.91	0.711
1430.86	0.6781
1439.81	0.636
1448.76	0.538
1457.72	0.4839
1466.67	0.4191
1475.62	0.5939
1484.58	0.781
1493.53	0.825
1502.48	0.844
1511.43	0.854
1520.39	0.86
1529.34	0.865
1538.29	0.87
1547.25	0.87
1556.2	0.867
1565.15	0.858
1574.1	0.854
1583.06	0.849
1592.01	0.837
1600.96	0.826
1609.92	0.802
1618.87	0.762
1627.82	0.664
1636.77	0.5401
1645.73	0.6968
1654.68	0.809
1663.63	0.807
1672.59	0.781
1681.54	0.736
1690.49	0.722
1699.44	0.6521
1708.4	0.3961
1717.35	0.022
1726.3	0.034
1735.26	0.4029
1744.21	0.697
1753.16	0.762
1762.11	0.797
1771.07	0.814
1780.02	0.826
1788.97	0.837
1797.93	0.842
1806.88	0.851
1815.83	0.856
1824.78	0.861
1833.74	0.863
1842.69	0.86
1851.64	0.86
1860.6	0.856
1869.55	0.846
1878.5	0.832
1887.45	0.842
1896.41	0.849
1905.36	0.858
1914.31	0.86
1923.27	0.86
1932.22	0.86
1941.17	0.858
1950.12	0.858
1959.08	0.858
1968.03	0.858
1976.98	0.858
1985.94	0.858
1994.89	0.865
2003.84	0.872
2012.79	0.872
2021.75	0.872
2030.7	0.872
2039.65	0.872
2048.61	0.872
2057.56	0.872
2066.51	0.872
2075.46	0.868
2084.42	0.8631
2093.37	0.863
2102.32	0.861
2111.28	0.863
2120.23	0.865
2129.18	0.863
2138.13	0.863
2147.09	0.8661
2156.04	0.865
2164.99	0.867
2173.95	0.863
2182.9	0.865
2191.85	0.8669
2200.8	0.87
2209.76	0.868
2218.71	0.8667
2227.66	0.8632
2236.62	0.8606
2245.57	0.86
2254.52	0.8592
2263.47	0.858
2272.43	0.858
2281.38	0.858
2290.33	0.858
2299.29	0.858
2308.24	0.856
2317.19	0.856
2326.14	0.856
2335.1	0.856
2344.05	0.856
2353	0.856
2361.96	0.8588
2370.91	0.86
2379.86	0.86
2388.81	0.8582
2397.77	0.856
2406.72	0.856
2415.67	0.856
2424.63	0.858
2433.58	0.858
2442.53	0.858
2451.48	0.858
2460.44	0.858
2469.39	0.858
2478.34	0.858
2487.3	0.856
2496.25	0.856
2505.2	0.856
2514.15	0.856
2523.11	0.856
2532.06	0.854
2541.01	0.854
2549.97	0.8556
2558.92	0.854
2567.87	0.854
2576.82	0.853
2585.78	0.8538
2594.73	0.854
2603.68	0.854
2612.64	0.8554
2621.59	0.854
2630.54	0.854
2639.49	0.854
2648.45	0.854
2657.4	0.853
2666.35	0.851
2675.31	0.853
2684.26	0.8533
2693.21	0.853
2702.16	0.851
2711.12	0.851
2720.07	0.8455
2729.02	0.8392
2737.98	0.8393
2746.93	0.842
2755.88	0.844
2764.83	0.847
2773.79	0.842
2782.74	0.8393
2791.69	0.8385
2800.65	0.8285
2809.6	0.8245
2818.55	0.8195
2827.5	0.8135
2836.46	0.7999
2845.41	0.7768
2854.36	0.7544
2863.32	0.7134
2872.27	0.4874
2881.22	0.5699
2890.18	0.5624
2899.13	0.5581
2908.08	0.5671
2917.03	0.5548
2925.99	0.453
2934.94	0.4034
2943.89	0.4036
2952.85	0.3328
2961.8	0.2097
2970.75	0.1754
2979.7	0.3633
2988.66	0.6011
2997.61	0.6862
3006.56	0.7724
3015.52	0.7753
3024.47	0.807
3033.42	0.8173
3042.37	0.8193
3051.33	0.8287
3060.28	0.8358
3069.23	0.8453
3078.19	0.846
3087.14	0.8427
3096.09	0.8347
3105.04	0.8178
3114	0.8447
3122.95	0.8523
3131.9	0.854
3140.86	0.853
3149.81	0.853
3158.76	0.853
3167.71	0.853
3176.67	0.853
3185.62	0.854
3194.57	0.854
3203.53	0.856
3212.48	0.856
3221.43	0.8582
3230.38	0.86
3239.34	0.8612
3248.29	0.863
3257.24	0.863
3266.2	0.865
3275.15	0.867
3284.1	0.8676
3293.05	0.868
3302.01	0.8688
3310.96	0.868
3319.91	0.8688
3328.87	0.8667
3337.82	0.8618
3346.77	0.861
3355.72	0.86
3364.68	0.865
3373.63	0.8676
3382.58	0.868
3391.54	0.8663
3400.49	0.856
3409.44	0.8534
3418.39	0.8529
3427.35	0.8521
3436.3	0.8531
3445.25	0.867
3454.21	0.8701
3463.16	0.872
3472.11	0.8701
3481.06	0.872
3490.02	0.872
3498.97	0.875
3507.92	0.874
3516.88	0.874
3525.83	0.874
3534.78	0.874
3543.73	0.874
3552.69	0.874
3561.64	0.875
3570.59	0.876
3579.55	0.881
3588.5	0.879
3597.45	0.874
3606.4	0.877
3615.36	0.881
3624.31	0.882
3633.26	0.879
3642.22	0.8815
3651.17	0.881
3660.12	0.877
3669.07	0.875
3678.03	0.877
3686.98	0.879
3695.93	0.8815
3704.89	0.884
3713.84	0.8815
3722.79	0.882
3731.74	0.884
3740.7	0.886
3749.65	0.886
3758.6	0.8811
3767.56	0.879
3776.51	0.879
3785.46	0.8799
3794.41	0.882
