Infrared Spectrum: 2-PROPENOIC ACID, 2-METHYL-, BUTYL ESTER
Formula: C8 H14 O2
CAS: 97-88-1
State: SOLUTION (5% IN CCl4 FOR 3800-1300, 5% IN CS2 FOR 1300-600, AND 5% IN CCl4 FOR 600-240 CM^-^1) VERSUS SOLVENT
Class: COBLENTZ III
Instrument: PERKIN-ELMER 521 (GRATING)
Instrument parameters: FILTERS AT 3150, 2500, 2000, 1150, 700, 410; GRATING CHANGES AT 2000, 630 CM^-^1
Sampling: TRANSMISSION
Path length: 0.010, 0.010, AND 0.020 CM (CsBr CELL)
Resolution: 4
Origin: DOW CORNING CORP.
1/CM	TRANSMITTANCE
236.16	0.821
245.12	0.823
254.08	0.816
263.04	0.809
272	0.799
280.96	0.787
289.92	0.785
298.88	0.79
307.84	0.781
316.8	0.776
325.761	0.794
334.721	0.787
343.681	0.757
352.641	0.741
361.601	0.759
370.561	0.762
379.521	0.752
388.481	0.787
397.441	0.809
406.401	0.816
415.361	0.821
424.321	0.82
433.281	0.802
442.241	0.787
451.201	0.806
460.161	0.809
469.121	0.816
478.081	0.816
487.041	0.806
496.001	0.815
504.962	0.825
513.922	0.815
522.882	0.769
531.842	0.788
540.802	0.806
549.762	0.818
558.722	0.827
567.682	0.828
576.642	0.825
585.602	0.804
594.562	0.776
603.522	0.794
612.482	0.827
621.442	0.842
630.402	0.816
639.362	0.788
648.322	0.703
657.282	0.724
666.242	0.797
675.202	0.842
684.163	0.856
693.123	0.86
702.083	0.863
711.043	0.867
720.003	0.858
728.963	0.842
737.923	0.802
746.883	0.837
755.843	0.855
764.803	0.856
773.763	0.856
782.723	0.848
791.683	0.825
800.643	0.795
809.603	0.5893
818.563	0.6799
827.523	0.794
836.483	0.774
845.443	0.788
854.403	0.827
863.364	0.835
872.324	0.837
881.284	0.851
890.244	0.851
899.204	0.835
908.164	0.823
917.124	0.787
926.084	0.6682
935.044	0.3011
944.004	0.418
952.964	0.696
961.924	0.739
970.884	0.734
979.844	0.767
988.804	0.785
997.764	0.745
1006.72	0.623
1015.68	0.636
1024.64	0.666
1033.6	0.745
1042.56	0.815
1051.52	0.773
1060.48	0.645
1069.44	0.715
1078.4	0.808
1087.36	0.809
1096.32	0.811
1105.28	0.781
1114.24	0.699
1123.2	0.671
1132.17	0.6169
1141.13	0.4271
1150.09	0.174
1159.05	0.036
1168.01	0.033
1176.97	0.102
1185.93	0.2871
1194.89	0.4359
1203.85	0.616
1212.81	0.719
1221.77	0.734
1230.73	0.701
1239.69	0.726
1248.65	0.741
1257.61	0.734
1266.57	0.727
1275.53	0.71
1284.49	0.6031
1293.45	0.204
1302.41	0.383
1311.37	0.4059
1320.33	0.198
1329.29	0.413
1338.25	0.663
1347.21	0.748
1356.17	0.741
1365.13	0.769
1374.09	0.6941
1383.05	0.664
1392.01	0.685
1400.97	0.5959
1409.93	0.68
1418.89	0.739
1427.85	0.708
1436.81	0.616
1445.77	0.575
1454.73	0.424
1463.69	0.493
1472.65	0.588
1481.61	0.7311
1490.57	0.813
1499.53	0.835
1508.49	0.848
1517.45	0.856
1526.41	0.865
1535.37	0.869
1544.33	0.874
1553.29	0.869
1562.25	0.863
1571.21	0.853
1580.17	0.849
1589.13	0.842
1598.09	0.839
1607.05	0.816
1616.01	0.776
1624.97	0.694
1633.93	0.5629
1642.89	0.4989
1651.85	0.795
1660.81	0.808
1669.77	0.788
1678.73	0.745
1687.69	0.717
1696.65	0.647
1705.61	0.469
1714.57	0.104
1723.53	0.006
1732.49	0.2609
1741.45	0.617
1750.41	0.736
1759.37	0.776
1768.33	0.804
1777.29	0.816
1786.25	0.83
1795.21	0.837
1804.17	0.841
1813.13	0.853
1822.09	0.855
1831.05	0.858
1840.01	0.862
1848.97	0.86
1857.93	0.86
1866.89	0.849
1875.85	0.832
1884.81	0.827
1893.77	0.844
1902.73	0.855
1911.69	0.86
1920.65	0.86
1929.61	0.86
1938.57	0.863
1947.53	0.862
1956.49	0.862
1965.45	0.862
1974.41	0.862
1983.37	0.863
1992.33	0.86
2001.29	0.8625
2010.25	0.867
2019.21	0.867
2028.17	0.869
2037.13	0.869
2046.09	0.87
2055.05	0.87
2064.01	0.869
2072.97	0.869
2081.93	0.8669
2090.89	0.865
2099.85	0.867
2108.81	0.865
2117.77	0.865
2126.73	0.8662
2135.69	0.867
2144.65	0.8678
2153.61	0.865
2162.57	0.865
2171.53	0.867
2180.49	0.867
2189.45	0.867
2198.41	0.867
2207.37	0.867
2216.33	0.867
2225.29	0.8653
2234.25	0.8657
2243.21	0.863
2252.17	0.867
2261.13	0.8653
2270.09	0.867
2279.05	0.8647
2288.01	0.862
2296.97	0.862
2305.93	0.86
2314.89	0.862
2323.85	0.862
2332.81	0.8634
2341.77	0.867
2350.73	0.8674
2359.69	0.869
2368.65	0.867
2377.61	0.8655
2386.57	0.8575
2395.53	0.856
2404.49	0.86
2413.45	0.863
2422.41	0.8635
2431.37	0.8635
2440.33	0.863
2449.29	0.8622
2458.25	0.862
2467.21	0.8588
2476.17	0.858
2485.13	0.86
2494.09	0.858
2503.05	0.8596
2512.01	0.8594
2520.97	0.858
2529.93	0.858
2538.89	0.858
2547.85	0.855
2556.81	0.855
2565.77	0.855
2574.73	0.855
2583.69	0.855
2592.65	0.855
2601.61	0.855
2610.57	0.856
2619.53	0.855
2628.49	0.855
2637.45	0.855
2646.41	0.8548
2655.37	0.855
2664.33	0.8532
2673.29	0.851
2682.25	0.853
2691.21	0.851
2700.17	0.851
2709.13	0.849
2718.09	0.848
2727.05	0.8415
2736.01	0.839
2744.97	0.8415
2753.93	0.841
2762.89	0.844
2771.85	0.844
2780.81	0.843
2789.77	0.839
2798.73	0.832
2807.69	0.828
2816.65	0.8215
2825.61	0.8149
2834.57	0.7883
2843.53	0.7492
2852.49	0.6949
2861.45	0.641
2870.41	0.5158
2879.37	0.4535
2888.33	0.616
2897.29	0.5761
2906.25	0.5499
2915.22	0.5056
2924.18	0.4018
2933.14	0.31
2942.1	0.3642
2951.06	0.3243
2960.02	0.1644
2968.98	0.2059
2977.94	0.3886
2986.9	0.5106
2995.86	0.6272
3004.82	0.7468
3013.78	0.7666
3022.74	0.7773
3031.7	0.8079
3040.66	0.815
3049.62	0.817
3058.58	0.8278
3067.54	0.841
3076.5	0.848
3085.46	0.844
3094.42	0.8406
3103.38	0.8222
3112.34	0.8263
3121.3	0.849
3130.26	0.8534
3139.22	0.853
3148.18	0.853
3157.14	0.853
3166.1	0.853
3175.06	0.8545
3184.02	0.8558
3192.98	0.856
3201.94	0.8585
3210.9	0.862
3219.86	0.862
3228.82	0.8628
3237.78	0.865
3246.74	0.865
3255.7	0.8656
3264.66	0.865
3273.62	0.8676
3282.58	0.869
3291.54	0.869
3300.5	0.8698
3309.46	0.8684
3318.42	0.8686
3327.38	0.867
3336.34	0.865
3345.3	0.863
3354.26	0.8621
3363.22	0.8644
3372.18	0.8673
3381.14	0.867
3390.1	0.867
3399.06	0.8613
3408.02	0.8551
3416.98	0.8522
3425.94	0.849
3434.9	0.8542
3443.86	0.8645
3452.82	0.8694
3461.78	0.872
3470.74	0.872
3479.7	0.872
3488.66	0.872
3497.62	0.872
3506.58	0.872
3515.54	0.872
3524.5	0.872
3533.46	0.872
3542.42	0.8709
3551.38	0.872
3560.34	0.872
3569.3	0.876
3578.26	0.8774
3587.22	0.888
3596.18	0.878
3605.14	0.879
3614.1	0.882
3623.06	0.884
3632.02	0.881
3640.98	0.8811
3649.94	0.8852
3658.9	0.876
3667.86	0.8859
3676.82	0.891
3685.78	0.8849
3694.74	0.877
3703.7	0.8862
3712.66	0.8878
3721.62	0.8872
3730.58	0.893
3739.54	0.897
3748.5	0.9012
3757.46	0.8868
3766.42	0.881
3775.38	0.879
3784.34	0.8831
3793.3	0.8872
