Infrared Spectrum: TERT-BUTYL BENZENE
Formula: C10 H14
CAS: 98-06-6
State: LIQUID
Class: COBLENTZ
Instrument: PERKIN-ELMER
Sampling: TRANSMISSION
Path length: 0.0025 CM
Resolution: 4
Origin: STANDARD OIL OF OHIO
1/CM	TRANSMITTANCE
596.284	0.621
604.716	0.626
613.147	0.631
621.579	0.6449
630.011	0.6568
638.443	0.6789
646.874	0.684
655.306	0.6723
663.738	0.6102
672.169	0.5212
680.601	0.3732
689.033	0.0454
697.464	0.0946
705.896	0.6044
714.328	0.716
722.76	0.7602
731.191	0.768
739.623	0.7293
748.055	0.4864
756.486	0.0548
764.918	0.4234
773.35	0.7631
781.781	0.8181
790.213	0.8384
798.645	0.8546
807.077	0.859
815.508	0.8544
823.94	0.8293
832.372	0.6142
840.803	0.8418
849.235	0.8675
857.667	0.8695
866.098	0.8645
874.53	0.8546
882.962	0.8449
891.394	0.8028
899.825	0.6878
908.257	0.8113
916.689	0.761
925.12	0.7947
933.552	0.8483
941.984	0.8516
950.415	0.8534
958.847	0.854
967.279	0.8521
975.711	0.8565
984.142	0.8542
992.574	0.8364
1001.01	0.834
1009.44	0.7713
1017.87	0.6495
1026.3	0.3232
1034.73	0.7909
1043.16	0.8481
1051.6	0.8429
1060.03	0.8158
1068.46	0.6257
1076.89	0.6345
1085.32	0.8095
1093.75	0.794
1102.19	0.5402
1110.62	0.7717
1119.05	0.8599
1127.48	0.8596
1135.91	0.8447
1144.34	0.8161
1152.78	0.8321
1161.21	0.839
1169.64	0.8257
1178.07	0.7623
1186.5	0.6893
1194.93	0.5598
1203.37	0.8004
1211.8	0.8225
1220.23	0.8049
1228.66	0.7485
1237.09	0.7586
1245.52	0.7031
1253.96	0.4012
1262.39	0.3299
1270.82	0.7158
1279.25	0.778
1287.68	0.837
1296.12	0.8399
1304.55	0.849
1312.98	0.8403
1321.41	0.8229
1329.84	0.8032
1338.27	0.694
1346.71	0.4759
1355.14	0.1899
1363.57	0.6149
1372	0.6248
1380.43	0.5157
1388.86	0.7264
1397.3	0.7558
1405.73	0.7331
1414.16	0.6831
1422.59	0.646
1431.02	0.4566
1439.45	0.209
1447.89	0.2995
1456.32	0.292
1464.75	0.2903
1473.18	0.3225
1481.61	0.4048
1490.04	0.1685
1498.48	0.2214
1506.91	0.7982
1515.34	0.7992
1523.77	0.7869
1532.2	0.7881
1540.63	0.8731
1549.07	0.8759
1557.5	0.8689
1565.93	0.832
1574.36	0.7827
1582.79	0.7728
1591.22	0.6092
1599.66	0.4075
1608.09	0.7502
1616.52	0.8488
1624.95	0.8849
1633.38	0.886
1641.81	0.8801
1650.25	0.8711
1658.68	0.8494
1667.11	0.8522
1675.54	0.8848
1683.97	0.8898
1692.41	0.89
1700.84	0.893
1709.27	0.8862
1717.7	0.8804
1726.13	0.8667
1734.56	0.8117
1743	0.8288
1751.43	0.8827
1759.86	0.8877
1768.29	0.8834
1776.72	0.8796
1785.15	0.8579
1793.59	0.7795
1802.02	0.836
1810.45	0.8579
1818.88	0.8834
1827.31	0.9
1835.74	0.9
1844.18	0.892
1852.61	0.877
1861.04	0.7919
1869.47	0.8123
1877.9	0.8205
1886.33	0.8624
1894.77	0.89
1903.2	0.8907
1911.63	0.893
1920.06	0.8823
1928.49	0.8521
1936.92	0.7663
1945.36	0.7968
1953.79	0.832
1962.22	0.8552
1970.65	0.8906
1979.08	0.896
1987.51	0.9
1995.95	0.9076
2004.38	0.91
2012.81	0.912
2021.24	0.91
2029.67	0.91
2038.1	0.912
2046.54	0.913
2054.97	0.913
2063.4	0.9124
2071.83	0.915
2080.26	0.915
2088.69	0.915
2097.13	0.913
2105.56	0.9138
2113.99	0.9138
2122.42	0.913
2130.85	0.912
2139.29	0.912
2147.72	0.912
2156.15	0.9126
2164.58	0.9126
2173.01	0.912
2181.44	0.9088
2189.88	0.9074
2198.31	0.8988
2206.74	0.906
2215.17	0.913
2223.6	0.913
2232.03	0.913
2240.47	0.915
2248.9	0.913
2257.33	0.9088
2265.76	0.9008
2274.19	0.898
2282.62	0.896
2291.06	0.891
2299.49	0.8956
2307.92	0.898
2316.35	0.8972
2324.78	0.9008
2333.21	0.898
2341.65	0.8912
2350.08	0.8922
2358.51	0.898
2366.94	0.898
2375.37	0.8954
2383.8	0.8934
2392.24	0.898
2400.67	0.898
2409.1	0.898
2417.53	0.9026
2425.96	0.9038
2434.39	0.902
2442.83	0.8992
2451.26	0.905
2459.69	0.9042
2468.12	0.907
2476.55	0.907
2484.98	0.908
2493.42	0.9008
2501.85	0.9012
2510.28	0.898
2518.71	0.9
2527.14	0.898
2535.58	0.902
2544.01	0.9
2552.44	0.8942
2560.87	0.89
2569.3	0.89
2577.73	0.89
2586.17	0.8904
2594.6	0.89
2603.03	0.896
2611.46	0.898
2619.89	0.895
2628.32	0.8888
2636.76	0.888
2645.19	0.8892
2653.62	0.89
2662.05	0.8892
2670.48	0.8906
2678.91	0.891
2687.35	0.8888
2695.78	0.8818
2704.21	0.8648
2712.64	0.849
2721.07	0.8639
2729.5	0.876
2737.94	0.8692
2746.37	0.859
2754.8	0.8772
2763.23	0.878
2771.66	0.8655
2780.09	0.8602
2788.53	0.8572
2796.96	0.8364
2805.39	0.817
2813.82	0.8108
2822.25	0.7896
2830.68	0.7542
2839.12	0.7319
2847.55	0.6618
2855.98	0.4381
2864.41	0.2205
2872.84	0.1407
2881.27	0.2129
2889.71	0.2518
2898.14	0.2236
2906.57	0.126
2915	0.1542
2923.43	0.165
2931.86	0.1182
2940.3	0.064
2948.73	0.0294
2957.16	0.015
2965.59	0.013
2974.02	0.015
2982.46	0.1385
2990.89	0.3775
2999.32	0.5121
3007.75	0.5819
3016.18	0.4699
3024.61	0.2894
3033.05	0.3149
3041.48	0.41
3049.91	0.4157
3058.34	0.313
3066.77	0.2782
3075.2	0.5216
3083.64	0.4581
3092.07	0.3424
3100.5	0.6668
3108.93	0.6974
3117.36	0.7906
3125.79	0.8466
3134.23	0.858
3142.66	0.859
3151.09	0.854
3159.52	0.851
3167.95	0.8522
3176.38	0.851
3184.82	0.853
3193.25	0.853
3201.68	0.8586
3210.11	0.8636
3218.54	0.864
3226.97	0.866
3235.41	0.8686
3243.84	0.869
3252.27	0.871
3260.7	0.8684
3269.13	0.869
3277.56	0.873
3286	0.8772
3294.43	0.881
3302.86	0.885
3311.29	0.888
3319.72	0.8892
3328.15	0.89
3336.59	0.89
3345.02	0.89
3353.45	0.89
3361.88	0.891
3370.31	0.891
3378.75	0.891
3387.18	0.891
3395.61	0.891
3404.04	0.891
3412.47	0.891
3420.9	0.89
3429.34	0.891
3437.77	0.891
3446.2	0.891
3454.63	0.891
3463.06	0.891
3471.49	0.8904
3479.93	0.888
3488.36	0.89
3496.79	0.8904
3505.22	0.891
3513.65	0.893
3522.08	0.896
3530.52	0.8972
3538.95	0.898
3547.38	0.9
3555.81	0.898
3564.24	0.898
3572.67	0.896
3581.11	0.895
3589.54	0.895
3597.97	0.8938
3606.4	0.893
3614.83	0.893
3623.26	0.893
3631.7	0.891
3640.13	0.89
3648.56	0.888
3656.99	0.89
3665.42	0.89
3673.85	0.89
3682.29	0.89
3690.72	0.89
3699.15	0.888
3707.58	0.89
3716.01	0.888
3724.44	0.888
3732.88	0.888
3741.31	0.888
3749.74	0.888
3758.17	0.885
3766.6	0.886
3775.04	0.8872
3783.47	0.8838
3791.9	0.883
3800.33	0.883
3808.76	0.885
3817.19	0.885
3825.63	0.886
3834.06	0.8854
3842.49	0.885
3850.92	0.8838
3859.35	0.883
3867.78	0.8788
3876.22	0.8738
3884.65	0.873
3893.08	0.8756
3901.51	0.881
3909.94	0.881
3918.37	0.881
3926.81	0.881
3935.24	0.88
