Infrared Spectrum: 2-THIOPHENE CARBOXALDEHYDE
Formula: C5 H4 O S
CAS: 98-03-3
Class: COBLENTZ
Instrument: Not specified, most likely a grating spectrometer.
Sampling: TRANSMISSION
Path length: CAPILLARY FILM
Resolution: 4
Origin: STANDARD OIL OF OHIO
1/CM	TRANSMITTANCE
235.274	0.556
244.726	0.553
254.177	0.532
263.629	0.463
273.08	0.4989
282.532	0.578
291.983	0.683
301.435	0.7419
310.886	0.78
320.338	0.802
329.789	0.812
339.241	0.822
348.692	0.825
358.144	0.825
367.595	0.827
377.047	0.827
386.498	0.829
395.95	0.827
405.401	0.832
414.853	0.812
424.304	0.798
433.756	0.81
443.207	0.802
452.659	0.727
462.11	0.6362
471.562	0.3988
481.013	0.722
490.465	0.791
499.916	0.807
509.368	0.808
518.819	0.803
528.271	0.8
537.722	0.791
547.174	0.786
556.626	0.7681
566.077	0.5191
575.529	0.719
584.98	0.5633
594.432	0.744
603.883	0.749
613.335	0.747
622.786	0.746
632.238	0.766
641.689	0.768
651.141	0.6851
660.592	0.1923
670.044	0.522
679.495	0.7899
688.947	0.839
698.398	0.834
707.85	0.764
717.301	0.4924
726.753	0.277
736.204	0.35
745.656	0.4649
755.107	0.3511
764.559	0.756
774.01	0.873
783.462	0.903
792.913	0.915
802.365	0.905
811.816	0.8521
821.268	0.864
830.719	0.884
840.171	0.7851
849.622	0.73
859.074	0.73
868.525	0.8016
877.977	0.932
887.429	0.942
896.88	0.94
906.332	0.932
915.783	0.925
925.235	0.94
934.686	0.945
944.138	0.954
953.589	0.956
963.041	0.954
972.492	0.954
981.944	0.956
991.395	0.937
1000.85	0.939
1010.3	0.937
1019.75	0.923
1029.2	0.8691
1038.65	0.71
1048.1	0.421
1057.56	0.8609
1067.01	0.903
1076.46	0.864
1085.91	0.851
1095.36	0.917
1104.81	0.922
1114.26	0.912
1123.72	0.91
1133.17	0.906
1142.62	0.898
1152.07	0.908
1161.52	0.912
1170.97	0.905
1180.43	0.884
1189.88	0.842
1199.33	0.692
1208.78	0.2738
1218.23	0.3188
1227.68	0.656
1237.13	0.4771
1246.59	0.7979
1256.04	0.895
1265.49	0.915
1274.94	0.918
1284.39	0.913
1293.84	0.906
1303.3	0.891
1312.75	0.862
1322.2	0.798
1331.65	0.791
1341.1	0.8069
1350.55	0.837
1360	0.8151
1369.46	0.891
1378.91	0.849
1388.36	0.622
1397.81	0.648
1407.26	0.646
1416.71	0.167
1426.16	0.4552
1435.62	0.8299
1445.07	0.884
1454.52	0.888
1463.97	0.888
1473.42	0.898
1482.87	0.901
1492.33	0.893
1501.78	0.871
1511.23	0.67
1520.68	0.5221
1530.13	0.8509
1539.58	0.901
1549.03	0.898
1558.49	0.881
1567.94	0.869
1577.39	0.864
1586.84	0.862
1596.29	0.859
1605.74	0.851
1615.2	0.822
1624.65	0.751
1634.1	0.678
1643.55	0.5899
1653	0.1749
1662.45	0.081
1671.9	0.057
1681.36	0.108
1690.81	0.189
1700.26	0.549
1709.71	0.692
1719.16	0.796
1728.61	0.852
1738.06	0.873
1747.52	0.873
1756.97	0.879
1766.42	0.888
1775.87	0.895
1785.32	0.901
1794.77	0.903
1804.23	0.901
1813.68	0.9
1823.13	0.89
1832.58	0.884
1842.03	0.883
1851.48	0.879
1860.93	0.873
1870.39	0.861
1879.84	0.861
1889.29	0.879
1898.74	0.895
1908.19	0.908
1917.64	0.918
1927.1	0.918
1936.55	0.917
1946	0.915
1955.45	0.915
1964.9	0.915
1974.35	0.915
1983.8	0.917
1993.26	0.917
2002.71	0.925
2012.16	0.927
2021.61	0.927
2031.06	0.927
2040.51	0.925
2049.96	0.925
2059.42	0.923
2068.87	0.9225
2078.32	0.915
2087.77	0.912
2097.22	0.918
2106.67	0.923
2116.13	0.923
2125.58	0.923
2135.03	0.923
2144.48	0.922
2153.93	0.922
2163.38	0.9225
2172.83	0.923
2182.29	0.923
2191.74	0.925
2201.19	0.9261
2210.64	0.925
2220.09	0.925
2229.54	0.923
2239	0.922
2248.45	0.922
2257.9	0.922
2267.35	0.923
2276.8	0.923
2286.25	0.9231
2295.7	0.927
2305.16	0.927
2314.61	0.927
2324.06	0.927
2333.51	0.927
2342.96	0.927
2352.41	0.927
2361.86	0.923
2371.32	0.9189
2380.77	0.918
2390.22	0.917
2399.67	0.9149
2409.12	0.912
2418.57	0.906
2428.03	0.9054
2437.48	0.905
2446.93	0.905
2456.38	0.905
2465.83	0.9072
2475.28	0.912
2484.73	0.912
2494.19	0.912
2503.64	0.91
2513.09	0.912
2522.54	0.91
2531.99	0.9077
2541.44	0.905
2550.9	0.903
2560.35	0.903
2569.8	0.9032
2579.25	0.905
2588.7	0.905
2598.15	0.9012
2607.6	0.8978
2617.06	0.891
2626.51	0.89
2635.96	0.8888
2645.41	0.8828
2654.86	0.8822
2664.31	0.884
2673.76	0.8873
2683.22	0.89
2692.67	0.8786
2702.12	0.8466
2711.57	0.8453
2721.02	0.852
2730.47	0.8484
2739.93	0.8094
2749.38	0.7721
2758.83	0.7693
2768.28	0.8032
2777.73	0.7957
2787.18	0.6857
2796.63	0.7299
2806.09	0.7753
2815.54	0.6894
2824.99	0.6836
2834.44	0.6852
2843.89	0.7092
2853.34	0.7554
2862.8	0.8256
2872.25	0.8595
2881.7	0.8673
2891.15	0.869
2900.6	0.869
2910.05	0.8763
2919.5	0.881
2928.96	0.8813
2938.41	0.886
2947.86	0.886
2957.31	0.8846
2966.76	0.883
2976.21	0.8816
2985.66	0.878
2995.12	0.874
3004.57	0.8688
3014.02	0.864
3023.47	0.864
3032.92	0.8613
3042.37	0.8534
3051.83	0.8441
3061.28	0.8268
3070.73	0.7785
3080.18	0.7264
3089.63	0.6757
3099.08	0.676
3108.53	0.7001
3117.99	0.8
3127.44	0.8382
3136.89	0.8531
3146.34	0.8617
3155.79	0.864
3165.24	0.8654
3174.7	0.868
3184.15	0.871
3193.6	0.873
3203.05	0.8774
3212.5	0.879
3221.95	0.879
3231.4	0.879
3240.86	0.881
3250.31	0.881
3259.76	0.881
3269.21	0.879
3278.66	0.8783
3288.11	0.8703
3297.56	0.8603
3307.02	0.851
3316.47	0.851
3325.92	0.8563
3335.37	0.8665
3344.82	0.8765
3354.27	0.8825
3363.73	0.886
3373.18	0.888
3382.63	0.8865
3392.08	0.888
3401.53	0.8895
3410.98	0.888
3420.43	0.888
3429.89	0.886
3439.34	0.8855
3448.79	0.884
3458.24	0.8824
3467.69	0.881
3477.14	0.879
3486.6	0.8782
3496.05	0.876
3505.5	0.876
3514.95	0.874
3524.4	0.874
3533.85	0.874
3543.3	0.874
3552.76	0.8746
3562.21	0.876
3571.66	0.876
3581.11	0.874
3590.56	0.874
3600.01	0.873
3609.46	0.871
3618.92	0.874
3628.37	0.876
3637.82	0.878
3647.27	0.8783
3656.72	0.881
3666.17	0.883
3675.63	0.8838
3685.08	0.888
3694.53	0.89
3703.98	0.89
3713.43	0.89
3722.88	0.8864
3732.33	0.881
3741.79	0.8767
3751.24	0.8756
3760.69	0.881
3770.14	0.8838
3779.59	0.8837
3789.04	0.883
3798.5	0.881
3807.95	0.878
3817.4	0.8703
3826.85	0.868
3836.3	0.868
3845.75	0.8727
3855.2	0.8747
3864.66	0.879
3874.11	0.8797
3883.56	0.879
