Infrared Spectrum: 2-FURALDEHYDE
Formula: C5 H4 O2
CAS: 98-01-1
State: VAPOR (5 MICROLITER AT 150 C)
Boiling point: 162 C
Class: COBLENTZ
Instrument: PERKIN-ELMER 180
Sampling: TRANSMISSION
Path length: 5 CM KBr CELL, CELL VOLUME: 80 CM^3
Resolution: 2-3 CM^-^1
Origin: PERKIN ELMER CORP. (M. ZELLER)
1/CM	TRANSMITTANCE
394.329	0.414
403.489	0.4819
412.65	0.552
421.81	0.602
430.97	0.6619
440.131	0.702
449.291	0.741
458.452	0.78
467.612	0.808
476.772	0.831
485.933	0.852
495.093	0.851
504.253	0.848
513.414	0.859
522.574	0.864
531.734	0.869
540.895	0.878
550.055	0.88
559.215	0.88
568.376	0.865
577.536	0.851
586.697	0.8181
595.857	0.85
605.017	0.85
614.178	0.863
623.338	0.881
632.498	0.883
641.659	0.887
650.819	0.89
659.979	0.886
669.14	0.889
678.3	0.885
687.46	0.882
696.621	0.874
705.781	0.86
714.942	0.817
724.102	0.701
733.262	0.4491
742.423	0.365
751.583	0.238
760.743	0.419
769.904	0.5719
779.064	0.705
788.224	0.816
797.385	0.85
806.545	0.844
815.705	0.84
824.866	0.814
834.026	0.84
843.187	0.85
852.347	0.867
861.507	0.868
870.668	0.851
879.828	0.821
888.988	0.82
898.149	0.809
907.309	0.861
916.469	0.853
925.63	0.833
934.79	0.809
943.95	0.796
953.111	0.799
962.271	0.842
971.432	0.855
980.592	0.848
989.752	0.813
998.913	0.739
1008.07	0.638
1017.23	0.62
1026.39	0.702
1035.55	0.814
1044.71	0.84
1053.87	0.846
1063.04	0.827
1072.2	0.783
1081.36	0.786
1090.52	0.778
1099.68	0.831
1108.84	0.843
1118	0.839
1127.16	0.83
1136.32	0.799
1145.48	0.75
1154.64	0.736
1163.8	0.743
1172.96	0.788
1182.12	0.818
1191.28	0.814
1200.44	0.797
1209.6	0.78
1218.76	0.753
1227.92	0.698
1237.08	0.701
1246.24	0.705
1255.4	0.75
1264.56	0.757
1273.72	0.757
1282.88	0.784
1292.04	0.822
1301.2	0.835
1310.36	0.834
1319.53	0.834
1328.69	0.83
1337.85	0.823
1347.01	0.807
1356.17	0.775
1365.33	0.774
1374.49	0.753
1383.65	0.731
1392.81	0.723
1401.97	0.724
1411.13	0.743
1420.29	0.786
1429.45	0.796
1438.61	0.792
1447.77	0.775
1456.93	0.672
1466.09	0.524
1475.25	0.465
1484.41	0.494
1493.57	0.6341
1502.73	0.728
1511.89	0.761
1521.05	0.779
1530.21	0.8
1539.37	0.799
1548.53	0.771
1557.69	0.694
1566.85	0.55
1576.02	0.508
1585.18	0.5411
1594.34	0.671
1603.5	0.76
1612.66	0.774
1621.82	0.769
1630.98	0.767
1640.14	0.77
1649.3	0.773
1658.46	0.765
1667.62	0.726
1676.78	0.657
1685.94	0.593
1695.1	0.4269
1704.26	0.0889
1713.42	0.07
1722.58	0.093
1731.74	0.4473
1740.9	0.705
1750.06	0.752
1759.22	0.777
1768.38	0.79
1777.54	0.809
1786.7	0.827
1795.86	0.835
1805.02	0.837
1814.18	0.84
1823.34	0.84
1832.51	0.839
1841.67	0.838
1850.83	0.839
1859.99	0.839
1869.15	0.838
1878.31	0.842
1887.47	0.839
1896.63	0.838
1905.79	0.833
1914.95	0.829
1924.11	0.827
1933.27	0.829
1942.43	0.831
1951.59	0.826
1960.75	0.829
1969.91	0.829
1979.07	0.829
1988.23	0.831
1997.39	0.83
2006.55	0.823
2015.71	0.822
2024.87	0.822
2034.03	0.823
2043.19	0.825
2052.35	0.8251
2061.51	0.823
2070.67	0.822
2079.83	0.8172
2089	0.8123
2098.16	0.8174
2107.32	0.821
2116.48	0.8217
2125.64	0.821
2134.8	0.82
2143.96	0.818
2153.12	0.8206
2162.28	0.8185
2171.44	0.8177
2180.6	0.816
2189.76	0.8162
2198.92	0.8106
2208.08	0.813
2217.24	0.8106
2226.4	0.809
2235.56	0.8093
2244.72	0.814
2253.88	0.8134
2263.04	0.812
2272.2	0.812
2281.36	0.81
2290.52	0.81
2299.68	0.8049
2308.84	0.804
2318	0.803
2327.16	0.803
2336.32	0.803
2345.49	0.803
2354.65	0.799
2363.81	0.7915
2372.97	0.8
2382.13	0.803
2391.29	0.804
2400.45	0.8021
2409.61	0.8001
2418.77	0.8
2427.93	0.803
2437.09	0.804
2446.25	0.803
2455.41	0.8006
2464.57	0.7992
2473.73	0.8
2482.89	0.7992
2492.05	0.797
2501.21	0.7986
2510.37	0.797
2519.53	0.797
2528.69	0.794
2537.85	0.792
2547.01	0.7896
2556.17	0.784
2565.33	0.79
2574.49	0.791
2583.65	0.79
2592.81	0.7887
2601.98	0.788
2611.14	0.7867
2620.3	0.784
2629.46	0.7812
2638.62	0.7799
2647.78	0.7776
2656.94	0.7738
2666.1	0.77
2675.26	0.7639
2684.42	0.7548
2693.58	0.7369
2702.74	0.729
2711.9	0.726
2721.06	0.727
2730.22	0.723
2739.38	0.7185
2748.54	0.7101
2757.7	0.7066
2766.86	0.6896
2776.02	0.6434
2785.18	0.5952
2794.34	0.5946
2803.5	0.5753
2812.66	0.617
2821.82	0.6148
2830.98	0.6253
2840.14	0.637
2849.3	0.6693
2858.47	0.7066
2867.63	0.7324
2876.79	0.7483
2885.95	0.752
2895.11	0.7505
2904.27	0.7488
2913.43	0.7436
2922.59	0.7432
2931.75	0.7464
2940.91	0.7482
2950.07	0.75
2959.23	0.747
2968.39	0.745
2977.55	0.748
2986.71	0.748
2995.87	0.748
3005.03	0.749
3014.19	0.7479
3023.35	0.7475
3032.51	0.748
3041.67	0.744
3050.83	0.743
3059.99	0.7395
3069.15	0.74
3078.31	0.739
3087.47	0.739
3096.63	0.7381
3105.79	0.7351
3114.96	0.7332
3124.12	0.731
3133.28	0.731
3142.44	0.731
3151.6	0.732
3160.76	0.732
3169.92	0.732
3179.08	0.732
3188.24	0.731
3197.4	0.731
3206.56	0.7343
3215.72	0.734
3224.88	0.732
3234.04	0.732
3243.2	0.7325
3252.36	0.7313
3261.52	0.7317
3270.68	0.732
3279.84	0.7318
3289	0.7317
3298.16	0.734
3307.32	0.7304
3316.48	0.7283
3325.64	0.73
3334.8	0.728
3343.96	0.728
3353.12	0.7269
3362.28	0.7249
3371.45	0.7229
3380.61	0.7179
3389.77	0.7099
3398.93	0.7015
3408.09	0.7
3417.25	0.7065
3426.41	0.711
3435.57	0.7179
3444.73	0.723
3453.89	0.726
3463.05	0.7221
3472.21	0.72
3481.37	0.722
3490.53	0.7194
3499.69	0.7238
3508.85	0.7236
3518.01	0.72
3527.17	0.72
3536.33	0.72
3545.49	0.7193
3554.65	0.7192
3563.81	0.719
3572.97	0.717
3582.13	0.7147
3591.29	0.7165
3600.45	0.719
3609.61	0.7156
3618.77	0.715
3627.94	0.711
3637.1	0.7115
3646.26	0.7117
3655.42	0.711
3664.58	0.711
3673.74	0.71
3682.9	0.7106
3692.06	0.71
3701.22	0.7094
3710.38	0.709
3719.54	0.709
3728.7	0.706
3737.86	0.704
3747.02	0.707
3756.18	0.705
3765.34	0.702
3774.5	0.701
3783.66	0.701
3792.82	0.702
3801.98	0.702
3811.14	0.7006
3820.3	0.6982
3829.46	0.7
3838.62	0.7
3847.78	0.698
3856.94	0.698
3866.1	0.6936
3875.26	0.6912
3884.43	0.6947
3893.59	0.6944
3902.75	0.6911
3911.91	0.691
3921.07	0.689
3930.23	0.6925
3939.39	0.6905
3948.55	0.688
3957.71	0.6887
3966.87	0.6896
3976.03	0.6866
3985.19	0.6877
3994.35	0.6878
4003.51	0.685
