Infrared Spectrum: PHENYLSULFONYL CHLORIDE
Formula: C6 H5 Cl O2 S
CAS: 98-09-9
State: SOLUTION (10% IN CCl4 FOR 3800-1340, 10% IN CS2 FOR 1340-450 CM^-^1)
Class: COBLENTZ III
Instrument: DOW KBr FOREPRISM-GRATING
Instrument parameters: BLAZED AT 3.5, 12.0, 20.0 MICRON, CHANGED AT 5.0, 7.5, 14.9 MICRON
Sampling: TRANSMISSION
Path length: 0.011, 0.011 CM
Resolution: 4
Origin: DOW CHEMICAL COMPANY
1/CM	TRANSMITTANCE
448.669	0.646
457.224	0.631
465.779	0.705
474.334	0.838
482.89	0.889
491.445	0.912
500	0.92
508.555	0.918
517.11	0.92
525.665	0.905
534.22	0.838
542.776	0.3605
551.331	0.1981
559.886	0.4632
568.441	0.0081
576.996	0
585.551	0.2778
594.106	0.661
602.662	0.757
611.217	0.816
619.772	0.89
628.327	0.902
636.882	0.902
645.437	0.871
653.993	0.855
662.548	0.7521
671.103	0.4421
679.658	0.1828
688.213	0.723
696.768	0.782
705.323	0.602
713.879	0.011
722.434	0.781
730.989	0.797
739.544	0.695
748.099	0.1497
756.654	0.821
765.209	0.892
773.765	0.903
782.32	0.903
790.875	0.911
799.43	0.914
807.985	0.914
816.54	0.909
825.095	0.883
833.651	0.852
842.206	0.798
850.761	0.781
859.316	0.806
867.871	0.852
876.426	0.883
884.981	0.914
893.537	0.934
902.092	0.937
910.647	0.928
919.202	0.866
927.757	0.934
936.312	0.942
944.867	0.946
953.423	0.948
961.978	0.934
970.533	0.936
979.088	0.923
987.643	0.892
996.198	0.8828
1004.75	0.921
1013.31	0.884
1021.86	0.894
1030.42	0.908
1038.97	0.937
1047.53	0.926
1056.08	0.8621
1064.64	0.8029
1073.19	0.6651
1081.75	0.5595
1090.3	0.7609
1098.86	0.906
1107.42	0.924
1115.97	0.914
1124.53	0.881
1133.08	0.795
1141.64	0.5652
1150.19	0.3839
1158.75	0.44
1167.3	0.1551
1175.86	0.06
1184.41	0.011
1192.97	0.5659
1201.52	0.792
1210.08	0.86
1218.63	0.893
1227.19	0.903
1235.74	0.911
1244.3	0.914
1252.85	0.912
1261.41	0.883
1269.96	0.877
1278.52	0.755
1287.07	0.735
1295.63	0.806
1304.18	0.819
1312.74	0.823
1321.29	0.795
1329.85	0.5112
1338.4	0.767
1346.96	0.874
1355.51	0.7321
1364.07	0.4031
1372.62	0.112
1381.18	0.008
1389.74	0.143
1398.29	0.619
1406.85	0.8469
1415.4	0.884
1423.96	0.892
1432.51	0.863
1441.07	0.665
1449.62	0.1429
1458.18	0.874
1466.73	0.886
1475.29	0.667
1483.84	0.875
1492.4	0.847
1500.95	0.782
1509.51	0.747
1518.06	0.696
1526.62	0.659
1535.17	0.563
1543.73	0.489
1552.28	0.516
1560.84	0.581
1569.39	0.621
1577.95	0.5811
1586.5	0.644
1595.06	0.7839
1603.61	0.853
1612.17	0.912
1620.72	0.94
1629.28	0.951
1637.83	0.958
1646.39	0.96
1654.94	0.958
1663.5	0.952
1672.05	0.905
1680.61	0.94
1689.17	0.958
1697.72	0.964
1706.28	0.964
1714.83	0.965
1723.39	0.965
1731.94	0.958
1740.5	0.957
1749.05	0.949
1757.61	0.915
1766.16	0.94
1774.72	0.952
1783.27	0.952
1791.83	0.921
1800.38	0.869
1808.94	0.926
1817.49	0.948
1826.05	0.945
1834.6	0.955
1843.16	0.958
1851.71	0.957
1860.27	0.957
1868.82	0.954
1877.38	0.945
1885.93	0.931
1894.49	0.877
1903.04	0.933
1911.6	0.921
1920.15	0.943
1928.71	0.958
1937.26	0.958
1945.82	0.952
1954.37	0.915
1962.93	0.928
1971.49	0.942
1980.04	0.915
1988.6	0.937
1997.15	0.951
2005.71	0.954
2014.26	0.955
2022.82	0.957
2031.37	0.9576
2039.93	0.958
2048.48	0.96
2057.04	0.961
2065.59	0.961
2074.15	0.9594
2082.7	0.9597
2091.26	0.9623
2099.81	0.957
2108.37	0.9574
2116.92	0.963
2125.48	0.963
2134.03	0.963
2142.59	0.961
2151.14	0.9568
2159.7	0.9484
2168.25	0.9572
2176.81	0.9624
2185.36	0.963
2193.92	0.963
2202.47	0.9603
2211.03	0.963
2219.58	0.9646
2228.14	0.9582
2236.69	0.955
2245.25	0.946
2253.8	0.9355
2262.36	0.9179
2270.92	0.9227
2279.47	0.939
2288.03	0.94
2296.58	0.9392
2305.14	0.9457
2313.69	0.946
2322.25	0.9366
2330.8	0.9343
2339.36	0.9429
2347.91	0.9498
2356.47	0.952
2365.02	0.957
2373.58	0.963
2382.13	0.964
2390.69	0.9671
2399.24	0.97
2407.8	0.9727
2416.35	0.9723
2424.91	0.973
2433.46	0.971
2442.02	0.9707
2450.57	0.9684
2459.13	0.965
2467.68	0.968
2476.24	0.971
2484.79	0.97
2493.35	0.971
2501.9	0.971
2510.46	0.97
2519.01	0.9669
2527.57	0.9634
2536.12	0.9597
2544.68	0.952
2553.23	0.9404
2561.79	0.9482
2570.35	0.9573
2578.9	0.9648
2587.46	0.968
2596.01	0.9652
2604.57	0.97
2613.12	0.971
2621.68	0.973
2630.23	0.973
2638.79	0.9719
2647.34	0.9628
2655.9	0.9454
2664.45	0.9653
2673.01	0.9754
2681.56	0.9775
2690.12	0.979
2698.67	0.9767
2707.23	0.976
2715.78	0.977
2724.34	0.9742
2732.89	0.97
2741.45	0.9681
2750	0.9645
2758.56	0.963
2767.11	0.9676
2775.67	0.9701
2784.22	0.9729
2792.78	0.9773
2801.33	0.979
2809.89	0.98
2818.44	0.9815
2827	0.982
2835.55	0.9803
2844.11	0.982
2852.67	0.982
2861.22	0.982
2869.78	0.98
2878.33	0.977
2886.89	0.976
2895.44	0.98
2904	0.9799
2912.55	0.979
2921.11	0.9822
2929.66	0.9823
2938.22	0.98
2946.77	0.98
2955.33	0.982
2963.88	0.98
2972.44	0.979
2980.99	0.9761
2989.55	0.9721
2998.1	0.9611
3006.66	0.9451
3015.21	0.958
3023.77	0.958
3032.32	0.955
3040.88	0.942
3049.43	0.9095
3057.99	0.8217
3066.54	0.7395
3075.1	0.847
3083.65	0.9297
3092.21	0.9399
3100.76	0.9532
3109.32	0.9639
3117.87	0.97
3126.43	0.971
3134.98	0.9751
3143.54	0.977
3152.1	0.9661
3160.65	0.9614
3169.21	0.978
3177.76	0.985
3186.32	0.986
3194.87	0.992
3203.43	0.994
3211.98	0.995
3220.54	0.997
3229.09	0.997
3237.65	0.998
3246.2	0.998
3254.76	1
3263.31	1
3271.87	1.001
3280.42	1.001
3288.98	1.001
3297.53	1.001
3306.09	1.001
3314.64	1.001
3323.2	1.001
3331.75	1.001
3340.31	1.001
3348.86	1.001
3357.42	1.001
3365.97	1.001
3374.53	1.001
3383.08	1
3391.64	1
3400.19	0.998
3408.75	0.998
3417.3	0.997
3425.86	0.997
3434.42	0.997
3442.97	0.9978
3451.53	0.998
3460.08	0.998
3468.64	0.997
3477.19	0.995
3485.75	0.9959
3494.3	0.998
3502.86	0.998
3511.41	0.998
3519.97	0.998
3528.52	0.998
3537.08	0.997
3545.63	0.995
3554.19	0.9943
3562.74	0.9883
3571.3	0.9844
3579.85	0.991
3588.41	0.9863
3596.96	0.9824
3605.52	0.986
3614.07	0.989
3622.63	0.985
3631.18	0.987
3639.74	0.9889
3648.29	0.988
3656.85	0.992
3665.4	0.9897
3673.96	0.9768
3682.51	0.9797
3691.07	0.9843
3699.62	0.9948
3708.18	0.997
3716.73	0.997
3725.29	0.998
3733.85	1.001
3742.4	1
3750.96	0.997
3759.51	0.994
3768.07	0.994
3776.62	0.994
3785.18	0.997
