Infrared Spectrum: BENZENE, (TRICHLOROMETHYL)-
Formula: C7 H5 Cl3
CAS: 98-07-7
State: SOLUTION (10% IN CCl4 FOR 3800-1330, 10% IN CS2 FOR 1330-400 CM^-^1)
Melting point: -7.5 CM
Boiling point: 220 C
Class: COBLENTZ III
Instrument: DOW KBr FOREPRISM-GRATING
Instrument parameters: BLAZED AT 3.5, 12.0, 20.0 MICRON, CHANGED AT 5.0, 7.5, 14.9 MICRON
Sampling: TRANSMISSION
Path length: 0.011, 0.010 CM
Resolution: 4
Origin: DOW CHEMICAL COMPANY
1/CM	TRANSMITTANCE
381.404	0.693
390.892	0.704
400.379	0.741
409.867	0.786
419.355	0.815
428.842	0.832
438.33	0.84
447.818	0.847
457.306	0.846
466.793	0.841
476.281	0.838
485.769	0.835
495.256	0.825
504.744	0.815
514.232	0.825
523.719	0.826
533.207	0.829
542.695	0.834
552.182	0.838
561.67	0.84
571.158	0.85
580.645	0.847
590.133	0.849
599.621	0.84
609.109	0.779
618.596	0.67
628.084	0.782
637.572	0.795
647.059	0.775
656.547	0.778
666.035	0.683
675.522	0.605
685.01	0.51
694.498	0.18
703.985	0.019
713.473	0
722.961	0.02
732.449	0.538
741.936	0.661
751.424	0.61
760.912	0.548
770.399	0.634
779.887	0.383
789.375	0.19
798.862	0.022
808.35	0.4271
817.838	0.713
827.325	0.758
836.813	0.748
846.301	0.667
855.789	0.553
865.276	0.1311
874.764	0.769
884.252	0.846
893.739	0.872
903.227	0.866
912.715	0.874
922.202	0.89
931.69	0.893
941.178	0.893
950.665	0.883
960.153	0.88
969.641	0.878
979.128	0.869
988.616	0.86
998.104	0.866
1007.59	0.866
1017.08	0.86
1026.57	0.752
1036.05	0.874
1045.54	0.88
1055.03	0.877
1064.52	0.866
1074.01	0.872
1083.49	0.877
1092.98	0.871
1102.47	0.881
1111.96	0.883
1121.44	0.872
1130.93	0.868
1140.42	0.862
1149.91	0.826
1159.39	0.795
1168.88	0.699
1178.37	0.1902
1187.86	0.3071
1197.35	0.804
1206.83	0.853
1216.32	0.863
1225.81	0.863
1235.3	0.877
1244.78	0.874
1254.27	0.868
1263.76	0.86
1273.25	0.852
1282.73	0.853
1292.22	0.856
1301.71	0.844
1311.2	0.794
1320.69	0.778
1330.17	0.857
1339.66	0.86
1349.15	0.877
1358.64	0.889
1368.12	0.884
1377.61	0.857
1387.1	0.875
1396.59	0.88
1406.07	0.871
1415.56	0.862
1425.05	0.85
1434.54	0.816
1444.03	0.3158
1453.51	0.822
1463	0.835
1472.49	0.822
1481.98	0.5839
1491.46	0.702
1500.95	0.727
1510.44	0.692
1519.93	0.653
1529.41	0.591
1538.9	0.501
1548.39	0.486
1557.88	0.563
1567.37	0.633
1576.85	0.653
1586.34	0.681
1595.83	0.761
1605.32	0.823
1614.8	0.85
1624.29	0.871
1633.78	0.894
1643.27	0.902
1652.75	0.9
1662.24	0.894
1671.73	0.889
1681.22	0.893
1690.71	0.905
1700.19	0.892
1709.68	0.892
1719.17	0.89
1728.66	0.881
1738.14	0.877
1747.63	0.855
1757.12	0.883
1766.61	0.877
1776.09	0.871
1785.58	0.88
1795.07	0.835
1804.56	0.889
1814.05	0.883
1823.53	0.896
1833.02	0.894
1842.51	0.89
1852	0.893
1861.48	0.896
1870.97	0.89
1880.46	0.853
1889.95	0.881
1899.43	0.872
1908.92	0.886
1918.41	0.894
1927.9	0.896
1937.39	0.893
1946.87	0.855
1956.36	0.877
1965.85	0.871
1975.34	0.883
1984.82	0.89
1994.31	0.889
2003.8	0.889
2013.29	0.886
2022.77	0.886
2032.26	0.886
2041.75	0.8869
2051.24	0.874
2060.73	0.883
2070.21	0.89
2079.7	0.892
2089.19	0.892
2098.68	0.892
2108.16	0.892
2117.65	0.889
2127.14	0.8906
2136.63	0.893
2146.11	0.8916
2155.6	0.89
2165.09	0.89
2174.58	0.89
2184.07	0.8897
2193.55	0.8867
2203.04	0.884
2212.53	0.883
2222.02	0.881
2231.5	0.883
2240.99	0.8823
2250.48	0.8776
2259.97	0.8732
2269.45	0.871
2278.94	0.8667
2288.43	0.8625
2297.92	0.871
2307.41	0.873
2316.89	0.878
2326.38	0.8831
2335.87	0.8925
2345.36	0.8865
2354.84	0.8819
2364.33	0.8716
2373.82	0.8883
2383.31	0.894
2392.79	0.902
2402.28	0.903
2411.77	0.903
2421.26	0.905
2430.75	0.9103
2440.23	0.912
2449.72	0.9134
2459.21	0.911
2468.7	0.9165
2478.18	0.9185
2487.67	0.918
2497.16	0.917
2506.65	0.918
2516.13	0.918
2525.62	0.92
2535.11	0.921
2544.6	0.921
2554.09	0.921
2563.57	0.923
2573.06	0.923
2582.55	0.9239
2592.04	0.9269
2601.52	0.9309
2611.01	0.93
2620.5	0.928
2629.99	0.931
2639.47	0.933
2648.96	0.9309
2658.45	0.926
2667.94	0.927
2677.43	0.9311
2686.91	0.936
2696.4	0.939
2705.89	0.942
2715.38	0.936
2724.86	0.9373
2734.35	0.94
2743.84	0.9368
2753.33	0.931
2762.81	0.9208
2772.3	0.9262
2781.79	0.9375
2791.28	0.9422
2800.76	0.9427
2810.25	0.94
2819.74	0.942
2829.23	0.9453
2838.72	0.943
2848.2	0.9483
2857.69	0.9457
2867.18	0.943
2876.67	0.942
2886.15	0.943
2895.64	0.943
2905.13	0.94
2914.62	0.943
2924.1	0.9409
2933.59	0.946
2943.08	0.946
2952.57	0.943
2962.06	0.943
2971.54	0.9441
2981.03	0.945
2990.52	0.9424
3000.01	0.936
3009.49	0.9233
3018.98	0.8817
3028.47	0.8893
3037.96	0.8761
3047.44	0.8941
3056.93	0.787
3066.42	0.7706
3075.91	0.8745
3085.4	0.8969
3094.88	0.9096
3104.37	0.9364
3113.86	0.9512
3123.35	0.9578
3132.83	0.961
3142.32	0.9608
3151.81	0.964
3161.3	0.9584
3170.78	0.958
3180.27	0.96
3189.76	0.964
3199.25	0.965
3208.74	0.967
3218.22	0.965
3227.71	0.968
3237.2	0.971
3246.69	0.97
3256.17	0.971
3265.66	0.973
3275.15	0.976
3284.64	0.977
3294.12	0.976
3303.61	0.9771
3313.1	0.977
3322.59	0.9759
3332.08	0.973
3341.56	0.9761
3351.05	0.979
3360.54	0.983
3370.03	0.983
3379.51	0.988
3389	0.991
3398.49	0.986
3407.98	0.983
3417.46	0.9846
3426.95	0.982
3436.44	0.98
3445.93	0.979
3455.42	0.974
3464.9	0.9737
3474.39	0.9724
3483.88	0.9707
3493.37	0.968
3502.85	0.968
3512.34	0.968
3521.83	0.967
3531.32	0.967
3540.8	0.9674
3550.29	0.971
3559.78	0.9719
3569.27	0.9735
3578.76	0.975
3588.24	0.976
3597.73	0.977
3607.22	0.979
3616.71	0.9749
3626.19	0.9736
3635.68	0.976
3645.17	0.971
3654.66	0.9752
3664.14	0.979
3673.63	0.9796
3683.12	0.98
3692.61	0.979
3702.1	0.9763
3711.58	0.9797
3721.07	0.9857
3730.56	0.9866
3740.05	0.983
3749.53	0.98
3759.02	0.983
3768.51	0.983
3778	0.985
3787.48	0.988
3796.97	0.991
