Infrared Spectrum: Alpha,Alpha,Alpha-TRIFLUOROTOLUENE
Formula: C7 H5 F3
CAS: 98-08-8
State: SOLUTION, (10% IN CCl4 FOR 3800-1340, 2% IN CS2 FOR 1340-450 CM^-^1)
Class: COBLENTZ III
Instrument: DOW KBr FOREPRISM-GRATING
Instrument parameters: BLAZED AT 3.5, 12.0, 20.0 MICRON AND CHANGED AT 5.0, 7.5, 14.9 MICRON
Path length: 0.011 CM, 0.011 CM
Resolution: 2
Origin: DOW CHEMICAL COMPANY
1/CM	TRANSMITTANCE
450.146	0.908
458.892	0.908
467.639	0.91
476.385	0.911
485.131	0.916
493.878	0.93
502.624	0.937
511.371	0.937
520.117	0.941
528.863	0.942
537.61	0.944
546.356	0.949
555.102	0.95
563.849	0.952
572.595	0.952
581.341	0.946
590.088	0.916
598.834	0.904
607.58	0.945
616.327	0.953
625.073	0.953
633.82	0.944
642.566	0.925
651.312	0.873
660.059	0.5022
668.805	0.935
677.551	0.952
686.298	0.862
695.044	0.332
703.79	0.907
712.537	0.975
721.283	0.987
730.029	0.994
738.776	0.995
747.522	0.986
756.269	0.955
765.015	0.598
773.761	0.912
782.508	0.979
791.254	0.989
800	0.991
808.747	0.993
817.493	0.997
826.239	0.987
834.986	0.956
843.732	0.876
852.478	0.811
861.225	0.833
869.971	0.888
878.718	0.925
887.464	0.964
896.21	0.983
904.957	0.991
913.703	0.974
922.449	0.963
931.196	1.006
939.942	1.013
948.688	1.016
957.435	1.016
966.181	1.013
974.927	1.016
983.674	1.01
992.42	1.016
1001.17	1.012
1009.91	0.993
1018.66	0.926
1027.41	0.7422
1036.15	1.004
1044.9	1.004
1053.64	0.952
1062.39	0.689
1071.14	0.555
1079.88	0.903
1088.63	0.896
1097.38	0.79
1106.12	0.846
1114.87	0.67
1123.62	0.104
1132.36	0.145
1141.11	0.508
1149.85	0.5839
1158.6	0.468
1167.35	0.231
1176.09	0.467
1184.84	0.856
1193.59	0.968
1202.33	0.991
1211.08	1.004
1219.83	1.012
1228.57	1.01
1237.32	0.972
1246.06	0.997
1254.81	0.995
1263.56	0.989
1272.3	0.978
1281.05	0.978
1289.8	0.957
1298.54	0.893
1307.29	0.786
1316.04	0.3699
1324.78	0.034
1333.53	0.715
1342.27	0.715
1351.02	0.715
1359.77	0.707
1368.51	0.723
1377.26	0.87
1386.01	0.852
1394.75	0.931
1403.5	0.923
1412.25	0.925
1420.99	0.907
1429.74	0.821
1438.48	0.863
1447.23	0.7919
1455.98	0.098
1464.72	0.844
1473.47	0.915
1482.22	0.912
1490.96	0.886
1499.71	0.839
1508.46	0.798
1517.2	0.73
1525.95	0.685
1534.69	0.602
1543.44	0.52
1552.19	0.508
1560.93	0.588
1569.68	0.66
1578.43	0.679
1587.17	0.711
1595.92	0.777
1604.67	0.702
1613.41	0.72
1622.16	0.899
1630.9	0.946
1639.65	0.946
1648.4	0.94
1657.14	0.885
1665.89	0.892
1674.64	0.95
1683.38	0.944
1692.13	0.91
1700.88	0.956
1709.62	0.96
1718.37	0.957
1727.11	0.942
1735.86	0.949
1744.61	0.95
1753.35	0.937
1762.1	0.893
1770.85	0.952
1779.59	0.957
1788.34	0.957
1797.09	0.948
1805.83	0.877
1814.58	0.934
1823.32	0.948
1832.07	0.942
1840.82	0.957
1849.56	0.959
1858.31	0.959
1867.06	0.959
1875.8	0.956
1884.55	0.916
1893.3	0.863
1902.04	0.918
1910.79	0.904
1919.53	0.948
1928.28	0.949
1937.03	0.946
1945.77	0.941
1954.52	0.877
1963.27	0.942
1972.01	0.927
1980.76	0.946
1989.5	0.955
1998.25	0.949
2007	0.953
2015.74	0.9561
2024.49	0.96
2033.24	0.963
2041.98	0.964
2050.73	0.964
2059.48	0.963
2068.22	0.961
2076.97	0.9634
2085.71	0.959
2094.46	0.9145
2103.21	0.9532
2111.95	0.964
2120.7	0.9656
2129.45	0.965
2138.19	0.964
2146.94	0.963
2155.69	0.9612
2164.43	0.961
2173.18	0.961
2181.92	0.96
2190.67	0.9517
2199.42	0.9452
2208.16	0.9574
2216.91	0.959
2225.66	0.955
2234.4	0.9399
2243.15	0.9344
2251.9	0.934
2260.64	0.934
2269.39	0.934
2278.13	0.9318
2286.88	0.9337
2295.63	0.9377
2304.37	0.938
2313.12	0.9418
2321.87	0.948
2330.61	0.946
2339.36	0.948
2348.11	0.9641
2356.85	0.979
2365.6	0.9737
2374.34	0.965
2383.09	0.963
2391.84	0.963
2400.58	0.967
2409.33	0.971
2418.08	0.971
2426.82	0.971
2435.57	0.97
2444.32	0.967
2453.06	0.964
2461.81	0.968
2470.55	0.971
2479.3	0.9672
2488.05	0.964
2496.79	0.967
2505.54	0.971
2514.29	0.974
2523.03	0.975
2531.78	0.975
2540.53	0.976
2549.27	0.976
2558.02	0.976
2566.76	0.976
2575.51	0.975
2584.26	0.974
2593	0.972
2601.75	0.971
2610.5	0.97
2619.24	0.9612
2627.99	0.942
2636.74	0.9441
2645.48	0.9665
2654.23	0.971
2662.97	0.972
2671.72	0.972
2680.47	0.976
2689.21	0.978
2697.96	0.979
2706.71	0.979
2715.45	0.979
2724.2	0.979
2732.95	0.979
2741.69	0.979
2750.44	0.979
2759.18	0.979
2767.93	0.979
2776.68	0.979
2785.42	0.979
2794.17	0.979
2802.92	0.978
2811.66	0.971
2820.41	0.9718
2829.16	0.975
2837.9	0.971
2846.65	0.9719
2855.39	0.974
2864.14	0.975
2872.89	0.975
2881.63	0.974
2890.38	0.9708
2899.13	0.963
2907.87	0.9478
2916.62	0.9323
2925.37	0.9516
2934.11	0.9689
2942.86	0.97
2951.6	0.971
2960.35	0.968
2969.1	0.9643
2977.84	0.9616
2986.59	0.959
2995.34	0.957
3004.08	0.9409
3012.83	0.9296
3021.58	0.9261
3030.32	0.884
3039.07	0.7854
3047.81	0.8623
3056.56	0.8658
3065.31	0.7934
3074.05	0.7609
3082.8	0.908
3091.55	0.8806
3100.29	0.9346
3109.04	0.935
3117.79	0.9545
3126.53	0.9727
3135.28	0.98
3144.02	0.982
3152.77	0.982
3161.52	0.9804
3170.26	0.979
3179.01	0.9829
3187.76	0.985
3196.5	0.985
3205.25	0.983
3214	0.9872
3222.74	0.993
3231.49	0.995
3240.23	0.995
3248.98	0.995
3257.73	0.997
3266.47	0.9988
3275.22	1.001
3283.97	1.002
3292.71	1.002
3301.46	1.002
3310.2	1.002
3318.95	1.002
3327.7	1.004
3336.44	1.005
3345.19	1.005
3353.94	1.005
3362.68	1.006
3371.43	1.006
3380.18	1.008
3388.92	1.008
3397.67	1.008
3406.41	1.008
3415.16	1.006
3423.91	1.005
3432.65	1.004
3441.4	1.002
3450.15	1.001
3458.89	1.001
3467.64	1.001
3476.39	1.001
3485.13	1.001
3493.88	1
3502.62	0.9985
3511.37	0.998
3520.12	0.997
3528.86	0.995
3537.61	0.995
3546.36	0.995
3555.1	0.995
3563.85	0.994
3572.6	0.994
3581.34	0.993
3590.09	0.993
3598.83	0.991
3607.58	0.99
3616.33	0.9881
3625.07	0.986
3633.82	0.9839
3642.57	0.9809
3651.31	0.98
3660.06	0.98
3668.81	0.982
3677.55	0.982
3686.3	0.982
3695.04	0.9829
3703.79	0.9849
3712.54	0.986
3721.28	0.987
3730.03	0.989
3738.78	0.9899
3747.52	0.9858
3756.27	0.9875
3765.02	0.989
3773.76	0.985
3782.51	0.9894
