Infrared Spectrum: M-AMINOBENZOTRIFLUORIDE
Formula: C7 H6 F3 N
CAS: 98-16-8
State: LIQUID
Class: COBLENTZ
Instrument: Not specified, most likely a prism, grating, or hybrid spectrometer.
Sampling: TRANSMISSION
Path length: 0.003 CM
Resolution: 4
Origin: WYANDOTTE CHEMICALS CORP., WYANDOTTE, MICHIGAN, USA
MICROMETERS	TRANSMITTANCE
2.055	0.981
2.09591	0.969
2.13683	0.974
2.17774	0.97
2.21866	0.97
2.25957	0.969
2.30049	0.96
2.3414	0.938
2.38232	0.905
2.42323	0.916
2.46415	0.917
2.50506	0.922
2.54598	0.928
2.58689	0.91
2.62781	0.921
2.66872	0.91
2.70963	0.907
2.75055	0.9
2.79146	0.823
2.83238	0.506
2.87329	0.306
2.91421	0.347
2.95512	0.198
2.99604	0.226
3.03695	0.65
3.07787	0.604
3.11878	0.643
3.1597	0.815
3.20061	0.821
3.24153	0.746
3.28244	0.696
3.32335	0.869
3.36427	0.866
3.40518	0.859
3.4461	0.883
3.48701	0.907
3.52793	0.912
3.56884	0.9
3.60976	0.898
3.65067	0.883
3.69159	0.9
3.7325	0.844
3.77342	0.849
3.81433	0.873
3.85525	0.885
3.89616	0.888
3.93707	0.905
3.97799	0.897
4.0189	0.876
4.05982	0.88
4.10073	0.888
4.14165	0.88
4.18256	0.876
4.22348	0.866
4.26439	0.851
4.30531	0.869
4.34622	0.883
4.38714	0.875
4.42805	0.856
4.46897	0.854
4.50988	0.847
4.55079	0.844
4.59171	0.847
4.63262	0.844
4.67354	0.847
4.71445	0.84
4.75537	0.849
4.79628	0.868
4.8372	0.84
4.87811	0.844
4.91903	0.842
4.95994	0.857
5.00086	0.859
5.04177	0.839
5.08269	0.83
5.1236	0.833
5.16451	0.816
5.20543	0.763
5.24634	0.787
5.28726	0.821
5.32817	0.821
5.36909	0.804
5.41	0.767
5.45092	0.77
5.49183	0.801
5.53275	0.818
5.57366	0.815
5.61458	0.796
5.65549	0.77
5.6964	0.753
5.73732	0.724
5.77823	0.739
5.81915	0.76
5.86006	0.75
5.90098	0.712
5.94189	0.65
5.98281	0.563
6.02372	0.357
6.06464	0.053
6.10555	0.02
6.14647	0.032
6.18738	0.106
6.2283	0.118
6.26921	0.38
6.31012	0.566
6.35104	0.657
6.39195	0.708
6.43287	0.727
6.47378	0.66
6.5147	0.616
6.55561	0.587
6.59653	0.38
6.63744	0.104
6.67836	0.304
6.71927	0.375
6.76019	0.058
6.8011	0.106
6.84202	0.4
6.88293	0.571
6.92384	0.592
6.96476	0.561
7.00567	0.534
7.04659	0.592
7.0875	0.589
7.12842	0.659
7.16933	0.657
7.21025	0.65
7.25116	0.619
7.29208	0.505
7.33299	0.287
7.37391	0.027
7.41482	0.015
7.45574	0.017
7.49665	0.02
7.53756	0.018
7.57848	0.027
7.61939	0.107
7.66031	0.154
7.70122	0.234
7.74214	0.354
7.78305	0.347
7.82397	0.275
7.86488	0.138
7.9058	0.025
7.94671	0.018
7.98763	0.027
8.02854	0.104
8.06946	0.268
8.11037	0.39
8.15128	0.419
8.1922	0.414
8.23311	0.41
8.27403	0.386
8.31494	0.315
8.35586	0.183
8.39677	0.075
8.43769	0.018
8.4786	0.015
8.51952	0.017
8.56043	0.018
8.60135	0.017
8.64226	0.017
8.68318	0.017
8.72409	0.015
8.765	0.015
8.80592	0.015
8.84683	0.015
8.88775	0.015
8.92866	0.015
8.96958	0.015
9.01049	0.015
9.05141	0.017
9.09232	0.022
9.13324	0.047
9.17415	0.071
9.21507	0.101
9.25598	0.077
9.2969	0.03
9.33781	0.013
9.37872	0.015
9.41964	0.039
9.46055	0.138
9.50147	0.292
9.54238	0.419
9.5833	0.496
9.62421	0.546
9.66513	0.547
9.70604	0.498
9.74696	0.407
9.78787	0.5
9.82879	0.602
9.8697	0.625
9.91062	0.647
9.95153	0.633
9.99244	0.498
10.0334	0.125
10.0743	0.433
10.1152	0.556
10.1561	0.568
10.197	0.589
10.2379	0.585
10.2788	0.575
10.3198	0.58
10.3607	0.602
10.4016	0.633
10.4425	0.643
10.4834	0.654
10.5243	0.65
10.5652	0.628
10.6062	0.618
10.6471	0.619
10.688	0.638
10.7289	0.638
10.7698	0.638
10.8107	0.631
10.8517	0.619
10.8926	0.597
10.9335	0.565
10.9744	0.5
11.0153	0.405
11.0562	0.289
11.0971	0.162
11.1381	0.058
11.179	0.035
11.2199	0.07
11.2608	0.121
11.3017	0.179
11.3426	0.196
11.3835	0.183
11.4245	0.133
11.4654	0.077
11.5063	0.051
11.5472	0.053
11.5881	0.068
11.629	0.14
11.6699	0.243
11.7109	0.342
11.7518	0.414
11.7927	0.458
11.8336	0.479
11.8745	0.493
11.9154	0.491
11.9563	0.494
11.9973	0.496
12.0382	0.494
12.0791	0.488
12.12	0.484
12.1609	0.472
12.2018	0.467
12.2428	0.46
12.2837	0.443
12.3246	0.428
12.3655	0.402
12.4064	0.371
12.4473	0.328
12.4882	0.261
12.5292	0.179
12.5701	0.104
12.611	0.051
12.6519	0.035
12.6928	0.029
12.7337	0.03
12.7746	0.047
12.8156	0.104
12.8565	0.196
12.8974	0.285
12.9383	0.313
12.9792	0.335
13.0201	0.335
13.061	0.318
13.102	0.282
13.1429	0.25
13.1838	0.229
13.2247	0.224
13.2656	0.248
13.3065	0.277
13.3474	0.255
13.3884	0.183
13.4293	0.172
13.4702	0.227
13.5111	0.26
13.552	0.277
13.5929	0.289
13.6338	0.291
13.6748	0.289
13.7157	0.289
13.7566	0.289
13.7975	0.289
13.8384	0.287
13.8793	0.28
13.9203	0.285
13.9612	0.28
14.0021	0.277
14.043	0.273
14.0839	0.263
14.1248	0.255
14.1657	0.248
14.2067	0.215
14.2476	0.172
14.2885	0.128
14.3294	0.101
14.3703	0.092
14.4112	0.095
14.4521	0.104
14.4931	0.133
14.534	0.172
14.5749	0.205
14.6158	0.239
14.6567	0.26
14.6976	0.275
14.7385	0.28
14.7795	0.289
14.8204	0.299
14.8613	0.304
14.9022	0.311
14.9431	0.316
14.984	0.321
15.0249	0.345
15.0659	0.371
15.1068	0.369
15.1477	0.323
15.1886	0.301
15.2295	0.296
15.2704	0.292
15.3114	0.33
15.3523	0.369
15.3932	0.397
15.4341	0.414
15.475	0.426
15.5159	0.438
15.5568	0.46
15.5978	0.472
15.6387	0.476
15.6796	0.476
15.7205	0.477
15.7614	0.481
15.8023	0.488
15.8432	0.488
15.8842	0.496
15.9251	0.508
15.966	0.511
16.0069	0.517
