Infrared Spectrum: Cyclohexanone, 4-tert-butyl-
Formula: C10 H18 O
CAS: 98-53-3
State: SOLID (NEAT)
Class: COBLENTZ III
Instrument: BECKMAN IR-12 (GRATING)
Instrument parameters: GRATING
Sampling: TRANSMISSION
Path length: CAPILLARY (FILM)
Resolution: 2
Origin: COLGATE-PALMOLIVE COMPANY (KELLENBACH)
1/CM	TRANSMITTANCE
402	0.7209
411	0.7344
420	0.6255
429	0.7242
438	0.7823
447	0.8715
456	0.8916
465	0.8993
474	0.9029
483	0.9069
492	0.8886
501	0.7899
510	0.5555
519	0.7275
528	0.7866
537	0.857
546	0.8759
555	0.8732
564	0.8857
573	0.8893
582	0.8875
591	0.8884
600	0.89
609	0.892
618	0.8944
627	0.8921
636	0.8873
645	0.8805
654	0.8542
663	0.7061
672	0.8164
681	0.8504
690	0.849
699	0.8466
708	0.8407
717	0.8386
726	0.8371
735	0.8322
744	0.7756
753	0.729
762	0.8168
771	0.7928
780	0.7566
789	0.8298
798	0.8366
807	0.8312
816	0.8173
825	0.8111
834	0.7865
843	0.6467
852	0.8098
861	0.8123
870	0.8069
879	0.8019
888	0.7928
897	0.7671
906	0.7303
915	0.7509
924	0.6863
933	0.7036
942	0.5864
951	0.6603
960	0.7547
969	0.7703
978	0.7666
987	0.7548
996	0.768
1005	0.7458
1014	0.6912
1023	0.7341
1032	0.7418
1041	0.745
1050	0.7352
1059	0.667
1068	0.7191
1077	0.726
1086	0.7226
1095	0.7078
1104	0.6483
1113	0.6434
1122	0.696
1131	0.6994
1140	0.6864
1149	0.6108
1158	0.4238
1167	0.4843
1176	0.6325
1185	0.6561
1194	0.637
1203	0.5755
1212	0.4661
1221	0.5044
1230	0.6008
1239	0.5741
1248	0.5255
1257	0.5912
1266	0.6664
1275	0.6711
1284	0.5835
1293	0.6433
1302	0.5894
1311	0.6738
1320	0.595
1329	0.3991
1338	0.5369
1347	0.468
1356	0.3765
1365	0.3714
1374	0.6315
1383	0.5771
1392	0.5817
1401	0.5534
1410	0.2844
1419	0.2291
1428	0.4199
1437	0.5252
1446	0.3871
1455	0.4406
1464	0.404
1473	0.4415
1482	0.6455
1491	0.6658
1500	0.6591
1509	0.6651
1518	0.6641
1527	0.6959
1536	0.6805
1545	0.6984
1554	0.685
1563	0.7003
1572	0.6994
1581	0.6953
1590	0.6891
1599	0.683
1608	0.6795
1617	0.6789
1626	0.6787
1635	0.6741
1644	0.6666
1653	0.6575
1662	0.6476
1671	0.6322
1680	0.6141
1689	0.6014
1698	0.5349
1707	0.4476
1716	0.4211
1725	0.5517
1734	0.6031
1743	0.6152
1752	0.6404
1761	0.6556
1770	0.6595
1779	0.6624
1788	0.6644
1797	0.6649
1806	0.6639
1815	0.6616
1824	0.6571
1833	0.6571
1842	0.6612
1851	0.6649
1860	0.6663
1869	0.6653
1878	0.6638
1887	0.6622
1896	0.6599
1905	0.658
1914	0.6598
1923	0.6611
1932	0.6606
1941	0.6601
1950	0.6594
1959	0.6579
1968	0.6564
1977	0.6546
1986	0.653
1995	0.6517
2004	0.6622
2013	0.6645
2022	0.664
2031	0.6634
2040	0.6624
2049	0.6614
2058	0.6605
2067	0.6594
2076	0.6573
2085	0.6568
2094	0.6575
2103	0.6564
2112	0.6554
2121	0.6538
2130	0.6521
2139	0.6504
2148	0.6488
2157	0.6458
2166	0.643
2175	0.643
2184	0.643
2193	0.6425
2202	0.6422
2211	0.6417
2220	0.6414
2229	0.6407
2238	0.6402
2247	0.6396
2256	0.6391
2265	0.6382
2274	0.6369
2283	0.6356
2292	0.6344
2301	0.6335
2310	0.6325
2319	0.6316
2328	0.6307
2337	0.6298
2346	0.6289
2355	0.6281
2364	0.6272
2373	0.6276
2382	0.6282
2391	0.6287
2400	0.6291
2409	0.6293
2418	0.6297
2427	0.629
2436	0.628
2445	0.6269
2454	0.6264
2463	0.6263
2472	0.6262
2481	0.6277
2490	0.628
2499	0.6239
2508	0.6184
2517	0.6136
2526	0.613
2535	0.616
2544	0.6165
2553	0.6137
2562	0.6104
2571	0.6063
2580	0.6015
2589	0.5946
2598	0.5861
2607	0.5817
2616	0.5815
2625	0.5845
2634	0.5861
2643	0.5756
2652	0.5749
2661	0.5819
2670	0.5833
2679	0.5813
2688	0.5753
2697	0.5654
2706	0.555
2715	0.5695
2724	0.5769
2733	0.5598
2742	0.5631
2751	0.5672
2760	0.5635
2769	0.5507
2778	0.537
2787	0.5188
2796	0.479
2805	0.4404
2814	0.3946
2823	0.3593
2832	0.3178
2841	0.1995
2850	0.1532
2859	0.125
2868	0.1502
2877	0.2003
2886	0.193
2895	0.182
2904	0.1727
2913	0.1617
2922	0.1127
2931	0.0548
2940	0.038
2949	0.0411
2958	0.151
2967	0.2937
2976	0.3686
2985	0.4742
2994	0.5086
3003	0.5273
3012	0.5387
3021	0.549
3030	0.5591
3039	0.5677
3048	0.5726
3057	0.5747
3066	0.5761
3075	0.5774
3084	0.579
3093	0.5766
3102	0.574
3111	0.5723
3120	0.5725
3129	0.5728
3138	0.5733
3147	0.5732
3156	0.5723
3165	0.5712
3174	0.5702
3183	0.5691
3192	0.5684
3201	0.5676
3210	0.5669
3219	0.5672
3228	0.5686
3237	0.5706
3246	0.5737
3255	0.5749
3264	0.5715
3273	0.5674
3282	0.5633
3291	0.5623
3300	0.5621
3309	0.5618
3318	0.5616
3327	0.5614
3336	0.5612
3345	0.5611
3354	0.5613
3363	0.5615
3372	0.5617
3381	0.5619
3390	0.5622
3399	0.5625
3408	0.5629
3417	0.5636
3426	0.5645
3435	0.566
3444	0.5675
3453	0.5697
3462	0.5719
3471	0.5738
3480	0.5758
3489	0.5777
3498	0.5797
3507	0.5817
3516	0.5839
3525	0.586
3534	0.5882
3543	0.5901
3552	0.592
3561	0.5939
3570	0.5957
3579	0.5972
3588	0.5986
3597	0.5999
3606	0.6013
3615	0.6026
3624	0.6036
3633	0.6042
3642	0.6049
3651	0.6056
3660	0.606
3669	0.6059
3678	0.6058
3687	0.6057
3696	0.6052
3705	0.6033
3714	0.6015
3723	0.5992
3732	0.5992
3741	0.6036
3750	0.6054
3759	0.6063
3768	0.6057
3777	0.605
3786	0.6044
3795	0.6036
3804	0.6029
3813	0.6022
3822	0.6014
3831	0.6006
3840	0.5998
3849	0.5989
3858	0.5978
3867	0.5977
3876	0.5987
3885	0.5997
3894	0.6011
3903	0.6024
3912	0.603
3921	0.6019
3930	0.6007
3939	0.5961
3948	0.5959
3957	0.5983
3966	0.6008
3975	0.6017
3984	0.6026
3993	0.6031
