Infrared Spectrum: 1-METHYL-4-TERT-BUTYL BENZENE
Formula: C11 H16
CAS: 98-51-1
State: LIQUID
Class: COBLENTZ
Instrument: PERKIN-ELMER
Sampling: TRANSMISSION
Path length: 0.0024 CM
Resolution: 4
Origin: STANDARD OIL OF OHIO
1/CM	TRANSMITTANCE
577.615	0.634
586.051	0.626
594.488	0.617
602.924	0.615
611.361	0.619
619.797	0.629
628.234	0.642
636.67	0.651
645.107	0.685
653.543	0.707
661.98	0.725
670.416	0.749
678.853	0.773
687.289	0.791
695.726	0.8
704.162	0.795
712.599	0.752
721.035	0.3414
729.472	0.807
737.908	0.842
746.345	0.852
754.781	0.856
763.218	0.857
771.654	0.854
780.091	0.847
788.527	0.825
796.964	0.761
805.4	0.6442
813.837	0.055
822.273	0.3027
830.71	0.671
839.146	0.7759
847.583	0.761
856.019	0.857
864.456	0.871
872.892	0.878
881.329	0.881
889.765	0.883
898.202	0.881
906.638	0.873
915.075	0.856
923.511	0.827
931.948	0.815
940.384	0.822
948.821	0.854
957.257	0.856
965.694	0.864
974.13	0.868
982.567	0.866
991.003	0.864
999.44	0.857
1007.88	0.839
1016.31	0.573
1024.75	0.5878
1033.19	0.698
1041.62	0.69
1050.06	0.778
1058.5	0.832
1066.93	0.849
1075.37	0.849
1083.8	0.835
1092.24	0.802
1100.68	0.7189
1109.11	0.3501
1117.55	0.5491
1125.99	0.685
1134.42	0.824
1142.86	0.859
1151.3	0.861
1159.73	0.857
1168.17	0.849
1176.61	0.835
1185.04	0.7489
1193.48	0.5877
1201.92	0.658
1210.35	0.78
1218.79	0.802
1227.22	0.786
1235.66	0.749
1244.1	0.798
1252.53	0.768
1260.97	0.4463
1269.41	0.4771
1277.84	0.724
1286.28	0.805
1294.72	0.837
1303.15	0.837
1311.59	0.839
1320.03	0.837
1328.46	0.818
1336.9	0.795
1345.34	0.7121
1353.77	0.3748
1362.21	0.3307
1370.65	0.543
1379.08	0.604
1387.52	0.475
1395.95	0.551
1404.39	0.565
1412.83	0.6
1421.26	0.538
1429.7	0.56
1438.14	0.492
1446.57	0.3921
1455.01	0.2719
1463.45	0.2499
1471.88	0.313
1480.32	0.3728
1488.76	0.575
1497.19	0.615
1505.63	0.4037
1514.07	0.1402
1522.5	0.6241
1530.94	0.758
1539.38	0.837
1547.81	0.849
1556.25	0.861
1564.68	0.857
1573.12	0.835
1581.56	0.864
1589.99	0.888
1598.43	0.891
1606.87	0.888
1615.3	0.884
1623.74	0.886
1632.18	0.873
1640.61	0.8249
1649.05	0.818
1657.49	0.879
1665.92	0.9
1674.36	0.91
1682.8	0.91
1691.23	0.913
1699.67	0.912
1708.1	0.912
1716.54	0.91
1724.98	0.912
1733.41	0.905
1741.85	0.898
1750.29	0.883
1758.72	0.89
1767.16	0.895
1775.6	0.89
1784.03	0.859
1792.47	0.851
1800.91	0.905
1809.34	0.917
1817.78	0.92
1826.22	0.92
1834.65	0.917
1843.09	0.91
1851.53	0.903
1859.96	0.898
1868.4	0.895
1876.83	0.879
1885.27	0.851
1893.71	0.785
1902.14	0.7579
1910.58	0.888
1919.02	0.901
1927.45	0.908
1935.89	0.917
1944.33	0.918
1952.76	0.915
1961.2	0.915
1969.64	0.918
1978.07	0.918
1986.51	0.918
1994.95	0.915
2003.38	0.92
2011.82	0.918
2020.26	0.918
2028.69	0.92
2037.13	0.92
2045.56	0.92
2054	0.922
2062.44	0.923
2070.87	0.9249
2079.31	0.927
2087.75	0.925
2096.18	0.925
2104.62	0.923
2113.06	0.923
2121.49	0.923
2129.93	0.9202
2138.37	0.922
2146.8	0.923
2155.24	0.92
2163.68	0.918
2172.11	0.9171
2180.55	0.918
2188.99	0.92
2197.42	0.922
2205.86	0.9133
2214.29	0.9147
2222.73	0.92
2231.17	0.92
2239.6	0.92
2248.04	0.9217
2256.48	0.922
2264.91	0.92
2273.35	0.918
2281.79	0.9154
2290.22	0.91
2298.66	0.912
2307.1	0.908
2315.53	0.908
2323.97	0.91
2332.41	0.913
2340.84	0.9146
2349.28	0.9128
2357.71	0.908
2366.15	0.908
2374.59	0.906
2383.02	0.9053
2391.46	0.9025
2399.9	0.9075
2408.33	0.908
2416.77	0.9094
2425.21	0.912
2433.64	0.915
2442.08	0.9164
2450.52	0.915
2458.95	0.915
2467.39	0.917
2475.83	0.915
2484.26	0.915
2492.7	0.9039
2501.14	0.915
2509.57	0.917
2518.01	0.917
2526.44	0.915
2534.88	0.913
2543.32	0.9157
2551.75	0.91
2560.19	0.906
2568.63	0.9042
2577.06	0.9092
2585.5	0.9004
2593.94	0.8868
2602.37	0.9018
2610.81	0.91
2619.25	0.91
2627.68	0.9038
2636.12	0.9
2644.56	0.9
2652.99	0.898
2661.43	0.895
2669.87	0.8971
2678.3	0.9
2686.74	0.898
2695.17	0.8955
2703.61	0.8803
2712.05	0.8538
2720.48	0.85
2728.92	0.8504
2737.36	0.8225
2745.79	0.858
2754.23	0.8785
2762.67	0.881
2771.1	0.8745
2779.54	0.865
2787.98	0.8626
2796.41	0.8465
2804.85	0.8234
2813.29	0.8011
2821.72	0.7918
2830.16	0.7406
2838.59	0.713
2847.03	0.6566
2855.47	0.4841
2863.9	0.2823
2872.34	0.1026
2880.78	0.1288
2889.21	0.215
2897.65	0.2191
2906.09	0.1255
2914.52	0.0822
2922.96	0.099
2931.4	0.079
2939.83	0.0659
2948.27	0.0401
2956.71	0.0143
2965.14	0.011
2973.58	0.0137
2982.02	0.0489
2990.45	0.2259
2998.89	0.3057
3007.32	0.351
3015.76	0.3704
3024.2	0.3198
3032.63	0.3001
3041.07	0.4614
3049.51	0.5252
3057.94	0.465
3066.38	0.4604
3074.82	0.6222
3083.25	0.698
3091.69	0.6457
3100.13	0.6139
3108.56	0.7692
3117	0.8368
3125.44	0.8485
3133.87	0.8385
3142.31	0.8404
3150.75	0.8665
3159.18	0.871
3167.62	0.871
3176.05	0.8732
3184.49	0.8744
3192.93	0.876
3201.36	0.8756
3209.8	0.873
3218.24	0.874
3226.67	0.876
3235.11	0.878
3243.55	0.881
3251.98	0.881
3260.42	0.883
3268.86	0.883
3277.29	0.883
3285.73	0.888
3294.17	0.8883
3302.6	0.8901
3311.04	0.8927
3319.47	0.891
3327.91	0.893
3336.35	0.896
3344.78	0.9
3353.22	0.898
3361.66	0.898
3370.09	0.8998
3378.53	0.8998
3386.97	0.898
3395.4	0.898
3403.84	0.898
3412.28	0.898
3420.71	0.898
3429.15	0.898
3437.59	0.898
3446.02	0.898
3454.46	0.898
3462.9	0.895
3471.33	0.895
3479.77	0.9
3488.2	0.895
3496.64	0.898
3505.08	0.896
3513.51	0.898
3521.95	0.898
3530.39	0.898
3538.82	0.9
3547.26	0.9
3555.7	0.9
3564.13	0.9
3572.57	0.9
3581.01	0.898
3589.44	0.8999
3597.88	0.9009
3606.32	0.908
3614.75	0.9
3623.19	0.9
3631.63	0.898
3640.06	0.898
3648.5	0.895
3656.93	0.895
3665.37	0.893
3673.81	0.893
3682.24	0.893
3690.68	0.898
3699.12	0.898
3707.55	0.898
3715.99	0.898
3724.43	0.898
3732.86	0.896
3741.3	0.8985
3749.74	0.896
3758.17	0.896
3766.61	0.895
3775.05	0.8914
3783.48	0.89
3791.92	0.888
3800.36	0.888
3808.79	0.888
3817.23	0.8864
3825.66	0.886
3834.1	0.884
3842.54	0.883
3850.97	0.883
3859.41	0.881
3867.85	0.8795
3876.28	0.8782
3884.72	0.878
3893.16	0.879
3901.59	0.881
3910.03	0.883
3918.47	0.8854
3926.9	0.881
3935.34	0.884
3943.78	0.884
