Infrared Spectrum: Alpha-TERPINEOL
Formula: C10 H18 O
CAS: 98-55-5
State: SOLUTION (10% CCl4 FOR 4000-1330, 10% CS2 FOR 1330-450 CM^-^1)
Class: COBLENTZ III
Instrument: CARY 90 (GRATING)
Instrument parameters: ORDER CHANGES: 3000, 2000, 1200 CM^-^1
Sampling: TRANSMISSION
Resolution: 2
Origin: WESTERN REGIONAL RES. USDA
1/CM	TRANSMITTANCE
3996	0.9078
3987	0.9078
3978	0.9075
3969	0.9075
3960	0.9073
3951	0.9071
3942	0.907
3933	0.907
3924	0.907
3915	0.9068
3906	0.9068
3897	0.9068
3888	0.9071
3879	0.9074
3870	0.9085
3861	0.9097
3852	0.911
3843	0.9121
3834	0.913
3825	0.9128
3816	0.9128
3807	0.9128
3798	0.9124
3789	0.9118
3780	0.9114
3771	0.9115
3762	0.9116
3753	0.9116
3744	0.9109
3735	0.91
3726	0.9085
3717	0.9054
3708	0.9017
3699	0.8928
3690	0.8771
3681	0.8668
3672	0.8759
3663	0.8795
3654	0.8681
3645	0.8218
3636	0.739
3627	0.6047
3618	0.603
3609	0.7095
3600	0.8017
3591	0.8172
3582	0.816
3573	0.8051
3564	0.7833
3555	0.764
3546	0.7407
3537	0.7075
3528	0.6754
3519	0.6418
3510	0.6182
3501	0.5956
3492	0.5796
3483	0.5751
3474	0.5735
3465	0.5739
3456	0.5745
3447	0.5762
3438	0.5779
3429	0.5803
3420	0.5835
3411	0.5871
3402	0.5932
3393	0.5992
3384	0.6055
3375	0.6157
3366	0.6284
3357	0.6446
3348	0.6622
3339	0.6819
3330	0.7035
3321	0.7221
3312	0.7407
3303	0.7586
3294	0.7757
3285	0.7921
3276	0.8051
3267	0.8164
3258	0.8265
3249	0.8347
3240	0.8402
3231	0.8444
3222	0.8486
3213	0.8525
3204	0.8567
3195	0.8606
3186	0.8645
3177	0.8683
3168	0.8721
3159	0.8743
3150	0.8763
3141	0.8775
3132	0.8777
3123	0.8778
3114	0.8778
3105	0.8775
3096	0.8768
3087	0.8736
3078	0.8699
3069	0.8628
3060	0.7938
3051	0.7932
3042	0.798
3033	0.7715
3024	0.658
3015	0.5586
3006	0.5694
2997	0.4888
2988	0.3342
2979	0.1794
2970	0.0861
2961	0.0839
2952	0.1532
2943	0.1677
2934	0.1303
2925	0.0971
2916	0.1063
2907	0.1435
2898	0.1512
2889	0.1541
2880	0.1794
2871	0.2275
2862	0.2695
2853	0.3336
2844	0.326
2835	0.2789
2826	0.4327
2817	0.7033
2808	0.7886
2799	0.8334
2790	0.8452
2781	0.8544
2772	0.8614
2763	0.8628
2754	0.8599
2745	0.8527
2736	0.8344
2727	0.8089
2718	0.8588
2709	0.8791
2700	0.8845
2691	0.8839
2682	0.8785
2673	0.8758
2664	0.884
2655	0.8904
2646	0.8928
2637	0.8856
2628	0.8797
2619	0.8831
2610	0.8888
2601	0.8911
2592	0.8877
2583	0.8898
2574	0.8935
2565	0.8967
2556	0.8988
2547	0.8998
2538	0.9007
2529	0.9002
2520	0.8993
2511	0.897
2502	0.8959
2493	0.8956
2484	0.8953
2475	0.896
2466	0.8971
2457	0.8984
2448	0.8998
2439	0.9013
2430	0.9025
2421	0.9035
2412	0.9035
2403	0.9032
2394	0.903
2385	0.902
2376	0.9009
2367	0.9002
2358	0.9009
2349	0.9018
2340	0.903
2331	0.905
2322	0.9071
2313	0.9086
2304	0.9089
2295	0.9081
2286	0.9073
2277	0.9071
2268	0.9081
2259	0.9094
2250	0.9107
2241	0.912
2232	0.9133
2223	0.9134
2214	0.9136
2205	0.9138
2196	0.914
2187	0.9142
2178	0.9145
2169	0.9147
2160	0.9149
2151	0.9152
2142	0.9151
2133	0.9146
2124	0.9142
2115	0.9137
2106	0.9131
2097	0.9118
2088	0.9105
2079	0.9098
2070	0.9092
2061	0.9091
2052	0.9093
2043	0.9102
2034	0.9115
2025	0.9078
2016	0.9068
2007	0.9095
1998	0.9123
1989	0.9128
1980	0.9115
1971	0.9097
1962	0.9066
1953	0.9071
1944	0.908
1935	0.9088
1926	0.9094
1917	0.9097
1908	0.9097
1899	0.9097
1890	0.9093
1881	0.9085
1872	0.9082
1863	0.9082
1854	0.9083
1845	0.9077
1836	0.9067
1827	0.9078
1818	0.9089
1809	0.9092
1800	0.9086
1791	0.9073
1782	0.9058
1773	0.9041
1764	0.8999
1755	0.8921
1746	0.8816
1737	0.8862
1728	0.8901
1719	0.8883
1710	0.884
1701	0.8912
1692	0.8868
1683	0.8684
1674	0.8562
1665	0.8767
1656	0.8854
1647	0.8837
1638	0.8781
1629	0.8762
1620	0.8716
1611	0.8532
1602	0.8681
1593	0.8821
1584	0.8866
1575	0.8921
1566	0.9023
1557	0.9125
1548	0.9087
1539	0.9044
1530	0.8964
1521	0.8842
1512	0.7561
1503	0.8434
1494	0.8421
1485	0.7935
1476	0.7065
1467	0.5368
1458	0.4631
1449	0.441
1440	0.36
1431	0.476
1422	0.7338
1413	0.7418
1404	0.7296
1395	0.6756
1386	0.4609
1377	0.2769
1368	0.2679
1359	0.5004
1350	0.6303
1341	0.6371
1332	0.6276
1323	0.6207
1314	0.6505
1305	0.6486
1296	0.6167
1287	0.6109
1278	0.5986
1269	0.6828
1260	0.7221
1251	0.5944
1242	0.5781
1233	0.6373
1224	0.5304
1215	0.5275
1206	0.6143
1197	0.6314
1188	0.6382
1179	0.5415
1170	0.4124
1161	0.3607
1152	0.3693
1143	0.4551
1134	0.4349
1125	0.4251
1116	0.4828
1107	0.4439
1098	0.5176
1089	0.6505
1080	0.7051
1071	0.674
1062	0.7397
1053	0.7265
1044	0.6821
1035	0.6998
1026	0.753
1017	0.5582
1008	0.7398
999	0.7868
990	0.7487
981	0.7656
972	0.7314
963	0.7715
954	0.7182
945	0.5829
936	0.5819
927	0.4964
918	0.3932
909	0.3818
900	0.7601
891	0.805
882	0.8268
873	0.8403
864	0.8443
855	0.8409
846	0.8375
837	0.7504
828	0.6062
819	0.7938
810	0.8051
801	0.7445
792	0.567
783	0.78
774	0.7195
765	0.8207
756	0.8233
747	0.8284
738	0.8492
729	0.8494
720	0.8455
711	0.8407
702	0.8354
693	0.8301
684	0.8249
675	0.8206
666	0.8156
657	0.8054
648	0.791
639	0.7708
630	0.7643
621	0.7796
612	0.7787
603	0.7791
594	0.7765
585	0.7726
576	0.7646
567	0.7556
558	0.7493
549	0.7441
540	0.7126
531	0.7349
522	0.7389
513	0.7336
504	0.7035
495	0.6664
486	0.6393
477	0.6648
468	0.6379
459	0.6255
450	0.62
