Infrared Spectrum: CYCLOPENTANECARBOXYLIC ACID, 3-OXO-
Formula: C6 H8 O3
CAS: 98-78-2
State: SOLID (KBr DISC)
Class: COBLENTZ III
Instrument: PERKIN-ELMER 21 (GRATING)
Instrument parameters: FILTER CHANGE ABOUT 1085 CM^-^1
Sampling: TRANSMISSION
Resolution: 4
Origin: SOUTHERN RESEARCH INSTITUTE
1/CM	TRANSMITTANCE
606.157	0.857
614.665	0.859
623.173	0.858
631.68	0.8523
640.188	0.8391
648.696	0.8098
657.204	0.6696
665.711	0.5295
674.219	0.6098
682.727	0.8924
691.235	0.8876
699.742	0.857
708.25	0.7724
716.758	0.8474
725.266	0.835
733.773	0.8364
742.281	0.8179
750.789	0.785
759.297	0.782
767.804	0.7706
776.312	0.7428
784.82	0.73
793.328	0.7
801.835	0.6674
810.343	0.6395
818.851	0.6188
827.359	0.5791
835.866	0.5582
844.374	0.508
852.882	0.4367
861.39	0.3837
869.897	0.4256
878.405	0.4765
886.913	0.5461
895.421	0.6035
903.928	0.6027
912.436	0.5915
920.944	0.6689
929.452	0.6916
937.959	0.6866
946.467	0.6766
954.975	0.6892
963.483	0.6808
971.99	0.6372
980.498	0.727
989.006	0.6984
997.514	0.6707
1006.02	0.7775
1014.53	0.7837
1023.04	0.784
1031.54	0.783
1040.05	0.7792
1048.56	0.7635
1057.07	0.7392
1065.58	0.7167
1074.08	0.6979
1082.59	0.6801
1091.1	0.6692
1099.61	0.6547
1108.11	0.64
1116.62	0.6173
1125.13	0.5467
1133.64	0.4609
1142.15	0.3783
1150.65	0.3303
1159.16	0.2694
1167.67	0.1622
1176.18	0.0765
1184.68	0.1322
1193.19	0.2205
1201.7	0.1447
1210.21	0.1197
1218.72	0.1692
1227.22	0.2454
1235.73	0.2676
1244.24	0.3046
1252.75	0.2278
1261.25	0.3638
1269.76	0.3935
1278.27	0.4228
1286.78	0.4667
1295.29	0.459
1303.79	0.4847
1312.3	0.5544
1320.81	0.6046
1329.32	0.6303
1337.82	0.6234
1346.33	0.6151
1354.84	0.6352
1363.35	0.648
1371.86	0.6309
1380.36	0.5919
1388.87	0.5369
1397.38	0.4179
1405.89	0.2306
1414.39	0.2904
1422.9	0.3129
1431.41	0.3984
1439.92	0.5159
1448.42	0.5594
1456.93	0.598
1465.44	0.4864
1473.95	0.5882
1482.46	0.6894
1490.96	0.7012
1499.47	0.703
1507.98	0.6922
1516.49	0.688
1524.99	0.686
1533.5	0.6849
1542.01	0.68
1550.52	0.675
1559.03	0.665
1567.53	0.6642
1576.04	0.658
1584.55	0.6524
1593.06	0.6415
1601.56	0.6196
1610.07	0.5924
1618.58	0.5551
1627.09	0.5087
1635.6	0.4716
1644.1	0.4581
1652.61	0.4271
1661.12	0.3988
1669.63	0.3394
1678.13	0.288
1686.64	0.1725
1695.15	0.0989
1703.66	0.034
1712.17	0.0268
1720.67	0.0199
1729.18	0.0211
1737.69	0.025
1746.2	0.0748
1754.7	0.1461
1763.21	0.3005
1771.72	0.3842
1780.23	0.4252
1788.74	0.4891
1797.24	0.5086
1805.75	0.53
1814.26	0.5505
1822.77	0.567
1831.27	0.5818
1839.78	0.5959
1848.29	0.6096
1856.8	0.619
1865.3	0.6262
1873.81	0.634
1882.32	0.64
1890.83	0.6443
1899.34	0.6532
1907.84	0.6562
1916.35	0.658
1924.86	0.661
1933.37	0.661
1941.87	0.6632
1950.38	0.662
1958.89	0.6686
1967.4	0.665
1975.91	0.6734
1984.41	0.679
1992.92	0.6745
2001.43	0.676
2009.94	0.675
2018.44	0.68
2026.95	0.68
2035.46	0.677
2043.97	0.6779
2052.48	0.681
2060.98	0.677
2069.49	0.677
2078	0.6792
2086.51	0.679
2095.01	0.6765
2103.52	0.6738
2112.03	0.6738
2120.54	0.673
2129.05	0.6713
2137.55	0.675
2146.06	0.6698
2154.57	0.668
2163.08	0.667
2171.58	0.6702
2180.09	0.667
2188.6	0.6642
2197.11	0.664
2205.62	0.6653
2214.12	0.662
2222.63	0.663
2231.14	0.659
2239.65	0.659
2248.15	0.6582
2256.66	0.6612
2265.17	0.6607
2273.68	0.6508
2282.18	0.6458
2290.69	0.6408
2299.2	0.638
2307.71	0.644
2316.22	0.6448
2324.72	0.642
2333.23	0.639
2341.74	0.6356
2350.25	0.6168
2358.75	0.6097
2367.26	0.6062
2375.77	0.6048
2384.28	0.6
2392.79	0.601
2401.29	0.598
2409.8	0.5917
2418.31	0.5888
2426.82	0.582
2435.32	0.579
2443.83	0.5695
2452.34	0.5576
2460.85	0.5488
2469.36	0.543
2477.86	0.5388
2486.37	0.535
2494.88	0.5307
2503.39	0.5227
2511.89	0.513
2520.4	0.507
2528.91	0.506
2537.42	0.507
2545.93	0.5103
2554.43	0.508
2562.94	0.507
2571.45	0.502
2579.96	0.4968
2588.46	0.495
2596.97	0.495
2605.48	0.4972
2613.99	0.497
2622.5	0.496
2631	0.497
2639.51	0.496
2648.02	0.4866
2656.53	0.483
2665.03	0.484
2673.54	0.489
2682.05	0.4832
2690.56	0.481
2699.06	0.4738
2707.57	0.4698
2716.08	0.469
2724.59	0.466
2733.1	0.4668
2741.6	0.462
2750.11	0.464
2758.62	0.466
2767.13	0.452
2775.63	0.451
2784.14	0.4325
2792.65	0.4278
2801.16	0.4195
2809.67	0.4093
2818.17	0.3938
2826.68	0.3795
2835.19	0.3608
2843.7	0.3427
2852.2	0.3231
2860.71	0.3001
2869.22	0.2727
2877.73	0.2646
2886.24	0.261
2894.74	0.263
2903.25	0.2566
2911.76	0.249
2920.27	0.236
2928.77	0.234
2937.28	0.2216
2945.79	0.207
2954.3	0.199
2962.81	0.196
2971.31	0.199
2979.82	0.194
2988.33	0.194
2996.84	0.1928
3005.34	0.1795
3013.85	0.1698
3022.36	0.1666
3030.87	0.161
3039.38	0.161
3047.88	0.158
3056.39	0.156
3064.9	0.154
3073.41	0.1505
3081.91	0.1448
3090.42	0.142
3098.93	0.142
3107.44	0.1376
3115.94	0.1452
3124.45	0.1472
3132.96	0.1532
3141.47	0.1562
3149.98	0.1632
3158.48	0.169
3166.99	0.169
3175.5	0.18
3184.01	0.1823
3192.51	0.1919
3201.02	0.2032
3209.53	0.2099
3218.04	0.2252
3226.55	0.2382
3235.05	0.2502
3243.56	0.257
3252.07	0.2592
3260.58	0.2723
3269.08	0.279
3277.59	0.2832
3286.1	0.296
3294.61	0.302
3303.12	0.3132
3311.62	0.3192
3320.13	0.3263
3328.64	0.3312
3337.15	0.3362
3345.65	0.3402
3354.16	0.3452
3362.67	0.349
3371.18	0.349
3379.69	0.348
3388.19	0.349
3396.7	0.352
3405.21	0.355
3413.72	0.358
3422.22	0.3664
3430.73	0.371
3439.24	0.3893
3447.75	0.394
3456.26	0.4057
3464.76	0.409
3473.27	0.411
3481.78	0.4202
3490.29	0.424
3498.79	0.435
3507.3	0.4392
3515.81	0.444
3524.32	0.4492
3532.82	0.4512
3541.33	0.4562
3549.84	0.456
3558.35	0.4632
3566.86	0.4723
3575.36	0.4783
3583.87	0.4784
3592.38	0.4842
3600.89	0.4922
3609.39	0.495
3617.9	0.4972
3626.41	0.4997
3634.92	0.496
3643.43	0.5002
3651.93	0.503
3660.44	0.501
3668.95	0.498
3677.46	0.5
3685.96	0.502
3694.47	0.502
3702.98	0.502
3711.49	0.502
3720	0.4997
3728.5	0.4952
3737.01	0.5
3745.52	0.496
3754.03	0.49
3762.53	0.492
3771.04	0.487
3779.55	0.4913
3788.06	0.4984
3796.57	0.498
3805.07	0.5
3813.58	0.4946
3822.09	0.491
3830.6	0.492
3839.1	0.492
3847.61	0.492
3856.12	0.489
3864.63	0.4887
3873.14	0.4868
3881.64	0.485
3890.15	0.485
3898.66	0.485
