Infrared Spectrum: ETHANONE, 1-PHENYL-
Formula: C8 H8 O
CAS: 98-86-2
State: VAPOR (12 MICROLITER AT 150 C)
Boiling point: 202 C
Class: COBLENTZ
Instrument: PERKIN-ELMER 180
Sampling: TRANSMISSION
Path length: 5 CM KBr CELL, CELL VOLUME: 80 CM^3
Resolution: 2-3 CM^-^1
Origin: PERKIN-ELMER CORP. (M. ZELLER)
1/CM	TRANSMITTANCE
398.636	0.477
408.184	0.535
417.732	0.6039
427.281	0.654
436.829	0.695
446.377	0.732
455.925	0.771
465.473	0.8099
475.021	0.832
484.57	0.844
494.118	0.857
503.666	0.843
513.214	0.849
522.762	0.849
532.311	0.852
541.859	0.86
551.407	0.86
560.955	0.832
570.503	0.6613
580.052	0.491
589.6	0.531
599.148	0.7559
608.696	0.832
618.244	0.859
627.792	0.868
637.341	0.872
646.889	0.864
656.437	0.8411
665.985	0.7721
675.533	0.644
685.082	0.531
694.63	0.6039
704.178	0.692
713.726	0.79
723.274	0.82
732.823	0.791
742.371	0.664
751.919	0.5522
761.467	0.5719
771.015	0.682
780.563	0.815
790.112	0.847
799.66	0.849
809.208	0.863
818.756	0.872
828.304	0.874
837.853	0.874
847.401	0.879
856.949	0.88
866.497	0.882
876.045	0.876
885.593	0.867
895.142	0.861
904.69	0.857
914.238	0.849
923.786	0.837
933.334	0.783
942.883	0.6561
952.431	0.649
961.979	0.745
971.527	0.832
981.075	0.853
990.624	0.855
1000.17	0.833
1009.72	0.791
1019.27	0.745
1028.82	0.771
1038.36	0.838
1047.91	0.837
1057.46	0.811
1067.01	0.79
1076.56	0.78
1086.11	0.801
1095.65	0.821
1105.2	0.84
1114.75	0.844
1124.3	0.843
1133.85	0.843
1143.39	0.834
1152.94	0.818
1162.49	0.792
1172.04	0.709
1181.59	0.713
1191.14	0.782
1200.68	0.803
1210.23	0.79
1219.78	0.736
1229.33	0.6111
1238.88	0.4392
1248.42	0.163
1257.97	0.079
1267.52	0.2548
1277.07	0.7
1286.62	0.749
1296.17	0.738
1305.71	0.736
1315.26	0.767
1324.81	0.798
1334.36	0.78
1343.91	0.664
1353.45	0.43
1363	0.393
1372.55	0.541
1382.1	0.706
1391.65	0.759
1401.2	0.769
1410.74	0.76
1420.29	0.737
1429.84	0.702
1439.39	0.63
1448.94	0.633
1458.48	0.675
1468.03	0.772
1477.58	0.801
1487.13	0.805
1496.68	0.805
1506.23	0.799
1515.77	0.798
1525.32	0.798
1534.87	0.786
1544.42	0.783
1553.97	0.783
1563.51	0.774
1573.06	0.74
1582.61	0.702
1592.16	0.664
1601.71	0.675
1611.26	0.7209
1620.8	0.768
1630.35	0.79
1639.9	0.79
1649.45	0.764
1659	0.734
1668.54	0.709
1678.09	0.6101
1687.64	0.334
1697.19	0.098
1706.74	0.09
1716.29	0.3279
1725.83	0.645
1735.38	0.732
1744.93	0.742
1754.48	0.76
1764.03	0.795
1773.57	0.818
1783.12	0.829
1792.67	0.82
1802.22	0.81
1811.77	0.82
1821.32	0.836
1830.86	0.838
1840.41	0.837
1849.96	0.838
1859.51	0.843
1869.06	0.837
1878.6	0.83
1888.15	0.821
1897.7	0.821
1907.25	0.826
1916.8	0.834
1926.35	0.837
1935.89	0.832
1945.44	0.822
1954.99	0.818
1964.54	0.813
1974.09	0.82
1983.63	0.822
1993.18	0.829
2002.73	0.834
2012.28	0.833
2021.83	0.833
2031.38	0.834
2040.92	0.832
2050.47	0.83
2060.02	0.8309
2069.57	0.833
2079.12	0.83
2088.66	0.8288
2098.21	0.826
2107.76	0.8254
2117.31	0.829
2126.86	0.829
2136.41	0.829
2145.95	0.8253
2155.5	0.8292
2165.05	0.829
2174.6	0.828
2184.15	0.828
2193.69	0.8245
2203.24	0.821
2212.79	0.82
2222.34	0.822
2231.89	0.822
2241.44	0.8214
2250.98	0.821
2260.53	0.82
2270.08	0.8179
2279.63	0.8156
2289.18	0.8137
2298.72	0.8113
2308.27	0.8087
2317.82	0.806
2327.37	0.806
2336.92	0.807
2346.47	0.8097
2356.01	0.809
2365.56	0.8072
2375.11	0.8065
2384.66	0.811
2394.21	0.811
2403.76	0.81
2413.3	0.809
2422.85	0.8083
2432.4	0.807
2441.95	0.8025
2451.5	0.8051
2461.04	0.807
2470.59	0.807
2480.14	0.807
2489.69	0.806
2499.24	0.803
2508.79	0.801
2518.33	0.801
2527.88	0.802
2537.43	0.8035
2546.98	0.8022
2556.53	0.801
2566.07	0.799
2575.62	0.797
2585.17	0.7989
2594.72	0.798
2604.27	0.799
2613.82	0.798
2623.36	0.797
2632.91	0.795
2642.46	0.7962
2652.01	0.7937
2661.56	0.792
2671.1	0.795
2680.65	0.7971
2690.2	0.7931
2699.75	0.791
2709.3	0.792
2718.85	0.791
2728.39	0.79
2737.94	0.7876
2747.49	0.7801
2757.04	0.7875
2766.59	0.7829
2776.13	0.784
2785.68	0.783
2795.23	0.7822
2804.78	0.7796
2814.33	0.775
2823.88	0.7745
2833.42	0.769
2842.97	0.7649
2852.52	0.7585
2862.07	0.7598
2871.62	0.7618
2881.16	0.756
2890.71	0.759
2900.26	0.7586
2909.81	0.7513
2919.36	0.7417
2928.91	0.7334
2938.45	0.733
2948	0.7319
2957.55	0.7262
2967.1	0.7134
2976.65	0.728
2986.19	0.7271
2995.74	0.6992
3005.29	0.6642
3014.84	0.65
3024.39	0.6332
3033.94	0.6178
3043.48	0.6089
3053.03	0.5809
3062.58	0.5235
3072.13	0.5326
3081.68	0.5886
3091.22	0.6117
3100.77	0.6754
3110.32	0.7229
3119.87	0.7392
3129.42	0.746
3138.97	0.746
3148.51	0.7419
3158.06	0.7434
3167.61	0.746
3177.16	0.7477
3186.71	0.749
3196.25	0.748
3205.8	0.7471
3215.35	0.7477
3224.9	0.749
3234.45	0.7487
3244	0.7523
3253.54	0.751
3263.09	0.749
3272.64	0.752
3282.19	0.7522
3291.74	0.752
3301.28	0.7504
3310.83	0.748
3320.38	0.749
3329.93	0.749
3339.48	0.7484
3349.03	0.7458
3358.57	0.742
3368.12	0.7333
3377.67	0.7215
3387.22	0.72
3396.77	0.7253
3406.31	0.7379
3415.86	0.7412
3425.41	0.7448
3434.96	0.746
3444.51	0.745
3454.06	0.7455
3463.6	0.748
3473.15	0.748
3482.7	0.7457
3492.25	0.744
3501.8	0.7416
3511.34	0.741
3520.89	0.742
3530.44	0.742
3539.99	0.7403
3549.54	0.7377
3559.09	0.7379
3568.63	0.737
3578.18	0.734
3587.73	0.734
3597.28	0.735
3606.83	0.7335
3616.37	0.736
3625.92	0.7339
3635.47	0.73
3645.02	0.73
3654.57	0.73
3664.12	0.732
3673.66	0.732
3683.21	0.7296
3692.76	0.729
3702.31	0.727
3711.86	0.7253
3721.4	0.728
3730.95	0.7275
3740.5	0.7252
3750.05	0.725
3759.6	0.722
3769.15	0.7225
3778.69	0.728
3788.24	0.7236
3797.79	0.7265
3807.34	0.7235
3816.89	0.722
3826.43	0.722
3835.98	0.7184
3845.53	0.719
3855.08	0.721
3864.63	0.7177
3874.18	0.715
3883.72	0.717
3893.27	0.718
3902.82	0.715
3912.37	0.714
3921.92	0.713
3931.46	0.7143
3941.01	0.7131
3950.56	0.7095
3960.11	0.7101
3969.66	0.713
3979.21	0.7138
3988.75	0.7126
