Infrared Spectrum: BENZOYL CHLORIDE
Formula: C7 H5 Cl O
CAS: 98-88-4
State: SOLUTION (2% IN CCl4 FOR 3800-1330, 2% IN CS2 FOR 1330-400 CM^-^1)
Melting point: 0 C
Class: COBLENTZ III
Instrument: DOW KBr FOREPRISM-GRATING
Instrument parameters: BLAZED AT 3.5, 12.0, 20.0 MICRON, CHANGED AT 5.0, 7.5, 14.9 MICRON
Sampling: TRANSMISSION
Path length: 0.011, 0.012 CM
Resolution: 4
Origin: DOW CHEMICAL COMPANY
1/CM	TRANSMITTANCE
451.97	0.915
461.206	0.916
470.443	0.916
479.679	0.914
488.916	0.914
498.152	0.904
507.389	0.925
516.625	0.936
525.862	0.945
535.098	0.957
544.335	0.971
553.571	0.972
562.808	0.979
572.044	0.982
581.281	0.978
590.517	0.984
599.754	0.982
608.99	0.964
618.227	0.958
627.463	0.949
636.7	0.896
645.936	0.446
655.173	0.815
664.409	0.422
673.646	0.591
682.882	0.285
692.119	0.885
701.355	0.949
710.592	0.975
719.828	0.975
729.065	0.989
738.301	0.988
747.537	0.965
756.774	0.987
766.01	0.892
775.247	0.883
784.483	0.974
793.72	0.971
802.956	0.968
812.193	0.974
821.429	0.958
830.666	0.924
839.902	0.815
849.139	0.647
858.375	0.451
867.612	0.121
876.848	0.3331
886.085	0.717
895.321	0.873
904.558	0.924
913.794	0.949
923.031	0.974
932.267	0.961
941.504	1.005
950.74	1.014
959.977	1.007
969.213	1.004
978.45	1.001
987.686	1.001
996.923	0.9889
1006.16	0.995
1015.4	0.995
1024.63	0.942
1033.87	1
1043.1	1
1052.34	1.004
1061.58	0.988
1070.81	0.962
1080.05	0.982
1089.29	0.977
1098.52	0.964
1107.76	0.981
1117	0.985
1126.23	0.985
1135.47	0.971
1144.71	0.968
1153.94	0.949
1163.18	0.835
1172.42	0.316
1181.65	0.839
1190.89	0.752
1200.13	0.3629
1209.36	0.5951
1218.6	0.942
1227.83	0.987
1237.07	0.962
1246.31	0.971
1255.54	0.979
1264.78	0.979
1274.02	0.985
1283.25	0.984
1292.49	0.968
1301.73	0.961
1310.96	0.958
1320.2	0.977
1329.44	0.989
1338.67	0.979
1347.91	0.992
1357.15	1.011
1366.38	1.015
1375.62	1.014
1384.85	1.017
1394.09	1.011
1403.33	1.015
1412.56	1.002
1421.8	0.998
1431.04	0.995
1440.27	0.964
1449.51	0.4369
1458.75	0.968
1467.98	0.959
1477.22	0.942
1486.46	0.895
1495.69	0.871
1504.93	0.815
1514.17	0.74
1523.4	0.691
1532.64	0.593
1541.88	0.491
1551.11	0.492
1560.35	0.577
1569.58	0.646
1578.82	0.5979
1588.06	0.693
1597.29	0.7961
1606.53	0.914
1615.77	0.936
1625	0.985
1634.24	1.008
1643.48	1.022
1652.71	1.001
1661.95	0.992
1671.19	0.985
1680.42	0.978
1689.66	0.964
1698.9	0.935
1708.13	0.892
1717.37	0.815
1726.6	0.6279
1735.84	0.531
1745.08	0.707
1754.31	0.694
1763.55	0.5239
1772.79	0.14
1782.02	0.5271
1791.26	0.852
1800.5	0.928
1809.73	0.926
1818.97	0.958
1828.21	0.968
1837.44	0.977
1846.68	0.977
1855.92	0.981
1865.15	0.987
1874.39	0.985
1883.63	0.989
1892.86	0.989
1902.1	0.971
1911.33	0.984
1920.57	0.982
1929.81	0.988
1939.04	0.994
1948.28	0.997
1957.52	0.991
1966.75	0.977
1975.99	0.984
1985.23	0.977
1994.46	0.991
2003.7	1.002
2012.94	1.001
2022.17	1.004
2031.41	1.001
2040.65	1.001
2049.88	1.0002
2059.12	1.0042
2068.35	1.0035
2077.59	1
2086.83	1.002
2096.06	1.005
2105.3	1.007
2114.54	1.008
2123.77	1.005
2133.01	1.003
2142.25	1.004
2151.48	1.004
2160.72	1.004
2169.96	1.002
2179.19	1.0033
2188.43	1.004
2197.67	1.004
2206.9	1.002
2216.14	1.002
2225.37	1.002
2234.61	1.001
2243.85	1
2253.08	0.9952
2262.32	0.9891
2271.56	0.982
2280.79	0.978
2290.03	0.9781
2299.27	0.9811
2308.5	0.987
2317.74	0.9953
2326.98	1.0024
2336.21	1.002
2345.45	1.0007
2354.69	1.0206
2363.92	1.007
2373.16	1.0006
2382.4	0.998
2391.63	0.998
2400.87	1
2410.1	1
2419.34	1.001
2428.58	1.0016
2437.81	1.002
2447.05	1.002
2456.29	1.002
2465.52	1.002
2474.76	1.001
2484	1.001
2493.23	1.001
2502.47	1.001
2511.71	1.001
2520.94	1.001
2530.18	1
2539.42	1
2548.65	1
2557.89	1
2567.12	0.998
2576.36	0.997
2585.6	0.997
2594.83	0.997
2604.07	0.997
2613.31	0.997
2622.54	0.9973
2631.78	0.9973
2641.02	0.997
2650.25	0.994
2659.49	0.994
2668.73	0.995
2677.96	0.992
2687.2	0.994
2696.44	0.9976
2705.67	0.998
2714.91	0.998
2724.15	0.997
2733.38	0.997
2742.62	0.998
2751.85	0.9947
2761.09	0.989
2770.33	0.991
2779.56	0.991
2788.8	0.9881
2798.04	0.9849
2807.27	0.9939
2816.51	0.991
2825.75	0.992
2834.98	0.9879
2844.22	0.977
2853.46	0.981
2862.69	0.9845
2871.93	0.985
2881.17	0.9835
2890.4	0.982
2899.64	0.9787
2908.87	0.9747
2918.11	0.9727
2927.35	0.972
2936.58	0.978
2945.82	0.9785
2955.06	0.978
2964.29	0.9785
2973.53	0.9831
2982.77	0.987
2992	0.9921
3001.24	0.9827
3010.48	0.981
3019.71	0.9843
3028.95	0.978
3038.19	0.977
3047.42	0.969
3056.66	0.9541
3065.9	0.9353
3075.13	0.929
3084.37	0.9739
3093.6	0.981
3102.84	0.9891
3112.08	0.9971
3121.31	1.0011
3130.55	1.004
3139.79	1.005
3149.02	1.005
3158.26	1.005
3167.5	1.0034
3176.73	1.0026
3185.97	1.0074
3195.21	1.011
3204.44	1.011
3213.68	1.014
3222.92	1.0145
3232.15	1.018
3241.39	1.0159
3250.62	1.018
3259.86	1.0144
3269.1	1.017
3278.33	1.015
3287.57	1.021
3296.81	1.021
3306.04	1.021
3315.28	1.024
3324.52	1.02
3333.75	1.021
3342.99	1.022
3352.23	1.022
3361.46	1.015
3370.7	1.017
3379.94	1.021
3389.17	1.0241
3398.41	1.024
3407.64	1.022
3416.88	1.02
3426.12	1.018
3435.35	1.0135
3444.59	1.008
3453.83	1.005
3463.06	1.0033
3472.3	1.0006
3481.54	0.9976
3490.77	0.9945
3500.01	0.991
3509.25	0.989
3518.48	0.992
3527.72	0.998
3536.96	0.995
3546.19	0.998
3555.43	0.9994
3564.67	0.997
3573.9	0.998
3583.14	1.002
3592.37	1.0012
3601.61	0.9983
3610.85	0.997
3620.08	0.994
3629.32	0.994
3638.56	0.995
3647.79	0.992
3657.03	0.989
3666.27	0.9941
3675.5	0.995
3684.74	0.9918
3693.98	0.988
3703.21	0.9895
3712.45	0.994
3721.69	0.9989
3730.92	1.001
3740.16	1
3749.39	0.997
3758.63	0.995
3767.87	0.994
3777.1	0.992
3786.34	0.989
