Infrared Spectrum: BENZENE, (1-METHYLETHYL)-
Formula: C9 H12
CAS: 98-82-8
State: SOLUTION (10% IN CCl4 FOR 3800-1300, 10% IN CS2 FOR 1300-650, AND 10% CCl4 FOR 650-240 CM^-^1) VERSUS SOLVENT
Class: COBLENTZ III
Instrument: PERKIN-ELMER 521 (GRATING)
Instrument parameters: FILTERS AT 3150, 2500, 2000, 1150, 700, 410; GRATING CHANGES AT 2000, 630 CM^-^1
Sampling: TRANSMISSION
Path length: 0.011, 0.010, AND 0.010 CM (CsBr CELL)
Resolution: 4
Origin: DOW CORNING CORP.
1/CM	TRANSMITTANCE
231.983	0.853
240.938	0.841
249.893	0.839
258.849	0.835
267.804	0.837
276.759	0.846
285.714	0.856
294.67	0.863
303.625	0.87
312.58	0.874
321.535	0.876
330.49	0.883
339.446	0.891
348.401	0.895
357.356	0.895
366.311	0.897
375.266	0.9
384.222	0.905
393.177	0.907
402.132	0.904
411.087	0.91
420.043	0.914
428.998	0.914
437.953	0.916
446.908	0.917
455.863	0.917
464.819	0.916
473.774	0.93
482.729	0.935
491.684	0.935
500.64	0.917
509.595	0.897
518.55	0.86
527.505	0.787
536.46	0.689
545.416	0.783
554.371	0.825
563.326	0.835
572.281	0.89
581.237	0.874
590.192	0.938
599.147	0.949
608.102	0.94
617.057	0.938
626.013	0.968
634.968	0.968
643.923	0.965
652.878	0.972
661.833	0.968
670.789	0.945
679.744	0.888
688.699	0.8201
697.654	0.2466
706.61	0.0949
715.565	0.8337
724.52	0.938
733.475	0.924
742.43	0.8511
751.386	0.8061
760.341	0.3402
769.296	0.4392
778.251	0.9579
787.207	1.006
796.162	1.031
805.117	1.029
814.072	1.019
823.027	1.003
831.983	0.951
840.938	0.945
849.893	1.017
858.848	1.013
867.804	1.003
876.759	0.991
885.714	0.98
894.669	0.954
903.624	0.8301
912.58	0.952
921.535	0.8981
930.49	0.986
939.445	0.984
948.4	0.97
957.356	0.972
966.311	0.982
975.266	0.989
984.221	0.989
993.177	0.98
1002.13	0.97
1011.09	0.968
1020.04	0.8911
1029	0.549
1037.95	0.928
1046.91	0.7534
1055.86	0.8949
1064.82	0.931
1073.77	0.8212
1082.73	0.71
1091.68	0.942
1100.64	0.8881
1109.59	0.905
1118.55	0.977
1127.5	0.977
1136.46	0.949
1145.42	0.916
1154.37	0.874
1163.33	0.916
1172.28	0.924
1181.24	0.919
1190.19	0.954
1199.15	0.944
1208.1	0.931
1217.06	0.958
1226.01	0.965
1234.97	0.963
1243.92	0.965
1252.88	0.959
1261.83	0.8411
1270.79	0.865
1279.74	0.7902
1288.7	0.898
1297.65	0.842
1306.61	0.823
1315.56	0.802
1324.52	0.72
1333.47	0.762
1342.43	0.801
1351.39	0.771
1360.34	0.71
1369.3	0.7595
1378.25	0.7121
1387.21	0.457
1396.16	0.862
1405.12	0.87
1414.07	0.87
1423.03	0.853
1431.98	0.788
1440.94	0.6871
1449.89	0.321
1458.85	0.5313
1467.8	0.336
1476.76	0.759
1485.71	0.715
1494.67	0.2582
1503.62	0.7659
1512.58	0.862
1521.53	0.89
1530.49	0.891
1539.44	0.895
1548.4	0.921
1557.36	0.919
1566.31	0.914
1575.27	0.893
1584.22	0.855
1593.18	0.8061
1602.13	0.593
1611.09	0.7917
1620.04	0.912
1629	0.917
1637.95	0.914
1646.91	0.91
1655.86	0.9
1664.82	0.886
1673.77	0.907
1682.73	0.912
1691.68	0.914
1700.64	0.914
1709.59	0.914
1718.55	0.914
1727.5	0.91
1736.46	0.893
1745.41	0.877
1754.37	0.914
1763.33	0.917
1772.28	0.916
1781.24	0.912
1790.19	0.904
1799.15	0.858
1808.1	0.883
1817.06	0.897
1826.01	0.917
1834.97	0.919
1843.92	0.916
1852.88	0.907
1861.83	0.883
1870.79	0.856
1879.74	0.874
1888.7	0.893
1897.65	0.914
1906.61	0.917
1915.56	0.914
1924.52	0.91
1933.47	0.881
1942.43	0.823
1951.38	0.876
1960.34	0.872
1969.3	0.914
1978.25	0.924
1987.21	0.928
1996.16	0.93
2005.12	0.928
2014.07	0.928
2023.03	0.928
2031.98	0.9289
2040.94	0.93
2049.89	0.93
2058.85	0.928
2067.8	0.928
2076.76	0.9261
2085.71	0.926
2094.67	0.926
2103.62	0.923
2112.58	0.926
2121.53	0.926
2130.49	0.926
2139.44	0.926
2148.4	0.924
2157.35	0.924
2166.31	0.9239
2175.27	0.924
2184.22	0.923
2193.18	0.923
2202.13	0.921
2211.09	0.919
2220.04	0.917
2229	0.916
2237.95	0.916
2246.91	0.914
2255.86	0.914
2264.82	0.914
2273.77	0.916
2282.73	0.916
2291.68	0.917
2300.64	0.917
2309.59	0.9163
2318.55	0.916
2327.5	0.916
2336.46	0.914
2345.41	0.916
2354.37	0.916
2363.33	0.916
2372.28	0.916
2381.24	0.916
2390.19	0.916
2399.15	0.917
2408.1	0.917
2417.06	0.916
2426.01	0.916
2434.97	0.916
2443.92	0.916
2452.88	0.916
2461.83	0.916
2470.79	0.916
2479.74	0.914
2488.7	0.914
2497.65	0.914
2506.61	0.916
2515.56	0.916
2524.52	0.916
2533.47	0.916
2542.43	0.916
2551.38	0.914
2560.34	0.912
2569.3	0.909
2578.25	0.904
2587.21	0.9
2596.16	0.901
2605.12	0.905
2614.07	0.911
2623.03	0.912
2631.98	0.912
2640.94	0.914
2649.89	0.914
2658.85	0.9121
2667.8	0.91
2676.76	0.9139
2685.71	0.916
2694.67	0.914
2703.62	0.9082
2712.58	0.904
2721.53	0.902
2730.49	0.9049
2739.44	0.907
2748.4	0.9041
2757.35	0.902
2766.31	0.9067
2775.27	0.907
2784.22	0.9042
2793.18	0.8887
2802.13	0.8703
2811.09	0.87
2820.04	0.872
2829	0.8629
2837.95	0.8425
2846.91	0.7937
2855.86	0.7456
2864.82	0.5792
2873.77	0.336
2882.73	0.437
2891.68	0.412
2900.64	0.4677
2909.59	0.4887
2918.55	0.4655
2927.5	0.3412
2936.46	0.3005
2945.41	0.387
2954.37	0.28
2963.32	0.032
2972.28	0.0456
2981.24	0.2948
2990.19	0.5133
2999.15	0.6489
3008.1	0.6918
3017.06	0.5957
3026.01	0.4676
3034.97	0.3574
3043.92	0.694
3052.88	0.6708
3061.83	0.5711
3070.79	0.5947
3079.74	0.5946
3088.7	0.5976
3097.65	0.7846
3106.61	0.82
3115.56	0.8888
3124.52	0.9131
3133.47	0.919
3142.43	0.917
3151.38	0.916
3160.34	0.914
3169.29	0.916
3178.25	0.9165
3187.21	0.919
3196.16	0.921
3205.12	0.923
3214.07	0.928
3223.03	0.931
3231.98	0.9339
3240.94	0.935
3249.89	0.933
3258.85	0.933
3267.8	0.9306
3276.76	0.93
3285.71	0.93
3294.67	0.93
3303.62	0.928
3312.58	0.9298
3321.53	0.928
3330.49	0.926
3339.44	0.926
3348.4	0.9243
3357.35	0.924
3366.31	0.924
3375.26	0.924
3384.22	0.924
3393.18	0.921
3402.13	0.9194
3411.09	0.919
3420.04	0.916
3429	0.919
3437.95	0.9206
3446.91	0.9204
3455.86	0.921
3464.82	0.9204
3473.77	0.9162
3482.73	0.9085
3491.68	0.9005
3500.64	0.8925
3509.59	0.8865
3518.55	0.8869
3527.5	0.8977
3536.46	0.8924
3545.41	0.8874
3554.37	0.91
3563.32	0.9254
3572.28	0.9314
3581.23	0.933
3590.19	0.935
3599.15	0.935
3608.1	0.935
3617.06	0.9363
3626.01	0.9374
3634.97	0.9374
3643.92	0.935
3652.88	0.94
3661.83	0.9377
3670.79	0.9354
3679.74	0.937
3688.7	0.938
3697.65	0.942
3706.61	0.94
3715.56	0.937
3724.52	0.937
3733.47	0.938
3742.43	0.9361
3751.38	0.938
3760.34	0.94
3769.29	0.942
3778.25	0.942
3787.2	0.94
3796.16	0.937
