Infrared Spectrum: NICOTINAMIDE
Formula: C6 H6 N2 O
CAS: 98-92-0
State: SOLID (1 mg / 200 mg KBr DISC) VS KBr
Melting point: 128-131 C
Class: COBLENTZ III
Instrument: PERKIN-ELMER 21 (GRATING)
Instrument parameters: FILTER AT ABOUT 10 MICRONS
Sampling: TRANSMISSION
Path length: 0.055 CM (THICKNESS)
Resolution: 2
1/CM	TRANSMITTANCE
4000	0.714
3991	0.7156
3982	0.7171
3973	0.7185
3964	0.7199
3955	0.7214
3946	0.7228
3937	0.7244
3928	0.7258
3919	0.7274
3910	0.7288
3901	0.7303
3892	0.7318
3883	0.7334
3874	0.7349
3865	0.7364
3856	0.7378
3847	0.7393
3838	0.7408
3829	0.7422
3820	0.7438
3811	0.7453
3802	0.7468
3793	0.7484
3784	0.7499
3775	0.7514
3766	0.753
3757	0.7548
3748	0.7567
3739	0.7585
3730	0.7604
3721	0.7622
3712	0.7642
3703	0.7661
3694	0.768
3685	0.7703
3676	0.773
3667	0.7756
3658	0.7782
3649	0.7808
3640	0.7837
3631	0.7864
3622	0.789
3613	0.7915
3604	0.7943
3595	0.7968
3586	0.7995
3577	0.8014
3568	0.8031
3559	0.8047
3550	0.8064
3541	0.8081
3532	0.8099
3523	0.8115
3514	0.8131
3505	0.8146
3496	0.8161
3487	0.8168
3478	0.8171
3469	0.8165
3460	0.8139
3451	0.7996
3442	0.7387
3433	0.6699
3424	0.6008
3415	0.5312
3406	0.4612
3397	0.3909
3388	0.3203
3379	0.2493
3370	0.1849
3361	0.1784
3352	0.1787
3343	0.187
3334	0.2166
3325	0.2474
3316	0.2784
3307	0.3097
3298	0.3312
3289	0.3459
3280	0.3614
3271	0.3743
3262	0.3842
3253	0.392
3244	0.3953
3235	0.3936
3226	0.3906
3217	0.3836
3208	0.3727
3199	0.3559
3190	0.3274
3181	0.3103
3172	0.2971
3163	0.2881
3154	0.2854
3145	0.285
3136	0.2947
3127	0.3092
3118	0.3208
3109	0.3342
3100	0.348
3091	0.3664
3082	0.3816
3073	0.3955
3064	0.4094
3055	0.4234
3046	0.4374
3037	0.4509
3028	0.4644
3019	0.4803
3010	0.5019
3001	0.5183
2992	0.5327
2983	0.55
2974	0.5679
2965	0.5798
2956	0.5914
2947	0.605
2938	0.6197
2929	0.631
2920	0.6415
2911	0.6504
2902	0.6591
2893	0.6667
2884	0.6742
2875	0.6808
2866	0.6871
2857	0.6914
2848	0.6954
2839	0.6976
2830	0.699
2821	0.6997
2812	0.6993
2803	0.6971
2794	0.6908
2785	0.6832
2776	0.6762
2767	0.6762
2758	0.6784
2749	0.6846
2740	0.6932
2731	0.7028
2722	0.7122
2713	0.7199
2704	0.7275
2695	0.7351
2686	0.7425
2677	0.748
2668	0.7535
2659	0.7589
2650	0.7636
2641	0.7685
2632	0.7732
2623	0.7771
2614	0.7811
2605	0.7851
2596	0.7897
2587	0.7944
2578	0.7991
2569	0.8025
2560	0.8058
2551	0.8087
2542	0.8108
2533	0.8103
2524	0.8099
2515	0.8097
2506	0.8104
2497	0.8122
2488	0.8174
2479	0.8208
2470	0.8225
2461	0.8237
2452	0.824
2443	0.8249
2434	0.8278
2425	0.831
2416	0.8328
2407	0.8348
2398	0.8357
2389	0.8361
2380	0.8354
2371	0.8346
2362	0.8337
2353	0.8336
2344	0.8337
2335	0.8344
2326	0.8365
2317	0.8398
2308	0.8454
2299	0.8508
2290	0.8523
2281	0.8515
2272	0.8518
2263	0.8528
2254	0.8564
2245	0.8607
2236	0.8643
2227	0.8668
2218	0.8689
2209	0.8696
2200	0.8707
2191	0.8718
2182	0.8743
2173	0.8773
2164	0.8812
2155	0.8851
2146	0.8877
2137	0.8893
2128	0.891
2119	0.8925
2110	0.8941
2101	0.8956
2092	0.8971
2083	0.8987
2074	0.9002
2065	0.9017
2056	0.9034
2047	0.9055
2038	0.9068
2029	0.9078
2020	0.9083
2011	0.9082
2002	0.9066
1993	0.9054
1984	0.9063
1975	0.9075
1966	0.9041
1957	0.9018
1948	0.9041
1939	0.9049
1930	0.9047
1921	0.9055
1912	0.9085
1903	0.9134
1894	0.9181
1885	0.9204
1876	0.9212
1867	0.9228
1858	0.9252
1849	0.9292
1840	0.9328
1831	0.933
1822	0.926
1813	0.9168
1804	0.9088
1795	0.9047
1786	0.9027
1777	0.8945
1768	0.8844
1759	0.8817
1750	0.8752
1741	0.8401
1732	0.7461
1723	0.68
1714	0.4848
1705	0.2467
1696	0.1646
1687	0.0724
1678	0.0909
1669	0.2022
1660	0.3134
1651	0.419
1642	0.4007
1633	0.269
1624	0.1665
1615	0.2775
1606	0.4068
1597	0.3406
1588	0.5541
1579	0.4636
1570	0.5872
1561	0.6538
1552	0.7101
1543	0.7347
1534	0.76
1525	0.7822
1516	0.7982
1507	0.8089
1498	0.8042
1489	0.6701
1480	0.7692
1471	0.7828
1462	0.778
1453	0.7188
1444	0.6672
1435	0.5504
1426	0.2454
1417	0.3758
1408	0.2055
1399	0.2034
1390	0.3111
1381	0.4445
1372	0.5158
1363	0.5641
1354	0.5888
1345	0.4648
1336	0.6153
1327	0.6751
1318	0.6961
1309	0.7085
1300	0.7142
1291	0.7195
1282	0.7239
1273	0.7286
1264	0.7254
1255	0.715
1246	0.7205
1237	0.7107
1228	0.6944
1219	0.7387
1210	0.7315
1201	0.4902
1192	0.714
1183	0.7631
1174	0.7811
1165	0.7845
1156	0.6731
1147	0.7394
1138	0.7543
1129	0.6856
1120	0.6925
1111	0.7357
1102	0.7614
1093	0.7489
1084	0.7996
1075	0.8475
1066	0.869
1057	0.8808
1048	0.8893
1039	0.7801
1030	0.3259
1021	0.7524
1012	0.8287
1003	0.858
994	0.8613
985	0.8894
976	0.8843
967	0.8688
958	0.904
949	0.9121
940	0.8747
931	0.8752
922	0.9094
913	0.9107
904	0.9084
895	0.9086
886	0.909
877	0.9088
868	0.9054
859	0.9036
850	0.8937
841	0.8621
832	0.7293
823	0.7954
814	0.8118
805	0.7751
796	0.6838
787	0.6272
778	0.5984
769	0.6449
760	0.7151
751	0.7551
742	0.773
733	0.7611
724	0.7288
715	0.7069
706	0.4436
697	0.5201
688	0.7251
679	0.7588
670	0.7511
661	0.7308
