Infrared Spectrum: PYRAZINOIC ACID
Formula: C5 H4 N2 O2
CAS: 98-97-5
State: SOLID (OIL MULL)
Class: COBLENTZ III
Instrument: BAIRD (GRATING)
Instrument parameters: NaCl PRISM
Sampling: TRANSMISSION
Resolution: 2
Origin: WYANDOTTE CHEMICALS CORP.
1/CM	TRANSMITTANCE
4000	0.6951
3991	0.6958
3982	0.6971
3973	0.699
3964	0.7012
3955	0.7036
3946	0.7058
3937	0.7075
3928	0.7092
3919	0.71
3910	0.7106
3901	0.7111
3892	0.7115
3883	0.7125
3874	0.7138
3865	0.7153
3856	0.7168
3847	0.7182
3838	0.7197
3829	0.7212
3820	0.7228
3811	0.7245
3802	0.7265
3793	0.7284
3784	0.7303
3775	0.7321
3766	0.734
3757	0.7356
3748	0.7374
3739	0.7385
3730	0.7396
3721	0.7408
3712	0.7418
3703	0.7425
3694	0.7434
3685	0.7442
3676	0.7448
3667	0.7451
3658	0.7456
3649	0.7456
3640	0.745
3631	0.7435
3622	0.7418
3613	0.74
3604	0.7378
3595	0.7368
3586	0.7367
3577	0.7367
3568	0.7368
3559	0.7376
3550	0.7385
3541	0.739
3532	0.739
3523	0.7392
3514	0.7393
3505	0.7394
3496	0.738
3487	0.7343
3478	0.7304
3469	0.7293
3460	0.7297
3451	0.7308
3442	0.7333
3433	0.7358
3424	0.7384
3415	0.7411
3406	0.7439
3397	0.7461
3388	0.748
3379	0.7489
3370	0.7494
3361	0.7478
3352	0.7458
3343	0.7441
3334	0.7438
3325	0.7444
3316	0.7458
3307	0.7476
3298	0.7498
3289	0.7511
3280	0.7521
3271	0.753
3262	0.7532
3253	0.751
3244	0.7476
3235	0.7433
3226	0.7401
3217	0.7382
3208	0.7365
3199	0.7376
3190	0.74
3181	0.7407
3172	0.7399
3163	0.7357
3154	0.7268
3145	0.6978
3136	0.6753
3127	0.655
3118	0.6043
3109	0.5445
3100	0.4926
3091	0.488
3082	0.5031
3073	0.5315
3064	0.5602
3055	0.564
3046	0.5256
3037	0.4545
3028	0.383
3019	0.3112
3010	0.2388
3001	0.166
2992	0.0928
2983	0.0688
2974	0.0575
2965	0.0492
2956	0.0477
2947	0.073
2938	0.1011
2929	0.1292
2920	0.1576
2911	0.1682
2902	0.1539
2893	0.1403
2884	0.187
2875	0.2913
2866	0.3956
2857	0.437
2848	0.4542
2839	0.4714
2830	0.49
2821	0.5056
2812	0.5218
2803	0.5389
2794	0.561
2785	0.5807
2776	0.5856
2767	0.5862
2758	0.5864
2749	0.5847
2740	0.5823
2731	0.5778
2722	0.5703
2713	0.5594
2704	0.5406
2695	0.5175
2686	0.501
2677	0.4933
2668	0.4924
2659	0.5014
2650	0.5046
2641	0.5048
2632	0.5047
2623	0.5036
2614	0.5014
2605	0.4895
2596	0.4675
2587	0.4559
2578	0.4452
2569	0.4401
2560	0.4355
2551	0.4257
2542	0.4149
2533	0.405
2524	0.3995
2515	0.3945
2506	0.3907
2497	0.3875
2488	0.3845
2479	0.3828
2470	0.3816
2461	0.3809
2452	0.3822
2443	0.3884
2434	0.3892
2425	0.3893
2416	0.3984
2407	0.4052
2398	0.4077
2389	0.4106
2380	0.4155
2371	0.4212
2362	0.429
2353	0.4367
2344	0.4448
2335	0.4562
2326	0.4674
2317	0.4791
2308	0.4927
2299	0.5051
2290	0.516
2281	0.525
2272	0.5331
2263	0.5386
2254	0.5441
2245	0.5512
2236	0.5601
2227	0.5716
2218	0.5851
2209	0.6012
2200	0.621
2191	0.6353
2182	0.6494
2173	0.6578
2164	0.6592
2155	0.6592
2146	0.6595
2137	0.6605
2128	0.6628
2119	0.6674
2110	0.6791
2101	0.6943
2092	0.694
2083	0.6917
2074	0.6884
2065	0.6815
2056	0.673
2047	0.6668
2038	0.6625
2029	0.6562
2020	0.6458
2011	0.6286
2002	0.6104
1993	0.6062
1984	0.595
1975	0.5912
1966	0.5751
1957	0.5322
1948	0.4788
1939	0.45
1930	0.438
1921	0.4262
1912	0.4175
1903	0.3871
1894	0.3678
1885	0.3682
1876	0.3854
1867	0.4034
1858	0.4283
1849	0.4546
1840	0.4787
1831	0.4965
1822	0.5067
1813	0.511
1804	0.5106
1795	0.5066
1786	0.495
1777	0.4485
1768	0.3826
1759	0.3264
1750	0.2695
1741	0.2121
1732	0.1944
1723	0.204
1714	0.262
1705	0.372
1696	0.4248
1687	0.4586
1678	0.4957
1669	0.521
1660	0.548
1651	0.5735
1642	0.6012
1633	0.6296
1624	0.6556
1615	0.6592
1606	0.6626
1597	0.6574
1588	0.6478
1579	0.6501
1570	0.6626
1561	0.6535
1552	0.5968
1543	0.5914
1534	0.6525
1525	0.6794
1516	0.6928
1507	0.6853
1498	0.6346
1489	0.6152
1480	0.3876
1471	0.352
1462	0.4185
1453	0.5172
1444	0.5787
1435	0.608
1426	0.4971
1417	0.4194
1408	0.3309
1399	0.392
1390	0.4607
1381	0.5466
1372	0.6371
1363	0.6826
1354	0.6793
1345	0.5536
1336	0.3248
1327	0.1015
1318	0.1233
1309	0.343
1300	0.5541
1291	0.5219
1282	0.2164
1273	0.418
1264	0.596
1255	0.6508
1246	0.6615
1237	0.6882
1228	0.7289
1219	0.7617
1210	0.7919
1201	0.7857
1192	0.5231
1183	0.286
1174	0.3354
1165	0.2153
1156	0.2351
1147	0.5281
1138	0.6484
1129	0.689
1120	0.6642
1111	0.7206
1102	0.7549
1093	0.7501
1084	0.753
1075	0.734
1066	0.4501
1057	0.2583
1048	0.586
1039	0.577
1030	0.4678
1021	0.265
1012	0.5771
1003	0.7287
994	0.7881
985	0.8185
976	0.8237
967	0.8162
958	0.7488
949	0.8292
940	0.8521
931	0.8578
922	0.8675
913	0.8747
904	0.8625
895	0.6964
886	0.5967
877	0.8593
868	0.9044
859	0.9255
850	0.9335
841	0.9367
832	0.9177
823	0.6376
814	0.8168
805	0.879
796	0.8852
787	0.4249
778	0.9083
769	0.9439
760	0.9528
751	0.9555
742	0.946
733	0.9357
724	0.8231
715	0.877
706	0.8867
697	0.8615
688	0.9078
679	0.8867
670	0.8609
661	0.8431
652	0.7811
643	0.6152
634	0.6662
