Infrared Spectrum: NITROBENZENE
Formula: C6 H5 N O2
CAS: 98-95-3
State: SOLUTION (10% IN CCl4 FOR 4000-1330 CM^-^1, 10% IN CS2 FOR 1330-600 CM^-^1)
Boiling point: 210 C
Class: COBLENTZ III
Instrument: BECKMAN IR-7 (GRATING)
Instrument parameters: GRATING CHANGES AT 3000, 2200, 1150 CM^-^1
Sampling: TRANSMISSION
Path length: 0.011 CM, 0.010 CM
Resolution: 4
Origin: WESTERN REGIONAL RES. USDA
1/CM	TRANSMITTANCE
599.349	0.825
608.457	0.824
617.565	0.807
626.672	0.794
635.78	0.773
644.888	0.735
653.996	0.673
663.104	0.655
672.212	0.286
681.319	0.2428
690.427	0.479
699.535	0.0051
708.643	0.3078
717.751	0.641
726.858	0.712
735.966	0.742
745.074	0.755
754.182	0.757
763.29	0.763
772.398	0.752
781.505	0.637
790.613	0.2838
799.721	0.713
808.829	0.732
817.937	0.744
827.044	0.726
836.152	0.663
845.26	0.1632
854.368	0.457
863.476	0.64
872.584	0.695
881.691	0.729
890.799	0.767
899.907	0.782
909.015	0.779
918.123	0.77
927.23	0.5701
936.338	0.707
945.446	0.777
954.554	0.783
963.662	0.766
972.77	0.768
981.877	0.779
990.985	0.773
1000.09	0.757
1009.2	0.765
1018.31	0.3741
1027.42	0.756
1036.52	0.784
1045.63	0.784
1054.74	0.752
1063.85	0.546
1072.96	0.687
1082.06	0.73
1091.17	0.612
1100.28	0.618
1109.39	0.542
1118.49	0.711
1127.6	0.74
1136.71	0.758
1145.82	0.749
1154.93	0.671
1164.03	0.663
1173.14	0.556
1182.25	0.72
1191.36	0.734
1200.47	0.756
1209.57	0.758
1218.68	0.764
1227.79	0.766
1236.9	0.732
1246	0.696
1255.11	0.738
1264.22	0.756
1273.33	0.756
1282.44	0.751
1291.54	0.726
1300.65	0.625
1309.76	0.443
1318.87	0.4939
1327.97	0.536
1337.08	0.0831
1346.19	0.01
1355.3	0.31
1364.41	0.405
1373.51	0.66
1382.62	0.676
1391.73	0.83
1400.84	0.803
1409.94	0.798
1419.05	0.863
1428.16	0.879
1437.27	0.873
1446.38	0.835
1455.48	0.774
1464.59	0.724
1473.7	0.5251
1482.81	0.6299
1491.92	0.643
1501.02	0.538
1510.13	0.403
1519.24	0.024
1528.35	0.003
1537.45	0.075
1546.56	0.25
1555.67	0.351
1564.78	0.447
1573.89	0.499
1582.99	0.493
1592.1	0.475
1601.21	0.456
1610.32	0.5089
1619.42	0.4061
1628.53	0.762
1637.64	0.811
1646.75	0.858
1655.86	0.88
1664.96	0.888
1674.07	0.893
1683.18	0.897
1692.29	0.897
1701.4	0.897
1710.5	0.897
1719.61	0.891
1728.72	0.872
1737.83	0.884
1746.93	0.865
1756.04	0.85
1765.15	0.801
1774.26	0.823
1783.37	0.848
1792.47	0.838
1801.58	0.803
1810.69	0.818
1819.8	0.852
1828.9	0.856
1838.01	0.863
1847.12	0.864
1856.23	0.864
1865.34	0.864
1874.44	0.864
1883.55	0.866
1892.66	0.857
1901.77	0.802
1910.87	0.819
1919.98	0.838
1929.09	0.836
1938.2	0.862
1947.31	0.863
1956.41	0.839
1965.52	0.796
1974.63	0.837
1983.74	0.825
1992.85	0.847
2001.95	0.8568
2011.06	0.8603
2020.17	0.8619
2029.28	0.863
2038.38	0.8629
2047.49	0.862
2056.6	0.863
2065.71	0.863
2074.82	0.8644
2083.92	0.866
2093.03	0.866
2102.14	0.865
2111.25	0.8633
2120.35	0.8623
2129.46	0.863
2138.57	0.8645
2147.68	0.866
2156.79	0.8666
2165.89	0.869
2175	0.869
2184.11	0.868
2193.22	0.867
2202.33	0.8665
2211.43	0.868
2220.54	0.8744
2229.65	0.8763
2238.76	0.877
2247.86	0.8766
2256.97	0.875
2266.08	0.874
2275.19	0.872
2284.3	0.8702
2293.4	0.867
2302.51	0.866
2311.62	0.8655
2320.73	0.864
2329.83	0.8633
2338.94	0.863
2348.05	0.8638
2357.16	0.864
2366.27	0.866
2375.37	0.867
2384.48	0.8691
2393.59	0.8717
2402.7	0.8733
2411.81	0.8759
2420.91	0.878
2430.02	0.879
2439.13	0.878
2448.24	0.8708
2457.34	0.8499
2466.45	0.832
2475.56	0.8398
2484.67	0.8637
2493.78	0.8752
2502.88	0.8817
2511.99	0.884
2521.1	0.885
2530.21	0.886
2539.31	0.886
2548.42	0.8844
2557.53	0.883
2566.64	0.882
2575.75	0.881
2584.85	0.8781
2593.96	0.873
2603.07	0.8721
2612.18	0.8747
2621.28	0.874
2630.39	0.873
2639.5	0.868
2648.61	0.868
2657.72	0.8711
2666.82	0.8741
2675.93	0.875
2685.04	0.8718
2694.15	0.8565
2703.26	0.8559
2712.36	0.8611
2721.47	0.8656
2730.58	0.868
2739.69	0.8728
2748.79	0.874
2757.9	0.874
2767.01	0.873
2776.12	0.8689
2785.23	0.864
2794.33	0.863
2803.44	0.8583
2812.55	0.8471
2821.66	0.851
2830.76	0.8616
2839.87	0.8628
2848.98	0.8555
2858.09	0.847
2867.2	0.7698
2876.3	0.672
2885.41	0.8203
2894.52	0.8427
2903.63	0.8445
2912.74	0.849
2921.84	0.8476
2930.95	0.8302
2940.06	0.8128
2949.17	0.8101
2958.27	0.8263
2967.38	0.8452
2976.49	0.85
2985.6	0.852
2994.71	0.852
3003.81	0.855
3012.92	0.8574
3022.03	0.8584
3031.14	0.8429
3040.24	0.8303
3049.35	0.824
3058.46	0.8151
3067.57	0.7187
3076.68	0.6429
3085.78	0.6036
3094.89	0.685
3104	0.787
3113.11	0.8047
3122.21	0.8185
3131.32	0.8312
3140.43	0.8416
3149.54	0.8518
3158.65	0.8545
3167.75	0.8591
3176.86	0.861
3185.97	0.8608
3195.08	0.859
3204.19	0.8582
3213.29	0.858
3222.4	0.8606
3231.51	0.8621
3240.62	0.8674
3249.72	0.87
3258.83	0.8709
3267.94	0.872
3277.05	0.872
3286.16	0.872
3295.26	0.872
3304.37	0.871
3313.48	0.87
3322.59	0.87
3331.69	0.869
3340.8	0.868
3349.91	0.868
3359.02	0.868
3368.13	0.867
3377.23	0.866
3386.34	0.866
3395.45	0.866
3404.56	0.866
3413.67	0.866
3422.77	0.865
3431.88	0.8641
3440.99	0.864
3450.1	0.863
3459.2	0.863
3468.31	0.863
3477.42	0.8612
3486.53	0.862
3495.64	0.862
3504.74	0.8615
3513.85	0.861
3522.96	0.861
3532.07	0.861
3541.17	0.8629
3550.28	0.863
3559.39	0.863
3568.5	0.863
3577.61	0.863
3586.71	0.862
3595.82	0.861
3604.93	0.861
3614.04	0.8615
3623.14	0.8651
3632.25	0.868
3641.36	0.8703
3650.47	0.872
3659.58	0.8716
3668.68	0.87
3677.79	0.868
3686.9	0.8648
3696.01	0.8593
3705.12	0.8547
3714.22	0.8521
3723.33	0.857
3732.44	0.8611
3741.55	0.8646
3750.65	0.8662
3759.76	0.868
3768.87	0.868
3777.98	0.868
3787.09	0.868
3796.19	0.868
3805.3	0.867
3814.41	0.867
3823.52	0.867
3832.62	0.866
3841.73	0.865
3850.84	0.865
3859.95	0.864
3869.06	0.864
3878.16	0.8637
3887.27	0.863
3896.38	0.8625
3905.49	0.8619
3914.6	0.861
3923.7	0.861
3932.81	0.861
3941.92	0.86
3951.03	0.859
3960.13	0.859
3969.24	0.859
3978.35	0.859
3987.46	0.859
3996.57	0.8581
