Infrared Spectrum: M-NITRO TOLUENE
Formula: C7 H7 N O2
CAS: 99-08-1
State: LIQUID
Class: COBLENTZ
Instrument: Not specified, most likely a prism, grating, or hybrid spectrometer.
Sampling: TRANSMISSION
Path length: 0.003 CM
Resolution: 4
Origin: WYANDOTTE CHEMICALS CORP., WYANDOTTE, MICHIGAN, USA
MICROMETERS	TRANSMITTANCE
2.02	0.932
2.05979	0.928
2.09958	0.917
2.13937	0.922
2.17917	0.925
2.21896	0.913
2.25875	0.908
2.29854	0.913
2.33833	0.91
2.37812	0.902
2.41792	0.905
2.45771	0.913
2.4975	0.918
2.53729	0.925
2.57708	0.93
2.61687	0.932
2.65666	0.933
2.69646	0.932
2.73625	0.932
2.77604	0.928
2.81583	0.928
2.85562	0.93
2.89541	0.927
2.93521	0.922
2.975	0.922
3.01479	0.92
3.05458	0.907
3.09437	0.889
3.13416	0.86
3.17395	0.842
3.21375	0.748
3.25354	0.582
3.29333	0.677
3.33312	0.682
3.37291	0.605
3.4127	0.513
3.4525	0.673
3.49229	0.587
3.53208	0.743
3.57187	0.802
3.61166	0.859
3.65145	0.879
3.69124	0.882
3.73104	0.892
3.77083	0.9
3.81062	0.9
3.85041	0.899
3.8902	0.887
3.92999	0.887
3.96979	0.918
4.00958	0.92
4.04937	0.92
4.08916	0.912
4.12895	0.85
4.16874	0.865
4.20853	0.915
4.24833	0.89
4.28812	0.897
4.32791	0.91
4.3677	0.908
4.40749	0.91
4.44728	0.923
4.48708	0.922
4.52687	0.907
4.56666	0.93
4.60645	0.937
4.64624	0.932
4.68603	0.935
4.72582	0.945
4.76562	0.951
4.80541	0.951
4.8452	0.951
4.88499	0.943
4.92478	0.948
4.96457	0.955
5.00437	0.94
5.04416	0.923
5.08395	0.912
5.12374	0.899
5.16353	0.87
5.20332	0.915
5.24312	0.907
5.28291	0.855
5.3227	0.875
5.36249	0.91
5.40228	0.897
5.44207	0.897
5.48186	0.902
5.52166	0.905
5.56145	0.812
5.60124	0.862
5.64103	0.89
5.68082	0.872
5.72061	0.857
5.76041	0.821
5.8002	0.844
5.83999	0.87
5.87978	0.867
5.91957	0.855
5.95936	0.846
5.99915	0.834
6.03895	0.821
6.07874	0.811
6.11853	0.786
6.15832	0.682
6.19811	0.604
6.2379	0.529
6.2777	0.321
6.31749	0.354
6.35728	0.225
6.39707	0.213
6.43686	0.175
6.47665	0.074
6.51644	0.034
6.55624	0.051
6.59603	0.094
6.63582	0.245
6.67561	0.301
6.7154	0.149
6.75519	0.223
6.79499	0.321
6.83478	0.334
6.87457	0.365
6.91436	0.427
6.95415	0.47
6.99394	0.458
7.03373	0.531
7.07353	0.561
7.11332	0.541
7.15311	0.544
7.1929	0.503
7.23269	0.311
7.27248	0.4
7.31228	0.298
7.35207	0.046
7.39186	0.028
7.43165	0.044
7.47144	0.144
7.51123	0.334
7.55102	0.359
7.59082	0.22
7.63061	0.245
7.6704	0.274
7.71019	0.341
7.74998	0.337
7.78977	0.493
7.82957	0.66
7.86936	0.718
7.90915	0.786
7.94894	0.812
7.98873	0.827
8.02852	0.831
8.06831	0.822
8.10811	0.811
8.1479	0.799
8.18769	0.761
8.22748	0.685
8.26727	0.725
8.30706	0.789
8.34686	0.824
8.38665	0.846
8.42644	0.852
8.46623	0.846
8.50602	0.832
8.54581	0.789
8.5856	0.74
8.6254	0.793
8.66519	0.801
8.70498	0.822
8.74477	0.85
8.78456	0.869
8.82435	0.872
8.86415	0.867
8.90394	0.849
8.94373	0.801
8.98352	0.698
9.02331	0.552
9.0631	0.354
9.10289	0.193
9.14269	0.309
9.18248	0.442
9.22227	0.284
9.26206	0.402
9.30185	0.531
9.34164	0.629
9.38144	0.692
9.42123	0.708
9.46102	0.683
9.50081	0.635
9.5406	0.562
9.58039	0.556
9.62018	0.605
9.65998	0.672
9.69977	0.725
9.73956	0.753
9.77935	0.769
9.81914	0.783
9.85893	0.783
9.89873	0.781
9.93852	0.759
9.97831	0.721
10.0181	0.774
10.0579	0.791
10.0977	0.789
10.1375	0.786
10.1773	0.791
10.2171	0.798
10.2568	0.807
10.2966	0.817
10.3364	0.822
10.3762	0.827
10.416	0.832
10.4558	0.834
10.4956	0.837
10.5354	0.839
10.5752	0.834
10.615	0.824
10.6548	0.812
10.6946	0.801
10.7343	0.763
10.7741	0.698
10.8139	0.564
10.8537	0.504
10.8935	0.596
10.9333	0.706
10.9731	0.706
11.0129	0.592
11.0527	0.293
11.0925	0.364
11.1323	0.548
11.1721	0.653
11.2118	0.672
11.2516	0.617
11.2914	0.556
11.3312	0.47
11.371	0.42
11.4108	0.488
11.4506	0.586
11.4904	0.692
11.5302	0.759
11.57	0.801
11.6098	0.829
11.6496	0.827
11.6893	0.809
11.7291	0.826
11.7689	0.844
11.8087	0.846
11.8485	0.842
11.8883	0.842
11.9281	0.836
11.9679	0.829
12.0077	0.824
12.0475	0.824
12.0873	0.822
12.1271	0.811
12.1668	0.791
12.2066	0.764
12.2464	0.731
12.2862	0.683
12.326	0.615
12.3658	0.534
12.4056	0.18
12.4454	0.067
12.4852	0.036
12.525	0.039
12.5648	0.082
12.6046	0.299
12.6443	0.485
12.6841	0.582
12.7239	0.663
12.7637	0.711
12.8035	0.754
12.8433	0.781
12.8831	0.799
12.9229	0.809
12.9627	0.819
13.0025	0.824
13.0423	0.829
13.082	0.829
13.1218	0.826
13.1616	0.824
13.2014	0.819
13.2412	0.812
13.281	0.799
13.3208	0.784
13.3606	0.771
13.4004	0.743
13.4402	0.705
13.48	0.644
13.5198	0.552
13.5595	0.447
13.5993	0.231
13.6391	0.104
13.6789	0.059
13.7187	0.046
13.7585	0.049
13.7983	0.091
13.8381	0.187
13.8779	0.364
13.9177	0.508
13.9575	0.587
13.9973	0.64
14.037	0.69
14.0768	0.731
14.1166	0.758
14.1564	0.783
14.1962	0.801
14.236	0.812
14.2758	0.817
14.3156	0.821
14.3554	0.822
14.3952	0.822
14.435	0.821
14.4748	0.812
14.5145	0.807
14.5543	0.799
14.5941	0.789
14.6339	0.774
14.6737	0.756
14.7135	0.726
14.7533	0.692
14.7931	0.642
14.8329	0.561
14.8727	0.443
14.9125	0.312
14.9523	0.23
14.992	0.241
15.0318	0.365
15.0716	0.456
15.1114	0.571
15.1512	0.624
15.191	0.655
15.2308	0.68
15.2706	0.698
15.3104	0.713
15.3502	0.728
15.39	0.74
15.4298	0.746
15.4695	0.751
15.5093	0.753
15.5491	0.75
15.5889	0.746
15.6287	0.748
15.6685	0.746
15.7083	0.745
15.7481	0.74
15.7879	0.738
15.8277	0.733
15.8675	0.728
15.9072	0.725
15.947	0.72
