Infrared Spectrum: BENZOIC ACID, m-HYDROXY-
Formula: C7 H6 O3
CAS: 99-06-9
State: SOLID (SPLIT MULL)
Class: COBLENTZ III
Instrument: DOW KBr FOREPRISM-GRATING
Instrument parameters: BLAZED AT 3.5, 12.0, 20.0 MICRON AND CHANGED AT 5.0, 7.5, 14.9 MICRON
Sampling: TRANSMISSION
Resolution: 2
Origin: DOW CHEMICAL COMPANY
1/CM	TRANSMITTANCE
3816	0.576
3807	0.5772
3798	0.5787
3789	0.5807
3780	0.5836
3771	0.5872
3762	0.5909
3753	0.5951
3744	0.5976
3735	0.5975
3726	0.5988
3717	0.6019
3708	0.6039
3699	0.6034
3690	0.6104
3681	0.6135
3672	0.616
3663	0.6178
3654	0.6206
3645	0.6239
3636	0.6275
3627	0.631
3618	0.6347
3609	0.6385
3600	0.6425
3591	0.6451
3582	0.6474
3573	0.6598
3564	0.6643
3555	0.6683
3546	0.673
3537	0.6784
3528	0.6832
3519	0.6876
3510	0.6928
3501	0.6981
3492	0.703
3483	0.7071
3474	0.7103
3465	0.7096
3456	0.7072
3447	0.701
3438	0.6861
3429	0.6633
3420	0.6362
3411	0.6104
3402	0.5956
3393	0.5819
3384	0.5717
3375	0.5648
3366	0.5524
3357	0.5245
3348	0.4899
3339	0.4594
3330	0.4228
3321	0.3818
3312	0.341
3303	0.2928
3294	0.2599
3285	0.2584
3276	0.2745
3267	0.3102
3258	0.3422
3249	0.3674
3240	0.3809
3231	0.3823
3222	0.3672
3213	0.3593
3204	0.3534
3195	0.3488
3186	0.3448
3177	0.3412
3168	0.3394
3159	0.3388
3150	0.3389
3141	0.3393
3132	0.341
3123	0.3478
3114	0.3555
3105	0.3422
3096	0.3293
3087	0.3197
3078	0.3157
3069	0.3203
3060	0.3209
3051	0.3226
3042	0.3262
3033	0.331
3024	0.3386
3015	0.3462
3006	0.3545
2997	0.3632
2988	0.3728
2979	0.3816
2970	0.3864
2961	0.3875
2952	0.3922
2943	0.4016
2934	0.4082
2925	0.4132
2916	0.4204
2907	0.4293
2898	0.4387
2889	0.446
2880	0.4532
2871	0.4603
2862	0.4678
2853	0.4751
2844	0.4805
2835	0.4829
2826	0.4864
2817	0.4919
2808	0.4977
2799	0.5039
2790	0.5104
2781	0.5172
2772	0.5235
2763	0.529
2754	0.5335
2745	0.5376
2736	0.5416
2727	0.5452
2718	0.5485
2709	0.5512
2700	0.5492
2691	0.5417
2682	0.54
2673	0.5462
2664	0.5537
2655	0.5583
2646	0.5543
2637	0.5485
2628	0.5462
2619	0.5527
2610	0.5599
2601	0.5672
2592	0.5695
2583	0.5729
2574	0.5795
2565	0.5876
2556	0.592
2547	0.5927
2538	0.5932
2529	0.594
2520	0.5953
2511	0.5982
2502	0.6021
2493	0.6036
2484	0.6052
2475	0.6074
2466	0.6101
2457	0.6129
2448	0.616
2439	0.6186
2430	0.6212
2421	0.625
2412	0.6285
2403	0.631
2394	0.6332
2385	0.636
2376	0.6395
2367	0.6428
2358	0.6441
2349	0.6425
2340	0.6403
2331	0.6386
2322	0.6379
2313	0.6405
2304	0.6446
2295	0.6487
2286	0.6528
2277	0.6574
2268	0.6619
2259	0.6671
2250	0.6749
2241	0.6843
2232	0.6957
2223	0.7053
2214	0.7133
2205	0.7178
2196	0.7205
2187	0.7211
2178	0.7236
2169	0.7261
2160	0.7294
2151	0.7328
2142	0.7371
2133	0.7425
2124	0.7478
2115	0.7528
2106	0.7575
2097	0.7624
2088	0.7674
2079	0.7728
2070	0.7792
2061	0.7857
2052	0.7921
2043	0.7912
2034	0.789
2025	0.7922
2016	0.8026
2007	0.8072
1998	0.7995
1989	0.7965
1980	0.804
1971	0.809
1962	0.8131
1953	0.8185
1944	0.8017
1935	0.815
1926	0.8248
1917	0.8325
1908	0.8385
1899	0.8437
1890	0.8483
1881	0.8394
1872	0.8305
1863	0.8394
1854	0.8467
1845	0.8556
1836	0.8648
1827	0.8711
1818	0.8755
1809	0.8773
1800	0.8716
1791	0.8638
1782	0.8585
1773	0.8493
1764	0.8658
1755	0.8533
1746	0.8132
1737	0.6661
1728	0.3274
1719	0.1829
1710	0.195
1701	0.3659
1692	0.4897
1683	0.561
1674	0.6195
1665	0.6651
1656	0.7014
1647	0.7365
1638	0.7715
1629	0.7955
1620	0.7926
1611	0.5784
1602	0.2995
1593	0.5581
1584	0.6665
1575	0.7249
1566	0.7615
1557	0.7855
1548	0.81
1539	0.8317
1530	0.84
1521	0.8336
1512	0.7832
1503	0.7775
1494	0.8103
1485	0.7935
1476	0.6661
1467	0.2832
1458	0.1998
1449	0.4693
1440	0.584
1431	0.6521
1422	0.6607
1413	0.7171
1404	0.75
1395	0.7675
1386	0.7807
1377	0.781
1368	0.7019
1359	0.5916
1350	0.6019
1341	0.539
1332	0.531
1323	0.4872
1314	0.4256
1305	0.4531
1296	0.4257
1287	0.3044
1278	0.1922
1269	0.1176
1260	0.1935
1251	0.2759
1242	0.2899
1233	0.3696
1224	0.4159
1215	0.4552
1206	0.4849
1197	0.5143
1188	0.5437
1179	0.5601
1170	0.5679
1161	0.5349
1152	0.5892
1143	0.6105
1134	0.6329
1125	0.6499
1116	0.5683
1107	0.5993
1098	0.6385
1089	0.6538
1080	0.615
1071	0.6322
1062	0.6653
1053	0.6772
1044	0.6871
1035	0.6961
1026	0.7021
1017	0.7056
1008	0.7069
999	0.6614
990	0.6971
981	0.7028
972	0.6997
963	0.7145
954	0.725
945	0.7326
936	0.7384
927	0.6861
918	0.4608
909	0.6694
900	0.6675
891	0.6943
882	0.5649
873	0.7228
864	0.7244
855	0.7143
846	0.695
837	0.6478
828	0.5456
819	0.5091
810	0.5964
801	0.6546
792	0.6045
783	0.6736
774	0.6768
765	0.417
756	0.423
747	0.4565
738	0.6018
729	0.6297
720	0.5982
711	0.6688
702	0.7118
693	0.7065
684	0.7051
675	0.4109
666	0.6942
657	0.6878
648	0.5806
639	0.5369
630	0.5606
621	0.6185
612	0.6594
603	0.6841
594	0.7008
585	0.7115
576	0.7169
567	0.7203
558	0.6633
549	0.7255
540	0.7115
531	0.7168
522	0.7076
513	0.6699
504	0.7032
495	0.7215
486	0.7275
477	0.7251
468	0.6903
459	0.6468
