Infrared Spectrum: BENZENAMINE, 2,6-DICHLORO-4-NITRO-
Formula: C6 H4 Cl2 N2 O2
CAS: 99-30-9
State: SOLID (SPLIT MULL, FLUOROLUBE FOR 3800-1340 AND NUJOL FOR 1340-450 CM ^-^1)
Melting point: 191 C
Class: COBLENTZ III
Instrument: DOW KBr FOREPRISM-GRATING
Instrument parameters: BLAZED AT 3.5, 12.0, 20.0 MICRON, CHANGED AT 5.0, 7.5, 14.9 MICRON
Sampling: TRANSMISSION
Resolution: 4
Origin: DOW CHEMICAL COMPANY
1/CM	TRANSMITTANCE
450.82	1.028
459.332	1.03
467.844	1.028
476.356	1.014
484.868	0.983
493.38	1.039
501.892	1.072
510.404	1.072
518.916	1.036
527.428	1.056
535.94	1.03
544.452	1.036
552.964	1.029
561.476	1.047
569.988	1.069
578.5	1.081
587.012	1.066
595.524	1.072
604.036	1.103
612.548	1.106
621.06	1.11
629.572	1.11
638.084	1.109
646.596	1.106
655.108	1.098
663.62	1.092
672.132	1.079
680.644	1.058
689.156	1.033
697.668	1.001
706.18	0.946
714.692	0.6474
723.204	0.6313
731.716	0.895
740.228	0.3673
748.74	0.942
757.252	0.945
765.764	0.943
774.276	0.932
782.788	0.871
791.3	0.684
799.812	0.8509
808.324	0.917
816.836	0.955
825.348	0.8988
833.86	0.943
842.372	0.941
850.884	0.941
859.396	0.939
867.908	0.935
876.42	0.911
884.932	0.883
893.444	0.3394
901.956	0.908
910.468	0.911
918.98	0.923
927.492	0.933
936.004	0.918
944.516	0.915
953.028	0.92
961.54	0.92
970.052	0.924
978.564	0.932
987.076	0.926
995.588	0.921
1004.1	0.918
1012.61	0.915
1021.12	0.912
1029.64	0.901
1038.15	0.882
1046.66	0.806
1055.17	0.79
1063.68	0.856
1072.2	0.874
1080.71	0.883
1089.22	0.892
1097.73	0.896
1106.24	0.892
1114.76	0.876
1123.27	0.825
1131.78	0.777
1140.29	0.5481
1148.8	0.3388
1157.32	0.88
1165.83	0.896
1174.34	0.936
1182.85	0.958
1191.36	0.96
1199.88	0.935
1208.39	0.899
1216.9	0.89
1225.41	0.902
1233.92	0.907
1242.44	0.889
1250.95	0.858
1259.46	0.799
1267.97	0.749
1276.48	0.603
1285	0.681
1293.51	0.71
1302.02	0.589
1310.53	0.4081
1319.04	0.151
1327.56	0.281
1336.07	0.061
1344.58	0.079
1353.09	0.4081
1361.6	0.3821
1370.12	0.948
1378.63	0.949
1387.14	0.938
1395.65	0.908
1404.16	0.896
1412.68	0.871
1421.19	0.843
1429.7	0.843
1438.21	0.815
1446.72	0.796
1455.24	0.761
1463.75	0.712
1472.26	0.5839
1480.77	0.3551
1489.28	0.225
1497.8	0.216
1506.31	0.274
1514.82	0.457
1523.33	0.828
1531.84	0.923
1540.36	0.91
1548.87	0.873
1557.38	0.871
1565.89	0.82
1574.4	0.71
1582.92	0.789
1591.43	0.759
1599.94	0.669
1608.45	0.5359
1616.96	0.2589
1625.48	0.129
1633.99	0.2932
1642.5	0.6461
1651.01	0.935
1659.52	0.98
1668.04	0.986
1676.55	0.98
1685.06	0.973
1693.57	0.964
1702.08	0.966
1710.6	0.955
1719.11	0.933
1727.62	0.946
1736.13	0.942
1744.64	0.935
1753.16	0.927
1761.67	0.912
1770.18	0.889
1778.69	0.892
1787.2	0.907
1795.72	0.911
1804.23	0.911
1812.74	0.907
1821.25	0.902
1829.76	0.899
1838.28	0.895
1846.79	0.893
1855.3	0.89
1863.81	0.889
1872.32	0.887
1880.84	0.883
1889.35	0.882
1897.86	0.88
1906.37	0.877
1914.88	0.874
1923.4	0.871
1931.91	0.87
1940.42	0.865
1948.93	0.865
1957.44	0.862
1965.96	0.859
1974.47	0.856
1982.98	0.853
1991.49	0.851
2000	0.846
2008.52	0.843
2017.03	0.842
2025.54	0.8381
2034.05	0.8341
2042.56	0.831
2051.08	0.8252
2059.59	0.8206
2068.1	0.818
2076.61	0.818
2085.12	0.8171
2093.64	0.8146
2102.15	0.8112
2110.66	0.808
2119.17	0.8034
2127.68	0.799
2136.2	0.796
2144.71	0.794
2153.22	0.794
2161.73	0.7927
2170.24	0.7868
2178.76	0.781
2187.27	0.777
2195.78	0.775
2204.29	0.772
2212.8	0.771
2221.32	0.768
2229.83	0.764
2238.34	0.7584
2246.85	0.7517
2255.36	0.749
2263.88	0.744
2272.39	0.743
2280.9	0.741
2289.41	0.7389
2297.92	0.7369
2306.44	0.733
2314.95	0.731
2323.46	0.73
2331.97	0.728
2340.48	0.7275
2349	0.725
2357.51	0.724
2366.02	0.722
2374.53	0.7232
2383.04	0.722
2391.56	0.7216
2400.07	0.721
2408.58	0.721
2417.09	0.718
2425.6	0.718
2434.12	0.7133
2442.63	0.7083
2451.14	0.706
2459.65	0.707
2468.16	0.7086
2476.68	0.709
2485.19	0.707
2493.7	0.71
2502.21	0.7093
2510.72	0.7086
2519.24	0.7063
2527.75	0.705
2536.26	0.702
2544.77	0.697
2553.28	0.696
2561.8	0.696
2570.31	0.694
2578.82	0.691
2587.33	0.688
2595.84	0.6849
2604.36	0.681
2612.87	0.6779
2621.38	0.674
2629.89	0.671
2638.4	0.669
2646.92	0.666
2655.43	0.664
2663.94	0.66
2672.45	0.6506
2680.96	0.6411
2689.48	0.6443
2697.99	0.6587
2706.5	0.662
2715.01	0.66
2723.52	0.66
2732.04	0.657
2740.55	0.654
2749.06	0.6501
2757.57	0.6467
2766.08	0.646
2774.6	0.6421
2783.11	0.6354
2791.62	0.634
2800.13	0.632
2808.64	0.631
2817.16	0.629
2825.67	0.6275
2834.18	0.625
2842.69	0.6216
2851.2	0.6176
2859.72	0.6168
2868.23	0.615
2876.74	0.609
2885.25	0.606
2893.76	0.603
2902.28	0.603
2910.79	0.6
2919.3	0.5988
2927.81	0.5968
2936.32	0.595
2944.84	0.595
2953.35	0.592
2961.86	0.589
2970.37	0.5845
2978.88	0.582
2987.4	0.58
2995.91	0.576
3004.42	0.573
3012.93	0.57
3021.44	0.5636
3029.96	0.5581
3038.47	0.55
3046.98	0.5441
3055.49	0.5356
3064	0.5321
3072.52	0.528
3081.03	0.5179
3089.54	0.4969
3098.05	0.438
3106.56	0.503
3115.08	0.55
3123.59	0.547
3132.1	0.5352
3140.61	0.5267
3149.12	0.519
3157.64	0.519
3166.15	0.5133
3174.66	0.4968
3183.17	0.4934
3191.68	0.5
3200.2	0.497
3208.71	0.486
3217.22	0.4807
3225.73	0.485
3234.24	0.486
3242.76	0.48
3251.27	0.477
3259.78	0.4688
3268.29	0.4634
3276.8	0.4518
3285.32	0.4398
3293.83	0.4238
3302.34	0.4029
3310.85	0.373
3319.36	0.3382
3327.88	0.3171
3336.39	0.2897
3344.9	0.2528
3353.41	0.1572
3361.92	0.0862
3370.44	0.1459
3378.95	0.4413
3387.46	0.5981
3395.97	0.61
3404.48	0.606
3413	0.6155
3421.51	0.619
3430.02	0.6005
3438.53	0.5772
3447.04	0.5614
3455.56	0.5357
3464.07	0.4927
3472.58	0.4054
3481.09	0.2904
3489.6	0.4805
3498.12	0.6153
3506.63	0.6026
3515.14	0.5943
3523.65	0.5878
3532.16	0.5797
3540.68	0.5717
3549.19	0.5647
3557.7	0.5609
3566.21	0.5568
3574.72	0.55
3583.24	0.5474
3591.75	0.5419
3600.26	0.538
3608.77	0.5349
3617.28	0.53
3625.8	0.528
3634.31	0.526
3642.82	0.523
3651.33	0.5185
3659.84	0.514
3668.36	0.511
3676.87	0.511
3685.38	0.508
3693.89	0.505
3702.4	0.504
3710.92	0.501
3719.43	0.5006
3727.94	0.5
3736.45	0.497
3744.96	0.495
3753.48	0.492
3761.99	0.491
3770.5	0.489
3779.01	0.486
3787.52	0.485
3796.04	0.483
