Infrared Spectrum: M-TOLUIC ACID, METHYL ESTER
Formula: C9 H10 O2
CAS: 99-36-5
Class: COBLENTZ
Instrument: Not specified, most likely a prism, grating, or hybrid spectrometer.
Sampling: TRANSMISSION
Resolution: 4
Origin: TENNESSEE EASTMAN COMPANY, RESEARCH LABORATORIES
MICROMETERS	TRANSMITTANCE
2.011	0.988
2.05081	0.989
2.09063	0.989
2.13044	0.989
2.17026	0.989
2.21007	0.986
2.24989	0.984
2.2897	0.984
2.32951	0.984
2.36933	1.001
2.40914	0.993
2.44896	0.989
2.48877	0.988
2.52859	0.989
2.5684	0.989
2.60821	0.988
2.64803	0.991
2.68784	0.993
2.72766	0.986
2.76747	0.984
2.80728	0.986
2.8471	0.986
2.88691	0.986
2.92673	0.976
2.96654	0.979
3.00636	0.981
3.04617	0.983
3.08598	0.983
3.1258	0.983
3.16561	0.978
3.20543	0.964
3.24524	0.929
3.28506	0.868
3.32487	0.811
3.36468	0.797
3.4045	0.829
3.44431	0.881
3.48413	0.898
3.52394	0.949
3.56376	0.978
3.60357	0.983
3.64338	0.981
3.6832	0.983
3.72301	0.988
3.76283	0.989
3.80264	0.989
3.84246	0.989
3.88227	0.983
3.92208	0.979
3.9619	0.989
4.00171	0.989
4.04153	0.988
4.08134	0.986
4.12115	0.989
4.16097	0.988
4.20078	0.986
4.2406	1.02
4.28041	1.011
4.32023	1.003
4.36004	0.974
4.39985	0.979
4.43967	0.979
4.47948	0.934
4.5193	0.984
4.55911	0.978
4.59893	0.978
4.63874	0.976
4.67855	0.983
4.71837	0.979
4.75818	0.963
4.798	0.966
4.83781	0.971
4.87763	0.971
4.91744	0.973
4.95725	0.974
4.99707	0.974
5.03688	0.951
5.0767	0.951
5.11651	0.949
5.15633	0.954
5.19614	0.963
5.23595	0.953
5.27577	0.951
5.31558	0.949
5.3554	0.948
5.39521	0.963
5.43503	0.949
5.47484	0.929
5.51465	0.928
5.55447	0.928
5.59428	0.896
5.6341	0.894
5.67391	0.863
5.71372	0.749
5.75354	0.222
5.79335	0.073
5.83317	0.487
5.87298	0.744
5.9128	0.828
5.95261	0.828
5.99242	0.851
6.03224	0.871
6.07205	0.883
6.11187	0.886
6.15168	0.876
6.1915	0.826
6.23131	0.786
6.27112	0.689
6.31094	0.834
6.35075	0.888
6.39057	0.904
6.43038	0.906
6.4702	0.913
6.51001	0.908
6.54982	0.909
6.58964	0.903
6.62945	0.866
6.66927	0.792
6.70908	0.771
6.7489	0.811
6.78871	0.729
6.82852	0.662
6.86834	0.582
6.90815	0.429
6.94797	0.48
6.98778	0.681
7.02759	0.809
7.06741	0.854
7.10722	0.869
7.14704	0.879
7.18685	0.873
7.22667	0.828
7.26648	0.868
7.30629	0.881
7.34611	0.873
7.38592	0.866
7.42574	0.866
7.46555	0.863
7.50537	0.846
7.54518	0.797
7.58499	0.739
7.62481	0.537
7.66462	0.202
7.70444	0.24
7.74425	0.123
7.78407	0.076
7.82388	0.228
7.86369	0.5
7.90351	0.679
7.94332	0.762
7.98314	0.786
8.02295	0.779
8.06277	0.766
8.10258	0.779
8.14239	0.801
8.18221	0.744
8.22202	0.402
8.26184	0.151
8.30165	0.193
8.34146	0.472
8.38128	0.59
8.42109	0.714
8.46091	0.779
8.50072	0.814
8.54054	0.804
8.58035	0.829
8.62016	0.854
8.65998	0.864
8.69979	0.871
8.73961	0.878
8.77942	0.861
8.81924	0.859
8.85905	0.834
8.89886	0.786
8.93868	0.662
8.97849	0.378
9.01831	0.377
9.05812	0.544
9.09794	0.671
9.13775	0.644
9.17756	0.46
9.21738	0.577
9.25719	0.749
9.29701	0.834
9.33682	0.868
9.37664	0.873
9.41645	0.873
9.45626	0.878
9.49608	0.871
9.53589	0.863
9.57571	0.854
9.61552	0.868
9.65534	0.874
9.69515	0.888
9.73496	0.889
9.77478	0.884
9.81459	0.869
9.85441	0.826
9.89422	0.747
9.93403	0.714
9.97385	0.736
10.0137	0.806
10.0535	0.826
10.0933	0.843
10.1331	0.838
10.1729	0.804
10.2127	0.766
10.2525	0.761
10.2924	0.809
10.3322	0.841
10.372	0.876
10.4118	0.886
10.4516	0.894
10.4914	0.901
10.5312	0.906
10.5711	0.906
10.6109	0.906
10.6507	0.904
10.6905	0.896
10.7303	0.876
10.7701	0.861
10.8099	0.864
10.8498	0.874
10.8896	0.888
10.9294	0.891
10.9692	0.896
11.009	0.889
11.0488	0.883
11.0886	0.871
11.1285	0.863
11.1683	0.861
11.2081	0.864
11.2479	0.861
11.2877	0.868
11.3275	0.884
11.3673	0.884
11.4072	0.866
11.447	0.801
11.4868	0.776
11.5266	0.843
11.5664	0.881
11.6062	0.899
11.646	0.908
11.6859	0.911
11.7257	0.913
11.7655	0.916
11.8053	0.921
11.8451	0.921
11.8849	0.921
11.9247	0.923
11.9646	0.924
12.0044	0.924
12.0442	0.924
12.084	0.926
12.1238	0.921
12.1636	0.904
12.2034	0.874
12.2433	0.853
12.2831	0.848
12.3229	0.863
12.3627	0.883
12.4025	0.898
12.4423	0.908
12.4821	0.906
12.522	0.898
12.5618	0.876
12.6016	0.851
12.6414	0.762
12.6812	0.671
12.721	0.724
12.7608	0.826
12.8007	0.878
12.8405	0.884
12.8803	0.891
12.9201	0.893
12.9599	0.893
12.9997	0.888
13.0395	0.871
13.0794	0.854
13.1192	0.804
13.159	0.729
13.1988	0.592
13.2386	0.378
13.2784	0.277
13.3182	0.222
13.3581	0.202
13.3979	0.262
13.4377	0.429
13.4775	0.589
13.5173	0.712
13.5571	0.772
13.5969	0.813
13.6368	0.853
13.6766	0.871
13.7164	0.888
13.7562	0.891
13.796	0.896
13.8358	0.898
13.8756	0.903
13.9155	0.903
13.9553	0.903
13.9951	0.903
14.0349	0.903
14.0747	0.903
14.1145	0.903
14.1543	0.903
14.1942	0.901
14.234	0.901
14.2738	0.901
14.3136	0.903
14.3534	0.903
14.3932	0.889
14.433	0.878
14.4729	0.859
14.5127	0.819
14.5525	0.772
14.5923	0.726
14.6321	0.689
14.6719	0.687
14.7117	0.714
14.7516	0.771
14.7914	0.806
14.8312	0.823
14.871	0.816
14.9108	0.808
14.9506	0.803
14.9904	0.814
15.0303	0.831
15.0701	0.841
15.1099	0.843
15.1497	0.843
15.1895	0.843
15.2293	0.844
15.2691	0.844
15.309	0.844
15.3488	0.846
15.3886	0.841
15.4284	0.841
15.4682	0.834
15.508	0.836
15.5478	0.833
15.5877	0.829
15.6275	0.829
15.6673	0.826
15.7071	0.826
15.7469	0.824
15.7867	0.823
15.8265	0.821
15.8664	0.818
15.9062	0.816
15.946	0.809
15.9858	0.801
