Infrared Spectrum: BENOXINATE
Formula: C17 H28 N2 O3
CAS: 99-43-4
State: LIQUID (NEAT)
Class: COBLENTZ III
Instrument: PERKIN-ELMER 21 (GRATING)
Instrument parameters: FILTER AT ABOUT 10 MICRONS
Sampling: TRANSMISSION
Path length: CAPILLARY
Resolution: 2
1/CM	TRANSMITTANCE
4000	0.8494
3991	0.8488
3982	0.8482
3973	0.8478
3964	0.8481
3955	0.8484
3946	0.8487
3937	0.8491
3928	0.8495
3919	0.85
3910	0.8505
3901	0.851
3892	0.8515
3883	0.8518
3874	0.8521
3865	0.8525
3856	0.8528
3847	0.8531
3838	0.8531
3829	0.8531
3820	0.853
3811	0.8528
3802	0.8525
3793	0.8525
3784	0.8525
3775	0.853
3766	0.8543
3757	0.8559
3748	0.858
3739	0.8602
3730	0.8615
3721	0.8623
3712	0.8631
3703	0.863
3694	0.8624
3685	0.8618
3676	0.8607
3667	0.8595
3658	0.8574
3649	0.8546
3640	0.8518
3631	0.8477
3622	0.8425
3613	0.8364
3604	0.8304
3595	0.8243
3586	0.8181
3577	0.8119
3568	0.8058
3559	0.7996
3550	0.7934
3541	0.7871
3532	0.7808
3523	0.7745
3514	0.7687
3505	0.7615
3496	0.7492
3487	0.7287
3478	0.5787
3469	0.5449
3460	0.5458
3451	0.5646
3442	0.5881
3433	0.6118
3424	0.6356
3415	0.6575
3406	0.6584
3397	0.6275
3388	0.5562
3379	0.4841
3370	0.4122
3361	0.4037
3352	0.4352
3343	0.4824
3334	0.5299
3325	0.5776
3316	0.6133
3307	0.6393
3298	0.6548
3289	0.6668
3280	0.6761
3271	0.6848
3262	0.6946
3253	0.6994
3244	0.7012
3235	0.7012
3226	0.6981
3217	0.6855
3208	0.6681
3199	0.6506
3190	0.645
3181	0.6455
3172	0.6546
3163	0.6656
3154	0.6771
3145	0.6886
3136	0.6981
3127	0.7069
3118	0.7161
3109	0.7225
3100	0.7274
3091	0.7291
3082	0.7281
3073	0.7267
3064	0.7271
3055	0.7291
3046	0.731
3037	0.7322
3028	0.731
3019	0.7221
3010	0.7134
3001	0.6899
2992	0.654
2983	0.5567
2974	0.4162
2965	0.2628
2956	0.2641
2947	0.275
2938	0.2935
2929	0.3212
2920	0.3496
2911	0.378
2902	0.4068
2893	0.4356
2884	0.4425
2875	0.4326
2866	0.4271
2857	0.4631
2848	0.5066
2839	0.512
2830	0.5133
2821	0.5092
2812	0.5046
2803	0.5153
2794	0.5449
2785	0.5795
2776	0.611
2767	0.6353
2758	0.6684
2749	0.6936
2740	0.7038
2731	0.708
2722	0.7131
2713	0.7198
2704	0.7326
2695	0.7524
2686	0.7575
2677	0.7619
2668	0.768
2659	0.7739
2650	0.7791
2641	0.7842
2632	0.7901
2623	0.7969
2614	0.8051
2605	0.8132
2596	0.8183
2587	0.8225
2578	0.8256
2569	0.8286
2560	0.831
2551	0.8334
2542	0.8357
2533	0.8377
2524	0.8397
2515	0.8418
2506	0.8439
2497	0.8459
2488	0.8474
2479	0.8485
2470	0.8495
2461	0.8505
2452	0.851
2443	0.851
2434	0.851
2425	0.8493
2416	0.8468
2407	0.8447
2398	0.8432
2389	0.8434
2380	0.8439
2371	0.8452
2362	0.8465
2353	0.8478
2344	0.8494
2335	0.8509
2326	0.8521
2317	0.8528
2308	0.8534
2299	0.8528
2290	0.852
2281	0.8515
2272	0.8516
2263	0.8518
2254	0.8517
2245	0.8516
2236	0.8515
2227	0.8514
2218	0.8511
2209	0.851
2200	0.8507
2191	0.8504
2182	0.8502
2173	0.8495
2164	0.8487
2155	0.8475
2146	0.8451
2137	0.8417
2128	0.8394
2119	0.8375
2110	0.8371
2101	0.8375
2092	0.8389
2083	0.8413
2074	0.8428
2065	0.8437
2056	0.844
2047	0.8436
2038	0.8432
2029	0.843
2020	0.8428
2011	0.843
2002	0.8434
1993	0.8449
1984	0.8468
1975	0.8477
1966	0.8483
1957	0.8486
1948	0.8489
1939	0.8492
1930	0.8495
1921	0.8497
1912	0.8497
1903	0.8492
1894	0.8454
1885	0.8418
1876	0.8418
1867	0.8423
1858	0.8433
1849	0.8468
1840	0.8492
1831	0.8484
1822	0.8467
1813	0.8445
1804	0.8413
1795	0.8366
1786	0.8317
1777	0.8258
1768	0.816
1759	0.7968
1750	0.7799
1741	0.765
1732	0.6858
1723	0.5434
1714	0.2485
1705	0.2034
1696	0.2017
1687	0.2557
1678	0.413
1669	0.5658
1660	0.6098
1651	0.5912
1642	0.4593
1633	0.3046
1624	0.1896
1615	0.1856
1606	0.3087
1597	0.3202
1588	0.3409
1579	0.4515
1570	0.6152
1561	0.6624
1552	0.7046
1543	0.6364
1534	0.395
1525	0.3102
1516	0.3909
1507	0.6622
1498	0.7051
1489	0.6711
1480	0.5572
1471	0.4384
1462	0.4108
1453	0.3939
1444	0.2629
1435	0.3755
1426	0.6274
1417	0.6817
1408	0.6408
1399	0.5479
1390	0.4462
1381	0.3862
1372	0.3866
1363	0.4483
1354	0.5195
1345	0.5108
1336	0.4792
1327	0.4117
1318	0.2998
1309	0.2147
1300	0.1831
1291	0.1435
1282	0.2076
1273	0.2131
1264	0.1253
1255	0.1177
1246	0.2681
1237	0.3853
1228	0.3916
1219	0.2732
1210	0.1784
1201	0.2125
1192	0.3709
1183	0.5206
1174	0.6083
1165	0.6304
1156	0.4871
1147	0.3395
1138	0.4224
1129	0.4583
1120	0.3802
1111	0.2584
1102	0.2716
1093	0.335
1084	0.365
1075	0.3718
1066	0.3929
1057	0.5045
1048	0.5748
1039	0.52
1030	0.4098
1021	0.4064
1012	0.4267
1003	0.4862
994	0.4848
985	0.5017
976	0.5595
967	0.6304
958	0.6456
949	0.6268
940	0.661
931	0.6928
922	0.6905
913	0.7001
904	0.72
895	0.7226
886	0.6631
877	0.595
868	0.7017
859	0.7208
850	0.7105
841	0.6933
832	0.6292
823	0.6176
814	0.6788
805	0.6518
796	0.6138
787	0.6132
778	0.608
769	0.3616
760	0.4259
751	0.609
742	0.6002
733	0.552
724	0.5833
715	0.6358
706	0.6328
697	0.63
688	0.6142
679	0.6023
670	0.5851
