Infrared Spectrum: BENZENE, m-DINITRO-
Formula: C6 H4 N2 O4
CAS: 99-65-0
State: SOLUTION 1% (CS2 FOR 2-15 microns, AND C2Cl4 FOR 2-7.3 microns)
Melting point: 89-90 C
Boiling point: 300-303 C
Class: COBLENTZ III
Instrument: PERKIN-ELMER 21 (GRATING)
Instrument parameters: FILTER AT ABOUT 10 MICRONS
Sampling: TRANSMISSION
Resolution: 2
1/CM	TRANSMITTANCE
4000	1.0203
3991	1.0203
3982	1.0204
3973	1.0204
3964	1.0204
3955	1.0205
3946	1.0205
3937	1.0205
3928	1.0206
3919	1.0206
3910	1.021
3901	1.0215
3892	1.0221
3883	1.0227
3874	1.0233
3865	1.0238
3856	1.0244
3847	1.025
3838	1.0256
3829	1.026
3820	1.0263
3811	1.0265
3802	1.0268
3793	1.0271
3784	1.0274
3775	1.0275
3766	1.0278
3757	1.0282
3748	1.0285
3739	1.0287
3730	1.0286
3721	1.0285
3712	1.0284
3703	1.0282
3694	1.0281
3685	1.028
3676	1.0278
3667	1.0278
3658	1.0275
3649	1.0274
3640	1.0274
3631	1.0274
3622	1.0274
3613	1.0274
3604	1.0274
3595	1.0274
3586	1.0277
3577	1.0285
3568	1.0292
3559	1.03
3550	1.0307
3541	1.0316
3532	1.0323
3523	1.0331
3514	1.0337
3505	1.0335
3496	1.0333
3487	1.0331
3478	1.0328
3469	1.0327
3460	1.0325
3451	1.0323
3442	1.0318
3433	1.0313
3424	1.0307
3415	1.0302
3406	1.0298
3397	1.0292
3388	1.0287
3379	1.0282
3370	1.0281
3361	1.0282
3352	1.0283
3343	1.0284
3334	1.0286
3325	1.0287
3316	1.0288
3307	1.0288
3298	1.0288
3289	1.0288
3280	1.0288
3271	1.0288
3262	1.0283
3253	1.0278
3244	1.0273
3235	1.0263
3226	1.0248
3217	1.0233
3208	1.022
3199	1.0211
3190	1.0198
3181	1.0178
3172	1.014
3163	1.0044
3154	0.9927
3145	0.9004
3136	0.7747
3127	0.6646
3118	0.6501
3109	0.653
3100	0.7091
3091	0.7684
3082	0.828
3073	0.8878
3064	0.9288
3055	0.9395
3046	0.9507
3037	0.9621
3028	0.9739
3019	0.9851
3010	0.9964
3001	1.0075
2992	1.0135
2983	1.014
2974	1.0131
2965	1.0039
2956	0.9913
2947	0.9874
2938	0.9866
2929	0.9863
2920	0.9845
2911	0.981
2902	0.9647
2893	0.922
2884	0.885
2875	0.8807
2866	0.8856
2857	0.908
2848	0.9304
2839	0.9515
2830	0.96
2821	0.9641
2812	0.9675
2803	0.9712
2794	0.9733
2785	0.9752
2776	0.9771
2767	0.9801
2758	0.983
2749	0.9861
2740	0.9893
2731	0.9942
2722	0.9997
2713	1.0018
2704	1.0025
2695	1
2686	0.9949
2677	0.996
2668	1.0039
2659	1.0114
2650	1.0155
2641	1.0168
2632	1.0181
2623	1.0185
2614	1.0187
2605	1.0189
2596	1.019
2587	1.019
2578	1.0192
2569	1.0201
2560	1.021
2551	1.022
2542	1.0228
2533	1.0236
2524	1.0244
2515	1.025
2506	1.0247
2497	1.0202
2488	1.0155
2479	1.0158
2470	1.0171
2461	1.0186
2452	1.0192
2443	1.0191
2434	1.0189
2425	1.0187
2416	1.019
2407	1.0199
2398	1.0208
2389	1.0217
2380	1.0221
2371	1.0227
2362	1.0231
2353	1.0227
2344	1.022
2335	1.0214
2326	1.0209
2317	1.0204
2308	1.0201
2299	1.0203
2290	1.0209
2281	1.0218
2272	1.023
2263	1.0221
2254	1.0208
2245	1.021
2236	1.0216
2227	1.0221
2218	1.0233
2209	1.0238
2200	1.0236
2191	1.0236
2182	1.0238
2173	1.0238
2164	1.0235
2155	1.0232
2146	1.0241
2137	1.0251
2128	1.0258
2119	1.0265
2110	1.027
2101	1.0273
2092	1.0277
2083	1.0265
2074	1.0251
2065	1.0236
2056	1.0237
2047	1.0252
2038	1.027
2029	1.0282
2020	1.0289
2011	1.0295
2002	1.0299
1993	1.0304
1984	1.0268
1975	0.9835
1966	0.9908
1957	1.008
1948	1.0178
1939	1.0199
1930	1.0195
1921	0.9635
1912	0.9832
1903	1.0142
1894	1.0188
1885	1.0199
1876	1.0134
1867	0.9956
1858	1.0112
1849	1.0171
1840	1.0084
1831	0.9701
1822	0.9628
1813	1.0004
1804	1.0152
1795	1.0202
1786	1.0191
1777	1.0188
1768	1.0128
1759	0.994
1750	0.9464
1741	0.9181
1732	0.9699
1723	0.9688
1714	0.9602
1705	0.9607
1696	0.9635
1687	0.9673
1678	0.9657
1669	0.9475
1660	0.8659
1651	0.8303
1642	0.8157
1633	0.6625
1624	0.4129
1615	0.2768
1606	0.2624
1597	0.6139
1588	0.6858
1579	0.6921
1570	0.6289
1561	0.3992
1552	0.1166
1543	0.0429
1534	0.2064
1525	0.4005
1516	0.3597
1507	0.6059
1498	0.7565
1489	0.8001
1480	0.8108
1471	0.778
1462	0.8385
1453	0.8814
1444	0.8821
1435	0.8999
1426	0.9036
1417	0.8664
1408	0.8762
1399	0.8825
1390	0.8292
1381	0.7462
1372	0.6117
1363	0.5045
1354	0.2012
1345	0.036
1336	0.1469
1327	0.5558
1318	0.6899
1309	0.8125
1300	0.854
1291	0.9186
1282	0.938
1273	0.9346
1264	0.7328
1255	0.9188
1246	0.9095
1237	0.941
1228	0.944
1219	0.9541
1210	0.9574
1201	0.9534
1192	0.9488
1183	0.9283
1174	0.9085
1165	0.8904
1156	0.7168
1147	0.8244
1138	0.9011
1129	0.9232
1120	0.923
1111	0.9325
1102	0.929
1093	0.8208
1084	0.7396
1075	0.7511
1066	0.3496
1057	0.6678
1048	0.8556
1039	0.9271
1030	0.9436
1021	0.9475
1012	0.9449
1003	0.8981
994	0.8975
985	0.9132
976	0.9427
967	0.9511
958	0.9531
949	0.953
940	0.9481
931	0.9225
922	0.8495
913	0.2214
904	0.4394
895	0.7972
886	0.9173
877	0.9452
868	0.9625
859	0.9657
850	0.9611
841	0.9183
832	0.3216
823	0.8802
814	0.8398
805	0.4566
796	0.9111
787	0.9467
778	0.9554
769	0.9534
760	0.9314
751	0.8745
742	0.8588
733	0.8064
724	0.2572
715	0.3284
706	0.0988
697	0.7725
688	0.9
679	0.9348
670	0.9423
