Infrared Spectrum: ETHYL P-NITROBENZOATE
Formula: C9 H9 N O4
CAS: 99-77-4
State: SOLID (MULL)
Melting point: 55.5-57.5 C
Class: COBLENTZ
Instrument: Not specified, most likely a prism, grating, or hybrid spectrometer.
Sampling: TRANSMISSION
Resolution: 4
Origin: WYANDOTTE CHEMICALS CORP., WYANDOTTE, MICHIGAN, USA
MICROMETERS	TRANSMITTANCE
2.02	0.506
2.05894	0.509
2.09788	0.511
2.13682	0.521
2.17576	0.512
2.21469	0.504
2.25363	0.508
2.29257	0.516
2.33151	0.516
2.37045	0.519
2.40939	0.53
2.44833	0.537
2.48727	0.542
2.5262	0.556
2.56514	0.555
2.60408	0.548
2.64302	0.572
2.68196	0.574
2.7209	0.576
2.75984	0.579
2.79878	0.574
2.83771	0.579
2.87665	0.576
2.91559	0.569
2.95453	0.555
2.99347	0.571
3.03241	0.572
3.07135	0.58
3.11029	0.574
3.14922	0.564
3.18816	0.529
3.2271	0.467
3.26604	0.472
3.30498	0.36
3.34392	0.05
3.38286	0.032
3.4218	0.037
3.46073	0.071
3.49967	0.076
3.53861	0.407
3.57755	0.603
3.61649	0.64
3.65543	0.642
3.69437	0.647
3.73331	0.658
3.77224	0.668
3.81118	0.681
3.85012	0.689
3.88906	0.702
3.928	0.716
3.96694	0.731
4.00588	0.741
4.04482	0.742
4.08376	0.749
4.12269	0.739
4.16163	0.747
4.20057	0.752
4.23951	0.737
4.27845	0.729
4.31739	0.734
4.35633	0.771
4.39527	0.797
4.4342	0.797
4.47314	0.791
4.51208	0.809
4.55102	0.81
4.58996	0.822
4.6289	0.826
4.66784	0.831
4.70678	0.843
4.74571	0.846
4.78465	0.849
4.82359	0.867
4.86253	0.875
4.90147	0.885
4.94041	0.896
4.97935	0.893
5.01829	0.902
5.05722	0.901
5.09616	0.899
5.1351	0.881
5.17404	0.841
5.21298	0.893
5.25192	0.943
5.29086	0.956
5.3298	0.954
5.36873	0.959
5.40767	0.978
5.44661	0.962
5.48555	0.959
5.52449	0.927
5.56343	0.893
5.60237	0.902
5.64131	0.894
5.68024	0.794
5.71918	0.592
5.75812	0.357
5.79706	0.177
5.836	0.139
5.87494	0.257
5.91388	0.389
5.95282	0.483
5.99176	0.543
6.03069	0.622
6.06963	0.713
6.10857	0.763
6.14751	0.671
6.18645	0.414
6.22539	0.427
6.26433	0.653
6.30327	0.676
6.3422	0.689
6.38114	0.653
6.42008	0.597
6.45902	0.44
6.49796	0.195
6.5369	0.139
6.57584	0.241
6.61478	0.373
6.65371	0.419
6.69265	0.457
6.73159	0.389
6.77053	0.187
6.80947	0.14
6.84841	0.148
6.88735	0.26
6.92629	0.398
6.96522	0.579
7.00416	0.642
7.0431	0.592
7.08204	0.5
7.12098	0.538
7.15992	0.449
7.19886	0.344
7.2378	0.218
7.27673	0.194
7.31567	0.249
7.35461	0.224
7.39355	0.158
7.43249	0.174
7.47143	0.244
7.51037	0.351
7.54931	0.194
7.58824	0.173
7.62718	0.195
7.66612	0.161
7.70506	0.14
7.744	0.131
7.78294	0.101
7.82188	0.097
7.86082	0.087
7.89976	0.16
7.93869	0.229
7.97763	0.283
8.01657	0.315
8.05551	0.33
8.09445	0.351
8.13339	0.407
8.17233	0.464
8.21127	0.5
8.2502	0.522
8.28914	0.559
8.32808	0.592
8.36702	0.611
8.40596	0.635
8.4449	0.648
8.48384	0.65
8.52278	0.6
8.56171	0.561
8.60065	0.593
8.63959	0.629
8.67853	0.652
8.71747	0.658
8.75641	0.621
8.79535	0.527
8.83429	0.432
8.87322	0.441
8.91216	0.462
8.9511	0.401
8.99004	0.326
9.02898	0.153
9.06792	0.15
9.10686	0.317
9.1458	0.401
9.18473	0.459
9.22367	0.498
9.26261	0.512
9.30155	0.532
9.34049	0.577
9.37943	0.626
9.41837	0.656
9.45731	0.679
9.49624	0.697
9.53518	0.72
9.57412	0.736
9.61306	0.739
9.652	0.728
9.69094	0.686
9.72988	0.585
9.76882	0.423
9.80776	0.339
9.84669	0.375
9.88563	0.333
9.92457	0.38
9.96351	0.453
10.0024	0.504
10.0414	0.555
10.0803	0.588
10.1193	0.619
10.1582	0.622
10.1971	0.635
10.2361	0.652
10.275	0.652
10.314	0.658
10.3529	0.681
10.3918	0.692
10.4308	0.7
10.4697	0.707
10.5087	0.716
10.5476	0.721
10.5865	0.731
10.6255	0.741
10.6644	0.745
10.7033	0.749
10.7423	0.75
10.7812	0.752
10.8202	0.762
10.8591	0.766
10.898	0.775
10.937	0.775
10.9759	0.783
11.0149	0.796
11.0538	0.799
11.0927	0.797
11.1317	0.796
11.1706	0.794
11.2096	0.784
11.2485	0.763
11.2874	0.752
11.3264	0.71
11.3653	0.614
11.4042	0.444
11.4432	0.328
11.4821	0.237
11.5211	0.302
11.56	0.491
11.5989	0.677
11.6379	0.745
11.6768	0.817
11.7158	0.857
11.7547	0.877
11.7936	0.834
11.8326	0.705
11.8715	0.474
11.9104	0.278
11.9494	0.304
11.9883	0.406
12.0273	0.508
12.0662	0.582
12.1051	0.637
12.1441	0.669
12.183	0.692
12.222	0.708
12.2609	0.724
12.2998	0.736
12.3388	0.741
12.3777	0.745
12.4167	0.754
12.4556	0.758
12.4945	0.755
12.5335	0.75
12.5724	0.741
12.6113	0.716
12.6503	0.674
12.6892	0.576
12.7282	0.402
12.7671	0.598
12.806	0.766
12.845	0.788
12.8839	0.796
12.9229	0.8
12.9618	0.799
13.0007	0.797
13.0397	0.796
13.0786	0.796
13.1176	0.797
13.1565	0.799
13.1954	0.794
13.2344	0.791
13.2733	0.778
13.3122	0.763
13.3512	0.757
13.3901	0.747
13.4291	0.731
13.468	0.718
13.5069	0.699
13.5459	0.674
13.5848	0.65
13.6238	0.637
13.6627	0.61
13.7016	0.587
13.7406	0.556
13.7795	0.514
13.8184	0.469
13.8574	0.407
13.8963	0.334
13.9353	0.247
13.9742	0.2
14.0131	0.179
14.0521	0.16
14.091	0.174
14.13	0.249
14.1689	0.317
14.2078	0.399
14.2468	0.519
14.2857	0.624
14.3247	0.699
14.3636	0.75
14.4025	0.781
14.4415	0.822
14.4804	0.843
14.5193	0.865
14.5583	0.875
14.5972	0.881
14.6362	0.883
14.6751	0.888
14.714	0.891
14.753	0.885
14.7919	0.888
14.8309	0.88
14.8698	0.881
14.9087	0.88
14.9477	0.862
14.9866	0.847
15.0256	0.81
15.0645	0.768
15.1034	0.768
15.1424	0.818
15.1813	0.851
15.2202	0.846
15.2592	0.831
15.2981	0.818
15.3371	0.809
15.376	0.792
15.4149	0.783
15.4539	0.771
15.4928	0.757
15.5318	0.745
15.5707	0.733
15.6096	0.731
15.6486	0.724
15.6875	0.713
15.7264	0.7
15.7654	0.682
15.8043	0.677
15.8433	0.66
15.8822	0.65
15.9211	0.637
15.9601	0.627
15.999	0.621
