Infrared Spectrum: Alpha PHELLANDRENE
Formula: C10 H16
CAS: 99-83-2
Class: COBLENTZ
Instrument: Not specified, most likely a prism, grating, or hybrid spectrometer.
Sampling: TRANSMISSION
Resolution: 4
Origin: INTERNATIONAL FLAVORS & FRAGRANCES, INC.
MICROMETERS	TRANSMITTANCE
2.024	0.924
2.06	0.924
2.096	0.924
2.132	0.923
2.168	0.921
2.204	0.916
2.24	0.907
2.276	0.889
2.312	0.8641
2.348	0.876
2.384	0.886
2.42	0.887
2.456	0.887
2.492	0.9
2.528	0.898
2.564	0.9
2.6	0.91
2.636	0.912
2.672	0.915
2.708	0.923
2.744	0.923
2.78	0.926
2.816	0.926
2.852	0.926
2.888	0.921
2.924	0.916
2.96	0.915
2.996	0.913
3.032	0.913
3.068	0.913
3.104	0.895
3.14	0.88
3.176	0.88
3.212	0.8362
3.248	0.6636
3.284	0.278
3.32	0.481
3.356	0.0872
3.392	0.044
3.428	0.1559
3.464	0.081
3.5	0.3516
3.536	0.3359
3.572	0.7262
3.608	0.8209
3.644	0.823
3.68	0.86
3.716	0.883
3.752	0.884
3.788	0.883
3.824	0.895
3.86	0.896
3.896	0.9
3.932	0.907
3.968	0.913
4.004	0.918
4.04	0.921
4.076	0.926
4.112	0.926
4.148	0.924
4.184	0.926
4.22	0.92
4.256	0.923
4.292	0.927
4.328	0.946
4.364	0.949
4.4	0.947
4.436	0.946
4.472	0.941
4.508	0.944
4.544	0.95
4.58	0.95
4.616	0.95
4.652	0.953
4.688	0.952
4.724	0.952
4.76	0.952
4.796	0.953
4.832	0.95
4.868	0.95
4.904	0.953
4.94	0.953
4.976	0.952
5.012	0.95
5.048	0.95
5.084	0.952
5.12	0.95
5.156	0.953
5.192	0.9495
5.228	0.9422
5.264	0.9357
5.3	0.938
5.336	0.9463
5.372	0.9517
5.408	0.9499
5.444	0.9459
5.48	0.943
5.516	0.9352
5.552	0.935
5.588	0.936
5.624	0.936
5.66	0.9343
5.696	0.9237
5.732	0.9098
5.768	0.9151
5.804	0.9199
5.84	0.9061
5.876	0.895
5.912	0.8886
5.948	0.8543
5.984	0.8041
6.02	0.7743
6.056	0.8786
6.092	0.8904
6.128	0.8985
6.164	0.8997
6.2	0.8695
6.236	0.7924
6.272	0.8309
6.308	0.8668
6.344	0.888
6.38	0.8991
6.416	0.9035
6.452	0.903
6.488	0.906
6.524	0.898
6.56	0.895
6.596	0.883
6.632	0.8798
6.668	0.8533
6.704	0.8083
6.74	0.6655
6.776	0.4241
6.812	0.2397
6.848	0.2916
6.884	0.3371
6.92	0.4055
6.956	0.4146
6.992	0.5146
7.028	0.695
7.064	0.7556
7.1	0.6975
7.136	0.689
7.172	0.5501
7.208	0.286
7.244	0.4457
7.28	0.4928
7.316	0.4238
7.352	0.7058
7.388	0.7609
7.424	0.795
7.46	0.7904
7.496	0.7885
7.532	0.7935
7.568	0.746
7.604	0.7879
7.64	0.8043
7.676	0.8447
7.712	0.816
7.748	0.7864
7.784	0.8613
7.82	0.8765
7.856	0.881
7.892	0.88
7.928	0.8695
7.964	0.8692
8	0.8773
8.036	0.8679
8.072	0.8632
8.108	0.875
8.144	0.88
8.18	0.8652
8.216	0.8125
8.252	0.7607
8.288	0.6865
8.324	0.7586
8.36	0.8291
8.396	0.8541
8.432	0.8538
8.468	0.831
8.504	0.7746
8.54	0.6179
8.576	0.515
8.612	0.6557
8.648	0.7273
8.684	0.7943
8.72	0.8155
8.756	0.7328
8.792	0.7905
8.828	0.8235
8.864	0.8282
8.9	0.8716
8.936	0.8745
8.972	0.872
9.008	0.8749
9.044	0.8553
9.08	0.773
9.116	0.7475
9.152	0.7738
9.188	0.7957
9.224	0.8161
9.26	0.834
9.296	0.7583
9.332	0.7774
9.368	0.8239
9.404	0.8568
9.44	0.8781
9.476	0.8869
9.512	0.892
9.548	0.8893
9.584	0.8769
9.62	0.8081
9.656	0.6763
9.692	0.7189
9.728	0.7858
9.764	0.7957
9.8	0.7898
9.836	0.7964
9.872	0.809
9.908	0.8129
9.944	0.84
9.98	0.855
10.016	0.8427
10.052	0.7778
10.088	0.758
10.124	0.7695
10.16	0.828
10.196	0.8637
10.232	0.88
10.268	0.881
10.304	0.8561
10.34	0.7768
10.376	0.7739
10.412	0.778
10.448	0.7798
10.484	0.7815
10.52	0.742
10.556	0.7246
10.592	0.7268
10.628	0.7099
10.664	0.736
10.7	0.7796
10.736	0.784
10.772	0.7646
10.808	0.7446
10.844	0.694
10.88	0.7047
10.916	0.7323
10.952	0.7931
10.988	0.8314
11.024	0.8396
11.06	0.8237
11.096	0.798
11.132	0.798
11.168	0.7881
11.204	0.7511
11.24	0.756
11.276	0.8114
11.312	0.8616
11.348	0.8909
11.384	0.9044
11.42	0.9121
11.456	0.916
11.492	0.92
11.528	0.92
11.564	0.9124
11.6	0.9032
11.636	0.9
11.672	0.9036
11.708	0.9016
11.744	0.8855
11.78	0.8607
11.816	0.8704
11.852	0.8891
11.888	0.901
11.924	0.906
11.96	0.91
11.996	0.91
12.032	0.9064
12.068	0.8945
12.104	0.878
12.14	0.8566
12.176	0.8617
12.212	0.8735
12.248	0.873
12.284	0.8698
12.32	0.8521
12.356	0.828
12.392	0.7717
12.428	0.6805
12.464	0.543
12.5	0.4244
12.536	0.3398
12.572	0.2735
12.608	0.2608
12.644	0.338
12.68	0.4518
12.716	0.5747
12.752	0.6467
12.788	0.652
12.824	0.6358
12.86	0.6693
12.896	0.6983
12.932	0.7054
12.968	0.7443
13.004	0.7846
13.04	0.8185
13.076	0.8301
13.112	0.836
13.148	0.84
13.184	0.836
13.22	0.8277
13.256	0.8163
13.292	0.7921
13.328	0.7448
13.364	0.6551
13.4	0.5498
13.436	0.504
13.472	0.5279
13.508	0.5764
13.544	0.6029
13.58	0.5778
13.616	0.4915
13.652	0.3489
13.688	0.2254
13.724	0.1791
13.76	0.1767
13.796	0.2345
13.832	0.3476
13.868	0.4733
13.904	0.5924
13.94	0.6629
13.976	0.7035
14.012	0.7315
14.048	0.738
14.084	0.738
14.12	0.7076
14.156	0.6354
14.192	0.583
14.228	0.6053
14.264	0.6521
14.3	0.6922
14.336	0.7288
14.372	0.7526
14.408	0.7715
14.444	0.778
14.48	0.783
14.516	0.783
14.552	0.781
14.588	0.78
14.624	0.7713
14.66	0.7603
14.696	0.7465
14.732	0.7319
14.768	0.7062
14.804	0.6802
14.84	0.6663
14.876	0.6604
14.912	0.6525
14.948	0.6607
14.984	0.689
