Infrared Spectrum: P-ISOPROPYLPHENOL
Formula: C9 H12 O
CAS: 99-89-8
State: SOLUTION (ETHYL ETHER)
Class: COBLENTZ
Instrument: Not specified, most likely a prism, grating, or hybrid spectrometer.
Sampling: TRANSMISSION
Path length: 0.0200 CM
Resolution: 4
Origin: BATTELLE MEMORIAL INSTITUTE (R. JAKOBSEN)
1/CM	TRANSMITTANCE
300	0.294
300.93	0.304
301.86	0.32
302.789	0.337
303.719	0.325
304.649	0.357
305.579	0.407
306.509	0.45
307.438	0.482
308.368	0.517
309.298	0.539
310.228	0.557
311.157	0.565
312.087	0.569
313.017	0.589
313.947	0.56
314.877	0.564
315.806	0.569
316.736	0.556
317.666	0.564
318.596	0.584
319.526	0.585
320.455	0.58
321.385	0.559
322.315	0.575
323.245	0.569
324.175	0.576
325.104	0.585
326.034	0.567
326.964	0.576
327.894	0.588
328.824	0.577
329.753	0.575
330.683	0.656
331.613	0.652
332.543	0.646
333.472	0.642
334.402	0.656
335.332	0.673
336.262	0.69
337.192	0.682
338.121	0.653
339.051	0.656
339.981	0.653
340.911	0.652
341.841	0.66
342.77	0.66
343.7	0.653
344.63	0.65
345.56	0.652
346.49	0.653
347.419	0.662
348.349	0.665
349.279	0.674
350.209	0.699
351.139	0.709
352.068	0.717
352.998	0.721
353.928	0.727
354.858	0.719
355.787	0.703
356.717	0.695
357.647	0.677
358.577	0.671
359.507	0.657
360.436	0.853
361.366	0.856
362.296	0.857
363.226	0.852
364.156	0.847
365.085	0.845
366.015	0.835
366.945	0.83
367.875	0.828
368.805	0.826
369.734	0.824
370.664	0.822
371.594	0.816
372.524	0.81
373.453	0.807
374.383	0.804
375.313	0.811
376.243	0.82
377.173	0.824
378.102	0.814
379.032	0.791
379.962	0.782
380.892	0.771
381.822	0.767
382.751	0.759
383.681	0.754
384.611	0.762
385.541	0.767
386.471	0.772
387.4	0.778
388.33	0.772
389.26	0.77
390.19	0.768
391.12	0.768
392.049	0.771
392.979	0.77
393.909	0.776
394.839	0.779
395.768	0.786
396.698	0.792
397.628	0.798
398.558	0.796
399.488	0.796
400.417	0.791
401.347	0.784
402.277	0.774
403.207	0.76
404.137	0.741
405.066	0.726
405.996	0.727
406.926	0.721
407.856	0.713
408.786	0.71
409.715	0.707
410.645	0.71
411.575	0.711
412.505	0.713
413.435	0.711
414.364	0.711
415.294	0.711
416.224	0.723
417.154	0.725
418.083	0.743
419.013	0.754
419.943	0.76
420.873	0.762
421.803	0.763
422.732	0.763
423.662	0.754
424.592	0.749
425.522	0.746
426.452	0.751
427.381	0.755
428.311	0.752
429.241	0.752
430.171	0.756
431.101	0.756
432.03	0.754
432.96	0.754
433.89	0.746
434.82	0.743
435.749	0.737
436.679	0.726
437.609	0.706
438.539	0.693
439.469	0.687
440.398	0.683
441.328	0.681
442.258	0.677
443.188	0.674
444.118	0.667
445.047	0.662
445.977	0.657
446.907	0.645
447.837	0.633
448.767	0.625
449.696	0.624
450.626	0.626
451.556	0.629
452.486	0.638
453.416	0.653
454.345	0.679
455.275	0.691
456.205	0.706
457.135	0.721
458.064	0.737
458.994	0.747
459.924	0.751
460.854	0.751
461.784	0.755
462.713	0.762
463.643	0.763
464.573	0.77
465.503	0.772
466.433	0.776
467.362	0.782
468.292	0.787
469.222	0.794
470.152	0.796
471.082	0.798
472.011	0.8
472.941	0.803
473.871	0.808
474.801	0.806
475.731	0.803
476.66	0.8
477.59	0.798
478.52	0.79
479.45	0.788
480.379	0.788
481.309	0.787
482.239	0.787
483.169	0.788
484.099	0.779
485.028	0.782
485.958	0.782
486.888	0.774
487.818	0.767
488.748	0.76
489.677	0.758
490.607	0.755
491.537	0.752
492.467	0.751
493.397	0.741
494.326	0.726
495.256	0.719
496.186	0.713
497.116	0.701
498.045	0.679
498.975	0.673
499.905	0.665
500.835	0.658
501.765	0.654
502.694	0.649
503.624	0.637
504.554	0.625
505.484	0.62
506.414	0.617
507.343	0.61
508.273	0.61
509.203	0.606
510.133	0.602
511.063	0.601
511.992	0.593
512.922	0.588
513.852	0.584
514.782	0.58
515.712	0.573
516.641	0.565
517.571	0.556
518.501	0.549
519.431	0.539
520.36	0.535
521.29	0.528
522.22	0.523
523.15	0.521
524.08	0.511
525.009	0.501
525.939	0.492
526.869	0.483
527.799	0.472
528.729	0.46
529.658	0.454
530.588	0.447
531.518	0.44
532.448	0.434
533.378	0.422
534.307	0.398
535.237	0.387
536.167	0.371
537.097	0.354
538.027	0.317
538.956	0.28
539.886	0.253
540.816	0.235
541.746	0.213
542.675	0.179
543.605	0.138
544.535	0.099
545.465	0.073
546.395	0.057
547.324	0.045
548.254	0.037
549.184	0.033
550.114	0.034
551.044	0.041
551.973	0.049
552.903	0.071
553.833	0.1
554.763	0.135
555.693	0.163
556.622	0.2
557.552	0.247
558.482	0.288
559.412	0.312
560.341	0.324
561.271	0.335
562.201	0.353
563.131	0.371
564.061	0.39
564.99	0.406
565.92	0.414
566.85	0.422
567.78	0.432
568.71	0.442
569.639	0.448
570.569	0.452
571.499	0.455
572.429	0.458
573.359	0.46
574.288	0.463
575.218	0.47
576.148	0.47
577.078	0.471
578.008	0.472
578.937	0.471
579.867	0.475
580.797	0.475
581.727	0.476
582.656	0.478
583.586	0.478
584.516	0.472
585.446	0.471
586.376	0.475
587.305	0.475
588.235	0.474
589.165	0.475
590.095	0.476
591.025	0.474
591.954	0.474
592.884	0.47
593.814	0.464
594.744	0.464
595.674	0.462
596.603	0.46
597.533	0.463
598.463	0.467
599.393	0.464
600.323	0.464
601.252	0.467
602.182	0.466
603.112	0.46
604.042	0.463
604.971	0.462
605.901	0.458
606.831	0.455
607.761	0.45
608.691	0.452
609.62	0.451
610.55	0.448
611.48	0.448
612.41	0.447
613.34	0.444
614.269	0.44
615.199	0.44
616.129	0.439
617.059	0.436
617.989	0.436
618.918	0.436
619.848	0.434
620.778	0.435
621.708	0.432
622.637	0.428
623.567	0.428
624.497	0.426
625.427	0.422
626.357	0.42
627.286	0.422
628.216	0.42
629.146	0.418
630.076	0.415
631.006	0.414
631.935	0.414
632.865	0.411
633.795	0.411
634.725	0.413
635.655	0.407
636.584	0.405
637.514	0.397
638.444	0.394
639.374	0.386
640.304	0.382
641.233	0.381
642.163	0.378
643.093	0.378
644.023	0.383
644.952	0.39
645.882	0.393
646.812	0.401
647.742	0.402
648.672	0.399
649.601	0.403
650.531	0.402
651.461	0.401
652.391	0.397
653.321	0.397
654.25	0.399
655.18	0.402
656.11	0.401
657.04	0.398
657.97	0.398
658.899	0.402
