Infrared Spectrum: BENZENE, 1-METHYL-4(1-METHYLETHYL)-
Formula: C10 H14
CAS: 99-87-6
State: VAPOR (20 MICROLITER AT 150 C)
Boiling point: 177 C
Class: COBLENTZ
Instrument: PERKIN-ELMER 180
Sampling: TRANSMISSION
Path length: 5 CM KBr CELL, CELL VOLUME: 80 CM^3
Resolution: 2-3 CM^-^1
Origin: PERKIN-ELMER CORP. (M. ZELLER)
1/CM	TRANSMITTANCE
404.064	0.483
413.548	0.579
423.031	0.643
432.515	0.7
441.998	0.749
451.482	0.791
460.965	0.826
470.449	0.86
479.932	0.88
489.416	0.886
498.899	0.878
508.383	0.863
517.866	0.819
527.35	0.758
536.834	0.735
546.317	0.772
555.801	0.831
565.284	0.8899
574.768	0.922
584.251	0.939
593.735	0.943
603.218	0.947
612.702	0.945
622.185	0.945
631.669	0.943
641.152	0.947
650.636	0.947
660.119	0.947
669.603	0.941
679.087	0.943
688.57	0.934
698.054	0.922
707.537	0.906
717.021	0.882
726.504	0.875
735.988	0.901
745.471	0.915
754.955	0.917
764.438	0.913
773.922	0.903
783.405	0.884
792.889	0.837
802.373	0.6861
811.856	0.531
821.34	0.5429
830.823	0.71
840.307	0.857
849.79	0.905
859.274	0.92
868.757	0.925
878.241	0.928
887.724	0.921
897.208	0.922
906.691	0.926
916.175	0.925
925.659	0.925
935.142	0.924
944.626	0.922
954.109	0.922
963.593	0.921
973.076	0.917
982.56	0.915
992.043	0.915
1001.53	0.909
1011.01	0.8221
1020.49	0.799
1029.98	0.844
1039.46	0.855
1048.94	0.794
1058.43	0.743
1067.91	0.78
1077.4	0.841
1086.88	0.853
1096.36	0.834
1105.85	0.806
1115.33	0.802
1124.81	0.827
1134.3	0.844
1143.78	0.85
1153.26	0.865
1162.75	0.872
1172.23	0.868
1181.71	0.859
1191.2	0.85
1200.68	0.844
1210.16	0.84
1219.65	0.856
1229.13	0.855
1238.62	0.852
1248.1	0.861
1257.58	0.855
1267.07	0.841
1276.55	0.838
1286.03	0.845
1295.52	0.831
1305	0.781
1314.48	0.808
1323.97	0.83
1333.45	0.823
1342.93	0.802
1352.42	0.776
1361.9	0.757
1371.38	0.726
1380.87	0.707
1390.35	0.712
1399.84	0.754
1409.32	0.773
1418.8	0.765
1428.29	0.758
1437.77	0.756
1447.25	0.741
1456.74	0.696
1466.22	0.659
1475.7	0.672
1485.19	0.734
1494.67	0.762
1504.15	0.6889
1513.64	0.475
1523.12	0.525
1532.6	0.7471
1542.09	0.814
1551.57	0.836
1561.06	0.841
1570.54	0.838
1580.02	0.831
1589.51	0.83
1598.99	0.831
1608.47	0.831
1617.96	0.831
1627.44	0.827
1636.92	0.821
1646.41	0.83
1655.89	0.844
1665.37	0.856
1674.86	0.856
1684.34	0.848
1693.82	0.837
1703.31	0.825
1712.79	0.83
1722.28	0.836
1731.76	0.845
1741.24	0.857
1750.73	0.864
1760.21	0.872
1769.69	0.869
1779.18	0.864
1788.66	0.878
1798.14	0.903
1807.63	0.91
1817.11	0.913
1826.59	0.913
1836.08	0.914
1845.56	0.911
1855.05	0.906
1864.53	0.899
1874.01	0.884
1883.5	0.869
1892.98	0.868
1902.46	0.884
1911.95	0.899
1921.43	0.905
1930.91	0.906
1940.4	0.906
1949.88	0.907
1959.36	0.91
1968.85	0.905
1978.33	0.906
1987.81	0.903
1997.3	0.905
2006.78	0.904
2016.27	0.902
2025.75	0.902
2035.23	0.902
2044.72	0.902
2054.2	0.902
2063.68	0.901
2073.17	0.901
2082.65	0.901
2092.13	0.901
2101.62	0.901
2111.1	0.9008
2120.58	0.899
2130.07	0.898
2139.55	0.8957
2149.03	0.895
2158.52	0.895
2168	0.894
2177.49	0.892
2186.97	0.8918
2196.45	0.891
2205.94	0.89
2215.42	0.89
2224.9	0.89
2234.39	0.888
2243.87	0.8878
2253.35	0.886
2262.84	0.8838
2272.32	0.884
2281.8	0.883
2291.29	0.883
2300.77	0.8814
2310.25	0.878
2319.74	0.876
2329.22	0.8796
2338.71	0.8797
2348.19	0.8752
2357.67	0.876
2367.16	0.878
2376.64	0.8807
2386.12	0.8791
2395.61	0.8754
2405.09	0.878
2414.57	0.876
2424.06	0.876
2433.54	0.8772
2443.02	0.8751
2452.51	0.873
2461.99	0.872
2471.47	0.872
2480.96	0.871
2490.44	0.871
2499.93	0.871
2509.41	0.872
2518.89	0.872
2528.38	0.871
2537.86	0.871
2547.34	0.868
2556.83	0.865
2566.31	0.8605
2575.79	0.853
2585.28	0.8541
2594.76	0.8571
2604.24	0.8606
2613.73	0.8639
2623.21	0.863
2632.7	0.861
2642.18	0.8618
2651.66	0.8569
2661.15	0.856
2670.63	0.8559
2680.11	0.855
2689.6	0.852
2699.08	0.8434
2708.56	0.8357
2718.05	0.8277
2727.53	0.822
2737.01	0.8281
2746.5	0.833
2755.98	0.8354
2765.46	0.834
2774.95	0.8316
2784.43	0.8228
2793.92	0.8135
2803.4	0.802
2812.88	0.7899
2822.37	0.7676
2831.85	0.7192
2841.33	0.6557
2850.82	0.5074
2860.3	0.3734
2869.78	0.3514
2879.27	0.3906
2888.75	0.3862
2898.23	0.3604
2907.72	0.2896
2917.2	0.233
2926.68	0.2654
2936.17	0.2693
2945.65	0.0725
2955.14	0.0739
2964.62	0.2559
2974.1	0.4247
2983.59	0.501
2993.07	0.4836
3002.55	0.4181
3012.04	0.3838
3021.52	0.4886
3031	0.5468
3040.49	0.5687
3049.97	0.5994
3059.45	0.6459
3068.94	0.684
3078.42	0.7
3087.9	0.7218
3097.39	0.7572
3106.87	0.7752
3116.36	0.7811
3125.84	0.7881
3135.32	0.7951
3144.81	0.7996
3154.29	0.803
3163.77	0.803
3173.26	0.803
3182.74	0.803
3192.22	0.806
3201.71	0.8076
3211.19	0.8101
3220.67	0.8136
3230.16	0.8153
3239.64	0.817
3249.12	0.819
3258.61	0.818
3268.09	0.8188
3277.58	0.818
3287.06	0.8194
3296.54	0.821
3306.03	0.8182
3315.51	0.8183
3324.99	0.8178
3334.48	0.8155
3343.96	0.815
3353.44	0.815
3362.93	0.8147
3372.41	0.814
3381.89	0.814
3391.38	0.814
3400.86	0.814
3410.35	0.814
3419.83	0.814
3429.31	0.814
3438.8	0.814
3448.28	0.8131
3457.76	0.813
3467.25	0.8112
3476.73	0.81
3486.21	0.81
3495.7	0.8118
3505.18	0.813
3514.66	0.813
3524.15	0.813
3533.63	0.813
3543.11	0.813
3552.6	0.811
3562.08	0.811
3571.57	0.81
3581.05	0.81
3590.53	0.81
3600.02	0.81
3609.5	0.81
3618.98	0.807
3628.47	0.806
3637.95	0.806
3647.43	0.806
3656.92	0.804
3666.4	0.803
3675.88	0.803
3685.37	0.803
3694.85	0.8039
3704.33	0.803
3713.82	0.803
3723.3	0.803
3732.79	0.803
3742.27	0.802
3751.75	0.8
3761.24	0.8
3770.72	0.8
3780.2	0.7993
3789.69	0.799
3799.17	0.799
3808.65	0.796
3818.14	0.7953
3827.62	0.7948
3837.1	0.7925
3846.59	0.792
3856.07	0.792
3865.55	0.792
3875.04	0.791
3884.52	0.791
3894.01	0.791
3903.49	0.791
3912.97	0.791
3922.46	0.791
3931.94	0.789
3941.42	0.789
3950.91	0.788
3960.39	0.787
3969.87	0.787
3979.36	0.787
3988.84	0.787
