Infrared Spectrum: ANILINE, p-ISOPROPYL-
Formula: C9 H13 N
CAS: 99-88-7
State: LIQUID (NEAT)
Class: COBLENTZ III
Instrument: BECKMAN IR-4 (HYBRID PRISM-GRATING)
Instrument parameters: NaCl PRISM
Sampling: TRANSMISSION
Path length: CAPILLARY
Resolution: 2
Origin: MONSANTO (J. FREEMAN)
1/CM	TRANSMITTANCE
3960.4	0.8861
3951.51	0.8875
3942.62	0.8889
3933.72	0.8903
3924.83	0.8919
3915.94	0.8932
3907.05	0.8939
3898.16	0.8948
3889.27	0.8956
3880.37	0.8963
3871.48	0.8971
3862.59	0.8978
3853.7	0.8986
3844.81	0.8993
3835.92	0.8994
3827.02	0.8995
3818.13	0.8997
3809.24	0.8998
3800.35	0.8999
3791.46	0.9
3782.57	0.8999
3773.67	0.8996
3764.78	0.8994
3755.89	0.8991
3747	0.8988
3738.11	0.8986
3729.22	0.8983
3720.32	0.8975
3711.43	0.8967
3702.54	0.8958
3693.65	0.8949
3684.76	0.894
3675.87	0.8931
3666.97	0.892
3658.08	0.8904
3649.19	0.8889
3640.3	0.8871
3631.41	0.8848
3622.52	0.8815
3613.62	0.8783
3604.73	0.8745
3595.84	0.8699
3586.95	0.8653
3578.06	0.8602
3569.17	0.8548
3560.27	0.8473
3551.38	0.839
3542.49	0.8298
3533.6	0.8199
3524.71	0.8099
3515.82	0.7998
3506.92	0.7678
3498.03	0.7245
3489.14	0.6672
3480.25	0.6039
3471.36	0.5404
3462.47	0.4765
3453.57	0.4123
3444.68	0.3816
3435.79	0.3816
3426.9	0.386
3418.01	0.3939
3409.12	0.4013
3400.22	0.4002
3391.33	0.3779
3382.44	0.3551
3373.55	0.3322
3364.66	0.309
3355.77	0.2859
3346.87	0.2745
3337.98	0.287
3329.09	0.342
3320.2	0.4005
3311.31	0.4593
3302.42	0.5183
3293.52	0.5777
3284.63	0.6106
3275.74	0.611
3266.85	0.6004
3257.96	0.5772
3249.07	0.5538
3240.17	0.5303
3231.28	0.5105
3222.39	0.5091
3213.5	0.5178
3204.61	0.5549
3195.72	0.594
3186.82	0.6334
3177.93	0.6729
3169.04	0.7128
3160.15	0.7527
3151.26	0.7883
3142.37	0.7889
3133.47	0.7765
3124.58	0.7579
3115.69	0.746
3106.8	0.7448
3097.91	0.7428
3089.02	0.7356
3080.12	0.6929
3071.23	0.6487
3062.34	0.604
3053.45	0.5592
3044.56	0.514
3035.67	0.4687
3026.77	0.423
3017.88	0.4043
3008.99	0.4041
3000.1	0.4034
2991.21	0.4028
2982.32	0.3617
2973.42	0.2409
2964.53	0.1219
2955.64	0.1085
2946.75	0.1419
2937.86	0.1916
2928.97	0.2418
2920.07	0.292
2911.18	0.3195
2902.29	0.318
2893.4	0.3107
2884.51	0.3033
2875.62	0.2998
2866.72	0.3523
2857.83	0.688
2848.94	0.8008
2840.05	0.8192
2831.16	0.8363
2822.27	0.8497
2813.37	0.8623
2804.48	0.8727
2795.59	0.8796
2786.7	0.8833
2777.81	0.8842
2768.92	0.8849
2760.02	0.8857
2751.13	0.887
2742.24	0.8885
2733.35	0.8904
2724.46	0.8984
2715.57	0.9081
2706.67	0.911
2697.78	0.9127
2688.89	0.9141
2680	0.9156
2671.11	0.9166
2662.22	0.9173
2653.32	0.9163
2644.43	0.9142
2635.54	0.9107
2626.65	0.9078
2617.76	0.9088
2608.87	0.9127
2599.97	0.9175
2591.08	0.9224
2582.19	0.9273
2573.3	0.9313
2564.41	0.9352
2555.52	0.9392
2546.62	0.9432
2537.73	0.9474
2528.84	0.9516
2519.95	0.9559
2511.06	0.9586
2502.17	0.9574
2493.27	0.9552
2484.38	0.9532
2475.49	0.9513
2466.6	0.9517
2457.71	0.9525
2448.82	0.9536
2439.92	0.9548
2431.03	0.9561
2422.14	0.9574
2413.25	0.9587
2404.36	0.9601
2395.47	0.961
2386.57	0.9606
2377.68	0.9588
2368.79	0.9558
2359.9	0.9528
2351.01	0.9505
2342.12	0.9487
2333.22	0.9481
2324.33	0.9475
2315.44	0.9474
2306.55	0.9478
2297.66	0.9483
2288.77	0.9488
2279.87	0.9495
2270.98	0.9505
2262.09	0.9515
2253.2	0.9525
2244.31	0.9538
2235.42	0.9553
2226.52	0.9567
2217.63	0.9582
2208.74	0.9589
2199.85	0.9597
2190.96	0.9604
2182.07	0.961
2173.17	0.9607
2164.28	0.9604
2155.39	0.9595
2146.5	0.9586
2137.61	0.9563
2128.72	0.9532
2119.82	0.9503
2110.93	0.9482
2102.04	0.948
2093.15	0.9499
2084.26	0.9522
2075.36	0.9539
2066.47	0.9535
2057.58	0.9486
2048.69	0.9426
2039.8	0.937
2030.91	0.9342
2022.01	0.934
2013.12	0.9359
2004.23	0.9378
1995.34	0.9368
1986.45	0.9345
1977.56	0.9298
1968.66	0.9245
1959.77	0.9231
1950.88	0.9226
1941.99	0.922
1933.1	0.9183
1924.21	0.9113
1915.31	0.9016
1906.42	0.8848
1897.53	0.8581
1888.64	0.7761
1879.75	0.8014
1870.86	0.8597
1861.96	0.8971
1853.07	0.9141
1844.18	0.9271
1835.29	0.9342
1826.4	0.94
1817.51	0.9439
1808.61	0.9444
1799.72	0.9415
1790.83	0.9325
1781.94	0.9155
1773.05	0.9004
1764.16	0.8994
1755.26	0.9046
1746.37	0.906
1737.48	0.9047
1728.59	0.899
1719.7	0.8886
1710.81	0.8743
1701.91	0.8546
1693.02	0.8278
1684.13	0.7878
1675.24	0.7152
1666.35	0.6474
1657.46	0.5098
1648.56	0.3771
1639.67	0.2289
1630.78	0.1199
1621.89	0.1008
1613	0.2008
1604.11	0.3779
1595.21	0.557
1586.32	0.6432
1577.43	0.7262
1568.54	0.7568
1559.65	0.7466
1550.76	0.7176
1541.86	0.5923
1532.97	0.3291
1524.08	0.0643
1515.19	0.2138
1506.3	0.4746
1497.41	0.6166
1488.51	0.613
1479.62	0.5606
1470.73	0.346
1461.84	0.3588
1452.95	0.4783
1444.06	0.5433
1435.16	0.5236
1426.27	0.7157
1417.38	0.7878
1408.49	0.7869
1399.6	0.757
1390.71	0.6259
1381.81	0.5683
1372.92	0.5587
1364.03	0.5099
1355.14	0.6067
1346.25	0.6093
1337.36	0.7152
1328.46	0.6146
1319.57	0.5978
1310.68	0.6587
1301.79	0.5002
1292.9	0.311
1284.01	0.151
1275.11	0.1409
1266.22	0.1775
1257.33	0.3588
1248.44	0.5714
1239.55	0.6784
1230.66	0.7276
1221.76	0.7377
1212.87	0.6891
1203.98	0.7774
1195.09	0.752
1186.2	0.3335
1177.31	0.5811
1168.41	0.769
1159.52	0.7864
1150.63	0.7621
1141.74	0.6461
1132.85	0.6317
1123.96	0.5662
1115.06	0.6642
1106.17	0.6487
1097.28	0.6732
1088.39	0.6459
1079.5	0.6413
1070.61	0.7001
1061.71	0.7029
1052.82	0.5492
1043.93	0.6096
1035.04	0.7909
1026.15	0.822
1017.26	0.7757
1008.36	0.7972
999.472	0.84
990.581	0.8375
981.689	0.8296
972.797	0.8197
963.906	0.7971
955.014	0.7577
946.122	0.7558
937.231	0.7431
928.339	0.7202
919.447	0.7012
910.556	0.7235
901.664	0.7226
892.772	0.685
883.881	0.6622
874.989	0.6427
866.097	0.5799
857.206	0.5003
848.314	0.4072
839.422	0.2665
830.531	0.137
821.639	0.0934
812.747	0.288
803.856	0.4993
794.964	0.542
786.072	0.5158
777.181	0.4888
768.289	0.4666
759.397	0.4442
750.505	0.4207
741.614	0.4059
732.722	0.4069
723.83	0.4567
714.939	0.4314
706.047	0.4493
697.155	0.3818
688.264	0.315
679.372	0.3108
670.48	0.3305
661.589	0.3327
652.697	0.3612
643.805	0.3749
634.914	0.4023
