Infrared Spectrum: Alpha TERPINENE
Formula: C10 H16
CAS: 99-86-5
Class: COBLENTZ
Instrument: Not specified, most likely a prism, grating, or hybrid spectrometer.
Sampling: TRANSMISSION
Resolution: 4
Origin: INTERNATIONAL FLAVORS & FRAGRANCES, INC.
MICROMETERS	TRANSMITTANCE
2.021	0.873
2.05682	0.874
2.09264	0.8731
2.12846	0.8681
2.16428	0.868
2.2001	0.868
2.23592	0.854
2.27174	0.8253
2.30756	0.815
2.34338	0.8213
2.3792	0.839
2.41502	0.848
2.45084	0.841
2.48666	0.85
2.52248	0.8529
2.5583	0.861
2.59412	0.864
2.62994	0.867
2.66576	0.876
2.70158	0.873
2.7374	0.879
2.77322	0.8789
2.80904	0.871
2.84486	0.868
2.88068	0.8651
2.9165	0.861
2.95232	0.864
2.98814	0.8639
3.02396	0.856
3.05978	0.8501
3.0956	0.842
3.13142	0.8392
3.16724	0.8248
3.20306	0.7188
3.23888	0.4541
3.2747	0.4297
3.31052	0.3636
3.34634	0.0806
3.38216	0.015
3.41798	0.0152
3.4538	0.0503
3.48962	0.2576
3.52544	0.2823
3.56126	0.7576
3.59708	0.778
3.6329	0.752
3.66871	0.8219
3.70453	0.8389
3.74035	0.8539
3.77617	0.8559
3.81199	0.856
3.84781	0.853
3.88363	0.8678
3.91945	0.8787
3.95527	0.882
3.99109	0.877
4.02691	0.874
4.06273	0.877
4.09855	0.882
4.13437	0.882
4.17019	0.8729
4.20601	0.871
4.24183	0.874
4.27765	0.883
4.31347	0.8967
4.34929	0.897
4.38511	0.897
4.42093	0.897
4.45675	0.897
4.49257	0.9
4.52839	0.9
4.56421	0.9021
4.60003	0.908
4.63585	0.906
4.67167	0.9089
4.70749	0.912
4.74331	0.914
4.77913	0.914
4.81495	0.911
4.85077	0.912
4.88659	0.909
4.92241	0.912
4.95823	0.905
4.99405	0.9079
5.02987	0.905
5.06569	0.905
5.10151	0.905
5.13733	0.909
5.17315	0.906
5.20897	0.9086
5.24479	0.906
5.28061	0.9046
5.31643	0.9046
5.35225	0.906
5.38807	0.905
5.42389	0.906
5.45971	0.902
5.49553	0.899
5.53135	0.897
5.56717	0.8935
5.60299	0.8801
5.63881	0.8368
5.67463	0.8381
5.71045	0.8646
5.74627	0.879
5.78209	0.874
5.81791	0.8715
5.85373	0.876
5.88955	0.869
5.92537	0.8528
5.96119	0.6982
5.99701	0.4517
6.03283	0.7529
6.06865	0.8305
6.10447	0.848
6.14029	0.8099
6.17611	0.7975
6.21193	0.8447
6.24775	0.8562
6.28357	0.867
6.31939	0.872
6.35521	0.8723
6.39103	0.871
6.42685	0.864
6.46267	0.8739
6.49849	0.864
6.53431	0.8623
6.57013	0.853
6.60595	0.8462
6.64177	0.8259
6.67759	0.7908
6.71341	0.7024
6.74923	0.5796
6.78505	0.3334
6.82087	0.2471
6.85669	0.2861
6.8925	0.2545
6.92832	0.3072
6.96414	0.2747
6.99996	0.4112
7.03578	0.637
7.0716	0.7055
7.10742	0.7283
7.14324	0.7278
7.17906	0.6145
7.21488	0.354
7.2507	0.4277
7.28652	0.534
7.32234	0.4444
7.35816	0.5984
7.39398	0.7801
7.4298	0.793
7.46562	0.777
7.50144	0.6444
7.53726	0.5586
7.57308	0.6967
7.6089	0.6622
7.64472	0.695
7.68054	0.751
7.71636	0.6782
7.75218	0.716
7.788	0.596
7.82382	0.7554
7.85964	0.8048
7.89546	0.8112
7.93128	0.787
7.9671	0.8097
8.00292	0.81
8.03874	0.7728
8.07456	0.6141
8.11038	0.6092
8.1462	0.7852
8.18202	0.822
8.21784	0.825
8.25366	0.7861
8.28948	0.7005
8.3253	0.7535
8.36112	0.7929
8.39694	0.8117
8.43276	0.8235
8.46858	0.8228
8.5044	0.7822
8.54022	0.7485
8.57604	0.7171
8.61186	0.5972
8.64768	0.7147
8.6835	0.806
8.71932	0.827
8.75514	0.832
8.79096	0.841
8.82678	0.8354
8.8626	0.8204
8.89842	0.8065
8.93424	0.7956
8.97006	0.7861
9.00588	0.7839
9.0417	0.7949
9.07752	0.7872
9.11334	0.7578
9.14916	0.7402
9.18498	0.7208
9.2208	0.6521
9.25662	0.731
9.29244	0.7351
9.32826	0.6839
9.36408	0.654
9.3999	0.7293
9.43572	0.7225
9.47154	0.6659
9.50736	0.5903
9.54318	0.6196
9.579	0.6413
9.61482	0.6206
9.65064	0.6924
9.68646	0.7381
9.72228	0.7444
9.7581	0.7078
9.79392	0.6121
9.82974	0.6618
9.86556	0.7688
9.90138	0.8148
9.9372	0.8373
9.97302	0.8461
10.0088	0.845
10.0447	0.8367
10.0805	0.789
10.1163	0.725
10.1521	0.7591
10.1879	0.8206
10.2238	0.8469
10.2596	0.862
10.2954	0.867
10.3312	0.8614
10.367	0.8535
10.4029	0.848
10.4387	0.8416
10.4745	0.8255
10.5103	0.8381
10.5461	0.8579
10.582	0.8678
10.6178	0.868
10.6536	0.8643
10.6894	0.861
10.7252	0.865
10.7611	0.8674
10.7969	0.8617
10.8327	0.8426
10.8685	0.8183
10.9043	0.813
10.9402	0.8403
10.976	0.8613
11.0118	0.8726
11.0476	0.879
11.0834	0.88
11.1193	0.8796
11.1551	0.8724
11.1909	0.8617
11.2267	0.8414
11.2625	0.8247
11.2984	0.803
11.3342	0.768
11.37	0.7261
11.4058	0.7354
11.4416	0.7708
11.4775	0.777
11.5133	0.7947
11.5491	0.8256
11.5849	0.8383
11.6207	0.844
11.6566	0.845
11.6924	0.844
11.7282	0.8365
11.764	0.8242
11.7998	0.8101
11.8356	0.7934
11.8715	0.7684
11.9073	0.7393
11.9431	0.6827
11.9789	0.5834
12.0147	0.4222
12.0506	0.2388
12.0864	0.0997
12.1222	0.033
12.158	0.0296
12.1938	0.1599
12.2297	0.432
12.2655	0.589
12.3013	0.676
12.3371	0.7347
12.3729	0.7672
12.4088	0.7809
12.4446	0.786
12.4804	0.787
12.5162	0.789
12.552	0.79
12.5879	0.79
12.6237	0.7991
12.6595	0.8127
12.6953	0.8273
12.7311	0.8351
12.767	0.838
12.8028	0.8419
12.8386	0.844
12.8744	0.845
12.9102	0.847
12.9461	0.85
12.9819	0.8446
13.0177	0.8382
13.0535	0.82
13.0893	0.8038
13.1252	0.8063
13.161	0.815
13.1968	0.818
13.2326	0.8217
13.2684	0.8344
13.3043	0.838
13.3401	0.8415
13.3759	0.842
13.4117	0.8376
13.4475	0.8352
13.4834	0.839
13.5192	0.839
13.555	0.8382
13.5908	0.8293
13.6266	0.8162
13.6625	0.797
13.6983	0.784
13.7341	0.781
13.7699	0.7875
13.8057	0.7965
13.8416	0.812
13.8774	0.821
13.9132	0.825
13.949	0.827
13.9848	0.8296
14.0207	0.829
14.0565	0.8259
14.0923	0.8201
14.1281	0.812
14.1639	0.8057
14.1998	0.801
14.2356	0.798
14.2714	0.79
14.3072	0.7832
14.343	0.781
14.3789	0.784
14.4147	0.7818
14.4505	0.777
14.4863	0.7632
14.5221	0.745
14.558	0.7215
14.5938	0.6988
14.6296	0.687
14.6654	0.6791
14.7012	0.6815
14.7371	0.6949
14.7729	0.7056
14.8087	0.708
14.8445	0.6954
14.8803	0.6671
14.9162	0.656
14.952	0.677
14.9878	0.7092
