Infrared Spectrum: P-BROMOACETOPHENONE
Formula: C8 H7 Br O
CAS: 99-90-1
State: SOLUTION (10% CCl4 FOR 3800-1330, 10% CS2 FOR 1330-450 CM^-^1)
Class: COBLENTZ
Instrument: Not specified, most likely a prism, grating, or hybrid spectrometer.
Sampling: TRANSMISSION
Path length: 0.0114 CM, 0.0111 CM
Resolution: 4
Origin: DOW CHEMICAL COMPANY
1/CM	TRANSMITTANCE
453.409	0.739
462.5	0.7959
471.591	0.849
480.682	0.847
489.773	0.812
498.864	0.728
507.954	0.8489
517.045	0.932
526.136	0.955
535.227	0.969
544.318	0.973
553.409	0.969
562.5	0.96
571.591	0.945
580.682	0.856
589.773	0.241
598.864	0.84
607.955	0.3889
617.045	0.9129
626.136	0.93
635.227	0.943
644.318	0.923
653.409	0.893
662.5	0.936
671.591	0.964
680.682	0.969
689.773	0.964
698.864	0.953
707.955	0.8522
717.046	0.945
726.136	0.953
735.227	0.937
744.318	0.7921
753.409	0.7511
762.5	0.934
771.591	0.955
780.682	0.939
789.773	0.927
798.864	0.916
807.955	0.829
817.046	0.03
826.136	0.3769
835.227	0.2477
844.318	0.7709
853.409	0.773
862.5	0.796
871.591	0.8469
880.682	0.882
889.773	0.932
898.864	0.953
907.955	0.952
917.046	0.955
926.137	0.953
935.227	0.93
944.318	0.829
953.409	0.312
962.5	0.5095
971.591	0.8059
980.682	0.89
989.773	0.882
998.864	0.804
1007.95	0.5429
1017.05	0.6536
1026.14	0.868
1035.23	0.897
1044.32	0.897
1053.41	0.879
1062.5	0.7961
1071.59	0.5118
1080.68	0.106
1089.77	0.829
1098.86	0.8421
1107.95	0.8008
1117.05	0.849
1126.14	0.941
1135.23	0.943
1144.32	0.937
1153.41	0.936
1162.5	0.918
1171.59	0.81
1180.68	0.739
1189.77	0.913
1198.86	0.932
1207.95	0.916
1217.05	0.835
1226.14	0.737
1235.23	0.4752
1244.32	0.3771
1253.41	0.342
1262.5	0.028
1271.59	0.046
1280.68	0.4916
1289.77	0.705
1298.86	0.774
1307.95	0.7478
1317.05	0.879
1326.14	0.909
1335.23	0.907
1344.32	0.8151
1353.41	0.37
1362.5	0.195
1371.59	0.7177
1380.68	0.829
1389.77	0.7211
1398.86	0.138
1407.96	0.794
1417.05	0.7711
1426.14	0.5241
1435.23	0.7229
1444.32	0.828
1453.41	0.877
1462.5	0.898
1471.59	0.881
1480.68	0.6861
1489.77	0.703
1498.86	0.796
1507.96	0.764
1517.05	0.707
1526.14	0.657
1535.23	0.558
1544.32	0.446
1553.41	0.393
1562.5	0.393
1571.59	0.299
1580.68	0.218
1589.77	0.035
1598.86	0.6466
1607.96	0.812
1617.05	0.886
1626.14	0.904
1635.23	0.886
1644.32	0.881
1653.41	0.819
1662.5	0.796
1671.59	0.709
1680.68	0.2339
1689.77	0.007
1698.86	0.1269
1707.96	0.6729
1717.05	0.858
1726.14	0.895
1735.23	0.911
1744.32	0.927
1753.41	0.923
1762.5	0.92
1771.59	0.936
1780.68	0.943
1789.77	0.936
1798.86	0.927
1807.96	0.946
1817.05	0.952
1826.14	0.955
1835.23	0.955
1844.32	0.953
1853.41	0.953
1862.5	0.95
1871.59	0.952
1880.68	0.953
1889.77	0.93
1898.86	0.948
1907.96	0.939
1917.05	0.92
1926.14	0.955
1935.23	0.948
1944.32	0.96
1953.41	0.969
1962.5	0.969
1971.59	0.968
1980.68	0.966
1989.77	0.966
1998.86	0.943
2007.96	0.941
2017.05	0.9419
2026.14	0.959
2035.23	0.96
2044.32	0.962
2053.41	0.964
2062.5	0.964
2071.59	0.966
2080.68	0.966
2089.77	0.966
2098.86	0.966
2107.96	0.9666
2117.05	0.968
2126.14	0.968
2135.23	0.968
2144.32	0.968
2153.41	0.968
2162.5	0.968
2171.59	0.9677
2180.68	0.966
2189.77	0.966
2198.86	0.9658
2207.96	0.9638
2217.05	0.962
2226.14	0.962
2235.23	0.962
2244.32	0.96
2253.41	0.957
2262.5	0.953
2271.59	0.937
2280.68	0.9341
2289.77	0.936
2298.86	0.936
2307.96	0.936
2317.05	0.9408
2326.14	0.9448
2335.23	0.9477
2344.32	0.9517
2353.41	0.9547
2362.5	0.9586
2371.59	0.9616
2380.68	0.9676
2389.77	0.968
2398.86	0.9705
2407.96	0.971
2417.05	0.971
2426.14	0.971
2435.23	0.975
2444.32	0.975
2453.41	0.975
2462.5	0.975
2471.59	0.9714
2480.68	0.9684
2489.77	0.966
2498.86	0.964
2507.96	0.962
2517.05	0.96
2526.14	0.96
2535.23	0.956
2544.32	0.955
2553.41	0.9525
2562.5	0.946
2571.59	0.955
2580.68	0.957
2589.77	0.9578
2598.86	0.9684
2607.96	0.971
2617.05	0.971
2626.14	0.968
2635.23	0.966
2644.32	0.9683
2653.41	0.9715
2662.5	0.9753
2671.59	0.9752
2680.68	0.975
2689.77	0.976
2698.86	0.976
2707.96	0.976
2717.05	0.976
2726.14	0.975
2735.23	0.971
2744.32	0.969
2753.41	0.969
2762.5	0.969
2771.59	0.971
2780.68	0.975
2789.77	0.975
2798.86	0.975
2807.96	0.973
2817.05	0.968
2826.14	0.9621
2835.23	0.9551
2844.32	0.952
2853.41	0.9586
2862.5	0.968
2871.59	0.971
2880.68	0.971
2889.77	0.9693
2898.86	0.9608
2907.96	0.9526
2917.05	0.932
2926.14	0.9415
2935.23	0.953
2944.32	0.9515
2953.41	0.9355
2962.5	0.9063
2971.59	0.9234
2980.68	0.946
2989.77	0.9392
2998.87	0.9143
3007.96	0.854
3017.05	0.9163
3026.14	0.941
3035.23	0.939
3044.32	0.945
3053.41	0.9319
3062.5	0.9145
3071.59	0.927
3080.68	0.929
3089.77	0.9351
3098.87	0.9572
3107.96	0.9684
3117.05	0.969
3126.14	0.9718
3135.23	0.9754
3144.32	0.9787
3153.41	0.98
3162.5	0.9786
3171.59	0.9806
3180.68	0.985
3189.77	0.991
3198.87	0.992
3207.96	0.992
3217.05	0.992
3226.14	0.992
3235.23	0.991
3244.32	0.991
3253.41	0.991
3262.5	0.991
3271.59	0.994
3280.68	0.996
3289.77	0.996
3298.87	0.996
3307.96	0.994
3317.05	0.992
3326.14	0.992
3335.23	0.987
3344.32	0.9781
3353.41	0.9712
3362.5	0.9349
3371.59	0.9247
3380.68	0.951
3389.77	0.9844
3398.87	0.992
3407.96	0.992
3417.05	0.991
3426.14	0.989
3435.23	0.989
3444.32	0.987
3453.41	0.987
3462.5	0.987
3471.59	0.985
3480.68	0.985
3489.77	0.984
3498.87	0.984
3507.96	0.984
3517.05	0.982
3526.14	0.982
3535.23	0.982
3544.32	0.98
3553.41	0.982
3562.5	0.982
3571.59	0.982
3580.68	0.98
3589.77	0.981
3598.87	0.987
3607.96	0.989
3617.05	0.987
3626.14	0.9879
3635.23	0.9879
3644.32	0.987
3653.41	0.984
3662.5	0.984
3671.59	0.984
3680.68	0.984
3689.77	0.9833
3698.87	0.982
3707.96	0.982
3717.05	0.984
3726.14	0.9855
3735.23	0.987
3744.32	0.989
3753.41	0.989
3762.5	0.989
3771.59	0.989
3780.68	0.989
