Infrared Spectrum: p-TOLUIC ACID
Formula: C8 H8 O2
CAS: 99-94-5
State: SOLUTION (1% CCl4 FOR 5000-1330, 1% CS2 FOR 1330-625 CM^-^1)
Class: COBLENTZ
Instrument: Not specified, most likely a prism, grating, or hybrid spectrometer.
Sampling: TRANSMISSION
Path length: 0.10 CM, 0.10 CM
Resolution: 4
Origin: DOW CHEMICAL COMPANY
MICROMETERS	TRANSMITTANCE
2.034	0.901
2.0752	0.901
2.1164	0.897
2.15759	0.902
2.19879	0.895
2.23999	0.892
2.28119	0.889
2.32239	0.899
2.36358	0.894
2.40478	0.889
2.44598	0.897
2.48718	0.899
2.52838	0.895
2.56957	0.894
2.61077	0.899
2.65197	0.89
2.69317	0.889
2.73437	0.885
2.77556	0.856
2.81676	0.822
2.85796	0.831
2.89916	0.79
2.94036	0.74
2.98155	0.655
3.02275	0.559
3.06395	0.477
3.10515	0.377
3.14635	0.283
3.18754	0.221
3.22874	0.16
3.26994	0.133
3.31114	0.105
3.35234	0.122
3.39353	0.138
3.43473	0.116
3.47593	0.133
3.51713	0.177
3.55833	0.233
3.59952	0.283
3.64072	0.319
3.68192	0.3
3.72312	0.218
3.76432	0.257
3.80551	0.308
3.84671	0.312
3.88791	0.257
3.92911	0.267
3.97031	0.406
4.01151	0.498
4.0527	0.566
4.0939	0.597
4.1351	0.612
4.1763	0.621
4.2175	0.619
4.25869	0.602
4.29989	0.578
4.34109	0.597
4.38229	0.658
4.42349	0.73
4.46468	0.767
4.50588	0.767
4.54708	0.762
4.58828	0.776
4.62948	0.796
4.67067	0.802
4.71187	0.798
4.75307	0.808
4.79427	0.813
4.83547	0.788
4.87666	0.75
4.91786	0.733
4.95906	0.73
5.00026	0.735
5.04146	0.754
5.08265	0.762
5.12385	0.74
5.16505	0.687
5.20625	0.725
5.24745	0.703
5.28864	0.697
5.32984	0.692
5.37104	0.689
5.41224	0.692
5.45344	0.679
5.49463	0.643
5.53583	0.665
5.57703	0.708
5.61823	0.715
5.65943	0.692
5.70062	0.547
5.74182	0.394
5.78302	0.479
5.82422	0.286
5.86542	0.066
5.90661	0.03
5.94781	0.098
5.98901	0.284
6.03021	0.404
6.07141	0.457
6.1126	0.43
6.1538	0.286
6.195	0.071
6.2362	0.104
6.2774	0.04
6.31859	0.025
6.35979	0.023
6.40099	0.023
6.44219	0.02
6.48339	0.025
6.52458	0.032
6.56578	0.044
6.60698	0.081
6.64818	0.196
6.68938	0.344
6.73057	0.477
6.77177	0.537
6.81297	0.525
6.85417	0.464
6.89537	0.383
6.93656	0.305
6.97776	0.146
7.01896	0.034
7.06016	0.075
7.10136	0.211
7.14255	0.404
7.18375	0.542
7.22495	0.578
7.26615	0.612
7.30735	0.624
7.34854	0.682
7.38974	0.699
7.43094	0.66
7.47214	0.527
7.51334	0.337
7.55454	0.148
7.59573	0.122
7.63693	0.18
7.67813	0.105
7.71933	0.023
7.76053	0.013
7.80172	0.023
7.84292	0.105
7.88412	0.29
7.92532	0.474
7.96652	0.518
8.00771	0.479
8.04891	0.571
8.09011	0.634
8.13131	0.668
8.17251	0.709
8.2137	0.696
8.2549	0.667
8.2961	0.701
8.3373	0.715
8.3785	0.65
8.41969	0.472
8.46089	0.158
8.50209	0.365
8.54329	0.58
8.58449	0.697
8.62568	0.766
8.66688	0.795
8.70808	0.815
8.74928	0.807
8.79048	0.752
8.83167	0.525
8.87287	0.336
8.91407	0.508
8.95527	0.448
8.99647	0.476
9.03766	0.744
9.07886	0.75
9.12006	0.723
9.16126	0.704
9.20246	0.65
9.24365	0.61
9.28485	0.764
9.32605	0.786
9.36725	0.788
9.40845	0.773
9.44964	0.754
9.49084	0.718
9.53204	0.672
9.57324	0.629
9.61444	0.602
9.65563	0.621
9.69683	0.653
9.73803	0.614
9.77923	0.469
9.82043	0.616
9.86162	0.726
9.90282	0.75
9.94402	0.754
9.98522	0.752
10.0264	0.747
10.0676	0.742
10.1088	0.73
10.15	0.718
10.1912	0.703
10.2324	0.674
10.2736	0.639
10.3148	0.609
10.356	0.568
10.3972	0.559
10.4384	0.45
10.4796	0.409
10.5208	0.36
10.562	0.31
10.6032	0.276
10.6444	0.249
10.6856	0.235
10.7268	0.232
10.768	0.242
10.8092	0.261
10.8504	0.281
10.8916	0.302
10.9328	0.327
10.974	0.353
11.0152	0.372
11.0564	0.387
11.0976	0.397
11.1388	0.394
11.18	0.372
11.2212	0.336
11.2624	0.298
11.3036	0.249
11.3448	0.209
11.386	0.182
11.4271	0.151
11.4683	0.129
11.5095	0.11
11.5507	0.092
11.5919	0.073
11.6331	0.061
11.6743	0.054
11.7155	0.054
11.7567	0.064
11.7979	0.08
11.8391	0.059
11.8803	0.049
11.9215	0.119
11.9627	0.216
12.0039	0.279
12.0451	0.312
12.0863	0.361
12.1275	0.428
12.1687	0.467
12.2099	0.494
12.2511	0.506
12.2923	0.501
12.3335	0.494
12.3747	0.493
12.4159	0.52
12.4571	0.537
12.4983	0.556
12.5395	0.559
12.5807	0.559
12.6219	0.552
12.6631	0.547
12.7043	0.542
12.7455	0.54
12.7867	0.544
12.8279	0.547
12.8691	0.547
12.9103	0.542
12.9515	0.527
12.9927	0.494
13.0339	0.414
13.0751	0.3
13.1163	0.196
13.1575	0.116
13.1987	0.042
13.2399	0
13.2811	0.056
13.3223	0.204
13.3635	0.348
13.4047	0.431
13.4459	0.513
13.4871	0.566
13.5282	0.593
13.5694	0.607
13.6106	0.616
13.6518	0.617
13.693	0.617
13.7342	0.617
13.7754	0.619
13.8166	0.617
13.8578	0.607
13.899	0.593
13.9402	0.58
13.9814	0.576
14.0226	0.578
14.0638	0.58
14.105	0.578
14.1462	0.575
14.1874	0.568
14.2286	0.559
14.2698	0.549
14.311	0.535
14.3522	0.517
14.3934	0.5
14.4346	0.465
14.4758	0.436
14.517	0.421
14.5582	0.428
14.5994	0.453
14.6406	0.464
14.6818	0.462
14.723	0.45
14.7642	0.431
14.8054	0.416
14.8466	0.401
14.8878	0.395
14.929	0.385
14.9702	0.37
15.0114	0.353
15.0526	0.329
15.0938	0.307
15.135	0.286
15.1762	0.261
15.2174	0.238
15.2586	0.223
15.2998	0.213
15.341	0.206
15.3822	0.203
15.4234	0.199
15.4646	0.203
15.5058	0.206
15.547	0.213
15.5881	0.216
15.6293	0.218
15.6705	0.218
15.7117	0.221
15.7529	0.225
15.7941	0.226
15.8353	0.23
15.8765	0.23
15.9177	0.225
