Infrared Spectrum: Acetophenone, p-amino-,
Formula: C8 H9 N O
CAS: 99-92-3
State: SOLUTION 7% (CHCl3 FOR 2.5-12.5 microns)
Melting point: 106-107 C
Class: COBLENTZ
Instrument: PERKIN-ELMER 421 (GRATING)
Instrument parameters: GRATING CHANGE AT 1999 CM^-^
Path length: 0.01 CM
Resolution: 2
Origin: ABBOTT LABORATORIES
1/CM	TRANSMITTANCE
682.207	0.5914
691.225	0.5972
700.244	0.6025
709.262	0.6073
718.281	0.6116
727.299	0.6125
736.318	0.6125
745.336	0.6134
754.354	0.6145
763.373	0.6198
772.391	0.6264
781.41	0.6252
790.428	0.6115
799.446	0.5339
808.465	0.486
817.483	0.2749
826.502	0.143
835.52	0.5962
844.539	0.6919
853.557	0.7169
862.575	0.7439
871.594	0.769
880.612	0.7807
889.631	0.7883
898.649	0.7903
907.668	0.7886
916.686	0.7802
925.704	0.7614
934.723	0.693
943.741	0.4189
952.76	0.3543
961.778	0.676
970.796	0.7812
979.815	0.7943
988.833	0.7926
997.852	0.7855
1006.87	0.7557
1015.89	0.7096
1024.91	0.7909
1033.93	0.7956
1042.94	0.7827
1051.96	0.7603
1060.98	0.7142
1070	0.684
1079.02	0.788
1088.04	0.8177
1097.05	0.8307
1106.07	0.8213
1115.09	0.772
1124.11	0.6079
1133.13	0.7569
1142.15	0.7372
1151.16	0.6869
1160.18	0.4052
1169.2	0.075
1178.22	0.5083
1187.24	0.6172
1196.26	0.4542
1205.28	0.4056
1214.29	0.4051
1223.31	0.4077
1232.33	0.4172
1241.35	0.3657
1250.37	0.2306
1259.39	0.089
1268.4	0.0378
1277.42	0.0584
1286.44	0.1932
1295.46	0.1366
1304.48	0.1861
1313.5	0.534
1322.51	0.6474
1331.53	0.668
1340.55	0.5355
1349.57	0.0971
1358.59	0.1432
1367.61	0.6109
1376.63	0.7477
1385.64	0.7597
1394.66	0.7416
1403.68	0.6486
1412.7	0.5424
1421.72	0.4091
1430.74	0.2569
1439.75	0.7215
1448.77	0.8017
1457.79	0.8146
1466.81	0.8169
1475.83	0.8075
1484.85	0.7943
1493.86	0.7171
1502.88	0.5165
1511.9	0.6281
1520.92	0.6786
1529.94	0.649
1538.96	0.6386
1547.98	0.5827
1556.99	0.3918
1566.01	0.1559
1575.03	0.2517
1584.05	0.0429
1593.07	0.0409
1602.09	0.0753
1611.1	0.0378
1620.12	0.0469
1629.14	0.1912
1638.16	0.1973
1647.18	0.0725
1656.2	0.051
1665.21	0.0962
1674.23	0.541
1683.25	0.7391
1692.27	0.801
1701.29	0.8298
1710.31	0.8459
1719.33	0.8528
1728.34	0.8503
1737.36	0.8518
1746.38	0.8559
1755.4	0.8546
1764.42	0.8564
1773.44	0.8626
1782.45	0.8763
1791.47	0.8796
1800.49	0.8849
1809.51	0.8827
1818.53	0.8775
1827.55	0.8788
1836.56	0.8805
1845.58	0.8811
1854.6	0.8801
1863.62	0.8698
1872.64	0.8616
1881.66	0.8627
1890.68	0.8581
1899.69	0.8481
1908.71	0.8631
1917.73	0.8645
1926.75	0.8649
1935.77	0.8638
1944.79	0.8629
1953.8	0.8613
1962.82	0.8659
1971.84	0.8716
1980.86	0.8655
1989.88	0.859
1998.9	0.855
2007.91	0.8546
2016.93	0.8647
2025.95	0.8784
2034.97	0.8845
2043.99	0.8868
2053.01	0.8899
2062.03	0.8895
2071.04	0.8883
2080.06	0.887
2089.08	0.8859
2098.1	0.8868
2107.12	0.8878
2116.14	0.8889
2125.15	0.8903
2134.17	0.8916
2143.19	0.8932
2152.21	0.8944
2161.23	0.8947
2170.25	0.8932
2179.26	0.8908
2188.28	0.8879
2197.3	0.8872
2206.32	0.889
2215.34	0.8917
2224.36	0.8939
2233.38	0.8955
2242.39	0.8954
2251.41	0.8935
2260.43	0.8913
2269.45	0.8893
2278.47	0.8872
2287.49	0.8849
2296.5	0.8815
2305.52	0.8785
2314.54	0.8826
2323.56	0.8809
2332.58	0.879
2341.6	0.8783
2350.61	0.88
2359.63	0.8788
2368.65	0.8784
2377.67	0.8823
2386.69	0.8892
2395.71	0.8785
2404.73	0.8617
2413.74	0.8495
2422.76	0.8349
2431.78	0.8272
2440.8	0.8288
2449.82	0.8322
2458.84	0.8376
2467.85	0.8466
2476.87	0.8572
2485.89	0.8675
2494.91	0.8719
2503.93	0.8726
2512.95	0.8699
2521.96	0.8691
2530.98	0.8683
2540	0.8679
2549.02	0.8698
2558.04	0.8729
2567.06	0.8671
2576.08	0.8612
2585.09	0.861
2594.11	0.8579
2603.13	0.8526
2612.15	0.8544
2621.17	0.8439
2630.19	0.8355
2639.2	0.8389
2648.22	0.8306
2657.24	0.8123
2666.26	0.8264
2675.28	0.8494
2684.3	0.8671
2693.31	0.8695
2702.33	0.8729
2711.35	0.8829
2720.37	0.8839
2729.39	0.8829
2738.41	0.881
2747.43	0.8776
2756.44	0.8731
2765.46	0.8677
2774.48	0.8718
2783.5	0.8708
2792.52	0.8673
2801.54	0.8678
2810.55	0.8669
2819.57	0.8646
2828.59	0.862
2837.61	0.8622
2846.63	0.8651
2855.65	0.858
2864.66	0.8444
2873.68	0.8429
2882.7	0.8404
2891.72	0.8363
2900.74	0.8301
2909.76	0.8178
2918.78	0.8069
2927.79	0.804
2936.81	0.7877
2945.83	0.7592
2954.85	0.7243
2963.87	0.6701
2972.89	0.6184
2981.9	0.5018
2990.92	0.3608
2999.94	0.244
3008.96	0.4414
3017.98	0.5327
3027	0.5481
3036.01	0.6076
3045.03	0.6513
3054.05	0.6722
3063.07	0.7115
3072.09	0.7496
3081.11	0.7532
3090.13	0.7562
3099.14	0.7605
3108.16	0.7539
3117.18	0.7702
3126.2	0.7845
3135.22	0.7856
3144.24	0.7947
3153.25	0.8023
3162.27	0.8059
3171.29	0.8035
3180.31	0.7956
3189.33	0.7729
3198.35	0.7104
3207.36	0.6616
3216.38	0.6732
3225.4	0.686
3234.42	0.7004
3243.44	0.7514
3252.46	0.7896
3261.48	0.7936
3270.49	0.7915
3279.51	0.7809
3288.53	0.7595
3297.55	0.734
3306.57	0.7065
3315.59	0.6718
3324.6	0.6372
3333.62	0.6024
3342.64	0.5357
3351.66	0.4655
3360.68	0.4068
3369.7	0.3771
3378.71	0.3557
3387.73	0.326
3396.75	0.2641
3405.77	0.2446
3414.79	0.3782
3423.81	0.5684
3432.83	0.6713
3441.84	0.6652
3450.86	0.6352
3459.88	0.5913
3468.9	0.5473
3477.92	0.5034
3486.94	0.4643
3495.95	0.4622
3504.97	0.5358
3513.99	0.6475
3523.01	0.7477
3532.03	0.7891
3541.05	0.8112
3550.06	0.8253
3559.08	0.8344
3568.1	0.8378
3577.12	0.8195
3586.14	0.8442
3595.16	0.8491
3604.18	0.8518
3613.19	0.8543
3622.21	0.8555
3631.23	0.8511
3640.25	0.8435
3649.27	0.8321
3658.29	0.8181
3667.3	0.8162
3676.32	0.8312
3685.34	0.8515
3694.36	0.8539
3703.38	0.8534
3712.4	0.8523
3721.41	0.8506
3730.43	0.8492
3739.45	0.848
3748.47	0.8476
3757.49	0.8479
3766.51	0.8476
3775.53	0.8471
3784.54	0.8466
3793.56	0.8458
3802.58	0.845
3811.6	0.8433
3820.62	0.8416
3829.64	0.8399
3838.65	0.8373
3847.67	0.8347
3856.69	0.8324
3865.71	0.8321
3874.73	0.8318
3883.75	0.8319
3892.76	0.8321
3901.78	0.8323
3910.8	0.8328
3919.82	0.8333
3928.84	0.8336
3937.86	0.8336
3946.88	0.8336
3955.89	0.8332
3964.91	0.8328
3973.93	0.8322
3982.95	0.8316
3991.97	0.8313
4000.99	0.831
