Infrared Spectrum: m-Fluorobenzylamine
Formula: C 7 H 8 F N
CAS: 100-82-3
State: gas
Origin: EPA-IR VAPOR PHASE LIBRARY
1/CM	ABSORBANCE
501.5	0.0034465
513.074	0.0068065
524.648	0.0082965
536.222	0.0058365
547.796	0.0043365
559.37	0.0039865
570.944	0.0041865
582.518	0.0046165
594.092	0.0052165
605.666	0.0059865
617.24	0.0062265
628.814	0.0060565
640.388	0.0062865
651.962	0.0069865
663.536	0.0100365
675.11	0.0167665
686.684	0.0257665
698.258	0.0221665
709.832	0.0210665
721.406	0.0232065
732.98	0.0243665
744.554	0.0256665
756.128	0.0341465
767.702	0.0487765
779.276	0.0589365
790.85	0.0448865
802.423	0.0305365
813.997	0.0222465
825.571	0.0170465
837.145	0.0132465
848.719	0.0133965
860.293	0.0171965
871.867	0.0193965
883.441	0.0179665
895.015	0.0155965
906.589	0.0185865
918.163	0.0210865
929.737	0.0169265
941.311	0.0107765
952.885	0.0070965
964.459	0.0054965
976.033	0.0043165
987.607	0.0037265
999.181	0.0036865
1010.76	0.0041765
1022.33	0.0050265
1033.9	0.0062265
1045.48	0.0066765
1057.05	0.0057965
1068.63	0.0048665
1080.2	0.0039365
1091.77	0.0032765
1103.35	0.0038565
1114.92	0.0060665
1126.49	0.0122565
1138.07	0.0171065
1149.64	0.0151665
1161.22	0.0081265
1172.79	0.0046565
1184.36	0.0033965
1195.94	0.0035265
1207.51	0.0049365
1219.09	0.0080365
1230.66	0.0146665
1242.23	0.0309765
1253.81	0.0554465
1265.38	0.0545165
1276.96	0.0253165
1288.53	0.0095865
1300.1	0.0055765
1311.68	0.0044665
1323.25	0.0044265
1334.83	0.0056465
1346.4	0.0069565
1357.97	0.0079465
1369.55	0.0095965
1381.12	0.0102265
1392.7	0.0083765
1404.27	0.0070465
1415.84	0.0076265
1427.42	0.0116565
1438.99	0.0243565
1450.57	0.0343765
1462.14	0.0303065
1473.71	0.0276665
1485.29	0.0329665
1496.86	0.0257365
1508.44	0.0114065
1520.01	0.0076965
1531.58	0.0062565
1543.16	0.0058165
1554.73	0.0083565
1566.31	0.0158265
1577.88	0.0318465
1589.45	0.0477965
1601.03	0.0501765
1612.6	0.0425165
1624.18	0.0294065
1635.75	0.0143865
1647.32	0.0081565
1658.9	0.0057965
1670.47	0.0041465
1682.05	0.0027265
1693.62	0.0019965
1705.19	0.0017565
1716.77	0.0019465
1728.34	0.0022865
1739.92	0.0025465
1751.49	0.0024265
1763.06	0.0020665
1774.64	0.0017365
1786.21	0.0014265
1797.79	0.0012565
1809.36	0.0011765
1820.93	0.0012165
1832.51	0.0014765
1844.08	0.0020265
1855.66	0.0018765
1867.23	0.0011465
1878.8	0.0008015
1890.38	0.0006891
1901.95	0.0008663
1913.53	0.0015065
1925.1	0.0017465
1936.67	0.0012365
1948.25	0.0005739
1959.82	0.0004435
1971.4	0.0004898
1982.97	0.0004506
1994.54	0.0004489
2006.12	0.0003751
2017.69	0.0003165
2029.27	0.0003297
2040.84	0.000389
2052.41	0.0004241
2063.99	0.0004037
2075.56	0.000327
2087.14	0.0002885
2098.71	0.0002315
2110.28	0.000189
2121.86	0.0002084
2133.43	0.000231
2145.01	0.0002685
2156.58	0.0003244
2168.15	0.000397
2179.73	0.000399
2191.3	0.0003598
2202.88	0.0002917
2214.45	0.0002407
2226.02	0.0002241
2237.6	0.0001978
2249.17	0.0001933
2260.74	0.0002259
2272.32	0.0002515
2283.89	0.0002474
2295.47	0.0002642
2307.04	0.0003783
2318.61	0.0004889
2330.19	0.0004724
2341.76	0.0003424
2353.34	0.0003491
2364.91	0.0004221
2376.48	0.0004838
2388.06	0.0005654
2399.63	0.000577
2411.21	0.0004955
2422.78	0.0003705
2434.35	0.0002938
2445.93	0.0002283
2457.5	0.0001927
2469.08	0.0001975
2480.65	0.0002427
2492.22	0.000312
2503.8	0.0003934
2515.37	0.000437
2526.95	0.0003578
2538.52	0.0002679
2550.09	0.000253
2561.67	0.0002464
2573.24	0.0003088
2584.82	0.0003627
2596.39	0.0003834
2607.96	0.0004235
2619.54	0.000442
2631.11	0.000409
2642.69	0.0004175
2654.26	0.0004307
2665.83	0.0005206
2677.41	0.0005493
2688.98	0.0006106
2700.56	0.0007296
2712.13	0.0008322
2723.7	0.001049
2735.28	0.0012765
2746.85	0.0013265
2758.43	0.0013265
2770	0.0013465
2781.57	0.0015065
2793.15	0.0018465
2804.72	0.0025865
2816.3	0.0036865
2827.87	0.0052565
2839.44	0.0071965
2851.02	0.0097365
2862.59	0.0121165
2874.17	0.0128065
2885.74	0.0122365
2897.31	0.0122765
2908.89	0.0123365
2920.46	0.0114065
2932.04	0.0109765
2943.61	0.0106865
2955.18	0.0086465
2966.76	0.0057665
2978.33	0.0034965
2989.91	0.0021565
3001.48	0.0015765
3013.05	0.0021065
3024.63	0.0041365
3036.2	0.0073665
3047.78	0.0094265
3059.35	0.0095465
3070.92	0.0091365
3082.5	0.0086765
3094.07	0.0060265
3105.65	0.0028065
3117.22	0.0015765
3128.79	0.0007917
3140.37	0.0003559
3151.94	0.0002356
3163.52	0.0002392
3175.09	0.0002264
3186.66	0.00024
3198.24	0.0002448
3209.81	0.0002844
3221.39	0.0002155
3232.96	0.0002866
3244.53	0.0002245
3256.11	0.00015127
3267.68	0.00014518
3279.26	0.0001113
3290.83	0.00017083
3302.4	0.000131
3313.98	0.000223
3325.55	0.0002912
3337.13	0.0004781
3348.7	0.0008006
3360.27	0.0007152
3371.85	0.0004133
3383.42	0.0003505
3395	0.0003124
3406.57	0.0003971
3418.14	0.0005012
3429.72	0.0005038
3441.29	0.0003933
3452.86	0.0003345
3464.44	0.0001927
3476.01	0.0001878
3487.59	0.0001668
3499.16	9.623e-05
3510.73	5.17e-05
3522.31	0.00010008
3533.88	0.0001483
3545.46	9.416e-05
3557.03	8.345e-05
3568.6	0.00011301
3580.18	0.00014517
3591.75	0.00014686
3603.33	0.0001046
3614.9	0.00011018
3626.47	0.00013592
3638.05	5.58e-05
3649.62	6.2e-06
3661.2	0
3672.77	5.59e-05
3684.34	5e-05
3695.92	9.567e-05
3707.49	6.31e-05
3719.07	8.2711e-05
3730.64	6.56e-05
3742.21	6.33e-05
3753.79	0.00017611
3765.36	0.0001831
3776.94	0.0002292
3788.51	0.0002085
3800.08	0.00016278
3811.66	8.749e-05
3823.23	0.00015722
3834.81	0.00016689
3846.38	0.00013264
3857.95	0.00011985
3869.53	0.00016528
3881.1	0.0002092
3892.68	8.4917e-05
3904.25	0.00014651
3915.82	0.00011368
3927.4	0.00013988
3938.97	0.00011826
3950.55	0.000199
3962.12	0.0001804
3973.69	0.00012679
3985.27	0.0002076
3996.84	0.00016341
