Infrared Spectrum: 4'-Methoxyacetophenone
Formula: C 9 H 10 O 2
CAS: 100-06-1
State: gas
Instrument: HP-GC/MS/IRD
Origin: NIST Mass Spectrometry Data Center
1/CM	ABSORBANCE
550	0.0012397
562	0.0039249
574	0.0053557
586	0.0043218
598	0.002401
610	0.0011662
622	0.0005733
634	0.0004851
646	0.0002254
658	0.0001568
670	0.0001323
682	0.0001519
694	2.45e-05
706	5.88e-05
718	6.86e-05
730	0.0001372
742	0.0001029
754	0.0001274
766	0.0001911
778	0.0003724
790	0.0011858
802	0.0025088
814	0.0029057
826	0.0054292
838	0.0063994
850	0.0032781
862	0.0010388
874	0.0005684
886	0.0004165
898	0.0003675
910	0.0003871
922	0.0005537
934	0.0012299
946	0.0036848
958	0.0039494
970	0.0017444
982	0.0012789
994	0.0014798
1006	0.0021021
1018	0.0037681
1030	0.0072177
1042	0.0069629
1054	0.0028077
1066	0.0016317
1078	0.001323
1090	0.0011613
1102	0.0014504
1114	0.0018228
1126	0.001666
1138	0.0016758
1150	0.0025137
1162	0.0104027
1174	0.0203889
1186	0.0067718
1198	0.003087
1210	0.0041503
1222	0.0081781
1234	0.0190414
1246	0.0396018
1258	0.0472066
1270	0.0216923
1282	0.0093492
1294	0.0095599
1306	0.0086436
1318	0.0051646
1330	0.0031213
1342	0.0039102
1354	0.0078057
1366	0.0083153
1378	0.0030723
1390	0.0020335
1402	0.0031997
1414	0.0043022
1426	0.0031556
1438	0.0031311
1450	0.0032144
1462	0.0037093
1474	0.0037338
1486	0.0026999
1498	0.0066199
1510	0.0103488
1522	0.0033418
1534	0.0017101
1546	0.001666
1558	0.0026264
1570	0.0061985
1582	0.011025
1594	0.0178115
1606	0.022246
1618	0.0104468
1630	0.0033467
1642	0.0019796
1654	0.0019747
1666	0.0024304
1678	0.0051205
1690	0.0160426
1702	0.0235151
1714	0.0094129
1726	0.0026166
1738	0.0013965
1750	0.0011858
1762	0.000931
1774	0.000588
1786	0.000343
1798	0.0003185
1810	0.0003234
1822	0.0002303
1834	0.0002254
1846	0.0002646
1858	0.000294
1870	0.0003283
1882	0.0003577
1894	0.0004312
1906	0.0004508
1918	0.0004704
1930	0.000539
1942	0.0004459
1954	0.000245
1966	0.0002744
1978	0.0002989
1990	0.0002156
2002	0.0001764
2014	0.000245
2026	0.0003038
2038	0.0004361
2050	0.0005733
2062	0.0006223
2074	0.0004851
2086	0.0002744
2098	0.0001519
2110	0.0001078
2122	4.9e-05
2134	3.92e-05
2146	1.96e-05
2158	2.94e-05
2170	7.35e-05
2182	0.0001029
2194	3.43e-05
2206	5.88e-05
2218	2.94e-05
2230	5.88e-05
2242	1.96e-05
2254	5.39e-05
2266	8.33e-05
2278	0.0001078
2290	0.0001617
2302	0.000147
2314	0.0001078
2326	9.31e-05
2338	7.84e-05
2350	5.88e-05
2362	3.92e-05
2374	8.33e-05
2386	9.8e-05
2398	0.0001323
2410	0.0001666
2422	0.0001372
2434	9.8e-05
2446	3.92e-05
2458	4.41e-05
2470	7.35e-05
2482	0.0001127
2494	0.0001519
2506	0.0001715
2518	0.0002401
2530	0.0002646
2542	0.0003577
2554	0.0004165
2566	0.0004116
2578	0.0002646
2590	0.0002254
2602	0.0001862
2614	0.0001715
2626	0.0001323
2638	9.8e-05
2650	7.35e-05
2662	4.9e-05
2674	2.45e-05
2686	4.41e-05
2698	0
2710	3.92e-05
2722	1.47e-05
2734	2.94e-05
2746	3.92e-05
2758	0.0001323
2770	0.0002156
2782	0.0002303
2794	0.0002499
2806	0.0003381
2818	0.0005047
2830	0.0010143
2842	0.0024794
2854	0.0027391
2866	0.0013132
2878	0.0010045
2890	0.0011172
2902	0.0015631
2914	0.0023716
2926	0.0028273
2938	0.0035231
2950	0.004459
2962	0.0041944
2974	0.0030674
2986	0.0021756
2998	0.0025186
3010	0.0044688
3022	0.0031115
3034	0.0015729
3046	0.0016464
3058	0.0015778
3070	0.0016464
3082	0.0017787
3094	0.0014749
3106	0.0011417
3118	0.0007644
3130	0.0004998
3142	0.0003381
3154	0.0002646
3166	0.0002352
3178	0.0002107
3190	0.0001078
3202	0.0001519
3214	0.0001421
3226	0.0001078
3238	6.37e-05
3250	4.9e-05
3262	7.35e-05
3274	5.88e-05
3286	8.33e-05
3298	0.0001029
3310	8.33e-05
3322	0.0001029
3334	3.92e-05
3346	0.0001617
3358	0.0001764
3370	0.0003724
3382	0.0005047
3394	0.0003577
3406	0.0002156
3418	0.0001568
3430	8.33e-05
3442	0.0001078
3454	0.000147
3466	0.0001274
3478	0.0001176
3490	6.37e-05
3502	3.92e-05
3514	8.33e-05
3526	7.84e-05
3538	9.31e-05
3550	4.9e-05
3562	6.37e-05
3574	8.82e-05
3586	9.8e-06
3598	5.88e-05
3610	0.0001127
3622	0.0001029
3634	5.39e-05
3646	9.31e-05
3658	7.35e-05
3670	0.0001323
3682	0.0001127
3694	0.0001078
3706	0.0001029
3718	6.86e-05
3730	0.0001568
3742	0.0001127
3754	0.0001421
3766	0.0001029
3778	7.35e-05
3790	8.33e-05
3802	0.0001176
3814	9.31e-05
3826	5.39e-05
3838	0.0001764
