Infrared Spectrum: p-NITROPHENYL HYDRAZINE
Formula: C6 H7 N3 O2
CAS: 100-16-3
Class: COBLENTZ
Instrument: Not specified, most likely a prism, grating, or hybrid spectrometer.
Sampling: TRANSMISSION
Path length: FILM
Resolution: 4
Origin: DOW CHEMICAL COMPANY
MICROMETERS	TRANSMITTANCE
2.034	0.642
2.07502	0.648
2.11603	0.659
2.15705	0.664
2.19807	0.672
2.23908	0.678
2.2801	0.679
2.32112	0.69
2.36213	0.696
2.40315	0.7
2.44417	0.708
2.48518	0.715
2.5262	0.72
2.56722	0.727
2.60823	0.732
2.64925	0.739
2.69027	0.741
2.73129	0.748
2.7723	0.75
2.81332	0.755
2.85434	0.76
2.89535	0.767
2.93637	0.761
2.97739	0.638
3.0184	0.383
3.05942	0.619
3.10044	0.669
3.14145	0.71
3.18247	0.727
3.22349	0.738
3.2645	0.739
3.30552	0.741
3.34654	0.75
3.38755	0.75
3.42857	0.748
3.46959	0.763
3.5106	0.768
3.55162	0.777
3.59264	0.787
3.63365	0.797
3.67467	0.803
3.71569	0.804
3.7567	0.808
3.79772	0.813
3.83874	0.816
3.87976	0.821
3.92077	0.828
3.96179	0.832
4.00281	0.839
4.04382	0.844
4.08484	0.844
4.12586	0.84
4.16687	0.842
4.20789	0.845
4.24891	0.851
4.28992	0.866
4.33094	0.873
4.37196	0.878
4.41297	0.88
4.45399	0.878
4.49501	0.876
4.53602	0.881
4.57704	0.883
4.61806	0.883
4.65907	0.886
4.70009	0.89
4.74111	0.89
4.78212	0.895
4.82314	0.898
4.86416	0.898
4.90517	0.904
4.94619	0.905
4.98721	0.905
5.02823	0.902
5.06924	0.909
5.11026	0.909
5.15128	0.91
5.19229	0.909
5.23331	0.91
5.27433	0.914
5.31534	0.921
5.35636	0.924
5.39738	0.928
5.43839	0.928
5.47941	0.929
5.52043	0.928
5.56144	0.922
5.60246	0.926
5.64348	0.924
5.68449	0.928
5.72551	0.931
5.76653	0.94
5.80754	0.95
5.84856	0.95
5.88958	0.941
5.93059	0.94
5.97161	0.931
6.01263	0.876
6.05364	0.751
6.09466	0.662
6.13568	0.761
6.17669	0.635
6.21771	0.337
6.25873	0.359
6.29975	0.648
6.34076	0.815
6.38178	0.852
6.4228	0.869
6.46381	0.82
6.50483	0.755
6.54585	0.782
6.58686	0.82
6.62788	0.775
6.6689	0.719
6.70991	0.761
6.75093	0.647
6.79195	0.568
6.83296	0.664
6.87398	0.732
6.915	0.753
6.95601	0.76
6.99703	0.828
7.03805	0.886
7.07906	0.902
7.12008	0.91
7.1611	0.91
7.20211	0.892
7.24313	0.875
7.28415	0.851
7.32516	0.809
7.36618	0.739
7.4072	0.654
7.44822	0.542
7.48923	0.412
7.53025	0.34
7.57127	0.294
7.61228	0.232
7.6533	0.155
7.69432	0.166
7.73533	0.246
7.77635	0.214
7.81737	0.166
7.85838	0.255
7.8994	0.332
7.94042	0.325
7.98143	0.436
8.02245	0.537
8.06347	0.594
8.10448	0.652
8.1455	0.693
8.18652	0.719
8.22753	0.744
8.26855	0.763
8.30957	0.775
8.35058	0.773
8.3916	0.743
8.43262	0.654
8.47363	0.648
8.51465	0.722
8.55567	0.76
8.59669	0.782
8.6377	0.801
8.67872	0.806
8.71974	0.811
8.76075	0.791
8.80177	0.739
8.84279	0.702
8.8838	0.714
8.92482	0.657
8.96584	0.517
9.00685	0.383
9.04787	0.419
9.08889	0.529
9.1299	0.539
9.17092	0.529
9.21194	0.532
9.25295	0.553
9.29397	0.578
9.33499	0.595
9.376	0.602
9.41702	0.619
9.45804	0.631
9.49905	0.64
9.54007	0.642
9.58109	0.643
9.6221	0.654
9.66312	0.679
9.70414	0.7
9.74515	0.719
9.78617	0.729
9.82719	0.743
9.86821	0.753
9.90922	0.761
9.95024	0.761
9.99126	0.743
10.0323	0.75
10.0733	0.75
10.1143	0.746
10.1553	0.75
10.1963	0.75
10.2374	0.741
10.2784	0.729
10.3194	0.71
10.3604	0.691
10.4014	0.669
10.4424	0.64
10.4835	0.611
10.5245	0.594
10.5655	0.592
10.6065	0.613
10.6475	0.642
10.6885	0.664
10.7296	0.684
10.7706	0.702
10.8116	0.712
10.8526	0.724
10.8936	0.739
10.9346	0.746
10.9757	0.751
11.0167	0.76
11.0577	0.763
11.0987	0.767
11.1397	0.77
11.1807	0.775
11.2218	0.779
11.2628	0.782
11.3038	0.785
11.3448	0.792
11.3858	0.803
11.4268	0.801
11.4679	0.801
11.5089	0.801
11.5499	0.801
11.5909	0.801
11.6319	0.803
11.6729	0.803
11.714	0.799
11.755	0.789
11.796	0.76
11.837	0.724
11.878	0.66
11.919	0.542
11.9601	0.481
12.0011	0.547
12.0421	0.667
12.0831	0.741
12.1241	0.763
12.1651	0.772
12.2062	0.772
12.2472	0.77
12.2882	0.77
12.3292	0.773
12.3702	0.777
12.4112	0.782
12.4523	0.791
12.4933	0.794
12.5343	0.799
12.5753	0.801
12.6163	0.804
12.6573	0.809
12.6984	0.813
12.7394	0.815
12.7804	0.815
12.8214	0.818
12.8624	0.821
12.9034	0.823
12.9445	0.823
12.9855	0.825
13.0265	0.828
13.0675	0.827
13.1085	0.828
13.1495	0.82
13.1906	0.806
13.2316	0.765
13.2726	0.674
13.3136	0.597
13.3546	0.63
13.3956	0.741
13.4367	0.777
13.4777	0.787
13.5187	0.791
13.5597	0.796
13.6007	0.796
13.6417	0.797
13.6828	0.797
13.7238	0.791
13.7648	0.792
13.8058	0.789
13.8468	0.787
13.8878	0.785
13.9289	0.784
13.9699	0.78
14.0109	0.779
14.0519	0.775
14.0929	0.77
14.134	0.767
14.175	0.756
14.216	0.741
14.257	0.731
14.298	0.712
14.339	0.695
14.3801	0.674
14.4211	0.666
14.4621	0.671
14.5031	0.696
14.5441	0.717
14.5851	0.726
14.6262	0.727
14.6672	0.727
14.7082	0.72
14.7492	0.71
14.7902	0.702
14.8312	0.698
14.8723	0.695
14.9133	0.69
14.9543	0.691
14.9953	0.698
15.0363	0.695
15.0773	0.686
15.1184	0.678
15.1594	0.666
15.2004	0.652
15.2414	0.638
15.2824	0.621
15.3234	0.607
15.3645	0.589
15.4055	0.58
15.4465	0.573
15.4875	0.571
15.5285	0.57
15.5695	0.568
15.6106	0.568
15.6516	0.565
15.6926	0.559
15.7336	0.553
15.7746	0.546
15.8156	0.539
15.8567	0.532
