Infrared Spectrum: 4-Nitrophenol
Formula: C 6 H 5 N O 3
CAS: 100-02-7
State: gas
Instrument: HP-GC/MS/IRD
Origin: NIST Mass Spectrometry Data Center
1/CM	ABSORBANCE
550	0.0002784
562	0.0002928
574	0.0004752
586	0.0004344
598	0.0003264
610	0.0014376
622	0.0038928
634	0.0020688
646	0.0006192
658	0.0004488
670	0.000804
682	0.0011592
694	0.000696
706	0.0002736
718	0.0002064
730	0.0007104
742	0.001764
754	0.0018312
766	0.0008304
778	0.000204
790	0.0002448
802	0.0003912
814	0.0005856
826	0.0018456
838	0.0038232
850	0.0068256
862	0.0079512
874	0.0029184
886	0.0003816
898	0.0001656
910	0.0001056
922	3.12e-05
934	1.2e-05
946	0.0001128
958	0.0001296
970	7.68e-05
982	0.0001176
994	0.00018
1006	0.0002352
1018	0.0001848
1030	0.0001248
1042	0.0001104
1054	0.000252
1066	0.0004608
1078	0.00114
1090	0.0020112
1102	0.0041088
1114	0.0049896
1126	0.0018312
1138	0.0019608
1150	0.0050064
1162	0.010536
1174	0.0118416
1186	0.0122592
1198	0.0093264
1210	0.0024504
1222	0.0013248
1234	0.001404
1246	0.0025512
1258	0.007512
1270	0.0135
1282	0.0054
1294	0.0013872
1306	0.0030744
1318	0.004788
1330	0.0075408
1342	0.0194736
1354	0.0230448
1366	0.0087168
1378	0.0029568
1390	0.0011664
1402	0.0006744
1414	0.0008808
1426	0.0021408
1438	0.002964
1450	0.0020376
1462	0.0024576
1474	0.0025272
1486	0.0041856
1498	0.009048
1510	0.0075984
1522	0.0094128
1534	0.0175488
1546	0.017364
1558	0.0083904
1570	0.0043656
1582	0.0061224
1594	0.0126048
1606	0.0144264
1618	0.0064416
1630	0.0029016
1642	0.0010728
1654	0.0006648
1666	0.0005136
1678	0.0003456
1690	0.0002976
1702	0.0002976
1714	0.0002232
1726	0.0002328
1738	0.0002832
1750	0.0002976
1762	0.0002856
1774	0.0001536
1786	0.0001008
1798	0.0001008
1810	0.000108
1822	6.24e-05
1834	9.6e-06
1846	3.36e-05
1858	6.24e-05
1870	0.0001464
1882	0.0002736
1894	0.0003408
1906	0.0003216
1918	0.0002208
1930	0.0001176
1942	6.48e-05
1954	0.0001104
1966	0.0001392
1978	0.0001152
1990	6.48e-05
2002	4.32e-05
2014	2.64e-05
2026	5.76e-05
2038	5.04e-05
2050	7.44e-05
2062	0.0001176
2074	0.0001848
2086	0.0001008
2098	5.04e-05
2110	6.72e-05
2122	9.36e-05
2134	8.64e-05
2146	3.84e-05
2158	2.16e-05
2170	0
2182	3.36e-05
2194	4.32e-05
2206	8.16e-05
2218	9.36e-05
2230	6.24e-05
2242	6e-05
2254	5.52e-05
2266	6e-05
2278	7.68e-05
2290	5.52e-05
2302	7.44e-05
2314	9.6e-05
2326	0.0001152
2338	0.0001296
2350	9.84e-05
2362	0.0001008
2374	6.48e-05
2386	9.12e-05
2398	0.0001488
2410	0.000168
2422	0.0001704
2434	0.0002352
2446	0.0003648
2458	0.0004416
2470	0.000312
2482	0.0001392
2494	0.0001104
2506	0.0001056
2518	0.0001224
2530	0.000156
2542	0.0001416
2554	3.36e-05
2566	1.92e-05
2578	3.12e-05
2590	3.84e-05
2602	8.64e-05
2614	0.0001008
2626	6.48e-05
2638	7.92e-05
2650	0.0001368
2662	0.0001224
2674	9.6e-05
2686	0.0001104
2698	0.0001176
2710	9.12e-05
2722	6.24e-05
2734	5.04e-05
2746	6.24e-05
2758	6.48e-05
2770	0.0001224
2782	6.24e-05
2794	6.96e-05
2806	6e-05
2818	8.88e-05
2830	0.0001248
2842	0.0001464
2854	0.0002064
2866	0.0003048
2878	0.0003864
2890	0.0003096
2902	0.0002016
2914	0.0001248
2926	0.0001248
2938	0.0001584
2950	0.0001752
2962	0.0001128
2974	6.72e-05
2986	3.12e-05
2998	6.48e-05
3010	7.68e-05
3022	0.0001944
3034	0.0004608
3046	0.000564
3058	0.0004752
3070	0.0004872
3082	0.0007104
3094	0.0005856
3106	0.0001344
3118	6.96e-05
3130	9.6e-06
3142	3.12e-05
3154	3.12e-05
3166	1.2e-05
3178	0
3190	3.36e-05
3202	3.12e-05
3214	9.36e-05
3226	8.64e-05
3238	0.0001056
3250	5.04e-05
3262	4.56e-05
3274	6.48e-05
3286	3.12e-05
3298	8.4e-05
3310	0.0001344
3322	0.0001176
3334	9.12e-05
3346	9.36e-05
3358	9.36e-05
3370	0.0001296
3382	6.96e-05
3394	7.2e-05
3406	5.76e-05
3418	4.08e-05
3430	9.12e-05
3442	2.16e-05
3454	5.04e-05
3466	7.68e-05
3478	3.6e-05
3490	2.64e-05
3502	8.64e-05
3514	4.32e-05
3526	2.88e-05
3538	8.16e-05
3550	5.52e-05
3562	7.68e-05
3574	8.64e-05
3586	8.88e-05
3598	0.00018
3610	0.0003168
3622	0.0010032
3634	0.0046752
3646	0.0099096
3658	0.0054504
3670	0.000804
3682	0.0002064
3694	0.0001176
3706	0.0001128
3718	7.68e-05
3730	0.0001104
3742	0.0001104
3754	7.44e-05
3766	0.0001056
3778	8.16e-05
3790	5.28e-05
3802	0.0001008
3814	4.56e-05
3826	5.52e-05
3838	9.12e-05
