Infrared Spectrum: ISOCYANIC ACID, p-NITROPHENYL ESTER
Formula: C7 H4 N2 O3
CAS: 100-28-7
State: SOLID (1.9 mg / 100 mg KBr PELLET)
Class: COBLENTZ
Instrument: Not specified, most likely a grating spectrometer.
Sampling: TRANSMISSION
Resolution: 4
Origin: CITRUS EXPERIMENT STATION, UNIVERSITY OF FLORIDA (G. EDWARDS)
MICROMETERS	TRANSMITTANCE
2.033	0.556
2.06622	0.561
2.09943	0.562
2.13265	0.569
2.16586	0.578
2.19908	0.58
2.23229	0.584
2.26551	0.589
2.29872	0.592
2.33194	0.597
2.36515	0.601
2.39837	0.605
2.43158	0.616
2.4648	0.616
2.49801	0.624
2.53123	0.628
2.56444	0.629
2.59766	0.629
2.63088	0.629
2.66409	0.631
2.69731	0.629
2.73052	0.624
2.76374	0.622
2.79695	0.622
2.83017	0.618
2.86338	0.618
2.8966	0.614
2.92981	0.594
2.96303	0.558
2.99624	0.58
3.02946	0.622
3.06267	0.64
3.09589	0.648
3.12911	0.651
3.16232	0.644
3.19554	0.613
3.22875	0.633
3.26197	0.66
3.29518	0.66
3.3284	0.673
3.36161	0.679
3.39483	0.671
3.42804	0.684
3.46126	0.683
3.49447	0.684
3.52769	0.707
3.5609	0.713
3.59412	0.716
3.62733	0.72
3.66055	0.721
3.69377	0.721
3.72698	0.728
3.7602	0.728
3.79341	0.727
3.82663	0.735
3.85984	0.739
3.89306	0.751
3.92627	0.759
3.95949	0.763
3.9927	0.767
4.02592	0.766
4.05913	0.756
4.09235	0.75
4.12556	0.74
4.15878	0.715
4.192	0.443
4.22521	0.247
4.25843	0.18
4.29164	0.125
4.32486	0.096
4.35807	0.101
4.39129	0.159
4.4245	0.32
4.45772	0.439
4.49093	0.462
4.52415	0.522
4.55736	0.552
4.59058	0.568
4.62379	0.594
4.65701	0.631
4.69022	0.649
4.72344	0.652
4.75666	0.661
4.78987	0.669
4.82309	0.684
4.8563	0.696
4.88952	0.701
4.92273	0.705
4.95595	0.709
4.98916	0.709
5.02238	0.719
5.05559	0.72
5.08881	0.721
5.12202	0.721
5.15524	0.713
5.18845	0.708
5.22167	0.731
5.25489	0.732
5.2881	0.739
5.32132	0.735
5.35453	0.741
5.38775	0.743
5.42096	0.747
5.45418	0.745
5.48739	0.744
5.52061	0.74
5.55382	0.733
5.58704	0.729
5.62025	0.745
5.65347	0.748
5.68668	0.723
5.7199	0.687
5.75311	0.701
5.78633	0.732
5.81955	0.76
5.85276	0.76
5.88598	0.763
5.91919	0.741
5.95241	0.739
5.98562	0.741
6.01884	0.737
6.05205	0.729
6.08527	0.72
6.11848	0.709
6.1517	0.649
6.18491	0.597
6.21813	0.268
6.25134	0.189
6.28456	0.364
6.31777	0.501
6.35099	0.562
6.38421	0.57
6.41742	0.566
6.45064	0.525
6.48385	0.497
6.51707	0.29
6.55028	0.192
6.5835	0.223
6.61671	0.335
6.64993	0.445
6.68314	0.53
6.71636	0.578
6.74957	0.64
6.78279	0.68
6.816	0.697
6.84922	0.707
6.88244	0.712
6.91565	0.709
6.94887	0.699
6.98208	0.72
7.0153	0.721
7.04851	0.696
7.08173	0.716
7.11494	0.756
7.14816	0.76
7.18137	0.758
7.21459	0.75
7.2478	0.692
7.28102	0.57
7.31423	0.561
7.34745	0.434
7.38066	0.131
7.41388	0.057
7.4471	0.215
7.48031	0.304
7.51353	0.378
7.54674	0.382
7.57996	0.451
7.61317	0.501
7.64639	0.446
7.6796	0.398
7.71282	0.391
7.74603	0.534
7.77925	0.594
7.81246	0.631
7.84568	0.659
7.87889	0.671
7.91211	0.675
7.94533	0.651
7.97854	0.605
8.01176	0.584
8.04497	0.616
8.07819	0.645
8.1114	0.667
8.14462	0.684
8.17783	0.7
8.21105	0.697
8.24426	0.696
8.27748	0.675
8.31069	0.649
8.34391	0.643
8.37712	0.641
8.41034	0.61
8.44355	0.557
8.47677	0.557
8.50999	0.597
8.5432	0.649
8.57642	0.668
8.60963	0.665
8.64285	0.657
8.67606	0.653
8.70928	0.661
8.74249	0.681
8.77571	0.687
8.80892	0.693
8.84214	0.687
8.87535	0.7
8.90857	0.683
8.94178	0.561
8.975	0.493
9.00822	0.445
9.04143	0.339
9.07465	0.43
9.10786	0.542
9.14108	0.594
9.17429	0.64
9.20751	0.672
9.24072	0.689
9.27394	0.703
9.30715	0.716
9.34037	0.721
9.37358	0.728
9.4068	0.732
9.44001	0.733
9.47323	0.733
9.50644	0.736
9.53966	0.74
9.57288	0.741
9.60609	0.743
9.63931	0.74
9.67252	0.74
9.70574	0.743
9.73895	0.748
9.77217	0.751
9.80538	0.756
9.8386	0.751
9.87181	0.739
9.90503	0.747
9.93824	0.75
9.97146	0.752
10.0047	0.751
10.0379	0.754
10.0711	0.759
10.1043	0.76
10.1375	0.76
10.1708	0.76
10.204	0.759
10.2372	0.76
10.2704	0.76
10.3036	0.762
10.3368	0.751
10.37	0.751
10.4033	0.762
10.4365	0.763
10.4697	0.762
10.5029	0.766
10.5361	0.768
10.5693	0.774
10.6025	0.775
10.6358	0.776
10.669	0.776
10.7022	0.778
10.7354	0.779
10.7686	0.78
10.8018	0.78
10.8351	0.78
10.8683	0.78
10.9015	0.779
10.9347	0.78
10.9679	0.782
11.0011	0.782
11.0343	0.782
11.0676	0.782
11.1008	0.779
11.134	0.779
11.1672	0.782
11.2004	0.782
11.2336	0.783
11.2669	0.784
11.3001	0.784
11.3333	0.782
11.3665	0.783
11.3997	0.783
11.4329	0.784
11.4661	0.78
11.4994	0.775
11.5326	0.762
11.5658	0.721
11.599	0.588
11.6322	0.363
11.6654	0.362
11.6987	0.41
11.7319	0.237
11.7651	0.271
11.7983	0.451
11.8315	0.565
11.8647	0.663
11.8979	0.703
11.9312	0.723
11.9644	0.732
11.9976	0.732
12.0308	0.741
12.064	0.741
12.0972	0.75
12.1305	0.752
12.1637	0.754
12.1969	0.752
12.2301	0.748
12.2633	0.747
12.2965	0.759
12.3297	0.76
12.363	0.76
12.3962	0.762
12.4294	0.762
12.4626	0.762
12.4958	0.762
12.529	0.762
12.5623	0.76
12.5955	0.762
12.6287	0.759
12.6619	0.762
12.6951	0.762
12.7283	0.763
12.7615	0.763
12.7948	0.76
12.828	0.762
12.8612	0.762
12.8944	0.754
12.9276	0.75
12.9608	0.74
12.9941	0.728
13.0273	0.737
13.0605	0.758
13.0937	0.76
13.1269	0.763
13.1601	0.762
13.1933	0.758
13.2266	0.739
13.2598	0.713
13.293	0.676
13.3262	0.596
13.3594	0.395
13.3926	0.33
13.4259	0.526
13.4591	0.661
13.4923	0.707
13.5255	0.721
13.5587	0.731
13.5919	0.737
13.6251	0.741
13.6584	0.74
13.6916	0.741
13.7248	0.741
13.758	0.743
13.7912	0.743
13.8244	0.743
13.8577	0.739
13.8909	0.744
13.9241	0.747
13.9573	0.744
13.9905	0.743
14.0237	0.74
14.0569	0.739
14.0902	0.737
14.1234	0.736
14.1566	0.733
14.1898	0.731
14.223	0.729
14.2562	0.724
14.2894	0.72
14.3227	0.717
14.3559	0.716
14.3891	0.715
14.4223	0.719
14.4555	0.72
14.4887	0.719
14.522	0.72
14.5552	0.713
14.5884	0.7
14.6216	0.652
14.6548	0.604
14.688	0.577
14.7212	0.585
14.7545	0.636
14.7877	0.671
14.8209	0.693
14.8541	0.697
14.8873	0.684
14.9205	0.664
14.9538	0.68
14.987	0.712
