Infrared Spectrum: Benzylalcohol
Formula: C 7 H 8 O
CAS: 100-51-6
State: gas
Instrument: HP-GC/MS/IRD
Origin: NIST Mass Spectrometry Data Center
1/CM	ABSORBANCE
550	0.0005439
562	0.0007728
574	0.0020097
586	0.0034587
598	0.0030345
610	0.0010584
622	0.0004683
634	0.0004137
646	0.0003948
658	0.0009996
670	0.0028119
682	0.0072156
694	0.0131166
706	0.0114618
718	0.010689
730	0.0129843
742	0.0135009
754	0.0081312
766	0.003192
778	0.0009366
790	0.0005586
802	0.0007728
814	0.0005544
826	0.0003255
838	0.0001428
850	0.0001701
862	0.0001218
874	0.0003843
886	0.0007854
898	0.0012495
910	0.0014532
922	0.0015246
934	0.0017136
946	0.0023121
958	0.0036099
970	0.0051345
982	0.0074445
994	0.0109389
1006	0.0168441
1018	0.021
1030	0.0190953
1042	0.0129276
1054	0.0085029
1066	0.0055986
1078	0.0035322
1090	0.0020958
1102	0.0014364
1114	0.0013335
1126	0.0013629
1138	0.0016674
1150	0.0021483
1162	0.0029211
1174	0.0039354
1186	0.0050022
1198	0.0059346
1210	0.0052983
1222	0.0034818
1234	0.0027111
1246	0.0024927
1258	0.0023394
1270	0.0022743
1282	0.0022449
1294	0.0023163
1306	0.0024906
1318	0.0026712
1330	0.0027531
1342	0.0030135
1354	0.0037338
1366	0.0057666
1378	0.008442
1390	0.0081774
1402	0.0050631
1414	0.0032046
1426	0.0025956
1438	0.0032067
1450	0.0038556
1462	0.0037338
1474	0.0023457
1486	0.0021987
1498	0.0023373
1510	0.0014721
1522	0.0003864
1534	0.0002541
1546	0.0002835
1558	0.0002982
1570	0.0003738
1582	0.0005502
1594	0.0006993
1606	0.0006321
1618	0.0003906
1630	0.0001995
1642	0.000126
1654	7.98e-05
1666	0
1678	1.68e-05
1690	2.52e-05
1702	0.00021
1714	0.0007161
1726	0.0009198
1738	0.0005964
1750	0.0003528
1762	0.0001995
1774	0.0003003
1786	0.0005166
1798	0.0007854
1810	0.0006762
1822	0.0002961
1834	0.0002205
1846	0.0003444
1858	0.0004893
1870	0.0006741
1882	0.0005628
1894	0.0003528
1906	0.0002142
1918	0.0003192
1930	0.0005859
1942	0.0008673
1954	0.0009177
1966	0.000525
1978	0.0002205
1990	0.000189
2002	0.00021
2014	0.0002142
2026	0.0002331
2038	0.0002268
2050	0.0002142
2062	0.0001869
2074	0.000126
2086	0.0001323
2098	0.0001113
2110	0.0001323
2122	8.82e-05
2134	8.82e-05
2146	0.000105
2158	0.0001365
2170	8.4e-05
2182	0.0001008
2194	0.0001197
2206	0.0001008
2218	0.0001113
2230	0.0001008
2242	0.0001071
2254	0.0001197
2266	0.000126
2278	0.0001617
2290	0.000147
2302	0.0001659
2314	0.0001848
2326	9.03e-05
2338	6.51e-05
2350	7.14e-05
2362	2.1e-06
2374	3.78e-05
2386	0.0001365
2398	0.0001512
2410	0.000189
2422	0.0001449
2434	0.000126
2446	0.0001365
2458	0.0001428
2470	0.0001596
2482	0.0002247
2494	0.0001638
2506	0.0002037
2518	0.0001869
2530	0.0001407
2542	0.000168
2554	0.0001869
2566	0.0001869
2578	0.0002142
2590	0.0001953
2602	0.0002751
2614	0.0002877
2626	0.0002562
2638	0.0002751
2650	0.0002604
2662	0.0002856
2674	0.0003066
2686	0.000336
2698	0.0003507
2710	0.0004242
2722	0.0005145
2734	0.0005964
2746	0.0005901
2758	0.0006111
2770	0.000693
2782	0.0008421
2794	0.0010122
2806	0.0012138
2818	0.0015288
2830	0.0019929
2842	0.0028665
2854	0.0040383
2866	0.0057099
2878	0.0075873
2890	0.0082341
2902	0.0073605
2914	0.0069384
2926	0.0068502
2938	0.006363
2950	0.0055503
2962	0.0044457
2974	0.0030198
2986	0.0020895
2998	0.0020181
3010	0.0030198
3022	0.0061761
3034	0.009282
3046	0.0092463
3058	0.0078708
3070	0.0096075
3082	0.0092169
3094	0.0056427
3106	0.0036498
3118	0.0018564
3130	0.000819
3142	0.0004032
3154	0.0003213
3166	0.000315
3178	0.0003234
3190	0.0001869
3202	0.0001764
3214	0.0002352
3226	0.0001407
3238	0.000168
3250	0.0001302
3262	0.0001638
3274	0.0001491
3286	0.000126
3298	0.0001659
3310	0.0001386
3322	0.0001029
3334	0.0001113
3346	0.0001155
3358	0.0001218
3370	0.0001239
3382	0.0001869
3394	0.0002247
3406	0.0002079
3418	0.0002583
3430	0.0002373
3442	0.00021
3454	0.0002226
3466	0.0001974
3478	0.0002856
3490	0.0002478
3502	0.0003318
3514	0.0002667
3526	0.0002226
3538	0.0002058
3550	0.0002079
3562	0.0001617
3574	0.0002394
3586	0.0002331
3598	0.0004158
3610	0.0006384
3622	0.0011298
3634	0.002163
3646	0.0038094
3658	0.004179
3670	0.0035742
3682	0.0020538
3694	0.0012117
3706	0.000672
3718	0.0004599
3730	0.0002835
3742	0.0001806
3754	0.0001554
3766	0.000189
3778	0.0001785
3790	0.0001449
3802	0.0001575
3814	0.0001806
3826	0.0001617
3838	0.0001995
