Infrared Spectrum: M-HYDROXY BENZALDEHYDE
Formula: C7 H6 O2
CAS: 100-83-4
State: SOLID (KBr PELLET)
Melting point: 102-104 C
Class: COBLENTZ
Instrument: Not specified, most likely a prism, grating, or hybrid spectrometer.
Sampling: TRANSMISSION
Resolution: 4
Origin: TENNESSEE EASTMAN COMPANY, RESEARCH LABORATORIES
MICROMETERS	TRANSMITTANCE
2.048	0.95
2.08891	0.95
2.12983	0.95
2.17074	0.953
2.21166	0.955
2.25257	0.955
2.29349	0.952
2.3344	0.948
2.37532	0.948
2.41623	0.952
2.45715	0.953
2.49806	0.953
2.53898	0.952
2.57989	0.952
2.62081	0.953
2.66172	0.96
2.70264	0.96
2.74355	0.959
2.78447	0.947
2.82538	0.919
2.8663	0.895
2.90721	0.815
2.94813	0.679
2.98904	0.486
3.02996	0.264
3.07087	0.15
3.11179	0.04
3.1527	0.078
3.19362	0.208
3.23453	0.303
3.27545	0.465
3.31636	0.581
3.35728	0.622
3.39819	0.706
3.43911	0.697
3.48002	0.699
3.52094	0.687
3.56185	0.783
3.60277	0.803
3.64368	0.679
3.6846	0.75
3.72551	0.769
3.76643	0.834
3.80734	0.827
3.84826	0.877
3.88917	0.822
3.93009	0.829
3.971	0.88
4.01192	0.904
4.05283	0.873
4.09374	0.923
4.13466	0.936
4.17557	0.941
4.21649	0.948
4.2574	0.941
4.29832	0.938
4.33923	0.938
4.38015	0.941
4.42106	0.947
4.46198	0.948
4.50289	0.945
4.54381	0.943
4.58472	0.948
4.62564	0.95
4.66655	0.948
4.70747	0.948
4.74838	0.933
4.7893	0.93
4.83021	0.933
4.87113	0.938
4.91204	0.948
4.95296	0.953
4.99387	0.959
5.03479	0.962
5.0757	0.95
5.11662	0.907
5.15753	0.928
5.19845	0.948
5.23936	0.95
5.28028	0.948
5.32119	0.918
5.36211	0.945
5.40302	0.957
5.44394	0.959
5.48485	0.955
5.52577	0.931
5.56668	0.923
5.6076	0.933
5.64851	0.928
5.68943	0.88
5.73034	0.813
5.77126	0.738
5.81217	0.75
5.85309	0.779
5.894	0.677
5.93492	0.494
5.97583	0.023
6.01675	0.114
6.05766	0.435
6.09858	0.675
6.13949	0.706
6.1804	0.416
6.22132	0.457
6.26223	0.402
6.30315	0.02
6.34406	0.187
6.38498	0.569
6.42589	0.697
6.46681	0.728
6.50772	0.704
6.54864	0.708
6.58955	0.704
6.63047	0.505
6.67138	0.122
6.7123	0.5
6.75321	0.726
6.79413	0.74
6.83504	0.728
6.87596	0.725
6.91687	0.728
6.95779	0.716
6.9987	0.723
7.03962	0.697
7.08053	0.616
7.12145	0.708
7.16236	0.726
7.20328	0.694
7.24419	0.656
7.28511	0.547
7.32602	0.401
7.36694	0.349
7.40785	0.401
7.44877	0.452
7.48968	0.452
7.5306	0.636
7.57151	0.668
7.61243	0.411
7.65334	0.551
7.69426	0.517
7.73517	0.162
7.77609	0.023
7.817	0.054
7.85792	0.187
7.89883	0.218
7.93975	0.133
7.98066	0.064
8.02158	0.104
8.06249	0.262
8.10341	0.459
8.14432	0.59
8.18523	0.645
8.22615	0.686
8.26706	0.711
8.30798	0.713
8.34889	0.735
8.38981	0.74
8.43072	0.738
8.47164	0.552
8.51255	0.216
8.55347	0.626
8.59438	0.569
8.6353	0.24
8.67621	0.361
8.71713	0.656
8.75804	0.752
8.79896	0.793
8.83987	0.807
8.88079	0.812
8.9217	0.815
8.96262	0.82
9.00353	0.827
9.04445	0.836
9.08536	0.841
9.12628	0.844
9.16719	0.843
9.20811	0.815
9.24902	0.803
9.28994	0.844
9.33085	0.856
9.37177	0.865
9.41268	0.87
9.4536	0.872
9.49451	0.875
9.53543	0.878
9.57634	0.88
9.61726	0.878
9.65817	0.875
9.69909	0.87
9.74	0.843
9.78092	0.81
9.82183	0.863
9.86275	0.878
9.90366	0.885
9.94458	0.872
9.98549	0.706
10.0264	0.735
10.0673	0.875
10.1082	0.883
10.1492	0.885
10.1901	0.844
10.231	0.878
10.2719	0.892
10.3128	0.902
10.3537	0.909
10.3946	0.907
10.4356	0.899
10.4765	0.843
10.5174	0.677
10.5583	0.491
10.5992	0.573
10.6401	0.718
10.681	0.822
10.722	0.865
10.7629	0.887
10.8038	0.901
10.8447	0.911
10.8856	0.919
10.9265	0.926
10.9674	0.931
11.0084	0.935
11.0493	0.931
11.0902	0.872
11.1311	0.866
11.172	0.909
11.2129	0.926
11.2539	0.931
11.2948	0.93
11.3357	0.919
11.3766	0.868
11.4175	0.575
11.4584	0.356
11.4993	0.662
11.5403	0.798
11.5812	0.865
11.6221	0.894
11.663	0.912
11.7039	0.919
11.7448	0.923
11.7857	0.923
11.8267	0.921
11.8676	0.918
11.9085	0.909
11.9494	0.899
11.9903	0.897
12.0312	0.895
12.0722	0.894
12.1131	0.885
12.154	0.877
12.1949	0.877
12.2358	0.87
12.2767	0.868
12.3176	0.853
12.3586	0.832
12.3995	0.802
12.4404	0.72
12.4813	0.503
12.5222	0.366
12.5631	0.424
12.604	0.339
12.645	0.177
12.6859	0.061
12.7268	0.047
12.7677	0.16
12.8086	0.327
12.8495	0.578
12.8904	0.706
12.9314	0.767
12.9723	0.803
13.0132	0.815
13.0541	0.817
13.095	0.817
13.1359	0.815
13.1769	0.815
13.2178	0.819
13.2587	0.82
13.2996	0.822
13.3405	0.824
13.3814	0.824
13.4223	0.819
13.4633	0.812
13.5042	0.802
13.5451	0.795
13.586	0.784
13.6269	0.766
13.6678	0.749
13.7087	0.728
13.7497	0.704
13.7906	0.686
13.8315	0.656
13.8724	0.624
13.9133	0.597
13.9542	0.568
13.9952	0.547
14.0361	0.527
14.077	0.506
14.1179	0.505
14.1588	0.506
14.1997	0.52
14.2406	0.537
14.2816	0.559
14.3225	0.575
14.3634	0.598
14.4043	0.619
14.4452	0.636
14.4861	0.646
14.527	0.651
14.568	0.648
14.6089	0.604
14.6498	0.501
14.6907	0.392
14.7316	0.276
14.7725	0.24
14.8134	0.288
14.8544	0.365
14.8953	0.447
14.9362	0.496
14.9771	0.511
15.018	0.503
15.0589	0.462
15.0999	0.407
15.1408	0.36
15.1817	0.354
15.2226	0.385
15.2635	0.436
15.3044	0.488
15.3453	0.527
15.3863	0.546
15.4272	0.561
15.4681	0.568
15.509	0.571
15.5499	0.578
15.5908	0.581
15.6317	0.585
15.6727	0.585
15.7136	0.585
15.7545	0.581
15.7954	0.581
15.8363	0.576
15.8772	0.573
15.9182	0.568
15.9591	0.564
16	0.561
