Infrared Spectrum: 3-Cyclohexenecarbonitrile
Formula: C 7 H 9 N
CAS: 100-45-8
State: gas
Origin: EPA-IR VAPOR PHASE LIBRARY
1/CM	ABSORBANCE
549.8	0.0007864
559.445	0.0008479
569.09	0.00068
578.734	0.0009565
588.379	0.0008224
598.024	0.0007195
607.669	0.000676
617.313	0.001058
626.958	0.001705
636.603	0.004555
646.248	0.007535
655.893	0.009015
665.537	0.008445
675.182	0.005185
684.827	0.003245
694.472	0.002515
704.116	0.002075
713.761	0.002435
723.406	0.002715
733.051	0.002275
742.695	0.002365
752.34	0.002405
761.985	0.001645
771.63	0.0008911
781.275	0.0008303
790.919	0.0007087
800.564	0.0007566
810.209	0.0007051
819.854	0.000665
829.498	0.0005796
839.143	0.0008814
848.788	0.0011474
858.433	0.0012691
868.078	0.001555
877.722	0.001515
887.367	0.0014062
897.012	0.001665
906.657	0.001825
916.301	0.002065
925.946	0.001715
935.591	0.0014017
945.236	0.001415
954.88	0.001475
964.525	0.0010572
974.17	0.0010559
983.815	0.0006874
993.46	0.000877
1003.1	0.0011691
1012.75	0.0013718
1022.39	0.0013157
1032.04	0.001425
1041.68	0.001875
1051.33	0.001555
1060.97	0.0011701
1070.62	0.0011529
1080.26	0.0005866
1089.91	0.0005993
1099.55	0.0006207
1109.2	0.00040812
1118.84	0.0006896
1128.49	0.0009364
1138.13	0.0012516
1147.78	0.0012245
1157.42	0.0009397
1167.07	0.0009584
1176.71	0.0010184
1186.36	0.001291
1196	0.001515
1205.64	0.001425
1215.29	0.0012499
1224.93	0.0010615
1234.58	0.0011231
1244.22	0.0011442
1253.87	0.0013702
1263.51	0.0012656
1273.16	0.0014143
1282.8	0.0012714
1292.45	0.0012592
1302.09	0.0011741
1311.74	0.0013655
1321.38	0.0014139
1331.03	0.001475
1340.67	0.001515
1350.32	0.001555
1359.96	0.001565
1369.61	0.0012879
1379.25	0.0010928
1388.9	0.0009596
1398.54	0.0009153
1408.18	0.0009991
1417.83	0.001435
1427.47	0.002865
1437.12	0.004885
1446.76	0.005715
1456.41	0.004915
1466.05	0.002995
1475.7	0.001665
1485.34	0.0009914
1494.99	0.0007209
1504.63	0.0006488
1514.28	0.0006309
1523.92	0.0006291
1533.57	0.0006124
1543.21	0.00056
1552.86	0.0006105
1562.5	0.0005304
1572.15	0.0007108
1581.79	0.000678
1591.44	0.0008013
1601.08	0.0009446
1610.73	0.0012379
1620.37	0.0014143
1630.01	0.0013167
1639.66	0.001685
1649.3	0.002035
1658.95	0.001885
1668.59	0.0013964
1678.24	0.0009551
1687.88	0.0009165
1697.53	0.0007857
1707.17	0.0008112
1716.82	0.0007336
1726.46	0.0007243
1736.11	0.0007547
1745.75	0.0006225
1755.4	0.0005702
1765.04	0.0006775
1774.69	0.0006013
1784.33	0.0005788
1793.98	0.0006011
1803.62	0.0006117
1813.27	0.0006241
1822.91	0.0006446
1832.55	0.0006285
1842.2	0.0006726
1851.84	0.0006272
1861.49	0.0007342
1871.13	0.0007767
1880.78	0.0007339
1890.42	0.0007067
1900.07	0.0006763
1909.71	0.0006784
1919.36	0.0007087
1929	0.0007579
1938.65	0.0006893
1948.29	0.0006543
1957.94	0.0006971
1967.58	0.0006598
1977.23	0.0006904
1986.87	0.0006796
1996.52	0.0006148
2006.16	0.0006479
2015.81	0.0006495
2025.45	0.0006747
2035.1	0.0006098
2044.74	0.0006483
2054.38	0.0006413
2064.03	0.0006241
2073.67	0.0006722
2083.32	0.0006416
2092.96	0.0007096
2102.61	0.0006948
2112.25	0.0006939
2121.9	0.0006849
2131.54	0.0007048
2141.19	0.0006245
2150.83	0.0006417
2160.48	0.0005892
2170.12	0.0006314
2179.77	0.0006842
2189.41	0.0006765
2199.06	0.000735
2208.7	0.0007119
2218.35	0.0008821
2227.99	0.0011818
2237.64	0.001745
2247.28	0.001785
2256.92	0.0012817
2266.57	0.0008041
2276.21	0.0007053
2285.86	0.000665
2295.5	0.0007367
2305.15	0.000712
2314.79	0.0006
2324.44	0.0006358
2334.08	0.0005878
2343.73	0.0006999
2353.37	0.0006703
2363.02	0.0007815
2372.66	0.0007844
2382.31	0.000884
2391.95	0.0008258
2401.6	0.0007912
2411.24	0.0007714
2420.89	0.0007411
2430.53	0.0007759
2440.18	0.0007455
2449.82	0.0006889
2459.47	0.0006791
2469.11	0.0006496
2478.75	0.0006989
2488.4	0.0005992
2498.04	0.0007308
2507.69	0.0006818
2517.33	0.0007307
2526.98	0.0007131
2536.62	0.0007218
2546.27	0.0007103
2555.91	0.0006989
2565.56	0.0006704
2575.2	0.0006795
2584.85	0.0006703
2594.49	0.0006557
2604.14	0.000778
2613.78	0.0007619
2623.43	0.0007723
2633.07	0.000779
2642.72	0.0007688
2652.36	0.000926
2662.01	0.0009591
2671.65	0.0009323
2681.29	0.0009076
2690.94	0.0009056
2700.58	0.000824
2710.23	0.0008372
2719.87	0.0008613
2729.52	0.0007378
2739.16	0.0008052
2748.81	0.0008337
2758.45	0.0009794
2768.1	0.0009563
2777.74	0.0010062
2787.39	0.0010209
2797.03	0.0009579
2806.68	0.0011053
2816.32	0.0011947
2825.97	0.001595
2835.61	0.002975
2845.26	0.005785
2854.9	0.008045
2864.55	0.008195
2874.19	0.006965
2883.84	0.006195
2893.48	0.007035
2903.12	0.008515
2912.77	0.011765
2922.41	0.017135
2932.06	0.021715
2941.7	0.024875
2951.35	0.020245
2960.99	0.015525
2970.64	0.010345
2980.28	0.004995
2989.93	0.003005
2999.57	0.002165
3009.22	0.001945
3018.86	0.002955
3028.51	0.008035
3038.15	0.011955
3047.8	0.011435
3057.44	0.005685
3067.09	0.002485
3076.73	0.001875
3086.38	0.001595
3096.02	0.0011401
3105.67	0.000904
3115.31	0.0008593
3124.95	0.0007673
3134.6	0.000826
3144.24	0.0008339
3153.89	0.0008372
3163.53	0.0008158
3173.18	0.000731
3182.82	0.0006521
3192.47	0.0006789
3202.11	0.000845
3211.76	0.0007782
3221.4	0.0006765
3231.05	0.0005671
3240.69	0.0006673
3250.34	0.0008494
3259.98	0.0008228
3269.63	0.0007461
3279.27	0.0008528
3288.92	0.0007666
3298.56	0.0008299
3308.21	0.0009596
3317.85	0.0008777
3327.49	0.0008053
3337.14	0.0007687
3346.78	0.0007535
3356.43	0.0006336
3366.07	0.0006548
3375.72	0.0007025
3385.36	0.0006415
3395.01	0.0005786
3404.65	0.0005607
3414.3	0.0005933
3423.94	0.0005437
3433.59	0.0007131
3443.23	0.0006087
3452.88	0.0007126
3462.52	0.0006347
3472.17	0.0007906
3481.81	0.0007208
3491.46	0.0006828
3501.1	0.0006305
3510.75	0.0005398
3520.39	0.0005308
3530.04	0.0007005
3539.68	0.0005471
3549.32	0.0006527
3558.97	0.0005745
3568.61	0.0008213
3578.26	0.0007161
3587.9	0.0006542
3597.55	0.0004747
3607.19	0.0005699
3616.84	0.0006117
3626.48	0.0006701
3636.13	0.0006942
3645.77	0.0005308
3655.42	0.0006499
3665.06	0.0006994
3674.71	0.0006777
3684.35	0.0005206
3694	0.0007101
3703.64	0.000574
3713.29	0.0007762
3722.93	0.0006543
3732.58	0.0005955
3742.22	0.0007164
3751.86	0.0005431
3761.51	0.0006839
3771.15	0.0006563
3780.8	0.0006239
3790.44	0.0007084
3800.09	0.0006611
3809.73	0.0006301
3819.38	0.0008072
3829.02	0.0009086
3838.67	0.0006392
3848.31	0.0007154
3857.96	0.0006717
3867.6	0.000651
3877.25	0.0007997
3886.89	0.0009332
3896.54	0.0008188
3906.18	0.0008026
3915.83	0.0007829
3925.47	0.0008489
3935.12	0.0008406
3944.76	0.0008166
3954.41	0.0009269
3964.05	0.0007846
3973.69	0.0010808
3983.34	0.0007655
3992.98	0.0008526
