Infrared Spectrum: Benzonitrile
Formula: C 7 H 5 N
CAS: 100-47-0
State: gas
Instrument: HP-GC/MS/IRD
Origin: NIST Mass Spectrometry Data Center
1/CM	ABSORBANCE
550	0.0014795
562	0.0011286
574	0.0005434
586	0.0001353
598	0.0002222
610	0.0002673
622	0.000308
634	0.0003674
646	0.0004675
658	0.0012562
670	0.0030954
682	0.0048939
694	0.0047751
706	0.0032197
718	0.001672
730	0.002629
742	0.0052184
754	0.011
766	0.0055946
778	0.0024475
790	0.000583
802	0.000209
814	0.0001705
826	0.0001122
838	9.02e-05
850	8.03e-05
862	0.0001397
874	0.0001947
886	0.0005313
898	0.0007535
910	0.0007777
922	0.0008217
934	0.0004224
946	0.0001518
958	0.0001034
970	5.61e-05
982	3.19e-05
994	8.8e-05
1006	0.0001628
1018	0.0007843
1030	0.0007381
1042	0.0004213
1054	0.000484
1066	0.0005093
1078	0.0005984
1090	0.0003839
1102	0.000198
1114	0.0001408
1126	0.0001001
1138	0.0001705
1150	0.0002651
1162	0.000253
1174	0.0004675
1186	0.0005093
1198	0.0003531
1210	0.0003223
1222	0.000308
1234	0.0002277
1246	0.0002651
1258	0.0002739
1270	0.0004532
1282	0.0004554
1294	0.0003938
1306	0.000275
1318	0.0002156
1330	0.0002761
1342	0.0003014
1354	0.0002948
1366	0.0002541
1378	0.0002387
1390	0.0002057
1402	0.000165
1414	0.0001936
1426	0.0004796
1438	0.0010736
1450	0.0009317
1462	0.0008019
1474	0.0009196
1486	0.0022572
1498	0.0021747
1510	0.0006996
1522	0.0003355
1534	0.0002486
1546	0.0001573
1558	0.0001859
1570	0.0003399
1582	0.0005016
1594	0.000429
1606	0.0003399
1618	0.0001551
1630	5.39e-05
1642	0.0001342
1654	0.0001738
1666	0.0003839
1678	0.0004169
1690	0.0002706
1702	0.0001815
1714	0.000176
1726	0.0002409
1738	0.0003311
1750	0.0003817
1762	0.0003773
1774	0.0003124
1786	0.0003311
1798	0.0005533
1810	0.0005049
1822	0.0003069
1834	0.0002178
1846	0.000187
1858	0.0002189
1870	0.0003245
1882	0.000429
1894	0.0005742
1906	0.0004609
1918	0.0003069
1930	0.0002387
1942	0.0004136
1954	0.0004543
1966	0.0005313
1978	0.0003608
1990	0.0001397
2002	8.14e-05
2014	8.47e-05
2026	8.47e-05
2038	9.57e-05
2050	6.05e-05
2062	7.04e-05
2074	9.02e-05
2086	6.6e-05
2098	3.3e-05
2110	3.74e-05
2122	3.52e-05
2134	2.97e-05
2146	8.91e-05
2158	5.17e-05
2170	7.7e-05
2182	4.51e-05
2194	9.13e-05
2206	0.0002277
2218	0.0006908
2230	0.0014102
2242	0.0013211
2254	0.000407
2266	0.0001474
2278	0.00011
2290	6.16e-05
2302	8.8e-05
2314	8.69e-05
2326	0.0001694
2338	0.0001804
2350	0.0001573
2362	0.0001485
2374	0.0001386
2386	0.0001386
2398	0.0001045
2410	7.15e-05
2422	8.69e-05
2434	5.5e-05
2446	4.4e-05
2458	4.29e-05
2470	1.54e-05
2482	4.84e-05
2494	3.08e-05
2506	5.94e-05
2518	9.24e-05
2530	3.85e-05
2542	4.51e-05
2554	6.38e-05
2566	2.97e-05
2578	3.19e-05
2590	7.15e-05
2602	7.37e-05
2614	9.13e-05
2626	7.26e-05
2638	4.95e-05
2650	3.85e-05
2662	4.73e-05
2674	6.05e-05
2686	7.92e-05
2698	7.48e-05
2710	3.52e-05
2722	1.98e-05
2734	6.49e-05
2746	7.15e-05
2758	0.0001056
2770	0.0001397
2782	0.0001221
2794	8.58e-05
2806	6.27e-05
2818	4.29e-05
2830	5.72e-05
2842	1.54e-05
2854	7.04e-05
2866	9.02e-05
2878	6.6e-05
2890	0.0001045
2902	4.84e-05
2914	8.58e-05
2926	8.25e-05
2938	0.0001254
2950	0.0001408
2962	0.0001089
2974	0.0001199
2986	0.0001232
2998	0.0002024
3010	0.0003366
3022	0.0005918
3034	0.0009702
3046	0.0014069
3058	0.0018733
3070	0.0026422
3082	0.0029634
3094	0.0021307
3106	0.0018128
3118	0.0009273
3130	0.0002948
3142	0.0002222
3154	0.0002167
3166	0.0001958
3178	0.0001254
3190	0.0001463
3202	0.0001595
3214	0.0001342
3226	0.0001573
3238	9.35e-05
3250	0.0001067
3262	8.03e-05
3274	0.0001254
3286	0.00011
3298	9.46e-05
3310	0.0001716
3322	8.25e-05
3334	0.0001507
3346	0.0001408
3358	0.000187
3370	0.0001353
3382	0.0001529
3394	0.0001518
3406	0.0002838
3418	0.0002101
3430	0.0002739
3442	0.0002442
3454	0.0002101
3466	0.0001881
3478	0.000264
3490	0.0002321
3502	0.0001661
3514	0.0001694
3526	0.0001441
3538	0.0002079
3550	0.0001452
3562	0.000198
3574	0.0001749
3586	0.0002145
3598	0.0002134
3610	0.0001551
3622	0.0002156
3634	0.0002915
3646	0.0002343
3658	0.0002574
3670	0.0002673
3682	0.0001683
3694	0.0002299
3706	0.0002673
3718	0.0002255
3730	0.0002662
3742	0.000253
3754	0.0002046
3766	0.0002387
3778	0.0002178
3790	0.0002002
3802	0.0002508
3814	0.0002695
3826	0.0003564
3838	0.0002596
