Infrared Spectrum: P-ETHYL NITRO BENZENE
Formula: C8 H9 N O2
CAS: 100-12-9
State: SOLUTION (10% CCl4 FOR 2.5-7.5, 10% CS2 FOR 7.5-16 MICRON)
Class: COBLENTZ
Instrument: Not specified, most likely a prism, grating, or hybrid spectrometer.
Sampling: TRANSMISSION
Path length: 0.01 CM, 0.01 CM
Resolution: 4
Origin: DOW CHEMICAL COMPANY
MICROMETERS	TRANSMITTANCE
2.002	0.847
2.04114	0.849
2.08028	0.849
2.11941	0.846
2.15855	0.85
2.19769	0.85
2.23683	0.846
2.27597	0.847
2.3151	0.85
2.35424	0.855
2.39338	0.862
2.43252	0.862
2.47166	0.875
2.51079	0.878
2.54993	0.881
2.58907	0.884
2.62821	0.891
2.66735	0.894
2.70648	0.899
2.74562	0.896
2.78476	0.897
2.8239	0.899
2.86304	0.899
2.90217	0.896
2.94131	0.899
2.98045	0.901
3.01959	0.902
3.05873	0.899
3.09786	0.897
3.137	0.896
3.17614	0.884
3.21528	0.826
3.25442	0.79
3.29355	0.802
3.33269	0.64
3.37183	0.442
3.41097	0.619
3.45011	0.67
3.48925	0.773
3.52838	0.875
3.56752	0.899
3.60666	0.902
3.6458	0.905
3.68494	0.909
3.72407	0.922
3.76321	0.912
3.80235	0.914
3.84149	0.927
3.88063	0.94
3.91976	0.938
3.9589	0.933
3.99804	0.938
4.03718	0.888
4.07632	0.93
4.11545	0.943
4.15459	0.948
4.19373	0.941
4.23287	0.933
4.27201	0.93
4.31114	0.918
4.35028	0.928
4.38942	0.943
4.42856	0.949
4.4677	0.949
4.50683	0.944
4.54597	0.954
4.58511	0.961
4.62425	0.959
4.66339	0.961
4.70252	0.961
4.74166	0.959
4.7808	0.961
4.81994	0.961
4.85908	0.959
4.89821	0.959
4.93735	0.954
4.97649	0.959
5.01563	0.957
5.05477	0.948
5.0939	0.944
5.13304	0.938
5.17218	0.862
5.21132	0.925
5.25046	0.952
5.28959	0.951
5.32873	0.949
5.36787	0.951
5.40701	0.952
5.44615	0.952
5.48528	0.944
5.52442	0.912
5.56356	0.894
5.6027	0.946
5.64184	0.954
5.68097	0.956
5.72011	0.951
5.75925	0.928
5.79839	0.904
5.83753	0.902
5.87666	0.891
5.9158	0.855
5.95494	0.85
5.99408	0.881
6.03322	0.88
6.07235	0.854
6.11149	0.813
6.15063	0.708
6.18977	0.32
6.22891	0.173
6.26805	0.429
6.30718	0.504
6.34632	0.51
6.38546	0.426
6.4246	0.303
6.46374	0.212
6.50287	0.063
6.54201	0.029
6.58115	0.043
6.62029	0.309
6.65943	0.439
6.69856	0.521
6.7377	0.654
6.77684	0.585
6.81598	0.508
6.85512	0.551
6.89425	0.661
6.93339	0.719
6.97253	0.766
7.01167	0.795
7.05081	0.799
7.08994	0.799
7.12908	0.771
7.16822	0.73
7.20736	0.682
7.2465	0.638
7.28563	0.557
7.32477	0.354
7.36391	0.123
7.40305	0.016
7.44219	0.048
7.48132	0.324
7.52046	0.461
7.5596	0.497
7.59874	0.551
7.63788	0.726
7.67701	0.779
7.71615	0.802
7.75529	0.839
7.79443	0.863
7.83357	0.87
7.8727	0.873
7.91184	0.875
7.95098	0.88
7.99012	0.881
8.02926	0.865
8.06839	0.871
8.10753	0.904
8.14667	0.917
8.18581	0.918
8.22495	0.91
8.26408	0.893
8.30322	0.883
8.34236	0.875
8.3815	0.841
8.42064	0.748
8.45977	0.68
8.49891	0.799
8.53805	0.881
8.57719	0.899
8.61633	0.914
8.65546	0.93
8.6946	0.941
8.73374	0.943
8.77288	0.943
8.81202	0.933
8.85115	0.912
8.89029	0.86
8.92943	0.735
8.96857	0.567
9.00771	0.401
9.04685	0.573
9.08598	0.802
9.12512	0.831
9.16426	0.854
9.2034	0.875
9.24254	0.891
9.28167	0.894
9.32081	0.884
9.35995	0.833
9.39909	0.752
9.43823	0.7
9.47736	0.682
9.5165	0.696
9.55564	0.782
9.59478	0.855
9.63392	0.888
9.67305	0.901
9.71219	0.905
9.75133	0.904
9.79047	0.823
9.82961	0.724
9.86874	0.81
9.90788	0.912
9.94702	0.925
9.98616	0.935
10.0253	0.943
10.0644	0.944
10.1036	0.943
10.1427	0.935
10.1818	0.922
10.221	0.901
10.2601	0.891
10.2993	0.867
10.3384	0.854
10.3775	0.86
10.4167	0.862
10.4558	0.852
10.495	0.88
10.5341	0.918
10.5732	0.927
10.6124	0.941
10.6515	0.944
10.6906	0.946
10.7298	0.944
10.7689	0.941
10.8081	0.936
10.8472	0.933
10.8863	0.941
10.9255	0.943
10.9646	0.943
11.0037	0.936
11.0429	0.925
11.082	0.91
11.1212	0.884
11.1603	0.855
11.1994	0.847
11.2386	0.842
11.2777	0.842
11.3169	0.839
11.356	0.821
11.3951	0.802
11.4343	0.784
11.4734	0.763
11.5125	0.724
11.5517	0.67
11.5908	0.568
11.63	0.361
11.6691	0.139
11.7082	0.063
11.7474	0.072
11.7865	0.045
11.8256	0.16
11.8648	0.491
11.9039	0.653
11.9431	0.732
11.9822	0.769
12.0213	0.792
12.0605	0.8
12.0996	0.803
12.1387	0.803
12.1779	0.805
12.217	0.807
12.2562	0.818
12.2953	0.831
12.3344	0.834
12.3736	0.815
12.4127	0.794
12.4519	0.803
12.491	0.824
12.5301	0.833
12.5693	0.813
12.6084	0.784
12.6475	0.776
12.6867	0.773
12.7258	0.779
12.765	0.79
12.8041	0.795
12.8432	0.789
12.8824	0.75
12.9215	0.669
12.9606	0.611
12.9998	0.619
13.0389	0.7
13.0781	0.753
13.1172	0.771
13.1563	0.773
13.1955	0.752
13.2346	0.711
13.2738	0.653
13.3129	0.588
13.352	0.52
13.3912	0.45
13.4303	0.432
13.4694	0.439
13.5086	0.463
13.5477	0.481
13.5869	0.487
13.626	0.484
13.6651	0.482
13.7043	0.489
13.7434	0.504
13.7825	0.539
13.8217	0.562
13.8608	0.591
13.9	0.617
13.9391	0.635
13.9782	0.648
14.0174	0.651
14.0565	0.646
14.0957	0.635
14.1348	0.623
14.1739	0.601
14.2131	0.568
14.2522	0.538
14.2913	0.5
14.3305	0.437
14.3696	0.4
14.4088	0.379
14.4479	0.38
14.487	0.403
14.5262	0.439
14.5653	0.471
14.6044	0.495
14.6436	0.517
14.6827	0.536
14.7219	0.551
14.761	0.56
14.8001	0.567
14.8393	0.565
14.8784	0.567
14.9175	0.565
14.9567	0.565
14.9958	0.562
15.035	0.555
15.0741	0.542
15.1132	0.533
15.1524	0.526
15.1915	0.521
15.2307	0.51
15.2698	0.499
15.3089	0.491
15.3481	0.482
15.3872	0.478
15.4263	0.476
15.4655	0.474
15.5046	0.473
15.5438	0.47
15.5829	0.463
15.622	0.463
15.6612	0.461
15.7003	0.461
15.7394	0.458
15.7786	0.458
15.8177	0.457
15.8569	0.455
15.896	0.452
