Infrared Spectrum: 2-Methyl-1-phenyl-2-propanol
Formula: C 10 H 14 O
CAS: 100-86-7
State: gas
Instrument: HP-GC/MS/IRD
Origin: NIST Mass Spectrometry Data Center
1/CM	ABSORBANCE
550	0.0003944
562	0.0001598
574	0.0001717
586	0.000204
598	0.0006324
610	0.0009877
622	0.0006001
634	0.0002822
646	0.0002737
658	0.0005083
670	0.0009061
682	0.0024446
694	0.0068901
706	0.0085612
718	0.0083351
730	0.0062849
742	0.001972
754	0.0008772
766	0.0012631
778	0.0013515
790	0.0007157
802	0.0003162
814	0.0003094
826	0.0004488
838	0.0004046
850	0.0003842
862	0.0006698
874	0.0013192
886	0.0023902
898	0.0037009
910	0.0037366
922	0.0024565
934	0.0015266
946	0.0012138
958	0.0015351
970	0.0018394
982	0.0012597
994	0.0007089
1006	0.0005525
1018	0.000748
1030	0.0014416
1042	0.0008092
1054	0.0008381
1066	0.0013192
1078	0.0016813
1090	0.0023749
1102	0.0039474
1114	0.0058905
1126	0.0068306
1138	0.0064566
1150	0.0058514
1162	0.0050864
1174	0.0037621
1186	0.0034221
1198	0.0039882
1210	0.0045645
1222	0.0043775
1234	0.0039185
1246	0.0035683
1258	0.0029937
1270	0.0027489
1282	0.0027404
1294	0.002516
1306	0.0024752
1318	0.0024395
1330	0.0028475
1342	0.0035479
1354	0.0035258
1366	0.0050524
1378	0.006596
1390	0.0048586
1402	0.001887
1414	0.0011118
1426	0.0012393
1438	0.0021216
1450	0.0033405
1462	0.0033966
1474	0.0026792
1486	0.002975
1498	0.0030974
1510	0.0013566
1522	0.0004896
1534	0.0003774
1546	0.0003485
1558	0.0003638
1570	0.0004029
1582	0.0006103
1594	0.0013311
1606	0.0014518
1618	0.0005848
1630	0.0001972
1642	0.0001445
1654	0.0001496
1666	0.0001411
1678	0.0001751
1690	0.000187
1702	0.0001955
1714	0.0001394
1726	0.0001479
1738	0.0002091
1750	0.0002465
1762	0.0001802
1774	0.0002074
1786	0.0003111
1798	0.0004981
1810	0.0003961
1822	0.0002159
1834	0.0001105
1846	0.0001428
1858	0.0002363
1870	0.0003417
1882	0.000357
1894	0.000255
1906	0.0001258
1918	0.000136
1930	0.0003434
1942	0.000493
1954	0.0004726
1966	0.0001615
1978	7.14e-05
1990	4.93e-05
2002	1.36e-05
2014	5.27e-05
2026	3.23e-05
2038	6.97e-05
2050	4.08e-05
2062	4.93e-05
2074	3.91e-05
2086	4.42e-05
2098	5.1e-05
2110	3.57e-05
2122	5.61e-05
2134	6.63e-05
2146	3.74e-05
2158	4.93e-05
2170	3.74e-05
2182	6.63e-05
2194	8.84e-05
2206	3.91e-05
2218	7.48e-05
2230	6.63e-05
2242	5.1e-05
2254	6.97e-05
2266	6.12e-05
2278	8.67e-05
2290	8.5e-05
2302	0.0001071
2314	0.0001394
2326	0.0001122
2338	0.0001241
2350	0.0001207
2362	0.0001139
2374	8.67e-05
2386	9.35e-05
2398	6.97e-05
2410	8.33e-05
2422	4.76e-05
2434	5.95e-05
2446	4.76e-05
2458	3.74e-05
2470	3.57e-05
2482	5.61e-05
2494	4.25e-05
2506	5.78e-05
2518	0.0001037
2530	6.29e-05
2542	0.000102
2554	8.67e-05
2566	7.31e-05
2578	0.0001105
2590	0.0001207
2602	0.0001309
2614	0.0001054
2626	0.0001292
2638	9.69e-05
2650	0.0001088
2662	8.33e-05
2674	0.0001088
2686	0.0001037
2698	9.52e-05
2710	0.0001309
2722	0.0002091
2734	0.0001989
2746	0.0002533
2758	0.0002193
2770	0.0002737
2782	0.0003077
2794	0.0003247
2806	0.0004216
2818	0.000561
2830	0.0008432
2842	0.00136
2854	0.0020417
2866	0.0025398
2878	0.0032011
2890	0.0037859
2902	0.0044132
2914	0.0060826
2926	0.0086479
2938	0.0097325
2950	0.0078846
2962	0.0091851
2974	0.0161585
2986	0.0137649
2998	0.0049589
3010	0.0025755
3022	0.004216
3034	0.0065858
3046	0.0047753
3058	0.0040987
3070	0.0063988
3082	0.0049096
3094	0.0031042
3106	0.0017578
3118	0.0008908
3130	0.0004488
3142	0.000255
3154	0.0003519
3166	0.0003043
3178	0.0002227
3190	0.0002159
3202	0.0002193
3214	0.0002295
3226	0.0001887
3238	0.0001819
3250	0.0001292
3262	0.0001479
3274	0.0001088
3286	0.000136
3298	8.5e-05
3310	0.000136
3322	7.14e-05
3334	6.29e-05
3346	0.000153
3358	0.0001819
3370	0.0002074
3382	0.0001955
3394	0.00017
3406	0.0001122
3418	0.0001003
3430	0.0001394
3442	0.0001241
3454	0.0001309
3466	6.63e-05
3478	8.16e-05
3490	8.67e-05
3502	0.0001224
3514	0.0001275
3526	2.72e-05
3538	8.67e-05
3550	9.01e-05
3562	0.00017
3574	0.0002771
3586	0.0003723
3598	0.0005219
3610	0.0011968
3622	0.0017884
3634	0.0018802
3646	0.0013974
3658	0.0005644
3670	0.0003094
3682	0.0001802
3694	0.0001717
3706	0.0001054
3718	0.0001326
3730	0.0001394
3742	0.0001224
3754	6.46e-05
3766	5.95e-05
3778	9.35e-05
3790	0.0001037
3802	0.0001139
3814	0.0001326
3826	0.0001445
3838	0.0001751
