Infrared Spectrum: CYCLOHEXANE METHANOL
Formula: C7 H14 O
CAS: 100-49-2
State: LIQUID
Boiling point: 182-185 C
Class: COBLENTZ
Instrument: Not specified, most likely a prism, grating, or hybrid spectrometer.
Sampling: TRANSMISSION
Path length: 0.003 CM
Resolution: 4
Origin: WYANDOTTE CHEMICALS CORP., WYANDOTTE, MICHIGAN, USA
MICROMETERS	TRANSMITTANCE
2.022	1
2.0604	1
2.0988	1.003
2.1372	1.003
2.1756	0.998
2.214	0.966
2.2524	0.961
2.2908	0.959
2.3292	0.954
2.3676	0.951
2.406	0.953
2.4444	0.954
2.4828	0.964
2.5212	0.964
2.5596	0.966
2.598	0.972
2.6364	0.972
2.6748	0.958
2.7132	0.916
2.7516	0.832
2.79	0.624
2.8284	0.441
2.8668	0.261
2.9052	0.151
2.9436	0.091
2.982	0.056
3.0204	0.045
3.0588	0.083
3.0972	0.164
3.1356	0.282
3.174	0.429
3.2124	0.579
3.2508	0.672
3.2892	0.687
3.3276	0.479
3.366	0.024
3.4044	0.032
3.4428	0.043
3.4812	0.035
3.5196	0.287
3.558	0.53
3.5964	0.672
3.6348	0.712
3.6732	0.737
3.7116	0.748
3.75	0.732
3.7884	0.812
3.8268	0.837
3.8652	0.854
3.9036	0.879
3.942	0.891
3.9804	0.904
4.0188	0.924
4.0572	0.922
4.0956	0.937
4.134	0.948
4.1724	0.932
4.2108	0.93
4.2492	0.943
4.2876	0.958
4.326	0.967
4.3644	0.975
4.4028	0.97
4.4412	0.972
4.4796	0.975
4.518	0.97
4.5564	0.974
4.5948	0.975
4.6332	0.975
4.6716	0.975
4.71	0.979
4.7484	0.979
4.7868	0.98
4.8252	0.982
4.8636	0.97
4.902	0.967
4.9404	0.972
4.9788	0.975
5.0172	0.98
5.0556	0.977
5.094	0.983
5.1324	0.983
5.1708	0.983
5.2092	0.98
5.2476	0.985
5.286	0.983
5.3244	0.983
5.3628	0.988
5.4012	0.979
5.4396	0.985
5.478	0.985
5.5164	0.98
5.5548	0.985
5.5932	0.979
5.6316	0.977
5.67	0.969
5.7084	0.974
5.7468	0.948
5.7852	0.948
5.8236	0.946
5.862	0.946
5.9004	0.95
5.9388	0.948
5.9772	0.933
6.0156	0.927
6.054	0.924
6.0924	0.929
6.1308	0.933
6.1692	0.935
6.2076	0.932
6.246	0.927
6.2844	0.922
6.3228	0.925
6.3612	0.922
6.3996	0.916
6.438	0.908
6.4764	0.891
6.5148	0.882
6.5532	0.862
6.5916	0.832
6.63	0.801
6.6684	0.733
6.7068	0.603
6.7452	0.48
6.7836	0.37
6.822	0.212
6.8604	0.067
6.8988	0.311
6.9372	0.45
6.9756	0.483
7.014	0.5
7.0524	0.514
7.0908	0.538
7.1292	0.558
7.1676	0.554
7.206	0.479
7.2444	0.487
7.2828	0.572
7.3212	0.582
7.3596	0.561
7.398	0.55
7.4364	0.562
7.4748	0.574
7.5132	0.593
7.5516	0.632
7.59	0.632
7.6284	0.688
7.6668	0.724
7.7052	0.714
7.7436	0.69
7.782	0.677
7.8204	0.604
7.8588	0.541
7.8972	0.601
7.9356	0.651
7.974	0.682
8.0124	0.732
8.0508	0.753
8.0892	0.762
8.1276	0.759
8.166	0.727
8.2044	0.661
8.2428	0.624
8.2812	0.661
8.3196	0.733
8.358	0.759
8.3964	0.724
8.4348	0.68
8.4732	0.72
8.5116	0.762
8.55	0.785
8.5884	0.793
8.6268	0.796
8.6652	0.769
8.7036	0.68
8.742	0.664
8.7804	0.741
8.8188	0.782
8.8572	0.788
8.8956	0.746
8.934	0.698
8.9724	0.545
9.0108	0.372
9.0492	0.283
9.0876	0.261
9.126	0.212
9.1644	0.303
9.2028	0.345
9.2412	0.351
9.2796	0.654
9.318	0.698
9.3564	0.679
9.3948	0.53
9.4332	0.377
9.4716	0.472
9.51	0.387
9.5484	0.198
9.5868	0.079
9.6252	0.037
9.6636	0.043
9.702	0.041
9.7404	0.035
9.7788	0.058
9.8172	0.167
9.8556	0.291
9.894	0.441
9.9324	0.591
9.9708	0.667
10.0092	0.714
10.0476	0.7
10.086	0.58
10.1244	0.512
10.1628	0.669
10.2012	0.779
10.2396	0.804
10.278	0.816
10.3164	0.785
10.3548	0.733
10.3932	0.688
10.4316	0.601
10.47	0.546
10.5084	0.574
10.5468	0.596
10.5852	0.667
10.6236	0.751
10.662	0.812
10.7004	0.838
10.7388	0.851
10.7772	0.858
10.8156	0.848
10.854	0.84
10.8924	0.832
10.9308	0.819
10.9692	0.832
11.0076	0.829
11.046	0.811
11.0844	0.812
11.1228	0.775
11.1612	0.537
11.1996	0.348
11.238	0.441
11.2764	0.698
11.3148	0.779
11.3532	0.817
11.3916	0.837
11.43	0.817
11.4684	0.788
11.5068	0.753
11.5452	0.751
11.5836	0.782
11.622	0.806
11.6604	0.814
11.6988	0.783
11.7372	0.746
11.7756	0.735
11.814	0.737
11.8524	0.693
11.8908	0.614
11.9292	0.638
11.9676	0.764
12.006	0.803
12.0444	0.814
12.0828	0.819
12.1212	0.816
12.1596	0.814
12.198	0.814
12.2364	0.811
12.2748	0.806
12.3132	0.801
12.3516	0.79
12.39	0.775
12.4284	0.761
12.4668	0.737
12.5052	0.691
12.5436	0.638
12.582	0.598
12.6204	0.595
12.6588	0.608
12.6972	0.632
12.7356	0.63
12.774	0.617
12.8124	0.616
12.8508	0.627
12.8892	0.633
12.9276	0.629
12.966	0.64
13.0044	0.638
13.0428	0.64
13.0812	0.641
13.1196	0.641
13.158	0.643
13.1964	0.645
13.2348	0.645
13.2732	0.65
13.3116	0.656
13.35	0.661
13.3884	0.666
13.4268	0.666
13.4652	0.666
13.5036	0.667
13.542	0.667
13.5804	0.667
13.6188	0.667
13.6572	0.667
13.6956	0.664
13.734	0.656
13.7724	0.656
13.8108	0.659
13.8492	0.651
13.8876	0.648
13.926	0.646
13.9644	0.648
14.0028	0.643
14.0412	0.64
14.0796	0.643
14.118	0.635
14.1564	0.633
14.1948	0.632
14.2332	0.632
14.2716	0.63
14.31	0.629
14.3484	0.627
14.3868	0.624
14.4252	0.625
14.4636	0.625
14.502	0.625
14.5404	0.625
14.5788	0.627
14.6172	0.627
14.6556	0.625
14.694	0.627
14.7324	0.624
14.7708	0.625
14.8092	0.624
14.8476	0.624
14.886	0.625
14.9244	0.625
14.9628	0.625
15.0012	0.629
15.0396	0.635
15.078	0.637
15.1164	0.632
15.1548	0.633
15.1932	0.638
15.2316	0.632
15.27	0.637
15.3084	0.641
15.3468	0.648
15.3852	0.646
15.4236	0.656
15.462	0.651
15.5004	0.654
15.5388	0.654
15.5772	0.656
15.6156	0.656
15.654	0.664
15.6924	0.67
15.7308	0.672
15.7692	0.675
15.8076	0.679
