Infrared Spectrum: Mephentermine
Formula: C 11 H 17 N
CAS: 100-92-5
State: gas
Instrument: HP-GC/MS/IRD
Origin: NIST Mass Spectrometry Data Center
1/CM	ABSORBANCE
550	0.0007876
562	0.0002816
574	0.0003399
586	0.0004917
598	0.0009955
610	0.0010285
622	0.000847
634	0.0009328
646	0.0014619
658	0.0019602
670	0.002244
682	0.002728
694	0.004521
706	0.0050402
718	0.0033946
730	0.0023485
742	0.0015004
754	0.0010351
766	0.0011836
778	0.0007524
790	0.0002178
802	0.0001914
814	9.57e-05
826	0.0001254
838	5.17e-05
850	9.57e-05
862	0.0001298
874	0.0001298
886	3.85e-05
898	6.82e-05
910	7.7e-05
922	0
934	1.43e-05
946	3.19e-05
958	8.25e-05
970	8.03e-05
982	3.41e-05
994	7.37e-05
1006	0.0001056
1018	0.0002035
1030	0.0005962
1042	0.0002871
1054	0.0004202
1066	0.0007975
1078	0.0009009
1090	0.000847
1102	0.000913
1114	0.0009273
1126	0.0012474
1138	0.0018128
1150	0.0019085
1162	0.0019514
1174	0.0023045
1186	0.0023551
1198	0.0016775
1210	0.0015312
1222	0.0015521
1234	0.0013046
1246	0.0011594
1258	0.0009306
1270	0.0005203
1282	0.0003344
1294	0.0002695
1306	0.0004389
1318	0.0004565
1330	0.0003553
1342	0.0003586
1354	0.0008272
1366	0.0017886
1378	0.0019833
1390	0.0013882
1402	0.0004972
1414	0.000484
1426	0.0009163
1438	0.0017743
1450	0.0023441
1462	0.0024013
1474	0.0024618
1486	0.0026741
1498	0.0022
1510	0.0007854
1522	0.0003498
1534	0.0002805
1546	0.000209
1558	0.0002211
1570	0.0001892
1582	0.0003344
1594	0.0007293
1606	0.0007656
1618	0.0002695
1630	9.13e-05
1642	8.14e-05
1654	5.94e-05
1666	9.79e-05
1678	0.0001078
1690	6.16e-05
1702	3.3e-05
1714	6.93e-05
1726	9.46e-05
1738	0.0001386
1750	0.0001485
1762	0.0001166
1774	8.47e-05
1786	0.0001474
1798	0.0002321
1810	0.000165
1822	8.14e-05
1834	7.15e-05
1846	7.37e-05
1858	0.0001155
1870	0.0001749
1882	0.0001826
1894	9.46e-05
1906	3.52e-05
1918	9.02e-05
1930	0.0001969
1942	0.0002684
1954	0.0001991
1966	7.59e-05
1978	5.17e-05
1990	3.3e-05
2002	4.18e-05
2014	5.39e-05
2026	4.62e-05
2038	6.6e-05
2050	0
2062	4.4e-06
2074	1.76e-05
2086	3.19e-05
2098	3.19e-05
2110	4.07e-05
2122	2.42e-05
2134	5.39e-05
2146	4.73e-05
2158	5.39e-05
2170	5.06e-05
2182	3.52e-05
2194	4.18e-05
2206	2.53e-05
2218	3.3e-05
2230	1.87e-05
2242	1.87e-05
2254	5.5e-06
2266	4.62e-05
2278	2.53e-05
2290	4.18e-05
2302	2.31e-05
2314	7.92e-05
2326	7.15e-05
2338	6.05e-05
2350	5.17e-05
2362	4.84e-05
2374	4.18e-05
2386	1.1e-05
2398	5.61e-05
2410	2.42e-05
2422	3.52e-05
2434	1.98e-05
2446	2.53e-05
2458	2.75e-05
2470	1.21e-05
2482	0
2494	2.97e-05
2506	3.85e-05
2518	4.84e-05
2530	6.49e-05
2542	6.6e-05
2554	7.59e-05
2566	7.26e-05
2578	5.17e-05
2590	9.02e-05
2602	0.0001067
2614	9.46e-05
2626	0.0001287
2638	0.0001089
2650	8.47e-05
2662	0.0001111
2674	0.0001089
2686	0.0001287
2698	0.0001331
2710	0.0001859
2722	0.0001936
2734	0.000242
2746	0.0003003
2758	0.0004081
2770	0.0005181
2782	0.0007964
2794	0.001562
2806	0.0022704
2818	0.0018689
2830	0.0012793
2842	0.0017204
2854	0.0028347
2866	0.0036828
2878	0.0039402
2890	0.0041393
2902	0.0043439
2914	0.0050061
2926	0.0062557
2938	0.007007
2950	0.0074393
2962	0.0092455
2974	0.011
2986	0.0066264
2998	0.0024255
3010	0.0016071
3022	0.0023661
3034	0.0035409
3046	0.0024101
3058	0.0022627
3070	0.0034034
3082	0.0024794
3094	0.0015994
3106	0.000902
3118	0.0004708
3130	0.0002937
3142	0.0002706
3154	0.0002024
3166	0.000187
3178	0.0002024
3190	0.0001562
3202	0.0001584
3214	0.0001573
3226	0.0001012
3238	0.0001188
3250	9.35e-05
3262	0.0001089
3274	6.38e-05
3286	4.84e-05
3298	7.48e-05
3310	8.03e-05
3322	4.95e-05
3334	7.26e-05
3346	6.49e-05
3358	0.0001584
3370	0.000143
3382	0.0001342
3394	8.47e-05
3406	4.18e-05
3418	5.28e-05
3430	4.4e-05
3442	2.2e-05
3454	4.51e-05
3466	2.53e-05
3478	2.97e-05
3490	3.74e-05
3502	7.26e-05
3514	3.52e-05
3526	2.31e-05
3538	1.32e-05
3550	8.91e-05
3562	9.57e-05
3574	1.1e-05
3586	5.39e-05
3598	6.05e-05
3610	9.68e-05
3622	4.95e-05
3634	5.61e-05
3646	6.27e-05
3658	6.27e-05
3670	0.0001111
3682	7.04e-05
3694	5.72e-05
3706	5.83e-05
3718	4.4e-05
3730	8.14e-05
3742	6.49e-05
3754	2.64e-05
3766	5.83e-05
3778	6.71e-05
3790	3.41e-05
3802	8.69e-05
3814	3.3e-06
3826	4.18e-05
3838	6.6e-05
