Infrared Spectrum: 1,4-Dinitrobenzene
Formula: C 6 H 4 N 2 O 4
CAS: 100-25-4
State: gas
Instrument: HP-GC/MS/IRD
Origin: NIST Mass Spectrometry Data Center
1/CM	ABSORBANCE
550	0.0004788
562	5.4e-05
574	0.0002736
586	0.0001908
598	0.0002664
610	0.0002538
622	0.0001674
634	0.0002106
646	0.0001512
658	0.000261
670	0.0002484
682	0.0004086
694	0.0009468
706	0.0021384
718	0.0022266
730	0.0009054
742	0.000333
754	0.0001818
766	0.0002502
778	0.0002664
790	0.000423
802	0.0006174
814	0.0007308
826	0.0034524
838	0.0060624
850	0.0013518
862	0.0015714
874	0.0018126
886	0.00099
898	0.0003996
910	0.000225
922	0.0002322
934	0.000171
946	0.0001404
958	0.0001494
970	0.0001494
982	0.0001098
994	0.0001602
1006	0.0007146
1018	0.0009126
1030	0.000243
1042	0.000216
1054	0.0001746
1066	0.0002592
1078	0.0002124
1090	0.0005544
1102	0.0008082
1114	0.0005238
1126	0.0002196
1138	0.0001224
1150	0.0001746
1162	0.0001854
1174	0.0001998
1186	0.0002034
1198	0.0002448
1210	0.0002484
1222	0.0003024
1234	0.0003582
1246	0.000279
1258	0.0003438
1270	0.0004248
1282	0.0006876
1294	0.0012852
1306	0.002331
1318	0.0034488
1330	0.008397
1342	0.0134928
1354	0.004923
1366	0.0030384
1378	0.0035532
1390	0.0022284
1402	0.0014202
1414	0.0008136
1426	0.0004932
1438	0.0003834
1450	0.000351
1462	0.0004068
1474	0.0010692
1486	0.0015336
1498	0.001521
1510	0.001899
1522	0.002097
1534	0.0029196
1546	0.00675
1558	0.01575
1570	0.0169776
1582	0.0071478
1594	0.0022932
1606	0.0012366
1618	0.0009774
1630	0.0007326
1642	0.0005148
1654	0.0004302
1666	0.0004194
1678	0.0003852
1690	0.000333
1702	0.0002718
1714	0.0002304
1726	0.0001944
1738	0.0001512
1750	0.0001368
1762	0.0001368
1774	0.0001494
1786	0.0002394
1798	0.0002358
1810	0.0001674
1822	0.0001728
1834	0.000153
1846	0.0001386
1858	0.000135
1870	0.0001188
1882	0.000126
1894	0.0001188
1906	0.000117
1918	0.0001836
1930	0.0002268
1942	0.0001782
1954	0.000126
1966	0.0001098
1978	0.0001026
1990	9.54e-05
2002	8.82e-05
2014	7.92e-05
2026	6.3e-05
2038	0.0001026
2050	8.28e-05
2062	5.22e-05
2074	9.18e-05
2086	8.64e-05
2098	7.56e-05
2110	5.76e-05
2122	7.56e-05
2134	7.56e-05
2146	6.84e-05
2158	9.9e-05
2170	8.1e-05
2182	0.0001062
2194	8.1e-05
2206	8.64e-05
2218	7.56e-05
2230	6.3e-05
2242	5.04e-05
2254	7.56e-05
2266	9.9e-05
2278	0.0001152
2290	8.1e-05
2302	6.66e-05
2314	8.28e-05
2326	7.02e-05
2338	9e-05
2350	5.22e-05
2362	9.9e-05
2374	0.000108
2386	8.82e-05
2398	0.0001044
2410	8.64e-05
2422	9.9e-05
2434	0.000126
2446	8.46e-05
2458	7.92e-05
2470	9.72e-05
2482	5.04e-05
2494	6.12e-05
2506	6.48e-05
2518	4.86e-05
2530	3.42e-05
2542	4.5e-05
2554	4.5e-05
2566	3.06e-05
2578	4.86e-05
2590	5.04e-05
2602	4.32e-05
2614	5.76e-05
2626	4.5e-05
2638	4.86e-05
2650	8.1e-05
2662	0.0001278
2674	0.0001584
2686	0.0001872
2698	0.0002016
2710	9.9e-05
2722	0.000117
2734	0.0001062
2746	8.82e-05
2758	7.56e-05
2770	8.64e-05
2782	5.4e-05
2794	5.94e-05
2806	4.68e-05
2818	8.28e-05
2830	9e-05
2842	9.9e-05
2854	0.000135
2866	0.0001944
2878	0.0002718
2890	0.0002592
2902	0.0002448
2914	0.0002412
2926	0.0002214
2938	0.0001872
2950	0.0001728
2962	8.64e-05
2974	6.48e-05
2986	5.22e-05
2998	6.48e-05
3010	0.0001332
3022	5.94e-05
3034	0.0001242
3046	0.0002232
3058	0.0001332
3070	8.82e-05
3082	0.0001314
3094	0.0001926
3106	0.0003258
3118	0.0002646
3130	0.0001764
3142	0.0001116
3154	8.82e-05
3166	2.7e-05
3178	7.74e-05
3190	7.56e-05
3202	7.38e-05
3214	9e-06
3226	7.02e-05
3238	5.4e-06
3250	1.26e-05
3262	2.88e-05
3274	2.34e-05
3286	1.62e-05
3298	4.32e-05
3310	5.76e-05
3322	7.2e-05
3334	4.5e-05
3346	5.04e-05
3358	2.34e-05
3370	7.74e-05
3382	3.6e-05
3394	8.28e-05
3406	7.02e-05
3418	5.58e-05
3430	6.12e-05
3442	4.32e-05
3454	7.56e-05
3466	9.9e-05
3478	2.52e-05
3490	6.12e-05
3502	5.58e-05
3514	4.14e-05
3526	9e-05
3538	7.2e-05
3550	4.5e-05
3562	5.22e-05
3574	7.38e-05
3586	0.0001044
3598	9.36e-05
3610	9.36e-05
3622	3.96e-05
3634	7.38e-05
3646	7.2e-05
3658	7.74e-05
3670	4.68e-05
3682	9.36e-05
3694	0.000117
3706	0.0001062
3718	0.0001008
3730	0.0001062
3742	0.0001062
3754	0.0001008
3766	8.64e-05
3778	0.0001332
3790	8.46e-05
3802	0.000144
3814	0.0001152
3826	7.92e-05
3838	2.16e-05
