Infrared Spectrum: 1-NITROSOPIPERIDINE
Formula: C5 H10 N2 O
CAS: 100-75-4
State: LIQUID
Boiling point: 109-110 C AT 23 mmHg
Class: COBLENTZ
Instrument: Not specified, most likely a prism, grating, or hybrid spectrometer.
Sampling: TRANSMISSION
Path length: 0.003 CM
Resolution: 4
Origin: WYANDOTTE CHEMICALS CORP., WYANDOTTE, MICHIGAN, USA
MICROMETERS	TRANSMITTANCE
2.025	0.979
2.06215	0.978
2.0993	0.987
2.13646	0.992
2.17361	0.953
2.21076	0.908
2.24791	0.922
2.28506	0.934
2.32222	0.945
2.35937	0.927
2.39652	0.954
2.43367	0.964
2.47082	0.956
2.50797	0.976
2.54513	0.972
2.58228	0.987
2.61943	0.992
2.65658	0.993
2.69373	0.99
2.73089	0.95
2.76804	0.942
2.80519	0.931
2.84234	0.923
2.87949	0.917
2.91665	0.923
2.9538	0.934
2.99095	0.936
3.0281	0.945
3.06525	0.944
3.10241	0.93
3.13956	0.919
3.17671	0.908
3.21386	0.88
3.25101	0.827
3.28816	0.729
3.32532	0.364
3.36247	0.048
3.39962	0.051
3.43677	0.135
3.47392	0.111
3.51108	0.285
3.54823	0.656
3.58538	0.664
3.62253	0.782
3.65968	0.819
3.69684	0.796
3.73399	0.798
3.77114	0.855
3.80829	0.877
3.84544	0.878
3.8826	0.914
3.91975	0.919
3.9569	0.906
3.99405	0.913
4.0312	0.928
4.06835	0.928
4.10551	0.92
4.14266	0.922
4.17981	0.934
4.21696	0.939
4.25411	0.931
4.29127	0.937
4.32842	0.95
4.36557	0.968
4.40272	0.948
4.43987	0.94
4.47703	0.93
4.51418	0.94
4.55133	0.953
4.58848	0.961
4.62563	0.951
4.66279	0.945
4.69994	0.942
4.73709	0.958
4.77424	0.97
4.81139	0.978
4.84854	0.978
4.8857	0.973
4.92285	0.979
4.96	0.965
4.99715	0.94
5.0343	0.962
5.07146	0.968
5.10861	0.975
5.14576	0.967
5.18291	0.981
5.22006	0.97
5.25722	0.968
5.29437	0.962
5.33152	0.959
5.36867	0.97
5.40582	0.962
5.44298	0.953
5.48013	0.959
5.51728	0.965
5.55443	0.968
5.59158	0.956
5.62873	0.945
5.66589	0.93
5.70304	0.939
5.74019	0.95
5.77734	0.933
5.81449	0.939
5.85165	0.928
5.8888	0.908
5.92595	0.897
5.9631	0.872
6.00025	0.861
6.03741	0.83
6.07456	0.84
6.11171	0.861
6.14886	0.872
6.18601	0.88
6.22317	0.874
6.26032	0.889
6.29747	0.886
6.33462	0.894
6.37177	0.886
6.40892	0.863
6.44608	0.805
6.48323	0.776
6.52038	0.777
6.55753	0.753
6.59468	0.709
6.63184	0.667
6.66899	0.579
6.70614	0.473
6.74329	0.26
6.78044	0.037
6.8176	0.04
6.85475	0.024
6.8919	0.023
6.92905	0.027
6.9662	0.024
7.00336	0.029
7.04051	0.041
7.07766	0.142
7.11481	0.253
7.15196	0.288
7.18911	0.225
7.22627	0.083
7.26342	0.027
7.30057	0.026
7.33772	0.024
7.37487	0.023
7.41203	0.024
7.44918	0.066
7.48633	0.17
7.52348	0.256
7.56063	0.332
7.59779	0.42
7.63494	0.431
7.67209	0.363
7.70924	0.17
7.74639	0.029
7.78355	0.031
7.8207	0.102
7.85785	0.15
7.895	0.046
7.93215	0.035
7.9693	0.19
8.00646	0.433
8.04361	0.566
8.08076	0.619
8.11791	0.636
8.15506	0.622
8.19222	0.583
8.22937	0.554
8.26652	0.517
8.30367	0.436
8.34082	0.273
8.37798	0.086
8.41513	0.031
8.45228	0.032
8.48943	0.037
8.52658	0.108
8.56374	0.291
8.60089	0.434
8.63804	0.543
8.67519	0.588
8.71234	0.608
8.74949	0.616
8.78665	0.586
8.8238	0.459
8.86095	0.282
8.8981	0.358
8.93525	0.299
8.97241	0.152
9.00956	0.052
9.04671	0.031
9.08386	0.034
9.12101	0.032
9.15817	0.043
9.19532	0.128
9.23247	0.27
9.26962	0.363
9.30677	0.397
9.34393	0.468
9.38108	0.551
9.41823	0.605
9.45538	0.647
9.49253	0.664
9.52968	0.68
9.56684	0.677
9.60399	0.659
9.64114	0.627
9.67829	0.555
9.71544	0.434
9.7526	0.183
9.78975	0.066
9.8269	0.17
9.86405	0.361
9.9012	0.437
9.93836	0.414
9.97551	0.354
10.0127	0.25
10.0498	0.11
10.087	0.035
10.1241	0.024
10.1613	0.024
10.1984	0.029
10.2356	0.088
10.2727	0.237
10.3099	0.378
10.347	0.486
10.3842	0.534
10.4213	0.534
10.4585	0.465
10.4956	0.293
10.5328	0.285
10.5699	0.478
10.6071	0.604
10.6442	0.645
10.6814	0.658
10.7185	0.658
10.7557	0.658
10.7928	0.659
10.83	0.655
10.8672	0.586
10.9043	0.458
10.9415	0.26
10.9786	0.19
11.0158	0.36
11.0529	0.591
11.0901	0.698
11.1272	0.756
11.1644	0.787
11.2015	0.805
11.2387	0.812
11.2758	0.822
11.313	0.824
11.3501	0.819
11.3873	0.813
11.4244	0.813
11.4616	0.796
11.4987	0.774
11.5359	0.726
11.573	0.687
11.6102	0.585
11.6473	0.428
11.6845	0.223
11.7216	0.124
11.7588	0.184
11.796	0.357
11.8331	0.427
11.8703	0.4
11.9074	0.523
11.9446	0.641
11.9817	0.709
12.0189	0.743
12.056	0.77
12.0932	0.782
12.1303	0.793
12.1675	0.807
12.2046	0.807
12.2418	0.809
12.2789	0.798
12.3161	0.785
12.3532	0.765
12.3904	0.771
12.4275	0.767
12.4647	0.773
12.5018	0.768
12.539	0.762
12.5761	0.74
12.6133	0.697
12.6504	0.591
12.6876	0.49
12.7247	0.495
12.7619	0.625
12.7991	0.72
12.8362	0.763
12.8734	0.796
12.9105	0.815
12.9477	0.824
12.9848	0.833
13.022	0.846
13.0591	0.85
13.0963	0.86
13.1334	0.861
13.1706	0.868
13.2077	0.877
13.2449	0.877
13.282	0.88
13.3192	0.885
13.3563	0.895
13.3935	0.883
13.4306	0.888
13.4678	0.894
13.5049	0.892
13.5421	0.897
13.5792	0.899
13.6164	0.9
13.6535	0.895
13.6907	0.897
13.7278	0.902
13.765	0.899
13.8022	0.905
13.8393	0.903
13.8765	0.899
13.9136	0.903
13.9508	0.9
13.9879	0.899
14.0251	0.899
14.0622	0.899
14.0994	0.894
14.1365	0.899
14.1737	0.886
14.2108	0.883
14.248	0.885
14.2851	0.886
14.3223	0.883
14.3594	0.881
14.3966	0.881
14.4337	0.866
14.4709	0.864
14.508	0.855
14.5452	0.849
14.5823	0.832
14.6195	0.822
14.6566	0.804
14.6938	0.777
14.731	0.731
14.7681	0.683
14.8053	0.61
14.8424	0.566
14.8796	0.521
14.9167	0.498
14.9539	0.472
14.991	0.492
15.0282	0.531
15.0653	0.59
15.1025	0.621
15.1396	0.644
15.1768	0.677
15.2139	0.703
15.2511	0.714
15.2882	0.742
15.3254	0.731
15.3625	0.743
15.3997	0.748
15.4368	0.739
15.474	0.743
15.5111	0.736
15.5483	0.74
15.5854	0.737
15.6226	0.729
15.6597	0.725
15.6969	0.717
15.7341	0.722
15.7712	0.722
15.8084	0.712
15.8455	0.706
15.8827	0.703
15.9198	0.703
15.957	0.704
15.9941	0.692
