Infrared Spectrum: Hexamethylenetetraamine
Formula: C 6 H 12 N 4
CAS: 100-97-0
State: gas
Instrument: HP-GC/MS/IRD
Origin: NIST Mass Spectrometry Data Center
1/CM	ABSORBANCE
550	0.0001014
562	0.0001287
574	7.8e-06
586	5.07e-05
598	0.0002145
610	0.0001326
622	0.0002301
634	0.0004095
646	0.0017043
658	0.0032058
670	0.0066027
682	0.0037557
694	0.0016107
706	0.0003354
718	0.0002535
730	0.0001638
742	0.0001482
754	0.0001989
766	0.0001989
778	0.0003198
790	0.0010569
802	0.0021567
814	0.0039819
826	0.0025155
838	0.0017589
850	0.0006357
862	0.0002145
874	0.0002106
886	0.0002418
898	0.000234
910	0.0003276
922	0.0003978
934	0.0004368
946	0.0004836
958	0.0006318
970	0.0008775
982	0.0024609
994	0.0148161
1006	0.0350844
1018	0.0275769
1030	0.0084123
1042	0.0029991
1054	0.0012441
1066	0.0007527
1078	0.0003783
1090	0.0002964
1102	0.0002262
1114	0.0002691
1126	0.0002847
1138	0.0002457
1150	0.000195
1162	0.0002184
1174	0.0002652
1186	0.0004407
1198	0.0004017
1210	0.0009399
1222	0.0076596
1234	0.0209976
1246	0.007995
1258	0.0007293
1270	0.0004407
1282	0.0003471
1294	0.0002574
1306	0.0002184
1318	0.0001911
1330	0.0003081
1342	0.0014235
1354	0.0032487
1366	0.0024921
1378	0.0008502
1390	0.0004056
1402	0.0002613
1414	0.0003432
1426	0.0005577
1438	0.0010725
1450	0.0025233
1462	0.0040326
1474	0.0024531
1486	0.0010062
1498	0.0003471
1510	0.000195
1522	0.0001716
1534	0.000156
1546	0.0001248
1558	0.0001599
1570	0.0001716
1582	0.0001794
1594	0.0001872
1606	0.0001872
1618	0.000117
1630	0.0001443
1642	0.0001209
1654	0.0001053
1666	0.0001053
1678	0.0001989
1690	0.0002223
1702	0.0001599
1714	0.0001794
1726	0.0002145
1738	0.0002223
1750	0.0002067
1762	0.0001677
1774	0.0002223
1786	0.0002535
1798	0.0001677
1810	0.0001521
1822	0.0002262
1834	0.0002808
1846	0.0002067
1858	0.0001287
1870	7.41e-05
1882	4.29e-05
1894	5.46e-05
1906	6.24e-05
1918	8.97e-05
1930	0.0001521
1942	0.0001989
1954	0.0001365
1966	0.0001014
1978	8.97e-05
1990	9.75e-05
2002	0.000195
2014	0.0001911
2026	7.41e-05
2038	8.58e-05
2050	0.0001092
2062	8.97e-05
2074	6.24e-05
2086	5.46e-05
2098	7.8e-05
2110	0.0001209
2122	0.0001131
2134	0.0001053
2146	7.8e-05
2158	7.41e-05
2170	6.24e-05
2182	5.85e-05
2194	2.73e-05
2206	0
2218	3.9e-05
2230	5.46e-05
2242	7.8e-05
2254	7.02e-05
2266	7.8e-05
2278	5.46e-05
2290	3.51e-05
2302	1.17e-05
2314	4.29e-05
2326	2.73e-05
2338	2.73e-05
2350	3.51e-05
2362	2.34e-05
2374	3.12e-05
2386	2.73e-05
2398	1.17e-05
2410	4.68e-05
2422	0
2434	2.34e-05
2446	2.34e-05
2458	4.68e-05
2470	5.07e-05
2482	4.68e-05
2494	3.51e-05
2506	2.34e-05
2518	1.17e-05
2530	1.56e-05
2542	2.34e-05
2554	3.9e-06
2566	3.9e-05
2578	4.29e-05
2590	6.24e-05
2602	0.0001092
2614	0.0001131
2626	9.36e-05
2638	6.24e-05
2650	0.0001287
2662	0.0002223
2674	0.0002457
2686	0.0001404
2698	0.000117
2710	0.000117
2722	0.0001092
2734	8.97e-05
2746	9.36e-05
2758	0.0001287
2770	0.0001365
2782	0.000156
2794	0.0001755
2806	0.0002808
2818	0.0003354
2830	0.00039
2842	0.0005265
2854	0.001209
2866	0.0041964
2878	0.0079248
2890	0.0075387
2902	0.0055263
2914	0.0056277
2926	0.0083538
2938	0.0118404
2950	0.0159744
2962	0.0145197
2974	0.0062322
2986	0.0011466
2998	0.0005226
3010	0.0003354
3022	0.0002262
3034	0.0001755
3046	0.0001287
3058	9.36e-05
3070	8.58e-05
3082	8.19e-05
3094	4.68e-05
3106	4.68e-05
3118	3.51e-05
3130	4.29e-05
3142	4.29e-05
3154	4.29e-05
3166	3.12e-05
3178	1.56e-05
3190	1.56e-05
3202	4.68e-05
3214	2.73e-05
3226	3.12e-05
3238	3.51e-05
3250	7.41e-05
3262	3.12e-05
3274	6.63e-05
3286	1.56e-05
3298	1.56e-05
3310	4.68e-05
3322	0.0001365
3334	0.0001209
3346	3.12e-05
3358	3.12e-05
3370	5.85e-05
3382	5.07e-05
3394	2.34e-05
3406	1.95e-05
3418	3.12e-05
3430	4.29e-05
3442	3.51e-05
3454	0.0001131
3466	0.0001482
3478	0.000117
3490	6.24e-05
3502	5.07e-05
3514	5.85e-05
3526	5.46e-05
3538	5.85e-05
3550	4.68e-05
3562	5.46e-05
3574	5.85e-05
3586	3.51e-05
3598	5.07e-05
3610	0.0001092
3622	9.36e-05
3634	8.58e-05
3646	5.07e-05
3658	5.85e-05
3670	3.12e-05
3682	5.85e-05
3694	6.24e-05
3706	2.34e-05
3718	5.07e-05
3730	7.8e-05
3742	5.46e-05
3754	3.51e-05
3766	6.63e-05
3778	7.8e-05
3790	3.9e-05
3802	4.29e-05
3814	5.85e-05
3826	7.8e-05
3838	6.63e-05
