Infrared Spectrum: ACROLEIN DIMER
Formula: C6 H8 O2
CAS: 100-73-2
State: LIQUID (NEAT)
Class: COBLENTZ III
Instrument: PERKIN-ELMER 521 (GRATING)
Sampling: TRANSMISSION
Path length: CAPILLARY FILM
Resolution: 4
Origin: STANDARD OIL OF OHIO
1/CM	TRANSMITTANCE
592.905	0.691
601.351	0.691
609.797	0.694
618.243	0.709
626.689	0.721
635.135	0.738
643.581	0.753
652.027	0.763
660.473	0.777
668.919	0.782
677.365	0.782
685.811	0.775
694.257	0.768
702.702	0.752
711.148	0.694
719.594	0.475
728.04	0.349
736.486	0.424
744.932	0.681
753.378	0.757
761.824	0.688
770.27	0.63
778.716	0.763
787.162	0.797
795.608	0.804
804.054	0.812
812.5	0.831
820.946	0.849
829.392	0.863
837.838	0.871
846.284	0.861
854.73	0.829
863.176	0.814
871.622	0.801
880.068	0.77
888.514	0.681
896.96	0.391
905.405	0.431
913.851	0.563
922.297	0.585
930.743	0.677
939.189	0.703
947.635	0.688
956.081	0.694
964.527	0.664
972.973	0.615
981.419	0.536
989.865	0.588
998.311	0.629
1006.76	0.647
1015.2	0.618
1023.65	0.569
1032.09	0.495
1040.54	0.45
1048.99	0.349
1057.43	0.251
1065.88	0.128
1074.32	0.096
1082.77	0.3
1091.22	0.423
1099.66	0.502
1108.11	0.573
1116.55	0.613
1125	0.63
1133.45	0.645
1141.89	0.667
1150.34	0.691
1158.78	0.728
1167.23	0.736
1175.68	0.701
1184.12	0.706
1192.57	0.74
1201.01	0.757
1209.46	0.733
1217.91	0.522
1226.35	0.379
1234.8	0.173
1243.24	0.101
1251.69	0.522
1260.14	0.681
1268.58	0.708
1277.03	0.723
1285.47	0.767
1293.92	0.772
1302.37	0.757
1310.81	0.716
1319.26	0.711
1327.7	0.704
1336.15	0.733
1344.6	0.738
1353.04	0.772
1361.49	0.752
1369.93	0.691
1378.38	0.676
1386.83	0.725
1395.27	0.763
1403.72	0.79
1412.16	0.79
1420.61	0.752
1429.05	0.649
1437.5	0.596
1445.95	0.588
1454.39	0.704
1462.84	0.777
1471.28	0.804
1479.73	0.817
1488.18	0.827
1496.62	0.831
1505.07	0.839
1513.51	0.841
1521.96	0.844
1530.41	0.846
1538.85	0.849
1547.3	0.849
1555.74	0.849
1564.19	0.844
1572.64	0.841
1581.08	0.838
1589.53	0.834
1597.97	0.822
1606.42	0.809
1614.87	0.775
1623.31	0.708
1631.76	0.659
1640.2	0.446
1648.65	0.19
1657.1	0.264
1665.54	0.652
1673.99	0.757
1682.43	0.767
1690.88	0.753
1699.33	0.736
1707.77	0.721
1716.22	0.652
1724.66	0.455
1733.11	0.204
1741.56	0.101
1750	0.204
1758.45	0.553
1766.89	0.716
1775.34	0.757
1783.79	0.79
1792.23	0.809
1800.68	0.821
1809.12	0.827
1817.57	0.831
1826.02	0.829
1834.46	0.834
1842.91	0.838
1851.35	0.846
1859.8	0.849
1868.24	0.853
1876.69	0.856
1885.14	0.858
1893.58	0.86
1902.03	0.861
1910.47	0.863
1918.92	0.865
1927.37	0.866
1935.81	0.866
1944.26	0.863
1952.7	0.86
1961.15	0.853
1969.6	0.843
1978.04	0.844
1986.49	0.849
1994.93	0.856
2003.38	0.86
2011.83	0.861
2020.27	0.863
2028.72	0.866
2037.16	0.868
2045.61	0.87
2054.06	0.87
2062.5	0.871
2070.95	0.871
2079.39	0.871
2087.84	0.871
2096.29	0.87
2104.73	0.868
2113.18	0.865
2121.62	0.863
2130.07	0.854
2138.52	0.849
2146.96	0.851
2155.41	0.856
2163.85	0.863
2172.3	0.866
2180.75	0.87
2189.19	0.871
2197.64	0.871
2206.08	0.871
2214.53	0.87
2222.98	0.871
2231.42	0.871
2239.87	0.873
2248.31	0.875
2256.76	0.875
2265.2	0.875
2273.65	0.876
2282.1	0.875
2290.54	0.873
2298.99	0.87
2307.43	0.866
2315.88	0.871
2324.33	0.875
2332.77	0.876
2341.22	0.876
2349.66	0.878
2358.11	0.878
2366.56	0.878
2375	0.878
2383.45	0.876
2391.89	0.875
2400.34	0.876
2408.79	0.876
2417.23	0.878
2425.68	0.878
2434.12	0.876
2442.57	0.878
2451.02	0.876
2459.46	0.876
2467.91	0.875
2476.35	0.873
2484.8	0.873
2493.25	0.876
2501.69	0.875
2510.14	0.873
2518.58	0.871
2527.03	0.873
2535.48	0.873
2543.92	0.871
2552.37	0.868
2560.81	0.871
2569.26	0.871
2577.71	0.871
2586.15	0.873
2594.6	0.871
2603.04	0.871
2611.49	0.87
2619.94	0.866
2628.38	0.86
2636.83	0.856
2645.27	0.849
2653.72	0.851
2662.17	0.846
2670.61	0.844
2679.06	0.831
2687.5	0.822
2695.95	0.816
2704.39	0.807
2712.84	0.794
2721.29	0.779
2729.73	0.758
2738.18	0.765
2746.62	0.795
2755.07	0.821
2763.52	0.809
2771.96	0.802
2780.41	0.795
2788.85	0.768
2797.3	0.735
2805.75	0.679
2814.19	0.634
2822.64	0.605
2831.08	0.586
2839.53	0.59
2847.98	0.561
2856.42	0.46
2864.87	0.507
2873.31	0.615
2881.76	0.64
2890.21	0.617
2898.65	0.608
2907.1	0.568
2915.54	0.532
2923.99	0.467
2932.44	0.423
2940.88	0.44
2949.33	0.502
2957.77	0.596
2966.22	0.622
2974.67	0.637
2983.11	0.718
2991.56	0.779
3000	0.811
3008.45	0.822
3016.9	0.836
3025.34	0.841
3033.79	0.839
3042.23	0.833
3050.68	0.817
3059.13	0.794
3067.57	0.671
3076.02	0.696
3084.46	0.779
3092.91	0.802
3101.35	0.819
3109.8	0.839
3118.25	0.846
3126.69	0.849
3135.14	0.849
3143.58	0.849
3152.03	0.848
3160.48	0.848
3168.92	0.846
3177.37	0.843
3185.81	0.841
3194.26	0.839
3202.71	0.838
3211.15	0.836
3219.6	0.831
3228.04	0.827
3236.49	0.824
3244.94	0.819
3253.38	0.816
3261.83	0.814
3270.27	0.809
3278.72	0.806
3287.17	0.801
3295.61	0.799
3304.06	0.794
3312.5	0.789
3320.95	0.787
3329.4	0.782
3337.84	0.777
3346.29	0.767
3354.73	0.765
3363.18	0.76
3371.63	0.755
3380.07	0.745
3388.52	0.741
3396.96	0.738
3405.41	0.733
3413.86	0.726
3422.3	0.723
3430.75	0.718
3439.19	0.706
3447.64	0.693
3456.09	0.686
3464.53	0.689
3472.98	0.694
3481.42	0.699
3489.87	0.711
3498.31	0.718
3506.76	0.725
3515.21	0.733
3523.65	0.741
3532.1	0.75
3540.54	0.753
3548.99	0.763
3557.44	0.777
3565.88	0.79
3574.33	0.797
3582.77	0.816
3591.22	0.829
3599.67	0.848
3608.11	0.851
3616.56	0.861
3625	0.87
3633.45	0.871
3641.9	0.873
3650.34	0.878
3658.79	0.885
3667.23	0.892
3675.68	0.893
3684.13	0.898
3692.57	0.9
3701.02	0.902
3709.46	0.902
3717.91	0.902
3726.36	0.902
3734.8	0.903
3743.25	0.903
3751.69	0.902
3760.14	0.902
3768.59	0.902
3777.03	0.902
3785.48	0.903
3793.92	0.903
3802.37	0.9
3810.82	0.9
3819.26	0.898
3827.71	0.898
3836.15	0.898
3844.6	0.9
3853.05	0.898
3861.49	0.902
3869.94	0.897
3878.38	0.897
3886.83	0.9
3895.28	0.902
3903.72	0.902
3912.17	0.898
3920.61	0.897
3929.06	0.897
3937.5	0.9
3945.95	0.9
