Infrared Spectrum: 2-Cyanopyridine
Formula: C 6 H 4 N 2
CAS: 100-70-9
State: gas
Origin: EPA-IR VAPOR PHASE LIBRARY
1/CM	ABSORBANCE
549.8	0.010697
559.445	0.005117
569.09	0.001447
578.734	0.0010424
588.379	0.00069
598.024	0.0008724
607.669	0.0009502
617.313	0.001927
626.958	0.002077
636.603	0.002417
646.248	0.001367
655.893	0.0007866
665.537	0.0008657
675.182	0.001357
684.827	0.001897
694.472	0.002867
704.116	0.003287
713.761	0.004057
723.406	0.005477
733.051	0.008697
742.695	0.009517
752.34	0.013067
761.985	0.019777
771.63	0.029667
781.275	0.028087
790.919	0.019697
800.564	0.009347
810.209	0.003017
819.854	0.001327
829.498	0.0011766
839.143	0.0009916
848.788	0.0008067
858.433	0.0007405
868.078	0.0009787
877.722	0.001317
887.367	0.001707
897.012	0.002447
906.657	0.002667
916.301	0.001937
925.946	0.0011819
935.591	0.0007088
945.236	0.0007032
954.88	0.0008814
964.525	0.001997
974.17	0.002987
983.815	0.005967
993.46	0.004757
1003.1	0.003977
1012.75	0.001777
1022.39	0.002137
1032.04	0.004227
1041.68	0.003877
1051.33	0.005027
1060.97	0.002367
1070.62	0.001377
1080.26	0.002497
1089.91	0.002817
1099.55	0.002477
1109.2	0.0011126
1118.84	0.0011444
1128.49	0.0012625
1138.13	0.002897
1147.78	0.003417
1157.42	0.003327
1167.07	0.0012574
1176.71	0.0012529
1186.36	0.0010322
1196	0.002467
1205.64	0.002597
1215.29	0.003347
1224.93	0.002547
1234.58	0.004007
1244.22	0.004127
1253.87	0.002667
1263.51	0.001917
1273.16	0.001987
1282.8	0.002697
1292.45	0.002447
1302.09	0.002157
1311.74	0.0012763
1321.38	0.0010725
1331.03	0.0010477
1340.67	0.0009005
1350.32	0.000843
1359.96	0.0007548
1369.61	0.0007288
1379.25	0.0009902
1388.9	0.0009571
1398.54	0.001497
1408.18	0.003047
1417.83	0.010187
1427.47	0.017477
1437.12	0.017907
1446.76	0.013907
1456.41	0.018937
1466.05	0.019367
1475.7	0.014557
1485.34	0.003067
1494.99	0.001617
1504.63	0.001547
1514.28	0.001457
1523.92	0.001677
1533.57	0.002137
1543.21	0.003997
1552.86	0.008317
1562.5	0.016857
1572.15	0.030157
1581.79	0.029687
1591.44	0.018317
1601.08	0.007627
1610.73	0.003097
1620.37	0.001817
1630.01	0.001507
1639.66	0.0011944
1649.3	0.0011398
1658.95	0.001407
1668.59	0.001467
1678.24	0.001387
1687.88	0.00107
1697.53	0.0007888
1707.17	0.0008133
1716.82	0.0007144
1726.46	0.0009713
1736.11	0.0010628
1745.75	0.0012085
1755.4	0.0010403
1765.04	0.0010581
1774.69	0.0011802
1784.33	0.0011014
1793.98	0.0009493
1803.62	0.0007577
1813.27	0.0006365
1822.91	0.0006792
1832.55	0.0009051
1842.2	0.0012106
1851.84	0.001317
1861.49	0.001457
1871.13	0.001557
1880.78	0.001367
1890.42	0.0011522
1900.07	0.0008184
1909.71	0.0009632
1919.36	0.001417
1929	0.001577
1938.65	0.001717
1948.29	0.001687
1957.94	0.001837
1967.58	0.001837
1977.23	0.001597
1986.87	0.001377
1996.52	0.0008946
2006.16	0.0006733
2015.81	0.00064
2025.45	0.0005645
2035.1	0.0006004
2044.74	0.0004942
2054.38	0.0006045
2064.03	0.0005879
2073.67	0.0005966
2083.32	0.0006211
2092.96	0.0006399
2102.61	0.0005506
2112.25	0.0005997
2121.9	0.0004753
2131.54	0.000564
2141.19	0.0006125
2150.83	0.0005079
2160.48	0.0004836
2170.12	0.0005805
2179.77	0.000591
2189.41	0.0006546
2199.06	0.000773
2208.7	0.0006404
2218.35	0.0007113
2227.99	0.0006954
2237.64	0.0008067
2247.28	0.000749
2256.92	0.0007426
2266.57	0.000668
2276.21	0.0007191
2285.86	0.0008466
2295.5	0.0009784
2305.15	0.0009315
2314.79	0.0007402
2324.44	0.0006034
2334.08	0.0005765
2343.73	0.0005296
2353.37	0.000627
2363.02	0.0005006
2372.66	0.0006023
2382.31	0.0006499
2391.95	0.0008055
2401.6	0.0007239
2411.24	0.0006764
2420.89	0.0006273
2430.53	0.0005912
2440.18	0.0005826
2449.82	0.0006324
2459.47	0.000585
2469.11	0.0006615
2478.75	0.0008808
2488.4	0.000747
2498.04	0.0005419
2507.69	0.000617
2517.33	0.0005298
2526.98	0.0005235
2536.62	0.0006192
2546.27	0.0005329
2555.91	0.0004409
2565.56	0.0005276
2575.2	0.0005793
2584.85	0.0005097
2594.49	0.0006529
2604.14	0.0007008
2613.78	0.0006441
2623.43	0.0004929
2633.07	0.0006354
2642.72	0.0005368
2652.36	0.0006993
2662.01	0.0007072
2671.65	0.0006595
2681.29	0.0005778
2690.94	0.0004294
2700.58	0.0004202
2710.23	0.0005049
2719.87	0.0005918
2729.52	0.0005621
2739.16	0.0005497
2748.81	0.0004521
2758.45	0.0006482
2768.1	0.0006576
2777.74	0.0008636
2787.39	0.0008753
2797.03	0.0005964
2806.68	0.0005395
2816.32	0.0005033
2825.97	0.0005276
2835.61	0.000459
2845.26	0.00059
2854.9	0.000569
2864.55	0.0005251
2874.19	0.0004902
2883.84	0.0005755
2893.48	0.0007717
2903.12	0.0007
2912.77	0.0007722
2922.41	0.000813
2932.06	0.0006996
2941.7	0.0005982
2951.35	0.0004617
2960.99	0.0005163
2970.64	0.0006962
2980.28	0.0008219
2989.93	0.0012702
2999.57	0.002117
3009.22	0.002767
3018.86	0.002917
3028.51	0.002467
3038.15	0.002417
3047.8	0.004427
3057.44	0.008107
3067.09	0.011577
3076.73	0.013197
3086.38	0.010957
3096.02	0.006517
3105.67	0.003357
3115.31	0.001487
3124.95	0.0012156
3134.6	0.001327
3144.24	0.0012101
3153.89	0.0008745
3163.53	0.0006365
3173.18	0.0005419
3182.82	0.0005426
3192.47	0.00032605
3202.11	0.000502
3211.76	0.0005064
3221.4	0.0004391
3231.05	0.0002797
3240.69	0.0006179
3250.34	0.0004497
3259.98	0.0002578
3269.63	0.00038505
3279.27	0.0004499
3288.92	0.0003913
3298.56	0.000215
3308.21	0.000214
3317.85	0.0002632
3327.49	0.0004389
3337.14	0.0005091
3346.78	0.00034412
3356.43	0.0004166
3366.07	0.0004177
3375.72	0.00037965
3385.36	0.00035402
3395.01	0.0004761
3404.65	0.0006001
3414.3	0.0005159
3423.94	0.0005039
3433.59	0.000635
3443.23	0.0005631
3452.88	0.000647
3462.52	0.00040676
3472.17	0.0005774
3481.81	0.0002601
3491.46	0.0004376
3501.1	0.0004256
3510.75	0.0004302
3520.39	0.000458
3530.04	0.000310729
3539.68	0.0004408
3549.32	0.000472
3558.97	0.00039392
3568.61	0.0002835
3578.26	0.00032783
3587.9	0.000312621
3597.55	0.0004363
3607.19	0.000492
3616.84	0.0004804
3626.48	0.0002929
3636.13	0.00034257
3645.77	0.00032104
3655.42	0.0004814
3665.06	0.000147
3674.71	0.0004324
3684.35	0.0005859
3694	0.0005812
3703.64	0.0005661
3713.29	0.0005513
3722.93	0.0006933
3732.58	0.000135
3742.22	0.0005341
3751.86	0.00039651
3761.51	0.00039379
3771.15	0.0004772
3780.8	0.0004922
3790.44	0.0002963
3800.09	0.0004217
3809.73	0.0004232
3819.38	0.0005048
3829.02	0.00035687
3838.67	0.0004322
3848.31	0.0007032
3857.96	0.000481
3867.6	0.0002612
3877.25	0.00036299
3886.89	0.0002359
3896.54	0.0004124
3906.18	0.00036576
3915.83	2.2e-05
3925.47	0.0004833
3935.12	0.0002886
3944.76	0.0005013
3954.41	0.0004653
3964.05	0.0002274
3973.69	0.0005112
3983.34	0.0004301
3992.98	0.00039075
