Infrared Spectrum: 3-Methylstyrene
Formula: C 9 H 10
CAS: 100-80-1
State: gas
Instrument: HP-GC/MS/IRD
Origin: NIST Mass Spectrometry Data Center
1/CM	ABSORBANCE
550	0.0008964
562	0.0013932
574	0.0012069
586	0.0005265
598	7.56e-05
610	5.4e-06
622	0.0003807
634	0.001431
646	0.0033993
658	0.0042606
670	0.0032454
682	0.0029025
694	0.0063612
706	0.0131733
718	0.0093879
730	0.0037827
742	0.0013257
754	0.0018657
766	0.0070551
778	0.0169884
790	0.0240597
802	0.0112428
814	0.0030915
826	0.0014472
838	0.0020304
850	0.0031266
862	0.004158
874	0.0056511
886	0.0086049
898	0.0173961
910	0.027
922	0.0140616
934	0.0052434
946	0.0030915
958	0.0050085
970	0.008451
982	0.0117045
994	0.0096687
1006	0.0046197
1018	0.0027837
1030	0.0031455
1042	0.0029187
1054	0.0023166
1066	0.0015768
1078	0.0018171
1090	0.0027648
1102	0.0024732
1114	0.0013392
1126	0.0007614
1138	0.0008181
1150	0.0015984
1162	0.001863
1174	0.0010908
1186	0.0008451
1198	0.0008667
1210	0.0008532
1222	0.0009747
1234	0.0012933
1246	0.0015552
1258	0.0015822
1270	0.0023112
1282	0.0027513
1294	0.0020034
1306	0.0013743
1318	0.0011826
1330	0.0010746
1342	0.001188
1354	0.0016497
1366	0.0022653
1378	0.0032373
1390	0.0040446
1402	0.0045387
1414	0.0053622
1426	0.0052164
1438	0.0046062
1450	0.0041904
1462	0.004347
1474	0.0073845
1486	0.0109998
1498	0.0086832
1510	0.0049464
1522	0.0039798
1534	0.0035262
1546	0.0033912
1558	0.004509
1570	0.0079569
1582	0.0120339
1594	0.0166185
1606	0.0157545
1618	0.0099171
1630	0.0078867
1642	0.0056727
1654	0.0019548
1666	0.0014364
1678	0.0019575
1690	0.0020034
1702	0.0011583
1714	0.000621
1726	0.0005319
1738	0.0008073
1750	0.0012582
1762	0.0017847
1774	0.0018495
1786	0.0014985
1798	0.0012933
1810	0.0025812
1822	0.0045225
1834	0.0039555
1846	0.0020061
1858	0.0016578
1870	0.0013635
1882	0.0007155
1894	0.0005427
1906	0.0006372
1918	0.0011313
1930	0.0014769
1942	0.0011826
1954	0.0006129
1966	0.000459
1978	0.0002997
1990	0.0001404
2002	0.000135
2014	9.18e-05
2026	0.0001188
2038	0.0001215
2050	9.18e-05
2062	0.0001134
2074	8.1e-05
2086	5.4e-05
2098	5.67e-05
2110	5.67e-05
2122	2.97e-05
2134	2.7e-05
2146	0
2158	5.13e-05
2170	1.89e-05
2182	1.62e-05
2194	2.43e-05
2206	4.86e-05
2218	3.78e-05
2230	0
2242	8.1e-06
2254	6.48e-05
2266	0.0001134
2278	0.0001431
2290	0.0001053
2302	8.64e-05
2314	0.0001269
2326	0.000243
2338	0.0002808
2350	0.0002754
2362	0.0001944
2374	0.0001593
2386	0.0001215
2398	0.0001512
2410	0.000135
2422	0.0001566
2434	0.0001566
2446	0.0001377
2458	0.0001593
2470	0.0001782
2482	0.0001377
2494	0.000135
2506	8.64e-05
2518	6.21e-05
2530	0.0001269
2542	9.18e-05
2554	7.83e-05
2566	0.0001134
2578	0.0001323
2590	0.0001134
2602	0.0001188
2614	9.72e-05
2626	9.45e-05
2638	3.51e-05
2650	5.67e-05
2662	1.35e-05
2674	7.56e-05
2686	5.13e-05
2698	7.02e-05
2710	0.0001458
2722	0.0002916
2734	0.0005697
2746	0.00081
2758	0.0004185
2770	0.00027
2782	0.0002808
2794	0.0004131
2806	0.0006723
2818	0.0009072
2830	0.0014337
2842	0.0021168
2854	0.0036666
2866	0.0065826
2878	0.0086454
2890	0.0083565
2902	0.0086481
2914	0.0117558
2926	0.0171747
2938	0.0171693
2950	0.011529
2962	0.0079515
2974	0.007884
2986	0.0101655
2998	0.0138159
3010	0.0216486
3022	0.0261252
3034	0.0264168
3046	0.0257175
3058	0.0237681
3070	0.0200556
3082	0.0163647
3094	0.0175095
3106	0.0120717
3118	0.0037719
3130	0.0016875
3142	0.0010773
3154	0.0008478
3166	0.0006642
3178	0.0004644
3190	0.0002997
3202	0.000324
3214	0.0003456
3226	0.0002646
3238	0.0002025
3250	0.0002133
3262	0.0001809
3274	0.0002646
3286	0.0002295
3298	9.18e-05
3310	5.94e-05
3322	8.64e-05
3334	9.18e-05
3346	4.05e-05
3358	7.83e-05
3370	5.4e-05
3382	7.83e-05
3394	5.4e-05
3406	0.0001728
3418	0.0001647
3430	9.72e-05
3442	0.0001215
3454	0.0001134
3466	0.0001026
3478	0.0001431
3490	1.89e-05
3502	8.91e-05
3514	6.75e-05
3526	0.0001296
3538	8.64e-05
3550	0.0001998
3562	0.000162
3574	0.0001404
3586	0.0001782
3598	0.0001998
3610	0.0001377
3622	9.45e-05
3634	6.75e-05
3646	0.0001836
3658	0.0001458
3670	9.18e-05
3682	0.0001188
3694	0.0001674
3706	0.0001377
3718	0.0001296
3730	6.21e-05
3742	0.0002511
3754	0.0002079
3766	0.0001674
3778	0.0001674
3790	0.0001539
3802	0.0001161
3814	0.0001512
3826	0.0001917
3838	0.0001593
