Infrared Spectrum: Benzylamine
Formula: C 7 H 9 N
CAS: 100-46-9
State: gas
Instrument: HP-GC/MS/IRD
Origin: NIST Mass Spectrometry Data Center
1/CM	ABSORBANCE
550	0.0018432
562	0.0025584
574	0.0033504
586	0.0027672
598	0.0016368
610	0.0011064
622	0.0012936
634	0.0014448
646	0.0018
658	0.0027816
670	0.0054312
682	0.010092
694	0.017328
706	0.0169848
718	0.0182376
730	0.0224856
742	0.0228696
754	0.0182472
766	0.0124368
778	0.008496
790	0.0065688
802	0.00642
814	0.0066888
826	0.0070992
838	0.0067992
850	0.0056136
862	0.003924
874	0.0025392
886	0.0021864
898	0.0020808
910	0.0017496
922	0.0014016
934	0.0011064
946	0.0010728
958	0.0011136
970	0.0009936
982	0.000924
994	0.0010704
1006	0.0019344
1018	0.003336
1030	0.0034944
1042	0.0025704
1054	0.0023136
1066	0.0017688
1078	0.0010824
1090	0.0004464
1102	7.44e-05
1114	9.84e-05
1126	0.0001104
1138	7.68e-05
1150	2.4e-05
1162	2.16e-05
1174	0.0001632
1186	0.0005664
1198	0.000792
1210	0.0006024
1222	0.0002376
1234	0.0001968
1246	0.000264
1258	0.0002952
1270	0.000252
1282	0.0003408
1294	0.0004584
1306	0.0007272
1318	0.0010848
1330	0.0015096
1342	0.0020256
1354	0.0023712
1366	0.0029952
1378	0.0036384
1390	0.0030888
1402	0.0016416
1414	0.000948
1426	0.0011568
1438	0.0023664
1450	0.003168
1462	0.0033576
1474	0.00234
1486	0.0030216
1498	0.0033024
1510	0.0018768
1522	0.0007584
1534	0.0006528
1546	0.0007104
1558	0.0010704
1570	0.0013896
1582	0.0020616
1594	0.0031032
1606	0.0041808
1618	0.0047304
1630	0.0040224
1642	0.0027144
1654	0.001836
1666	0.0009792
1678	0.0005856
1690	0.0003888
1702	0.0003984
1714	0.000348
1726	0.0003456
1738	0.0004776
1750	0.0005016
1762	0.0004272
1774	0.0005592
1786	0.0008568
1798	0.0010224
1810	0.0007248
1822	0.0004176
1834	0.0003696
1846	0.0004536
1858	0.0006048
1870	0.0007368
1882	0.0006672
1894	0.0004464
1906	0.0003312
1918	0.0004848
1930	0.0007848
1942	0.0010152
1954	0.000888
1966	0.0004272
1978	0.000192
1990	0.0001464
2002	0.0001488
2014	0.0001416
2026	0.0001344
2038	0.0001176
2050	0.000132
2062	0.0001224
2074	0.0001248
2086	9.84e-05
2098	0.0001032
2110	9.84e-05
2122	0.0001056
2134	0.0001176
2146	0.0001248
2158	8.64e-05
2170	9.84e-05
2182	0.0001224
2194	0.0001248
2206	0.0001104
2218	0.0001512
2230	0.0001584
2242	0.0001824
2254	0.0002232
2266	0.0002568
2278	0.0002592
2290	0.0002232
2302	0.0002256
2314	0.0002736
2326	0.0003312
2338	0.0003552
2350	0.000228
2362	0.0003816
2374	0.0001944
2386	0.0001512
2398	0.0001368
2410	0.0001656
2422	0.000144
2434	0.0001752
2446	0.000168
2458	0.0001848
2470	0.0001488
2482	0.0001776
2494	0.0001752
2506	0.000204
2518	0.0001872
2530	0.0002064
2542	0.0002352
2554	0.0002136
2566	0.0002544
2578	0.0003072
2590	0.0003264
2602	0.0003864
2614	0.000444
2626	0.0004416
2638	0.000456
2650	0.0004392
2662	0.0004704
2674	0.0004632
2686	0.0004944
2698	0.0005664
2710	0.0006216
2722	0.0007032
2734	0.0007944
2746	0.0008952
2758	0.0009456
2770	0.0009984
2782	0.001128
2794	0.0013752
2806	0.001812
2818	0.0025056
2830	0.0034584
2842	0.00468
2854	0.0061584
2866	0.0070824
2878	0.007308
2890	0.0069768
2902	0.0069624
2914	0.006684
2926	0.0064176
2938	0.0062088
2950	0.0053016
2962	0.0037992
2974	0.0025392
2986	0.0020856
2998	0.002556
3010	0.0045576
3022	0.0086808
3034	0.0108888
3046	0.0096912
3058	0.0093264
3070	0.011412
3082	0.0100584
3094	0.0061968
3106	0.0037416
3118	0.0019752
3130	0.00084
3142	0.0005592
3154	0.0005304
3166	0.0005232
3178	0.0004224
3190	0.00042
3202	0.00036
3214	0.000408
3226	0.0003336
3238	0.0003768
3250	0.0003144
3262	0.0003312
3274	0.0003216
3286	0.0002448
3298	0.000288
3310	0.0003144
3322	0.0004008
3334	0.0005088
3346	0.0006504
3358	0.0004848
3370	0.0004224
3382	0.0003432
3394	0.0003264
3406	0.0004008
3418	0.0003384
3430	0.0004056
3442	0.000372
3454	0.000252
3466	0.0002712
3478	0.0002472
3490	0.0001944
3502	0.0002784
3514	0.0002328
3526	0.0002184
3538	0.00018
3550	0.0001824
3562	0.0001584
3574	0.000132
3586	0.0001632
3598	0.000156
3610	0.0001656
3622	0.000144
3634	0.0002064
3646	0.000252
3658	0.0001464
3670	0.0002088
3682	0.0001104
3694	0.0001584
3706	0.0001536
3718	0.0001248
3730	0.000132
3742	0.000144
3754	0.0001656
3766	0.000144
3778	0.0001512
3790	0.0001584
3802	0.0002016
3814	0.000216
3826	0.0001896
3838	0.000204
