Infrared Spectrum: TEREPHTHALOYL CHLORIDE
Formula: C8 H4 Cl2 O2
CAS: 100-20-9
State: SOLUTION (2% CCl4 FOR 5000-1330, 2% CS2 FOR 1330-625 CM^-^1)
Class: COBLENTZ
Instrument: Not specified, most likely a prism, grating, or hybrid spectrometer.
Sampling: TRANSMISSION
Path length: 0.0114 CM, 0.0114 CM
Resolution: 4
Origin: DOW CHEMICAL COMPANY
MICROMETERS	TRANSMITTANCE
2.027	0.897
2.06808	0.897
2.10915	0.899
2.15023	0.901
2.19131	0.901
2.23238	0.901
2.27346	0.903
2.31453	0.904
2.35561	0.904
2.39669	0.904
2.43776	0.904
2.47884	0.904
2.51992	0.906
2.56099	0.908
2.60207	0.908
2.64314	0.908
2.68422	0.906
2.7253	0.906
2.76637	0.899
2.80745	0.889
2.84853	0.88
2.8896	0.891
2.93068	0.894
2.97176	0.901
3.01283	0.904
3.05391	0.901
3.09498	0.899
3.13606	0.891
3.17714	0.886
3.21821	0.889
3.25929	0.889
3.30037	0.897
3.34144	0.899
3.38252	0.896
3.42359	0.906
3.46467	0.908
3.50575	0.911
3.54682	0.909
3.5879	0.918
3.62898	0.921
3.67005	0.921
3.71113	0.923
3.7522	0.928
3.79328	0.921
3.83436	0.925
3.87543	0.926
3.91651	0.93
3.95759	0.928
3.99866	0.928
4.03974	0.93
4.08082	0.931
4.12189	0.925
4.16297	0.923
4.20404	0.92
4.24512	0.911
4.2862	0.904
4.32727	0.908
4.36835	0.914
4.40943	0.925
4.4505	0.935
4.49158	0.937
4.53265	0.937
4.57373	0.931
4.61481	0.926
4.65588	0.938
4.69696	0.94
4.73804	0.94
4.77911	0.937
4.82019	0.94
4.86127	0.933
4.90234	0.933
4.94342	0.931
4.98449	0.926
5.02557	0.931
5.06665	0.935
5.10772	0.928
5.1488	0.93
5.18988	0.94
5.23095	0.933
5.27203	0.933
5.3131	0.928
5.35418	0.918
5.39526	0.914
5.43633	0.897
5.47741	0.855
5.51849	0.784
5.55956	0.627
5.60064	0.355
5.64172	0.27
5.68279	0.459
5.72387	0.491
5.76494	0.639
5.80602	0.797
5.8471	0.858
5.88817	0.884
5.92925	0.908
5.97033	0.92
6.0114	0.921
6.05248	0.918
6.09355	0.909
6.13463	0.896
6.17571	0.86
6.21678	0.768
6.25786	0.676
6.29894	0.624
6.34001	0.578
6.38109	0.539
6.42216	0.471
6.46324	0.476
6.50432	0.545
6.54539	0.476
6.58647	0.455
6.62755	0.692
6.66862	0.794
6.7097	0.877
6.75078	0.886
6.79185	0.901
6.83293	0.909
6.874	0.923
6.91508	0.92
6.95616	0.913
6.99723	0.903
7.03831	0.858
7.07939	0.698
7.12046	0.801
7.16154	0.88
7.20261	0.92
7.24369	0.918
7.28477	0.909
7.32584	0.94
7.36692	0.947
7.408	0.947
7.44907	0.947
7.49015	0.943
7.53123	0.925
7.5723	0.874
7.61338	0.887
7.65445	0.904
7.69553	0.918
7.73661	0.913
7.77768	0.908
7.81876	0.918
7.85984	0.918
7.90091	0.913
7.94199	0.908
7.98306	0.897
8.02414	0.857
8.06522	0.838
8.10629	0.877
8.14737	0.877
8.18845	0.869
8.22952	0.828
8.2706	0.7
8.31168	0.474
8.35275	0.176
8.39383	0.44
8.4349	0.775
8.47598	0.799
8.51706	0.801
8.55813	0.872
8.59921	0.889
8.64029	0.892
8.68136	0.874
8.72244	0.879
8.76351	0.897
8.80459	0.911
8.84567	0.921
8.88674	0.923
8.92782	0.911
8.9689	0.918
9.00997	0.925
9.05105	0.926
9.09212	0.926
9.1332	0.925
9.17428	0.925
9.21535	0.92
9.25643	0.918
9.29751	0.918
9.33858	0.911
9.37966	0.906
9.42074	0.908
9.46181	0.908
9.50289	0.906
9.54396	0.906
9.58504	0.908
9.62612	0.909
9.66719	0.913
9.70827	0.914
9.74935	0.913
9.79042	0.897
9.8315	0.904
9.87257	0.92
9.91365	0.928
9.95473	0.928
9.9958	0.921
10.0369	0.901
10.078	0.894
10.119	0.914
10.1601	0.918
10.2012	0.913
10.2423	0.899
10.2833	0.887
10.3244	0.886
10.3655	0.909
10.4066	0.92
10.4476	0.921
10.4887	0.92
10.5298	0.914
10.5709	0.909
10.6119	0.906
10.653	0.901
10.6941	0.896
10.7352	0.887
10.7763	0.874
10.8173	0.865
10.8584	0.853
10.8995	0.835
10.9406	0.807
10.9816	0.761
11.0227	0.687
11.0638	0.612
11.1049	0.591
11.1459	0.637
11.187	0.68
11.2281	0.688
11.2692	0.668
11.3102	0.639
11.3513	0.603
11.3924	0.583
11.4335	0.539
11.4746	0.484
11.5156	0.416
11.5567	0.355
11.5978	0.302
11.6389	0.224
11.6799	0.151
11.721	0.115
11.7621	0.102
11.8032	0.096
11.8442	0.134
11.8853	0.214
11.9264	0.331
11.9675	0.426
12.0085	0.532
12.0496	0.608
12.0907	0.673
12.1318	0.727
12.1728	0.76
12.2139	0.782
12.255	0.79
12.2961	0.801
12.3372	0.801
12.3782	0.802
12.4193	0.809
12.4604	0.812
12.5015	0.818
12.5425	0.818
12.5836	0.819
12.6247	0.824
12.6658	0.826
12.7068	0.828
12.7479	0.831
12.789	0.835
12.8301	0.838
12.8711	0.841
12.9122	0.846
12.9533	0.848
12.9944	0.85
13.0355	0.85
13.0765	0.846
13.1176	0.845
13.1587	0.845
13.1998	0.845
13.2408	0.845
13.2819	0.84
13.323	0.84
13.3641	0.836
13.4051	0.833
13.4462	0.828
13.4873	0.826
13.5284	0.821
13.5694	0.816
13.6105	0.809
13.6516	0.804
13.6927	0.799
13.7337	0.792
13.7748	0.787
13.8159	0.784
13.857	0.775
13.8981	0.768
13.9391	0.761
13.9802	0.756
14.0213	0.746
14.0624	0.738
14.1034	0.727
14.1445	0.71
14.1856	0.697
14.2267	0.653
14.2677	0.581
14.3088	0.494
14.3499	0.425
14.391	0.413
14.432	0.474
14.4731	0.544
14.5142	0.583
14.5553	0.598
14.5964	0.602
14.6374	0.602
14.6785	0.607
14.7196	0.608
14.7607	0.602
14.8017	0.598
14.8428	0.591
14.8839	0.583
14.925	0.569
14.966	0.554
15.0071	0.535
15.0482	0.498
15.0893	0.445
15.1303	0.375
15.1714	0.307
15.2125	0.263
15.2536	0.265
15.2946	0.309
15.3357	0.36
15.3768	0.401
15.4179	0.423
15.459	0.433
15.5	0.438
15.5411	0.44
15.5822	0.44
15.6233	0.438
15.6643	0.437
15.7054	0.433
15.7465	0.428
15.7876	0.425
15.8286	0.418
15.8697	0.416
