Infrared Spectrum: p-Nitrobenzylchloride
Formula: C 7 H 6 Cl N O 2
CAS: 100-14-1
State: gas
Instrument: HP-GC/MS/IRD
Origin: NIST Mass Spectrometry Data Center
1/CM	ABSORBANCE
550	0.00022
562	0.00028
574	2e-05
586	0.00027
598	0.00053
610	0.00099
622	0.00245
634	0.00208
646	0.00121
658	0.00154
670	0.00276
682	0.00506
694	0.01021
706	0.02304
718	0.03037
730	0.01864
742	0.00858
754	0.00506
766	0.00442
778	0.00439
790	0.01328
802	0.03095
814	0.02208
826	0.00917
838	0.01075
850	0.01762
862	0.01875
874	0.00512
886	0.00291
898	0.00235
910	0.00209
922	0.00172
934	0.00149
946	0.00117
958	0.00082
970	0.00056
982	0.00049
994	0.00062
1006	0.00234
1018	0.00604
1030	0.0011
1042	0.00049
1054	0.0005
1066	0.00079
1078	0.00142
1090	0.00266
1102	0.00592
1114	0.00587
1126	0.00191
1138	0.00116
1150	0.00124
1162	0.00148
1174	0.00384
1186	0.00481
1198	0.00274
1210	0.00257
1222	0.00291
1234	0.00407
1246	0.00623
1258	0.01479
1270	0.01935
1282	0.01251
1294	0.00895
1306	0.00893
1318	0.01156
1330	0.02256
1342	0.06744
1354	0.0987
1366	0.03945
1378	0.01152
1390	0.00688
1402	0.00563
1414	0.00501
1426	0.00433
1438	0.00421
1450	0.0047
1462	0.00406
1474	0.00613
1486	0.01201
1498	0.01557
1510	0.01725
1522	0.04072
1534	0.0835
1546	0.08808
1558	0.04707
1570	0.02102
1582	0.01499
1594	0.01886
1606	0.02366
1618	0.0134
1630	0.0048
1642	0.00264
1654	0.00265
1666	0.00251
1678	0.00182
1690	0.00113
1702	0.00078
1714	0.0007
1726	0.00076
1738	0.00084
1750	0.00068
1762	0.00067
1774	0.00097
1786	0.00183
1798	0.00144
1810	0.00052
1822	0.0003
1834	0.00024
1846	0.00022
1858	0.00024
1870	0.00027
1882	0.00032
1894	0.00059
1906	0.00113
1918	0.00162
1930	0.00137
1942	0.00062
1954	0.00028
1966	0.00027
1978	0.00023
1990	0.00013
2002	8e-05
2014	7e-05
2026	8e-05
2038	8e-05
2050	9e-05
2062	0.00015
2074	0.00015
2086	0.00013
2098	8e-05
2110	9e-05
2122	0.00012
2134	7e-05
2146	5e-05
2158	0
2170	1e-05
2182	3e-05
2194	9e-05
2206	0.00019
2218	0.00023
2230	0.00016
2242	7e-05
2254	9e-05
2266	0.0001
2278	0.00028
2290	0.00035
2302	0.00027
2314	0.00023
2326	0.00024
2338	0.00025
2350	0.00028
2362	0.00025
2374	0.00024
2386	0.00026
2398	0.0003
2410	0.00023
2422	0.00022
2434	0.00025
2446	0.00043
2458	0.00056
2470	0.00044
2482	0.00018
2494	0.0001
2506	0.0001
2518	0.0001
2530	9e-05
2542	7e-05
2554	5e-05
2566	5e-05
2578	0.00011
2590	0.0002
2602	0.00024
2614	0.00032
2626	0.00023
2638	0.00014
2650	0.00022
2662	0.00024
2674	0.00036
2686	0.00057
2698	0.00075
2710	0.00084
2722	0.00067
2734	0.00037
2746	0.00029
2758	0.00023
2770	0.00025
2782	0.00029
2794	0.00035
2806	0.00041
2818	0.00043
2830	0.00061
2842	0.00091
2854	0.00139
2866	0.00195
2878	0.00246
2890	0.0023
2902	0.00167
2914	0.00127
2926	0.00125
2938	0.00196
2950	0.00299
2962	0.00378
2974	0.00396
2986	0.00302
2998	0.00224
3010	0.00187
3022	0.00147
3034	0.00155
3046	0.0024
3058	0.00328
3070	0.00308
3082	0.00324
3094	0.00183
3106	0.00053
3118	0.00031
3130	0.00017
3142	9e-05
3154	0.00014
3166	0.0001
3178	6e-05
3190	0.00011
3202	0.00014
3214	0.00028
3226	0.00012
3238	8e-05
3250	8e-05
3262	3e-05
3274	5e-05
3286	0.00012
3298	6e-05
3310	0.00012
3322	7e-05
3334	4e-05
3346	4e-05
3358	8e-05
3370	7e-05
3382	8e-05
3394	2e-05
3406	6e-05
3418	0.00012
3430	8e-05
3442	4e-05
3454	5e-05
3466	8e-05
3478	4e-05
3490	3e-05
3502	5e-05
3514	0.00014
3526	9e-05
3538	7e-05
3550	7e-05
3562	3e-05
3574	9e-05
3586	5e-05
3598	0.00011
3610	0.00013
3622	0.00013
3634	0.00019
3646	0.00017
3658	0.00018
3670	0.00017
3682	0.00026
3694	0.00028
3706	0.00017
3718	0.00027
3730	0.00029
3742	0.00022
3754	0.00026
3766	0.00024
3778	0.00018
3790	0.00021
3802	0.00011
3814	0.0001
3826	8e-05
3838	0.00012
