Infrared Spectrum: BENZENE, ETHENYL-
Formula: C8 H8
CAS: 100-42-5
State: GAS (6 mmHg DILUTED TO A TOTAL PRESSURE OF 600 mmHg WITH N2)
Class: COBLENTZ
Instrument: DIGILAB FTS-14 (2 CM^-^1 RESOLUTION)
Sampling: TRANSMISSION
Path length: 75 CM
Resolution: 4
Origin: DOW CHEMICAL COMPANY
1/CM	TRANSMITTANCE
402.486	0.493
411.187	0.648
419.888	0.704
428.589	0.719
437.29	0.707
445.991	0.793
454.692	0.843
463.393	0.863
472.094	0.862
480.796	0.877
489.497	0.863
498.198	0.887
506.899	0.921
515.6	0.951
524.301	0.989
533.002	0.99
541.703	0.949
550.404	0.846
559.105	0.851
567.806	0.915
576.507	0.94
585.208	0.961
593.909	0.971
602.61	0.955
611.311	0.945
620.013	0.946
628.714	0.941
637.415	0.953
646.116	0.944
654.817	0.957
663.518	0.946
672.219	0.903
680.92	0.692
689.621	0.408
698.322	0.0021
707.023	0.357
715.724	0.631
724.425	0.835
733.126	0.884
741.827	0.891
750.528	0.865
759.23	0.745
767.931	0.469
776.632	0.152
785.333	0.429
794.034	0.604
802.735	0.79
811.436	0.84
820.137	0.861
828.838	0.848
837.539	0.853
846.24	0.847
854.941	0.835
863.642	0.844
872.343	0.855
881.044	0.863
889.745	0.812
898.447	0.605
907.148	0.41
915.849	0.308
924.55	0.469
933.251	0.731
941.952	0.838
950.653	0.839
959.354	0.814
968.055	0.764
976.756	0.691
985.457	0.601
994.158	0.427
1002.86	0.621
1011.56	0.708
1020.26	0.643
1028.96	0.669
1037.66	0.748
1046.36	0.787
1055.07	0.795
1063.77	0.804
1072.47	0.787
1081.17	0.733
1089.87	0.734
1098.57	0.755
1107.27	0.771
1115.97	0.779
1124.67	0.801
1133.38	0.808
1142.08	0.805
1150.78	0.8
1159.48	0.794
1168.18	0.786
1176.88	0.775
1185.58	0.752
1194.28	0.756
1202.98	0.742
1211.68	0.738
1220.39	0.755
1229.09	0.761
1237.79	0.771
1246.49	0.783
1255.19	0.789
1263.89	0.761
1272.59	0.791
1281.29	0.795
1289.99	0.768
1298.7	0.764
1307.4	0.794
1316.1	0.797
1324.8	0.789
1333.5	0.786
1342.2	0.775
1350.9	0.787
1359.6	0.791
1368.3	0.778
1377	0.775
1385.71	0.772
1394.41	0.76
1403.11	0.711
1411.81	0.696
1420.51	0.685
1429.21	0.67
1437.91	0.699
1446.61	0.717
1455.31	0.711
1464.02	0.688
1472.72	0.765
1481.42	0.759
1490.12	0.7099
1498.82	0.489
1507.52	0.493
1516.22	0.737
1524.92	0.7059
1533.62	0.759
1542.33	0.692
1551.03	0.746
1559.73	0.721
1568.43	0.746
1577.13	0.702
1585.83	0.703
1594.53	0.695
1603.23	0.676
1611.93	0.662
1620.63	0.614
1629.34	0.632
1638.04	0.5379
1646.74	0.568
1655.44	0.6868
1664.14	0.761
1672.84	0.727
1681.54	0.7181
1690.24	0.7031
1698.94	0.6909
1707.65	0.756
1716.35	0.764
1725.05	0.76
1733.75	0.745
1742.45	0.7299
1751.15	0.719
1759.85	0.737
1768.55	0.751
1777.25	0.6871
1785.95	0.742
1794.66	0.711
1803.36	0.699
1812.06	0.702
1820.76	0.634
1829.46	0.61
1838.16	0.699
1846.86	0.7399
1855.56	0.753
1864.26	0.736
1872.97	0.695
1881.67	0.702
1890.37	0.708
1899.07	0.718
1907.77	0.745
1916.47	0.749
1925.17	0.741
1933.87	0.726
1942.57	0.708
1951.28	0.685
1959.98	0.692
1968.68	0.707
1977.38	0.727
1986.08	0.733
1994.78	0.74
2003.48	0.742
2012.18	0.744
2020.88	0.741
2029.58	0.738
2038.29	0.736
2046.99	0.7329
2055.69	0.7331
2064.39	0.734
2073.09	0.734
2081.79	0.734
2090.49	0.734
2099.19	0.733
2107.89	0.7307
2116.6	0.729
2125.3	0.727
2134	0.726
2142.7	0.7258
2151.4	0.727
2160.1	0.729
2168.8	0.726
2177.5	0.725
2186.2	0.722
2194.9	0.719
2203.61	0.719
2212.31	0.719
2221.01	0.718
2229.71	0.718
2238.41	0.718
2247.11	0.7164
2255.81	0.714
2264.51	0.711
2273.21	0.7094
2281.92	0.707
2290.62	0.71
2299.32	0.71
2308.02	0.708
2316.72	0.706
2325.42	0.703
2334.12	0.7012
2342.82	0.6982
2351.52	0.6978
2360.22	0.6966
2368.93	0.697
2377.63	0.7
2386.33	0.706
2395.03	0.7065
2403.73	0.704
2412.43	0.702
2421.13	0.6995
2429.83	0.6965
2438.53	0.695
2447.24	0.695
2455.94	0.697
2464.64	0.699
2473.34	0.699
2482.04	0.699
2490.74	0.6954
2499.44	0.691
2508.14	0.689
2516.84	0.688
2525.55	0.6903
2534.25	0.691
2542.95	0.6926
2551.65	0.6953
2560.35	0.6937
2569.05	0.692
2577.75	0.6873
2586.45	0.684
2595.15	0.682
2603.85	0.68
2612.56	0.6807
2621.26	0.6847
2629.96	0.685
2638.66	0.685
2647.36	0.684
2656.06	0.684
2664.76	0.6802
2673.46	0.678
2682.16	0.681
2690.87	0.681
2699.57	0.682
2708.27	0.682
2716.97	0.6811
2725.67	0.6801
2734.37	0.6783
2743.07	0.677
2751.77	0.676
2760.47	0.674
2769.17	0.676
2777.88	0.677
2786.58	0.674
2795.28	0.672
2803.98	0.67
2812.68	0.665
2821.38	0.665
2830.08	0.663
2838.78	0.663
2847.48	0.665
2856.19	0.663
2864.89	0.661
2873.59	0.659
2882.29	0.655
2890.99	0.6499
2899.69	0.6459
2908.39	0.6418
2917.09	0.638
2925.79	0.636
2934.49	0.636
2943.2	0.6391
2951.9	0.644
2960.6	0.6357
2969.3	0.627
2978	0.6061
2986.7	0.5578
2995.4	0.541
3004.1	0.5362
3012.8	0.439
3021.51	0.3488
3030.21	0.3032
3038.91	0.2745
3047.61	0.3024
3056.31	0.3667
3065.01	0.2768
3073.71	0.2287
3082.41	0.2316
3091.11	0.2373
3099.82	0.2559
3108.52	0.3384
3117.22	0.508
3125.92	0.581
3134.62	0.6204
3143.32	0.623
3152.02	0.6183
3160.72	0.6194
3169.42	0.6258
3178.12	0.6356
3186.83	0.638
3195.53	0.6386
3204.23	0.6356
3212.93	0.629
3221.63	0.6296
3230.33	0.632
3239.03	0.631
3247.73	0.635
3256.43	0.6385
3265.14	0.632
3273.84	0.6385
3282.54	0.6355
3291.24	0.634
3299.94	0.6355
3308.64	0.6314
3317.34	0.6284
3326.04	0.629
3334.74	0.634
3343.44	0.628
3352.15	0.634
3360.85	0.6316
3369.55	0.635
3378.25	0.6284
3386.95	0.6234
3395.65	0.628
3404.35	0.624
3413.05	0.6163
3421.75	0.6224
3430.46	0.628
3439.16	0.6242
3447.86	0.6317
3456.56	0.6192
3465.26	0.628
3473.96	0.6155
3482.66	0.616
3491.36	0.6097
3500.06	0.608
3508.77	0.6132
3517.47	0.625
3526.17	0.6242
3534.87	0.615
3543.57	0.6025
3552.27	0.5904
3560.97	0.5853
3569.67	0.5723
3578.37	0.5733
3587.07	0.5535
3595.78	0.5977
3604.48	0.6143
3613.18	0.6089
3621.88	0.584
3630.58	0.5649
3639.28	0.5496
3647.98	0.503
3656.68	0.5305
3665.38	0.5671
3674.09	0.5369
3682.79	0.593
3691.49	0.5443
3700.19	0.5378
3708.89	0.5027
3717.59	0.4478
3726.29	0.4166
3734.99	0.3902
3743.69	0.4204
3752.39	0.4721
3761.1	0.496
3769.8	0.4832
3778.5	0.3971
3787.2	0.3531
