Infrared Spectrum: 2-Ethylpyridine
Formula: C 7 H 9 N
CAS: 100-71-0
State: gas
Instrument: HP-GC/MS/IRD
Origin: NIST Mass Spectrometry Data Center
1/CM	ABSORBANCE
550	0.0003857
562	0.0005453
574	0.0007294
586	0.0005306
598	0.0002331
610	7.35e-05
622	0.0004459
634	0.0003801
646	0.0002513
658	0.0001498
670	0.0001624
682	8.61e-05
694	0.0002597
706	0.0004963
718	0.0009898
730	0.0022694
742	0.0042294
754	0.0037394
766	0.0027146
778	0.0017311
790	0.0014147
802	0.001239
814	0.0007238
826	0.0004921
838	0.0003444
850	0.0002527
862	6.93e-05
874	0.0001162
886	0.0001463
898	0.0001078
910	0.000147
922	0.0001729
934	0.000168
946	0.0001484
958	0.0002345
970	0.0003682
982	0.000623
994	0.0007357
1006	0.0007154
1018	0.0004235
1030	0.0006293
1042	0.0009618
1054	0.0011522
1066	0.0009212
1078	0.0005607
1090	0.0002947
1102	0.0002961
1114	0.0003059
1126	0.0004235
1138	0.0008806
1150	0.0008911
1162	0.0004823
1174	0.0002772
1186	0.0002394
1198	0.0003934
1210	0.0007301
1222	0.000875
1234	0.0005586
1246	0.0003318
1258	0.0002856
1270	0.0003374
1282	0.0004088
1294	0.0004865
1306	0.0004571
1318	0.0004025
1330	0.0003108
1342	0.0003185
1354	0.0003738
1366	0.0003738
1378	0.0005026
1390	0.0005089
1402	0.0006118
1414	0.0012257
1426	0.0031612
1438	0.003822
1450	0.0027356
1462	0.003227
1474	0.0043232
1486	0.0030751
1498	0.0008624
1510	0.0004256
1522	0.0003185
1534	0.0003682
1546	0.0008295
1558	0.0019677
1570	0.0035413
1582	0.0067137
1594	0.006342
1606	0.0032123
1618	0.0010682
1630	0.0005257
1642	0.0002884
1654	0.0002415
1666	8.61e-05
1678	0.0001386
1690	0.000119
1702	0.0001757
1714	0.0001295
1726	0.0001204
1738	0.0001883
1750	0.000175
1762	0.0001834
1774	0.0001911
1786	8.33e-05
1798	0.0001106
1810	9.94e-05
1822	0.0001435
1834	0.0001414
1846	0.0002408
1858	0.0002044
1870	0.0002107
1882	0.0001204
1894	0.0001484
1906	0.0002142
1918	0.000238
1930	0.0002296
1942	0.000238
1954	0.0002548
1966	0.0001918
1978	0.0001589
1990	6.23e-05
2002	5.32e-05
2014	6.3e-05
2026	5.32e-05
2038	5.74e-05
2050	7.98e-05
2062	6.86e-05
2074	3.71e-05
2086	7.7e-06
2098	4.13e-05
2110	5.95e-05
2122	3.64e-05
2134	4.76e-05
2146	6.02e-05
2158	0.0001015
2170	6.93e-05
2182	4.41e-05
2194	7.84e-05
2206	7.91e-05
2218	0.000105
2230	7.91e-05
2242	5.95e-05
2254	8.12e-05
2266	3.92e-05
2278	6.51e-05
2290	5.6e-05
2302	4.97e-05
2314	6.3e-05
2326	4.97e-05
2338	8.26e-05
2350	2.87e-05
2362	0.0001421
2374	2.87e-05
2386	1.4e-05
2398	2.8e-06
2410	2.24e-05
2422	2.87e-05
2434	6.02e-05
2446	3.99e-05
2458	6.79e-05
2470	2.03e-05
2482	1.54e-05
2494	5.25e-05
2506	3.43e-05
2518	4.83e-05
2530	2.87e-05
2542	5.04e-05
2554	4.41e-05
2566	4.55e-05
2578	4.13e-05
2590	3.78e-05
2602	3.85e-05
2614	6.37e-05
2626	1.68e-05
2638	5.6e-05
2650	3.99e-05
2662	5.81e-05
2674	4.55e-05
2686	6.16e-05
2698	5.53e-05
2710	5.6e-05
2722	7.07e-05
2734	0.0001008
2746	6.93e-05
2758	7.28e-05
2770	0.0001225
2782	0.0001505
2794	0.0001078
2806	0.0001407
2818	0.0002443
2830	0.0003465
2842	0.0004697
2854	0.0007987
2866	0.0011858
2878	0.0018683
2890	0.0024178
2902	0.0025025
2914	0.0024668
2926	0.0028973
2938	0.0040607
2950	0.0045031
2962	0.004963
2974	0.005971
2986	0.0051205
2998	0.0034118
3010	0.0033866
3022	0.0030387
3034	0.0018753
3046	0.0016786
3058	0.0024766
3070	0.0037254
3082	0.0036022
3094	0.0019019
3106	0.0007798
3118	0.0004172
3130	0.0003857
3142	0.0003472
3154	0.0002471
3166	0.0002142
3178	0.0001862
3190	0.0001722
3202	0.0001512
3214	0.0001057
3226	7.84e-05
3238	7.7e-05
3250	3.01e-05
3262	5.18e-05
3274	7.63e-05
3286	8.89e-05
3298	2.87e-05
3310	4.48e-05
3322	5.88e-05
3334	7.07e-05
3346	3.01e-05
3358	5.32e-05
3370	9.31e-05
3382	8.82e-05
3394	6.23e-05
3406	3.29e-05
3418	5.11e-05
3430	7.28e-05
3442	9.73e-05
3454	6.37e-05
3466	7.42e-05
3478	0.0001204
3490	0.0001078
3502	0.0001113
3514	0.0001078
3526	9.24e-05
3538	5.25e-05
3550	0.0001022
3562	8.33e-05
3574	7.07e-05
3586	0.0001113
3598	9.66e-05
3610	5.6e-05
3622	8.4e-05
3634	0.0001085
3646	9.24e-05
3658	5.6e-05
3670	0.0001295
3682	7.42e-05
3694	7.21e-05
3706	6.51e-05
3718	4.27e-05
3730	1.4e-06
3742	8.33e-05
3754	9.45e-05
3766	2.8e-06
3778	8.4e-05
3790	7.28e-05
3802	4.34e-05
3814	7.14e-05
3826	3.99e-05
3838	9.45e-05
