Infrared Spectrum: N-CYCLOHEXYLSULFAMIC ACID
Formula: C6 H13 N O3 S
CAS: 100-88-9
State: SOLID (NUJOL MULL)
Class: COBLENTZ
Instrument: Not specified, most likely a prism, grating, or hybrid spectrometer.
Sampling: TRANSMISSION
Resolution: 4
MICROMETERS	TRANSMITTANCE
2.022	0.849
2.05811	0.851
2.09422	0.853
2.13033	0.855
2.16644	0.855
2.20255	0.851
2.23866	0.853
2.27477	0.853
2.31088	0.835
2.34699	0.816
2.3831	0.812
2.41921	0.821
2.45532	0.828
2.49143	0.833
2.52754	0.842
2.56365	0.851
2.59976	0.855
2.63587	0.855
2.67198	0.856
2.70809	0.86
2.7442	0.862
2.78031	0.862
2.81642	0.86
2.85253	0.856
2.88865	0.855
2.92476	0.853
2.96087	0.851
2.99698	0.851
3.03309	0.851
3.0692	0.846
3.10531	0.828
3.14142	0.77
3.17753	0.63
3.21364	0.374
3.24975	0.379
3.28586	0.468
3.32197	0.461
3.35808	0.31
3.39419	0.051
3.4303	0.005
3.46641	0.014
3.50252	0.038
3.53863	0.249
3.57474	0.616
3.61085	0.703
3.64696	0.75
3.68307	0.763
3.71918	0.77
3.75529	0.761
3.7914	0.777
3.82751	0.791
3.86362	0.798
3.89973	0.81
3.93584	0.833
3.97195	0.837
4.00806	0.848
4.04417	0.851
4.08028	0.855
4.11639	0.849
4.1525	0.849
4.18861	0.853
4.22472	0.86
4.26083	0.862
4.29694	0.851
4.33305	0.848
4.36916	0.849
4.40527	0.86
4.44138	0.876
4.47749	0.876
4.5136	0.874
4.54972	0.878
4.58583	0.879
4.62194	0.876
4.65805	0.881
4.69416	0.883
4.73027	0.885
4.76638	0.886
4.80249	0.883
4.8386	0.883
4.87471	0.879
4.91082	0.883
4.94693	0.883
4.98304	0.885
5.01915	0.885
5.05526	0.883
5.09137	0.885
5.12748	0.886
5.16359	0.886
5.1997	0.89
5.23581	0.89
5.27192	0.888
5.30803	0.886
5.34414	0.885
5.38025	0.886
5.41636	0.886
5.45247	0.888
5.48858	0.89
5.52469	0.888
5.5608	0.89
5.59691	0.89
5.63302	0.886
5.66913	0.885
5.70524	0.883
5.74135	0.885
5.77746	0.886
5.81357	0.881
5.84968	0.878
5.88579	0.879
5.9219	0.874
5.95801	0.867
5.99412	0.865
6.03023	0.863
6.06634	0.874
6.10245	0.863
6.13856	0.863
6.17467	0.863
6.21078	0.863
6.2469	0.862
6.28301	0.862
6.31912	0.856
6.35523	0.848
6.39134	0.835
6.42745	0.823
6.46356	0.747
6.49967	0.565
6.53578	0.441
6.57189	0.616
6.608	0.726
6.64411	0.772
6.68022	0.802
6.71633	0.796
6.75244	0.749
6.78855	0.655
6.82466	0.369
6.86077	0.238
6.89688	0.219
6.93299	0.268
6.9691	0.446
7.00521	0.628
7.04132	0.71
7.07743	0.674
7.11354	0.57
7.14965	0.54
7.18576	0.517
7.22187	0.372
7.25798	0.415
7.29409	0.353
7.3302	0.485
7.36631	0.498
7.40242	0.503
7.43853	0.556
7.47464	0.466
7.51075	0.351
7.54686	0.303
7.58297	0.374
7.61908	0.302
7.65519	0.519
7.6913	0.429
7.72741	0.388
7.76352	0.353
7.79963	0.298
7.83574	0.219
7.87185	0.208
7.90797	0.22
7.94408	0.132
7.98019	0.233
8.0163	0.174
8.05241	0.118
8.08852	0.365
8.12463	0.545
8.16074	0.568
8.19685	0.369
8.23296	0.3
8.26907	0.545
8.30518	0.634
8.34129	0.685
8.3774	0.719
8.41351	0.733
8.44962	0.729
8.48573	0.692
8.52184	0.713
8.55795	0.757
8.59406	0.766
8.63017	0.777
8.66628	0.782
8.70239	0.786
8.7385	0.796
8.77461	0.802
8.81072	0.807
8.84683	0.812
8.88294	0.814
8.91905	0.823
8.95516	0.826
8.99127	0.826
9.02738	0.832
9.06349	0.833
9.0996	0.83
9.13571	0.833
9.17182	0.798
9.20793	0.772
9.24404	0.697
9.28015	0.457
9.31626	0.496
9.35237	0.604
9.38848	0.362
9.42459	0.641
9.4607	0.712
9.49681	0.667
9.53292	0.703
9.56903	0.763
9.60515	0.765
9.64126	0.715
9.67737	0.68
9.71348	0.703
9.74959	0.676
9.7857	0.648
9.82181	0.62
9.85792	0.651
9.89403	0.749
9.93014	0.789
9.96625	0.81
10.0024	0.819
10.0385	0.83
10.0746	0.835
10.1107	0.835
10.1468	0.837
10.1829	0.837
10.219	0.839
10.2551	0.835
10.2912	0.833
10.3273	0.833
10.3635	0.832
10.3996	0.83
10.4357	0.832
10.4718	0.83
10.5079	0.832
10.544	0.821
10.5801	0.814
10.6162	0.802
10.6523	0.768
10.6885	0.706
10.7246	0.729
10.7607	0.765
10.7968	0.772
10.8329	0.795
10.869	0.802
10.9051	0.77
10.9412	0.69
10.9773	0.637
11.0134	0.71
11.0496	0.789
11.0857	0.803
11.1218	0.766
11.1579	0.692
11.194	0.756
11.2301	0.812
11.2662	0.833
11.3023	0.84
11.3384	0.842
11.3745	0.851
11.4107	0.856
11.4468	0.856
11.4829	0.853
11.519	0.855
11.5551	0.853
11.5912	0.855
11.6273	0.855
11.6634	0.855
11.6995	0.855
11.7356	0.844
11.7718	0.839
11.8079	0.823
11.844	0.759
11.8801	0.694
11.9162	0.708
11.9523	0.673
11.9884	0.628
12.0245	0.579
12.0606	0.641
12.0968	0.759
12.1329	0.802
12.169	0.819
12.2051	0.832
12.2412	0.835
12.2773	0.842
12.3134	0.842
12.3495	0.848
12.3856	0.853
12.4217	0.853
12.4579	0.855
12.494	0.856
12.5301	0.853
12.5662	0.849
12.6023	0.849
12.6384	0.842
12.6745	0.835
12.7106	0.802
12.7467	0.75
12.7828	0.733
12.819	0.759
12.8551	0.787
12.8912	0.809
12.9273	0.816
12.9634	0.821
12.9995	0.823
13.0356	0.818
13.0717	0.818
13.1078	0.821
13.1439	0.821
13.1801	0.819
13.2162	0.818
13.2523	0.814
13.2884	0.812
13.3245	0.805
13.3606	0.8
13.3967	0.8
13.4328	0.789
13.4689	0.784
13.505	0.77
13.5412	0.766
13.5773	0.759
13.6134	0.75
13.6495	0.74
13.6856	0.722
13.7217	0.717
13.7578	0.699
13.7939	0.685
13.83	0.667
13.8662	0.651
13.9023	0.641
13.9384	0.625
13.9745	0.595
14.0106	0.54
14.0467	0.473
14.0828	0.381
14.1189	0.314
14.155	0.272
14.1911	0.27
14.2273	0.303
14.2634	0.374
14.2995	0.418
14.3356	0.443
14.3717	0.459
14.4078	0.461
14.4439	0.461
14.48	0.452
14.5161	0.469
14.5522	0.489
14.5884	0.522
14.6245	0.565
14.6606	0.606
14.6967	0.616
14.7328	0.637
14.7689	0.651
14.805	0.657
14.8411	0.659
14.8772	0.66
14.9133	0.659
14.9495	0.662
14.9856	0.66
15.0217	0.657
15.0578	0.651
15.0939	0.653
15.13	0.657
15.1661	0.655
15.2022	0.651
15.2383	0.651
15.2744	0.648
15.3106	0.648
15.3467	0.648
15.3828	0.643
15.4189	0.634
15.455	0.63
