Infrared Spectrum: p-N,N-Dimethylaminobenzaldehyde
Formula: C 9 H 11 N O
CAS: 100-10-7
State: gas
Instrument: HP-GC/MS/IRD
Origin: NIST Mass Spectrometry Data Center
1/CM	ABSORBANCE
550	0.0003357
562	0.000198
574	8.01e-05
586	0.0004905
598	0.0005688
610	0.0001242
622	9.36e-05
634	0.000108
646	0.0001035
658	8.1e-05
670	1.44e-05
682	3.96e-05
694	0.0001197
706	0.0001125
718	0.0004752
730	0.0006012
742	0.0002295
754	6.75e-05
766	0.0001332
778	0.0002304
790	0.0003987
802	0.0008703
814	0.0015111
826	0.0014337
838	0.0009981
850	0.0006039
862	0.0002439
874	0.0001737
886	0.0001476
898	0.0001683
910	0.0001449
922	0.0002241
934	0.0005715
946	0.0009405
958	0.0003924
970	0.000198
982	0.0001854
994	0.0003195
1006	0.0003528
1018	0.0003051
1030	0.0002781
1042	0.0003717
1054	0.0005175
1066	0.0005229
1078	0.0005643
1090	0.0004554
1102	0.0005445
1114	0.0006237
1126	0.000954
1138	0.0014814
1150	0.0033651
1162	0.0065988
1174	0.004545
1186	0.0012798
1198	0.0008775
1210	0.0010917
1222	0.0016767
1234	0.0015147
1246	0.0007191
1258	0.000468
1270	0.0004536
1282	0.0004887
1294	0.0008163
1306	0.0013662
1318	0.0014724
1330	0.0013068
1342	0.0022266
1354	0.004014
1366	0.003276
1378	0.0014022
1390	0.000945
1402	0.0006768
1414	0.0006669
1426	0.0008352
1438	0.0009234
1450	0.000801
1462	0.0006399
1474	0.0006669
1486	0.0007677
1498	0.0008991
1510	0.0017892
1522	0.0030312
1534	0.0020799
1546	0.0011367
1558	0.0016983
1570	0.0023553
1582	0.0032823
1594	0.0067878
1606	0.009
1618	0.005004
1630	0.0015444
1642	0.0008649
1654	0.0007578
1666	0.0008928
1678	0.0010944
1690	0.0016776
1702	0.0050868
1714	0.0077499
1726	0.0022707
1738	0.0005643
1750	0.000216
1762	0.0001827
1774	0.0001395
1786	0.000144
1798	0.0001089
1810	8.91e-05
1822	8.91e-05
1834	9.18e-05
1846	6.66e-05
1858	0.0001116
1870	0.0001296
1882	0.0001485
1894	0.0001359
1906	0.0001278
1918	8.91e-05
1930	9.81e-05
1942	9.09e-05
1954	9.99e-05
1966	8.73e-05
1978	9.54e-05
1990	7.29e-05
2002	0.0001044
2014	8.55e-05
2026	3.69e-05
2038	3.69e-05
2050	5.85e-05
2062	5.85e-05
2074	6.21e-05
2086	7.56e-05
2098	6.3e-05
2110	5.04e-05
2122	4.95e-05
2134	1.53e-05
2146	1.8e-05
2158	4.14e-05
2170	4.77e-05
2182	4.5e-05
2194	1.98e-05
2206	3.78e-05
2218	2.79e-05
2230	3.24e-05
2242	1.89e-05
2254	1.44e-05
2266	2.07e-05
2278	2.97e-05
2290	2.88e-05
2302	2.34e-05
2314	3.24e-05
2326	3.42e-05
2338	3.33e-05
2350	3.51e-05
2362	5.67e-05
2374	5.04e-05
2386	3.78e-05
2398	3.24e-05
2410	3.69e-05
2422	6.66e-05
2434	8.73e-05
2446	4.41e-05
2458	8.64e-05
2470	3.87e-05
2482	3.69e-05
2494	6.21e-05
2506	9.27e-05
2518	0.0001386
2530	0.0001125
2542	0.000117
2554	9.09e-05
2566	0.0001215
2578	0.000117
2590	0.0001062
2602	0.0001341
2614	0.000189
2626	0.0001431
2638	0.0001539
2650	0.0002007
2662	0.000171
2674	0.0002223
2686	0.0004761
2698	0.0007668
2710	0.0010755
2722	0.0015795
2734	0.0012609
2746	0.0006579
2758	0.000423
2770	0.0005715
2782	0.0008613
2794	0.0013797
2806	0.0017937
2818	0.0017748
2830	0.0012618
2842	0.0009333
2854	0.0010044
2866	0.0011223
2878	0.0011376
2890	0.0011115
2902	0.0011646
2914	0.001098
2926	0.0011601
2938	0.0012375
2950	0.0011844
2962	0.0010035
2974	0.0008514
2986	0.0007614
2998	0.0007839
3010	0.0006273
3022	0.0005841
3034	0.0005238
3046	0.0004509
3058	0.000315
3070	0.0002844
3082	0.0004113
3094	0.0004311
3106	0.0003726
3118	0.0003123
3130	0.0001323
3142	0.0001197
3154	0.000135
3166	6.39e-05
3178	3.6e-05
3190	0.0001224
3202	0.0001278
3214	9.9e-05
3226	4.95e-05
3238	9.63e-05
3250	7.65e-05
3262	8.28e-05
3274	5.4e-05
3286	0.0001053
3298	0.000108
3310	7.11e-05
3322	0.0001062
3334	0.0001557
3346	5.49e-05
3358	0.0001008
3370	0.0001575
3382	0.0001053
3394	0.0001881
3406	0.0002232
3418	0.0002223
3430	8.46e-05
3442	8.46e-05
3454	8.55e-05
3466	0.0001098
3478	8.28e-05
3490	0.0001017
3502	0.0001224
3514	7.56e-05
3526	6.12e-05
3538	0.0001071
3550	0.0001053
3562	0.0001215
3574	4.5e-05
3586	9.36e-05
3598	0.0001386
3610	0.0001269
3622	7.92e-05
3634	0.0001314
3646	0.0001008
3658	0.0001296
3670	0.0001008
3682	9e-05
3694	8.1e-05
3706	7.38e-05
3718	0.000171
3730	3.87e-05
3742	0.0001188
3754	8.64e-05
3766	0.0001845
3778	0.0001737
3790	0.0001161
3802	4.59e-05
3814	8.55e-05
3826	4.77e-05
3838	0.0001395
