Infrared Spectrum: Benzylbromide
Formula: C 7 H 7 Br
CAS: 100-39-0
State: gas
Instrument: HP-GC/MS/IRD
Origin: NIST Mass Spectrometry Data Center
1/CM	ABSORBANCE
550	0.0047016
562	0.0030384
574	0.0016584
586	0.0034632
598	0.0085056
610	0.0182184
622	0.0179712
634	0.009756
646	0.0059832
658	0.0055656
670	0.0080808
682	0.0164952
694	0.024
706	0.0141528
718	0.006708
730	0.0063024
742	0.0088416
754	0.009552
766	0.0054288
778	0.0020664
790	0.0015936
802	0.0030216
814	0.0030768
826	0.0006528
838	0.0004752
850	0.0006648
862	0.0004872
874	0.0003072
886	0.0002568
898	0.0004896
910	0.0007344
922	0.0005664
934	0.0001776
946	2.88e-05
958	7.2e-06
970	0.0001224
982	0.0002544
994	0.0003816
1006	0.0004488
1018	0.0009288
1030	0.002064
1042	0.0010008
1054	0.0015984
1066	0.0022968
1078	0.0017688
1090	0.0009504
1102	0.0007848
1114	0.0003744
1126	0.0004128
1138	0.0004656
1150	0.0007776
1162	0.0010056
1174	0.0013824
1186	0.0032712
1198	0.0070752
1210	0.0125184
1222	0.0209112
1234	0.0148824
1246	0.0051912
1258	0.0017712
1270	0.0012216
1282	0.0011232
1294	0.000924
1306	0.0006696
1318	0.0006528
1330	0.0007752
1342	0.0006888
1354	0.0004536
1366	0.0004008
1378	0.0003264
1390	0.0002424
1402	0.0002928
1414	0.0008328
1426	0.0019536
1438	0.0036072
1450	0.005196
1462	0.0042072
1474	0.0022632
1486	0.0035064
1498	0.0057432
1510	0.0019632
1522	0.0007512
1534	0.0005784
1546	0.0005328
1558	0.0005568
1570	0.0005928
1582	0.0008928
1594	0.0013248
1606	0.00138
1618	0.0007104
1630	0.0003072
1642	0.000348
1654	0.000504
1666	0.0005544
1678	0.0002832
1690	0.0001176
1702	0.0001632
1714	0.0002736
1726	0.0004464
1738	0.0005928
1750	0.0006072
1762	0.0005592
1774	0.0007224
1786	0.0012384
1798	0.0013008
1810	0.0006696
1822	0.000432
1834	0.0003504
1846	0.0004128
1858	0.000624
1870	0.0009144
1882	0.0009744
1894	0.0008256
1906	0.0004752
1918	0.0005208
1930	0.000912
1942	0.001188
1954	0.0014208
1966	0.0008064
1978	0.0002592
1990	0.0002688
2002	0.000204
2014	0.000132
2026	0.0001224
2038	8.88e-05
2050	4.8e-05
2062	6.96e-05
2074	5.28e-05
2086	6e-05
2098	3.84e-05
2110	9.6e-06
2122	0
2134	3.12e-05
2146	5.52e-05
2158	5.04e-05
2170	2.16e-05
2182	5.52e-05
2194	6.48e-05
2206	0.000108
2218	0.000132
2230	0.0001104
2242	0.000132
2254	0.0001872
2266	0.000216
2278	0.0002232
2290	0.0002616
2302	0.000288
2314	0.0003624
2326	0.000312
2338	0.0002616
2350	0.0002424
2362	0.0001368
2374	0.0001488
2386	0.0001584
2398	0.0002088
2410	0.0002808
2422	0.0001992
2434	9.6e-05
2446	8.4e-05
2458	8.64e-05
2470	5.52e-05
2482	4.56e-05
2494	4.56e-05
2506	4.8e-05
2518	8.16e-05
2530	4.56e-05
2542	5.76e-05
2554	5.28e-05
2566	5.76e-05
2578	8.64e-05
2590	0.0001008
2602	0.0001608
2614	0.0001464
2626	0.00024
2638	0.0002952
2650	0.0002808
2662	0.0002232
2674	0.0001296
2686	8.16e-05
2698	6.96e-05
2710	4.8e-05
2722	6e-05
2734	4.56e-05
2746	1.92e-05
2758	0
2770	7.44e-05
2782	0.000132
2794	0.0001608
2806	0.0002016
2818	0.0002448
2830	0.0003144
2842	0.0004248
2854	0.0004752
2866	0.000588
2878	0.0005952
2890	0.0006336
2902	0.000552
2914	0.0005256
2926	0.0005976
2938	0.000864
2950	0.0014088
2962	0.00258
2974	0.0041952
2986	0.0040392
2998	0.002856
3010	0.0036144
3022	0.0069264
3034	0.0122832
3046	0.0117648
3058	0.0089736
3070	0.0139656
3082	0.0127704
3094	0.0077376
3106	0.005196
3118	0.0026616
3130	0.0008736
3142	0.000372
3154	0.0003504
3166	0.0002808
3178	0.000288
3190	0.0001368
3202	0.0001296
3214	0.0001464
3226	0.000168
3238	9.84e-05
3250	0.0001248
3262	8.64e-05
3274	0.0001176
3286	3.6e-05
3298	7.68e-05
3310	9.12e-05
3322	0.000108
3334	0.0001272
3346	0.0001464
3358	0.0001752
3370	0.0001008
3382	9.12e-05
3394	7.68e-05
3406	0.0001464
3418	0.0001872
3430	9.84e-05
3442	0.000108
3454	9.84e-05
3466	0.0001752
3478	0.0001152
3490	0.0001416
3502	0.0001464
3514	0.0001248
3526	0.0001128
3538	0.0001872
3550	0.000156
3562	0.0001704
3574	0.0001872
3586	0.0001944
3598	0.0001968
3610	0.0002712
3622	0.0003
3634	0.0003312
3646	0.0002832
3658	0.0003192
3670	0.00024
3682	0.0003024
3694	0.000204
3706	0.0002232
3718	0.0002736
3730	0.0002232
3742	0.0002184
3754	0.0001896
3766	0.000168
3778	0.00018
3790	0.000204
3802	0.000252
3814	0.0001848
3826	0.0002688
3838	0.0002616
