Infrared Spectrum: p-(p-TOLYLSULFONYLAMIDO-)DIPHENYLAMINE
Formula: C19 H18 N2 O2 S
CAS: 100-93-6
State: SOLID (OIL MULL)
Class: COBLENTZ
Instrument: BAIRD (PRISM)
Instrument parameters: NaCl PRISM
Sampling: TRANSMISSION
Path length: CAPILLARY
Resolution: 2
Origin: WYANDOTTE CHEMICALS CORP.
MICROMETERS	TRANSMITTANCE
2.039	0.121
2.07822	0.121
2.11743	0.122
2.15665	0.123
2.19587	0.128
2.23508	0.138
2.2743	0.144
2.31352	0.14
2.35273	0.146
2.39195	0.152
2.43117	0.154
2.47039	0.157
2.5096	0.168
2.54882	0.169
2.58804	0.184
2.62725	0.19
2.66647	0.196
2.70569	0.2
2.7449	0.211
2.78412	0.227
2.82334	0.239
2.86255	0.248
2.90177	0.259
2.94099	0.27
2.9802	0.21
3.01942	0.234
3.05864	0.21
3.09786	0.099
3.13707	0.163
3.17629	0.201
3.21551	0.216
3.25472	0.21
3.29394	0.165
3.33316	0.118
3.37237	0.02
3.41159	0.015
3.45081	0.02
3.49002	0.036
3.52924	0.149
3.56846	0.426
3.60767	0.459
3.64689	0.471
3.68611	0.468
3.72533	0.465
3.76454	0.469
3.80376	0.485
3.84298	0.498
3.88219	0.508
3.92141	0.509
3.96063	0.515
3.99984	0.54
4.03906	0.55
4.07828	0.557
4.11749	0.575
4.15671	0.581
4.19593	0.586
4.23514	0.585
4.27436	0.579
4.31358	0.592
4.3528	0.606
4.39201	0.629
4.43123	0.636
4.47045	0.652
4.50966	0.661
4.54888	0.666
4.5881	0.677
4.62731	0.689
4.66653	0.7
4.70575	0.706
4.74496	0.722
4.78418	0.729
4.8234	0.735
4.86261	0.745
4.90183	0.754
4.94105	0.761
4.98027	0.768
5.01948	0.778
5.0587	0.786
5.09792	0.801
5.13713	0.808
5.17635	0.81
5.21557	0.812
5.25478	0.816
5.294	0.831
5.33322	0.832
5.37243	0.842
5.41165	0.859
5.45087	0.844
5.49008	0.88
5.5293	0.898
5.56852	0.892
5.60774	0.904
5.64695	0.914
5.68617	0.926
5.72539	0.925
5.7646	0.933
5.80382	0.942
5.84304	0.955
5.88225	0.968
5.92147	0.953
5.96069	0.971
5.9999	0.973
6.03912	0.946
6.07834	0.977
6.11755	0.848
6.15677	0.481
6.19599	0.25
6.23521	0.189
6.27442	0.524
6.31364	0.765
6.35286	0.854
6.39207	0.883
6.43129	0.853
6.47051	0.54
6.50972	0.222
6.54894	0.119
6.58816	0.163
6.62737	0.233
6.66659	0.075
6.70581	0.289
6.74502	0.257
6.78424	0.151
6.82346	0.146
6.86268	0.239
6.90189	0.372
6.94111	0.559
6.98033	0.647
7.01954	0.54
7.05876	0.279
7.09798	0.553
7.13719	0.542
7.17641	0.323
7.21563	0.289
7.25484	0.273
7.29406	0.535
7.33328	0.698
7.37249	0.704
7.41171	0.5
7.45093	0.353
7.49015	0.244
7.52936	0.099
7.56858	0.059
7.6078	0.085
7.64701	0.18
7.68623	0.364
7.72545	0.366
7.76466	0.27
7.80388	0.392
7.8431	0.572
7.88231	0.662
7.92153	0.728
7.96075	0.735
7.99996	0.497
8.03918	0.584
8.0784	0.713
8.11762	0.726
8.15683	0.628
8.19605	0.457
8.23527	0.644
8.27448	0.759
8.3137	0.848
8.35292	0.888
8.39213	0.888
8.43135	0.679
8.47057	0.705
8.50978	0.575
8.549	0.475
8.58822	0.114
8.62743	0.056
8.66665	0.075
8.70587	0.266
8.74509	0.433
8.7843	0.544
8.82352	0.623
8.86274	0.678
8.90195	0.651
8.94117	0.528
8.98039	0.638
9.0196	0.663
9.05882	0.712
9.09804	0.59
9.13725	0.257
9.17647	0.338
9.21569	0.553
9.2549	0.636
9.29412	0.712
9.33334	0.756
9.37256	0.789
9.41177	0.83
9.45099	0.85
9.49021	0.859
9.52942	0.869
9.56864	0.847
9.60786	0.832
9.64707	0.812
9.68629	0.806
9.72551	0.843
9.76472	0.788
9.80394	0.729
9.84316	0.83
9.88237	0.87
9.92159	0.93
9.96081	0.932
10	0.948
10.0392	0.955
10.0785	0.96
10.1177	0.965
10.1569	0.969
10.1961	0.964
10.2353	0.932
10.2745	0.937
10.3138	0.957
10.353	0.969
10.3922	0.975
10.4314	0.98
10.4706	0.979
10.5098	0.952
10.5491	0.924
10.5883	0.929
10.6275	0.964
10.6667	0.982
10.7059	0.976
10.7451	0.952
10.7844	0.856
10.8236	0.699
10.8628	0.88
10.902	0.908
10.9412	0.881
10.9804	0.828
11.0197	0.7
11.0589	0.551
11.0981	0.515
11.1373	0.623
11.1765	0.484
11.2157	0.421
11.255	0.575
11.2942	0.68
11.3334	0.732
11.3726	0.737
11.4118	0.822
11.451	0.875
11.4903	0.91
11.5295	0.932
11.5687	0.951
11.6079	0.96
11.6471	0.963
11.6864	0.96
11.7256	0.937
11.7648	0.88
11.804	0.792
11.8432	0.777
11.8824	0.751
11.9217	0.628
11.9609	0.579
12.0001	0.64
12.0393	0.734
12.0785	0.784
12.1177	0.782
12.157	0.74
12.1962	0.718
12.2354	0.727
12.2746	0.618
12.3138	0.359
12.353	0.314
12.3923	0.493
12.4315	0.668
12.4707	0.711
12.5099	0.685
12.5491	0.634
12.5883	0.611
12.6276	0.605
12.6668	0.612
12.706	0.674
12.7452	0.76
12.7844	0.82
12.8236	0.863
12.8629	0.9
12.9021	0.926
12.9413	0.951
12.9805	0.968
13.0197	0.977
13.0589	0.986
13.0982	0.992
13.1374	0.992
13.1766	0.987
13.2158	0.964
13.255	0.92
13.2942	0.881
13.3335	0.727
13.3727	0.512
13.4119	0.305
13.4511	0.392
13.4903	0.638
13.5295	0.766
13.5688	0.837
13.608	0.855
13.6472	0.864
13.6864	0.865
13.7256	0.853
13.7648	0.838
13.8041	0.81
13.8433	0.742
13.8825	0.644
13.9217	0.418
13.9609	0.253
14.0001	0.303
14.0394	0.507
14.0786	0.64
14.1178	0.7
14.157	0.704
14.1962	0.678
14.2354	0.625
14.2747	0.603
14.3139	0.601
14.3531	0.591
14.3923	0.535
14.4315	0.437
14.4707	0.33
14.51	0.234
14.5492	0.189
14.5884	0.193
14.6276	0.2
14.6668	0.209
14.706	0.218
14.7453	0.231
14.7845	0.254
14.8237	0.294
14.8629	0.336
14.9021	0.377
14.9414	0.419
14.9806	0.447
15.0198	0.462
15.059	0.5
15.0982	0.555
15.1374	0.591
15.1767	0.618
15.2159	0.643
15.2551	0.66
15.2943	0.663
15.3335	0.666
15.3727	0.665
15.412	0.65
15.4512	0.628
15.4904	0.616
15.5296	0.616
15.5688	0.618
15.608	0.632
15.6473	0.632
15.6865	0.627
15.7257	0.588
15.7649	0.561
15.8041	0.533
15.8433	0.509
15.8826	0.492
15.9218	0.476
15.961	0.466
