Infrared Spectrum: Cyclohexanone oxime
Formula: C 6 H 11 N O
CAS: 100-64-1
State: gas
Instrument: HP-GC/MS/IRD
Origin: NIST Mass Spectrometry Data Center
1/CM	ABSORBANCE
550	0.001378
562	0.001094
574	0.00057
586	0.000462
598	0.0004
610	0.00054
622	0.00071
634	0.000762
646	0.000838
658	0.000752
670	0.000802
682	0.00076
694	0.00072
706	0.000696
718	0.00065
730	0.000618
742	0.00063
754	0.000522
766	0.00038
778	0.000284
790	0.000202
802	0.0002
814	0.000344
826	0.000874
838	0.001024
850	0.0009
862	0.001414
874	0.004424
886	0.007632
898	0.006584
910	0.00396
922	0.005856
934	0.005594
946	0.003078
958	0.00108
970	0.001208
982	0.00218
994	0.001882
1006	0.000546
1018	0.000194
1030	8.8e-05
1042	4.2e-05
1054	2.2e-05
1066	0.000128
1078	0.000238
1090	0.00045
1102	0.000698
1114	0.000608
1126	0.000484
1138	0.000398
1150	0.000294
1162	0.00016
1174	0.0001
1186	0.000208
1198	0.000458
1210	0.001786
1222	0.00265
1234	0.00327
1246	0.002818
1258	0.001462
1270	0.00065
1282	0.000522
1294	0.000916
1306	0.002054
1318	0.002844
1330	0.002388
1342	0.001498
1354	0.00181
1366	0.002206
1378	0.001588
1390	0.000556
1402	0.000342
1414	0.000512
1426	0.001156
1438	0.002136
1450	0.00266
1462	0.001808
1474	0.000848
1486	0.000324
1498	0.000134
1510	9e-05
1522	5.6e-05
1534	3.2e-05
1546	2e-05
1558	1.6e-05
1570	0
1582	1.8e-05
1594	4.4e-05
1606	7e-05
1618	0.000106
1630	0.00022
1642	0.000466
1654	0.000656
1666	0.00053
1678	0.000274
1690	0.000344
1702	0.000672
1714	0.00078
1726	0.000478
1738	0.000152
1750	9e-05
1762	0.000108
1774	9.6e-05
1786	6.2e-05
1798	6.6e-05
1810	7e-05
1822	7.4e-05
1834	6.4e-05
1846	7e-05
1858	3.8e-05
1870	2.4e-05
1882	1e-05
1894	1.4e-05
1906	2.2e-05
1918	3.4e-05
1930	2.8e-05
1942	3.4e-05
1954	3.2e-05
1966	3.2e-05
1978	2e-05
1990	3e-05
2002	3.4e-05
2014	4e-05
2026	2.8e-05
2038	1e-05
2050	1.4e-05
2062	2.8e-05
2074	3.6e-05
2086	3.6e-05
2098	3.8e-05
2110	3.6e-05
2122	2.4e-05
2134	3.6e-05
2146	5.8e-05
2158	7.4e-05
2170	6.8e-05
2182	7.4e-05
2194	7e-05
2206	6.8e-05
2218	4.2e-05
2230	4.6e-05
2242	7.4e-05
2254	5.8e-05
2266	7.2e-05
2278	8.2e-05
2290	0.000104
2302	0.00014
2314	0.000144
2326	0.000196
2338	0.000182
2350	0.000156
2362	0.000214
2374	0.000156
2386	5.2e-05
2398	4.4e-05
2410	4.8e-05
2422	3.8e-05
2434	3.4e-05
2446	4.8e-05
2458	5.6e-05
2470	5.4e-05
2482	5.2e-05
2494	3.6e-05
2506	2.4e-05
2518	4e-05
2530	8e-05
2542	0.00011
2554	0.000116
2566	0.00013
2578	0.000158
2590	0.000154
2602	0.000224
2614	0.000198
2626	0.000226
2638	0.000252
2650	0.000256
2662	0.000302
2674	0.00031
2686	0.000266
2698	0.000202
2710	0.000152
2722	0.00016
2734	0.000184
2746	0.0002
2758	0.000194
2770	0.00023
2782	0.000318
2794	0.000364
2806	0.000384
2818	0.000494
2830	0.000844
2842	0.001758
2854	0.004138
2866	0.005964
2878	0.005428
2890	0.004138
2902	0.004102
2914	0.005334
2926	0.01049
2938	0.019292
2950	0.017294
2962	0.009428
2974	0.003894
2986	0.002036
2998	0.00132
3010	0.000916
3022	0.000484
3034	0.000294
3046	0.00023
3058	0.000172
3070	0.000188
3082	0.000166
3094	0.000136
3106	9.2e-05
3118	0.000124
3130	7.6e-05
3142	8.6e-05
3154	6.6e-05
3166	6.2e-05
3178	3.4e-05
3190	8.4e-05
3202	9.8e-05
3214	7e-05
3226	7.8e-05
3238	9.2e-05
3250	8.2e-05
3262	0.00014
3274	0.000198
3286	0.000164
3298	0.000164
3310	0.000118
3322	0.000118
3334	0.000142
3346	9.4e-05
3358	9.6e-05
3370	9e-05
3382	7.6e-05
3394	6e-05
3406	9.8e-05
3418	0.00011
3430	0.000122
3442	0.00013
3454	0.000138
3466	9e-05
3478	1.8e-05
3490	6.4e-05
3502	2.6e-05
3514	6e-05
3526	9.8e-05
3538	6.6e-05
3550	3.4e-05
3562	0.00013
3574	0.000158
3586	0.000196
3598	0.000236
3610	0.000424
3622	0.00111
3634	0.00464
3646	0.008644
3658	0.006638
3670	0.00133
3682	0.00034
3694	0.000192
3706	0.00017
3718	0.000126
3730	0.000122
3742	0.000136
3754	8.2e-05
3766	7.4e-05
3778	6e-05
3790	9.8e-05
3802	6.4e-05
3814	8.6e-05
3826	5.8e-05
3838	0.00013
