Infrared Spectrum: p-Nitroaniline
Formula: C 6 H 6 N 2 O 2
CAS: 100-01-6
State: gas
Origin: EPA-IR VAPOR PHASE LIBRARY
1/CM	ABSORBANCE
551.7	0.00505
563.274	0.00599
574.848	0.00691
586.421	0.00792
597.995	0.01035
609.569	0.01266
621.143	0.01806
632.717	0.01443
644.291	0.00667
655.864	0.00768
667.438	0.01174
679.012	0.02084
690.586	0.02101
702.16	0.01209
713.734	0.00934
725.307	0.0111
736.881	0.01535
748.455	0.01619
760.029	0.01117
771.603	0.00752
783.177	0.00608
794.75	0.00497
806.324	0.00704
817.898	0.01452
829.472	0.0223
841.046	0.02692
852.619	0.02556
864.193	0.01929
875.767	0.0056
887.341	0.00301
898.915	0.00264
910.489	0.00235
922.062	0.00222
933.636	0.00282
945.21	0.00369
956.784	0.00362
968.358	0.00292
979.932	0.00235
991.505	0.00198
1003.08	0.00202
1014.65	0.00202
1026.23	0.00167
1037.8	0.00163
1049.37	0.00222
1060.95	0.00284
1072.52	0.00328
1084.1	0.00363
1095.67	0.00696
1107.24	0.02104
1118.82	0.02067
1130.39	0.00612
1141.97	0.00333
1153.54	0.00295
1165.11	0.00716
1176.69	0.01546
1188.26	0.01039
1199.83	0.00274
1211.41	0.00218
1222.98	0.0023
1234.56	0.00302
1246.13	0.00446
1257.7	0.0062
1269.28	0.01393
1280.85	0.03827
1292.42	0.04867
1304	0.02644
1315.57	0.01343
1327.15	0.02634
1338.72	0.09875
1350.29	0.12766
1361.87	0.04415
1373.44	0.01985
1385.02	0.00731
1396.59	0.00332
1408.16	0.00238
1419.74	0.00261
1431.31	0.00368
1442.88	0.00469
1454.46	0.00736
1466.03	0.01196
1477.61	0.01117
1489.18	0.01828
1500.75	0.03649
1512.33	0.04532
1523.9	0.07033
1535.48	0.07563
1547.05	0.0476
1558.62	0.01885
1570.2	0.01422
1581.77	0.02199
1593.34	0.05001
1604.92	0.06913
1616.49	0.06458
1628.07	0.06881
1639.64	0.03264
1651.21	0.01162
1662.79	0.00701
1674.36	0.00468
1685.93	0.0032
1697.51	0.00331
1709.08	0.00319
1720.66	0.00282
1732.23	0.00266
1743.8	0.00242
1755.38	0.00197
1766.95	0.00133
1778.53	0.0008646
1790.1	0.0007789
1801.67	0.000749
1813.25	0.0007744
1824.82	0.0007927
1836.39	0.0007374
1847.97	0.0007934
1859.54	0.0009165
1871.12	0.00116
1882.69	0.00165
1894.26	0.00228
1905.84	0.0022
1917.41	0.00148
1928.99	0.0008873
1940.56	0.0008269
1952.13	0.00106
1963.71	0.00138
1975.28	0.00143
1986.85	0.00105
1998.43	0.0008536
2010	0.0009494
2021.58	0.00105
2033.15	0.0009446
2044.72	0.000875
2056.3	0.0008295
2067.87	0.0008338
2079.44	0.0008191
2091.02	0.0008354
2102.59	0.0008397
2114.17	0.0007058
2125.74	0.0006563
2137.31	0.0005988
2148.89	0.0005735
2160.46	0.0005701
2172.04	0.0005689
2183.61	0.0006419
2195.18	0.0007031
2206.76	0.0007697
2218.33	0.0007914
2229.9	0.0007305
2241.48	0.0006452
2253.05	0.0005707
2264.63	0.000499
2276.2	0.0005839
2287.77	0.000678
2299.35	0.0007812
2310.92	0.0008193
2322.5	0.0007513
2334.07	0.0007087
2345.64	0.0007548
2357.22	0.0007689
2368.79	0.0008802
2380.36	0.0009731
2391.94	0.0009112
2403.51	0.0009141
2415.09	0.0008735
2426.66	0.0009217
2438.23	0.00125
2449.81	0.00173
2461.38	0.00173
2472.96	0.00101
2484.53	0.000678
2496.1	0.0005756
2507.68	0.0006144
2519.25	0.0005335
2530.82	0.0004918
2542.4	0.000569
2553.97	0.0007558
2565.55	0.000856
2577.12	0.0008358
2588.69	0.0008448
2600.27	0.0009369
2611.84	0.00113
2623.41	0.00126
2634.99	0.00148
2646.56	0.00178
2658.14	0.00144
2669.71	0.0009715
2681.28	0.000875
2692.86	0.000871
2704.43	0.0009064
2716.01	0.0009161
2727.58	0.0007264
2739.15	0.0006739
2750.73	0.0007096
2762.3	0.0007165
2773.87	0.0006518
2785.45	0.0006906
2797.02	0.000715
2808.6	0.0007999
2820.17	0.0009007
2831.74	0.00104
2843.32	0.00132
2854.89	0.00173
2866.47	0.00206
2878.04	0.00183
2889.61	0.00138
2901.19	0.00127
2912.76	0.00155
2924.33	0.0015
2935.91	0.00157
2947.48	0.00161
2959.06	0.00129
2970.63	0.001
2982.2	0.0009146
2993.78	0.00115
3005.35	0.00149
3016.92	0.0021
3028.5	0.00341
3040.07	0.00404
3051.65	0.00519
3063.22	0.0051
3074.79	0.00424
3086.37	0.00367
3097.94	0.00157
3109.52	0.0008701
3121.09	0.0008268
3132.66	0.0006764
3144.24	0.0006132
3155.81	0.0006143
3167.38	0.0006663
3178.96	0.0008373
3190.53	0.00117
3202.11	0.00178
3213.68	0.00222
3225.25	0.0018
3236.83	0.00127
3248.4	0.00101
3259.98	0.0008569
3271.55	0.000815
3283.12	0.0007133
3294.7	0.0007565
3306.27	0.0006738
3317.84	0.0008329
3329.42	0.0008457
3340.99	0.000955
3352.57	0.00107
3364.14	0.00126
3375.71	0.00155
3387.29	0.00225
3398.86	0.00375
3410.43	0.0076
3422.01	0.01195
3433.58	0.01084
3445.16	0.00835
3456.73	0.00405
3468.3	0.002
3479.88	0.0023
3491.45	0.00313
3503.03	0.00433
3514.6	0.00476
3526.17	0.00416
3537.75	0.00346
3549.32	0.00256
3560.89	0.00132
3572.47	0.0007962
3584.04	0.0006839
3595.62	0.0005954
3607.19	0.0005379
3618.76	0.0006139
3630.34	0.0005703
3641.91	0.0005738
3653.49	0.0005786
3665.06	0.000617
3676.63	0.0007002
3688.21	0.0005767
3699.78	0.0006091
3711.35	0.0005402
3722.93	0.0007128
3734.5	0.0006507
3746.08	0.0007418
3757.65	0.0007339
3769.22	0.0006974
3780.8	0.0007175
3792.37	0.0007464
3803.94	0.0006752
3815.52	0.0007164
3827.09	0.00102
3838.67	0.00119
3850.24	0.00125
3861.81	0.00155
3873.39	0.00124
3884.96	0.0008122
3896.54	0.0008638
3908.11	0.0007527
3919.68	0.0008906
3931.26	0.0008299
3942.83	0.0009519
3954.4	0.0009083
3965.98	0.000862
3977.55	0.0007809
3989.13	0.0007057
4000.7	0.0007162
