Infrared Spectrum: 4-Cyanopyridine
Formula: C 6 H 4 N 2
CAS: 100-48-1
State: gas
Origin: EPA-IR VAPOR PHASE LIBRARY
1/CM	ABSORBANCE
549.8	0.017345
559.445	0.025035
569.09	0.011375
578.734	0.006655
588.379	0.003215
598.024	0.0014667
607.669	0.0007729
617.313	0.0007213
626.958	0.00061146
636.603	0.0005217
646.248	0.00056137
655.893	0.00056285
665.537	0.0009853
675.182	0.001725
684.827	0.002075
694.472	0.004095
704.116	0.004045
713.761	0.003075
723.406	0.003385
733.051	0.004725
742.695	0.004075
752.34	0.003755
761.985	0.009405
771.63	0.011985
781.275	0.012145
790.919	0.010635
800.564	0.017905
810.209	0.027215
819.854	0.044195
829.498	0.024395
839.143	0.014525
848.788	0.005245
858.433	0.002095
868.078	0.001595
877.722	0.0012603
887.367	0.0009093
897.012	0.0008752
906.657	0.0009274
916.301	0.0014385
925.946	0.001605
935.591	0.0014273
945.236	0.0010468
954.88	0.0014081
964.525	0.001478
974.17	0.002455
983.815	0.003865
993.46	0.003255
1003.1	0.001765
1012.75	0.0006933
1022.39	0.000702
1032.04	0.0004774
1041.68	0.000398
1051.33	0.0006703
1060.97	0.002495
1070.62	0.002935
1080.26	0.001945
1089.91	0.002125
1099.55	0.001615
1109.2	0.0014532
1118.84	0.0010698
1128.49	0.000318
1138.13	0.000246
1147.78	0.000288
1157.42	0.00065369
1167.07	0.002005
1176.71	0.003775
1186.36	0.005565
1196	0.006375
1205.64	0.007285
1215.29	0.007115
1224.93	0.005605
1234.58	0.002805
1244.22	0.0011939
1253.87	0.000357
1263.51	0.000205
1273.16	0.000179
1282.8	0.000269
1292.45	0.000252
1302.09	0.000343
1311.74	0.0006997
1321.38	0.0009202
1331.03	0.0009873
1340.67	0.0010699
1350.32	0.0009758
1359.96	0.0012078
1369.61	0.001835
1379.25	0.004185
1388.9	0.009765
1398.54	0.018365
1408.18	0.015135
1417.83	0.016075
1427.47	0.007345
1437.12	0.003695
1446.76	0.001625
1456.41	0.0010677
1466.05	0.0012547
1475.7	0.002995
1485.34	0.003715
1494.99	0.003955
1504.63	0.002135
1514.28	0.002945
1523.92	0.006105
1533.57	0.009875
1543.21	0.015905
1552.86	0.015505
1562.5	0.017965
1572.15	0.018385
1581.79	0.034355
1591.44	0.033905
1601.08	0.023395
1610.73	0.004895
1620.37	0.001965
1630.01	0.0012495
1639.66	0.0011579
1649.3	0.0012859
1658.95	0.001695
1668.59	0.002345
1678.24	0.002795
1687.88	0.002825
1697.53	0.002125
1707.17	0.0014159
1716.82	0.0013868
1726.46	0.001655
1736.11	0.001605
1745.75	0.001321
1755.4	0.0012099
1765.04	0.0014604
1774.69	0.0014957
1784.33	0.0012962
1793.98	0.0008853
1803.62	0.0009061
1813.27	0.0009259
1822.91	0.0009094
1832.55	0.0013216
1842.2	0.001585
1851.84	0.001575
1861.49	0.0011001
1871.13	0.0008348
1880.78	0.0007287
1890.42	0.0008308
1900.07	0.000977
1909.71	0.0014552
1919.36	0.002245
1929	0.003065
1938.65	0.003035
1948.29	0.002965
1957.94	0.001965
1967.58	0.0013277
1977.23	0.0009687
1986.87	0.0007749
1996.52	0.0007597
2006.16	0.0007444
2015.81	0.0006977
2025.45	0.0007258
2035.1	0.0007044
2044.74	0.0007448
2054.38	0.0007606
2064.03	0.0007619
2073.67	0.0008658
2083.32	0.000885
2092.96	0.0008257
2102.61	0.00065834
2112.25	0.0006929
2121.9	0.0007638
2131.54	0.0008581
2141.19	0.000812
2150.83	0.0007982
2160.48	0.0008776
2170.12	0.0009601
2179.77	0.000759
2189.41	0.0007252
2199.06	0.0008284
2208.7	0.0007598
2218.35	0.0009465
2227.99	0.0010166
2237.64	0.0012419
2247.28	0.0012137
2256.92	0.0008531
2266.57	0.0008374
2276.21	0.0009025
2285.86	0.0010298
2295.5	0.0010403
2305.15	0.0010534
2314.79	0.0009507
2324.44	0.0008352
2334.08	0.0008409
2343.73	0.0006951
2353.37	0.0007465
2363.02	0.0007725
2372.66	0.000979
2382.31	0.0013675
2391.95	0.0013441
2401.6	0.0011085
2411.24	0.0010079
2420.89	0.0008725
2430.53	0.000855
2440.18	0.0007639
2449.82	0.0007732
2459.47	0.000692
2469.11	0.00061569
2478.75	0.00063927
2488.4	0.0006656
2498.04	0.00063627
2507.69	0.0006958
2517.33	0.00059343
2526.98	0.0007534
2536.62	0.0008183
2546.27	0.0007457
2555.91	0.000733
2565.56	0.0006868
2575.2	0.0007771
2584.85	0.00062969
2594.49	0.0007634
2604.14	0.0007768
2613.78	0.0008146
2623.43	0.0009871
2633.07	0.0008481
2642.72	0.0009536
2652.36	0.000818
2662.01	0.0008942
2671.65	0.0008299
2681.29	0.0009205
2690.94	0.0010741
2700.58	0.0008861
2710.23	0.0008323
2719.87	0.0009985
2729.52	0.0008286
2739.16	0.0010597
2748.81	0.0009253
2758.45	0.0009008
2768.1	0.0010787
2777.74	0.0011334
2787.39	0.0010782
2797.03	0.0008451
2806.68	0.0008267
2816.32	0.0006783
2825.97	0.0008985
2835.61	0.0008474
2845.26	0.00059783
2854.9	0.0009637
2864.55	0.0010534
2874.19	0.0013414
2883.84	0.0013489
2893.48	0.0013792
2903.12	0.0011057
2912.77	0.0009756
2922.41	0.0007805
2932.06	0.0010011
2941.7	0.0011615
2951.35	0.0015325
2960.99	0.001945
2970.64	0.002175
2980.28	0.002415
2989.93	0.002305
2999.57	0.002465
3009.22	0.003055
3018.86	0.004475
3028.51	0.006575
3038.15	0.010055
3047.8	0.012885
3057.44	0.011935
3067.09	0.012875
3076.73	0.011935
3086.38	0.009255
3096.02	0.008695
3105.67	0.004275
3115.31	0.002125
3124.95	0.0011674
3134.6	0.0009182
3144.24	0.0009939
3153.89	0.0007583
3163.53	0.0008636
3173.18	0.00063595
3182.82	0.000684
3192.47	0.00061102
3202.11	0.0008008
3211.76	0.0004804
3221.4	0.0008259
3231.05	0.00059724
3240.69	0.00059169
3250.34	0.000412
3259.98	0.0005262
3269.63	0.0005017
3279.27	0.0006785
3288.92	0.0005489
3298.56	0.0005478
3308.21	0.0007205
3317.85	0.0007639
3327.49	0.0005325
3337.14	0.000718
3346.78	0.000359
3356.43	0.00059299
3366.07	0.00063379
3375.72	0.00063691
3385.36	0.00064635
3395.01	0.0005259
3404.65	0.0007259
3414.3	0.00063985
3423.94	0.0008357
3433.59	0.0007534
3443.23	0.00060265
3452.88	0.0005432
3462.52	0.00064211
3472.17	0.0006798
3481.81	0.00062288
3491.46	0.0006886
3501.1	0.00058917
3510.75	0.0005451
3520.39	0.00065403
3530.04	0.00060932
3539.68	0.0006816
3549.32	0.0006881
3558.97	0.00062113
3568.61	0.00056204
3578.26	0.0004979
3587.9	0.000447
3597.55	0.00060489
3607.19	0.000439
3616.84	0.0005446
3626.48	0.000464
3636.13	0.000391
3645.77	0.0007043
3655.42	0.000422
3665.06	0.00062201
3674.71	0.00058753
3684.35	0.0006768
3694	0.0009079
3703.64	0.0006891
3713.29	0.00056073
3722.93	0.00058071
3732.58	0.000567291
3742.22	0.000571126
3751.86	0.0007913
3761.51	0.0007702
3771.15	0.0005515
3780.8	0.000417
3790.44	0.000571264
3800.09	0.000437
3809.73	0.0005014
3819.38	0.00063871
3829.02	0.000323
3838.67	0.00060423
3848.31	0.0005164
3857.96	0.0004791
3867.6	0.000436
3877.25	0.000352
3886.89	0.0008245
3896.54	0.00060877
3906.18	0.0005325
3915.83	0.000366
3925.47	0.000354
3935.12	0.0006241
3944.76	0.000404
3954.41	0.000564154
3964.05	0.000392
3973.69	0.0004722
3983.34	0.000645
3992.98	0.00060655
