Infrared Spectrum: PYRIDINE, 4-VINYL-
Formula: C7 H7 N
CAS: 100-43-6
State: LIQUID (NEAT)
Class: COBLENTZ III
Instrument: PERKIN-ELMER 521 (GRATING)
Instrument parameters: FILTERS AT 3150, 2500, 2000, 1150, 700, 410. GRATING CHANGES: 2000, 630 CM^-^1
Sampling: TRANSMISSION
Path length: SMEAR
Resolution: 2
Origin: STANDARD OIL OF OHIO
1/CM	TRANSMITTANCE
301.39	0.872
311.058	0.88
320.725	0.891
330.393	0.89
340.061	0.892
349.728	0.892
359.396	0.889
369.064	0.885
378.732	0.88
388.399	0.874
398.067	0.867
407.735	0.856
417.402	0.825
427.07	0.768
436.738	0.708
446.405	0.62
456.073	0.54
465.741	0.581
475.408	0.685
485.076	0.744
494.744	0.768
504.411	0.789
514.079	0.797
523.747	0.788
533.415	0.788
543.082	0.754
552.75	0.666
562.418	0.678
572.085	0.79
581.753	0.819
591.421	0.831
601.088	0.836
610.756	0.833
620.424	0.835
630.091	0.806
639.759	0.767
649.427	0.747
659.094	0.808
668.762	0.823
678.43	0.847
688.098	0.856
697.765	0.866
707.433	0.866
717.101	0.866
726.768	0.866
736.436	0.747
746.104	0.53
755.771	0.776
765.439	0.77
775.107	0.628
784.774	0.1341
794.442	0.624
804.11	0.625
813.777	0.4249
823.445	0.013
833.113	0.043
842.781	0.4031
852.448	0.594
862.116	0.559
871.784	0.612
881.451	0.676
891.119	0.638
900.787	0.507
910.454	0.2079
920.122	0.039
929.79	0.069
939.457	0.256
949.125	0.456
958.793	0.537
968.46	0.496
978.128	0.1309
987.796	0.033
997.464	0.2641
1007.13	0.541
1016.8	0.643
1026.47	0.634
1036.13	0.728
1045.8	0.738
1055.47	0.746
1065.14	0.6261
1074.81	0.808
1084.47	0.79
1094.14	0.743
1103.81	0.826
1113.48	0.847
1123.14	0.827
1132.81	0.823
1142.48	0.843
1152.15	0.841
1161.81	0.848
1171.48	0.843
1181.15	0.824
1190.82	0.768
1200.48	0.683
1210.15	0.4148
1219.82	0.4041
1229.49	0.221
1239.16	0.6521
1248.82	0.79
1258.49	0.821
1268.16	0.817
1277.83	0.787
1287.49	0.6939
1297.16	0.6001
1306.83	0.766
1316.5	0.741
1326.16	0.5309
1335.83	0.738
1345.5	0.785
1355.17	0.787
1364.84	0.774
1374.5	0.725
1384.17	0.6519
1393.84	0.3528
1403.51	0.01
1413.17	0.2261
1422.84	0.5331
1432.51	0.672
1442.18	0.702
1451.84	0.716
1461.51	0.765
1471.18	0.787
1480.85	0.7339
1490.52	0.1051
1500.18	0.776
1509.85	0.789
1519.52	0.766
1529.19	0.6059
1538.85	0.0619
1548.52	0.1963
1558.19	0.588
1567.86	0.552
1577.52	0.3618
1587.19	0.012
1596.86	0.0332
1606.53	0.4631
1616.2	0.587
1625.86	0.5169
1635.53	0.584
1645.2	0.66
1654.87	0.703
1664.53	0.75
1674.2	0.784
1683.87	0.776
1693.54	0.73
1703.2	0.77
1712.87	0.817
1722.54	0.832
1732.21	0.831
1741.88	0.836
1751.54	0.847
1761.21	0.855
1770.88	0.861
1780.55	0.843
1790.21	0.845
1799.88	0.856
1809.55	0.847
1819.22	0.821
1828.88	0.793
1838.55	0.708
1848.22	0.651
1857.89	0.646
1867.56	0.7
1877.22	0.764
1886.89	0.805
1896.56	0.825
1906.23	0.823
1915.89	0.801
1925.56	0.708
1935.23	0.677
1944.9	0.747
1954.56	0.793
1964.23	0.805
1973.9	0.812
1983.57	0.818
1993.24	0.837
2002.9	0.862
2012.57	0.8625
2022.24	0.863
2031.91	0.8795
2041.57	0.882
2051.24	0.883
2060.91	0.883
2070.58	0.885
2080.24	0.8725
2089.91	0.8825
2099.58	0.8885
2109.25	0.8945
2118.92	0.894
2128.58	0.8845
2138.25	0.89
2147.92	0.8828
2157.59	0.8555
2167.25	0.8764
2176.92	0.874
2186.59	0.873
2196.26	0.871
2205.92	0.873
2215.59	0.8803
2225.26	0.8861
2234.93	0.89
2244.6	0.8894
2254.26	0.889
2263.93	0.8916
2273.6	0.8818
2283.27	0.8776
2292.93	0.868
2302.6	0.864
2312.27	0.8768
2321.94	0.8982
2331.6	0.904
2341.27	0.9026
2350.94	0.901
2360.61	0.8966
2370.28	0.8891
2379.94	0.88
2389.61	0.853
2399.28	0.8597
2408.95	0.8606
2418.61	0.8506
2428.28	0.8376
2437.95	0.842
2447.62	0.8354
2457.28	0.8427
2466.95	0.8631
2476.62	0.884
2486.29	0.8853
2495.96	0.891
2505.62	0.89
2515.29	0.888
2524.96	0.8783
2534.63	0.8853
2544.29	0.8893
2553.96	0.891
2563.63	0.892
2573.3	0.889
2582.96	0.89
2592.63	0.8907
2602.3	0.885
2611.97	0.8751
2621.64	0.87
2631.3	0.8713
2640.97	0.877
2650.64	0.8595
2660.31	0.8668
2669.97	0.888
2679.64	0.888
2689.31	0.8837
2698.98	0.88
2708.64	0.8823
2718.31	0.8883
2727.98	0.8797
2737.65	0.8783
2747.31	0.882
2756.98	0.886
2766.65	0.89
2776.32	0.8855
2785.99	0.8785
2795.65	0.876
2805.32	0.8715
2814.99	0.8635
2824.66	0.8592
2834.32	0.862
2843.99	0.8571
2853.66	0.8448
2863.33	0.8385
2872.99	0.8089
2882.66	0.679
2892.33	0.776
2902	0.7695
2911.67	0.7416
2921.33	0.7384
2931	0.7304
2940.67	0.6518
2950.34	0.6498
2960	0.5571
2969.67	0.3984
2979.34	0.283
2989.01	0.3775
2998.67	0.38
3008.34	0.2246
3018.01	0.1566
3027.68	0.2186
3037.35	0.2965
3047.01	0.2927
3056.68	0.2353
3066.35	0.2273
3076.02	0.4238
3085.68	0.3719
3095.35	0.5732
3105.02	0.6729
3114.69	0.7036
3124.35	0.7323
3134.02	0.728
3143.69	0.7506
3153.36	0.761
3163.03	0.765
3172.69	0.764
3182.36	0.7619
3192.03	0.761
3201.7	0.7609
3211.36	0.76
3221.03	0.7582
3230.7	0.762
3240.37	0.7595
3250.03	0.752
3259.7	0.747
3269.37	0.7439
3279.04	0.7347
3288.71	0.7258
3298.37	0.7179
3308.04	0.711
3317.71	0.7078
3327.38	0.7009
3337.04	0.6928
3346.71	0.6889
3356.38	0.6759
3366.05	0.6629
3375.71	0.6509
3385.38	0.642
3395.05	0.6399
3404.72	0.6401
3414.39	0.6431
3424.05	0.6521
3433.72	0.6571
3443.39	0.663
3453.06	0.667
3462.72	0.67
3472.39	0.677
3482.06	0.6841
3491.73	0.7
3501.39	0.7091
3511.06	0.728
3520.73	0.742
3530.4	0.7501
3540.07	0.767
3549.73	0.777
3559.4	0.782
3569.07	0.79
3578.74	0.797
3588.4	0.812
3598.07	0.823
3607.74	0.835
3617.41	0.845
3627.07	0.855
3636.74	0.851
3646.41	0.848
3656.08	0.842
3665.75	0.843
3675.41	0.8529
3685.08	0.856
3694.75	0.8728
3704.42	0.8889
3714.08	0.892
3723.75	0.895
3733.42	0.896
3743.09	0.897
3752.75	0.8921
3762.42	0.891
3772.09	0.8979
3781.76	0.901
3791.43	0.901
3801.09	0.901
