Infrared Spectrum: 3-Cyanopyridine
Formula: C 6 H 4 N 2
CAS: 100-54-9
State: gas
Origin: EPA-IR VAPOR PHASE LIBRARY
1/CM	ABSORBANCE
549.8	0.004578
559.445	0.002368
569.09	0.001968
578.734	0.0010896
588.379	0.0007258
598.024	0.0011718
607.669	0.003108
617.313	0.006298
626.958	0.008398
636.603	0.006918
646.248	0.003958
655.893	0.003398
665.537	0.005878
675.182	0.014308
684.827	0.027148
694.472	0.035408
704.116	0.042808
713.761	0.025228
723.406	0.014798
733.051	0.006198
742.695	0.003028
752.34	0.002288
761.985	0.003078
771.63	0.005818
781.275	0.012558
790.919	0.019978
800.564	0.034438
810.209	0.021668
819.854	0.015438
829.498	0.008028
839.143	0.003488
848.788	0.001718
858.433	0.0013849
868.078	0.0009115
877.722	0.001448
887.367	0.001908
897.012	0.001978
906.657	0.002138
916.301	0.002008
925.946	0.002888
935.591	0.003228
945.236	0.003248
954.88	0.003518
964.525	0.002218
974.17	0.001908
983.815	0.001568
993.46	0.002098
1003.1	0.006448
1012.75	0.016648
1022.39	0.017528
1032.04	0.017698
1041.68	0.007398
1051.33	0.003338
1060.97	0.002528
1070.62	0.002558
1080.26	0.002558
1089.91	0.002358
1099.55	0.003288
1109.2	0.003208
1118.84	0.003578
1128.49	0.003588
1138.13	0.002468
1147.78	0.0013252
1157.42	0.003078
1167.07	0.007898
1176.71	0.012078
1186.36	0.011548
1196	0.006158
1205.64	0.003138
1215.29	0.003288
1224.93	0.001628
1234.58	0.001005
1244.22	0.0003328
1253.87	0.0003781
1263.51	4.3e-05
1273.16	0.000298
1282.8	0.000297
1292.45	0.0005703
1302.09	0.0008687
1311.74	0.001345
1321.38	0.002128
1331.03	0.002218
1340.67	0.002378
1350.32	0.001988
1359.96	0.002308
1369.61	0.002868
1379.25	0.004218
1388.9	0.007768
1398.54	0.017118
1408.18	0.035638
1417.83	0.033528
1427.47	0.024548
1437.12	0.005598
1446.76	0.003528
1456.41	0.008508
1466.05	0.017348
1475.7	0.020598
1485.34	0.014508
1494.99	0.005098
1504.63	0.002818
1514.28	0.002088
1523.92	0.001958
1533.57	0.003228
1543.21	0.006868
1552.86	0.011938
1562.5	0.017038
1572.15	0.023748
1581.79	0.025918
1591.44	0.017958
1601.08	0.008638
1610.73	0.002618
1620.37	0.001518
1630.01	0.0011914
1639.66	0.0011873
1649.3	0.0013139
1658.95	0.0012108
1668.59	0.0010221
1678.24	0.0007113
1687.88	0.0007372
1697.53	0.0007601
1707.17	0.0010392
1716.82	0.001478
1726.46	0.001858
1736.11	0.002038
1745.75	0.002348
1755.4	0.002458
1765.04	0.001928
1774.69	0.0011027
1784.33	0.000839
1793.98	0.0009225
1803.62	0.000882
1813.27	0.0007682
1822.91	0.0007387
1832.55	0.0010315
1842.2	0.001528
1851.84	0.001778
1861.49	0.002028
1871.13	0.002158
1880.78	0.002408
1890.42	0.002878
1900.07	0.003578
1909.71	0.004068
1919.36	0.003868
1929	0.003118
1938.65	0.002928
1948.29	0.002978
1957.94	0.002518
1967.58	0.002118
1977.23	0.001618
1986.87	0.0008835
1996.52	0.0006487
2006.16	0.0005681
2015.81	0.000574
2025.45	0.0006215
2035.1	0.0006279
2044.74	0.0007554
2054.38	0.0006791
2064.03	0.0006107
2073.67	0.0006954
2083.32	0.0006966
2092.96	0.0006298
2102.61	0.0005504
2112.25	0.0005427
2121.9	0.00048095
2131.54	0.0006063
2141.19	0.000501
2150.83	0.0005646
2160.48	0.0005767
2170.12	0.0006227
2179.77	0.0007102
2189.41	0.0007457
2199.06	0.0010522
2208.7	0.001508
2218.35	0.003428
2227.99	0.006398
2237.64	0.007818
2247.28	0.006138
2256.92	0.002388
2266.57	0.0011643
2276.21	0.0008876
2285.86	0.0006308
2295.5	0.0006449
2305.15	0.0006516
2314.79	0.0007316
2324.44	0.0007342
2334.08	0.0008746
2343.73	0.00104
2353.37	0.0012177
2363.02	0.0012441
2372.66	0.0013493
2382.31	0.001428
2391.95	0.001438
2401.6	0.0011076
2411.24	0.0009266
2420.89	0.0008466
2430.53	0.0007697
2440.18	0.0007261
2449.82	0.0006806
2459.47	0.00078
2469.11	0.0006102
2478.75	0.000511
2488.4	0.0005676
2498.04	0.0006843
2507.69	0.0007418
2517.33	0.0008019
2526.98	0.00086
2536.62	0.0008856
2546.27	0.0009519
2555.91	0.0008165
2565.56	0.0008757
2575.2	0.000883
2584.85	0.0009337
2594.49	0.00116
2604.14	0.00122
2613.78	0.0010381
2623.43	0.0008834
2633.07	0.0008045
2642.72	0.0007861
2652.36	0.0007607
2662.01	0.0006567
2671.65	0.0006316
2681.29	0.0006971
2690.94	0.0007769
2700.58	0.0007871
2710.23	0.0008719
2719.87	0.0007886
2729.52	0.0007085
2739.16	0.0005747
2748.81	0.0006714
2758.45	0.0007999
2768.1	0.0011774
2777.74	0.0011135
2787.39	0.0010934
2797.03	0.0007225
2806.68	0.0006374
2816.32	0.00049179
2825.97	0.0005139
2835.61	0.00045466
2845.26	0.0005826
2854.9	0.00039082
2864.55	0.0005908
2874.19	0.0006874
2883.84	0.0007583
2893.48	0.000762
2903.12	0.0007082
2912.77	0.0006481
2922.41	0.0008377
2932.06	0.0008992
2941.7	0.0009583
2951.35	0.001638
2960.99	0.001888
2970.64	0.002038
2980.28	0.001728
2989.93	0.001528
2999.57	0.001968
3009.22	0.002468
3018.86	0.003468
3028.51	0.006848
3038.15	0.013868
3047.8	0.021198
3057.44	0.020368
3067.09	0.014478
3076.73	0.009628
3086.38	0.010808
3096.02	0.009838
3105.67	0.007638
3115.31	0.003938
3124.95	0.003008
3134.6	0.002268
3144.24	0.001478
3153.89	0.001067
3163.53	0.001113
3173.18	0.0010809
3182.82	0.0009278
3192.47	0.0008068
3202.11	0.0007875
3211.76	0.0006545
3221.4	0.0007408
3231.05	0.0006227
3240.69	0.0005575
3250.34	0.00047377
3259.98	0.000531
3269.63	0.0005928
3279.27	0.00043539
3288.92	0.00046936
3298.56	0.0007417
3308.21	0.0006962
3317.85	0.0005275
3327.49	0.0005789
3337.14	0.0004987
3346.78	0.0005186
3356.43	0.00047708
3366.07	0.000613
3375.72	0.0005816
3385.36	0.0007943
3395.01	0.0005693
3404.65	0.0008294
3414.3	0.0009445
3423.94	0.001075
3433.59	0.0009425
3443.23	0.0010318
3452.88	0.0010107
3462.52	0.0006814
3472.17	0.0006561
3481.81	0.0006187
3491.46	0.0006086
3501.1	0.0005005
3510.75	0.0005217
3520.39	0.0005547
3530.04	0.00047252
3539.68	0.0005041
3549.32	0.00039429
3558.97	0.00041143
3568.61	0.00049024
3578.26	0.00044913
3587.9	0.000594
3597.55	0.0004997
3607.19	0.0005186
3616.84	0.0006676
3626.48	0.0005378
3636.13	0.0005344
3645.77	0.0005305
3655.42	0.000564
3665.06	0.0005444
3674.71	0.0005692
3684.35	0.0007125
3694	0.0006858
3703.64	0.0005666
3713.29	0.0006499
3722.93	0.0006534
3732.58	0.0006255
3742.22	0.000637
3751.86	0.0006363
3761.51	0.0005146
3771.15	0.0006174
3780.8	0.0006308
3790.44	0.000782
3800.09	0.0006012
3809.73	0.0008354
3819.38	0.0010449
3829.02	0.0010759
3838.67	0.0008411
3848.31	0.0007232
3857.96	0.0009133
3867.6	0.0007643
3877.25	0.0008961
3886.89	0.000682
3896.54	0.00048066
3906.18	0.0006065
3915.83	0.0005977
3925.47	0.00042694
3935.12	0.0005003
3944.76	0.0005858
3954.41	0.0006041
3964.05	0.0006698
3973.69	0.0006739
3983.34	0.0003877
3992.98	0.0006291
