Infrared Spectrum: p-Nitrobenzylbromide
Formula: C 7 H 6 Br N O 2
CAS: 100-11-8
State: gas
Instrument: HP-GC/MS/IRD
Origin: NIST Mass Spectrometry Data Center
1/CM	ABSORBANCE
550	0.0003915
562	3.48e-05
574	0.0003132
586	0.0012963
598	0.0043152
610	0.0079779
622	0.0065163
634	0.0047415
646	0.0032364
658	0.0022881
670	0.0028536
682	0.0067599
694	0.0105531
706	0.0061683
718	0.0026709
730	0.0023142
742	0.0035496
754	0.0033147
766	0.0014703
778	0.0015573
790	0.0120756
802	0.0137634
814	0.007482
826	0.0042543
838	0.006177
850	0.0141375
862	0.0195576
874	0.0055767
886	0.002697
898	0.0016356
910	0.0011658
922	0.0004437
934	6.09e-05
946	1.74e-05
958	0.000174
970	0.0001131
982	0.0001131
994	0.0001305
1006	0.0012789
1018	0.0043413
1030	0.0004524
1042	5.22e-05
1054	4.35e-05
1066	0.0003567
1078	0.0012354
1090	0.002784
1102	0.0044283
1114	0.0039063
1126	0.0011484
1138	0.0007308
1150	0.0008787
1162	0.0011136
1174	0.002958
1186	0.0050112
1198	0.0053592
1210	0.0077691
1222	0.0168432
1234	0.0110055
1246	0.0046806
1258	0.0030798
1270	0.0026883
1282	0.0029493
1294	0.0041064
1306	0.0059595
1318	0.0091437
1330	0.0158079
1342	0.0519912
1354	0.0812928
1366	0.0239424
1378	0.0096918
1390	0.0064989
1402	0.0036105
1414	0.0026187
1426	0.0024447
1438	0.0025926
1450	0.0026361
1462	0.002784
1474	0.0052809
1486	0.0088914
1498	0.0111882
1510	0.0132849
1522	0.0308502
1534	0.0608304
1546	0.0625965
1558	0.0327207
1570	0.016008
1582	0.011136
1594	0.01479
1606	0.0181656
1618	0.009483
1630	0.0032451
1642	0.0018705
1654	0.0017835
1666	0.0015312
1678	0.0011223
1690	0.0008352
1702	0.0006177
1714	0.0005394
1726	0.0005481
1738	0.0004263
1750	0.0004263
1762	0.0003828
1774	0.0006612
1786	0.0012876
1798	0.0007134
1810	0.0002784
1822	0.0001827
1834	9.57e-05
1846	8.7e-05
1858	0.0001305
1870	0.0001218
1882	0.000174
1894	0.000348
1906	0.0008352
1918	0.0012615
1930	0.0009048
1942	0.0003393
1954	0.0001479
1966	0.0002001
1978	0.000174
1990	0.0001566
2002	8.7e-05
2014	6.09e-05
2026	3.48e-05
2038	4.35e-05
2050	2.61e-05
2062	8.7e-06
2074	0
2086	3.48e-05
2098	3.48e-05
2110	3.48e-05
2122	6.96e-05
2134	3.48e-05
2146	2.61e-05
2158	2.61e-05
2170	2.61e-05
2182	5.22e-05
2194	8.7e-05
2206	0.0001914
2218	0.0002088
2230	0.0001305
2242	0.0001044
2254	0.0001131
2266	0.0001566
2278	0.0002436
2290	0.0003132
2302	0.0002958
2314	0.0002349
2326	0.000174
2338	0.0001218
2350	0.0001218
2362	0.0001131
2374	0.0001479
2386	0.0002088
2398	0.000261
2410	0.0002697
2422	0.0002349
2434	0.0002262
2446	0.0003567
2458	0.0004872
2470	0.000261
2482	0.0001305
2494	7.83e-05
2506	6.96e-05
2518	7.83e-05
2530	7.83e-05
2542	1.74e-05
2554	5.22e-05
2566	5.22e-05
2578	8.7e-05
2590	0.0001392
2602	0.0002088
2614	0.0003132
2626	0.0002001
2638	0.0001827
2650	0.0002436
2662	0.000261
2674	0.0003306
2686	0.0004176
2698	0.0005133
2710	0.000522
2722	0.0003741
2734	0.0002436
2746	0.0001392
2758	0.0001218
2770	0.0001479
2782	0.0002088
2794	0.0002262
2806	0.0002697
2818	0.0002871
2830	0.0004524
2842	0.0006438
2854	0.0009483
2866	0.0012963
2878	0.0015138
2890	0.0013224
2902	0.0010092
2914	0.0008004
2926	0.0006525
2938	0.0008352
2950	0.001131
2962	0.0015834
2974	0.0022968
2986	0.0022794
2998	0.0012702
3010	0.0008265
3022	0.0009483
3034	0.0011745
3046	0.0018792
3058	0.0025143
3070	0.0022446
3082	0.0025317
3094	0.0012441
3106	0.0003741
3118	0.0001827
3130	0.0001131
3142	6.96e-05
3154	5.22e-05
3166	3.48e-05
3178	5.22e-05
3190	0.0001479
3202	0.0001479
3214	0.0001566
3226	9.57e-05
3238	7.83e-05
3250	5.22e-05
3262	7.83e-05
3274	7.83e-05
3286	8.7e-05
3298	3.48e-05
3310	6.09e-05
3322	5.22e-05
3334	8.7e-05
3346	9.57e-05
3358	4.35e-05
3370	5.22e-05
3382	1.74e-05
3394	0.0001131
3406	6.09e-05
3418	2.61e-05
3430	5.22e-05
3442	9.57e-05
3454	0.0001218
3466	6.96e-05
3478	0.0001044
3490	7.83e-05
3502	0.0001131
3514	5.22e-05
3526	0.0001044
3538	9.57e-05
3550	0.0001218
3562	0.0001392
3574	9.57e-05
3586	0.0001218
3598	0.0002001
3610	0.0001305
3622	0.0001218
3634	0.0001305
3646	0.0001305
3658	0.0001566
3670	0.0002262
3682	0.0002262
3694	0.0001479
3706	0.0002001
3718	0.0002436
3730	0.0002001
3742	0.0002262
3754	0.0001914
3766	0.0001392
3778	0.0001392
3790	0.0001827
3802	0.000174
3814	0.0001044
3826	0.0001566
3838	0.0001392
