Infrared Spectrum: Ethylbenzene
Formula: C 8 H 10
CAS: 100-41-4
State: gas
Instrument: HP-GC/MS/IRD
Origin: NIST Mass Spectrometry Data Center
1/CM	ABSORBANCE
550	0.0015519
562	0.0015477
574	0.0009639
586	0.0005964
598	0.0002436
610	0.0002583
622	0.0002793
634	0.0002604
646	0.0004809
658	0.0009765
670	0.0031458
682	0.0080115
694	0.014133
706	0.0118398
718	0.0101661
730	0.0093051
742	0.008379
754	0.0066255
766	0.0045486
778	0.0029043
790	0.0018102
802	0.0009387
814	0.0005082
826	1.26e-05
838	0.0002016
850	0.0001092
862	0.000189
874	0.0003213
886	0.0005796
898	0.0007077
910	0.000546
922	0.0003024
934	0.0001848
946	0.000315
958	0.0006111
970	0.0006027
982	0.0003003
994	0.0001554
1006	0.0004599
1018	0.0015372
1030	0.002079
1042	0.0018081
1054	0.0016716
1066	0.0015582
1078	0.0011823
1090	0.0009723
1102	0.0008337
1114	0.0006363
1126	0.0003822
1138	0.0002121
1150	0.0002058
1162	0.000126
1174	0.000147
1186	0.0002037
1198	0.0002037
1210	0.0001743
1222	0.0002079
1234	0.0003759
1246	0.0003549
1258	0.0003297
1270	0.0004032
1282	0.0005439
1294	0.0006657
1306	0.0008967
1318	0.0013125
1330	0.0014637
1342	0.0009576
1354	0.0007119
1366	0.0008253
1378	0.0010794
1390	0.0011088
1402	0.0010038
1414	0.0010941
1426	0.001638
1438	0.0029337
1450	0.004452
1462	0.0046998
1474	0.0036603
1486	0.0051261
1498	0.0056721
1510	0.0029673
1522	0.0008253
1534	0.0006174
1546	0.0004641
1558	0.0004368
1570	0.0007896
1582	0.0014343
1594	0.0028497
1606	0.0031017
1618	0.0016758
1630	0.0005943
1642	0.000357
1654	0.0001743
1666	0.0002751
1678	0.0001407
1690	0.0001428
1702	3.99e-05
1714	0.0001848
1726	0.0004494
1738	0.0003927
1750	0.0002226
1762	0.00021
1774	0.0003318
1786	0.000777
1798	0.0008463
1810	0.0004746
1822	0.0002709
1834	0.0002667
1846	0.0004368
1858	0.0007266
1870	0.0008589
1882	0.00063
1894	0.0002688
1906	0.0002772
1918	0.0004977
1930	0.0008547
1942	0.0010416
1954	0.0007602
1966	0.000294
1978	0.0001386
1990	6.72e-05
2002	0.0001155
2014	6.51e-05
2026	9.24e-05
2038	7.77e-05
2050	4.83e-05
2062	2.94e-05
2074	5.88e-05
2086	5.88e-05
2098	3.99e-05
2110	2.31e-05
2122	3.36e-05
2134	5.46e-05
2146	4.83e-05
2158	7.35e-05
2170	4.83e-05
2182	3.15e-05
2194	4.2e-05
2206	3.78e-05
2218	5.67e-05
2230	6.51e-05
2242	9.66e-05
2254	5.88e-05
2266	6.72e-05
2278	0.0001113
2290	7.77e-05
2302	9.87e-05
2314	0.0001428
2326	0.000105
2338	0.000105
2350	0.0001071
2362	4.41e-05
2374	5.67e-05
2386	6.09e-05
2398	6.09e-05
2410	9.87e-05
2422	5.67e-05
2434	5.88e-05
2446	5.25e-05
2458	3.15e-05
2470	3.15e-05
2482	2.1e-05
2494	4.83e-05
2506	6.51e-05
2518	7.35e-05
2530	4.2e-05
2542	7.35e-05
2554	3.99e-05
2566	3.36e-05
2578	5.04e-05
2590	0.0001554
2602	0.0001722
2614	0.0001638
2626	0.0001449
2638	0.0001932
2650	0.0001281
2662	0.000105
2674	8.4e-05
2686	0.0001617
2698	9.87e-05
2710	0.0001596
2722	0.0002058
2734	0.0003045
2746	0.0003486
2758	0.0004116
2770	0.0004662
2782	0.0006048
2794	0.0006573
2806	0.0007455
2818	0.0010017
2830	0.0014112
2842	0.0020496
2854	0.003213
2866	0.0052815
2878	0.0078792
2890	0.0086814
2902	0.008442
2914	0.0081291
2926	0.010059
2938	0.0138957
2950	0.0145488
2962	0.0178857
2974	0.0208383
2986	0.0146769
2998	0.007266
3010	0.0074403
3022	0.0112644
3034	0.0132153
3046	0.0111699
3058	0.0098259
3070	0.011697
3082	0.0102942
3094	0.0064428
3106	0.0040614
3118	0.0022218
3130	0.0011088
3142	0.0006993
3154	0.0006153
3166	0.0005313
3178	0.0004431
3190	0.0003549
3202	0.0002226
3214	0.0001806
3226	0.0001827
3238	0.0001029
3250	9.66e-05
3262	0.0001176
3274	0.0001386
3286	7.77e-05
3298	9.66e-05
3310	8.4e-05
3322	0.0001029
3334	4.41e-05
3346	8.19e-05
3358	4.41e-05
3370	0.0001029
3382	0.0001029
3394	0.000126
3406	0.0001407
3418	9.66e-05
3430	0.0001071
3442	0.0001323
3454	0.0001239
3466	0.0001176
3478	7.14e-05
3490	0.0001113
3502	8.4e-05
3514	0.0001575
3526	0.0001344
3538	0.0001218
3550	0.000105
3562	0.0001302
3574	0.0001365
3586	2.94e-05
3598	0.0001932
3610	0.0001281
3622	0.0002037
3634	0.0002205
3646	0.0002478
3658	0.0002205
3670	0.0001533
3682	0.000273
3694	0.0002667
3706	0.0002646
3718	0.0002373
3730	0.0002079
3742	0.000105
3754	0.0002226
3766	0.0002793
3778	0.000252
3790	0.0003402
3802	0.0003339
3814	0.0002814
3826	0.0002898
3838	0.0002373
