Infrared Spectrum: Cyclohexanol, 2-(9H-purin-9-yl)-, trans-
Formula: C11 H14 N4 O
CAS: 100057-61-2
State: SOLID (1.2 mg / 650 mg KBr DISC)
Class: COBLENTZ III
Instrument: PERKIN-ELMER 21 (GRATING)
Instrument parameters: FILTER CHANGE ABOUT 1090 CM^-^1
Sampling: TRANSMISSION
Resolution: 2
Origin: SOUTHERN RESEARCH INSTITUTE
1/CM	TRANSMITTANCE
596.989	0.8379
606.02	0.895
615.052	0.8811
624.083	0.8544
633.115	0.7137
642.146	0.4053
651.178	0.6704
660.209	0.7616
669.24	0.7533
678.272	0.7093
687.303	0.6748
696.335	0.6931
705.366	0.7209
714.397	0.7343
723.429	0.75
732.46	0.7723
741.492	0.7706
750.523	0.7425
759.555	0.6407
768.586	0.6997
777.617	0.7776
786.649	0.7419
795.68	0.367
804.712	0.661
813.743	0.8386
822.775	0.8416
831.806	0.8322
840.837	0.8043
849.869	0.7442
858.9	0.7924
867.932	0.6377
876.963	0.7543
885.995	0.8154
895.026	0.7763
904.057	0.684
913.089	0.5598
922.12	0.5957
931.152	0.7507
940.183	0.8077
949.214	0.7695
958.246	0.598
967.277	0.6972
976.309	0.8345
985.34	0.8237
994.372	0.8342
1003.4	0.8371
1012.43	0.8302
1021.47	0.8163
1030.5	0.7907
1039.53	0.748
1048.56	0.6038
1057.59	0.7073
1066.62	0.5081
1075.65	0.6444
1084.69	0.5224
1093.72	0.3126
1102.75	0.5145
1111.78	0.6623
1120.81	0.7332
1129.84	0.6332
1138.87	0.5821
1147.91	0.6938
1156.94	0.7906
1165.97	0.7825
1175	0.7513
1184.03	0.6825
1193.06	0.561
1202.09	0.3538
1211.13	0.4373
1220.16	0.4051
1229.19	0.7266
1238.22	0.5648
1247.25	0.5651
1256.28	0.6706
1265.31	0.7056
1274.35	0.7284
1283.38	0.6182
1292.41	0.6607
1301.44	0.6033
1310.47	0.4961
1319.5	0.389
1328.53	0.6347
1337.57	0.5975
1346.6	0.4327
1355.63	0.4521
1364.66	0.5629
1373.69	0.7227
1382.72	0.701
1391.75	0.5884
1400.79	0.3913
1409.82	0.2384
1418.85	0.3475
1427.88	0.6472
1436.91	0.6771
1445.94	0.5834
1454.97	0.5291
1464.01	0.703
1473.04	0.6832
1482.07	0.7237
1491.1	0.6772
1500.13	0.4103
1509.16	0.3401
1518.19	0.7194
1527.23	0.8066
1536.26	0.8018
1545.29	0.7851
1554.32	0.7784
1563.35	0.7031
1572.38	0.5785
1581.41	0.2362
1590.45	0.2818
1599.48	0.2508
1608.51	0.5849
1617.54	0.739
1626.57	0.7809
1635.6	0.801
1644.63	0.8263
1653.67	0.8356
1662.7	0.8441
1671.73	0.8532
1680.76	0.8589
1689.79	0.855
1698.82	0.8476
1707.85	0.8328
1716.89	0.8008
1725.92	0.8213
1734.95	0.8583
1743.98	0.8609
1753.01	0.8618
1762.04	0.861
1771.07	0.859
1780.11	0.8632
1789.14	0.8641
1798.17	0.8606
1807.2	0.8552
1816.23	0.8498
1825.26	0.8344
1834.29	0.8182
1843.33	0.8117
1852.36	0.8105
1861.39	0.8384
1870.42	0.8498
1879.45	0.8461
1888.48	0.8371
1897.51	0.8264
1906.55	0.8305
1915.58	0.8583
1924.61	0.8576
1933.64	0.8551
1942.67	0.8507
1951.7	0.8429
1960.73	0.8319
1969.77	0.8288
1978.8	0.8411
1987.83	0.8527
1996.86	0.8573
2005.89	0.8568
2014.92	0.8529
2023.95	0.8501
2032.99	0.8488
2042.02	0.8489
2051.05	0.8503
2060.08	0.8507
2069.11	0.8508
2078.14	0.8512
2087.17	0.8551
2096.21	0.8516
2105.24	0.8456
2114.27	0.8403
2123.3	0.8401
2132.33	0.8393
2141.36	0.8387
2150.39	0.8391
2159.43	0.8393
2168.46	0.8393
2177.49	0.839
2186.52	0.8389
2195.55	0.8396
2204.58	0.8391
2213.61	0.838
2222.64	0.8366
2231.68	0.8353
2240.71	0.8341
2249.74	0.832
2258.77	0.83
2267.8	0.8332
2276.83	0.8381
2285.86	0.8354
2294.9	0.8343
2303.93	0.834
2312.96	0.8311
2321.99	0.8313
2331.02	0.8299
2340.05	0.8238
2349.08	0.818
2358.12	0.8104
2367.15	0.8028
2376.18	0.8066
2385.21	0.812
2394.24	0.8138
2403.27	0.8129
2412.3	0.8095
2421.34	0.807
2430.37	0.8048
2439.4	0.7986
2448.43	0.7942
2457.46	0.7919
2466.49	0.7887
2475.52	0.7848
2484.56	0.7855
2493.59	0.7917
2502.62	0.7909
2511.65	0.7869
2520.68	0.7813
2529.71	0.7781
2538.74	0.7819
2547.78	0.7861
2556.81	0.7903
2565.84	0.7878
2574.87	0.7828
2583.9	0.7773
2592.93	0.7727
2601.96	0.7697
2611	0.7665
2620.03	0.7632
2629.06	0.7528
2638.09	0.7384
2647.12	0.7294
2656.15	0.7292
2665.18	0.7368
2674.22	0.7364
2683.25	0.7352
2692.28	0.7326
2701.31	0.7356
2710.34	0.734
2719.37	0.732
2728.4	0.7329
2737.44	0.733
2746.47	0.726
2755.5	0.7186
2764.53	0.7093
2773.56	0.6992
2782.59	0.6877
2791.62	0.6738
2800.66	0.6583
2809.69	0.6373
2818.72	0.6043
2827.75	0.557
2836.78	0.4689
2845.81	0.4367
2854.84	0.4639
2863.88	0.5104
2872.91	0.5636
2881.94	0.5693
2890.97	0.5576
2900	0.5053
2909.03	0.4548
2918.06	0.415
2927.1	0.3194
2936.13	0.294
2945.16	0.3313
2954.19	0.4924
2963.22	0.652
2972.25	0.6585
2981.28	0.6697
2990.32	0.6597
2999.35	0.6572
3008.38	0.6498
3017.41	0.6207
3026.44	0.6055
3035.47	0.5927
3044.5	0.5836
3053.54	0.5801
3062.57	0.5721
3071.6	0.5403
3080.63	0.5326
3089.66	0.5673
3098.69	0.5825
3107.72	0.572
3116.76	0.5647
3125.79	0.5515
3134.82	0.5157
3143.85	0.4897
3152.88	0.4644
3161.91	0.4399
3170.94	0.4164
3179.98	0.3878
3189.01	0.3699
3198.04	0.3535
3207.07	0.337
3216.1	0.3217
3225.13	0.3092
3234.16	0.2965
3243.2	0.2874
3252.23	0.2835
3261.26	0.2952
3270.29	0.308
3279.32	0.3284
3288.35	0.3477
3297.38	0.3677
3306.42	0.3841
3315.45	0.3989
3324.48	0.4215
3333.51	0.432
3342.54	0.4365
3351.57	0.4449
3360.6	0.4555
3369.64	0.4645
3378.67	0.4808
3387.7	0.4995
3396.73	0.5174
3405.76	0.5332
3414.79	0.5496
3423.82	0.5669
3432.86	0.5801
3441.89	0.5946
3450.92	0.6005
3459.95	0.6101
3468.98	0.6225
3478.01	0.6354
3487.04	0.6496
3496.08	0.6605
3505.11	0.6712
3514.14	0.6788
3523.17	0.6881
3532.2	0.6988
3541.23	0.7066
3550.26	0.7138
3559.3	0.7201
3568.33	0.7248
3577.36	0.7302
3586.39	0.7384
3595.42	0.7437
3604.45	0.7522
3613.48	0.7582
3622.52	0.7627
3631.55	0.7669
3640.58	0.7741
3649.61	0.781
3658.64	0.7815
3667.67	0.7824
3676.7	0.7855
3685.74	0.7847
3694.77	0.7834
3703.8	0.7841
3712.83	0.7862
3721.86	0.7893
3730.89	0.79
3739.92	0.7856
3748.96	0.784
3757.99	0.7839
3767.02	0.7844
3776.05	0.7869
3785.08	0.7855
3794.11	0.7808
3803.14	0.7805
3812.18	0.7809
3821.21	0.7813
3830.24	0.7818
3839.27	0.7862
3848.3	0.7877
3857.33	0.788
3866.36	0.7877
3875.4	0.787
3884.43	0.782
3893.46	0.7796
3902.49	0.7775
3911.52	0.7756
3920.55	0.774
3929.58	0.7727
3938.62	0.7717
3947.65	0.7704
3956.68	0.7691
3965.71	0.7677
3974.74	0.7708
3983.77	0.7741
3992.8	0.7715
4001.84	0.7673
4010.87	0.7629
