Infrared Spectrum: 2,4-Dimethyl-1,3-pentadiene
Formula: C 7 H 12
CAS: 1000-86-8
State: gas
Instrument: HP-GC/MS/IRD
Origin: NIST Mass Spectrometry Data Center
1/CM	ABSORBANCE
550	0.0010032
562	0.0004944
574	0.0007776
586	0.0005544
598	0.0002112
610	7.2e-06
622	8.88e-05
634	0.000108
646	0.000156
658	0.0001224
670	0
682	0.0001584
694	0.0002808
706	0.00012
718	0.000252
730	0.0001536
742	0.0001584
754	0.0001896
766	0.0002256
778	0.0002856
790	0.0006336
802	0.0008184
814	0.00144
826	0.0020928
838	0.0027912
850	0.0029976
862	0.00366
874	0.0062256
886	0.0108504
898	0.011664
910	0.0069264
922	0.0026832
934	0.0012096
946	0.0007584
958	0.0006456
970	0.0008784
982	0.0010152
994	0.0010272
1006	0.0009912
1018	0.0008136
1030	0.0007104
1042	0.0008232
1054	0.001452
1066	0.002184
1078	0.001956
1090	0.0008928
1102	0.0004056
1114	0.0001992
1126	0.00018
1138	0.0002472
1150	0.0004056
1162	0.000912
1174	0.0018456
1186	0.0021936
1198	0.001548
1210	0.0008304
1222	0.0006888
1234	0.0008424
1246	0.0012312
1258	0.0015984
1270	0.0016416
1282	0.0011544
1294	0.0010872
1306	0.0010872
1318	0.0011208
1330	0.0012336
1342	0.0015288
1354	0.0023856
1366	0.0042864
1378	0.006024
1390	0.0056856
1402	0.0038376
1414	0.003612
1426	0.004824
1438	0.0066288
1450	0.0075384
1462	0.0063384
1474	0.00408
1486	0.0024144
1498	0.001572
1510	0.0011304
1522	0.0009264
1534	0.000912
1546	0.0010176
1558	0.0012048
1570	0.0015696
1582	0.0020856
1594	0.0026712
1606	0.0035424
1618	0.0045504
1630	0.0053856
1642	0.0052176
1654	0.004068
1666	0.0027432
1678	0.0013104
1690	0.0006984
1702	0.0004728
1714	0.0004152
1726	0.0003144
1738	0.0003024
1750	0.0003888
1762	0.0006
1774	0.0008496
1786	0.0010848
1798	0.000984
1810	0.000684
1822	0.000372
1834	0.000204
1846	0.0001872
1858	0.0001392
1870	9.12e-05
1882	0.0001296
1894	0.0001224
1906	8.4e-05
1918	8.64e-05
1930	0.0001248
1942	0.0001392
1954	0.0001152
1966	0.0001536
1978	7.68e-05
1990	6e-05
2002	4.32e-05
2014	4.56e-05
2026	4.32e-05
2038	7.68e-05
2050	3.36e-05
2062	7.2e-05
2074	5.52e-05
2086	3.6e-05
2098	7.68e-05
2110	4.32e-05
2122	6.48e-05
2134	4.56e-05
2146	6.24e-05
2158	9.12e-05
2170	7.92e-05
2182	8.64e-05
2194	8.64e-05
2206	6.96e-05
2218	7.92e-05
2230	8.88e-05
2242	7.68e-05
2254	7.44e-05
2266	6e-05
2278	5.28e-05
2290	6.24e-05
2302	2.88e-05
2314	3.84e-05
2326	5.28e-05
2338	0.0001224
2350	0.000108
2362	7.92e-05
2374	4.56e-05
2386	0.0001104
2398	0.0001608
2410	0.000192
2422	0.0001512
2434	0.0001416
2446	0.0001392
2458	0.000144
2470	0.000192
2482	0.0001272
2494	0.0001176
2506	8.16e-05
2518	0.0001584
2530	0.0001224
2542	0.000108
2554	0.000132
2566	0.0001392
2578	0.0001584
2590	0.0001176
2602	0.0001344
2614	0.0001104
2626	0.0001464
2638	0.0001872
2650	0.0001776
2662	0.0001728
2674	0.0002184
2686	0.0002496
2698	0.0003552
2710	0.0004632
2722	0.0007008
2734	0.0010632
2746	0.0012
2758	0.0009312
2770	0.0008256
2782	0.0009144
2794	0.0011088
2806	0.0015288
2818	0.0019008
2830	0.0025344
2842	0.00402
2854	0.0071136
2866	0.0103248
2878	0.011964
2890	0.0125904
2902	0.01458
2914	0.0198888
2926	0.02376
2938	0.0227808
2950	0.0191232
2962	0.0192384
2974	0.020832
2986	0.018864
2998	0.012804
3010	0.0085104
3022	0.0060936
3034	0.0047592
3046	0.0043056
3058	0.0043056
3070	0.005472
3082	0.00792
3094	0.0068928
3106	0.0034104
3118	0.0016512
3130	0.0012
3142	0.0008832
3154	0.0006432
3166	0.00042
3178	0.0002904
3190	0.0001896
3202	0.0002544
3214	0.0002328
3226	0.0002064
3238	0.0001608
3250	0.0001344
3262	0.0002088
3274	0.0001584
3286	0.0001272
3298	0.0001656
3310	0.0001992
3322	0.0001344
3334	0.0001152
3346	0.0001536
3358	0.0001416
3370	0.0001536
3382	0.0001608
3394	0.0001272
3406	0.0001296
3418	0.000192
3430	0.0001992
3442	2.64e-05
3454	0.000132
3466	0.0001416
3478	7.2e-05
3490	0.000228
3502	0.0001464
3514	0.0002328
3526	0.0001176
3538	5.52e-05
3550	0.0001296
3562	9.12e-05
3574	0.0001632
3586	6.24e-05
3598	0.0001584
3610	8.16e-05
3622	7.2e-05
3634	0.0001488
3646	0.0001392
3658	0.000132
3670	0.000132
3682	0.0001752
3694	8.16e-05
3706	6.96e-05
3718	9.36e-05
3730	0.0001056
3742	1.68e-05
3754	0.000144
3766	0.0002304
3778	0.0001464
3790	0.0002112
3802	0.0001896
3814	0.0001152
3826	0.0001896
3838	0.0001512
