Infrared Spectrum: Carbanilic acid, 2-tert-butyl-, ethyl ester
Formula: C13 H19 N O2
CAS: 100096-59-1
State: SOLID (NUJOL MULL)
Class: COBLENTZ III
Instrument: BECKMAN IR-4 (HYBRID PRISM-GRATING)
Instrument parameters: NaCl PRISM
Sampling: TRANSMISSION
Resolution: 2
Origin: MONSANTO (J. FREEMAN)
1/CM	TRANSMITTANCE
626	0.8964
635	0.8939
644	0.8818
653	0.892
662	0.9243
671	0.9378
680	0.956
689	0.9331
698	0.8661
707	0.7933
716	0.7181
725	0.8671
734	0.9256
743	0.8636
752	0.2464
761	0.8535
770	0.7522
779	0.8829
788	0.9707
797	0.984
806	0.983
815	0.9735
824	0.9658
833	0.9526
842	0.9765
851	0.9489
860	0.9535
869	0.9867
878	0.9869
887	0.9827
896	0.9781
905	0.9736
914	0.9681
923	0.9587
932	0.9548
941	0.9454
950	0.9629
959	0.9665
968	0.9636
977	0.9619
986	0.9629
995	0.9606
1004	0.9586
1013	0.9453
1022	0.9353
1031	0.9292
1040	0.8682
1049	0.671
1058	0.4015
1067	0.2251
1076	0.6727
1085	0.8194
1094	0.6267
1103	0.7184
1112	0.8361
1121	0.8909
1130	0.8829
1139	0.9142
1148	0.9103
1157	0.8847
1166	0.8437
1175	0.8172
1184	0.8244
1193	0.7432
1202	0.6105
1211	0.57
1220	0.4763
1229	0.2635
1238	0.1706
1247	0.1392
1256	0.2176
1265	0.353
1274	0.5592
1283	0.5884
1292	0.525
1301	0.6818
1310	0.7417
1319	0.7716
1328	0.8028
1337	0.827
1346	0.8451
1355	0.8436
1364	0.6444
1373	0.6796
1382	0.6678
1391	0.706
1400	0.7777
1409	0.8189
1418	0.8261
1427	0.8141
1436	0.6559
1445	0.4573
1454	0.4797
1463	0.423
1472	0.4708
1481	0.4407
1490	0.5346
1499	0.5992
1508	0.5081
1517	0.2753
1526	0.1288
1535	0.2021
1544	0.4527
1553	0.6765
1562	0.7742
1571	0.8293
1580	0.8075
1589	0.8471
1598	0.8233
1607	0.8271
1616	0.8768
1625	0.8852
1634	0.8852
1643	0.8784
1652	0.8665
1661	0.8181
1670	0.7083
1679	0.4737
1688	0.2285
1697	0.066
1706	0.1708
1715	0.353
1724	0.3328
1733	0.6038
1742	0.7083
1751	0.6901
1760	0.8305
1769	0.904
1778	0.9169
1787	0.921
1796	0.9215
1805	0.9254
1814	0.9296
1823	0.933
1832	0.9359
1841	0.9387
1850	0.9413
1859	0.9438
1868	0.945
1877	0.9442
1886	0.943
1895	0.9416
1904	0.9406
1913	0.9401
1922	0.9405
1931	0.9456
1940	0.9435
1949	0.9401
1958	0.9415
1967	0.9457
1976	0.947
1985	0.9471
1994	0.9472
2003	0.9472
2012	0.9471
2021	0.947
2030	0.9469
2039	0.9466
2048	0.946
2057	0.9455
2066	0.945
2075	0.9444
2084	0.9439
2093	0.9434
2102	0.9429
2111	0.9424
2120	0.9419
2129	0.9413
2138	0.9408
2147	0.9402
2156	0.9396
2165	0.939
2174	0.9384
2183	0.9377
2192	0.9369
2201	0.9362
2210	0.9352
2219	0.934
2228	0.9326
2237	0.9293
2246	0.926
2255	0.9213
2264	0.9163
2273	0.9102
2282	0.9113
2291	0.9134
2300	0.9165
2309	0.9203
2318	0.9233
2327	0.9259
2336	0.9275
2345	0.929
2354	0.9303
2363	0.9315
2372	0.9317
2381	0.9309
2390	0.9302
2399	0.9292
2408	0.9282
2417	0.9273
2426	0.9265
2435	0.9256
2444	0.9247
2453	0.9238
2462	0.9229
2471	0.9221
2480	0.9213
2489	0.9204
2498	0.9196
2507	0.9188
2516	0.918
2525	0.9172
2534	0.9165
2543	0.9157
2552	0.915
2561	0.914
2570	0.913
2579	0.9119
2588	0.9107
2597	0.9097
2606	0.9084
2615	0.907
2624	0.9056
2633	0.9042
2642	0.9029
2651	0.9015
2660	0.8999
2669	0.8977
2678	0.8956
2687	0.8934
2696	0.891
2705	0.8863
2714	0.8789
2723	0.8723
2732	0.8699
2741	0.8681
2750	0.8664
2759	0.8643
2768	0.8618
2777	0.8586
2786	0.8544
2795	0.85
2804	0.8448
2813	0.8365
2822	0.8203
2831	0.7854
2840	0.6927
2849	0.4692
2858	0.3448
2867	0.2478
2876	0.2547
2885	0.2747
2894	0.276
2903	0.2035
2912	0.1217
2921	0.087
2930	0.0853
2939	0.0891
2948	0.1039
2957	0.1317
2966	0.1874
2975	0.2846
2984	0.3813
2993	0.4774
3002	0.5729
3011	0.6654
3020	0.6953
3029	0.7105
3038	0.7212
3047	0.7318
3056	0.7433
3065	0.7593
3074	0.7743
3083	0.7996
3092	0.8148
3101	0.8207
3110	0.8248
3119	0.8312
3128	0.8385
3137	0.8385
3146	0.8376
3155	0.8354
3164	0.8324
3173	0.827
3182	0.818
3191	0.8044
3200	0.7856
3209	0.7701
3218	0.7509
3227	0.7297
3236	0.6625
3245	0.4849
3254	0.3351
3263	0.3083
3272	0.3079
3281	0.331
3290	0.3874
3299	0.4435
3308	0.4994
3317	0.555
3326	0.6102
3335	0.6652
3344	0.7194
3353	0.7646
3362	0.7889
3371	0.8066
3380	0.8195
3389	0.8266
3398	0.8331
3407	0.8376
3416	0.8419
3425	0.8439
3434	0.8455
3443	0.8471
3452	0.848
3461	0.849
3470	0.85
3479	0.851
3488	0.8521
3497	0.8533
3506	0.8546
3515	0.8563
3524	0.861
3533	0.8663
3542	0.8705
3551	0.8717
3560	0.873
3569	0.874
3578	0.8743
3587	0.8746
3596	0.8748
3605	0.8751
3614	0.8754
3623	0.8756
3632	0.8757
3641	0.8757
3650	0.8757
3659	0.8757
3668	0.8757
3677	0.8757
3686	0.8757
3695	0.8757
3704	0.8754
3713	0.8751
3722	0.8748
3731	0.8744
3740	0.874
3749	0.8736
3758	0.8732
3767	0.8726
3776	0.8719
3785	0.8713
3794	0.8706
3803	0.87
3812	0.8694
3821	0.8687
3830	0.868
3839	0.8674
3848	0.8668
3857	0.8663
3866	0.8657
3875	0.8651
3884	0.8646
3893	0.864
3902	0.8634
3911	0.8629
3920	0.8622
3929	0.8615
3938	0.8609
3947	0.8601
3956	0.8594
3965	0.8588
3974	0.8581
3983	0.8574
3992	0.8567
