Infrared Spectrum: n-BUTYLTRIMETHYLSILANE
Formula: C7 H18 Si
CAS: 1000-49-3
State: SOLUTION (5% IN CCl4 FOR 3800-1310, 2% IN CS2 FOR 1310-630, AND 5% IN CCl4 FOR 630-200 CM^-^1)
Class: COBLENTZ III
Instrument: PERKIN-ELMER 521 (GRATING)
Instrument parameters: FILTERS AT 3150, 2500, 2000, 1150, 700, 410. GRATING CHANGES: 2000, 630 CM^-^1
Sampling: TRANSMISSION
Path length: 0.011 CM, 0.011 CM, AND 0.020 CM
Resolution: 2
Origin: DOW CORNING CORP.
1/CM	TRANSMITTANCE
203.607	0.809
212.915	0.809
222.222	0.818
231.53	0.825
240.838	0.833
250.146	0.834
259.453	0.841
268.761	0.836
278.069	0.84
287.377	0.834
296.684	0.812
305.992	0.797
315.3	0.775
324.608	0.762
333.915	0.867
343.223	0.877
352.531	0.886
361.839	0.881
371.146	0.881
380.454	0.878
389.762	0.871
399.07	0.867
408.377	0.852
417.685	0.877
426.993	0.856
436.3	0.895
445.608	0.903
454.916	0.908
464.224	0.909
473.531	0.91
482.839	0.911
492.147	0.914
501.455	0.911
510.762	0.911
520.07	0.914
529.378	0.914
538.686	0.911
547.993	0.907
557.301	0.903
566.609	0.898
575.917	0.894
585.224	0.895
594.532	0.889
603.84	0.777
613.148	0.876
622.455	0.888
631.763	0.888
641.071	0.876
650.379	0.863
659.686	0.84
668.994	0.829
678.302	0.799
687.609	0.67
696.917	0.774
706.225	0.849
715.533	0.844
724.84	0.777
734.148	0.811
743.456	0.77
752.764	0.749
762.071	0.822
771.379	0.836
780.687	0.852
789.995	0.847
799.302	0.825
808.61	0.758
817.918	0.565
827.226	0.279
836.533	0.527
845.841	0.464
855.149	0.319
864.457	0.515
873.764	0.555
883.072	0.65
892.38	0.843
901.687	0.893
910.995	0.92
920.303	0.926
929.611	0.929
938.918	0.929
948.226	0.922
957.534	0.887
966.842	0.922
976.149	0.922
985.457	0.913
994.765	0.896
1004.07	0.904
1013.38	0.902
1022.69	0.907
1032	0.932
1041.3	0.936
1050.61	0.932
1059.92	0.928
1069.23	0.894
1078.53	0.877
1087.84	0.932
1097.15	0.937
1106.46	0.937
1115.77	0.932
1125.07	0.929
1134.38	0.925
1143.69	0.914
1153	0.911
1162.3	0.895
1171.61	0.859
1180.92	0.855
1190.23	0.859
1199.54	0.895
1208.84	0.898
1218.15	0.888
1227.46	0.85
1236.77	0.585
1246.07	0.4321
1255.38	0.72
1264.69	0.847
1274	0.862
1283.3	0.843
1292.61	0.837
1301.92	0.858
1311.23	0.873
1320.54	0.84
1329.84	0.808
1339.15	0.753
1348.46	0.812
1357.77	0.811
1367.07	0.794
1376.38	0.648
1385.69	0.777
1395	0.748
1404.31	0.646
1413.61	0.648
1422.92	0.713
1432.23	0.736
1441.54	0.702
1450.84	0.653
1460.15	0.6
1469.46	0.73
1478.77	0.821
1488.08	0.841
1497.38	0.844
1506.69	0.851
1516	0.85
1525.31	0.865
1534.61	0.869
1543.92	0.871
1553.23	0.871
1562.54	0.871
1571.84	0.869
1581.15	0.871
1590.46	0.872
1599.77	0.872
1609.08	0.872
1618.38	0.869
1627.69	0.869
1637	0.869
1646.31	0.869
1655.61	0.869
1664.92	0.87
1674.23	0.87
1683.54	0.869
1692.85	0.87
1702.15	0.87
1711.46	0.871
1720.77	0.873
1730.08	0.874
1739.38	0.874
1748.69	0.873
1758	0.873
1767.31	0.876
1776.62	0.876
1785.92	0.876
1795.23	0.876
1804.54	0.876
1813.85	0.876
1823.15	0.876
1832.46	0.876
1841.77	0.87
1851.08	0.863
1860.38	0.873
1869.69	0.874
1879	0.873
1888.31	0.872
1897.62	0.871
1906.92	0.871
1916.23	0.871
1925.54	0.863
1934.85	0.86
1944.15	0.869
1953.46	0.872
1962.77	0.876
1972.08	0.873
1981.39	0.877
1990.69	0.877
2000	0.885
2009.31	0.887
2018.62	0.889
2027.92	0.892
2037.23	0.894
2046.54	0.894
2055.85	0.894
2065.15	0.894
2074.46	0.893
2083.77	0.892
2093.08	0.892
2102.39	0.892
2111.69	0.893
2121	0.895
2130.31	0.895
2139.62	0.895
2148.92	0.895
2158.23	0.896
2167.54	0.898
2176.85	0.898
2186.16	0.899
2195.46	0.9
2204.77	0.9
2214.08	0.9
2223.39	0.9
2232.69	0.9
2242	0.901
2251.31	0.902
2260.62	0.902
2269.93	0.903
2279.23	0.903
2288.54	0.9037
2297.85	0.904
2307.16	0.904
2316.46	0.903
2325.77	0.899
2335.08	0.898
2344.39	0.901
2353.69	0.9077
2363	0.91
2372.31	0.907
2381.62	0.901
2390.93	0.9016
2400.23	0.9026
2409.54	0.902
2418.85	0.9004
2428.16	0.899
2437.46	0.899
2446.77	0.9
2456.08	0.901
2465.39	0.8954
2474.7	0.893
2484	0.893
2493.31	0.8945
2502.62	0.8995
2511.93	0.9
2521.23	0.9
2530.54	0.9
2539.85	0.8985
2549.16	0.898
2558.47	0.899
2567.77	0.8985
2577.08	0.895
2586.39	0.892
2595.7	0.892
2605	0.891
2614.31	0.888
2623.62	0.886
2632.93	0.884
2642.23	0.881
2651.54	0.8804
2660.85	0.882
2670.16	0.884
2679.47	0.886
2688.77	0.8877
2698.08	0.8857
2707.39	0.8833
2716.7	0.879
2726	0.871
2735.31	0.871
2744.62	0.872
2753.93	0.8697
2763.24	0.8574
2772.54	0.8497
2781.85	0.8171
2791.16	0.7837
2800.47	0.7788
2809.77	0.7768
2819.08	0.7641
2828.39	0.7365
2837.7	0.6777
2847.01	0.4935
2856.31	0.3752
2865.62	0.3909
2874.93	0.2924
2884.24	0.4252
2893.54	0.3918
2902.85	0.313
2912.16	0.2414
2921.47	0.1588
2930.77	0.205
2940.08	0.2897
2949.39	0.1346
2958.7	0.0684
2968.01	0.2011
2977.31	0.5148
2986.62	0.6831
2995.93	0.7436
3005.24	0.7872
3014.54	0.8012
3023.85	0.812
3033.16	0.815
3042.47	0.822
3051.78	0.829
3061.08	0.84
3070.39	0.848
3079.7	0.85
3089.01	0.852
3098.31	0.852
3107.62	0.852
3116.93	0.852
3126.24	0.852
3135.55	0.851
3144.85	0.85
3154.16	0.851
3163.47	0.853
3172.78	0.858
3182.08	0.863
3191.39	0.867
3200.7	0.872
3210.01	0.8769
3219.31	0.8799
3228.62	0.8837
3237.93	0.8868
3247.24	0.891
3256.55	0.891
3265.85	0.892
3275.16	0.892
3284.47	0.893
3293.78	0.8938
3303.08	0.894
3312.39	0.895
3321.7	0.895
3331.01	0.895
3340.32	0.895
3349.62	0.895
3358.93	0.895
3368.24	0.895
3377.55	0.895
3386.85	0.895
3396.16	0.895
3405.47	0.8957
3414.78	0.896
3424.08	0.898
3433.39	0.898
3442.7	0.898
3452.01	0.898
3461.32	0.898
3470.62	0.898
3479.93	0.896
3489.24	0.895
3498.55	0.895
3507.85	0.895
3517.16	0.895
3526.47	0.895
3535.78	0.894
3545.09	0.894
3554.39	0.894
3563.7	0.893
3573.01	0.893
3582.32	0.893
3591.62	0.893
3600.93	0.893
3610.24	0.893
3619.55	0.892
3628.86	0.891
3638.16	0.888
3647.47	0.8855
3656.78	0.8854
3666.09	0.888
3675.39	0.888
3684.7	0.887
3694.01	0.886
3703.32	0.884
3712.62	0.882
3721.93	0.8806
3731.24	0.88
3740.55	0.8804
3749.86	0.881
3759.16	0.88
3768.47	0.879
3777.78	0.878
3787.09	0.8803
3796.39	0.8843
