Infrared Spectrum: n-BUTYL CHLORODIMETHYL SILANE
Formula: C6 H15 Cl Si
CAS: 1000-50-6
State: LIQUID
Class: COBLENTZ
Instrument: Not specified, most likely a prism, grating, or hybrid spectrometer.
Sampling: TRANSMISSION
Path length: 0.003 CM
Resolution: 4
Origin: WYANDOTTE CHEMICALS CORP., WYANDOTTE, MICHIGAN, USA
MICROMETERS	TRANSMITTANCE
2.066	0.991
2.10581	0.99
2.14562	0.981
2.18544	0.968
2.22525	0.958
2.26506	0.96
2.30487	0.965
2.34469	0.961
2.3845	0.963
2.42431	0.97
2.46412	0.971
2.50394	0.975
2.54375	0.971
2.58356	0.96
2.62337	0.958
2.66319	0.958
2.703	0.965
2.74281	0.971
2.78262	0.98
2.82244	0.98
2.86225	0.978
2.90206	0.975
2.94187	0.981
2.98168	0.983
3.0215	0.978
3.06131	0.966
3.10112	0.955
3.14093	0.933
3.18075	0.927
3.22056	0.903
3.26037	0.872
3.30018	0.552
3.34	0.092
3.37981	0.116
3.41962	0.318
3.45943	0.23
3.49925	0.696
3.53906	0.834
3.57887	0.875
3.61868	0.918
3.6585	0.93
3.69831	0.946
3.73812	0.958
3.77793	0.96
3.81775	0.966
3.85756	0.971
3.89737	0.976
3.93718	0.983
3.97699	0.983
4.01681	0.976
4.05662	0.978
4.09643	0.981
4.13624	0.983
4.17606	0.98
4.21587	0.983
4.25568	0.993
4.29549	0.993
4.33531	0.988
4.37512	0.985
4.41493	0.978
4.45474	0.98
4.49456	0.981
4.53437	0.981
4.57418	0.981
4.61399	0.981
4.65381	0.981
4.69362	0.978
4.73343	0.973
4.77324	0.973
4.81305	0.975
4.85287	0.973
4.89268	0.968
4.93249	0.966
4.9723	0.976
5.01212	0.973
5.05193	0.965
5.09174	0.966
5.13155	0.958
5.17137	0.956
5.21118	0.965
5.25099	0.96
5.2908	0.956
5.33062	0.975
5.37043	0.978
5.41024	0.975
5.45005	0.975
5.48987	0.98
5.52968	0.98
5.56949	0.98
5.6093	0.98
5.64911	0.976
5.68893	0.975
5.72874	0.97
5.76855	0.971
5.80836	0.961
5.84818	0.965
5.88799	0.965
5.9278	0.961
5.96761	0.955
6.00743	0.95
6.04724	0.951
6.08705	0.955
6.12686	0.956
6.16668	0.955
6.20649	0.953
6.2463	0.95
6.28611	0.943
6.32593	0.936
6.36574	0.927
6.40555	0.928
6.44536	0.92
6.48517	0.915
6.52499	0.91
6.5648	0.9
6.60461	0.885
6.64442	0.867
6.68424	0.832
6.72405	0.723
6.76386	0.441
6.80367	0.524
6.84349	0.65
6.8833	0.721
6.92311	0.751
6.96292	0.721
7.00274	0.613
7.04255	0.492
7.08236	0.542
7.12217	0.666
7.16199	0.709
7.2018	0.597
7.24161	0.751
7.28142	0.844
7.32124	0.845
7.36105	0.812
7.40086	0.733
7.44067	0.834
7.48048	0.875
7.5203	0.88
7.56011	0.868
7.59992	0.824
7.63973	0.736
7.67955	0.746
7.71936	0.767
7.75917	0.752
7.79898	0.661
7.8388	0.444
7.87861	0.162
7.91842	0.044
7.95823	0.155
7.99805	0.598
8.03786	0.749
8.07767	0.799
8.11748	0.84
8.1573	0.852
8.19711	0.847
8.23692	0.809
8.27673	0.762
8.31654	0.598
8.35636	0.58
8.39617	0.751
8.43598	0.726
8.47579	0.746
8.51561	0.825
8.55542	0.854
8.59523	0.849
8.63504	0.832
8.67486	0.824
8.71467	0.82
8.75448	0.799
8.79429	0.782
8.83411	0.744
8.87392	0.693
8.91373	0.658
8.95354	0.603
8.99336	0.514
9.03317	0.399
9.07298	0.316
9.11279	0.257
9.1526	0.194
9.19242	0.154
9.23223	0.185
9.27204	0.242
9.31185	0.303
9.35167	0.374
9.39148	0.475
9.43129	0.545
9.4711	0.595
9.51092	0.628
9.55073	0.635
9.59054	0.65
9.63035	0.651
9.67017	0.593
9.70998	0.529
9.74979	0.524
9.7896	0.623
9.82942	0.686
9.86923	0.704
9.90904	0.663
9.94885	0.643
9.98866	0.689
10.0285	0.726
10.0683	0.747
10.1081	0.781
10.1479	0.81
10.1877	0.819
10.2275	0.807
10.2674	0.784
10.3072	0.703
10.347	0.638
10.3868	0.688
10.4266	0.752
10.4664	0.781
10.5062	0.797
10.546	0.82
10.5859	0.834
10.6257	0.84
10.6655	0.842
10.7053	0.845
10.7451	0.844
10.7849	0.84
10.8247	0.825
10.8645	0.809
10.9043	0.791
10.9442	0.752
10.984	0.726
11.0238	0.681
11.0636	0.633
11.1034	0.601
11.1432	0.542
11.183	0.436
11.2228	0.31
11.2627	0.218
11.3025	0.192
11.3423	0.172
11.3821	0.165
11.4219	0.213
11.4617	0.262
11.5015	0.27
11.5413	0.215
11.5812	0.155
11.621	0.107
11.6608	0.072
11.7006	0.051
11.7404	0.041
11.7802	0.041
11.82	0.049
11.8598	0.056
11.8997	0.079
11.9395	0.096
11.9793	0.102
12.0191	0.111
12.0589	0.116
12.0987	0.107
12.1385	0.091
12.1783	0.066
12.2182	0.048
12.258	0.044
12.2978	0.044
12.3376	0.046
12.3774	0.048
12.4172	0.053
12.457	0.054
12.4968	0.074
12.5367	0.077
12.5765	0.071
12.6163	0.054
12.6561	0.054
12.6959	0.082
12.7357	0.159
12.7755	0.26
12.8153	0.325
12.8552	0.353
12.895	0.359
12.9348	0.389
12.9746	0.437
13.0144	0.497
13.0542	0.535
13.094	0.565
13.1338	0.565
13.1737	0.525
13.2135	0.5
13.2533	0.522
13.2931	0.555
13.3329	0.578
13.3727	0.59
13.4125	0.598
13.4523	0.616
13.4922	0.625
13.532	0.625
13.5718	0.616
13.6116	0.623
13.6514	0.633
13.6912	0.638
13.731	0.656
13.7708	0.661
13.8107	0.645
13.8505	0.618
13.8903	0.59
13.9301	0.545
13.9699	0.505
14.0097	0.487
14.0495	0.482
14.0893	0.487
14.1292	0.497
14.169	0.509
14.2088	0.525
14.2486	0.545
14.2884	0.568
14.3282	0.585
14.368	0.608
14.4078	0.63
14.4477	0.651
14.4875	0.676
14.5273	0.698
14.5671	0.718
14.6069	0.723
14.6467	0.726
14.6865	0.718
14.7263	0.699
14.7662	0.661
14.806	0.626
14.8458	0.61
14.8856	0.6
14.9254	0.598
14.9652	0.6
15.005	0.61
15.0448	0.613
15.0847	0.598
15.1245	0.588
15.1643	0.605
15.2041	0.626
15.2439	0.651
15.2837	0.666
15.3235	0.683
15.3633	0.684
15.4031	0.696
15.443	0.688
15.4828	0.665
15.5226	0.643
15.5624	0.633
15.6022	0.633
15.642	0.663
15.6818	0.701
15.7216	0.731
15.7615	0.747
15.8013	0.767
15.8411	0.782
15.8809	0.786
15.9207	0.789
15.9605	0.792
