Infrared Spectrum: 2,4-Dimethyl-2,3-pentadiene
Formula: C 7 H 12
CAS: 1000-87-9
State: gas
Instrument: HP-GC/MS/IRD
Origin: NIST Mass Spectrometry Data Center
1/CM	ABSORBANCE
550	0.000474
562	0.00018
574	0.002358
586	0.004488
598	0.001017
610	0.000132
622	0.000207
634	0.000201
646	6.3e-05
658	0.000261
670	0.000552
682	0.000903
694	0.001011
706	0.000732
718	0.00048
730	0.000285
742	0.000237
754	0.000261
766	0.00027
778	0.000213
790	0.000144
802	0.000258
814	0.000246
826	0.000339
838	0.000543
850	0.000363
862	0.000201
874	0.000231
886	0.000252
898	0.00024
910	0.000288
922	0.000297
934	0.000183
946	0.000294
958	0.00036
970	0.0003
982	0.000324
994	0.000435
1006	0.000423
1018	0.000441
1030	0.00045
1042	0.00066
1054	0.001212
1066	0.001974
1078	0.002916
1090	0.004395
1102	0.006471
1114	0.006666
1126	0.004113
1138	0.0018
1150	0.001347
1162	0.002139
1174	0.00336
1186	0.003573
1198	0.002244
1210	0.00132
1222	0.000864
1234	0.000507
1246	0.000399
1258	0.000435
1270	0.000495
1282	0.000705
1294	0.000834
1306	0.000861
1318	0.000786
1330	0.001017
1342	0.001623
1354	0.003102
1366	0.004758
1378	0.003777
1390	0.001794
1402	0.000921
1414	0.001359
1426	0.002652
1438	0.004593
1450	0.005625
1462	0.004653
1474	0.002742
1486	0.001407
1498	0.000852
1510	0.000552
1522	0.000441
1534	0.000441
1546	0.000552
1558	0.000618
1570	0.000627
1582	0.0006
1594	0.000552
1606	0.000471
1618	0.000411
1630	0.000345
1642	0.000318
1654	0.00018
1666	0.00018
1678	0.000111
1690	0.000117
1702	5.4e-05
1714	9.6e-05
1726	4.5e-05
1738	6e-05
1750	8.4e-05
1762	9.3e-05
1774	6e-05
1786	7.2e-05
1798	6e-05
1810	8.1e-05
1822	6.3e-05
1834	3e-05
1846	1.8e-05
1858	3e-05
1870	6.9e-05
1882	1.8e-05
1894	3.9e-05
1906	7.2e-05
1918	9.3e-05
1930	0.000102
1942	0.000108
1954	0.000117
1966	0.00012
1978	8.4e-05
1990	0.000114
2002	8.7e-05
2014	7.8e-05
2026	3.9e-05
2038	2.4e-05
2050	4.2e-05
2062	4.8e-05
2074	6.6e-05
2086	3.9e-05
2098	3.9e-05
2110	3.6e-05
2122	2.7e-05
2134	9e-06
2146	3.6e-05
2158	1.8e-05
2170	3e-06
2182	5.4e-05
2194	4.8e-05
2206	9e-05
2218	0.000102
2230	6.6e-05
2242	3.9e-05
2254	6.3e-05
2266	4.5e-05
2278	5.1e-05
2290	4.2e-05
2302	2.1e-05
2314	4.8e-05
2326	7.2e-05
2338	0.000111
2350	0.000105
2362	0.000102
2374	9.6e-05
2386	9e-05
2398	0.000156
2410	0.000189
2422	0.000132
2434	0.000135
2446	0.00012
2458	4.5e-05
2470	9.9e-05
2482	0.000114
2494	0.000108
2506	0.000186
2518	0.000129
2530	0.000204
2542	0.00027
2554	0.000312
2566	0.000261
2578	0.000186
2590	0.00018
2602	0.000189
2614	0.00018
2626	0.000186
2638	0.000207
2650	0.00021
2662	0.000204
2674	0.000231
2686	0.000297
2698	0.000456
2710	0.00093
2722	0.00123
2734	0.000996
2746	0.000831
2758	0.000861
2770	0.000801
2782	0.000984
2794	0.001398
2806	0.002019
2818	0.002811
2830	0.003975
2842	0.006078
2854	0.009966
2866	0.01473
2878	0.016749
2890	0.015933
2902	0.02007
2914	0.028104
2926	0.029337
2938	0.023331
2950	0.015762
2962	0.010296
2974	0.012573
2986	0.015735
2998	0.010905
3010	0.004182
3022	0.002499
3034	0.002508
3046	0.00279
3058	0.002853
3070	0.002724
3082	0.002544
3094	0.002169
3106	0.001719
3118	0.001317
3130	0.000972
3142	0.000681
3154	0.000558
3166	0.000411
3178	0.000297
3190	0.000258
3202	0.000255
3214	0.00021
3226	0.000234
3238	0.000192
3250	0.000189
3262	0.000243
3274	0.000306
3286	0.000306
3298	0.000201
3310	0.000219
3322	0.000306
3334	0.000267
3346	0.000294
3358	0.000237
3370	0.000264
3382	0.000207
3394	0.000189
3406	0.000177
3418	0.000117
3430	0.000141
3442	0.000135
3454	0.000159
3466	0.000141
3478	0.000108
3490	0.000183
3502	0.000141
3514	0.000132
3526	0.000165
3538	0.000126
3550	0.000123
3562	0.000132
3574	0.00018
3586	9.9e-05
3598	8.4e-05
3610	0.000123
3622	0.00012
3634	0.000105
3646	9.9e-05
3658	0.000102
3670	8.7e-05
3682	2.1e-05
3694	0.000105
3706	0.000168
3718	0.000141
3730	0.000123
3742	0.000183
3754	0.000171
3766	0.000156
3778	0.000135
3790	0.000159
3802	0.000213
3814	0.000288
3826	0.000234
3838	0.000174
