Infrared Spectrum: 9H-Purine, 9-cyclohex-2-enyl-6-hydrazino-
Formula: C11 H14 N6
CAS: 100058-19-3
State: SOLID (0.6 mg / 650 mg KBr DISC)
Class: COBLENTZ III
Instrument: PERKIN-ELMER 21 (GRATING)
Instrument parameters: FILTER CHANGE ABOUT 1090 CM^-^1
Sampling: TRANSMISSION
Resolution: 2
Origin: SOUTHERN RESEARCH INSTITUTE
1/CM	TRANSMITTANCE
602.773	0.6255
611.816	0.6096
620.859	0.5869
629.902	0.544
638.945	0.4635
647.988	0.4334
657.031	0.5868
666.074	0.5751
675.117	0.5481
684.16	0.5825
693.203	0.5948
702.246	0.5919
711.289	0.5756
720.332	0.5395
729.375	0.518
738.418	0.5896
747.461	0.6305
756.504	0.6105
765.547	0.5345
774.59	0.5533
783.633	0.5572
792.676	0.5845
801.719	0.7033
810.762	0.7084
819.805	0.7018
828.848	0.6713
837.891	0.5746
846.934	0.7078
855.977	0.7017
865.02	0.6806
874.063	0.5773
883.106	0.6298
892.149	0.6994
901.192	0.714
910.235	0.7286
919.278	0.7261
928.321	0.6669
937.364	0.5991
946.407	0.6039
955.45	0.5249
964.493	0.5343
973.536	0.6846
982.579	0.6949
991.622	0.6988
1000.67	0.7233
1009.71	0.7496
1018.75	0.7412
1027.79	0.7326
1036.84	0.7256
1045.88	0.7072
1054.92	0.706
1063.97	0.7219
1073.01	0.7337
1082.05	0.7184
1091.1	0.6246
1100.14	0.7175
1109.18	0.7253
1118.22	0.7026
1127.27	0.6523
1136.31	0.5469
1145.35	0.6001
1154.4	0.6533
1163.44	0.6451
1172.48	0.6057
1181.53	0.6449
1190.57	0.5843
1199.61	0.5244
1208.65	0.5606
1217.7	0.3298
1226.74	0.3973
1235.78	0.4461
1244.83	0.6226
1253.87	0.6177
1262.91	0.6374
1271.96	0.6469
1281	0.5954
1290.04	0.5153
1299.08	0.4473
1308.13	0.287
1317.17	0.3306
1326.21	0.3606
1335.26	0.4531
1344.3	0.604
1353.34	0.6373
1362.39	0.6297
1371.43	0.5835
1380.47	0.481
1389.51	0.5715
1398.56	0.6002
1407.6	0.5292
1416.64	0.5436
1425.69	0.5053
1434.73	0.6124
1443.77	0.5862
1452.82	0.5163
1461.86	0.4866
1470.9	0.3669
1479.94	0.3507
1488.99	0.3879
1498.03	0.6037
1507.07	0.6644
1516.12	0.6326
1525.16	0.6101
1534.2	0.623
1543.25	0.6438
1552.29	0.635
1561.33	0.5867
1570.37	0.506
1579.42	0.2724
1588.46	0.3192
1597.5	0.2686
1606.55	0.0709
1615.59	0.0602
1624.63	0.1325
1633.68	0.3001
1642.72	0.373
1651.76	0.487
1660.8	0.5917
1669.85	0.6586
1678.89	0.6968
1687.93	0.7213
1696.98	0.7397
1706.02	0.7476
1715.06	0.7588
1724.11	0.7686
1733.15	0.7748
1742.19	0.7791
1751.23	0.7855
1760.28	0.7918
1769.32	0.7987
1778.36	0.8002
1787.41	0.7992
1796.45	0.7969
1805.49	0.7944
1814.54	0.794
1823.58	0.7938
1832.62	0.7948
1841.66	0.7945
1850.71	0.7942
1859.75	0.7941
1868.79	0.7942
1877.84	0.7935
1886.88	0.7929
1895.92	0.7922
1904.97	0.7918
1914.01	0.7914
1923.05	0.7896
1932.09	0.7876
1941.14	0.7851
1950.18	0.7827
1959.22	0.7822
1968.27	0.7839
1977.31	0.7859
1986.35	0.7875
1995.4	0.7881
2004.44	0.7878
2013.48	0.7875
2022.52	0.7873
2031.57	0.7875
2040.61	0.7874
2049.65	0.7872
2058.7	0.7868
2067.74	0.7864
2076.78	0.7864
2085.83	0.787
2094.87	0.7875
2103.91	0.7876
2112.95	0.7873
2122	0.7879
2131.04	0.7887
2140.08	0.7902
2149.13	0.7917
2158.17	0.7927
2167.21	0.7936
2176.26	0.7943
2185.3	0.7949
2194.34	0.7955
2203.38	0.7961
2212.43	0.7964
2221.47	0.7968
2230.51	0.7971
2239.56	0.7973
2248.6	0.7975
2257.64	0.7984
2266.69	0.7953
2275.73	0.7927
2284.77	0.7947
2293.81	0.7967
2302.86	0.7985
2311.9	0.7993
2320.94	0.7991
2329.99	0.7985
2339.03	0.7979
2348.07	0.7972
2357.12	0.7974
2366.16	0.7981
2375.2	0.7986
2384.24	0.8006
2393.29	0.8031
2402.33	0.8026
2411.37	0.8016
2420.42	0.8008
2429.46	0.8
2438.5	0.7983
2447.55	0.7973
2456.59	0.7992
2465.63	0.8004
2474.67	0.7967
2483.72	0.7951
2492.76	0.7938
2501.8	0.7925
2510.85	0.7912
2519.89	0.7908
2528.93	0.7913
2537.98	0.791
2547.02	0.7898
2556.06	0.7861
2565.1	0.7827
2574.15	0.7822
2583.19	0.7833
2592.23	0.7826
2601.28	0.7781
2610.32	0.7766
2619.36	0.7817
2628.41	0.7773
2637.45	0.7726
2646.49	0.7714
2655.54	0.7709
2664.58	0.7699
2673.62	0.7684
2682.66	0.7664
2691.71	0.7678
2700.75	0.7699
2709.79	0.7734
2718.84	0.7688
2727.88	0.7591
2736.92	0.7545
2745.97	0.7544
2755.01	0.751
2764.05	0.744
2773.09	0.7288
2782.14	0.7245
2791.18	0.7187
2800.22	0.7084
2809.27	0.6922
2818.31	0.6662
2827.35	0.6416
2836.4	0.6287
2845.44	0.6121
2854.48	0.5964
2863.52	0.595
2872.57	0.5953
2881.61	0.5954
2890.65	0.5788
2899.7	0.5575
2908.74	0.5122
2917.78	0.4646
2926.83	0.4565
2935.87	0.4582
2944.91	0.4805
2953.95	0.521
2963	0.5466
2972.04	0.559
2981.08	0.5666
2990.13	0.5783
2999.17	0.5755
3008.21	0.5689
3017.26	0.5568
3026.3	0.5416
3035.34	0.5464
3044.38	0.5598
3053.43	0.567
3062.47	0.5688
3071.51	0.5692
3080.56	0.5687
3089.6	0.5681
3098.64	0.5675
3107.69	0.5598
3116.73	0.5437
3125.77	0.5336
3134.81	0.5308
3143.86	0.5173
3152.9	0.4974
3161.94	0.4748
3170.99	0.4523
3180.03	0.439
3189.07	0.4339
3198.12	0.4298
3207.16	0.4242
3216.2	0.4247
3225.24	0.4253
3234.29	0.4205
3243.33	0.4115
3252.37	0.4061
3261.42	0.4046
3270.46	0.4066
3279.5	0.4158
3288.55	0.4378
3297.59	0.4676
3306.63	0.4879
3315.67	0.5175
3324.72	0.533
3333.76	0.5839
3342.8	0.6016
3351.85	0.6078
3360.89	0.6204
3369.93	0.6188
3378.98	0.6166
3388.02	0.6137
3397.06	0.6086
3406.1	0.6048
3415.15	0.6023
3424.19	0.5998
3433.23	0.5978
3442.28	0.6027
3451.32	0.6046
3460.36	0.6072
3469.41	0.6136
3478.45	0.6089
3487.49	0.6214
3496.53	0.6265
3505.58	0.6324
3514.62	0.6412
3523.66	0.6426
3532.71	0.6505
3541.75	0.6551
3550.79	0.6764
3559.84	0.6829
3568.88	0.6897
3577.92	0.6944
3586.96	0.7024
3596.01	0.7175
3605.05	0.7214
3614.09	0.7253
3623.14	0.7305
3632.18	0.7373
3641.22	0.7446
3650.27	0.7518
3659.31	0.7621
3668.35	0.7695
3677.39	0.7678
3686.44	0.7683
3695.48	0.7753
3704.52	0.7716
3713.57	0.7714
3722.61	0.7717
3731.65	0.7737
3740.7	0.7775
3749.74	0.7824
3758.78	0.786
3767.82	0.7824
3776.87	0.7774
3785.91	0.777
3794.95	0.7778
3804	0.7741
3813.04	0.7771
3822.08	0.7795
3831.13	0.7756
3840.17	0.7706
3849.21	0.7744
3858.25	0.7768
3867.3	0.7737
3876.34	0.7745
3885.38	0.7782
3894.43	0.7798
3903.47	0.7795
3912.51	0.772
3921.56	0.7639
3930.6	0.7642
3939.64	0.7644
3948.68	0.7639
3957.73	0.7627
3966.77	0.762
3975.81	0.7618
3984.86	0.7598
3993.9	0.7563
4002.94	0.7589
4011.99	0.7585
