Infrared Spectrum: Acetanilide, 2-chloro-4-tert-butyl-
Formula: C12 H16 Cl N O
CAS: 100141-30-8
State: SOLID (NUJOL MULL)
Class: COBLENTZ III
Instrument: BECKMAN IR-4 (HYBRID PRISM-GRATING)
Instrument parameters: NaCl PRISM
Sampling: TRANSMISSION
Resolution: 2
Origin: MONSANTO (J. FREEMAN)
1/CM	TRANSMITTANCE
625.336	0.8903
634.149	0.9064
642.962	0.9201
651.775	0.9199
660.589	0.91
669.402	0.8495
678.215	0.7533
687.028	0.7761
695.841	0.6639
704.654	0.5861
713.468	0.6608
722.281	0.7609
731.094	0.7857
739.907	0.8411
748.72	0.8737
757.533	0.8039
766.346	0.8982
775.16	0.9306
783.973	0.9428
792.786	0.9517
801.599	0.9547
810.412	0.9535
819.225	0.9319
828.039	0.7952
836.852	0.8631
845.665	0.9461
854.478	0.9561
863.291	0.9319
872.104	0.5774
880.918	0.7473
889.731	0.8897
898.544	0.9629
907.357	0.9687
916.17	0.9633
924.983	0.9536
933.796	0.9564
942.61	0.9657
951.423	0.9496
960.236	0.9534
969.049	0.8864
977.862	0.9478
986.675	0.9612
995.489	0.9619
1004.3	0.9437
1013.11	0.8324
1021.93	0.8949
1030.74	0.9392
1039.55	0.8864
1048.37	0.8997
1057.18	0.5817
1065.99	0.9225
1074.81	0.9496
1083.62	0.9643
1092.43	0.9699
1101.25	0.968
1110.06	0.9209
1118.87	0.9062
1127.69	0.9717
1136.5	0.9711
1145.31	0.9642
1154.13	0.9578
1162.94	0.956
1171.75	0.9595
1180.56	0.9626
1189.38	0.952
1198.19	0.9247
1207	0.8907
1215.82	0.938
1224.63	0.9305
1233.44	0.8855
1242.26	0.831
1251.07	0.8737
1259.88	0.8173
1268.7	0.6252
1277.51	0.4663
1286.32	0.7437
1295.14	0.7559
1303.95	0.488
1312.76	0.1509
1321.58	0.4296
1330.39	0.7657
1339.2	0.8356
1348.01	0.8362
1356.83	0.8259
1365.64	0.7084
1374.45	0.4079
1383.27	0.3955
1392.08	0.2804
1400.89	0.6446
1409.71	0.7834
1418.52	0.7984
1427.33	0.7409
1436.15	0.6527
1444.96	0.5699
1453.77	0.4804
1462.59	0.3828
1471.4	0.3967
1480.21	0.5341
1489.03	0.5111
1497.84	0.5005
1506.65	0.507
1515.46	0.5263
1524.28	0.4196
1533.09	0.29
1541.9	0.2251
1550.72	0.4354
1559.53	0.5331
1568.34	0.5955
1577.16	0.4991
1585.97	0.2379
1594.78	0.4075
1603.6	0.6068
1612.41	0.7288
1621.22	0.7647
1630.04	0.6938
1638.85	0.579
1647.66	0.4082
1656.48	0.2424
1665.29	0.1215
1674.1	0.317
1682.91	0.5706
1691.73	0.7613
1700.54	0.8373
1709.35	0.8915
1718.17	0.9405
1726.98	0.9522
1735.79	0.9557
1744.61	0.9539
1753.42	0.9539
1762.23	0.9668
1771.05	0.9677
1779.86	0.9665
1788.67	0.9663
1797.49	0.9671
1806.3	0.9686
1815.11	0.9687
1823.93	0.9693
1832.74	0.9695
1841.55	0.9695
1850.36	0.9728
1859.18	0.9698
1867.99	0.9701
1876.8	0.9705
1885.62	0.9707
1894.43	0.97
1903.24	0.9669
1912.06	0.962
1920.87	0.9627
1929.68	0.9641
1938.5	0.9659
1947.31	0.9671
1956.12	0.9692
1964.94	0.9707
1973.75	0.9704
1982.56	0.9693
1991.38	0.9689
2000.19	0.9687
2009	0.9689
2017.81	0.9692
2026.63	0.9694
2035.44	0.9693
2044.25	0.9692
2053.07	0.969
2061.88	0.9688
2070.69	0.9685
2079.51	0.9683
2088.32	0.9679
2097.13	0.9675
2105.95	0.9671
2114.76	0.9667
2123.57	0.9664
2132.39	0.966
2141.2	0.9655
2150.01	0.965
2158.83	0.9644
2167.64	0.964
2176.45	0.9635
2185.26	0.9629
2194.08	0.9624
2202.89	0.9617
2211.7	0.9612
2220.52	0.9605
2229.33	0.9603
2238.14	0.9602
2246.96	0.9602
2255.77	0.9606
2264.58	0.9612
2273.4	0.9605
2282.21	0.9588
2291.02	0.9563
2299.84	0.9553
2308.65	0.9544
2317.46	0.9546
2326.27	0.9551
2335.09	0.9558
2343.9	0.9564
2352.71	0.9573
2361.53	0.9582
2370.34	0.958
2379.15	0.9576
2387.97	0.957
2396.78	0.9559
2405.59	0.9547
2414.41	0.9536
2423.22	0.9521
2432.03	0.9507
2440.85	0.9502
2449.66	0.95
2458.47	0.9497
2467.29	0.9495
2476.1	0.9492
2484.91	0.9489
2493.72	0.9487
2502.54	0.9484
2511.35	0.9482
2520.16	0.9475
2528.98	0.9469
2537.79	0.9456
2546.6	0.9431
2555.42	0.9406
2564.23	0.9382
2573.04	0.936
2581.86	0.9339
2590.67	0.9318
2599.48	0.9297
2608.3	0.9279
2617.11	0.9262
2625.92	0.9244
2634.74	0.9227
2643.55	0.9212
2652.36	0.9196
2661.17	0.918
2669.99	0.9165
2678.8	0.9151
2687.61	0.9135
2696.43	0.9121
2705.24	0.9106
2714.05	0.9092
2722.87	0.9072
2731.68	0.905
2740.49	0.9028
2749.31	0.9006
2758.12	0.8984
2766.93	0.8961
2775.75	0.892
2784.56	0.8789
2793.37	0.8668
2802.19	0.8541
2811	0.8363
2819.81	0.8142
2828.62	0.7842
2837.44	0.7276
2846.25	0.6998
2855.06	0.5885
2863.88	0.2148
2872.69	0.2127
2881.5	0.2116
2890.32	0.2102
2899.13	0.2016
2907.94	0.141
2916.76	0.0812
2925.57	0.0669
2934.38	0.0641
2943.2	0.0652
2952.01	0.0695
2960.82	0.129
2969.64	0.2025
2978.45	0.2754
2987.26	0.348
2996.07	0.4201
3004.89	0.4918
3013.7	0.5463
3022.51	0.5524
3031.33	0.5563
3040.14	0.5607
3048.95	0.569
3057.77	0.5906
3066.58	0.6086
3075.39	0.6132
3084.21	0.6139
3093.02	0.6159
3101.83	0.6595
3110.65	0.6635
3119.46	0.6642
3128.27	0.657
3137.09	0.6439
3145.9	0.631
3154.71	0.6181
3163.52	0.6157
3172.34	0.6066
3181.15	0.5831
3189.96	0.5597
3198.78	0.5366
3207.59	0.5135
3216.4	0.4905
3225.22	0.4729
3234.03	0.4637
3242.84	0.4615
3251.66	0.4626
3260.47	0.4672
3269.28	0.4857
3278.1	0.5101
3286.91	0.5557
3295.72	0.6011
3304.54	0.6463
3313.35	0.6912
3322.16	0.7358
3330.97	0.7626
3339.79	0.7758
3348.6	0.7885
3357.41	0.8187
3366.23	0.8381
3375.04	0.8599
3383.85	0.872
3392.67	0.8797
3401.48	0.8843
3410.29	0.8884
3419.11	0.8914
3427.92	0.8937
3436.73	0.8952
3445.55	0.8957
3454.36	0.8961
3463.17	0.8965
3471.99	0.8967
3480.8	0.8968
3489.61	0.8968
3498.42	0.8969
3507.24	0.8969
3516.05	0.8969
3524.86	0.8969
3533.68	0.8969
3542.49	0.8969
3551.3	0.8969
3560.12	0.8969
3568.93	0.8968
3577.74	0.8967
3586.56	0.8992
3595.37	0.8965
3604.18	0.8964
3613	0.8963
3621.81	0.8962
3630.62	0.8961
3639.44	0.896
3648.25	0.896
3657.06	0.8958
3665.87	0.8957
3674.69	0.8957
3683.5	0.8956
3692.31	0.8954
3701.13	0.8954
3709.94	0.8953
3718.75	0.8952
3727.57	0.8951
3736.38	0.8948
3745.19	0.8944
3754.01	0.894
3762.82	0.8936
3771.63	0.8933
3780.45	0.8929
3789.26	0.8925
3798.07	0.8921
3806.89	0.8917
3815.7	0.8913
3824.51	0.8908
3833.32	0.8902
3842.14	0.8897
3850.95	0.8891
3859.76	0.8886
3868.58	0.8882
3877.39	0.8876
3886.2	0.8871
3895.02	0.8865
3903.83	0.8858
3912.64	0.8852
3921.46	0.8847
