Infrared Spectrum: 2-(4-CHLORO-O-TOLOXY)ETHYL Alpha,Alpha-DICHLOROPROPIONATE
Formula: C12 H13 Cl3 O3
CAS: 100120-21-6
State: SOLUTION (10% CCl4 FOR 5000-1330, 10% CS2 FOR 1330-625 CM^-^1)
Class: COBLENTZ
Instrument: Not specified, most likely a prism, grating, or hybrid spectrometer.
Sampling: TRANSMISSION
Path length: 0.0121 CM, 0.0116 CM
Resolution: 4
Origin: DOW CHEMICAL COMPANY
MICROMETERS	TRANSMITTANCE
2.068	0.873
2.10896	0.873
2.14991	0.871
2.19087	0.87
2.23183	0.859
2.27279	0.847
2.31374	0.856
2.3547	0.858
2.39566	0.863
2.43662	0.864
2.47757	0.871
2.51853	0.875
2.55949	0.875
2.60045	0.88
2.6414	0.885
2.68236	0.878
2.72332	0.875
2.76428	0.851
2.80523	0.844
2.84619	0.834
2.88715	0.822
2.92811	0.829
2.96906	0.832
3.01002	0.839
3.05098	0.841
3.09194	0.844
3.13289	0.847
3.17385	0.859
3.21481	0.849
3.25576	0.837
3.29672	0.823
3.33768	0.776
3.37864	0.651
3.41959	0.637
3.46055	0.74
3.50151	0.818
3.54247	0.864
3.58342	0.873
3.62438	0.873
3.66534	0.876
3.7063	0.888
3.74725	0.887
3.78821	0.892
3.82917	0.888
3.87013	0.888
3.91108	0.882
3.95204	0.878
3.993	0.88
4.03396	0.876
4.07491	0.888
4.11587	0.888
4.15683	0.883
4.19779	0.878
4.23874	0.883
4.2797	0.887
4.32066	0.885
4.36162	0.875
4.40257	0.885
4.44353	0.888
4.48449	0.894
4.52544	0.897
4.5664	0.899
4.60736	0.895
4.64832	0.89
4.68927	0.887
4.73023	0.885
4.77119	0.89
4.81215	0.89
4.8531	0.89
4.89406	0.892
4.93502	0.89
4.97598	0.878
5.01693	0.885
5.05789	0.89
5.09885	0.892
5.13981	0.892
5.18076	0.892
5.22172	0.892
5.26268	0.892
5.30364	0.892
5.34459	0.89
5.38555	0.882
5.42651	0.861
5.46747	0.854
5.50842	0.859
5.54938	0.827
5.59034	0.76
5.63129	0.524
5.67225	0.261
5.71321	0.1
5.75417	0.309
5.79512	0.735
5.83608	0.788
5.87704	0.82
5.918	0.858
5.95895	0.868
5.99991	0.876
6.04087	0.871
6.08183	0.866
6.12278	0.856
6.16374	0.829
6.2047	0.774
6.24566	0.622
6.28661	0.594
6.32757	0.581
6.36853	0.572
6.40949	0.519
6.45044	0.476
6.4914	0.471
6.53236	0.552
6.57332	0.574
6.61427	0.572
6.65523	0.468
6.69619	0.172
6.73714	0.22
6.7781	0.435
6.81906	0.54
6.86002	0.442
6.90097	0.432
6.94193	0.49
6.98289	0.682
7.02385	0.719
7.0648	0.697
7.10576	0.593
7.14672	0.55
7.18768	0.7
7.22863	0.564
7.26959	0.593
7.31055	0.738
7.35151	0.805
7.39246	0.817
7.43342	0.776
7.47438	0.767
7.51534	0.782
7.55629	0.747
7.59725	0.673
7.63821	0.543
7.67917	0.42
7.72012	0.311
7.76108	0.307
7.80204	0.292
7.84299	0.2
7.88395	0.141
7.92491	0.141
7.96587	0.138
8.00682	0.052
8.04778	0.027
8.08874	0.092
8.1297	0.21
8.17065	0.415
8.21161	0.591
8.25257	0.651
8.29353	0.664
8.33448	0.553
8.37544	0.275
8.4164	0.141
8.45736	0.48
8.49831	0.632
8.53927	0.67
8.58023	0.676
8.62119	0.678
8.66214	0.652
8.7031	0.594
8.74406	0.495
8.78502	0.254
8.82597	0.104
8.86693	0.082
8.90789	0.143
8.94885	0.181
8.9898	0.215
9.03076	0.259
9.07172	0.358
9.11267	0.439
9.15363	0.4
9.19459	0.312
9.23555	0.288
9.2765	0.3
9.31746	0.246
9.35842	0.239
9.39938	0.382
9.44033	0.524
9.48129	0.593
9.52225	0.611
9.56321	0.611
9.60416	0.576
9.64512	0.562
9.68608	0.584
9.72704	0.63
9.76799	0.694
9.80895	0.743
9.84991	0.782
9.89087	0.808
9.93182	0.815
9.97278	0.798
10.0137	0.733
10.0547	0.687
10.0957	0.7
10.1366	0.752
10.1776	0.782
10.2185	0.815
10.2595	0.829
10.3004	0.841
10.3414	0.849
10.3824	0.849
10.4233	0.839
10.4643	0.822
10.5052	0.793
10.5462	0.76
10.5871	0.729
10.6281	0.704
10.6691	0.699
10.71	0.699
10.751	0.702
10.7919	0.74
10.8329	0.772
10.8738	0.779
10.9148	0.781
10.9558	0.776
10.9967	0.764
11.0377	0.758
11.0786	0.757
11.1196	0.753
11.1605	0.743
11.2015	0.74
11.2425	0.733
11.2834	0.692
11.3244	0.622
11.3653	0.512
11.4063	0.386
11.4472	0.229
11.4882	0.241
11.5292	0.413
11.5701	0.485
11.6111	0.536
11.652	0.562
11.693	0.577
11.7339	0.593
11.7749	0.613
11.8159	0.649
11.8568	0.694
11.8978	0.738
11.9387	0.77
11.9797	0.789
12.0207	0.798
12.0616	0.803
12.1026	0.801
12.1435	0.784
12.1845	0.769
12.2254	0.75
12.2664	0.736
12.3074	0.712
12.3483	0.666
12.3893	0.589
12.4302	0.494
12.4712	0.347
12.5121	0.229
12.5531	0.256
12.5941	0.442
12.635	0.577
12.676	0.629
12.7169	0.651
12.7579	0.664
12.7988	0.678
12.8398	0.688
12.8808	0.695
12.9217	0.699
12.9627	0.675
13.0036	0.652
13.0446	0.666
13.0855	0.717
13.1265	0.745
13.1675	0.76
13.2084	0.765
13.2494	0.769
13.2903	0.769
13.3313	0.762
13.3722	0.75
13.4132	0.745
13.4542	0.728
13.4951	0.711
13.5361	0.682
13.577	0.646
13.618	0.608
13.6589	0.589
13.6999	0.576
13.7409	0.57
13.7818	0.579
13.8228	0.601
13.8637	0.62
13.9047	0.635
13.9456	0.644
13.9866	0.651
14.0276	0.649
14.0685	0.644
14.1095	0.639
14.1504	0.634
14.1914	0.63
14.2324	0.627
14.2733	0.617
14.3143	0.608
14.3552	0.6
14.3962	0.588
14.4371	0.577
14.4781	0.569
14.5191	0.557
14.56	0.543
14.601	0.524
14.6419	0.509
14.6829	0.499
14.7238	0.483
14.7648	0.463
14.8058	0.435
14.8467	0.415
14.8877	0.394
14.9286	0.362
14.9696	0.309
15.0105	0.232
15.0515	0.165
15.0925	0.133
15.1334	0.123
15.1744	0.129
15.2153	0.153
15.2563	0.188
15.2972	0.223
15.3382	0.251
15.3792	0.278
15.4201	0.295
15.4611	0.309
15.502	0.319
15.543	0.328
15.5839	0.335
15.6249	0.341
15.6659	0.352
15.7068	0.358
15.7478	0.362
15.7887	0.362
15.8297	0.365
15.8706	0.365
