Infrared Spectrum: 6-Pentadecanone
Formula: C 15 H 30 O
CAS: 1001-45-2
State: gas
Origin: EPA-IR VAPOR PHASE LIBRARY
1/CM	ABSORBANCE
549.8	0.001711
559.445	0.001661
569.09	0.001281
578.734	0.001131
588.379	0.001131
598.024	0.001331
607.669	0.001241
617.313	0.001261
626.958	0.001421
636.603	0.001261
646.248	0.0009729
655.893	0.001181
665.537	0.0007684
675.182	0.001291
684.827	0.001291
694.472	0.001911
704.116	0.003301
713.761	0.004791
723.406	0.006131
733.051	0.006021
742.695	0.005211
752.34	0.004111
761.985	0.003811
771.63	0.003021
781.275	0.002761
790.919	0.002211
800.564	0.001741
810.209	0.001711
819.854	0.002081
829.498	0.001931
839.143	0.002141
848.788	0.002251
858.433	0.002261
868.078	0.002371
877.722	0.002541
887.367	0.003141
897.012	0.003031
906.657	0.003301
916.301	0.003471
925.946	0.003431
935.591	0.003711
945.236	0.004181
954.88	0.004511
964.525	0.004841
974.17	0.004761
983.815	0.005031
993.46	0.005581
1003.1	0.006351
1012.75	0.007681
1022.39	0.008421
1032.04	0.009331
1041.68	0.010821
1051.33	0.011471
1060.97	0.012281
1070.62	0.013281
1080.26	0.012361
1089.91	0.010171
1099.55	0.009221
1109.2	0.009331
1118.84	0.013111
1128.49	0.015411
1138.13	0.015551
1147.78	0.013841
1157.42	0.011241
1167.07	0.009981
1176.71	0.010221
1186.36	0.010301
1196	0.010171
1205.64	0.011291
1215.29	0.010921
1224.93	0.011171
1234.58	0.010261
1244.22	0.009851
1253.87	0.009571
1263.51	0.009611
1273.16	0.011101
1282.8	0.011601
1292.45	0.013081
1302.09	0.013951
1311.74	0.013731
1321.38	0.013891
1331.03	0.016241
1340.67	0.021271
1350.32	0.025811
1359.96	0.026861
1369.61	0.021771
1379.25	0.016431
1388.9	0.013251
1398.54	0.010751
1408.18	0.012431
1417.83	0.014851
1427.47	0.015221
1437.12	0.017251
1446.76	0.022681
1456.41	0.030101
1466.05	0.029391
1475.7	0.018301
1485.34	0.009601
1494.99	0.006061
1504.63	0.004161
1514.28	0.003371
1523.92	0.002561
1533.57	0.002221
1543.21	0.001871
1552.86	0.001701
1562.5	0.001641
1572.15	0.001541
1581.79	0.001441
1591.44	0.001471
1601.08	0.001341
1610.73	0.001401
1620.37	0.001581
1630.01	0.001861
1639.66	0.002021
1649.3	0.002331
1658.95	0.003071
1668.59	0.004031
1678.24	0.006081
1687.88	0.009231
1697.53	0.015991
1707.17	0.033371
1716.82	0.068201
1726.46	0.085451
1736.11	0.045821
1745.75	0.018061
1755.4	0.008841
1765.04	0.005361
1774.69	0.003521
1784.33	0.002451
1793.98	0.001921
1803.62	0.001471
1813.27	0.001241
1822.91	0.0010022
1832.55	0.0009284
1842.2	0.000892
1851.84	0.0007758
1861.49	0.0007259
1871.13	0.0007048
1880.78	0.0006564
1890.42	0.0006228
1900.07	0.0006379
1909.71	0.0005734
1919.36	0.0004475
1929	0.0005396
1938.65	0.0004761
1948.29	0.000522
1957.94	0.0003941
1967.58	0.0004836
1977.23	0.0005824
1986.87	0.0004121
1996.52	0.0006121
2006.16	0.0005861
2015.81	0.0005794
2025.45	0.0007812
2035.1	0.0008398
2044.74	0.0007605
2054.38	0.0007808
2064.03	0.0007203
2073.67	0.0006408
2083.32	0.0006614
2092.96	0.000776
2102.61	0.0006711
2112.25	0.0006614
2121.9	0.0008341
2131.54	0.0007105
2141.19	0.0007209
2150.83	0.0008253
2160.48	0.0007449
2170.12	0.0007562
2179.77	0.0007987
2189.41	0.0008141
2199.06	0.000783
2208.7	0.0008053
2218.35	0.0007988
2227.99	0.0006984
2237.64	0.000637
2247.28	0.0006705
2256.92	0.0007631
2266.57	0.0005436
2276.21	0.0007033
2285.86	0.000814
2295.5	0.0007281
2305.15	0.0006371
2314.79	0.0007215
2324.44	0.0007123
2334.08	0.0006867
2343.73	0.0006653
2353.37	0.000784
2363.02	0.0007489
2372.66	0.0006716
2382.31	0.0006665
2391.95	0.000734
2401.6	0.000723
2411.24	0.0008929
2420.89	0.0007257
2430.53	0.0006747
2440.18	0.0007351
2449.82	0.0007039
2459.47	0.0007787
2469.11	0.0005576
2478.75	0.0006074
2488.4	0.0008652
2498.04	0.0006767
2507.69	0.0008207
2517.33	0.0007871
2526.98	0.0009223
2536.62	0.001087
2546.27	0.001141
2555.91	0.001121
2565.56	0.001291
2575.2	0.001461
2584.85	0.001441
2594.49	0.001451
2604.14	0.001621
2613.78	0.001721
2623.43	0.001911
2633.07	0.002231
2642.72	0.002481
2652.36	0.002591
2662.01	0.003031
2671.65	0.003261
2681.29	0.003371
2690.94	0.003311
2700.58	0.003281
2710.23	0.003111
2719.87	0.003491
2729.52	0.003541
2739.16	0.004361
2748.81	0.004421
2758.45	0.004731
2768.1	0.004931
2777.74	0.005751
2787.39	0.006991
2797.03	0.008671
2806.68	0.010941
2816.32	0.013611
2825.97	0.017451
2835.61	0.024441
2845.26	0.039731
2854.9	0.076781
2864.55	0.112391
2874.19	0.104441
2883.84	0.095601
2893.48	0.091491
2903.12	0.106241
2912.77	0.143461
2922.41	0.215331
2932.06	0.291581
2941.7	0.259661
2951.35	0.191561
2960.99	0.168371
2970.64	0.146821
2980.28	0.076961
2989.93	0.040321
2999.57	0.024881
3009.22	0.017541
3018.86	0.012901
3028.51	0.010321
3038.15	0.008341
3047.8	0.006701
3057.44	0.005671
3067.09	0.004811
3076.73	0.004261
3086.38	0.003891
3096.02	0.003491
3105.67	0.003151
3115.31	0.002821
3124.95	0.002661
3134.6	0.002311
3144.24	0.002171
3153.89	0.001911
3163.53	0.001811
3173.18	0.001901
3182.82	0.001741
3192.47	0.001451
3202.11	0.001261
3211.76	0.0009586
3221.4	0.000925
3231.05	0.0010557
3240.69	0.0009473
3250.34	0.0005117
3259.98	0.0006301
3269.63	0.0008452
3279.27	0.0005008
3288.92	0.0005935
3298.56	0.0004825
3308.21	0.0006949
3317.85	0.0004359
3327.49	0.0004865
3337.14	0.0005335
3346.78	0.0004502
3356.43	0.0006622
3366.07	0.0005045
3375.72	0.0005437
3385.36	0.0005294
3395.01	0.0007915
3404.65	0.001131
3414.3	0.001511
3423.94	0.001721
3433.59	0.001701
3443.23	0.001301
3452.88	0.0009231
3462.52	0.0005215
3472.17	0.0004383
3481.81	0.0002891
3491.46	0.0005292
3501.1	1.25e-05
3510.75	0.00019542
3520.39	0.00014973
3530.04	0.00017575
3539.68	0.00019929
3549.32	0.0004652
3558.97	0.0003477
3568.61	0.0004044
3578.26	0.0003337
3587.9	0.0002836
3597.55	0.0003101
3607.19	0.00017952
3616.84	0.0005512
3626.48	0.0004845
3636.13	0.0006012
3645.77	0.0006127
3655.42	0.0007556
3665.06	0.0006457
3674.71	0.0004098
3684.35	0.0005246
3694	0.0006963
3703.64	0.000636
3713.29	0.0005446
3722.93	0.0005535
3732.58	0.0005198
3742.22	0.0003206
3751.86	0.0004176
3761.51	0.0006149
3771.15	0.0004253
3780.8	0.0006501
3790.44	0.0006825
3800.09	0.0006811
3809.73	0.0005521
3819.38	0.0007976
3829.02	0.0006902
3838.67	0.0004116
3848.31	0.0006056
3857.96	0.000757
3867.6	0.0006512
3877.25	0.0006072
3886.89	0.0006275
3896.54	0.0005614
3906.18	0.000776
3915.83	0.0006909
3925.47	0.0007751
3935.12	0.0008576
3944.76	0.0008256
3954.41	0.000777
3964.05	0.001151
3973.69	0.0008355
3983.34	0.0008152
3992.98	0.0009997
