Infrared Spectrum: 4-P-BROMOANILINO-6-METHYL-1,3,3a,7-TETRAZAINDENE
Formula: C12 H10 Br N5
CAS: 100123-38-4
State: SOLID (KBr PRESSING)
Melting point: 265 C
Class: COBLENTZ
Instrument: Not specified, most likely a prism, grating, or hybrid spectrometer.
Sampling: TRANSMISSION
Resolution: 4
Origin: EASTMAN KODAK COMPANY, RESEARCH LABORATORIES, ROCHESTER, N.Y.
MICROMETERS	TRANSMITTANCE
2.092	0.816
2.12719	0.816
2.16238	0.818
2.19756	0.82
2.23275	0.82
2.26794	0.82
2.30313	0.821
2.33831	0.825
2.3735	0.83
2.40869	0.832
2.44388	0.834
2.47907	0.835
2.51425	0.835
2.54944	0.835
2.58463	0.839
2.61982	0.842
2.65501	0.844
2.69019	0.842
2.72538	0.828
2.76057	0.783
2.79576	0.727
2.83094	0.673
2.86613	0.628
2.90132	0.617
2.93651	0.635
2.9717	0.673
3.00688	0.713
3.04207	0.729
3.07726	0.708
3.11245	0.684
3.14763	0.675
3.18282	0.659
3.21801	0.631
3.2532	0.605
3.28839	0.617
3.32357	0.619
3.35876	0.603
3.39395	0.591
3.42914	0.603
3.46432	0.642
3.49951	0.67
3.5347	0.703
3.56989	0.726
3.60508	0.743
3.64026	0.773
3.67545	0.788
3.71064	0.813
3.74583	0.823
3.78102	0.839
3.8162	0.848
3.85139	0.856
3.88658	0.867
3.92177	0.869
3.95695	0.87
3.99214	0.876
4.02733	0.879
4.06252	0.883
4.09771	0.886
4.13289	0.891
4.16808	0.891
4.20327	0.891
4.23846	0.891
4.27364	0.89
4.30883	0.898
4.34402	0.902
4.37921	0.902
4.4144	0.904
4.44958	0.905
4.48477	0.905
4.51996	0.905
4.55515	0.905
4.59034	0.907
4.62552	0.907
4.66071	0.909
4.6959	0.909
4.73109	0.91
4.76627	0.91
4.80146	0.912
4.83665	0.912
4.87184	0.914
4.90703	0.914
4.94221	0.912
4.9774	0.912
5.01259	0.912
5.04778	0.914
5.08296	0.914
5.11815	0.912
5.15334	0.912
5.18853	0.909
5.22372	0.904
5.2589	0.902
5.29409	0.902
5.32928	0.909
5.36447	0.91
5.39965	0.912
5.43484	0.912
5.47003	0.91
5.50522	0.909
5.54041	0.907
5.57559	0.904
5.61078	0.891
5.64597	0.893
5.68116	0.898
5.71635	0.888
5.75153	0.881
5.78672	0.87
5.82191	0.863
5.8571	0.872
5.89228	0.867
5.92747	0.853
5.96266	0.842
5.99785	0.815
6.03304	0.748
6.06822	0.687
6.10341	0.595
6.1386	0.273
6.17379	0.132
6.20897	0.116
6.24416	0.122
6.27935	0.287
6.31454	0.411
6.34973	0.095
6.38491	0.153
6.4201	0.289
6.45529	0.589
6.49048	0.617
6.52566	0.664
6.56085	0.623
6.59604	0.486
6.63123	0.506
6.66642	0.607
6.7016	0.52
6.73679	0.171
6.77198	0.436
6.80717	0.621
6.84236	0.631
6.87754	0.568
6.91273	0.525
6.94792	0.472
6.98311	0.469
7.01829	0.478
7.05348	0.553
7.08867	0.698
7.12386	0.712
7.15905	0.654
7.19423	0.549
7.22942	0.757
7.26461	0.794
7.2998	0.794
7.33498	0.71
7.37017	0.78
7.40536	0.787
7.44055	0.692
7.47574	0.521
7.51092	0.478
7.54611	0.619
7.5813	0.692
7.61649	0.698
7.65168	0.731
7.68686	0.773
7.72205	0.706
7.75724	0.626
7.79243	0.635
7.82761	0.513
7.8628	0.624
7.89799	0.72
7.93318	0.666
7.96837	0.394
8.00355	0.422
8.03874	0.577
8.07393	0.72
8.10912	0.792
8.1443	0.821
8.17949	0.834
8.21468	0.816
8.24987	0.691
8.28506	0.6
8.32024	0.68
8.35543	0.481
8.39062	0.488
8.42581	0.738
8.46099	0.781
8.49618	0.764
8.53137	0.677
8.56656	0.705
8.60175	0.787
8.63693	0.821
8.67212	0.832
8.70731	0.837
8.7425	0.846
8.77769	0.844
8.81287	0.848
8.84806	0.846
8.88325	0.835
8.91844	0.821
8.95362	0.801
8.98881	0.759
9.024	0.811
9.05919	0.828
9.09438	0.811
9.12956	0.815
9.16475	0.832
9.19994	0.841
9.23513	0.83
9.27031	0.794
9.3055	0.663
9.34069	0.539
9.37588	0.773
9.41107	0.816
9.44625	0.837
9.48144	0.848
9.51663	0.844
9.55182	0.846
9.58701	0.846
9.62219	0.837
9.65738	0.828
9.69257	0.82
9.72776	0.823
9.76294	0.834
9.79813	0.834
9.83332	0.82
9.86851	0.748
9.9037	0.532
9.93888	0.668
9.97407	0.781
10.0093	0.825
10.0444	0.837
10.0796	0.865
10.1148	0.863
10.15	0.87
10.1852	0.874
10.2204	0.877
10.2556	0.888
10.2908	0.884
10.3259	0.883
10.3611	0.883
10.3963	0.872
10.4315	0.844
10.4667	0.839
10.5019	0.863
10.5371	0.877
10.5723	0.886
10.6075	0.895
10.6426	0.89
10.6778	0.89
10.713	0.893
10.7482	0.893
10.7834	0.893
10.8186	0.891
10.8538	0.888
10.889	0.884
10.9241	0.883
10.9593	0.879
10.9945	0.876
11.0297	0.874
11.0649	0.87
11.1001	0.855
11.1353	0.801
11.1705	0.818
11.2056	0.858
11.2408	0.874
11.276	0.879
11.3112	0.881
11.3464	0.881
11.3816	0.883
11.4168	0.881
11.452	0.877
11.4871	0.87
11.5223	0.869
11.5575	0.869
11.5927	0.863
11.6279	0.858
11.6631	0.851
11.6983	0.834
11.7335	0.823
11.7686	0.825
11.8038	0.848
11.839	0.853
11.8742	0.853
11.9094	0.853
11.9446	0.842
11.9798	0.821
12.015	0.759
12.0502	0.635
12.0853	0.502
12.1205	0.547
12.1557	0.636
12.1909	0.675
12.2261	0.713
12.2613	0.731
12.2965	0.736
12.3317	0.731
12.3668	0.781
12.402	0.794
12.4372	0.792
12.4724	0.776
12.5076	0.698
12.5428	0.603
12.578	0.631
12.6132	0.71
12.6483	0.745
12.6835	0.764
12.7187	0.771
12.7539	0.762
12.7891	0.753
12.8243	0.715
12.8595	0.638
12.8947	0.516
12.9298	0.328
12.965	0.528
13.0002	0.753
13.0354	0.752
13.0706	0.741
13.1058	0.722
13.141	0.705
13.1762	0.694
13.2114	0.703
13.2465	0.731
13.2817	0.757
13.3169	0.792
13.3521	0.801
13.3873	0.813
13.4225	0.816
13.4577	0.811
13.4929	0.808
13.528	0.806
13.5632	0.794
13.5984	0.783
13.6336	0.773
13.6688	0.767
13.704	0.767
13.7392	0.771
13.7744	0.767
13.8095	0.776
13.8447	0.78
13.8799	0.778
13.9151	0.774
13.9503	0.778
13.9855	0.781
14.0207	0.785
14.0559	0.79
14.091	0.79
14.1262	0.788
14.1614	0.787
14.1966	0.785
14.2318	0.778
14.267	0.771
14.3022	0.76
14.3374	0.755
14.3725	0.759
14.4077	0.767
14.4429	0.766
14.4781	0.771
14.5133	0.783
14.5485	0.795
14.5837	0.801
14.6189	0.801
14.6541	0.797
14.6892	0.783
14.7244	0.741
14.7596	0.692
14.7948	0.689
14.83	0.736
14.8652	0.78
14.9004	0.806
14.9356	0.811
14.9707	0.816
15.0059	0.811
15.0411	0.808
15.0763	0.815
15.1115	0.811
15.1467	0.795
15.1819	0.767
15.2171	0.764
15.2522	0.774
15.2874	0.804
15.3226	0.808
15.3578	0.813
15.393	0.816
15.4282	0.821
15.4634	0.823
15.4986	0.823
15.5337	0.818
15.5689	0.806
15.6041	0.781
15.6393	0.746
15.6745	0.739
15.7097	0.766
15.7449	0.781
15.7801	0.787
15.8152	0.794
15.8504	0.795
15.8856	0.806
15.9208	0.811
15.956	0.813
