Infrared Spectrum: CYCLOPENTYLETHYNYLMETHYL CARBINOL
Formula: C9 H14 O
CAS: 100144-29-4
Class: COBLENTZ
Instrument: Not specified, most likely a grating spectrometer.
Sampling: TRANSMISSION
Path length: 0.00126 CM
Resolution: 4
Origin: ABBOTT LABORATORIES
MICROMETERS	TRANSMITTANCE
2.018	0.89
2.05403	0.888
2.09006	0.877
2.12609	0.867
2.16212	0.882
2.19815	0.882
2.23418	0.877
2.27021	0.856
2.30624	0.833
2.34227	0.852
2.3783	0.854
2.41432	0.849
2.45035	0.847
2.48638	0.854
2.52241	0.842
2.55844	0.836
2.59447	0.851
2.6305	0.859
2.66653	0.861
2.70256	0.815
2.73859	0.698
2.77462	0.593
2.81065	0.336
2.84668	0.207
2.88271	0.115
2.91874	0.086
2.95477	0.101
2.9908	0.111
3.02683	0.046
3.06286	0.175
3.09889	0.381
3.13491	0.553
3.17094	0.654
3.20697	0.734
3.243	0.757
3.27903	0.718
3.31506	0.356
3.35109	0.053
3.38712	0.014
3.42315	0.101
3.45918	0.109
3.49521	0.312
3.53124	0.624
3.56727	0.705
3.6033	0.739
3.63933	0.755
3.67536	0.774
3.71139	0.799
3.74742	0.813
3.78345	0.813
3.81948	0.815
3.8555	0.817
3.89153	0.819
3.92756	0.831
3.96359	0.831
3.99962	0.833
4.03565	0.828
4.07168	0.838
4.10771	0.843
4.14374	0.845
4.17977	0.851
4.2158	0.854
4.25183	0.856
4.28786	0.851
4.32389	0.847
4.35992	0.845
4.39595	0.851
4.43198	0.852
4.46801	0.852
4.50404	0.856
4.54007	0.854
4.57609	0.852
4.61212	0.852
4.64815	0.856
4.68418	0.849
4.72021	0.804
4.75624	0.796
4.79227	0.836
4.8283	0.852
4.86433	0.852
4.90036	0.852
4.93639	0.854
4.97242	0.856
5.00845	0.854
5.04448	0.854
5.08051	0.854
5.11654	0.858
5.15257	0.858
5.1886	0.865
5.22463	0.865
5.26066	0.865
5.29669	0.87
5.33271	0.867
5.36874	0.859
5.40477	0.856
5.4408	0.856
5.47683	0.852
5.51286	0.859
5.54889	0.859
5.58492	0.859
5.62095	0.859
5.65698	0.856
5.69301	0.851
5.72904	0.845
5.76507	0.835
5.8011	0.82
5.83713	0.817
5.87316	0.813
5.90919	0.815
5.94522	0.813
5.98125	0.801
6.01728	0.78
6.0533	0.771
6.08933	0.744
6.12536	0.728
6.16139	0.739
6.19742	0.769
6.23345	0.794
6.26948	0.812
6.30551	0.817
6.34154	0.819
6.37757	0.815
6.4136	0.822
6.44963	0.81
6.48566	0.812
6.52169	0.801
6.55772	0.803
6.59375	0.792
6.62978	0.78
6.66581	0.764
6.70184	0.739
6.73787	0.675
6.77389	0.601
6.80992	0.539
6.84595	0.411
6.88198	0.269
6.91801	0.182
6.95404	0.42
6.99007	0.533
7.0261	0.553
7.06213	0.526
7.09816	0.476
7.13419	0.432
7.17022	0.393
7.20625	0.352
7.24228	0.294
7.27831	0.163
7.31434	0.122
7.35037	0.171
7.3864	0.232
7.42243	0.267
7.45846	0.287
7.49448	0.269
7.53051	0.246
7.56654	0.234
7.60257	0.234
7.6386	0.228
7.67463	0.228
7.71066	0.235
7.74669	0.255
7.78272	0.281
7.81875	0.319
7.85478	0.365
7.89081	0.397
7.92684	0.414
7.96287	0.421
7.9989	0.432
8.03493	0.443
8.07096	0.46
8.10699	0.48
8.14302	0.5
8.17905	0.491
8.21508	0.443
8.2511	0.414
8.28713	0.402
8.32316	0.391
8.35919	0.37
8.39522	0.329
8.43125	0.269
8.46728	0.274
8.50331	0.304
8.53934	0.329
8.57537	0.329
8.6114	0.31
8.64743	0.292
8.68346	0.258
8.71949	0.219
8.75552	0.168
8.79155	0.141
8.82758	0.125
8.86361	0.088
8.89964	0.078
8.93567	0.086
8.97169	0.111
9.00772	0.143
9.04375	0.154
9.07978	0.17
9.11581	0.179
9.15184	0.196
9.18787	0.218
9.2239	0.264
9.25993	0.304
9.29596	0.331
9.33199	0.333
9.36802	0.297
9.40405	0.205
9.44008	0.156
9.47611	0.138
9.51214	0.134
9.54817	0.141
9.5842	0.17
9.62023	0.248
9.65626	0.296
9.69228	0.409
9.72831	0.489
9.76434	0.556
9.80037	0.59
9.8364	0.613
9.87243	0.634
9.90846	0.656
9.94449	0.675
9.98052	0.686
10.0166	0.695
10.0526	0.696
10.0886	0.691
10.1246	0.673
10.1607	0.659
10.1967	0.62
10.2327	0.556
10.2688	0.547
10.3048	0.562
10.3408	0.578
10.3768	0.57
10.4129	0.549
10.4489	0.523
10.4849	0.485
10.521	0.446
10.557	0.425
10.593	0.427
10.6291	0.427
10.6651	0.427
10.7011	0.407
10.7371	0.374
10.7732	0.335
10.8092	0.283
10.8452	0.225
10.8813	0.166
10.9173	0.125
10.9533	0.092
10.9893	0.099
11.0254	0.147
11.0614	0.273
11.0974	0.393
11.1335	0.478
11.1695	0.546
11.2055	0.601
11.2416	0.632
11.2776	0.663
11.3136	0.684
11.3496	0.687
11.3857	0.684
11.4217	0.668
11.4577	0.657
11.4938	0.643
11.5298	0.627
11.5658	0.624
11.6018	0.604
11.6379	0.601
11.6739	0.608
11.7099	0.627
11.746	0.638
11.782	0.657
11.818	0.671
11.8541	0.68
11.8901	0.689
11.9261	0.684
11.9621	0.682
11.9982	0.684
12.0342	0.675
12.0702	0.666
12.1063	0.657
12.1423	0.64
12.1783	0.627
12.2144	0.615
12.2504	0.609
12.2864	0.599
12.3224	0.602
12.3585	0.608
12.3945	0.617
12.4305	0.622
12.4666	0.631
12.5026	0.636
12.5386	0.647
12.5746	0.652
12.6107	0.654
12.6467	0.657
12.6827	0.656
12.7188	0.657
12.7548	0.656
12.7908	0.654
12.8269	0.65
12.8629	0.654
12.8989	0.645
12.9349	0.648
12.971	0.65
13.007	0.645
13.043	0.634
13.0791	0.632
13.1151	0.627
13.1511	0.622
13.1871	0.613
13.2232	0.606
13.2592	0.604
13.2952	0.595
13.3313	0.588
13.3673	0.583
13.4033	0.572
13.4394	0.565
13.4754	0.565
13.5114	0.554
13.5474	0.549
13.5835	0.54
13.6195	0.53
13.6555	0.524
13.6916	0.515
13.7276	0.505
13.7636	0.498
13.7996	0.489
13.8357	0.478
13.8717	0.468
13.9077	0.462
13.9438	0.45
13.9798	0.441
14.0158	0.439
14.0519	0.421
14.0879	0.409
14.1239	0.398
14.1599	0.393
14.196	0.388
14.232	0.374
14.268	0.363
14.3041	0.347
14.3401	0.342
14.3761	0.328
14.4122	0.315
14.4482	0.306
14.4842	0.299
14.5202	0.289
14.5563	0.273
14.5923	0.267
14.6283	0.257
14.6644	0.246
14.7004	0.228
14.7364	0.219
14.7724	0.205
14.8085	0.195
14.8445	0.18
14.8805	0.168
14.9166	0.163
14.9526	0.157
14.9886	0.141
15.0247	0.134
15.0607	0.129
15.0967	0.122
15.1327	0.108
15.1688	0.097
15.2048	0.086
15.2408	0.081
15.2769	0.079
15.3129	0.081
15.3489	0.081
15.3849	0.083
15.421	0.081
