Infrared Spectrum: TERT-BUTYL AMINE HYDROCHLORIDE
Formula: C4 H11 N  * H Cl
CAS: 10017-37-5
State: SOLID (ARNEEL C MULL); COMPENSATED
Class: COBLENTZ
Instrument: PERKIN-ELMER
Sampling: TRANSMISSION
Resolution: 4
MICROMETERS	TRANSMITTANCE
2.024	0.805
2.06069	0.819
2.09738	0.825
2.13407	0.834
2.17076	0.839
2.20745	0.837
2.24414	0.834
2.28084	0.833
2.31753	0.828
2.35422	0.834
2.39091	0.843
2.4276	0.865
2.46429	0.877
2.50098	0.889
2.53767	0.897
2.57436	0.898
2.61105	0.906
2.64774	0.918
2.68443	0.928
2.72112	0.935
2.75782	0.94
2.79451	0.954
2.8312	0.96
2.86789	0.964
2.90458	0.96
2.94127	0.958
2.97796	0.961
3.01465	0.957
3.05134	0.946
3.08803	0.84
3.12472	0.776
3.16141	0.655
3.1981	0.436
3.2348	0.306
3.27149	0.208
3.30818	0.142
3.34487	0.102
3.38156	0.099
3.41825	0.102
3.45494	0.108
3.49163	0.111
3.52832	0.117
3.56501	0.113
3.6017	0.127
3.63839	0.202
3.67508	0.238
3.71178	0.18
3.74847	0.275
3.78516	0.436
3.82185	0.457
3.85854	0.226
3.89523	0.324
3.93192	0.479
3.96861	0.505
4.0053	0.355
4.04199	0.529
4.07868	0.626
4.11537	0.683
4.15206	0.707
4.18876	0.732
4.22545	0.759
4.26214	0.773
4.29883	0.794
4.33552	0.805
4.37221	0.82
4.4089	0.846
4.44559	0.851
4.48228	0.856
4.51897	0.84
4.55566	0.856
4.59235	0.891
4.62904	0.898
4.66574	0.889
4.70243	0.869
4.73912	0.765
4.77581	0.393
4.8125	0.168
4.84919	0.375
4.88588	0.509
4.92257	0.699
4.95926	0.774
4.99595	0.794
5.03264	0.785
5.06933	0.687
5.10602	0.727
5.14272	0.781
5.17941	0.819
5.2161	0.86
5.25279	0.883
5.28948	0.894
5.32617	0.905
5.36286	0.898
5.39955	0.9
5.43624	0.906
5.47293	0.908
5.50962	0.908
5.54631	0.9
5.583	0.799
5.6197	0.762
5.65639	0.81
5.69308	0.833
5.72977	0.879
5.76646	0.894
5.80315	0.9
5.83984	0.885
5.87653	0.868
5.91322	0.845
5.94991	0.84
5.9866	0.834
6.02329	0.842
6.05998	0.842
6.09668	0.846
6.13337	0.848
6.17006	0.574
6.20675	0.546
6.24344	0.709
6.28013	0.666
6.31682	0.612
6.35351	0.652
6.3902	0.676
6.42689	0.727
6.46358	0.747
6.50027	0.768
6.53696	0.776
6.57366	0.583
6.61035	0.28
6.64704	0.542
6.68373	0.745
6.72042	0.646
6.75711	0.514
6.7938	0.519
6.83049	0.526
6.86718	0.594
6.90387	0.712
6.94056	0.761
6.97725	0.797
7.01394	0.808
7.05064	0.813
7.08733	0.736
7.12402	0.355
7.16071	0.433
7.1974	0.649
7.23409	0.557
7.27078	0.238
7.30747	0.298
7.34416	0.646
7.38085	0.774
7.41754	0.831
7.45423	0.851
7.49092	0.86
7.52762	0.875
7.56431	0.882
7.601	0.852
7.63769	0.614
7.67438	0.234
7.71107	0.399
7.74776	0.702
7.78445	0.79
7.82114	0.828
7.85783	0.854
7.89452	0.868
7.93121	0.872
7.9679	0.871
8.0046	0.869
8.04129	0.845
8.07798	0.807
8.11467	0.684
8.15136	0.535
8.18805	0.329
8.22474	0.223
8.26143	0.369
8.29812	0.526
8.33481	0.638
8.3715	0.702
8.40819	0.747
8.44488	0.779
8.48158	0.805
8.51827	0.831
8.55496	0.86
8.59165	0.866
8.62834	0.868
8.66503	0.868
8.70172	0.868
8.73841	0.857
8.7751	0.852
8.81179	0.862
8.84848	0.88
8.88517	0.9
8.92186	0.914
8.95856	0.917
8.99525	0.92
9.03194	0.921
9.06863	0.923
9.10532	0.932
9.14201	0.937
9.1787	0.934
9.21539	0.931
9.25208	0.935
9.28877	0.937
9.32546	0.82
9.36215	0.891
9.39884	0.911
9.43554	0.915
9.47223	0.917
9.50892	0.92
9.54561	0.918
9.5823	0.915
9.61899	0.92
9.65568	0.923
9.69237	0.924
9.72906	0.929
9.76575	0.932
9.80244	0.935
9.83913	0.937
9.87582	0.935
9.91252	0.937
9.94921	0.934
9.9859	0.914
10.0226	0.836
10.0593	0.767
10.096	0.846
10.1327	0.905
10.1694	0.928
10.206	0.935
10.2427	0.944
10.2794	0.954
10.3161	0.964
10.3528	0.969
10.3895	0.966
10.4262	0.958
10.4629	0.955
10.4996	0.955
10.5363	0.949
10.5729	0.944
10.6096	0.932
10.6463	0.915
10.683	0.889
10.7197	0.863
10.7564	0.874
10.7931	0.892
10.8298	0.905
10.8665	0.908
10.9032	0.917
10.9399	0.921
10.9765	0.921
11.0132	0.923
11.0499	0.924
11.0866	0.924
11.1233	0.929
11.16	0.937
11.1967	0.934
11.2334	0.924
11.2701	0.851
11.3068	0.816
11.3435	0.84
11.3801	0.874
11.4168	0.895
11.4535	0.92
11.4902	0.929
11.5269	0.937
11.5636	0.938
11.6003	0.946
11.637	0.947
11.6737	0.954
11.7104	0.952
11.7471	0.952
11.7837	0.954
11.8204	0.955
11.8571	0.955
11.8938	0.957
11.9305	0.957
11.9672	0.954
12.0039	0.957
12.0406	0.96
12.0773	0.954
12.114	0.95
12.1507	0.95
12.1873	0.954
12.224	0.958
12.2607	0.961
12.2974	0.955
12.3341	0.954
12.3708	0.958
12.4075	0.958
12.4442	0.958
12.4809	0.96
12.5176	0.963
12.5543	0.964
12.5909	0.963
12.6276	0.961
12.6643	0.961
12.701	0.966
12.7377	0.967
12.7744	0.964
12.8111	0.966
12.8478	0.964
12.8845	0.961
12.9212	0.96
12.9578	0.957
12.9945	0.96
13.0312	0.96
13.0679	0.958
13.1046	0.957
13.1413	0.957
13.178	0.955
13.2147	0.955
13.2514	0.95
13.2881	0.952
13.3248	0.95
13.3614	0.944
13.3981	0.944
13.4348	0.943
13.4715	0.94
13.5082	0.938
13.5449	0.94
13.5816	0.932
13.6183	0.911
13.655	0.912
13.6917	0.917
13.7284	0.92
13.765	0.918
13.8017	0.915
13.8384	0.914
13.8751	0.905
13.9118	0.903
13.9485	0.906
13.9852	0.911
14.0219	0.914
14.0586	0.912
14.0953	0.915
14.132	0.92
14.1686	0.918
14.2053	0.915
14.242	0.917
14.2787	0.918
14.3154	0.918
14.3521	0.918
14.3888	0.918
14.4255	0.911
14.4622	0.909
14.4989	0.909
14.5356	0.912
14.5722	0.918
14.6089	0.915
14.6456	0.915
14.6823	0.914
14.719	0.909
14.7557	0.914
14.7924	0.914
14.8291	0.914
14.8658	0.915
14.9025	0.915
14.9392	0.914
14.9758	0.932
15.0125	0.926
15.0492	0.914
15.0859	0.917
15.1226	0.918
15.1593	0.921
15.196	0.917
15.2327	0.915
15.2694	0.917
15.3061	0.917
15.3427	0.918
15.3794	0.924
