Infrared Spectrum: 2-METHYL-2-(2,4,5-TRICHLOROPHENOXY)ETHYL 2,2,3-TRICHLOROPROPIONATE
Formula: C12 H10 Cl6 O3
CAS: 100136-11-6
State: SOLUTION (10% IN CCl4 FOR 5000-1350 CM^-^1, 10% IN CS2 FOR 1350-625 CM^-^1)
Class: COBLENTZ
Instrument: Not specified, most likely a prism, grating, or hybrid spectrometer.
Sampling: TRANSMISSION
Path length: 0.01 CM, 0.01 CM
Resolution: 4
Origin: DOW CHEMICAL COMPANY
MICROMETERS	TRANSMITTANCE
2.028	0.868
2.06715	0.869
2.1063	0.871
2.14545	0.873
2.1846	0.874
2.22375	0.873
2.2629	0.869
2.30205	0.869
2.3412	0.871
2.38035	0.873
2.4195	0.874
2.45865	0.879
2.4978	0.879
2.53695	0.879
2.5761	0.879
2.61525	0.881
2.6544	0.881
2.69355	0.881
2.7327	0.881
2.77185	0.879
2.811	0.874
2.85015	0.869
2.8893	0.869
2.92845	0.873
2.9676	0.874
3.00675	0.876
3.0459	0.879
3.08505	0.879
3.1242	0.879
3.16335	0.878
3.2025	0.874
3.24165	0.861
3.2808	0.866
3.31995	0.853
3.3591	0.746
3.39825	0.752
3.4374	0.824
3.47655	0.861
3.5157	0.871
3.55485	0.874
3.594	0.881
3.63315	0.887
3.6723	0.887
3.71145	0.887
3.7506	0.892
3.78975	0.9
3.8289	0.895
3.86805	0.894
3.9072	0.897
3.94635	0.894
3.9855	0.889
4.02465	0.897
4.0638	0.9
4.10295	0.902
4.1421	0.899
4.18125	0.902
4.2204	0.897
4.25955	0.889
4.2987	0.882
4.33785	0.882
4.377	0.889
4.41615	0.895
4.4553	0.902
4.49445	0.904
4.5336	0.902
4.57275	0.902
4.6119	0.904
4.65105	0.904
4.6902	0.904
4.72935	0.905
4.7685	0.904
4.80766	0.907
4.84681	0.908
4.88596	0.905
4.92511	0.904
4.96426	0.902
5.00341	0.897
5.04256	0.897
5.08171	0.902
5.12086	0.902
5.16001	0.902
5.19916	0.904
5.23831	0.902
5.27746	0.902
5.31661	0.899
5.35576	0.894
5.39491	0.887
5.43406	0.881
5.47321	0.871
5.51236	0.863
5.55151	0.824
5.59066	0.617
5.62981	0.266
5.66896	0.248
5.70811	0.216
5.74726	0.551
5.78641	0.79
5.82556	0.822
5.86471	0.843
5.90386	0.863
5.94301	0.871
5.98216	0.868
6.02131	0.874
6.06046	0.874
6.09961	0.871
6.13876	0.86
6.17791	0.839
6.21706	0.756
6.25621	0.624
6.29536	0.46
6.33451	0.5
6.37366	0.525
6.41281	0.479
6.45196	0.443
6.49111	0.507
6.53026	0.57
6.56941	0.593
6.60856	0.622
6.64771	0.629
6.68686	0.591
6.72601	0.351
6.76516	0.172
6.80431	0.162
6.84346	0.17
6.88261	0.396
6.92176	0.601
6.96091	0.692
7.00006	0.65
7.03921	0.695
7.07836	0.782
7.11751	0.765
7.15666	0.652
7.19581	0.591
7.23496	0.595
7.27411	0.705
7.31326	0.626
7.35241	0.386
7.39156	0.292
7.43071	0.465
7.46986	0.629
7.50901	0.671
7.54816	0.699
7.58731	0.66
7.62646	0.601
7.66561	0.56
7.70476	0.426
7.74391	0.209
7.78306	0.17
7.82221	0.284
7.86136	0.289
7.90051	0.273
7.93966	0.229
7.97881	0.16
8.01796	0.126
8.05711	0.232
8.09626	0.391
8.13541	0.531
8.17456	0.598
8.21371	0.609
8.25286	0.517
8.29201	0.383
8.33116	0.43
8.37031	0.518
8.40946	0.393
8.44861	0.253
8.48776	0.32
8.52691	0.45
8.56606	0.52
8.60521	0.536
8.64436	0.586
8.68351	0.621
8.72266	0.598
8.76181	0.505
8.80096	0.388
8.84011	0.359
8.87926	0.385
8.91841	0.432
8.95756	0.476
8.99671	0.515
9.03586	0.5
9.07501	0.463
9.11416	0.458
9.15331	0.427
9.19246	0.308
9.23161	0.164
9.27076	0.143
9.30991	0.315
9.34906	0.474
9.38821	0.585
9.42736	0.658
9.46651	0.715
9.50566	0.751
9.54481	0.764
9.58396	0.764
9.62311	0.736
9.66226	0.663
9.70141	0.533
9.74056	0.443
9.77971	0.445
9.81886	0.502
9.85801	0.52
9.89716	0.528
9.93631	0.508
9.97546	0.508
10.0146	0.617
10.0538	0.681
10.0929	0.674
10.1321	0.634
10.1712	0.569
10.2104	0.521
10.2495	0.531
10.2887	0.583
10.3278	0.626
10.367	0.634
10.4061	0.627
10.4453	0.621
10.4844	0.655
10.5236	0.723
10.5627	0.759
10.6019	0.77
10.641	0.772
10.6802	0.762
10.7193	0.759
10.7585	0.765
10.7976	0.775
10.8368	0.78
10.8759	0.777
10.9151	0.754
10.9542	0.736
10.9934	0.708
11.0325	0.689
11.0717	0.687
11.1108	0.686
11.15	0.678
11.1891	0.656
11.2283	0.609
11.2674	0.56
11.3066	0.523
11.3457	0.474
11.3849	0.375
11.424	0.31
11.4632	0.408
11.5023	0.491
11.5415	0.513
11.5806	0.5
11.6198	0.489
11.6589	0.484
11.6981	0.499
11.7372	0.515
11.7764	0.526
11.8155	0.533
11.8547	0.538
11.8938	0.526
11.933	0.515
11.9721	0.513
12.0113	0.547
12.0504	0.575
12.0896	0.603
12.1287	0.645
12.1679	0.687
12.207	0.71
12.2462	0.721
12.2853	0.728
12.3245	0.728
12.3636	0.73
12.4028	0.733
12.4419	0.734
12.4811	0.733
12.5202	0.733
12.5594	0.736
12.5985	0.738
12.6377	0.738
12.6768	0.733
12.716	0.73
12.7551	0.73
12.7943	0.73
12.8334	0.731
12.8726	0.733
12.9117	0.726
12.9509	0.72
12.99	0.708
13.0292	0.686
13.0683	0.65
13.1075	0.595
13.1466	0.53
13.1858	0.448
13.2249	0.37
13.2641	0.31
13.3032	0.289
13.3424	0.292
13.3815	0.326
13.4207	0.383
13.4598	0.447
13.499	0.487
13.5381	0.494
13.5773	0.473
13.6164	0.44
13.6556	0.422
13.6947	0.43
13.7339	0.458
13.773	0.502
13.8122	0.544
13.8513	0.573
13.8905	0.595
13.9296	0.603
13.9688	0.604
14.0079	0.601
14.0471	0.593
14.0862	0.582
14.1254	0.567
14.1645	0.551
14.2037	0.531
14.2428	0.508
14.282	0.487
14.3211	0.463
14.3603	0.44
14.3994	0.419
14.4386	0.395
14.4777	0.37
14.5169	0.343
14.556	0.304
14.5952	0.265
14.6343	0.222
14.6735	0.209
14.7126	0.237
14.7518	0.282
14.7909	0.325
14.8301	0.354
14.8692	0.377
14.9084	0.385
14.9475	0.408
14.9867	0.434
15.0258	0.452
15.065	0.456
15.1041	0.46
15.1433	0.461
15.1824	0.461
15.2216	0.46
15.2607	0.455
15.2999	0.452
15.339	0.448
15.3782	0.445
15.4173	0.439
15.4565	0.434
15.4956	0.429
15.5348	0.419
15.5739	0.411
15.6131	0.406
15.6522	0.398
15.6914	0.39
15.7305	0.383
15.7697	0.378
15.8088	0.372
15.848	0.365
15.8871	0.364
