Infrared Spectrum: N,N'-DIACETYL-N,N'-BIS-[5-CHLORO-1,3,4-THIADIAZOLYL-2-]HYDRAZINE
Formula: C8 H6 Cl2 N6 O2 S2
CAS: 100191-60-4
State: SOLID (KBr PELLET)
Class: COBLENTZ
Instrument: Not specified, most likely a prism, grating, or hybrid spectrometer.
Sampling: TRANSMISSION
Resolution: 4
Origin: NORBERT PETRI
MICROMETERS	TRANSMITTANCE
2.018	0.746
2.05406	0.753
2.09012	0.759
2.12619	0.764
2.16225	0.765
2.19831	0.766
2.23437	0.783
2.27043	0.794
2.3065	0.795
2.34256	0.805
2.37862	0.81
2.41468	0.815
2.45075	0.82
2.48681	0.821
2.52287	0.817
2.55893	0.815
2.59499	0.821
2.63106	0.834
2.66712	0.834
2.70318	0.839
2.73924	0.839
2.7753	0.825
2.81137	0.784
2.84743	0.753
2.88349	0.72
2.91955	0.701
2.95561	0.702
2.99168	0.732
3.02774	0.767
3.0638	0.792
3.09986	0.805
3.13593	0.816
3.17199	0.823
3.20805	0.827
3.24411	0.831
3.28017	0.837
3.31624	0.84
3.3523	0.845
3.38836	0.837
3.42442	0.82
3.46048	0.832
3.49655	0.84
3.53261	0.839
3.56867	0.852
3.60473	0.86
3.64079	0.865
3.67686	0.868
3.71292	0.873
3.74898	0.884
3.78504	0.885
3.82111	0.889
3.85717	0.894
3.89323	0.891
3.92929	0.886
3.96535	0.894
4.00142	0.902
4.03748	0.902
4.07354	0.901
4.1096	0.907
4.14566	0.905
4.18173	0.902
4.21779	0.906
4.25385	0.906
4.28991	0.913
4.32597	0.927
4.36204	0.923
4.3981	0.913
4.43416	0.912
4.47022	0.913
4.50629	0.914
4.54235	0.914
4.57841	0.917
4.61447	0.919
4.65053	0.917
4.6866	0.927
4.72266	0.921
4.75872	0.927
4.79478	0.927
4.83084	0.922
4.86691	0.928
4.90297	0.924
4.93903	0.928
4.97509	0.934
5.01115	0.935
5.04722	0.933
5.08328	0.938
5.11934	0.935
5.1554	0.934
5.19147	0.936
5.22753	0.941
5.26359	0.945
5.29965	0.941
5.33571	0.941
5.37178	0.931
5.40784	0.941
5.4439	0.95
5.47996	0.95
5.51602	0.952
5.55209	0.956
5.58815	0.957
5.62421	0.946
5.66027	0.929
5.69633	0.88
5.7324	0.816
5.76846	0.613
5.80452	0.37
5.84058	0.185
5.87665	0.499
5.91271	0.6
5.94877	0.753
5.98483	0.803
6.02089	0.823
6.05696	0.826
6.09302	0.829
6.12908	0.827
6.16514	0.834
6.2012	0.85
6.23727	0.866
6.27333	0.883
6.30939	0.883
6.34545	0.886
6.38151	0.89
6.41758	0.899
6.45364	0.902
6.4897	0.904
6.52576	0.916
6.56183	0.914
6.59789	0.913
6.63395	0.914
6.67001	0.899
6.70607	0.885
6.74214	0.848
6.7782	0.8
6.81426	0.63
6.85032	0.358
6.88638	0.308
6.92245	0.577
6.95851	0.675
6.99457	0.633
7.03063	0.369
7.06669	0.437
7.10276	0.693
7.13882	0.742
7.17488	0.759
7.21094	0.77
7.24701	0.742
7.28307	0.551
7.31913	0.402
7.35519	0.654
7.39125	0.806
7.42732	0.866
7.46338	0.88
7.49944	0.874
7.5355	0.866
7.57156	0.855
7.60763	0.818
7.64369	0.742
7.67975	0.594
7.71581	0.357
7.75187	0.277
7.78794	0.377
7.824	0.318
7.86006	0.229
7.89612	0.388
7.93219	0.323
7.96825	0.196
8.00431	0.309
8.04037	0.484
8.07643	0.561
8.1125	0.614
8.14856	0.663
8.18462	0.705
8.22068	0.735
8.25674	0.758
8.29281	0.783
8.32887	0.797
8.36493	0.808
8.40099	0.821
8.43705	0.825
8.47312	0.823
8.50918	0.826
8.54524	0.835
8.5813	0.844
8.61737	0.839
8.65343	0.844
8.68949	0.839
8.72555	0.831
8.76161	0.842
8.79768	0.842
8.83374	0.855
8.8698	0.859
8.90586	0.856
8.94192	0.833
8.97799	0.845
9.01405	0.859
9.05011	0.866
9.08617	0.85
9.12223	0.833
9.1583	0.788
9.19436	0.781
9.23042	0.76
9.26648	0.67
9.30255	0.397
9.33861	0.26
9.37467	0.431
9.41073	0.639
9.44679	0.748
9.48286	0.786
9.51892	0.806
9.55498	0.814
9.59104	0.811
9.6271	0.814
9.66317	0.801
9.69923	0.691
9.73529	0.769
9.77135	0.801
9.80741	0.829
9.84348	0.832
9.87954	0.823
9.9156	0.814
9.95166	0.82
9.98773	0.834
10.0238	0.85
10.0598	0.861
10.0959	0.871
10.132	0.88
10.168	0.882
10.2041	0.884
10.2402	0.89
10.2762	0.89
10.3123	0.889
10.3483	0.872
10.3844	0.825
10.4205	0.744
10.4565	0.816
10.4926	0.861
10.5287	0.888
10.5647	0.899
10.6008	0.901
10.6368	0.908
10.6729	0.905
10.709	0.901
10.745	0.907
10.7811	0.905
10.8172	0.906
10.8532	0.913
10.8893	0.911
10.9253	0.913
10.9614	0.913
10.9975	0.912
11.0335	0.901
11.0696	0.869
11.1057	0.829
11.1417	0.856
11.1778	0.883
11.2138	0.9
11.2499	0.904
11.286	0.91
11.322	0.912
11.3581	0.916
11.3941	0.918
11.4302	0.916
11.4663	0.918
11.5023	0.921
11.5384	0.923
11.5745	0.923
11.6105	0.925
11.6466	0.931
11.6826	0.93
11.7187	0.929
11.7548	0.938
11.7908	0.938
11.8269	0.931
11.863	0.93
11.899	0.935
11.9351	0.939
11.9711	0.931
12.0072	0.94
12.0433	0.939
12.0793	0.939
12.1154	0.935
12.1515	0.939
12.1875	0.934
12.2236	0.934
12.2596	0.935
12.2957	0.939
12.3318	0.929
12.3678	0.935
12.4039	0.933
12.4399	0.934
12.476	0.931
12.5121	0.929
12.5481	0.93
12.5842	0.929
12.6203	0.918
12.6563	0.908
12.6924	0.918
12.7284	0.924
12.7645	0.931
12.8006	0.928
12.8366	0.931
12.8727	0.929
12.9088	0.934
12.9448	0.933
12.9809	0.928
13.0169	0.929
13.053	0.922
13.0891	0.927
13.1251	0.912
13.1612	0.89
13.1973	0.793
13.2333	0.787
13.2694	0.85
13.3054	0.883
13.3415	0.895
13.3776	0.899
13.4136	0.899
13.4497	0.891
13.4857	0.882
13.5218	0.86
13.5579	0.772
13.5939	0.715
13.63	0.75
13.6661	0.805
13.7021	0.849
13.7382	0.874
13.7742	0.889
13.8103	0.902
13.8464	0.902
13.8824	0.902
13.9185	0.91
13.9546	0.911
13.9906	0.913
14.0267	0.916
14.0627	0.913
14.0988	0.917
14.1349	0.914
14.1709	0.914
14.207	0.918
14.2431	0.916
14.2791	0.911
14.3152	0.916
14.3512	0.908
14.3873	0.908
14.4234	0.908
14.4594	0.9
14.4955	0.906
14.5316	0.908
14.5676	0.9
14.6037	0.904
14.6397	0.904
14.6758	0.897
14.7119	0.9
14.7479	0.894
14.784	0.88
14.82	0.872
14.8561	0.835
14.8922	0.755
14.9282	0.663
14.9643	0.623
15.0004	0.62
15.0364	0.552
15.0725	0.495
15.1085	0.54
15.1446	0.658
15.1807	0.725
15.2167	0.77
15.2528	0.806
15.2889	0.828
15.3249	0.837
15.361	0.85
