Infrared Spectrum: N-Acetylethylenediamine
Formula: C 4 H 10 N 2 O
CAS: 1001-53-2
State: gas
Origin: EPA-IR VAPOR PHASE LIBRARY
1/CM	ABSORBANCE
549.8	0.0008054
559.445	0.0006608
569.09	0.0002842
578.735	0.0004839
588.38	0.0005211
598.025	0.0007506
607.67	0.0009378
617.315	0.000954
626.96	0.0009726
636.605	0.0009504
646.251	0.0009313
655.896	0.0009307
665.541	0.0007924
675.186	0.0008488
684.831	0.0010072
694.476	0.0011958
704.121	0.0013084
713.766	0.001643
723.411	0.001823
733.056	0.002143
742.701	0.002533
752.346	0.002793
761.991	0.003003
771.636	0.003123
781.281	0.002823
790.926	0.002443
800.571	0.002223
810.216	0.001993
819.861	0.001853
829.507	0.001733
839.152	0.001703
848.797	0.001633
858.442	0.001543
868.087	0.001373
877.732	0.0012639
887.377	0.0012373
897.022	0.0011099
906.667	0.001008
916.312	0.0010392
925.957	0.0009034
935.602	0.0008888
945.247	0.0009338
954.892	0.0009793
964.537	0.0011552
974.182	0.0010824
983.827	0.0010859
993.472	0.0008932
1003.12	0.0008349
1012.76	0.0008193
1022.41	0.0007917
1032.05	0.0009258
1041.7	0.001152
1051.34	0.001423
1060.99	0.001763
1070.63	0.002143
1080.28	0.001943
1089.92	0.001553
1099.57	0.0013096
1109.21	0.0010743
1118.86	0.0009685
1128.5	0.0007636
1138.15	0.0006951
1147.79	0.0006277
1157.44	0.0005713
1167.08	0.0006896
1176.73	0.0007307
1186.37	0.0008332
1196.02	0.0010425
1205.66	0.001573
1215.31	0.002173
1224.95	0.003543
1234.6	0.005513
1244.24	0.006823
1253.89	0.006853
1263.53	0.005653
1273.18	0.004603
1282.82	0.003523
1292.47	0.002633
1302.11	0.002213
1311.76	0.002003
1321.4	0.001693
1331.05	0.001563
1340.69	0.001813
1350.34	0.002603
1359.98	0.003643
1369.63	0.004253
1379.27	0.003743
1388.92	0.002963
1398.56	0.002423
1408.21	0.002163
1417.85	0.002253
1427.5	0.002813
1437.14	0.003803
1446.79	0.004683
1456.43	0.005883
1466.08	0.007373
1475.73	0.009663
1485.37	0.012633
1495.02	0.014383
1504.66	0.013103
1514.31	0.009263
1523.95	0.005613
1533.6	0.003473
1543.24	0.002453
1552.89	0.001843
1562.53	0.001573
1572.18	0.001463
1581.82	0.001453
1591.47	0.001503
1601.11	0.001623
1610.76	0.001803
1620.4	0.002013
1630.05	0.002043
1639.69	0.001903
1649.34	0.001813
1658.98	0.001963
1668.63	0.002423
1678.27	0.003473
1687.92	0.005883
1697.56	0.011263
1707.21	0.018213
1716.85	0.019293
1726.5	0.015653
1736.14	0.008163
1745.79	0.004133
1755.43	0.002243
1765.08	0.001473
1774.72	0.0011082
1784.37	0.0009294
1794.01	0.0008276
1803.66	0.0007177
1813.3	0.0007297
1822.95	0.0006523
1832.59	0.0006847
1842.24	0.0006505
1851.88	0.0006005
1861.53	0.0005719
1871.17	0.0006035
1880.82	0.0005842
1890.46	0.0005762
1900.11	0.0005445
1909.75	0.0006064
1919.4	0.000578
1929.04	0.0005772
1938.69	0.0005563
1948.33	0.000552
1957.98	0.0005507
1967.62	0.000579
1977.27	0.0005912
1986.91	0.0006001
1996.56	0.0006009
2006.2	0.0005896
2015.85	0.0005868
2025.49	0.0006041
2035.14	0.000618
2044.78	0.000575
2054.43	0.0005396
2064.07	0.0005918
2073.72	0.0005681
2083.36	0.0006068
2093.01	0.0006305
2102.65	0.000606
2112.3	0.0006047
2121.94	0.0006108
2131.59	0.0006031
2141.23	0.0005918
2150.88	0.0005832
2160.52	0.000603
2170.17	0.0005829
2179.81	0.0006183
2189.46	0.0006094
2199.1	0.0006287
2208.75	0.000596
2218.39	0.0006585
2228.04	0.0006596
2237.68	0.0006428
2247.33	0.0006473
2256.97	0.0006812
2266.62	0.0006903
2276.26	0.0006758
2285.91	0.000721
2295.55	0.0007354
2305.2	0.0007135
2314.84	0.0007441
2324.49	0.0007477
2334.13	0.0006756
2343.78	0.0007472
2353.42	0.0006885
2363.07	0.0007444
2372.72	0.0007353
2382.36	0.0006869
2392.01	0.0006979
2401.65	0.0006061
2411.3	0.0007261
2420.94	0.0006849
2430.59	0.0006252
2440.23	0.0006655
2449.88	0.0006629
2459.52	0.0006408
2469.17	0.0006878
2478.81	0.0006778
2488.46	0.000695
2498.1	0.0006345
2507.75	0.0006783
2517.39	0.0006452
2527.04	0.0006666
2536.68	0.0006764
2546.33	0.0007041
2555.97	0.0007176
2565.62	0.0006509
2575.26	0.0006987
2584.91	0.000636
2594.55	0.0007503
2604.2	0.000728
2613.84	0.0007459
2623.49	0.0006956
2633.13	0.0007326
2642.78	0.0007665
2652.42	0.0007637
2662.07	0.0007592
2671.71	0.0008318
2681.36	0.0008108
2691	0.0008802
2700.65	0.000852
2710.29	0.0009551
2719.94	0.0008947
2729.58	0.0008812
2739.23	0.0009106
2748.87	0.0008501
2758.52	0.0008767
2768.16	0.0009454
2777.81	0.0008948
2787.45	0.0009271
2797.1	0.0008685
2806.74	0.0010597
2816.39	0.0011209
2826.03	0.0013215
2835.68	0.001533
2845.32	0.001933
2854.97	0.002483
2864.61	0.003233
2874.26	0.003563
2883.9	0.003473
2893.55	0.003263
2903.19	0.003323
2912.84	0.003793
2922.48	0.004563
2932.13	0.004983
2941.77	0.004903
2951.42	0.004163
2961.06	0.003433
2970.71	0.002613
2980.35	0.002063
2990	0.001693
2999.64	0.001341
3009.29	0.0011944
3018.93	0.0010748
3028.58	0.0009594
3038.22	0.0009119
3047.87	0.0008284
3057.51	0.000786
3067.16	0.0007926
3076.8	0.0006341
3086.45	0.0005718
3096.09	0.0005684
3105.74	0.0004921
3115.38	0.0005232
3125.03	0.0005063
3134.67	0.00044017
3144.32	0.00041615
3153.96	0.0003403
3163.61	0.00039848
3173.25	0.000352003
3182.9	0.00036948
3192.54	0.0003101
3202.19	0.0003101
3211.83	0.000243
3221.48	0.0003035
3231.12	0.0003397
3240.77	0.000214
3250.41	0.000246
3260.06	0.0002681
3269.7	0.00035029
3279.35	0.000159
3289	0.00021
3298.64	0.0002915
3308.29	0.000236
3317.93	0.0002807
3327.58	0.000203
3337.22	0.0002912
3346.87	0.0003267
3356.51	0.0003398
3366.16	0.0002641
3375.8	0.00039995
3385.45	0.00044232
3395.09	0.00043954
3404.74	0.000674
3414.38	0.0007347
3424.03	0.0007145
3433.67	0.0009037
3443.32	0.0010997
3452.96	0.001363
3462.61	0.001523
3472.25	0.001403
3481.9	0.0010588
3491.54	0.0005772
3501.19	0.00036837
3510.83	0.000211
3520.48	0.000201
3530.12	0.000183
3539.77	7.8e-05
3549.41	9.9e-05
3559.06	4.3e-05
3568.7	6.9e-05
3578.35	0.000253
3587.99	0.000199
3597.64	0.000155
3607.28	0.000118
3616.93	0.0002
3626.57	0.000226
3636.22	0.000119
3645.86	0.000108
3655.51	0.000126
3665.15	0.000128
3674.8	3.7e-05
3684.44	0.000148
3694.09	0.000111
3703.73	0.000172
3713.38	0.000123
3723.02	5.4e-05
3732.67	0.000159
3742.31	0.000123
3751.96	0.000203
3761.6	0.000119
3771.25	0.000103
3780.89	0.000205
3790.54	0.000142
3800.18	0.000224
3809.83	0.000166
3819.47	0.000229
3829.12	0.000277
3838.76	0.0002652
3848.41	0.0002751
3858.05	0.0002989
3867.7	0.000123
3877.34	8.5e-05
3886.99	0.000172
3896.63	0.000246
3906.28	0.000204
3915.92	0.000219
3925.57	0.0003304
3935.21	0.000217
3944.86	0.00012
3954.5	0.000216
3964.15	0.0003057
3973.79	0.000227
3983.44	0.000356999
3993.08	0.00023
