Infrared Spectrum: 2-PROPEN-1-AMINE, HYDROCHLORIDE
Formula: C3 H8 Cl N
CAS: 10017-11-5
State: SOLID (KBr DISC)
Class: COBLENTZ
Instrument: PERKIN-ELMER 157
Sampling: TRANSMISSION
Resolution: 2
Origin: BRITISH PETROLEUM CO. LTD., ENGLAND
1/CM	TRANSMITTANCE
667	0.8542
676	0.8579
685	0.8579
694	0.8566
703	0.8464
712	0.8412
721	0.8379
730	0.8347
739	0.8188
748	0.8167
757	0.8098
766	0.8015
775	0.7996
784	0.7926
793	0.786
802	0.7732
811	0.7599
820	0.7448
829	0.721
838	0.6954
847	0.6351
856	0.516
865	0.3793
874	0.3206
883	0.3185
892	0.472
901	0.5686
910	0.5472
919	0.4008
928	0.1975
937	0.1669
946	0.1413
955	0.1727
964	0.2966
973	0.3803
982	0.2682
991	0.1228
1000	0.1803
1009	0.3272
1018	0.3809
1027	0.3938
1036	0.445
1045	0.4769
1054	0.4951
1063	0.4774
1072	0.435
1081	0.4275
1090	0.4227
1099	0.3628
1108	0.328
1117	0.337
1126	0.3611
1135	0.4042
1144	0.4332
1153	0.471
1162	0.489
1171	0.4875
1180	0.4731
1189	0.4263
1198	0.3962
1207	0.4712
1216	0.5184
1225	0.5214
1234	0.5227
1243	0.5205
1252	0.5164
1261	0.511
1270	0.5048
1279	0.4976
1288	0.4753
1297	0.4449
1306	0.4151
1315	0.4025
1324	0.4269
1333	0.4484
1342	0.4476
1351	0.4431
1360	0.3927
1369	0.3728
1378	0.3928
1387	0.3723
1396	0.3628
1405	0.341
1414	0.2992
1423	0.1307
1432	0.1671
1441	0.1598
1450	0.1261
1459	0.1207
1468	0.1067
1477	0.0755
1486	0.0677
1495	0.0708
1504	0.087
1513	0.1614
1522	0.1749
1531	0.2306
1540	0.2342
1549	0.2218
1558	0.1982
1567	0.148
1576	0.1192
1585	0.0892
1594	0.0687
1603	0.0731
1612	0.0918
1621	0.1725
1630	0.2157
1639	0.244
1648	0.2528
1657	0.2736
1666	0.3096
1675	0.3331
1684	0.3623
1693	0.3727
1702	0.3738
1711	0.3725
1720	0.3678
1729	0.3753
1738	0.3745
1747	0.3743
1756	0.3747
1765	0.3753
1774	0.3758
1783	0.3745
1792	0.3719
1801	0.3686
1810	0.3644
1819	0.3593
1828	0.3531
1837	0.3462
1846	0.3383
1855	0.3272
1864	0.3197
1873	0.312
1882	0.3028
1891	0.2943
1900	0.2869
1909	0.2794
1918	0.2754
1927	0.2635
1936	0.2507
1945	0.2451
1954	0.2407
1963	0.2379
1972	0.2376
1981	0.2383
1990	0.2397
1999	0.2442
2008	0.2506
2017	0.2583
2026	0.2651
2035	0.271
2044	0.2771
2053	0.2836
2062	0.2904
2071	0.2962
2080	0.3011
2089	0.3065
2098	0.3111
2107	0.3113
2116	0.3109
2125	0.3104
2134	0.3097
2143	0.3081
2152	0.3062
2161	0.3046
2170	0.3032
2179	0.3018
2188	0.3006
2197	0.2996
2206	0.2987
2215	0.2981
2224	0.2978
2233	0.2973
2242	0.2965
2251	0.2953
2260	0.2927
2269	0.2896
2278	0.2854
2287	0.2797
2296	0.2733
2305	0.266
2314	0.2585
2323	0.2505
2332	0.2412
2341	0.2359
2350	0.2329
2359	0.2279
2368	0.2237
2377	0.2225
2386	0.2234
2395	0.226
2404	0.2272
2413	0.2275
2422	0.2237
2431	0.2153
2440	0.205
2449	0.1848
2458	0.165
2467	0.1608
2476	0.1568
2485	0.1526
2494	0.1492
2503	0.1472
2512	0.1456
2521	0.1449
2530	0.1442
2539	0.1406
2548	0.1302
2557	0.1206
2566	0.1096
2575	0.0959
2584	0.0791
2593	0.0703
2602	0.0664
2611	0.0662
2620	0.066
2629	0.0658
2638	0.0629
2647	0.0584
2656	0.0528
2665	0.0473
2674	0.0436
2683	0.0412
2692	0.0404
2701	0.0402
2710	0.0399
2719	0.0397
2728	0.0391
2737	0.0375
2746	0.0328
2755	0.024
2764	0.0189
2773	0.0159
2782	0.0151
2791	0.0148
2800	0.0145
2809	0.0143
2818	0.0142
2827	0.0141
2836	0.0139
2845	0.0138
2854	0.0139
2863	0.0139
2872	0.0139
2881	0.014
2890	0.014
2899	0.0141
2908	0.0141
2917	0.0143
2926	0.0144
2935	0.0146
2944	0.0148
2953	0.015
2962	0.0151
2971	0.0153
2980	0.0155
2989	0.0156
2998	0.0158
3007	0.0159
3016	0.0162
3025	0.0163
3034	0.0166
3043	0.0168
3052	0.017
3061	0.0172
3070	0.0174
3079	0.0177
3088	0.0179
3097	0.0191
3106	0.0206
3115	0.0224
3124	0.024
3133	0.0259
3142	0.0272
3151	0.0277
3160	0.028
3169	0.0283
3178	0.0289
3187	0.0327
3196	0.0365
3205	0.0393
3214	0.041
3223	0.0452
3232	0.0491
3241	0.05
3250	0.0507
3259	0.0514
3268	0.0514
3277	0.0514
3286	0.0513
3295	0.0512
3304	0.0506
3313	0.0494
3322	0.0483
3331	0.0472
3340	0.0456
3349	0.0438
3358	0.0423
3367	0.041
3376	0.0405
3385	0.0411
3394	0.0417
3403	0.0423
3412	0.0434
3421	0.0447
3430	0.0461
3439	0.0476
3448	0.0492
3457	0.0513
3466	0.0541
3475	0.057
3484	0.0599
3493	0.0631
3502	0.0664
3511	0.0701
3520	0.0748
3529	0.0793
3538	0.0832
3547	0.087
3556	0.0908
3565	0.0947
3574	0.0987
3583	0.1025
3592	0.1069
3601	0.1123
3610	0.1178
3619	0.1207
3628	0.1223
3637	0.1239
3646	0.1244
3655	0.1247
3664	0.1248
3673	0.125
3682	0.1253
3691	0.1254
3700	0.1256
3709	0.1256
3718	0.1256
3727	0.1256
3736	0.1256
3745	0.1256
3754	0.1256
3763	0.1256
3772	0.1256
3781	0.1256
3790	0.1253
3799	0.1249
3808	0.1244
3817	0.1238
3826	0.1234
3835	0.1229
3844	0.1214
3853	0.12
3862	0.1187
3871	0.1176
3880	0.1166
3889	0.1157
3898	0.1149
3907	0.1142
3916	0.1136
3925	0.1128
3934	0.1121
3943	0.1117
3952	0.1112
3961	0.1108
3970	0.1104
3979	0.1099
3988	0.1095
3997	0.1092
