Infrared Spectrum: METHYLDICYCLOPROPYLGLYCOLATE
Formula: C9 H14 O3
CAS: 100144-93-2
State: LIQUID
Class: COBLENTZ
Instrument: PERKIN-ELMER
Sampling: TRANSMISSION
Path length: CAPILLARY
Resolution: 4
Origin: ABBOTT LABORATORIES - WASHBURN
MICROMETERS	TRANSMITTANCE
2.007	0.85
2.04125	0.85
2.07549	0.8519
2.10974	0.8481
2.14398	0.852
2.17823	0.85
2.21247	0.852
2.24672	0.8479
2.28096	0.838
2.31521	0.85
2.34945	0.8529
2.3837	0.85
2.41794	0.852
2.45219	0.855
2.48643	0.8571
2.52068	0.8599
2.55492	0.857
2.58917	0.852
2.62341	0.855
2.65766	0.859
2.6919	0.864
2.72615	0.859
2.76039	0.8358
2.79464	0.8031
2.82888	0.578
2.86313	0.5419
2.89737	0.6476
2.93162	0.7386
2.96586	0.785
3.00011	0.8118
3.03435	0.8232
3.0686	0.831
3.10284	0.831
3.13709	0.8291
3.17133	0.826
3.20558	0.8209
3.23982	0.7546
3.27407	0.7446
3.30831	0.6169
3.34256	0.6502
3.3768	0.6892
3.41105	0.7805
3.44529	0.7972
3.47954	0.8091
3.51378	0.817
3.54803	0.8379
3.58227	0.8531
3.61652	0.8671
3.65076	0.867
3.68501	0.872
3.71925	0.8721
3.7535	0.878
3.78774	0.876
3.82199	0.876
3.85623	0.876
3.89048	0.878
3.92472	0.879
3.95897	0.881
3.99321	0.881
4.02746	0.879
4.0617	0.8691
4.09595	0.869
4.13019	0.878
4.16444	0.881
4.19868	0.8791
4.23293	0.878
4.26717	0.878
4.30142	0.886
4.33566	0.883
4.36991	0.883
4.40415	0.881
4.4384	0.881
4.47264	0.879
4.50689	0.871
4.54113	0.871
4.57538	0.876
4.60962	0.8741
4.64387	0.874
4.67811	0.878
4.71236	0.872
4.7466	0.8602
4.78085	0.857
4.81509	0.852
4.84934	0.852
4.88358	0.8569
4.91783	0.8639
4.95207	0.871
4.98632	0.872
5.02056	0.862
5.05481	0.867
5.08905	0.867
5.1233	0.865
5.15754	0.855
5.19179	0.852
5.22603	0.852
5.26028	0.855
5.29452	0.857
5.32877	0.855
5.36301	0.8618
5.39726	0.8649
5.4315	0.8592
5.46575	0.8534
5.49999	0.8505
5.53424	0.843
5.56848	0.84
5.60273	0.8273
5.63697	0.8052
5.67122	0.7523
5.70546	0.5942
5.73971	0.3428
5.77395	0.1636
5.8082	0.099
5.84244	0.3524
5.87669	0.5747
5.91093	0.7046
5.94518	0.734
5.97943	0.7667
6.01367	0.7927
6.04792	0.805
6.08216	0.8058
6.11641	0.805
6.15065	0.8223
6.1849	0.826
6.21914	0.833
6.25339	0.8371
6.28763	0.842
6.32188	0.843
6.35612	0.841
6.39037	0.841
6.42461	0.843
6.45886	0.841
6.4931	0.8419
6.52735	0.843
6.56159	0.841
6.59584	0.8406
6.63008	0.84
6.66433	0.84
6.69857	0.8356
6.73282	0.8271
6.76706	0.811
6.80131	0.7735
6.83555	0.7097
6.8698	0.6575
6.90404	0.6126
6.93829	0.5739
6.97253	0.5106
7.00678	0.556
7.04102	0.63
7.07527	0.6251
7.10951	0.6875
7.14376	0.6897
7.178	0.6827
7.21225	0.678
7.24649	0.6826
7.28074	0.695
7.31498	0.7188
7.34923	0.7319
7.38347	0.7476
7.41772	0.7619
7.45196	0.764
7.48621	0.761
7.52045	0.7514
7.5547	0.7429
7.58894	0.7345
7.62319	0.7129
7.65743	0.6847
7.69168	0.6664
7.72592	0.622
7.76017	0.574
7.79441	0.4364
7.82866	0.2813
7.8629	0.1824
7.89715	0.163
7.93139	0.1993
7.96564	0.2679
7.99988	0.3087
8.03413	0.3509
8.06837	0.435
8.10262	0.5077
8.13686	0.5489
8.17111	0.5653
8.20535	0.5082
8.2396	0.392
8.27384	0.2377
8.30809	0.2228
8.34233	0.2798
8.37658	0.2181
8.41082	0.1363
8.44507	0.1368
8.47931	0.14
8.51356	0.1693
8.5478	0.2397
8.58205	0.3148
8.61629	0.4149
8.65054	0.4802
8.68478	0.5187
8.71903	0.5435
8.75327	0.5589
8.78752	0.551
8.82176	0.549
8.85601	0.6059
8.89025	0.6691
8.9245	0.7103
8.95874	0.7356
8.99299	0.742
9.02723	0.74
9.06148	0.73
9.09572	0.73
9.12997	0.7322
9.16421	0.7362
9.19846	0.741
9.2327	0.744
9.26695	0.745
9.30119	0.7424
9.33544	0.7284
9.36968	0.708
9.40393	0.6721
9.43817	0.6229
9.47242	0.5965
9.50666	0.569
9.54091	0.4959
9.57515	0.3876
9.6094	0.3039
9.64364	0.3038
9.67789	0.3612
9.71213	0.379
9.74638	0.376
9.78062	0.3927
9.81487	0.4229
9.84911	0.4302
9.88336	0.4082
9.9176	0.3813
9.95185	0.4343
9.9861	0.5417
10.0203	0.6255
10.0546	0.6627
10.0888	0.6976
10.1231	0.7441
10.1573	0.7648
10.1916	0.7784
10.2258	0.786
10.2601	0.7885
10.2943	0.788
10.3285	0.773
10.3628	0.7349
10.397	0.6834
10.4313	0.656
10.4655	0.6693
10.4998	0.702
10.534	0.7428
10.5683	0.7622
10.6025	0.7831
10.6368	0.795
10.671	0.804
10.7052	0.8039
10.7395	0.7928
10.7737	0.7621
10.808	0.6946
10.8422	0.6347
10.8765	0.6108
10.9107	0.5614
10.945	0.5199
10.9792	0.5948
11.0134	0.7015
11.0477	0.7588
11.0819	0.781
11.1162	0.798
11.1504	0.804
11.1847	0.802
11.2189	0.7836
11.2532	0.7272
11.2874	0.67
11.3217	0.708
11.3559	0.7624
11.3901	0.7809
11.4244	0.785
11.4586	0.7941
11.4929	0.797
11.5271	0.795
11.5614	0.7865
11.5956	0.7784
11.6299	0.7826
11.6641	0.7875
11.6983	0.786
11.7326	0.7597
11.7668	0.757
11.8011	0.7605
11.8353	0.7754
11.8696	0.783
11.9038	0.781
11.9381	0.7722
11.9723	0.7351
12.0066	0.6801
12.0408	0.5832
12.075	0.508
12.1093	0.493
12.1435	0.5461
12.1778	0.6115
12.212	0.6568
12.2463	0.6783
12.2805	0.7185
12.3148	0.7529
12.349	0.7757
12.3832	0.788
12.4175	0.792
12.4517	0.792
12.486	0.7891
12.5202	0.788
12.5545	0.785
12.5887	0.776
12.623	0.7616
12.6572	0.7614
12.6915	0.764
12.7257	0.761
12.7599	0.761
12.7942	0.759
12.8284	0.7603
12.8627	0.7583
12.8969	0.7497
12.9312	0.7189
12.9654	0.6865
12.9997	0.664
13.0339	0.6864
13.0681	0.7128
13.1024	0.7476
13.1366	0.7627
13.1709	0.7785
13.2051	0.7815
13.2394	0.786
13.2736	0.788
13.3079	0.786
13.3421	0.788
13.3764	0.7922
13.4106	0.7913
13.4448	0.785
13.4791	0.7848
13.5133	0.7779
13.5476	0.771
13.5818	0.769
13.6161	0.7676
13.6503	0.762
13.6846	0.757
13.7188	0.7471
13.753	0.743
13.7873	0.731
13.8215	0.7249
13.8558	0.7111
13.89	0.706
13.9243	0.706
13.9585	0.716
13.9928	0.731
14.027	0.7349
14.0613	0.7398
14.0955	0.7487
14.1297	0.752
14.164	0.752
14.1982	0.7472
14.2325	0.743
14.2667	0.742
14.301	0.742
14.3352	0.742
14.3695	0.74
14.4037	0.7355
14.438	0.731
14.4722	0.7285
14.5064	0.7216
14.5407	0.718
14.5749	0.716
14.6092	0.716
14.6434	0.706
14.6777	0.7047
14.7119	0.697
14.7462	0.694
14.7804	0.6856
14.8146	0.6767
14.8489	0.6704
14.8831	0.6514
14.9174	0.6333
14.9516	0.6237
14.9859	0.618
15.0201	0.6188
15.0544	0.6034
15.0886	0.606
15.1229	0.617
15.1571	0.618
15.1913	0.623
15.2256	0.623
15.2598	0.62
15.2941	0.616
15.3283	0.613
15.3626	0.6074
15.3968	0.6035
15.4311	0.599
15.4653	0.596
