Infrared Spectrum: SILICON TETRACHLORIDE
Formula: Cl4 Si
CAS: 10026-04-7
State: SOLUTION (2% IN CCl4 FOR 700-500 CM^-^1)
Boiling point: 57.6 C
Class: COBLENTZ
Instrument: PERKIN-ELMER 521 (GRATING)
Instrument parameters: FILTERS AT 3150, 2500, 2000, 1150, 700, 410. GRATING CHANGES: 2000, 630 CM^-^1
Sampling: TRANSMISSION
Path length: 0.010 CM
Resolution: 2
Origin: DOW CORNING CORP.
1/CM	TRANSMITTANCE
493.176	0.787
494.117	0.787
495.058	0.787
496	0.787
496.941	0.787
497.882	0.787
498.823	0.787
499.764	0.787
500.705	0.787
501.647	0.787
502.588	0.787
503.529	0.787
504.47	0.787
505.411	0.787
506.353	0.787
507.294	0.787
508.235	0.787
509.176	0.785
510.117	0.785
511.058	0.785
512	0.784
512.941	0.784
513.882	0.784
514.823	0.783
515.764	0.783
516.705	0.782
517.647	0.782
518.588	0.78
519.529	0.78
520.47	0.78
521.411	0.779
522.353	0.779
523.294	0.779
524.235	0.779
525.176	0.779
526.117	0.778
527.058	0.778
528	0.778
528.941	0.778
529.882	0.778
530.823	0.778
531.764	0.778
532.706	0.778
533.647	0.776
534.588	0.776
535.529	0.776
536.47	0.776
537.411	0.776
538.353	0.776
539.294	0.776
540.235	0.776
541.176	0.778
542.117	0.778
543.058	0.779
544	0.779
544.941	0.779
545.882	0.779
546.823	0.779
547.764	0.779
548.706	0.78
549.647	0.78
550.588	0.78
551.529	0.78
552.47	0.78
553.411	0.78
554.353	0.78
555.294	0.78
556.235	0.78
557.176	0.78
558.117	0.78
559.059	0.779
560	0.779
560.941	0.778
561.882	0.778
562.823	0.776
563.764	0.776
564.706	0.775
565.647	0.774
566.588	0.773
567.529	0.773
568.47	0.773
569.412	0.771
570.353	0.771
571.294	0.769
572.235	0.768
573.176	0.766
574.117	0.765
575.059	0.764
576	0.762
576.941	0.761
577.882	0.76
578.823	0.759
579.764	0.757
580.706	0.756
581.647	0.742
582.588	0.74
583.529	0.735
584.47	0.724
585.412	0.714
586.353	0.703
587.294	0.693
588.235	0.683
589.176	0.674
590.117	0.655
591.059	0.617
592	0.589
592.941	0.57
593.882	0.548
594.823	0.525
595.765	0.482
596.706	0.455
597.647	0.423
598.588	0.349
599.529	0.221
600.47	0.2
601.412	0.178
602.353	0.157
603.294	0.115
604.235	0.093
605.176	0.073
606.118	0.051
607.059	0.026
608	0.019
608.941	0.012
609.882	0.01
610.823	0.011
611.765	0.019
612.706	0.026
613.647	0.034
614.588	0.079
615.529	0.108
616.47	0.136
617.412	0.209
618.353	0.288
619.294	0.368
620.235	0.447
621.176	0.479
622.118	0.495
623.059	0.51
624	0.552
624.941	0.605
625.882	0.624
626.823	0.643
627.765	0.656
628.706	0.666
629.647	0.667
630.588	0.667
631.529	0.667
632.471	0.665
633.412	0.665
634.353	0.661
635.294	0.65
636.235	0.64
637.176	0.633
638.118	0.624
639.059	0.614
640	0.605
640.941	0.595
641.882	0.595
642.823	0.596
643.765	0.6
644.706	0.603
645.647	0.604
646.588	0.615
647.529	0.622
648.471	0.627
649.412	0.638
650.353	0.718
651.294	0.735
652.235	0.736
653.176	0.737
654.118	0.738
655.059	0.74
656	0.741
656.941	0.742
657.882	0.743
658.824	0.745
659.765	0.745
660.706	0.745
661.647	0.746
662.588	0.746
663.529	0.746
664.471	0.746
665.412	0.746
666.353	0.746
667.294	0.746
668.235	0.746
669.177	0.746
670.118	0.745
671.059	0.745
672	0.745
672.941	0.745
673.882	0.743
674.824	0.743
675.765	0.743
676.706	0.743
677.647	0.743
678.588	0.742
679.529	0.742
680.471	0.742
681.412	0.742
682.353	0.742
683.294	0.742
684.235	0.741
685.177	0.74
686.118	0.74
687.059	0.738
688	0.737
688.941	0.735
689.882	0.735
690.824	0.733
691.765	0.732
692.706	0.73
