Infrared Spectrum: 1,3-Octadiene
Formula: C 8 H 14
CAS: 1002-33-1
State: gas
Instrument: HP-GC/MS/IRD
Origin: NIST Mass Spectrometry Data Center
1/CM	ABSORBANCE
550	0.00046
562	9.75e-05
574	4.5e-05
586	0.0001725
598	0.000185
610	0.0002675
622	0.0003475
634	0.000515
646	0.0004625
658	0.0003175
670	0.0002875
682	0.00026
694	0.0001475
706	0.0002
718	0.00037
730	0.0005025
742	0.0007175
754	0.0006025
766	0.0004
778	0.00038
790	0.0004075
802	0.000375
814	0.0004275
826	0.0005975
838	0.0008025
850	0.00097
862	0.001235
874	0.00197
886	0.00359
898	0.00569
910	0.0054175
922	0.0037
934	0.00317
946	0.0035925
958	0.003795
970	0.004155
982	0.00556
994	0.00717
1006	0.0064925
1018	0.0041725
1030	0.0025025
1042	0.00153
1054	0.00104
1066	0.0008
1078	0.00068
1090	0.000625
1102	0.000605
1114	0.0004775
1126	0.000365
1138	0.00034
1150	0.0003625
1162	0.000505
1174	0.0005025
1186	0.0004
1198	0.00037
1210	0.0003925
1222	0.00032
1234	0.0004225
1246	0.0005
1258	0.00056
1270	0.000655
1282	0.0007775
1294	0.0009575
1306	0.00103
1318	0.0010175
1330	0.0011575
1342	0.00122
1354	0.0010225
1366	0.000945
1378	0.001175
1390	0.0012325
1402	0.0009925
1414	0.001075
1426	0.001375
1438	0.002055
1450	0.002665
1462	0.002775
1474	0.0021175
1486	0.0011625
1498	0.0006325
1510	0.0004775
1522	0.00046
1534	0.0004775
1546	0.000475
1558	0.0005025
1570	0.0006275
1582	0.000995
1594	0.0017225
1606	0.00215
1618	0.0014375
1630	0.0013475
1642	0.0020975
1654	0.0024425
1666	0.00089
1678	0.0002875
1690	0.0001575
1702	0.000155
1714	0.000135
1726	0.0001475
1738	0.0001775
1750	0.00022
1762	0.00031
1774	0.00048
1786	0.000815
1798	0.00175
1810	0.00157
1822	0.000725
1834	0.00041
1846	0.000315
1858	0.00019
1870	0.0001375
1882	0.0001175
1894	9.5e-05
1906	9.25e-05
1918	7.5e-05
1930	7e-05
1942	7.5e-05
1954	5e-05
1966	3.75e-05
1978	3.5e-05
1990	3.5e-05
2002	3.25e-05
2014	1.5e-05
2026	3.5e-05
2038	3.75e-05
2050	5.75e-05
2062	2.75e-05
2074	3.5e-05
2086	3.25e-05
2098	4.5e-05
2110	4.5e-05
2122	4e-05
2134	5e-05
2146	3.75e-05
2158	4e-05
2170	2.75e-05
2182	2.75e-05
2194	5e-06
2206	3e-05
2218	4.5e-05
2230	3.75e-05
2242	5e-05
2254	2.5e-05
2266	1.25e-05
2278	4e-05
2290	2.5e-05
2302	5e-05
2314	6.75e-05
2326	8e-05
2338	8.75e-05
2350	6.75e-05
2362	7.5e-05
2374	6.5e-05
2386	5e-05
2398	4.25e-05
2410	4.5e-05
2422	7e-05
2434	4.75e-05
2446	1.75e-05
2458	2.75e-05
2470	2.5e-06
2482	1.75e-05
2494	3.5e-05
2506	1.5e-05
2518	3.75e-05
2530	5.25e-05
2542	7.5e-05
2554	7.25e-05
2566	7e-05
2578	6.75e-05
2590	9.5e-05
2602	7.75e-05
2614	0.000105
2626	0.00012
2638	0.0001525
2650	0.0001925
2662	0.0002225
2674	0.000215
2686	0.0002525
2698	0.000215
2710	0.000225
2722	0.0002375
2734	0.000335
2746	0.0004175
2758	0.0004475
2770	0.000485
2782	0.000585
2794	0.000765
2806	0.000985
2818	0.001415
2830	0.002315
2842	0.00417
2854	0.006935
2866	0.00951
2878	0.01078
2890	0.0104925
2902	0.0109375
2914	0.0156525
2926	0.0224575
2938	0.024865
2950	0.020655
2962	0.02007
2974	0.018335
2986	0.010725
2998	0.0079175
3010	0.0081475
3022	0.0067125
3034	0.00483
3046	0.003715
3058	0.00282
3070	0.002435
3082	0.0031125
3094	0.0040625
3106	0.00224
3118	0.00099
3130	0.0006425
3142	0.0004825
3154	0.0004175
3166	0.0003625
3178	0.000325
3190	0.0002625
3202	0.0002375
3214	0.00017
3226	0.0001425
3238	9.75e-05
3250	7e-05
3262	5.75e-05
3274	4.75e-05
3286	4e-05
3298	4e-05
3310	5.25e-05
3322	3e-05
3334	3.25e-05
3346	4e-05
3358	1.5e-05
3370	5e-05
3382	2e-05
3394	3.5e-05
3406	4.5e-05
3418	3e-05
3430	3.25e-05
3442	6e-05
3454	1.25e-05
3466	4.25e-05
3478	6.25e-05
3490	7.75e-05
3502	3e-05
3514	5e-06
3526	1.25e-05
3538	4e-05
3550	2e-05
3562	4.5e-05
3574	4.75e-05
3586	5.75e-05
3598	7.5e-05
3610	6.5e-05
3622	4.5e-05
3634	8.5e-05
3646	7.5e-05
3658	9.25e-05
3670	8.75e-05
3682	0.00013
3694	0.000135
3706	7.5e-05
3718	9.25e-05
3730	7.75e-05
3742	6.75e-05
3754	9.75e-05
3766	0.00011
3778	0.00013
3790	7e-05
3802	0.0001025
3814	9e-05
3826	0.000105
3838	0.0001175
