Infrared Spectrum: 1,3,6-Heptatriene
Formula: C 7 H 10
CAS: 1002-27-3
State: gas
Instrument: HP-GC/MS/IRD
Origin: NIST Mass Spectrometry Data Center
1/CM	ABSORBANCE
550	0.0004896
562	0.0006208
574	0.0006528
586	0.0004304
598	0.00032
610	0.0002864
622	0.0004224
634	0.0011072
646	0.001888
658	0.0013216
670	0.000536
682	0.0002896
694	0.0001376
706	0.0001312
718	2.88e-05
730	9.44e-05
742	0.0003152
754	0.000296
766	0.0001136
778	6.56e-05
790	0.0001664
802	0.0001568
814	0.0001408
826	0.000152
838	0.0001712
850	0.0002304
862	0.0001904
874	0.0001632
886	0.0001328
898	0.0001472
910	0.0001952
922	0.0001392
934	0.000152
946	0.0001152
958	8.16e-05
970	7.04e-05
982	5.12e-05
994	0.0001328
1006	0.0001664
1018	0.0001568
1030	0.0001392
1042	0.0001616
1054	6.56e-05
1066	0.0001648
1078	0.0001312
1090	8.64e-05
1102	0.0001312
1114	0.0001232
1126	0.0001392
1138	0.0001056
1150	0.0001264
1162	0.000144
1174	0.0003136
1186	0.0005824
1198	0.0007824
1210	0.000952
1222	0.001624
1234	0.0030224
1246	0.003192
1258	0.0012288
1270	0.0004672
1282	0.0003136
1294	0.0003632
1306	0.0004704
1318	0.0005648
1330	0.0009872
1342	0.000968
1354	0.001048
1366	0.0020368
1378	0.0020304
1390	0.0010928
1402	0.0008368
1414	0.0004304
1426	0.00044
1438	0.0007744
1450	0.0010912
1462	0.0015728
1474	0.002184
1486	0.0016256
1498	0.0006864
1510	0.0002912
1522	0.0002384
1534	0.0001232
1546	0.000112
1558	0.0001504
1570	0.0001168
1582	0.0001024
1594	5.76e-05
1606	6.56e-05
1618	9.6e-05
1630	6.24e-05
1642	6.56e-05
1654	0.0001184
1666	6.72e-05
1678	5.76e-05
1690	5.92e-05
1702	0.00012
1714	8.32e-05
1726	4.96e-05
1738	6.72e-05
1750	5.6e-05
1762	5.92e-05
1774	5.28e-05
1786	4.32e-05
1798	4.64e-05
1810	5.12e-05
1822	4.48e-05
1834	4.96e-05
1846	4.96e-05
1858	2.72e-05
1870	3.04e-05
1882	3.2e-05
1894	5.92e-05
1906	4.8e-05
1918	6.08e-05
1930	2.88e-05
1942	5.44e-05
1954	4.64e-05
1966	4.48e-05
1978	5.44e-05
1990	6.24e-05
2002	6.08e-05
2014	7.84e-05
2026	5.92e-05
2038	3.36e-05
2050	5.28e-05
2062	7.68e-05
2074	5.12e-05
2086	5.6e-05
2098	5.12e-05
2110	3.36e-05
2122	2.88e-05
2134	3.2e-05
2146	1.44e-05
2158	3.68e-05
2170	2.88e-05
2182	4.48e-05
2194	2.72e-05
2206	2.56e-05
2218	3.2e-06
2230	1.44e-05
2242	3.04e-05
2254	3.68e-05
2266	4.96e-05
2278	3.04e-05
2290	5.44e-05
2302	5.6e-05
2314	3.68e-05
2326	3.52e-05
2338	6.4e-05
2350	4.64e-05
2362	5.76e-05
2374	7.2e-05
2386	4e-05
2398	4e-05
2410	6.72e-05
2422	5.92e-05
2434	2.56e-05
2446	1.92e-05
2458	2.56e-05
2470	1.44e-05
2482	8e-06
2494	2.4e-05
2506	3.2e-05
2518	6.4e-06
2530	4e-05
2542	3.2e-05
2554	2.56e-05
2566	1.28e-05
2578	2.08e-05
2590	4.96e-05
2602	2.24e-05
2614	5.76e-05
2626	6.88e-05
2638	5.28e-05
2650	4.96e-05
2662	8.96e-05
2674	0.0001104
2686	9.92e-05
2698	0.0001088
2710	9.44e-05
2722	0.0001472
2734	0.0001664
2746	0.0001632
2758	0.000168
2770	0.000176
2782	0.0002032
2794	0.0002432
2806	0.0002976
2818	0.0004208
2830	0.0005712
2842	0.0007808
2854	0.0013424
2866	0.002664
2878	0.003912
2890	0.0039968
2902	0.003936
2914	0.004288
2926	0.0051872
2938	0.0067456
2950	0.0099776
2962	0.0158976
2974	0.0117536
2986	0.0042576
2998	0.0017552
3010	0.0009616
3022	0.0008368
3034	0.000592
3046	0.0003424
3058	0.00028
3070	0.00028
3082	0.0002256
3094	0.0001952
3106	0.0002096
3118	0.0001152
3130	0.0001584
3142	0.0002016
3154	0.0001872
3166	0.0001744
3178	0.0002368
3190	0.0002352
3202	0.0001952
3214	0.000192
3226	0.0002512
3238	0.0001888
3250	0.00016
3262	8.8e-05
3274	0.000152
3286	0.0001088
3298	0.0001312
3310	0.0001264
3322	7.04e-05
3334	0.0001168
3346	9.76e-05
3358	0.0001184
3370	8.48e-05
3382	0.0001424
3394	0.0001712
3406	7.84e-05
3418	0.0001168
3430	0.0001152
3442	8e-05
3454	0.0001312
3466	6.56e-05
3478	9.28e-05
3490	0.0001072
3502	0.0001312
3514	0.0001152
3526	1.6e-06
3538	9.76e-05
3550	0.0001088
3562	0.0001872
3574	9.76e-05
3586	0.0001648
3598	0.0001136
3610	0.0001616
3622	9.76e-05
3634	0.0001904
3646	0.0001664
3658	0.0001152
3670	0.000128
3682	0.000152
3694	0.0001664
3706	9.28e-05
3718	0.000192
3730	0.0001872
3742	0.0001632
3754	0.000192
3766	0.0001984
3778	0.00024
3790	0.000208
3802	0.0001728
3814	0.0002016
3826	0.0001488
3838	0.0002384
