Infrared Spectrum: 2-OXAZOLANONE, 3-METHYLENEAMINO-
Formula: C4 H6 N2 O2
CAS: 10020-75-4
State: SOLID (1 mg / 500 mg KBr DISC)
Class: COBLENTZ III
Instrument: PERKIN-ELMER 621
Sampling: TRANSMISSION
Resolution: 4
Origin: SOUTHERN RESEARCH INSTITUTE
1/CM	TRANSMITTANCE
250.438	0.126
260.946	0.1759
271.454	0.2689
281.962	0.348
292.47	0.396
302.978	0.448
313.485	0.599
323.993	0.616
334.501	0.637
345.009	0.662
355.517	0.675
366.025	0.687
376.533	0.695
387.041	0.692
397.549	0.658
408.057	0.693
418.564	0.671
429.072	0.5621
439.58	0.748
450.088	0.755
460.596	0.753
471.104	0.748
481.612	0.761
492.12	0.765
502.628	0.768
513.136	0.763
523.644	0.756
534.151	0.731
544.659	0.746
555.167	0.734
565.675	0.722
576.183	0.708
586.691	0.676
597.199	0.5661
607.707	0.5739
618.215	0.722
628.723	0.6702
639.23	0.7611
649.738	0.732
660.246	0.721
670.754	0.695
681.262	0.657
691.77	0.595
702.278	0.557
712.786	0.646
723.294	0.604
733.802	0.5002
744.31	0.1911
754.817	0.41
765.325	0.463
775.833	0.459
786.341	0.366
796.849	0.4789
807.357	0.65
817.865	0.712
828.373	0.718
838.881	0.698
849.389	0.671
859.896	0.649
870.404	0.674
880.912	0.675
891.42	0.667
901.928	0.646
912.436	0.625
922.944	0.577
933.452	0.564
943.96	0.496
954.468	0.3531
964.976	0.126
975.483	0.246
985.991	0.475
996.499	0.488
1007.01	0.479
1017.52	0.422
1028.02	0.297
1038.53	0.238
1049.04	0.477
1059.55	0.438
1070.05	0.349
1080.56	0.201
1091.07	0.111
1101.58	0.3179
1112.09	0.4629
1122.59	0.522
1133.1	0.51
1143.61	0.505
1154.12	0.3462
1164.63	0.4179
1175.13	0.462
1185.64	0.434
1196.15	0.365
1206.66	0.286
1217.17	0.1921
1227.67	0.146
1238.18	0.155
1248.69	0.234
1259.2	0.4089
1269.7	0.278
1280.21	0.445
1290.72	0.585
1301.23	0.675
1311.74	0.7259
1322.24	0.731
1332.75	0.706
1343.26	0.66
1353.77	0.59
1364.28	0.5021
1374.78	0.396
1385.29	0.382
1395.8	0.223
1406.31	0.153
1416.82	0.255
1427.32	0.3999
1437.83	0.479
1448.34	0.523
1458.85	0.393
1469.35	0.3819
1479.86	0.3211
1490.37	0.4349
1500.88	0.545
1511.39	0.651
1521.89	0.679
1532.4	0.689
1542.91	0.692
1553.42	0.701
1563.93	0.691
1574.43	0.666
1584.94	0.638
1595.45	0.586
1605.96	0.308
1616.47	0.569
1626.97	0.574
1637.48	0.551
1647.99	0.527
1658.5	0.498
1669.01	0.468
1679.51	0.433
1690.02	0.39
1700.53	0.346
1711.04	0.274
1721.54	0.252
1732.05	0.17
1742.56	0.092
1753.07	0.044
1763.58	0.039
1774.08	0.091
1784.59	0.174
1795.1	0.261
1805.61	0.319
1816.12	0.365
1826.62	0.401
1837.13	0.416
1847.64	0.442
1858.15	0.484
1868.66	0.523
1879.16	0.556
1889.67	0.585
1900.18	0.607
1910.69	0.628
1921.19	0.633
1931.7	0.606
1942.21	0.6249
1952.72	0.672
1963.23	0.683
1973.73	0.692
1984.24	0.695
1994.75	0.692
2005.26	0.681
2015.77	0.68
2026.27	0.704
2036.78	0.723
2047.29	0.7339
2057.8	0.735
2068.31	0.735
2078.81	0.7498
2089.32	0.7569
2099.83	0.7611
2110.34	0.7669
2120.85	0.77
2131.35	0.768
2141.86	0.769
2152.37	0.7632
2162.88	0.7511
2173.38	0.7157
2183.89	0.6969
2194.4	0.7223
2204.91	0.7416
2215.42	0.758
2225.92	0.763
2236.43	0.7642
2246.94	0.756
2257.45	0.7627
2267.96	0.7688
2278.46	0.769
2288.97	0.769
2299.48	0.765
2309.99	0.7592
2320.5	0.7568
2331	0.755
2341.51	0.7445
2352.02	0.732
2362.53	0.731
2373.03	0.732
2383.54	0.738
2394.05	0.7437
2404.56	0.753
2415.07	0.755
2425.57	0.748
2436.08	0.747
2446.59	0.7369
2457.1	0.727
2467.61	0.731
2478.11	0.7253
2488.62	0.7027
2499.13	0.695
2509.64	0.7076
2520.15	0.7187
2530.65	0.7174
2541.16	0.708
2551.67	0.7143
2562.18	0.722
2572.68	0.725
2583.19	0.726
2593.7	0.725
2604.21	0.726
2614.72	0.723
2625.22	0.722
2635.73	0.722
2646.24	0.721
2656.75	0.723
2667.26	0.7199
2677.76	0.721
2688.27	0.7199
2698.78	0.723
2709.29	0.723
2719.8	0.7215
2730.3	0.715
2740.81	0.713
2751.32	0.708
2761.83	0.714
2772.34	0.712
2782.84	0.709
2793.35	0.6991
2803.86	0.6816
2814.37	0.68
2824.87	0.683
2835.38	0.6786
2845.89	0.6558
2856.4	0.632
2866.91	0.6296
2877.41	0.623
2887.92	0.6148
2898.43	0.592
2908.94	0.5896
2919.45	0.5521
2929.95	0.5643
2940.46	0.5786
2950.97	0.5639
2961.48	0.5574
2971.99	0.556
2982.49	0.5403
2993	0.5494
3003.51	0.5693
3014.02	0.5613
3024.52	0.6263
3035.03	0.6436
3045.54	0.6519
3056.05	0.66
3066.56	0.6667
3077.06	0.662
3087.57	0.6497
3098.08	0.6115
3108.59	0.668
3119.1	0.66
3129.6	0.66
3140.11	0.662
3150.62	0.6588
3161.13	0.6605
3171.64	0.664
3182.14	0.663
3192.65	0.6628
3203.16	0.659
3213.67	0.659
3224.18	0.651
3234.68	0.655
3245.19	0.654
3255.7	0.651
3266.21	0.647
3276.71	0.642
3287.22	0.637
3297.73	0.634
3308.24	0.6299
3318.75	0.6259
3329.25	0.6159
3339.76	0.607
3350.27	0.5959
3360.78	0.5859
3371.29	0.5767
3381.79	0.5658
3392.3	0.5559
3402.81	0.5469
3413.32	0.5409
3423.83	0.54
3434.33	0.537
3444.84	0.536
3455.35	0.536
3465.86	0.535
3476.36	0.531
3486.87	0.5139
3497.38	0.503
3507.89	0.526
3518.4	0.5489
3528.9	0.5679
3539.41	0.583
3549.92	0.591
3560.43	0.5999
3570.94	0.607
3581.44	0.6168
3591.95	0.628
3602.46	0.633
3612.97	0.6448
3623.48	0.6528
3633.98	0.658
3644.49	0.6599
3655	0.662
3665.51	0.6552
3676.01	0.6589
3686.52	0.66
3697.03	0.6629
3707.54	0.663
3718.05	0.664
3728.55	0.663
3739.06	0.6643
3749.57	0.663
3760.08	0.664
3770.59	0.664
3781.09	0.6611
3791.6	0.663
3802.11	0.662
3812.62	0.66
3823.13	0.6578
3833.63	0.657
3844.14	0.657
3854.65	0.654
3865.16	0.6572
3875.67	0.653
3886.17	0.651
3896.68	0.653
3907.19	0.653
3917.7	0.651
3928.2	0.651
3938.71	0.653
3949.22	0.6516
3959.73	0.649
3970.24	0.65
3980.74	0.651
3991.25	0.647
4001.76	0.65
