Infrared Spectrum: Silane, trichloro
Formula: H Cl3 Si
CAS: 10025-78-2
State: SOLUTION (5% CCl4 FOR 3800-1300, 4% CS2 FOR 1300-650, AND 5% CCl4 FOR 650-250)
Boiling point: 31 C
Class: COBLENTZ II
Instrument: PERKIN-ELMER 521 (GRATING)
Instrument parameters: FILTERS AT 3150, 2500, 2000, 1150, 700, 410. GRATING CHANGES: 2000, 630
Path length: 0.011 CM, 0.010 CM, AND 0.010 CM
Resolution: 2
Origin: DOW CORNING CORP.
1/CM	TRANSMITTANCE
241	0.9282
250	0.9285
259	0.9499
268	0.9554
277	0.9574
286	0.9588
295	0.9592
304	0.9589
313	0.9583
322	0.9571
331	0.9556
340	0.9535
349	0.9515
358	0.9483
367	0.9451
376	0.941
385	0.9368
394	0.9327
403	0.9285
412	0.923
421	0.9176
430	0.9141
439	0.9127
448	0.9151
457	0.919
466	0.9177
475	0.9089
484	0.8651
493	0.4452
502	0.8253
511	0.8943
520	0.9208
529	0.9165
538	0.9173
547	0.9005
556	0.8807
565	0.8536
574	0.7615
583	0.2551
592	0.0211
601	0.289
610	0.7661
619	0.8251
628	0.888
637	0.8947
646	0.8938
655	0.9123
664	0.9043
673	0.8921
682	0.8841
691	0.8844
700	0.8908
709	0.8937
718	0.8807
727	0.8658
736	0.8606
745	0.8568
754	0.8568
763	0.8144
772	0.7731
781	0.7145
790	0.5271
799	0.2493
808	0.5447
817	0.7707
826	0.8069
835	0.8247
844	0.87
853	0.8807
862	0.8681
871	0.8659
880	0.8678
889	0.873
898	0.8792
907	0.878
916	0.8736
925	0.8742
934	0.8791
943	0.8819
952	0.8833
961	0.8772
970	0.8653
979	0.8702
988	0.8763
997	0.8767
1006	0.8721
1015	0.8687
1024	0.8657
1033	0.8633
1042	0.862
1051	0.8591
1060	0.8528
1069	0.8424
1078	0.8389
1087	0.8444
1096	0.853
1105	0.8568
1114	0.8574
1123	0.8598
1132	0.863
1141	0.8663
1150	0.8688
1159	0.8711
1168	0.8745
1177	0.878
1186	0.8812
1195	0.884
1204	0.8859
1213	0.8856
1222	0.8854
1231	0.8857
1240	0.8862
1249	0.8867
1258	0.8874
1267	0.8884
1276	0.8893
1285	0.8888
1294	0.8919
1303	0.8987
1312	0.903
1321	0.9027
1330	0.9006
1339	0.9017
1348	0.9035
1357	0.9033
1366	0.9034
1375	0.9031
1384	0.9028
1393	0.9022
1402	0.9015
1411	0.9024
1420	0.9035
1429	0.9056
1438	0.9057
1447	0.9041
1456	0.9013
1465	0.8981
1474	0.8972
1483	0.8963
1492	0.8961
1501	0.8961
1510	0.8955
1519	0.8946
1528	0.8936
1537	0.8922
1546	0.8916
1555	0.8921
1564	0.8919
1573	0.8903
1582	0.8911
1591	0.8931
1600	0.8961
1609	0.8967
1618	0.8971
1627	0.8972
1636	0.8977
1645	0.8984
1654	0.8991
1663	0.8997
1672	0.9002
1681	0.9005
1690	0.9006
1699	0.9019
1708	0.9015
1717	0.901
1726	0.9007
1735	0.9005
1744	0.8999
1753	0.899
1762	0.8982
1771	0.898
1780	0.8981
1789	0.8983
1798	0.8983
1807	0.8982
1816	0.8982
1825	0.8982
1834	0.8977
1843	0.8973
1852	0.8968
1861	0.8951
1870	0.8935
1879	0.8918
1888	0.8911
1897	0.8907
1906	0.8904
1915	0.8911
1924	0.8922
1933	0.8933
1942	0.8944
1951	0.8955
1960	0.8963
1969	0.8969
1978	0.8975
1987	0.8984
1996	0.9002
2005	0.9029
2014	0.9043
2023	0.9055
2032	0.9069
2041	0.9075
2050	0.9078
2059	0.9081
2068	0.9084
2077	0.9078
2086	0.907
2095	0.9062
2104	0.9055
2113	0.9043
2122	0.9031
2131	0.9018
2140	0.9007
2149	0.9002
2158	0.9001
2167	0.8999
2176	0.9016
2185	0.8955
2194	0.8907
2203	0.884
2212	0.8719
2221	0.8595
2230	0.8403
2239	0.7973
2248	0.6646
2257	0.5325
2266	0.605
2275	0.7488
2284	0.806
2293	0.862
2302	0.8774
2311	0.8873
2320	0.8922
2329	0.8951
2338	0.8963
2347	0.8971
2356	0.8979
2365	0.8984
2374	0.899
2383	0.899
2392	0.8988
2401	0.8986
2410	0.8984
2419	0.8982
2428	0.898
2437	0.8974
2446	0.8968
2455	0.8961
2464	0.8955
2473	0.8949
2482	0.8949
2491	0.8964
2500	0.8965
2509	0.8966
2518	0.8967
2527	0.8967
2536	0.8965
2545	0.896
2554	0.8955
2563	0.8964
2572	0.8971
2581	0.8976
2590	0.8976
2599	0.8976
2608	0.8976
2617	0.8976
2626	0.8978
2635	0.898
2644	0.8983
2653	0.8985
2662	0.8987
2671	0.899
2680	0.8993
2689	0.8995
2698	0.8996
2707	0.8967
2716	0.895
2725	0.8948
2734	0.8947
2743	0.8946
2752	0.8945
2761	0.8945
2770	0.8961
2779	0.8976
2788	0.8981
2797	0.8972
2806	0.894
2815	0.893
2824	0.893
2833	0.8934
2842	0.8959
2851	0.8987
2860	0.9017
2869	0.903
2878	0.9038
2887	0.9045
2896	0.9048
2905	0.9046
2914	0.9043
2923	0.904
2932	0.9036
2941	0.9031
2950	0.9027
2959	0.9021
2968	0.9017
2977	0.9011
2986	0.9007
2995	0.9001
3004	0.8989
3013	0.8976
3022	0.8965
3031	0.8952
3040	0.8945
3049	0.8967
3058	0.9017
3067	0.9084
3076	0.9136
3085	0.9133
3094	0.9129
3103	0.9119
3112	0.911
3121	0.9101
3130	0.9092
3139	0.9081
3148	0.9068
3157	0.9036
3166	0.9058
3175	0.9084
3184	0.9117
3193	0.9131
3202	0.9143
3211	0.9146
3220	0.915
3229	0.9152
3238	0.9152
3247	0.9153
3256	0.9154
3265	0.9155
3274	0.9157
3283	0.9159
3292	0.9162
3301	0.9164
3310	0.9166
3319	0.9164
3328	0.9161
3337	0.9157
3346	0.9153
3355	0.9149
3364	0.9145
3373	0.9139
3382	0.9133
3391	0.9127
3400	0.9122
3409	0.9117
3418	0.9113
3427	0.9109
3436	0.9106
3445	0.9101
3454	0.9098
3463	0.9104
3472	0.9114
3481	0.9124
3490	0.9134
3499	0.9141
3508	0.9147
3517	0.9152
3526	0.9158
3535	0.9163
3544	0.9152
3553	0.914
3562	0.9128
3571	0.9152
3580	0.9179
3589	0.9177
3598	0.9174
3607	0.9182
3616	0.9193
3625	0.9203
3634	0.9196
3643	0.9177
3652	0.9158
3661	0.918
3670	0.9176
3679	0.9183
3688	0.9202
3697	0.9196
3706	0.9185
3715	0.9183
3724	0.919
3733	0.9201
3742	0.9223
3751	0.9216
3760	0.9187
3769	0.9185
3778	0.9197
3787	0.9192
3796	0.9187
3805	0.9182
