Infrared Spectrum: 3-Hexyn-1-ol
Formula: C 6 H 10 O
CAS: 1002-28-4
State: gas
Instrument: HP-GC/MS/IRD
Origin: NIST Mass Spectrometry Data Center
1/CM	ABSORBANCE
550	0.0004466
562	0.0002464
574	0.0002408
586	0.0002338
598	0.0001624
610	0.0002226
622	0.0002338
634	0.000175
646	0.0001288
658	9.66e-05
670	9.52e-05
682	8.96e-05
694	5.6e-05
706	3.78e-05
718	4.62e-05
730	5.46e-05
742	4.9e-05
754	0.0001232
766	0.0001652
778	0.0001442
790	0.0001176
802	0.0001246
814	0.0002058
826	0.0003822
838	0.000658
850	0.000742
862	0.0006664
874	0.0004368
886	0.0003962
898	0.0004214
910	0.0004718
922	0.0004424
934	0.000448
946	0.0006244
958	0.0008008
970	0.0010122
982	0.0012712
994	0.0018592
1006	0.002618
1018	0.0042238
1030	0.0083818
1042	0.013419
1054	0.0126322
1066	0.0085008
1078	0.0047446
1090	0.0023212
1102	0.0012614
1114	0.0009268
1126	0.0008764
1138	0.0009282
1150	0.0009058
1162	0.0009898
1174	0.0013188
1186	0.001589
1198	0.0016184
1210	0.0014546
1222	0.0012614
1234	0.0010738
1246	0.0009436
1258	0.0009198
1270	0.0010136
1282	0.0012404
1294	0.0015764
1306	0.0025718
1318	0.0047194
1330	0.0048356
1342	0.0030002
1354	0.0020944
1366	0.0021504
1378	0.0029092
1390	0.0032998
1402	0.0029036
1414	0.0022204
1426	0.0020202
1438	0.002051
1450	0.0017836
1462	0.0015946
1474	0.0013818
1486	0.0009744
1498	0.0006468
1510	0.0004452
1522	0.0002926
1534	0.0002268
1546	0.0001526
1558	0.0001708
1570	0.0001428
1582	0.0001092
1594	9.24e-05
1606	7.14e-05
1618	4.62e-05
1630	7.98e-05
1642	7.14e-05
1654	6.58e-05
1666	5.18e-05
1678	4.62e-05
1690	3.78e-05
1702	3.5e-05
1714	2.94e-05
1726	1.68e-05
1738	1.96e-05
1750	1.54e-05
1762	1.82e-05
1774	1.82e-05
1786	9.8e-06
1798	2.24e-05
1810	2.24e-05
1822	2.38e-05
1834	1.96e-05
1846	3.22e-05
1858	3.78e-05
1870	7e-05
1882	8.68e-05
1894	9.24e-05
1906	8.4e-05
1918	5.74e-05
1930	3.22e-05
1942	1.26e-05
1954	2.24e-05
1966	3.36e-05
1978	9.8e-06
1990	1.4e-05
2002	3.22e-05
2014	2.94e-05
2026	4.06e-05
2038	7.14e-05
2050	0.0001078
2062	0.0001106
2074	0.0001106
2086	0.0001106
2098	0.0001078
2110	8.68e-05
2122	7.28e-05
2134	5.6e-05
2146	4.76e-05
2158	3.64e-05
2170	2.94e-05
2182	2.52e-05
2194	5.74e-05
2206	4.62e-05
2218	7.42e-05
2230	6.16e-05
2242	5.88e-05
2254	4.9e-05
2266	3.22e-05
2278	4.62e-05
2290	3.36e-05
2302	3.5e-05
2314	3.36e-05
2326	4.06e-05
2338	5.88e-05
2350	5.6e-05
2362	5.46e-05
2374	3.08e-05
2386	4.06e-05
2398	5.04e-05
2410	5.32e-05
2422	7.14e-05
2434	0.0001022
2446	8.68e-05
2458	6.3e-05
2470	5.18e-05
2482	5.32e-05
2494	7.42e-05
2506	8.54e-05
2518	9.66e-05
2530	9.8e-05
2542	8.26e-05
2554	4.9e-05
2566	5.74e-05
2578	7e-05
2590	9.66e-05
2602	8.54e-05
2614	0.0001218
2626	0.0001932
2638	0.0002142
2650	0.0001624
2662	0.0001484
2674	0.0001862
2686	0.0002002
2698	0.0002114
2710	0.0002814
2722	0.0003192
2734	0.0003962
2746	0.0004354
2758	0.0004914
2770	0.0005082
2782	0.0005096
2794	0.0005978
2806	0.0007546
2818	0.0009968
2830	0.0014154
2842	0.0021084
2854	0.00301
2866	0.004291
2878	0.0060886
2890	0.0077028
2902	0.0078988
2914	0.0088606
2926	0.0105476
2938	0.0120736
2950	0.0120526
2962	0.0104748
2974	0.010864
2986	0.0093786
2998	0.0049798
3010	0.0027664
3022	0.0016702
3034	0.0009506
3046	0.0006622
3058	0.0004984
3070	0.0004018
3082	0.0003234
3094	0.0002758
3106	0.000259
3118	0.0002632
3130	0.0002044
3142	0.0002016
3154	0.0002058
3166	0.0001764
3178	0.0001498
3190	9.8e-05
3202	8.82e-05
3214	9.8e-05
3226	1.54e-05
3238	6.3e-05
3250	2.66e-05
3262	3.92e-05
3274	5.32e-05
3286	3.92e-05
3298	0.0001078
3310	3.64e-05
3322	2.8e-05
3334	3.5e-05
3346	2.24e-05
3358	7.98e-05
3370	5.6e-05
3382	4.06e-05
3394	3.64e-05
3406	3.78e-05
3418	5.74e-05
3430	8.26e-05
3442	0.0001148
3454	0.0001358
3466	0.0001022
3478	5.04e-05
3490	8.12e-05
3502	1.12e-05
3514	8.54e-05
3526	0.0001078
3538	0.0002086
3550	0.000245
3562	0.0001946
3574	0.0001512
3586	0.0002324
3598	0.0005782
3610	0.0019824
3622	0.0020804
3634	0.0010556
3646	0.000798
3658	0.001302
3670	0.0015918
3682	0.0010822
3694	0.0005152
3706	0.0002856
3718	0.0002254
3730	0.0001414
3742	7.7e-05
3754	7.56e-05
3766	6.02e-05
3778	7.28e-05
3790	2.24e-05
3802	6.16e-05
3814	0
3826	8.4e-06
3838	4.06e-05
