Infrared Spectrum: CIS-1,4-(CYCLOHEXANE BIS(METHYLAMINE)
Formula: C8 H18 N2
CAS: 10029-09-1
Class: COBLENTZ
Instrument: Not specified, most likely a prism, grating, or hybrid spectrometer.
Sampling: TRANSMISSION
Path length: SMEAR
Resolution: 4
Origin: TENNESSEE EASTMAN COMPANY, RESEARCH LABORATORIES
MICROMETERS	TRANSMITTANCE
2.007	0.988
2.04793	0.991
2.08887	0.994
2.1298	0.996
2.17074	0.996
2.21167	0.994
2.25261	0.988
2.29354	0.959
2.33448	0.938
2.37541	0.94
2.41635	0.945
2.45728	0.953
2.49821	0.962
2.53915	0.965
2.58008	0.967
2.62102	0.965
2.66195	0.965
2.70289	0.967
2.74382	0.964
2.78476	0.955
2.82569	0.94
2.86663	0.926
2.90756	0.882
2.9485	0.592
2.98943	0.544
3.03036	0.501
3.0713	0.515
3.11223	0.641
3.15317	0.694
3.1941	0.81
3.23504	0.86
3.27597	0.868
3.31691	0.827
3.35784	0.515
3.39878	0.011
3.43971	0.056
3.48064	0.042
3.52158	0.273
3.56251	0.6
3.60345	0.667
3.64438	0.674
3.68532	0.733
3.72625	0.761
3.76719	0.766
3.80812	0.8
3.84906	0.839
3.88999	0.882
3.93092	0.902
3.97186	0.904
4.01279	0.919
4.05373	0.926
4.09466	0.931
4.1356	0.933
4.17653	0.935
4.21747	0.941
4.2584	0.94
4.29934	0.94
4.34027	0.94
4.3812	0.94
4.42214	0.94
4.46307	0.94
4.50401	0.941
4.54494	0.941
4.58588	0.945
4.62681	0.945
4.66775	0.943
4.70868	0.941
4.74962	0.941
4.79055	0.941
4.83149	0.945
4.87242	0.945
4.91335	0.941
4.95429	0.941
4.99522	0.941
5.03616	0.94
5.07709	0.933
5.11803	0.928
5.15896	0.928
5.1999	0.928
5.24083	0.926
5.28177	0.921
5.3227	0.923
5.36363	0.923
5.40457	0.926
5.4455	0.928
5.48644	0.928
5.52737	0.928
5.56831	0.928
5.60924	0.926
5.65018	0.921
5.69111	0.909
5.73205	0.89
5.77298	0.873
5.81391	0.87
5.85485	0.86
5.89578	0.839
5.93672	0.824
5.97765	0.788
6.01859	0.733
6.05952	0.684
6.10046	0.598
6.14139	0.496
6.18233	0.435
6.22326	0.401
6.2642	0.404
6.30513	0.455
6.34606	0.529
6.387	0.585
6.42793	0.66
6.46887	0.679
6.5098	0.732
6.55074	0.74
6.59167	0.762
6.63261	0.767
6.67354	0.767
6.71448	0.733
6.75541	0.607
6.79634	0.491
6.83728	0.44
6.87821	0.215
6.91915	0.47
6.96008	0.721
7.00102	0.779
7.04195	0.793
7.08289	0.796
7.12382	0.757
7.16476	0.634
7.20569	0.597
7.24662	0.627
7.28756	0.639
7.32849	0.645
7.36943	0.639
7.41036	0.593
7.4513	0.68
7.49223	0.718
7.53317	0.737
7.5741	0.766
7.61504	0.766
7.65597	0.766
7.69691	0.764
7.73784	0.762
7.77877	0.733
7.81971	0.711
7.86064	0.716
7.90158	0.737
7.94251	0.744
7.98345	0.773
8.02438	0.795
8.06532	0.803
8.10625	0.81
8.14719	0.813
8.18812	0.817
8.22905	0.812
8.26999	0.798
8.31092	0.778
8.35186	0.773
8.39279	0.762
8.43373	0.745
8.47466	0.75
8.5156	0.778
8.55653	0.79
8.59747	0.79
8.6384	0.783
8.67933	0.773
8.72027	0.761
8.7612	0.754
8.80214	0.742
8.84307	0.732
8.88401	0.703
8.92494	0.679
8.96588	0.656
9.00681	0.636
9.04775	0.624
9.08868	0.617
9.12961	0.587
9.17055	0.576
9.21148	0.563
9.25242	0.503
9.29335	0.44
9.33429	0.416
9.37522	0.443
9.41616	0.496
9.45709	0.552
9.49803	0.602
9.53896	0.614
9.5799	0.578
9.62083	0.54
9.66176	0.535
9.7027	0.532
9.74363	0.546
9.78457	0.604
9.8255	0.658
9.86644	0.686
9.90737	0.689
9.94831	0.677
9.98924	0.658
10.0302	0.641
10.0711	0.617
10.112	0.583
10.153	0.534
10.1939	0.489
10.2348	0.459
10.2758	0.44
10.3167	0.431
10.3577	0.423
10.3986	0.421
10.4395	0.431
10.4805	0.441
10.5214	0.448
10.5623	0.459
10.6033	0.469
10.6442	0.476
10.6851	0.464
10.7261	0.436
10.767	0.435
10.8079	0.453
10.8489	0.453
10.8898	0.44
10.9307	0.411
10.9717	0.383
11.0126	0.348
11.0535	0.319
11.0945	0.291
11.1354	0.274
11.1763	0.252
11.2173	0.23
11.2582	0.216
11.2991	0.191
11.3401	0.182
11.381	0.177
11.422	0.174
11.4629	0.165
11.5038	0.156
11.5448	0.146
11.5857	0.136
11.6266	0.126
11.6676	0.119
11.7085	0.112
11.7494	0.107
11.7904	0.104
11.8313	0.102
11.8722	0.1
11.9132	0.1
11.9541	0.102
11.995	0.102
12.036	0.105
12.0769	0.114
12.1178	0.121
12.1588	0.131
12.1997	0.146
12.2406	0.167
12.2816	0.182
12.3225	0.206
12.3634	0.232
12.4044	0.252
12.4453	0.273
12.4862	0.284
12.5272	0.286
12.5681	0.278
12.6091	0.259
12.65	0.249
12.6909	0.238
12.7319	0.235
12.7728	0.237
12.8137	0.24
12.8547	0.24
12.8956	0.237
12.9365	0.233
12.9775	0.232
13.0184	0.233
13.0593	0.247
13.1003	0.267
13.1412	0.295
13.1821	0.325
13.2231	0.361
13.264	0.394
13.3049	0.419
13.3459	0.45
13.3868	0.479
13.4277	0.5
13.4687	0.523
13.5096	0.542
13.5505	0.559
13.5915	0.573
13.6324	0.588
13.6734	0.597
13.7143	0.607
13.7552	0.616
13.7962	0.626
13.8371	0.633
13.878	0.639
13.919	0.646
13.9599	0.651
14.0008	0.658
14.0418	0.662
14.0827	0.665
14.1236	0.668
14.1646	0.67
14.2055	0.672
14.2464	0.675
14.2874	0.677
14.3283	0.677
14.3692	0.677
14.4102	0.677
14.4511	0.677
14.492	0.679
14.533	0.679
14.5739	0.677
14.6148	0.677
14.6558	0.674
14.6967	0.675
14.7377	0.675
14.7786	0.668
14.8195	0.667
14.8605	0.665
14.9014	0.66
14.9423	0.65
14.9833	0.645
15.0242	0.641
15.0651	0.643
15.1061	0.645
15.147	0.636
15.1879	0.633
15.2289	0.626
15.2698	0.617
15.3107	0.609
15.3517	0.6
15.3926	0.592
15.4335	0.585
15.4745	0.58
15.5154	0.575
15.5563	0.575
15.5973	0.575
15.6382	0.573
15.6791	0.573
15.7201	0.573
15.761	0.571
15.8019	0.566
15.8429	0.558
15.8838	0.551
15.9248	0.544
15.9657	0.537
