Infrared Spectrum: TRANS-1,4-CYCLOHEXANE-BIS(METHYLAMINE)
Formula: C8 H18 N2
CAS: 10029-07-9
Class: COBLENTZ
Instrument: Not specified, most likely a prism, grating, or hybrid spectrometer.
Sampling: TRANSMISSION
Path length: SMEAR
Resolution: 4
Origin: TENNESSEE EASTMAN COMPANY, RESEARCH LABORATORIES
MICROMETERS	TRANSMITTANCE
2.055	0.993
2.09591	0.994
2.13683	0.994
2.17774	0.994
2.21866	0.994
2.25957	0.991
2.30049	0.977
2.3414	0.967
2.38232	0.967
2.42323	0.972
2.46415	0.979
2.50506	0.989
2.54598	0.991
2.58689	0.991
2.62781	0.991
2.66872	0.994
2.70964	0.993
2.75055	0.977
2.79147	0.943
2.83238	0.895
2.8733	0.825
2.91421	0.753
2.95513	0.529
2.99604	0.408
3.03695	0.41
3.07787	0.396
3.11878	0.519
3.1597	0.57
3.20061	0.692
3.24153	0.772
3.28244	0.808
3.32336	0.808
3.36427	0.608
3.40519	0.023
3.4461	0.051
3.48702	0.037
3.52793	0.182
3.56885	0.499
3.60976	0.641
3.65068	0.61
3.69159	0.709
3.73251	0.747
3.77342	0.772
3.81434	0.8
3.85525	0.839
3.89616	0.878
3.93708	0.909
3.97799	0.919
4.01891	0.928
4.05982	0.941
4.10074	0.948
4.14165	0.952
4.18257	0.952
4.22348	0.953
4.2644	0.952
4.30531	0.952
4.34623	0.955
4.38714	0.958
4.42806	0.958
4.46897	0.957
4.50989	0.957
4.5508	0.958
4.59172	0.96
4.63263	0.964
4.67355	0.964
4.71446	0.964
4.75538	0.964
4.79629	0.967
4.8372	0.967
4.87812	0.965
4.91903	0.964
4.95995	0.965
5.00086	0.965
5.04178	0.964
5.08269	0.957
5.12361	0.953
5.16452	0.95
5.20544	0.948
5.24635	0.945
5.28727	0.945
5.32818	0.945
5.3691	0.945
5.41001	0.947
5.45093	0.947
5.49184	0.948
5.53276	0.948
5.57367	0.948
5.61459	0.948
5.6555	0.943
5.69641	0.931
5.73733	0.905
5.77824	0.887
5.81916	0.876
5.86007	0.863
5.90099	0.839
5.9419	0.81
5.98282	0.777
6.02373	0.714
6.06465	0.666
6.10556	0.582
6.14648	0.483
6.18739	0.4
6.22831	0.343
6.26922	0.352
6.31014	0.406
6.35105	0.485
6.39197	0.558
6.43288	0.639
6.4738	0.668
6.51471	0.728
6.55563	0.738
6.59654	0.757
6.63745	0.767
6.67837	0.765
6.71928	0.748
6.7602	0.714
6.80111	0.555
6.84203	0.442
6.88294	0.22
6.92386	0.362
6.96477	0.676
7.00569	0.745
7.0466	0.779
7.08752	0.788
7.12843	0.733
7.16935	0.591
7.21026	0.497
7.25118	0.521
7.29209	0.589
7.33301	0.611
7.37392	0.608
7.41484	0.629
7.45575	0.654
7.49667	0.699
7.53758	0.741
7.57849	0.743
7.61941	0.735
7.66032	0.738
7.70124	0.755
7.74215	0.76
7.78307	0.741
7.82398	0.728
7.8649	0.724
7.90581	0.736
7.94673	0.735
7.98764	0.731
8.02856	0.758
8.06947	0.765
8.11039	0.765
8.1513	0.758
8.19222	0.729
8.23313	0.695
8.27405	0.733
8.31496	0.765
8.35588	0.769
8.39679	0.767
8.4377	0.762
8.47862	0.764
8.51953	0.765
8.56045	0.76
8.60136	0.753
8.64228	0.755
8.68319	0.757
8.72411	0.747
8.76502	0.719
8.80594	0.694
8.84685	0.658
8.88777	0.644
8.92868	0.637
8.9696	0.627
9.01051	0.625
9.05143	0.629
9.09234	0.646
9.13326	0.629
9.17417	0.586
9.21509	0.567
9.256	0.558
9.29692	0.538
9.33783	0.523
9.37874	0.519
9.41966	0.548
9.46057	0.588
9.50149	0.606
9.5424	0.6
9.58332	0.54
9.62423	0.499
9.66515	0.524
9.70606	0.586
9.74698	0.615
9.78789	0.629
9.82881	0.634
9.86972	0.627
9.91064	0.606
9.95155	0.581
9.99247	0.56
10.0334	0.54
10.0743	0.528
10.1152	0.507
10.1561	0.502
10.197	0.511
10.238	0.512
10.2789	0.494
10.3198	0.478
10.3607	0.478
10.4016	0.476
10.4425	0.47
10.4834	0.449
10.5244	0.42
10.5653	0.381
10.6062	0.341
10.6471	0.319
10.688	0.317
10.7289	0.333
10.7698	0.36
10.8108	0.381
10.8517	0.393
10.8926	0.389
10.9335	0.377
10.9744	0.347
11.0153	0.3
11.0563	0.246
11.0972	0.201
11.1381	0.186
11.179	0.186
11.2199	0.181
11.2608	0.176
11.3017	0.172
11.3427	0.169
11.3836	0.162
11.4245	0.158
11.4654	0.15
11.5063	0.141
11.5472	0.135
11.5881	0.129
11.6291	0.121
11.67	0.114
11.7109	0.107
11.7518	0.104
11.7927	0.102
11.8336	0.1
11.8745	0.1
11.9155	0.102
11.9564	0.105
11.9973	0.111
12.0382	0.117
12.0791	0.126
12.12	0.136
12.1609	0.147
12.2019	0.158
12.2428	0.165
12.2837	0.167
12.3246	0.167
12.3655	0.165
12.4064	0.158
12.4474	0.152
12.4883	0.15
12.5292	0.153
12.5701	0.16
12.611	0.17
12.6519	0.186
12.6928	0.2
12.7338	0.229
12.7747	0.249
12.8156	0.276
12.8565	0.3
12.8974	0.314
12.9383	0.309
12.9792	0.29
13.0202	0.282
13.0611	0.294
13.102	0.324
13.1429	0.36
13.1838	0.396
13.2247	0.429
13.2656	0.452
13.3066	0.478
13.3475	0.499
13.3884	0.519
13.4293	0.543
13.4702	0.558
13.5111	0.567
13.5521	0.581
13.593	0.589
13.6339	0.598
13.6748	0.606
13.7157	0.615
13.7566	0.622
13.7975	0.625
13.8385	0.632
13.8794	0.639
13.9203	0.644
13.9612	0.647
14.0021	0.649
14.043	0.651
14.0839	0.652
14.1249	0.654
14.1658	0.656
14.2067	0.656
14.2476	0.656
14.2885	0.656
14.3294	0.656
14.3703	0.656
14.4113	0.656
14.4522	0.656
14.4931	0.656
14.534	0.656
14.5749	0.656
14.6158	0.654
14.6568	0.652
14.6977	0.652
14.7386	0.651
14.7795	0.647
14.8204	0.644
14.8613	0.642
14.9022	0.639
14.9432	0.632
14.9841	0.629
15.025	0.627
15.0659	0.625
15.1068	0.622
15.1477	0.618
15.1886	0.613
15.2296	0.608
15.2705	0.601
15.3114	0.6
15.3523	0.594
15.3932	0.589
15.4341	0.586
15.475	0.584
15.516	0.582
15.5569	0.576
15.5978	0.574
15.6387	0.57
15.6796	0.565
15.7205	0.56
15.7614	0.555
15.8024	0.548
15.8433	0.545
15.8842	0.543
15.9251	0.54
15.966	0.538
