Infrared Spectrum: O-NITRO CARBANILIC ACID, SANTALOL ESTER
Formula: C22 H28 N2 O4
CAS: 100264-27-5
Class: COBLENTZ
Instrument: Not specified, most likely a grating spectrometer.
Sampling: TRANSMISSION
Path length: CAPILLARY
Resolution: 4
Origin: CITRUS EXPERIMENT STATION, UNIVERSITY OF FLORIDA (G. EDWARDS)
MICROMETERS	TRANSMITTANCE
2.04	0.905
2.07321	0.906
2.10642	0.904
2.13962	0.904
2.17283	0.9
2.20604	0.892
2.23925	0.89
2.27245	0.897
2.30566	0.897
2.33887	0.898
2.37208	0.898
2.40529	0.9
2.43849	0.9
2.4717	0.9
2.50491	0.9
2.53812	0.901
2.57132	0.902
2.60453	0.904
2.63774	0.904
2.67095	0.902
2.70415	0.902
2.73736	0.901
2.77057	0.9
2.80378	0.896
2.83699	0.89
2.87019	0.88
2.9034	0.866
2.93661	0.749
2.96982	0.591
3.00302	0.808
3.03623	0.876
3.06944	0.889
3.10265	0.886
3.13586	0.881
3.16906	0.866
3.20227	0.842
3.23548	0.824
3.26869	0.754
3.30189	0.789
3.3351	0.456
3.36831	0.302
3.40152	0.396
3.43472	0.525
3.46793	0.564
3.50114	0.748
3.53435	0.848
3.56756	0.868
3.60076	0.873
3.63397	0.876
3.66718	0.884
3.70039	0.89
3.73359	0.896
3.7668	0.896
3.80001	0.894
3.83322	0.894
3.86643	0.897
3.89963	0.898
3.93284	0.9
3.96605	0.9
3.99926	0.898
4.03246	0.898
4.06567	0.898
4.09888	0.897
4.13209	0.896
4.1653	0.897
4.1985	0.9
4.23171	0.902
4.26492	0.902
4.29813	0.904
4.33133	0.904
4.36454	0.902
4.39775	0.901
4.43096	0.9
4.46416	0.896
4.49737	0.9
4.53058	0.901
4.56379	0.901
4.597	0.9
4.6302	0.901
4.66341	0.901
4.69662	0.902
4.72983	0.909
4.76303	0.909
4.79624	0.91
4.82945	0.91
4.86266	0.909
4.89587	0.909
4.92907	0.906
4.96228	0.904
4.99549	0.902
5.0287	0.898
5.0619	0.896
5.09511	0.898
5.12832	0.893
5.16153	0.892
5.19473	0.897
5.22794	0.898
5.26115	0.9
5.29436	0.9
5.32757	0.892
5.36077	0.89
5.39398	0.88
5.42719	0.87
5.4604	0.856
5.4936	0.854
5.52681	0.856
5.56002	0.84
5.59323	0.82
5.62644	0.749
5.65964	0.632
5.69285	0.201
5.72606	0.205
5.75927	0.459
5.79247	0.641
5.82568	0.757
5.85889	0.713
5.8921	0.648
5.92531	0.699
5.95851	0.756
5.99172	0.769
6.02493	0.749
6.05814	0.75
6.09134	0.741
6.12455	0.713
6.15776	0.494
6.19097	0.26
6.22417	0.521
6.25738	0.572
6.29059	0.199
6.3238	0.52
6.35701	0.719
6.39021	0.708
6.42342	0.647
6.45663	0.56
6.48984	0.552
6.52304	0.328
6.55625	0.085
6.58946	0.063
6.62267	0.07
6.65588	0.279
6.68908	0.494
6.72229	0.592
6.7555	0.561
6.78871	0.458
6.82191	0.272
6.85512	0.238
6.88833	0.307
6.92154	0.191
6.95474	0.222
6.98795	0.331
7.02116	0.471
7.05437	0.551
7.08758	0.601
7.12078	0.625
7.15399	0.625
7.1872	0.607
7.22041	0.561
7.25361	0.56
7.28682	0.603
7.32003	0.597
7.35324	0.532
7.38645	0.327
7.41965	0.087
7.45286	0.19
7.48607	0.403
7.51928	0.545
7.55248	0.431
7.58569	0.439
7.6189	0.511
7.65211	0.515
7.68532	0.5
7.71852	0.447
7.75173	0.358
7.78494	0.299
7.81815	0.283
7.85135	0.32
7.88456	0.398
7.91777	0.478
7.95098	0.495
7.98418	0.408
8.01739	0.209
8.0506	0.11
8.08381	0.181
8.11702	0.359
8.15022	0.482
8.18343	0.503
8.21664	0.448
8.24985	0.342
8.28305	0.182
8.31626	0.073
8.34947	0.089
8.38268	0.179
8.41589	0.379
8.44909	0.547
8.4823	0.631
8.51551	0.651
8.54872	0.583
8.58192	0.476
8.61513	0.492
8.64834	0.601
8.68155	0.561
8.71475	0.556
8.74796	0.691
8.78117	0.753
8.81438	0.78
8.84759	0.785
8.88079	0.773
8.914	0.756
8.94721	0.737
8.98042	0.736
9.01362	0.736
9.04683	0.725
9.08004	0.717
9.11325	0.689
9.14646	0.643
9.17966	0.569
9.21287	0.488
9.24608	0.512
9.27929	0.616
9.31249	0.688
9.3457	0.707
9.37891	0.691
9.41212	0.635
9.44533	0.552
9.47853	0.475
9.51174	0.432
9.54495	0.414
9.57816	0.355
9.61136	0.298
9.64457	0.315
9.67778	0.404
9.71099	0.524
9.74419	0.621
9.7774	0.668
9.81061	0.701
9.84382	0.729
9.87703	0.75
9.91023	0.766
9.94344	0.78
9.97665	0.793
10.0099	0.802
10.0431	0.805
10.0763	0.804
10.1095	0.794
10.1427	0.777
10.1759	0.741
10.2091	0.689
10.2423	0.621
10.2755	0.601
10.3087	0.611
10.3419	0.625
10.3751	0.636
10.4083	0.652
10.4416	0.663
10.4748	0.683
10.508	0.715
10.5412	0.737
10.5744	0.753
10.6076	0.752
10.6408	0.744
10.674	0.733
10.7072	0.736
10.7404	0.761
10.7736	0.79
10.8068	0.814
10.84	0.837
10.8733	0.85
10.9065	0.852
10.9397	0.846
10.9729	0.845
11.0061	0.844
11.0393	0.845
11.0725	0.849
11.1057	0.846
11.1389	0.838
11.1721	0.825
11.2053	0.8
11.2385	0.772
11.2718	0.744
11.305	0.729
11.3382	0.701
11.3714	0.669
11.4046	0.657
11.4378	0.664
11.471	0.661
11.5042	0.617
11.5374	0.559
11.5706	0.557
11.6038	0.621
11.637	0.66
11.6702	0.656
11.7035	0.647
11.7367	0.651
11.7699	0.657
11.8031	0.669
11.8363	0.684
11.8695	0.692
11.9027	0.692
11.9359	0.688
11.9691	0.691
12.0023	0.704
12.0355	0.723
12.0687	0.743
12.1019	0.762
12.1352	0.772
12.1684	0.774
12.2016	0.777
12.2348	0.781
12.268	0.788
12.3012	0.801
12.3344	0.805
12.3676	0.817
12.4008	0.825
12.434	0.826
12.4672	0.825
12.5004	0.824
12.5336	0.817
12.5669	0.812
12.6001	0.8
12.6333	0.774
12.6665	0.732
12.6997	0.68
12.7329	0.597
12.7661	0.537
12.7993	0.532
12.8325	0.596
12.8657	0.681
12.8989	0.721
12.9321	0.713
12.9653	0.684
12.9986	0.633
13.0318	0.571
13.065	0.551
13.0982	0.572
13.1314	0.623
13.1646	0.667
13.1978	0.705
13.231	0.717
13.2642	0.712
13.2974	0.692
13.3306	0.639
13.3638	0.555
13.397	0.454
13.4303	0.356
13.4635	0.292
13.4967	0.284
13.5299	0.318
13.5631	0.396
13.5963	0.467
13.6295	0.547
13.6627	0.6
13.6959	0.643
13.7291	0.673
13.7623	0.691
13.7955	0.704
13.8287	0.708
13.862	0.713
13.8952	0.721
13.9284	0.725
13.9616	0.725
13.9948	0.728
14.028	0.725
14.0612	0.721
14.0944	0.721
14.1276	0.713
14.1608	0.707
14.194	0.699
14.2272	0.693
14.2604	0.684
14.2937	0.675
14.3269	0.667
14.3601	0.653
14.3933	0.639
14.4265	0.613
14.4597	0.583
14.4929	0.555
14.5261	0.536
14.5593	0.529
14.5925	0.529
14.6257	0.528
14.6589	0.523
14.6921	0.511
14.7254	0.499
14.7586	0.498
14.7918	0.5
14.825	0.504
14.8582	0.504
14.8914	0.504
14.9246	0.499
14.9578	0.49
14.991	0.479
