Infrared Spectrum: 1,1-Diethylcyclopropane
Formula: C 7 H 14
CAS: 1003-19-6
State: gas
Instrument: HP-GC/MS/IRD
Origin: NIST Mass Spectrometry Data Center
1/CM	ABSORBANCE
550	0.00022
562	9.02e-05
574	6.49e-05
586	0.0002882
598	0.0001815
610	0.0001375
622	0.0003113
634	0.0004686
646	0.0003729
658	0.0004334
670	0.0004829
682	0.0004081
694	0.0002321
706	0.0002222
718	0.0001958
730	0.0002552
742	0.0002211
754	0.0002717
766	0.0004477
778	0.0005555
790	0.0005929
802	0.0005588
814	0.0002937
826	3.19e-05
838	0.0002288
850	0.0003949
862	0.0004455
874	0.0007876
886	0.0009988
898	0.0007678
910	0.0006424
922	0.0005588
934	0.0004081
946	0.0002299
958	0.0003377
970	0.0003784
982	0.0005522
994	0.0012089
1006	0.0023155
1018	0.0022495
1030	0.0012067
1042	0.0006039
1054	0.0005159
1066	0.000396
1078	0.0003861
1090	0.0003861
1102	0.0003817
1114	0.0004334
1126	0.0003179
1138	0.0002431
1150	0.0002156
1162	0.000242
1174	0.0001969
1186	0.0001606
1198	0.0001551
1210	0.0001958
1222	0.000275
1234	0.0002112
1246	0.0002497
1258	0.0002079
1270	0.0002684
1282	0.0003058
1294	0.0004609
1306	0.0005544
1318	0.0005071
1330	0.0004114
1342	0.0003982
1354	0.0004906
1366	0.0007007
1378	0.0010736
1390	0.00099
1402	0.0006369
1414	0.0006094
1426	0.0009064
1438	0.0012243
1450	0.0019206
1462	0.0022374
1474	0.0017083
1486	0.0009031
1498	0.0004202
1510	0.0003124
1522	0.0002992
1534	0.000264
1546	0.0002805
1558	0.0002365
1570	0.0001881
1582	0.0002035
1594	0.0001903
1606	0.0001727
1618	0.0001485
1630	0.0001298
1642	0.0001474
1654	0.0001551
1666	0.0001408
1678	0.0001595
1690	0.0001386
1702	0.0001287
1714	0.0001474
1726	0.0001078
1738	0.0001188
1750	9.9e-05
1762	0.0001155
1774	0.0001089
1786	0.0001485
1798	0.0001727
1810	0.0001441
1822	0.0001595
1834	0.0001562
1846	0.00011
1858	0.0001089
1870	0.0001122
1882	0.0001276
1894	0.0001529
1906	0.0001903
1918	0.0001386
1930	0.0001199
1942	0.0001034
1954	0.0001078
1966	0.0001166
1978	0.0001122
1990	9.13e-05
2002	9.02e-05
2014	0.000121
2026	0.0001287
2038	0.0001573
2050	0.0001727
2062	0.0001694
2074	0.0001177
2086	0.0001056
2098	0.0001243
2110	0.0001078
2122	7.48e-05
2134	8.25e-05
2146	5.94e-05
2158	5.94e-05
2170	3.63e-05
2182	0.0001023
2194	5.06e-05
2206	6.93e-05
2218	4.18e-05
2230	5.83e-05
2242	4.18e-05
2254	3.85e-05
2266	3.3e-05
2278	7.37e-05
2290	7.48e-05
2302	5.28e-05
2314	6.27e-05
2326	5.83e-05
2338	4.29e-05
2350	6.82e-05
2362	5.94e-05
2374	9.68e-05
2386	4.73e-05
2398	0.00011
2410	4.51e-05
2422	6.6e-05
2434	8.58e-05
2446	4.4e-05
2458	8.91e-05
2470	9.79e-05
2482	7.59e-05
2494	0.0001089
2506	0.0001001
2518	5.17e-05
2530	8.36e-05
2542	8.8e-05
2554	0.0001045
2566	7.81e-05
2578	0.000121
2590	0.0001309
2602	9.02e-05
2614	0.0001199
2626	0.0001617
2638	0.0001419
2650	0.0001694
2662	0.0001606
2674	0.0001771
2686	0.0001529
2698	0.0001925
2710	0.0002046
2722	0.0002497
2734	0.0002827
2746	0.0003388
2758	0.0002926
2770	0.0003432
2782	0.0003696
2794	0.0004466
2806	0.0005445
2818	0.0006534
2830	0.0008734
2842	0.001364
2854	0.0024321
2866	0.0038599
2878	0.0046244
2890	0.0049896
2902	0.0055517
2914	0.0068563
2926	0.0080916
2938	0.0080399
2950	0.007557
2962	0.0097207
2974	0.0105688
2986	0.007293
2998	0.0046266
3010	0.0038478
3022	0.0024893
3034	0.0014817
3046	0.0010615
3058	0.0018161
3070	0.0030371
3082	0.0027555
3094	0.0013783
3106	0.0005269
3118	0.0003861
3130	0.0003278
3142	0.0002992
3154	0.0002574
3166	0.0002926
3178	0.0002024
3190	0.0002497
3202	0.0002068
3214	0.0001804
3226	0.0001815
3238	0.0001837
3250	0.0002046
3262	0.0002112
3274	0.000176
3286	0.0001309
3298	0.0001364
3310	0.0001672
3322	0.0001265
3334	0.0001397
3346	0.0001507
3358	9.68e-05
3370	7.48e-05
3382	9.35e-05
3394	8.58e-05
3406	0.0001188
3418	0.0001012
3430	9.68e-05
3442	0.0001243
3454	8.8e-05
3466	3.85e-05
3478	0.0001122
3490	7.37e-05
3502	5.06e-05
3514	0.0001298
3526	0.000121
3538	0.0001166
3550	6.27e-05
3562	0.0001298
3574	0
3586	7.04e-05
3598	0.0001155
3610	0.0001188
3622	7.59e-05
3634	9.13e-05
3646	0.0001023
3658	0.0001672
3670	0.0001331
3682	0.000132
3694	0.0001243
3706	6.93e-05
3718	0.0001287
3730	0.0001221
3742	0.0001331
3754	0.00011
3766	0.0001507
3778	9.57e-05
3790	0.0001496
3802	0.0001705
3814	8.69e-05
3826	0.0001199
3838	8.36e-05
