Infrared Spectrum: Alpha,D-Glucopyranoside, 2-acetamido-2-deoxy-,
Formula: C8 H15 N O6
CAS: 10036-64-3
State: SOLID (SPLIT MULL), FLUOROLUBE FOR 3800-1330 CM^-^1, NUJOL FOR 1330-400 CM^-^1
Class: COBLENTZ II
Instrument: BECKMAN IR-9 (GRATING)
Instrument parameters: ORDER CHANGES: 670, 1200, 2000 CM^-^1
Sampling: TRANSMISSION
Resolution: 2
Origin: DOW CHEMICAL COMPANY
1/CM	TRANSMITTANCE
3800	0.8012
3791	0.8028
3782	0.805
3773	0.8069
3764	0.809
3755	0.8108
3746	0.8131
3737	0.8154
3728	0.8178
3719	0.8204
3710	0.823
3701	0.8255
3692	0.8275
3683	0.8295
3674	0.8315
3665	0.8335
3656	0.8354
3647	0.8366
3638	0.8375
3629	0.8378
3620	0.8375
3611	0.8344
3602	0.8266
3593	0.8101
3584	0.8088
3575	0.8074
3566	0.7951
3557	0.7747
3548	0.7464
3539	0.7198
3530	0.6887
3521	0.6537
3512	0.6121
3503	0.556
3494	0.4766
3485	0.3612
3476	0.2106
3467	0.1734
3458	0.1998
3449	0.2481
3440	0.2739
3431	0.2717
3422	0.255
3413	0.2291
3404	0.1942
3395	0.1854
3386	0.1804
3377	0.1684
3368	0.1517
3359	0.1024
3350	0.0544
3341	0.0404
3332	0.0412
3323	0.0734
3314	0.1249
3305	0.1763
3296	0.221
3287	0.2657
3278	0.3028
3269	0.3334
3260	0.3578
3251	0.3814
3242	0.4071
3233	0.4291
3224	0.4544
3215	0.4785
3206	0.5008
3197	0.5216
3188	0.5407
3179	0.5583
3170	0.5769
3161	0.5942
3152	0.6112
3143	0.6262
3134	0.636
3125	0.6443
3116	0.6512
3107	0.6556
3098	0.6587
3089	0.6601
3080	0.6599
3071	0.6615
3062	0.6749
3053	0.6904
3044	0.7017
3035	0.7089
3026	0.7115
3017	0.7131
3008	0.7108
2999	0.7018
2990	0.7107
2981	0.7217
2972	0.7043
2963	0.6662
2954	0.673
2945	0.5547
2936	0.5297
2927	0.611
2918	0.4881
2909	0.5625
2900	0.5071
2891	0.585
2882	0.6442
2873	0.6561
2864	0.6686
2855	0.6769
2846	0.6671
2837	0.6635
2828	0.6726
2819	0.6901
2810	0.7038
2801	0.7128
2792	0.7207
2783	0.7283
2774	0.7353
2765	0.7393
2756	0.7417
2747	0.7432
2738	0.7438
2729	0.743
2720	0.7428
2711	0.7439
2702	0.7468
2693	0.7524
2684	0.751
2675	0.7501
2666	0.7556
2657	0.7615
2648	0.7675
2639	0.7721
2630	0.7756
2621	0.7772
2612	0.7786
2603	0.7785
2594	0.7784
2585	0.778
2576	0.7769
2567	0.7764
2558	0.7765
2549	0.7769
2540	0.7786
2531	0.7825
2522	0.7868
2513	0.7897
2504	0.7894
2495	0.7903
2486	0.7914
2477	0.7928
2468	0.7957
2459	0.7985
2450	0.8011
2441	0.8035
2432	0.8065
2423	0.8071
2414	0.8065
2405	0.8061
2396	0.8061
2387	0.7999
2378	0.7931
2369	0.7875
2360	0.7878
2351	0.7906
2342	0.7934
2333	0.7974
2324	0.8015
2315	0.8055
2306	0.8092
2297	0.8125
2288	0.8147
2279	0.8169
2270	0.8199
2261	0.8227
2252	0.8262
2243	0.8296
2234	0.8331
2225	0.8373
2216	0.8412
2207	0.8428
2198	0.8447
2189	0.8468
2180	0.8491
2171	0.8513
2162	0.8531
2153	0.8549
2144	0.8567
2135	0.8584
2126	0.8601
2117	0.8618
2108	0.8632
2099	0.8646
2090	0.8661
2081	0.8677
2072	0.8695
2063	0.8713
2054	0.872
2045	0.8728
2036	0.8749
2027	0.8775
2018	0.8803
2009	0.8811
2000	0.8766
1991	0.8871
1982	0.8882
1973	0.8902
1964	0.8923
1955	0.8939
1946	0.8951
1937	0.895
1928	0.8947
1919	0.8942
1910	0.8937
1901	0.8936
1892	0.894
1883	0.8941
1874	0.8938
1865	0.8935
1856	0.8932
1847	0.893
1838	0.8933
1829	0.8936
1820	0.8938
1811	0.8938
1802	0.8938
1793	0.8937
1784	0.8936
1775	0.8936
1766	0.8941
1757	0.8946
1748	0.8936
1739	0.8925
1730	0.8897
1721	0.8864
1712	0.8809
1703	0.8723
1694	0.8638
1685	0.8374
1676	0.7931
1667	0.7228
1658	0.6265
1649	0.5662
1640	0.1844
1631	0.0745
1622	0.2252
1613	0.4446
1604	0.5169
1595	0.5835
1586	0.6366
1577	0.5989
1568	0.4459
1559	0.2478
1550	0.2618
1541	0.4021
1532	0.5854
1523	0.6614
1514	0.7128
1505	0.7415
1496	0.7528
1487	0.7558
1478	0.6932
1469	0.7151
1460	0.685
1451	0.5894
1442	0.516
1433	0.4
1424	0.4523
1415	0.5469
1406	0.6357
1397	0.6166
1388	0.5643
1379	0.4173
1370	0.6454
1361	0.6428
1352	0.5646
1343	0.5822
1334	0.4562
1325	0.4633
1316	0.5806
1307	0.4947
1298	0.4393
1289	0.4186
1280	0.5115
1271	0.6346
1262	0.6498
1253	0.6353
1244	0.7022
1235	0.7372
1226	0.7564
1217	0.7471
1208	0.7228
1199	0.7488
1190	0.7561
1181	0.7481
1172	0.7118
1163	0.6604
1154	0.4548
1145	0.3634
1136	0.2029
1127	0.1656
1118	0.4606
1109	0.4047
1100	0.5618
1091	0.4962
1082	0.5904
1073	0.6176
1064	0.4844
1055	0.1609
1046	0.3353
1037	0.396
1028	0.2234
1019	0.2178
1010	0.5036
1001	0.601
992	0.7267
983	0.6958
974	0.3986
965	0.6511
956	0.7436
947	0.766
938	0.7806
929	0.7472
920	0.73
911	0.7948
902	0.8034
893	0.8165
884	0.8119
875	0.7565
866	0.4243
857	0.714
848	0.8019
839	0.8225
830	0.8304
821	0.8375
812	0.8377
803	0.8278
794	0.7787
785	0.7496
776	0.7799
767	0.77
758	0.7444
749	0.6951
740	0.5693
731	0.4746
722	0.4655
713	0.5323
704	0.5576
695	0.601
686	0.644
677	0.6922
668	0.7312
659	0.7431
650	0.7375
641	0.7075
632	0.6307
623	0.5935
614	0.5409
605	0.5166
596	0.5148
587	0.5244
578	0.5172
569	0.6027
560	0.4899
551	0.4646
542	0.6029
533	0.5906
524	0.5855
515	0.6015
506	0.6212
497	0.6418
488	0.6558
479	0.665
470	0.6668
461	0.6578
452	0.6447
443	0.6229
434	0.5915
425	0.5206
416	0.4589
407	0.4339
