Infrared Spectrum: 2,5-Dimethyltetrahydrofuran
Formula: C 6 H 12 O
CAS: 1003-38-9
State: gas
Instrument: HP-GC/MS/IRD
Origin: NIST Mass Spectrometry Data Center
1/CM	ABSORBANCE
550	0.0001408
562	7.68e-05
574	3.2e-05
586	0.0001056
598	0.0001392
610	0.0002064
622	0.0001264
634	0.0001296
646	0.000232
658	0.0001616
670	0.0002576
682	0.0003184
694	0.0003056
706	0.00036
718	0.0003328
730	0.0002944
742	0.0002256
754	0.0002352
766	0.000264
778	0.0003888
790	0.0005552
802	0.0006656
814	0.0007376
826	0.0007184
838	0.0006864
850	0.0008992
862	0.0014928
874	0.0022048
886	0.0021216
898	0.0015008
910	0.0010768
922	0.0012112
934	0.0018352
946	0.0020816
958	0.0015808
970	0.0010496
982	0.0010064
994	0.0011408
1006	0.0013024
1018	0.001376
1030	0.0014736
1042	0.002048
1054	0.00296
1066	0.0040752
1078	0.0052352
1090	0.006896
1102	0.0081856
1114	0.0073216
1126	0.0043888
1138	0.00248
1150	0.0016432
1162	0.0012512
1174	0.0011312
1186	0.0011968
1198	0.001112
1210	0.0007792
1222	0.0006192
1234	0.0006816
1246	0.0006464
1258	0.0005216
1270	0.000584
1282	0.0006304
1294	0.0006432
1306	0.000744
1318	0.001
1330	0.001424
1342	0.001968
1354	0.0020832
1366	0.0030896
1378	0.003856
1390	0.0030896
1402	0.0012032
1414	0.0007312
1426	0.0008384
1438	0.0011984
1450	0.0015808
1462	0.0017472
1474	0.00128
1486	0.0007408
1498	0.0004128
1510	0.0002544
1522	0.0002304
1534	0.0001808
1546	0.0001776
1558	0.0001776
1570	0.000184
1582	0.0001488
1594	0.0001712
1606	0.0001728
1618	0.0001536
1630	0.0001712
1642	0.0002112
1654	0.000264
1666	0.0003168
1678	0.0003424
1690	0.0002352
1702	0.0001792
1714	0.0001152
1726	0.0001376
1738	0.0001216
1750	0.0001312
1762	0.0001184
1774	0.0001056
1786	0.0001072
1798	0.0001072
1810	0.0001392
1822	0.0001184
1834	0.0001152
1846	0.0001232
1858	9.12e-05
1870	0.0001248
1882	0.000136
1894	0.0001312
1906	0.0001504
1918	9.12e-05
1930	8.96e-05
1942	9.92e-05
1954	6.08e-05
1966	8.96e-05
1978	8.48e-05
1990	9.12e-05
2002	8e-05
2014	4.32e-05
2026	6.08e-05
2038	5.12e-05
2050	3.52e-05
2062	5.12e-05
2074	3.36e-05
2086	5.12e-05
2098	3.04e-05
2110	4.48e-05
2122	3.84e-05
2134	4.48e-05
2146	7.2e-05
2158	4.48e-05
2170	5.12e-05
2182	3.2e-05
2194	4.64e-05
2206	3.52e-05
2218	1.28e-05
2230	2.72e-05
2242	2.24e-05
2254	3.2e-05
2266	4.96e-05
2278	5.92e-05
2290	4.48e-05
2302	4.48e-05
2314	6.88e-05
2326	5.76e-05
2338	6.88e-05
2350	8.32e-05
2362	8.32e-05
2374	6.4e-05
2386	5.12e-05
2398	8.32e-05
2410	0.0001184
2422	9.12e-05
2434	8.48e-05
2446	8.32e-05
2458	8.16e-05
2470	8.48e-05
2482	0.0001008
2494	0.0001248
2506	0.0001248
2518	0.0001056
2530	0.0001104
2542	0.0001376
2554	0.0001552
2566	0.0002016
2578	0.0001632
2590	0.0002592
2602	0.0003024
2614	0.0003808
2626	0.0003568
2638	0.0003408
2650	0.0002928
2662	0.0003024
2674	0.0002752
2686	0.00036
2698	0.000432
2710	0.0004208
2722	0.0004672
2734	0.0005136
2746	0.0005344
2758	0.000512
2770	0.0004656
2782	0.000528
2794	0.000608
2806	0.0007424
2818	0.001056
2830	0.001488
2842	0.0020784
2854	0.0031264
2866	0.0048272
2878	0.0058752
2890	0.0056096
2902	0.0051104
2914	0.0051952
2926	0.0064944
2938	0.007496
2950	0.0086624
2962	0.0117728
2974	0.016
2986	0.0113248
2998	0.0053008
3010	0.0018832
3022	0.000944
3034	0.000616
3046	0.0004656
3058	0.0004144
3070	0.0003728
3082	0.0003568
3094	0.0003488
3106	0.0003872
3118	0.000368
3130	0.000288
3142	0.0002512
3154	0.0002576
3166	0.0002576
3178	0.0002688
3190	0.0002432
3202	0.0002544
3214	0.0002224
3226	0.000128
3238	0.0001824
3250	0.0001168
3262	0.0001456
3274	0.0001312
3286	0.0001392
3298	0.0001904
3310	0.000112
3322	0.0001328
3334	0.000104
3346	0.000144
3358	0.0001168
3370	0.0001792
3382	0.0001552
3394	0.0001376
3406	0.0001296
3418	0.000112
3430	0.0001568
3442	0.000128
3454	9.12e-05
3466	9.6e-05
3478	0.0001024
3490	0.0001024
3502	0.0001152
3514	7.68e-05
3526	2.72e-05
3538	0.0001248
3550	7.52e-05
3562	8e-05
3574	0.0001376
3586	0.0001168
3598	0.0001184
3610	7.36e-05
3622	5.12e-05
3634	0.0001152
3646	5.76e-05
3658	0.0001376
3670	0.0001456
3682	0.0001232
3694	0.0001248
3706	9.12e-05
3718	9.92e-05
3730	0.0001616
3742	0.0001776
3754	0.0001728
3766	0.0001648
3778	0.0001696
3790	0.0002064
3802	0.0001488
3814	0.000224
3826	0.0001536
3838	0.0001824
