Infrared Spectrum: MAGNESIUM PERCHLORATE
Formula: Mg ( Cl O4)2  * X H2 O
CAS: 10034-81-8
State: SOLID (NUJOL MULL)
Class: COBLENTZ
Instrument: Not specified, most likely a prism, grating, or hybrid spectrometer.
Sampling: TRANSMISSION
Resolution: 4
Origin: MELLON INSTITUTE
MICROMETERS	TRANSMITTANCE
2.089	0.919
2.12888	0.914
2.16876	0.906
2.20864	0.898
2.24853	0.894
2.28841	0.894
2.32829	0.891
2.36817	0.891
2.40805	0.889
2.44793	0.889
2.48781	0.891
2.5277	0.888
2.56758	0.879
2.60746	0.878
2.64734	0.874
2.68722	0.866
2.7271	0.801
2.76698	0.484
2.80686	0.363
2.84675	0.292
2.88663	0.4
2.92651	0.53
2.96639	0.612
3.00627	0.681
3.04615	0.726
3.08603	0.759
3.12592	0.782
3.1658	0.814
3.20568	0.848
3.24556	0.871
3.28544	0.881
3.32532	0.829
3.3652	0.44
3.40509	0.283
3.44497	0.415
3.48485	0.442
3.52473	0.786
3.56461	0.898
3.60449	0.924
3.64437	0.936
3.68426	0.943
3.72414	0.944
3.76402	0.944
3.8039	0.944
3.84378	0.949
3.88366	0.953
3.92354	0.953
3.96342	0.953
4.00331	0.953
4.04319	0.953
4.08307	0.951
4.12295	0.948
4.16283	0.943
4.20271	0.939
4.24259	0.933
4.28248	0.923
4.32236	0.914
4.36224	0.911
4.40212	0.909
4.442	0.908
4.48188	0.904
4.52176	0.901
4.56165	0.898
4.60153	0.898
4.64141	0.894
4.68129	0.893
4.72117	0.893
4.76105	0.893
4.80093	0.893
4.84081	0.893
4.8807	0.894
4.92058	0.894
4.96046	0.901
5.00034	0.908
5.04022	0.909
5.0801	0.908
5.11998	0.909
5.15987	0.919
5.19975	0.923
5.23963	0.924
5.27951	0.928
5.31939	0.928
5.35927	0.928
5.39915	0.929
5.43904	0.934
5.47892	0.938
5.5188	0.939
5.55868	0.943
5.59856	0.944
5.63844	0.949
5.67832	0.956
5.71821	0.959
5.75809	0.964
5.79797	0.968
5.83785	0.979
5.87773	0.974
5.91761	0.973
5.95749	0.964
5.99737	0.944
6.03726	0.883
6.07714	0.684
6.11702	0.305
6.1569	0.347
6.19678	0.774
6.23666	0.899
6.27654	0.924
6.31643	0.944
6.35631	0.941
6.39619	0.939
6.43607	0.948
6.47595	0.963
6.51583	0.966
6.55571	0.966
6.5956	0.971
6.63548	0.981
6.67536	0.988
6.71524	0.988
6.75512	0.963
6.795	0.856
6.83488	0.751
6.87477	0.754
6.91465	0.824
6.95453	0.873
6.99441	0.934
7.03429	0.948
7.07417	0.971
7.11405	0.986
7.15393	0.988
7.19382	0.939
7.2337	0.873
7.27358	0.898
7.31346	0.913
7.35334	0.951
7.39322	0.963
7.4331	0.968
7.47299	0.974
7.51287	0.983
7.55275	0.984
7.59263	0.989
7.63251	0.984
7.67239	0.978
7.71227	0.976
7.75216	0.974
7.79204	0.966
7.83192	0.963
7.8718	0.949
7.91168	0.933
7.95156	0.929
7.99144	0.919
8.03132	0.899
8.07121	0.869
8.11109	0.806
8.15097	0.726
8.19085	0.654
8.23073	0.579
8.27061	0.507
8.31049	0.447
8.35038	0.375
8.39026	0.34
8.43014	0.273
8.47002	0.238
8.5099	0.213
8.54978	0.19
8.58966	0.18
8.62955	0.168
8.66943	0.146
8.70931	0.141
8.74919	0.13
8.78907	0.123
8.82895	0.121
8.86883	0.121
8.90872	0.121
8.9486	0.133
8.98848	0.148
9.02836	0.161
9.06824	0.163
9.10812	0.163
9.148	0.163
9.18788	0.16
9.22777	0.146
9.26765	0.141
9.30753	0.128
9.34741	0.118
9.38729	0.113
9.42717	0.111
9.46705	0.12
9.50694	0.143
9.54682	0.19
9.5867	0.247
9.62658	0.347
9.66646	0.439
9.70634	0.525
9.74622	0.587
9.78611	0.649
9.82599	0.686
9.86587	0.721
9.90575	0.749
9.94563	0.779
9.98551	0.792
10.0254	0.806
10.0653	0.823
10.1052	0.841
10.145	0.858
10.1849	0.863
10.2248	0.869
10.2647	0.871
10.3046	0.864
10.3444	0.833
10.3843	0.808
10.4242	0.818
10.4641	0.821
10.504	0.804
10.5439	0.772
10.5837	0.772
10.6236	0.789
10.6635	0.818
10.7034	0.833
10.7433	0.853
10.7831	0.864
10.823	0.883
10.8629	0.896
10.9028	0.899
10.9427	0.903
10.9825	0.911
11.0224	0.923
11.0623	0.928
11.1022	0.929
11.1421	0.933
11.182	0.936
11.2218	0.939
11.2617	0.938
11.3016	0.938
11.3415	0.939
11.3814	0.941
11.4212	0.946
11.4611	0.948
11.501	0.951
11.5409	0.953
11.5808	0.954
11.6206	0.956
11.6605	0.956
11.7004	0.951
11.7403	0.951
11.7802	0.954
11.8201	0.954
11.8599	0.956
11.8998	0.958
11.9397	0.956
11.9796	0.953
12.0195	0.954
12.0593	0.956
12.0992	0.954
12.1391	0.954
12.179	0.956
12.2189	0.961
12.2588	0.956
12.2986	0.954
12.3385	0.954
12.3784	0.953
12.4183	0.951
12.4582	0.949
12.498	0.949
12.5379	0.946
12.5778	0.946
12.6177	0.948
12.6576	0.948
12.6974	0.948
12.7373	0.943
12.7772	0.936
12.8171	0.931
12.857	0.928
12.8969	0.928
12.9367	0.928
12.9766	0.928
13.0165	0.926
13.0564	0.923
13.0963	0.916
13.1361	0.909
13.176	0.904
13.2159	0.904
13.2558	0.901
13.2957	0.899
13.3355	0.896
13.3754	0.893
13.4153	0.889
13.4552	0.886
13.4951	0.881
13.535	0.874
13.5748	0.864
13.6147	0.853
13.6546	0.848
13.6945	0.843
13.7344	0.828
13.7742	0.819
13.8141	0.803
13.854	0.799
13.8939	0.797
13.9338	0.796
13.9736	0.789
14.0135	0.779
14.0534	0.774
14.0933	0.769
14.1332	0.762
14.1731	0.752
14.2129	0.749
14.2528	0.736
14.2927	0.726
14.3326	0.721
14.3725	0.712
14.4123	0.701
14.4522	0.699
14.4921	0.682
14.532	0.677
14.5719	0.674
14.6118	0.667
14.6516	0.661
14.6915	0.652
14.7314	0.642
14.7713	0.637
14.8112	0.637
14.851	0.649
14.8909	0.631
14.9308	0.612
14.9707	0.601
15.0106	0.592
15.0504	0.582
15.0903	0.572
15.1302	0.567
15.1701	0.562
15.21	0.562
15.2499	0.56
15.2897	0.56
15.3296	0.557
15.3695	0.559
15.4094	0.56
15.4493	0.567
15.4891	0.57
15.529	0.574
15.5689	0.584
15.6088	0.597
15.6487	0.599
15.6885	0.602
15.7284	0.614
15.7683	0.617
15.8082	0.624
15.8481	0.639
15.888	0.651
15.9278	0.662
15.9677	0.669
16.0076	0.669
