Infrared Spectrum: HYDROGEN BROMIDE
Formula: H Br
CAS: 10035-10-6
State: GAS (600 mmHg DILUTED TO A TOTAL PRESSURE OF 600 mmHg WITH N2)
Class: COBLENTZ
Instrument: DOW KBr FOREPRISM
Instrument parameters: GRATING CHANGED AT 5.0, 7.5, 15.0 MICRON
Sampling: TRANSMISSION
Path length: 5 CM
Resolution: 4
Origin: DOW CHEMICAL COMPANY
1/CM	TRANSMITTANCE
454.206	0.949
462.617	0.947
471.028	0.944
479.44	0.94
487.851	0.939
496.262	0.936
504.673	0.931
513.085	0.936
521.496	0.934
529.907	0.934
538.318	0.937
546.73	0.937
555.141	0.942
563.552	0.943
571.963	0.943
580.375	0.947
588.786	0.947
597.197	0.949
605.608	0.953
614.019	0.953
622.431	0.952
630.842	0.956
639.253	0.957
647.664	0.957
656.076	0.957
664.487	0.957
672.898	0.959
681.309	0.96
689.721	0.959
698.132	0.959
706.543	0.963
714.954	0.96
723.366	0.959
731.777	0.957
740.188	0.957
748.599	0.963
757.01	0.965
765.422	0.966
773.833	0.968
782.244	0.965
790.655	0.969
799.067	0.963
807.478	0.962
815.889	0.959
824.3	0.96
832.712	0.959
841.123	0.959
849.534	0.959
857.945	0.962
866.357	0.96
874.768	0.959
883.179	0.96
891.59	0.959
900.001	0.959
908.413	0.957
916.824	0.959
925.235	0.959
933.646	0.963
942.058	0.959
950.469	0.959
958.88	0.962
967.291	0.966
975.703	0.962
984.114	0.96
992.525	0.966
1000.94	0.966
1009.35	0.962
1017.76	0.963
1026.17	0.963
1034.58	0.963
1042.99	0.971
1051.4	0.968
1059.81	0.969
1068.23	0.966
1076.64	0.959
1085.05	0.959
1093.46	0.959
1101.87	0.962
1110.28	0.968
1118.69	0.972
1127.1	0.978
1135.52	0.973
1143.93	0.971
1152.34	0.972
1160.75	0.978
1169.16	0.975
1177.57	0.966
1185.98	0.973
1194.39	0.975
1202.81	0.973
1211.22	0.975
1219.63	0.976
1228.04	0.975
1236.45	0.971
1244.86	0.963
1253.27	0.959
1261.68	0.955
1270.1	0.955
1278.51	0.955
1286.92	0.952
1295.33	0.952
1303.74	0.95
1312.15	0.953
1320.56	0.955
1328.97	0.953
1337.39	0.955
1345.8	0.957
1354.21	0.968
1362.62	0.978
1371.03	0.957
1379.44	0.95
1387.85	0.953
1396.26	0.953
1404.68	0.957
1413.09	0.95
1421.5	0.959
1429.91	0.955
1438.32	0.956
1446.73	0.95
1455.14	0.95
1463.55	0.946
1471.97	0.95
1480.38	0.949
1488.79	0.956
1497.2	0.959
1505.61	0.963
1514.02	0.955
1522.43	0.973
1530.84	0.952
1539.26	0.946
1547.67	0.955
1556.08	0.95
1564.49	0.953
1572.9	0.95
1581.31	0.955
1589.72	0.952
1598.13	0.952
1606.55	0.95
1614.96	0.959
1623.37	0.957
1631.78	0.946
1640.19	0.946
1648.6	0.953
1657.01	0.946
1665.42	0.943
1673.84	0.952
1682.25	0.946
1690.66	0.934
1699.07	0.955
1707.48	0.94
1715.89	0.956
1724.3	0.946
1732.71	0.962
1741.13	0.949
1749.54	0.956
1757.95	0.947
1766.36	0.949
1774.77	0.946
1783.18	0.949
1791.59	0.957
1800	0.947
1808.41	0.947
1816.83	0.944
1825.24	0.95
1833.65	0.949
1842.06	0.957
1850.47	0.949
1858.88	0.95
1867.29	0.955
1875.7	0.949
1884.12	0.95
1892.53	0.952
1900.94	0.949
1909.35	0.95
1917.76	0.953
1926.17	0.949
1934.58	0.949
1942.99	0.95
1951.41	0.949
1959.82	0.955
1968.23	0.949
1976.64	0.95
1985.05	0.95
1993.46	0.95
2001.87	0.95
2010.28	0.95
2018.7	0.953
2027.11	0.953
2035.52	0.952
2043.93	0.9509
2052.34	0.952
2060.75	0.952
2069.16	0.952
2077.57	0.953
2085.99	0.953
2094.4	0.953
2102.81	0.9548
2111.22	0.955
2119.63	0.955
2128.04	0.955
2136.45	0.955
2144.86	0.955
2153.28	0.955
2161.69	0.955
2170.1	0.955
2178.51	0.955
2186.92	0.955
2195.33	0.955
2203.74	0.955
2212.15	0.955
2220.57	0.955
2228.98	0.955
2237.39	0.955
2245.8	0.955
2254.21	0.955
2262.62	0.955
2271.03	0.955
2279.44	0.956
2287.86	0.956
2296.27	0.956
2304.68	0.9563
2313.09	0.9561
2321.5	0.9679
2329.91	0.9751
2338.32	0.978
2346.73	0.979
2355.15	0.941
2363.56	0.985
2371.97	0.9745
2380.38	0.845
2388.79	0.9611
2397.2	0.731
2405.61	0.957
2414.02	0.7827
2422.44	0.929
2430.85	0.953
2439.26	0.9495
2447.67	0.952
2456.08	0.6039
2464.49	0.946
2472.9	0.452
2481.31	0.9441
2489.73	0.7086
2498.14	0.9399
2506.55	0.9426
2514.96	0.918
2523.37	0.9125
2531.78	0.6766
2540.19	0.9412
2548.6	0.6586
2557.01	0.9407
2565.43	0.9431
2573.84	0.9426
2582.25	0.6962
2590.66	0.935
2599.07	0.8895
2607.48	0.7019
2615.89	0.917
2624.3	0.4549
2632.72	0.9248
2641.13	0.7905
2649.54	0.5846
2657.95	0.9273
2666.36	0.571
2674.77	0.8502
2683.18	0.9196
2691.59	0.718
2700.01	0.9195
2708.42	0.9054
2716.83	0.9268
2725.24	0.934
2733.65	0.936
2742.06	0.937
2750.47	0.937
2758.88	0.937
2767.3	0.937
2775.71	0.937
2784.12	0.937
2792.53	0.937
2800.94	0.937
2809.35	0.937
2817.76	0.9364
2826.17	0.936
2834.59	0.936
2843	0.937
2851.41	0.939
2859.82	0.939
2868.23	0.937
2876.64	0.937
2885.05	0.937
2893.46	0.937
2901.88	0.939
2910.29	0.94
2918.7	0.942
2927.11	0.942
2935.52	0.9395
2943.93	0.937
2952.34	0.936
2960.75	0.934
2969.17	0.934
2977.58	0.933
2985.99	0.931
2994.4	0.93
3002.81	0.93
3011.22	0.93
3019.63	0.928
3028.04	0.928
3036.46	0.928
3044.87	0.928
3053.28	0.927
3061.69	0.927
3070.1	0.927
3078.51	0.927
3086.92	0.927
3095.33	0.928
3103.75	0.928
3112.16	0.928
3120.57	0.927
3128.98	0.927
3137.39	0.927
3145.8	0.9273
3154.21	0.927
3162.62	0.927
3171.04	0.927
3179.45	0.927
3187.86	0.927
3196.27	0.927
3204.68	0.928
3213.09	0.9293
3221.5	0.93
3229.91	0.931
3238.33	0.931
3246.74	0.931
3255.15	0.931
3263.56	0.931
3271.97	0.933
3280.38	0.933
3288.79	0.934
3297.2	0.9351
3305.61	0.936
3314.03	0.937
3322.44	0.939
3330.85	0.941
3339.26	0.943
3347.67	0.944
3356.08	0.946
3364.49	0.9465
3372.9	0.9489
3381.32	0.9495
3389.73	0.9519
3398.14	0.9524
3406.55	0.953
3414.96	0.955
3423.37	0.956
3431.78	0.957
3440.19	0.9588
3448.61	0.959
3457.02	0.96
3465.43	0.96
3473.84	0.9617
3482.25	0.962
3490.66	0.962
3499.07	0.965
3507.48	0.965
3515.9	0.965
3524.31	0.965
3532.72	0.966
3541.13	0.9634
3549.54	0.9683
3557.95	0.9695
3566.36	0.968
3574.77	0.969
3583.19	0.966
3591.6	0.968
3600.01	0.9676
3608.42	0.9674
3616.83	0.9658
3625.24	0.9657
3633.65	0.9704
3642.06	0.9623
3650.48	0.9727
3658.89	0.9713
3667.3	0.9659
3675.71	0.9594
3684.12	0.9602
3692.53	0.9672
3700.94	0.969
3709.35	0.971
3717.77	0.9721
3726.18	0.975
3734.59	0.971
