Infrared Spectrum: 2,2-Dimethyltetrahydrofuran
Formula: C 6 H 12 O
CAS: 1003-17-4
State: gas
Instrument: HP-GC/MS/IRD
Origin: NIST Mass Spectrometry Data Center
1/CM	ABSORBANCE
550	0.0003692
562	7.1e-05
574	0.0001065
586	9.23e-05
598	0.0002343
610	0.0004473
622	0.0005893
634	0.0005751
646	0.0003763
658	0.0002414
670	0.000284
682	0.000355
694	0.0003692
706	0.0003621
718	0.0006106
730	0.0008165
742	0.0013632
754	0.0015407
766	0.0013774
778	0.0012496
790	0.0013703
802	0.0017182
814	0.0027974
826	0.0043594
838	0.0056587
850	0.0052327
862	0.0039476
874	0.0031666
886	0.0028613
898	0.0030459
910	0.0035855
922	0.0038198
934	0.0030388
946	0.0022223
958	0.0017111
970	0.0016543
982	0.0018531
994	0.0026696
1006	0.0036565
1018	0.0059072
1030	0.0134758
1042	0.0275125
1054	0.0340161
1066	0.025063
1078	0.0103305
1090	0.0050623
1102	0.0046363
1114	0.0063474
1126	0.0098477
1138	0.013206
1150	0.0134048
1162	0.0099258
1174	0.0060847
1186	0.0042884
1198	0.0043523
1210	0.0062693
1222	0.0085413
1234	0.0090241
1246	0.0079662
1258	0.0065107
1270	0.0050339
1282	0.0044659
1294	0.0049771
1306	0.0049629
1318	0.0035784
1330	0.0022152
1342	0.0031382
1354	0.0062977
1366	0.0105435
1378	0.0099968
1390	0.0066172
1402	0.0024637
1414	0.0011431
1426	0.001562
1438	0.0032305
1450	0.0052753
1462	0.0061628
1474	0.0044517
1486	0.0024708
1498	0.001207
1510	0.0007668
1522	0.0005893
1534	0.0004331
1546	0.0004047
1558	0.0003692
1570	0.0003408
1582	0.0002769
1594	0.0002769
1606	0.0003124
1618	0.0003337
1630	0.0003905
1642	0.0004118
1654	0.0005112
1666	0.0004402
1678	0.0004544
1690	0.0003834
1702	0.0003195
1714	0.0003053
1726	0.0002485
1738	0.0002343
1750	0.0001846
1762	0.0002627
1774	0.0002769
1786	0.0003124
1798	0.000284
1810	0.000284
1822	0.0002556
1834	0.0002343
1846	0.000284
1858	0.0002769
1870	0.0003337
1882	0.0004118
1894	0.0004544
1906	0.0004402
1918	0.0003905
1930	0.0003124
1942	0.0003337
1954	0.0003479
1966	0.0003692
1978	0.0003479
1990	0.0003195
2002	0.0003124
2014	0.0002343
2026	0.0001704
2038	0.0001775
2050	0.000213
2062	0.0002698
2074	0.0003266
2086	0.0003976
2098	0.0003905
2110	0.0003692
2122	0.0002698
2134	0.0001775
2146	0.0001775
2158	0.000142
2170	0.000142
2182	0.0001207
2194	0.0001846
2206	0.0001917
2218	0.0002343
2230	0.0002343
2242	0.000213
2254	0.000213
2266	0.0002059
2278	0.0002698
2290	0.0002769
2302	0.0002556
2314	0.0002485
2326	0.0002272
2338	0.0002059
2350	0.0001917
2362	0.0002343
2374	0.0001846
2386	0.0001562
2398	0.0001491
2410	0.0001136
2422	6.39e-05
2434	8.52e-05
2446	6.39e-05
2458	8.52e-05
2470	5.68e-05
2482	2.84e-05
2494	5.68e-05
2506	9.94e-05
2518	7.1e-05
2530	0.0001065
2542	0.0001349
2554	0.0001704
2566	0.0002201
2578	0.0002414
2590	0.0002485
2602	0.0002769
2614	0.0003692
2626	0.0003976
2638	0.0004828
2650	0.0004757
2662	0.0005751
2674	0.0008378
2686	0.0009727
2698	0.0008733
2710	0.0007597
2722	0.0007739
2734	0.0008946
2746	0.0009514
2758	0.0010224
2770	0.0011644
2782	0.0014697
2794	0.0020519
2806	0.0030175
2818	0.0045298
2830	0.0066882
2842	0.0099613
2854	0.0146686
2866	0.0196031
2878	0.0233874
2890	0.023714
2902	0.0227342
2914	0.0225851
2926	0.0249849
2938	0.0286911
2950	0.0351521
2962	0.0532926
2974	0.0703397
2986	0.0538961
2998	0.0262274
3010	0.0089247
3022	0.0043594
3034	0.0026767
3046	0.0018318
3058	0.0013277
3070	0.001136
3082	0.0010011
3094	0.000923
3106	0.0008307
3118	0.0006816
3130	0.0006958
3142	0.0006816
3154	0.000568
3166	0.0006319
3178	0.0006603
3190	0.0007029
3202	0.0006248
3214	0.0005325
3226	0.0004189
3238	0.0002982
3250	0.0001846
3262	0.000142
3274	0.0001491
3286	0.0001775
3298	0.0001988
3310	0.0002272
3322	0.0002556
3334	0.0002627
3346	0.0001704
3358	0.0001207
3370	0.0001562
3382	0.0001633
3394	0.000142
3406	0.0001775
3418	9.23e-05
3430	0.0001065
3442	2.13e-05
3454	7.1e-05
3466	4.97e-05
3478	3.55e-05
3490	8.52e-05
3502	5.68e-05
3514	5.68e-05
3526	8.52e-05
3538	0.000142
3550	0.0001065
3562	9.23e-05
3574	0
3586	8.52e-05
3598	7.1e-05
3610	9.23e-05
3622	5.68e-05
3634	2.13e-05
3646	6.39e-05
3658	6.39e-05
3670	0.0001491
3682	0.0001207
3694	2.13e-05
3706	7.81e-05
3718	0.0001278
3730	0.0002201
3742	0.0001704
3754	0.0002201
3766	0.0001633
3778	0.0002059
3790	0.0002272
3802	0.0001917
3814	0.0002414
3826	0.0002911
3838	0.0002627
