Infrared Spectrum: FLUOREN-9-OL, 2-AMINO-3-BROMO-,
Formula: C13 H10 Br N O
CAS: 100397-98-6
State: SOLID (SPLIT MULL), FLUOROLUBE FOR 4000-1335 CM^-^1, NUJOL FOR 1335-400 CM^-^1
Melting point: 198 C
Class: COBLENTZ III
Instrument: BECKMAN IR-9 (GRATING)
Instrument parameters: ORDER CHANGES: 670, 1200, 2000 CM^-^1
Sampling: TRANSMISSION
Resolution: 2
Origin: DOW CHEMICAL COMPANY
1/CM	TRANSMITTANCE
402.928	0.724
411.713	0.658
420.498	0.656
429.282	0.694
438.067	0.761
446.852	0.795
455.637	0.828
464.422	0.828
473.206	0.931
481.991	0.954
490.776	0.96
499.561	0.972
508.346	0.973
517.13	0.963
525.915	0.945
534.7	0.91
543.485	0.902
552.269	0.879
561.054	0.847
569.839	0.789
578.624	0.789
587.409	0.72
596.193	0.582
604.978	0.764
613.763	0.749
622.548	0.652
631.333	0.657
640.117	0.58
648.902	0.556
657.687	0.538
666.472	0.521
675.257	0.501
684.041	0.524
692.826	0.563
701.611	0.506
710.396	0.601
719.181	0.46
727.965	0.454
736.75	0.419
745.535	0.135
754.32	0.708
763.105	0.4299
771.889	0.794
780.674	0.879
789.459	0.921
798.244	0.952
807.028	0.897
815.813	0.953
824.598	0.976
833.383	0.976
842.168	0.906
850.952	0.95
859.737	0.8539
868.522	0.73
877.307	0.7859
886.092	0.843
894.876	0.609
903.661	0.893
912.446	0.943
921.231	0.942
930.016	0.941
938.8	0.7281
947.585	0.91
956.37	0.905
965.155	0.691
973.94	0.857
982.724	0.893
991.509	0.902
1000.29	0.886
1009.08	0.831
1017.86	0.66
1026.65	0.3299
1035.43	0.1721
1044.22	0.428
1053	0.691
1061.79	0.82
1070.57	0.849
1079.36	0.849
1088.14	0.865
1096.93	0.878
1105.71	0.793
1114.5	0.876
1123.28	0.904
1132.07	0.876
1140.85	0.5929
1149.64	0.794
1158.42	0.802
1167.21	0.843
1175.99	0.8119
1184.77	0.6171
1193.56	0.819
1202.34	0.753
1211.13	0.843
1219.91	0.85
1228.7	0.858
1237.48	0.835
1246.27	0.701
1255.05	0.805
1263.84	0.776
1272.62	0.726
1281.41	0.582
1290.19	0.594
1298.98	0.478
1307.76	0.2719
1316.55	0.427
1325.33	0.427
1334.12	0.409
1342.9	0.416
1351.69	0.378
1360.47	0.623
1369.26	0.664
1378.04	0.669
1386.82	0.66
1395.61	0.609
1404.39	0.443
1413.18	0.4892
1421.96	0.668
1430.75	0.658
1439.53	0.4528
1448.32	0.2343
1457.1	0.684
1465.89	0.7
1474.67	0.642
1483.46	0.749
1492.24	0.812
1501.03	0.83
1509.81	0.841
1518.6	0.838
1527.38	0.838
1536.17	0.83
1544.95	0.82
1553.74	0.794
1562.52	0.717
1571.31	0.739
1580.09	0.723
1588.88	0.6229
1597.66	0.435
1606.44	0.476
1615.23	0.383
1624.01	0.4801
1632.8	0.731
1641.58	0.806
1650.37	0.854
1659.15	0.876
1667.94	0.876
1676.72	0.869
1685.51	0.868
1694.29	0.867
1703.08	0.867
1711.86	0.863
1720.65	0.868
1729.43	0.865
1738.22	0.857
1747	0.863
1755.79	0.868
1764.57	0.865
1773.36	0.858
1782.14	0.86
1790.93	0.856
1799.71	0.857
1808.49	0.861
1817.28	0.863
1826.06	0.864
1834.85	0.861
1843.63	0.86
1852.42	0.856
1861.2	0.85
1869.99	0.852
1878.77	0.86
1887.56	0.86
1896.34	0.847
1905.13	0.85
1913.91	0.861
1922.7	0.864
1931.48	0.853
1940.27	0.843
1949.05	0.858
1957.84	0.86
1966.62	0.858
1975.41	0.856
1984.19	0.847
1992.98	0.847
2001.76	0.847
2010.55	0.845
2019.33	0.841
2028.11	0.835
2036.9	0.83
2045.68	0.8241
2054.47	0.8191
2063.25	0.8171
2072.04	0.812
2080.82	0.8051
2089.61	0.7981
2098.39	0.795
2107.18	0.791
2115.96	0.787
2124.75	0.7831
2133.53	0.7791
2142.32	0.7751
2151.1	0.7643
2159.89	0.757
2168.67	0.7493
2177.46	0.7432
2186.24	0.7421
2195.03	0.7392
2203.81	0.7282
2212.6	0.7134
2221.38	0.7003
2230.17	0.6874
2238.95	0.6781
2247.73	0.6671
2256.52	0.6613
2265.3	0.658
2274.09	0.654
2282.87	0.6462
2291.66	0.643
2300.44	0.6364
2309.23	0.634
2318.01	0.634
2326.8	0.641
2335.58	0.6446
2344.37	0.646
2353.15	0.6516
2361.94	0.6593
2370.72	0.665
2379.51	0.6705
2388.29	0.673
2397.08	0.673
2405.86	0.673
2414.65	0.675
2423.43	0.676
2432.22	0.678
2441	0.678
2449.78	0.678
2458.57	0.678
2467.35	0.6812
2476.14	0.687
2484.92	0.69
2493.71	0.69
2502.49	0.691
2511.28	0.691
2520.06	0.69
2528.85	0.689
2537.63	0.6863
2546.42	0.684
2555.2	0.682
2563.99	0.6783
2572.77	0.6753
2581.56	0.671
2590.34	0.665
2599.13	0.663
2607.91	0.661
2616.7	0.6564
2625.48	0.6524
2634.27	0.646
2643.05	0.6398
2651.84	0.6308
2660.62	0.6248
2669.4	0.6108
2678.19	0.609
2686.97	0.6068
2695.76	0.604
2704.54	0.6028
2713.33	0.602
2722.11	0.602
2730.9	0.602
2739.68	0.602
2748.47	0.601
2757.25	0.6
2766.04	0.597
2774.82	0.593
2783.61	0.5905
2792.39	0.587
2801.18	0.5804
2809.96	0.5675
2818.75	0.5555
2827.53	0.541
2836.32	0.5345
2845.1	0.5265
2853.89	0.525
2862.67	0.522
2871.45	0.521
2880.24	0.521
2889.02	0.521
2897.81	0.521
2906.59	0.519
2915.38	0.515
2924.16	0.5164
2932.95	0.5204
2941.73	0.523
2950.52	0.523
2959.3	0.523
2968.09	0.52
2976.87	0.513
2985.66	0.5032
2994.44	0.4852
3003.23	0.48
3012.01	0.478
3020.8	0.466
3029.58	0.449
3038.37	0.4312
3047.15	0.4182
3055.94	0.417
3064.72	0.4093
3073.51	0.3943
3082.29	0.3793
3091.07	0.3626
3099.86	0.3509
3108.64	0.3313
3117.43	0.3207
3126.21	0.3157
3135	0.313
3143.78	0.313
3152.57	0.313
3161.35	0.313
3170.14	0.313
3178.92	0.313
3187.71	0.315
3196.49	0.3203
3205.28	0.334
3214.06	0.3317
3222.85	0.3192
3231.63	0.3078
3240.42	0.289
3249.2	0.2827
3257.99	0.28
3266.77	0.2798
3275.56	0.279
3284.34	0.2797
3293.13	0.2923
3301.91	0.3287
3310.69	0.335
3319.48	0.3414
3328.26	0.3851
3337.05	0.4555
3345.83	0.5028
3354.62	0.5202
3363.4	0.524
3372.19	0.5262
3380.97	0.5278
3389.76	0.5161
3398.54	0.4763
3407.33	0.3433
3416.11	0.3932
3424.9	0.4961
3433.68	0.5333
3442.47	0.5601
3451.25	0.5693
3460.04	0.575
3468.82	0.5791
3477.61	0.584
3486.39	0.586
3495.18	0.586
3503.96	0.5829
3512.74	0.58
3521.53	0.579
3530.31	0.579
3539.1	0.58
3547.88	0.58
3556.67	0.579
3565.45	0.5779
3574.24	0.575
3583.02	0.573
3591.81	0.5719
3600.59	0.569
3609.38	0.568
3618.16	0.567
3626.95	0.565
3635.73	0.564
3644.52	0.563
3653.3	0.561
3662.09	0.558
3670.87	0.557
3679.66	0.556
3688.44	0.554
3697.23	0.552
3706.01	0.549
3714.8	0.547
3723.58	0.546
3732.36	0.5431
3741.15	0.541
3749.93	0.5391
3758.72	0.538
3767.5	0.536
3776.29	0.535
3785.07	0.5321
3793.86	0.53
3802.64	0.5261
