Infrared Spectrum: CIS-1-CHLORO-1,3-BUTADIENE
Formula: C4 H5 Cl
CAS: 10033-99-5
Class: COBLENTZ
Instrument: Not specified, most likely a prism, grating, or hybrid spectrometer.
Sampling: TRANSMISSION
Path length: 0.0025 CM
Resolution: 4
Origin: W.T. BOLLETER
MICROMETERS	TRANSMITTANCE
14.502	0.201
14.5725	0.217
14.643	0.233
14.7135	0.233
14.784	0.22
14.8546	0.199
14.9251	0.17
14.9956	0.144
15.0661	0.11
15.1366	0.078
15.2071	0.051
15.2776	0.023
15.3481	0.008
15.4186	0.001
15.4892	0
15.5597	0
15.6302	0
15.7007	0
15.7712	0
15.8417	0
15.9122	0
15.9827	0
16.0533	0
16.1238	0
16.1943	0.005
16.2648	0.012
16.3353	0.026
16.4058	0.055
16.4763	0.09
16.5468	0.145
16.6173	0.177
16.6879	0.227
16.7584	0.295
16.8289	0.348
16.8994	0.4
16.9699	0.455
17.0404	0.516
17.1109	0.553
17.1814	0.596
17.2519	0.612
17.3225	0.638
17.393	0.654
17.4635	0.676
17.534	0.699
17.6045	0.72
17.675	0.738
17.7455	0.768
17.816	0.788
17.8865	0.811
17.9571	0.829
18.0276	0.845
18.0981	0.855
18.1686	0.868
18.2391	0.875
18.3096	0.882
18.3801	0.887
18.4506	0.895
18.5211	0.9
18.5917	0.902
18.6622	0.902
18.7327	0.903
18.8032	0.903
18.8737	0.903
18.9442	0.905
19.0147	0.909
19.0852	0.914
19.1558	0.921
19.2263	0.923
19.2968	0.925
19.3673	0.921
19.4378	0.919
19.5083	0.918
19.5788	0.914
19.6493	0.911
19.7198	0.907
19.7904	0.905
19.8609	0.9
19.9314	0.896
20.0019	0.895
20.0724	0.893
20.1429	0.891
20.2134	0.889
20.2839	0.889
20.3544	0.889
20.425	0.887
20.4955	0.887
20.566	0.886
20.6365	0.886
20.707	0.886
20.7775	0.886
20.848	0.884
20.9185	0.884
20.989	0.884
21.0596	0.884
21.1301	0.882
21.2006	0.88
21.2711	0.882
21.3416	0.884
21.4121	0.884
21.4826	0.884
21.5531	0.884
21.6236	0.88
21.6942	0.877
21.7647	0.875
21.8352	0.871
21.9057	0.868
21.9762	0.864
22.0467	0.862
22.1172	0.861
22.1877	0.857
22.2583	0.854
22.3288	0.85
22.3993	0.846
22.4698	0.846
22.5403	0.854
22.6108	0.859
22.6813	0.862
22.7518	0.866
22.8223	0.873
22.8929	0.88
22.9634	0.884
23.0339	0.886
23.1044	0.887
23.1749	0.889
23.2454	0.889
23.3159	0.891
23.3864	0.889
23.4569	0.887
23.5275	0.889
23.598	0.889
23.6685	0.887
23.739	0.884
23.8095	0.884
23.88	0.882
23.9505	0.882
24.021	0.875
24.0915	0.866
24.1621	0.862
24.2326	0.859
24.3031	0.85
24.3736	0.838
24.4441	0.83
24.5146	0.822
24.5851	0.813
24.6556	0.804
24.7261	0.798
24.7967	0.795
24.8672	0.79
24.9377	0.784
25.0082	0.781
25.0787	0.774
25.1492	0.763
25.2197	0.754
25.2902	0.747
25.3608	0.725
25.4313	0.702
25.5018	0.685
25.5723	0.674
25.6428	0.66
25.7133	0.647
25.7838	0.635
25.8543	0.622
25.9248	0.615
25.9954	0.599
26.0659	0.588
26.1364	0.569
26.2069	0.558
26.2774	0.537
26.3479	0.519
26.4184	0.503
26.4889	0.491
26.5594	0.469
26.63	0.441
26.7005	0.418
26.771	0.396
26.8415	0.355
26.912	0.318
26.9825	0.288
27.053	0.25
27.1235	0.218
27.194	0.186
27.2646	0.151
27.3351	0.122
27.4056	0.097
27.4761	0.083
27.5466	0.069
27.6171	0.058
27.6876	0.055
27.7581	0.048
27.8287	0.044
27.8992	0.039
27.9697	0.037
28.0402	0.039
28.1107	0.046
28.1812	0.06
28.2517	0.08
28.3222	0.101
28.3927	0.126
28.4633	0.149
28.5338	0.19
28.6043	0.225
28.6748	0.281
28.7453	0.327
28.8158	0.368
28.8863	0.398
28.9568	0.43
29.0273	0.473
29.0979	0.508
29.1684	0.528
29.2389	0.565
29.3094	0.596
29.3799	0.619
29.4504	0.637
29.5209	0.663
29.5914	0.686
29.6619	0.706
29.7325	0.724
29.803	0.736
29.8735	0.749
29.944	0.768
30.0145	0.779
30.085	0.786
30.1555	0.8
30.226	0.813
30.2965	0.816
30.3671	0.818
30.4376	0.825
30.5081	0.83
30.5786	0.834
30.6491	0.843
30.7196	0.848
30.7901	0.85
30.8606	0.852
30.9312	0.861
31.0017	0.864
31.0722	0.866
31.1427	0.868
31.2132	0.875
31.2837	0.877
31.3542	0.877
31.4247	0.879
31.4952	0.882
31.5658	0.882
31.6363	0.884
31.7068	0.884
31.7773	0.884
31.8478	0.884
31.9183	0.884
31.9888	0.884
32.0593	0.884
32.1298	0.884
32.2004	0.884
32.2709	0.884
32.3414	0.884
32.4119	0.884
32.4824	0.884
32.5529	0.884
32.6234	0.884
32.6939	0.882
32.7644	0.88
32.835	0.879
32.9055	0.882
32.976	0.882
33.0465	0.877
33.117	0.875
33.1875	0.873
33.258	0.866
33.3285	0.861
33.399	0.857
33.4696	0.855
33.5401	0.855
33.6106	0.854
33.6811	0.854
33.7516	0.854
33.8221	0.854
33.8926	0.854
33.9631	0.852
34.0337	0.85
34.1042	0.848
34.1747	0.846
34.2452	0.845
34.3157	0.843
34.3862	0.839
34.4567	0.838
34.5272	0.832
34.5977	0.83
34.6683	0.823
34.7388	0.814
34.8093	0.809
34.8798	0.804
34.9503	0.798
35.0208	0.79
35.0913	0.784
35.1618	0.781
35.2323	0.779
35.3029	0.779
35.3734	0.772
35.4439	0.77
35.5144	0.768
35.5849	0.766
35.6554	0.761
35.7259	0.758
35.7964	0.756
35.8669	0.752
35.9375	0.75
36.008	0.747
36.0785	0.738
36.149	0.729
36.2195	0.724
36.29	0.722
36.3605	0.722
36.431	0.72
36.5015	0.717
36.5721	0.713
36.6426	0.711
36.7131	0.708
36.7836	0.701
36.8541	0.699
36.9246	0.697
36.9951	0.695
37.0656	0.695
37.1362	0.695
37.2067	0.695
37.2772	0.695
37.3477	0.695
37.4182	0.695
37.4887	0.695
37.5592	0.695
37.6297	0.695
37.7002	0.695
37.7708	0.697
37.8413	0.697
37.9118	0.699
37.9823	0.704
38.0528	0.704
