Infrared Spectrum: p-Ethoxybenzaldehyde
Formula: C 9 H 10 O 2
CAS: 10031-82-0
State: gas
Origin: EPA-IR VAPOR PHASE LIBRARY
1/CM	ABSORBANCE
549.8	0.0011627
559.445	0.001306
569.09	0.0010835
578.734	0.001946
588.379	0.004776
598.024	0.008656
607.669	0.011526
617.313	0.011226
626.958	0.005986
636.603	0.005076
646.248	0.006436
655.893	0.004816
665.537	0.002096
675.182	0.001256
684.827	0.0011381
694.472	0.0008394
704.116	0.001108
713.761	0.0011455
723.406	0.001164
733.051	0.001546
742.695	0.002726
752.34	0.003166
761.985	0.003176
771.63	0.003426
781.275	0.003506
790.919	0.004636
800.564	0.008116
810.209	0.014366
819.854	0.022986
829.498	0.028116
839.143	0.029586
848.788	0.026716
858.433	0.013736
868.078	0.006196
877.722	0.004066
887.367	0.004136
897.012	0.006026
906.657	0.007936
916.301	0.008056
925.946	0.007186
935.591	0.004216
945.236	0.002466
954.88	0.001976
964.525	0.001446
974.17	0.001576
983.815	0.002046
993.46	0.002966
1003.1	0.004326
1012.75	0.006296
1022.39	0.011846
1032.04	0.022786
1041.68	0.030976
1051.33	0.024346
1060.97	0.013766
1070.62	0.008636
1080.26	0.008976
1089.91	0.012286
1099.55	0.013086
1109.2	0.014416
1118.84	0.012386
1128.49	0.008866
1138.13	0.009976
1147.78	0.028546
1157.42	0.093196
1167.07	0.069886
1176.71	0.014176
1186.36	0.011296
1196	0.022176
1205.64	0.039296
1215.29	0.046856
1224.93	0.061476
1234.58	0.090796
1244.22	0.118726
1253.87	0.118876
1263.51	0.073156
1273.16	0.029396
1282.8	0.021686
1292.45	0.031366
1302.09	0.045006
1311.74	0.033626
1321.38	0.016116
1331.03	0.008936
1340.67	0.006776
1350.32	0.006196
1359.96	0.005536
1369.61	0.006506
1379.25	0.010936
1388.9	0.018656
1398.54	0.019076
1408.18	0.011376
1417.83	0.008606
1427.47	0.008676
1437.12	0.006486
1446.76	0.005376
1456.41	0.005306
1466.05	0.006236
1475.7	0.012406
1485.34	0.014846
1494.99	0.020426
1504.63	0.045506
1514.28	0.033406
1523.92	0.008986
1533.57	0.005946
1543.21	0.006086
1552.86	0.007416
1562.5	0.012516
1572.15	0.029096
1581.79	0.050176
1591.44	0.075406
1601.08	0.114766
1610.73	0.080476
1620.37	0.026686
1630.01	0.010756
1639.66	0.006766
1649.3	0.005806
1658.95	0.006186
1668.59	0.008576
1678.24	0.012166
1687.88	0.016926
1697.53	0.029746
1707.17	0.073206
1716.82	0.148066
1726.46	0.093406
1736.11	0.017996
1745.75	0.006236
1755.4	0.003726
1765.04	0.003026
1774.69	0.002486
1784.33	0.002046
1793.98	0.001946
1803.62	0.001846
1813.27	0.001716
1822.91	0.001556
1832.55	0.001536
1842.2	0.001536
1851.84	0.001536
1861.49	0.001436
1871.13	0.001556
1880.78	0.001786
1890.42	0.002226
1900.07	0.002276
1909.71	0.002086
1919.36	0.001786
1929	0.001806
1938.65	0.001806
1948.29	0.001756
1957.94	0.001746
1967.58	0.001856
1977.23	0.001906
1986.87	0.001926
1996.52	0.002096
2006.16	0.002286
2015.81	0.002096
2025.45	0.001776
2035.1	0.001636
2044.74	0.001626
2054.38	0.001586
2064.03	0.001496
2073.67	0.001466
2083.32	0.001376
2092.96	0.0011663
2102.61	0.0009722
2112.25	0.0008254
2121.9	0.0007525
2131.54	0.0007925
2141.19	0.0008088
2150.83	0.0006782
2160.48	0.0006328
2170.12	0.0005907
2179.77	0.0005155
2189.41	0.0005179
2199.06	0.0005527
2208.7	0.0005149
2218.35	0.000622
2227.99	0.0005891
2237.64	0.0006207
2247.28	0.0007771
2256.92	0.0009225
2266.57	0.0009702
2276.21	0.0009124
2285.86	0.0009144
2295.5	0.0007833
2305.15	0.0007271
2314.79	0.0008549
2324.44	0.0008358
2334.08	0.0005941
2343.73	0.0005259
2353.37	0.0006086
2363.02	0.0006281
2372.66	0.0006764
2382.31	0.0007602
2391.95	0.0009336
2401.6	0.0011665
2411.24	0.001336
2420.89	0.001336
2430.53	0.001236
2440.18	0.001356
2449.82	0.001546
2459.47	0.001566
2469.11	0.001376
2478.75	0.001446
2488.4	0.001456
2498.04	0.001536
2507.69	0.001676
2517.33	0.001686
2526.98	0.001396
2536.62	0.001736
2546.27	0.002116
2555.91	0.002356
2565.56	0.002176
2575.2	0.001986
2584.85	0.002006
2594.49	0.001966
2604.14	0.001786
2613.78	0.001596
2623.43	0.001546
2633.07	0.001476
2642.72	0.001486
2652.36	0.001606
2662.01	0.002016
2671.65	0.002966
2681.29	0.004606
2690.94	0.006516
2700.58	0.009626
2710.23	0.015666
2719.87	0.022966
2729.52	0.022886
2739.16	0.015156
2748.81	0.008796
2758.45	0.006496
2768.1	0.006756
2777.74	0.008956
2787.39	0.012686
2797.03	0.015346
2806.68	0.016306
2816.32	0.016386
2825.97	0.012946
2835.61	0.008206
2845.26	0.005656
2854.9	0.004826
2864.55	0.005186
2874.19	0.007026
2883.84	0.009286
2893.48	0.010386
2903.12	0.011086
2912.77	0.011776
2922.41	0.011716
2932.06	0.012846
2941.7	0.015136
2951.35	0.013446
2960.99	0.010066
2970.64	0.012256
2980.28	0.018566
2989.93	0.022496
2999.57	0.017446
3009.22	0.010256
3018.86	0.006976
3028.51	0.006726
3038.15	0.006706
3047.8	0.004876
3057.44	0.003686
3067.09	0.004476
3076.73	0.005686
3086.38	0.004956
3096.02	0.004376
3105.67	0.003856
3115.31	0.002776
3124.95	0.001916
3134.6	0.001236
3144.24	0.0011061
3153.89	0.0009196
3163.53	0.0009304
3173.18	0.0006819
3182.82	0.0007934
3192.47	0.0007734
3202.11	0.0007755
3211.76	0.0007265
3221.4	0.0005487
3231.05	0.0005091
3240.69	0.0002992
3250.34	0.0003854
3259.98	0.0004546
3269.63	0.0003495
3279.27	0.00024161
3288.92	0.0003837
3298.56	0.00028494
3308.21	0.000541
3317.85	0.0004043
3327.49	0.0003618
3337.14	0.0004355
3346.78	0.000367
3356.43	0.0003671
3366.07	0.000277
3375.72	0.0004316
3385.36	0.0010361
3395.01	0.001306
3404.65	0.002076
3414.3	0.002166
3423.94	0.001626
3433.59	0.0010358
3443.23	0.000559
3452.88	0.0004675
3462.52	0.00024735
3472.17	0.0001046
3481.81	0.0002866
3491.46	0.0002864
3501.1	0.0003396
3510.75	0.00017737
3520.39	0.00026212
3530.04	0.00022557
3539.68	0.0001679
3549.32	0.0003722
3558.97	0.0002957
3568.61	0.0003412
3578.26	0.00023395
3587.9	0.00022073
3597.55	0.00024663
3607.19	0.0001677
3616.84	0.0003338
3626.48	0.0001239
3636.13	0.0003295
3645.77	0.0002994
3655.42	0.0004528
3665.06	0.0001712
3674.71	0.0001089
3684.35	0.0003775
3694	0.0001272
3703.64	0.0003182
3713.29	0.00019734
3722.93	0.0003243
3732.58	0.0003457
3742.22	0.00024713
3751.86	0.0003152
3761.51	0.00024778
3771.15	8.1e-05
3780.8	0.00024362
3790.44	0.0003921
3800.09	0.00028203
3809.73	0.0002046
3819.38	0.0003602
3829.02	0.000193506
3838.67	0.0003383
3848.31	0.0003372
3857.96	0.000195147
3867.6	0.0001582
3877.25	0.00026889
3886.89	0.0001308
3896.54	0.000185835
3906.18	0.0004555
3915.83	0.00025636
3925.47	0.00023115
3935.12	0.0003555
3944.76	0.00028451
3954.41	0.00026654
3964.05	0.00021805
3973.69	0.0003337
3983.34	0.00027547
3992.98	0.00024314
