Infrared Spectrum: Ethylidenecyclohexane
Formula: C 8 H 14
CAS: 1003-64-1
State: gas
Instrument: HP-GC/MS/IRD
Origin: NIST Mass Spectrometry Data Center
1/CM	ABSORBANCE
550	0.000217
562	9.3e-05
574	3.72e-05
586	0.000155
598	0.0004092
610	0.0007378
622	0.000806
634	0.0003782
646	0.0001178
658	0.0001054
670	3.1e-05
682	8.06e-05
694	0
706	0.0001426
718	6.82e-05
730	4.96e-05
742	8.06e-05
754	0.0001178
766	9.92e-05
778	0.00031
790	0.000899
802	0.0021018
814	0.0033046
826	0.0022878
838	0.0011098
850	0.0008804
862	0.000682
874	0.0003844
886	0.0007068
898	0.0008556
910	0.0006138
922	0.000651
934	0.0008618
946	0.000713
958	0.000403
970	0.000217
982	0.0003968
994	0.0010912
1006	0.0016678
1018	0.0014384
1030	0.0009982
1042	0.0006634
1054	0.000465
1066	0.0004278
1078	0.0005022
1090	0.0005952
1102	0.0008928
1114	0.0009114
1126	0.0006882
1138	0.0004898
1150	0.0003782
1162	0.0002852
1174	0.0002666
1186	0.0002976
1198	0.0003658
1210	0.0004588
1222	0.0010664
1234	0.0016616
1246	0.0014198
1258	0.0009982
1270	0.0008556
1282	0.0006758
1294	0.0006758
1306	0.0008618
1318	0.0010602
1330	0.0014074
1342	0.0014508
1354	0.0012214
1366	0.0009982
1378	0.001395
1390	0.0014756
1402	0.0012214
1414	0.0011718
1426	0.0021514
1438	0.0043648
1450	0.0058528
1462	0.0040796
1474	0.0019716
1486	0.0009672
1498	0.0006882
1510	0.000372
1522	0.0005518
1534	0.000651
1546	0.0005084
1558	0.0003534
1570	0.0004836
1582	0.0004712
1594	0.0004464
1606	0.0005084
1618	0.0005456
1630	0.0005332
1642	0.000372
1654	0.000279
1666	0.000527
1678	0.0003906
1690	0.0002294
1702	2.48e-05
1714	4.34e-05
1726	0.0001922
1738	0.0001364
1750	3.1e-05
1762	0.0001488
1774	0.0001364
1786	0.0001302
1798	0.0001488
1810	0.0002418
1822	0.0002604
1834	0.0003348
1846	0.00031
1858	0.0002976
1870	0.0001798
1882	0.0002294
1894	0.0001798
1906	0.000186
1918	0.0001426
1930	0.0001922
1942	0.000155
1954	0.0001798
1966	0.0001612
1978	0.0001488
1990	9.92e-05
2002	0.0001302
2014	0.0001178
2026	0.0001116
2038	0.0001116
2050	0.0001426
2062	0.0001116
2074	0.0001302
2086	0.0001364
2098	0.0001178
2110	8.06e-05
2122	8.68e-05
2134	9.92e-05
2146	0.0001178
2158	0.0001302
2170	0.0001488
2182	0.0001426
2194	0.000155
2206	0.0001302
2218	0.0001116
2230	9.3e-05
2242	9.3e-05
2254	8.68e-05
2266	6.82e-05
2278	8.06e-05
2290	6.82e-05
2302	6.2e-06
2314	2.48e-05
2326	3.72e-05
2338	8.06e-05
2350	7.44e-05
2362	3.1e-05
2374	4.34e-05
2386	0.0001116
2398	0.0001364
2410	0.0001674
2422	0.0001488
2434	0.000124
2446	0.0001302
2458	0.0001426
2470	0.0001302
2482	0.0001426
2494	0.0001302
2506	0.0001488
2518	0.0001426
2530	0.0001178
2542	0.0001674
2554	0.0002046
2566	0.000217
2578	0.0002232
2590	0.0002666
2602	0.0002666
2614	0.0002728
2626	0.000341
2638	0.0004588
2650	0.0006324
2662	0.0007564
2674	0.0007688
2686	0.0005952
2698	0.0004898
2710	0.0004216
2722	0.0004712
2734	0.000558
2746	0.0006262
2758	0.0007626
2770	0.0009362
2782	0.0010664
2794	0.0012586
2806	0.00155
2818	0.0025854
2830	0.005735
2842	0.011222
2854	0.0180916
2866	0.0203484
2878	0.0162936
2890	0.0131688
2902	0.014384
2914	0.0249054
2926	0.0485708
2938	0.0586396
2950	0.0411804
2962	0.0194618
2974	0.0118482
2986	0.00713
2998	0.0056916
3010	0.0051026
3022	0.0043772
3034	0.0035836
3046	0.0029388
3058	0.0021576
3070	0.0013764
3082	0.0008618
3094	0.000713
3106	0.0006324
3118	0.0005208
3130	0.0003906
3142	0.0003162
3154	0.0002666
3166	0.0002666
3178	0.0002542
3190	0.0002356
3202	0.0002108
3214	0.000217
3226	0.0002728
3238	0.000279
3250	0.000248
3262	0.0001674
3274	0.0001364
3286	0.0001302
3298	0.0001364
3310	0.000155
3322	0.0001984
3334	0.0002046
3346	0.000186
3358	0.0001984
3370	0.0001922
3382	0.000217
3394	0.0002108
3406	0.0002294
3418	0.0002418
3430	0.0002418
3442	0.0001426
3454	0.000155
3466	0.000155
3478	0.0001674
3490	0.0001922
3502	0.0001488
3514	0.0001612
3526	0.0001178
3538	0.000186
3550	0.0001984
3562	9.92e-05
3574	0.0002232
3586	2.48e-05
3598	0.0001488
3610	4.96e-05
3622	0.0001922
3634	0.0001984
3646	0.0001302
3658	0.0002666
3670	0.0002232
3682	0.0003286
3694	0.00031
3706	0.0002976
3718	0.0002604
3730	0.0001984
3742	0.0001426
3754	0.0002232
3766	0.0003348
3778	0.0003844
3790	0.0003596
3802	0.0002728
3814	0.00031
3826	0.0003038
3838	0.000279
