Infrared Spectrum: p-Decyl-.alpha.-.alpha.-.alpha.-trifluoroacetophenone
Formula: C 18 H 25 F 3 O
CAS: 100444-41-5
State: gas
Origin: EPA-IR VAPOR PHASE LIBRARY
1/CM	ABSORBANCE
549.8	0.00333718
559.445	0.00160718
569.09	0.00101718
578.734	0.00156718
588.379	0.00194718
598.024	0.00437718
607.669	0.00508718
617.313	0.00931718
626.958	0.00589718
636.603	0.00586718
646.248	0.00689718
655.893	0.00374718
665.537	0.00246718
675.182	0.00218718
684.827	0.00242718
694.472	0.00318718
704.116	0.00558718
713.761	0.00762718
723.406	0.0120572
733.051	0.0185972
742.695	0.0200172
752.34	0.0145272
761.985	0.0137172
771.63	0.00703718
781.275	0.00315718
790.919	0.00246718
800.564	0.00233718
810.209	0.00252718
819.854	0.00320718
829.498	0.00394718
839.143	0.00524718
848.788	0.00650718
858.433	0.00498718
868.078	0.00358718
877.722	0.00309718
887.367	0.00293718
897.012	0.00325718
906.657	0.00452718
916.301	0.00819718
925.946	0.0194872
935.591	0.0606672
945.236	0.0820572
954.88	0.0219172
964.525	0.00828718
974.17	0.00480718
983.815	0.00361718
993.46	0.00287718
1003.1	0.00240718
1012.75	0.00212718
1022.39	0.00215718
1032.04	0.00178718
1041.68	0.00184718
1051.33	0.00242718
1060.97	0.00239718
1070.62	0.00257718
1080.26	0.00318718
1089.91	0.00349718
1099.55	0.00515718
1109.2	0.00719718
1118.84	0.0117572
1128.49	0.0200372
1138.13	0.0389372
1147.78	0.0853172
1157.42	0.136827
1167.07	0.159797
1176.71	0.191887
1186.36	0.0845572
1196	0.0926872
1205.64	0.130277
1215.29	0.109657
1224.93	0.0454572
1234.58	0.0226672
1244.22	0.0117872
1253.87	0.00755718
1263.51	0.00622718
1273.16	0.00583718
1282.8	0.00629718
1292.45	0.00757718
1302.09	0.00883718
1311.74	0.00971718
1321.38	0.0108672
1331.03	0.0111872
1340.67	0.00989718
1350.32	0.00820718
1359.96	0.00652718
1369.61	0.00530718
1379.25	0.00442718
1388.9	0.00384718
1398.54	0.00333718
1408.18	0.00486718
1417.83	0.00860718
1427.47	0.00562718
1437.12	0.00599718
1446.76	0.00996718
1456.41	0.0128872
1466.05	0.0124572
1475.7	0.00721718
1485.34	0.00394718
1494.99	0.00274718
1504.63	0.00253718
1514.28	0.00228718
1523.92	0.00210718
1533.57	0.00217718
1543.21	0.00241718
1552.86	0.00330718
1562.5	0.00589718
1572.15	0.00498718
1581.79	0.00512718
1591.44	0.0105672
1601.08	0.0329072
1610.73	0.0468072
1620.37	0.0108372
1630.01	0.00418718
1639.66	0.00278718
1649.3	0.00226718
1658.95	0.00247718
1668.59	0.00273718
1678.24	0.00333718
1687.88	0.00497718
1697.53	0.00631718
1707.17	0.0123572
1716.82	0.0330472
1726.46	0.110567
1736.11	0.0584472
1745.75	0.0167772
1755.4	0.00741718
1765.04	0.00480718
1774.69	0.00371718
1784.33	0.00290718
1793.98	0.00276718
1803.62	0.00271718
1813.27	0.00160718
1822.91	0.00110718
1832.55	0.00088578
1842.2	0.00073338
1851.84	0.00070068
1861.49	0.00067518
1871.13	0.00074628
1880.78	0.00088078
1890.42	0.00094438
1900.07	0.00102718
1909.71	0.00135718
1919.36	0.00165718
1929	0.00154718
1938.65	0.00117718
1948.29	0.00082788
1957.94	0.00069258
1967.58	0.00055618
1977.23	0.00048588
1986.87	0.00044358
1996.52	0.00038458
2006.16	0.00040548
2015.81	0.00044738
2025.45	0.00050238
2035.1	0.00058138
2044.74	0.00056698
2054.38	0.00046808
2064.03	0.00042688
2073.67	0.00046188
2083.32	0.00048228
2092.96	0.00045538
2102.61	0.00057678
2112.25	0.00050338
2121.9	0.00042668
2131.54	0.00043048
2141.19	0.00041318
2150.83	0.00046358
2160.48	0.00037938
2170.12	0.00043838
2179.77	0.00035058
2189.41	0.00041798
2199.06	0.00044598
2208.7	0.00039878
2218.35	0.00049828
2227.99	0.00049428
2237.64	0.00056868
2247.28	0.00066688
2256.92	0.00069948
2266.57	0.00077668
2276.21	0.00088308
2285.86	0.00081638
2295.5	0.00077138
2305.15	0.00078918
2314.79	0.00079778
2324.44	0.00089188
2334.08	0.00100688
2343.73	0.00099348
2353.37	0.00100718
2363.02	0.00081298
2372.66	0.00077938
2382.31	0.00072648
2391.95	0.00052798
2401.6	0.00061598
2411.24	0.00067728
2420.89	0.00068038
2430.53	0.00059308
2440.18	0.00056258
2449.82	0.00060038
2459.47	0.00056738
2469.11	0.00060388
2478.75	0.00082498
2488.4	0.00095438
2498.04	0.00103718
2507.69	0.00109718
2517.33	0.00107718
2526.98	0.00108718
2536.62	0.00117718
2546.27	0.00110718
2555.91	0.00101718
2565.56	0.00101718
2575.2	0.00105718
2584.85	0.00105718
2594.49	0.00114718
2604.14	0.00120718
2613.78	0.00118718
2623.43	0.00129718
2633.07	0.00130718
2642.72	0.00142718
2652.36	0.00152718
2662.01	0.00164718
2671.65	0.00174718
2681.29	0.00173718
2690.94	0.00170718
2700.58	0.00155718
2710.23	0.00146718
2719.87	0.00145718
2729.52	0.00162718
2739.16	0.00170718
2748.81	0.00184718
2758.45	0.00200718
2768.1	0.00223718
2777.74	0.00262718
2787.39	0.00304718
2797.03	0.00359718
2806.68	0.00434718
2816.32	0.00547718
2825.97	0.00701718
2835.61	0.00994718
2845.26	0.0164572
2854.9	0.0362672
2864.55	0.0582772
2874.19	0.0440972
2883.84	0.0332972
2893.48	0.0299572
2903.12	0.0376472
2912.77	0.0574872
2922.41	0.0972872
2932.06	0.155857
2941.7	0.134867
2951.35	0.0731972
2960.99	0.0494772
2970.64	0.0428972
2980.28	0.0227572
2989.93	0.0130372
2999.57	0.00939718
3009.22	0.00773718
3018.86	0.00629718
3028.51	0.00612718
3038.15	0.00808718
3047.8	0.00768718
3057.44	0.00556718
3067.09	0.00430718
3076.73	0.00427718
3086.38	0.00314718
3096.02	0.00317718
3105.67	0.00259718
3115.31	0.00197718
3124.95	0.00183718
3134.6	0.00131718
3144.24	0.00113718
3153.89	0.00099798
3163.53	0.00086218
3173.18	0.00079138
3182.82	0.00081388
3192.47	0.00075568
3202.11	0.00066748
3211.76	0.00061998
3221.4	0.00056128
3231.05	0.00039138
3240.69	0.00040618
3250.34	0.00036948
3259.98	0.00024768
3269.63	0.00020448
3279.27	0.00030888
3288.92	0.00032618
3298.56	0.00030868
3308.21	0.00027868
3317.85	0.00022208
3327.49	0.00019408
3337.14	0.00024818
3346.78	0.00023868
3356.43	0.00028898
3366.07	0.00016268
3375.72	0.00028368
3385.36	0.00025468
3395.01	0.00041538
3404.65	0.00045648
3414.3	0.00035918
3423.94	0.00091278
3433.59	0.00148718
3443.23	0.00145718
3452.88	0.00091358
3462.52	0.00055898
3472.17	0.00030528
3481.81	0.00025828
3491.46	0.00015418
3501.1	6.579e-05
3510.75	0.00012988
3520.39	5.122e-05
3530.04	4.707e-05
3539.68	0.00028468
3549.32	9.367e-05
3558.97	0
3568.61	0.00021258
3578.26	0.00019278
3587.9	0.00022168
3597.55	7.196e-05
3607.19	9.44e-05
3616.84	0.00024218
3626.48	0.00025148
3636.13	0.00054578
3645.77	0.00018068
3655.42	0.0001053
3665.06	0.00031958
3674.71	0.00029118
3684.35	0.00045618
3694	0.00031658
3703.64	0.00031788
3713.29	0.00027408
3722.93	0.00024748
3732.58	0.00027668
3742.22	0.00017068
3751.86	0.00012228
3761.51	0.00029618
3771.15	0.00035858
3780.8	0.00017418
3790.44	0.00018858
3800.09	0.00033758
3809.73	0.00041898
3819.38	0.00044448
3829.02	0.00017348
3838.67	0.00018808
3848.31	0.00025318
3857.96	0.00049118
3867.6	0.00029458
3877.25	0.00027018
3886.89	0.00028948
3896.54	0.00027818
3906.18	0.00011408
3915.83	0.00031888
3925.47	0.00047608
3935.12	0.00030168
3944.76	0.00016778
3954.41	0.00032118
3964.05	0.00023328
3973.69	0.00040548
3983.34	0.00042588
3992.98	0.00028758
