Infrared Spectrum: 2-THIOL-4,6-DIAMINO-PYRIMIDINE
Formula: C4 H6 N4 S
CAS: 1004-39-3
State: SOLID (0.5% IN KBr PELLET)
Class: COBLENTZ
Instrument: Not specified, most likely a prism, grating, or hybrid spectrometer.
Sampling: TRANSMISSION
Path length: 0.0355 CM
Resolution: 4
Origin: ANDERSON PHYSICAL LABORATORY
1/CM	TRANSMITTANCE
670.625	0.408
679.063	0.452
687.5	0.479
695.938	0.502
704.375	0.521
712.813	0.548
721.25	0.581
729.688	0.599
738.125	0.62
746.563	0.645
755	0.665
763.438	0.674
771.875	0.644
780.313	0.4631
788.75	0.4049
797.188	0.3751
805.626	0.5379
814.063	0.701
822.501	0.711
830.938	0.693
839.376	0.656
847.813	0.629
856.251	0.63
864.688	0.687
873.126	0.713
881.563	0.711
890.001	0.71
898.438	0.692
906.876	0.666
915.313	0.633
923.751	0.621
932.188	0.582
940.626	0.4431
949.064	0.5198
957.501	0.596
965.939	0.542
974.376	0.523
982.814	0.626
991.251	0.686
999.689	0.677
1008.13	0.648
1016.56	0.635
1025	0.641
1033.44	0.653
1041.88	0.645
1050.31	0.635
1058.75	0.632
1067.19	0.615
1075.63	0.602
1084.06	0.584
1092.5	0.56
1100.94	0.56
1109.38	0.562
1117.81	0.572
1126.25	0.575
1134.69	0.566
1143.13	0.545
1151.56	0.523
1160	0.496
1168.44	0.467
1176.88	0.412
1185.31	0.3221
1193.75	0.1831
1202.19	0.11
1210.63	0.188
1219.06	0.294
1227.5	0.387
1235.94	0.378
1244.38	0.346
1252.81	0.405
1261.25	0.451
1269.69	0.5709
1278.13	0.584
1286.56	0.509
1295	0.427
1303.44	0.273
1311.88	0.207
1320.31	0.236
1328.75	0.355
1337.19	0.535
1345.63	0.581
1354.07	0.585
1362.5	0.578
1370.94	0.569
1379.38	0.559
1387.82	0.535
1396.25	0.499
1404.69	0.457
1413.13	0.415
1421.57	0.394
1430	0.397
1438.44	0.431
1446.88	0.43
1455.32	0.397
1463.75	0.367
1472.19	0.339
1480.63	0.304
1489.07	0.251
1497.5	0.203
1505.94	0.137
1514.38	0.097
1522.82	0.097
1531.25	0.095
1539.69	0.079
1548.13	0.073
1556.57	0.055
1565	0.046
1573.44	0.056
1581.88	0.074
1590.32	0.086
1598.75	0.071
1607.19	0.038
1615.63	0.037
1624.07	0.044
1632.5	0.05
1640.94	0.059
1649.38	0.112
1657.82	0.137
1666.25	0.2581
1674.69	0.3751
1683.13	0.514
1691.57	0.608
1700	0.692
1708.44	0.744
1716.88	0.811
1725.32	0.859
1733.75	0.883
1742.19	0.896
1750.63	0.907
1759.07	0.922
1767.5	0.934
1775.94	0.94
1784.38	0.944
1792.82	0.952
1801.25	0.961
1809.69	0.959
1818.13	0.946
1826.57	0.944
1835	0.947
1843.44	0.95
1851.88	0.944
1860.32	0.949
1868.75	0.943
1877.19	0.928
1885.63	0.923
1894.07	0.926
1902.5	0.928
1910.94	0.925
1919.38	0.925
1927.82	0.925
1936.25	0.922
1944.69	0.92
1953.13	0.908
1961.57	0.902
1970	0.904
1978.44	0.91
1986.88	0.905
1995.32	0.898
2003.76	0.877
2012.19	0.8702
2020.63	0.8655
2029.07	0.8597
2037.51	0.855
2045.94	0.853
2054.38	0.8509
2062.82	0.8492
2071.26	0.8429
2079.69	0.8394
2088.13	0.8333
2096.57	0.8239
2105.01	0.8156
2113.44	0.8029
2121.88	0.796
2130.32	0.7924
2138.76	0.7837
2147.19	0.7728
2155.63	0.7641
2164.07	0.7594
2172.51	0.7526
2180.94	0.7476
2189.38	0.7427
2197.82	0.7381
2206.26	0.7358
2214.69	0.735
2223.13	0.733
2231.57	0.7291
2240.01	0.7224
2248.44	0.7161
2256.88	0.7116
2265.32	0.7081
2273.76	0.6999
2282.19	0.6901
2290.63	0.6811
2299.07	0.666
2307.51	0.6555
2315.94	0.653
2324.38	0.653
2332.82	0.653
2341.26	0.653
2349.69	0.6519
2358.13	0.6486
2366.57	0.6447
2375.01	0.6327
2383.44	0.6294
2391.88	0.6245
2400.32	0.6199
2408.76	0.6153
2417.19	0.6032
2425.63	0.5935
2434.07	0.5835
2442.51	0.5773
2450.94	0.5717
2459.38	0.5654
2467.82	0.5497
2476.26	0.5435
2484.69	0.537
2493.13	0.5273
2501.57	0.5192
2510.01	0.5103
2518.44	0.5037
2526.88	0.5001
2535.32	0.4896
2543.76	0.4861
2552.19	0.4819
2560.63	0.4731
2569.07	0.4627
2577.51	0.4526
2585.94	0.4483
2594.38	0.4371
2602.82	0.433
2611.26	0.4305
2619.69	0.425
2628.13	0.4139
2636.57	0.3973
2645.01	0.3829
2653.44	0.3687
2661.88	0.3548
2670.32	0.3462
2678.76	0.3317
2687.2	0.3272
2695.63	0.3249
2704.07	0.324
2712.51	0.324
2720.95	0.325
2729.38	0.3249
2737.82	0.324
2746.26	0.3201
2754.7	0.3151
2763.13	0.3086
2771.57	0.3011
2780.01	0.2931
2788.45	0.291
2796.88	0.2888
2805.32	0.2856
2813.76	0.28
2822.2	0.2752
2830.63	0.2714
2839.07	0.2647
2847.51	0.26
2855.95	0.258
2864.38	0.257
2872.82	0.258
2881.26	0.258
2889.7	0.258
2898.13	0.2562
2906.57	0.2505
2915.01	0.2407
2923.45	0.237
2931.88	0.2284
2940.32	0.2137
2948.76	0.2036
2957.2	0.195
2965.63	0.1843
2974.07	0.1779
2982.51	0.174
2990.95	0.1637
2999.38	0.1508
3007.82	0.1317
3016.26	0.1139
3024.7	0.1069
3033.13	0.106
3041.57	0.107
3050.01	0.1099
3058.45	0.112
3066.88	0.112
3075.32	0.113
3083.76	0.113
3092.2	0.1133
3100.63	0.1168
3109.07	0.126
3117.51	0.1385
3125.95	0.1553
3134.38	0.1821
3142.82	0.2026
3151.26	0.2304
3159.7	0.2533
3168.13	0.26
3176.57	0.2607
3185.01	0.261
3193.45	0.2526
3201.88	0.239
3210.32	0.2187
3218.76	0.204
3227.2	0.201
3235.63	0.2035
3244.07	0.2086
3252.51	0.2151
3260.95	0.2282
3269.38	0.2351
3277.82	0.2398
3286.26	0.2421
3294.7	0.2466
3303.13	0.2563
3311.57	0.2719
3320.01	0.2889
3328.45	0.302
3336.89	0.306
3345.32	0.3031
3353.76	0.2962
3362.2	0.2768
3370.64	0.2647
3379.07	0.263
3387.51	0.2671
3395.95	0.2775
3404.39	0.288
3412.82	0.3106
3421.26	0.3568
3429.7	0.388
3438.14	0.4012
3446.57	0.4148
3455.01	0.4314
3463.45	0.4527
3471.89	0.4779
3480.32	0.4939
3488.76	0.5207
3497.2	0.546
3505.64	0.5635
3514.07	0.572
3522.51	0.5798
3530.95	0.5901
3539.39	0.6037
3547.82	0.6121
3556.26	0.6209
3564.7	0.6256
3573.14	0.6324
3581.57	0.6351
3590.01	0.636
3598.45	0.636
3606.89	0.6352
3615.32	0.632
3623.76	0.63
3632.2	0.627
3640.64	0.626
3649.07	0.624
3657.51	0.6222
3665.95	0.6204
3674.39	0.6143
3682.82	0.6047
3691.26	0.5996
3699.7	0.5947
3708.14	0.5884
3716.57	0.5818
3725.01	0.5767
3733.45	0.5699
3741.89	0.5652
3750.32	0.5628
3758.76	0.5586
3767.2	0.5508
3775.64	0.5451
3784.07	0.5413
3792.51	0.538
3800.95	0.5352
3809.39	0.533
3817.82	0.532
3826.26	0.532
3834.7	0.53
3843.14	0.5289
3851.57	0.5261
3860.01	0.5205
3868.45	0.52
3876.89	0.5179
3885.32	0.517
3893.76	0.517
3902.2	0.5154
3910.64	0.514
3919.07	0.5133
3927.51	0.5098
3935.95	0.5063
3944.39	0.5059
3952.82	0.5042
3961.26	0.503
3969.7	0.5029
3978.14	0.503
