Infrared Spectrum: BORON NITRIDE
Formula: B N
CAS: 10043-11-5
State: SOLID (NUJOL AND FLUOROLUBE MULLS)
Class: COBLENTZ
Instrument: Not specified, most likely a prism, grating, or hybrid spectrometer.
Sampling: TRANSMISSION
Resolution: 4
Origin: MELLON INSTITUTE
MICROMETERS	TRANSMITTANCE
2.017	0.542
2.05797	0.554
2.09893	0.565
2.1399	0.577
2.18087	0.587
2.22183	0.596
2.2628	0.603
2.30377	0.613
2.34473	0.625
2.3857	0.632
2.42667	0.642
2.46764	0.651
2.5086	0.659
2.54957	0.663
2.59054	0.671
2.6315	0.678
2.67247	0.683
2.71344	0.685
2.7544	0.689
2.79537	0.694
2.83634	0.695
2.8773	0.699
2.91827	0.704
2.95924	0.707
3.0002	0.714
3.04117	0.721
3.08214	0.731
3.1231	0.74
3.16407	0.747
3.20504	0.756
3.246	0.766
3.28697	0.774
3.32794	0.783
3.36891	0.792
3.40987	0.797
3.45084	0.804
3.49181	0.816
3.53277	0.824
3.57374	0.833
3.61471	0.838
3.65567	0.841
3.69664	0.847
3.73761	0.85
3.77857	0.852
3.81954	0.855
3.86051	0.857
3.90147	0.857
3.94244	0.857
3.98341	0.859
4.02437	0.86
4.06534	0.86
4.10631	0.86
4.14728	0.864
4.18824	0.865
4.22921	0.867
4.27018	0.871
4.31114	0.872
4.35211	0.876
4.39308	0.878
4.43404	0.881
4.47501	0.884
4.51598	0.884
4.55694	0.888
4.59791	0.893
4.63888	0.898
4.67984	0.902
4.72081	0.905
4.76178	0.907
4.80274	0.914
4.84371	0.917
4.88468	0.92
4.92564	0.922
4.96661	0.927
5.00758	0.927
5.04855	0.932
5.08951	0.936
5.13048	0.938
5.17145	0.939
5.21241	0.943
5.25338	0.945
5.29435	0.945
5.33531	0.945
5.37628	0.943
5.41725	0.943
5.45821	0.943
5.49918	0.945
5.54015	0.951
5.58111	0.957
5.62208	0.96
5.66305	0.963
5.70401	0.967
5.74498	0.97
5.78595	0.969
5.82692	0.972
5.86788	0.974
5.90885	0.977
5.94982	0.977
5.99078	0.977
6.03175	0.979
6.07272	0.979
6.11368	0.979
6.15465	0.977
6.19562	0.977
6.23658	0.977
6.27755	0.972
6.31852	0.962
6.35948	0.951
6.40045	0.941
6.44142	0.927
6.48238	0.914
6.52335	0.898
6.56432	0.881
6.60528	0.864
6.64625	0.845
6.68722	0.828
6.72819	0.807
6.76915	0.792
6.81012	0.764
6.85109	0.735
6.89205	0.702
6.93302	0.656
6.97399	0.618
7.01495	0.57
7.05592	0.537
7.09689	0.518
7.13785	0.506
7.17882	0.503
7.21979	0.512
7.26075	0.554
7.30172	0.651
7.34269	0.699
7.38365	0.731
7.42462	0.743
7.46559	0.752
7.50656	0.761
7.54752	0.766
7.58849	0.771
7.62946	0.776
7.67042	0.78
7.71139	0.785
7.75236	0.792
7.79332	0.8
7.83429	0.807
7.87526	0.816
7.91622	0.824
7.95719	0.831
7.99816	0.84
8.03912	0.85
8.08009	0.855
8.12106	0.859
8.16202	0.864
8.20299	0.867
8.24396	0.862
8.28492	0.857
8.32589	0.857
8.36686	0.859
8.40783	0.865
8.44879	0.865
8.48976	0.864
8.53073	0.857
8.57169	0.855
8.61266	0.855
8.65363	0.857
8.69459	0.859
8.73556	0.865
8.77653	0.871
8.81749	0.878
8.85846	0.884
8.89943	0.89
8.94039	0.893
8.98136	0.895
9.02233	0.902
9.06329	0.903
9.10426	0.903
9.14523	0.907
9.1862	0.912
9.22716	0.915
9.26813	0.915
9.3091	0.917
9.35006	0.915
9.39103	0.917
9.432	0.917
9.47296	0.919
9.51393	0.92
9.5549	0.922
9.59586	0.92
9.63683	0.919
9.6778	0.919
9.71876	0.919
9.75973	0.919
9.8007	0.92
9.84166	0.92
9.88263	0.92
9.9236	0.92
9.96456	0.924
10.0055	0.927
10.0465	0.927
10.0875	0.926
10.1284	0.922
10.1694	0.919
10.2104	0.915
10.2513	0.91
10.2923	0.91
10.3333	0.908
10.3742	0.91
10.4152	0.915
10.4562	0.917
10.4971	0.919
10.5381	0.919
10.5791	0.919
10.62	0.922
10.661	0.922
10.702	0.926
10.7429	0.929
10.7839	0.931
10.8249	0.932
10.8658	0.934
10.9068	0.936
10.9478	0.938
10.9887	0.941
11.0297	0.945
11.0707	0.946
11.1116	0.95
11.1526	0.953
11.1936	0.953
11.2345	0.953
11.2755	0.955
11.3165	0.957
11.3574	0.958
11.3984	0.962
11.4394	0.965
11.4803	0.967
11.5213	0.97
11.5623	0.974
11.6032	0.974
11.6442	0.972
11.6852	0.974
11.7261	0.972
11.7671	0.974
11.8081	0.974
11.849	0.974
11.89	0.974
11.931	0.975
11.9719	0.974
12.0129	0.974
12.0539	0.974
12.0948	0.974
12.1358	0.967
12.1768	0.939
12.2177	0.896
12.2587	0.872
12.2997	0.853
12.3406	0.847
12.3816	0.848
12.4226	0.857
12.4635	0.865
12.5045	0.876
12.5455	0.891
12.5864	0.905
12.6274	0.908
12.6684	0.914
12.7093	0.915
12.7503	0.919
12.7913	0.92
12.8322	0.92
12.8732	0.919
12.9142	0.919
12.9551	0.917
12.9961	0.917
13.0371	0.915
13.078	0.914
13.119	0.908
13.16	0.905
13.2009	0.9
13.2419	0.895
13.2829	0.893
13.3238	0.886
13.3648	0.884
13.4058	0.879
13.4467	0.865
13.4877	0.852
13.5287	0.838
13.5696	0.833
13.6106	0.828
13.6516	0.819
13.6925	0.807
13.7335	0.802
13.7745	0.792
13.8154	0.776
13.8564	0.768
13.8974	0.769
13.9383	0.776
13.9793	0.786
14.0203	0.798
14.0612	0.805
14.1022	0.81
14.1432	0.817
14.1841	0.819
14.2251	0.817
14.2661	0.817
14.307	0.816
14.348	0.816
14.389	0.81
14.4299	0.804
14.4709	0.798
14.5119	0.793
14.5528	0.788
14.5938	0.788
14.6348	0.785
14.6758	0.781
14.7167	0.776
14.7577	0.771
14.7987	0.761
14.8396	0.757
14.8806	0.752
14.9216	0.747
14.9625	0.742
15.0035	0.738
15.0445	0.735
15.0854	0.73
15.1264	0.726
15.1674	0.723
15.2083	0.721
15.2493	0.716
15.2903	0.713
15.3312	0.706
15.3722	0.706
15.4132	0.702
15.4541	0.697
15.4951	0.695
15.5361	0.692
15.577	0.694
15.618	0.694
15.659	0.692
15.6999	0.689
15.7409	0.687
15.7819	0.685
15.8228	0.687
15.8638	0.687
15.9048	0.689
15.9457	0.69
15.9867	0.695
