Infrared Spectrum: BORIC ACID
Formula: H3 B O3
CAS: 10043-35-3
State: SOLID (NUJOL MULL)
Class: COBLENTZ
Instrument: Not specified, most likely a prism, grating, or hybrid spectrometer.
Sampling: TRANSMISSION
Resolution: 4
Origin: MELLON INSTITUTE
MICROMETERS	TRANSMITTANCE
2.022	0.814
2.06191	0.816
2.10181	0.817
2.14172	0.817
2.18162	0.797
2.22153	0.792
2.26144	0.799
2.30134	0.795
2.34125	0.799
2.38115	0.802
2.42106	0.801
2.46096	0.802
2.50087	0.809
2.54078	0.807
2.58068	0.801
2.62059	0.801
2.66049	0.801
2.7004	0.802
2.74031	0.799
2.78021	0.789
2.82012	0.775
2.86002	0.757
2.89993	0.719
2.93983	0.667
2.97974	0.598
3.01965	0.511
3.05955	0.433
3.09946	0.374
3.13936	0.344
3.17927	0.344
3.21918	0.377
3.25908	0.433
3.29899	0.493
3.33889	0.446
3.3788	0.391
3.4187	0.453
3.45861	0.476
3.49852	0.612
3.53842	0.7
3.57833	0.735
3.61823	0.75
3.65814	0.755
3.69805	0.762
3.73795	0.765
3.77786	0.77
3.81776	0.774
3.85767	0.777
3.89757	0.775
3.93748	0.775
3.97739	0.777
4.01729	0.78
4.0572	0.784
4.0971	0.792
4.13701	0.795
4.17692	0.795
4.21682	0.794
4.25673	0.789
4.29663	0.787
4.33654	0.785
4.37645	0.79
4.41635	0.794
4.45626	0.78
4.49616	0.78
4.53607	0.785
4.57597	0.795
4.61588	0.802
4.65579	0.807
4.69569	0.812
4.7356	0.816
4.7755	0.822
4.81541	0.824
4.85532	0.829
4.89522	0.831
4.93513	0.832
4.97503	0.836
5.01494	0.839
5.05484	0.842
5.09475	0.847
5.13466	0.852
5.17456	0.856
5.21447	0.861
5.25437	0.866
5.29428	0.867
5.33419	0.871
5.37409	0.871
5.414	0.872
5.4539	0.876
5.49381	0.879
5.53371	0.881
5.57362	0.886
5.61353	0.889
5.65343	0.891
5.69334	0.896
5.73324	0.899
5.77315	0.903
5.81306	0.906
5.85296	0.908
5.89287	0.909
5.93277	0.909
5.97268	0.909
6.01258	0.909
6.05249	0.909
6.0924	0.908
6.1323	0.906
6.17221	0.903
6.21211	0.901
6.25202	0.892
6.29193	0.884
6.33183	0.871
6.37174	0.834
6.41164	0.797
6.45155	0.75
6.49146	0.677
6.53136	0.63
6.57127	0.545
6.61117	0.443
6.65108	0.351
6.69098	0.285
6.73089	0.232
6.7708	0.202
6.8107	0.187
6.85061	0.183
6.89051	0.185
6.93042	0.187
6.97033	0.198
7.01023	0.212
7.05014	0.225
7.09004	0.252
7.12995	0.287
7.16985	0.319
7.20976	0.346
7.24967	0.387
7.28957	0.486
7.32948	0.573
7.36938	0.622
7.40929	0.657
7.4492	0.69
7.4891	0.725
7.52901	0.745
7.56891	0.772
7.60882	0.784
7.64872	0.794
7.68863	0.806
7.72854	0.816
7.76844	0.821
7.80835	0.822
7.84825	0.826
7.88816	0.832
7.92807	0.834
7.96797	0.832
8.00788	0.816
8.04778	0.787
8.08769	0.752
8.12759	0.72
8.1675	0.705
8.20741	0.683
8.24731	0.618
8.28722	0.518
8.32712	0.357
8.36703	0.312
8.40694	0.401
8.44684	0.555
8.48675	0.65
8.52665	0.714
8.56656	0.744
8.60647	0.777
8.64637	0.794
8.68628	0.806
8.72618	0.819
8.76609	0.832
8.80599	0.844
8.8459	0.852
8.88581	0.857
8.92571	0.864
8.96562	0.869
9.00552	0.869
9.04543	0.871
9.08534	0.877
9.12524	0.882
9.16515	0.887
9.20505	0.891
9.24496	0.892
9.28486	0.892
9.32477	0.896
9.36468	0.897
9.40458	0.904
9.44449	0.906
9.48439	0.909
9.5243	0.911
9.56421	0.914
9.60411	0.918
9.64402	0.918
9.68392	0.919
9.72383	0.921
9.76373	0.921
9.80364	0.921
9.84355	0.921
9.88345	0.921
9.92336	0.923
9.96326	0.923
10.0032	0.923
10.0431	0.923
10.083	0.923
10.1229	0.924
10.1628	0.926
10.2027	0.926
10.2426	0.926
10.2825	0.926
10.3224	0.928
10.3623	0.929
10.4022	0.933
10.4421	0.933
10.482	0.933
10.5219	0.933
10.5619	0.931
10.6018	0.931
10.6417	0.933
10.6816	0.933
10.7215	0.933
10.7614	0.933
10.8013	0.931
10.8412	0.929
10.8811	0.928
10.921	0.926
10.9609	0.926
11.0008	0.926
11.0407	0.926
11.0806	0.928
11.1205	0.928
11.1604	0.928
11.2003	0.928
11.2403	0.923
11.2802	0.903
11.3201	0.896
11.36	0.896
11.3999	0.899
11.4398	0.901
11.4797	0.906
11.5196	0.911
11.5595	0.908
11.5994	0.909
11.6393	0.906
11.6792	0.901
11.7191	0.892
11.759	0.882
11.7989	0.872
11.8388	0.859
11.8787	0.847
11.9187	0.826
11.9586	0.807
11.9985	0.784
12.0384	0.772
12.0783	0.762
12.1182	0.745
12.1581	0.734
12.198	0.725
12.2379	0.714
12.2778	0.709
12.3177	0.704
12.3576	0.7
12.3975	0.7
12.4374	0.7
12.4773	0.702
12.5172	0.707
12.5571	0.712
12.597	0.719
12.637	0.725
12.6769	0.73
12.7168	0.74
12.7567	0.749
12.7966	0.755
12.8365	0.76
12.8764	0.77
12.9163	0.779
12.9562	0.785
12.9961	0.789
13.036	0.792
13.0759	0.795
13.1158	0.797
13.1557	0.799
13.1956	0.801
13.2355	0.804
13.2754	0.806
13.3154	0.807
13.3553	0.811
13.3952	0.812
13.4351	0.811
13.475	0.811
13.5149	0.812
13.5548	0.812
13.5947	0.814
13.6346	0.816
13.6745	0.814
13.7144	0.814
13.7543	0.814
13.7942	0.814
13.8341	0.816
13.874	0.812
13.9139	0.814
13.9538	0.814
13.9938	0.814
14.0337	0.812
14.0736	0.812
14.1135	0.811
14.1534	0.806
14.1933	0.802
14.2332	0.799
14.2731	0.794
14.313	0.79
14.3529	0.785
14.3928	0.782
14.4327	0.78
14.4726	0.774
14.5125	0.77
14.5524	0.767
14.5923	0.76
14.6322	0.749
14.6722	0.74
14.7121	0.735
14.752	0.73
14.7919	0.725
14.8318	0.722
14.8717	0.72
14.9116	0.715
14.9515	0.707
14.9914	0.704
15.0313	0.698
15.0712	0.692
15.1111	0.687
15.151	0.683
15.1909	0.683
15.2308	0.682
15.2707	0.682
15.3106	0.68
15.3506	0.68
15.3905	0.675
15.4304	0.673
15.4703	0.672
15.5102	0.67
15.5501	0.672
15.59	0.672
15.6299	0.672
15.6698	0.672
15.7097	0.673
15.7496	0.675
15.7895	0.675
15.8294	0.673
15.8693	0.675
15.9092	0.677
15.9491	0.678
15.989	0.682
