Infrared Spectrum: Calcium Chloride
Formula: Ca Cl 2
CAS: 10043-52-4
State: solid
Instrument: Bruker Tensor 37 FTIR
Resolution: 0.96450084
Origin: Pacific Northwest National Laboratory Under IARPA Contract
1/cm	Reflectance
7498.03	0.852741
7480.67	0.846753
7463.31	0.842797
7445.95	0.844532
7428.59	0.847179
7411.23	0.839082
7393.87	0.834598
7376.51	0.826149
7359.15	0.826873
7341.79	0.817365
7324.43	0.822415
7307.07	0.817636
7289.71	0.80696
7272.35	0.793471
7254.99	0.768308
7237.63	0.732499
7220.27	0.732506
7202.91	0.746968
7185.55	0.754348
7168.19	0.764104
7150.83	0.759728
7133.47	0.767401
7116.11	0.773604
7098.75	0.782654
7081.39	0.783307
7064.03	0.793304
7046.67	0.816269
7029.31	0.831227
7011.96	0.842641
6994.6	0.847126
6977.24	0.854687
6959.88	0.854909
6942.52	0.86036
6925.16	0.864461
6907.8	0.866681
6890.44	0.866197
6873.08	0.871805
6855.72	0.871706
6838.36	0.871148
6821	0.872099
6803.64	0.873774
6786.28	0.872678
6768.92	0.875753
6751.56	0.875251
6734.2	0.87343
6716.84	0.874553
6699.48	0.873816
6682.12	0.874261
6664.76	0.870814
6647.4	0.867013
6630.04	0.862007
6612.68	0.849728
6595.32	0.82981
6577.96	0.793218
6560.6	0.788444
6543.24	0.803094
6525.88	0.823036
6508.52	0.828389
6491.16	0.827442
6473.8	0.82677
6456.44	0.827539
6439.08	0.828742
6421.72	0.82372
6404.36	0.806176
6387	0.756732
6369.64	0.660237
6352.28	0.606871
6334.92	0.557423
6317.56	0.454332
6300.2	0.335692
6282.84	0.499938
6265.48	0.630929
6248.12	0.698072
6230.76	0.752357
6213.4	0.784983
6196.04	0.802635
6178.68	0.814077
6161.32	0.820224
6143.97	0.814509
6126.61	0.820465
6109.25	0.817308
6091.89	0.808813
6074.53	0.79233
6057.17	0.766861
6039.81	0.751346
6022.45	0.75025
6005.09	0.754371
5987.73	0.751543
5970.37	0.740758
5953.01	0.728879
5935.65	0.716956
5918.29	0.707527
5900.93	0.701212
5883.57	0.697395
5866.21	0.696364
5848.85	0.68889
5831.49	0.668927
5814.13	0.639191
5796.77	0.567363
5779.41	0.470697
5762.05	0.467657
5744.69	0.467781
5727.33	0.461126
5709.97	0.426016
5692.61	0.398517
5675.25	0.38575
5657.89	0.387265
5640.53	0.390484
5623.17	0.37503
5605.81	0.331326
5588.45	0.245639
5571.09	0.126788
5553.73	0.061642
5536.37	0.0406908
5519.01	0.02996
5501.65	0.0321216
5484.29	0.0337107
5466.93	0.0382397
5449.57	0.0508442
5432.21	0.0663055
5414.85	0.0863573
5397.49	0.106057
5380.13	0.128476
5362.77	0.099876
5345.41	0.208097
5328.05	0.295196
5310.69	0.364867
5293.33	0.426804
5275.97	0.473933
5258.62	0.529648
5241.26	0.567738
5223.9	0.603576
5206.54	0.643874
5189.18	0.684395
5171.82	0.708593
5154.46	0.731424
5137.1	0.743425
5119.74	0.750149
5102.38	0.75358
5085.02	0.753251
5067.66	0.756198
5050.3	0.756574
5032.94	0.723446
5015.58	0.759632
4998.22	0.760512
4980.86	0.756751
4963.5	0.748358
4946.14	0.732239
4928.78	0.710779
4911.42	0.668376
4894.06	0.606712
4876.7	0.526105
4859.34	0.417465
4841.98	0.201716
4824.62	0.148086
4807.26	0.258466
4789.9	0.366557
4772.54	0.446914
4755.18	0.497814
4737.82	0.513656
4720.46	0.547472
4703.1	0.554894
4685.74	0.561356
4668.38	0.549424
4651.02	0.472217
4633.66	0.442263
4616.3	0.418135
4598.94	0.380012
4581.58	0.300546
4564.22	0.0297625
4546.86	0.190911
4529.5	0.334312
4512.14	0.374365
4494.78	0.40348
4477.42	0.412235
4460.06	0.43349
4442.7	0.438527
4425.34	0.44134
4407.98	0.429332
4390.63	0.405239
4373.27	0.378629
4355.91	0.341581
4338.55	0.30662
4321.19	0.272368
4303.83	0.236541
4286.47	0.191156
4269.11	0.168495
4251.75	0.155711
4234.39	0.142343
4217.03	0.13171
4199.67	0.124089
4182.31	0.12032
4164.95	0.121903
4147.59	0.125905
4130.23	0.130274
4112.87	0.132771
4095.51	0.126848
4078.15	0.109083
4060.79	0.0835431
4043.43	0.85743
4026.07	0.856128
4008.71	0.852913
3991.35	0.852693
3973.99	0.847149
3956.63	0.845486
3939.27	0.842572
3921.91	0.835366
3904.55	0.834225
3887.19	0.831425
3869.83	0.82872
3852.47	0.826461
3835.11	0.815892
3817.75	0.799066
3800.39	0.773931
3783.03	0.749624
3765.67	0.759809
3748.31	0.76899
3730.95	0.777186
3713.59	0.779142
3696.23	0.780815
3678.87	0.78591
3661.51	0.793757
3644.15	0.803545
3626.79	0.799293
3609.43	0.815458
3592.07	0.83221
3574.71	0.842344
3557.35	0.850148
3539.99	0.854948
3522.64	0.857587
3505.28	0.86152
3487.92	0.863317
3470.56	0.866228
3453.2	0.8696
3435.84	0.869372
3418.48	0.871547
3401.12	0.871656
3383.76	0.87405
3366.4	0.874177
3349.04	0.874727
3331.68	0.874892
3314.32	0.876339
3296.96	0.876125
3279.6	0.875351
3262.24	0.874614
3244.88	0.875935
3227.52	0.874523
3210.16	0.871912
3192.8	0.868288
3175.44	0.863128
3158.08	0.85243
3140.72	0.828608
3123.36	0.801412
3106	0.80569
3088.64	0.821743
3071.28	0.835281
3053.92	0.836823
3036.56	0.835571
3019.2	0.83557
3001.84	0.836922
2984.48	0.836924
2967.12	0.828939
2949.76	0.805941
2932.4	0.751531
2915.04	0.658567
2897.68	0.631509
2880.32	0.567384
2862.96	0.456904
2845.6	0.391449
2828.24	0.594204
2810.88	0.685421
2793.52	0.739619
2776.16	0.780207
2758.8	0.804416
2741.44	0.816539
2724.08	0.824256
2706.72	0.828331
2689.36	0.822873
2672	0.827264
2654.64	0.822467
2637.29	0.813377
2619.93	0.796774
2602.57	0.775477
2585.21	0.767346
2567.85	0.769418
2550.49	0.769727
2533.13	0.765564
2515.77	0.75561
2498.41	0.744631
2481.05	0.735085
2463.69	0.727421
2446.33	0.722593
2428.97	0.720342
2411.61	0.717758
2394.25	0.707048
2376.89	0.686358
2359.53	0.651204
2342.17	0.568505
2324.81	0.502396
2307.45	0.504595
2290.09	0.510987
2272.73	0.491256
2255.37	0.457567
2238.01	0.433408
2220.65	0.42663
2203.29	0.430323
2185.93	0.428936
2168.57	0.402219
2151.21	0.343062
2133.85	0.243375
2116.49	0.108317
2099.13	0.0650254
2081.77	0.0387724
2064.41	0.0317399
2047.05	0.0345829
2029.69	0.0354201
2012.33	0.0453159
1994.97	0.0625719
1977.61	0.0838054
1960.25	0.108178
1942.89	0.131457
1925.53	0.155212
1908.17	0.102385
1890.81	0.272152
1873.45	0.349167
1856.09	0.415919
1838.73	0.471172
1821.37	0.517881
1804.01	0.566015
1786.65	0.594343
1769.3	0.628206
1751.94	0.67062
1734.58	0.699112
1717.22	0.723668
1699.86	0.738877
1682.5	0.74811
1665.14	0.75341
1647.78	0.755484
1630.42	0.756176
1613.06	0.758846
1595.7	0.75621
1578.34	0.752987
1560.98	0.761263
1543.62	0.761285
1526.26	0.756685
1508.9	0.746983
1491.54	0.73094
1474.18	0.704304
1456.82	0.664523
1439.46	0.60373
1422.1	0.526686
1404.74	0.392248
1387.38	0.187468
1370.02	0.205169
1352.66	0.334263
1335.3	0.429451
1317.94	0.497992
1300.58	0.528521
1283.22	0.555849
1265.86	0.560821
1248.5	0.588839
1231.14	0.570955
1213.78	0.562392
1196.42	0.472421
1179.06	0.472885
1161.7	0.426534
1144.34	0.385595
1126.98	0.232551
1109.62	0.0350968
1092.26	0.300589
1074.9	0.376966
1057.54	0.404853
1040.18	0.42714
1022.82	0.435947
1005.46	0.449694
988.104	0.457915
970.744	0.45227
953.384	0.438242
936.025	0.407649
918.665	0.388975
901.305	0.351581
883.945	0.318915
866.585	0.287089
849.226	0.242579
831.866	0.204774
814.506	0.186941
797.146	0.173724
779.786	0.159627
762.427	0.14936
745.067	0.142648
727.707	0.138837
710.347	0.141113
692.987	0.145213
675.628	0.148115
658.268	0.146301
640.908	0.133304
623.548	0.111595
606.188	0.0807862
