Infrared Spectrum: 2,3,10,11-TETRAHYDROBENZO[b]DIPYRIDO[3,2,1-de:1,2,3-mn]-PHENAZINE-1,12-DIONE
Formula: C22 H16 N2 O2
CAS: 100436-05-3
State: SOLID (KBr PRESSING)
Melting point: 344 C
Class: COBLENTZ
Instrument: Not specified, most likely a prism, grating, or hybrid spectrometer.
Sampling: TRANSMISSION
Resolution: 4
Origin: EASTMAN KODAK COMPANY, RESEARCH LABORATORIES, ROCHESTER, N.Y.
MICROMETERS	TRANSMITTANCE
2.02	0.308
2.05994	0.31
2.09989	0.315
2.13983	0.328
2.17977	0.339
2.21971	0.339
2.25966	0.344
2.2996	0.348
2.33954	0.353
2.37949	0.361
2.41943	0.371
2.45937	0.384
2.49932	0.389
2.53926	0.394
2.5792	0.4
2.61914	0.407
2.65909	0.417
2.69903	0.422
2.73897	0.426
2.77892	0.41
2.81886	0.4
2.8588	0.392
2.89875	0.379
2.93869	0.379
2.97863	0.405
3.01857	0.418
3.05852	0.43
3.09846	0.451
3.1384	0.453
3.17835	0.467
3.21829	0.477
3.25823	0.453
3.29818	0.438
3.33812	0.461
3.37806	0.474
3.418	0.481
3.45795	0.476
3.49789	0.474
3.53783	0.489
3.57778	0.509
3.61772	0.528
3.65766	0.545
3.69761	0.568
3.73755	0.569
3.77749	0.573
3.81743	0.577
3.85738	0.589
3.89732	0.599
3.93726	0.61
3.97721	0.615
4.01715	0.62
4.05709	0.632
4.09703	0.653
4.13698	0.648
4.17692	0.658
4.21686	0.66
4.25681	0.663
4.29675	0.661
4.33669	0.678
4.37664	0.683
4.41658	0.689
4.45652	0.691
4.49646	0.704
4.53641	0.706
4.57635	0.719
4.61629	0.725
4.65624	0.737
4.69618	0.735
4.73612	0.73
4.77607	0.732
4.81601	0.752
4.85595	0.758
4.89589	0.758
4.93584	0.768
4.97578	0.781
5.01572	0.783
5.05567	0.788
5.09561	0.791
5.13555	0.796
5.1755	0.788
5.21544	0.789
5.25538	0.788
5.29532	0.791
5.33527	0.809
5.37521	0.811
5.41515	0.829
5.4551	0.83
5.49504	0.832
5.53498	0.842
5.57493	0.842
5.61487	0.852
5.65481	0.858
5.69475	0.857
5.7347	0.858
5.77464	0.865
5.81458	0.868
5.85453	0.858
5.89447	0.865
5.93441	0.84
5.97435	0.6
6.0143	0.231
6.05424	0.105
6.09418	0.082
6.13413	0.077
6.17407	0.275
6.21401	0.466
6.25396	0.392
6.2939	0.551
6.33384	0.65
6.37378	0.561
6.41373	0.331
6.45367	0.635
6.49361	0.761
6.53356	0.773
6.5735	0.763
6.61344	0.775
6.65339	0.794
6.69333	0.701
6.73327	0.428
6.77321	0.121
6.81316	0.065
6.8531	0.05
6.89304	0.059
6.93299	0.024
6.97293	0.052
7.01287	0.279
7.05282	0.38
7.09276	0.44
7.1327	0.4
7.17264	0.256
7.21259	0.06
7.25253	0.087
7.29247	0.18
7.33242	0.334
7.37236	0.403
7.4123	0.361
7.45225	0.341
7.49219	0.302
7.53213	0.27
7.57207	0.285
7.61202	0.366
7.65196	0.17
7.6919	0.254
7.73185	0.354
7.77179	0.471
7.81173	0.589
7.85168	0.517
7.89162	0.579
7.93156	0.628
7.9715	0.443
8.01145	0.096
8.05139	0.05
8.09133	0.041
8.13128	0.091
8.17122	0.188
8.21116	0.344
8.2511	0.43
8.29105	0.51
8.33099	0.55
8.37093	0.573
8.41088	0.553
8.45082	0.507
8.49076	0.555
8.53071	0.512
8.57065	0.43
8.61059	0.147
8.65053	0.111
8.69048	0.266
8.73042	0.525
8.77036	0.6
8.81031	0.62
8.85025	0.492
8.89019	0.369
8.93014	0.233
8.97008	0.221
9.01002	0.364
9.04996	0.52
9.08991	0.602
9.12985	0.669
9.16979	0.691
9.20974	0.724
9.24968	0.74
9.28962	0.752
9.32957	0.76
9.36951	0.72
9.40945	0.612
9.44939	0.481
9.48934	0.428
9.52928	0.528
9.56922	0.541
9.60917	0.489
9.64911	0.576
9.68905	0.691
9.729	0.724
9.76894	0.671
9.80888	0.655
9.84882	0.688
9.88877	0.742
9.92871	0.717
9.96865	0.576
10.0086	0.61
10.0485	0.725
10.0885	0.781
10.1284	0.798
10.1684	0.801
10.2083	0.793
10.2483	0.798
10.2882	0.804
10.3281	0.817
10.3681	0.825
10.408	0.811
10.448	0.788
10.4879	0.789
10.5279	0.781
10.5678	0.768
10.6077	0.799
10.6477	0.812
10.6876	0.839
10.7276	0.794
10.7675	0.788
10.8075	0.802
10.8474	0.816
10.8873	0.814
10.9273	0.799
10.9672	0.801
11.0072	0.822
11.0471	0.848
11.0871	0.866
11.127	0.878
11.1669	0.893
11.2069	0.901
11.2468	0.894
11.2868	0.85
11.3267	0.711
11.3667	0.72
11.4066	0.794
11.4465	0.848
11.4865	0.852
11.5264	0.865
11.5664	0.866
11.6063	0.868
11.6463	0.893
11.6862	0.888
11.7261	0.891
11.7661	0.888
11.806	0.871
11.846	0.866
11.8859	0.866
11.9259	0.87
11.9658	0.857
12.0057	0.816
12.0457	0.802
12.0856	0.771
12.1256	0.768
12.1655	0.855
12.2055	0.88
12.2454	0.917
12.2853	0.927
12.3253	0.927
12.3652	0.94
12.4052	0.94
12.4451	0.944
12.4851	0.95
12.525	0.952
12.5649	0.95
12.6049	0.932
12.6448	0.903
12.6848	0.839
12.7247	0.745
12.7647	0.771
12.8046	0.809
12.8445	0.748
12.8845	0.669
12.9244	0.638
12.9644	0.632
13.0043	0.614
13.0443	0.561
13.0842	0.538
13.1241	0.502
13.1641	0.5
13.204	0.507
13.244	0.481
13.2839	0.389
13.3239	0.308
13.3638	0.287
13.4037	0.287
13.4437	0.284
13.4836	0.261
13.5236	0.224
13.5635	0.211
13.6035	0.284
13.6434	0.39
13.6834	0.444
13.7233	0.528
13.7632	0.612
13.8032	0.663
13.8431	0.671
13.8831	0.679
13.923	0.699
13.963	0.732
14.0029	0.743
14.0428	0.75
14.0828	0.768
14.1227	0.799
14.1627	0.806
14.2026	0.822
14.2426	0.825
14.2825	0.822
14.3224	0.817
14.3624	0.817
14.4023	0.827
14.4423	0.847
14.4822	0.84
14.5222	0.834
14.5621	0.839
14.602	0.825
14.642	0.801
14.6819	0.804
14.7219	0.812
14.7618	0.827
14.8018	0.834
14.8417	0.832
14.8816	0.817
14.9216	0.786
14.9615	0.775
15.0015	0.776
15.0414	0.796
15.0814	0.817
15.1213	0.83
15.1612	0.837
15.2012	0.821
15.2411	0.832
15.2811	0.822
15.321	0.817
15.361	0.809
15.4009	0.788
15.4408	0.799
15.4808	0.799
15.5207	0.796
15.5607	0.793
15.6006	0.781
15.6406	0.74
15.6805	0.681
15.7204	0.638
15.7604	0.622
15.8003	0.628
15.8403	0.655
15.8802	0.665
15.9202	0.658
15.9601	0.658
16	0.651
