Infrared Spectrum: 4-Methylenecyclohexylmethanol
Formula: C 8 H 14 O
CAS: 1004-24-6
State: gas
Instrument: HP-GC/MS/IRD
Origin: NIST Mass Spectrometry Data Center
1/CM	ABSORBANCE
550	0.0003696
562	0.0003052
574	0.0004872
586	0.0005096
598	0.0003668
610	0.0004004
622	0.000448
634	0.000308
646	0.000378
658	0.000476
670	0.000322
682	0.0001764
694	8.12e-05
706	3.08e-05
718	2.8e-06
730	5.6e-05
742	2.8e-06
754	0.000112
766	0.000168
778	9.8e-05
790	0.0001288
802	0.0002828
814	0.0004844
826	0.0003724
838	0.0003304
850	0.0004424
862	0.0009716
874	0.0026572
886	0.0057148
898	0.0055104
910	0.0025088
922	0.0013692
934	0.0015232
946	0.001792
958	0.0023744
970	0.0031444
982	0.0035
994	0.0047964
1006	0.0051772
1018	0.0059332
1030	0.009212
1042	0.0085064
1054	0.0046172
1066	0.0041076
1078	0.0046424
1090	0.0040292
1102	0.002422
1114	0.0015344
1126	0.0018816
1138	0.0019656
1150	0.0014308
1162	0.0015596
1174	0.001568
1186	0.0018396
1198	0.002548
1210	0.0044968
1222	0.0109032
1234	0.0135604
1246	0.0108556
1258	0.0064932
1270	0.002814
1282	0.0019432
1294	0.0016744
1306	0.001582
1318	0.001512
1330	0.0015008
1342	0.0015708
1354	0.0022764
1366	0.0038388
1378	0.003892
1390	0.002814
1402	0.0017612
1414	0.0013552
1426	0.0017724
1438	0.0029932
1450	0.004004
1462	0.0032984
1474	0.0018228
1486	0.000854
1498	0.0004872
1510	0.0003472
1522	0.0002856
1534	0.0002492
1546	0.0002464
1558	0.0002408
1570	0.0002548
1582	0.0002408
1594	0.0002576
1606	0.000294
1618	0.000476
1630	0.0010556
1642	0.0024444
1654	0.0025452
1666	0.0010472
1678	0.0005936
1690	0.0004592
1702	0.0005236
1714	0.0007644
1726	0.001218
1738	0.002828
1750	0.0078092
1762	0.0070252
1774	0.0022204
1786	0.0013356
1798	0.0008988
1810	0.000448
1822	0.0002912
1834	0.000196
1846	0.0001428
1858	9.52e-05
1870	0.000112
1882	0.0001204
1894	0.0001484
1906	0.0001064
1918	8.68e-05
1930	7.28e-05
1942	5.6e-05
1954	3.92e-05
1966	6.16e-05
1978	7e-05
1990	6.16e-05
2002	7.28e-05
2014	8.12e-05
2026	9.24e-05
2038	9.24e-05
2050	7e-05
2062	8.68e-05
2074	7.56e-05
2086	9.24e-05
2098	8.68e-05
2110	9.8e-05
2122	8.4e-05
2134	6.16e-05
2146	5.88e-05
2158	3.92e-05
2170	3.08e-05
2182	3.08e-05
2194	2.8e-05
2206	3.92e-05
2218	5.88e-05
2230	3.64e-05
2242	5.04e-05
2254	5.6e-05
2266	5.88e-05
2278	5.6e-05
2290	6.44e-05
2302	5.6e-05
2314	4.48e-05
2326	3.92e-05
2338	3.64e-05
2350	4.48e-05
2362	6.44e-05
2374	2.8e-05
2386	5.32e-05
2398	3.36e-05
2410	2.24e-05
2422	4.76e-05
2434	5.04e-05
2446	7.84e-05
2458	5.6e-05
2470	6.44e-05
2482	1.4e-05
2494	3.92e-05
2506	1.68e-05
2518	2.8e-06
2530	5.04e-05
2542	5.04e-05
2554	5.32e-05
2566	1.96e-05
2578	8.4e-05
2590	7.28e-05
2602	8.96e-05
2614	0.0001316
2626	0.0001736
2638	0.0002212
2650	0.0002856
2662	0.0003024
2674	0.0002912
2686	0.000308
2698	0.0003192
2710	0.0003976
2722	0.0004312
2734	0.0004704
2746	0.0005404
2758	0.0005908
2770	0.0006496
2782	0.000742
2794	0.0008456
2806	0.0009912
2818	0.0013804
2830	0.00252
2842	0.0051436
2854	0.009002
2866	0.0116116
2878	0.0112532
2890	0.0098588
2902	0.011004
2914	0.0160076
2926	0.024878
2938	0.027706
2950	0.0210448
2962	0.0118076
2974	0.0049924
2986	0.003318
2998	0.0022848
3010	0.0009268
3022	0.0006188
3034	0.0005796
3046	0.0007168
3058	0.001246
3070	0.002464
3082	0.0024416
3094	0.001134
3106	0.0003892
3118	0.000224
3130	0.0001624
3142	0.0001176
3154	7.28e-05
3166	4.76e-05
3178	7.56e-05
3190	6.44e-05
3202	4.2e-05
3214	5.04e-05
3226	5.88e-05
3238	0
3250	1.12e-05
3262	3.92e-05
3274	4.76e-05
3286	7e-05
3298	4.76e-05
3310	6.44e-05
3322	0.0001456
3334	7.56e-05
3346	0.0001344
3358	0.0001204
3370	0.0001512
3382	0.0001652
3394	0.000126
3406	0.0001176
3418	0.0001596
3430	0.0001456
3442	0.0001484
3454	0.0001764
3466	0.00021
3478	0.0002548
3490	0.0003136
3502	0.0002772
3514	0.000252
3526	0.0001596
3538	0.0002212
3550	0.0001904
3562	0.0002296
3574	0.0002324
3586	0.0002576
3598	0.0002436
3610	0.0002688
3622	0.0003388
3634	0.0004368
3646	0.0007616
3658	0.0015708
3670	0.002142
3682	0.0015792
3694	0.0006888
3706	0.000392
3718	0.000308
3730	0.0002856
3742	0.0002492
3754	0.0002996
3766	0.0003024
3778	0.0002912
3790	0.0002688
3802	0.0003248
3814	0.0003388
3826	0.0003248
3838	0.0003444
