Infrared Spectrum: Uracil, 6-amino-2-thio-
Formula: C4 H5 N3 O S
CAS: 1004-40-6
State: SOLID (0.75 mg / 650 mg KBr DISC)
Class: COBLENTZ III
Instrument: PERKIN-ELMER 21 (GRATING)
Instrument parameters: FILTER CHANGE ABOUT 1070 CM^-^1
Resolution: 2
Origin: SOUTHERN RESEARCH INSTITUTE
1/CM	TRANSMITTANCE
640.42	0.6858
648.449	0.6912
656.479	0.6884
664.508	0.6731
672.537	0.6487
680.567	0.6359
688.596	0.6291
696.625	0.6306
704.655	0.6408
712.684	0.6802
720.713	0.7051
728.743	0.7131
736.772	0.7122
744.801	0.7045
752.831	0.689
760.86	0.6646
768.889	0.6207
776.919	0.5299
784.948	0.3991
792.977	0.29
801.007	0.5006
809.036	0.5708
817.065	0.5526
825.095	0.5216
833.124	0.5202
841.153	0.5549
849.183	0.6241
857.212	0.6426
865.241	0.6416
873.271	0.6326
881.3	0.622
889.329	0.6078
897.359	0.5896
905.388	0.565
913.417	0.5303
921.447	0.5062
929.476	0.5176
937.505	0.573
945.535	0.5874
953.564	0.6196
961.593	0.6767
969.623	0.6753
977.652	0.6679
985.681	0.6531
993.711	0.6203
1001.74	0.5977
1009.77	0.6142
1017.8	0.6642
1025.83	0.6538
1033.86	0.6392
1041.89	0.6244
1049.92	0.6098
1057.95	0.5961
1065.97	0.5827
1074	0.5195
1082.03	0.5787
1090.06	0.5851
1098.09	0.5825
1106.12	0.5763
1114.15	0.565
1122.18	0.55
1130.21	0.5329
1138.24	0.5085
1146.27	0.4757
1154.3	0.4284
1162.33	0.3667
1170.36	0.2966
1178.39	0.1619
1186.41	0.097
1194.44	0.1375
1202.47	0.3012
1210.5	0.5567
1218.53	0.6002
1226.56	0.5941
1234.59	0.5425
1242.62	0.4539
1250.65	0.3578
1258.68	0.5621
1266.71	0.6218
1274.74	0.5986
1282.77	0.5528
1290.8	0.4547
1298.83	0.2661
1306.85	0.4424
1314.88	0.6936
1322.91	0.6889
1330.94	0.6605
1338.97	0.6347
1347	0.6119
1355.03	0.593
1363.06	0.5724
1371.09	0.5477
1379.12	0.5142
1387.15	0.4723
1395.18	0.4202
1403.21	0.3737
1411.24	0.4006
1419.27	0.4032
1427.29	0.356
1435.32	0.2735
1443.35	0.2074
1451.38	0.2997
1459.41	0.4104
1467.44	0.468
1475.47	0.4688
1483.5	0.4542
1491.53	0.4273
1499.56	0.3992
1507.59	0.3574
1515.62	0.2912
1523.65	0.2151
1531.68	0.1673
1539.71	0.0979
1547.73	0.0794
1555.76	0.0961
1563.79	0.1393
1571.82	0.1622
1579.85	0.1531
1587.88	0.115
1595.91	0.0927
1603.94	0.1088
1611.97	0.0951
1620	0.0461
1628.03	0.0434
1636.06	0.0553
1644.09	0.0755
1652.12	0.0903
1660.15	0.1146
1668.17	0.1912
1676.2	0.2504
1684.23	0.3571
1692.26	0.4716
1700.29	0.5456
1708.32	0.6065
1716.35	0.6441
1724.38	0.689
1732.41	0.7321
1740.44	0.7675
1748.47	0.793
1756.5	0.8104
1764.53	0.8311
1772.56	0.8574
1780.59	0.8789
1788.61	0.9018
1796.64	0.9154
1804.67	0.9185
1812.7	0.9287
1820.73	0.9494
1828.76	0.9599
1836.79	0.9635
1844.82	0.9715
1852.85	0.9783
1860.88	0.9782
1868.91	0.9711
1876.94	0.9584
1884.97	0.9573
1893	0.9653
1901.03	0.9722
1909.05	0.9688
1917.08	0.9602
1925.11	0.9513
1933.14	0.942
1941.17	0.9327
1949.2	0.9295
1957.23	0.9292
1965.26	0.9272
1973.29	0.9219
1981.32	0.9146
1989.35	0.9057
1997.38	0.8955
2005.41	0.8884
2013.44	0.8851
2021.47	0.8838
2029.49	0.8818
2037.52	0.8776
2045.55	0.8735
2053.58	0.8694
2061.61	0.8653
2069.64	0.8611
2077.67	0.8565
2085.7	0.8518
2093.73	0.8463
2101.76	0.8408
2109.79	0.8353
2117.82	0.8298
2125.85	0.8248
2133.88	0.8197
2141.91	0.8146
2149.93	0.8099
2157.96	0.8053
2165.99	0.8011
2174.02	0.7987
2182.05	0.7977
2190.08	0.7969
2198.11	0.795
2206.14	0.7931
2214.17	0.7898
2222.2	0.7864
2230.23	0.7828
2238.26	0.7789
2246.29	0.775
2254.32	0.7709
2262.35	0.7666
2270.38	0.7624
2278.4	0.7581
2286.43	0.7538
2294.46	0.7494
2302.49	0.7451
2310.52	0.7401
2318.55	0.7347
2326.58	0.7317
2334.61	0.73
2342.64	0.7285
2350.67	0.7279
2358.7	0.7272
2366.73	0.7265
2374.76	0.7234
2382.79	0.7196
2390.82	0.7149
2398.84	0.7102
2406.87	0.7054
2414.9	0.7006
2422.93	0.6958
2430.96	0.6914
2438.99	0.6872
2447.02	0.6829
2455.05	0.6786
2463.08	0.6742
2471.11	0.6699
2479.14	0.6651
2487.17	0.6587
2495.2	0.6523
2503.23	0.6445
2511.26	0.637
2519.28	0.6297
2527.31	0.6241
2535.34	0.6194
2543.37	0.6173
2551.4	0.616
2559.43	0.6149
2567.46	0.6133
2575.49	0.6088
2583.52	0.6017
2591.55	0.5946
2599.58	0.5902
2607.61	0.5883
2615.64	0.5867
2623.67	0.5834
2631.7	0.5777
2639.72	0.5706
2647.75	0.5625
2655.78	0.5534
2663.81	0.5444
2671.84	0.5353
2679.87	0.5261
2687.9	0.5169
2695.93	0.5077
2703.96	0.4985
2711.99	0.4892
2720.02	0.48
2728.05	0.4709
2736.08	0.4618
2744.11	0.4535
2752.14	0.4454
2760.16	0.4423
2768.19	0.4329
2776.22	0.4188
2784.25	0.4053
2792.28	0.392
2800.31	0.3786
2808.34	0.3653
2816.37	0.3528
2824.4	0.342
2832.43	0.3311
2840.46	0.3179
2848.49	0.3045
2856.52	0.2922
2864.55	0.2865
2872.58	0.2869
2880.6	0.2896
2888.63	0.294
2896.66	0.3014
2904.69	0.3064
2912.72	0.3045
2920.75	0.2999
2928.78	0.2984
2936.81	0.3009
2944.84	0.3055
2952.87	0.3092
2960.9	0.3104
2968.93	0.3113
2976.96	0.3107
2984.99	0.3098
2993.02	0.3082
3001.04	0.3061
3009.07	0.3029
3017.1	0.2994
3025.13	0.2939
3033.16	0.2883
3041.19	0.2825
3049.22	0.278
3057.25	0.2766
3065.28	0.2787
3073.31	0.2817
3081.34	0.286
3089.37	0.2923
3097.4	0.3021
3105.43	0.3152
3113.46	0.3217
3121.48	0.3233
3129.51	0.3231
3137.54	0.3226
3145.57	0.3221
3153.6	0.3218
3161.63	0.325
3169.66	0.3337
3177.69	0.3428
3185.72	0.3473
3193.75	0.3484
3201.78	0.3462
3209.81	0.3462
3217.84	0.3414
3225.87	0.334
3233.9	0.3235
3241.92	0.3107
3249.95	0.2951
3257.98	0.275
3266.01	0.2581
3274.04	0.2554
3282.07	0.2609
3290.1	0.2724
3298.13	0.2883
3306.16	0.3067
3314.19	0.3256
3322.22	0.3471
3330.25	0.3672
3338.28	0.3721
3346.31	0.3675
3354.34	0.3582
3362.36	0.343
3370.39	0.3231
3378.42	0.2998
3386.45	0.2764
3394.48	0.2806
3402.51	0.3001
3410.54	0.3766
3418.57	0.4133
3426.6	0.4439
3434.63	0.4742
3442.66	0.5067
3450.69	0.5439
3458.72	0.5778
3466.75	0.607
3474.78	0.6338
3482.8	0.6571
3490.83	0.6765
3498.86	0.6943
3506.89	0.7117
3514.92	0.7272
3522.95	0.7391
3530.98	0.7491
3539.01	0.7569
3547.04	0.7636
3555.07	0.7697
3563.1	0.7756
3571.13	0.7814
3579.16	0.7856
3587.19	0.7895
3595.22	0.792
3603.24	0.793
3611.27	0.7917
3619.3	0.7903
3627.33	0.7887
3635.36	0.7871
3643.39	0.7854
3651.42	0.7836
3659.45	0.7818
3667.48	0.78
3675.51	0.7761
3683.54	0.7721
3691.57	0.7681
3699.6	0.7639
3707.63	0.7598
3715.66	0.7561
3723.68	0.7538
3731.71	0.7515
3739.74	0.75
3747.77	0.7485
3755.8	0.7467
3763.83	0.7446
3771.86	0.7415
3779.89	0.7377
3787.92	0.7345
3795.95	0.7308
3803.98	0.7279
