Infrared Spectrum: PYRIMIDINE, 4-AMINO-6-CHLORO-2-(METHYLTHIO)-
Formula: C5 H6 Cl N3 S
CAS: 1005-38-5
State: SOLID (0.6 mg / 650 KBr DISC)
Class: COBLENTZ III
Instrument: PERKIN-ELMER 21 (GRATING)
Instrument parameters: FILTER CHANGE AT ABOUT 1090 CM^-^1.
Sampling: TRANSMISSION
Resolution: 2
Origin: SOUTHERN RESEARCH INSTITUTE
1/CM	TRANSMITTANCE
603.652	0.768
612.105	0.7671
620.558	0.7631
629.01	0.7552
637.463	0.7425
645.916	0.7114
654.369	0.6588
662.822	0.539
671.275	0.6854
679.727	0.708
688.18	0.694
696.633	0.6833
705.086	0.6624
713.539	0.6307
721.991	0.6314
730.444	0.646
738.897	0.67
747.35	0.6669
755.803	0.6272
764.256	0.5415
772.708	0.459
781.161	0.5948
789.614	0.61
798.067	0.5949
806.52	0.5429
814.972	0.4581
823.425	0.2709
831.878	0.1856
840.331	0.2613
848.784	0.5716
857.237	0.5864
865.689	0.5885
874.142	0.6103
882.595	0.6753
891.048	0.681
899.501	0.674
907.953	0.6592
916.406	0.6473
924.859	0.6403
933.312	0.6314
941.765	0.6096
950.218	0.5852
958.67	0.5402
967.123	0.4949
975.576	0.4485
984.029	0.3945
992.482	0.2726
1000.93	0.4797
1009.39	0.6332
1017.84	0.5963
1026.29	0.5725
1034.75	0.5497
1043.2	0.5349
1051.65	0.529
1060.1	0.5031
1068.56	0.4882
1077.01	0.4712
1085.46	0.461
1093.92	0.4827
1102.37	0.472
1110.82	0.4116
1119.27	0.1735
1127.73	0.348
1136.18	0.5573
1144.63	0.562
1153.09	0.5547
1161.54	0.531
1169.99	0.5216
1178.44	0.5107
1186.9	0.5029
1195.35	0.4939
1203.8	0.472
1212.25	0.4612
1220.71	0.4248
1229.16	0.4003
1237.61	0.3547
1246.07	0.2862
1254.52	0.2203
1262.97	0.1704
1271.42	0.1544
1279.88	0.1525
1288.33	0.1618
1296.78	0.2026
1305.24	0.4664
1313.69	0.4795
1322.14	0.3306
1330.59	0.4231
1339.05	0.4644
1347.5	0.3988
1355.95	0.3154
1364.41	0.1222
1372.86	0.1425
1381.31	0.2118
1389.76	0.3962
1398.22	0.4874
1406.67	0.4968
1415.12	0.4734
1423.58	0.436
1432.03	0.4225
1440.48	0.4426
1448.93	0.4443
1457.39	0.4284
1465.84	0.3829
1474.29	0.3139
1482.75	0.2997
1491.2	0.377
1499.65	0.349
1508.1	0.3016
1516.56	0.2081
1525.01	0.1045
1533.46	0.0342
1541.91	0.0679
1550.37	0.1193
1558.82	0.0852
1567.27	0.021
1575.73	0.0385
1584.18	0.1043
1592.63	0.2115
1601.08	0.3628
1609.54	0.4223
1617.99	0.4025
1626.44	0.3348
1634.9	0.2572
1643.35	0.1259
1651.8	0.1129
1660.25	0.2297
1668.71	0.3886
1677.16	0.5116
1685.61	0.6182
1694.07	0.6617
1702.52	0.7122
1710.97	0.7503
1719.42	0.7887
1727.88	0.8055
1736.33	0.8154
1744.78	0.8197
1753.24	0.8353
1761.69	0.8348
1770.14	0.831
1778.59	0.8353
1787.05	0.8341
1795.5	0.83
1803.95	0.829
1812.4	0.828
1820.86	0.8233
1829.31	0.823
1837.76	0.8213
1846.22	0.819
1854.67	0.815
1863.12	0.8124
1871.57	0.811
1880.03	0.8081
1888.48	0.8036
1896.93	0.7997
1905.39	0.7934
1913.84	0.7781
1922.29	0.772
1930.74	0.7751
1939.2	0.7788
1947.65	0.775
1956.1	0.7759
1964.56	0.7722
1973.01	0.772
1981.46	0.77
1989.91	0.767
1998.37	0.766
2006.82	0.7684
2015.27	0.764
2023.73	0.7664
2032.18	0.764
2040.63	0.756
2049.08	0.7514
2057.54	0.747
2065.99	0.7476
2074.44	0.7444
2082.9	0.738
2091.35	0.7354
2099.8	0.7304
2108.25	0.7264
2116.71	0.725
2125.16	0.731
2133.61	0.731
2142.06	0.7234
2150.52	0.717
2158.97	0.712
2167.42	0.7064
2175.88	0.702
2184.33	0.705
2192.78	0.7076
2201.23	0.707
2209.69	0.707
2218.14	0.7027
2226.59	0.698
2235.05	0.7
2243.5	0.704
2251.95	0.706
2260.4	0.706
2268.86	0.7064
2277.31	0.706
2285.76	0.705
2294.22	0.702
2302.67	0.7
2311.12	0.699
2319.57	0.6967
2328.03	0.695
2336.48	0.694
2344.93	0.692
2353.39	0.69
2361.84	0.688
2370.29	0.687
2378.74	0.6847
2387.2	0.683
2395.65	0.683
2404.1	0.684
2412.55	0.684
2421.01	0.6836
2429.46	0.684
2437.91	0.6687
2446.37	0.6644
2454.82	0.664
2463.27	0.6597
2471.72	0.6586
2480.18	0.6564
2488.63	0.656
2497.08	0.655
2505.54	0.6524
2513.99	0.647
2522.44	0.647
2530.89	0.65
2539.35	0.652
2547.8	0.6514
2556.25	0.644
2564.71	0.646
2573.16	0.644
2581.61	0.6384
2590.06	0.6327
2598.52	0.628
2606.97	0.631
2615.42	0.6304
2623.88	0.624
2632.33	0.619
2640.78	0.6154
2649.23	0.6077
2657.69	0.602
2666.14	0.6
2674.59	0.5994
2683.05	0.5944
2691.5	0.5934
2699.95	0.5834
2708.4	0.5731
2716.86	0.564
2725.31	0.5679
2733.76	0.572
2742.21	0.5826
2750.67	0.596
2759.12	0.595
2767.57	0.5904
2776.03	0.5844
2784.48	0.582
2792.93	0.5757
2801.38	0.565
2809.84	0.559
2818.29	0.558
2826.74	0.556
2835.2	0.5524
2843.65	0.541
2852.1	0.5356
2860.55	0.534
2869.01	0.532
2877.46	0.532
2885.91	0.5267
2894.37	0.5077
2902.82	0.4944
2911.27	0.4824
2919.72	0.4724
2928.18	0.477
2936.63	0.4906
2945.08	0.4884
2953.54	0.485
2961.99	0.4734
2970.44	0.472
2978.89	0.4641
2987.35	0.4497
2995.8	0.4407
3004.25	0.4284
3012.7	0.4187
3021.16	0.411
3029.61	0.4084
3038.06	0.4024
3046.52	0.3967
3054.97	0.3857
3063.42	0.3691
3071.87	0.36
3080.33	0.349
3088.78	0.3441
3097.23	0.3134
3105.69	0.2888
3114.14	0.2591
3122.59	0.2094
3131.04	0.1817
3139.5	0.1776
3147.95	0.1999
3156.4	0.2279
3164.86	0.2506
3173.31	0.2726
3181.76	0.2989
3190.21	0.3329
3198.67	0.3546
3207.12	0.366
3215.57	0.3796
3224.03	0.3856
3232.48	0.3956
3240.93	0.4026
3249.38	0.404
3257.84	0.403
3266.29	0.3917
3274.74	0.3584
3283.2	0.3291
3291.65	0.3074
3300.1	0.2701
3308.55	0.2442
3317.01	0.2127
3325.46	0.2066
3333.91	0.223
3342.36	0.2223
3350.82	0.225
3359.27	0.2283
3367.72	0.2376
3376.18	0.2646
3384.63	0.2989
3393.08	0.3419
3401.53	0.3683
3409.99	0.3829
3418.44	0.4026
3426.89	0.4146
3435.35	0.4329
3443.8	0.4416
3452.25	0.451
3460.7	0.455
3469.16	0.4686
3477.61	0.4843
3486.06	0.4933
3494.52	0.4993
3502.97	0.5103
3511.42	0.5226
3519.87	0.527
3528.33	0.529
3536.78	0.5356
3545.23	0.5396
3553.69	0.5476
3562.14	0.552
3570.59	0.5619
3579.04	0.571
3587.5	0.575
3595.95	0.5846
3604.4	0.5906
3612.86	0.599
3621.31	0.6026
3629.76	0.606
3638.21	0.6156
3646.67	0.625
3655.12	0.6244
3663.57	0.619
3672.02	0.615
3680.48	0.6196
3688.93	0.6293
3697.38	0.6366
3705.84	0.6364
3714.29	0.636
3722.74	0.636
3731.19	0.636
3739.65	0.633
3748.1	0.6304
3756.55	0.6304
3765.01	0.628
3773.46	0.628
3781.91	0.631
3790.36	0.632
3798.82	0.6281
3807.27	0.618
