Infrared Spectrum: O-NITRO CARBANILIC ACID, FARNESOL ESTER
Formula: C22 H30 N2 O4
CAS: 100576-25-8
Class: COBLENTZ
Instrument: Not specified, most likely a grating spectrometer.
Sampling: TRANSMISSION
Path length: CAPILLARY
Resolution: 4
Origin: CITRUS EXPERIMENT STATION, UNIVERSITY OF FLORIDA (G. EDWARDS)
MICROMETERS	TRANSMITTANCE
2.053	0.918
2.08622	0.916
2.11945	0.914
2.15267	0.91
2.18589	0.905
2.21912	0.889
2.25234	0.88
2.28556	0.881
2.31879	0.886
2.35201	0.894
2.38523	0.9
2.41846	0.897
2.45168	0.9
2.4849	0.898
2.51812	0.906
2.55135	0.912
2.58457	0.913
2.61779	0.914
2.65102	0.914
2.68424	0.91
2.71746	0.912
2.75069	0.909
2.78391	0.904
2.81713	0.9
2.85036	0.878
2.88358	0.852
2.9168	0.739
2.95003	0.326
2.98325	0.56
3.01647	0.816
3.0497	0.872
3.08292	0.881
3.11614	0.874
3.14937	0.848
3.18259	0.797
3.21581	0.773
3.24903	0.727
3.28226	0.659
3.31548	0.459
3.3487	0.202
3.38193	0.125
3.41515	0.21
3.44837	0.288
3.4816	0.315
3.51482	0.621
3.54804	0.785
3.58127	0.822
3.61449	0.824
3.64771	0.845
3.68094	0.869
3.71416	0.866
3.74738	0.869
3.78061	0.87
3.81383	0.869
3.84705	0.869
3.88028	0.881
3.9135	0.884
3.94672	0.889
3.97994	0.888
4.01317	0.877
4.04639	0.885
4.07961	0.878
4.11284	0.87
4.14606	0.878
4.17928	0.88
4.21251	0.886
4.24573	0.89
4.27895	0.892
4.31218	0.898
4.3454	0.896
4.37862	0.896
4.41185	0.892
4.44507	0.872
4.47829	0.876
4.51152	0.886
4.54474	0.89
4.57796	0.893
4.61119	0.893
4.64441	0.892
4.67763	0.889
4.71085	0.9
4.74408	0.901
4.7773	0.905
4.81052	0.901
4.84375	0.9
4.87697	0.9
4.91019	0.898
4.94342	0.897
4.97664	0.896
5.00986	0.888
5.04309	0.874
5.07631	0.873
5.10953	0.873
5.14276	0.872
5.17598	0.88
5.2092	0.884
5.24243	0.885
5.27565	0.886
5.30887	0.876
5.3421	0.862
5.37532	0.85
5.40854	0.832
5.44177	0.81
5.47499	0.782
5.50821	0.792
5.54143	0.788
5.57466	0.754
5.60788	0.685
5.6411	0.559
5.67433	0.215
5.70755	0.022
5.74077	0.085
5.774	0.27
5.80722	0.579
5.84044	0.647
5.87367	0.708
5.90689	0.703
5.94011	0.657
5.97334	0.565
6.00656	0.601
6.03978	0.665
6.07301	0.659
6.10623	0.583
6.13945	0.459
6.17268	0.134
6.2059	0.09
6.23912	0.352
6.27234	0.154
6.30557	0.03
6.33879	0.458
6.37201	0.564
6.40524	0.448
6.43846	0.344
6.47168	0.327
6.50491	0.207
6.53813	0.053
6.57135	0
6.60458	0
6.6378	0.018
6.67102	0.086
6.70425	0.299
6.73747	0.368
6.77069	0.287
6.80392	0.158
6.83714	0.025
6.87036	0.033
6.90359	0.021
6.93681	0.007
6.97003	0.031
7.00325	0.082
7.03648	0.214
7.0697	0.274
7.10292	0.352
7.13615	0.355
7.16937	0.332
7.20259	0.227
7.23582	0.199
7.26904	0.294
7.30226	0.359
7.33549	0.308
7.36871	0.169
7.40193	0.061
7.43516	0
7.46838	0.033
7.5016	0.133
7.53483	0.243
7.56805	0.134
7.60127	0.194
7.6345	0.231
7.66772	0.243
7.70094	0.225
7.73416	0.17
7.76739	0.099
7.80061	0.049
7.83383	0.051
7.86706	0.085
7.90028	0.143
7.9335	0.225
7.96673	0.194
7.99995	0.111
8.03317	0.009
8.0664	0
8.09962	0.018
8.13284	0.099
8.16607	0.214
8.19929	0.202
8.23251	0.149
8.26574	0.055
8.29896	0
8.33218	0
8.36541	0
8.39863	0.031
8.43185	0.159
8.46508	0.315
8.4983	0.41
8.53152	0.419
8.56474	0.298
8.59797	0.178
8.63119	0.246
8.66441	0.344
8.69764	0.219
8.73086	0.311
8.76408	0.547
8.79731	0.619
8.83053	0.659
8.86375	0.667
8.89698	0.651
8.9302	0.6
8.96342	0.521
8.99665	0.471
9.02987	0.447
9.06309	0.467
9.09632	0.503
9.12954	0.498
9.16276	0.408
9.19599	0.267
9.22921	0.245
9.26243	0.395
9.29565	0.498
9.32888	0.553
9.3621	0.568
9.39532	0.545
9.42855	0.475
9.46177	0.336
9.49499	0.225
9.52822	0.169
9.56144	0.145
9.59466	0.11
9.62789	0.111
9.66111	0.122
9.69433	0.159
9.72756	0.225
9.76078	0.29
9.794	0.374
9.82723	0.467
9.86045	0.548
9.89367	0.588
9.9269	0.619
9.96012	0.628
9.99334	0.621
10.0266	0.595
10.0598	0.561
10.093	0.523
10.1262	0.492
10.1595	0.468
10.1927	0.463
10.2259	0.47
10.2591	0.475
10.2924	0.475
10.3256	0.472
10.3588	0.463
10.392	0.45
10.4252	0.447
10.4585	0.452
10.4917	0.486
10.5249	0.541
10.5581	0.567
10.5914	0.568
10.6246	0.537
10.6578	0.5
10.691	0.458
10.7243	0.462
10.7575	0.512
10.7907	0.564
10.8239	0.621
10.8571	0.664
10.8904	0.701
10.9236	0.724
10.9568	0.75
10.99	0.776
11.0233	0.789
11.0565	0.794
11.0897	0.796
11.1229	0.788
11.1562	0.781
11.1894	0.77
11.2226	0.76
11.2558	0.747
11.289	0.744
11.3223	0.74
11.3555	0.732
11.3887	0.712
11.4219	0.669
11.4552	0.619
11.4884	0.533
11.5216	0.419
11.5548	0.286
11.5881	0.278
11.6213	0.403
11.6545	0.463
11.6877	0.475
11.7209	0.474
11.7542	0.474
11.7874	0.478
11.8206	0.483
11.8538	0.483
11.8871	0.483
11.9203	0.48
11.9535	0.482
11.9867	0.483
12.02	0.484
12.0532	0.494
12.0864	0.513
12.1196	0.535
12.1528	0.551
12.1861	0.575
12.2193	0.592
12.2525	0.609
12.2857	0.621
12.319	0.632
12.3522	0.639
12.3854	0.647
12.4186	0.651
12.4519	0.652
12.4851	0.652
12.5183	0.652
12.5515	0.648
12.5848	0.64
12.618	0.608
12.6512	0.564
12.6844	0.505
12.7176	0.399
12.7509	0.318
12.7841	0.246
12.8173	0.272
12.8505	0.384
12.8838	0.484
12.917	0.539
12.9502	0.528
12.9834	0.475
13.0167	0.386
13.0499	0.32
13.0831	0.322
13.1163	0.376
13.1495	0.432
13.1828	0.49
13.216	0.541
13.2492	0.553
13.2824	0.548
13.3157	0.503
13.3489	0.426
13.3821	0.307
13.4153	0.175
13.4486	0.099
13.4818	0.069
13.515	0.081
13.5482	0.109
13.5814	0.197
13.6147	0.291
13.6479	0.375
13.6811	0.422
13.7143	0.47
13.7476	0.511
13.7808	0.545
13.814	0.569
13.8472	0.597
13.8805	0.616
13.9137	0.637
13.9469	0.648
13.9801	0.652
14.0133	0.659
14.0466	0.657
14.0798	0.652
14.113	0.648
14.1462	0.641
14.1795	0.632
14.2127	0.628
14.2459	0.619
14.2791	0.601
14.3124	0.589
14.3456	0.577
14.3788	0.556
14.412	0.528
14.4452	0.498
14.4785	0.45
14.5117	0.415
14.5449	0.399
14.5781	0.403
14.6114	0.408
14.6446	0.402
14.6778	0.395
14.711	0.382
14.7443	0.376
14.7775	0.379
14.8107	0.384
14.8439	0.398
14.8772	0.403
14.9104	0.407
14.9436	0.407
14.9768	0.408
15.01	0.41
15.0433	0.414
