Infrared Spectrum: 4-Ethyl-2,6,7-trioxa-1-phosphabicyclo[2.2.2]octane-1-oxide
Formula: C 6 H 11 O 4 P
CAS: 1005-93-2
State: gas
Origin: EPA-IR VAPOR PHASE LIBRARY
1/CM	ABSORBANCE
549.8	0.0007329
559.445	0.0006047
569.09	0.0002625
578.734	0.0006346
588.379	0.00034907
598.024	0.0007427
607.669	0.002119
617.313	0.011759
626.958	0.017099
636.603	0.006989
646.248	0.0013081
655.893	0.0009577
665.537	0.0007932
675.182	0.0007008
684.827	0.0007026
694.472	0.0005724
704.116	0.0004456
713.761	0.000446
723.406	0.0004513
733.051	0.0010416
742.695	0.0010175
752.34	0.0012706
761.985	0.001399
771.63	0.001919
781.275	0.002049
790.919	0.002149
800.564	0.002609
810.209	0.004589
819.854	0.013709
829.498	0.074139
839.143	0.230249
848.788	0.197409
858.433	0.049499
868.078	0.012459
877.722	0.006839
887.367	0.004679
897.012	0.003769
906.657	0.003719
916.301	0.004169
925.946	0.005339
935.591	0.010469
945.236	0.023769
954.88	0.031979
964.525	0.028759
974.17	0.026109
983.815	0.032559
993.46	0.047239
1003.1	0.041579
1012.75	0.018989
1022.39	0.009209
1032.04	0.009059
1041.68	0.016539
1051.33	0.052739
1060.97	0.124669
1070.62	0.132509
1080.26	0.055839
1089.91	0.014419
1099.55	0.008269
1109.2	0.008219
1118.84	0.007769
1128.49	0.006919
1138.13	0.007879
1147.78	0.015809
1157.42	0.030559
1167.07	0.032409
1176.71	0.019189
1186.36	0.016279
1196	0.010109
1205.64	0.004509
1215.29	0.002629
1224.93	0.002779
1234.58	0.003019
1244.22	0.003009
1253.87	0.003159
1263.51	0.003659
1273.16	0.004629
1282.8	0.004509
1292.45	0.004899
1302.09	0.006689
1311.74	0.006649
1321.38	0.007229
1331.03	0.011899
1340.67	0.021829
1350.32	0.047319
1359.96	0.183719
1369.61	0.239529
1379.25	0.103219
1388.9	0.047149
1398.54	0.028389
1408.18	0.005819
1417.83	0.002559
1427.47	0.002159
1437.12	0.002709
1446.76	0.004369
1456.41	0.008139
1466.05	0.011909
1475.7	0.010879
1485.34	0.008099
1494.99	0.006459
1504.63	0.003999
1514.28	0.002339
1523.92	0.001389
1533.57	0.0010626
1543.21	0.0011218
1552.86	0.0009919
1562.5	0.0007892
1572.15	0.0008924
1581.79	0.0010905
1591.44	0.001589
1601.08	0.001499
1610.73	0.0007474
1620.37	0.0005047
1630.01	0.0005281
1639.66	0.0006292
1649.3	0.0006938
1658.95	0.0009614
1668.59	0.001639
1678.24	0.002449
1687.88	0.002139
1697.53	0.0012468
1707.17	0.000757
1716.82	0.0006165
1726.46	0.0006397
1736.11	0.0005752
1745.75	0.0007371
1755.4	0.0007309
1765.04	0.0005854
1774.69	0.000602
1784.33	0.0007238
1793.98	0.0008506
1803.62	0.0013182
1813.27	0.001949
1822.91	0.002799
1832.55	0.003269
1842.2	0.003019
1851.84	0.001849
1861.49	0.0009908
1871.13	0.000647
1880.78	0.0006567
1890.42	0.0009592
1900.07	0.001349
1909.71	0.001589
1919.36	0.0011418
1929	0.0008224
1938.65	0.0007836
1948.29	0.0008329
1957.94	0.000897
1967.58	0.000919
1977.23	0.000878
1986.87	0.0009026
1996.52	0.0009174
2006.16	0.0008956
2015.81	0.0008106
2025.45	0.00069
2035.1	0.0005901
2044.74	0.0004691
2054.38	0.000452
2064.03	0.0004753
2073.67	0.00038219
2083.32	0.00041897
2092.96	0.0004759
2102.61	0.0005979
2112.25	0.0007545
2121.9	0.0010343
2131.54	0.0009343
2141.19	0.0007695
2150.83	0.0006401
2160.48	0.0004533
2170.12	0.0004787
2179.77	0.0005783
2189.41	0.0005911
2199.06	0.0005522
2208.7	0.0004737
2218.35	0.00041427
2227.99	0.0004576
2237.64	0.00039906
2247.28	0.00037357
2256.92	0.0002947
2266.57	0.00034109
2276.21	0.000343879
2285.86	0.00033509
2295.5	0.0004269
2305.15	0.00042479
2314.79	0.0004543
2324.44	0.00042495
2334.08	0.00039799
2343.73	0.0004559
2353.37	0.000343707
2363.02	0.0002685
2372.66	0.0003336
2382.31	0.0003218
2391.95	0.00037513
2401.6	0.00039363
2411.24	0.000498
2420.89	0.0005086
2430.53	0.0004556
2440.18	0.0004919
2449.82	0.00043022
2459.47	0.00040575
2469.11	0.00036505
2478.75	0.0002881
2488.4	0.0003269
2498.04	0.00036827
2507.69	0.00039577
2517.33	0.000325
2526.98	0.0003348
2536.62	0.0003186
2546.27	0.00033532
2555.91	0.00033596
2565.56	0.00035769
2575.2	0.00038909
2584.85	0.00041903
2594.49	0.00037022
2604.14	0.000347974
2613.78	0.0004414
2623.43	0.0004718
2633.07	0.0004629
2642.72	0.0005127
2652.36	0.0005208
2662.01	0.0006059
2671.65	0.0008352
2681.29	0.001147
2690.94	0.001369
2700.58	0.0012976
2710.23	0.001081
2719.87	0.0013286
2729.52	0.001369
2739.16	0.0011985
2748.81	0.0012217
2758.45	0.0012047
2768.1	0.0011879
2777.74	0.0013123
2787.39	0.001569
2797.03	0.001559
2806.68	0.001829
2816.32	0.002259
2825.97	0.002329
2835.61	0.002389
2845.26	0.002869
2854.9	0.004229
2864.55	0.007209
2874.19	0.010969
2883.84	0.016729
2893.48	0.032489
2903.12	0.044459
2912.77	0.034429
2922.41	0.023659
2932.06	0.022139
2941.7	0.026329
2951.35	0.040089
2960.99	0.051369
2970.64	0.048179
2980.28	0.043029
2989.93	0.029399
2999.57	0.011579
3009.22	0.004739
3018.86	0.003039
3028.51	0.002429
3038.15	0.002069
3047.8	0.001709
3057.44	0.001799
3067.09	0.001449
3076.73	0.001284
3086.38	0.0009484
3096.02	0.0008182
3105.67	0.0006886
3115.31	0.0007624
3124.95	0.0006448
3134.6	0.0007158
3144.24	0.000649
3153.89	0.0007631
3163.53	0.0008833
3173.18	0.0008248
3182.82	0.0007408
3192.47	0.000557
3202.11	0.00037176
3211.76	0.0004786
3221.4	0.00042311
3231.05	0.0004778
3240.69	0.00037778
3250.34	0.0003261
3259.98	0.0003075
3269.63	0.00039864
3279.27	0.00035809
3288.92	0.0004557
3298.56	0.00036489
3308.21	0.00034978
3317.85	0.000229
3327.49	0.00040613
3337.14	0.00035695
3346.78	0.0005248
3356.43	0.00042805
3366.07	0.000343778
3375.72	0.0005197
3385.36	0.0003141
3395.01	0.0003028
3404.65	0.00042613
3414.3	0.00040532
3423.94	0.0002724
3433.59	0.0003146
3443.23	0.000193
3452.88	0.0003319
3462.52	0.000229
3472.17	0.0002993
3481.81	0.000238
3491.46	0.000211
3501.1	0.000231
3510.75	0.0003015
3520.39	0.00036199
3530.04	0.000218
3539.68	0.000153
3549.32	0.00036243
3558.97	0.0002916
3568.61	0.000168
3578.26	0.00040029
3587.9	0.000213
3597.55	0.0002726
3607.19	0.000231
3616.84	0.0002505
3626.48	0.000182
3636.13	0.000234
3645.77	0.0002544
3655.42	0.000195
3665.06	0.000222
3674.71	0.0002518
3684.35	0.00034548
3694	0.0002808
3703.64	0.000189
3713.29	0.000229
3722.93	0.000297
3732.58	0.000342066
3742.22	0.00042496
3751.86	0.0004767
3761.51	0.000343511
3771.15	0.0002927
3780.8	0.00039415
3790.44	0.000229
3800.09	0.0002801
3809.73	0.0003194
3819.38	0.0002523
3829.02	0.00040213
3838.67	0.0002814
3848.31	0.0004128
3857.96	0.00038372
3867.6	0.0003932
3877.25	0.0005333
3886.89	0.0007932
3896.54	0.0006889
3906.18	0.0006589
3915.83	0.0005783
3925.47	0.0004883
3935.12	0.0006168
3944.76	0.0006034
3954.41	0.0008293
3964.05	0.0009117
3973.69	0.0008384
3983.34	0.0005209
3992.98	0.0004653
