Infrared Spectrum: trans-1-Phenyl-1-butene
Formula: C 10 H 12
CAS: 1005-64-7
State: gas
Instrument: HP-GC/MS/IRD
Origin: NIST Mass Spectrometry Data Center
1/CM	ABSORBANCE
550	0.0001066
562	0
574	0.0003146
586	0.0005642
598	0.000793
610	0.001222
622	0.0005538
634	0.0006214
646	0.0007982
658	0.0014456
670	0.0035152
682	0.0077896
694	0.0115102
706	0.0096772
718	0.0084968
730	0.0108654
742	0.0110162
754	0.0065936
766	0.0034736
778	0.0018252
790	0.000949
802	0.000728
814	0.0006786
826	0.000923
838	0.0013338
850	0.0011466
862	0.0009074
874	0.0009308
886	0.001131
898	0.0016328
910	0.0019942
922	0.001716
934	0.002587
946	0.0061594
958	0.0108238
970	0.0087958
982	0.0043576
994	0.0021268
1006	0.0018538
1018	0.0025922
1030	0.0019942
1042	0.0010712
1054	0.0014898
1066	0.002028
1078	0.0016536
1090	0.0010374
1102	0.0006968
1114	0.000546
1126	0.0004758
1138	0.0003848
1150	0.0004966
1162	0.0004654
1174	0.0004212
1186	0.0004316
1198	0.0005096
1210	0.0005096
1222	0.0005486
1234	0.0005382
1246	0.0005018
1258	0.0006318
1270	0.0009438
1282	0.0013494
1294	0.0016198
1306	0.0022178
1318	0.002782
1330	0.0024102
1342	0.0019188
1354	0.001469
1366	0.001027
1378	0.0012064
1390	0.0012584
1402	0.001118
1414	0.0011804
1426	0.0017524
1438	0.0030498
1450	0.0039364
1462	0.0038272
1474	0.0034736
1486	0.0045708
1498	0.005538
1510	0.0017316
1522	0.0007202
1534	0.0005382
1546	0.0005382
1558	0.000715
1570	0.0010972
1582	0.0018278
1594	0.0036088
1606	0.0028912
1618	0.0010608
1630	0.0006344
1642	0.0009542
1654	0.0012506
1666	0.0007072
1678	0.0004992
1690	0.000494
1702	0.0004914
1714	0.0004394
1726	0.000585
1738	0.0008294
1750	0.0006942
1762	0.0006032
1774	0.0009308
1786	0.0014872
1798	0.001378
1810	0.0008164
1822	0.0004498
1834	0.0002808
1846	0.0003692
1858	0.0006006
1870	0.000767
1882	0.000741
1894	0.0003822
1906	0.0002444
1918	0.0004472
1930	0.0008164
1942	0.0009802
1954	0.0007748
1966	0.0002288
1978	8.84e-05
1990	5.2e-05
2002	4.94e-05
2014	0.0001092
2026	0.0001014
2038	8.32e-05
2050	4.68e-05
2062	5.2e-05
2074	4.68e-05
2086	2.6e-05
2098	3.64e-05
2110	1.56e-05
2122	3.9e-05
2134	5.72e-05
2146	6.5e-05
2158	5.2e-06
2170	1.3e-05
2182	2.86e-05
2194	3.12e-05
2206	5.98e-05
2218	5.2e-05
2230	6.76e-05
2242	4.68e-05
2254	5.46e-05
2266	4.42e-05
2278	7.02e-05
2290	7.28e-05
2302	7.54e-05
2314	0.0001248
2326	7.54e-05
2338	9.88e-05
2350	0.0001222
2362	7.28e-05
2374	9.62e-05
2386	0.0001326
2398	0.0001378
2410	0.0001248
2422	8.06e-05
2434	0.0001118
2446	0.0001274
2458	6.24e-05
2470	7.54e-05
2482	0.0001118
2494	0.000104
2506	0.0001222
2518	0.000182
2530	0.0001482
2542	0.0001586
2554	0.0002028
2566	0.0002184
2578	0.0002132
2590	0.0002626
2602	0.0002392
2614	0.0002236
2626	0.000182
2638	0.0001846
2650	0.0002184
2662	0.0001742
2674	0.000208
2686	0.0002028
2698	0.0001976
2710	0.000299
2722	0.0003276
2734	0.0003822
2746	0.0005096
2758	0.0005486
2770	0.0005018
2782	0.0006006
2794	0.0007072
2806	0.000858
2818	0.0011284
2830	0.001638
2842	0.0028288
2854	0.00494
2866	0.0065988
2878	0.007943
2890	0.009763
2902	0.0096278
2914	0.009451
2926	0.0103766
2938	0.013091
2950	0.0140244
2962	0.0160368
2974	0.026
2986	0.0144326
2998	0.0078468
3010	0.008385
3022	0.0126204
3034	0.0150332
3046	0.0097786
3058	0.0095186
3070	0.0139984
3082	0.009906
3094	0.0070824
3106	0.0041886
3118	0.0019812
3130	0.0009906
3142	0.0008424
3154	0.0007072
3166	0.0005824
3178	0.0005512
3190	0.0004992
3202	0.0004186
3214	0.0003094
3226	0.0003146
3238	0.0002054
3250	0.0001352
3262	0.0001378
3274	0.000195
3286	0.0001352
3298	0.00013
3310	0.0001378
3322	0.0001664
3334	0.0001612
3346	0.000117
3358	4.68e-05
3370	0.0001378
3382	9.62e-05
3394	8.84e-05
3406	4.16e-05
3418	5.46e-05
3430	0.0001066
3442	9.88e-05
3454	0.000104
3466	9.88e-05
3478	9.88e-05
3490	4.68e-05
3502	9.62e-05
3514	5.46e-05
3526	0.000104
3538	5.98e-05
3550	8.06e-05
3562	0.0001378
3574	6.24e-05
3586	0.000104
3598	3.38e-05
3610	8.58e-05
3622	0.000104
3634	0.0001118
3646	0.0001482
3658	0.000117
3670	0.0002028
3682	0.0001742
3694	0.0001846
3706	0.0001144
3718	9.1e-05
3730	0.0001508
3742	0.0001066
3754	0.0001586
3766	0.0001586
3778	6.5e-05
3790	0.0001014
3802	0.0001404
3814	0.0001196
3826	9.62e-05
3838	4.94e-05
