Infrared Spectrum: CIS-1,3-DICHLOROPROPENE
Formula: C3 H4 Cl2
CAS: 10061-01-5
Class: COBLENTZ
Instrument: Not specified, most likely a prism, grating, or hybrid spectrometer.
Sampling: TRANSMISSION
Path length: 0.0025 CM
Resolution: 4
Origin: W.T. BOLLETER
MICROMETERS	TRANSMITTANCE
14.648	0
14.718	0
14.788	0
14.8581	0
14.9281	0
14.9981	0.001
15.0681	0.003
15.1381	0.01
15.2082	0.021
15.2782	0.037
15.3482	0.081
15.4182	0.126
15.4883	0.172
15.5583	0.232
15.6283	0.284
15.6983	0.33
15.7683	0.369
15.8384	0.399
15.9084	0.422
15.9784	0.44
16.0484	0.452
16.1184	0.46
16.1885	0.463
16.2585	0.468
16.3285	0.474
16.3985	0.479
16.4686	0.484
16.5386	0.492
16.6086	0.484
16.6786	0.481
16.7486	0.477
16.8187	0.481
16.8887	0.497
16.9587	0.509
17.0287	0.532
17.0987	0.541
17.1688	0.543
17.2388	0.545
17.3088	0.539
17.3788	0.532
17.4489	0.52
17.5189	0.5
17.5889	0.488
17.6589	0.463
17.7289	0.433
17.799	0.408
17.869	0.374
17.939	0.319
18.009	0.241
18.079	0.168
18.1491	0.099
18.2191	0.044
18.2891	0.023
18.3591	0.019
18.4291	0.026
18.4992	0.056
18.5692	0.099
18.6392	0.158
18.7092	0.216
18.7793	0.264
18.8493	0.301
18.9193	0.342
18.9893	0.367
19.0593	0.396
19.1294	0.42
19.1994	0.436
19.2694	0.449
19.3394	0.46
19.4094	0.468
19.4795	0.477
19.5495	0.488
19.6195	0.497
19.6895	0.502
19.7596	0.507
19.8296	0.511
19.8996	0.513
19.9696	0.516
20.0396	0.518
20.1097	0.522
20.1797	0.522
20.2497	0.523
20.3197	0.525
20.3897	0.523
20.4598	0.52
20.5298	0.518
20.5998	0.515
20.6698	0.511
20.7399	0.506
20.8099	0.502
20.8799	0.5
20.9499	0.495
21.0199	0.484
21.09	0.474
21.16	0.46
21.23	0.449
21.3	0.436
21.37	0.419
21.4401	0.403
21.5101	0.373
21.5801	0.348
21.6501	0.314
21.7201	0.271
21.7902	0.238
21.8602	0.197
21.9302	0.15
22.0002	0.119
22.0703	0.079
22.1403	0.067
22.2103	0.046
22.2803	0.028
22.3503	0.026
22.4204	0.026
22.4904	0.026
22.5604	0.031
22.6304	0.039
22.7004	0.06
22.7705	0.083
22.8405	0.104
22.9105	0.142
22.9805	0.177
23.0506	0.214
23.1206	0.262
23.1906	0.303
23.2606	0.344
23.3306	0.387
23.4007	0.426
23.4707	0.46
23.5407	0.492
23.6107	0.538
23.6807	0.568
23.7508	0.586
23.8208	0.611
23.8908	0.634
23.9608	0.65
24.0309	0.673
24.1009	0.69
24.1709	0.703
24.2409	0.719
24.3109	0.737
24.381	0.749
24.451	0.756
24.521	0.763
24.591	0.769
24.661	0.779
24.7311	0.786
24.8011	0.792
24.8711	0.822
24.9411	0.829
25.0111	0.834
25.0812	0.838
25.1512	0.845
25.2212	0.849
25.2912	0.85
25.3613	0.852
25.4313	0.852
25.5013	0.856
25.5713	0.857
25.6413	0.857
25.7114	0.859
25.7814	0.863
25.8514	0.866
25.9214	0.866
25.9914	0.87
26.0615	0.87
26.1315	0.87
26.2015	0.868
26.2715	0.868
26.3416	0.866
26.4116	0.87
26.4816	0.872
26.5516	0.877
26.6216	0.879
26.6917	0.88
26.7617	0.882
26.8317	0.886
26.9017	0.891
26.9717	0.9
27.0418	0.904
27.1118	0.907
27.1818	0.914
27.2518	0.92
27.3219	0.921
27.3919	0.928
27.4619	0.93
27.5319	0.932
27.6019	0.934
27.672	0.937
27.742	0.943
27.812	0.948
27.882	0.948
27.952	0.948
28.0221	0.948
28.0921	0.95
28.1621	0.95
28.2321	0.95
28.3021	0.95
28.3722	0.95
28.4422	0.95
28.5122	0.95
28.5822	0.948
28.6523	0.948
28.7223	0.946
28.7923	0.944
28.8623	0.941
28.9323	0.939
29.0024	0.939
29.0724	0.939
29.1424	0.939
29.2124	0.937
29.2824	0.932
29.3525	0.93
29.4225	0.927
29.4925	0.928
29.5625	0.927
29.6326	0.925
29.7026	0.923
29.7726	0.921
29.8426	0.92
29.9126	0.905
29.9827	0.902
30.0527	0.898
30.1227	0.893
30.1927	0.889
30.2627	0.882
30.3328	0.88
30.4028	0.879
30.4728	0.877
30.5428	0.875
30.6129	0.872
30.6829	0.868
30.7529	0.866
30.8229	0.865
30.8929	0.865
30.963	0.861
31.033	0.856
31.103	0.854
31.173	0.852
31.243	0.852
31.3131	0.85
31.3831	0.847
31.4531	0.843
31.5231	0.841
31.5931	0.838
31.6632	0.836
31.7332	0.834
31.8032	0.831
31.8732	0.824
31.9433	0.82
32.0133	0.818
32.0833	0.815
32.1533	0.811
32.2233	0.808
32.2934	0.806
32.3634	0.804
32.4334	0.799
32.5034	0.792
32.5734	0.783
32.6435	0.779
32.7135	0.774
32.7835	0.77
32.8535	0.769
32.9236	0.767
32.9936	0.765
33.0636	0.758
33.1336	0.749
33.2036	0.737
33.2737	0.733
33.3437	0.728
33.4137	0.722
33.4837	0.721
33.5537	0.719
33.6238	0.715
33.6938	0.712
33.7638	0.705
33.8338	0.699
33.9039	0.696
33.9739	0.689
34.0439	0.685
34.1139	0.68
34.1839	0.674
34.254	0.669
34.324	0.664
34.394	0.657
34.464	0.65
34.534	0.648
34.6041	0.635
34.6741	0.621
34.7441	0.611
34.8141	0.607
34.8841	0.602
34.9542	0.596
35.0242	0.591
35.0942	0.582
35.1642	0.571
35.2343	0.563
35.3043	0.561
35.3743	0.559
35.4443	0.552
35.5143	0.548
35.5844	0.539
35.6544	0.532
35.7244	0.523
35.7944	0.52
35.8644	0.516
35.9345	0.509
36.0045	0.502
36.0745	0.497
36.1445	0.492
36.2146	0.483
36.2846	0.477
36.3546	0.474
36.4246	0.47
36.4946	0.467
36.5647	0.465
36.6347	0.463
36.7047	0.461
36.7747	0.456
36.8447	0.444
36.9148	0.438
36.9848	0.435
37.0548	0.433
37.1248	0.429
37.1949	0.428
37.2649	0.428
37.3349	0.424
37.4049	0.422
37.4749	0.42
37.545	0.42
37.615	0.419
37.685	0.417
37.755	0.413
37.825	0.412
37.8951	0.412
37.9651	0.41
