Infrared Spectrum: 9H-Purine-6(1H)-thione, 9-methyl-,
Formula: C6 H6 N4 S
CAS: 1006-20-8
State: SOLID (0.6 mg / 650 mg KBr DISC)
Class: COBLENTZ III
Instrument: PERKIN-ELMER 21 (GRATING)
Instrument parameters: FILTER CHANGE ABOUT 1020 CM^-^1
Resolution: 2
Origin: SOUTHERN RESEARCH INSTITUTE
1/CM	TRANSMITTANCE
591.477	0.8454
600.518	0.8378
609.559	0.8341
618.6	0.8192
627.641	0.7938
636.682	0.7426
645.723	0.4757
654.764	0.8147
663.805	0.7507
672.846	0.714
681.887	0.8498
690.928	0.8446
699.968	0.8358
709.009	0.8144
718.05	0.7827
727.091	0.7373
736.132	0.502
745.173	0.8295
754.214	0.8308
763.255	0.7995
772.296	0.6637
781.337	0.8367
790.378	0.8353
799.419	0.831
808.46	0.8265
817.501	0.8223
826.542	0.8131
835.583	0.7892
844.624	0.7592
853.665	0.7211
862.706	0.6303
871.747	0.369
880.788	0.508
889.829	0.4898
898.87	0.7308
907.911	0.7175
916.951	0.6319
925.992	0.5121
935.033	0.4257
944.074	0.4341
953.115	0.2377
962.156	0.5421
971.197	0.7064
980.238	0.7001
989.279	0.5981
998.32	0.5395
1007.36	0.618
1016.4	0.6492
1025.44	0.7058
1034.48	0.6878
1043.52	0.6053
1052.57	0.5302
1061.61	0.7381
1070.65	0.7571
1079.69	0.75
1088.73	0.7346
1097.77	0.7065
1106.81	0.66
1115.85	0.4752
1124.89	0.7317
1133.93	0.7373
1142.98	0.7219
1152.02	0.6929
1161.06	0.6117
1170.1	0.501
1179.14	0.269
1188.18	0.3367
1197.22	0.1888
1206.26	0.2095
1215.3	0.7237
1224.34	0.7617
1233.39	0.797
1242.43	0.7985
1251.47	0.7847
1260.51	0.7607
1269.55	0.7196
1278.59	0.7013
1287.63	0.7291
1296.67	0.7288
1305.71	0.7096
1314.75	0.6357
1323.79	0.4924
1332.84	0.1927
1341.88	0.6502
1350.92	0.7071
1359.96	0.7049
1369	0.6649
1378.04	0.5567
1387.08	0.1947
1396.12	0.3352
1405.16	0.1463
1414.2	0.2349
1423.25	0.4915
1432.29	0.6956
1441.33	0.7114
1450.37	0.6963
1459.41	0.67
1468.45	0.64
1477.49	0.6089
1486.53	0.49
1495.57	0.6476
1504.61	0.6576
1513.65	0.6266
1522.7	0.5848
1531.74	0.4672
1540.78	0.2792
1549.82	0.2773
1558.86	0.2854
1567.9	0.1246
1576.94	0.043
1585.98	0.0307
1595.02	0.0455
1604.06	0.2709
1613.11	0.4531
1622.15	0.5146
1631.19	0.5771
1640.23	0.6978
1649.27	0.7363
1658.31	0.7587
1667.35	0.7723
1676.39	0.7845
1685.43	0.7931
1694.47	0.7981
1703.51	0.8
1712.56	0.7958
1721.6	0.7693
1730.64	0.7593
1739.68	0.7476
1748.72	0.7203
1757.76	0.6993
1766.8	0.7366
1775.84	0.7629
1784.88	0.7613
1793.92	0.7531
1802.97	0.7428
1812.01	0.7291
1821.05	0.709
1830.09	0.6744
1839.13	0.6399
1848.17	0.6062
1857.21	0.5989
1866.25	0.6775
1875.29	0.7058
1884.33	0.6901
1893.37	0.669
1902.42	0.6477
1911.46	0.6485
1920.5	0.6596
1929.54	0.662
1938.58	0.6567
1947.62	0.6478
1956.66	0.6312
1965.7	0.6104
1974.74	0.5888
1983.78	0.5747
1992.83	0.5902
2001.87	0.615
2010.91	0.6398
2019.95	0.6636
2028.99	0.6748
2038.03	0.6771
2047.07	0.6774
2056.11	0.6774
2065.15	0.6765
2074.19	0.6749
2083.24	0.6727
2092.28	0.6716
2101.32	0.6714
2110.36	0.6713
2119.4	0.6721
2128.44	0.6733
2137.48	0.6721
2146.52	0.6706
2155.56	0.6691
2164.6	0.6676
2173.64	0.6637
2182.69	0.6582
2191.73	0.6486
2200.77	0.6379
2209.81	0.6312
2218.85	0.6268
2227.89	0.6226
2236.93	0.6186
2245.97	0.6147
2255.01	0.6097
2264.05	0.6042
2273.1	0.5961
2282.14	0.5874
2291.18	0.5751
2300.22	0.562
2309.26	0.5431
2318.3	0.5191
2327.34	0.5038
2336.38	0.4945
2345.42	0.4868
2354.46	0.4832
2363.5	0.4802
2372.55	0.4792
2381.59	0.4751
2390.63	0.4604
2399.67	0.4409
2408.71	0.4267
2417.75	0.4135
2426.79	0.4009
2435.83	0.3898
2444.87	0.3824
2453.91	0.3778
2462.96	0.3693
2472	0.3548
2481.04	0.3387
2490.08	0.3203
2499.12	0.3104
2508.16	0.3049
2517.2	0.3
2526.24	0.296
2535.28	0.2923
2544.32	0.2847
2553.36	0.2759
2562.41	0.2678
2571.45	0.2604
2580.49	0.2524
2589.53	0.2474
2598.57	0.2448
2607.61	0.2424
2616.65	0.2401
2625.69	0.2375
2634.73	0.2289
2643.77	0.2226
2652.82	0.2234
2661.86	0.2267
2670.9	0.2349
2679.94	0.2413
2688.98	0.2426
2698.02	0.2447
2707.06	0.2482
2716.1	0.2511
2725.14	0.2542
2734.18	0.2575
2743.22	0.2621
2752.27	0.2672
2761.31	0.2702
2770.35	0.272
2779.39	0.2739
2788.43	0.2763
2797.47	0.2849
2806.51	0.3022
2815.55	0.3127
2824.59	0.3194
2833.63	0.331
2842.68	0.3502
2851.72	0.3727
2860.76	0.3925
2869.8	0.4091
2878.84	0.4196
2887.88	0.4189
2896.92	0.4159
2905.96	0.4111
2915	0.4064
2924.04	0.4033
2933.09	0.4044
2942.13	0.4093
2951.17	0.4149
2960.21	0.4187
2969.25	0.4209
2978.29	0.4224
2987.33	0.4239
2996.37	0.4305
3005.41	0.4479
3014.45	0.4688
3023.49	0.4753
3032.54	0.4662
3041.58	0.4557
3050.62	0.4625
3059.66	0.4891
3068.7	0.5108
3077.74	0.5118
3086.78	0.5056
3095.82	0.5065
3104.86	0.5306
3113.9	0.5597
3122.95	0.5773
3131.99	0.5709
3141.03	0.5644
3150.07	0.5584
3159.11	0.5544
3168.15	0.556
3177.19	0.5697
3186.23	0.5818
3195.27	0.5867
3204.31	0.5876
3213.35	0.5866
3222.4	0.5834
3231.44	0.581
3240.48	0.5774
3249.52	0.5699
3258.56	0.5674
3267.6	0.563
3276.64	0.557
3285.68	0.5499
3294.72	0.5438
3303.76	0.5373
3312.81	0.5302
3321.85	0.5226
3330.89	0.517
3339.93	0.5073
3348.97	0.4934
3358.01	0.4847
3367.05	0.4785
3376.09	0.4625
3385.13	0.4436
3394.17	0.4352
3403.21	0.4305
3412.26	0.4264
3421.3	0.4237
3430.34	0.4232
3439.38	0.4226
3448.42	0.423
3457.46	0.4236
3466.5	0.4257
3475.54	0.4277
3484.58	0.4301
3493.62	0.4328
3502.67	0.4355
3511.71	0.4384
3520.75	0.4416
3529.79	0.4457
3538.83	0.4542
3547.87	0.4643
3556.91	0.4661
3565.95	0.4688
3574.99	0.4716
3584.03	0.4747
3593.07	0.4783
3602.12	0.4809
3611.16	0.4835
3620.2	0.4862
3629.24	0.4892
3638.28	0.4921
3647.32	0.4946
3656.36	0.4909
3665.4	0.4915
3674.44	0.4923
3683.48	0.4933
3692.53	0.4943
3701.57	0.49
3710.61	0.4844
3719.65	0.4838
3728.69	0.4835
3737.73	0.4836
3746.77	0.4836
3755.81	0.4837
3764.85	0.4838
3773.89	0.4838
3782.94	0.4839
3791.98	0.4832
3801.02	0.4825
3810.06	0.4792
3819.1	0.4749
3828.14	0.4709
3837.18	0.4638
3846.22	0.4524
3855.26	0.4475
3864.3	0.4465
3873.34	0.4458
3882.39	0.4452
3891.43	0.4448
3900.47	0.444
3909.51	0.4415
3918.55	0.4393
3927.59	0.4381
3936.63	0.4386
3945.67	0.4389
3954.71	0.4391
3963.75	0.4393
3972.8	0.4398
3981.84	0.4404
3990.88	0.441
3999.92	0.4423
4008.96	0.4437
4018	0.445
