Infrared Spectrum: trans-1,3-Dichloropropene
Formula: C 3 H 4 Cl 2
CAS: 10061-02-6
State: gas
Instrument: HP-GC/MS/IRD
Origin: NIST Mass Spectrometry Data Center
1/CM	ABSORBANCE
550	0.0005148
562	7.67e-05
574	2.47e-05
586	0.0002132
598	0.0001027
610	0.0002054
622	0.0002405
634	0.0003081
646	0.0006448
658	0.0010517
670	0.0027053
682	0.0080288
694	0.013
706	0.0082927
718	0.0021736
730	0.0010608
742	0.0010127
754	0.0013377
766	0.0022607
778	0.0038441
790	0.0035906
802	0.0013611
814	0.0023751
826	0.0032097
838	0.0023192
850	0.0022399
862	0.0033709
874	0.0031811
886	0.001989
898	0.0032929
910	0.0053573
922	0.0079716
934	0.0088257
946	0.0060931
958	0.00338
970	0.0018135
982	0.0010322
994	0.0007371
1006	0.0005551
1018	0.0005135
1030	0.000403
1042	0.0002873
1054	0.0004004
1066	0.0004901
1078	0.0003575
1090	0.0002197
1102	0.000169
1114	0.0001313
1126	0.0001521
1138	0.0002834
1150	0.0007111
1162	0.0006409
1174	0.0003198
1186	0.000234
1198	0.0003471
1210	0.0007176
1222	0.0016484
1234	0.0053846
1246	0.0064233
1258	0.0033228
1270	0.0037869
1282	0.004381
1294	0.003861
1306	0.0021177
1318	0.0007618
1330	0.0002977
1342	0.0002145
1354	0.0002054
1366	0.0002106
1378	0.0002795
1390	0.0002756
1402	0.0002327
1414	0.0002223
1426	0.000377
1438	0.0006513
1450	0.0007501
1462	0.0005577
1474	0.0003822
1486	0.0002535
1498	0.0001482
1510	0.0001547
1522	0.0001482
1534	0.0001924
1546	0.0002652
1558	0.0004498
1570	0.0005174
1582	0.0006916
1594	0.0014235
1606	0.0026247
1618	0.0054769
1630	0.0086554
1642	0.0060892
1654	0.0016887
1666	0.0006929
1678	0.0004576
1690	0.0004901
1702	0.000689
1714	0.0007683
1726	0.0006136
1738	0.0004823
1750	0.0004615
1762	0.0003445
1774	0.0002041
1786	0.000117
1798	9.88e-05
1810	7.54e-05
1822	0.0001118
1834	8.97e-05
1846	9.62e-05
1858	7.28e-05
1870	5.33e-05
1882	6.63e-05
1894	3.77e-05
1906	1.82e-05
1918	2.34e-05
1930	3.64e-05
1942	5.46e-05
1954	3.64e-05
1966	3.77e-05
1978	4.94e-05
1990	3.51e-05
2002	7.67e-05
2014	3.12e-05
2026	4.42e-05
2038	5.07e-05
2050	5.46e-05
2062	5.07e-05
2074	8.58e-05
2086	4.81e-05
2098	4.29e-05
2110	6.89e-05
2122	7.93e-05
2134	0.0001001
2146	8.06e-05
2158	9.36e-05
2170	6.37e-05
2182	8.32e-05
2194	8.19e-05
2206	8.71e-05
2218	0.0001469
2230	0.0001105
2242	8.06e-05
2254	5.46e-05
2266	7.93e-05
2278	8.19e-05
2290	9.49e-05
2302	0.0001014
2314	8.97e-05
2326	0.0001079
2338	0.000143
2350	8.71e-05
2362	0.0001495
2374	0.0001222
2386	7.28e-05
2398	8.71e-05
2410	5.07e-05
2422	5.85e-05
2434	6.76e-05
2446	5.2e-05
2458	8.58e-05
2470	8.97e-05
2482	0.0001014
2494	7.15e-05
2506	6.5e-05
2518	7.54e-05
2530	7.15e-05
2542	5.33e-05
2554	4.68e-05
2566	4.29e-05
2578	2.73e-05
2590	4.81e-05
2602	4.94e-05
2614	7.8e-06
2626	4.81e-05
2638	4.42e-05
2650	9.49e-05
2662	9.23e-05
2674	8.06e-05
2686	0.0001118
2698	7.28e-05
2710	0.0001092
2722	0.0001092
2734	8.71e-05
2746	7.02e-05
2758	5.59e-05
2770	7.15e-05
2782	5.46e-05
2794	5.72e-05
2806	6.5e-05
2818	0.0001118
2830	0.0001183
2842	0.0002145
2854	0.0003211
2866	0.0003835
2878	0.0003952
2890	0.000338
2902	0.0002665
2914	0.0002561
2926	0.0003913
2938	0.0009308
2950	0.0014105
2962	0.0017992
2974	0.0018473
2986	0.0014456
2998	0.0010426
3010	0.0006994
3022	0.0004706
3034	0.0003666
3046	0.0004719
3058	0.0010205
3070	0.0019071
3082	0.0014001
3094	0.0004485
3106	0.0002795
3118	0.0001235
3130	5.85e-05
3142	5.98e-05
3154	8.32e-05
3166	2.73e-05
3178	6.5e-05
3190	7.54e-05
3202	0.0001391
3214	6.24e-05
3226	7.28e-05
3238	0.0001716
3250	9.1e-05
3262	0.0001027
3274	0.0001339
3286	0.0001417
3298	0.0001131
3310	0.0001352
3322	0.0001287
3334	0.0001326
3346	4.16e-05
3358	0.0001326
3370	9.75e-05
3382	0.0001352
3394	0.0001079
3406	0.0001274
3418	0.0001378
3430	0.0001365
3442	0.0001248
3454	0.0001742
3466	0.0001235
3478	0.0001118
3490	0.0001235
3502	0.0001222
3514	0.0001768
3526	0.0002379
3538	0.0001612
3550	0.0001534
3562	0.0002093
3574	0.0002522
3586	0.0001976
3598	0.0001937
3610	0.0002275
3622	0.0001885
3634	0.0001989
3646	0.0002665
3658	0.0001846
3670	0.0002626
3682	0.0002002
3694	0.0002119
3706	0.0002223
3718	0.0002197
3730	0.0002041
3742	0.000247
3754	0.0002522
3766	0.0001755
3778	0.0002002
3790	0.0002951
3802	0.0002769
3814	0.0002405
3826	0.0001846
3838	0.0002145
