Infrared Spectrum: 1-HYDROXY-2-(N-ISOPROPYL)NAPHTHAMIDE
Formula: C14 H15 N O2
CAS: 100710-80-3
State: SOLID (KBr PRESSING)
Melting point: 86-87 C
Class: COBLENTZ
Instrument: Not specified, most likely a prism, grating, or hybrid spectrometer.
Sampling: TRANSMISSION
Resolution: 4
Origin: EASTMAN KODAK COMPANY, RESEARCH LABORATORIES, ROCHESTER, N.Y.
MICROMETERS	TRANSMITTANCE
2.035	0.567
2.07021	0.572
2.10543	0.581
2.14064	0.597
2.17585	0.609
2.21106	0.611
2.24628	0.612
2.28149	0.616
2.3167	0.63
2.35192	0.64
2.38713	0.642
2.42234	0.646
2.45756	0.651
2.49277	0.656
2.52798	0.665
2.56319	0.681
2.59841	0.695
2.63362	0.698
2.66883	0.709
2.70405	0.712
2.73926	0.707
2.77447	0.69
2.80968	0.658
2.8449	0.635
2.88011	0.598
2.91532	0.481
2.95054	0.183
2.98575	0.346
3.02096	0.49
3.05618	0.569
3.09139	0.605
3.1266	0.639
3.16181	0.661
3.19703	0.676
3.23224	0.674
3.26745	0.595
3.30267	0.602
3.33788	0.513
3.37309	0.399
3.4083	0.453
3.44352	0.511
3.47873	0.532
3.51394	0.605
3.54916	0.628
3.58437	0.632
3.61958	0.633
3.65479	0.628
3.69001	0.612
3.72522	0.6
3.76043	0.579
3.79565	0.542
3.83086	0.525
3.86607	0.511
3.90129	0.497
3.9365	0.485
3.97171	0.481
4.00692	0.497
4.04214	0.509
4.07735	0.521
4.11256	0.528
4.14778	0.534
4.18299	0.549
4.2182	0.583
4.25341	0.598
4.28863	0.632
4.32384	0.669
4.35905	0.705
4.39427	0.726
4.42948	0.735
4.46469	0.747
4.49991	0.758
4.53512	0.765
4.57033	0.77
4.60554	0.781
4.64076	0.789
4.67597	0.802
4.71118	0.803
4.7464	0.805
4.78161	0.809
4.81682	0.816
4.85203	0.831
4.88725	0.845
4.92246	0.858
4.95767	0.858
4.99289	0.865
5.0281	0.868
5.06331	0.866
5.09853	0.849
5.13374	0.87
5.16895	0.854
5.20416	0.877
5.23938	0.873
5.27459	0.851
5.3098	0.856
5.34502	0.875
5.38023	0.891
5.41544	0.858
5.45065	0.838
5.48587	0.816
5.52108	0.81
5.55629	0.823
5.59151	0.844
5.62672	0.866
5.66193	0.868
5.69715	0.842
5.73236	0.856
5.76757	0.859
5.80278	0.879
5.838	0.893
5.87321	0.922
5.90842	0.95
5.94364	0.921
5.97885	0.863
6.01406	0.733
6.04927	0.591
6.08449	0.425
6.1197	0.175
6.15491	0.166
6.19013	0.115
6.22534	0.211
6.26055	0.071
6.29577	0.087
6.33098	0.08
6.36619	0.155
6.4014	0.25
6.43662	0.201
6.47183	0.103
6.50704	0.096
6.54226	0.078
6.57747	0.108
6.61268	0.227
6.64789	0.19
6.68311	0.098
6.71832	0.238
6.75353	0.366
6.78875	0.262
6.82396	0.133
6.85917	0.224
6.89438	0.329
6.9296	0.513
6.96481	0.509
7.00002	0.5
7.03524	0.402
7.07045	0.204
7.10566	0.049
7.14088	0.14
7.17609	0.203
7.2113	0.098
7.24651	0.173
7.28173	0.262
7.31694	0.218
7.35215	0.145
7.38737	0.253
7.42258	0.443
7.45779	0.474
7.493	0.316
7.52822	0.273
7.56343	0.394
7.59864	0.264
7.63386	0.148
7.66907	0.098
7.70428	0.091
7.7395	0.117
7.77471	0.122
7.80992	0.077
7.84513	0.056
7.88035	0.085
7.91556	0.152
7.95077	0.225
7.98599	0.25
8.0212	0.292
8.05641	0.388
8.09162	0.437
8.12684	0.45
8.16205	0.493
8.19726	0.563
8.23248	0.416
8.26769	0.224
8.3029	0.309
8.33812	0.418
8.37333	0.504
8.40854	0.528
8.44375	0.413
8.47897	0.243
8.51418	0.316
8.54939	0.343
8.58461	0.292
8.61982	0.274
8.65503	0.36
8.69024	0.302
8.72546	0.257
8.76067	0.355
8.79588	0.446
8.8311	0.458
8.86631	0.332
8.90152	0.35
8.93674	0.471
8.97195	0.53
9.00716	0.563
9.04237	0.586
9.07759	0.586
9.1128	0.507
9.14801	0.35
9.18323	0.406
9.21844	0.502
9.25365	0.548
9.28886	0.553
9.32408	0.57
9.35929	0.595
9.3945	0.635
9.42972	0.651
9.46493	0.674
9.50014	0.688
9.53536	0.704
9.57057	0.726
9.60578	0.735
9.64099	0.739
9.67621	0.739
9.71142	0.667
9.74663	0.511
9.78185	0.437
9.81706	0.597
9.85227	0.688
9.88748	0.723
9.9227	0.742
9.95791	0.751
9.99312	0.747
10.0283	0.744
10.0635	0.74
10.0988	0.74
10.134	0.735
10.1692	0.726
10.2044	0.683
10.2396	0.579
10.2748	0.378
10.31	0.267
10.3453	0.385
10.3805	0.462
10.4157	0.49
10.4509	0.476
10.4861	0.394
10.5213	0.35
10.5565	0.304
10.5917	0.262
10.627	0.259
10.6622	0.278
10.6974	0.338
10.7326	0.406
10.7678	0.443
10.803	0.444
10.8382	0.369
10.8734	0.29
10.9087	0.334
10.9439	0.46
10.9791	0.546
11.0143	0.614
11.0495	0.647
11.0847	0.674
11.1199	0.7
11.1552	0.704
11.1904	0.709
11.2256	0.73
11.2608	0.732
11.296	0.732
11.3312	0.726
11.3664	0.674
11.4016	0.637
11.4369	0.661
11.4721	0.704
11.5073	0.667
11.5425	0.553
11.5777	0.532
11.6129	0.647
11.6481	0.688
11.6833	0.739
11.7186	0.788
11.7538	0.814
11.789	0.826
11.8242	0.847
11.8594	0.854
11.8946	0.856
11.9298	0.858
11.965	0.865
12.0003	0.877
12.0355	0.879
12.0707	0.877
12.1059	0.863
12.1411	0.814
12.1763	0.665
12.2115	0.355
12.2468	0.178
12.282	0.271
12.3172	0.523
12.3524	0.718
12.3876	0.784
12.4228	0.819
12.458	0.824
12.4932	0.781
12.5285	0.612
12.5637	0.316
12.5989	0.161
12.6341	0.134
12.6693	0.239
12.7045	0.464
12.7397	0.654
12.7749	0.733
12.8102	0.775
12.8454	0.791
12.8806	0.779
12.9158	0.719
12.951	0.583
12.9862	0.318
13.0214	0.136
13.0566	0.084
13.0919	0.075
13.1271	0.124
13.1623	0.33
13.1975	0.472
13.2327	0.577
13.2679	0.651
13.3031	0.702
13.3384	0.725
13.3736	0.751
13.4088	0.775
13.444	0.793
13.4792	0.812
13.5144	0.83
13.5496	0.837
13.5848	0.847
13.6201	0.844
13.6553	0.805
13.6905	0.732
13.7257	0.751
13.7609	0.774
13.7961	0.73
13.8313	0.588
13.8665	0.451
13.9018	0.483
13.937	0.665
13.9722	0.726
14.0074	0.768
14.0426	0.803
14.0778	0.819
14.113	0.833
14.1482	0.842
14.1835	0.842
14.2187	0.838
14.2539	0.831
14.2891	0.826
14.3243	0.824
14.3595	0.83
14.3947	0.849
14.43	0.856
14.4652	0.868
14.5004	0.877
14.5356	0.877
14.5708	0.88
14.606	0.879
14.6412	0.879
14.6764	0.88
14.7117	0.879
14.7469	0.877
14.7821	0.879
14.8173	0.872
14.8525	0.865
14.8877	0.851
14.9229	0.842
14.9581	0.833
14.9934	0.807
15.0286	0.763
15.0638	0.705
15.099	0.625
15.1342	0.567
15.1694	0.521
15.2046	0.509
15.2399	0.558
15.2751	0.647
15.3103	0.721
15.3455	0.758
15.3807	0.782
15.4159	0.807
15.4511	0.816
15.4863	0.828
15.5216	0.833
15.5568	0.842
15.592	0.845
15.6272	0.842
15.6624	0.838
15.6976	0.835
15.7328	0.831
15.768	0.826
15.8033	0.821
