Infrared Spectrum: Neopentylbenzene
Formula: C 11 H 16
CAS: 1007-26-7
State: gas
Instrument: HP-GC/MS/IRD
Origin: NIST Mass Spectrometry Data Center
1/CM	ABSORBANCE
550	1.76e-05
562	2.64e-05
574	0.0001144
586	0.0002464
598	0.000946
610	0.0010032
622	0.0005016
634	0.0002816
646	0.000352
658	0.0007744
670	0.0016148
682	0.0033088
694	0.00968
706	0.01529
718	0.0125004
730	0.0040744
742	0.0015928
754	0.0025652
766	0.0043296
778	0.0022352
790	0.000682
802	0.0004928
814	0.0003916
826	0.0003388
838	0.0002816
850	0.00033
862	0.0004004
874	0.0003608
886	0.0008008
898	0.0011924
910	0.000748
922	0.0005368
934	0.0004136
946	0.000242
958	0.0002244
970	0.0002068
982	0.0002024
994	0.0002332
1006	0.0003476
1018	0.000726
1030	0.0015488
1042	0.0006732
1054	0.0004928
1066	0.0010912
1078	0.001298
1090	0.0006468
1102	0.0003212
1114	0.0002596
1126	0.0003696
1138	0.000594
1150	0.0006512
1162	0.0006072
1174	0.000946
1186	0.0018348
1198	0.0023496
1210	0.0018568
1222	0.0028468
1234	0.0045232
1246	0.0026004
1258	0.0009944
1270	0.0006116
1282	0.00044
1294	0.0003784
1306	0.0004004
1318	0.0006248
1330	0.0007436
1342	0.0009372
1354	0.0026752
1366	0.006314
1378	0.0050028
1390	0.003498
1402	0.0031152
1414	0.0013332
1426	0.001298
1438	0.0024508
1450	0.004312
1462	0.0054824
1474	0.0074404
1486	0.007414
1498	0.005082
1510	0.0020636
1522	0.000682
1534	0.0005852
1546	0.0005632
1558	0.0004796
1570	0.0005676
1582	0.001034
1594	0.0022176
1606	0.002288
1618	0.000968
1630	0.0003476
1642	0.00022
1654	0.0002112
1666	0.000286
1678	0.0003212
1690	0.0002772
1702	0.0002244
1714	0.00022
1726	0.00033
1738	0.0004004
1750	0.0003696
1762	0.00033
1774	0.000286
1786	0.0005016
1798	0.0007788
1810	0.0005588
1822	0.0002948
1834	0.0002068
1846	0.0002552
1858	0.0004004
1870	0.0005104
1882	0.0005148
1894	0.0003608
1906	0.000242
1918	0.0002684
1930	0.0005764
1942	0.000814
1954	0.0006512
1966	0.0002156
1978	0.00011
1990	8.8e-05
2002	8.36e-05
2014	7.48e-05
2026	0.0001056
2038	5.72e-05
2050	6.6e-05
2062	3.52e-05
2074	3.96e-05
2086	3.08e-05
2098	3.08e-05
2110	2.2e-05
2122	3.52e-05
2134	7.48e-05
2146	7.04e-05
2158	4.84e-05
2170	3.08e-05
2182	2.2e-05
2194	2.2e-05
2206	1.76e-05
2218	2.64e-05
2230	2.64e-05
2242	1.76e-05
2254	3.08e-05
2266	7.04e-05
2278	5.72e-05
2290	5.72e-05
2302	8.36e-05
2314	0.00011
2326	9.24e-05
2338	7.04e-05
2350	9.24e-05
2362	6.6e-05
2374	7.04e-05
2386	0.0001144
2398	0.0001144
2410	0.0001188
2422	0.0001056
2434	6.6e-05
2446	7.04e-05
2458	8.36e-05
2470	8.36e-05
2482	5.72e-05
2494	8.8e-05
2506	0.0001188
2518	0.0001408
2530	0.000154
2542	0.0001584
2554	0.0001848
2566	0.0001848
2578	0.0001716
2590	0.0002112
2602	0.0002464
2614	0.0002904
2626	0.0003476
2638	0.0003476
2650	0.0002772
2662	0.0002992
2674	0.0003256
2686	0.0003432
2698	0.000352
2710	0.0004268
2722	0.000638
2734	0.0006644
2746	0.0005896
2758	0.0006688
2770	0.0006644
2782	0.0007524
2794	0.0008492
2806	0.0010428
2818	0.0014256
2830	0.0021912
2842	0.0037796
2854	0.006666
2866	0.0106348
2878	0.0131032
2890	0.012606
2902	0.014586
2914	0.0197208
2926	0.0206712
2938	0.0211112
2950	0.0328108
2962	0.044
2974	0.030074
2986	0.00957
2998	0.0035992
3010	0.0035596
3022	0.0065868
3034	0.0105116
3046	0.0073744
3058	0.0064416
3070	0.0097284
3082	0.0073832
3094	0.0048048
3106	0.0027104
3118	0.0015004
3130	0.0008712
3142	0.000704
3154	0.0007084
3166	0.0006688
3178	0.0006336
3190	0.000616
3202	0.0006248
3214	0.0005632
3226	0.000528
3238	0.000484
3250	0.0004224
3262	0.000286
3274	0.000198
3286	0.0002112
3298	0.0002112
3310	0.0001804
3322	0.00022
3334	0.0002464
3346	0.0002552
3358	0.000242
3370	0.0002288
3382	0.000176
3394	0.0001672
3406	0.0001232
3418	9.24e-05
3430	0.0001056
3442	0.0001012
3454	0.0001012
3466	7.48e-05
3478	7.04e-05
3490	7.48e-05
3502	5.28e-05
3514	4.84e-05
3526	4.4e-06
3538	4.4e-05
3550	7.48e-05
3562	4.4e-05
3574	5.28e-05
3586	1.76e-05
3598	8.36e-05
3610	7.92e-05
3622	0.0001012
3634	8.8e-05
3646	9.68e-05
3658	0.0001056
3670	0.000132
3682	0.00011
3694	8.36e-05
3706	6.16e-05
3718	0.0001144
3730	9.24e-05
3742	4.4e-05
3754	8.36e-05
3766	0.0001408
3778	0.0001496
3790	0.000154
3802	0.0001276
3814	0.0001584
3826	0.0001188
3838	0.0001056
