Infrared Spectrum: Triisobutyl aconitate
Formula: C18 H30 O6
CAS: 10089-45-9
State: SOLUTION (10% CCl4 FOR 2.7-7.5, 10% CS2 FOR 7.5-26 MICRON) VS SOLVENT
Class: COBLENTZ III
Instrument: DOW KBr FOREPRISM-GRATING
Instrument parameters: BLAZED AT 3.5, 12.0, 20.0 MICRON AND CHANGED AT 5.0, 7.5, 14.9 MICRON
Sampling: TRANSMISSION
Path length: 0.011 CM, 0.011 CM
Resolution: 2
Origin: DOW CHEMICAL COMPANY
1/CM	TRANSMITTANCE
3800	0.865
3791	0.8649
3782	0.865
3773	0.8659
3764	0.8668
3755	0.8677
3746	0.8685
3737	0.8689
3728	0.8691
3719	0.8692
3710	0.8694
3701	0.8701
3692	0.8708
3683	0.8715
3674	0.8721
3665	0.8728
3656	0.8735
3647	0.8741
3638	0.8748
3629	0.8757
3620	0.8766
3611	0.8775
3602	0.8784
3593	0.8789
3584	0.8795
3575	0.88
3566	0.8806
3557	0.881
3548	0.8815
3539	0.882
3530	0.8832
3521	0.8845
3512	0.8857
3503	0.8865
3494	0.8873
3485	0.8878
3476	0.8882
3467	0.8871
3458	0.8838
3449	0.8801
3440	0.8755
3431	0.8701
3422	0.8646
3413	0.8601
3404	0.8691
3395	0.8784
3386	0.884
3377	0.8859
3368	0.8871
3359	0.8884
3350	0.8908
3341	0.8934
3332	0.8957
3323	0.8984
3314	0.9021
3305	0.9037
3296	0.9048
3287	0.9056
3278	0.9065
3269	0.9071
3260	0.9077
3251	0.9081
3242	0.9083
3233	0.9082
3224	0.9075
3215	0.9058
3206	0.8996
3197	0.892
3188	0.8884
3179	0.8859
3170	0.8849
3161	0.8859
3152	0.8871
3143	0.8878
3134	0.8884
3125	0.8886
3116	0.8887
3107	0.8886
3098	0.8881
3089	0.8862
3080	0.8823
3071	0.876
3062	0.8725
3053	0.8693
3044	0.8654
3035	0.8564
3026	0.8477
3017	0.8268
3008	0.7889
2999	0.7044
2990	0.5092
2981	0.2581
2972	0.0878
2963	0.0335
2954	0.0324
2945	0.1487
2936	0.1853
2927	0.2207
2918	0.3429
2909	0.3634
2900	0.3718
2891	0.343
2882	0.3618
2873	0.2158
2864	0.4694
2855	0.637
2846	0.7424
2837	0.7731
2828	0.7826
2819	0.7985
2810	0.8107
2801	0.8299
2792	0.8468
2783	0.8507
2774	0.8546
2765	0.8577
2756	0.8578
2747	0.8566
2738	0.8543
2729	0.8485
2720	0.8413
2711	0.8502
2702	0.8638
2693	0.8709
2684	0.8753
2675	0.8768
2666	0.8733
2657	0.8701
2648	0.8704
2639	0.8708
2630	0.8718
2621	0.873
2612	0.8743
2603	0.8756
2594	0.8766
2585	0.8743
2576	0.8724
2567	0.8735
2558	0.8771
2549	0.8781
2540	0.8789
2531	0.8791
2522	0.8794
2513	0.8796
2504	0.8797
2495	0.8797
2486	0.8799
2477	0.881
2468	0.8821
2459	0.8827
2450	0.8832
2441	0.8837
2432	0.8841
2423	0.8844
2414	0.8841
2405	0.8814
2396	0.8774
2387	0.8718
2378	0.871
2369	0.871
2360	0.8712
2351	0.8712
2342	0.8711
2333	0.8704
2324	0.8697
2315	0.8689
2306	0.8683
2297	0.8689
2288	0.8716
2279	0.8746
2270	0.8762
2261	0.8774
2252	0.8792
2243	0.8812
2234	0.8821
2225	0.8828
2216	0.8836
2207	0.8834
2198	0.8821
2189	0.8801
2180	0.8796
2171	0.8848
2162	0.8736
2153	0.8732
2144	0.8728
2135	0.8725
2126	0.8723
2117	0.8721
2108	0.873
2099	0.8743
2090	0.8767
2081	0.8792
2072	0.8804
2063	0.8804
2054	0.8793
2045	0.8781
2036	0.8775
2027	0.8767
2018	0.8758
2009	0.8755
2000	0.8753
1991	0.8752
1982	0.875
1973	0.8748
1964	0.8738
1955	0.8717
1946	0.8702
1937	0.8688
1928	0.8674
1919	0.866
1910	0.866
1901	0.8662
1892	0.8668
1883	0.8673
1874	0.8671
1865	0.8663
1856	0.8647
1847	0.862
1838	0.856
1829	0.848
1820	0.8391
1811	0.8273
1802	0.8111
1793	0.7904
1784	0.7654
1775	0.7353
1766	0.6771
1757	0.4403
1748	0.2521
1739	0.019
1730	0.007
1721	0.0041
1712	0.0036
1703	0.2218
1694	0.4339
1685	0.5508
1676	0.5971
1667	0.6374
1658	0.5058
1649	0.3953
1640	0.6133
1631	0.7499
1622	0.7865
1613	0.8096
1604	0.8246
1595	0.8335
1586	0.838
1577	0.8391
1568	0.8381
1559	0.8404
1550	0.8453
1541	0.8488
1532	0.8478
1523	0.839
1514	0.8286
1505	0.8111
1496	0.7897
1487	0.7504
1478	0.6069
1469	0.1311
1460	0.338
1451	0.4808
1442	0.6002
1433	0.7042
1424	0.7021
1415	0.4732
1406	0.5394
1397	0.2926
1388	0.4743
1379	0.1296
1370	0.1618
1361	0.4503
1352	0.4976
1343	0.3762
1334	0.481
1325	0.2817
1316	0.0896
1307	0.3392
1298	0.2119
1289	0.1965
1280	0.0394
1271	0.0064
1262	0.0267
1253	0.129
1244	0.1438
1235	0.1337
1226	0.1535
1217	0.1218
1208	0.1311
1199	0.1045
1190	0.0439
1181	0.0196
1172	0.0094
1163	0.0072
1154	0.0082
1145	0.1657
1136	0.4785
1127	0.5739
1118	0.636
1109	0.6224
1100	0.3291
1091	0.2237
1082	0.4348
1073	0.6794
1064	0.7698
1055	0.7905
1046	0.798
1037	0.7635
1028	0.5674
1019	0.1031
1010	0.0716
1001	0.1295
992	0.4133
983	0.5214
974	0.7197
965	0.6143
956	0.661
947	0.5573
938	0.5625
929	0.5827
920	0.5722
911	0.5232
902	0.5298
893	0.7125
884	0.7587
875	0.77
866	0.8225
857	0.8599
848	0.8645
839	0.8087
830	0.744
821	0.7306
812	0.8506
803	0.8456
794	0.7545
785	0.3891
776	0.7115
767	0.791
758	0.8504
749	0.8688
740	0.8902
731	0.8953
722	0.9089
713	0.9212
704	0.9275
695	0.9181
686	0.9162
677	0.9108
668	0.8859
659	0.8877
650	0.8623
641	0.8766
632	0.8871
623	0.8866
614	0.8651
605	0.8435
596	0.8363
587	0.839
578	0.8399
569	0.8316
560	0.8307
551	0.841
542	0.8521
533	0.8608
524	0.8542
515	0.8521
506	0.8521
497	0.8524
488	0.8525
479	0.8514
470	0.8456
461	0.8362
452	0.8256
443	0.8133
434	0.7919
425	0.7854
416	0.7847
407	0.785
398	0.7867
