Infrared Spectrum: 3-Phenylpyridine
Formula: C 11 H 9 N
CAS: 1008-88-4
State: gas
Instrument: HP-GC/MS/IRD
Origin: NIST Mass Spectrometry Data Center
1/CM	ABSORBANCE
550	0.0006111
562	0.0005544
574	0.0001467
586	5.13e-05
598	0.000243
610	0.0004347
622	0.0004392
634	0.0013311
646	0.0010413
658	0.0006813
670	0.0012987
682	0.0031293
694	0.0069138
706	0.009
718	0.0063072
730	0.0038106
742	0.0057078
754	0.0087354
766	0.004554
778	0.0014724
790	0.0010098
802	0.0016434
814	0.0014157
826	0.0005985
838	0.0003753
850	0.0002502
862	0.0001908
874	0.0001953
886	0.0002898
898	0.0004968
910	0.0004473
922	0.0003357
934	0.0002007
946	0.0002079
958	0.0002538
970	0.0002943
982	0.000594
994	0.0016893
1006	0.0029835
1018	0.0019107
1030	0.0016884
1042	0.0007623
1054	0.0004635
1066	0.0007335
1078	0.0006849
1090	0.0005454
1102	0.0005148
1114	0.0005337
1126	0.0004896
1138	0.0002979
1150	0.0001116
1162	0.0003294
1174	0.0012114
1186	0.0013878
1198	0.0006741
1210	0.0003204
1222	0.0003078
1234	0.0003141
1246	0.0001836
1258	0.0001431
1270	0.0002151
1282	0.0002781
1294	0.0003915
1306	0.0004977
1318	0.0006768
1330	0.0006777
1342	0.0004878
1354	0.0004311
1366	0.000549
1378	0.0007578
1390	0.0012789
1402	0.0037881
1414	0.0037539
1426	0.0013239
1438	0.0015291
1450	0.0026334
1462	0.0034416
1474	0.0049086
1486	0.0018144
1498	0.0008001
1510	0.0004401
1522	0.0003636
1534	0.0004383
1546	0.0005886
1558	0.0011448
1570	0.0017325
1582	0.0016947
1594	0.001548
1606	0.0010566
1618	0.0006111
1630	0.0003168
1642	0.0002448
1654	0.0002907
1666	0.0003591
1678	0.0001845
1690	0.0001818
1702	0.0001962
1714	0.0002205
1726	0.000297
1738	0.0003843
1750	0.0003798
1762	0.000279
1774	0.000252
1786	0.0004023
1798	0.0005175
1810	0.0003258
1822	0.0002385
1834	0.0002007
1846	0.000243
1858	0.000441
1870	0.0006048
1882	0.0006858
1894	0.0007434
1906	0.0005346
1918	0.0004437
1930	0.0005661
1942	0.0006003
1954	0.0006498
1966	0.0003321
1978	9.18e-05
1990	9.09e-05
2002	5.04e-05
2014	4.05e-05
2026	7.74e-05
2038	6.3e-05
2050	7.11e-05
2062	4.59e-05
2074	4.95e-05
2086	6.12e-05
2098	5.04e-05
2110	4.86e-05
2122	6.12e-05
2134	5.04e-05
2146	5.49e-05
2158	2.97e-05
2170	4.05e-05
2182	5.58e-05
2194	5.76e-05
2206	4.77e-05
2218	6.93e-05
2230	6.84e-05
2242	9.18e-05
2254	7.65e-05
2266	5.94e-05
2278	4.68e-05
2290	4.59e-05
2302	6.48e-05
2314	9.54e-05
2326	0.000108
2338	0.0001143
2350	0.0001224
2362	0.0001143
2374	9.45e-05
2386	6.12e-05
2398	9.09e-05
2410	9.18e-05
2422	8.01e-05
2434	6.93e-05
2446	7.74e-05
2458	6.93e-05
2470	1.71e-05
2482	4.77e-05
2494	1.8e-05
2506	6.12e-05
2518	5.04e-05
2530	7.56e-05
2542	7.02e-05
2554	7.2e-05
2566	4.68e-05
2578	7.29e-05
2590	0.0001206
2602	0.0001314
2614	0.0001062
2626	5.94e-05
2638	6.21e-05
2650	8.64e-05
2662	5.94e-05
2674	5.85e-05
2686	6.57e-05
2698	4.5e-05
2710	5.85e-05
2722	4.59e-05
2734	9.45e-05
2746	4.86e-05
2758	4.68e-05
2770	8.64e-05
2782	5.94e-05
2794	0.0001008
2806	0.000126
2818	7.65e-05
2830	8.82e-05
2842	0.0001278
2854	0.0001422
2866	0.0001962
2878	0.0002061
2890	0.0002556
2902	0.0002385
2914	0.0002358
2926	0.0002439
2938	0.0002862
2950	0.0003969
2962	0.0004446
2974	0.000486
2986	0.0005976
2998	0.0009783
3010	0.001872
3022	0.0036774
3034	0.0066762
3046	0.0070578
3058	0.007254
3070	0.0073908
3082	0.0056538
3094	0.0040473
3106	0.0020565
3118	0.000972
3130	0.0006093
3142	0.0004518
3154	0.000306
3166	0.0001233
3178	0.0001431
3190	3.6e-05
3202	0.0001116
3214	9.99e-05
3226	2.52e-05
3238	0
3250	5.94e-05
3262	3.96e-05
3274	0.0001044
3286	9.09e-05
3298	6.21e-05
3310	0.0001179
3322	8.82e-05
3334	2.88e-05
3346	7.56e-05
3358	5.49e-05
3370	9.81e-05
3382	4.77e-05
3394	0.0001188
3406	9.36e-05
3418	3.87e-05
3430	6.03e-05
3442	8.64e-05
3454	0.0001197
3466	8.28e-05
3478	9e-05
3490	9.18e-05
3502	6.66e-05
3514	7.47e-05
3526	5.22e-05
3538	6.48e-05
3550	0.0001107
3562	7.83e-05
3574	6.57e-05
3586	8.73e-05
3598	9.18e-05
3610	6.57e-05
3622	5.49e-05
3634	0.000108
3646	0.0001764
3658	0.0001935
3670	0.0001467
3682	0.0001314
3694	0.000126
3706	0.0001566
3718	0.0001719
3730	0.0001746
3742	0.0001539
3754	8.28e-05
3766	0.0001431
3778	0.0001179
3790	0.0001233
3802	0.0001026
3814	0.0001539
3826	7.92e-05
3838	0.0001638
