Infrared Spectrum: PYRIDINE, 2-PHENYL-
Formula: C11 H9 N
CAS: 1008-89-5
State: SOLUTION (10% CCl4 FOR 3800-1330, 10% CS2 FOR 1330-450 CM^-^1)
Class: COBLENTZ III
Instrument: DOW KBr FOREPRISM-GRATING
Instrument parameters: BLAZED AT 3.5, 12.0, 20.0 MICRON AND CHANGED AT 5.0, 7.5, 14.9 MICRON
Sampling: TRANSMISSION
Path length: 0.011 CM, 0.011 CM
Resolution: 2
Origin: DOW CHEMICAL COMPANY
1/CM	TRANSMITTANCE
459	0.8008
468	0.8031
477	0.8065
486	0.8328
495	0.869
504	0.8918
513	0.9035
522	0.9087
531	0.9095
540	0.8999
549	0.8552
558	0.8978
567	0.9216
576	0.9314
585	0.9375
594	0.9388
603	0.9217
612	0.4802
621	0.6657
630	0.8998
639	0.6575
648	0.8723
657	0.8728
666	0.8788
675	0.886
684	0.7842
693	0.0837
702	0.5688
711	0.8348
720	0.8646
729	0.7248
738	0.0621
747	0
756	0.5167
765	0.8618
774	0.849
783	0.8535
792	0.8558
801	0.576
810	0.9041
819	0.9528
828	0.9433
837	0.9059
846	0.8477
855	0.7986
864	0.8264
873	0.8532
882	0.8447
891	0.9358
900	0.9427
909	0.9495
918	0.7784
927	0.9714
936	0.9874
945	0.988
954	0.9614
963	0.9555
972	0.9494
981	0.8864
990	0.6775
999	0.895
1008	0.9271
1017	0.8165
1026	0.7448
1035	0.9463
1044	0.9421
1053	0.9717
1062	0.9011
1071	0.6648
1080	0.9167
1089	0.9365
1098	0.8312
1107	0.9698
1116	0.9959
1125	0.9871
1134	0.9784
1143	0.9018
1152	0.5024
1161	0.912
1170	0.9397
1179	0.803
1188	0.9409
1197	0.9694
1206	0.9847
1215	0.9758
1224	0.9785
1233	0.9462
1242	0.9018
1251	0.9521
1260	0.9323
1269	0.7268
1278	0.9295
1287	0.895
1296	0.596
1305	0.9027
1314	0.8792
1323	0.9455
1332	0.9324
1341	0.9515
1350	0.9471
1359	0.9282
1368	0.9321
1377	0.9271
1386	0.8989
1395	0.9138
1404	0.9104
1413	0.8528
1422	0.558
1431	0.3697
1440	0.7333
1449	0.2656
1458	0.5615
1467	0.365
1476	0.2579
1485	0.7536
1494	0.8361
1503	0.6922
1512	0.786
1521	0.7439
1530	0.699
1539	0.5883
1548	0.4868
1557	0.4448
1566	0.2559
1575	0.3886
1584	0.0843
1593	0.3809
1602	0.4719
1611	0.6951
1620	0.7535
1629	0.8126
1638	0.8659
1647	0.8864
1656	0.8881
1665	0.8953
1674	0.9156
1683	0.9143
1692	0.943
1701	0.9423
1710	0.9398
1719	0.9253
1728	0.9537
1737	0.9666
1746	0.9571
1755	0.9416
1764	0.931
1773	0.9471
1782	0.972
1791	0.9767
1800	0.9704
1809	0.937
1818	0.9718
1827	0.9757
1836	0.9694
1845	0.966
1854	0.981
1863	0.9832
1872	0.9602
1881	0.9497
1890	0.9482
1899	0.9528
1908	0.9574
1917	0.9498
1926	0.9796
1935	0.9589
1944	0.8862
1953	0.9141
1962	0.9467
1971	0.927
1980	0.9648
1989	0.9875
1998	0.9994
2007	1.0188
2016	1.021
2025	1.0225
2034	1.0235
2043	1.0252
2052	1.0259
2061	1.0265
2070	1.0281
2079	1.0293
2088	1.0304
2097	1.0306
2106	1.0313
2115	1.0318
2124	1.032
2133	1.0314
2142	1.031
2151	1.0309
2160	1.0309
2169	1.0312
2178	1.0313
2187	1.0307
2196	1.0298
2205	1.0336
2214	1.0375
2223	1.0387
2232	1.0374
2241	1.0354
2250	1.0324
2259	1.0286
2268	1.024
2277	1.0189
2286	1.0139
2295	1.01
2304	1.0073
2313	1.0063
2322	1.0136
2331	1.0318
2340	1.0339
2349	1.0347
2358	1.035
2367	1.0346
2376	1.034
2385	1.0336
2394	1.0335
2403	1.0333
2412	1.0328
2421	1.0314
2430	1.0312
2439	1.0297
2448	1.0268
2457	1.0255
2466	1.0247
2475	1.0241
2484	1.0228
2493	1.0212
2502	1.0197
2511	1.0183
2520	1.0168
2529	1.0152
2538	1.0142
2547	1.0135
2556	1.013
2565	1.0123
2574	1.0113
2583	1.0102
2592	1.0088
2601	1.0075
2610	1.0073
2619	1.0073
2628	1.0068
2637	1.0061
2646	1.005
2655	1.0036
2664	1.0021
2673	1.0008
2682	0.9987
2691	0.9963
2700	0.9941
2709	0.9916
2718	0.9889
2727	0.9861
2736	0.9841
2745	0.9821
2754	0.9807
2763	0.9793
2772	0.9778
2781	0.9762
2790	0.9745
2799	0.9728
2808	0.9712
2817	0.9694
2826	0.966
2835	0.9599
2844	0.9511
2853	0.9405
2862	0.9405
2871	0.9417
2880	0.9355
2889	0.9261
2898	0.9221
2907	0.9031
2916	0.8818
2925	0.8732
2934	0.8738
2943	0.8824
2952	0.8962
2961	0.8985
2970	0.8959
2979	0.8917
2988	0.8842
2997	0.8387
3006	0.7656
3015	0.5906
3024	0.6717
3033	0.613
3042	0.5186
3051	0.5919
3060	0.5324
3069	0.4512
3078	0.4968
3087	0.6293
3096	0.5754
3105	0.8233
3114	0.8493
3123	0.8932
3132	0.8958
3141	0.8967
3150	0.8995
3159	0.9013
3168	0.902
3177	0.9028
3186	0.9039
3195	0.9046
3204	0.9055
3213	0.9065
3222	0.9074
3231	0.9077
3240	0.9078
3249	0.907
3258	0.9056
3267	0.9041
3276	0.9028
3285	0.9008
3294	0.8985
3303	0.8957
3312	0.8923
3321	0.8889
3330	0.8855
3339	0.8824
3348	0.8796
3357	0.8768
3366	0.8744
3375	0.8725
3384	0.8723
3393	0.8734
3402	0.8757
3411	0.878
3420	0.8806
3429	0.8833
3438	0.8859
3447	0.8902
3456	0.8946
3465	0.8992
3474	0.904
3483	0.9088
3492	0.9133
3501	0.9174
3510	0.9216
3519	0.9262
3528	0.9311
3537	0.9359
3546	0.9415
3555	0.9471
3564	0.9521
3573	0.9568
3582	0.9612
3591	0.9652
3600	0.9691
3609	0.9711
3618	0.9711
3627	0.97
3636	0.9675
3645	0.9642
3654	0.9603
3663	0.9578
3672	0.966
3681	0.9763
3690	0.9813
3699	0.9854
3708	0.9883
3717	0.9904
3726	0.9918
3735	0.9921
3744	0.9915
3753	0.9901
3762	0.9897
3771	0.9897
3780	0.9892
3789	0.9859
3798	0.9825
