Infrared Spectrum: 5-(4-Aminophenyl)oxazole
Formula: C 9 H 8 N 2 O
CAS: 1008-95-3
State: gas
Origin: EPA-IR VAPOR PHASE LIBRARY
1/CM	ABSORBANCE
549.8	0.00418
559.445	0.00434
569.09	0.00435
578.734	0.00407
588.379	0.00426
598.024	0.00515
607.669	0.00928
617.313	0.01388
626.958	0.01054
636.603	0.01367
646.248	0.01307
655.893	0.0116
665.537	0.0121
675.182	0.01273
684.827	0.01151
694.472	0.00826
704.116	0.00634
713.761	0.00572
723.406	0.00482
733.051	0.00473
742.695	0.00421
752.34	0.00433
761.985	0.00411
771.63	0.00459
781.275	0.00514
790.919	0.00693
800.564	0.01072
810.209	0.01787
819.854	0.02148
829.498	0.01723
839.143	0.01137
848.788	0.00667
858.433	0.00456
868.078	0.00328
877.722	0.00267
887.367	0.00312
897.012	0.00357
906.657	0.0054
916.301	0.00557
925.946	0.00477
935.591	0.00996
945.236	0.00925
954.88	0.00446
964.525	0.00357
974.17	0.00265
983.815	0.00316
993.46	0.00242
1003.1	0.00271
1012.75	0.00391
1022.39	0.00423
1032.04	0.00418
1041.68	0.0048
1051.33	0.00485
1060.97	0.00397
1070.62	0.00441
1080.26	0.00797
1089.91	0.01425
1099.55	0.02762
1109.2	0.01999
1118.84	0.00579
1128.49	0.00351
1138.13	0.0046
1147.78	0.00248
1157.42	0.0010481
1167.07	0.00201
1176.71	0.00898
1186.36	0.01069
1196	0.00342
1205.64	0.001263
1215.29	0.000268
1224.93	0.00177
1234.58	0.0014351
1244.22	0.00302
1253.87	0.00453
1263.51	0.012
1273.16	0.02545
1282.8	0.0272
1292.45	0.01092
1302.09	0.00324
1311.74	0.00206
1321.38	0.00218
1331.03	0.00253
1340.67	0.00208
1350.32	0.00165
1359.96	0.0013418
1369.61	0.0012051
1379.25	0.0011107
1388.9	0.0011912
1398.54	0.0013729
1408.18	0.00155
1417.83	0.00248
1427.47	0.00339
1437.12	0.00371
1446.76	0.00401
1456.41	0.00419
1466.05	0.00422
1475.7	0.00685
1485.34	0.02115
1494.99	0.04299
1504.63	0.02672
1514.28	0.02036
1523.92	0.01421
1533.57	0.00455
1543.21	0.00375
1552.86	0.00389
1562.5	0.00413
1572.15	0.00479
1581.79	0.00537
1591.44	0.00815
1601.08	0.01152
1610.73	0.02166
1620.37	0.03884
1630.01	0.03765
1639.66	0.02241
1649.3	0.00966
1658.95	0.00534
1668.59	0.00404
1678.24	0.00319
1687.88	0.00263
1697.53	0.00234
1707.17	0.00198
1716.82	0.00187
1726.46	0.00156
1736.11	0.0014151
1745.75	0.0013083
1755.4	0.0012463
1765.04	0.0010322
1774.69	0.0009256
1784.33	0.0010547
1793.98	0.001213
1803.62	0.0010998
1813.27	0.0009446
1822.91	0.0012464
1832.55	0.001241
1842.2	0.0013142
1851.84	0.0012573
1861.49	0.00178
1871.13	0.00211
1880.78	0.00236
1890.42	0.00201
1900.07	0.0013121
1909.71	0.0012617
1919.36	0.0011163
1929	0.0013849
1938.65	0.0013328
1948.29	0.0011755
1957.94	0.0013552
1967.58	0.0011841
1977.23	0.0012117
1986.87	0.0012379
1996.52	0.001182
2006.16	0.0012595
2015.81	0.0013022
2025.45	0.0014509
2035.1	0.0014839
2044.74	0.0011613
2054.38	0.0014302
2064.03	0.0012589
2073.67	0.0012242
2083.32	0.0014232
2092.96	0.001248
2102.61	0.0013231
2112.25	0.0011772
2121.9	0.001001
2131.54	0.0012245
2141.19	0.0010054
2150.83	0.0009205
2160.48	0.001153
2170.12	0.0014402
2179.77	0.0013617
2189.41	0.0014202
2199.06	0.0014403
2208.7	0.001214
2218.35	0.0008293
2227.99	0.0010208
2237.64	0.0011014
2247.28	0.0009815
2256.92	0.0007752
2266.57	0.0011054
2276.21	0.0008557
2285.86	0.0009541
2295.5	0.0010944
2305.15	0.0013794
2314.79	0.0013091
2324.44	0.0012676
2334.08	0.0013317
2343.73	0.0011648
2353.37	0.0012155
2363.02	0.0010793
2372.66	0.001287
2382.31	0.0010287
2391.95	0.0010944
2401.6	0.000921
2411.24	0.0009592
2420.89	0.0011697
2430.53	0.0010121
2440.18	0.0010126
2449.82	0.0010553
2459.47	0.0010087
2469.11	0.0009527
2478.75	0.0009438
2488.4	0.001068
2498.04	0.0010378
2507.69	0.0010833
2517.33	0.001165
2526.98	0.0009465
2536.62	0.001483
2546.27	0.0012279
2555.91	0.00174
2565.56	0.0013338
2575.2	0.0013646
2584.85	0.0014607
2594.49	0.0014417
2604.14	0.001195
2613.78	0.001407
2623.43	0.0012839
2633.07	0.0012096
2642.72	0.0010738
2652.36	0.00087
2662.01	0.0007067
2671.65	0.0008159
2681.29	0.0007867
2690.94	0.0009257
2700.58	0.0011613
2710.23	0.0008579
2719.87	0.0010452
2729.52	0.0009664
2739.16	0.0009442
2748.81	0.0012725
2758.45	0.0011257
2768.1	0.0007925
2777.74	0.0009338
2787.39	0.0007181
2797.03	0.0008913
2806.68	0.0009013
2816.32	0.0010397
2825.97	0.0009074
2835.61	0.0012199
2845.26	0.0009197
2854.9	0.0008995
2864.55	0.00060378
2874.19	0.0010055
2883.84	0.0010187
2893.48	0.00092
2903.12	0.0012601
2912.77	0.001042
2922.41	0.0013052
2932.06	0.0014173
2941.7	0.0008876
2951.35	0.0010055
2960.99	0.0012075
2970.64	0.0011661
2980.28	0.00186
2989.93	0.00177
2999.57	0.00261
3009.22	0.00314
3018.86	0.0039
3028.51	0.00654
3038.15	0.00891
3047.8	0.00624
3057.44	0.00386
3067.09	0.00309
3076.73	0.00303
3086.38	0.00308
3096.02	0.00237
3105.67	0.00188
3115.31	0.0014609
3124.95	0.00164
3134.6	0.00247
3144.24	0.00233
3153.89	0.0014484
3163.53	0.00178
3173.18	0.0011133
3182.82	0.0013708
3192.47	0.0011399
3202.11	0.00158
3211.76	0.0013484
3221.4	0.00163
3231.05	0.00193
3240.69	0.00155
3250.34	0.00175
3259.98	0.0009643
3269.63	0.0012652
3279.27	0.0012042
3288.92	0.0010488
3298.56	0.0010189
3308.21	0.001079
3317.85	0.0007157
3327.49	0.000958
3337.14	0.0013328
3346.78	0.0008295
3356.43	0.0008846
3366.07	0.0009396
3375.72	0.0012787
3385.36	0.00153
3395.01	0.00277
3404.65	0.00444
3414.3	0.00554
3423.94	0.00478
3433.59	0.00251
3443.23	0.00163
3452.88	0.0014355
3462.52	0.001278
3472.17	0.00176
3481.81	0.00264
3491.46	0.00231
3501.1	0.00272
3510.75	0.00235
3520.39	0.00223
3530.04	0.0008833
3539.68	0.0012564
3549.32	0.0008579
3558.97	0.0007211
3568.61	0.001024
3578.26	0.0011478
3587.9	0.0007893
3597.55	0.0007596
3607.19	0.0010616
3616.84	0.000524595
3626.48	0.0009561
3636.13	0.00055504
3645.77	0.0006444
3655.42	0.0006994
3665.06	0.0006645
3674.71	0.0011871
3684.35	0.0009754
3694	0.0008406
3703.64	0.0008696
3713.29	0.0014048
3722.93	0.0009413
3732.58	0.0011653
3742.22	0.0013208
3751.86	0.0007502
3761.51	0.0008358
3771.15	0.0006834
3780.8	0.000412
3790.44	0.0012334
3800.09	0.0009671
3809.73	0.00087
3819.38	0.0010973
3829.02	0.000999
3838.67	0.0014305
3848.31	0.00165
3857.96	0.0013253
3867.6	0.0011845
3877.25	0.0013909
3886.89	0.00055445
3896.54	0.0008954
3906.18	0.0007576
3915.83	0.0008394
3925.47	0.0011847
3935.12	0.001152
3944.76	0.0008081
3954.41	0.0012478
3964.05	0.0012247
3973.69	0.0007803
3983.34	0.0012611
3992.98	0.0008326
