Infrared Spectrum: NONANEDIOIC ACID, BIS(8,8-DIMETHYL-2-OXABICYCLO[4.2.0]OCTAN-7-YL) ESTER
Formula: C27 H44 O6
CAS: 100996-43-8
Class: COBLENTZ
Instrument: Not specified, most likely a prism, grating, or hybrid spectrometer.
Sampling: TRANSMISSION
Path length: SMEAR
Resolution: 4
Origin: TENNESSEE EASTMAN COMPANY, RESEARCH LABORATORIES
MICROMETERS	TRANSMITTANCE
2.048	0.984
2.08891	0.984
2.12983	0.986
2.17074	0.986
2.21166	0.986
2.25257	0.97
2.29349	0.923
2.3344	0.921
2.37532	0.93
2.41623	0.931
2.45715	0.936
2.49806	0.941
2.53898	0.947
2.57989	0.952
2.62081	0.955
2.66172	0.96
2.70264	0.964
2.74355	0.964
2.78447	0.964
2.82538	0.953
2.8663	0.941
2.90721	0.907
2.94813	0.907
2.98904	0.919
3.02996	0.912
3.07087	0.895
3.11179	0.887
3.1527	0.875
3.19362	0.858
3.23453	0.861
3.27545	0.854
3.31636	0.769
3.35728	0.225
3.39819	0.035
3.43911	0.16
3.48002	0.083
3.52094	0.322
3.56185	0.715
3.60277	0.807
3.64368	0.834
3.6846	0.757
3.72551	0.82
3.76643	0.848
3.80734	0.854
3.84826	0.883
3.88917	0.923
3.93009	0.931
3.971	0.936
4.01192	0.943
4.05283	0.948
4.09374	0.953
4.13466	0.953
4.17557	0.953
4.21649	0.952
4.2574	0.95
4.29832	0.933
4.33923	0.928
4.38015	0.943
4.42106	0.955
4.46198	0.953
4.50289	0.953
4.54381	0.957
4.58472	0.96
4.62564	0.953
4.66655	0.95
4.70747	0.948
4.74838	0.941
4.7893	0.94
4.83021	0.95
4.87113	0.95
4.91204	0.948
4.95296	0.95
4.99387	0.952
5.03479	0.952
5.0757	0.95
5.11662	0.948
5.15753	0.952
5.19845	0.952
5.23936	0.948
5.28028	0.948
5.32119	0.95
5.36211	0.943
5.40302	0.933
5.44394	0.914
5.48485	0.894
5.52577	0.863
5.56668	0.82
5.6076	0.737
5.64851	0.629
5.68943	0.322
5.73034	0.037
5.77126	0.029
5.81217	0.136
5.85309	0.395
5.894	0.539
5.93492	0.646
5.97583	0.762
6.01675	0.802
6.05766	0.837
6.09858	0.858
6.13949	0.872
6.1804	0.889
6.22132	0.904
6.26223	0.916
6.30315	0.924
6.34406	0.924
6.38498	0.921
6.42589	0.911
6.46681	0.914
6.50772	0.904
6.54864	0.902
6.58955	0.889
6.63047	0.861
6.67138	0.848
6.7123	0.749
6.75321	0.542
6.79413	0.238
6.83504	0.242
6.87596	0.308
6.91687	0.325
6.95779	0.365
6.9987	0.477
7.03962	0.45
7.08053	0.617
7.12145	0.624
7.16236	0.496
7.20328	0.351
7.24419	0.261
7.28511	0.24
7.32602	0.247
7.36694	0.324
7.40785	0.365
7.44877	0.324
7.48968	0.349
7.5306	0.37
7.57151	0.343
7.61243	0.332
7.65334	0.344
7.69426	0.31
7.73517	0.271
7.77609	0.3
7.817	0.261
7.85792	0.25
7.89883	0.215
7.93975	0.16
7.98066	0.114
8.02158	0.102
8.06249	0.114
8.10341	0.139
8.14432	0.156
8.18523	0.158
8.22615	0.15
8.26706	0.139
8.30798	0.093
8.34889	0.092
8.38981	0.083
8.43072	0.059
8.47164	0.051
8.51255	0.044
8.55347	0.046
8.59438	0.061
8.6353	0.088
8.67621	0.122
8.71713	0.17
8.75804	0.18
8.79896	0.174
8.83987	0.156
8.88079	0.097
8.9217	0.08
8.96262	0.105
9.00353	0.1
9.04445	0.129
9.08536	0.155
9.12628	0.17
9.16719	0.184
9.20811	0.189
9.24902	0.155
9.28994	0.092
9.33085	0.092
9.37177	0.124
9.41268	0.11
9.4536	0.08
9.49451	0.069
9.53543	0.092
9.57634	0.151
9.61726	0.199
9.65817	0.276
9.69909	0.354
9.74	0.421
9.78092	0.441
9.82183	0.411
9.86275	0.373
9.90366	0.433
9.94458	0.52
9.98549	0.53
10.0264	0.428
10.0673	0.37
10.1082	0.431
10.1492	0.529
10.1901	0.566
10.231	0.6
10.2719	0.621
10.3128	0.619
10.3537	0.616
10.3946	0.619
10.4356	0.569
10.4765	0.505
10.5174	0.479
10.5583	0.486
10.5992	0.529
10.6401	0.556
10.681	0.559
10.722	0.556
10.7629	0.546
10.8038	0.508
10.8447	0.481
10.8856	0.455
10.9265	0.44
10.9674	0.435
11.0084	0.411
11.0493	0.373
11.0902	0.377
11.1311	0.45
11.172	0.511
11.2129	0.513
11.2539	0.511
11.2948	0.539
11.3357	0.59
11.3766	0.624
11.4175	0.638
11.4584	0.631
11.4993	0.587
11.5403	0.583
11.5812	0.624
11.6221	0.629
11.663	0.61
11.7039	0.633
11.7448	0.674
11.7857	0.699
11.8267	0.713
11.8676	0.711
11.9085	0.682
11.9494	0.663
11.9903	0.679
12.0312	0.72
12.0722	0.752
12.1131	0.767
12.154	0.781
12.1949	0.788
12.2358	0.796
12.2767	0.802
12.3176	0.805
12.3586	0.812
12.3995	0.815
12.4404	0.819
12.4813	0.82
12.5222	0.82
12.5631	0.822
12.604	0.822
12.645	0.822
12.6859	0.822
12.7268	0.819
12.7677	0.813
12.8086	0.803
12.8495	0.796
12.8904	0.79
12.9314	0.786
12.9723	0.784
13.0132	0.781
13.0541	0.776
13.095	0.771
13.1359	0.766
13.1769	0.755
13.2178	0.752
13.2587	0.749
13.2996	0.754
13.3405	0.764
13.3814	0.766
13.4223	0.755
13.4633	0.745
13.5042	0.716
13.5451	0.691
13.586	0.663
13.6269	0.643
13.6678	0.629
13.7087	0.627
13.7497	0.643
13.7906	0.667
13.8315	0.699
13.8724	0.721
13.9133	0.735
13.9542	0.745
13.9952	0.75
14.0361	0.752
14.077	0.754
14.1179	0.754
14.1588	0.752
14.1997	0.752
14.2406	0.752
14.2816	0.752
14.3225	0.759
14.3634	0.755
14.4043	0.755
14.4452	0.755
14.4861	0.755
14.527	0.754
14.568	0.752
14.6089	0.75
14.6498	0.747
14.6907	0.744
14.7316	0.74
14.7725	0.735
14.8134	0.728
14.8544	0.721
14.8953	0.708
14.9362	0.691
14.9771	0.679
15.018	0.677
15.0589	0.674
15.0999	0.674
15.1408	0.667
15.1817	0.662
15.2226	0.655
15.2635	0.648
15.3044	0.639
15.3453	0.631
15.3863	0.626
15.4272	0.621
15.4681	0.612
15.509	0.607
15.5499	0.604
15.5908	0.597
15.6317	0.597
15.6727	0.592
15.7136	0.585
15.7545	0.58
15.7954	0.576
15.8363	0.573
15.8772	0.569
15.9182	0.566
15.9591	0.563
16	0.563
