Infrared Spectrum: 1,3-DICHLORO-5,5-DIPHENYL HYDANTOIN
Formula: C15 H10 Cl2 N2 O2
CAS: 100965-46-6
State: SOLID (MINERAL OIL MULL)
Class: COBLENTZ
Instrument: Not specified, most likely a prism, grating, or hybrid spectrometer.
Sampling: TRANSMISSION
Resolution: 4
Origin: WYANDOTTE CHEMICALS CORP., WYANDOTTE, MICHIGAN, USA
MICROMETERS	TRANSMITTANCE
2.048	0.408
2.08889	0.422
2.12979	0.448
2.17068	0.459
2.21158	0.463
2.25247	0.468
2.29337	0.48
2.33426	0.495
2.37515	0.5
2.41605	0.509
2.45694	0.54
2.49784	0.557
2.53873	0.577
2.57962	0.591
2.62052	0.601
2.66141	0.616
2.70231	0.623
2.7432	0.635
2.7841	0.647
2.82499	0.621
2.86588	0.637
2.90678	0.633
2.94767	0.611
2.98857	0.582
3.02946	0.412
3.07035	0.148
3.11125	0.144
3.15214	0.149
3.19304	0.274
3.23393	0.339
3.27483	0.286
3.31572	0.369
3.35661	0.091
3.39751	0.061
3.4384	0.068
3.4793	0.069
3.52019	0.076
3.56108	0.386
3.60198	0.614
3.64287	0.72
3.68377	0.725
3.72466	0.701
3.76556	0.746
3.80645	0.77
3.84734	0.785
3.88824	0.804
3.92913	0.824
3.97003	0.85
4.01092	0.863
4.05181	0.87
4.09271	0.858
4.1336	0.862
4.1745	0.875
4.21539	0.879
4.25629	0.879
4.29718	0.863
4.33807	0.879
4.37897	0.894
4.41986	0.93
4.46076	0.938
4.50165	0.938
4.54255	0.95
4.58344	0.967
4.62433	0.96
4.66523	0.96
4.70612	0.971
4.74702	0.974
4.78791	0.974
4.8288	0.965
4.8697	0.991
4.91059	0.998
4.95149	0.976
4.99238	0.96
5.03328	0.967
5.07417	0.959
5.11506	0.913
5.15596	0.862
5.19685	0.93
5.23775	0.969
5.27864	0.89
5.31953	0.87
5.36043	0.872
5.40132	0.902
5.44222	0.899
5.48311	0.797
5.52401	0.695
5.5649	0.262
5.60579	0.08
5.64669	0.132
5.68758	0.109
5.72848	0.078
5.76937	0.066
5.81026	0.068
5.85116	0.129
5.89205	0.25
5.93295	0.383
5.97384	0.546
6.01474	0.613
6.05563	0.666
6.09652	0.705
6.13742	0.729
6.17831	0.746
6.21921	0.688
6.2601	0.734
6.30099	0.724
6.34189	0.788
6.38278	0.785
6.42368	0.809
6.46457	0.778
6.50547	0.798
6.54636	0.795
6.58725	0.773
6.62815	0.659
6.66904	0.257
6.70994	0.453
6.75083	0.442
6.79172	0.187
6.83262	0.134
6.87351	0.102
6.91441	0.114
6.9553	0.335
6.9962	0.432
7.03709	0.39
7.07798	0.286
7.11888	0.24
7.15977	0.228
7.20067	0.294
7.24156	0.241
7.28246	0.189
7.32335	0.226
7.36424	0.224
7.40514	0.224
7.44603	0.114
7.48693	0.081
7.52782	0.09
7.56871	0.134
7.60961	0.226
7.6505	0.405
7.6914	0.533
7.73229	0.548
7.77319	0.49
7.81408	0.543
7.85497	0.609
7.89587	0.621
7.93676	0.618
7.97766	0.538
8.01855	0.391
8.05944	0.219
8.10034	0.187
8.14123	0.318
8.18213	0.393
8.22302	0.417
8.26392	0.429
8.30481	0.477
8.3457	0.388
8.3866	0.207
8.42749	0.132
8.46839	0.141
8.50928	0.342
8.55017	0.557
8.59107	0.643
8.63196	0.591
8.67286	0.49
8.71375	0.477
8.75465	0.328
8.79554	0.129
8.83643	0.103
8.87733	0.27
8.91822	0.424
8.95912	0.458
9.00001	0.538
9.0409	0.611
9.0818	0.642
9.12269	0.701
9.16359	0.696
9.20448	0.468
9.24538	0.555
9.28627	0.582
9.32716	0.643
9.36806	0.746
9.40895	0.804
9.44985	0.79
9.49074	0.744
9.53164	0.776
9.57253	0.817
9.61342	0.722
9.65432	0.458
9.69521	0.436
9.73611	0.649
9.777	0.553
9.81789	0.306
9.85879	0.228
9.89968	0.567
9.94058	0.713
9.98147	0.686
10.0224	0.604
10.0633	0.683
10.1042	0.647
10.145	0.71
10.1859	0.66
10.2268	0.717
10.2677	0.739
10.3086	0.746
10.3495	0.788
10.3904	0.831
10.4313	0.85
10.4722	0.86
10.5131	0.867
10.554	0.87
10.5949	0.87
10.6358	0.868
10.6767	0.851
10.7176	0.759
10.7585	0.708
10.7994	0.77
10.8402	0.783
10.8811	0.839
10.922	0.78
10.9629	0.645
11.0038	0.706
11.0447	0.77
11.0856	0.858
11.1265	0.882
11.1674	0.887
11.2083	0.885
11.2492	0.875
11.2901	0.865
11.331	0.856
11.3719	0.829
11.4128	0.793
11.4537	0.689
11.4946	0.492
11.5354	0.303
11.5763	0.318
11.6172	0.497
11.6581	0.628
11.699	0.649
11.7399	0.689
11.7808	0.766
11.8217	0.77
11.8626	0.744
11.9035	0.727
11.9444	0.766
11.9853	0.78
12.0262	0.773
12.0671	0.758
12.108	0.73
12.1489	0.727
12.1898	0.729
12.2307	0.737
12.2715	0.739
12.3124	0.722
12.3533	0.695
12.3942	0.64
12.4351	0.509
12.476	0.27
12.5169	0.195
12.5578	0.345
12.5987	0.388
12.6396	0.369
12.6805	0.321
12.7214	0.264
12.7623	0.229
12.8032	0.156
12.8441	0.153
12.885	0.236
12.9259	0.291
12.9667	0.298
13.0076	0.243
13.0485	0.238
13.0894	0.265
13.1303	0.231
13.1712	0.149
13.2121	0.109
13.253	0.134
13.2939	0.207
13.3348	0.241
13.3757	0.216
13.4166	0.199
13.4575	0.214
13.4984	0.258
13.5393	0.248
13.5802	0.17
13.6211	0.119
13.6619	0.115
13.7028	0.187
13.7437	0.306
13.7846	0.39
13.8255	0.4
13.8664	0.369
13.9073	0.339
13.9482	0.267
13.9891	0.197
14.03	0.201
14.0709	0.248
14.1118	0.214
14.1527	0.168
14.1936	0.173
14.2345	0.182
14.2754	0.161
14.3163	0.144
14.3571	0.156
14.398	0.177
14.4389	0.18
14.4798	0.204
14.5207	0.293
14.5616	0.412
14.6025	0.516
14.6434	0.572
14.6843	0.591
14.7252	0.597
14.7661	0.599
14.807	0.603
14.8479	0.608
14.8888	0.609
14.9297	0.596
14.9706	0.572
15.0115	0.54
15.0523	0.482
15.0932	0.427
15.1341	0.425
15.175	0.461
15.2159	0.492
15.2568	0.482
15.2977	0.444
15.3386	0.4
15.3795	0.39
15.4204	0.398
15.4613	0.419
15.5022	0.424
15.5431	0.424
15.584	0.407
15.6249	0.396
15.6658	0.388
15.7067	0.386
15.7476	0.388
15.7884	0.405
15.8293	0.429
15.8702	0.441
15.9111	0.448
15.952	0.454
