Infrared Spectrum: DIAMYL MALEATE
Formula: C14 H24 O4
CAS: 10099-71-5
State: SOLUTION (10% CCl4 FOR 2.5-7.5, 10% CS2 FOR 7.5-16 MICRON)
Class: COBLENTZ
Instrument: Not specified, most likely a prism, grating, or hybrid spectrometer.
Sampling: TRANSMISSION
Path length: 0.010 CM, 0.010 CM
Resolution: 4
Origin: DOW CHEMICAL COMPANY
MICROMETERS	TRANSMITTANCE
2.127	0.968
2.16303	0.968
2.19906	0.966
2.23509	0.945
2.27111	0.936
2.30714	0.932
2.34317	0.932
2.3792	0.932
2.41523	0.932
2.45126	0.934
2.48729	0.934
2.52331	0.936
2.55934	0.939
2.59537	0.943
2.6314	0.945
2.66743	0.945
2.70346	0.945
2.73949	0.941
2.77551	0.939
2.81154	0.936
2.84757	0.924
2.8836	0.904
2.91963	0.899
2.95566	0.904
2.99169	0.909
3.02772	0.909
3.06374	0.902
3.09977	0.897
3.1358	0.89
3.17183	0.886
3.20786	0.879
3.24389	0.858
3.27992	0.835
3.31594	0.727
3.35197	0.526
3.388	0.155
3.42403	0.137
3.46006	0.279
3.49609	0.353
3.53212	0.756
3.56814	0.819
3.60417	0.842
3.6402	0.855
3.67623	0.867
3.71226	0.876
3.74829	0.885
3.78432	0.89
3.82034	0.893
3.85637	0.897
3.8924	0.899
3.92843	0.901
3.96446	0.902
4.00049	0.904
4.03652	0.904
4.07254	0.904
4.10857	0.904
4.1446	0.901
4.18063	0.901
4.21666	0.902
4.25269	0.908
4.28872	0.908
4.32474	0.908
4.36077	0.906
4.3968	0.906
4.43283	0.906
4.46886	0.904
4.50489	0.902
4.54092	0.899
4.57694	0.899
4.61297	0.899
4.649	0.899
4.68503	0.893
4.72106	0.893
4.75709	0.892
4.79312	0.892
4.82915	0.892
4.86517	0.892
4.9012	0.892
4.93723	0.89
4.97326	0.892
5.00929	0.89
5.04532	0.89
5.08135	0.89
5.11737	0.888
5.1534	0.883
5.18943	0.883
5.22546	0.885
5.26149	0.883
5.29752	0.881
5.33355	0.872
5.36957	0.869
5.4056	0.865
5.44163	0.862
5.47766	0.855
5.51369	0.833
5.54972	0.818
5.58575	0.802
5.62177	0.747
5.6578	0.681
5.69383	0.496
5.72986	0.219
5.76589	0.058
5.80192	0.04
5.83795	0.044
5.87397	0.252
5.91	0.429
5.94603	0.56
5.98206	0.632
6.01809	0.66
6.05412	0.636
6.09015	0.535
6.12617	0.51
6.1622	0.662
6.19823	0.736
6.23426	0.791
6.27029	0.803
6.30632	0.826
6.34235	0.839
6.37837	0.844
6.4144	0.846
6.45043	0.849
6.48646	0.855
6.52249	0.856
6.55852	0.853
6.59455	0.849
6.63058	0.842
6.6666	0.832
6.70263	0.81
6.73866	0.77
6.77469	0.651
6.81072	0.302
6.84675	0.286
6.88278	0.371
6.9188	0.501
6.95483	0.593
6.99086	0.616
7.02689	0.643
7.06292	0.659
7.09895	0.455
7.13498	0.319
7.171	0.393
7.20703	0.422
7.24306	0.379
7.27909	0.376
7.31512	0.415
7.35115	0.498
7.38718	0.588
7.4232	0.604
7.45923	0.616
7.49526	0.602
7.53129	0.54
7.56732	0.471
7.60335	0.369
7.63938	0.215
7.6754	0.1
7.71143	0.058
7.74746	0.045
7.78349	0.053
7.81952	0.102
7.85555	0.12
7.89158	0.113
7.9276	0.07
7.96363	0.053
7.99966	0.058
8.03569	0.097
8.07172	0.12
8.10775	0.15
8.14378	0.16
8.1798	0.13
8.21583	0.113
8.25186	0.109
8.28789	0.102
8.32392	0.104
8.35995	0.128
8.39598	0.189
8.43201	0.22
8.46803	0.215
8.50406	0.12
8.54009	0.077
8.57612	0.06
8.61215	0.051
8.64818	0.042
8.68421	0.033
8.72023	0.054
8.75626	0.178
8.79229	0.305
8.82832	0.429
8.86435	0.522
8.90038	0.57
8.93641	0.597
8.97243	0.613
9.00846	0.648
9.04449	0.704
9.08052	0.733
9.11655	0.756
9.15258	0.765
9.18861	0.768
9.22463	0.763
9.26066	0.734
9.29669	0.694
9.33272	0.637
9.36875	0.613
9.40478	0.609
9.44081	0.621
9.47683	0.614
9.51286	0.551
9.54889	0.418
9.58492	0.372
9.62095	0.399
9.65698	0.443
9.69301	0.469
9.72903	0.484
9.76506	0.498
9.80109	0.498
9.83712	0.48
9.87315	0.477
9.90918	0.462
9.94521	0.429
9.98124	0.386
10.0173	0.348
10.0533	0.326
10.0893	0.307
10.1253	0.272
10.1614	0.247
10.1974	0.194
10.2334	0.144
10.2695	0.171
10.3055	0.266
10.3415	0.386
10.3775	0.461
10.4136	0.521
10.4496	0.59
10.4856	0.625
10.5217	0.666
10.5577	0.692
10.5937	0.713
10.6297	0.729
10.6658	0.754
10.7018	0.772
10.7378	0.784
10.7739	0.789
10.8099	0.789
10.8459	0.789
10.882	0.786
10.918	0.782
10.954	0.784
10.99	0.787
11.0261	0.789
11.0621	0.787
11.0981	0.789
11.1342	0.795
11.1702	0.8
11.2062	0.802
11.2422	0.8
11.2783	0.8
11.3143	0.795
11.3503	0.779
11.3864	0.756
11.4224	0.743
11.4584	0.731
11.4944	0.736
11.5305	0.747
11.5665	0.761
11.6025	0.768
11.6386	0.77
11.6746	0.77
11.7106	0.773
11.7466	0.775
11.7827	0.773
11.8187	0.773
11.8547	0.773
11.8908	0.763
11.9268	0.752
11.9628	0.747
11.9988	0.734
12.0349	0.727
12.0709	0.722
12.1069	0.717
12.143	0.713
12.179	0.715
12.215	0.713
12.251	0.713
12.2871	0.706
12.3231	0.696
12.3591	0.685
12.3952	0.673
12.4312	0.666
12.4672	0.678
12.5032	0.699
12.5393	0.724
12.5753	0.749
12.6113	0.772
12.6474	0.789
12.6834	0.798
12.7194	0.798
12.7554	0.791
12.7915	0.772
12.8275	0.742
12.8635	0.704
12.8996	0.673
12.9356	0.646
12.9716	0.639
13.0076	0.653
13.0437	0.704
13.0797	0.731
13.1157	0.77
13.1518	0.798
13.1878	0.825
13.2238	0.849
13.2598	0.863
13.2959	0.867
13.3319	0.872
13.3679	0.874
13.404	0.876
13.44	0.871
13.476	0.86
13.512	0.851
13.5481	0.835
13.5841	0.828
13.6201	0.821
13.6562	0.814
13.6922	0.802
13.7282	0.784
13.7642	0.78
13.8003	0.795
13.8363	0.802
13.8723	0.826
13.9084	0.846
13.9444	0.863
13.9804	0.876
14.0164	0.885
14.0525	0.892
14.0885	0.895
14.1245	0.899
14.1606	0.901
14.1966	0.904
14.2326	0.904
14.2686	0.906
14.3047	0.906
14.3407	0.908
14.3767	0.908
14.4128	0.908
14.4488	0.908
14.4848	0.906
14.5208	0.906
14.5569	0.904
14.5929	0.906
14.6289	0.908
14.665	0.906
14.701	0.901
14.737	0.893
14.773	0.886
14.8091	0.865
14.8451	0.846
14.8811	0.828
14.9172	0.812
14.9532	0.807
14.9892	0.807
15.0252	0.807
15.0613	0.81
15.0973	0.814
15.1333	0.816
15.1694	0.818
15.2054	0.816
15.2414	0.816
15.2774	0.812
15.3135	0.812
15.3495	0.814
15.3855	0.812
15.4216	0.812
15.4576	0.816
15.4936	0.823
15.5296	0.826
15.5657	0.832
15.6017	0.833
15.6377	0.837
15.6738	0.84
15.7098	0.846
15.7458	0.848
15.7818	0.849
15.8179	0.851
15.8539	0.853
15.8899	0.855
15.926	0.856
15.962	0.858
