Infrared Spectrum: Hexamethylcyclotrisilazane
Formula: C 6 H 21 N 3 Si 3
CAS: 1009-93-4
State: gas
Origin: EPA-IR VAPOR PHASE LIBRARY
1/CM	ABSORBANCE
501.5	0.005676
513.074	0.005016
524.648	0.004776
536.222	0.004976
547.796	0.005276
559.37	0.005896
570.944	0.006906
582.518	0.009156
594.092	0.014236
605.666	0.027806
617.24	0.041226
628.814	0.030006
640.388	0.018536
651.962	0.016136
663.536	0.017806
675.11	0.023386
686.684	0.024416
698.258	0.019676
709.832	0.018336
721.406	0.019886
732.98	0.022126
744.554	0.023736
756.128	0.027866
767.702	0.040386
779.276	0.076976
790.85	0.137676
802.423	0.127966
813.997	0.105936
825.571	0.082986
837.145	0.061366
848.719	0.056686
860.293	0.058306
871.867	0.060146
883.441	0.062756
895.015	0.075876
906.589	0.125006
918.163	0.291836
929.737	0.489286
941.311	0.288586
952.885	0.112086
964.459	0.050726
976.033	0.030156
987.607	0.023126
999.181	0.017616
1010.76	0.012796
1022.33	0.010386
1033.9	0.009506
1045.48	0.009166
1057.05	0.009586
1068.63	0.010316
1080.2	0.011856
1091.77	0.014446
1103.35	0.018826
1114.92	0.025816
1126.49	0.037656
1138.07	0.065506
1149.64	0.139786
1161.22	0.286506
1172.79	0.294856
1184.36	0.139566
1195.94	0.063106
1207.51	0.039896
1219.09	0.034616
1230.66	0.038396
1242.23	0.060086
1253.81	0.144436
1265.38	0.115276
1276.96	0.035226
1288.53	0.018516
1300.1	0.013146
1311.68	0.009766
1323.25	0.007736
1334.83	0.006676
1346.4	0.006366
1357.97	0.006016
1369.55	0.005416
1381.12	0.005766
1392.7	0.007006
1404.27	0.007336
1415.84	0.006286
1427.42	0.005336
1438.99	0.005316
1450.57	0.004746
1462.14	0.003926
1473.71	0.003746
1485.29	0.003866
1496.86	0.003986
1508.44	0.003676
1520.01	0.003236
1531.58	0.003036
1543.16	0.003146
1554.73	0.003156
1566.31	0.002836
1577.88	0.002286
1589.45	0.001876
1601.03	0.001626
1612.6	0.001506
1624.18	0.001446
1635.75	0.001346
1647.32	0.001196
1658.9	0.0009511
1670.47	0.0008246
1682.05	0.0008054
1693.62	0.0007907
1705.19	0.0007765
1716.77	0.0008135
1728.34	0.0009494
1739.92	0.0011318
1751.49	0.001256
1763.06	0.001306
1774.64	0.001336
1786.21	0.001376
1797.79	0.001306
1809.36	0.0011599
1820.93	0.0010136
1832.51	0.0009585
1844.08	0.0010631
1855.66	0.001216
1867.23	0.001436
1878.8	0.001406
1890.38	0.001226
1901.95	0.00114
1913.53	0.001366
1925.1	0.001646
1936.67	0.001736
1948.25	0.001466
1959.82	0.001316
1971.4	0.001216
1982.97	0.0011637
1994.54	0.0011175
2006.12	0.0010425
2017.69	0.0009972
2029.27	0.0010986
2040.84	0.0009924
2052.41	0.0009219
2063.99	0.0008888
2075.56	0.0008666
2087.14	0.000892
2098.71	0.0008551
2110.28	0.0007751
2121.86	0.0006925
2133.43	0.000584
2145.01	0.0005097
2156.58	0.0004451
2168.15	0.0004514
2179.73	0.0004572
2191.3	0.000437
2202.88	0.0003995
2214.45	0.0004361
2226.02	0.0004374
2237.6	0.0004243
2249.17	0.0004469
2260.74	0.0004527
2272.32	0.000446
2283.89	0.000437
2295.47	0.0003876
2307.04	0.0003165
2318.61	0.00021465
2330.19	0.000158
2341.76	0.000167
2353.34	0.0001265
2364.91	0.0001075
2376.48	9.3e-05
2388.06	2.8e-05
2399.63	3.8e-05
2411.21	5.5e-05
2422.78	2e-05
2434.35	3.3e-05
2445.93	5.1e-05
2457.5	0.0001045
2469.08	0.0001074
2480.65	0.00018973
2492.22	0.0003629
2503.8	0.00025706
2515.37	7.5e-05
2526.95	4.5e-05
2538.52	2.5e-05
2550.09	1e-05
2561.67	4.2e-05
2573.24	1.1e-05
2584.82	1.1e-05
2596.39	1.8e-05
2607.96	6.6e-05
2619.54	9.99e-05
2631.11	0.0001256
2642.69	0.00023567
2654.26	0.0003207
2665.83	0.0003418
2677.41	0.0003554
2688.98	0.0003857
2700.56	0.0003972
2712.13	0.0004023
2723.7	0.0004911
2735.28	0.000627
2746.85	0.0008339
2758.43	0.0010927
2770	0.001646
2781.57	0.002436
2793.15	0.003436
2804.72	0.004386
2816.3	0.004876
2827.87	0.005176
2839.44	0.005576
2851.02	0.006196
2862.59	0.007196
2874.17	0.009116
2885.74	0.013836
2897.31	0.022536
2908.89	0.021506
2920.46	0.012996
2932.04	0.013626
2943.61	0.030946
2955.18	0.078926
2966.76	0.070496
2978.33	0.023166
2989.91	0.009536
3001.48	0.006196
3013.05	0.005146
3024.63	0.004996
3036.2	0.005536
3047.78	0.006276
3059.35	0.006636
3070.92	0.006426
3082.5	0.006066
3094.07	0.005736
3105.65	0.005076
3117.22	0.004166
3128.79	0.003116
3140.37	0.002296
3151.94	0.001676
3163.52	0.001316
3175.09	0.001177
3186.66	0.0011047
3198.24	0.0009381
3209.81	0.0008931
3221.39	0.0008851
3232.96	0.0007492
3244.53	0.0005717
3256.11	0.0005639
3267.68	0.0005277
3279.26	0.000475
3290.83	0.0004452
3302.4	0.000517
3313.98	0.0004802
3325.55	0.0005873
3337.13	0.0007055
3348.7	0.0009617
3360.27	0.001356
3371.85	0.002386
3383.42	0.004166
3395	0.008186
3406.57	0.012726
3418.14	0.009556
3429.72	0.004806
3441.29	0.003056
3452.86	0.002076
3464.44	0.001386
3476.01	0.0009805
3487.59	0.0007989
3499.16	0.0006335
3510.73	0.0006104
3522.31	0.0005804
3533.88	0.0006613
3545.46	0.0006679
3557.03	0.000843
3568.6	0.0009445
3580.18	0.0010066
3591.75	0.0010212
3603.33	0.0009686
3614.9	0.0011299
3626.47	0.001266
3638.05	0.001386
3649.62	0.001326
3661.2	0.001376
3672.77	0.001426
3684.34	0.001396
3695.92	0.001526
3707.49	0.001476
3719.07	0.001616
3730.64	0.001506
3742.21	0.001276
3753.79	0.001216
3765.36	0.0011022
3776.94	0.0010236
3788.51	0.0009133
3800.08	0.0008481
3811.66	0.0008441
3823.23	0.0009172
3834.81	0.0008562
3846.38	0.0007497
3857.95	0.0005913
3869.53	0.0005362
3881.1	0.0005817
3892.68	0.000487
3904.25	0.0004334
3915.82	0.0003444
3927.4	0.000314
3938.97	0.0002722
3950.55	0.0003011
3962.12	0.0003323
3973.69	0.0003612
3985.27	0.0003336
3996.84	0.0003144
