Infrared Spectrum: 3-(2,4,5-TRICHLOROPHENOXY)-1,2-PROPANEDIOL-BIS-2,2,3-TRICHLOROPROPIONATE
Formula: C15 H11 Cl9 O5
CAS: 100961-23-7
State: SOLUTION (10% IN CCl4 FOR 5000-1350 CM^-^1, 10% IN CS2 FOR 1350-625 CM^-^1)
Class: COBLENTZ
Instrument: Not specified, most likely a prism, grating, or hybrid spectrometer.
Sampling: TRANSMISSION
Path length: 0.01 CM, 0.01 CM
Resolution: 4
Origin: DOW CHEMICAL COMPANY
MICROMETERS	TRANSMITTANCE
2.028	0.86
2.06715	0.863
2.1063	0.865
2.14545	0.863
2.1846	0.865
2.22375	0.863
2.2629	0.863
2.30205	0.865
2.3412	0.865
2.38035	0.866
2.4195	0.868
2.45865	0.869
2.4978	0.868
2.53695	0.871
2.5761	0.869
2.61525	0.865
2.6544	0.868
2.69355	0.865
2.7327	0.868
2.77185	0.861
2.811	0.856
2.85015	0.853
2.8893	0.861
2.92845	0.861
2.9676	0.865
3.00675	0.863
3.0459	0.863
3.08505	0.865
3.1242	0.861
3.16335	0.86
3.2025	0.845
3.24165	0.835
3.2808	0.832
3.31995	0.819
3.3591	0.746
3.39825	0.803
3.43741	0.822
3.47656	0.843
3.51571	0.858
3.55486	0.86
3.59401	0.866
3.63316	0.863
3.67231	0.865
3.71146	0.869
3.75061	0.873
3.78976	0.871
3.82891	0.869
3.86806	0.871
3.90721	0.869
3.94636	0.868
3.98551	0.871
4.02466	0.876
4.06381	0.874
4.10296	0.869
4.14211	0.874
4.18126	0.878
4.22041	0.861
4.25956	0.85
4.29871	0.853
4.33786	0.861
4.37701	0.869
4.41616	0.873
4.45531	0.879
4.49446	0.882
4.53361	0.878
4.57276	0.878
4.61191	0.874
4.65106	0.879
4.69021	0.876
4.72936	0.878
4.76851	0.878
4.80766	0.878
4.84681	0.876
4.88596	0.878
4.92511	0.873
4.96426	0.873
5.00341	0.871
5.04256	0.871
5.08171	0.874
5.12086	0.876
5.16001	0.878
5.19916	0.874
5.23831	0.873
5.27746	0.871
5.31661	0.868
5.35576	0.86
5.39491	0.861
5.43406	0.848
5.47321	0.819
5.51236	0.785
5.55151	0.603
5.59066	0.239
5.62981	0.121
5.66896	0.12
5.70811	0.292
5.74726	0.656
5.78641	0.777
5.82556	0.803
5.86471	0.824
5.90386	0.837
5.94301	0.839
5.98216	0.839
6.02131	0.845
6.06046	0.84
6.09961	0.834
6.13876	0.819
6.17791	0.77
6.21707	0.676
6.25622	0.525
6.29537	0.486
6.33452	0.52
6.37367	0.495
6.41282	0.439
6.45197	0.43
6.49112	0.507
6.53027	0.559
6.56942	0.582
6.60857	0.598
6.64772	0.609
6.68687	0.512
6.72602	0.265
6.76517	0.282
6.80432	0.279
6.84347	0.266
6.88262	0.5
6.92177	0.637
6.96092	0.606
7.00007	0.575
7.03922	0.708
7.07837	0.728
7.11752	0.73
7.15667	0.746
7.19582	0.738
7.23497	0.726
7.27412	0.694
7.31327	0.525
7.35242	0.346
7.39157	0.474
7.43072	0.674
7.46987	0.718
7.50902	0.681
7.54817	0.652
7.58732	0.634
7.62647	0.595
7.66562	0.502
7.70477	0.304
7.74392	0.144
7.78307	0.149
7.82222	0.26
7.86137	0.222
7.90052	0.188
7.93967	0.134
7.97882	0.069
8.01797	0.095
8.05712	0.216
8.09627	0.38
8.13542	0.478
8.17457	0.5
8.21372	0.471
8.25287	0.359
8.29202	0.252
8.33117	0.291
8.37032	0.347
8.40947	0.252
8.44862	0.156
8.48777	0.108
8.52692	0.185
8.56607	0.359
8.60522	0.538
8.64437	0.58
8.68352	0.57
8.72267	0.521
8.76182	0.429
8.80097	0.38
8.84012	0.435
8.87927	0.497
8.91842	0.546
8.95757	0.528
8.99673	0.458
9.03588	0.375
9.07503	0.349
9.11418	0.347
9.15333	0.33
9.19248	0.258
9.23163	0.177
9.27078	0.3
9.30993	0.476
9.34908	0.525
9.38823	0.539
9.42738	0.539
9.46653	0.513
9.50568	0.479
9.54483	0.466
9.58398	0.481
9.62313	0.486
9.66228	0.468
9.70143	0.456
9.74058	0.478
9.77973	0.508
9.81888	0.502
9.85803	0.442
9.89718	0.356
9.93633	0.289
9.97548	0.289
10.0146	0.409
10.0538	0.52
10.0929	0.59
10.1321	0.632
10.1712	0.678
10.2104	0.697
10.2495	0.705
10.2887	0.71
10.3278	0.704
10.367	0.689
10.4061	0.66
10.4453	0.652
10.4844	0.702
10.5236	0.747
10.5627	0.759
10.6019	0.76
10.641	0.751
10.6802	0.731
10.7193	0.713
10.7585	0.71
10.7976	0.715
10.8368	0.718
10.8759	0.718
10.9151	0.723
10.9542	0.728
10.9934	0.728
11.0325	0.718
11.0717	0.708
11.1108	0.697
11.15	0.679
11.1891	0.661
11.2283	0.63
11.2674	0.59
11.3066	0.547
11.3457	0.479
11.3849	0.38
11.424	0.344
11.4632	0.455
11.5023	0.51
11.5415	0.521
11.5806	0.517
11.6198	0.507
11.6589	0.502
11.6981	0.5
11.7372	0.505
11.7764	0.507
11.8155	0.491
11.8547	0.469
11.8938	0.465
11.933	0.478
11.9721	0.495
12.0113	0.53
12.0504	0.588
12.0896	0.619
12.1287	0.648
12.1679	0.668
12.207	0.682
12.2462	0.689
12.2853	0.695
12.3245	0.7
12.3636	0.705
12.4028	0.71
12.4419	0.715
12.4811	0.717
12.5202	0.715
12.5594	0.712
12.5985	0.705
12.6377	0.697
12.6768	0.687
12.716	0.668
12.7551	0.648
12.7943	0.626
12.8334	0.608
12.8726	0.6
12.9117	0.598
12.9509	0.598
12.99	0.593
13.0292	0.577
13.0683	0.531
13.1075	0.463
13.1466	0.393
13.1858	0.334
13.2249	0.299
13.2641	0.286
13.3032	0.304
13.3424	0.356
13.3815	0.409
13.4207	0.442
13.4598	0.443
13.499	0.429
13.5381	0.413
13.5773	0.406
13.6164	0.401
13.6556	0.403
13.6947	0.413
13.7339	0.429
13.773	0.455
13.8122	0.482
13.8513	0.512
13.8905	0.539
13.9296	0.549
13.9688	0.552
14.0079	0.547
14.0471	0.533
14.0862	0.518
14.1254	0.5
14.1645	0.478
14.2037	0.45
14.2428	0.43
14.282	0.404
14.3211	0.383
14.3603	0.36
14.3994	0.341
14.4386	0.32
14.4777	0.3
14.5169	0.274
14.556	0.247
14.5952	0.211
14.6343	0.193
14.6735	0.196
14.7126	0.235
14.7518	0.276
14.7909	0.305
14.8301	0.336
14.8692	0.349
14.9084	0.356
14.9475	0.377
14.9867	0.406
15.0258	0.427
15.065	0.43
15.1041	0.432
15.1433	0.437
15.1824	0.435
15.2216	0.432
15.2607	0.429
15.2999	0.427
15.339	0.422
15.3782	0.421
15.4173	0.417
15.4565	0.414
15.4956	0.409
15.5348	0.408
15.5739	0.406
15.6131	0.403
15.6522	0.4
15.6914	0.393
15.7305	0.39
15.7697	0.382
15.8088	0.378
15.848	0.373
15.8871	0.377
