Infrared Spectrum: 2,4,6-Triethyltriazine
Formula: C 9 H 15 N 3
CAS: 1009-74-1
State: gas
Instrument: HP-GC/MS/IRD
Origin: NIST Mass Spectrometry Data Center
1/CM	ABSORBANCE
550	0.001672
562	0.0014535
574	0.0007315
586	0.000304
598	0.0001805
610	0.000171
622	6.65e-05
634	5.7e-05
646	4.75e-05
658	6.65e-05
670	1.9e-05
682	9.5e-06
694	9.5e-05
706	5.7e-05
718	9.5e-06
730	5.7e-05
742	3.8e-05
754	1.9e-05
766	7.6e-05
778	8.55e-05
790	0.000114
802	0.0001805
814	0.0002375
826	0.0005225
838	0.001482
850	0.0025935
862	0.0015295
874	0.0013965
886	0.0032585
898	0.0055195
910	0.0032205
922	0.000969
934	0.000475
946	0.0003515
958	0.0003515
970	0.0004275
982	0.0005225
994	0.000703
1006	0.0007505
1018	0.0006175
1030	0.0005605
1042	0.000836
1054	0.001387
1066	0.0018525
1078	0.0019095
1090	0.0015865
1102	0.0009785
1114	0.000646
1126	0.00057
1138	0.000551
1150	0.0004845
1162	0.000475
1174	0.000418
1186	0.000399
1198	0.00038
1210	0.0004085
1222	0.000437
1234	0.0005035
1246	0.000665
1258	0.000893
1270	0.0013775
1282	0.002432
1294	0.004845
1306	0.0078565
1318	0.006194
1330	0.0036195
1342	0.00323
1354	0.004731
1366	0.0080275
1378	0.0103075
1390	0.013376
1402	0.0133855
1414	0.0080845
1426	0.006593
1438	0.0065835
1450	0.0067165
1462	0.007999
1474	0.0072485
1486	0.0055955
1498	0.006802
1510	0.0125305
1522	0.0307135
1534	0.073587
1546	0.090231
1558	0.0392825
1570	0.013718
1582	0.006118
1594	0.0034295
1606	0.002223
1618	0.0015675
1630	0.0012255
1642	0.000988
1654	0.0008265
1666	0.000703
1678	0.000589
1690	0.000513
1702	0.0004465
1714	0.000361
1726	0.0003135
1738	0.000285
1750	0.0002755
1762	0.0002945
1774	0.0002375
1786	0.0001805
1798	0.0001615
1810	0.000152
1822	0.000133
1834	0.000152
1846	0.0001425
1858	0.000152
1870	0.00019
1882	0.000209
1894	0.000228
1906	0.0001425
1918	0.0001425
1930	0.000133
1942	0.00019
1954	0.0001995
1966	0.0001995
1978	0.000171
1990	0.000152
2002	0.000152
2014	0.000114
2026	0.0001615
2038	0.00019
2050	0.0002185
2062	0.000228
2074	0.0002375
2086	0.0002185
2098	0.0001615
2110	0.000171
2122	0.000152
2134	0.000171
2146	0.0001425
2158	0.0001235
2170	0.000114
2182	9.5e-05
2194	6.65e-05
2206	8.55e-05
2218	7.6e-05
2230	9.5e-05
2242	8.55e-05
2254	0.0001235
2266	0.000171
2278	0.0002565
2290	0.0002755
2302	0.0002565
2314	0.00019
2326	0.0001805
2338	0.0001995
2350	0.0001995
2362	0.000266
2374	0.0002945
2386	0.000285
2398	0.0002375
2410	0.00019
2422	0.0001995
2434	0.00019
2446	0.000247
2458	0.000247
2470	0.0001425
2482	0.000171
2494	0.0001995
2506	0.000247
2518	0.0002945
2530	0.0002945
2542	0.000228
2554	0.0001425
2566	5.7e-05
2578	2.85e-05
2590	0
2602	3.8e-05
2614	4.75e-05
2626	4.75e-05
2638	9.5e-06
2650	5.7e-05
2662	8.55e-05
2674	9.5e-05
2686	0.000133
2698	0.00019
2710	0.0002375
2722	0.0002945
2734	0.000323
2746	0.0003325
2758	0.0003325
2770	0.0003515
2782	0.0004085
2794	0.000494
2806	0.000589
2818	0.0007315
2830	0.0009405
2842	0.0012445
2854	0.001615
2866	0.0023465
2878	0.0038
2890	0.00608
2902	0.0062795
2914	0.005966
2926	0.0067545
2938	0.0092815
2950	0.0129295
2962	0.0110295
2974	0.0143165
2986	0.01824
2998	0.010089
3010	0.0056525
3022	0.003192
3034	0.0017005
3046	0.0009975
3058	0.000817
3070	0.0007125
3082	0.0007125
3094	0.000741
3106	0.0006745
3118	0.000627
3130	0.00057
3142	0.0004845
3154	0.0004465
3166	0.000399
3178	0.0002945
3190	0.0002945
3202	0.000209
3214	0.000171
3226	0.0001615
3238	0.000114
3250	0.0001425
3262	0.0001235
3274	6.65e-05
3286	3.8e-05
3298	9.5e-05
3310	9.5e-05
3322	6.65e-05
3334	8.55e-05
3346	5.7e-05
3358	5.7e-05
3370	4.75e-05
3382	6.65e-05
3394	5.7e-05
3406	7.6e-05
3418	6.65e-05
3430	7.6e-05
3442	7.6e-05
3454	5.7e-05
3466	5.7e-05
3478	8.55e-05
3490	3.8e-05
3502	4.75e-05
3514	4.75e-05
3526	5.7e-05
3538	9.5e-05
3550	9.5e-05
3562	7.6e-05
3574	9.5e-05
3586	5.7e-05
3598	4.75e-05
3610	5.7e-05
3622	6.65e-05
3634	7.6e-05
3646	8.55e-05
3658	4.75e-05
3670	6.65e-05
3682	7.6e-05
3694	2.85e-05
3706	6.65e-05
3718	0.0001045
3730	0.000114
3742	0.000114
3754	0.0001235
3766	0.000133
3778	0.000133
3790	0.0001045
3802	9.5e-05
3814	0.000114
3826	9.5e-05
3838	0.000114
