Infrared Spectrum: Acetamide, N-(3,7-dinitro-9-oxofluoren-2-yl)-,
Formula: C15 H9 N3 O6
CAS: 100964-96-3
State: SOLID (SPLIT MULL), FLUOROLUBE FOR 3800-1330 CM^-^1, NUJOL FOR 1330-460 CM^-^1
Class: COBLENTZ III
Instrument: DOW KBr FOREPRISM-GRATING
Instrument parameters: BLAZED AT 3.5, 12.0, 20.0 MICRON AND CHANGED AT 5.0, 7.5, 14.9 MICRON
Sampling: TRANSMISSION
Resolution: 2
Origin: DOW CHEMICAL COMPANY
1/CM	TRANSMITTANCE
455	0.8387
464	0.8184
473	0.7786
482	0.7465
491	0.7689
500	0.8347
509	0.8302
518	0.8183
527	0.834
536	0.7318
545	0.8457
554	0.8402
563	0.8255
572	0.8324
581	0.7557
590	0.795
599	0.7496
608	0.7496
617	0.8578
626	0.8491
635	0.8199
644	0.7851
653	0.6322
662	0.7061
671	0.6635
680	0.7089
689	0.8032
698	0.8351
707	0.8488
716	0.7444
725	0.6024
734	0.7832
743	0.8068
752	0.6578
761	0.6684
770	0.6123
779	0.8827
788	0.6172
797	0.9095
806	0.9075
815	0.8983
824	0.8634
833	0.8096
842	0.8335
851	0.6778
860	0.6224
869	0.8278
878	0.8805
887	0.8603
896	0.7953
905	0.8366
914	0.7701
923	0.6259
932	0.8378
941	0.8197
950	0.7312
959	0.8175
968	0.8255
977	0.7935
986	0.716
995	0.5634
1004	0.7733
1013	0.8086
1022	0.7911
1031	0.7044
1040	0.7146
1049	0.7568
1058	0.7572
1067	0.6937
1076	0.3414
1085	0.7546
1094	0.7444
1103	0.7148
1112	0.5448
1121	0.6239
1130	0.3759
1139	0.6983
1148	0.733
1157	0.7101
1166	0.6757
1175	0.6132
1184	0.5315
1193	0.4527
1202	0.3686
1211	0.1292
1220	0.3418
1229	0.1603
1238	0.2428
1247	0.6109
1256	0.6166
1265	0.3242
1274	0.3789
1283	0.3184
1292	0.3339
1301	0.5202
1310	0.4857
1319	0.3926
1328	0.123
1337	0.1131
1346	0.0879
1355	0.2405
1364	0.447
1373	0.3316
1382	0.4532
1391	0.4341
1400	0.3892
1409	0.3595
1418	0.3488
1427	0.2288
1436	0.2553
1445	0.3084
1454	0.2468
1463	0.1321
1472	0.0876
1481	0.0608
1490	0.0736
1499	0.2447
1508	0.5234
1517	0.4122
1526	0.1814
1535	0.3212
1544	0.5175
1553	0.73
1562	0.7011
1571	0.6067
1580	0.4833
1589	0.2577
1598	0.2383
1607	0.2733
1616	0.6915
1625	0.5639
1634	0.5026
1643	0.6908
1652	0.7401
1661	0.6882
1670	0.6333
1679	0.5687
1688	0.4719
1697	0.2898
1706	0.1765
1715	0.066
1724	0.0779
1733	0.6105
1742	0.8435
1751	0.8691
1760	0.8749
1769	0.8551
1778	0.8292
1787	0.8068
1796	0.7964
1805	0.7945
1814	0.7755
1823	0.7528
1832	0.7537
1841	0.7226
1850	0.7103
1859	0.7357
1868	0.7375
1877	0.7297
1886	0.7268
1895	0.7161
1904	0.708
1913	0.7015
1922	0.698
1931	0.6907
1940	0.6836
1949	0.678
1958	0.6765
1967	0.6555
1976	0.6439
1985	0.6626
1994	0.6591
2003	0.6524
2012	0.6482
2021	0.6439
2030	0.6392
2039	0.6341
2048	0.6277
2057	0.6215
2066	0.6156
2075	0.6097
2084	0.6037
2093	0.5976
2102	0.5915
2111	0.5852
2120	0.5794
2129	0.574
2138	0.5687
2147	0.5635
2156	0.5584
2165	0.5533
2174	0.548
2183	0.5427
2192	0.5371
2201	0.5309
2210	0.5247
2219	0.5178
2228	0.5106
2237	0.5034
2246	0.4971
2255	0.4907
2264	0.4856
2273	0.4806
2282	0.476
2291	0.4719
2300	0.469
2309	0.4677
2318	0.468
2327	0.4681
2336	0.4681
2345	0.4672
2354	0.4651
2363	0.4614
2372	0.4571
2381	0.4533
2390	0.4505
2399	0.4489
2408	0.4476
2417	0.4467
2426	0.4457
2435	0.4425
2444	0.4391
2453	0.4356
2462	0.4338
2471	0.4321
2480	0.4305
2489	0.4289
2498	0.4273
2507	0.4252
2516	0.4232
2525	0.421
2534	0.419
2543	0.4169
2552	0.4146
2561	0.4121
2570	0.4097
2579	0.4072
2588	0.4047
2597	0.4022
2606	0.3998
2615	0.3974
2624	0.395
2633	0.3925
2642	0.3902
2651	0.388
2660	0.3859
2669	0.3838
2678	0.3818
2687	0.3793
2696	0.3768
2705	0.3743
2714	0.3718
2723	0.3691
2732	0.3664
2741	0.3632
2750	0.3599
2759	0.3564
2768	0.3532
2777	0.3498
2786	0.3464
2795	0.343
2804	0.3398
2813	0.3368
2822	0.3337
2831	0.3286
2840	0.3189
2849	0.3073
2858	0.3073
2867	0.3084
2876	0.3099
2885	0.3099
2894	0.3076
2903	0.2995
2912	0.2894
2921	0.2802
2930	0.2794
2939	0.2822
2948	0.287
2957	0.2862
2966	0.2844
2975	0.2798
2984	0.2744
2993	0.2696
3002	0.2649
3011	0.2591
3020	0.2534
3029	0.2479
3038	0.2424
3047	0.2307
3056	0.2068
3065	0.184
3074	0.2008
3083	0.214
3092	0.2108
3101	0.2906
3110	0.2889
3119	0.2718
3128	0.278
3137	0.2889
3146	0.2858
3155	0.2817
3164	0.2773
3173	0.2731
3182	0.2694
3191	0.2658
3200	0.2623
3209	0.2587
3218	0.2551
3227	0.2514
3236	0.2478
3245	0.2442
3254	0.2405
3263	0.2363
3272	0.2322
3281	0.228
3290	0.2225
3299	0.2157
3308	0.2063
3317	0.1928
3326	0.1752
3335	0.1505
3344	0.1187
3353	0.1499
3362	0.2488
3371	0.2609
3380	0.256
3389	0.2518
3398	0.2476
3407	0.2432
3416	0.2403
3425	0.2392
3434	0.2381
3443	0.2365
3452	0.235
3461	0.2335
3470	0.2323
3479	0.2309
3488	0.2297
3497	0.2284
3506	0.2273
3515	0.226
3524	0.225
3533	0.2241
3542	0.2232
3551	0.2223
3560	0.2214
3569	0.2202
3578	0.2189
3587	0.2176
3596	0.2164
3605	0.2151
3614	0.2134
3623	0.2118
3632	0.2102
3641	0.2084
3650	0.2068
3659	0.2051
3668	0.2034
3677	0.2016
3686	0.1999
3695	0.1982
3704	0.1965
3713	0.1948
3722	0.1931
3731	0.1913
3740	0.19
3749	0.1886
3758	0.1874
3767	0.1859
3776	0.1844
3785	0.1831
3794	0.1817
