Infrared Spectrum: 1-Phenyl-1-pentanone
Formula: C 11 H 14 O
CAS: 1009-14-9
State: gas
Instrument: HP-GC/MS/IRD
Origin: NIST Mass Spectrometry Data Center
1/CM	ABSORBANCE
550	0.0007619
562	0.0008835
574	0.0010564
586	0.0009386
598	0.0011267
610	0.0009557
622	0.0004598
634	0.0003743
646	0.0010222
658	0.0017024
670	0.0020235
682	0.0044346
694	0.0063498
706	0.0035492
718	0.002337
730	0.002926
742	0.0035036
754	0.0029108
766	0.0020463
778	0.0015048
790	0.0009082
802	0.0004085
814	0.0001767
826	4.18e-05
838	3.23e-05
850	0.0001178
862	0.0001748
874	0.0003914
886	0.0005092
898	0.0003914
910	0.0004883
922	0.0005795
934	0.0008588
946	0.0014953
958	0.002128
970	0.0019323
982	0.0015029
994	0.002223
1006	0.0048526
1018	0.0035663
1030	0.0009899
1042	0.000437
1054	0.0003914
1066	0.000437
1078	0.0004636
1090	0.0005434
1102	0.0008075
1114	0.0006023
1126	0.0003534
1138	0.0004142
1150	0.0006973
1162	0.0012502
1174	0.0034238
1186	0.0047709
1198	0.0058216
1210	0.0069711
1222	0.0047025
1234	0.0044289
1246	0.0058843
1258	0.0072409
1270	0.0062833
1282	0.0041439
1294	0.0033573
1306	0.0030552
1318	0.0035188
1330	0.0033687
1342	0.0035701
1354	0.0036252
1366	0.0028253
1378	0.0020178
1390	0.0014459
1402	0.0010811
1414	0.0012388
1426	0.001387
1438	0.0024415
1450	0.0040907
1462	0.0026638
1474	0.0016815
1486	0.000874
1498	0.0005548
1510	0.000437
1522	0.0004294
1534	0.0004028
1546	0.0004066
1558	0.0004883
1570	0.0008759
1582	0.0014554
1594	0.0016777
1606	0.0013604
1618	0.0006935
1630	0.0005073
1642	0.0006441
1654	0.001083
1666	0.0018487
1678	0.0040812
1690	0.0119871
1702	0.019
1714	0.0099978
1726	0.0027208
1738	0.0012331
1750	0.0007448
1762	0.0005187
1774	0.0004123
1786	0.0003363
1798	0.0004408
1810	0.0005054
1822	0.0002869
1834	0.0001387
1846	0.0001387
1858	0.0001387
1870	0.0001691
1882	0.0002679
1894	0.0003078
1906	0.0002869
1918	0.0001862
1930	0.0001577
1942	0.0002508
1954	0.0003458
1966	0.0003591
1978	0.0001938
1990	0.0001083
2002	5.7e-05
2014	4.56e-05
2026	5.13e-05
2038	4.94e-05
2050	3.42e-05
2062	3.99e-05
2074	3.42e-05
2086	1.33e-05
2098	7.6e-06
2110	1.14e-05
2122	1.71e-05
2134	3.8e-05
2146	2.28e-05
2158	1.52e-05
2170	2.85e-05
2182	2.47e-05
2194	3.8e-06
2206	3.04e-05
2218	2.66e-05
2230	2.47e-05
2242	4.18e-05
2254	1.9e-05
2266	3.99e-05
2278	7.98e-05
2290	5.89e-05
2302	6.84e-05
2314	0.0001026
2326	0.0001026
2338	8.55e-05
2350	6.46e-05
2362	3.23e-05
2374	5.32e-05
2386	6.08e-05
2398	6.84e-05
2410	6.27e-05
2422	4.75e-05
2434	4.75e-05
2446	7.98e-05
2458	3.42e-05
2470	2.28e-05
2482	3.61e-05
2494	3.04e-05
2506	1.14e-05
2518	2.47e-05
2530	2.66e-05
2542	2.85e-05
2554	2.09e-05
2566	3.8e-05
2578	4.37e-05
2590	8.55e-05
2602	8.55e-05
2614	8.93e-05
2626	6.65e-05
2638	6.84e-05
2650	0.0001007
2662	0.0001102
2674	0.0001045
2686	0.0001539
2698	0.0001235
2710	0.0001121
2722	0.000133
2734	0.0001881
2746	0.0002508
2758	0.0002603
2770	0.0002546
2782	0.0003211
2794	0.0004104
2806	0.0005206
2818	0.0006802
2830	0.0008455
2842	0.0011647
2854	0.0019798
2866	0.0037069
2878	0.0052421
2890	0.0052079
2902	0.0047538
2914	0.0055518
2926	0.0073777
2938	0.0098553
2950	0.009994
2962	0.0113183
2974	0.0110124
2986	0.0048355
2998	0.0023845
3010	0.0016264
3022	0.0016853
3034	0.0021584
3046	0.0022648
3058	0.0026467
3070	0.0041819
3082	0.0034333
3094	0.0025517
3106	0.001387
3118	0.0005605
3130	0.0002888
3142	0.0002451
3154	0.0002641
3166	0.0002071
3178	0.0001501
3190	8.17e-05
3202	0.0001159
3214	5.32e-05
3226	6.65e-05
3238	5.32e-05
3250	1.9e-06
3262	2.09e-05
3274	6.84e-05
3286	4.18e-05
3298	5.51e-05
3310	2.28e-05
3322	2.47e-05
3334	3.23e-05
3346	0.0001083
3358	0.0001425
3370	0.000247
3382	0.0002983
3394	0.0002964
3406	0.0002014
3418	0.0001007
3430	3.8e-05
3442	6.65e-05
3454	4.94e-05
3466	1.52e-05
3478	7.03e-05
3490	5.13e-05
3502	3.61e-05
3514	5.51e-05
3526	3.61e-05
3538	7.6e-05
3550	0.0001254
3562	5.7e-05
3574	2.47e-05
3586	4.56e-05
3598	6.65e-05
3610	7.98e-05
3622	4.37e-05
3634	8.55e-05
3646	5.89e-05
3658	8.93e-05
3670	6.84e-05
3682	0.0001254
3694	9.69e-05
3706	8.55e-05
3718	0.0001007
3730	7.79e-05
3742	4.37e-05
3754	3.61e-05
3766	4.94e-05
3778	5.7e-05
3790	5.7e-05
3802	7.41e-05
3814	7.6e-05
3826	6.65e-05
3838	6.46e-05
