Infrared Spectrum: 2-CHLORO-6-DIMETHYLAMINOPURINE
Formula: C7 H8 Cl N5
CAS: 100960-20-1
State: SOLID (0.8 mg / 650 mg KBr DISC)
Class: COBLENTZ III
Instrument: PERKIN-ELMER 21 (GRATING)
Instrument parameters: FILTER CHANGE ABOUT 1070 CM^-^1
Sampling: TRANSMISSION
Resolution: 2
Origin: SOUTHERN RESEARCH INSTITUTE
1/CM	TRANSMITTANCE
620	0.6143
629.053	0.8201
638.106	0.9717
647.16	0.9469
656.213	0.9066
665.266	0.6252
674.319	0.9737
683.373	0.9665
692.426	0.9386
701.479	0.9013
710.532	0.8678
719.586	0.8361
728.639	0.8046
737.692	0.7678
746.745	0.7056
755.798	0.5467
764.852	0.6708
773.905	0.5564
782.958	0.7773
792.011	0.7438
801.065	0.6959
810.118	0.6058
819.171	0.5253
828.224	0.5413
837.277	0.6467
846.331	0.7125
855.384	0.713
864.437	0.6837
873.49	0.4845
882.544	0.6085
891.597	0.7881
900.65	0.7682
909.703	0.7403
918.757	0.6898
927.81	0.5229
936.863	0.591
945.916	0.5453
954.969	0.1831
964.023	0.3368
973.076	0.7972
982.129	0.8312
991.182	0.8236
1000.24	0.8079
1009.29	0.7858
1018.34	0.7635
1027.4	0.7218
1036.45	0.6779
1045.5	0.6525
1054.55	0.6413
1063.61	0.6595
1072.66	0.5664
1081.71	0.5321
1090.77	0.3246
1099.82	0.4705
1108.87	0.5693
1117.93	0.4817
1126.98	0.5557
1136.03	0.4911
1145.09	0.5217
1154.14	0.7064
1163.19	0.6916
1172.25	0.6638
1181.3	0.6371
1190.35	0.5994
1199.41	0.5576
1208.46	0.4633
1217.51	0.2997
1226.57	0.484
1235.62	0.585
1244.67	0.5362
1253.73	0.2595
1262.78	0.2527
1271.83	0.2252
1280.89	0.6121
1289.94	0.4363
1298.99	0.1749
1308.05	0.1033
1317.1	0.1226
1326.15	0.5187
1335.2	0.453
1344.26	0.2755
1353.31	0.1416
1362.36	0.414
1371.42	0.6605
1380.47	0.609
1389.52	0.5234
1398.58	0.4581
1407.63	0.5676
1416.68	0.4948
1425.74	0.4163
1434.79	0.558
1443.84	0.5944
1452.9	0.5355
1461.95	0.5229
1471	0.5667
1480.06	0.6156
1489.11	0.5923
1498.16	0.5355
1507.22	0.4955
1516.27	0.4391
1525.32	0.398
1534.38	0.3402
1543.43	0.3179
1552.48	0.2243
1561.54	0.1588
1570.59	0.0922
1579.64	0.0229
1588.7	0.0231
1597.75	0.0396
1606.8	0.0756
1615.86	0.2237
1624.91	0.3399
1633.96	0.4879
1643.01	0.6289
1652.07	0.6799
1661.12	0.7287
1670.17	0.7782
1679.23	0.809
1688.28	0.8259
1697.33	0.8396
1706.39	0.8404
1715.44	0.8469
1724.49	0.865
1733.55	0.8718
1742.6	0.8692
1751.65	0.866
1760.71	0.883
1769.76	0.9101
1778.81	0.9258
1787.87	0.9327
1796.92	0.9366
1805.97	0.9368
1815.03	0.936
1824.08	0.9371
1833.13	0.9422
1842.19	0.9419
1851.24	0.9401
1860.29	0.9381
1869.35	0.9361
1878.4	0.9341
1887.45	0.9322
1896.51	0.9302
1905.56	0.9278
1914.61	0.9239
1923.66	0.9211
1932.72	0.9182
1941.77	0.9149
1950.82	0.9082
1959.88	0.8987
1968.93	0.8933
1977.98	0.8933
1987.04	0.8967
1996.09	0.9015
2005.14	0.9026
2014.2	0.8994
2023.25	0.8937
2032.3	0.8921
2041.36	0.8924
2050.41	0.8915
2059.46	0.8894
2068.52	0.887
2077.57	0.8841
2086.62	0.8813
2095.68	0.8789
2104.73	0.8772
2113.78	0.8729
2122.84	0.8641
2131.89	0.861
2140.94	0.8603
2150	0.8613
2159.05	0.8629
2168.1	0.8601
2177.16	0.8548
2186.21	0.8499
2195.26	0.8457
2204.31	0.8411
2213.37	0.8364
2222.42	0.8315
2231.47	0.8263
2240.53	0.8225
2249.58	0.8191
2258.63	0.8156
2267.69	0.8127
2276.74	0.8101
2285.79	0.8076
2294.85	0.8032
2303.9	0.7961
2312.95	0.7877
2322.01	0.7801
2331.06	0.7744
2340.11	0.7719
2349.17	0.7685
2358.22	0.7652
2367.27	0.7621
2376.33	0.7591
2385.38	0.7562
2394.43	0.753
2403.49	0.7493
2412.54	0.7459
2421.59	0.7411
2430.65	0.7329
2439.7	0.7231
2448.75	0.7137
2457.81	0.7045
2466.86	0.6948
2475.91	0.6864
2484.96	0.6787
2494.02	0.6706
2503.07	0.6619
2512.12	0.6545
2521.18	0.6481
2530.23	0.6436
2539.28	0.6383
2548.34	0.6335
2557.39	0.628
2566.44	0.6216
2575.5	0.6144
2584.55	0.6077
2593.6	0.6001
2602.66	0.5911
2611.71	0.5813
2620.76	0.5673
2629.82	0.5461
2638.87	0.5191
2647.92	0.4976
2656.98	0.4813
2666.03	0.4805
2675.08	0.4816
2684.14	0.4828
2693.19	0.4829
2702.24	0.482
2711.3	0.4764
2720.35	0.4651
2729.4	0.4476
2738.46	0.4234
2747.51	0.3949
2756.56	0.3686
2765.61	0.3435
2774.67	0.3236
2783.72	0.315
2792.77	0.3212
2801.83	0.3398
2810.88	0.3629
2819.93	0.3794
2828.99	0.3808
2838.04	0.3752
2847.09	0.367
2856.15	0.3574
2865.2	0.346
2874.25	0.3335
2883.31	0.3204
2892.36	0.3071
2901.41	0.2936
2910.47	0.286
2919.52	0.2872
2928.57	0.2935
2937.63	0.3028
2946.68	0.3162
2955.73	0.3517
2964.79	0.3842
2973.84	0.4134
2982.89	0.4202
2991.95	0.4152
3001	0.3996
3010.05	0.3787
3019.11	0.3523
3028.16	0.3288
3037.21	0.3139
3046.27	0.3024
3055.32	0.295
3064.37	0.2917
3073.42	0.2923
3082.48	0.3085
3091.53	0.3409
3100.58	0.4067
3109.64	0.4654
3118.69	0.5105
3127.74	0.5475
3136.8	0.5587
3145.85	0.5653
3154.9	0.5817
3163.96	0.6022
3173.01	0.6242
3182.06	0.6435
3191.12	0.6634
3200.17	0.6797
3209.22	0.6922
3218.28	0.7118
3227.33	0.7187
3236.38	0.7211
3245.44	0.7229
3254.49	0.7243
3263.54	0.7248
3272.6	0.7243
3281.65	0.722
3290.7	0.7179
3299.76	0.7123
3308.81	0.7056
3317.86	0.6983
3326.92	0.6911
3335.97	0.684
3345.02	0.6782
3354.07	0.6723
3363.13	0.6606
3372.18	0.6524
3381.23	0.6471
3390.29	0.644
3399.34	0.6446
3408.39	0.6471
3417.45	0.6502
3426.5	0.6531
3435.55	0.6561
3444.61	0.6596
3453.66	0.6629
3462.71	0.6667
3471.77	0.6721
3480.82	0.6787
3489.87	0.6862
3498.93	0.6936
3507.98	0.7003
3517.03	0.7086
3526.09	0.7158
3535.14	0.721
3544.19	0.725
3553.25	0.7295
3562.3	0.7362
3571.35	0.7455
3580.41	0.7506
3589.46	0.7535
3598.51	0.7578
3607.57	0.7623
3616.62	0.7632
3625.67	0.7637
3634.72	0.7636
3643.78	0.7633
3652.83	0.7627
3661.88	0.762
3670.94	0.7618
3679.99	0.7617
3689.04	0.7614
3698.1	0.761
3707.15	0.7605
3716.2	0.76
3725.26	0.7589
3734.31	0.7575
3743.36	0.7557
3752.42	0.7546
3761.47	0.7553
3770.52	0.7554
3779.58	0.7536
3788.63	0.7513
3797.68	0.7492
3806.74	0.7485
3815.79	0.7478
3824.84	0.7469
3833.9	0.7459
3842.95	0.7447
3852	0.7435
3861.06	0.7426
3870.11	0.7409
3879.16	0.7387
3888.22	0.7346
3897.27	0.7307
3906.32	0.7282
3915.37	0.7288
3924.43	0.731
3933.48	0.734
3942.53	0.7349
3951.59	0.7318
3960.64	0.7292
3969.69	0.7274
3978.75	0.7274
3987.8	0.7277
3996.85	0.7285
4005.91	0.7305
4014.96	0.727
