Infrared Spectrum: Hyoscyamine
Formula: C 17 H 23 N O 3
CAS: 101-83-7
State: gas
Origin: EPA-IR VAPOR PHASE LIBRARY
1/CM	ABSORBANCE
501.5	0.00156
513.074	0.00214
524.648	0.00222
536.222	0.00168
547.796	0.00118
559.37	0.0008889
570.944	0.0007811
582.518	0.0008518
594.092	0.0008053
605.666	0.0008692
617.24	0.00113
628.814	0.0007352
640.388	0.00114
651.962	0.00187
663.536	0.00119
675.11	0.00147
686.684	0.00257
698.258	0.0069
709.832	0.00302
721.406	0.00226
732.98	0.00392
744.554	0.00289
756.128	0.0026
767.702	0.0021
779.276	0.00153
790.85	0.00136
802.423	0.00217
813.997	0.00189
825.571	0.0012
837.145	0.0009921
848.719	0.00103
860.293	0.00119
871.867	0.00137
883.441	0.00124
895.015	0.00117
906.589	0.00185
918.163	0.00269
929.737	0.0028
941.311	0.00191
952.885	0.00221
964.459	0.00332
976.033	0.00372
987.607	0.00374
999.181	0.00467
1010.76	0.00632
1022.33	0.0109
1033.9	0.02534
1045.48	0.01576
1057.05	0.0115
1068.63	0.00911
1080.2	0.00505
1091.77	0.00384
1103.35	0.00401
1114.92	0.00489
1126.49	0.0066
1138.07	0.0092
1149.64	0.01632
1161.22	0.01939
1172.79	0.01898
1184.36	0.01385
1195.94	0.0115
1207.51	0.01221
1219.09	0.01759
1230.66	0.01655
1242.23	0.01169
1253.81	0.00849
1265.38	0.00712
1276.96	0.0064
1288.53	0.00622
1300.1	0.00637
1311.68	0.00678
1323.25	0.00672
1334.83	0.00699
1346.4	0.00629
1357.97	0.00501
1369.55	0.00448
1381.12	0.00469
1392.7	0.0038
1404.27	0.00286
1415.84	0.00273
1427.42	0.00305
1438.99	0.00271
1450.57	0.00396
1462.14	0.00392
1473.71	0.00323
1485.29	0.00261
1496.86	0.00288
1508.44	0.00124
1520.01	0.000726
1531.58	0.0006886
1543.16	0.0004905
1554.73	0.0004618
1566.31	0.0005997
1577.88	0.0007296
1589.45	0.00109
1601.03	0.00138
1612.6	0.0008732
1624.18	0.000562
1635.75	0.0005058
1647.32	0.0005244
1658.9	0.000701
1670.47	0.0008241
1682.05	0.00116
1693.62	0.00189
1705.19	0.00336
1716.77	0.00863
1728.34	0.01823
1739.92	0.02125
1751.49	0.01024
1763.06	0.00354
1774.64	0.00188
1786.21	0.00124
1797.79	0.00102
1809.36	0.0007092
1820.93	0.0005275
1832.51	0.000396
1844.08	0.0003563
1855.66	0.0004722
1867.23	0.0004896
1878.8	0.0005256
1890.38	0.0004387
1901.95	0.0003543
1913.53	0.0003022
1925.1	0.0003371
1936.67	0.000476
1948.25	0.0004827
1959.82	0.0004816
1971.4	0.0003111
1982.97	0.000302
1994.54	0.0002578
2006.12	0.0002342
2017.69	0.0002408
2029.27	0.000276
2040.84	0.0002705
2052.41	0.0002809
2063.99	0.0003043
2075.56	0.0003333
2087.14	0.0003218
2098.71	0.0002923
2110.28	0.0002714
2121.86	0.0002391
2133.43	0.0002187
2145.01	0.0002312
2156.58	0.0002159
2168.15	0.000194
2179.73	0.0002032
2191.3	0.0002438
2202.88	0.0002354
2214.45	0.0002772
2226.02	0.0002812
2237.6	0.0002659
2249.17	0.0002453
2260.74	0.0002563
2272.32	0.0002263
2283.89	0.0002141
2295.47	0.0002321
2307.04	0.0002524
2318.61	0.0002213
2330.19	0.0001682
2341.76	0.0002031
2353.34	0.0001935
2364.91	0.0001764
2376.48	0.0001921
2388.06	0.0002342
2399.63	0.0002185
2411.21	0.0002435
2422.78	0.0001854
2434.35	0.0001984
2445.93	0.0002356
2457.5	0.0002943
2469.08	0.0002892
2480.65	0.0002237
2492.22	0.0001908
2503.8	0.0002202
2515.37	0.0002159
2526.95	0.0002289
2538.52	0.0002667
2550.09	0.0002541
2561.67	0.0002614
2573.24	0.0002434
2584.82	0.000263
2596.39	0.0002633
2607.96	0.0002426
2619.54	0.0002524
2631.11	0.0002751
2642.69	0.0002749
2654.26	0.0002812
2665.83	0.0003783
2677.41	0.0003667
2688.98	0.0004215
2700.56	0.0004642
2712.13	0.0004426
2723.7	0.0004184
2735.28	0.0004618
2746.85	0.0005514
2758.43	0.0007657
2770	0.001
2781.57	0.00152
2793.15	0.00246
2804.72	0.00363
2816.3	0.0021
2827.87	0.00156
2839.44	0.00232
2851.02	0.00377
2862.59	0.00374
2874.17	0.00443
2885.74	0.00607
2897.31	0.00574
2908.89	0.00574
2920.46	0.01032
2932.04	0.01642
2943.61	0.02543
2955.18	0.02109
2966.76	0.01581
2978.33	0.0123
2989.91	0.00617
3001.48	0.00208
3013.05	0.0016
3024.63	0.00228
3036.2	0.00338
3047.78	0.0022
3059.35	0.00231
3070.92	0.0037
3082.5	0.00249
3094.07	0.00171
3105.65	0.00104
3117.22	0.0006635
3128.79	0.0004159
3140.37	0.0003271
3151.94	0.0002791
3163.52	0.0002286
3175.09	0.0002024
3186.66	0.0001723
3198.24	9.524e-05
3209.81	0.0001315
3221.39	0.000131
3232.96	0.000122
3244.53	0.0001036
3256.11	5.59e-05
3267.68	0.0001038
3279.26	0.000133
3290.83	9.202e-05
3302.4	0.0001466
3313.98	0.0002042
3325.55	0.0001688
3337.13	0.000198
3348.7	0.0001949
3360.27	0.0001859
3371.85	0.0001992
3383.42	0.000217
3395	0.0001401
3406.57	0.0002647
3418.14	0.0002835
3429.72	0.0003314
3441.29	0.0003938
3452.86	0.0004731
3464.44	0.0004511
3476.01	0.0003966
3487.59	0.0003989
3499.16	0.0003615
3510.73	0.000301
3522.31	0.0003381
3533.88	0.0002465
3545.46	0.0004087
3557.03	0.0005743
3568.6	0.0007006
3580.18	0.00101
3591.75	0.00112
3603.33	0.00118
3614.9	0.0014
3626.47	0.0018
3638.05	0.00161
3649.62	0.00135
3661.2	0.00125
3672.77	0.0007168
3684.34	0.0005627
3695.92	0.0003533
3707.49	0.000439
3719.07	0.000399
3730.64	0.0003341
3742.21	0.0002404
3753.79	0.0002758
3765.36	0.0002913
3776.94	0.000302
3788.51	0.0002281
3800.08	0.0002289
3811.66	0.0002713
3823.23	0.0002475
3834.81	0.0002166
3846.38	0.000257
3857.95	0.0002347
3869.53	0.0002624
3881.1	0.0002193
3892.68	0.0002316
3904.25	0.0001845
3915.82	0.0002849
3927.4	0.0003028
3938.97	0.0003457
3950.55	0.0003433
3962.12	0.0003782
3973.69	0.0003769
3985.27	0.0003248
3996.84	0.0003658
