Infrared Spectrum: N-PHENYL N'-CYCLOHEXYL P-PHENYLENE DIAMINE
Formula: C18 H22 N2
CAS: 101-87-1
State: SOLID (NUJOL MULL)
Melting point: 116 C
Class: COBLENTZ
Instrument: Not specified, most likely a prism, grating, or hybrid spectrometer.
Sampling: TRANSMISSION
Resolution: 4
Origin: PERKIN-ELMER CORP.
MICROMETERS	TRANSMITTANCE
1.978	0.27
2.01163	0.266
2.04526	0.268
2.07889	0.275
2.11253	0.278
2.14616	0.286
2.17979	0.291
2.21342	0.296
2.24705	0.303
2.28068	0.308
2.31431	0.312
2.34795	0.315
2.38158	0.323
2.41521	0.338
2.44884	0.342
2.48247	0.345
2.5161	0.357
2.54973	0.37
2.58336	0.377
2.617	0.38
2.65063	0.384
2.68426	0.389
2.71789	0.392
2.75152	0.399
2.78515	0.401
2.81878	0.417
2.85242	0.421
2.88605	0.424
2.91968	0.422
2.95331	0.335
2.98694	0.379
3.02057	0.424
3.0542	0.451
3.08784	0.463
3.12147	0.471
3.1551	0.478
3.18873	0.486
3.22236	0.489
3.25599	0.489
3.28962	0.468
3.32326	0.447
3.35689	0.416
3.39052	0.27
3.42415	0.177
3.45778	0.149
3.49141	0.214
3.52504	0.278
3.55867	0.461
3.59231	0.525
3.62594	0.562
3.65957	0.577
3.6932	0.587
3.72683	0.592
3.76046	0.597
3.79409	0.597
3.82773	0.609
3.86136	0.619
3.89499	0.622
3.92862	0.63
3.96225	0.634
3.99588	0.639
4.02951	0.647
4.06315	0.651
4.09678	0.661
4.13041	0.662
4.16404	0.664
4.19767	0.664
4.2313	0.666
4.26493	0.667
4.29856	0.669
4.3322	0.669
4.36583	0.679
4.39946	0.687
4.43309	0.694
4.46672	0.697
4.50035	0.704
4.53398	0.708
4.56762	0.709
4.60125	0.711
4.63488	0.714
4.66851	0.719
4.70214	0.719
4.73577	0.721
4.7694	0.724
4.80304	0.728
4.83667	0.738
4.8703	0.744
4.90393	0.748
4.93756	0.75
4.97119	0.753
5.00482	0.756
5.03846	0.758
5.07209	0.763
5.10572	0.763
5.13935	0.766
5.17298	0.761
5.20661	0.758
5.24024	0.771
5.27387	0.775
5.30751	0.778
5.34114	0.781
5.37477	0.78
5.4084	0.781
5.44203	0.78
5.47566	0.796
5.50929	0.812
5.54293	0.82
5.57656	0.825
5.61019	0.823
5.64382	0.823
5.67745	0.825
5.71108	0.828
5.74471	0.835
5.77835	0.84
5.81198	0.848
5.84561	0.848
5.87924	0.848
5.91287	0.859
5.9465	0.864
5.98013	0.872
6.01377	0.877
6.0474	0.879
6.08103	0.874
6.11466	0.803
6.14829	0.5
6.18192	0.523
6.21555	0.474
6.24918	0.32
6.28282	0.501
6.31645	0.575
6.35008	0.697
6.38371	0.758
6.41734	0.761
6.45097	0.738
6.4846	0.703
6.51824	0.36
6.55187	0.219
6.5855	0.147
6.61913	0.139
6.65276	0.182
6.68639	0.174
6.72002	0.239
6.75366	0.308
6.78729	0.342
6.82092	0.32
6.85455	0.328
6.88818	0.337
6.92181	0.437
6.95544	0.515
6.98907	0.595
7.02271	0.667
7.05634	0.696
7.08997	0.726
7.1236	0.671
7.15723	0.627
7.19086	0.697
7.22449	0.692
7.25813	0.62
7.29176	0.602
7.32539	0.649
7.35902	0.744
7.39265	0.75
7.42628	0.736
7.45991	0.706
7.49355	0.711
7.52718	0.718
7.56081	0.602
7.59444	0.34
7.62807	0.229
7.6617	0.313
7.69533	0.266
7.72897	0.256
7.7626	0.374
7.79623	0.436
7.82986	0.494
7.86349	0.506
7.89712	0.56
7.93075	0.573
7.96438	0.56
7.99802	0.525
8.03165	0.444
8.06528	0.577
8.09891	0.587
8.13254	0.464
8.16617	0.493
8.1998	0.563
8.23344	0.625
8.26707	0.676
8.3007	0.703
8.33433	0.718
8.36796	0.733
8.40159	0.75
8.43522	0.77
8.46886	0.753
8.50249	0.553
8.53612	0.494
8.56975	0.64
8.60338	0.701
8.63701	0.718
8.67064	0.689
8.70428	0.649
8.73791	0.567
8.77154	0.649
8.80517	0.714
8.8388	0.721
8.87243	0.689
8.90606	0.587
8.93969	0.577
8.97333	0.671
9.00696	0.708
9.04059	0.701
9.07422	0.575
9.10785	0.687
9.14148	0.733
9.17511	0.76
9.20875	0.768
9.24238	0.77
9.27601	0.736
9.30964	0.758
9.34327	0.775
9.3769	0.798
9.41053	0.802
9.44417	0.815
9.4778	0.818
9.51143	0.818
9.54506	0.822
9.57869	0.827
9.61232	0.828
9.64595	0.835
9.67959	0.835
9.71322	0.795
9.74685	0.773
9.78048	0.763
9.81411	0.798
9.84774	0.823
9.88137	0.845
9.915	0.847
9.94864	0.848
9.98227	0.85
10.0159	0.86
10.0495	0.854
10.0832	0.699
10.1168	0.728
10.1504	0.81
10.1841	0.813
10.2177	0.796
10.2513	0.815
10.2849	0.83
10.3186	0.842
10.3522	0.843
10.3858	0.85
10.4195	0.869
10.4531	0.865
10.4867	0.869
10.5204	0.874
10.554	0.875
10.5876	0.847
10.6213	0.823
10.6549	0.848
10.6885	0.865
10.7222	0.877
10.7558	0.879
10.7894	0.88
10.8231	0.879
10.8567	0.874
10.8903	0.86
10.9239	0.869
10.9576	0.877
10.9912	0.885
11.0248	0.889
11.0585	0.89
11.0921	0.892
11.1257	0.892
11.1594	0.885
11.193	0.884
11.2266	0.87
11.2603	0.828
11.2939	0.817
11.3275	0.837
11.3612	0.802
11.3948	0.669
11.4284	0.674
11.462	0.733
11.4957	0.761
11.5293	0.81
11.5629	0.848
11.5966	0.859
11.6302	0.867
11.6638	0.865
11.6975	0.859
11.7311	0.776
11.7647	0.748
11.7984	0.756
11.832	0.771
11.8656	0.78
11.8993	0.786
11.9329	0.788
11.9665	0.781
12.0001	0.78
12.0338	0.776
12.0674	0.773
12.101	0.739
12.1347	0.684
12.1683	0.61
12.2019	0.557
12.2356	0.526
12.2692	0.526
12.3028	0.553
12.3365	0.587
12.3701	0.625
12.4037	0.664
12.4374	0.704
12.471	0.703
12.5046	0.689
12.5383	0.664
12.5719	0.662
12.6055	0.667
12.6391	0.684
12.6728	0.716
12.7064	0.756
12.74	0.78
12.7737	0.818
12.8073	0.832
12.8409	0.843
12.8746	0.847
12.9082	0.848
12.9418	0.85
12.9755	0.848
13.0091	0.845
13.0427	0.84
13.0764	0.833
13.11	0.828
13.1436	0.82
13.1772	0.802
13.2109	0.778
13.2445	0.751
13.2781	0.719
13.3118	0.667
13.3454	0.604
13.379	0.5
13.4127	0.394
13.4463	0.327
13.4799	0.327
13.5136	0.432
13.5472	0.541
13.5808	0.632
13.6145	0.706
13.6481	0.75
13.6817	0.781
13.7154	0.793
13.749	0.798
13.7826	0.805
13.8162	0.813
13.8499	0.813
13.8835	0.81
13.9171	0.81
13.9508	0.813
13.9844	0.818
14.018	0.825
14.0517	0.825
14.0853	0.813
14.1189	0.788
14.1526	0.756
14.1862	0.761
14.2198	0.778
14.2535	0.785
14.2871	0.761
14.3207	0.729
14.3543	0.615
14.388	0.458
14.4216	0.355
14.4552	0.379
14.4889	0.506
14.5225	0.62
14.5561	0.686
14.5898	0.723
14.6234	0.748
14.657	0.755
14.6907	0.765
14.7243	0.77
14.7579	0.778
14.7916	0.778
14.8252	0.776
14.8588	0.775
14.8924	0.775
14.9261	0.771
14.9597	0.778
14.9933	0.785
15.027	0.785
