Infrared Spectrum: PHOSPHOROUS ACID, TRIPHENYL ESTER
Formula: C18 H15 O3 P
CAS: 101-02-0
State: SOLUTION (10% IN CCl4 FOR 3800-1330, 10% IN CS2 FOR 1330-400 CM^-^1)
Class: COBLENTZ III
Instrument: BECKMAN IR-9 (GRATING)
Instrument parameters: ORDER CHANGES AT 670, 1200, 2000 CM^-^1
Sampling: TRANSMISSION
Path length: 0.010, 0.011 CM
Resolution: 4
Origin: DOW CHEMICAL COMPANY
1/CM	TRANSMITTANCE
401.024	0.864
409.556	0.882
418.089	0.906
426.621	0.899
435.154	0.85
443.686	0.816
452.219	0.796
460.751	0.77
469.283	0.767
477.816	0.779
486.348	0.606
494.881	0.29
503.413	0.481
511.946	0.798
520.478	0.855
529.011	0.879
537.543	0.881
546.075	0.883
554.608	0.854
563.14	0.843
571.673	0.933
580.205	0.951
588.738	0.947
597.27	0.867
605.802	0.918
614.335	0.806
622.867	0.939
631.4	0.982
639.932	0.983
648.465	0.963
656.997	0.901
665.53	0.915
674.062	0.858
682.594	0.343
691.127	0.1451
699.659	0.635
708.192	0.466
716.724	0.169
725.257	0.187
733.789	0.362
742.321	0.364
750.854	0.191
759.386	0.05
767.919	0.041
776.451	0.042
784.984	0.284
793.516	0.657
802.048	0.791
810.581	0.794
819.113	0.552
827.646	0.585
836.178	0.639
844.711	0.374
853.243	0.029
861.776	0.002
870.308	0
878.84	0.004
887.373	0.065
895.905	0.077
904.438	0.113
912.97	0.089
921.503	0.112
930.035	0.402
938.567	0.625
947.1	0.659
955.632	0.576
964.165	0.592
972.697	0.707
981.23	0.804
989.762	0.804
998.295	0.732
1006.83	0.762
1015.36	0.767
1023.89	0.1801
1032.42	0.851
1040.96	0.926
1049.49	0.945
1058.02	0.919
1066.55	0.5369
1075.09	0.804
1083.62	0.917
1092.15	0.929
1100.68	0.901
1109.22	0.899
1117.75	0.922
1126.28	0.914
1134.81	0.875
1143.35	0.758
1151.88	0.3549
1160.41	0.026
1168.94	0.204
1177.48	0.113
1186.01	0.002
1194.54	0
1203.07	0
1211.61	0.278
1220.14	0.3709
1228.67	0.283
1237.2	0.315
1245.74	0.641
1254.27	0.767
1262.8	0.828
1271.33	0.847
1279.86	0.792
1288.4	0.795
1296.93	0.806
1305.46	0.842
1313.99	0.848
1322.53	0.889
1331.06	0.858
1339.59	0.881
1348.12	0.907
1356.66	0.91
1365.19	0.915
1373.72	0.914
1382.25	0.914
1390.79	0.899
1399.32	0.919
1407.85	0.939
1416.38	0.942
1424.92	0.937
1433.45	0.926
1441.98	0.89
1450.51	0.7579
1459.05	0.782
1467.58	0.622
1476.11	0.258
1484.64	0.042
1493.18	0
1501.71	0.566
1510.24	0.743
1518.77	0.827
1527.31	0.877
1535.84	0.899
1544.37	0.906
1552.9	0.91
1561.44	0.889
1569.97	0.804
1578.5	0.501
1587.03	0.086
1595.57	0.026
1604.1	0.66
1612.63	0.834
1621.16	0.867
1629.69	0.891
1638.23	0.894
1646.76	0.895
1655.29	0.907
1663.82	0.918
1672.36	0.93
1680.89	0.931
1689.42	0.927
1697.95	0.931
1706.49	0.925
1715.02	0.905
1723.55	0.893
1732.08	0.909
1740.62	0.935
1749.15	0.943
1757.68	0.946
1766.21	0.939
1774.75	0.895
1783.28	0.889
1791.81	0.926
1800.34	0.938
1808.88	0.95
1817.41	0.955
1825.94	0.955
1834.47	0.95
1843.01	0.921
1851.54	0.899
1860.07	0.899
1868.6	0.911
1877.14	0.911
1885.67	0.931
1894.2	0.935
1902.73	0.933
1911.27	0.931
1919.8	0.918
1928.33	0.823
1936.86	0.872
1945.39	0.894
1953.93	0.882
1962.46	0.915
1970.99	0.927
1979.52	0.934
1988.06	0.938
1996.59	0.95
2005.12	0.949
2013.65	0.941
2022.19	0.939
2030.72	0.938
2039.25	0.937
2047.78	0.937
2056.32	0.934
2064.85	0.931
2073.38	0.931
2081.91	0.931
2090.45	0.933
2098.98	0.9351
2107.51	0.938
2116.04	0.942
2124.58	0.949
2133.11	0.95
2141.64	0.95
2150.17	0.951
2158.71	0.953
2167.24	0.954
2175.77	0.954
2184.3	0.9529
2192.84	0.95
2201.37	0.9528
2209.9	0.951
2218.43	0.9499
2226.97	0.947
2235.5	0.9469
2244.03	0.9451
2252.56	0.949
2261.1	0.9499
2269.63	0.947
2278.16	0.949
2286.69	0.949
2295.22	0.95
2303.76	0.953
2312.29	0.9469
2320.82	0.9387
2329.35	0.934
2337.89	0.934
2346.42	0.935
2354.95	0.9339
2363.48	0.93
2372.02	0.931
2380.55	0.929
2389.08	0.9247
2397.61	0.918
2406.15	0.9153
2414.68	0.921
2423.21	0.9178
2431.74	0.9148
2440.28	0.913
2448.81	0.9142
2457.34	0.923
2465.87	0.93
2474.41	0.934
2482.94	0.935
2491.47	0.937
2500	0.9394
2508.54	0.9434
2517.07	0.946
2525.6	0.947
2534.13	0.95
2542.67	0.953
2551.2	0.953
2559.73	0.9525
2568.26	0.9468
2576.8	0.9378
2585.33	0.939
2593.86	0.9475
2602.39	0.951
2610.92	0.9525
2619.46	0.947
2627.99	0.9463
2636.52	0.9503
2645.05	0.954
2653.59	0.954
2662.12	0.953
2670.65	0.953
2679.18	0.953
2687.72	0.953
2696.25	0.953
2704.78	0.953
2713.31	0.9533
2721.85	0.9547
2730.38	0.954
2738.91	0.9547
2747.44	0.953
2755.98	0.953
2764.51	0.953
2773.04	0.953
2781.57	0.954
2790.11	0.954
2798.64	0.954
2807.17	0.955
2815.7	0.955
2824.24	0.957
2832.77	0.958
2841.3	0.958
2849.83	0.958
2858.37	0.958
2866.9	0.954
2875.43	0.9496
2883.96	0.947
2892.5	0.95
2901.03	0.953
2909.56	0.953
2918.09	0.954
2926.63	0.954
2935.16	0.955
2943.69	0.953
2952.22	0.951
2960.75	0.954
2969.29	0.953
2977.82	0.953
2986.35	0.9496
2994.88	0.9466
3003.42	0.9373
3011.95	0.9032
3020.48	0.8528
3029.01	0.713
3037.55	0.7204
3046.08	0.6518
3054.61	0.7687
3063.14	0.6781
3071.68	0.6485
3080.21	0.6874
3088.74	0.7729
3097.27	0.7604
3105.81	0.8502
3114.34	0.9192
3122.87	0.9394
3131.4	0.948
3139.94	0.953
3148.47	0.9535
3157	0.954
3165.53	0.958
3174.07	0.96
3182.6	0.959
3191.13	0.958
3199.66	0.959
3208.2	0.9655
3216.73	0.967
3225.26	0.969
3233.79	0.97
3242.33	0.971
3250.86	0.9735
3259.39	0.9745
3267.92	0.975
3276.45	0.975
3284.99	0.975
3293.52	0.975
3302.05	0.975
3310.58	0.975
3319.12	0.975
3327.65	0.975
3336.18	0.9744
3344.71	0.973
3353.25	0.971
3361.78	0.971
3370.31	0.97
3378.84	0.97
3387.38	0.971
3395.91	0.971
3404.44	0.971
3412.97	0.971
3421.51	0.973
3430.04	0.973
3438.57	0.973
3447.1	0.973
3455.64	0.974
3464.17	0.974
3472.7	0.974
3481.23	0.974
3489.77	0.974
3498.3	0.974
3506.83	0.974
3515.36	0.975
3523.9	0.975
3532.43	0.975
3540.96	0.975
3549.49	0.975
3558.03	0.975
3566.56	0.975
3575.09	0.975
3583.62	0.9743
3592.16	0.974
3600.69	0.977
3609.22	0.9756
3617.75	0.9733
3626.28	0.973
3634.82	0.974
3643.35	0.975
3651.88	0.975
3660.41	0.977
3668.95	0.978
3677.48	0.978
3686.01	0.978
3694.54	0.978
3703.08	0.978
3711.61	0.978
3720.14	0.978
3728.67	0.979
3737.21	0.979
3745.74	0.979
3754.27	0.981
3762.8	0.981
3771.34	0.979
3779.87	0.979
3788.4	0.978
3796.93	0.978
