Infrared Spectrum: N-Phenylurethane
Formula: C 9 H 11 N O 2
CAS: 101-99-5
State: gas
Origin: EPA-IR VAPOR PHASE LIBRARY
1/CM	ABSORBANCE
549.8	0.01095
559.445	0.00766
569.09	0.00571
578.734	0.00478
588.379	0.00366
598.024	0.00358
607.669	0.00439
617.313	0.00419
626.958	0.00374
636.603	0.00433
646.248	0.00389
655.893	0.00444
665.537	0.00734
675.182	0.01471
684.827	0.02325
694.472	0.02417
704.116	0.02014
713.761	0.01692
723.406	0.01741
733.051	0.02414
742.695	0.03649
752.34	0.04032
761.985	0.03314
771.63	0.02611
781.275	0.01699
790.919	0.00992
800.564	0.00672
810.209	0.00523
819.854	0.00723
829.498	0.008
839.143	0.00407
848.788	0.00283
858.433	0.00321
868.078	0.00387
877.722	0.00456
887.367	0.00619
897.012	0.00658
906.657	0.0052
916.301	0.00407
925.946	0.00395
935.591	0.00361
945.236	0.00366
954.88	0.00428
964.525	0.00563
974.17	0.0077
983.815	0.01005
993.46	0.00956
1003.1	0.00854
1012.75	0.01014
1022.39	0.02145
1032.04	0.03016
1041.68	0.02665
1051.33	0.05616
1060.97	0.10503
1070.62	0.10514
1080.26	0.07695
1089.91	0.06467
1099.55	0.06268
1109.2	0.04317
1118.84	0.0243
1128.49	0.01894
1138.13	0.01873
1147.78	0.02389
1157.42	0.03224
1167.07	0.04803
1176.71	0.09209
1186.36	0.1875
1196	0.35107
1205.64	0.33481
1215.29	0.12691
1224.93	0.05799
1234.58	0.04161
1244.22	0.03856
1253.87	0.03106
1263.51	0.02809
1273.16	0.03524
1282.8	0.05017
1292.45	0.07546
1302.09	0.11073
1311.74	0.10919
1321.38	0.08149
1331.03	0.04698
1340.67	0.02978
1350.32	0.01904
1359.96	0.01664
1369.61	0.02615
1379.25	0.03384
1388.9	0.03251
1398.54	0.03149
1408.18	0.0265
1417.83	0.02579
1427.47	0.04333
1437.12	0.11806
1446.76	0.12025
1456.41	0.04046
1466.05	0.03477
1475.7	0.0394
1485.34	0.04627
1494.99	0.0916
1504.63	0.18906
1514.28	0.26979
1523.92	0.22783
1533.57	0.11565
1543.21	0.0506
1552.86	0.02962
1562.5	0.02279
1572.15	0.02229
1581.79	0.033
1591.44	0.06679
1601.08	0.08876
1610.73	0.05393
1620.37	0.02296
1630.01	0.01119
1639.66	0.00872
1649.3	0.00792
1658.95	0.00725
1668.59	0.00695
1678.24	0.00733
1687.88	0.00873
1697.53	0.01142
1707.17	0.01554
1716.82	0.02079
1726.46	0.03386
1736.11	0.07128
1745.75	0.15392
1755.4	0.22353
1765.04	0.19678
1774.69	0.1124
1784.33	0.04447
1793.98	0.02151
1803.62	0.01382
1813.27	0.01108
1822.91	0.00952
1832.55	0.00815
1842.2	0.0073
1851.84	0.00652
1861.49	0.00527
1871.13	0.00447
1880.78	0.00353
1890.42	0.00324
1900.07	0.00312
1909.71	0.00352
1919.36	0.00399
1929	0.00451
1938.65	0.00429
1948.29	0.00393
1957.94	0.00308
1967.58	0.00248
1977.23	0.00211
1986.87	0.00188
1996.52	0.00166
2006.16	0.00158
2015.81	0.00145
2025.45	0.00151
2035.1	0.00148
2044.74	0.0016
2054.38	0.00153
2064.03	0.00175
2073.67	0.00189
2083.32	0.00211
2092.96	0.00222
2102.61	0.00195
2112.25	0.00177
2121.9	0.00168
2131.54	0.00162
2141.19	0.00151
2150.83	0.00166
2160.48	0.00182
2170.12	0.00218
2179.77	0.00254
2189.41	0.00248
2199.06	0.0021
2208.7	0.00176
2218.35	0.00148
2227.99	0.00138
2237.64	0.00155
2247.28	0.00175
2256.92	0.00217
2266.57	0.00253
2276.21	0.00259
2285.86	0.00238
2295.5	0.00186
2305.15	0.00161
2314.79	0.00151
2324.44	0.00149
2334.08	0.00155
2343.73	0.00167
2353.37	0.00162
2363.02	0.00132
2372.66	0.00151
2382.31	0.00136
2391.95	0.00125
2401.6	0.00123
2411.24	0.00131
2420.89	0.00154
2430.53	0.00168
2440.18	0.00136
2449.82	0.00126
2459.47	0.00107
2469.11	0.00116
2478.75	0.0013
2488.4	0.00146
2498.04	0.00149
2507.69	0.00164
2517.33	0.00158
2526.98	0.00147
2536.62	0.00139
2546.27	0.00147
2555.91	0.00141
2565.56	0.00122
2575.2	0.0011
2584.85	0.00121
2594.49	0.00102
2604.14	0.00117
2613.78	0.00123
2623.43	0.00102
2633.07	0.00109
2642.72	0.00124
2652.36	0.0009882
2662.01	0.00112
2671.65	0.00106
2681.29	0.00116
2690.94	0.00122
2700.58	0.00112
2710.23	0.00123
2719.87	0.00136
2729.52	0.00149
2739.16	0.00156
2748.81	0.00155
2758.45	0.00159
2768.1	0.00158
2777.74	0.00159
2787.39	0.0015
2797.03	0.00173
2806.68	0.0015
2816.32	0.00191
2825.97	0.00227
2835.61	0.00225
2845.26	0.00248
2854.9	0.00287
2864.55	0.00376
2874.19	0.00516
2883.84	0.00747
2893.48	0.00848
2903.12	0.00912
2912.77	0.01074
2922.41	0.01162
2932.06	0.01431
2941.7	0.02115
2951.35	0.02036
2960.99	0.01978
2970.64	0.0255
2980.28	0.03587
2989.93	0.03719
2999.57	0.02619
3009.22	0.0195
3018.86	0.01676
3028.51	0.01863
3038.15	0.01914
3047.8	0.01606
3057.44	0.01838
3067.09	0.024
3076.73	0.01973
3086.38	0.01353
3096.02	0.0104
3105.67	0.00807
3115.31	0.00587
3124.95	0.00364
3134.6	0.00247
3144.24	0.00194
3153.89	0.00181
3163.53	0.00155
3173.18	0.0015
3182.82	0.00117
3192.47	0.00135
3202.11	0.00102
3211.76	0.0012
3221.4	0.0009117
3231.05	0.0009274
3240.69	0.00109
3250.34	0.0007553
3259.98	0.0008251
3269.63	0.0009713
3279.27	0.0007107
3288.92	0.0008249
3298.56	0.0005482
3308.21	0.0005333
3317.85	0.0008014
3327.49	0.0008282
3337.14	0.0006991
3346.78	0.0008744
3356.43	0.0007568
3366.07	0.0009694
3375.72	0.0007871
3385.36	0.0008804
3395.01	0.0009347
3404.65	0.0012
3414.3	0.00152
3423.94	0.00257
3433.59	0.00473
3443.23	0.00887
3452.88	0.01618
3462.52	0.02252
3472.17	0.01974
3481.81	0.01124
3491.46	0.00554
3501.1	0.00368
3510.75	0.00275
3520.39	0.00229
3530.04	0.00176
3539.68	0.00108
3549.32	0.00103
3558.97	0.0006106
3568.61	0.0008409
3578.26	0.0007371
3587.9	0.0006965
3597.55	0.000861
3607.19	0.000621
3616.84	0.0004972
3626.48	0.0005515
3636.13	0.000762
3645.77	0.0006658
3655.42	0.000719
3665.06	0.0005807
3674.71	0.0009453
3684.35	0.0008321
3694	0.0005064
3703.64	0.0007089
3713.29	0.0007879
3722.93	0.0008845
3732.58	0.0008607
3742.22	0.0006498
3751.86	0.0005965
3761.51	0.0008635
3771.15	0.0007591
3780.8	0.000642
3790.44	0.0008921
3800.09	0.0008136
3809.73	0.0005185
3819.38	0.0006545
3829.02	0.000577
3838.67	0.0009148
3848.31	0.0009211
3857.96	0.00117
3867.6	0.0006184
3877.25	0.0007015
3886.89	0.0005667
3896.54	0.000858
3906.18	0.0007185
3915.83	0.0011
3925.47	0.000806
3935.12	0.0007585
3944.76	0.0009745
3954.41	0.00115
3964.05	0.0009589
3973.69	0.001
3983.34	0.0009265
3992.98	0.00107
