Infrared Spectrum: 4,4'-Dimethoxydiphenylamine
Formula: C 14 H 15 N O 2
CAS: 101-70-2
State: gas
Origin: EPA-IR VAPOR PHASE LIBRARY
1/CM	ABSORBANCE
549.9	0.01184
559.547	0.01063
569.193	0.01049
578.84	0.01151
588.486	0.0132
598.133	0.01377
607.779	0.01285
617.426	0.01153
627.072	0.01081
636.719	0.01043
646.365	0.00905
656.012	0.00782
665.658	0.00702
675.305	0.00641
684.951	0.006
694.598	0.00564
704.245	0.00567
713.891	0.00552
723.538	0.00496
733.184	0.00505
742.831	0.00632
752.477	0.01296
762.124	0.03735
771.77	0.02121
781.417	0.01322
791.063	0.01426
800.71	0.01919
810.356	0.03426
820.003	0.05456
829.649	0.04807
839.296	0.0273
848.943	0.01633
858.589	0.01127
868.236	0.00913
877.882	0.0077
887.529	0.00514
897.175	0.00428
906.822	0.0038847
916.468	0.0037337
926.115	0.0035717
935.761	0.0035982
945.408	0.0038218
955.054	0.00419
964.701	0.00488
974.347	0.00598
983.994	0.00752
993.64	0.00985
1003.29	0.01401
1012.93	0.02068
1022.58	0.035
1032.23	0.06229
1041.87	0.07748
1051.52	0.05216
1061.17	0.0239
1070.81	0.01309
1080.46	0.00965
1090.11	0.01056
1099.75	0.01458
1109.4	0.0153
1119.05	0.01152
1128.69	0.00853
1138.34	0.00808
1147.99	0.01036
1157.63	0.01914
1167.28	0.04482
1176.92	0.04248
1186.57	0.0366
1196.22	0.03027
1205.86	0.0442
1215.51	0.07491
1225.16	0.16176
1234.8	0.30362
1244.45	0.2721
1254.1	0.15714
1263.74	0.10678
1273.39	0.08437
1283.04	0.06997
1292.68	0.05588
1302.33	0.03995
1311.98	0.02787
1321.62	0.02021
1331.27	0.01507
1340.92	0.01167
1350.56	0.0095
1360.21	0.0083
1369.86	0.00823
1379.5	0.00916
1389.15	0.0094
1398.79	0.00867
1408.44	0.00954
1418.09	0.01218
1427.73	0.01695
1437.38	0.02782
1447.03	0.04097
1456.67	0.03795
1466.32	0.04983
1475.97	0.04713
1485.61	0.05957
1495.26	0.17469
1504.91	0.49039
1514.55	0.32496
1524.2	0.10492
1533.85	0.04732
1543.49	0.02847
1553.14	0.01989
1562.79	0.01614
1572.43	0.01442
1582.08	0.01438
1591.73	0.0137
1601.37	0.01258
1611.02	0.0129
1620.67	0.01205
1630.31	0.01001
1639.96	0.00818
1649.6	0.00672
1659.25	0.00581
1668.9	0.00511
1678.54	0.00464
1688.19	0.00437
1697.84	0.00417
1707.48	0.00423
1717.13	0.00434
1726.78	0.00471
1736.42	0.00497
1746.07	0.00455
1755.72	0.00414
1765.36	0.0040196
1775.01	0.0039362
1784.66	0.0038303
1794.3	0.0039189
1803.95	0.00423
1813.6	0.00446
1823.24	0.00462
1832.89	0.00487
1842.54	0.00535
1852.18	0.00582
1861.83	0.00586
1871.47	0.00539
1881.12	0.00484
1890.77	0.00419
1900.41	0.0037527
1910.06	0.0035642
1919.71	0.0035655
1929.35	0.0038864
1939	0.0037743
1948.65	0.0034209
1958.29	0.0033221
1967.94	0.0033025
1977.59	0.0036379
1987.23	0.00413
1996.88	0.00482
2006.53	0.00521
2016.17	0.00524
2025.82	0.00513
2035.47	0.00525
2045.11	0.00556
2054.76	0.0059
2064.41	0.00583
2074.05	0.00562
2083.7	0.00518
2093.35	0.00437
2102.99	0.0033866
2112.64	0.00284
2122.28	0.002452
2131.93	0.00225
2141.58	0.00211
2151.22	0.00203
2160.87	0.00197
2170.52	0.00195
2180.16	0.00193
2189.81	0.00193
2199.46	0.00196
2209.1	0.00206
2218.75	0.00203
2228.4	0.002121
2238.04	0.002141
2247.69	0.002168
2257.34	0.002412
2266.98	0.00279
2276.63	0.0030436
2286.28	0.002845
2295.92	0.002636
2305.57	0.002538
2315.22	0.002502
2324.86	0.002304
2334.51	0.002158
2344.16	0.002189
2353.8	0.002267
2363.45	0.002431
2373.09	0.002632
2382.74	0.002685
2392.39	0.002439
2402.03	0.002328
2411.68	0.002284
2421.33	0.002112
2430.97	0.00205
2440.62	0.002167
2450.27	0.002394
2459.91	0.002728
2469.56	0.0030178
2479.21	0.00317215
2488.85	0.00314432
2498.5	0.00311194
2508.15	0.00314904
2517.79	0.0032497
2527.44	0.0032287
2537.09	0.00319322
2546.73	0.002806
2556.38	0.002393
2566.03	0.002224
2575.67	0.0021
2585.32	0.00211
2594.96	0.00219
2604.61	0.0021
2614.26	0.00201
2623.9	0.00182
2633.55	0.00179
2643.2	0.00186
2652.84	0.00168
2662.49	0.00162
2672.14	0.00177
2681.78	0.00184
2691.43	0.00197
2701.08	0.00204
2710.72	0.00193
2720.37	0.00199
2730.02	0.00211
2739.66	0.002231
2749.31	0.002294
2758.96	0.002415
2768.6	0.002687
2778.25	0.0030701
2787.9	0.0037529
2797.54	0.00493
2807.19	0.0067
2816.84	0.00907
2826.48	0.01359
2836.13	0.02711
2845.77	0.03072
2855.42	0.01681
2865.07	0.01195
2874.71	0.01093
2884.36	0.01171
2894.01	0.01461
2903.65	0.02017
2913.3	0.02641
2922.95	0.02714
2932.59	0.03117
2942.24	0.04031
2951.89	0.03726
2961.53	0.02913
2971.18	0.02136
2980.83	0.01878
2990.47	0.02397
3000.12	0.04088
3009.77	0.03837
3019.41	0.02262
3029.06	0.02487
3038.71	0.02584
3048.35	0.02055
3058	0.017
3067.64	0.01575
3077.29	0.0134
3086.94	0.00954
3096.58	0.00829
3106.23	0.00719
3115.88	0.00532
3125.52	0.0039256
3135.17	0.002692
3144.82	0.00161
3154.46	0.00123
3164.11	0.00087
3173.76	0.00075
3183.4	0.00043
3193.05	0.00044
3202.7	0.00034
3212.34	0.00033
3221.99	0.00024
3231.64	0.00025
3241.28	0.0003
3250.93	0.00022
3260.58	0.00022
3270.22	0.00018
3279.87	0.00018
3289.52	0.00019
3299.16	0.00015
3308.81	0
3318.45	0.00033
3328.1	0.00041
3337.75	0.0003
3347.39	0.00043
3357.04	0.00035
3366.69	0.00043
3376.33	0.0007
3385.98	0.00109
3395.63	0.00167
3405.27	0.002555
3414.92	0.0040589
3424.57	0.00478
3434.21	0.00446
3443.86	0.00314036
3453.51	0.002264
3463.15	0.00173
3472.8	0.00126
3482.45	0.00128
3492.09	0.00102
3501.74	0.0008
3511.39	0.0009
3521.03	0.00097
3530.68	0.00087
3540.33	0.00098
3549.97	0.00089
3559.62	0.00109
3569.26	0.00103
3578.91	0.00101
3588.56	0.00103
3598.2	0.00102
3607.85	0.00098
3617.5	0.00096
3627.14	0.0011
3636.79	0.00106
3646.44	0.00113
3656.08	0.00116
3665.73	0.0013
3675.38	0.00128
3685.02	0.00134
3694.67	0.00131
3704.32	0.00133
3713.96	0.00127
3723.61	0.00126
3733.26	0.00123
3742.9	0.00129
3752.55	0.0013
3762.2	0.00123
3771.84	0.00136
3781.49	0.0013
3791.13	0.00135
3800.78	0.00137
3810.43	0.00147
3820.07	0.00146
3829.72	0.00141
3839.37	0.00137
3849.01	0.00138
3858.66	0.00147
3868.31	0.00163
3877.95	0.00161
3887.6	0.00163
3897.25	0.00163
3906.89	0.00154
3916.54	0.00147
3926.19	0.0015
3935.83	0.00146
3945.48	0.00169
3955.13	0.00163
3964.77	0.00169
3974.42	0.00171
3984.07	0.00167
3993.71	0.00166
