Infrared Spectrum: Diperodon
Formula: C 22 H 27 N 3 O 4
CAS: 101-08-6
State: gas
Instrument: HP-GC/MS/IRD
Origin: NIST Mass Spectrometry Data Center
1/CM	ABSORBANCE
550	0.0002247
562	0.0001603
574	7e-05
586	0.0001666
598	6.86e-05
610	0.0002205
622	0.000238
634	0.0001106
646	0.0002422
658	0.000175
670	0.0003472
682	0.0005803
694	0.0006209
706	0.0005978
718	0.0005593
730	0.0006342
742	0.0009618
754	0.0009471
766	0.000798
778	0.0005306
790	0.0004543
802	0.0002632
814	0.0003045
826	0.0001694
838	0.0002695
850	0.00028
862	0.0002296
874	0.0002247
886	0.0003311
898	0.0003227
910	0.0003395
922	0.0003059
934	0.0003087
946	0.0003115
958	0.0002996
970	0.000287
982	0.0002695
994	0.0002898
1006	0.0003045
1018	0.0004165
1030	0.0005957
1042	0.0004578
1054	0.0008974
1066	0.0017234
1078	0.0014525
1090	0.0008246
1102	0.0005943
1114	0.0005026
1126	0.0004165
1138	0.0004179
1150	0.0004424
1162	0.0006223
1174	0.0011578
1186	0.0024689
1198	0.0057806
1210	0.0062307
1222	0.0020181
1234	0.0010668
1246	0.0008939
1258	0.0007007
1270	0.0006874
1282	0.0008813
1294	0.001351
1306	0.0018235
1318	0.0016128
1330	0.0011312
1342	0.0009975
1354	0.0007574
1366	0.0004648
1378	0.0004263
1390	0.0003437
1402	0.0003542
1414	0.0005208
1426	0.0011606
1438	0.0018816
1450	0.002226
1462	0.0010052
1474	0.0008708
1486	0.0010528
1498	0.002282
1510	0.0046907
1522	0.0051415
1534	0.0021497
1546	0.0011081
1558	0.0007098
1570	0.000539
1582	0.0007063
1594	0.0014868
1606	0.0015925
1618	0.0007098
1630	0.0003248
1642	0.000238
1654	0.0002345
1666	0.0002387
1678	0.000287
1690	0.000266
1702	0.0003108
1714	0.0004011
1726	0.0006104
1738	0.0011704
1750	0.002856
1762	0.0043848
1774	0.0032011
1786	0.0014273
1798	0.0007091
1810	0.0003822
1822	0.0002625
1834	0.0002121
1846	0.0001925
1858	0.0001876
1870	0.0001666
1882	0.0001428
1894	0.0001295
1906	0.000112
1918	0.0001498
1930	0.0001288
1942	0.0001463
1954	0.000105
1966	7.7e-05
1978	0.0001155
1990	6.16e-05
2002	7.56e-05
2014	4.48e-05
2026	6.16e-05
2038	7.28e-05
2050	7.84e-05
2062	6.93e-05
2074	8.05e-05
2086	8.68e-05
2098	0.0001183
2110	9.87e-05
2122	0.0001141
2134	0.000119
2146	0.0001302
2158	0.0001169
2170	0.0001043
2182	0.0001218
2194	0.0001659
2206	0.0001799
2218	0.0001274
2230	0.0002079
2242	0.0003171
2254	0.0005299
2266	0.0007735
2278	0.0008736
2290	0.0007385
2302	0.000357
2314	0.0002541
2326	0.0001617
2338	0.0001575
2350	0.0001232
2362	0.0001855
2374	0.0001652
2386	9.45e-05
2398	6.72e-05
2410	4.48e-05
2422	3.99e-05
2434	4.2e-05
2446	1.54e-05
2458	6.65e-05
2470	5.81e-05
2482	4.97e-05
2494	6.93e-05
2506	6.16e-05
2518	6.65e-05
2530	8.05e-05
2542	8.82e-05
2554	6.65e-05
2566	8.96e-05
2578	9.31e-05
2590	7.77e-05
2602	7.14e-05
2614	9.52e-05
2626	8.19e-05
2638	6.79e-05
2650	8.33e-05
2662	9.73e-05
2674	0.0001134
2686	7.98e-05
2698	0.0001092
2710	0.0001155
2722	7.28e-05
2734	0.0001274
2746	0.0001106
2758	0.0001512
2770	0.0001162
2782	0.0001176
2794	0.0001225
2806	0.0001526
2818	0.0001421
2830	0.0001827
2842	0.0002513
2854	0.0002009
2866	0.0001862
2878	0.0002177
2890	0.0002394
2902	0.0002821
2914	0.0002611
2926	0.0002982
2938	0.000329
2950	0.0004788
2962	0.0007973
2974	0.0005656
2986	0.0003486
2998	0.0003829
3010	0.0003773
3022	0.0004662
3034	0.0005404
3046	0.000511
3058	0.0004865
3070	0.0005894
3082	0.0004823
3094	0.000371
3106	0.0002975
3118	0.0002954
3130	0.0001939
3142	0.0001792
3154	0.0001365
3166	9.1e-05
3178	0.000126
3190	0.0001274
3202	0.0001176
3214	0.000112
3226	0.0001064
3238	0.000126
3250	0.0001162
3262	5.32e-05
3274	0.0001162
3286	9.87e-05
3298	0.0001351
3310	0.0001057
3322	7.77e-05
3334	8.82e-05
3346	3.71e-05
3358	6.79e-05
3370	0.0001239
3382	7.77e-05
3394	7.98e-05
3406	7.21e-05
3418	0.0001008
3430	0.0001323
3442	0.0002107
3454	0.0004088
3466	0.0004704
3478	0.0003689
3490	0.0001232
3502	0.0001113
3514	6.65e-05
3526	3.15e-05
3538	0.0001078
3550	2.8e-05
3562	6.65e-05
3574	5.39e-05
3586	7.91e-05
3598	4.97e-05
3610	8.75e-05
3622	3.92e-05
3634	3.22e-05
3646	3.85e-05
3658	2.87e-05
3670	2.66e-05
3682	6.58e-05
3694	4.41e-05
3706	9.59e-05
3718	9.38e-05
3730	7.21e-05
3742	4.2e-06
3754	6.02e-05
3766	3.22e-05
3778	1.12e-05
3790	5.81e-05
3802	5.53e-05
3814	1.4e-06
3826	4.48e-05
3838	3.01e-05
