Infrared Spectrum: METHANE, BIS(4,4'-DIMETHYLAMINOPHENYL)-
Formula: C17 H22 N2
CAS: 101-61-1
State: FILM FROM C2HCl3 SOLUTION
Melting point: 88 C
Class: COBLENTZ II
Instrument: PERKIN-ELMER 180 (GRATING)
Instrument parameters: GRATINGS: 2000, 1000, 500, 250 CM^-^1; FILTER CHANGE: 2970, 2000, 1485, 1000, 743, 500, 372, 250, 186 CM^-^1.
Sampling: TRANSMISSION
Resolution: 2
Origin: K. K. DEB-NCI FREDERICK CANCER RESEARCH CENTER
1/CM	TRANSMITTANCE
402	0.7785
411	0.7993
420	0.8156
429	0.838
438	0.8439
447	0.8478
456	0.861
465	0.8618
474	0.8223
483	0.7624
492	0.8133
501	0.6578
510	0.591
519	0.786
528	0.8148
537	0.8712
546	0.8793
555	0.868
564	0.7235
573	0.5059
582	0.8324
591	0.8918
600	0.9034
609	0.9075
618	0.9066
627	0.9043
636	0.9008
645	0.9033
654	0.899
663	0.8693
672	0.8268
681	0.8486
690	0.5922
699	0.8592
708	0.7817
717	0.745
726	0.8466
735	0.7948
744	0.6542
753	0.5776
762	0.5442
771	0.6197
780	0.72
789	0.6629
798	0.1638
807	0.5305
816	0.6596
825	0.5613
834	0.2493
843	0.6207
852	0.773
861	0.844
870	0.8572
879	0.8557
888	0.8457
897	0.809
906	0.5657
915	0.8083
924	0.8129
933	0.7635
942	0.6691
951	0.3454
960	0.6129
969	0.7866
978	0.8511
987	0.8572
996	0.8549
1005	0.8414
1014	0.8328
1023	0.8276
1032	0.8238
1041	0.8135
1050	0.7921
1059	0.7358
1068	0.5375
1077	0.3692
1086	0.6835
1095	0.7312
1104	0.7273
1113	0.7024
1122	0.5824
1131	0.5369
1140	0.6265
1149	0.608
1158	0.5332
1167	0.2749
1176	0.3174
1185	0.5471
1194	0.2573
1203	0.5604
1212	0.3862
1221	0.3609
1230	0.2005
1239	0.121
1248	0.526
1257	0.6496
1266	0.6911
1275	0.678
1284	0.6813
1293	0.6736
1302	0.6184
1311	0.5348
1320	0.561
1329	0.483
1338	0.2712
1347	0.0836
1356	0.1479
1365	0.22
1374	0.5492
1383	0.6682
1392	0.7202
1401	0.7222
1410	0.7105
1419	0.6792
1428	0.5947
1437	0.4653
1446	0.211
1455	0.4434
1464	0.6129
1473	0.5048
1482	0.3861
1491	0.4643
1500	0.5045
1509	0.2916
1518	0.081
1527	0.0094
1536	0.1605
1545	0.3629
1554	0.5551
1563	0.4332
1572	0.464
1581	0.7059
1590	0.6678
1599	0.5322
1608	0.311
1617	0.0896
1626	0.245
1635	0.6024
1644	0.7286
1653	0.7896
1662	0.8216
1671	0.8382
1680	0.8474
1689	0.853
1698	0.8561
1707	0.8621
1716	0.8639
1725	0.8615
1734	0.868
1743	0.8609
1752	0.8475
1761	0.8455
1770	0.8689
1779	0.8754
1788	0.8733
1797	0.8755
1806	0.8777
1815	0.8809
1824	0.8774
1833	0.8703
1842	0.8587
1851	0.8181
1860	0.8379
1869	0.847
1878	0.7673
1887	0.7175
1896	0.8044
1905	0.7978
1914	0.8569
1923	0.8679
1932	0.8726
1941	0.8801
1950	0.8803
1959	0.885
1968	0.8901
1977	0.8902
1986	0.889
1995	0.8876
2004	0.8849
2013	0.88
2022	0.8805
2031	0.8787
2040	0.8732
2049	0.8716
2058	0.8686
2067	0.858
2076	0.8552
2085	0.8693
2094	0.8754
2103	0.8765
2112	0.8844
2121	0.8838
2130	0.8806
2139	0.8768
2148	0.8756
2157	0.8771
2166	0.8774
2175	0.8753
2184	0.874
2193	0.8738
2202	0.8744
2211	0.8751
2220	0.8748
2229	0.8695
2238	0.8629
2247	0.8674
2256	0.8706
2265	0.8714
2274	0.8716
2283	0.8714
2292	0.871
2301	0.8698
2310	0.8681
2319	0.864
2328	0.86
2337	0.8569
2346	0.8605
2355	0.8568
2364	0.8581
2373	0.8632
2382	0.8639
2391	0.8635
2400	0.8601
2409	0.8577
2418	0.8631
2427	0.862
2436	0.8593
2445	0.857
2454	0.8552
2463	0.8537
2472	0.8522
2481	0.8508
2490	0.8506
2499	0.8477
2508	0.8421
2517	0.8376
2526	0.837
2535	0.8378
2544	0.8388
2553	0.8358
2562	0.8276
2571	0.8189
2580	0.8282
2589	0.8359
2598	0.8384
2607	0.8355
2616	0.8269
2625	0.8196
2634	0.8163
2643	0.8151
2652	0.8142
2661	0.8135
2670	0.8121
2679	0.8095
2688	0.8064
2697	0.8028
2706	0.8015
2715	0.8044
2724	0.8066
2733	0.8003
2742	0.7748
2751	0.7311
2760	0.6876
2769	0.652
2778	0.6281
2787	0.5284
2796	0.3608
2805	0.268
2814	0.2626
2823	0.3423
2832	0.4344
2841	0.495
2850	0.4556
2859	0.4056
2868	0.3671
2877	0.3378
2886	0.2966
2895	0.2986
2904	0.3189
2913	0.325
2922	0.3857
2931	0.4459
2940	0.4843
2949	0.5227
2958	0.5611
2967	0.5975
2976	0.592
2985	0.5535
2994	0.5392
3003	0.4583
3012	0.4201
3021	0.5643
3030	0.6272
3039	0.6694
3048	0.7116
3057	0.7379
3066	0.7016
3075	0.6619
3084	0.681
3093	0.6524
3102	0.709
3111	0.7906
3120	0.8077
3129	0.8147
3138	0.8221
3147	0.8312
3156	0.8397
3165	0.845
3174	0.8463
3183	0.8468
3192	0.847
3201	0.8471
3210	0.8472
3219	0.8468
3228	0.8472
3237	0.8525
3246	0.8551
3255	0.8561
3264	0.8563
3273	0.8564
3282	0.8564
3291	0.8564
3300	0.8564
3309	0.8564
3318	0.8566
3327	0.8568
3336	0.8571
3345	0.8573
3354	0.8572
3363	0.857
3372	0.8569
3381	0.8567
3390	0.8566
3399	0.8563
3408	0.856
3417	0.8556
3426	0.8553
3435	0.8548
3444	0.8545
3453	0.8542
3462	0.8539
3471	0.8535
3480	0.8541
3489	0.8549
3498	0.8557
3507	0.8564
3516	0.8572
3525	0.8579
3534	0.8586
3543	0.8593
3552	0.8599
3561	0.8603
3570	0.8608
3579	0.8612
3588	0.8613
3597	0.8615
3606	0.8615
3615	0.8614
3624	0.8613
3633	0.8609
3642	0.8591
3651	0.8555
3660	0.8559
3669	0.8609
3678	0.8621
3687	0.8619
3696	0.8614
3705	0.86
3714	0.8588
3723	0.8579
3732	0.8579
3741	0.8581
3750	0.8593
3759	0.8604
3768	0.8617
3777	0.8628
3786	0.8639
