Infrared Spectrum: p-Phenylazodiphenylamine
Formula: C 18 H 15 N 3
CAS: 101-75-7
State: gas
Origin: EPA-IR VAPOR PHASE LIBRARY
1/CM	ABSORBANCE
549.8	0.009605
559.445	0.005945
569.09	0.004785
578.734	0.004405
588.379	0.004905
598.024	0.005565
607.669	0.005145
617.313	0.004795
626.958	0.004915
636.603	0.006805
646.248	0.006145
655.893	0.007005
665.537	0.010235
675.182	0.015815
684.827	0.030035
694.472	0.035005
704.116	0.021605
713.761	0.016545
723.406	0.015655
733.051	0.018575
742.695	0.028815
752.34	0.025905
761.985	0.023545
771.63	0.016475
781.275	0.010985
790.919	0.008675
800.564	0.008795
810.209	0.010985
819.854	0.015025
829.498	0.019195
839.143	0.018075
848.788	0.012305
858.433	0.008875
868.078	0.010705
877.722	0.007915
887.367	0.005505
897.012	0.005055
906.657	0.004685
916.301	0.005615
925.946	0.005005
935.591	0.004185
945.236	0.004025
954.88	0.003355
964.525	0.003155
974.17	0.003185
983.815	0.003155
993.46	0.003115
1003.1	0.004545
1012.75	0.006525
1022.39	0.010525
1032.04	0.006385
1041.68	0.003315
1051.33	0.003985
1060.97	0.005525
1070.62	0.006385
1080.26	0.005545
1089.91	0.005105
1099.55	0.006855
1109.2	0.008785
1118.84	0.008875
1128.49	0.013385
1138.13	0.038205
1147.78	0.048135
1157.42	0.046635
1167.07	0.011995
1176.71	0.006375
1186.36	0.005775
1196	0.005635
1205.64	0.006835
1215.29	0.010875
1224.93	0.015965
1234.58	0.021855
1244.22	0.030815
1253.87	0.023785
1263.51	0.022355
1273.16	0.028805
1282.8	0.044415
1292.45	0.079715
1302.09	0.108165
1311.74	0.077445
1321.38	0.050985
1331.03	0.033085
1340.67	0.023535
1350.32	0.018295
1359.96	0.013675
1369.61	0.010555
1379.25	0.009435
1388.9	0.012295
1398.54	0.019835
1408.18	0.011665
1417.83	0.009595
1427.47	0.013395
1437.12	0.023215
1446.76	0.020875
1456.41	0.017255
1466.05	0.020875
1475.7	0.027265
1485.34	0.051475
1494.99	0.127735
1504.63	0.191605
1514.28	0.104455
1523.92	0.042185
1533.57	0.027815
1543.21	0.022005
1552.86	0.020575
1562.5	0.023705
1572.15	0.037485
1581.79	0.088095
1591.44	0.168615
1601.08	0.116295
1610.73	0.049275
1620.37	0.023585
1630.01	0.014865
1639.66	0.010785
1649.3	0.008125
1658.95	0.006515
1668.59	0.005795
1678.24	0.005195
1687.88	0.004505
1697.53	0.003765
1707.17	0.003605
1716.82	0.003525
1726.46	0.003365
1736.11	0.003475
1745.75	0.003765
1755.4	0.003835
1765.04	0.004025
1774.69	0.003905
1784.33	0.003785
1793.98	0.004075
1803.62	0.003055
1813.27	0.002745
1822.91	0.002715
1832.55	0.002815
1842.2	0.002855
1851.84	0.002885
1861.49	0.003065
1871.13	0.003465
1880.78	0.003885
1890.42	0.003995
1900.07	0.003825
1909.71	0.003285
1919.36	0.003265
1929	0.003555
1938.65	0.003795
1948.29	0.003675
1957.94	0.003315
1967.58	0.001985
1977.23	0.001745
1986.87	0.001665
1996.52	0.001715
2006.16	0.001935
2015.81	0.002135
2025.45	0.001785
2035.1	0.001605
2044.74	0.001535
2054.38	0.001515
2064.03	0.001515
2073.67	0.001555
2083.32	0.001735
2092.96	0.001715
2102.61	0.001515
2112.25	0.001385
2121.9	0.001335
2131.54	0.001285
2141.19	0.0012097
2150.83	0.0011902
2160.48	0.0010695
2170.12	0.0009713
2179.77	0.0009165
2189.41	0.0008313
2199.06	0.0009086
2208.7	0.0008698
2218.35	0.0009837
2227.99	0.0010069
2237.64	0.0010232
2247.28	0.0010294
2256.92	0.0010749
2266.57	0.0010381
2276.21	0.0011399
2285.86	0.0011807
2295.5	0.001245
2305.15	0.001405
2314.79	0.001695
2324.44	0.001345
2334.08	0.001275
2343.73	0.0011811
2353.37	0.001245
2363.02	0.001201
2372.66	0.0011477
2382.31	0.0010176
2391.95	0.0009436
2401.6	0.0010632
2411.24	0.0010384
2420.89	0.0010877
2430.53	0.0011364
2440.18	0.001345
2449.82	0.001445
2459.47	0.001505
2469.11	0.001815
2478.75	0.001955
2488.4	0.001865
2498.04	0.002045
2507.69	0.002455
2517.33	0.002865
2526.98	0.003155
2536.62	0.003275
2546.27	0.003115
2555.91	0.002475
2565.56	0.002065
2575.2	0.001735
2584.85	0.001755
2594.49	0.001625
2604.14	0.001565
2613.78	0.001425
2623.43	0.001365
2633.07	0.0012112
2642.72	0.0010856
2652.36	0.0009891
2662.01	0.0009454
2671.65	0.0010055
2681.29	0.0009461
2690.94	0.0010637
2700.58	0.0011824
2710.23	0.001335
2719.87	0.001535
2729.52	0.001825
2739.16	0.001805
2748.81	0.001695
2758.45	0.001385
2768.1	0.0011586
2777.74	0.0011033
2787.39	0.0009866
2797.03	0.0009698
2806.68	0.0011019
2816.32	0.0010759
2825.97	0.0011179
2835.61	0.0010345
2845.26	0.000954
2854.9	0.0008828
2864.55	0.0010726
2874.19	0.001245
2883.84	0.0012309
2893.48	0.0012324
2903.12	0.0011765
2912.77	0.0010896
2922.41	0.0010267
2932.06	0.0009767
2941.7	0.0009684
2951.35	0.0010179
2960.99	0.0010607
2970.64	0.001275
2980.28	0.001585
2989.93	0.002255
2999.57	0.003105
3009.22	0.005595
3018.86	0.010545
3028.51	0.017395
3038.15	0.021035
3047.8	0.021725
3057.44	0.023885
3067.09	0.029605
3076.73	0.035135
3086.38	0.020905
3096.02	0.015075
3105.67	0.008615
3115.31	0.004355
3124.95	0.002205
3134.6	0.001345
3144.24	0.0010942
3153.89	0.001098
3163.53	0.0011364
3173.18	0.0012184
3182.82	0.0008353
3192.47	0.0007629
3202.11	0.0007497
3211.76	0.0005523
3221.4	0.00030325
3231.05	0.00032184
3240.69	0.0004702
3250.34	0.0003924
3259.98	0.00032461
3269.63	0.0003946
3279.27	0.00024722
3288.92	0.00022691
3298.56	0.000406
3308.21	0.000361
3317.85	0.000242507
3327.49	0.0002137
3337.14	0.00027584
3346.78	0.0003493
3356.43	0.0003963
3366.07	0.00027548
3375.72	0.0004897
3385.36	0.0007839
3395.01	0.0010628
3404.65	0.001585
3414.3	0.002895
3423.94	0.005255
3433.59	0.007565
3443.23	0.007365
3452.88	0.004555
3462.52	0.002445
3472.17	0.001355
3481.81	0.000959
3491.46	0.0006389
3501.1	0.0005915
3510.75	0.0004943
3520.39	0.0003729
3530.04	0.00030759
3539.68	0.0003288
3549.32	0.0002159
3558.97	0.000238527
3568.61	0.00026837
3578.26	0.00032151
3587.9	0.0003393
3597.55	0.0003672
3607.19	0.00030025
3616.84	0.00030477
3626.48	0.0006043
3636.13	0.0004385
3645.77	0.0003802
3655.42	0.0004675
3665.06	0.000539
3674.71	0.0005112
3684.35	0.0005029
3694	0.0004636
3703.64	0.0005136
3713.29	0.0006507
3722.93	0.000417
3732.58	0.0003816
3742.22	0.0003785
3751.86	0.0003082
3761.51	0.0002943
3771.15	0.0001594
3780.8	0.0003598
3790.44	0.000366
3800.09	5.6e-05
3809.73	0.00029522
3819.38	0.0004116
3829.02	0.0003679
3838.67	0.0004456
3848.31	0.0003543
3857.96	0.0004172
3867.6	0.0003768
3877.25	0.0004412
3886.89	0.0004777
3896.54	0.00031187
3906.18	0.0003534
3915.83	0.0004247
3925.47	0.00028134
3935.12	0.0003839
3944.76	0.00029656
3954.41	0.00024518
3964.05	0.0004673
3973.69	0.0005207
3983.34	0.0004788
3992.98	0.0003944
