Infrared Spectrum: Amyl cinnamic alcohol
Formula: C 14 H 20 O
CAS: 101-85-9
State: gas
Instrument: HP-GC/MS/IRD
Origin: NIST Mass Spectrometry Data Center
1/CM	ABSORBANCE
550	0.0004402
562	0.0002728
574	0.0002108
586	0.0001333
598	0.0002604
610	0.000217
622	0.0001364
634	3.1e-06
646	7.13e-05
658	0.0003999
670	0.0008184
682	0.0016182
694	0.0062744
706	0.0055366
718	0.0035371
730	0.0049724
742	0.004154
754	0.0016461
766	0.0009207
778	0.0004991
790	0.0003999
802	0.0003441
814	0.0003317
826	0.0002697
838	0.0003193
850	0.0003534
862	0.000403
874	0.0004185
886	0.0006789
898	0.0008339
910	0.0009145
922	0.0007843
934	0.0008897
946	0.0009827
958	0.0011408
970	0.0014043
982	0.001457
994	0.002139
1006	0.0037882
1018	0.0063519
1030	0.0081871
1042	0.0072633
1054	0.0063581
1066	0.003875
1078	0.0024211
1090	0.0016461
1102	0.0012524
1114	0.0011563
1126	0.0011625
1138	0.0009858
1150	0.0009145
1162	0.0010664
1174	0.00124
1186	0.0013485
1198	0.0013857
1210	0.0013826
1222	0.0014694
1234	0.0015314
1246	0.0015159
1258	0.0015004
1270	0.001457
1282	0.0014973
1294	0.0015624
1306	0.0015314
1318	0.0015004
1330	0.0016058
1342	0.0018259
1354	0.0019592
1366	0.002046
1378	0.0021607
1390	0.0018259
1402	0.0011656
1414	0.0009393
1426	0.0010788
1438	0.0018476
1450	0.0037107
1462	0.0038037
1474	0.0031589
1486	0.0025947
1498	0.0034069
1510	0.0008804
1522	0.0004061
1534	0.0003534
1546	0.0002232
1558	0.000217
1570	0.0003317
1582	0.0006913
1594	0.0013981
1606	0.0014446
1618	0.0004371
1630	0.0002201
1642	0.0001426
1654	0.0001085
1666	7.13e-05
1678	8.37e-05
1690	2.79e-05
1702	8.37e-05
1714	7.75e-05
1726	8.68e-05
1738	0.0001426
1750	0.0001302
1762	6.51e-05
1774	0.0001209
1786	0.0002666
1798	0.0003782
1810	0.0001891
1822	8.37e-05
1834	6.82e-05
1846	7.44e-05
1858	0.0001922
1870	0.0002728
1882	0.0002449
1894	0.000124
1906	7.75e-05
1918	0.000124
1930	0.0002666
1942	0.000403
1954	0.0002821
1966	6.51e-05
1978	6.51e-05
1990	1.86e-05
2002	2.79e-05
2014	5.89e-05
2026	8.06e-05
2038	7.44e-05
2050	8.37e-05
2062	6.82e-05
2074	8.06e-05
2086	4.03e-05
2098	4.34e-05
2110	3.41e-05
2122	0
2134	3.1e-05
2146	2.48e-05
2158	1.55e-05
2170	3.1e-05
2182	4.65e-05
2194	5.27e-05
2206	3.1e-05
2218	3.41e-05
2230	0
2242	6.51e-05
2254	3.72e-05
2266	1.24e-05
2278	8.99e-05
2290	4.96e-05
2302	5.89e-05
2314	8.99e-05
2326	9.3e-05
2338	8.68e-05
2350	8.06e-05
2362	8.06e-05
2374	7.75e-05
2386	4.96e-05
2398	6.82e-05
2410	6.51e-05
2422	9.92e-05
2434	5.89e-05
2446	0.0001054
2458	4.96e-05
2470	6.2e-05
2482	7.75e-05
2494	9.3e-05
2506	0.0001147
2518	8.68e-05
2530	0.0001023
2542	7.44e-05
2554	0.0001271
2566	0.0001643
2578	0.0001891
2590	0.0002046
2602	0.0001953
2614	0.0002325
2626	0.0002356
2638	0.0002666
2650	0.0002759
2662	0.000341
2674	0.000372
2686	0.000434
2698	0.0004092
2710	0.0004309
2722	0.0005053
2734	0.0006293
2746	0.0007688
2758	0.0007781
2770	0.0008649
2782	0.0009827
2794	0.0011253
2806	0.0013454
2818	0.0017732
2830	0.0023994
2842	0.0039463
2854	0.0082615
2866	0.0129611
2878	0.0133579
2890	0.0125829
2902	0.0130045
2914	0.0187426
2926	0.0284487
2938	0.029357
2950	0.0189565
2962	0.0159774
2974	0.0121985
2986	0.0050933
2998	0.0032519
3010	0.0029729
3022	0.0044082
3034	0.0064728
3046	0.0033263
3058	0.0034007
3070	0.0057071
3082	0.0037913
3094	0.0025296
3106	0.0013826
3118	0.0008215
3130	0.000465
3142	0.0002883
3154	0.0002852
3166	0.0002697
3178	0.0001798
3190	0.0001798
3202	0.0001426
3214	0.0001364
3226	0.0001271
3238	0.0001302
3250	7.75e-05
3262	1.86e-05
3274	5.27e-05
3286	7.44e-05
3298	0.0001054
3310	9.92e-05
3322	3.72e-05
3334	0.0001457
3346	0.0001147
3358	9.92e-05
3370	0.0001054
3382	0.0001457
3394	0.0001705
3406	0.0001147
3418	0.0001426
3430	0.0001829
3442	0.0001457
3454	0.0001674
3466	0.0001705
3478	0.0002325
3490	0.000186
3502	0.0001054
3514	0.0001612
3526	0.0002201
3538	0.0001798
3550	0.0002263
3562	0.0002201
3574	0.0002914
3586	0.0002883
3598	0.0002294
3610	0.0003627
3622	0.0007533
3634	0.0010199
3646	0.0010695
3658	0.0019065
3670	0.0024273
3682	0.0013609
3694	0.0005549
3706	0.0003906
3718	0.0002449
3730	0.0001674
3742	0.0001891
3754	0.0002015
3766	0.0002139
3778	0.0001922
3790	0.0001829
3802	0.0001457
3814	0.0001922
3826	0.0002759
3838	0.0002449
