Infrared Spectrum: DIPHENYLAMINE, 4,4'-DIOCTYL-
Formula: C28 H43 N
CAS: 101-67-7
State: SOLUTION (CCl4 FOR 2-8.7 MICRONS, CS2 FOR 8.7-16 MICRONS) VS. 0.005 CM SOLVENT
Class: COBLENTZ III
Instrument: BAIRD (PRISM)
Instrument parameters: NaCl PRISM
Sampling: TRANSMISSION
Path length: 0.010 CM, 0.010 CM
Resolution: 4
Origin: WYANDOTTE CHEMICALS CORP.
MICROMETERS	TRANSMITTANCE
1.996	0.995
2.03518	0.992
2.07437	0.986
2.11355	0.984
2.15273	0.987
2.19192	0.98
2.2311	0.968
2.27028	0.954
2.30947	0.957
2.34865	0.958
2.38783	0.963
2.42702	0.968
2.4662	0.977
2.50538	0.982
2.54456	0.984
2.58375	0.986
2.62293	0.99
2.66211	0.988
2.7013	0.99
2.74048	0.991
2.77966	0.992
2.81885	0.995
2.85803	0.98
2.89721	0.964
2.9364	0.911
2.97558	0.754
3.01476	0.851
3.05395	0.925
3.09313	0.925
3.13231	0.92
3.1715	0.916
3.21068	0.912
3.24986	0.855
3.28905	0.718
3.32823	0.546
3.36741	0.146
3.4066	0.034
3.44578	0.094
3.48496	0.108
3.52414	0.251
3.56333	0.637
3.60251	0.81
3.64169	0.88
3.68088	0.895
3.72006	0.894
3.75924	0.911
3.79843	0.922
3.83761	0.942
3.87679	0.953
3.91598	0.954
3.95516	0.943
3.99434	0.926
4.03353	0.936
4.07271	0.939
4.11189	0.953
4.15108	0.96
4.19026	0.961
4.22944	0.963
4.26863	0.96
4.30781	0.974
4.34699	0.98
4.38618	0.981
4.42536	0.98
4.46454	0.981
4.50373	0.986
4.54291	0.988
4.58209	0.988
4.62127	0.991
4.66046	0.992
4.69964	0.996
4.73882	0.996
4.77801	0.986
4.81719	0.986
4.85637	0.987
4.89556	0.984
4.93474	0.99
4.97392	0.991
5.01311	0.985
5.05229	0.99
5.09147	0.99
5.13066	0.986
5.16984	0.982
5.20902	0.982
5.24821	0.979
5.28739	0.966
5.32657	0.928
5.36576	0.922
5.40494	0.95
5.44412	0.965
5.48331	0.975
5.52249	0.977
5.56167	0.971
5.60085	0.969
5.64004	0.959
5.67922	0.952
5.7184	0.934
5.75759	0.934
5.79677	0.933
5.83595	0.934
5.87514	0.922
5.91432	0.926
5.9535	0.914
5.99269	0.904
6.03187	0.873
6.07105	0.818
6.11024	0.733
6.14942	0.515
6.1886	0.081
6.22779	0.452
6.26697	0.585
6.30615	0.63
6.34534	0.728
6.38452	0.719
6.4237	0.664
6.46289	0.613
6.50207	0.373
6.54125	0.191
6.58043	0.085
6.61962	0.14
6.6588	0.406
6.69798	0.4
6.73717	0.269
6.77635	0.205
6.81553	0.256
6.85472	0.375
6.8939	0.497
6.93308	0.606
6.97227	0.678
7.01145	0.673
7.05063	0.706
7.08982	0.751
7.129	0.665
7.16818	0.353
7.20737	0.353
7.24655	0.674
7.28573	0.603
7.32492	0.171
7.3641	0.566
7.40328	0.606
7.44247	0.45
7.48165	0.385
7.52083	0.218
7.56002	0.157
7.5992	0.104
7.63838	0.121
7.67756	0.228
7.71675	0.292
7.75593	0.406
7.79511	0.506
7.8343	0.627
7.87348	0.686
7.91266	0.649
7.95185	0.388
7.99103	0.246
8.03021	0.27
8.0694	0.431
8.10858	0.566
8.14776	0.657
8.18695	0.726
8.22613	0.724
8.26531	0.649
8.3045	0.689
8.34368	0.649
8.38286	0.379
8.42205	0.339
8.46123	0.69
8.50041	0.782
8.5396	0.798
8.57878	0.789
8.61796	0.772
8.65714	0.759
8.69633	0.744
8.73551	0.702
8.77469	0.624
8.81388	0.555
8.85306	0.599
8.89224	0.696
8.93143	0.712
8.97061	0.642
9.00979	0.61
9.04898	0.6
9.08816	0.445
9.12734	0.592
9.16653	0.723
9.20571	0.77
9.24489	0.788
9.28408	0.805
9.32326	0.815
9.36244	0.82
9.40163	0.824
9.44081	0.825
9.47999	0.829
9.51918	0.825
9.55836	0.812
9.59754	0.808
9.63672	0.802
9.67591	0.785
9.71509	0.757
9.75427	0.751
9.79346	0.756
9.83264	0.695
9.87182	0.524
9.91101	0.695
9.95019	0.773
9.98937	0.813
10.0286	0.821
10.0677	0.826
10.1069	0.825
10.1461	0.807
10.1853	0.764
10.2245	0.669
10.2637	0.635
10.3028	0.727
10.342	0.762
10.3812	0.796
10.4204	0.812
10.4596	0.808
10.4988	0.809
10.5379	0.807
10.5771	0.804
10.6163	0.799
10.6555	0.77
10.6947	0.733
10.7339	0.739
10.773	0.762
10.8122	0.775
10.8514	0.743
10.8906	0.671
10.9298	0.711
10.969	0.771
11.0081	0.769
11.0473	0.796
11.0865	0.823
11.1257	0.835
11.1649	0.839
11.2041	0.837
11.2432	0.821
11.2824	0.78
11.3216	0.713
11.3608	0.694
11.4	0.728
11.4392	0.767
11.4783	0.788
11.5175	0.787
11.5567	0.796
11.5959	0.804
11.6351	0.796
11.6743	0.775
11.7134	0.762
11.7526	0.743
11.7918	0.727
11.831	0.713
11.8702	0.676
11.9094	0.635
11.9485	0.56
11.9877	0.417
12.0269	0.312
12.0661	0.254
12.1053	0.206
12.1445	0.106
12.1836	0.045
12.2228	0.023
12.262	0.028
12.3012	0.094
12.3404	0.184
12.3795	0.277
12.4187	0.388
12.4579	0.491
12.4971	0.589
12.5363	0.68
12.5755	0.75
12.6146	0.782
12.6538	0.809
12.693	0.83
12.7322	0.836
12.7714	0.845
12.8106	0.839
12.8497	0.841
12.8889	0.847
12.9281	0.85
12.9673	0.853
13.0065	0.855
13.0457	0.852
13.0848	0.85
13.124	0.846
13.1632	0.841
13.2024	0.834
13.2416	0.82
13.2808	0.805
13.3199	0.798
13.3591	0.787
13.3983	0.78
13.4375	0.773
13.4767	0.777
13.5159	0.781
13.555	0.785
13.5942	0.78
13.6334	0.772
13.6726	0.744
13.7118	0.676
13.751	0.626
13.7901	0.635
13.8293	0.719
13.8685	0.765
13.9077	0.775
13.9469	0.787
13.9861	0.797
14.0252	0.8
14.0644	0.798
14.1036	0.793
14.1428	0.787
14.182	0.78
14.2212	0.767
14.2603	0.755
14.2995	0.746
14.3387	0.743
14.3779	0.748
14.4171	0.755
14.4563	0.765
14.4954	0.775
14.5346	0.787
14.5738	0.791
14.613	0.799
14.6522	0.807
14.6914	0.815
14.7305	0.823
14.7697	0.828
14.8089	0.83
14.8481	0.832
14.8873	0.831
14.9265	0.826
14.9656	0.825
15.0048	0.812
15.044	0.8
15.0832	0.791
15.1224	0.8
15.1616	0.804
15.2007	0.804
15.2399	0.805
15.2791	0.794
15.3183	0.781
15.3575	0.776
15.3967	0.769
15.4358	0.765
15.475	0.764
15.5142	0.765
15.5534	0.756
15.5926	0.756
15.6318	0.748
15.6709	0.73
15.7101	0.722
15.7493	0.717
15.7885	0.714
15.8277	0.712
15.8669	0.716
15.906	0.719
15.9452	0.724
15.9844	0.721
