Infrared Spectrum: N,2,6-TRICHLORO-p-QUINONEIMINE
Formula: C6 H2 Cl3 N O
CAS: 101-38-2
State: SOLID (MINERAL OIL MULL)
Class: COBLENTZ
Instrument: Not specified, most likely a prism, grating, or hybrid spectrometer.
Sampling: TRANSMISSION
Resolution: 4
Origin: WYANDOTTE CHEMICALS CORP., WYANDOTTE, MICHIGAN, USA
MICROMETERS	TRANSMITTANCE
2.025	0.225
2.06218	0.228
2.09937	0.228
2.13655	0.228
2.17374	0.228
2.21092	0.225
2.2481	0.225
2.28529	0.226
2.32247	0.225
2.35966	0.222
2.39684	0.228
2.43402	0.225
2.47121	0.228
2.50839	0.239
2.54558	0.245
2.58276	0.243
2.61994	0.253
2.65713	0.256
2.69431	0.248
2.7315	0.246
2.76868	0.246
2.80586	0.232
2.84305	0.228
2.88023	0.228
2.91742	0.226
2.9546	0.231
2.99178	0.234
3.02897	0.226
3.06615	0.228
3.10334	0.225
3.14052	0.215
3.17771	0.204
3.21489	0.204
3.25207	0.172
3.28926	0.15
3.32644	0.088
3.36363	0.026
3.40081	0.029
3.43799	0.032
3.47518	0.037
3.51236	0.072
3.54955	0.208
3.58673	0.243
3.62391	0.26
3.6611	0.265
3.69828	0.27
3.73547	0.271
3.77265	0.276
3.80983	0.293
3.84702	0.298
3.8842	0.298
3.92139	0.313
3.95857	0.324
3.99575	0.327
4.03294	0.329
4.07012	0.321
4.10731	0.322
4.14449	0.332
4.18167	0.33
4.21886	0.338
4.25604	0.336
4.29323	0.352
4.33041	0.368
4.36759	0.378
4.40478	0.381
4.44196	0.372
4.47915	0.374
4.51633	0.383
4.55351	0.392
4.5907	0.392
4.62788	0.397
4.66507	0.408
4.70225	0.411
4.73943	0.413
4.77662	0.425
4.8138	0.433
4.85099	0.437
4.88817	0.442
4.92535	0.448
4.96254	0.454
4.99972	0.459
5.03691	0.465
5.07409	0.467
5.11127	0.472
5.14846	0.478
5.18564	0.489
5.22283	0.49
5.26001	0.506
5.2972	0.509
5.33438	0.52
5.37156	0.532
5.40875	0.538
5.44593	0.548
5.48312	0.554
5.5203	0.535
5.55748	0.566
5.59467	0.599
5.63185	0.594
5.66904	0.618
5.70622	0.645
5.7434	0.686
5.78059	0.723
5.81777	0.787
5.85496	0.843
5.89214	0.698
5.92932	0.239
5.96651	0.125
6.00369	0.161
6.04088	0.231
6.07806	0.287
6.11524	0.34
6.15243	0.318
6.18961	0.364
6.2268	0.378
6.26398	0.263
6.30116	0.116
6.33835	0.204
6.37553	0.284
6.41272	0.318
6.4499	0.343
6.48708	0.385
6.52427	0.405
6.56145	0.411
6.59864	0.416
6.63582	0.425
6.673	0.427
6.71019	0.385
6.74737	0.313
6.78456	0.167
6.82174	0.175
6.85892	0.236
6.89611	0.316
6.93329	0.409
6.97048	0.493
7.00766	0.512
7.04484	0.507
7.08203	0.503
7.11921	0.517
7.1564	0.498
7.19358	0.437
7.23076	0.321
7.26795	0.392
7.30513	0.453
7.34232	0.515
7.3795	0.515
7.41669	0.532
7.45387	0.555
7.49105	0.596
7.52824	0.6
7.56542	0.61
7.60261	0.599
7.63979	0.559
7.67697	0.655
7.71416	0.718
7.75134	0.456
7.78853	0.155
7.82571	0.248
7.86289	0.378
7.90008	0.472
7.93726	0.517
7.97445	0.535
8.01163	0.56
8.04881	0.571
8.086	0.582
8.12318	0.59
8.16037	0.59
8.19755	0.585
8.23473	0.597
8.27192	0.613
8.3091	0.619
8.34629	0.638
8.38347	0.65
8.42065	0.663
8.45784	0.667
8.49502	0.67
8.53221	0.669
8.56939	0.655
8.60657	0.661
8.64376	0.681
8.68094	0.697
8.71813	0.706
8.75531	0.718
8.79249	0.723
8.82968	0.722
8.86686	0.72
8.90405	0.7
8.94123	0.659
8.97841	0.63
9.0156	0.65
9.05278	0.664
9.08997	0.697
9.12715	0.706
9.16433	0.711
9.20152	0.72
9.2387	0.732
9.27589	0.754
9.31307	0.781
9.35025	0.821
9.38744	0.846
9.42462	0.805
9.46181	0.655
9.49899	0.309
9.53618	0.119
9.57336	0.118
9.61054	0.228
9.64773	0.321
9.68491	0.385
9.7221	0.458
9.75928	0.513
9.79646	0.529
9.83365	0.554
9.87083	0.582
9.90802	0.594
9.9452	0.596
9.98238	0.611
10.0196	0.645
10.0568	0.652
10.0939	0.669
10.1311	0.677
10.1683	0.686
10.2055	0.695
10.2427	0.701
10.2799	0.704
10.317	0.708
10.3542	0.72
10.3914	0.72
10.4286	0.722
10.4658	0.723
10.503	0.712
10.5401	0.709
10.5773	0.697
10.6145	0.7
10.6517	0.709
10.6889	0.706
10.7261	0.703
10.7632	0.69
10.8004	0.661
10.8376	0.583
10.8748	0.448
10.912	0.31
10.9492	0.309
10.9864	0.336
11.0235	0.473
11.0607	0.635
11.0979	0.683
11.1351	0.655
11.1723	0.698
11.2095	0.681
11.2466	0.751
11.2838	0.812
11.321	0.798
11.3582	0.812
11.3954	0.822
11.4326	0.815
11.4697	0.745
11.5069	0.517
11.5441	0.636
11.5813	0.793
11.6185	0.844
11.6557	0.875
11.6928	0.891
11.73	0.902
11.7672	0.905
11.8044	0.903
11.8416	0.908
11.8788	0.911
11.916	0.916
11.9531	0.913
11.9903	0.911
12.0275	0.902
12.0647	0.902
12.1019	0.888
12.1391	0.88
12.1762	0.88
12.2134	0.883
12.2506	0.869
12.2878	0.827
12.325	0.742
12.3622	0.596
12.3993	0.447
12.4365	0.313
12.4737	0.256
12.5109	0.24
12.5481	0.243
12.5853	0.262
12.6225	0.215
12.6596	0.18
12.6968	0.243
12.734	0.336
12.7712	0.409
12.8084	0.451
12.8456	0.423
12.8827	0.262
12.9199	0.24
12.9571	0.54
12.9943	0.703
13.0315	0.763
13.0687	0.801
13.1058	0.833
13.143	0.844
13.1802	0.854
13.2174	0.861
13.2546	0.861
13.2918	0.872
13.3289	0.88
13.3661	0.891
13.4033	0.903
13.4405	0.922
13.4777	0.928
13.5149	0.925
13.5521	0.906
13.5892	0.857
13.6264	0.746
13.6636	0.607
13.7008	0.489
13.738	0.363
13.7752	0.242
13.8123	0.153
13.8495	0.113
13.8867	0.111
13.9239	0.15
13.9611	0.226
13.9983	0.319
14.0354	0.4
14.0726	0.472
14.1098	0.532
14.147	0.576
14.1842	0.604
14.2214	0.635
14.2585	0.658
14.2957	0.68
14.3329	0.692
14.3701	0.708
14.4073	0.714
14.4445	0.717
14.4817	0.728
14.5188	0.731
14.556	0.736
14.5932	0.742
14.6304	0.745
14.6676	0.75
14.7048	0.742
14.7419	0.748
14.7791	0.746
14.8163	0.737
14.8535	0.734
14.8907	0.737
14.9279	0.737
14.965	0.726
15.0022	0.684
15.0394	0.641
15.0766	0.613
15.1138	0.633
15.151	0.658
15.1881	0.677
15.2253	0.69
15.2625	0.69
15.2997	0.675
15.3369	0.667
15.3741	0.664
15.4113	0.653
15.4484	0.644
15.4856	0.636
15.5228	0.619
15.56	0.608
15.5972	0.599
15.6344	0.588
15.6715	0.569
15.7087	0.555
15.7459	0.546
15.7831	0.526
15.8203	0.515
15.8575	0.506
15.8946	0.5
15.9318	0.487
15.969	0.47
