Infrared Spectrum: Diphenyl ether, 4,4'-(1,1,3,3-tetramethylbutyl)-
Formula: C28 H42 O
CAS: 101-58-6
State: SOLUTION (10% CCl4 FOR 2.7-7.5, 10% CS2 FOR 7.5-26 MICRON) VS SOLVENT
Class: COBLENTZ III
Instrument: DOW KBr FOREPRISM-GRATING
Instrument parameters: BLAZED AT 3.5, 12.0, 20.0 MICRON AND CHANGED AT 5.0, 7.5, 14.9 MICRON
Sampling: TRANSMISSION
Path length: 0.011 CM, 0.011 CM
Resolution: 2
Origin: DOW CHEMICAL COMPANY
1/CM	TRANSMITTANCE
3800	0.8404
3791	0.843
3782	0.8452
3773	0.8462
3764	0.8468
3755	0.8471
3746	0.8481
3737	0.8491
3728	0.8497
3719	0.8502
3710	0.8508
3701	0.8513
3692	0.8517
3683	0.8517
3674	0.8518
3665	0.8518
3656	0.852
3647	0.8524
3638	0.8533
3629	0.8542
3620	0.8551
3611	0.8561
3602	0.8571
3593	0.8581
3584	0.8594
3575	0.8616
3566	0.8655
3557	0.8677
3548	0.8668
3539	0.8667
3530	0.8678
3521	0.8689
3512	0.8701
3503	0.8712
3494	0.8721
3485	0.8731
3476	0.8738
3467	0.8746
3458	0.8759
3449	0.8777
3440	0.8795
3431	0.8813
3422	0.8818
3413	0.8818
3404	0.8807
3395	0.8802
3386	0.8802
3377	0.8803
3368	0.8809
3359	0.8814
3350	0.8821
3341	0.8831
3332	0.8833
3323	0.8831
3314	0.883
3305	0.8828
3296	0.8825
3287	0.8821
3278	0.8818
3269	0.8816
3260	0.8814
3251	0.8805
3242	0.8792
3233	0.8778
3224	0.8759
3215	0.874
3206	0.8721
3197	0.8702
3188	0.8681
3179	0.8665
3170	0.8652
3161	0.8642
3152	0.864
3143	0.865
3134	0.8658
3125	0.8654
3116	0.8637
3107	0.857
3098	0.8487
3089	0.8203
3080	0.8144
3071	0.8151
3062	0.805
3053	0.7807
3044	0.7397
3035	0.7267
3026	0.6632
3017	0.7224
3008	0.751
2999	0.7172
2990	0.5364
2981	0.3056
2972	0.0761
2963	0.0189
2954	0.0152
2945	0.0325
2936	0.0901
2927	0.1301
2918	0.1711
2909	0.2003
2900	0.194
2891	0.2218
2882	0.308
2873	0.2794
2864	0.1946
2855	0.2915
2846	0.4802
2837	0.5834
2828	0.703
2819	0.7336
2810	0.7615
2801	0.7817
2792	0.7925
2783	0.81
2774	0.8225
2765	0.8298
2756	0.8341
2747	0.8397
2738	0.8425
2729	0.8363
2720	0.8363
2711	0.8359
2702	0.8248
2693	0.8266
2684	0.8347
2675	0.8425
2666	0.8478
2657	0.8489
2648	0.8499
2639	0.8507
2630	0.8513
2621	0.8518
2612	0.8523
2603	0.8517
2594	0.8511
2585	0.8506
2576	0.8503
2567	0.8499
2558	0.8504
2549	0.8521
2540	0.8539
2531	0.8555
2522	0.8571
2513	0.8587
2504	0.8602
2495	0.8607
2486	0.8605
2477	0.8605
2468	0.8608
2459	0.8594
2450	0.8561
2441	0.8516
2432	0.851
2423	0.8527
2414	0.8527
2405	0.8442
2396	0.841
2387	0.8416
2378	0.8434
2369	0.8452
2360	0.8468
2351	0.8484
2342	0.8504
2333	0.8528
2324	0.8549
2315	0.857
2306	0.8593
2297	0.86
2288	0.8504
2279	0.8514
2270	0.8553
2261	0.8588
2252	0.8609
2243	0.8628
2234	0.8648
2225	0.8664
2216	0.8675
2207	0.8685
2198	0.8696
2189	0.8699
2180	0.8702
2171	0.8781
2162	0.8794
2153	0.8707
2144	0.8704
2135	0.8703
2126	0.8707
2117	0.871
2108	0.8713
2099	0.8715
2090	0.8656
2081	0.8612
2072	0.862
2063	0.8636
2054	0.8643
2045	0.8587
2036	0.8513
2027	0.8457
2018	0.8471
2009	0.855
2000	0.8644
1991	0.8683
1982	0.8688
1973	0.8686
1964	0.8682
1955	0.8678
1946	0.8677
1937	0.8675
1928	0.8674
1919	0.8673
1910	0.8642
1901	0.8575
1892	0.8427
1883	0.816
1874	0.8118
1865	0.8312
1856	0.8458
1847	0.8558
1838	0.8599
1829	0.8623
1820	0.864
1811	0.8655
1802	0.8668
1793	0.867
1784	0.866
1775	0.8627
1766	0.8495
1757	0.8399
1748	0.8452
1739	0.8525
1730	0.8551
1721	0.8564
1712	0.8582
1703	0.8595
1694	0.8599
1685	0.858
1676	0.8507
1667	0.8418
1658	0.8333
1649	0.8298
1640	0.8239
1631	0.8221
1622	0.8191
1613	0.7942
1604	0.6391
1595	0.4792
1586	0.631
1577	0.6751
1568	0.744
1559	0.7934
1550	0.8097
1541	0.8108
1532	0.8019
1523	0.7615
1514	0.5471
1505	0.0654
1496	0.1216
1487	0.0826
1478	0.2639
1469	0.3139
1460	0.2914
1451	0.4119
1442	0.5537
1433	0.671
1424	0.7253
1415	0.7326
1406	0.6508
1397	0.4906
1388	0.5075
1379	0.5684
1370	0.5549
1361	0.1762
1352	0.6597
1343	0.728
1334	0.7478
1325	0.7521
1316	0.7453
1307	0.7061
1298	0.6242
1289	0.5479
1280	0.5328
1271	0.5262
1262	0.386
1253	0.4078
1244	0.115
1235	0.0139
1226	0.098
1217	0.3364
1208	0.4817
1199	0.5032
1190	0.6138
1181	0.6628
1172	0.323
1163	0.5832
1154	0.6926
1145	0.7506
1136	0.7617
1127	0.7651
1118	0.6444
1109	0.6031
1100	0.611
1091	0.726
1082	0.4783
1073	0.7087
1064	0.7651
1055	0.7921
1046	0.8141
1037	0.8286
1028	0.8298
1019	0.7835
1010	0.4292
1001	0.7732
992	0.8217
983	0.8365
974	0.8347
965	0.8318
956	0.8299
947	0.8225
938	0.8062
929	0.7832
920	0.7715
911	0.7894
902	0.7686
893	0.7875
884	0.7108
875	0.5757
866	0.71
857	0.6443
848	0.5017
839	0.421
830	0.3253
821	0.425
812	0.7394
803	0.8031
794	0.8259
785	0.8328
776	0.829
767	0.8468
758	0.8425
749	0.8081
740	0.8302
731	0.8375
722	0.8094
713	0.856
704	0.8631
695	0.8486
686	0.8449
677	0.8548
668	0.8568
659	0.8821
650	0.8702
641	0.834
632	0.8265
623	0.8423
614	0.8475
605	0.8463
596	0.8355
587	0.8245
578	0.8021
569	0.7848
560	0.7697
551	0.7021
542	0.6372
533	0.7034
524	0.7401
515	0.7707
506	0.7908
497	0.7864
488	0.7682
479	0.7824
470	0.7949
461	0.8051
452	0.8124
443	0.8158
434	0.8178
425	0.8197
416	0.8214
407	0.8217
398	0.822
