Infrared Spectrum: Glyceryl tri(acetylricinoleate)
Formula: C63 H110 O12
CAS: 101-34-8
State: SOLUTION (10% CCl4 FOR 2.7-7.5, CS2 FOR 7.5-26 MICRON) VS SOLVENT
Class: COBLENTZ III
Instrument: DOW KBr FOREPRISM-GRATING
Instrument parameters: BLAZED AT 3.5, 12.0, 20.0 MICRON AND CHANGED AT 5.0, 7.5, 14.9 MICRON
Sampling: TRANSMISSION
Path length: 0.011 CM, 0.011 CM
Resolution: 2
Origin: DOW CHEMICAL COMPANY
1/CM	TRANSMITTANCE
3792	0.8536
3783	0.8551
3774	0.8571
3765	0.859
3756	0.86
3747	0.859
3738	0.8533
3729	0.8511
3720	0.8533
3711	0.8571
3702	0.8603
3693	0.8615
3684	0.8602
3675	0.8571
3666	0.8541
3657	0.854
3648	0.8582
3639	0.8561
3630	0.8527
3621	0.8533
3612	0.8446
3603	0.8436
3594	0.8457
3585	0.848
3576	0.8504
3567	0.8521
3558	0.8495
3549	0.8462
3540	0.8432
3531	0.8405
3522	0.84
3513	0.8409
3504	0.8418
3495	0.8423
3486	0.8421
3477	0.8405
3468	0.8378
3459	0.8354
3450	0.8349
3441	0.8367
3432	0.8421
3423	0.8508
3414	0.8588
3405	0.866
3396	0.8705
3387	0.8744
3378	0.876
3369	0.8775
3360	0.8791
3351	0.8795
3342	0.8799
3333	0.8801
3324	0.8798
3315	0.8794
3306	0.8792
3297	0.8791
3288	0.879
3279	0.8789
3270	0.8788
3261	0.8787
3252	0.8782
3243	0.8774
3234	0.8766
3225	0.8754
3216	0.8739
3207	0.8723
3198	0.8708
3189	0.869
3180	0.8673
3171	0.8656
3162	0.8639
3153	0.8621
3144	0.8607
3135	0.8591
3126	0.8568
3117	0.8544
3108	0.8517
3099	0.8486
3090	0.8453
3081	0.839
3072	0.8325
3063	0.8268
3054	0.8149
3045	0.8019
3036	0.7906
3027	0.7269
3018	0.5238
3009	0.5448
3000	0.5842
2991	0.6115
2982	0.4526
2973	0.278
2964	0.1173
2955	0.1033
2946	0.0857
2937	0.0457
2928	0.0231
2919	0.0325
2910	0.0787
2901	0.2039
2892	0.3297
2883	0.3866
2874	0.2441
2865	0.1541
2856	0.0887
2847	0.3554
2838	0.5173
2829	0.6251
2820	0.6958
2811	0.7328
2802	0.7622
2793	0.7861
2784	0.8026
2775	0.8126
2766	0.8192
2757	0.8225
2748	0.8232
2739	0.8234
2730	0.8228
2721	0.8231
2712	0.8252
2703	0.8278
2694	0.8287
2685	0.8265
2676	0.8237
2667	0.8245
2658	0.8278
2649	0.8299
2640	0.832
2631	0.834
2622	0.8365
2613	0.8389
2604	0.8415
2595	0.8439
2586	0.8465
2577	0.8488
2568	0.8511
2559	0.8533
2550	0.8556
2541	0.8573
2532	0.859
2523	0.8606
2514	0.8623
2505	0.8635
2496	0.8648
2487	0.8661
2478	0.8671
2469	0.8682
2460	0.8697
2451	0.8716
2442	0.8735
2433	0.8754
2424	0.8767
2415	0.8777
2406	0.8745
2397	0.8738
2388	0.874
2379	0.8758
2370	0.8778
2361	0.8805
2352	0.8821
2343	0.8821
2334	0.8793
2325	0.8745
2316	0.8696
2307	0.8691
2298	0.8706
2289	0.8705
2280	0.8712
2271	0.8723
2262	0.8738
2253	0.8768
2244	0.8787
2235	0.8795
2226	0.8792
2217	0.8795
2208	0.8798
2199	0.8777
2190	0.8766
2181	0.8843
2172	0.8795
2163	0.879
2154	0.8794
2145	0.8793
2136	0.879
2127	0.8782
2118	0.8773
2109	0.8763
2100	0.8753
2091	0.8743
2082	0.8734
2073	0.8724
2064	0.8712
2055	0.8695
2046	0.8687
2037	0.8686
2028	0.8701
2019	0.8717
2010	0.8734
2001	0.875
1992	0.8775
1983	0.8793
1974	0.8805
1965	0.8811
1956	0.8818
1947	0.8825
1938	0.8823
1929	0.8809
1920	0.8793
1911	0.8775
1902	0.8757
1893	0.8738
1884	0.8717
1875	0.8693
1866	0.8668
1857	0.8644
1848	0.8605
1839	0.8575
1830	0.8547
1821	0.8475
1812	0.8377
1803	0.8257
1794	0.8067
1785	0.7871
1776	0.7515
1767	0.6667
1758	0.3708
1749	0.1313
1740	0.0153
1731	0.0091
1722	0.0687
1713	0.3171
1704	0.451
1695	0.5907
1686	0.6835
1677	0.7511
1668	0.7775
1659	0.7824
1650	0.7812
1641	0.8012
1632	0.8194
1623	0.8328
1614	0.8428
1605	0.8498
1596	0.8543
1587	0.8565
1578	0.8571
1569	0.8578
1560	0.86
1551	0.8624
1542	0.8612
1533	0.8562
1524	0.8523
1515	0.8424
1506	0.8306
1497	0.8161
1488	0.798
1479	0.7271
1470	0.3325
1461	0.3607
1452	0.4356
1443	0.4681
1434	0.4827
1425	0.5626
1416	0.5605
1407	0.6173
1398	0.6247
1389	0.5854
1380	0.287
1371	0.2472
1362	0.408
1353	0.4637
1344	0.5468
1335	0.5833
1326	0.6005
1317	0.579
1308	0.5709
1299	0.5488
1290	0.5124
1281	0.4218
1272	0.3857
1263	0.3006
1254	0.1954
1245	0.0834
1236	0.0146
1227	0.0676
1218	0.2097
1209	0.3338
1200	0.3744
1191	0.3666
1182	0.3262
1173	0.2848
1164	0.2444
1155	0.2467
1146	0.2887
1137	0.325
1128	0.391
1119	0.4324
1110	0.4575
1101	0.4483
1092	0.4217
1083	0.4529
1074	0.5032
1065	0.5212
1056	0.5035
1047	0.4972
1038	0.4456
1029	0.3564
1020	0.2924
1011	0.3641
1002	0.5536
993	0.6169
984	0.6425
975	0.6518
966	0.6381
957	0.626
948	0.6496
939	0.6565
930	0.6972
921	0.7451
912	0.7518
903	0.7628
894	0.7704
885	0.7769
876	0.7746
867	0.7721
858	0.7734
849	0.7767
840	0.7725
831	0.7617
822	0.7811
813	0.8156
804	0.8281
795	0.8206
786	0.8227
777	0.8221
768	0.8078
759	0.7833
750	0.7561
741	0.7149
732	0.6352
723	0.5793
714	0.6592
705	0.7167
696	0.7408
687	0.7628
678	0.7864
669	0.8108
660	0.8167
651	0.8035
642	0.788
633	0.7838
624	0.7772
615	0.7587
606	0.736
597	0.7454
588	0.7589
579	0.7722
570	0.784
561	0.7935
552	0.8011
543	0.8065
534	0.8058
525	0.8026
516	0.8034
507	0.8031
498	0.8018
489	0.7976
480	0.7917
471	0.7849
462	0.7781
453	0.776
444	0.7753
435	0.7741
426	0.7751
417	0.7765
408	0.7778
399	0.7801
