Infrared Spectrum: Diphenylamine, 3-chloro-
Formula: C12 H10 Cl N
CAS: 101-17-7
State: LIQUID (NEAT)
Class: COBLENTZ III
Instrument: PERKIN-ELMER 21 (GRATING)
Instrument parameters: NaCl PRISM
Sampling: TRANSMISSION
Path length: CAPILLARY
Resolution: 2
Origin: SMITH, KLINE & FRENCH LABS.
1/CM	TRANSMITTANCE
650	0.6809
659	0.6863
668	0.6406
677	0.302
686	0.3717
695	0.4449
704	0.4811
713	0.5611
722	0.6859
731	0.678
740	0.5454
749	0.2109
758	0.3094
767	0.327
776	0.4766
785	0.7673
794	0.8023
803	0.8015
812	0.7936
821	0.7654
830	0.7326
839	0.714
848	0.6427
857	0.6407
866	0.7169
875	0.7656
884	0.7709
893	0.7507
902	0.6901
911	0.4445
920	0.5489
929	0.8165
938	0.8304
947	0.8262
956	0.8136
965	0.807
974	0.7916
983	0.7587
992	0.4667
1001	0.7871
1010	0.8031
1019	0.7782
1028	0.7353
1037	0.8102
1046	0.8087
1055	0.7922
1064	0.7159
1073	0.5266
1082	0.6561
1091	0.6011
1100	0.6787
1109	0.7636
1118	0.7806
1127	0.7894
1136	0.7892
1145	0.7774
1154	0.7035
1163	0.6125
1172	0.7149
1181	0.7528
1190	0.7789
1199	0.7776
1208	0.7602
1217	0.6526
1226	0.6812
1235	0.5909
1244	0.7344
1253	0.7502
1262	0.7038
1271	0.481
1280	0.5821
1289	0.5209
1298	0.3665
1307	0.2354
1316	0.239
1325	0.3245
1334	0.4396
1343	0.5573
1352	0.7437
1361	0.7689
1370	0.7618
1379	0.7465
1388	0.6633
1397	0.5633
1406	0.5116
1415	0.6615
1424	0.693
1433	0.687
1442	0.6405
1451	0.3796
1460	0.5344
1469	0.2533
1478	0.0924
1487	0.2067
1496	0.1138
1505	0.1421
1514	0.1887
1523	0.423
1532	0.6142
1541	0.6554
1550	0.6604
1559	0.5364
1568	0.3951
1577	0.1619
1586	0.0693
1595	0.0734
1604	0.2241
1613	0.4701
1622	0.667
1631	0.694
1640	0.7044
1649	0.7387
1658	0.7488
1667	0.7748
1676	0.7855
1685	0.7921
1694	0.7959
1703	0.7994
1712	0.802
1721	0.8051
1730	0.8088
1739	0.8118
1748	0.8137
1757	0.8152
1766	0.8152
1775	0.8135
1784	0.8127
1793	0.8123
1802	0.8125
1811	0.813
1820	0.8135
1829	0.8141
1838	0.8147
1847	0.8156
1856	0.8164
1865	0.8185
1874	0.821
1883	0.8228
1892	0.8228
1901	0.8181
1910	0.8036
1919	0.8018
1928	0.8067
1937	0.8107
1946	0.8163
1955	0.822
1964	0.8261
1973	0.8277
1982	0.8276
1991	0.8277
2000	0.8277
2009	0.8274
2018	0.827
2027	0.8268
2036	0.8263
2045	0.826
2054	0.8259
2063	0.8263
2072	0.8269
2081	0.8275
2090	0.8243
2099	0.8211
2108	0.8207
2117	0.8228
2126	0.825
2135	0.825
2144	0.8232
2153	0.8215
2162	0.8196
2171	0.8203
2180	0.8245
2189	0.8269
2198	0.8276
2207	0.827
2216	0.8253
2225	0.8234
2234	0.8214
2243	0.8188
2252	0.8161
2261	0.8138
2270	0.8133
2279	0.8127
2288	0.8122
2297	0.8117
2306	0.8112
2315	0.8105
2324	0.81
2333	0.8102
2342	0.8105
2351	0.8107
2360	0.811
2369	0.8113
2378	0.8116
2387	0.8125
2396	0.8137
2405	0.8146
2414	0.8153
2423	0.8154
2432	0.8155
2441	0.815
2450	0.8133
2459	0.8096
2468	0.8059
2477	0.8026
2486	0.8006
2495	0.8006
2504	0.8004
2513	0.8003
2522	0.8008
2531	0.8017
2540	0.8039
2549	0.8069
2558	0.8086
2567	0.8091
2576	0.8092
2585	0.8093
2594	0.8094
2603	0.8095
2612	0.8096
2621	0.8093
2630	0.8091
2639	0.8089
2648	0.8071
2657	0.8038
2666	0.8005
2675	0.7973
2684	0.7955
2693	0.7938
2702	0.7924
2711	0.7917
2720	0.7911
2729	0.7906
2738	0.7897
2747	0.7883
2756	0.7864
2765	0.7837
2774	0.781
2783	0.7777
2792	0.7744
2801	0.7711
2810	0.7678
2819	0.7638
2828	0.7598
2837	0.7558
2846	0.7511
2855	0.7469
2864	0.745
2873	0.7441
2882	0.7439
2891	0.7437
2900	0.7438
2909	0.744
2918	0.7442
2927	0.7441
2936	0.744
2945	0.7438
2954	0.7434
2963	0.7394
2972	0.727
2981	0.7083
2990	0.6981
2999	0.6957
3008	0.6965
3017	0.6973
3026	0.6983
3035	0.7021
3044	0.7089
3053	0.721
3062	0.7373
3071	0.747
3080	0.7526
3089	0.7547
3098	0.7554
3107	0.756
3116	0.7564
3125	0.7562
3134	0.7558
3143	0.7555
3152	0.7548
3161	0.754
3170	0.752
3179	0.7494
3188	0.7469
3197	0.7438
3206	0.7408
3215	0.7375
3224	0.7331
3233	0.7288
3242	0.7252
3251	0.7216
3260	0.7182
3269	0.7141
3278	0.7096
3287	0.7051
3296	0.7006
3305	0.6961
3314	0.6916
3323	0.6673
3332	0.6345
3341	0.6019
3350	0.5695
3359	0.5372
3368	0.5051
3377	0.4731
3386	0.4652
3395	0.4662
3404	0.5337
3413	0.6239
3422	0.7137
3431	0.7571
3440	0.7691
3449	0.7727
3458	0.7736
3467	0.774
3476	0.7744
3485	0.7747
3494	0.775
3503	0.7752
3512	0.7754
3521	0.7757
3530	0.7763
3539	0.7769
3548	0.7775
3557	0.7787
3566	0.7799
3575	0.7813
3584	0.783
3593	0.7845
3602	0.786
3611	0.7867
3620	0.7865
3629	0.7861
3638	0.7859
3647	0.7855
3656	0.7851
3665	0.7846
3674	0.7841
3683	0.7836
3692	0.7829
3701	0.7821
3710	0.7814
3719	0.7807
3728	0.7801
3737	0.7794
3746	0.7788
3755	0.7782
3764	0.7775
3773	0.7771
3782	0.7772
3791	0.7773
3800	0.7775
3809	0.7776
3818	0.7777
3827	0.7778
3836	0.778
3845	0.7781
3854	0.7778
3863	0.7777
3872	0.7775
3881	0.7774
3890	0.7772
3899	0.777
3908	0.7768
3917	0.7767
3926	0.7766
3935	0.7767
3944	0.7768
3953	0.7768
3962	0.7769
3971	0.777
3980	0.777
3989	0.7771
3998	0.7772
