Infrared Spectrum: 3,4,4'-TRICHLORO CARBANILIDE
Formula: C13 H9 N2 O Cl3
CAS: 101-20-2
State: SOLID (MULL, KEL-F OIL FOR 2-7.5 AND MINERAL OIL FOR 7.5-16 MICRONS)
Class: COBLENTZ
Instrument: Not specified, most likely a prism, grating, or hybrid spectrometer.
Sampling: TRANSMISSION
Resolution: 4
Origin: WYANDOTTE CHEMICALS CORP., WYANDOTTE, MICHIGAN, USA
MICROMETERS	TRANSMITTANCE
2.034	0.654
2.07368	0.664
2.11336	0.671
2.15305	0.679
2.19273	0.686
2.23241	0.692
2.27209	0.707
2.31178	0.714
2.35146	0.717
2.39114	0.724
2.43082	0.73
2.47051	0.734
2.51019	0.735
2.54987	0.745
2.58955	0.754
2.62924	0.759
2.66892	0.765
2.7086	0.769
2.74828	0.777
2.78797	0.78
2.82765	0.78
2.86733	0.775
2.90701	0.765
2.9467	0.752
2.98638	0.707
3.02606	0.448
3.06574	0.176
3.10543	0.461
3.14511	0.594
3.18479	0.627
3.22447	0.657
3.26416	0.661
3.30384	0.709
3.34352	0.747
3.3832	0.792
3.42289	0.797
3.46257	0.812
3.50225	0.815
3.54193	0.828
3.58162	0.832
3.6213	0.833
3.66098	0.85
3.70066	0.862
3.74035	0.87
3.78003	0.878
3.81971	0.877
3.85939	0.882
3.89908	0.88
3.93876	0.885
3.97844	0.888
4.01812	0.893
4.05781	0.893
4.09749	0.892
4.13717	0.892
4.17685	0.893
4.21654	0.893
4.25622	0.875
4.2959	0.88
4.33558	0.888
4.37527	0.905
4.41495	0.898
4.45463	0.895
4.49431	0.903
4.534	0.906
4.57368	0.913
4.61336	0.918
4.65304	0.92
4.69273	0.92
4.73241	0.925
4.77209	0.928
4.81177	0.931
4.85145	0.938
4.89114	0.943
4.93082	0.943
4.9705	0.945
5.01018	0.95
5.04987	0.945
5.08955	0.95
5.12923	0.945
5.16891	0.945
5.2086	0.951
5.24828	0.948
5.28796	0.948
5.32764	0.926
5.36733	0.923
5.40701	0.95
5.44669	0.941
5.48637	0.941
5.52606	0.943
5.56574	0.938
5.60542	0.933
5.6451	0.928
5.68479	0.918
5.72447	0.906
5.76415	0.913
5.80383	0.897
5.84352	0.883
5.8832	0.878
5.92288	0.86
5.96256	0.817
6.00225	0.712
6.04193	0.438
6.08161	0.026
6.12129	0.162
6.16098	0.44
6.20066	0.323
6.24034	0.088
6.28002	0.078
6.31971	0.327
6.35939	0.383
6.39907	0.181
6.43875	0.154
6.47844	0.375
6.51812	0.546
6.5578	0.599
6.59748	0.664
6.63717	0.699
6.67685	0.367
6.71653	0.584
6.75621	0.46
6.7959	0.621
6.83558	0.7
6.87526	0.74
6.91494	0.74
6.95463	0.815
6.99431	0.83
7.03399	0.838
7.07367	0.82
7.11336	0.622
7.15304	0.5
7.19272	0.569
7.2324	0.5
7.27209	0.737
7.31177	0.818
7.35145	0.838
7.39113	0.825
7.43082	0.689
7.4705	0.626
7.51018	0.611
7.54986	0.553
7.58955	0.519
7.62923	0.413
7.66891	0.242
7.70859	0.162
7.74827	0.275
7.78796	0.215
7.82764	0.219
7.86732	0.493
7.907	0.593
7.94669	0.583
7.98637	0.5
8.02605	0.295
8.06573	0.176
8.10542	0.091
8.1451	0.159
8.18478	0.32
8.22446	0.398
8.26415	0.471
8.30383	0.533
8.34351	0.574
8.38319	0.614
8.42288	0.646
8.46256	0.657
8.50224	0.646
8.54192	0.594
8.58161	0.657
8.62129	0.676
8.66097	0.671
8.70065	0.636
8.74034	0.541
8.78002	0.471
8.8197	0.463
8.85938	0.365
8.89907	0.393
8.93875	0.594
8.97843	0.634
9.01811	0.666
9.0578	0.599
9.09748	0.518
9.13716	0.239
9.17684	0.204
9.21653	0.521
9.25621	0.596
9.29589	0.612
9.33557	0.607
9.37526	0.591
9.41494	0.576
9.45462	0.632
9.4943	0.769
9.53399	0.815
9.57367	0.813
9.61335	0.752
9.65303	0.593
9.69272	0.558
9.7324	0.481
9.77208	0.682
9.81176	0.759
9.85145	0.558
9.89113	0.403
9.93081	0.794
9.97049	0.825
10.0102	0.858
10.0499	0.873
10.0895	0.878
10.1292	0.88
10.1689	0.878
10.2086	0.873
10.2483	0.863
10.288	0.862
10.3276	0.867
10.3673	0.868
10.407	0.867
10.4467	0.865
10.4864	0.823
10.526	0.8
10.5657	0.818
10.6054	0.815
10.6451	0.812
10.6848	0.808
10.7245	0.818
10.7641	0.85
10.8038	0.847
10.8435	0.833
10.8832	0.86
10.9229	0.892
10.9626	0.903
11.0022	0.916
11.0419	0.923
11.0816	0.925
11.1213	0.925
11.161	0.928
11.2006	0.926
11.2403	0.921
11.28	0.905
11.3197	0.88
11.3594	0.862
11.3991	0.802
11.4387	0.602
11.4784	0.406
11.5181	0.642
11.5578	0.677
11.5975	0.591
11.6372	0.576
11.6768	0.694
11.7165	0.797
11.7562	0.838
11.7959	0.862
11.8356	0.872
11.8753	0.867
11.9149	0.857
11.9546	0.792
11.9943	0.672
12.034	0.471
12.0737	0.259
12.1133	0.32
12.153	0.47
12.1927	0.473
12.2324	0.269
12.2721	0.076
12.3118	0.051
12.3514	0.172
12.3911	0.591
12.4308	0.802
12.4705	0.868
12.5102	0.903
12.5499	0.925
12.5895	0.935
12.6292	0.943
12.6689	0.946
12.7086	0.948
12.7483	0.933
12.7879	0.892
12.8276	0.852
12.8673	0.867
12.907	0.908
12.9467	0.923
12.9864	0.931
13.026	0.935
13.0657	0.93
13.1054	0.91
13.1451	0.863
13.1848	0.779
13.2245	0.735
13.2641	0.759
13.3038	0.799
13.3435	0.822
13.3832	0.83
13.4229	0.828
13.4625	0.822
13.5022	0.81
13.5419	0.789
13.5816	0.757
13.6213	0.699
13.661	0.531
13.7006	0.403
13.7403	0.385
13.78	0.596
13.8197	0.704
13.8594	0.747
13.8991	0.759
13.9387	0.779
13.9784	0.8
14.0181	0.807
14.0578	0.807
14.0975	0.808
14.1372	0.802
14.1768	0.792
14.2165	0.775
14.2562	0.752
14.2959	0.707
14.3356	0.647
14.3752	0.634
14.4149	0.654
14.4546	0.654
14.4943	0.617
14.534	0.559
14.5737	0.529
14.6133	0.533
14.653	0.531
14.6927	0.518
14.7324	0.5
14.7721	0.481
14.8118	0.478
14.8514	0.466
14.8911	0.45
14.9308	0.425
14.9705	0.39
15.0102	0.37
15.0498	0.355
15.0895	0.335
15.1292	0.307
15.1689	0.275
15.2086	0.267
15.2483	0.27
15.2879	0.27
15.3276	0.289
15.3673	0.302
15.407	0.317
15.4467	0.337
15.4864	0.358
15.526	0.375
15.5657	0.395
15.6054	0.398
15.6451	0.403
15.6848	0.411
15.7245	0.426
15.7641	0.448
15.8038	0.463
15.8435	0.475
15.8832	0.481
15.9229	0.488
15.9625	0.49
