Infrared Spectrum: Anilazine
Formula: C 9 H 5 Cl 3 N 4
CAS: 101-05-3
State: gas
Instrument: HP-GC/MS/IRD
Origin: NIST Mass Spectrometry Data Center
1/CM	ABSORBANCE
550	0.000275
562	0.00026
574	0.000188
586	0.000176
598	0.000284
610	0.000484
622	0.000193
634	0.00029
646	0.000263
658	0.000391
670	0.000302
682	0.000324
694	0.000385
706	0.000332
718	0.000278
730	0.000418
742	0.000675
754	0.000556
766	0.000285
778	0.000254
790	0.000318
802	0.000485
814	0.000428
826	0.000636
838	0.000616
850	0.000525
862	0.000548
874	0.00064
886	0.000638
898	0.000503
910	0.000472
922	0.000356
934	0.000334
946	0.000314
958	0.000303
970	0.00043
982	0.000405
994	0.00042
1006	0.000568
1018	0.000664
1030	0.000452
1042	0.000419
1054	0.000563
1066	0.000415
1078	0.000276
1090	0.000349
1102	0.000259
1114	0.000285
1126	0.000184
1138	0.00024
1150	0.000313
1162	0.000477
1174	0.00025
1186	2.1e-05
1198	3.9e-05
1210	0.0001
1222	0.000788
1234	0.001137
1246	0.001623
1258	0.001569
1270	0.000591
1282	0.000938
1294	0.000924
1306	0.000879
1318	0.000659
1330	0.000428
1342	0.000429
1354	0.000468
1366	0.000716
1378	0.001451
1390	0.001518
1402	0.000804
1414	0.000516
1426	0.000484
1438	0.000679
1450	0.001056
1462	0.000653
1474	0.000721
1486	0.000657
1498	0.000938
1510	0.001546
1522	0.002589
1534	0.00591
1546	0.009853
1558	0.004125
1570	0.001661
1582	0.001542
1594	0.001574
1606	0.000721
1618	0.000441
1630	0.000357
1642	0.000356
1654	0.000272
1666	0.000266
1678	0.00023
1690	0.000213
1702	0.000217
1714	0.000178
1726	0.000162
1738	0.000168
1750	0.000138
1762	0.000177
1774	0.000141
1786	0.000178
1798	0.000156
1810	0.000167
1822	0.000181
1834	0.000185
1846	0.000172
1858	0.000168
1870	0.000169
1882	0.000152
1894	0.000158
1906	0.000202
1918	0.000181
1930	0.000195
1942	0.000194
1954	0.00019
1966	0.000153
1978	0.000158
1990	0.000165
2002	0.000152
2014	0.000173
2026	0.00014
2038	0.000136
2050	0.000177
2062	0.000128
2074	0.000154
2086	0.000137
2098	0.000147
2110	0.000136
2122	0.000132
2134	0.000144
2146	0.000172
2158	0.000159
2170	0.000157
2182	0.00015
2194	0.000123
2206	0.000139
2218	0.000142
2230	0.000123
2242	0.000154
2254	0.000121
2266	0.000118
2278	0.00012
2290	0.000135
2302	0.000151
2314	0.00015
2326	0.000153
2338	0.000168
2350	0.000151
2362	0.00012
2374	0.00014
2386	0.000148
2398	0.000127
2410	0.000165
2422	0.000134
2434	0.000121
2446	8.9e-05
2458	8.5e-05
2470	7.5e-05
2482	0.000116
2494	0.000124
2506	0.000116
2518	0.000139
2530	0.000125
2542	0.000101
2554	0.00011
2566	0.000125
2578	0.000122
2590	0.000116
2602	9.8e-05
2614	8.4e-05
2626	9.9e-05
2638	6.1e-05
2650	6.1e-05
2662	7.6e-05
2674	0.000113
2686	6.4e-05
2698	0.000102
2710	8.1e-05
2722	0.000113
2734	2.8e-05
2746	6.3e-05
2758	7.2e-05
2770	5.1e-05
2782	4e-05
2794	1.1e-05
2806	6.1e-05
2818	5.8e-05
2830	5.5e-05
2842	0.000105
2854	6.6e-05
2866	7e-05
2878	4.1e-05
2890	6.8e-05
2902	4.9e-05
2914	8.3e-05
2926	8.4e-05
2938	8.7e-05
2950	8.2e-05
2962	8.4e-05
2974	8.3e-05
2986	5.4e-05
2998	6.8e-05
3010	0.000122
3022	9.5e-05
3034	8.3e-05
3046	6.2e-05
3058	0.000138
3070	0.00024
3082	0.000168
3094	9.3e-05
3106	7.6e-05
3118	9.4e-05
3130	9e-05
3142	0.0001
3154	0.000136
3166	9.9e-05
3178	8.1e-05
3190	5.9e-05
3202	0.000119
3214	8.8e-05
3226	5.2e-05
3238	0.000116
3250	0.000133
3262	7.5e-05
3274	0.000109
3286	6e-05
3298	0.000106
3310	0.000102
3322	6.4e-05
3334	0.00012
3346	0.000148
3358	0.000139
3370	0.000157
3382	0.000246
3394	0.000269
3406	0.000373
3418	0.000326
3430	0.00024
3442	0.000151
3454	0.000117
3466	6.8e-05
3478	0.000164
3490	0.00014
3502	7.1e-05
3514	5.2e-05
3526	0.000103
3538	7.8e-05
3550	9.7e-05
3562	6.7e-05
3574	6.9e-05
3586	7.8e-05
3598	0.000146
3610	0.000115
3622	0.0001
3634	0.000107
3646	0.000196
3658	0.000107
3670	0.000117
3682	8.7e-05
3694	0.000149
3706	0.000119
3718	0.000158
3730	0.000104
3742	8.6e-05
3754	0.000239
3766	8.4e-05
3778	0.000219
3790	0.000165
3802	0.000263
3814	0.000169
3826	0.000169
3838	0.000257
