Infrared Spectrum: Aniline), methylene bis-4,4'-(2-chloro-
Formula: C13 H12 Cl2 N2
CAS: 101-14-4
State: LIQUID (NEAT)
Class: COBLENTZ III
Instrument: BECKMAN IR-4 (HYBRID PRISM-GRATING)
Instrument parameters: NaCl PRISM
Sampling: TRANSMISSION
Path length: CAPILLARY
Resolution: 2
Origin: MONSANTO (J. FREEMAN)
1/CM	TRANSMITTANCE
3906.25	0.4214
3897.5	0.423
3888.75	0.4247
3880.01	0.4263
3871.26	0.428
3862.51	0.4297
3853.76	0.4314
3845.01	0.433
3836.26	0.4349
3827.52	0.4365
3818.77	0.4383
3810.02	0.4402
3801.27	0.4421
3792.52	0.4441
3783.77	0.4461
3775.03	0.4481
3766.28	0.45
3757.53	0.452
3748.78	0.4537
3740.03	0.4555
3731.29	0.4574
3722.54	0.4591
3713.79	0.4603
3705.04	0.4611
3696.29	0.4622
3687.54	0.4631
3678.8	0.4641
3670.05	0.4651
3661.3	0.4661
3652.55	0.4672
3643.8	0.4681
3635.05	0.469
3626.31	0.47
3617.56	0.471
3608.81	0.4718
3600.06	0.4726
3591.31	0.4734
3582.57	0.4742
3573.82	0.4749
3565.07	0.4754
3556.32	0.476
3547.57	0.4762
3538.82	0.4766
3530.08	0.4768
3521.33	0.4768
3512.58	0.4762
3503.83	0.475
3495.08	0.4723
3486.33	0.4683
3477.59	0.4623
3468.84	0.4535
3460.09	0.445
3451.34	0.4381
3442.59	0.4221
3433.85	0.3632
3425.1	0.3609
3416.35	0.3687
3407.6	0.3942
3398.85	0.4205
3390.1	0.4342
3381.36	0.43
3372.61	0.4014
3363.86	0.3696
3355.11	0.3376
3346.36	0.3064
3337.62	0.3003
3328.87	0.3025
3320.12	0.3607
3311.37	0.421
3302.62	0.4458
3293.87	0.4576
3285.13	0.465
3276.38	0.4711
3267.63	0.4781
3258.88	0.4832
3250.13	0.4865
3241.38	0.4872
3232.64	0.4868
3223.89	0.4864
3215.14	0.486
3206.39	0.4857
3197.64	0.4866
3188.9	0.4875
3180.15	0.4919
3171.4	0.4966
3162.65	0.501
3153.9	0.5035
3145.15	0.5047
3136.41	0.5051
3127.66	0.5054
3118.91	0.5056
3110.16	0.5058
3101.41	0.5052
3092.66	0.5047
3083.92	0.5037
3075.17	0.502
3066.42	0.4965
3057.67	0.4852
3048.92	0.4652
3040.18	0.4491
3031.43	0.438
3022.68	0.4286
3013.93	0.4147
3005.18	0.3994
2996.43	0.3709
2987.69	0.3304
2978.94	0.2967
2970.19	0.2429
2961.44	0.1885
2952.69	0.1339
2943.94	0.0792
2935.2	0.0402
2926.45	0.0385
2917.7	0.0389
2908.95	0.0494
2900.2	0.089
2891.46	0.1279
2882.71	0.1652
2873.96	0.17
2865.21	0.1573
2856.46	0.144
2847.71	0.1404
2838.97	0.4415
2830.22	0.6156
2821.47	0.645
2812.72	0.6646
2803.97	0.6809
2795.22	0.6899
2786.48	0.6928
2777.73	0.6925
2768.98	0.6914
2760.23	0.6904
2751.48	0.6897
2742.74	0.6897
2733.99	0.6923
2725.24	0.6945
2716.49	0.6957
2707.74	0.6963
2698.99	0.6969
2690.25	0.6978
2681.5	0.6992
2672.75	0.7014
2664	0.7047
2655.25	0.7061
2646.5	0.7069
2637.76	0.7086
2629.01	0.7103
2620.26	0.7129
2611.51	0.7169
2602.76	0.721
2594.02	0.7249
2585.27	0.7288
2576.52	0.7321
2567.77	0.7354
2559.02	0.7387
2550.27	0.7415
2541.53	0.7442
2532.78	0.7458
2524.03	0.7475
2515.28	0.7495
2506.53	0.7526
2497.79	0.7556
2489.04	0.7585
2480.29	0.7612
2471.54	0.7636
2462.79	0.766
2454.04	0.7677
2445.3	0.7695
2436.55	0.7706
2427.8	0.7716
2419.05	0.7723
2410.3	0.7733
2401.55	0.7788
2392.81	0.7856
2384.06	0.791
2375.31	0.7932
2366.56	0.7932
2357.81	0.7932
2349.07	0.7935
2340.32	0.7939
2331.57	0.7943
2322.82	0.7947
2314.07	0.7951
2305.32	0.7965
2296.58	0.7982
2287.83	0.7999
2279.08	0.8014
2270.33	0.8028
2261.58	0.8043
2252.83	0.8057
2244.09	0.807
2235.34	0.8087
2226.59	0.8104
2217.84	0.8121
2209.09	0.8139
2200.35	0.8157
2191.6	0.8174
2182.85	0.8191
2174.1	0.8209
2165.35	0.8225
2156.6	0.8241
2147.86	0.8254
2139.11	0.8268
2130.36	0.8281
2121.61	0.8296
2112.86	0.8311
2104.11	0.8327
2095.37	0.8343
2086.62	0.8358
2077.87	0.8373
2069.12	0.8398
2060.37	0.8427
2051.63	0.8454
2042.88	0.8479
2034.13	0.8503
2025.38	0.8527
2016.63	0.8552
2007.88	0.8577
1999.14	0.8599
1990.39	0.8616
1981.64	0.8632
1972.89	0.8645
1964.14	0.8659
1955.39	0.8671
1946.65	0.8684
1937.9	0.8684
1929.15	0.8682
1920.4	0.8673
1911.65	0.8584
1902.91	0.8404
1894.16	0.854
1885.41	0.8647
1876.66	0.8708
1867.91	0.8747
1859.16	0.8768
1850.42	0.8786
1841.67	0.88
1832.92	0.8812
1824.17	0.882
1815.42	0.8811
1806.67	0.878
1797.93	0.8745
1789.18	0.8782
1780.43	0.8844
1771.68	0.889
1762.93	0.8988
1754.19	0.9073
1745.44	0.9143
1736.69	0.9186
1727.94	0.9216
1719.19	0.9228
1710.44	0.9221
1701.7	0.9147
1692.95	0.9111
1684.2	0.9063
1675.45	0.8988
1666.7	0.8858
1657.96	0.8659
1649.21	0.7742
1640.46	0.6827
1631.71	0.5281
1622.96	0.2858
1614.21	0.4633
1605.47	0.6343
1596.72	0.694
1587.97	0.7722
1579.22	0.7796
1570.47	0.7824
1561.72	0.8201
1552.98	0.8632
1544.23	0.8693
1535.48	0.8504
1526.73	0.6784
1517.98	0.4132
1509.24	0.2244
1500.49	0.1489
1491.74	0.522
1482.99	0.5595
1474.24	0.4509
1465.49	0.4085
1456.75	0.4967
1448	0.5638
1439.25	0.6846
1430.5	0.806
1421.75	0.6526
1413	0.7038
1404.26	0.8508
1395.51	0.8288
1386.76	0.6836
1378.01	0.6772
1369.26	0.7998
1360.52	0.8616
1351.77	0.8705
1343.02	0.8746
1334.27	0.8651
1325.52	0.8039
1316.77	0.6717
1308.03	0.5567
1299.28	0.4703
1290.53	0.7063
1281.78	0.828
1273.03	0.8226
1264.28	0.6394
1255.54	0.7247
1246.79	0.8388
1238.04	0.8783
1229.29	0.8991
1220.54	0.9102
1211.8	0.8969
1203.05	0.6747
1194.3	0.853
1185.55	0.8975
1176.8	0.9013
1168.05	0.8959
1159.31	0.7781
1150.56	0.833
1141.81	0.9114
1133.06	0.9171
1124.31	0.921
1115.56	0.9216
1106.82	0.9078
1098.07	0.8358
1089.32	0.8471
1080.57	0.8675
1071.82	0.8742
1063.08	0.861
1054.33	0.8274
1045.58	0.6282
1036.83	0.8294
1028.08	0.9074
1019.33	0.9224
1010.59	0.9244
1001.84	0.9251
993.09	0.9251
984.341	0.9184
975.593	0.9089
966.845	0.9086
958.097	0.9055
949.348	0.8753
940.6	0.8624
931.852	0.545
923.104	0.8273
914.355	0.8508
905.607	0.7301
896.859	0.847
888.111	0.7689
879.363	0.7662
870.614	0.7904
861.866	0.8717
853.118	0.8792
844.37	0.8569
835.621	0.7823
826.873	0.5737
818.125	0.6449
809.377	0.6109
800.629	0.8873
791.88	0.8878
783.132	0.8644
774.384	0.7068
765.636	0.8305
756.887	0.8521
748.139	0.8258
739.391	0.7835
730.643	0.6478
721.894	0.6185
713.146	0.7208
704.398	0.844
695.65	0.791
686.902	0.5234
678.153	0.7484
669.405	0.7246
660.657	0.7035
651.909	0.6818
643.16	0.6899
634.412	0.688
