Infrared Spectrum: Chlorpropham
Formula: C 10 H 12 Cl N O 2
CAS: 101-21-3
State: gas
Instrument: HP-GC/MS/IRD
Origin: NIST Mass Spectrometry Data Center
1/CM	ABSORBANCE
550	0.0024708
562	0.0011745
574	0.0007047
586	0.0003567
598	0.0002958
610	0.0004263
622	5.22e-05
634	8.7e-05
646	0.0003915
658	0.0009135
670	0.0037149
682	0.0059943
694	0.0050895
706	0.0025143
718	0.0018183
730	0.0015834
742	0.0019662
754	0.0041412
766	0.0116754
778	0.011658
790	0.0043761
802	0.0023751
814	0.0032364
826	0.0064815
838	0.0041412
850	0.0033843
862	0.003219
874	0.0046893
886	0.0068382
898	0.0107184
910	0.0062031
922	0.0044544
934	0.0042108
946	0.0021402
958	0.0011571
970	0.0010092
982	0.0014181
994	0.0034104
1006	0.0035757
1018	0.0056898
1030	0.0105183
1042	0.0143898
1054	0.010614
1066	0.0078735
1078	0.0105096
1090	0.0145812
1102	0.0253692
1114	0.0410727
1126	0.029928
1138	0.0224634
1150	0.0173739
1162	0.0203754
1174	0.0330078
1186	0.0468843
1198	0.0829545
1210	0.0601344
1222	0.0267351
1234	0.024447
1246	0.0159993
1258	0.0161907
1270	0.0205755
1282	0.016791
1294	0.0212541
1306	0.0214107
1318	0.0149205
1330	0.0093612
1342	0.0081606
1354	0.0092916
1366	0.0134241
1378	0.0152337
1390	0.0195228
1402	0.0200013
1414	0.0260217
1426	0.0212715
1438	0.0119712
1450	0.0106836
1462	0.0124497
1474	0.0209148
1486	0.035235
1498	0.0409422
1510	0.0639711
1522	0.0572547
1534	0.0264741
1546	0.0115797
1558	0.0082128
1570	0.0110055
1582	0.0248298
1594	0.0461709
1606	0.0269178
1618	0.0070035
1630	0.0033582
1642	0.0022881
1654	0.0019662
1666	0.0020271
1678	0.0022533
1690	0.0029406
1702	0.0038889
1714	0.00522
1726	0.0085695
1738	0.0245253
1750	0.0587337
1762	0.0577071
1774	0.0207321
1786	0.0071427
1798	0.0037149
1810	0.0030276
1822	0.0026448
1834	0.0019227
1846	0.0012789
1858	0.0009396
1870	0.0006003
1882	0.0004611
1894	0.0004263
1906	0.0005133
1918	0.0005046
1930	0.0004437
1942	0.000348
1954	0.0001914
1966	0.0001392
1978	8.7e-05
1990	6.96e-05
2002	3.48e-05
2014	1.74e-05
2026	2.61e-05
2038	5.22e-05
2050	0.0001218
2062	9.57e-05
2074	6.96e-05
2086	8.7e-06
2098	0
2110	1.74e-05
2122	5.22e-05
2134	0.0001044
2146	5.22e-05
2158	6.96e-05
2170	7.83e-05
2182	0.000174
2194	0.0002697
2206	0.0003828
2218	0.0004872
2230	0.0006351
2242	0.0008004
2254	0.0011745
2266	0.0020358
2278	0.0019749
2290	0.001044
2302	0.0006177
2314	0.0004698
2326	0.0004785
2338	0.000435
2350	0.000348
2362	0.0003741
2374	0.0003132
2386	0.0001827
2398	0.0001131
2410	0.0001218
2422	0.0001218
2434	0.0001566
2446	0.0001479
2458	0.0001305
2470	7.83e-05
2482	8.7e-05
2494	0.0001218
2506	0.0001305
2518	0.0002088
2530	0.000174
2542	0.0001479
2554	0.0001305
2566	0.0001392
2578	0.0001218
2590	0.0001044
2602	5.22e-05
2614	8.7e-06
2626	3.48e-05
2638	7.83e-05
2650	9.57e-05
2662	5.22e-05
2674	0.0001305
2686	0.0001914
2698	0.0001653
2710	0.0002088
2722	0.0002262
2734	0.0002175
2746	0.0003219
2758	0.0002262
2770	0.0002349
2782	0.0002001
2794	0.0002871
2806	0.0002697
2818	0.000348
2830	0.0004089
2842	0.0004437
2854	0.000609
2866	0.0009744
2878	0.0017922
2890	0.0026535
2902	0.0022707
2914	0.0023838
2926	0.0032538
2938	0.0056202
2950	0.0062814
2962	0.0044892
2974	0.0075342
2986	0.0179046
2998	0.0101703
3010	0.0038976
3022	0.0023055
3034	0.0021228
3046	0.0018444
3058	0.0018357
3070	0.0019662
3082	0.0023403
3094	0.0019749
3106	0.0011571
3118	0.0009222
3130	0.0006786
3142	0.0004698
3154	0.0004437
3166	0.0003306
3178	0.0004437
3190	0.0004089
3202	0.0003306
3214	0.0002871
3226	0.0002262
3238	0.0001653
3250	9.57e-05
3262	9.57e-05
3274	4.35e-05
3286	1.74e-05
3298	0
3310	6.96e-05
3322	0.0001479
3334	6.96e-05
3346	5.22e-05
3358	6.96e-05
3370	0.0001566
3382	0.0001218
3394	0.0002349
3406	0.0002697
3418	0.0004002
3430	0.0008352
3442	0.0022185
3454	0.0049677
3466	0.0069774
3478	0.0038454
3490	0.0014268
3502	0.000957
3514	0.0006351
3526	0.0004872
3538	0.0003132
3550	0.0001827
3562	0.0001479
3574	9.57e-05
3586	0.0001131
3598	0.0001044
3610	0.0001566
3622	0.0001131
3634	5.22e-05
3646	9.57e-05
3658	0.0001218
3670	0.0001914
3682	0.0002088
3694	0.0001827
3706	0.0001479
3718	0.0001653
3730	0.0002001
3742	0.0002175
3754	0.0001479
3766	0.0001653
3778	0.0002262
3790	0.0001827
3802	0.0001131
3814	0.000174
3826	0.0001392
3838	0.000174
