Infrared Spectrum: BENZENE, M-BIS(2,3-EPOXY PROPOXY)-
Formula: C12 H14 O4
CAS: 101-90-6
State: LIQUID
Class: COBLENTZ
Instrument: Not specified, most likely a prism, grating, or hybrid spectrometer.
Sampling: TRANSMISSION
Path length: SMEAR
Resolution: 4
Origin: TENNESSEE EASTMAN COMPANY, RESEARCH LABORATORIES
MICROMETERS	TRANSMITTANCE
2.02	0.998
2.05983	0.998
2.09966	0.998
2.13949	0.996
2.17931	0.986
2.21914	0.986
2.25897	0.981
2.2988	0.978
2.33863	0.978
2.37846	0.976
2.41828	0.973
2.45811	0.971
2.49794	0.968
2.53777	0.966
2.5776	0.968
2.61743	0.968
2.65726	0.968
2.69708	0.968
2.73691	0.965
2.77674	0.853
2.81657	0.778
2.8564	0.73
2.89623	0.731
2.93606	0.803
2.97588	0.86
3.01571	0.905
3.05554	0.926
3.09537	0.935
3.1352	0.935
3.17503	0.935
3.21485	0.903
3.25468	0.716
3.29451	0.708
3.33434	0.585
3.37417	0.605
3.414	0.528
3.45383	0.64
3.49365	0.803
3.53348	0.885
3.57331	0.908
3.61314	0.91
3.65297	0.93
3.6928	0.95
3.73263	0.956
3.77245	0.96
3.81228	0.961
3.85211	0.951
3.89194	0.945
3.93177	0.948
3.9716	0.955
4.01142	0.956
4.05125	0.95
4.09108	0.945
4.13091	0.936
4.17074	0.94
4.21057	0.948
4.2504	0.953
4.29022	0.953
4.33005	0.951
4.36988	0.953
4.40971	0.953
4.44954	0.953
4.48937	0.953
4.52919	0.953
4.56902	0.953
4.60885	0.956
4.64868	0.963
4.68851	0.961
4.72834	0.961
4.76817	0.955
4.80799	0.948
4.84782	0.946
4.88765	0.946
4.92748	0.948
4.96731	0.953
5.00714	0.958
5.04697	0.958
5.08679	0.958
5.12662	0.938
5.16645	0.915
5.20628	0.915
5.24611	0.93
5.28594	0.943
5.32576	0.96
5.36559	0.963
5.40542	0.966
5.44525	0.965
5.48508	0.96
5.52491	0.956
5.56474	0.96
5.60456	0.965
5.64439	0.963
5.68422	0.963
5.72405	0.938
5.76388	0.913
5.80371	0.91
5.84354	0.906
5.88336	0.906
5.92319	0.906
5.96302	0.905
6.00285	0.898
6.04268	0.878
6.08251	0.81
6.12233	0.651
6.16216	0.351
6.20199	0.165
6.24182	0.091
6.28165	0.13
6.32148	0.353
6.36131	0.615
6.40113	0.701
6.44096	0.731
6.48079	0.731
6.52062	0.73
6.56045	0.673
6.60028	0.541
6.6401	0.246
6.67993	0.13
6.71976	0.275
6.75959	0.341
6.79942	0.343
6.83925	0.263
6.87908	0.285
6.9189	0.465
6.95873	0.463
6.99856	0.501
7.03839	0.59
7.07822	0.65
7.11805	0.678
7.15788	0.673
7.1977	0.676
7.23753	0.705
7.27736	0.708
7.31719	0.67
7.35702	0.595
7.39685	0.478
7.43667	0.418
7.4765	0.428
7.51633	0.468
7.55616	0.511
7.59599	0.483
7.63582	0.45
7.67565	0.375
7.71547	0.23
7.7553	0.188
7.79513	0.218
7.83496	0.298
7.87479	0.248
7.91462	0.2
7.95445	0.246
7.99427	0.308
8.0341	0.435
8.07393	0.541
8.11376	0.598
8.15359	0.63
8.19342	0.635
8.23324	0.616
8.27307	0.546
8.3129	0.375
8.35273	0.196
8.39256	0.106
8.43239	0.086
8.47222	0.151
8.51204	0.2
8.55187	0.155
8.5917	0.135
8.63153	0.103
8.67136	0.108
8.71119	0.225
8.75101	0.258
8.79084	0.238
8.83067	0.226
8.8705	0.313
8.91033	0.436
8.95016	0.496
8.98999	0.523
9.02981	0.528
9.06964	0.523
9.10947	0.491
9.1493	0.445
9.18913	0.398
9.22896	0.395
9.26879	0.413
9.30861	0.465
9.34844	0.478
9.38827	0.428
9.4281	0.316
9.46793	0.225
9.50776	0.18
9.54758	0.176
9.58741	0.18
9.62724	0.186
9.66707	0.208
9.7069	0.258
9.74673	0.343
9.78656	0.443
9.82638	0.525
9.86621	0.571
9.90604	0.586
9.94587	0.576
9.9857	0.533
10.0255	0.501
10.0654	0.513
10.1052	0.538
10.145	0.548
10.1848	0.556
10.2247	0.581
10.2645	0.611
10.3043	0.621
10.3442	0.621
10.384	0.628
10.4238	0.641
10.4636	0.65
10.5035	0.65
10.5433	0.623
10.5831	0.595
10.623	0.583
10.6628	0.571
10.7026	0.548
10.7424	0.53
10.7823	0.526
10.8221	0.528
10.8619	0.513
10.9018	0.435
10.9416	0.366
10.9814	0.333
11.0212	0.328
11.0611	0.358
11.1009	0.435
11.1407	0.498
11.1806	0.56
11.2204	0.6
11.2602	0.628
11.3	0.643
11.3399	0.648
11.3797	0.626
11.4195	0.565
11.4594	0.466
11.4992	0.363
11.539	0.293
11.5788	0.26
11.6187	0.256
11.6585	0.268
11.6983	0.271
11.7382	0.271
11.778	0.27
11.8178	0.266
11.8576	0.266
11.8975	0.27
11.9373	0.291
11.9771	0.315
12.017	0.355
12.0568	0.4
12.0966	0.448
12.1364	0.496
12.1763	0.538
12.2161	0.566
12.2559	0.59
12.2958	0.603
12.3356	0.616
12.3754	0.631
12.4152	0.651
12.4551	0.673
12.4949	0.686
12.5347	0.695
12.5745	0.696
12.6144	0.686
12.6542	0.633
12.694	0.551
12.7339	0.458
12.7737	0.393
12.8135	0.346
12.8533	0.315
12.8932	0.295
12.933	0.275
12.9728	0.268
13.0127	0.268
13.0525	0.273
13.0923	0.293
13.1321	0.326
13.172	0.368
13.2118	0.43
13.2516	0.48
13.2915	0.54
13.3313	0.588
13.3711	0.628
13.4109	0.676
13.4508	0.71
13.4906	0.728
13.5304	0.738
13.5703	0.748
13.6101	0.77
13.6499	0.786
13.6897	0.8
13.7296	0.811
13.7694	0.816
13.8092	0.818
13.8491	0.82
13.8889	0.821
13.9287	0.821
13.9685	0.825
14.0084	0.825
14.0482	0.825
14.088	0.823
14.1279	0.823
14.1677	0.813
14.2075	0.805
14.2473	0.78
14.2872	0.75
14.327	0.708
14.3668	0.655
14.4067	0.58
14.4465	0.505
14.4863	0.443
14.5261	0.396
14.566	0.376
14.6058	0.378
14.6456	0.413
14.6855	0.491
14.7253	0.565
14.7651	0.635
14.8049	0.685
14.8448	0.72
14.8846	0.731
14.9244	0.738
14.9643	0.74
15.0041	0.745
15.0439	0.75
15.0837	0.753
15.1236	0.756
15.1634	0.756
15.2032	0.756
15.2431	0.756
15.2829	0.756
15.3227	0.755
15.3625	0.746
15.4024	0.741
15.4422	0.733
15.482	0.726
15.5219	0.721
15.5617	0.711
15.6015	0.708
15.6413	0.705
15.6812	0.7
15.721	0.695
15.7608	0.691
15.8007	0.688
15.8405	0.685
15.8803	0.68
15.9201	0.67
15.96	0.668
15.9998	0.665
