Infrared Spectrum: Dicyclohexylamine
Formula: C 12 H 23 N
CAS: 101-31-5
State: gas
Origin: EPA-IR VAPOR PHASE LIBRARY
1/CM	ABSORBANCE
501.5	0
513.074	0.000193
524.648	0.0003354
536.222	0.0005967
547.796	0.00043509
559.37	0.000374125
570.944	0.0005141
582.518	0.0005504
594.092	0.0007147
605.666	0.0007018
617.24	0.0007982
628.814	0.0008487
640.388	0.0007877
651.962	0.0008767
663.536	0.000969
675.11	0.0012095
686.684	0.0011693
698.258	0.0011927
709.832	0.0009465
721.406	0.0008202
732.98	0.0006289
744.554	0.0005151
756.128	0.0005071
767.702	0.0005072
779.276	0.0005421
790.85	0.0006115
802.423	0.0005617
813.997	0.0004702
825.571	0.0005594
837.145	0.0006744
848.719	0.0009526
860.293	0.0006841
871.867	0.0008564
883.441	0.001428
895.015	0.0012791
906.589	0.0007462
918.163	0.0006555
929.737	0.000705
941.311	0.0005895
952.885	0.0007351
964.459	0.0006352
976.033	0.0004761
987.607	0.0006003
999.181	0.0006048
1010.76	0.0007332
1022.33	0.0008879
1033.9	0.0007528
1045.48	0.0007888
1057.05	0.0008417
1068.63	0.0008165
1080.2	0.0012287
1091.77	0.001478
1103.35	0.002538
1114.92	0.003718
1126.49	0.004678
1138.07	0.004468
1149.64	0.003438
1161.22	0.001578
1172.79	0.0009147
1184.36	0.0006664
1195.94	0.00038436
1207.51	0.0002925
1219.09	0.0004043
1230.66	0.0006011
1242.23	0.0010152
1253.81	0.001718
1265.38	0.001598
1276.96	0.0010544
1288.53	0.0007985
1300.1	0.0009464
1311.68	0.0011985
1323.25	0.001468
1334.83	0.001858
1346.4	0.002448
1357.97	0.002398
1369.55	0.002308
1381.12	0.0013245
1392.7	0.0009254
1404.27	0.0008404
1415.84	0.0009945
1427.42	0.001378
1438.99	0.002948
1450.57	0.005578
1462.14	0.006178
1473.71	0.003558
1485.29	0.001528
1496.86	0.000882
1508.44	0.0006513
1520.01	0.0005457
1531.58	0.0005372
1543.16	0.00043666
1554.73	0.00041823
1566.31	0.00041466
1577.88	0.00040697
1589.45	0.00039892
1601.03	0.00038437
1612.6	0.0003823
1624.18	0.0003407
1635.75	0.00037678
1647.32	0.0003564
1658.9	0.00041336
1670.47	0.00039443
1682.05	0.00040044
1693.62	0.0003518
1705.19	0.0003486
1716.77	0.0003286
1728.34	0.000368318
1739.92	0.0003523
1751.49	0.0003532
1763.06	0.00041032
1774.64	0.00039375
1786.21	0.0003543
1797.79	0.00040157
1809.36	0.00039411
1820.93	0.00040464
1832.51	0.00038358
1844.08	0.00037878
1855.66	0.00037918
1867.23	0.0003585
1878.8	0.00038904
1890.38	0.00040801
1901.95	0.00039529
1913.53	0.00038998
1925.1	0.00040723
1936.67	0.00041299
1948.25	0.00038374
1959.82	0.00039481
1971.4	0.00039388
1982.97	0.00040235
1994.54	0.00039319
2006.12	0.00038253
2017.69	0.00040659
2029.27	0.00041407
2040.84	0.00040565
2052.41	0.00040773
2063.99	0.0004198
2075.56	0.00040861
2087.14	0.00040683
2098.71	0.00043958
2110.28	0.00045127
2121.86	0.00044979
2133.43	0.00045736
2145.01	0.0004736
2156.58	0.0004739
2168.15	0.00046646
2179.73	0.0004923
2191.3	0.0004981
2202.88	0.0004885
2214.45	0.0004893
2226.02	0.0004788
2237.6	0.0004979
2249.17	0.0005028
2260.74	0.00046319
2272.32	0.000495
2283.89	0.000503
2295.47	0.00046105
2307.04	0.00044458
2318.61	0.00045353
2330.19	0.0004749
2341.76	0.00046087
2353.34	0.0004782
2364.91	0.0004881
2376.48	0.0005204
2388.06	0.0005295
2399.63	0.0005511
2411.21	0.0005385
2422.78	0.0005366
2434.35	0.0005476
2445.93	0.0004711
2457.5	0.0004953
2469.08	0.0005107
2480.65	0.0005617
2492.22	0.0006145
2503.8	0.0005715
2515.37	0.0005721
2526.95	0.000615
2538.52	0.000646
2550.09	0.0006343
2561.67	0.0006748
2573.24	0.0007607
2584.82	0.0007935
2596.39	0.0008538
2607.96	0.0008782
2619.54	0.0009088
2631.11	0.000964
2642.69	0.0010497
2654.26	0.0012479
2665.83	0.001378
2677.41	0.0012246
2688.98	0.0010833
2700.56	0.0010494
2712.13	0.0009638
2723.7	0.0009619
2735.28	0.0009574
2746.85	0.0010567
2758.43	0.0012033
2770	0.001428
2781.57	0.001868
2793.15	0.002258
2804.72	0.002538
2816.3	0.002868
2827.87	0.003548
2839.44	0.005408
2851.02	0.012098
2862.59	0.019588
2874.17	0.011248
2885.74	0.007348
2897.31	0.009378
2908.89	0.015858
2920.46	0.029258
2932.04	0.055898
2943.61	0.045308
2955.18	0.013608
2966.76	0.004638
2978.33	0.002318
2989.91	0.001568
3001.48	0.0013236
3013.05	0.0009832
3024.63	0.0008371
3036.2	0.0007595
3047.78	0.0007618
3059.35	0.0006635
3070.92	0.0007242
3082.5	0.0007244
3094.07	0.0007028
3105.65	0.0006837
3117.22	0.0006512
3128.79	0.0006299
3140.37	0.000626
3151.94	0.000633
3163.52	0.0006808
3175.09	0.0006243
3186.66	0.0005909
3198.24	0.000656
3209.81	0.0005992
3221.39	0.0005851
3232.96	0.0005741
3244.53	0.0006617
3256.11	0.000573
3267.68	0.0005615
3279.26	0.0005754
3290.83	0.0005709
3302.4	0.00051
3313.98	0.0005929
3325.55	0.0006163
3337.13	0.0006343
3348.7	0.0005544
3360.27	0.0005517
3371.85	0.0005036
3383.42	0.0006185
3395	0.0006136
3406.57	0.0005828
3418.14	0.0005748
3429.72	0.0005771
3441.29	0.0005724
3452.86	0.000594
3464.44	0.0005706
3476.01	0.00046265
3487.59	0.0005765
3499.16	0.0005594
3510.73	0.0005749
3522.31	0.0005135
3533.88	0.0005157
3545.46	0.0006062
3557.03	0.0005658
3568.6	0.0004895
3580.18	0.0005108
3591.75	0.0005209
3603.33	0.0006173
3614.9	0.0006158
3626.47	0.0005444
3638.05	0.0005413
3649.62	0.0005341
3661.2	0.0005163
3672.77	0.00041962
3684.34	0.0005384
3695.92	0.000527
3707.49	0.0005316
3719.07	0.0005902
3730.64	0.0005393
3742.21	0.0005967
3753.79	0.0005914
3765.36	0.0005311
3776.94	0.0005732
3788.51	0.0006154
3800.08	0.000661
3811.66	0.0006138
3823.23	0.0005857
3834.81	0.0007563
3846.38	0.0006157
3857.95	0.00046109
3869.53	0.0006081
3881.1	0.0006135
3892.68	0.0005716
3904.25	0.0006474
3915.82	0.0006465
3927.4	0.0006275
3938.97	0.0006633
3950.55	0.0006481
3962.12	0.0005211
3973.69	0.0006077
3985.27	0.0007188
3996.84	0.0005318
