Infrared Spectrum: 4,4'-Methylenedianiline
Formula: C 13 H 14 N 2
CAS: 101-77-9
State: gas
Instrument: HP-GC/MS/IRD
Origin: NIST Mass Spectrometry Data Center
1/CM	ABSORBANCE
550	0.0023121
562	0.0028098
574	0.0026124
586	0.0013167
598	0.0010983
610	0.0012978
622	0.0018753
634	0.0035427
646	0.0064785
658	0.006174
670	0.0049245
682	0.0040887
694	0.0029001
706	0.0022701
718	0.0017976
730	0.0015813
742	0.0015435
754	0.002205
766	0.0029799
778	0.0028014
790	0.0034692
802	0.0049518
814	0.005292
826	0.0042777
838	0.0024759
850	0.0015162
862	0.0008694
874	0.0006216
886	0.0005565
898	0.000483
910	0.0004074
922	0.0003381
934	0.000336
946	0.0003003
958	0.0003213
970	0.0004221
982	0.0005124
994	0.0004305
1006	0.0003465
1018	0.000525
1030	0.0001827
1042	0.0003024
1054	0.0005712
1066	0.0011382
1078	0.0014742
1090	0.0011823
1102	0.0007098
1114	0.0009723
1126	0.0011214
1138	0.0004935
1150	0.0001722
1162	0.000252
1174	0.0032004
1186	0.0018501
1198	0.0003759
1210	0.0002835
1222	0.0003108
1234	0.0007539
1246	0.0026376
1258	0.008757
1270	0.0123312
1282	0.0050211
1294	0.0016233
1306	0.0011319
1318	0.000966
1330	0.0007413
1342	0.0003255
1354	0.0001155
1366	0
1378	3.57e-05
1390	3.36e-05
1402	0.000147
1414	0.0003591
1426	0.0006909
1438	0.0010185
1450	0.0009219
1462	0.0006888
1474	0.0008274
1486	0.0017283
1498	0.0056826
1510	0.0192276
1522	0.0123039
1534	0.0032193
1546	0.0014385
1558	0.0010563
1570	0.0012243
1582	0.0016569
1594	0.0023667
1606	0.0047208
1618	0.0114744
1630	0.0136584
1642	0.004347
1654	0.001512
1666	0.0010164
1678	0.0006006
1690	0.0005124
1702	0.000504
1714	0.0004368
1726	0.0003087
1738	0.0002604
1750	0.0003192
1762	0.0002247
1774	0.0001155
1786	9.87e-05
1798	7.35e-05
1810	0.0001071
1822	0.0001428
1834	0.0002205
1846	0.0003276
1858	0.0004557
1870	0.0005208
1882	0.0004662
1894	0.0003255
1906	0.000273
1918	0.0002541
1930	0.0002373
1942	0.0001953
1954	0.0001848
1966	0.0001596
1978	0.0001491
1990	0.0001029
2002	0.0001638
2014	0.0001785
2026	0.0002646
2038	0.000252
2050	0.0002247
2062	0.0002415
2074	0.000252
2086	0.0002226
2098	0.000231
2110	0.0002037
2122	0.0001722
2134	0.0001554
2146	0.0001638
2158	0.000147
2170	0.0001701
2182	0.0001806
2194	0.0001806
2206	0.0001386
2218	0.0001722
2230	0.0001638
2242	0.0001785
2254	0.0001932
2266	0.0002436
2278	0.0002541
2290	0.0002184
2302	0.0002016
2314	0.0001806
2326	0.0001449
2338	0.0001617
2350	0.0001617
2362	8.82e-05
2374	0.0001176
2386	0.000147
2398	0.0001554
2410	0.0001533
2422	0.0001365
2434	0.0001512
2446	0.0001848
2458	0.0001428
2470	0.0001596
2482	0.0001386
2494	0.0001134
2506	0.0001407
2518	0.0001974
2530	0.0002226
2542	0.0002079
2554	0.0001869
2566	0.000126
2578	0.0001638
2590	0.0001701
2602	0.0001848
2614	0.0002121
2626	0.0002121
2638	0.0001617
2650	0.0001911
2662	0.0001617
2674	0.0001302
2686	0.0001512
2698	0.000147
2710	0.0001722
2722	0.000147
2734	0.0001764
2746	0.0001848
2758	0.0002121
2770	0.0001407
2782	0.0001827
2794	0.0001491
2806	0.0001995
2818	0.0002373
2830	0.0004137
2842	0.0008526
2854	0.0010878
2866	0.0007623
2878	0.0007119
2890	0.0008505
2902	0.0015729
2914	0.0026838
2926	0.0022092
2938	0.0010458
2950	0.0005565
2962	0.0004767
2974	0.0005334
2986	0.0010332
2998	0.0026754
3010	0.0043806
3022	0.0052815
3034	0.0057225
3046	0.0033726
3058	0.002751
3070	0.0017934
3082	0.0011718
3094	0.0009954
3106	0.0007854
3118	0.0006048
3130	0.0004935
3142	0.0003906
3154	0.0002646
3166	0.0002709
3178	0.0002331
3190	0.0002604
3202	0.0002625
3214	0.000378
3226	0.0003969
3238	0.0003549
3250	0.0003486
3262	0.0003108
3274	0.0002352
3286	0.000189
3298	0.0002772
3310	0.0001617
3322	0.0002436
3334	0.0002352
3346	0.0002142
3358	0.0002688
3370	0.0003297
3382	0.0005019
3394	0.0011403
3406	0.0018165
3418	0.0011802
3430	0.000693
3442	0.0004893
3454	0.0005334
3466	0.0007098
3478	0.0010101
3490	0.0012243
3502	0.0008904
3514	0.0005124
3526	0.0003696
3538	0.0003108
3550	0.0002457
3562	0.0002898
3574	0.0002688
3586	0.0001848
3598	0.0002436
3610	0.0002982
3622	0.0001974
3634	0.0003255
3646	0.0002016
3658	0.0003465
3670	0.0002751
3682	0.0002898
3694	0.0003864
3706	0.0003549
3718	0.0003255
3730	0.0003234
3742	0.0002226
3754	0.0003045
3766	0.0003507
3778	0.0003423
3790	0.0003108
3802	0.0003843
3814	0.000357
3826	0.0004284
3838	0.0003633
