Infrared Spectrum: BIS-(p-NITROPHENYL)ETHER
Formula: C12 H8 N2 O5
CAS: 101-63-3
State: SOLID (MINERAL OIL MULL)
Melting point: 144-145.5 C
Class: COBLENTZ
Instrument: Not specified, most likely a prism, grating, or hybrid spectrometer.
Sampling: TRANSMISSION
Resolution: 4
Origin: WYANDOTTE CHEMICALS CORP., WYANDOTTE, MICHIGAN, USA
MICROMETERS	TRANSMITTANCE
2.014	0.585
2.05486	0.592
2.09571	0.604
2.13657	0.598
2.17742	0.609
2.21828	0.61
2.25913	0.617
2.29999	0.624
2.34084	0.634
2.3817	0.634
2.42256	0.653
2.46341	0.656
2.50427	0.656
2.54512	0.668
2.58598	0.667
2.62683	0.68
2.66769	0.679
2.70854	0.686
2.7494	0.691
2.79026	0.687
2.83111	0.691
2.87197	0.687
2.91282	0.687
2.95368	0.686
2.99453	0.689
3.03539	0.696
3.07625	0.703
3.1171	0.699
3.15796	0.694
3.19881	0.672
3.23967	0.622
3.28052	0.665
3.32138	0.621
3.36223	0.366
3.40309	0.211
3.44395	0.346
3.4848	0.353
3.52566	0.527
3.56651	0.733
3.60737	0.75
3.64822	0.757
3.68908	0.759
3.72993	0.769
3.77079	0.767
3.81165	0.767
3.8525	0.781
3.89336	0.788
3.93421	0.8
3.97507	0.802
4.01592	0.813
4.05678	0.803
4.09763	0.807
4.13849	0.769
4.17935	0.8
4.2202	0.805
4.26106	0.805
4.30191	0.815
4.34277	0.82
4.38362	0.846
4.42448	0.853
4.46533	0.841
4.50619	0.86
4.54705	0.861
4.5879	0.854
4.62876	0.868
4.66961	0.873
4.71047	0.872
4.75132	0.877
4.79218	0.877
4.83304	0.877
4.87389	0.883
4.91475	0.89
4.9556	0.894
4.99646	0.872
5.03731	0.882
5.07817	0.877
5.11902	0.897
5.15988	0.899
5.20074	0.892
5.24159	0.89
5.28245	0.909
5.3233	0.909
5.36416	0.919
5.40501	0.914
5.44587	0.911
5.48672	0.912
5.52758	0.923
5.56844	0.911
5.60929	0.901
5.65015	0.907
5.691	0.916
5.73186	0.912
5.77271	0.918
5.81357	0.901
5.85442	0.885
5.89528	0.907
5.93614	0.901
5.97699	0.904
6.01785	0.895
6.0587	0.899
6.09956	0.895
6.14041	0.856
6.18127	0.614
6.22213	0.6
6.26298	0.54
6.30384	0.397
6.34469	0.645
6.38555	0.708
6.4264	0.759
6.46726	0.752
6.50811	0.744
6.54897	0.581
6.58983	0.151
6.63068	0.46
6.67154	0.397
6.71239	0.402
6.75325	0.489
6.7941	0.513
6.83496	0.537
6.87581	0.633
6.91667	0.699
6.95753	0.802
6.99838	0.836
7.03924	0.854
7.08009	0.86
7.12095	0.87
7.1618	0.865
7.20266	0.796
7.24351	0.713
7.28437	0.723
7.32523	0.691
7.36608	0.621
7.40694	0.31
7.44779	0.127
7.48865	0.249
7.5295	0.402
7.57036	0.534
7.61121	0.587
7.65207	0.703
7.69293	0.761
7.73378	0.79
7.77464	0.79
7.81549	0.767
7.85635	0.74
7.8972	0.701
7.93806	0.597
7.97892	0.361
8.01977	0.167
8.06063	0.151
8.10148	0.182
8.14234	0.274
8.18319	0.373
8.22405	0.457
8.2649	0.482
8.30576	0.522
8.34662	0.578
8.38747	0.619
8.42833	0.667
8.46918	0.72
8.51004	0.573
8.55089	0.489
8.59175	0.633
8.6326	0.697
8.67346	0.721
8.71432	0.749
8.75517	0.773
8.79603	0.796
8.83688	0.82
8.87774	0.817
8.91859	0.791
8.95945	0.532
9.0003	0.501
9.04116	0.571
9.08202	0.655
9.12287	0.713
9.16373	0.725
9.20458	0.742
9.24544	0.759
9.28629	0.764
9.32715	0.767
9.368	0.774
9.40886	0.769
9.44972	0.771
9.49057	0.781
9.53143	0.786
9.57228	0.798
9.61314	0.793
9.65399	0.8
9.69485	0.81
9.73571	0.813
9.77656	0.819
9.81742	0.825
9.85827	0.822
9.89913	0.824
9.93998	0.798
9.98084	0.817
10.0217	0.831
10.0625	0.832
10.1034	0.836
10.1443	0.831
10.1851	0.829
10.226	0.819
10.2668	0.81
10.3077	0.82
10.3485	0.824
10.3894	0.822
10.4303	0.791
10.4711	0.778
10.512	0.824
10.5528	0.827
10.5937	0.834
10.6345	0.836
10.6754	0.834
10.7162	0.832
10.7571	0.839
10.798	0.832
10.8388	0.837
10.8797	0.841
10.9205	0.841
10.9614	0.843
11.0022	0.849
11.0431	0.854
11.0839	0.856
11.1248	0.858
11.1657	0.861
11.2065	0.851
11.2474	0.853
11.2882	0.829
11.3291	0.718
11.3699	0.394
11.4108	0.397
11.4516	0.488
11.4925	0.441
11.5334	0.496
11.5742	0.655
11.6151	0.715
11.6559	0.709
11.6968	0.616
11.7376	0.464
11.7785	0.592
11.8193	0.73
11.8602	0.769
11.9011	0.721
11.9419	0.641
11.9828	0.726
12.0236	0.786
12.0645	0.802
12.1053	0.802
12.1462	0.761
12.187	0.718
12.2279	0.769
12.2688	0.761
12.3096	0.796
12.3505	0.819
12.3913	0.824
12.4322	0.836
12.473	0.841
12.5139	0.843
12.5547	0.843
12.5956	0.851
12.6365	0.851
12.6773	0.848
12.7182	0.848
12.759	0.848
12.7999	0.846
12.8407	0.851
12.8816	0.853
12.9224	0.851
12.9633	0.851
13.0042	0.849
13.045	0.841
13.0859	0.839
13.1267	0.839
13.1676	0.825
13.2084	0.798
13.2493	0.655
13.2901	0.518
13.331	0.493
13.3719	0.627
13.4127	0.735
13.4536	0.793
13.4944	0.81
13.5353	0.822
13.5761	0.829
13.617	0.836
13.6578	0.839
13.6987	0.831
13.7396	0.841
13.7804	0.843
13.8213	0.831
13.8621	0.834
13.903	0.832
13.9438	0.832
13.9847	0.839
14.0255	0.846
14.0664	0.849
14.1073	0.839
14.1481	0.849
14.189	0.841
14.2298	0.834
14.2707	0.812
14.3115	0.788
14.3524	0.781
14.3932	0.79
14.4341	0.803
14.475	0.81
14.5158	0.807
14.5567	0.791
14.5975	0.766
14.6384	0.723
14.6792	0.706
14.7201	0.723
14.7609	0.75
14.8018	0.767
14.8427	0.776
14.8835	0.781
14.9244	0.767
14.9652	0.779
15.0061	0.754
15.0469	0.718
15.0878	0.697
15.1286	0.715
15.1695	0.73
15.2104	0.706
15.2512	0.653
15.2921	0.621
15.3329	0.607
15.3738	0.617
15.4146	0.648
15.4555	0.66
15.4963	0.663
15.5372	0.663
15.5781	0.668
15.6189	0.663
15.6598	0.655
15.7006	0.646
15.7415	0.651
15.7823	0.633
15.8232	0.631
15.864	0.622
15.9049	0.621
15.9458	0.614
