Infrared Spectrum: Diphenylmethane
Formula: C 13 H 12
CAS: 101-81-5
State: gas
Instrument: HP-GC/MS/IRD
Origin: NIST Mass Spectrometry Data Center
1/CM	ABSORBANCE
550	0.00375
562	0.0025075
574	0.0016325
586	0.0021475
598	0.00384
610	0.0046775
622	0.002655
634	0.0014975
646	0.00164
658	0.00276
670	0.0050875
682	0.01127
694	0.0235225
706	0.0222575
718	0.0186475
730	0.0246075
742	0.0170625
754	0.0059175
766	0.002075
778	0.001235
790	0.001095
802	0.0012875
814	0.001055
826	0.0007475
838	0.00044
850	0.0004125
862	0.0003975
874	0.0005325
886	0.0009675
898	0.0009475
910	0.001005
922	0.00099
934	0.000695
946	0.0004675
958	0.0004225
970	0.00018
982	7.75e-05
994	0.0001475
1006	0.00038
1018	0.0012975
1030	0.00481
1042	0.0011325
1054	0.0011225
1066	0.0027125
1078	0.003115
1090	0.0017825
1102	0.00119
1114	0.000785
1126	0.0004675
1138	0.0004575
1150	0.0004425
1162	0.00054
1174	0.0009375
1186	0.001515
1198	0.0016675
1210	0.00108
1222	0.00089
1234	0.0009175
1246	0.00075
1258	0.0005375
1270	0.0006875
1282	0.000885
1294	0.0009075
1306	0.0010025
1318	0.0010775
1330	0.00108
1342	0.000925
1354	0.0007
1366	0.00067
1378	0.00076
1390	0.0006825
1402	0.000705
1414	0.001015
1426	0.00228
1438	0.004465
1450	0.005805
1462	0.0041675
1474	0.00284
1486	0.00728
1498	0.012565
1510	0.002795
1522	0.0011175
1534	0.0009725
1546	0.001085
1558	0.001655
1570	0.0017975
1582	0.0031675
1594	0.006785
1606	0.0066425
1618	0.0022425
1630	0.000895
1642	0.0007425
1654	0.0008375
1666	0.000465
1678	0.0003825
1690	0.00039
1702	0.00057
1714	0.0006325
1726	0.0006425
1738	0.000775
1750	0.000845
1762	0.0008925
1774	0.00108
1786	0.00165
1798	0.0020125
1810	0.0010775
1822	0.0007675
1834	0.0006925
1846	0.0009225
1858	0.00107
1870	0.001165
1882	0.0010975
1894	0.000935
1906	0.000775
1918	0.000955
1930	0.00146
1942	0.0018825
1954	0.0016375
1966	0.0006325
1978	0.0004175
1990	0.0003625
2002	0.00035
2014	0.000265
2026	0.00029
2038	0.0002375
2050	0.0002925
2062	0.000285
2074	0.00025
2086	0.0002425
2098	0.0002
2110	0.00023
2122	0.000225
2134	0.0001975
2146	0.000205
2158	0.0002025
2170	0.0002475
2182	0.00019
2194	0.000195
2206	0.0002025
2218	0.00014
2230	0.0001775
2242	0.00019
2254	0.000235
2266	0.000195
2278	0.00025
2290	0.0002075
2302	0.00028
2314	0.0004225
2326	0.000405
2338	0.0005025
2350	0.00034
2362	0.0004625
2374	0.0002825
2386	0.000205
2398	0.0002125
2410	0.0002475
2422	0.00021
2434	0.0002325
2446	0.00015
2458	0.00019
2470	0.000165
2482	0.000145
2494	0.0001275
2506	0.0001075
2518	0.0001425
2530	0.00013
2542	0.0001375
2554	0.0001675
2566	0.0001575
2578	0.000155
2590	0.000195
2602	0.0002125
2614	0.0002225
2626	0.0001975
2638	0.000215
2650	0.00014
2662	0.0001075
2674	0.0001075
2686	6e-05
2698	4e-05
2710	9e-05
2722	6e-05
2734	0.0001125
2746	0.00014
2758	0.0001775
2770	0.00032
2782	0.0003625
2794	0.00027
2806	0.00026
2818	0.0003775
2830	0.0007775
2842	0.001665
2854	0.00235
2866	0.00184
2878	0.001395
2890	0.001925
2902	0.003455
2914	0.0059275
2926	0.0071
2938	0.0047675
2950	0.00232
2962	0.0012675
2974	0.000995
2986	0.0012225
2998	0.0023175
3010	0.0054275
3022	0.012585
3034	0.0200625
3046	0.0137275
3058	0.0133025
3070	0.02178
3082	0.014675
3094	0.0095925
3106	0.0055225
3118	0.00264
3130	0.000905
3142	0.0005225
3154	0.0004275
3166	0.0004175
3178	0.0002275
3190	0.00017
3202	0.0001
3214	0.000155
3226	0.00012
3238	0.000155
3250	0.000165
3262	8.75e-05
3274	7.5e-05
3286	1.25e-05
3298	0.0001025
3310	5.25e-05
3322	7e-05
3334	5e-05
3346	0.0001
3358	5.25e-05
3370	2e-05
3382	8.5e-05
3394	0.0001025
3406	0.00013
3418	6.25e-05
3430	0.0001
3442	0.0001
3454	0.0001375
3466	5e-05
3478	7.25e-05
3490	9e-05
3502	0.0001575
3514	0.0001225
3526	0.00013
3538	9e-05
3550	0.0001225
3562	9.75e-05
3574	8.25e-05
3586	0.000105
3598	0.00016
3610	6.75e-05
3622	0.0001875
3634	0.00014
3646	0.0003
3658	0.00024
3670	0.000205
3682	0.0001525
3694	9.5e-05
3706	0.0002125
3718	0.0001225
3730	7e-05
3742	0.0001575
3754	0.0002075
3766	0.0002175
3778	0.00015
3790	0.000125
3802	0.0002225
3814	0.0001875
3826	0.000245
3838	0.0002575
