Infrared Spectrum: NITRIC OXIDE
Formula: N O
CAS: 10102-43-9
State: GAS;
Class: COBLENTZ
Instrument: Not specified, most likely a prism, grating, or hybrid spectrometer.
Sampling: TRANSMISSION
Path length: 500 CM
Resolution: 4
Origin: WYANDOTTE CHEMICALS CORP., WYANDOTTE, MICHIGAN, USA
MICROMETERS	TRANSMITTANCE
2.04	0.963
2.07979	0.965
2.11959	0.97
2.15938	0.971
2.19918	0.971
2.23897	0.97
2.27877	0.97
2.31856	0.968
2.35836	0.968
2.39815	0.965
2.43794	0.961
2.47774	0.96
2.51753	0.96
2.55733	0.966
2.59712	0.968
2.63692	0.953
2.67671	0.953
2.7165	0.952
2.7563	0.955
2.79609	0.961
2.83589	0.97
2.87568	0.97
2.91548	0.97
2.95527	0.97
2.99507	0.968
3.03486	0.966
3.07465	0.965
3.11445	0.965
3.15424	0.966
3.19404	0.965
3.23383	0.965
3.27363	0.963
3.31342	0.963
3.35321	0.96
3.39301	0.953
3.4328	0.943
3.4726	0.94
3.51239	0.945
3.55219	0.952
3.59198	0.955
3.63178	0.961
3.67157	0.96
3.71136	0.961
3.75116	0.96
3.79095	0.957
3.83075	0.958
3.87054	0.961
3.91034	0.961
3.95013	0.958
3.98992	0.96
4.02972	0.96
4.06951	0.957
4.10931	0.961
4.1491	0.957
4.1889	0.955
4.22869	0.96
4.26849	0.957
4.30828	0.96
4.34807	0.965
4.38787	0.971
4.42766	0.968
4.46746	0.965
4.50725	0.94
4.54705	0.841
4.58684	0.857
4.62664	0.876
4.66643	0.933
4.70622	0.963
4.74602	0.97
4.78581	0.971
4.82561	0.973
4.8654	0.975
4.9052	0.975
4.94499	0.975
4.98478	0.973
5.02458	0.971
5.06437	0.961
5.10417	0.963
5.14396	0.928
5.18376	0.715
5.22355	0.343
5.26335	0.284
5.30314	0.328
5.34293	0.588
5.38273	0.438
5.42252	0.28
5.46232	0.233
5.50211	0.3
5.54191	0.598
5.5817	0.707
5.62149	0.846
5.66129	0.899
5.70108	0.919
5.74088	0.923
5.78067	0.928
5.82047	0.872
5.86026	0.847
5.90006	0.852
5.93985	0.889
5.97964	0.866
6.01944	0.634
6.05923	0.505
6.09903	0.449
6.13882	0.642
6.17862	0.566
6.21841	0.624
6.2582	0.76
6.298	0.89
6.33779	0.92
6.37759	0.933
6.41738	0.953
6.45718	0.957
6.49697	0.97
6.53677	0.971
6.57656	0.971
6.61635	0.971
6.65615	0.97
6.69594	0.96
6.73574	0.96
6.77553	0.958
6.81533	0.96
6.85512	0.96
6.89492	0.955
6.93471	0.955
6.9745	0.955
7.0143	0.955
7.05409	0.955
7.09389	0.955
7.13368	0.961
7.17348	0.963
7.21327	0.963
7.25306	0.961
7.29286	0.961
7.33265	0.961
7.37245	0.96
7.41224	0.96
7.45204	0.958
7.49183	0.948
7.53163	0.91
7.57142	0.8
7.61121	0.71
7.65101	0.694
7.6908	0.7
7.7306	0.768
7.77039	0.813
7.81019	0.833
7.84998	0.851
7.88977	0.851
7.92957	0.879
7.96936	0.872
8.00916	0.889
8.04895	0.91
8.08875	0.92
8.12854	0.925
8.16834	0.93
8.20813	0.928
8.24792	0.932
8.28772	0.933
8.32751	0.933
8.36731	0.933
8.4071	0.938
8.4469	0.943
8.48669	0.952
8.52648	0.95
8.56628	0.952
8.60607	0.953
8.64587	0.953
8.68566	0.961
8.72546	0.968
8.76525	0.97
8.80505	0.968
8.84484	0.963
8.88463	0.96
8.92443	0.955
8.96422	0.953
9.00402	0.945
9.04381	0.937
9.08361	0.93
9.1234	0.925
9.1632	0.923
9.20299	0.923
9.24278	0.923
9.28258	0.923
9.32237	0.923
9.36217	0.923
9.40196	0.927
9.44176	0.928
9.48155	0.93
9.52134	0.93
9.56114	0.932
9.60093	0.933
9.64073	0.935
9.68052	0.937
9.72032	0.94
9.76011	0.943
9.79991	0.945
9.8397	0.945
9.87949	0.945
9.91929	0.943
9.95908	0.945
9.99888	0.948
10.0387	0.948
10.0785	0.95
10.1183	0.95
10.1581	0.95
10.1978	0.942
10.2376	0.942
10.2774	0.945
10.3172	0.95
10.357	0.95
10.3968	0.95
10.4366	0.948
10.4764	0.945
10.5162	0.943
10.556	0.942
10.5958	0.935
10.6356	0.937
10.6754	0.937
10.7152	0.935
10.755	0.935
10.7948	0.935
10.8346	0.935
10.8744	0.935
10.9141	0.935
10.9539	0.935
10.9937	0.937
11.0335	0.937
11.0733	0.937
11.1131	0.938
11.1529	0.937
11.1927	0.935
11.2325	0.935
11.2723	0.933
11.3121	0.932
11.3519	0.925
11.3917	0.915
11.4315	0.905
11.4713	0.9
11.5111	0.899
11.5509	0.9
11.5907	0.902
11.6304	0.905
11.6702	0.907
11.71	0.894
11.7498	0.915
11.7896	0.925
11.8294	0.917
11.8692	0.912
11.909	0.902
11.9488	0.904
11.9886	0.905
12.0284	0.907
12.0682	0.909
12.108	0.909
12.1478	0.909
12.1876	0.909
12.2274	0.907
12.2672	0.904
12.307	0.902
12.3467	0.895
12.3865	0.889
12.4263	0.882
12.4661	0.882
12.5059	0.89
12.5457	0.89
12.5855	0.884
12.6253	0.872
12.6651	0.887
12.7049	0.885
12.7447	0.874
12.7845	0.856
12.8243	0.844
12.8641	0.842
12.9039	0.846
12.9437	0.849
12.9835	0.852
13.0233	0.856
13.063	0.862
13.1028	0.866
13.1426	0.871
13.1824	0.874
13.2222	0.884
13.262	0.89
13.3018	0.895
13.3416	0.902
13.3814	0.907
13.4212	0.912
13.461	0.915
13.5008	0.92
13.5406	0.925
13.5804	0.928
13.6202	0.933
13.66	0.938
13.6998	0.942
13.7395	0.943
13.7793	0.943
13.8191	0.942
13.8589	0.943
13.8987	0.943
13.9385	0.943
13.9783	0.943
14.0181	0.943
14.0579	0.943
14.0977	0.942
14.1375	0.942
14.1773	0.94
14.2171	0.942
14.2569	0.942
14.2967	0.94
14.3365	0.938
14.3763	0.937
14.4161	0.937
14.4558	0.933
14.4956	0.93
14.5354	0.927
14.5752	0.925
14.615	0.922
14.6548	0.922
14.6946	0.919
14.7344	0.917
14.7742	0.917
14.814	0.917
14.8538	0.914
14.8936	0.91
14.9334	0.909
14.9732	0.904
15.013	0.899
15.0528	0.899
15.0926	0.9
15.1324	0.9
15.1721	0.902
15.2119	0.9
15.2517	0.899
15.2915	0.894
15.3313	0.892
15.3711	0.889
15.4109	0.889
15.4507	0.887
15.4905	0.885
15.5303	0.882
15.5701	0.879
15.6099	0.874
15.6497	0.869
15.6895	0.866
15.7293	0.862
15.7691	0.856
15.8089	0.852
15.8487	0.851
15.8884	0.847
15.9282	0.842
15.968	0.836
