Infrared Spectrum: 3-(2,4,5-TRICHLOROPHENOXY)-1,2-PROPANEDIOL BIS-(2,2-DICHLOROPROPIONATE)
Formula: C15 H13 Cl7 O5
CAS: 101096-60-0
State: SOLUTION (10% CCl4 FOR 5000-1300, 10% CS2 FOR 1300-625 CM^-^1)
Class: COBLENTZ
Instrument: Not specified, most likely a prism, grating, or hybrid spectrometer.
Sampling: TRANSMISSION
Path length: 0.011 CM, 0.011 CM
Resolution: 4
Origin: DOW CHEMICAL COMPANY
MICROMETERS	TRANSMITTANCE
2.027	0.871
2.06772	0.871
2.10844	0.874
2.14915	0.872
2.18987	0.871
2.23059	0.864
2.27131	0.871
2.31202	0.872
2.35274	0.871
2.39346	0.871
2.43418	0.872
2.47489	0.877
2.51561	0.881
2.55633	0.874
2.59705	0.874
2.63776	0.877
2.67848	0.871
2.7192	0.876
2.75992	0.872
2.80064	0.867
2.84135	0.861
2.88207	0.872
2.92279	0.871
2.96351	0.869
3.00422	0.874
3.04494	0.871
3.08566	0.874
3.12638	0.874
3.16709	0.867
3.20781	0.852
3.24853	0.861
3.28925	0.847
3.32996	0.788
3.37068	0.75
3.4114	0.823
3.45212	0.828
3.49283	0.864
3.53355	0.866
3.57427	0.871
3.61499	0.869
3.65571	0.874
3.69642	0.877
3.73714	0.881
3.77786	0.877
3.81858	0.879
3.85929	0.881
3.90001	0.881
3.94073	0.879
3.98145	0.877
4.02216	0.881
4.06288	0.888
4.1036	0.888
4.14432	0.886
4.18503	0.886
4.22575	0.871
4.26647	0.869
4.30719	0.876
4.34791	0.879
4.38862	0.881
4.42934	0.889
4.47006	0.891
4.51078	0.891
4.55149	0.889
4.59221	0.888
4.63293	0.888
4.67365	0.884
4.71436	0.888
4.75508	0.888
4.7958	0.888
4.83652	0.891
4.87723	0.886
4.91795	0.886
4.95867	0.879
4.99939	0.877
5.04011	0.883
5.08082	0.884
5.12154	0.889
5.16226	0.891
5.20298	0.888
5.24369	0.888
5.28441	0.883
5.32513	0.874
5.36585	0.871
5.40656	0.861
5.44728	0.845
5.488	0.822
5.52872	0.777
5.56943	0.611
5.61015	0.323
5.65087	0.074
5.69159	0.091
5.7323	0.494
5.77302	0.764
5.81374	0.776
5.85446	0.811
5.89518	0.842
5.93589	0.845
5.97661	0.852
6.01733	0.859
6.05805	0.854
6.09876	0.85
6.13948	0.816
6.1802	0.767
6.22092	0.647
6.26163	0.483
6.30235	0.484
6.34307	0.52
6.38379	0.483
6.4245	0.435
6.46522	0.471
6.50594	0.55
6.54666	0.574
6.58738	0.591
6.62809	0.598
6.66881	0.557
6.70953	0.247
6.75025	0.227
6.79096	0.244
6.83168	0.22
6.8724	0.293
6.91312	0.486
6.95383	0.733
6.99455	0.752
7.03527	0.745
7.07599	0.715
7.1167	0.71
7.15742	0.686
7.19814	0.489
7.23886	0.642
7.27957	0.647
7.32029	0.422
7.36101	0.311
7.40173	0.572
7.44245	0.703
7.48316	0.71
7.52388	0.672
7.5646	0.659
7.60532	0.652
7.64603	0.62
7.68675	0.506
7.72747	0.352
7.76819	0.233
7.8089	0.174
7.84962	0.138
7.89034	0.116
7.93106	0.089
7.97177	0.04
8.01249	0.042
8.05321	0.071
8.09393	0.152
8.13465	0.332
8.17536	0.508
8.21608	0.622
8.2568	0.693
8.29752	0.723
8.33823	0.74
8.37895	0.742
8.41967	0.723
8.46039	0.703
8.5011	0.688
8.54182	0.677
8.58254	0.657
8.62326	0.615
8.66397	0.564
8.70469	0.491
8.74541	0.344
8.78613	0.216
8.82685	0.093
8.86756	0.057
8.90828	0.072
8.949	0.111
8.98972	0.169
9.03043	0.216
9.07115	0.213
9.11187	0.174
9.15259	0.118
9.1933	0.071
9.23402	0.059
9.27474	0.113
9.31546	0.232
9.35617	0.352
9.39689	0.433
9.43761	0.481
9.47833	0.483
9.51904	0.462
9.55976	0.461
9.60048	0.516
9.6412	0.574
9.68192	0.622
9.72263	0.684
9.76335	0.723
9.80407	0.744
9.84479	0.742
9.8855	0.716
9.92622	0.664
9.96694	0.632
10.0077	0.633
10.0484	0.661
10.0891	0.681
10.1298	0.711
10.1705	0.732
10.2112	0.75
10.252	0.761
10.2927	0.774
10.3334	0.793
10.3741	0.803
10.4148	0.811
10.4556	0.805
10.4963	0.789
10.537	0.759
10.5777	0.73
10.6184	0.701
10.6591	0.7
10.6999	0.7
10.7406	0.688
10.7813	0.701
10.822	0.722
10.8627	0.749
10.9034	0.752
10.9442	0.754
10.9849	0.752
11.0256	0.75
11.0663	0.749
11.107	0.742
11.1478	0.73
11.1885	0.71
11.2292	0.679
11.2699	0.632
11.3106	0.561
11.3513	0.467
11.3921	0.359
11.4328	0.371
11.4735	0.505
11.5142	0.561
11.5549	0.574
11.5956	0.574
11.6364	0.574
11.6771	0.574
11.7178	0.581
11.7585	0.593
11.7992	0.618
11.84	0.633
11.8807	0.644
11.9214	0.628
11.9621	0.591
12.0028	0.611
12.0435	0.674
12.0843	0.713
12.125	0.728
12.1657	0.738
12.2064	0.74
12.2471	0.733
12.2878	0.728
12.3286	0.722
12.3693	0.716
12.41	0.705
12.4507	0.684
12.4914	0.654
12.5321	0.591
12.5729	0.55
12.6136	0.533
12.6543	0.54
12.695	0.545
12.7357	0.545
12.7765	0.544
12.8172	0.544
12.8579	0.544
12.8986	0.55
12.9393	0.562
12.98	0.579
13.0208	0.588
13.0615	0.562
13.1022	0.515
13.1429	0.479
13.1836	0.491
13.2243	0.54
13.2651	0.579
13.3058	0.591
13.3465	0.593
13.3872	0.583
13.4279	0.562
13.4687	0.538
13.5094	0.511
13.5501	0.498
13.5908	0.486
13.6315	0.474
13.6722	0.469
13.713	0.467
13.7537	0.483
13.7944	0.508
13.8351	0.53
13.8758	0.559
13.9165	0.572
13.9573	0.581
13.998	0.584
14.0387	0.583
14.0794	0.581
14.1201	0.572
14.1609	0.567
14.2016	0.559
14.2423	0.549
14.283	0.537
14.3237	0.528
14.3644	0.513
14.4052	0.501
14.4459	0.488
14.4866	0.466
14.5273	0.43
14.568	0.379
14.6087	0.31
14.6495	0.272
14.6902	0.281
14.7309	0.31
14.7716	0.325
14.8123	0.327
14.8531	0.313
14.8938	0.298
14.9345	0.267
14.9752	0.235
15.0159	0.206
15.0566	0.189
15.0974	0.183
15.1381	0.179
15.1788	0.183
15.2195	0.198
15.2602	0.211
15.3009	0.228
15.3417	0.249
15.3824	0.261
15.4231	0.279
15.4638	0.298
15.5045	0.308
15.5453	0.32
15.586	0.328
15.6267	0.332
15.6674	0.337
15.7081	0.337
15.7488	0.338
15.7896	0.338
15.8303	0.338
15.871	0.338
15.9117	0.338
