Infrared Spectrum: Pyrimidine, 5-amino-4- (ethylamino)-
Formula: C6 H10 N4
CAS: 101080-16-4
State: SOLID (0.8 mg / 650 mg KBr DISC)
Class: COBLENTZ III
Instrument: PERKIN-ELMER 21 (GRATING)
Instrument parameters: FILTER CHANGE ABOUT 1030 CM^-^1
Sampling: TRANSMISSION
Resolution: 2
Origin: SOUTHERN RESEARCH INSTITUTE
1/CM	TRANSMITTANCE
596.973	0.4999
606.031	0.5015
615.09	0.5028
624.148	0.5031
633.206	0.5029
642.264	0.5027
651.323	0.5029
660.381	0.5089
669.439	0.5303
678.497	0.557
687.556	0.5732
696.614	0.5882
705.672	0.602
714.73	0.6128
723.789	0.6181
732.847	0.6184
741.905	0.6118
750.963	0.5954
760.022	0.5903
769.08	0.5268
778.138	0.492
787.197	0.6496
796.255	0.6362
805.313	0.6058
814.371	0.5511
823.43	0.513
832.488	0.61
841.546	0.6465
850.604	0.6407
859.663	0.62
868.721	0.5754
877.779	0.5136
886.837	0.5095
895.896	0.568
904.954	0.6884
914.012	0.6863
923.07	0.6597
932.129	0.6383
941.187	0.6417
950.245	0.642
959.304	0.696
968.362	0.7171
977.42	0.7121
986.478	0.7024
995.537	0.6911
1004.59	0.6793
1013.65	0.6641
1022.71	0.6337
1031.77	0.6453
1040.83	0.6394
1049.89	0.6205
1058.94	0.5613
1068	0.5248
1077.06	0.5746
1086.12	0.5233
1095.18	0.4567
1104.24	0.411
1113.29	0.3938
1122.35	0.6095
1131.41	0.623
1140.47	0.6045
1149.53	0.6319
1158.59	0.6913
1167.64	0.6695
1176.7	0.6422
1185.76	0.6173
1194.82	0.5883
1203.88	0.5505
1212.93	0.4934
1221.99	0.4278
1231.05	0.4018
1240.11	0.4815
1249.17	0.5136
1258.23	0.5006
1267.28	0.4477
1276.34	0.3307
1285.4	0.4095
1294.46	0.5875
1303.52	0.603
1312.58	0.5679
1321.63	0.4905
1330.69	0.352
1339.75	0.3465
1348.81	0.3283
1357.87	0.3024
1366.93	0.5986
1375.98	0.5497
1385.04	0.5415
1394.1	0.513
1403.16	0.4829
1412.22	0.4286
1421.27	0.3091
1430.33	0.2394
1439.39	0.5298
1448.45	0.461
1457.51	0.375
1466.57	0.343
1475.62	0.3447
1484.68	0.3406
1493.74	0.5004
1502.8	0.4431
1511.86	0.3579
1520.92	0.428
1529.97	0.6071
1539.03	0.6351
1548.09	0.5351
1557.15	0.4013
1566.21	0.2859
1575.27	0.1582
1584.32	0.0991
1593.38	0.0908
1602.44	0.1422
1611.5	0.2644
1620.56	0.3914
1629.61	0.4909
1638.67	0.5509
1647.73	0.5257
1656.79	0.4669
1665.85	0.4276
1674.91	0.5408
1683.96	0.714
1693.02	0.8301
1702.08	0.8797
1711.14	0.9058
1720.2	0.9247
1729.26	0.924
1738.31	0.9225
1747.37	0.9194
1756.43	0.9126
1765.49	0.8989
1774.55	0.8964
1783.61	0.8993
1792.66	0.8998
1801.72	0.8958
1810.78	0.8895
1819.84	0.8819
1828.9	0.872
1837.96	0.8668
1847.01	0.8691
1856.07	0.8655
1865.13	0.8595
1874.19	0.8468
1883.25	0.8299
1892.3	0.8309
1901.36	0.8368
1910.42	0.8455
1919.48	0.8479
1928.54	0.8452
1937.6	0.8409
1946.65	0.8366
1955.71	0.833
1964.77	0.8299
1973.83	0.8276
1982.89	0.8253
1991.95	0.8229
2001	0.8204
2010.06	0.8179
2019.12	0.8154
2028.18	0.8132
2037.24	0.811
2046.3	0.8085
2055.35	0.806
2064.41	0.8036
2073.47	0.8006
2082.53	0.7973
2091.59	0.7947
2100.64	0.7921
2109.7	0.7902
2118.76	0.7881
2127.82	0.7856
2136.88	0.7828
2145.94	0.78
2154.99	0.7774
2164.05	0.7749
2173.11	0.7718
2182.17	0.7681
2191.23	0.7645
2200.29	0.7611
2209.34	0.7587
2218.4	0.7573
2227.46	0.7546
2236.52	0.752
2245.58	0.7493
2254.64	0.7467
2263.69	0.7441
2272.75	0.7416
2281.81	0.7382
2290.87	0.7359
2299.93	0.7362
2308.98	0.737
2318.04	0.7383
2327.1	0.7349
2336.16	0.7324
2345.22	0.7332
2354.28	0.7332
2363.33	0.7307
2372.39	0.7283
2381.45	0.7252
2390.51	0.7193
2399.57	0.7126
2408.63	0.7084
2417.68	0.7067
2426.74	0.7065
2435.8	0.706
2444.86	0.7049
2453.92	0.7019
2462.98	0.6977
2472.03	0.694
2481.09	0.6924
2490.15	0.6955
2499.21	0.7006
2508.27	0.7007
2517.32	0.6967
2526.38	0.6899
2535.44	0.6838
2544.5	0.6813
2553.56	0.681
2562.62	0.6794
2571.67	0.6715
2580.73	0.6641
2589.79	0.6591
2598.85	0.6541
2607.91	0.6511
2616.97	0.6486
2626.02	0.6461
2635.08	0.6421
2644.14	0.6361
2653.2	0.633
2662.26	0.6303
2671.32	0.6278
2680.37	0.6258
2689.43	0.6234
2698.49	0.6207
2707.55	0.6174
2716.61	0.6139
2725.66	0.61
2734.72	0.6058
2743.78	0.6036
2752.84	0.6026
2761.9	0.6013
2770.96	0.6001
2780.01	0.5985
2789.07	0.594
2798.13	0.5868
2807.19	0.5746
2816.25	0.5578
2825.31	0.5409
2834.36	0.5152
2843.42	0.5004
2852.48	0.4896
2861.54	0.482
2870.6	0.4809
2879.66	0.4829
2888.71	0.4796
2897.77	0.4658
2906.83	0.457
2915.89	0.4505
2924.95	0.4466
2934	0.4423
2943.06	0.4331
2952.12	0.4283
2961.18	0.4263
2970.24	0.4321
2979.3	0.4491
2988.35	0.4628
2997.41	0.4702
3006.47	0.4727
3015.53	0.4717
3024.59	0.4686
3033.65	0.4682
3042.7	0.4684
3051.76	0.4673
3060.82	0.4667
3069.88	0.4665
3078.94	0.4664
3088	0.4643
3097.05	0.4548
3106.11	0.4397
3115.17	0.4198
3124.23	0.4051
3133.29	0.3937
3142.34	0.3858
3151.4	0.3799
3160.46	0.3751
3169.52	0.3634
3178.58	0.3493
3187.64	0.3353
3196.69	0.3207
3205.75	0.3041
3214.81	0.2868
3223.87	0.27
3232.93	0.2633
3241.99	0.2622
3251.04	0.27
3260.1	0.29
3269.16	0.3127
3278.22	0.325
3287.28	0.3304
3296.34	0.3356
3305.39	0.3419
3314.45	0.348
3323.51	0.3496
3332.57	0.3419
3341.63	0.3265
3350.68	0.3053
3359.74	0.2962
3368.8	0.2997
3377.86	0.3128
3386.92	0.3311
3395.98	0.3515
3405.03	0.4
3414.09	0.4559
3423.15	0.542
3432.21	0.5915
3441.27	0.6238
3450.33	0.6344
3459.38	0.647
3468.44	0.652
3477.5	0.6557
3486.56	0.6586
3495.62	0.66
3504.68	0.6615
3513.73	0.6638
3522.79	0.6667
3531.85	0.6701
3540.91	0.6737
3549.97	0.6802
3559.03	0.6905
3568.08	0.6988
3577.14	0.703
3586.2	0.7064
3595.26	0.7074
3604.32	0.7095
3613.37	0.7141
3622.43	0.718
3631.49	0.7206
3640.55	0.7218
3649.61	0.7216
3658.67	0.721
3667.72	0.7194
3676.78	0.7172
3685.84	0.7143
3694.9	0.712
3703.96	0.7119
3713.02	0.7122
3722.07	0.7108
3731.13	0.7067
3740.19	0.7063
3749.25	0.7066
3758.31	0.7062
3767.37	0.7056
3776.42	0.7049
3785.48	0.7025
3794.54	0.6977
3803.6	0.6904
3812.66	0.6847
3821.71	0.6801
3830.77	0.6744
3839.83	0.6691
3848.89	0.6681
3857.95	0.6679
3867.01	0.6677
3876.06	0.6677
3885.12	0.6681
3894.18	0.6687
3903.24	0.6692
3912.3	0.6682
3921.36	0.667
3930.41	0.6666
3939.47	0.6693
3948.53	0.665
3957.59	0.6638
3966.65	0.6646
3975.71	0.6643
3984.76	0.6641
3993.82	0.6654
4002.88	0.6683
4011.94	0.6759
