Infrared Spectrum: 9H-purine-9-acetic acid, 6-[(p-chlorophenyl)amino)-, ethyl ester
Formula: C15 H14 Cl N5 O2
CAS: 101103-22-4
State: SOLID (1 mg / 650 mg KBr DISC)
Class: COBLENTZ III
Instrument: PERKIN-ELMER 521 (GRATING)
Instrument parameters: FILTERS AT 3130, 2475, 2000, 620. GRATING CHANGES: 2000, 630 CM^-^1
Sampling: TRANSMISSION
Resolution: 2
Origin: SOUTHERN RESEARCH INSTITUTE
1/CM	TRANSMITTANCE
253	0.2709
263.021	0.3282
273.043	0.4221
283.064	0.4925
293.085	0.552
303.107	0.6077
313.128	0.6813
323.149	0.6922
333.171	0.7194
343.192	0.7348
353.214	0.7509
363.235	0.8299
373.256	0.8596
383.278	0.8709
393.299	0.8838
403.32	0.8845
413.342	0.8802
423.363	0.8333
433.384	0.8582
443.406	0.9077
453.427	0.9263
463.448	0.9281
473.47	0.9204
483.491	0.9021
493.512	0.8431
503.534	0.8031
513.555	0.8572
523.576	0.5355
533.598	0.8758
543.619	0.8988
553.641	0.9288
563.662	0.903
573.683	0.8895
583.705	0.8242
593.726	0.8987
603.747	0.8716
613.769	0.8448
623.79	0.6787
633.811	0.3907
643.833	0.6177
653.854	0.8566
663.875	0.7247
673.897	0.7489
683.918	0.8285
693.939	0.7749
703.961	0.7703
713.982	0.8223
724.003	0.8688
734.025	0.8751
744.046	0.8596
754.068	0.7749
764.089	0.4063
774.11	0.8421
784.132	0.5466
794.153	0.8209
804.174	0.77
814.196	0.5683
824.217	0.6483
834.238	0.7228
844.26	0.8181
854.281	0.8303
864.302	0.8105
874.324	0.8765
884.345	0.888
894.366	0.8232
904.388	0.9099
914.409	0.8859
924.43	0.8792
934.452	0.7511
944.473	0.8355
954.495	0.806
964.516	0.7163
974.537	0.7776
984.559	0.8098
994.58	0.727
1004.6	0.4598
1014.62	0.5555
1024.64	0.7047
1034.67	0.8553
1044.69	0.8648
1054.71	0.8405
1064.73	0.8029
1074.75	0.7454
1084.77	0.4396
1094.79	0.6737
1104.81	0.7752
1114.84	0.7729
1124.86	0.7405
1134.88	0.4752
1144.9	0.5884
1154.92	0.7049
1164.94	0.666
1174.96	0.5854
1184.99	0.4983
1195.01	0.324
1205.03	0.1555
1215.05	0.1418
1225.07	0.354
1235.09	0.2617
1245.11	0.4532
1255.14	0.6793
1265.16	0.7363
1275.18	0.5722
1285.2	0.3514
1295.22	0.287
1305.24	0.5969
1315.26	0.4137
1325.28	0.4796
1335.31	0.4592
1345.33	0.6128
1355.35	0.5612
1365.37	0.3854
1375.39	0.344
1385.41	0.4886
1395.43	0.6334
1405.46	0.5099
1415.48	0.5496
1425.5	0.6865
1435.52	0.5667
1445.54	0.4721
1455.56	0.3333
1465.58	0.1648
1475.6	0.2285
1485.63	0.119
1495.65	0.4711
1505.67	0.7691
1515.69	0.7171
1525.71	0.565
1535.73	0.6709
1545.75	0.6664
1555.78	0.3603
1565.8	0.0734
1575.82	0.3113
1585.84	0.466
1595.86	0.3513
1605.88	0.1486
1615.9	0.2136
1625.93	0.2624
1635.95	0.5086
1645.97	0.6819
1655.99	0.8002
1666.01	0.8838
1676.03	0.917
1686.05	0.8889
1696.07	0.8085
1706.1	0.8092
1716.12	0.6356
1726.14	0.1643
1736.16	0.1968
1746.18	0.5953
1756.2	0.8603
1766.22	0.9319
1776.25	0.948
1786.27	0.9521
1796.29	0.9586
1806.31	0.9686
1816.33	0.9659
1826.35	0.9677
1836.37	0.969
1846.39	0.9713
1856.42	0.9658
1866.44	0.9479
1876.46	0.9325
1886.48	0.9243
1896.5	0.9648
1906.52	0.9671
1916.54	0.9674
1926.57	0.9662
1936.59	0.9638
1946.61	0.9614
1956.63	0.9586
1966.65	0.9558
1976.67	0.9531
1986.69	0.9509
1996.71	0.9489
2006.74	0.9473
2016.76	0.9459
2026.78	0.9452
2036.8	0.9361
2046.82	0.9323
2056.84	0.9303
2066.86	0.9283
2076.89	0.926
2086.91	0.9238
2096.93	0.9224
2106.95	0.9209
2116.97	0.9194
2126.99	0.9176
2137.01	0.9159
2147.04	0.9142
2157.06	0.9129
2167.08	0.9117
2177.1	0.9101
2187.12	0.9081
2197.14	0.9061
2207.16	0.9042
2217.18	0.9023
2227.21	0.9004
2237.23	0.8985
2247.25	0.8966
2257.27	0.8947
2267.29	0.8927
2277.31	0.8908
2287.33	0.8889
2297.36	0.8869
2307.38	0.8849
2317.4	0.8829
2327.42	0.8806
2337.44	0.8774
2347.46	0.8742
2357.48	0.871
2367.5	0.868
2377.53	0.8649
2387.55	0.8622
2397.57	0.8616
2407.59	0.8611
2417.61	0.8605
2427.63	0.8599
2437.65	0.8592
2447.68	0.8585
2457.7	0.8576
2467.72	0.8565
2477.74	0.8553
2487.76	0.8538
2497.78	0.8516
2507.8	0.8493
2517.83	0.847
2527.85	0.8448
2537.87	0.8424
2547.89	0.8401
2557.91	0.8378
2567.93	0.8356
2577.95	0.8336
2587.97	0.8317
2598	0.8297
2608.02	0.8276
2618.04	0.8252
2628.06	0.8228
2638.08	0.8201
2648.1	0.817
2658.12	0.8138
2668.15	0.8107
2678.17	0.8079
2688.19	0.8052
2698.21	0.8022
2708.23	0.7978
2718.25	0.7935
2728.27	0.7894
2738.29	0.7856
2748.32	0.7817
2758.34	0.7774
2768.36	0.7731
2778.38	0.7697
2788.4	0.7684
2798.42	0.7654
2808.44	0.7568
2818.47	0.7442
2828.49	0.7318
2838.51	0.719
2848.53	0.7052
2858.55	0.6943
2868.57	0.6917
2878.59	0.6891
2888.62	0.6715
2898.64	0.6505
2908.66	0.623
2918.68	0.5832
2928.7	0.5554
2938.72	0.612
2948.74	0.5923
2958.76	0.547
2968.79	0.4817
2978.81	0.5233
2988.83	0.5203
2998.85	0.5278
3008.87	0.6287
3018.89	0.611
3028.91	0.566
3038.94	0.5242
3048.96	0.5128
3058.98	0.5412
3069	0.5596
3079.02	0.5757
3089.04	0.5873
3099.06	0.5732
3109.08	0.5443
3119.11	0.5278
3129.13	0.5473
3139.15	0.5782
3149.17	0.5808
3159.19	0.5463
3169.21	0.4819
3179.23	0.4624
3189.26	0.4881
3199.28	0.5712
3209.3	0.6063
3219.32	0.6017
3229.34	0.5705
3239.36	0.5392
3249.38	0.5135
3259.41	0.5474
3269.43	0.6112
3279.45	0.6485
3289.47	0.6928
3299.49	0.7195
3309.51	0.7391
3319.53	0.7515
3329.55	0.7556
3339.58	0.7574
3349.6	0.7579
3359.62	0.7575
3369.64	0.7556
3379.66	0.7535
3389.68	0.751
3399.7	0.7471
3409.73	0.7443
3419.75	0.7424
3429.77	0.7413
3439.79	0.738
3449.81	0.7335
3459.83	0.7322
3469.85	0.7368
3479.87	0.7454
3489.9	0.748
3499.92	0.7495
3509.94	0.7504
3519.96	0.7513
3529.98	0.7544
3540	0.759
3550.02	0.7638
3560.05	0.768
3570.07	0.7719
3580.09	0.7759
3590.11	0.7785
3600.13	0.7806
3610.15	0.7827
3620.17	0.7829
3630.2	0.7831
3640.22	0.7838
3650.24	0.7844
3660.26	0.7849
3670.28	0.7853
3680.3	0.7854
3690.32	0.7855
3700.34	0.7856
3710.37	0.7858
3720.39	0.786
3730.41	0.786
3740.43	0.7858
3750.45	0.7856
3760.47	0.7858
3770.49	0.7861
3780.52	0.7864
3790.54	0.786
3800.56	0.7855
3810.58	0.7839
3820.6	0.7819
3830.62	0.7804
3840.64	0.7779
3850.66	0.7749
3860.69	0.7731
3870.71	0.7724
3880.73	0.7719
3890.75	0.77
3900.77	0.7684
3910.79	0.7674
3920.81	0.7674
3930.84	0.7668
3940.86	0.7655
3950.88	0.7642
3960.9	0.7629
3970.92	0.7614
3980.94	0.756
3990.96	0.7624
4000.99	0.7615
