Infrared Spectrum: Alpha-QUINOLYL-ETHANOL
Formula: C11 H11 N O
CAS: 1011-50-3
State: SOLID (1.0% IN KBr PELLET)
Class: COBLENTZ
Instrument: Not specified, most likely a prism, grating, or hybrid spectrometer.
Sampling: TRANSMISSION
Path length: 0.0355 CM THICK
Resolution: 4
Origin: ANDERSON PHYSICAL LABORATORY
1/CM	TRANSMITTANCE
666.875	0.543
675.313	0.543
683.75	0.55
692.188	0.558
700.625	0.591
709.063	0.561
717.5	0.517
725.938	0.497
734.375	0.508
742.813	0.508
751.25	0.441
759.688	0.1901
768.125	0.2229
776.563	0.4968
785	0.601
793.438	0.577
801.875	0.541
810.313	0.514
818.75	0.464
827.188	0.368
835.625	0.291
844.063	0.6566
852.5	0.842
860.938	0.829
869.375	0.738
877.813	0.785
886.25	0.769
894.688	0.748
903.125	0.79
911.563	0.773
920	0.736
928.438	0.745
936.875	0.736
945.313	0.717
953.75	0.5791
962.188	0.556
970.625	0.609
979.063	0.583
987.5	0.51
995.938	0.48
1004.38	0.423
1012.81	0.317
1021.25	0.41
1029.69	0.2581
1038.13	0.113
1046.56	0.106
1055	0.161
1063.44	0.251
1071.88	0.255
1080.31	0.251
1088.75	0.407
1097.19	0.64
1105.63	0.588
1114.06	0.537
1122.5	0.537
1130.94	0.441
1139.38	0.47
1147.81	0.591
1156.25	0.642
1164.69	0.75
1173.13	0.763
1181.56	0.747
1190	0.738
1198.44	0.696
1206.88	0.5801
1215.31	0.482
1223.75	0.502
1232.19	0.505
1240.63	0.531
1249.06	0.579
1257.5	0.627
1265.94	0.5651
1274.38	0.594
1282.81	0.661
1291.25	0.625
1299.69	0.526
1308.13	0.435
1316.56	0.368
1325	0.369
1333.44	0.381
1341.88	0.423
1350.31	0.559
1358.75	0.576
1367.19	0.57
1375.63	0.541
1384.06	0.513
1392.5	0.54
1400.94	0.591
1409.38	0.541
1417.81	0.474
1426.25	0.381
1434.69	0.363
1443.13	0.383
1451.56	0.547
1460	0.502
1468.44	0.438
1476.88	0.455
1485.31	0.529
1493.75	0.535
1502.19	0.525
1510.63	0.458
1519.06	0.5999
1527.5	0.7349
1535.94	0.75
1544.38	0.705
1552.81	0.643
1561.25	0.603
1569.69	0.558
1578.13	0.589
1586.56	0.637
1595	0.591
1603.44	0.2871
1611.88	0.3688
1620.31	0.633
1628.75	0.6599
1637.19	0.803
1645.63	0.808
1654.06	0.806
1662.5	0.806
1670.94	0.802
1679.38	0.799
1687.81	0.794
1696.25	0.785
1704.69	0.772
1713.13	0.77
1721.56	0.77
1730	0.773
1738.44	0.782
1746.88	0.796
1755.31	0.806
1763.75	0.802
1772.19	0.802
1780.63	0.796
1789.06	0.794
1797.5	0.79
1805.94	0.784
1814.38	0.781
1822.81	0.782
1831.25	0.781
1839.69	0.773
1848.13	0.773
1856.56	0.775
1865	0.776
1873.44	0.776
1881.88	0.77
1890.31	0.769
1898.75	0.764
1907.19	0.763
1915.63	0.755
1924.06	0.748
1932.5	0.736
1940.94	0.724
1949.38	0.72
1957.81	0.721
1966.25	0.715
1974.69	0.718
1983.13	0.735
1991.56	0.736
2000	0.733
2008.44	0.7353
2016.88	0.7355
2025.31	0.7297
2033.75	0.72
2042.19	0.717
2050.63	0.715
2059.06	0.714
2067.5	0.712
2075.94	0.7104
2084.38	0.708
2092.81	0.7064
2101.25	0.7019
2109.69	0.6983
2118.13	0.6964
2126.56	0.6943
2135	0.693
2143.44	0.6923
2151.88	0.6887
2160.31	0.6871
2168.75	0.6819
2177.19	0.679
2185.63	0.678
2194.06	0.6733
2202.5	0.6652
2210.94	0.6606
2219.38	0.6573
2227.81	0.6541
2236.25	0.6504
2244.69	0.6456
2253.13	0.6423
2261.56	0.6401
2270	0.6333
2278.44	0.6266
2286.88	0.6191
2295.31	0.6121
2303.75	0.606
2312.19	0.602
2320.63	0.6002
2329.06	0.597
2337.5	0.5962
2345.94	0.591
2354.38	0.5882
2362.81	0.588
2371.25	0.588
2379.69	0.5843
2388.13	0.583
2396.56	0.5796
2405	0.5664
2413.44	0.5644
2421.88	0.5612
2430.31	0.5578
2438.75	0.5539
2447.19	0.5483
2455.63	0.5371
2464.06	0.5247
2472.5	0.5212
2480.94	0.5177
2489.38	0.5142
2497.81	0.5125
2506.25	0.5068
2514.69	0.502
2523.13	0.4971
2531.56	0.4888
2540	0.4828
2548.44	0.4769
2556.88	0.4711
2565.31	0.467
2573.75	0.4636
2582.19	0.4568
2590.63	0.4521
2599.06	0.4485
2607.5	0.4345
2615.94	0.4267
2624.38	0.423
2632.81	0.4152
2641.25	0.4119
2649.69	0.4102
2658.13	0.405
2666.56	0.4041
2675	0.3999
2683.44	0.3936
2691.88	0.3858
2700.31	0.3767
2708.75	0.3685
2717.19	0.3571
2725.63	0.3509
2734.06	0.3476
2742.5	0.3396
2750.94	0.3239
2759.38	0.3166
2767.81	0.3033
2776.25	0.2812
2784.69	0.2667
2793.13	0.2404
2801.56	0.2266
2810	0.2213
2818.44	0.2064
2826.88	0.1963
2835.31	0.1891
2843.75	0.1849
2852.19	0.184
2860.63	0.1907
2869.06	0.2018
2877.5	0.2139
2885.94	0.2269
2894.38	0.2335
2902.81	0.237
2911.25	0.2418
2919.69	0.247
2928.13	0.251
2936.56	0.2637
2945	0.2777
2953.44	0.2872
2961.88	0.2979
2970.31	0.3072
2978.75	0.3136
2987.19	0.315
2995.63	0.3124
3004.06	0.3004
3012.5	0.2888
3020.94	0.2784
3029.38	0.2686
3037.81	0.2568
3046.25	0.2484
3054.69	0.2434
3063.13	0.2327
3071.56	0.2228
3080	0.22
3088.44	0.2174
3096.88	0.2026
3105.31	0.192
3113.75	0.1823
3122.19	0.1754
3130.63	0.172
3139.06	0.1676
3147.5	0.166
3155.94	0.166
3164.38	0.166
3172.81	0.164
3181.25	0.1611
3189.69	0.1573
3198.13	0.153
3206.56	0.152
3215	0.151
3223.44	0.149
3231.88	0.151
3240.31	0.152
3248.75	0.154
3257.19	0.154
3265.63	0.155
3274.06	0.155
3282.5	0.1551
3290.94	0.157
3299.38	0.157
3307.81	0.155
3316.25	0.154
3324.69	0.1517
3333.13	0.1498
3341.56	0.149
3350	0.148
3358.44	0.1472
3366.88	0.146
3375.31	0.1432
3383.75	0.143
3392.19	0.1462
3400.63	0.1487
3409.06	0.1549
3417.5	0.166
3425.94	0.1694
3434.38	0.17
3442.81	0.17
3451.25	0.172
3459.69	0.1725
3468.13	0.1896
3476.56	0.2146
3485	0.2493
3493.44	0.2977
3501.88	0.333
3510.31	0.362
3518.75	0.3765
3527.19	0.3956
3535.63	0.4118
3544.06	0.4232
3552.5	0.4364
3560.94	0.4465
3569.38	0.4568
3577.81	0.4653
3586.25	0.4769
3594.69	0.4922
3603.13	0.4996
3611.56	0.5001
3620	0.501
3628.44	0.501
3636.88	0.501
3645.31	0.501
3653.75	0.501
3662.19	0.502
3670.63	0.502
3679.06	0.501
3687.5	0.5006
3695.94	0.4987
3704.38	0.4971
3712.81	0.4907
3721.25	0.4886
3729.69	0.488
3738.13	0.488
3746.56	0.488
3755	0.486
3763.44	0.485
3771.88	0.4831
3780.31	0.4793
3788.75	0.475
3797.19	0.4703
3805.63	0.47
3814.06	0.468
3822.5	0.4675
3830.94	0.467
3839.38	0.4669
3847.81	0.4634
3856.25	0.459
3864.69	0.456
3873.13	0.455
3881.56	0.4544
3890	0.453
3898.44	0.453
3906.88	0.4518
3915.31	0.449
3923.75	0.447
3932.19	0.449
3940.63	0.447
3949.06	0.447
3957.5	0.447
3965.94	0.447
3974.38	0.446
3982.81	0.446
