Infrared Spectrum: 3-(4-CHLORO-2-METHYL PHENOXY)-1,2-PROPANEDIOL-BIS-(2,2-DICHLOROPROPIONATE)
Formula: C16 H17 Cl5 O5
CAS: 101292-50-6
State: SOLUTION (10% IN CCl4 FOR 5000-1350 CM^-^1, 10% IN CS2 FOR 1350-625 CM^-^1)
Class: COBLENTZ
Instrument: Not specified, most likely a prism, grating, or hybrid spectrometer.
Sampling: TRANSMISSION
Path length: 0.01 CM, 0.01 CM
Resolution: 4
Origin: DOW CHEMICAL COMPANY
MICROMETERS	TRANSMITTANCE
2.041	0.843
2.08013	0.841
2.11926	0.845
2.15839	0.846
2.19752	0.851
2.23665	0.85
2.27578	0.837
2.31491	0.843
2.35404	0.85
2.39317	0.853
2.4323	0.858
2.47143	0.856
2.51056	0.853
2.54969	0.858
2.58882	0.861
2.62795	0.861
2.66709	0.859
2.70622	0.859
2.74535	0.856
2.78448	0.858
2.82361	0.843
2.86274	0.835
2.90187	0.83
2.941	0.846
2.98013	0.848
3.01926	0.853
3.05839	0.854
3.09752	0.859
3.13665	0.859
3.17578	0.859
3.21491	0.853
3.25404	0.841
3.29317	0.833
3.3323	0.801
3.37143	0.716
3.41056	0.679
3.44969	0.758
3.48882	0.77
3.52795	0.833
3.56708	0.851
3.60621	0.856
3.64534	0.859
3.68447	0.862
3.7236	0.867
3.76273	0.869
3.80186	0.87
3.84099	0.87
3.88013	0.87
3.91926	0.869
3.95839	0.862
3.99752	0.862
4.03665	0.864
4.07578	0.869
4.11491	0.872
4.15404	0.869
4.19317	0.87
4.2323	0.864
4.27143	0.859
4.31056	0.859
4.34969	0.859
4.38882	0.861
4.42795	0.869
4.46708	0.874
4.50621	0.875
4.54534	0.879
4.58447	0.875
4.6236	0.872
4.66273	0.874
4.70186	0.872
4.74099	0.87
4.78012	0.87
4.81925	0.872
4.85838	0.869
4.89751	0.872
4.93664	0.867
4.97577	0.867
5.0149	0.869
5.05403	0.867
5.09317	0.87
5.1323	0.872
5.17143	0.872
5.21056	0.874
5.24969	0.87
5.28882	0.87
5.32795	0.869
5.36708	0.859
5.40621	0.85
5.44534	0.827
5.48447	0.82
5.5236	0.803
5.56273	0.753
5.60186	0.6
5.64099	0.295
5.68012	0.077
5.71925	0.085
5.75838	0.462
5.79751	0.696
5.83664	0.75
5.87577	0.787
5.9149	0.825
5.95403	0.838
5.99316	0.845
6.03229	0.85
6.07142	0.851
6.11055	0.848
6.14968	0.82
6.18881	0.79
6.22794	0.679
6.26708	0.609
6.30621	0.579
6.34534	0.567
6.38447	0.538
6.4236	0.467
6.46273	0.441
6.50186	0.504
6.54099	0.554
6.58012	0.562
6.61925	0.559
6.65838	0.403
6.69751	0.174
6.73664	0.435
6.77577	0.469
6.8149	0.475
6.85403	0.469
6.89316	0.445
6.93229	0.461
6.97142	0.638
7.01055	0.701
7.04968	0.708
7.08881	0.666
7.12794	0.582
7.16707	0.617
7.2062	0.495
7.24533	0.504
7.28446	0.738
7.32359	0.746
7.36272	0.748
7.40185	0.751
7.44098	0.735
7.48012	0.716
7.51925	0.67
7.55838	0.624
7.59751	0.591
7.63664	0.532
7.67577	0.445
7.7149	0.346
7.75403	0.308
7.79316	0.222
7.83229	0.159
7.87142	0.117
7.91055	0.112
7.94968	0.082
7.98881	0.041
8.02794	0.022
8.06707	0.043
8.1062	0.095
8.14533	0.206
8.18446	0.379
8.22359	0.506
8.26272	0.57
8.30185	0.577
8.34098	0.45
8.38011	0.174
8.41924	0.295
8.45837	0.498
8.4975	0.577
8.53663	0.596
8.57576	0.577
8.61489	0.548
8.65402	0.52
8.69316	0.467
8.73229	0.401
8.77142	0.306
8.81055	0.164
8.84968	0.061
8.88881	0.05
8.92794	0.07
8.96707	0.1
9.0062	0.159
9.04533	0.217
9.08446	0.232
9.12359	0.208
9.16272	0.159
9.20185	0.143
9.24098	0.172
9.28011	0.183
9.31924	0.193
9.35837	0.298
9.3975	0.391
9.43663	0.433
9.47576	0.44
9.51489	0.44
9.55402	0.44
9.59315	0.456
9.63228	0.504
9.67141	0.564
9.71054	0.62
9.74967	0.661
9.7888	0.687
9.82793	0.696
9.86706	0.695
9.9062	0.675
9.94533	0.641
9.98446	0.583
10.0236	0.54
10.0627	0.55
10.1018	0.6
10.141	0.638
10.1801	0.67
10.2192	0.693
10.2584	0.709
10.2975	0.716
10.3366	0.72
10.3758	0.725
10.4149	0.733
10.454	0.738
10.4932	0.737
10.5323	0.729
10.5714	0.711
10.6105	0.69
10.6497	0.68
10.6888	0.682
10.7279	0.691
10.7671	0.701
10.8062	0.709
10.8453	0.709
10.8845	0.708
10.9236	0.708
10.9627	0.708
11.0018	0.704
11.041	0.703
11.0801	0.7
11.1192	0.695
11.1584	0.682
11.1975	0.664
11.2366	0.624
11.2758	0.551
11.3149	0.487
11.354	0.477
11.3931	0.429
11.4323	0.341
11.4714	0.388
11.5105	0.474
11.5497	0.506
11.5888	0.514
11.6279	0.516
11.6671	0.517
11.7062	0.525
11.7453	0.537
11.7845	0.556
11.8236	0.582
11.8627	0.606
11.9018	0.625
11.941	0.643
11.9801	0.653
12.0192	0.659
12.0584	0.656
12.0975	0.646
12.1366	0.632
12.1758	0.616
12.2149	0.595
12.254	0.575
12.2931	0.55
12.3323	0.522
12.3714	0.48
12.4105	0.425
12.4497	0.343
12.4888	0.245
12.5279	0.224
12.5671	0.3
12.6062	0.35
12.6453	0.388
12.6844	0.409
12.7236	0.414
12.7627	0.427
12.8018	0.453
12.841	0.496
12.8801	0.532
12.9192	0.566
12.9584	0.587
12.9975	0.603
13.0366	0.62
13.0758	0.629
13.1149	0.635
13.154	0.637
13.1931	0.635
13.2323	0.633
13.2714	0.625
13.3105	0.616
13.3497	0.604
13.3888	0.588
13.4279	0.561
13.4671	0.537
13.5062	0.506
13.5453	0.483
13.5844	0.47
13.6236	0.461
13.6627	0.456
13.7018	0.454
13.741	0.459
13.7801	0.47
13.8192	0.485
13.8584	0.498
13.8975	0.516
13.9366	0.524
13.9757	0.53
14.0149	0.53
14.054	0.527
14.0931	0.517
14.1323	0.511
14.1714	0.501
14.2105	0.495
14.2497	0.485
14.2888	0.475
14.3279	0.464
14.3671	0.446
14.4062	0.435
14.4453	0.422
14.4844	0.406
14.5236	0.395
14.5627	0.38
14.6018	0.369
14.641	0.354
14.6801	0.337
14.7192	0.329
14.7584	0.314
14.7975	0.3
14.8366	0.282
14.8757	0.264
14.9149	0.24
14.954	0.201
14.9931	0.156
15.0323	0.13
15.0714	0.117
15.1105	0.116
15.1497	0.12
15.1888	0.132
15.2279	0.151
15.267	0.172
15.3062	0.191
15.3453	0.211
15.3844	0.232
15.4236	0.248
15.4627	0.256
15.5018	0.266
15.541	0.269
15.5801	0.275
15.6192	0.28
15.6584	0.288
15.6975	0.291
15.7366	0.291
15.7757	0.291
15.8149	0.291
15.854	0.291
15.8931	0.291
