Infrared Spectrum: p-Di-tert-butylbenzene
Formula: C14 H22
CAS: 1012-72-2
State: SOLUTION (10% CCl4 FOR 3800-1330, 10% CS2 FOR 1330-400 CM^-^1)
Class: COBLENTZ III
Instrument: DOW KBr FOREPRISM-GRATING
Instrument parameters: BLAZED AT 3.5, 12.0, 20.0 MICRON AND CHANGED AT 5.0, 7.5, 14.9 MICRON
Sampling: TRANSMISSION
Path length: 0.011 CM, 0.011 CM
Resolution: 2
Origin: DOW CHEMICAL COMPANY
1/CM	TRANSMITTANCE
393	0.3292
402	0.5565
411	0.7909
420	0.8668
429	0.9009
438	0.9227
447	0.9376
456	0.9538
465	0.9554
474	0.9539
483	0.9516
492	0.9483
501	0.9447
510	0.938
519	0.9333
528	0.9293
537	0.9287
546	0.9145
555	0.884
564	0.7829
573	0.0556
582	0.8222
591	0.915
600	0.9387
609	0.9423
618	0.9428
627	0.9335
636	0.9219
645	0.9111
654	0.9362
663	0.9416
672	0.947
681	0.9502
690	0.9448
699	0.9423
708	0.9378
717	0.9365
726	0.9367
735	0.9346
744	0.9309
753	0.928
762	0.9242
771	0.922
780	0.9162
789	0.9104
798	0.9011
807	0.8731
816	0.7944
825	0.2625
834	0.6385
843	0.8086
852	0.8517
861	0.8823
870	0.8957
879	0.9248
888	0.9396
897	0.9228
906	0.9041
915	0.852
924	0.8686
933	0.896
942	0.905
951	0.9107
960	0.9186
969	0.9232
978	0.9213
987	0.9169
996	0.8913
1005	0.7433
1014	0.6841
1023	0.8517
1032	0.9118
1041	0.9197
1050	0.9274
1059	0.9276
1068	0.9257
1077	0.9168
1086	0.9111
1095	0.9166
1104	0.9013
1113	0.8551
1122	0.5006
1131	0.618
1140	0.8858
1149	0.9082
1158	0.9127
1167	0.9078
1176	0.8933
1185	0.8458
1194	0.6601
1203	0.7558
1212	0.8733
1221	0.8503
1230	0.8501
1239	0.8754
1248	0.8373
1257	0.6993
1266	0.1483
1275	0.7686
1284	0.7684
1293	0.8929
1302	0.9037
1311	0.9012
1320	0.8922
1329	0.8844
1338	0.8719
1347	0.8196
1356	0.3904
1365	0.6057
1374	0.7898
1383	0.7528
1392	0.3688
1401	0.6264
1410	0.7464
1419	0.8264
1428	0.8159
1437	0.7588
1446	0.6989
1455	0.4911
1464	0.3243
1473	0.3716
1482	0.6352
1491	0.7188
1500	0.5709
1509	0.2814
1518	0.5761
1527	0.6384
1536	0.7162
1545	0.7456
1554	0.7843
1563	0.8406
1572	0.8447
1581	0.8565
1590	0.8765
1599	0.9154
1608	0.9391
1617	0.9269
1626	0.9244
1635	0.9275
1644	0.9162
1653	0.8786
1662	0.8868
1671	0.9182
1680	0.9225
1689	0.9224
1698	0.9263
1707	0.927
1716	0.9308
1725	0.93
1734	0.9288
1743	0.9263
1752	0.9198
1761	0.9087
1770	0.9032
1779	0.9044
1788	0.9101
1797	0.9271
1806	0.9315
1815	0.9329
1824	0.9303
1833	0.9288
1842	0.9282
1851	0.9258
1860	0.9222
1869	0.9176
1878	0.9112
1887	0.897
1896	0.868
1905	0.8898
1914	0.9304
1923	0.9341
1932	0.9346
1941	0.9376
1950	0.9357
1959	0.9338
1968	0.9318
1977	0.9295
1986	0.926
1995	0.8968
2004	0.9294
2013	0.9323
2022	0.9427
2031	0.9283
2040	0.9295
2049	0.9322
2058	0.9301
2067	0.9299
2076	0.9347
2085	0.9344
2094	0.9323
2103	0.9306
2112	0.9332
2121	0.9324
2130	0.9309
2139	0.9308
2148	0.9299
2157	0.9288
2166	0.9275
2175	0.9274
2184	0.9266
2193	0.9257
2202	0.9242
2211	0.9235
2220	0.9232
2229	0.9258
2238	0.9285
2247	0.9287
2256	0.9284
2265	0.9259
2274	0.9224
2283	0.9194
2292	0.9198
2301	0.9216
2310	0.9258
2319	0.926
2328	0.9222
2337	0.921
2346	0.924
2355	0.9221
2364	0.917
2373	0.9205
2382	0.9184
2391	0.9183
2400	0.9208
2409	0.9219
2418	0.9247
2427	0.9265
2436	0.9246
2445	0.9249
2454	0.9242
2463	0.925
2472	0.9257
2481	0.926
2490	0.9256
2499	0.9256
2508	0.9257
2517	0.9257
2526	0.9255
2535	0.925
2544	0.9239
2553	0.9208
2562	0.9182
2571	0.9226
2580	0.9244
2589	0.9228
2598	0.922
2607	0.9262
2616	0.9251
2625	0.9226
2634	0.9208
2643	0.918
2652	0.9178
2661	0.9173
2670	0.9208
2679	0.921
2688	0.9179
2697	0.9075
2706	0.8864
2715	0.8889
2724	0.9085
2733	0.9051
2742	0.8995
2751	0.9106
2760	0.9155
2769	0.9083
2778	0.897
2787	0.895
2796	0.8799
2805	0.8664
2814	0.8586
2823	0.8497
2832	0.8367
2841	0.8271
2850	0.778
2859	0.5037
2868	0.2073
2877	0.2644
2886	0.3548
2895	0.3579
2904	0.2442
2913	0.1893
2922	0.328
2931	0.2569
2940	0.1664
2949	0.1125
2958	0.0514
2967	0.0271
2976	0.0318
2985	0.2433
2994	0.5623
3003	0.587
3012	0.6949
3021	0.7478
3030	0.7193
3039	0.6753
3048	0.7171
3057	0.7008
3066	0.717
3075	0.7909
3084	0.7662
3093	0.7529
3102	0.7589
3111	0.8512
3120	0.8945
3129	0.899
3138	0.9042
3147	0.9146
3156	0.9199
3165	0.9223
3174	0.9212
3183	0.9173
3192	0.9156
3201	0.9156
3210	0.9186
3219	0.9216
3228	0.9242
3237	0.9256
3246	0.9269
3255	0.928
3264	0.929
3273	0.9307
3282	0.9333
3291	0.9348
3300	0.9373
3309	0.9403
3318	0.9409
3327	0.9426
3336	0.945
3345	0.9463
3354	0.9466
3363	0.9476
3372	0.9494
3381	0.9513
3390	0.9521
3399	0.9503
3408	0.9479
3417	0.9462
3426	0.9451
3435	0.9451
3444	0.9457
3453	0.9466
3462	0.9477
3471	0.948
3480	0.949
3489	0.9501
3498	0.9509
3507	0.9514
3516	0.9515
3525	0.9518
3534	0.9536
3543	0.9539
3552	0.9538
3561	0.9527
3570	0.9525
3579	0.9534
3588	0.9533
3597	0.9533
3606	0.9533
3615	0.9533
3624	0.9534
3633	0.9518
3642	0.9512
3651	0.9505
3660	0.9498
3669	0.9495
3678	0.9495
3687	0.9506
3696	0.9512
3705	0.9525
3714	0.9514
3723	0.9518
3732	0.9518
3741	0.9515
3750	0.9524
3759	0.9536
3768	0.9528
3777	0.9523
3786	0.9525
3795	0.952
3804	0.9528
3813	0.9513
