Infrared Spectrum: PHOSPHONIC ACID, (CARBAMOYLMETHYL)-, DIBENZYL ESTER
Formula: C16 H18 N O4 P
CAS: 101288-23-7
State: SOLID (0.4 mg / 650 KBr DISC)
Class: COBLENTZ III
Instrument: PERKIN-ELMER 21 (GRATING)
Instrument parameters: FILTER CHANGE AT ABOUT 1090 CM^-^1.
Sampling: TRANSMISSION
Resolution: 2
Origin: SOUTHERN RESEARCH INSTITUTE
1/CM	TRANSMITTANCE
610.806	0.843
619.139	0.84
627.473	0.8254
635.806	0.8112
644.139	0.7955
652.473	0.7719
660.806	0.7345
669.139	0.6998
677.473	0.679
685.806	0.6445
694.139	0.5646
702.473	0.3099
710.806	0.4946
719.139	0.4925
727.473	0.558
735.806	0.5413
744.139	0.323
752.473	0.4813
760.806	0.707
769.139	0.7901
777.473	0.806
785.806	0.796
794.139	0.7936
802.473	0.7809
810.806	0.7572
819.139	0.7365
827.473	0.716
835.806	0.6995
844.139	0.703
852.473	0.7447
860.806	0.7684
869.139	0.767
877.473	0.7139
885.806	0.5679
894.139	0.573
902.473	0.4238
910.806	0.6329
919.139	0.7332
927.473	0.6966
935.806	0.7489
944.139	0.7902
952.473	0.7724
960.806	0.7105
969.139	0.6084
977.473	0.5005
985.806	0.535
994.139	0.3879
1002.47	0.1814
1010.81	0.226
1019.14	0.262
1027.47	0.309
1035.81	0.3317
1044.14	0.353
1052.47	0.3882
1060.81	0.4693
1069.14	0.6046
1077.47	0.7017
1085.81	0.6934
1094.14	0.7016
1102.47	0.7704
1110.81	0.7984
1119.14	0.8084
1127.47	0.816
1135.81	0.8235
1144.14	0.831
1152.47	0.83
1160.81	0.8116
1169.14	0.808
1177.47	0.808
1185.81	0.7888
1194.14	0.793
1202.47	0.7751
1210.81	0.708
1219.14	0.6378
1227.47	0.5049
1235.81	0.3058
1244.14	0.26
1252.47	0.3511
1260.81	0.462
1269.14	0.6232
1277.47	0.7387
1285.81	0.7979
1294.14	0.825
1302.47	0.829
1310.81	0.827
1319.14	0.824
1327.47	0.8271
1335.81	0.81
1344.14	0.799
1352.47	0.7936
1360.81	0.7749
1369.14	0.7491
1377.47	0.7064
1385.81	0.5112
1394.14	0.5628
1402.47	0.7094
1410.81	0.7387
1419.14	0.7007
1427.47	0.6068
1435.81	0.6178
1444.14	0.735
1452.47	0.773
1460.81	0.7343
1469.14	0.6569
1477.47	0.7753
1485.81	0.832
1494.14	0.8233
1502.47	0.7851
1510.81	0.7946
1519.14	0.853
1527.47	0.864
1535.81	0.866
1544.14	0.857
1552.47	0.8497
1560.81	0.8404
1569.14	0.829
1577.47	0.818
1585.81	0.7978
1594.14	0.7582
1602.47	0.723
1610.81	0.6919
1619.14	0.6066
1627.47	0.4999
1635.81	0.3625
1644.14	0.293
1652.47	0.3216
1660.81	0.3275
1669.14	0.3591
1677.47	0.4897
1685.81	0.5802
1694.14	0.7156
1702.47	0.8279
1710.81	0.8453
1719.14	0.8662
1727.47	0.875
1735.81	0.883
1744.14	0.8878
1752.47	0.8938
1760.81	0.893
1769.14	0.894
1777.47	0.896
1785.81	0.8986
1794.14	0.902
1802.47	0.903
1810.81	0.905
1819.14	0.9084
1827.47	0.919
1835.81	0.919
1844.14	0.919
1852.47	0.9199
1860.81	0.922
1869.14	0.925
1877.47	0.9191
1885.81	0.915
1894.14	0.917
1902.47	0.9235
1910.81	0.922
1919.14	0.9197
1927.47	0.9232
1935.81	0.927
1944.14	0.927
1952.47	0.927
1960.81	0.9189
1969.14	0.913
1977.47	0.914
1985.81	0.92
1994.14	0.9298
2002.47	0.932
2010.81	0.9341
2019.14	0.933
2027.47	0.93
2035.81	0.93
2044.14	0.932
2052.47	0.932
2060.81	0.93
2069.14	0.928
2077.47	0.9342
2085.81	0.938
2094.14	0.939
2102.47	0.941
2110.81	0.9399
2119.14	0.9381
2127.47	0.944
2135.81	0.945
2144.14	0.946
2152.47	0.949
2160.81	0.947
2169.14	0.9451
2177.47	0.9511
2185.81	0.952
2194.14	0.952
2202.47	0.952
2210.81	0.949
2219.14	0.949
2227.47	0.95
2235.81	0.951
2244.14	0.951
2252.47	0.951
2260.81	0.951
2269.14	0.953
2277.47	0.954
2285.81	0.9561
2294.14	0.96
2302.47	0.965
2310.81	0.968
2319.14	0.969
2327.47	0.969
2335.81	0.97
2344.14	0.971
2352.47	0.971
2360.81	0.971
2369.14	0.971
2377.47	0.971
2385.81	0.9709
2394.14	0.966
2402.47	0.968
2410.81	0.9659
2419.14	0.9599
2427.47	0.9571
2435.81	0.957
2444.14	0.9621
2452.47	0.969
2460.81	0.968
2469.14	0.9659
2477.47	0.9639
2485.81	0.96
2494.14	0.958
2502.47	0.958
2510.81	0.959
2519.14	0.9579
2527.47	0.957
2535.81	0.9589
2544.14	0.963
2552.47	0.96
2560.81	0.965
2569.14	0.9641
2577.47	0.9641
2585.81	0.9691
2594.14	0.968
2602.47	0.9679
2610.81	0.96
2619.14	0.968
2627.47	0.963
2635.81	0.962
2644.14	0.957
2652.47	0.956
2660.81	0.956
2669.14	0.956
2677.47	0.957
2685.81	0.959
2694.14	0.953
2702.47	0.9499
2710.81	0.945
2719.14	0.946
2727.47	0.9449
2735.81	0.94
2744.14	0.941
2752.47	0.938
2760.81	0.934
2769.14	0.931
2777.47	0.9269
2785.81	0.921
2794.14	0.924
2802.47	0.928
2810.81	0.928
2819.14	0.928
2827.47	0.9269
2835.81	0.9199
2844.14	0.912
2852.47	0.9108
2860.81	0.89
2869.14	0.887
2877.47	0.8819
2885.81	0.868
2894.14	0.8588
2902.47	0.8359
2910.81	0.8411
2919.14	0.854
2927.47	0.855
2935.81	0.855
2944.14	0.855
2952.47	0.854
2960.81	0.8478
2969.14	0.8249
2977.47	0.8281
2985.81	0.8351
2994.14	0.861
3002.47	0.867
3010.81	0.8669
3019.14	0.8609
3027.47	0.854
3035.81	0.8449
3044.14	0.831
3052.47	0.829
3060.81	0.8289
3069.14	0.828
3077.47	0.828
3085.81	0.828
3094.14	0.8249
3102.47	0.8149
3110.81	0.808
3119.14	0.7978
3127.47	0.7609
3135.81	0.7204
3144.14	0.6673
3152.47	0.6197
3160.81	0.5729
3169.14	0.5649
3177.47	0.5651
3185.81	0.5814
3194.14	0.6073
3202.47	0.6313
3210.81	0.6581
3219.14	0.6741
3227.47	0.6932
3235.81	0.7001
3244.14	0.701
3252.47	0.701
3260.81	0.7
3269.14	0.697
3277.47	0.6817
3285.81	0.672
3294.14	0.6589
3302.47	0.6509
3310.81	0.6118
3319.14	0.5739
3327.47	0.5556
3335.81	0.5125
3344.14	0.4659
3352.47	0.4469
3360.81	0.4451
3369.14	0.4566
3377.47	0.4862
3385.81	0.5305
3394.14	0.5737
3402.47	0.6253
3410.81	0.6584
3419.14	0.6861
3427.47	0.7061
3435.81	0.714
3444.14	0.723
3452.47	0.738
3460.81	0.7461
3469.14	0.7581
3477.47	0.7641
3485.81	0.77
3494.14	0.774
3502.47	0.7872
3510.81	0.7961
3519.14	0.798
3527.47	0.8
3535.81	0.8051
3544.14	0.8121
3552.47	0.8211
3560.81	0.8322
3569.14	0.8382
3577.47	0.8501
3585.81	0.8631
3594.14	0.8681
3602.47	0.8761
3610.81	0.8851
3619.14	0.893
3627.47	0.902
3635.81	0.9131
3644.14	0.9222
3652.47	0.9309
3660.81	0.93
3669.14	0.931
3677.47	0.932
3685.81	0.9361
3694.14	0.9413
3702.47	0.9491
3710.81	0.949
3719.14	0.947
3727.47	0.949
3735.81	0.9561
3744.14	0.963
3752.47	0.964
3760.81	0.965
3769.14	0.965
3777.47	0.964
3785.81	0.96
3794.14	0.957
3802.47	0.9601
3810.81	0.965
3819.14	0.965
3827.47	0.9639
3835.81	0.9618
3844.14	0.962
3852.47	0.963
3860.81	0.963
3869.14	0.963
3877.47	0.963
3885.81	0.963
3894.14	0.965
3902.47	0.965
3910.81	0.966
