Infrared Spectrum: BENZOIC ACID, THIO-, S-2-AMINOETHYL ESTER, HYDROBROMIDE
Formula: C9 H12 Br N O S
CAS: 101259-49-8
State: SOLID (0.8 mg / 650 mg KBr DISC)
Class: COBLENTZ III
Instrument: PERKIN-ELMER 21 (GRATING)
Instrument parameters: FILTER CHANGE ABOUT 1020 CM^-^1
Sampling: TRANSMISSION
Resolution: 4
Origin: SOUTHERN RESEARCH INSTITUTE
1/CM	TRANSMITTANCE
601.247	0.639
609.889	0.6432
618.531	0.6341
627.173	0.6162
635.815	0.5627
644.457	0.4824
653.099	0.6516
661.741	0.6429
670.383	0.5923
679.025	0.4626
687.667	0.3133
696.309	0.4607
704.951	0.7234
713.593	0.73
722.235	0.725
730.877	0.719
739.519	0.7061
748.161	0.6908
756.803	0.6634
765.445	0.6136
774.087	0.5907
782.729	0.7837
791.371	0.7895
800.013	0.79
808.655	0.789
817.297	0.7867
825.939	0.7803
834.581	0.7678
843.223	0.7569
851.864	0.747
860.506	0.7201
869.148	0.7002
877.79	0.6675
886.432	0.6275
895.074	0.5437
903.716	0.3912
912.358	0.2295
921	0.2415
929.642	0.6134
938.284	0.7781
946.926	0.8013
955.568	0.802
964.21	0.802
972.852	0.801
981.494	0.8
990.136	0.7862
998.778	0.7665
1007.42	0.7566
1016.06	0.7522
1024.7	0.7777
1033.35	0.803
1041.99	0.8005
1050.63	0.7832
1059.27	0.7263
1067.91	0.6894
1076.56	0.7131
1085.2	0.7678
1093.84	0.7495
1102.48	0.718
1111.12	0.7
1119.77	0.5637
1128.41	0.5893
1137.05	0.7455
1145.69	0.7573
1154.33	0.7407
1162.98	0.7108
1171.62	0.6889
1180.26	0.579
1188.9	0.6573
1197.54	0.5815
1206.19	0.3034
1214.83	0.5703
1223.47	0.759
1232.11	0.787
1240.75	0.764
1249.4	0.7174
1258.04	0.73
1266.68	0.7672
1275.32	0.8017
1283.96	0.804
1292.61	0.803
1301.25	0.7925
1309.89	0.7586
1318.53	0.8034
1327.17	0.8017
1335.82	0.8022
1344.46	0.806
1353.1	0.8039
1361.74	0.802
1370.38	0.7891
1379.03	0.7861
1387.67	0.784
1396.31	0.7803
1404.95	0.766
1413.59	0.7524
1422.24	0.7455
1430.88	0.7261
1439.52	0.6984
1448.16	0.6258
1456.8	0.6293
1465.45	0.6732
1474.09	0.65
1482.73	0.6407
1491.37	0.575
1500.01	0.4912
1508.66	0.2983
1517.3	0.6961
1525.94	0.76
1534.58	0.737
1543.22	0.7004
1551.87	0.6638
1560.51	0.6081
1569.15	0.5847
1577.79	0.5667
1586.43	0.5888
1595.07	0.635
1603.72	0.6771
1612.36	0.6838
1621	0.6631
1629.64	0.6242
1638.28	0.6071
1646.93	0.5602
1655.57	0.382
1664.21	0.1629
1672.85	0.2566
1681.49	0.7531
1690.14	0.7993
1698.78	0.824
1707.42	0.823
1716.06	0.8412
1724.7	0.8367
1733.35	0.8409
1741.99	0.839
1750.63	0.8341
1759.27	0.8323
1767.91	0.8288
1776.56	0.83
1785.2	0.8293
1793.84	0.8268
1802.48	0.8183
1811.12	0.811
1819.77	0.81
1828.41	0.819
1837.05	0.8203
1845.69	0.825
1854.33	0.824
1862.98	0.8249
1871.62	0.829
1880.26	0.8261
1888.9	0.8231
1897.54	0.8208
1906.19	0.8237
1914.83	0.83
1923.47	0.831
1932.11	0.832
1940.75	0.8315
1949.4	0.8286
1958.04	0.8223
1966.68	0.824
1975.32	0.826
1983.96	0.828
1992.61	0.829
2001.25	0.829
2009.89	0.831
2018.53	0.828
2027.17	0.828
2035.82	0.829
2044.46	0.828
2053.1	0.823
2061.74	0.821
2070.38	0.823
2079.03	0.824
2087.67	0.821
2096.31	0.82
2104.95	0.821
2113.59	0.824
2122.24	0.821
2130.88	0.821
2139.52	0.819
2148.16	0.82
2156.8	0.82
2165.45	0.818
2174.09	0.814
2182.73	0.814
2191.37	0.814
2200.01	0.814
2208.66	0.814
2217.3	0.812
2225.94	0.809
2234.58	0.806
2243.22	0.806
2251.87	0.806
2260.51	0.807
2269.15	0.806
2277.79	0.806
2286.43	0.804
2295.08	0.801
2303.72	0.792
2312.36	0.789
2321	0.787
2329.64	0.789
2338.29	0.789
2346.93	0.789
2355.57	0.787
2364.21	0.786
2372.85	0.785
2381.5	0.779
2390.14	0.758
2398.78	0.75
2407.42	0.752
2416.06	0.767
2424.71	0.771
2433.35	0.771
2441.99	0.769
2450.63	0.765
2459.27	0.756
2467.92	0.751
2476.56	0.741
2485.2	0.741
2493.84	0.742
2502.48	0.745
2511.13	0.74
2519.77	0.736
2528.41	0.732
2537.05	0.73
2545.69	0.73
2554.34	0.726
2562.98	0.719
2571.62	0.708
2580.26	0.703
2588.9	0.701
2597.54	0.701
2606.19	0.701
2614.83	0.701
2623.47	0.697
2632.11	0.695
2640.75	0.691
2649.4	0.686
2658.04	0.68
2666.68	0.67
2675.32	0.669
2683.96	0.665
2692.61	0.656
2701.25	0.652
2709.89	0.641
2718.53	0.632
2727.17	0.626
2735.82	0.621
2744.46	0.614
2753.1	0.609
2761.74	0.602
2770.38	0.593
2779.03	0.582
2787.67	0.564
2796.31	0.556
2804.95	0.545
2813.59	0.528
2822.24	0.514
2830.88	0.497
2839.52	0.48
2848.16	0.471
2856.8	0.459
2865.45	0.451
2874.09	0.426
2882.73	0.407
2891.37	0.381
2900.01	0.365
2908.66	0.358
2917.3	0.358
2925.94	0.362
2934.58	0.36
2943.22	0.357
2951.87	0.351
2960.51	0.343
2969.15	0.335
2977.79	0.329
2986.43	0.324
2995.08	0.321
3003.72	0.323
3012.36	0.325
3021	0.329
3029.64	0.331
3038.29	0.336
3046.93	0.341
3055.57	0.348
3064.21	0.353
3072.85	0.36
3081.5	0.379
3090.14	0.395
3098.78	0.414
3107.42	0.426
3116.06	0.437
3124.71	0.446
3133.35	0.452
3141.99	0.456
3150.63	0.453
3159.27	0.457
3167.92	0.463
3176.56	0.473
3185.2	0.489
3193.84	0.509
3202.48	0.535
3211.13	0.569
3219.77	0.596
3228.41	0.615
3237.05	0.634
3245.69	0.646
3254.34	0.66
3262.98	0.671
3271.62	0.68
3280.26	0.686
3288.9	0.689
3297.55	0.689
3306.19	0.686
3314.83	0.684
3323.47	0.676
3332.11	0.674
3340.76	0.671
3349.4	0.665
3358.04	0.659
3366.68	0.654
3375.32	0.645
3383.97	0.636
3392.61	0.626
3401.25	0.614
3409.89	0.606
3418.53	0.6
3427.18	0.595
3435.82	0.59
3444.46	0.587
3453.1	0.587
3461.74	0.587
3470.39	0.587
3479.03	0.591
3487.67	0.593
3496.31	0.596
3504.95	0.601
3513.6	0.606
3522.24	0.61
3530.88	0.615
3539.52	0.623
3548.16	0.629
3556.81	0.636
3565.45	0.642
3574.09	0.65
3582.73	0.657
3591.37	0.665
3600.01	0.675
3608.66	0.681
3617.3	0.691
3625.94	0.697
3634.58	0.707
3643.22	0.714
3651.87	0.726
3660.51	0.731
3669.15	0.731
3677.79	0.731
3686.43	0.731
3695.08	0.731
3703.72	0.731
3712.36	0.731
3721	0.734
3729.64	0.739
3738.29	0.74
3746.93	0.74
3755.57	0.74
3764.21	0.739
3772.85	0.736
3781.5	0.736
3790.14	0.741
3798.78	0.75
3807.42	0.753
3816.06	0.75
3824.71	0.746
3833.35	0.741
3841.99	0.735
3850.63	0.73
3859.27	0.729
3867.92	0.728
3876.56	0.728
3885.2	0.728
3893.84	0.728
3902.48	0.726
3911.13	0.726
