Infrared Spectrum: Indol-2(3H)-one, 3-(2-benzylamino)ethyl-3-phenyl-, hydrochloride
Formula: C23 H23 Cl N2 O
CAS: 101231-37-2
State: SOLID (NUJOL MULL)
Class: COBLENTZ III
Instrument: PERKIN-ELMER 21 (GRATING)
Instrument parameters: FILTER AT ABOUT 10 MICRONS
Resolution: 2
Origin: ABBOTT LABORATORIES
1/CM	TRANSMITTANCE
656	0.4868
665	0.4196
674	0.4269
683	0.5219
692	0.3293
701	0.447
710	0.5618
719	0.5613
728	0.4445
737	0.2425
746	0.4972
755	0.3916
764	0.6075
773	0.6553
782	0.6244
791	0.7063
800	0.7278
809	0.7289
818	0.7304
827	0.7287
836	0.7136
845	0.7095
854	0.6739
863	0.6721
872	0.703
881	0.6946
890	0.6943
899	0.7031
908	0.6677
917	0.6631
926	0.6398
935	0.6511
944	0.6616
953	0.6626
962	0.6545
971	0.6347
980	0.6593
989	0.6599
998	0.6547
1007	0.6376
1016	0.6038
1025	0.5263
1034	0.5784
1043	0.5197
1052	0.6176
1061	0.6144
1070	0.6239
1079	0.6398
1088	0.6625
1097	0.6047
1106	0.5399
1115	0.5985
1124	0.6522
1133	0.6338
1142	0.5877
1151	0.5571
1160	0.4804
1169	0.5612
1178	0.4921
1187	0.4084
1196	0.4551
1205	0.4758
1214	0.6009
1223	0.5969
1232	0.5884
1241	0.5389
1250	0.5438
1259	0.5477
1268	0.4718
1277	0.4726
1286	0.5186
1295	0.5195
1304	0.4601
1313	0.3564
1322	0.4532
1331	0.5148
1340	0.5167
1349	0.4807
1358	0.319
1367	0.2449
1376	0.3467
1385	0.4486
1394	0.5701
1403	0.5639
1412	0.5375
1421	0.4666
1430	0.2407
1439	0.1556
1448	0.1156
1457	0.1004
1466	0.1979
1475	0.2682
1484	0.4656
1493	0.5104
1502	0.6199
1511	0.6196
1520	0.6132
1529	0.6004
1538	0.582
1547	0.5596
1556	0.5106
1565	0.455
1574	0.304
1583	0.4212
1592	0.4586
1601	0.4289
1610	0.3694
1619	0.5091
1628	0.5856
1637	0.5691
1646	0.5452
1655	0.5187
1664	0.4865
1673	0.4478
1682	0.3912
1691	0.28
1700	0.1597
1709	0.1091
1718	0.1687
1727	0.4354
1736	0.6231
1745	0.6714
1754	0.687
1763	0.6925
1772	0.6936
1781	0.6919
1790	0.6873
1799	0.6814
1808	0.6757
1817	0.673
1826	0.672
1835	0.6719
1844	0.6722
1853	0.6692
1862	0.6642
1871	0.6577
1880	0.6522
1889	0.6526
1898	0.6559
1907	0.6589
1916	0.6608
1925	0.6554
1934	0.6497
1943	0.652
1952	0.6541
1961	0.651
1970	0.6479
1979	0.6448
1988	0.6422
1997	0.6397
2006	0.6371
2015	0.6344
2024	0.6315
2033	0.628
2042	0.6246
2051	0.6215
2060	0.6189
2069	0.6181
2078	0.6174
2087	0.6163
2096	0.6138
2105	0.6105
2114	0.607
2123	0.6036
2132	0.5996
2141	0.5957
2150	0.5914
2159	0.587
2168	0.5827
2177	0.5788
2186	0.5769
2195	0.5762
2204	0.5747
2213	0.5726
2222	0.5689
2231	0.5644
2240	0.5593
2249	0.5543
2258	0.5501
2267	0.546
2276	0.5405
2285	0.5331
2294	0.5257
2303	0.5181
2312	0.5113
2321	0.5088
2330	0.5064
2339	0.5043
2348	0.5022
2357	0.499
2366	0.4954
2375	0.4919
2384	0.4855
2393	0.476
2402	0.4659
2411	0.455
2420	0.4529
2429	0.4517
2438	0.4513
2447	0.4512
2456	0.451
2465	0.4484
2474	0.4426
2483	0.4323
2492	0.4201
2501	0.408
2510	0.3981
2519	0.3915
2528	0.3858
2537	0.3799
2546	0.3734
2555	0.3659
2564	0.3575
2573	0.3461
2582	0.3323
2591	0.3162
2600	0.2967
2609	0.2797
2618	0.267
2627	0.2582
2636	0.2511
2645	0.2366
2654	0.2231
2663	0.2118
2672	0.2029
2681	0.196
2690	0.1892
2699	0.1835
2708	0.1791
2717	0.1748
2726	0.1674
2735	0.1578
2744	0.1525
2753	0.15
2762	0.1489
2771	0.1479
2780	0.1465
2789	0.145
2798	0.1375
2807	0.097
2816	0.0509
2825	0.0337
2834	0.0201
2843	0.0143
2852	0.0128
2861	0.0121
2870	0.0121
2879	0.0121
2888	0.013
2897	0.0156
2906	0.0228
2915	0.0329
2924	0.0646
2933	0.0762
2942	0.0818
2951	0.0885
2960	0.1241
2969	0.1858
2978	0.2457
2987	0.2901
2996	0.3091
3005	0.3221
3014	0.3314
3023	0.3355
3032	0.3395
3041	0.3441
3050	0.376
3059	0.3845
3068	0.3872
3077	0.3858
3086	0.385
3095	0.3832
3104	0.377
3113	0.3684
3122	0.3565
3131	0.346
3140	0.3357
3149	0.3256
3158	0.3154
3167	0.303
3176	0.2882
3185	0.2817
3194	0.2816
3203	0.2825
3212	0.2856
3221	0.2914
3230	0.2994
3239	0.309
3248	0.3185
3257	0.3279
3266	0.3575
3275	0.3786
3284	0.3905
3293	0.3999
3302	0.4093
3311	0.4176
3320	0.4232
3329	0.4251
3338	0.4258
3347	0.4257
3356	0.4256
3365	0.4255
3374	0.4258
3383	0.4251
3392	0.4249
3401	0.4246
3410	0.4243
3419	0.4239
3428	0.4236
3437	0.4231
3446	0.4225
3455	0.4218
3464	0.4213
3473	0.4206
3482	0.4198
3491	0.4186
3500	0.4174
3509	0.4162
3518	0.415
3527	0.4137
3536	0.4126
3545	0.4114
3554	0.4098
3563	0.4082
3572	0.4066
3581	0.4051
3590	0.4035
3599	0.4019
3608	0.4004
3617	0.3988
3626	0.3973
3635	0.3957
3644	0.3942
3653	0.3927
3662	0.3912
3671	0.3897
3680	0.3881
3689	0.3866
3698	0.3851
3707	0.3836
3716	0.3821
3725	0.3807
3734	0.3792
3743	0.3778
3752	0.3759
3761	0.3741
3770	0.3723
3779	0.3705
3788	0.3687
3797	0.3669
3806	0.3651
3815	0.3633
3824	0.3616
3833	0.3598
3842	0.358
3851	0.3563
3860	0.3546
3869	0.3527
3878	0.3509
3887	0.3492
3896	0.3475
3905	0.3457
3914	0.3439
3923	0.3422
3932	0.3404
3941	0.3388
3950	0.337
3959	0.3353
3968	0.3335
3977	0.3316
3986	0.3299
3995	0.3281
