Infrared Spectrum: Purine, 6-Dimethylamino-2-methylamino-
Formula: C8 H12 N6
CAS: 101251-43-8
State: SOLID (0.5 mg / 650 mg KBr DISC)
Class: COBLENTZ III
Instrument: PERKIN-ELMER 21 (GRATING)
Instrument parameters: FILTER CHANGE ABOUT 1075 CM^-^1
Sampling: TRANSMISSION
Resolution: 2
Origin: SOUTHERN RESEARCH INSTITUTE
1/CM	TRANSMITTANCE
612.12	0.9979
621.16	0.8305
630.199	0.9604
639.239	0.9938
648.278	0.9947
657.318	0.9948
666.357	0.9945
675.397	0.9935
684.436	0.9781
693.476	0.9548
702.515	0.924
711.555	0.8986
720.594	0.9006
729.634	0.8687
738.673	0.8751
747.713	0.8665
756.752	0.8458
765.792	0.813
774.831	0.716
783.871	0.6821
792.911	0.7638
801.95	0.7196
810.99	0.6456
820.029	0.5248
829.069	0.7048
838.108	0.7796
847.148	0.7989
856.187	0.8031
865.227	0.803
874.266	0.7962
883.306	0.7864
892.345	0.795
901.385	0.7936
910.424	0.7761
919.464	0.7292
928.503	0.4161
937.543	0.6615
946.583	0.8028
955.622	0.8113
964.662	0.8104
973.701	0.8063
982.741	0.7828
991.78	0.7524
1000.82	0.7926
1009.86	0.8079
1018.9	0.803
1027.94	0.7936
1036.98	0.7845
1046.02	0.7762
1055.06	0.7661
1064.1	0.7386
1073.14	0.683
1082.18	0.4968
1091.21	0.1945
1100.25	0.6171
1109.29	0.746
1118.33	0.75
1127.37	0.6883
1136.41	0.7791
1145.45	0.773
1154.49	0.7639
1163.53	0.7632
1172.57	0.7898
1181.61	0.774
1190.65	0.6914
1199.69	0.7343
1208.73	0.7944
1217.77	0.7874
1226.81	0.7786
1235.85	0.7657
1244.89	0.7152
1253.93	0.647
1262.97	0.5956
1272.01	0.5817
1281.05	0.6663
1290.08	0.7389
1299.12	0.742
1308.16	0.7201
1317.2	0.6904
1326.24	0.599
1335.28	0.4411
1344.32	0.6454
1353.36	0.6486
1362.4	0.5666
1371.44	0.3752
1380.48	0.4892
1389.52	0.4177
1398.56	0.1856
1407.6	0.2795
1416.64	0.3291
1425.68	0.37
1434.72	0.5009
1443.76	0.5353
1452.8	0.6153
1461.84	0.6322
1470.88	0.633
1479.91	0.6074
1488.95	0.5261
1497.99	0.3633
1507.03	0.171
1516.07	0.1184
1525.11	0.2886
1534.15	0.3744
1543.19	0.3062
1552.23	0.1914
1561.27	0.1594
1570.31	0.1168
1579.35	0.0081
1588.39	0.0212
1597.43	0.1484
1606.47	0.1522
1615.51	0.0904
1624.55	0.1625
1633.59	0.359
1642.63	0.5396
1651.67	0.6366
1660.71	0.6889
1669.74	0.7507
1678.78	0.7845
1687.82	0.8123
1696.86	0.8199
1705.9	0.8373
1714.94	0.8462
1723.98	0.8574
1733.02	0.862
1742.06	0.8704
1751.1	0.8783
1760.14	0.887
1769.18	0.8972
1778.22	0.9056
1787.26	0.9062
1796.3	0.9067
1805.34	0.9073
1814.38	0.9073
1823.42	0.9079
1832.46	0.9167
1841.5	0.919
1850.54	0.9177
1859.57	0.9162
1868.61	0.9156
1877.65	0.9156
1886.69	0.9158
1895.73	0.9161
1904.77	0.9158
1913.81	0.9133
1922.85	0.9106
1931.89	0.9094
1940.93	0.9083
1949.97	0.9077
1959.01	0.9074
1968.05	0.9071
1977.09	0.9068
1986.13	0.9066
1995.17	0.9067
2004.21	0.9067
2013.25	0.9068
2022.29	0.9065
2031.33	0.9061
2040.37	0.9058
2049.4	0.9054
2058.44	0.9049
2067.48	0.9045
2076.52	0.904
2085.56	0.9033
2094.6	0.9025
2103.64	0.9018
2112.68	0.9009
2121.72	0.8998
2130.76	0.8985
2139.8	0.8972
2148.84	0.8959
2157.88	0.8947
2166.92	0.8942
2175.96	0.8946
2185	0.8942
2194.04	0.893
2203.08	0.8922
2212.12	0.8915
2221.16	0.891
2230.2	0.8898
2239.23	0.8861
2248.27	0.8829
2257.31	0.8799
2266.35	0.8773
2275.39	0.8746
2284.43	0.8716
2293.47	0.8686
2302.51	0.8656
2311.55	0.862
2320.59	0.8585
2329.63	0.8568
2338.67	0.8566
2347.71	0.8565
2356.75	0.8563
2365.79	0.8569
2374.83	0.8578
2383.87	0.8589
2392.91	0.8567
2401.95	0.8524
2410.99	0.8469
2420.03	0.8425
2429.07	0.8387
2438.1	0.8353
2447.14	0.8322
2456.18	0.829
2465.22	0.826
2474.26	0.8228
2483.3	0.8193
2492.34	0.8156
2501.38	0.8098
2510.42	0.8015
2519.46	0.7928
2528.5	0.7843
2537.54	0.776
2546.58	0.7693
2555.62	0.7706
2564.66	0.7718
2573.7	0.7706
2582.74	0.7652
2591.78	0.7579
2600.82	0.7496
2609.86	0.7412
2618.9	0.7388
2627.93	0.7376
2636.97	0.7324
2646.01	0.7249
2655.05	0.7154
2664.09	0.703
2673.13	0.6892
2682.17	0.6739
2691.21	0.6564
2700.25	0.6502
2709.29	0.6483
2718.33	0.6474
2727.37	0.6467
2736.41	0.6442
2745.45	0.6377
2754.49	0.6163
2763.53	0.5898
2772.57	0.5527
2781.61	0.5145
2790.65	0.4796
2799.69	0.4634
2808.73	0.4577
2817.76	0.4592
2826.8	0.468
2835.84	0.4837
2844.88	0.4939
2853.92	0.497
2862.96	0.4968
2872	0.4946
2881.04	0.4908
2890.08	0.4862
2899.12	0.4812
2908.16	0.4807
2917.2	0.4845
2926.24	0.4953
2935.28	0.5095
2944.32	0.5104
2953.36	0.5106
2962.4	0.509
2971.44	0.5052
2980.48	0.508
2989.52	0.5137
2998.56	0.5229
3007.59	0.5423
3016.63	0.573
3025.67	0.5861
3034.71	0.5837
3043.75	0.5788
3052.79	0.5722
3061.83	0.5462
3070.87	0.5313
3079.91	0.5268
3088.95	0.5264
3097.99	0.5288
3107.03	0.5328
3116.07	0.5412
3125.11	0.563
3134.15	0.6116
3143.19	0.6421
3152.23	0.6596
3161.27	0.6768
3170.31	0.6839
3179.35	0.6886
3188.39	0.6914
3197.42	0.6941
3206.46	0.6965
3215.5	0.6984
3224.54	0.7044
3233.58	0.7139
3242.62	0.7256
3251.66	0.7345
3260.7	0.7349
3269.74	0.7322
3278.78	0.7283
3287.82	0.7232
3296.86	0.7181
3305.9	0.7123
3314.94	0.7044
3323.98	0.6926
3333.02	0.6783
3342.06	0.6621
3351.1	0.6455
3360.14	0.6268
3369.18	0.6089
3378.22	0.5821
3387.26	0.5531
3396.29	0.5253
3405.33	0.4796
3414.37	0.429
3423.41	0.4101
3432.45	0.4379
3441.49	0.5104
3450.53	0.5544
3459.57	0.5859
3468.61	0.6025
3477.65	0.6156
3486.69	0.6271
3495.73	0.6368
3504.77	0.6459
3513.81	0.6545
3522.85	0.665
3531.89	0.6762
3540.93	0.688
3549.97	0.6998
3559.01	0.7115
3568.05	0.7246
3577.09	0.7409
3586.12	0.7547
3595.16	0.7671
3604.2	0.7788
3613.24	0.7894
3622.28	0.7968
3631.32	0.8065
3640.36	0.8173
3649.4	0.8276
3658.44	0.8365
3667.48	0.8403
3676.52	0.8419
3685.56	0.8432
3694.6	0.8443
3703.64	0.8453
3712.68	0.8465
3721.72	0.8507
3730.76	0.8523
3739.8	0.8529
3748.84	0.853
3757.88	0.8527
3766.92	0.8526
3775.95	0.8526
3784.99	0.8526
3794.03	0.8526
3803.07	0.8525
3812.11	0.8509
3821.15	0.8501
3830.19	0.8497
3839.23	0.8495
3848.27	0.8494
3857.31	0.8489
3866.35	0.8482
3875.39	0.8474
3884.43	0.8465
3893.47	0.8466
3902.51	0.8469
3911.55	0.8479
3920.59	0.849
3929.63	0.8502
3938.67	0.8501
3947.71	0.8492
3956.75	0.8476
3965.78	0.8467
3974.82	0.8461
3983.86	0.8462
3992.9	0.8467
4001.94	0.8473
4010.98	0.8479
