Infrared Spectrum: 1-HYDROXY-2-(N-n-AMYL) NAPHTHAMIDE
Formula: C16 H19 N O2
CAS: 101287-05-2
State: SOLID (KBr PRESSING)
Melting point: 58-60 C
Class: COBLENTZ
Instrument: Not specified, most likely a prism, grating, or hybrid spectrometer.
Sampling: TRANSMISSION
Resolution: 4
Origin: EASTMAN KODAK COMPANY, RESEARCH LABORATORIES, ROCHESTER, N.Y.
MICROMETERS	TRANSMITTANCE
2.04	0.533
2.07502	0.533
2.11005	0.54
2.14507	0.558
2.18009	0.561
2.21511	0.565
2.25014	0.566
2.28516	0.577
2.32018	0.58
2.35521	0.589
2.39023	0.601
2.42525	0.61
2.46027	0.617
2.4953	0.626
2.53032	0.627
2.56534	0.633
2.60037	0.65
2.63539	0.666
2.67041	0.674
2.70544	0.688
2.74046	0.688
2.77548	0.68
2.8105	0.66
2.84553	0.629
2.88055	0.582
2.91557	0.443
2.9506	0.346
2.98562	0.2
3.02064	0.513
3.05566	0.593
3.09069	0.627
3.12571	0.634
3.16073	0.638
3.19576	0.646
3.23078	0.653
3.2658	0.631
3.30082	0.502
3.33585	0.532
3.37087	0.419
3.40589	0.206
3.44092	0.266
3.47594	0.339
3.51096	0.302
3.54598	0.48
3.58101	0.53
3.61603	0.551
3.65105	0.556
3.68608	0.56
3.7211	0.56
3.75612	0.563
3.79115	0.577
3.82617	0.601
3.86119	0.62
3.89621	0.652
3.93124	0.686
3.96626	0.699
4.00128	0.713
4.03631	0.73
4.07133	0.739
4.10635	0.744
4.14137	0.763
4.1764	0.773
4.21142	0.78
4.24644	0.791
4.28147	0.8
4.31649	0.813
4.35151	0.813
4.38653	0.81
4.42156	0.819
4.45658	0.815
4.4916	0.822
4.52663	0.833
4.56165	0.841
4.59667	0.846
4.63169	0.848
4.66672	0.852
4.70174	0.853
4.73676	0.857
4.77179	0.859
4.80681	0.866
4.84183	0.867
4.87685	0.881
4.91188	0.89
4.9469	0.897
4.98192	0.911
5.01695	0.914
5.05197	0.913
5.08699	0.906
5.12202	0.883
5.15704	0.892
5.19206	0.893
5.22708	0.899
5.26211	0.904
5.29713	0.902
5.33215	0.909
5.36718	0.923
5.4022	0.94
5.43722	0.921
5.47224	0.932
5.50727	0.92
5.54229	0.918
5.57731	0.93
5.61234	0.93
5.64736	0.9
5.68238	0.893
5.7174	0.871
5.75243	0.873
5.78745	0.859
5.82247	0.836
5.8575	0.836
5.89252	0.852
5.92754	0.878
5.96256	0.862
5.99759	0.85
6.03261	0.805
6.06763	0.728
6.10266	0.523
6.13768	0.26
6.1727	0.153
6.20773	0.086
6.24275	0.102
6.27777	0.059
6.31279	0.1
6.34782	0.153
6.38284	0.314
6.41786	0.325
6.45289	0.158
6.48791	0.057
6.52293	0.073
6.55795	0.1
6.59298	0.193
6.628	0.42
6.66302	0.25
6.69805	0.198
6.73307	0.429
6.76809	0.563
6.80311	0.476
6.83814	0.201
6.87316	0.266
6.90818	0.391
6.94321	0.572
6.97823	0.553
7.01325	0.589
7.04827	0.577
7.0833	0.313
7.11832	0.189
7.15334	0.335
7.18837	0.224
7.22339	0.292
7.25841	0.422
7.29344	0.431
7.32846	0.431
7.36348	0.358
7.3985	0.226
7.43353	0.332
7.46855	0.335
7.50357	0.339
7.5386	0.398
7.57362	0.483
7.60864	0.382
7.64366	0.297
7.67869	0.285
7.71371	0.286
7.74873	0.142
7.78376	0.125
7.81878	0.151
7.8538	0.177
7.88882	0.193
7.92385	0.412
7.95887	0.401
7.99389	0.413
8.02892	0.511
8.06394	0.506
8.09896	0.502
8.13398	0.573
8.16901	0.624
8.20403	0.627
8.23905	0.488
8.27408	0.372
8.3091	0.408
8.34412	0.596
8.37915	0.659
8.41417	0.686
8.44919	0.666
8.48421	0.516
8.51924	0.506
8.55426	0.659
8.58928	0.704
8.62431	0.535
8.65933	0.403
8.69435	0.473
8.72937	0.478
8.7644	0.591
8.79942	0.709
8.83444	0.737
8.86947	0.747
8.90449	0.779
8.93951	0.808
8.97453	0.813
9.00956	0.817
9.04458	0.815
9.0796	0.761
9.11463	0.643
9.14965	0.673
9.18467	0.76
9.21969	0.793
9.25472	0.796
9.28974	0.784
9.32476	0.77
9.35979	0.779
9.39481	0.803
9.42983	0.831
9.46485	0.852
9.49988	0.853
9.5349	0.831
9.56992	0.765
9.60495	0.791
9.63997	0.843
9.67499	0.864
9.71002	0.857
9.74504	0.683
9.78006	0.617
9.81508	0.723
9.85011	0.831
9.88513	0.857
9.92015	0.866
9.95518	0.857
9.9902	0.843
10.0252	0.836
10.0602	0.84
10.0953	0.853
10.1303	0.862
10.1653	0.857
10.2003	0.843
10.2354	0.862
10.2704	0.862
10.3054	0.848
10.3404	0.815
10.3755	0.805
10.4105	0.773
10.4455	0.753
10.4805	0.803
10.5155	0.808
10.5506	0.801
10.5856	0.779
10.6206	0.754
10.6556	0.753
10.6907	0.744
10.7257	0.728
10.7607	0.699
10.7957	0.622
10.8307	0.514
10.8658	0.396
10.9008	0.326
10.9358	0.321
10.9708	0.335
11.0059	0.401
11.0409	0.502
11.0759	0.589
11.1109	0.65
11.146	0.702
11.181	0.718
11.216	0.742
11.251	0.766
11.286	0.786
11.3211	0.787
11.3561	0.751
11.3911	0.725
11.4261	0.7
11.4612	0.681
11.4962	0.664
11.5312	0.709
11.5662	0.773
11.6013	0.787
11.6363	0.78
11.6713	0.775
11.7063	0.765
11.7413	0.746
11.7764	0.723
11.8114	0.702
11.8464	0.674
11.8814	0.631
11.9165	0.587
11.9515	0.563
11.9865	0.579
12.0215	0.636
12.0565	0.709
12.0916	0.772
12.1266	0.794
12.1616	0.739
12.1966	0.415
12.2317	0.208
12.2667	0.231
12.3017	0.259
12.3367	0.316
12.3718	0.422
12.4068	0.523
12.4418	0.568
12.4768	0.528
12.5118	0.349
12.5469	0.208
12.5819	0.132
12.6169	0.3
12.6519	0.565
12.687	0.692
12.722	0.749
12.757	0.789
12.792	0.803
12.8271	0.798
12.8621	0.784
12.8971	0.751
12.9321	0.646
12.9671	0.48
13.0022	0.201
13.0372	0.126
13.0722	0.107
13.1072	0.193
13.1423	0.514
13.1773	0.652
13.2123	0.72
13.2473	0.756
13.2824	0.777
13.3174	0.812
13.3524	0.843
13.3874	0.855
13.4224	0.862
13.4575	0.855
13.4925	0.82
13.5275	0.754
13.5625	0.709
13.5976	0.707
13.6326	0.702
13.6676	0.678
13.7026	0.688
13.7376	0.702
13.7727	0.645
13.8077	0.549
13.8427	0.525
13.8777	0.657
13.9128	0.768
13.9478	0.827
13.9828	0.853
14.0178	0.88
14.0529	0.888
14.0879	0.9
14.1229	0.907
14.1579	0.907
14.1929	0.907
14.228	0.907
14.263	0.906
14.298	0.9
14.333	0.897
14.3681	0.907
14.4031	0.921
14.4381	0.933
14.4731	0.944
14.5082	0.944
14.5432	0.939
14.5782	0.937
14.6132	0.935
14.6482	0.935
14.6833	0.928
14.7183	0.928
14.7533	0.928
14.7883	0.923
14.8234	0.907
14.8584	0.895
14.8934	0.874
14.9284	0.866
14.9635	0.836
14.9985	0.753
15.0335	0.681
15.0685	0.643
15.1035	0.638
15.1386	0.666
15.1736	0.714
15.2086	0.756
15.2436	0.8
15.2787	0.838
15.3137	0.859
15.3487	0.866
15.3837	0.876
15.4187	0.876
15.4538	0.876
15.4888	0.876
15.5238	0.876
15.5588	0.876
15.5939	0.862
15.6289	0.857
15.6639	0.848
15.6989	0.838
15.734	0.827
15.769	0.817
15.804	0.805
