Infrared Spectrum: Alpha-STEAROYL STEARIC ACID, METHYL ESTER
Formula: C37 H72 O3
CAS: 10126-69-9
State: SOLID
Class: COBLENTZ
Instrument: PERKIN-ELMER
Sampling: TRANSMISSION
Path length: FILM
Resolution: 4
Origin: HORMEL INSTITUTE
MICROMETERS	TRANSMITTANCE
2.034	0.803
2.06782	0.806
2.10164	0.809
2.13546	0.818
2.16927	0.821
2.20309	0.823
2.23691	0.818
2.27073	0.791
2.30455	0.712
2.33837	0.739
2.37219	0.737
2.406	0.735
2.43982	0.754
2.47364	0.787
2.50746	0.806
2.54128	0.811
2.5751	0.816
2.60892	0.821
2.64273	0.826
2.67655	0.831
2.71037	0.836
2.74419	0.833
2.77801	0.826
2.81183	0.84
2.84565	0.845
2.87946	0.838
2.91328	0.821
2.9471	0.811
2.98092	0.824
3.01474	0.828
3.04856	0.824
3.08238	0.818
3.11619	0.804
3.15001	0.794
3.18383	0.784
3.21765	0.759
3.25147	0.7
3.28529	0.636
3.31911	0.575
3.35292	0.287
3.38674	0.062
3.42056	0.016
3.45438	0.01
3.4882	0.016
3.52202	0.021
3.55584	0.392
3.58965	0.595
3.62347	0.702
3.65729	0.727
3.69111	0.767
3.72493	0.781
3.75875	0.771
3.79257	0.772
3.82638	0.808
3.8602	0.838
3.89402	0.856
3.92784	0.877
3.96166	0.885
3.99548	0.895
4.0293	0.898
4.06311	0.909
4.09693	0.91
4.13075	0.909
4.16457	0.907
4.19839	0.912
4.23221	0.91
4.26603	0.905
4.29984	0.898
4.33366	0.895
4.36748	0.898
4.4013	0.909
4.43512	0.912
4.46894	0.919
4.50276	0.924
4.53658	0.922
4.57039	0.922
4.60421	0.922
4.63803	0.919
4.67185	0.924
4.70567	0.925
4.73949	0.927
4.77331	0.925
4.80712	0.924
4.84094	0.92
4.87476	0.914
4.90858	0.909
4.9424	0.9
4.97622	0.915
5.01004	0.925
5.04385	0.924
5.07767	0.925
5.11149	0.92
5.14531	0.92
5.17913	0.917
5.21295	0.917
5.24677	0.91
5.28058	0.91
5.3144	0.915
5.34822	0.917
5.38204	0.912
5.41586	0.909
5.44968	0.9
5.4835	0.887
5.51731	0.868
5.55113	0.848
5.58495	0.796
5.61877	0.688
5.65259	0.468
5.68641	0.25
5.72023	0.122
5.75404	0.082
5.78786	0.084
5.82168	0.021
5.8555	0.06
5.88932	0.42
5.92314	0.558
5.95696	0.609
5.99077	0.599
6.02459	0.611
6.05841	0.627
6.09223	0.688
6.12605	0.74
6.15987	0.759
6.19369	0.774
6.2275	0.797
6.26132	0.811
6.29514	0.749
6.32896	0.579
6.36278	0.631
6.3966	0.705
6.43042	0.718
6.46423	0.754
6.49805	0.797
6.53187	0.819
6.56569	0.823
6.59951	0.819
6.63333	0.797
6.66715	0.767
6.70096	0.725
6.73478	0.574
6.7686	0.242
6.80242	0.02
6.83624	0.084
6.87006	0.24
6.90388	0.361
6.93769	0.415
6.97151	0.462
7.00533	0.58
7.03915	0.569
7.07297	0.528
7.10679	0.531
7.14061	0.58
7.17442	0.552
7.20824	0.409
7.24206	0.26
7.27588	0.319
7.3097	0.388
7.34352	0.415
7.37734	0.439
7.41115	0.469
7.44497	0.459
7.47879	0.481
7.51261	0.478
7.54643	0.5
7.58025	0.505
7.61407	0.508
7.64788	0.489
7.6817	0.481
7.71552	0.469
7.74934	0.452
7.78316	0.432
7.81698	0.407
7.8508	0.355
7.88461	0.331
7.91843	0.323
7.95225	0.341
7.98607	0.319
8.01989	0.331
8.05371	0.333
8.08753	0.335
8.12134	0.313
8.15516	0.323
8.18898	0.314
8.2228	0.301
8.25662	0.267
8.29044	0.276
8.32426	0.255
8.35807	0.249
8.39189	0.249
8.42571	0.26
8.45953	0.25
8.49335	0.255
8.52717	0.269
8.56099	0.294
8.5948	0.329
8.62862	0.335
8.66244	0.319
8.69626	0.286
8.73008	0.291
8.7639	0.306
8.79772	0.294
8.83153	0.289
8.86535	0.336
8.89917	0.383
8.93299	0.37
8.96681	0.271
9.00063	0.18
9.03445	0.148
9.06827	0.183
9.10208	0.232
9.1359	0.294
9.16972	0.415
9.20354	0.447
9.23736	0.449
9.27118	0.432
9.305	0.444
9.33881	0.469
9.37263	0.486
9.40645	0.486
9.44027	0.478
9.47409	0.474
9.50791	0.511
9.54173	0.569
9.57554	0.599
9.60936	0.622
9.64318	0.659
9.677	0.681
9.71082	0.685
9.74464	0.68
9.77846	0.67
9.81227	0.649
9.84609	0.641
9.87991	0.668
9.91373	0.698
9.94755	0.71
9.98137	0.715
10.0152	0.713
10.049	0.713
10.0828	0.708
10.1166	0.7
10.1505	0.7
10.1843	0.71
10.2181	0.723
10.2519	0.732
10.2857	0.734
10.3196	0.734
10.3534	0.717
10.3872	0.71
10.421	0.72
10.4548	0.732
10.4886	0.744
10.5225	0.757
10.5563	0.771
10.5901	0.787
10.6239	0.806
10.6577	0.809
10.6916	0.792
10.7254	0.779
10.7592	0.771
10.793	0.784
10.8268	0.803
10.8606	0.823
10.8945	0.824
10.9283	0.821
10.9621	0.821
10.9959	0.821
11.0297	0.823
11.0636	0.824
11.0974	0.828
11.1312	0.819
11.165	0.803
11.1988	0.771
11.2327	0.749
11.2665	0.75
11.3003	0.779
11.3341	0.799
11.3679	0.823
11.4017	0.838
11.4356	0.846
11.4694	0.85
11.5032	0.85
11.537	0.851
11.5708	0.856
11.6047	0.851
11.6385	0.845
11.6723	0.84
11.7061	0.838
11.7399	0.836
11.7738	0.838
11.8076	0.84
11.8414	0.845
11.8752	0.843
11.909	0.84
11.9428	0.831
11.9767	0.826
12.0105	0.821
12.0443	0.816
12.0781	0.803
12.1119	0.787
12.1458	0.781
12.1796	0.794
12.2134	0.816
12.2472	0.828
12.281	0.836
12.3148	0.838
12.3487	0.843
12.3825	0.855
12.4163	0.861
12.4501	0.867
12.4839	0.868
12.5178	0.868
12.5516	0.865
12.5854	0.86
12.6192	0.863
12.653	0.867
12.6869	0.867
12.7207	0.856
12.7545	0.846
12.7883	0.823
12.8221	0.804
12.8559	0.804
12.8898	0.821
12.9236	0.828
12.9574	0.823
12.9912	0.819
13.025	0.819
13.0589	0.823
13.0927	0.828
13.1265	0.828
13.1603	0.835
13.1941	0.838
13.228	0.84
13.2618	0.843
13.2956	0.846
13.3294	0.84
13.3632	0.835
13.397	0.829
13.4309	0.821
13.4647	0.811
13.4985	0.787
13.5323	0.757
13.5661	0.725
13.6	0.702
13.6338	0.658
13.6676	0.579
13.7014	0.447
13.7352	0.397
13.769	0.372
13.8029	0.309
13.8367	0.23
13.8705	0.168
13.9043	0.146
13.9381	0.178
13.972	0.324
14.0058	0.52
14.0396	0.643
14.0734	0.702
14.1072	0.74
14.1411	0.767
14.1749	0.797
14.2087	0.818
14.2425	0.84
14.2763	0.851
14.3101	0.86
14.344	0.868
14.3778	0.87
14.4116	0.872
14.4454	0.872
14.4792	0.87
14.5131	0.868
14.5469	0.867
14.5807	0.865
14.6145	0.867
14.6483	0.868
14.6821	0.878
14.716	0.888
14.7498	0.898
14.7836	0.907
14.8174	0.912
14.8512	0.922
14.8851	0.927
14.9189	0.927
14.9527	0.924
14.9865	0.925
15.0203	0.936
15.0542	0.944
15.088	0.946
