Infrared Spectrum: p-Dioxane, 2,6-dimethyl-,
Formula: C6 H12 O2
CAS: 10138-17-7
State: LIQUID
Boiling point: 114 C
Class: COBLENTZ III
Instrument: BAIRD (GRATING)
Instrument parameters: NaCl PRISM
Path length: 0.003 CM
Resolution: 2
Origin: WYANDOTTE CHEMICALS CORP.
1/CM	TRANSMITTANCE
626	0.6805
635	0.7044
644	0.721
653	0.7417
662	0.75
671	0.7627
680	0.7654
689	0.7514
698	0.6686
707	0.5523
716	0.699
725	0.7303
734	0.7593
743	0.7333
752	0.6422
761	0.4853
770	0.4481
779	0.4257
788	0.1832
797	0.3679
806	0.6801
815	0.7192
824	0.644
833	0.4099
842	0.1207
851	0.4575
860	0.452
869	0.4936
878	0.3321
887	0.1507
896	0.3673
905	0.3288
914	0.289
923	0.217
932	0.0642
941	0.097
950	0.084
959	0.035
968	0.1262
977	0.2854
986	0.3878
995	0.4602
1004	0.4015
1013	0.2944
1022	0.2529
1031	0.0858
1040	0.0242
1049	0.0677
1058	0.2181
1067	0.2889
1076	0.1959
1085	0.0356
1094	0.0279
1103	0.0282
1112	0.0366
1121	0.0341
1130	0.0239
1139	0.0273
1148	0.0294
1157	0.0233
1166	0.0259
1175	0.0696
1184	0.2105
1193	0.4097
1202	0.5131
1211	0.5686
1220	0.5558
1229	0.4995
1238	0.434
1247	0.1736
1256	0.4011
1265	0.5599
1274	0.5968
1283	0.629
1292	0.6218
1301	0.4829
1310	0.4681
1319	0.5033
1328	0.3634
1337	0.3209
1346	0.3304
1355	0.3015
1364	0.3559
1373	0.2451
1382	0.0746
1391	0.0749
1400	0.2427
1409	0.2978
1418	0.2658
1427	0.286
1436	0.4192
1445	0.4259
1454	0.2864
1463	0.1531
1472	0.1151
1481	0.1403
1490	0.3213
1499	0.5087
1508	0.6549
1517	0.726
1526	0.7689
1535	0.787
1544	0.7971
1553	0.8012
1562	0.8081
1571	0.814
1580	0.8166
1589	0.8166
1598	0.8158
1607	0.8162
1616	0.8162
1625	0.8126
1634	0.8047
1643	0.799
1652	0.7963
1661	0.7969
1670	0.8031
1679	0.8103
1688	0.8045
1697	0.8028
1706	0.8154
1715	0.8163
1724	0.8
1733	0.7788
1742	0.7463
1751	0.7323
1760	0.7812
1769	0.8131
1778	0.824
1787	0.8279
1796	0.8283
1805	0.8282
1814	0.828
1823	0.8271
1832	0.8262
1841	0.826
1850	0.8267
1859	0.8278
1868	0.8293
1877	0.831
1886	0.8305
1895	0.8293
1904	0.8277
1913	0.8258
1922	0.824
1931	0.8219
1940	0.8195
1949	0.8175
1958	0.8156
1967	0.8114
1976	0.8042
1985	0.8039
1994	0.8109
2003	0.821
2012	0.8284
2021	0.8283
2030	0.8278
2039	0.8303
2048	0.8346
2057	0.8392
2066	0.8436
2075	0.8495
2084	0.8555
2093	0.8593
2102	0.8595
2111	0.8583
2120	0.8569
2129	0.8556
2138	0.8565
2147	0.8575
2156	0.8579
2165	0.8571
2174	0.8556
2183	0.8544
2192	0.8529
2201	0.8516
2210	0.8508
2219	0.85
2228	0.8495
2237	0.8489
2246	0.8491
2255	0.8497
2264	0.8511
2273	0.8548
2282	0.8597
2291	0.8648
2300	0.8701
2309	0.8744
2318	0.8766
2327	0.8771
2336	0.8748
2345	0.8722
2354	0.8691
2363	0.8657
2372	0.8623
2381	0.8596
2390	0.8576
2399	0.8573
2408	0.8571
2417	0.8571
2426	0.857
2435	0.8576
2444	0.8584
2453	0.859
2462	0.8597
2471	0.8609
2480	0.8623
2489	0.8637
2498	0.8648
2507	0.8649
2516	0.8629
2525	0.8608
2534	0.8591
2543	0.8579
2552	0.8547
2561	0.8372
2570	0.8198
2579	0.8025
2588	0.7854
2597	0.7744
2606	0.7695
2615	0.7659
2624	0.7587
2633	0.747
2642	0.7326
2651	0.7198
2660	0.7019
2669	0.6916
2678	0.6831
2687	0.6768
2696	0.6697
2705	0.6603
2714	0.6455
2723	0.6256
2732	0.6006
2741	0.5667
2750	0.535
2759	0.4948
2768	0.4846
2777	0.4819
2786	0.4873
2795	0.4952
2804	0.4986
2813	0.433
2822	0.3249
2831	0.2174
2840	0.1028
2849	0.0585
2858	0.0514
2867	0.0493
2876	0.0496
2885	0.0504
2894	0.0524
2903	0.0543
2912	0.0558
2921	0.0554
2930	0.0536
2939	0.0476
2948	0.0396
2957	0.0336
2966	0.0299
2975	0.0304
2984	0.0284
2993	0.072
3002	0.1602
3011	0.2508
3020	0.3409
3029	0.4304
3038	0.5194
3047	0.6079
3056	0.6988
3065	0.7252
3074	0.7718
3083	0.8056
3092	0.8165
3101	0.8222
3110	0.8278
3119	0.8346
3128	0.8401
3137	0.8425
3146	0.8436
3155	0.8442
3164	0.8444
3173	0.8445
3182	0.8444
3191	0.8445
3200	0.8447
3209	0.846
3218	0.8483
3227	0.853
3236	0.8581
3245	0.864
3254	0.87
3263	0.8738
3272	0.8753
3281	0.8745
3290	0.8725
3299	0.8703
3308	0.8676
3317	0.8642
3326	0.8609
3335	0.8576
3344	0.8543
3353	0.8509
3362	0.847
3371	0.8431
3380	0.8385
3389	0.8339
3398	0.8295
3407	0.8225
3416	0.8131
3425	0.8051
3434	0.8022
3443	0.801
3452	0.7994
3461	0.7969
3470	0.793
3479	0.7886
3488	0.7844
3497	0.7806
3506	0.7776
3515	0.7768
3524	0.7771
3533	0.7781
3542	0.7809
3551	0.7868
3560	0.7915
3569	0.7973
3578	0.8037
3587	0.8101
3596	0.8164
3605	0.8227
3614	0.8289
3623	0.8352
3632	0.8414
3641	0.8476
3650	0.8537
3659	0.8598
3668	0.8659
3677	0.8724
3686	0.8809
3695	0.8883
3704	0.8954
3713	0.9016
3722	0.9075
3731	0.9134
3740	0.9175
3749	0.921
3758	0.9244
3767	0.9264
3776	0.928
3785	0.9296
3794	0.9312
3803	0.9328
3812	0.9344
3821	0.936
3830	0.9374
3839	0.9384
3848	0.9393
3857	0.9399
3866	0.9401
3875	0.9402
3884	0.9399
3893	0.9393
3902	0.9387
3911	0.9373
3920	0.9356
3929	0.9338
3938	0.9323
3947	0.9308
3956	0.9294
3965	0.9281
3974	0.9272
3983	0.9264
3992	0.9257
