Infrared Spectrum: 6Alpha,21-DIACETOXY-11Beta,17Alpha-DIHYDROXYPREGN-4-ENE-3,20-DIONE
Formula: C25 H34 O8
CAS: 101399-45-5
State: SOLID (KBr DISC)
Class: COBLENTZ III
Instrument: BECKMAN IR-7
Sampling: TRANSMISSION
Resolution: 4
Origin: THE WORCESTER FOUNDATION FOR EXPERIMENTAL BIOLOGY, Neal L. McNiven
1/CM	TRANSMITTANCE
599.27	0.39
608.029	0.379
616.788	0.443
625.547	0.514
634.307	0.574
643.066	0.556
651.825	0.571
660.584	0.62
669.343	0.641
678.102	0.679
686.862	0.614
695.621	0.841
704.38	0.896
713.139	0.836
721.898	0.952
730.657	0.957
739.416	0.883
748.176	0.817
756.935	0.883
765.694	0.852
774.453	0.812
783.212	0.659
791.971	0.6959
800.731	0.868
809.49	0.936
818.249	0.921
827.008	0.927
835.767	0.786
844.526	0.748
853.285	0.665
862.045	0.712
870.804	0.731
879.563	0.651
888.322	0.562
897.081	0.525
905.84	0.531
914.6	0.604
923.359	0.628
932.118	0.718
940.877	0.676
949.636	0.592
958.395	0.671
967.154	0.691
975.914	0.555
984.673	0.458
993.432	0.588
1002.19	0.596
1010.95	0.493
1019.71	0.35
1028.47	0.315
1037.23	0.303
1045.99	0.282
1054.75	0.304
1063.51	0.3
1072.26	0.419
1081.02	0.432
1089.78	0.427
1098.54	0.539
1107.3	0.45
1116.06	0.344
1124.82	0.416
1133.58	0.38
1142.34	0.536
1151.1	0.506
1159.86	0.437
1168.61	0.501
1177.37	0.516
1186.13	0.43
1194.89	0.347
1203.65	0.349
1212.41	0.335
1221.17	0.245
1229.93	0.15
1238.69	0.153
1247.45	0.172
1256.21	0.22
1264.97	0.234
1273.72	0.269
1282.48	0.34
1291.24	0.424
1300	0.453
1308.76	0.486
1317.52	0.504
1326.28	0.456
1335.04	0.479
1343.8	0.481
1352.56	0.405
1361.32	0.332
1370.08	0.258
1378.83	0.284
1387.59	0.342
1396.35	0.395
1405.11	0.414
1413.87	0.399
1422.63	0.401
1431.39	0.473
1440.15	0.493
1448.91	0.464
1457.67	0.456
1466.43	0.564
1475.19	0.604
1483.94	0.72
1492.7	0.794
1501.46	0.829
1510.22	0.848
1518.98	0.861
1527.74	0.866
1536.5	0.876
1545.26	0.881
1554.02	0.881
1562.78	0.86
1571.54	0.846
1580.3	0.808
1589.05	0.743
1597.81	0.676
1606.57	0.58
1615.33	0.406
1624.09	0.36
1632.85	0.302
1641.61	0.284
1650.37	0.28
1659.13	0.23
1667.89	0.238
1676.65	0.298
1685.4	0.366
1694.16	0.44
1702.92	0.395
1711.68	0.253
1720.44	0.168
1729.2	0.177
1737.96	0.174
1746.72	0.181
1755.48	0.278
1764.24	0.445
1773	0.56
1781.76	0.632
1790.51	0.692
1799.27	0.724
1808.03	0.749
1816.79	0.78
1825.55	0.805
1834.31	0.84
1843.07	0.86
1851.83	0.888
1860.59	0.91
1869.35	0.926
1878.11	0.932
1886.87	0.936
1895.62	0.943
1904.38	0.951
1913.14	0.96
1921.9	0.972
1930.66	0.976
1939.42	0.976
1948.18	0.973
1956.94	0.977
1965.7	0.98
1974.46	0.988
1983.22	0.994
1991.98	0.997
2000.73	0.994
2009.49	0.993
2018.25	0.992
2027.01	0.9917
2035.77	0.991
2044.53	0.9924
2053.29	0.9944
2062.05	0.997
2070.81	0.9975
2079.57	0.998
2088.33	0.9974
2097.09	0.997
2105.84	0.997
2114.6	0.996
2123.36	0.995
2132.12	0.9967
2140.88	0.997
2149.64	0.9998
2158.4	1
2167.16	1
2175.92	0.999
2184.68	0.9971
2193.44	0.995
2202.2	0.989
2210.95	0.984
2219.71	0.9819
2228.47	0.981
2237.23	0.98
2245.99	0.98
2254.75	0.98
2263.51	0.98
2272.27	0.979
2281.03	0.978
2289.79	0.978
2298.55	0.978
2307.3	0.9772
2316.06	0.976
2324.82	0.973
2333.58	0.971
2342.34	0.9695
2351.1	0.968
2359.86	0.968
2368.62	0.967
2377.38	0.966
2386.14	0.9643
2394.9	0.9558
2403.66	0.952
2412.41	0.951
2421.17	0.9492
2429.93	0.949
2438.69	0.947
2447.45	0.9441
2456.21	0.94
2464.97	0.935
2473.73	0.933
2482.49	0.9299
2491.25	0.926
2500.01	0.927
2508.77	0.93
2517.52	0.9322
2526.28	0.934
2535.04	0.933
2543.8	0.9317
2552.56	0.93
2561.32	0.9249
2570.08	0.9162
2578.84	0.9087
2587.6	0.9001
2596.36	0.8955
2605.12	0.8965
2613.88	0.9015
2622.63	0.9024
2631.39	0.8994
2640.15	0.8924
2648.91	0.8846
2657.67	0.8762
2666.43	0.863
2675.19	0.8529
2683.95	0.8454
2692.71	0.8392
2701.47	0.8322
2710.23	0.8251
2718.99	0.8249
2727.74	0.829
2736.5	0.833
2745.26	0.8401
2754.02	0.8462
2762.78	0.8501
2771.54	0.851
2780.3	0.8488
2789.06	0.841
2797.82	0.8224
2806.58	0.7976
2815.34	0.7666
2824.09	0.733
2832.85	0.6804
2841.61	0.5765
2850.37	0.4991
2859.13	0.4688
2867.89	0.466
2876.65	0.4765
2885.41	0.4524
2894.17	0.4268
2902.93	0.4062
2911.69	0.3813
2920.45	0.3564
2929.2	0.34
2937.96	0.3456
2946.72	0.3681
2955.48	0.3993
2964.24	0.4223
2973	0.4661
2981.76	0.4912
2990.52	0.5286
2999.28	0.556
3008.04	0.6045
3016.8	0.6839
3025.56	0.7218
3034.31	0.7445
3043.07	0.7633
3051.83	0.7886
3060.59	0.7932
3069.35	0.7953
3078.11	0.797
3086.87	0.802
3095.63	0.8131
3104.39	0.8228
3113.15	0.828
3121.91	0.828
3130.67	0.828
3139.42	0.8224
3148.18	0.8165
3156.94	0.8134
3165.7	0.8094
3174.46	0.7997
3183.22	0.7966
3191.98	0.7918
3200.74	0.777
3209.5	0.7593
3218.26	0.7447
3227.02	0.7326
3235.78	0.7122
3244.53	0.6863
3253.29	0.6704
3262.05	0.6591
3270.81	0.6398
3279.57	0.5985
3288.33	0.5746
3297.09	0.5541
3305.85	0.5258
3314.61	0.4982
3323.37	0.4622
3332.13	0.4373
3340.88	0.4151
3349.64	0.3965
3358.4	0.3693
3367.16	0.3565
3375.92	0.3434
3384.68	0.3337
3393.44	0.3175
3402.2	0.307
3410.96	0.2934
3419.72	0.2869
3428.48	0.276
3437.24	0.272
3445.99	0.2753
3454.75	0.2959
3463.51	0.3101
3472.27	0.3199
3481.03	0.3456
3489.79	0.3608
3498.55	0.3686
3507.31	0.3865
3516.07	0.4114
3524.83	0.4338
3533.59	0.449
3542.35	0.4612
3551.1	0.4705
3559.86	0.5179
3568.62	0.5563
3577.38	0.5894
3586.14	0.6124
3594.9	0.6853
3603.66	0.7073
3612.42	0.744
3621.18	0.78
3629.94	0.7958
3638.7	0.8201
3647.46	0.8406
3656.21	0.8548
3664.97	0.8669
3673.73	0.8766
3682.49	0.8907
3691.25	0.9012
3700.01	0.904
3708.77	0.904
3717.53	0.903
3726.29	0.9037
3735.05	0.9078
3743.81	0.909
3752.57	0.909
3761.32	0.9071
3770.08	0.9061
3778.84	0.9069
3787.6	0.9119
3796.36	0.913
3805.12	0.913
3813.88	0.913
3822.64	0.913
3831.4	0.912
3840.16	0.911
3848.92	0.9098
3857.67	0.9092
3866.43	0.9112
3875.19	0.912
3883.95	0.9117
3892.71	0.911
3901.47	0.911
3910.23	0.912
3918.99	0.9116
3927.75	0.911
3936.51	0.912
3945.27	0.911
3954.03	0.912
3962.78	0.9114
3971.54	0.911
3980.3	0.9113
3989.06	0.911
3997.82	0.911
4006.58	0.911
