Infrared Spectrum: BUTANE, 1,1,3-TRIMETHOXY-
Formula: C7 H16 O3
CAS: 10138-89-3
State: SOLUTION (10% CCl4 FOR 3800-1330, 10% CS2 FOR 1330-465 CM^-^1)
Class: COBLENTZ III
Instrument: DOW KBr FOREPRISM-GRATING
Instrument parameters: BLAZED AT 3.5, 12.0, 20.0 MICRON AND CHANGED AT 5.0, 7.5, 14.9 MICRON
Sampling: TRANSMISSION
Path length: 0.011 CM, 0.011 CM
Resolution: 2
Origin: DOW CHEMICAL COMPANY
1/CM	TRANSMITTANCE
465	0.804
474	0.8292
483	0.8457
492	0.8475
501	0.8416
510	0.8305
519	0.8168
528	0.8031
537	0.8097
546	0.8213
555	0.8273
564	0.818
573	0.7995
582	0.7851
591	0.8067
600	0.858
609	0.8814
618	0.8886
627	0.8764
636	0.8692
645	0.8701
654	0.8725
663	0.9109
672	0.8686
681	0.8711
690	0.8771
699	0.8847
708	0.8908
717	0.9004
726	0.9083
735	0.9153
744	0.9224
753	0.9294
762	0.9293
771	0.9138
780	0.8324
789	0.5664
798	0.6747
807	0.7898
816	0.8373
825	0.7143
834	0.7695
843	0.708
852	0.7675
861	0.8064
870	0.8386
879	0.8668
888	0.8693
897	0.7683
906	0.4286
915	0.5815
924	0.6671
933	0.7443
942	0.6571
951	0.3996
960	0.2249
969	0.4987
978	0.7861
987	0.8514
996	0.793
1005	0.6433
1014	0.5572
1023	0.5217
1032	0.4229
1041	0.2543
1050	0.0261
1059	0.0838
1068	0.0789
1077	0.0429
1086	0.0487
1095	0.0183
1104	0.0274
1113	0.0408
1122	0.0071
1131	0.0317
1140	0.0648
1149	0.1562
1158	0.3189
1167	0.4553
1176	0.2676
1185	0.2337
1194	0.2805
1203	0.2983
1212	0.6162
1221	0.7422
1230	0.7988
1239	0.7996
1248	0.8021
1257	0.8141
1266	0.832
1275	0.7743
1284	0.7783
1293	0.8254
1302	0.8498
1311	0.8592
1320	0.8467
1329	0.7745
1338	0.6645
1347	0.6051
1356	0.5009
1365	0.4336
1374	0.2103
1383	0.2722
1392	0.3364
1401	0.6279
1410	0.6893
1419	0.6731
1428	0.5865
1437	0.5545
1446	0.3606
1455	0.3873
1464	0.321
1473	0.5434
1482	0.6674
1491	0.703
1500	0.6988
1509	0.6742
1518	0.6471
1527	0.6169
1536	0.5662
1545	0.4853
1554	0.4483
1563	0.5039
1572	0.5769
1581	0.6031
1590	0.6421
1599	0.7115
1608	0.7711
1617	0.8014
1626	0.8198
1635	0.8257
1644	0.8286
1653	0.8375
1662	0.8408
1671	0.8415
1680	0.8345
1689	0.8192
1698	0.7972
1707	0.8124
1716	0.7978
1725	0.7434
1734	0.684
1743	0.7565
1752	0.8054
1761	0.8249
1770	0.8361
1779	0.8448
1788	0.8505
1797	0.854
1806	0.8556
1815	0.8563
1824	0.8568
1833	0.8574
1842	0.8578
1851	0.858
1860	0.8578
1869	0.8571
1878	0.8566
1887	0.8566
1896	0.8567
1905	0.8575
1914	0.8578
1923	0.8567
1932	0.8541
1941	0.8535
1950	0.8559
1959	0.8665
1968	0.8528
1977	0.8499
1986	0.8485
1995	0.8474
2004	0.8436
2013	0.8108
2022	0.8037
2031	0.8134
2040	0.8143
2049	0.8149
2058	0.8184
2067	0.8187
2076	0.8174
2085	0.8158
2094	0.8142
2103	0.8137
2112	0.8158
2121	0.8195
2130	0.8199
2139	0.8189
2148	0.8157
2157	0.8115
2166	0.8099
2175	0.8142
2184	0.8205
2193	0.8262
2202	0.8283
2211	0.8285
2220	0.8283
2229	0.8281
2238	0.8278
2247	0.8267
2256	0.8251
2265	0.8221
2274	0.819
2283	0.8148
2292	0.8153
2301	0.8174
2310	0.8235
2319	0.8328
2328	0.8425
2337	0.8459
2346	0.8471
2355	0.8471
2364	0.8457
2373	0.8425
2382	0.8389
2391	0.8389
2400	0.8399
2409	0.8423
2418	0.8452
2427	0.848
2436	0.8509
2445	0.8533
2454	0.855
2463	0.8556
2472	0.8558
2481	0.856
2490	0.8562
2499	0.8559
2508	0.8555
2517	0.8545
2526	0.8535
2535	0.8521
2544	0.8508
2553	0.8488
2562	0.8468
2571	0.844
2580	0.8409
2589	0.8364
2598	0.8306
2607	0.8308
2616	0.8324
2625	0.8346
2634	0.8307
2643	0.8221
2652	0.8155
2661	0.811
2670	0.8145
2679	0.8139
2688	0.8107
2697	0.804
2706	0.796
2715	0.7943
2724	0.7953
2733	0.7999
2742	0.8061
2751	0.8034
2760	0.7993
2769	0.7926
2778	0.7811
2787	0.7599
2796	0.7176
2805	0.6214
2814	0.4968
2823	0.2998
2832	0.1667
2841	0.2565
2850	0.4518
2859	0.515
2868	0.4327
2877	0.306
2886	0.2276
2895	0.1948
2904	0.1704
2913	0.16
2922	0.15
2931	0.093
2940	0.0717
2949	0.1303
2958	0.1353
2967	0.1211
2976	0.0784
2985	0.1113
2994	0.2343
3003	0.3564
3012	0.5655
3021	0.661
3030	0.711
3039	0.7344
3048	0.7503
3057	0.764
3066	0.7754
3075	0.7857
3084	0.7958
3093	0.8037
3102	0.8105
3111	0.8158
3120	0.8207
3129	0.8253
3138	0.8278
3147	0.8266
3156	0.8181
3165	0.8125
3174	0.8341
3183	0.8375
3192	0.8393
3201	0.8403
3210	0.8412
3219	0.8421
3228	0.8428
3237	0.8428
3246	0.8436
3255	0.8443
3264	0.842
3273	0.8353
3282	0.8252
3291	0.8145
3300	0.7978
3309	0.7704
3318	0.7689
3327	0.7944
3336	0.8125
3345	0.8158
3354	0.8261
3363	0.8344
3372	0.8411
3381	0.8455
3390	0.849
3399	0.8518
3408	0.8538
3417	0.8552
3426	0.8562
3435	0.8568
3444	0.8575
3453	0.8589
3462	0.8595
3471	0.86
3480	0.86
3489	0.8601
3498	0.8609
3507	0.8621
3516	0.8639
3525	0.8662
3534	0.8687
3543	0.8716
3552	0.875
3561	0.879
3570	0.8837
3579	0.8875
3588	0.8878
3597	0.8877
3606	0.8881
3615	0.8887
3624	0.8892
3633	0.8896
3642	0.89
3651	0.8903
3660	0.8908
3669	0.8913
3678	0.8918
3687	0.8918
3696	0.8916
3705	0.8914
3714	0.8915
3723	0.8917
3732	0.8917
3741	0.8916
3750	0.8915
3759	0.8915
3768	0.8917
3777	0.8915
3786	0.8914
3795	0.8912
3804	0.891
