Infrared Spectrum: 1-Propanesulfonyl chloride
Formula: C 3 H 7 Cl O 2 S
CAS: 10147-36-1
State: gas
Origin: EPA-IR VAPOR PHASE LIBRARY
1/CM	ABSORBANCE
549.8	0.03058
559.445	0.01888
569.09	0.01865
578.734	0.03044
588.379	0.04188
598.024	0.0345
607.669	0.01494
617.313	0.00441
626.958	0.00272
636.603	0.00229
646.248	0.00268
655.893	0.00395
665.537	0.00732
675.182	0.0135
684.827	0.01821
694.472	0.01538
704.116	0.00781
713.761	0.00484
723.406	0.00581
733.051	0.00887
742.695	0.01308
752.34	0.01324
761.985	0.00905
771.63	0.00438
781.275	0.00273
790.919	0.00258
800.564	0.00239
810.209	0.00204
819.854	0.00245
829.498	0.00323
839.143	0.0036
848.788	0.00332
858.433	0.0026
868.078	0.00179
877.722	0.00146
887.367	0.00116
897.012	0.00116
906.657	0.00123
916.301	0.0004951
925.946	0.0006436
935.591	0.000397
945.236	0.0004423
954.88	0.0003161
964.525	0.0002044
974.17	8.4e-05
983.815	0.00017468
993.46	0.00014712
1003.1	0.0004228
1012.75	0.0004364
1022.39	0.0004968
1032.04	0.0010655
1041.68	0.00169
1051.33	0.00233
1060.97	0.0038
1070.62	0.00424
1080.26	0.00452
1089.91	0.00434
1099.55	0.00295
1109.2	0.00262
1118.84	0.00181
1128.49	0.00251
1138.13	0.00436
1147.78	0.01052
1157.42	0.02987
1167.07	0.06163
1176.71	0.07155
1186.36	0.05104
1196	0.02398
1205.64	0.01262
1215.29	0.00697
1224.93	0.00433
1234.58	0.00436
1244.22	0.00613
1253.87	0.00616
1263.51	0.00427
1273.16	0.00204
1282.8	0.0015
1292.45	0.00233
1302.09	0.00309
1311.74	0.00339
1321.38	0.00354
1331.03	0.00446
1340.67	0.0062
1350.32	0.00782
1359.96	0.01047
1369.61	0.0209
1379.25	0.04907
1388.9	0.08777
1398.54	0.10869
1408.18	0.06477
1417.83	0.02437
1427.47	0.00669
1437.12	0.00424
1446.76	0.0047
1456.41	0.00596
1466.05	0.00617
1475.7	0.00497
1485.34	0.00337
1494.99	0.00224
1504.63	0.00168
1514.28	0.00139
1523.92	0.00125
1533.57	0.00123
1543.21	0.0010947
1552.86	0.0008775
1562.5	0.0008363
1572.15	0.000732
1581.79	0.0006049
1591.44	0.0005399
1601.08	0.0005204
1610.73	0.0004475
1620.37	0.0003921
1630.01	0.0003443
1639.66	0.0003032
1649.3	0.0002201
1658.95	0.00017427
1668.59	0.0002062
1678.24	0.00012301
1687.88	0.00015369
1697.53	0.00019235
1707.17	0.00013907
1716.82	0.0001535
1726.46	0.00019621
1736.11	0.0002445
1745.75	0.0002835
1755.4	0.0002675
1765.04	0.0003227
1774.69	0.0002248
1784.33	0.0002311
1793.98	0.0002472
1803.62	0.00012345
1813.27	0.0002098
1822.91	0.0001521
1832.55	0.00018805
1842.2	9.751e-05
1851.84	0.00011495
1861.49	0.0001925
1871.13	0.000102749
1880.78	9.242e-05
1890.42	0.00012683
1900.07	0.00016498
1909.71	0.00015172
1919.36	0.0002194
1929	0.00019093
1938.65	0.00018074
1948.29	0.00015464
1957.94	0.00018993
1967.58	0.00017527
1977.23	0.0002677
1986.87	0.000333
1996.52	0.0003242
2006.16	0.0002883
2015.81	0.0002556
2025.45	0.0002081
2035.1	0.0003584
2044.74	0.0002088
2054.38	0.00019507
2064.03	0.0002507
2073.67	0.0002945
2083.32	0.0003187
2092.96	0.0002685
2102.61	0.0002774
2112.25	0.0002898
2121.9	0.0002444
2131.54	0.0002932
2141.19	0.0003696
2150.83	0.0004415
2160.48	0.0002518
2170.12	0.0003021
2179.77	0.0002167
2189.41	0.0002876
2199.06	0.000268
2208.7	0.0002108
2218.35	0.0002139
2227.99	0.0003372
2237.64	0.0003474
2247.28	0.0004048
2256.92	0.000369
2266.57	0.0003004
2276.21	0.0003668
2285.86	0.0002901
2295.5	0.0003188
2305.15	0.0003081
2314.79	0.0003829
2324.44	0.0004701
2334.08	0.0005343
2343.73	0.0006698
2353.37	0.0006469
2363.02	0.0005986
2372.66	0.0004009
2382.31	0.0003254
2391.95	0.0003258
2401.6	0.0003461
2411.24	0.000414
2420.89	0.0003302
2430.53	0.000377
2440.18	0.0003395
2449.82	0.0003185
2459.47	0.0003544
2469.11	0.0003186
2478.75	0.0003727
2488.4	0.0002694
2498.04	0.0003351
2507.69	0.0003282
2517.33	0.000402
2526.98	0.000506
2536.62	0.0005479
2546.27	0.0007513
2555.91	0.0007787
2565.56	0.0008431
2575.2	0.0006819
2584.85	0.0004624
2594.49	0.0003661
2604.14	0.0002932
2613.78	0.0002681
2623.43	0.0002583
2633.07	0.0002282
2642.72	0.0003368
2652.36	0.0002562
2662.01	0.000412
2671.65	0.0004043
2681.29	0.0003786
2690.94	0.0003838
2700.58	0.0004103
2710.23	0.0003582
2719.87	0.000358
2729.52	0.0004234
2739.16	0.0005318
2748.81	0.0005211
2758.45	0.0006513
2768.1	0.000677
2777.74	0.0007
2787.39	0.0006601
2797.03	0.0009219
2806.68	0.0007931
2816.32	0.00081
2825.97	0.0010227
2835.61	0.00111
2845.26	0.00127
2854.9	0.00153
2864.55	0.00213
2874.19	0.0035
2883.84	0.00618
2893.48	0.00729
2903.12	0.00673
2912.77	0.00599
2922.41	0.00674
2932.06	0.00821
2941.7	0.01073
2951.35	0.01121
2960.99	0.01099
2970.64	0.01409
2980.28	0.01922
2989.93	0.01755
2999.57	0.01059
3009.22	0.00532
3018.86	0.00303
3028.51	0.00206
3038.15	0.00157
3047.8	0.00145
3057.44	0.00116
3067.09	0.0008767
3076.73	0.0008003
3086.38	0.0008129
3096.02	0.0008864
3105.67	0.0006165
3115.31	0.0007153
3124.95	0.0006444
3134.6	0.000605
3144.24	0.0006472
3153.89	0.0005305
3163.53	0.0004655
3173.18	0.0004344
3182.82	0.0004121
3192.47	0.0003369
3202.11	0.0002987
3211.76	0.000401
3221.4	0.000361
3231.05	0.0003458
3240.69	0.0002824
3250.34	0.0002755
3259.98	0.0004319
3269.63	0.0001974
3279.27	0.0002478
3288.92	0.0002798
3298.56	0.0003689
3308.21	0.00019436
3317.85	0.000109907
3327.49	0.00015511
3337.14	0.00014467
3346.78	4.85e-05
3356.43	0.0002057
3366.07	0.00012275
3375.72	0.0002606
3385.36	0.00011585
3395.01	0.0003355
3404.65	0.00016875
3414.3	0.0002323
3423.94	0.0002136
3433.59	0.0003084
3443.23	0.00017394
3452.88	0.0002232
3462.52	0.0002698
3472.17	0.0002365
3481.81	0.0004491
3491.46	0.0004057
3501.1	0.0002968
3510.75	0.0002496
3520.39	0.0002035
3530.04	0.00011032
3539.68	0.0003058
3549.32	0.0003624
3558.97	0.0002926
3568.61	0.0003889
3578.26	0.0002141
3587.9	0.000384
3597.55	0.0002195
3607.19	0.0001849
3616.84	0.0003169
3626.48	0.0003633
3636.13	0.0003139
3645.77	0.000321
3655.42	0.00029
3665.06	0.0003561
3674.71	0.0002368
3684.35	0.000363
3694	0.0004661
3703.64	0.0001838
3713.29	0.0003049
3722.93	0.000275
3732.58	0.0004307
3742.22	0.0004821
3751.86	0.0005016
3761.51	0.0005492
3771.15	0.0003763
3780.8	0.000411
3790.44	0.0003741
3800.09	0.0004837
3809.73	0.0002417
3819.38	0.0003758
3829.02	0.0003774
3838.67	0.0005603
3848.31	0.0002353
3857.96	0.0003133
3867.6	0.0003723
3877.25	0.0002392
3886.89	0.0003353
3896.54	0.000489
3906.18	0.0003088
3915.83	0.0002495
3925.47	0.0003183
3935.12	0.0003965
3944.76	0.0002683
3954.41	0.0005477
3964.05	0.0004256
3973.69	0.0004227
3983.34	0.000582
3992.98	0.000495
