Infrared Spectrum: 3-(Trifluoromethoxy)benzoic acid
Formula: C 8 H 5 F 3 O 3
CAS: 1014-81-9
State: gas
Origin: EPA-IR VAPOR PHASE LIBRARY
1/CM	ABSORBANCE
549.8	0.005888
559.445	0.005298
569.09	0.006438
578.734	0.005768
588.379	0.002768
598.024	0.002378
607.669	0.001738
617.313	0.001728
626.958	0.003448
636.603	0.006438
646.248	0.003128
655.893	0.002248
665.537	0.001788
675.182	0.003048
684.827	0.003448
694.472	0.006168
704.116	0.007568
713.761	0.005848
723.406	0.002848
733.051	0.003578
742.695	0.005818
752.34	0.004678
761.985	0.005678
771.63	0.006408
781.275	0.005308
790.919	0.003668
800.564	0.002378
810.209	0.002288
819.854	0.003178
829.498	0.003538
839.143	0.001258
848.788	0.002818
858.433	0.004278
868.078	0.003308
877.722	0.002028
887.367	0.0009524
897.012	0.0005496
906.657	0.001338
916.301	0.002118
925.946	0.002278
935.591	0.002268
945.236	0.001518
954.88	0.001398
964.525	0.001598
974.17	0.001908
983.815	0.002678
993.46	0.001858
1003.1	0.002198
1012.75	0.004818
1022.39	0.008438
1032.04	0.001448
1041.68	0.003718
1051.33	0.004788
1060.97	0.008858
1070.62	0.021908
1080.26	0.038838
1089.91	0.022898
1099.55	0.010118
1109.2	0.004798
1118.84	0.003668
1128.49	0.004388
1138.13	0.005858
1147.78	0.009138
1157.42	0.024248
1167.07	0.044538
1176.71	0.047668
1186.36	0.066768
1196	0.069938
1205.64	0.062018
1215.29	0.078858
1224.93	0.089918
1234.58	0.062938
1244.22	0.049928
1253.87	0.075138
1263.51	0.126888
1273.16	0.116308
1282.8	0.046528
1292.45	0.022988
1302.09	0.017258
1311.74	0.013208
1321.38	0.010778
1331.03	0.010128
1340.67	0.009258
1350.32	0.007928
1359.96	0.010748
1369.61	0.010348
1379.25	0.005048
1388.9	0.002698
1398.54	0.002508
1408.18	0.002758
1417.83	0.003408
1427.47	0.002718
1437.12	0.001638
1446.76	0.001298
1456.41	0.0011638
1466.05	0.001258
1475.7	0.001568
1485.34	0.001708
1494.99	0.003548
1504.63	0.009508
1514.28	0.008778
1523.92	0.003338
1533.57	0.002328
1543.21	0.001498
1552.86	0.001808
1562.5	0.001948
1572.15	0.002458
1581.79	0.003128
1591.44	0.005658
1601.08	0.009128
1610.73	0.008428
1620.37	0.004958
1630.01	0.002948
1639.66	0.001988
1649.3	0.001638
1658.95	0.002008
1668.59	0.001608
1678.24	0.001648
1687.88	0.002018
1697.53	0.002058
1707.17	0.003008
1716.82	0.003598
1726.46	0.003598
1736.11	0.005318
1745.75	0.013358
1755.4	0.039868
1765.04	0.065578
1774.69	0.026958
1784.33	0.008258
1793.98	0.003898
1803.62	0.002708
1813.27	0.002818
1822.91	0.002558
1832.55	0.002188
1842.2	0.001288
1851.84	0.0011654
1861.49	0.0008494
1871.13	0.001004
1880.78	0.0008992
1890.42	0.0011872
1900.07	0.0012034
1909.71	0.001488
1919.36	0.001868
1929	0.001608
1938.65	0.001408
1948.29	0.0012217
1957.94	0.0012002
1967.58	0.0012027
1977.23	0.001248
1986.87	0.001288
1996.52	0.001248
2006.16	0.001278
2015.81	0.001488
2025.45	0.0010975
2035.1	0.001238
2044.74	0.001258
2054.38	0.0011959
2064.03	0.001202
2073.67	0.0010847
2083.32	0.0010457
2092.96	0.001288
2102.61	0.0012207
2112.25	0.0011928
2121.9	0.0012198
2131.54	0.001238
2141.19	0.001718
2150.83	0.001298
2160.48	0.001278
2170.12	0.001184
2179.77	0.001368
2189.41	0.001308
2199.06	0.0010143
2208.7	0.0009981
2218.35	0.0010934
2227.99	0.0008856
2237.64	0.0010862
2247.28	0.001219
2256.92	0.0011701
2266.57	0.0011437
2276.21	0.0010116
2285.86	0.001288
2295.5	0.0011498
2305.15	0.0011559
2314.79	0.0010918
2324.44	0.001498
2334.08	0.001368
2343.73	0.001328
2353.37	0.001408
2363.02	0.001368
2372.66	0.001328
2382.31	0.0011859
2391.95	0.001468
2401.6	0.001298
2411.24	0.0011746
2420.89	0.001778
2430.53	0.001808
2440.18	0.001998
2449.82	0.001938
2459.47	0.001748
2469.11	0.001658
2478.75	0.001918
2488.4	0.001698
2498.04	0.001518
2507.69	0.001738
2517.33	0.001608
2526.98	0.0012255
2536.62	0.001155
2546.27	0.0009151
2555.91	0.001188
2565.56	0.001278
2575.2	0.0010706
2584.85	0.001398
2594.49	0.001408
2604.14	0.001358
2613.78	0.0012067
2623.43	0.001338
2633.07	0.0007465
2642.72	0.0010032
2652.36	0.0009073
2662.01	0.0009612
2671.65	0.0007609
2681.29	0.0010316
2690.94	0.0011183
2700.58	0.0011648
2710.23	0.0009469
2719.87	0.0011766
2729.52	0.0011677
2739.16	0.001308
2748.81	0.00103
2758.45	0.001318
2768.1	0.0009877
2777.74	0.0011614
2787.39	0.0011749
2797.03	0.0007474
2806.68	0.001418
2816.32	0.001238
2825.97	0.001338
2835.61	0.001368
2845.26	0.001468
2854.9	0.001368
2864.55	0.001268
2874.19	0.0011211
2883.84	0.0012
2893.48	0.001348
2903.12	0.0009392
2912.77	0.0012123
2922.41	0.0009783
2932.06	0.001768
2941.7	0.001478
2951.35	0.0010696
2960.99	0.001448
2970.64	0.001608
2980.28	0.0011557
2989.93	0.0011812
2999.57	0.001518
3009.22	0.0011926
3018.86	0.001638
3028.51	0.001418
3038.15	0.001408
3047.8	0.001358
3057.44	0.001628
3067.09	0.002138
3076.73	0.002118
3086.38	0.001238
3096.02	0.001598
3105.67	0.001498
3115.31	0.001408
3124.95	0.0012014
3134.6	0.001878
3144.24	0.001044
3153.89	0.0011943
3163.53	0.0009155
3173.18	0.0009827
3182.82	0.001318
3192.47	0.001888
3202.11	0.001159
3211.76	0.0010385
3221.4	0.0011926
3231.05	0.001378
3240.69	0.001738
3250.34	0.0011326
3259.98	0.000632
3269.63	0.001238
3279.27	0.001278
3288.92	0.001448
3298.56	0.001478
3308.21	0.0009839
3317.85	0.0011373
3327.49	0.001119
3337.14	0.001428
3346.78	0.0010164
3356.43	0.001268
3366.07	0.0007093
3375.72	0.0007612
3385.36	0.001278
3395.01	0.0007403
3404.65	0.0010118
3414.3	0.0011422
3423.94	0.001358
3433.59	0.001308
3443.23	0.001268
3452.88	0.001458
3462.52	0.001328
3472.17	0.001288
3481.81	0.001278
3491.46	0.0008904
3501.1	0.001708
3510.75	0.001858
3520.39	0.001948
3530.04	0.0010236
3539.68	0.001538
3549.32	0.0009446
3558.97	0.0009747
3568.61	0.004418
3578.26	0.019938
3587.9	0.019878
3597.55	0.002938
3607.19	0.0010299
3616.84	0.0011957
3626.48	0.0010507
3636.13	0.000954
3645.77	0.001488
3655.42	0.0008682
3665.06	0.0010772
3674.71	0
3684.35	0.0007102
3694	0.0008775
3703.64	0.0007609
3713.29	0.00011
3722.93	0.001838
3732.58	0.0004875
3742.22	0.0010042
3751.86	0.0006428
3761.51	0.0008102
3771.15	0.0012055
3780.8	0.0010818
3790.44	0.0010808
3800.09	0.0011732
3809.73	0.000182
3819.38	0.001298
3829.02	0.0010585
3838.67	0.0010347
3848.31	0.001428
3857.96	0.0007135
3867.6	0.0010583
3877.25	0.001528
3886.89	0.001528
3896.54	0.001458
3906.18	0.0005537
3915.83	0.0009951
3925.47	0.001338
3935.12	0.001708
3944.76	0.0010211
3954.41	0.0009204
3964.05	0.0006894
3973.69	0.001568
3983.34	0.001298
3992.98	0.0010832
