Infrared Spectrum: 2-Methyltetrahydropyran
Formula: C 6 H 12 O
CAS: 10141-72-7
State: gas
Instrument: HP-GC/MS/IRD
Origin: NIST Mass Spectrometry Data Center
1/CM	ABSORBANCE
550	0.0002304
562	0.0002144
574	0.000272
586	0.00024
598	0.000112
610	9.6e-05
622	0.000128
634	0.000112
646	9.92e-05
658	0.0001216
670	0.000128
682	0.0001088
694	8.96e-05
706	0.0001856
718	0.0001184
730	7.68e-05
742	0.0001568
754	0.0002368
766	0.0003904
778	0.0006912
790	0.000816
802	0.0005664
814	0.0005088
826	0.0006656
838	0.0011424
850	0.002512
862	0.0026976
874	0.001888
886	0.0009312
898	0.0006816
910	0.000624
922	0.0004672
934	0.0006112
946	0.001056
958	0.0014912
970	0.0012992
982	0.0008448
994	0.0010112
1006	0.0012192
1018	0.0012864
1030	0.001792
1042	0.0039616
1054	0.0052512
1066	0.006432
1078	0.0105696
1090	0.0151616
1102	0.0135552
1114	0.0064672
1126	0.0026848
1138	0.0018144
1150	0.0013344
1162	0.0015072
1174	0.0023616
1186	0.0027392
1198	0.0033696
1210	0.0034656
1222	0.0028864
1234	0.001504
1246	0.0013376
1258	0.0020928
1270	0.002608
1282	0.00216
1294	0.0009312
1306	0.0005568
1318	0.000752
1330	0.001216
1342	0.0018976
1354	0.0026304
1366	0.0034944
1378	0.004448
1390	0.0036512
1402	0.0014496
1414	0.000864
1426	0.0014304
1438	0.0021632
1450	0.0030112
1462	0.0025824
1474	0.001696
1486	0.0008256
1498	0.0003392
1510	0.0002048
1522	0.0001408
1534	0.000128
1546	0.0001024
1558	0.0001024
1570	0.0001024
1582	0.000112
1594	0.0001056
1606	9.92e-05
1618	9.6e-05
1630	9.92e-05
1642	0.0001216
1654	8.96e-05
1666	9.92e-05
1678	5.44e-05
1690	6.72e-05
1702	6.08e-05
1714	5.44e-05
1726	8e-05
1738	8e-05
1750	5.76e-05
1762	6.72e-05
1774	6.08e-05
1786	8e-05
1798	9.28e-05
1810	0.0001248
1822	0.0001056
1834	0.0001056
1846	8.64e-05
1858	0.0001184
1870	0.0001472
1882	0.00016
1894	0.0001632
1906	0.0001856
1918	0.0001632
1930	0.0001728
1942	0.0001984
1954	0.0001952
1966	0.0001376
1978	6.72e-05
1990	7.04e-05
2002	7.36e-05
2014	6.4e-05
2026	8e-05
2038	8.64e-05
2050	0.0001056
2062	5.76e-05
2074	3.2e-06
2086	4.16e-05
2098	2.88e-05
2110	2.88e-05
2122	4.16e-05
2134	8.32e-05
2146	9.6e-05
2158	0.0001088
2170	0.000112
2182	0.0001024
2194	8.96e-05
2206	8.32e-05
2218	4.48e-05
2230	8.96e-05
2242	8.96e-05
2254	4.48e-05
2266	5.76e-05
2278	6.08e-05
2290	6.08e-05
2302	9.28e-05
2314	4.8e-05
2326	5.44e-05
2338	3.2e-05
2350	0
2362	0
2374	1.6e-05
2386	4.16e-05
2398	1.28e-05
2410	4.16e-05
2422	4.8e-05
2434	4.8e-05
2446	7.68e-05
2458	5.76e-05
2470	9.28e-05
2482	0.0001024
2494	8.96e-05
2506	5.44e-05
2518	9.92e-05
2530	0.0001152
2542	0.0001024
2554	0.0001152
2566	0.0001312
2578	0.0001664
2590	0.0002752
2602	0.000384
2614	0.0004768
2626	0.000544
2638	0.0006368
2650	0.0007552
2662	0.0007744
2674	0.0006656
2686	0.0006432
2698	0.0007168
2710	0.0009024
2722	0.001072
2734	0.0011968
2746	0.0010528
2758	0.0008288
2770	0.0007936
2782	0.0009856
2794	0.0014912
2806	0.0023808
2818	0.0045856
2830	0.008544
2842	0.0135648
2854	0.0130688
2866	0.0105632
2878	0.0069312
2890	0.0050016
2902	0.0058848
2914	0.0110432
2926	0.0213856
2938	0.0294176
2950	0.0248576
2962	0.0182112
2974	0.0140288
2986	0.0088416
2998	0.0045568
3010	0.0013536
3022	0.0005056
3034	0.0003584
3046	0.0003104
3058	0.000304
3070	0.0003936
3082	0.0004128
3094	0.0003136
3106	0.0003104
3118	0.0002848
3130	0.0002816
3142	0.0002016
3154	0.0002592
3166	0.000272
3178	0.0002688
3190	0.0002208
3202	0.000144
3214	0.0001152
3226	7.04e-05
3238	9.6e-05
3250	6.08e-05
3262	0.0001152
3274	9.92e-05
3286	0.000128
3298	9.6e-05
3310	0.0001024
3322	8.64e-05
3334	8.64e-05
3346	5.12e-05
3358	7.04e-05
3370	0.0001152
3382	0.0001088
3394	3.52e-05
3406	0.0001024
3418	0.0001312
3430	5.76e-05
3442	9.6e-05
3454	8.64e-05
3466	6.08e-05
3478	6.08e-05
3490	6.4e-05
3502	8.96e-05
3514	5.76e-05
3526	6.4e-05
3538	4.8e-05
3550	4.48e-05
3562	5.12e-05
3574	3.52e-05
3586	6.08e-05
3598	4.8e-05
3610	4.16e-05
3622	3.52e-05
3634	7.04e-05
3646	7.04e-05
3658	2.24e-05
3670	5.12e-05
3682	5.44e-05
3694	2.88e-05
3706	6.4e-05
3718	8.64e-05
3730	6.08e-05
3742	7.68e-05
3754	8e-05
3766	0.0001248
3778	8.96e-05
3790	0.0001408
3802	0.0001056
3814	9.92e-05
3826	9.6e-05
3838	0.0001056
