Infrared Spectrum: 1-Octadecanesulphonyl chloride
Formula: C 18 H 37 Cl O 2 S
CAS: 10147-41-8
State: gas
Origin: EPA-IR VAPOR PHASE LIBRARY
1/CM	ABSORBANCE
549.9	0.000278
559.547	0.000213
569.193	0.000175
578.84	0.000227
588.486	0.00032
598.133	0.000293
607.779	0.000391
617.426	0.000419
627.072	0.000406
636.719	0.000413
646.365	0.0006226
656.012	0.0007793
665.658	0.0008324
675.305	0.00054458
684.951	0.0005049
694.598	0.0006312
704.245	0.0007897
713.891	0.0010843
723.538	0.0012509
733.184	0.0013457
742.831	0.0012843
752.477	0.0010374
762.124	0.0009066
771.77	0.0007999
781.417	0.0007597
791.063	0.0006596
800.71	0.00062192
810.356	0.0005168
820.003	0.00061018
829.649	0.0004673
839.296	0.0004629
848.943	0.0005231
858.589	0.000493
868.236	0.00054401
877.882	0.00057339
887.529	0.0005045
897.175	0.000552855
906.822	0.0005095
916.468	0.0005244
926.115	0.0005261
935.761	0.0005061
945.408	0.0004857
955.054	0.0004871
964.701	0.0005351
974.347	0.0005155
983.994	0.000486
993.64	0.0005327
1003.29	0.0004908
1012.93	0.000489
1022.58	0.0004572
1032.23	0.0004614
1041.87	0.0005009
1051.52	0.0004984
1061.17	0.0004979
1070.81	0.0004638
1080.46	0.000373
1090.11	0.000348
1099.75	0.000377
1109.4	0.000242
1119.05	0.000299
1128.69	0.000248
1138.34	0.000248
1147.99	0.000208
1157.63	0.000299
1167.28	0.000234
1176.92	0.000241
1186.57	0.000227
1196.22	9.4e-05
1205.86	0.000185
1215.51	9.3e-05
1225.16	0.000274
1234.8	0.000338
1244.45	0.00053889
1254.1	0.0006893
1263.74	0.0006853
1273.39	0.0009298
1283.04	0.001101
1292.68	0.0013303
1302.33	0.0014273
1311.98	0.001333
1321.62	0.0011578
1331.27	0.0010093
1340.92	0.0011381
1350.56	0.0013243
1360.21	0.0011789
1369.86	0.0010208
1379.5	0.0008721
1389.15	0.0007333
1398.79	0.00060575
1408.44	0.00063561
1418.09	0.0006995
1427.73	0.0008236
1437.38	0.0011954
1447.03	0.002038
1456.67	0.002648
1466.32	0.002568
1475.97	0.0014511
1485.61	0.000875
1495.26	0.000653
1504.91	0.00056201
1514.55	0.0004763
1524.2	0.0004867
1533.85	0.000438
1543.49	0.00044
1553.14	0.0004672
1562.79	0.000446
1572.43	0.0004966
1582.08	0.0004587
1591.73	0.000422
1601.37	0.0004772
1611.02	0.0005112
1620.67	0.000447
1630.31	0.0004716
1639.96	0.0004759
1649.6	0.0004567
1659.25	0.0004698
1668.9	0.000415
1678.54	0.0005119
1688.19	0.0004715
1697.84	0.0005144
1707.48	0.0005358
1717.13	0.0004644
1726.78	0.0004709
1736.42	0.0004728
1746.07	0.000437
1755.72	0.0004632
1765.36	0.0005154
1775.01	0.0005164
1784.66	0.0005142
1794.3	0.0005247
1803.95	0.0005083
1813.6	0.000549065
1823.24	0.0005219
1832.89	0.0005328
1842.54	0.0005343
1852.18	0.00054018
1861.83	0.000554535
1871.47	0.00054451
1881.12	0.00056002
1890.77	0.00057086
1900.41	0.0005213
1910.06	0.0005352
1919.71	0.00057558
1929.35	0.00054183
1939	0.0005632
1948.65	0.000557802
1958.29	0.00057683
1967.94	0.00053871
1977.59	0.00058049
1987.23	0.000549708
1996.88	0.00057921
2006.53	0.00058892
2016.17	0.00060495
2025.82	0.000652
2035.47	0.0006652
2045.11	0.0006535
2054.76	0.000706
2064.41	0.00062508
2074.05	0.0006662
2083.7	0.0006726
2093.35	0.00063394
2102.99	0.0006678
2112.64	0.00064551
2122.28	0.0006515
2131.93	0.0006833
2141.58	0.0006866
2151.22	0.000713
2160.87	0.0007059
2170.52	0.0007011
2180.16	0.0007172
2189.81	0.0007244
2199.46	0.000692
2209.1	0.000686
2218.75	0.0006985
2228.4	0.0006879
2238.04	0.0007062
2247.69	0.0007173
2257.34	0.0007512
2266.98	0.0007041
2276.63	0.0007292
2286.28	0.0007535
2295.92	0.0007152
2305.57	0.0007132
2315.22	0.0006967
2324.86	0.0007304
2334.51	0.0007523
2344.16	0.0007964
2353.8	0.0007566
2363.45	0.0007817
2373.09	0.000736
2382.74	0.0007412
2392.39	0.0007619
2402.03	0.0007768
2411.68	0.0007761
2421.33	0.0007831
2430.97	0.000798
2440.62	0.0007565
2450.27	0.0007464
2459.91	0.0008034
2469.56	0.0008036
2479.21	0.0008654
2488.85	0.0008034
2498.5	0.0008279
2508.15	0.0008092
2517.79	0.0008837
2527.44	0.0008642
2537.09	0.0008969
2546.73	0.0008956
2556.38	0.0008948
2566.03	0.0009242
2575.67	0.000954
2585.32	0.0009294
2594.96	0.0009708
2604.61	0.0010515
2614.26	0.0009381
2623.9	0.0010373
2633.55	0.0010218
2643.2	0.0010688
2652.84	0.0010795
2662.49	0.0011143
2672.14	0.001087
2681.78	0.0011695
2691.43	0.0012007
2701.08	0.0011876
2710.72	0.0011199
2720.37	0.0012112
2730.02	0.0012033
2739.66	0.0011675
2749.31	0.00118
2758.96	0.0012189
2768.6	0.0012633
2778.25	0.0013418
2787.9	0.0014921
2797.54	0.001608
2807.19	0.001658
2816.84	0.001988
2826.48	0.002448
2836.13	0.003078
2845.77	0.004848
2855.42	0.009948
2865.07	0.013318
2874.71	0.009168
2884.36	0.007098
2894.01	0.007008
2903.65	0.009488
2913.3	0.014108
2922.95	0.024578
2932.59	0.035688
2942.24	0.025388
2951.89	0.013688
2961.53	0.009978
2971.18	0.007738
2980.83	0.004778
2990.47	0.003468
3000.12	0.003008
3009.77	0.002088
3019.41	0.001748
3029.06	0.001455
3038.71	0.0013761
3048.35	0.0012305
3058	0.0011991
3067.64	0.0010134
3077.29	0.0009466
3086.94	0.0009317
3096.58	0.0009508
3106.23	0.0009422
3115.88	0.0008037
3125.52	0.000785
3135.17	0.0006953
3144.82	0.0007053
3154.46	0.0007396
3164.11	0.0006661
3173.76	0.000548607
3183.4	0.0007101
3193.05	0.0005163
3202.7	0.0004882
3212.34	0.000372
3221.99	0.000456
3231.64	0.000366
3241.28	0.000328
3250.93	0.0005238
3260.58	0.0005144
3270.22	0.000262
3279.87	0.00029
3289.52	0.000155
3299.16	0.000314
3308.81	0.000281
3318.45	0.000175
3328.1	0.000107
3337.75	1e-06
3347.39	0.000308
3357.04	0.00017
3366.69	0.000231
3376.33	0.000188
3385.98	0.000266
3395.63	0.000139
3405.27	7e-05
3414.92	5.3e-05
3424.57	1.8e-05
3434.21	0.000133
3443.86	0.000203
3453.51	0.000121
3463.15	0.000109
3472.8	3.6e-05
3482.45	5e-05
3492.09	0.000205
3501.74	0.000203
3511.39	0.000168
3521.03	6.2e-05
3530.68	0.000114
3540.33	0.000135
3549.97	0.000133
3559.62	0.000153
3569.26	0.000254
3578.91	0.000188
3588.56	0.000158
3598.2	0.000301
3607.85	0.000217
3617.5	0.000163
3627.14	0.000179
3636.79	0.000271
3646.44	0.000169
3656.08	0.000182
3665.73	0.000206
3675.38	0.00027
3685.02	0.000232
3694.67	0.000159
3704.32	0.000307
3713.96	0.000292
3723.61	0.000328
3733.26	0.0003
3742.9	0.000272
3752.55	0.000261
3762.2	0.000333
3771.84	0.00038
3781.49	0.000357
3791.13	0.000295
3800.78	0.000302
3810.43	0.000263
3820.07	0.000348
3829.72	0.000395
3839.37	0.000383
3849.01	0.000375
3858.66	0.00037
3868.31	0.0004668
3877.95	0.000382
3887.6	0.000313
3897.25	0.000415
3906.89	0.000389
3916.54	0.0004946
3926.19	0.0004687
3935.83	0.000547575
3945.48	0.000321
3955.13	0.000394
3964.77	0.000355
3974.42	0.0004704
3984.07	0.00059605
3993.71	0.0005113
