Infrared Spectrum: Simetryn
Formula: C 8 H 15 N 5 S
CAS: 1014-70-6
State: gas
Instrument: HP-GC/MS/IRD
Origin: NIST Mass Spectrometry Data Center
1/CM	ABSORBANCE
550	0.0029415
562	0.0011607
574	0.0008745
586	0.0006201
598	0.0005406
610	0.0005565
622	0.0004452
634	0.0004134
646	0.0003339
658	0.0003975
670	0.0004293
682	0.0002385
694	0.0002226
706	0.0002385
718	0.000159
730	0.0001749
742	3.18e-05
754	6.36e-05
766	0.0001431
778	0.0005724
790	0.0012879
802	0.0030687
814	0.0061851
826	0.0020829
838	0.0014946
850	0.0021306
862	0.0031164
874	0.0034185
886	0.0040068
898	0.0035298
910	0.0024804
922	0.0027507
934	0.0042453
946	0.0044361
958	0.0034503
970	0.0047064
982	0.0046905
994	0.0024804
1006	0.0019875
1018	0.0018603
1030	0.0016854
1042	0.00159
1054	0.0019875
1066	0.0029256
1078	0.0028302
1090	0.0025281
1102	0.0029574
1114	0.0034026
1126	0.004293
1138	0.0089676
1150	0.0130221
1162	0.0072663
1174	0.0054219
1186	0.003498
1198	0.0043884
1210	0.0061056
1222	0.0056445
1234	0.0050721
1246	0.0071868
1258	0.0133242
1270	0.0136581
1282	0.0096513
1294	0.0124974
1306	0.0208608
1318	0.0223236
1330	0.0291129
1342	0.0393366
1354	0.0268869
1366	0.0178239
1378	0.0255354
1390	0.020034
1402	0.0201771
1414	0.0183168
1426	0.0129585
1438	0.013992
1450	0.0172992
1462	0.0202566
1474	0.0254559
1486	0.0330084
1498	0.0449334
1510	0.0463008
1522	0.0456966
1534	0.0686721
1546	0.12809
1558	0.159
1570	0.134689
1582	0.0746346
1594	0.0297012
1606	0.0133878
1618	0.0079659
1630	0.0054855
1642	0.0038319
1654	0.0028461
1666	0.0023373
1678	0.0020193
1690	0.001749
1702	0.0013833
1714	0.0010017
1726	0.0007473
1738	0.0006042
1750	0.000477
1762	0.0004134
1774	0.0003339
1786	0.0002862
1798	0.0003021
1810	0.0003339
1822	0.000318
1834	0.0003339
1846	0.0003657
1858	0.0004134
1870	0.0003975
1882	0.0003816
1894	0.0003339
1906	0.0002862
1918	0.0001908
1930	0.0001272
1942	0.0001113
1954	7.95e-05
1966	7.95e-05
1978	9.54e-05
1990	9.54e-05
2002	0.0001113
2014	6.36e-05
2026	7.95e-05
2038	9.54e-05
2050	6.36e-05
2062	6.36e-05
2074	3.18e-05
2086	4.77e-05
2098	9.54e-05
2110	0.0001272
2122	4.77e-05
2134	3.18e-05
2146	4.77e-05
2158	3.18e-05
2170	3.18e-05
2182	4.77e-05
2194	7.95e-05
2206	0.0001272
2218	0.0001272
2230	0.0002226
2242	0.0001908
2254	0.000159
2266	0.000159
2278	0.0001908
2290	0.0002226
2302	0.0001749
2314	0.000159
2326	0.0001908
2338	0.0002544
2350	0.0003339
2362	0.0003339
2374	0.0002703
2386	0.0002385
2398	0.0001908
2410	0.0002226
2422	0.0002385
2434	0.0002544
2446	0.0003657
2458	0.0003816
2470	0.0004452
2482	0.0004929
2494	0.0004611
2506	0.0004452
2518	0.0003339
2530	0.0002862
2542	0.0002703
2554	0.0002385
2566	0.0001749
2578	0.0001908
2590	0.0001431
2602	0.0001113
2614	0.0001113
2626	7.95e-05
2638	4.77e-05
2650	6.36e-05
2662	9.54e-05
2674	0.0001431
2686	0.000159
2698	0.0002067
2710	0.0002544
2722	0.0002862
2734	0.0003657
2746	0.0004452
2758	0.0004611
2770	0.0004611
2782	0.0004929
2794	0.0006042
2806	0.0006996
2818	0.000795
2830	0.0010971
2842	0.0014469
2854	0.0018444
2866	0.0028143
2878	0.0047223
2890	0.0057081
2902	0.0051993
2914	0.0060102
2926	0.0087291
2938	0.0150096
2950	0.0102555
2962	0.007473
2974	0.01113
2986	0.0110982
2998	0.006201
3010	0.0034344
3022	0.001908
3034	0.0011607
3046	0.0008268
3058	0.0006837
3070	0.0006201
3082	0.0006042
3094	0.0006519
3106	0.0007155
3118	0.0006519
3130	0.0005565
3142	0.0004611
3154	0.000318
3166	0.0002544
3178	0.000159
3190	0.0001272
3202	3.18e-05
3214	9.54e-05
3226	6.36e-05
3238	4.77e-05
3250	0
3262	1.59e-05
3274	1.59e-05
3286	0
3298	9.54e-05
3310	1.59e-05
3322	1.59e-05
3334	6.36e-05
3346	3.18e-05
3358	4.77e-05
3370	0.0001113
3382	9.54e-05
3394	0.0001749
3406	0.0002544
3418	0.000477
3430	0.0010176
3442	0.0028302
3454	0.0080295
3466	0.0096195
3478	0.0038637
3490	0.0011925
3502	0.0005724
3514	0.0005088
3526	0.0003339
3538	0.0002226
3550	0.0002385
3562	0.000159
3574	0.0001749
3586	0.0001749
3598	0.0001908
3610	0.0002067
3622	0.0002385
3634	0.0001908
3646	0.0001908
3658	0.0002067
3670	0.0002385
3682	0.0002226
3694	0.0002067
3706	0.0002544
3718	0.0001749
3730	0.0002226
3742	0.0002226
3754	0.0002544
3766	0.0001908
3778	0.0001908
3790	0.0002226
3802	0.0002385
3814	0.0002385
3826	0.0002067
3838	0.000159
