Infrared Spectrum: 1,3-Ditertiarybutylbenzene
Formula: C 14 H 22
CAS: 1014-60-4
State: gas
Instrument: HP-GC/MS/IRD
Origin: NIST Mass Spectrometry Data Center
1/CM	ABSORBANCE
550	4.06e-05
562	0
574	9.86e-05
586	9.86e-05
598	0.0001102
610	8.7e-05
622	0.0001102
634	8.7e-05
646	0.0001044
658	0.0002088
670	0.0003596
682	0.0007192
694	0.003422
706	0.0067048
718	0.0025868
730	0.0006264
742	0.0002958
754	0.0003712
766	0.0005336
778	0.001943
790	0.0042862
802	0.001885
814	0.0004292
826	0.0003132
838	0.0002378
850	0.000261
862	0.0005974
874	0.0026448
886	0.0031262
898	0.0013456
910	0.0007772
922	0.0007598
934	0.0006032
946	0.0003132
958	0.0002088
970	0.000203
982	0.0002088
994	0.0002262
1006	0.0003016
1018	0.0003538
1030	0.00029
1042	0.0002726
1054	0.000261
1066	0.000319
1078	0.0007134
1090	0.0017226
1102	0.0016008
1114	0.0008236
1126	0.0004698
1138	0.0004234
1150	0.0003828
1162	0.0004176
1174	0.000812
1186	0.001334
1198	0.0021808
1210	0.001711
1222	0.0015776
1234	0.0037468
1246	0.0091988
1258	0.0059102
1270	0.0021692
1282	0.0013862
1294	0.000725
1306	0.0004582
1318	0.0004408
1330	0.0005916
1342	0.001305
1354	0.0036946
1366	0.0069252
1378	0.0050054
1390	0.0040368
1402	0.004176
1414	0.003161
1426	0.0024882
1438	0.0020358
1450	0.003045
1462	0.0048662
1474	0.0068962
1486	0.0093206
1498	0.0046632
1510	0.0012528
1522	0.000754
1534	0.0006786
1546	0.0006554
1558	0.000754
1570	0.0013804
1582	0.0027666
1594	0.0058696
1606	0.005133
1618	0.0014326
1630	0.0006902
1642	0.0003364
1654	0.0002726
1666	0.0002842
1678	0.000435
1690	0.0004872
1702	0.0002784
1714	0.0002494
1726	0.0002204
1738	0.0002436
1750	0.0002842
1762	0.0003422
1774	0.0003886
1786	0.0004176
1798	0.0003422
1810	0.0001914
1822	0.000145
1834	0.0001392
1846	0.0002784
1858	0.0005336
1870	0.0003364
1882	0.0001682
1894	0.0001508
1906	0.0001508
1918	0.000261
1930	0.0004466
1942	0.0002842
1954	0.000116
1966	5.8e-05
1978	3.48e-05
1990	2.9e-05
2002	3.48e-05
2014	4.64e-05
2026	6.38e-05
2038	5.22e-05
2050	3.48e-05
2062	2.9e-05
2074	1.74e-05
2086	2.9e-05
2098	2.9e-05
2110	3.48e-05
2122	1.74e-05
2134	1.74e-05
2146	1.16e-05
2158	2.9e-05
2170	1.16e-05
2182	2.9e-05
2194	5.8e-05
2206	2.9e-05
2218	0
2230	3.48e-05
2242	1.74e-05
2254	3.48e-05
2266	4.06e-05
2278	4.64e-05
2290	7.54e-05
2302	6.38e-05
2314	4.06e-05
2326	3.48e-05
2338	2.9e-05
2350	6.96e-05
2362	0.0001044
2374	0.000116
2386	0.0001276
2398	9.28e-05
2410	5.8e-05
2422	5.8e-05
2434	8.12e-05
2446	6.96e-05
2458	5.8e-05
2470	2.9e-05
2482	4.06e-05
2494	8.12e-05
2506	6.96e-05
2518	2.9e-05
2530	7.54e-05
2542	9.28e-05
2554	0.0001682
2566	0.0001624
2578	0.0001682
2590	0.0001682
2602	0.0001218
2614	0.0001276
2626	0.0001508
2638	0.000203
2650	0.0002262
2662	0.0002436
2674	0.0002668
2686	0.0002668
2698	0.0003132
2710	0.0004002
2722	0.0005162
2734	0.0005046
2746	0.0004988
2758	0.0004814
2770	0.0004524
2782	0.0005394
2794	0.0006554
2806	0.000783
2818	0.0010034
2830	0.0013282
2842	0.001914
2854	0.0036772
2866	0.0080388
2878	0.0117392
2890	0.0115304
2902	0.0130152
2914	0.0156716
2926	0.0153236
2938	0.0165764
2950	0.0272832
2962	0.0529656
2974	0.0481342
2986	0.016994
2998	0.0056202
3010	0.002697
3022	0.0025984
3034	0.0029058
3046	0.0031378
3058	0.0042572
3070	0.0054404
3082	0.0045994
3094	0.0023374
3106	0.0016878
3118	0.00116
3130	0.0007424
3142	0.000609
3154	0.00058
3166	0.0006032
3178	0.0006438
3190	0.0006264
3202	0.0005916
3214	0.0005046
3226	0.0004988
3238	0.0004582
3250	0.0004002
3262	0.0003306
3274	0.0003074
3286	0.0003016
3298	0.0002436
3310	0.0001972
3322	0.0001682
3334	0.0001334
3346	0.0001044
3358	0.0001624
3370	0.0001798
3382	9.28e-05
3394	0.000116
3406	5.8e-05
3418	0.000116
3430	6.96e-05
3442	6.38e-05
3454	6.38e-05
3466	5.22e-05
3478	7.54e-05
3490	8.12e-05
3502	9.28e-05
3514	8.12e-05
3526	1.74e-05
3538	3.48e-05
3550	5.8e-06
3562	4.06e-05
3574	1.74e-05
3586	5.8e-05
3598	5.8e-05
3610	5.22e-05
3622	5.8e-06
3634	5.22e-05
3646	5.8e-05
3658	2.9e-05
3670	6.38e-05
3682	2.32e-05
3694	7.54e-05
3706	4.06e-05
3718	8.7e-05
3730	8.12e-05
3742	0.0001102
3754	6.96e-05
3766	8.12e-05
3778	0.000116
3790	8.7e-05
3802	6.96e-05
3814	0.0001392
3826	9.86e-05
3838	0.000116
