Infrared Spectrum: 1-Dodecanesulphonyl chloride
Formula: C 12 H 25 Cl O 2 S
CAS: 10147-40-7
State: gas
Origin: EPA-IR VAPOR PHASE LIBRARY
1/CM	ABSORBANCE
549.9	0.00432
559.547	0.00536
569.193	0.00751
578.84	0.01005
588.486	0.0095
598.133	0.00643
607.779	0.00368
617.426	0.0023257
627.072	0.0018521
636.719	0.0016867
646.365	0.0018668
656.012	0.0021076
665.658	0.00271
675.305	0.0042
684.951	0.007
694.598	0.01017
704.245	0.01235
713.891	0.01261
723.538	0.01314
733.184	0.01578
742.831	0.01951
752.477	0.0223
762.124	0.02598
771.77	0.0267
781.417	0.02189
791.063	0.02025
800.71	0.01832
810.356	0.01652
820.003	0.014
829.649	0.01042
839.296	0.00785
848.943	0.00595
858.589	0.00466
868.236	0.00386
877.882	0.00351
887.529	0.0034
897.175	0.00341
906.822	0.00339
916.468	0.00357
926.115	0.00398
935.761	0.00477
945.408	0.0059
955.054	0.00783
964.701	0.0112
974.347	0.0181
983.994	0.03213
993.64	0.05396
1003.29	0.06979
1012.93	0.05805
1022.58	0.03451
1032.23	0.01875
1041.87	0.0111
1051.52	0.00734
1061.17	0.00546
1070.81	0.00441
1080.46	0.00377
1090.11	0.00324
1099.75	0.00302
1109.4	0.00299
1119.05	0.003
1128.69	0.00329
1138.34	0.00454
1147.99	0.00823
1157.63	0.01741
1167.28	0.0375
1176.92	0.0509
1186.57	0.03707
1196.22	0.01865
1205.86	0.00993
1215.51	0.00668
1225.16	0.0056
1234.8	0.00536
1244.45	0.00536
1254.1	0.00528
1263.74	0.00525
1273.39	0.00495
1283.04	0.00493
1292.68	0.00541
1302.33	0.00605
1311.98	0.00682
1321.62	0.0077
1331.27	0.00973
1340.92	0.01519
1350.56	0.02547
1360.21	0.04004
1369.86	0.05803
1379.5	0.06363
1389.15	0.04575
1398.79	0.02279
1408.44	0.01221
1418.09	0.00857
1427.73	0.00649
1437.38	0.00685
1447.03	0.00979
1456.67	0.01375
1466.32	0.01387
1475.97	0.00868
1485.61	0.00506
1495.26	0.00357
1504.91	0.00284
1514.55	0.0024075
1524.2	0.0021751
1533.85	0.0019498
1543.49	0.0018223
1553.14	0.0016225
1562.79	0.00149526
1572.43	0.0014224
1582.08	0.00133
1591.73	0.001168
1601.37	0.001142
1611.02	0.001003
1620.67	0.001075
1630.31	0.00096
1639.96	0.000936
1649.6	0.000933
1659.25	0.000968
1668.9	0.001005
1678.54	0.001057
1688.19	0.001166
1697.84	0.001232
1707.48	0.001268
1717.13	0.00125
1726.78	0.001173
1736.42	0.001131
1746.07	0.00111
1755.72	0.001127
1765.36	0.001059
1775.01	0.001047
1784.66	0.000991
1794.3	0.000934
1803.95	0.000884
1813.6	0.000912
1823.24	0.000923
1832.89	0.000834
1842.54	0.000872
1852.18	0.000816
1861.83	0.000807
1871.47	0.000848
1881.12	0.000869
1890.77	0.000829
1900.41	0.000827
1910.06	0.000811
1919.71	0.000863
1929.35	0.000879
1939	0.000879
1948.65	0.000929
1958.29	0.001023
1967.94	0.00094
1977.59	0.001049
1987.23	0.00105
1996.88	0.001105
2006.53	0.001154
2016.17	0.001181
2025.82	0.001119
2035.47	0.001083
2045.11	0.001066
2054.76	0.001054
2064.41	0.001058
2074.05	0.001008
2083.7	0.001022
2093.35	0.001012
2102.99	0.000963
2112.64	0.000995
2122.28	0.000955
2131.93	0.001022
2141.58	0.001034
2151.22	0.001061
2160.87	0.001058
2170.52	0.001079
2180.16	0.00104
2189.81	0.001069
2199.46	0.001039
2209.1	0.00107
2218.75	0.001011
2228.4	0.00104
2238.04	0.001035
2247.69	0.001042
2257.34	0.000984
2266.98	0.001032
2276.63	0.00102
2286.28	0.001045
2295.92	0.001018
2305.57	0.001055
2315.22	0.001027
2324.86	0.001123
2334.51	0.001158
2344.16	0.001245
2353.8	0.001207
2363.45	0.00115
2373.09	0.001074
2382.74	0.001156
2392.39	0.001043
2402.03	0.001059
2411.68	0.001048
2421.33	0.00111
2430.97	0.001079
2440.62	0.001072
2450.27	0.001098
2459.91	0.001001
2469.56	0.001122
2479.21	0.001086
2488.85	0.001123
2498.5	0.001203
2508.15	0.001279
2517.79	0.0014041
2527.44	0.00149366
2537.09	0.0015986
2546.73	0.0016378
2556.38	0.001535
2566.03	0.0014358
2575.67	0.0014291
2585.32	0.0014791
2594.96	0.0015691
2604.61	0.001614
2614.26	0.0017764
2623.9	0.0017707
2633.55	0.0017274
2643.2	0.0018588
2652.84	0.0019354
2662.49	0.0019473
2672.14	0.0022368
2681.78	0.002247
2691.43	0.0022044
2701.08	0.0020799
2710.72	0.0020329
2720.37	0.0021133
2730.02	0.0021222
2739.66	0.0023207
2749.31	0.0023675
2758.96	0.00248
2768.6	0.00252
2778.25	0.00285
2787.9	0.00334
2797.54	0.00401
2807.19	0.0047
2816.84	0.00595
2826.48	0.0076
2836.13	0.0106
2845.77	0.0177
2855.42	0.03718
2865.07	0.05281
2874.71	0.04026
2884.36	0.03143
2894.01	0.02899
2903.65	0.03729
2913.3	0.05704
2922.95	0.09738
2932.59	0.14006
2942.24	0.10726
2951.89	0.06852
2961.53	0.05883
2971.18	0.04647
2980.83	0.02569
2990.47	0.01572
3000.12	0.0107
3009.77	0.00844
3019.41	0.00703
3029.06	0.00592
3038.71	0.00476
3048.35	0.00409
3058	0.00336
3067.64	0.00299
3077.29	0.0025
3086.94	0.0024405
3096.58	0.0021677
3106.23	0.0018517
3115.88	0.0018179
3125.52	0.0015857
3135.17	0.0014254
3144.82	0.001252
3154.46	0.001297
3164.11	0.001163
3173.76	0.001076
3183.4	0.000851
3193.05	0.000727
3202.7	0.000802
3212.34	0.000749
3221.99	0.0003
3231.64	0.000559
3241.28	0.00033
3250.93	0.000498
3260.58	0.00045
3270.22	5e-05
3279.87	0.00041
3289.52	0.000518
3299.16	0.00043
3308.81	0.00022
3318.45	0.000499
3328.1	0.0003
3337.75	0.00033
3347.39	0.00037
3357.04	0.00046
3366.69	0.00025
3376.33	9e-05
3385.98	0.00036
3395.63	0.00027
3405.27	0.00022
3414.92	0.00035
3424.57	0.00011
3434.21	5e-05
3443.86	0.00015
3453.51	0.00017
3463.15	0.00015
3472.8	0.00027
3482.45	0.00027
3492.09	0.00012
3501.74	0.00034
3511.39	8e-05
3521.03	0.00014
3530.68	1e-05
3540.33	0.00026
3549.97	0.00028
3559.62	0.00033
3569.26	7e-05
3578.91	0.00037
3588.56	0.00024
3598.2	0.00033
3607.85	0.00035
3617.5	0.000578
3627.14	0.00045
3636.79	0.00039
3646.44	0.000524
3656.08	0.000586
3665.73	0.000483
3675.38	0.00037
3685.02	0.000474
3694.67	0.00034
3704.32	0.000466
3713.96	0.000679
3723.61	0.000626
3733.26	0.000583
3742.9	0.000663
3752.55	0.000619
3762.2	0.000708
3771.84	0.000685
3781.49	0.000762
3791.13	0.000694
3800.78	0.000853
3810.43	0.000865
3820.07	0.000757
3829.72	0.000873
3839.37	0.00076
3849.01	0.000767
3858.66	0.000852
3868.31	0.000724
3877.95	0.000845
3887.6	0.000715
3897.25	0.000957
3906.89	0.000798
3916.54	0.000896
3926.19	0.000774
3935.83	0.00097
3945.48	0.000958
3955.13	0.001069
3964.77	0.001004
3974.42	0.000941
3984.07	0.001037
3993.71	0.001059
