Infrared Spectrum: 2,6-Methano-1,4(2H)-benzoxazocin-5(6H)-one,4(3H)-cyclohexyl-6-phenyl-
Formula: C23 H25 N O2
CAS: 101501-17-1
State: SOLUTION 7% (CS2 FOR 7.5-15 microns, AND CCl4 FOR 2.5-7.5 microns)
Class: COBLENTZ III
Instrument: PERKIN-ELMER 21 (GRATING)
Instrument parameters: FILTER AT ABOUT 10 MICRONS
Path length: 0.01 CM
Resolution: 2
Origin: ABBOTT LABORATORIES
1/CM	TRANSMITTANCE
666	0.8169
675	0.8012
684	0.7803
693	0.5298
702	0.6212
711	0.7972
720	0.8088
729	0.7934
738	0.7365
747	0.4217
756	0.2651
765	0.7551
774	0.7639
783	0.7575
792	0.6589
801	0.7944
810	0.7926
819	0.7667
828	0.783
837	0.7897
846	0.7706
855	0.753
864	0.7974
873	0.756
882	0.6706
891	0.5511
900	0.75
909	0.6991
918	0.7656
927	0.7684
936	0.75
945	0.7742
954	0.754
963	0.6596
972	0.7636
981	0.7709
990	0.7302
999	0.6635
1008	0.6218
1017	0.7455
1026	0.6917
1035	0.5158
1044	0.7315
1053	0.665
1062	0.6435
1071	0.6064
1080	0.6772
1089	0.7301
1098	0.7255
1107	0.6851
1116	0.4739
1125	0.6686
1134	0.7077
1143	0.683
1152	0.6519
1161	0.4329
1170	0.5417
1179	0.4889
1188	0.4512
1197	0.4933
1206	0.3785
1215	0.331
1224	0.6058
1233	0.6318
1242	0.4512
1251	0.4907
1260	0.5367
1269	0.338
1278	0.232
1287	0.4291
1296	0.2927
1305	0.641
1314	0.6739
1323	0.67
1332	0.5681
1341	0.5687
1350	0.5852
1359	0.6126
1368	0.637
1377	0.6826
1386	0.6805
1395	0.6736
1404	0.6611
1413	0.5878
1422	0.4858
1431	0.4771
1440	0.2978
1449	0.2705
1458	0.5054
1467	0.3584
1476	0.2878
1485	0.4868
1494	0.5808
1503	0.7168
1512	0.7368
1521	0.7405
1530	0.7332
1539	0.7208
1548	0.6976
1557	0.6786
1566	0.6396
1575	0.5732
1584	0.5788
1593	0.5928
1602	0.4744
1611	0.5416
1620	0.5423
1629	0.4576
1638	0.1896
1647	0.1359
1656	0.2039
1665	0.4821
1674	0.735
1683	0.7626
1692	0.7792
1701	0.7929
1710	0.8009
1719	0.8067
1728	0.8105
1737	0.813
1746	0.8147
1755	0.8159
1764	0.8168
1773	0.8177
1782	0.814
1791	0.8068
1800	0.8054
1809	0.8147
1818	0.8226
1827	0.8281
1836	0.8308
1845	0.83
1854	0.8273
1863	0.8237
1872	0.8254
1881	0.8285
1890	0.8245
1899	0.8205
1908	0.8265
1917	0.8285
1926	0.827
1935	0.8265
1944	0.8362
1953	0.8411
1962	0.8441
1971	0.8457
1980	0.8466
1989	0.8458
1998	0.8471
2007	0.8509
2016	0.8539
2025	0.856
2034	0.8571
2043	0.8573
2052	0.8575
2061	0.8577
2070	0.858
2079	0.8581
2088	0.8583
2097	0.8584
2106	0.8585
2115	0.859
2124	0.8596
2133	0.8602
2142	0.8609
2151	0.8615
2160	0.8621
2169	0.8627
2178	0.8634
2187	0.864
2196	0.8647
2205	0.8653
2214	0.8659
2223	0.8668
2232	0.8677
2241	0.8685
2250	0.8694
2259	0.8704
2268	0.8715
2277	0.8722
2286	0.8723
2295	0.8723
2304	0.8721
2313	0.8715
2322	0.8709
2331	0.8704
2340	0.8698
2349	0.8692
2358	0.8685
2367	0.8679
2376	0.8673
2385	0.8666
2394	0.866
2403	0.8654
2412	0.865
2421	0.8645
2430	0.864
2439	0.8636
2448	0.8631
2457	0.8627
2466	0.8622
2475	0.8619
2484	0.8616
2493	0.8612
2502	0.861
2511	0.8606
2520	0.8603
2529	0.86
2538	0.8596
2547	0.8591
2556	0.8588
2565	0.8583
2574	0.8579
2583	0.8577
2592	0.8576
2601	0.8575
2610	0.8574
2619	0.8587
2628	0.8606
2637	0.8619
2646	0.863
2655	0.864
2664	0.8646
2673	0.8651
2682	0.8652
2691	0.8647
2700	0.864
2709	0.863
2718	0.8618
2727	0.8598
2736	0.8561
2745	0.8508
2754	0.8447
2763	0.8379
2772	0.8304
2781	0.8213
2790	0.8105
2799	0.7962
2808	0.7715
2817	0.7014
2826	0.6271
2835	0.5644
2844	0.5789
2853	0.632
2862	0.6576
2871	0.6217
2880	0.5461
2889	0.471
2898	0.3963
2907	0.3223
2916	0.3058
2925	0.3049
2934	0.3643
2943	0.4775
2952	0.5901
2961	0.702
2970	0.7867
2979	0.7977
2988	0.7984
2997	0.7957
3006	0.7883
3015	0.774
3024	0.7636
3033	0.7615
3042	0.7622
3051	0.7642
3060	0.7783
3069	0.8022
3078	0.8259
3087	0.8511
3096	0.8662
3105	0.8731
3114	0.878
3123	0.8796
3132	0.8801
3141	0.88
3150	0.8799
3159	0.8798
3168	0.8797
3177	0.8793
3186	0.8791
3195	0.8788
3204	0.8785
3213	0.8783
3222	0.878
3231	0.8778
3240	0.8776
3249	0.8774
3258	0.8774
3267	0.8773
3276	0.8772
3285	0.8771
3294	0.8779
3303	0.8786
3312	0.8791
3321	0.8793
3330	0.8796
3339	0.8798
3348	0.8801
3357	0.8804
3366	0.8806
3375	0.8809
3384	0.8812
3393	0.8814
3402	0.8818
3411	0.8821
3420	0.8824
3429	0.8826
3438	0.8829
3447	0.8833
3456	0.8838
3465	0.8843
3474	0.8849
3483	0.8854
3492	0.886
3501	0.8865
3510	0.8871
3519	0.8876
3528	0.8882
3537	0.8888
3546	0.8894
3555	0.8901
3564	0.8907
3573	0.8913
3582	0.8919
3591	0.8919
3600	0.8919
3609	0.892
3618	0.892
3627	0.892
3636	0.8921
3645	0.8921
3654	0.8921
3663	0.8922
3672	0.8923
3681	0.8923
3690	0.8923
3699	0.8924
3708	0.8924
3717	0.8921
3726	0.8918
3735	0.8917
3744	0.8914
3753	0.8913
3762	0.891
3771	0.8907
3780	0.8903
3789	0.89
3798	0.8896
3807	0.8893
3816	0.8889
3825	0.8885
3834	0.8882
3843	0.8878
3852	0.8874
3861	0.8869
3870	0.8864
3879	0.886
3888	0.8856
3897	0.8852
3906	0.8849
3915	0.8846
3924	0.8842
3933	0.8839
3942	0.8836
3951	0.8833
3960	0.8829
3969	0.8826
3978	0.8823
3987	0.8821
3996	0.8818
