Infrared Spectrum: Benzyl methallyl sulphide
Formula: C 11 H 14 S
CAS: 101561-50-6
State: gas
Origin: EPA-IR VAPOR PHASE LIBRARY
1/CM	ABSORBANCE
549.9	0.002533
559.547	0.004853
569.193	0.004253
578.84	0.001953
588.486	0.0011931
598.133	0.0009173
607.779	0.00078358
617.426	0.0009979
627.072	0.0012348
636.719	0.001823
646.365	0.003303
656.012	0.005533
665.658	0.008833
675.305	0.013923
684.951	0.027413
694.598	0.059713
704.245	0.063353
713.891	0.035073
723.538	0.020953
733.184	0.016903
742.831	0.019473
752.477	0.021363
762.124	0.016273
771.77	0.009703
781.417	0.005643
791.063	0.004013
800.71	0.003863
810.356	0.004433
820.003	0.003993
829.649	0.003853
839.296	0.004133
848.943	0.003863
858.589	0.004843
868.236	0.007273
877.882	0.013713
887.529	0.036263
897.175	0.051023
906.822	0.029103
916.468	0.014353
926.115	0.008503
935.761	0.005423
945.408	0.003743
955.054	0.002973
964.701	0.002653
974.347	0.002543
983.994	0.002343
993.64	0.002673
1003.29	0.004003
1012.93	0.005203
1022.58	0.008623
1032.23	0.008803
1041.87	0.003633
1051.52	0.003903
1061.17	0.006273
1070.81	0.007023
1080.46	0.004313
1090.11	0.002573
1099.75	0.002243
1109.4	0.001783
1119.05	0.0014092
1128.69	0.0017505
1138.34	0.002503
1147.99	0.003453
1157.63	0.003783
1167.28	0.004243
1176.92	0.005193
1186.57	0.007593
1196.22	0.010143
1205.86	0.011083
1215.51	0.017273
1225.16	0.028113
1234.8	0.025033
1244.45	0.012343
1254.1	0.006723
1263.74	0.004873
1273.39	0.005903
1283.04	0.007823
1292.68	0.005873
1302.33	0.004143
1311.98	0.004033
1321.62	0.003983
1331.27	0.003623
1340.92	0.003723
1350.56	0.004443
1360.21	0.006413
1369.86	0.011383
1379.5	0.016513
1389.15	0.012553
1398.79	0.009633
1408.44	0.011533
1418.09	0.015473
1427.73	0.018403
1437.38	0.020673
1447.03	0.024093
1456.67	0.022863
1466.32	0.014293
1475.97	0.009063
1485.61	0.014243
1495.26	0.023733
1504.91	0.011083
1514.55	0.004143
1524.2	0.003313
1533.85	0.003383
1543.49	0.003333
1553.14	0.003353
1562.79	0.003863
1572.43	0.004433
1582.08	0.006093
1591.73	0.009773
1601.37	0.013173
1611.02	0.009933
1620.67	0.007623
1630.31	0.009463
1639.96	0.013443
1649.6	0.014673
1659.25	0.009223
1668.9	0.004713
1678.54	0.003033
1688.19	0.002073
1697.84	0.0016799
1707.48	0.0015822
1717.13	0.0014406
1726.78	0.001531
1736.42	0.0017021
1746.07	0.001863
1755.72	0.001913
1765.36	0.002043
1775.01	0.002883
1784.66	0.004753
1794.3	0.006653
1803.95	0.005223
1813.6	0.003243
1823.24	0.002133
1832.89	0.0015291
1842.54	0.0014051
1852.18	0.00159
1861.83	0.001913
1871.47	0.002173
1881.12	0.002153
1890.77	0.001923
1900.41	0.0013877
1910.06	0.0011868
1919.71	0.0015474
1929.35	0.002353
1939	0.003113
1948.65	0.003263
1958.29	0.002473
1967.94	0.0010519
1977.59	0.00077731
1987.23	0.0006964
1996.88	0.000606
2006.53	0.000624
2016.17	0.000609
2025.82	0.000591
2035.47	0.000601
2045.11	0.00056
2054.76	0.000481
2064.41	0.000462
2074.05	0.000448
2083.7	0.000429
2093.35	0.000381
2102.99	0.000421
2112.64	0.000375
2122.28	0.000352
2131.93	0.000312
2141.58	0.000287
2151.22	0.00034
2160.87	0.000283
2170.52	0.000319
2180.16	0.000369
2189.81	0.00043
2199.46	0.00041
2209.1	0.000344
2218.75	0.000401
2228.4	0.000447
2238.04	0.000468
2247.69	0.00047
2257.34	0.000459
2266.98	0.000408
2276.63	0.000396
2286.28	0.000397
2295.92	0.000525
2305.57	0.000585
2315.22	0.00084522
2324.86	0.0007255
2334.51	0.0006733
2344.16	0.0006652
2353.8	0.000567
2363.45	0.000509
2373.09	0.00045
2382.74	0.000307
2392.39	0.000399
2402.03	0.000357
2411.68	0.000362
2421.33	0.000385
2430.97	0.000322
2440.62	0.000354
2450.27	0.000346
2459.91	0.000332
2469.56	0.000336
2479.21	0.000262
2488.85	0.000221
2498.5	0.000198
2508.15	0.000275
2517.79	0.000237
2527.44	0.000205
2537.09	0.000159
2546.73	0.000124
2556.38	0.0002
2566.03	0.000187
2575.67	0.000291
2585.32	0.000308
2594.96	0.000427
2604.61	0.000473
2614.26	0.000542
2623.9	0.000614
2633.55	0.0007371
2643.2	0.0008197
2652.84	0.0009839
2662.49	0.0009751
2672.14	0.00074303
2681.78	0.000553
2691.43	0.000525
2701.08	0.000441
2710.72	0.000439
2720.37	0.0006
2730.02	0.0007338
2739.66	0.000917
2749.31	0.00077793
2758.96	0.0007467
2768.6	0.000939
2778.25	0.0013247
2787.9	0.001803
2797.54	0.002403
2807.19	0.003263
2816.84	0.004443
2826.48	0.005473
2836.13	0.006323
2845.77	0.007503
2855.42	0.008873
2865.07	0.010133
2874.71	0.011293
2884.36	0.013453
2894.01	0.018553
2903.65	0.027473
2913.3	0.040883
2922.95	0.046033
2932.59	0.036723
2942.24	0.032113
2951.89	0.031633
2961.53	0.024883
2971.18	0.024333
2980.83	0.031353
2990.47	0.024843
3000.12	0.017763
3009.77	0.015803
3019.41	0.020583
3029.06	0.032773
3038.71	0.034023
3048.35	0.023073
3058	0.027473
3067.64	0.047443
3077.29	0.052353
3086.94	0.041983
3096.58	0.023933
3106.23	0.013003
3115.88	0.007033
3125.52	0.003423
3135.17	0.001983
3144.82	0.0013305
3154.46	0.0011699
3164.11	0.0009666
3173.76	0.00080311
3183.4	0.000274
3193.05	0.000241
3202.7	0.000481
3212.34	0.00024
3221.99	0.000293
3231.64	0.000144
3241.28	0.000257
3250.93	0.000252
3260.58	9.4e-05
3270.22	0.000148
3279.87	0.000162
3289.52	0.000217
3299.16	0.000232
3308.81	0.00023
3318.45	0.000312
3328.1	0.000154
3337.75	0.000408
3347.39	0.000485
3357.04	0.000532
3366.69	0.000265
3376.33	0.000351
3385.98	0.000409
3395.63	0.000397
3405.27	0.000282
3414.92	0.000401
3424.57	0.000472
3434.21	0.000421
3443.86	0.0004
3453.51	0.000485
3463.15	0.00038
3472.8	0.000177
3482.45	0.000376
3492.09	0.000402
3501.74	0.000462
3511.39	0.00034
3521.03	0.000472
3530.68	0.000422
3540.33	0.000352
3549.97	0.000285
3559.62	0.000319
3569.26	0.000294
3578.91	0.000434
3588.56	0.000382
3598.2	0.000499
3607.85	0.000501
3617.5	0.0006804
3627.14	0.000584
3636.79	0.000756787
3646.44	0.0007413
3656.08	0.0006887
3665.73	0.000577
3675.38	0.000587
3685.02	0.000543
3694.67	0.000565
3704.32	0.0006692
3713.96	0.000606
3723.61	0.000438
3733.26	0.000497
3742.9	0.000481
3752.55	0.000398
3762.2	0.000481
3771.84	0.000483
3781.49	0.000524
3791.13	0.000538
3800.78	0.00054
3810.43	0.000437
3820.07	0.00057
3829.72	0.000605
3839.37	0.000516
3849.01	0.000598
3858.66	0.000623
3868.31	0.000606
3877.95	0.000543
3887.6	0.00052
3897.25	0.000553
3906.89	0.000468
3916.54	0.000499
3926.19	0.000506
3935.83	0.000559
3945.48	0.00057
3955.13	0.000533
3964.77	0.000465
3974.42	0.000565
3984.07	0.000651
3993.71	0.000602
