Infrared Spectrum: Fluoren-9-ol, 2-(diethylamino)-
Formula: C17 H19 N O
CAS: 101583-85-1
State: SOLID (SPLIT MULL), FLUOROLUBE FOR 3800-1330 CM^-^1, NUJOL FOR 1330-400 CM^-^1
Class: COBLENTZ III
Instrument: DOW KBr FOREPRISM-GRATING
Instrument parameters: BLAZED AT 3.5, 12.0, 20.0 MICRON AND CHANGED AT 5.0, 7.5, 14.9 MICRON
Sampling: TRANSMISSION
Resolution: 2
Origin: DOW CHEMICAL COMPANY
1/CM	TRANSMITTANCE
389	0.7403
398	0.7423
407	0.7467
416	0.7445
425	0.7398
434	0.738
443	0.7771
452	0.7913
461	0.8134
470	0.7832
479	0.724
488	0.8888
497	0.8843
506	0.885
515	0.8723
524	0.9068
533	0.8935
542	0.8592
551	0.7351
560	0.8386
569	0.7094
578	0.8892
587	0.8618
596	0.8148
605	0.8706
614	0.8207
623	0.8612
632	0.852
641	0.8387
650	0.8045
659	0.773
668	0.8131
677	0.806
686	0.7949
695	0.7825
704	0.7724
713	0.7454
722	0.6493
731	0.3848
740	0.2108
749	0.3837
758	0.6098
767	0.1337
776	0.3679
785	0.6871
794	0.5578
803	0.6221
812	0.2097
821	0.4698
830	0.7718
839	0.5413
848	0.7131
857	0.6664
866	0.714
875	0.7498
884	0.8009
893	0.7959
902	0.7899
911	0.7698
920	0.7418
929	0.7451
938	0.588
947	0.6631
956	0.7563
965	0.7376
974	0.734
983	0.7214
992	0.6339
1001	0.6524
1010	0.5822
1019	0.4199
1028	0.1788
1037	0.2068
1046	0.5513
1055	0.5993
1064	0.5231
1073	0.4899
1082	0.5671
1091	0.4547
1100	0.2736
1109	0.4989
1118	0.1633
1127	0.3168
1136	0.6503
1145	0.632
1154	0.629
1163	0.6042
1172	0.4764
1181	0.3806
1190	0.187
1199	0.1773
1208	0.3532
1217	0.5378
1226	0.4799
1235	0.4884
1244	0.42
1253	0.2749
1262	0.0898
1271	0.1517
1280	0.2633
1289	0.4793
1298	0.3377
1307	0.4224
1316	0.4329
1325	0.4761
1334	0.4083
1343	0.285
1352	0.1692
1361	0.067
1370	0.3131
1379	0.183
1388	0.3226
1397	0.1516
1406	0.5185
1415	0.5083
1424	0.4739
1433	0.3822
1442	0.2103
1451	0.1671
1460	0.0288
1469	0.065
1478	0.3413
1487	0.2992
1496	0.152
1505	0.063
1514	0.4663
1523	0.7527
1532	0.7704
1541	0.7563
1550	0.7206
1559	0.6419
1568	0.5145
1577	0.3689
1586	0.5178
1595	0.3785
1604	0.0842
1613	0.08
1622	0.2991
1631	0.7373
1640	0.8717
1649	0.8846
1658	0.8801
1667	0.8688
1676	0.8715
1685	0.8796
1694	0.8758
1703	0.8721
1712	0.8682
1721	0.8635
1730	0.8587
1739	0.8538
1748	0.8495
1757	0.8433
1766	0.8292
1775	0.819
1784	0.8105
1793	0.8032
1802	0.7986
1811	0.8025
1820	0.7995
1829	0.789
1838	0.7881
1847	0.7803
1856	0.7659
1865	0.7595
1874	0.7697
1883	0.7676
1892	0.7564
1901	0.7507
1910	0.7651
1919	0.7537
1928	0.732
1937	0.7508
1946	0.7577
1955	0.7546
1964	0.7508
1973	0.7457
1982	0.7402
1991	0.7357
2000	0.734
2009	0.7324
2018	0.7298
2027	0.7236
2036	0.717
2045	0.7095
2054	0.7047
2063	0.701
2072	0.6961
2081	0.6931
2090	0.6903
2099	0.6872
2108	0.6827
2117	0.6749
2126	0.669
2135	0.6654
2144	0.6593
2153	0.6527
2162	0.6463
2171	0.6394
2180	0.6321
2189	0.6265
2198	0.6211
2207	0.615
2216	0.6069
2225	0.5965
2234	0.5871
2243	0.5807
2252	0.5754
2261	0.571
2270	0.5667
2279	0.5629
2288	0.5605
2297	0.5582
2306	0.5583
2315	0.5586
2324	0.5602
2333	0.5604
2342	0.559
2351	0.5564
2360	0.5538
2369	0.5512
2378	0.5485
2387	0.5465
2396	0.5463
2405	0.5454
2414	0.5439
2423	0.5415
2432	0.5392
2441	0.5369
2450	0.5349
2459	0.5328
2468	0.5304
2477	0.5279
2486	0.5255
2495	0.523
2504	0.5204
2513	0.5176
2522	0.5147
2531	0.5121
2540	0.5095
2549	0.5069
2558	0.5038
2567	0.5002
2576	0.4957
2585	0.4911
2594	0.4864
2603	0.4812
2612	0.4755
2621	0.4697
2630	0.4649
2639	0.4589
2648	0.4527
2657	0.4455
2666	0.4346
2675	0.4197
2684	0.4098
2693	0.4052
2702	0.4038
2711	0.4032
2720	0.4035
2729	0.4022
2738	0.3987
2747	0.393
2756	0.3865
2765	0.3794
2774	0.3712
2783	0.3625
2792	0.353
2801	0.3423
2810	0.331
2819	0.3179
2828	0.3041
2837	0.2861
2846	0.2593
2855	0.2257
2864	0.1799
2873	0.1566
2882	0.1661
2891	0.1762
2900	0.1867
2909	0.1998
2918	0.1973
2927	0.1671
2936	0.1707
2945	0.2154
2954	0.2057
2963	0.1076
2972	0.0802
2981	0.1014
2990	0.2417
2999	0.311
3008	0.3087
3017	0.295
3026	0.2743
3035	0.2581
3044	0.2556
3053	0.2492
3062	0.2534
3071	0.2641
3080	0.2586
3089	0.2503
3098	0.2406
3107	0.229
3116	0.2127
3125	0.1967
3134	0.1813
3143	0.1649
3152	0.1479
3161	0.1309
3170	0.1163
3179	0.1028
3188	0.0956
3197	0.0941
3206	0.0959
3215	0.1016
3224	0.1104
3233	0.1198
3242	0.1326
3251	0.1494
3260	0.1638
3269	0.1835
3278	0.203
3287	0.223
3296	0.2443
3305	0.2658
3314	0.2861
3323	0.3023
3332	0.3153
3341	0.3265
3350	0.3363
3359	0.3446
3368	0.3522
3377	0.3571
3386	0.3612
3395	0.3638
3404	0.366
3413	0.3668
3422	0.3676
3431	0.3671
3440	0.3665
3449	0.3654
3458	0.3643
3467	0.3632
3476	0.3621
3485	0.361
3494	0.36
3503	0.359
3512	0.3581
3521	0.3571
3530	0.3562
3539	0.3553
3548	0.3543
3557	0.353
3566	0.3518
3575	0.3506
3584	0.3494
3593	0.3482
3602	0.3473
3611	0.3462
3620	0.3453
3629	0.3448
3638	0.3453
3647	0.3457
3656	0.3474
3665	0.3494
3674	0.3495
3683	0.3482
3692	0.3465
3701	0.3447
3710	0.3429
3719	0.3409
3728	0.3388
3737	0.3367
3746	0.3348
3755	0.3332
3764	0.3351
3773	0.3315
3782	0.3314
3791	0.3309
3800	0.3305
