Infrared Spectrum: 3,4,5-Trimethoxyphenyl isocyanate
Formula: C 10 H 11 N O 4
CAS: 1016-19-9
State: gas
Origin: EPA-IR VAPOR PHASE LIBRARY
1/CM	ABSORBANCE
549.8	0.00554
559.445	0.00638
569.09	0.01102
578.734	0.01367
588.379	0.01238
598.024	0.0158
607.669	0.02747
617.313	0.02333
626.958	0.01192
636.603	0.01179
646.248	0.01419
655.893	0.01516
665.537	0.01553
675.182	0.01538
684.827	0.01371
694.472	0.01054
704.116	0.00858
713.761	0.0075
723.406	0.00741
733.051	0.01
742.695	0.01319
752.34	0.00876
761.985	0.01057
771.63	0.02217
781.275	0.02339
790.919	0.00969
800.564	0.0077
810.209	0.01355
819.854	0.02545
829.498	0.02848
839.143	0.02902
848.788	0.02917
858.433	0.01944
868.078	0.01021
877.722	0.00693
887.367	0.00764
897.012	0.0097
906.657	0.01749
916.301	0.04331
925.946	0.07678
935.591	0.06164
945.236	0.02718
954.88	0.01545
964.525	0.01242
974.17	0.01393
983.815	0.01898
993.46	0.03159
1003.1	0.06584
1012.75	0.11057
1022.39	0.09099
1032.04	0.08299
1041.68	0.06081
1051.33	0.0337
1060.97	0.03283
1070.62	0.04535
1080.26	0.07257
1089.91	0.11334
1099.55	0.15035
1109.2	0.18757
1118.84	0.23191
1128.49	0.21814
1138.13	0.16667
1147.78	0.09565
1157.42	0.0528
1167.07	0.04765
1176.71	0.05943
1186.36	0.06083
1196	0.05882
1205.64	0.09343
1215.29	0.16011
1224.93	0.195
1234.58	0.17495
1244.22	0.13073
1253.87	0.08321
1263.51	0.05736
1273.16	0.04353
1282.8	0.03948
1292.45	0.04971
1302.09	0.06212
1311.74	0.0494
1321.38	0.0284
1331.03	0.0179
1340.67	0.01363
1350.32	0.01206
1359.96	0.01174
1369.61	0.01284
1379.25	0.01591
1388.9	0.02508
1398.54	0.05451
1408.18	0.12336
1417.83	0.17035
1427.47	0.16119
1437.12	0.09492
1446.76	0.07222
1456.41	0.09634
1466.05	0.12532
1475.7	0.11615
1485.34	0.10071
1494.99	0.1447
1504.63	0.21888
1514.28	0.18822
1523.92	0.08608
1533.57	0.04646
1543.21	0.03947
1552.86	0.04746
1562.5	0.07692
1572.15	0.14477
1581.79	0.21802
1591.44	0.20761
1601.08	0.16714
1610.73	0.11953
1620.37	0.0636
1630.01	0.03808
1639.66	0.02657
1649.3	0.01917
1658.95	0.01475
1668.59	0.01154
1678.24	0.00947
1687.88	0.00797
1697.53	0.00731
1707.17	0.00658
1716.82	0.00558
1726.46	0.00494
1736.11	0.00447
1745.75	0.00438
1755.4	0.00442
1765.04	0.00399
1774.69	0.00386
1784.33	0.0037
1793.98	0.0034
1803.62	0.00305
1813.27	0.00316
1822.91	0.00298
1832.55	0.00291
1842.2	0.00299
1851.84	0.00262
1861.49	0.00278
1871.13	0.00273
1880.78	0.00278
1890.42	0.00286
1900.07	0.00274
1909.71	0.00292
1919.36	0.00321
1929	0.00373
1938.65	0.00495
1948.29	0.00629
1957.94	0.00718
1967.58	0.00716
1977.23	0.00628
1986.87	0.00621
1996.52	0.0066
2006.16	0.00787
2015.81	0.0085
2025.45	0.00837
2035.1	0.007
2044.74	0.00614
2054.38	0.00596
2064.03	0.00622
2073.67	0.00641
2083.32	0.00767
2092.96	0.00872
2102.61	0.01073
2112.25	0.01373
2121.9	0.01751
2131.54	0.02138
2141.19	0.02629
2150.83	0.03166
2160.48	0.03617
2170.12	0.0413
2179.77	0.04955
2189.41	0.06218
2199.06	0.08136
2208.7	0.11025
2218.35	0.14183
2227.99	0.17873
2237.64	0.23987
2247.28	0.35413
2256.92	0.58456
2266.57	1.04884
2276.21	1.23452
2285.86	0.65763
2295.5	0.27811
2305.15	0.16827
2314.79	0.12683
2324.44	0.11706
2334.08	0.12324
2343.73	0.13091
2353.37	0.12471
2363.02	0.07334
2372.66	0.04067
2382.31	0.02987
2391.95	0.02598
2401.6	0.02346
2411.24	0.02012
2420.89	0.01762
2430.53	0.01643
2440.18	0.01352
2449.82	0.01029
2459.47	0.00803
2469.11	0.00657
2478.75	0.00551
2488.4	0.00492
2498.04	0.00463
2507.69	0.0042
2517.33	0.0044
2526.98	0.00415
2536.62	0.00409
2546.27	0.00359
2555.91	0.00327
2565.56	0.00302
2575.2	0.00325
2584.85	0.00329
2594.49	0.00398
2604.14	0.0041
2613.78	0.0042
2623.43	0.00373
2633.07	0.00363
2642.72	0.00435
2652.36	0.00492
2662.01	0.00533
2671.65	0.00482
2681.29	0.00476
2690.94	0.00441
2700.58	0.00394
2710.23	0.00414
2719.87	0.00425
2729.52	0.00442
2739.16	0.00422
2748.81	0.00405
2758.45	0.00429
2768.1	0.00466
2777.74	0.00526
2787.39	0.00628
2797.03	0.00767
2806.68	0.01074
2816.32	0.01659
2825.97	0.03018
2835.61	0.05245
2845.26	0.05046
2854.9	0.03833
2864.55	0.03393
2874.19	0.03489
2883.84	0.03852
2893.48	0.04159
2903.12	0.04428
2912.77	0.04845
2922.41	0.05544
2932.06	0.07346
2941.7	0.11399
2951.35	0.11809
2960.99	0.08453
2970.64	0.06621
2980.28	0.05348
2989.93	0.05237
2999.57	0.06651
3009.22	0.07056
3018.86	0.04371
3028.51	0.02434
3038.15	0.01798
3047.8	0.01471
3057.44	0.01334
3067.09	0.01223
3076.73	0.01185
3086.38	0.01056
3096.02	0.0085
3105.67	0.00691
3115.31	0.00542
3124.95	0.00409
3134.6	0.00358
3144.24	0.00384
3153.89	0.00381
3163.53	0.00359
3173.18	0.00433
3182.82	0.00538
3192.47	0.00666
3202.11	0.00723
3211.76	0.00417
3221.4	0.00345
3231.05	0.00207
3240.69	0.00113
3250.34	0.00161
3259.98	0.00151
3269.63	0.00165
3279.27	0.00121
3288.92	0.0008397
3298.56	0.00102
3308.21	0.00115
3317.85	0.00187
3327.49	0.00165
3337.14	0.00173
3346.78	0.00167
3356.43	0.00261
3366.07	0.00331
3375.72	0.0036
3385.36	0.00348
3395.01	0.0027
3404.65	0.00227
3414.3	0.00173
3423.94	0.00129
3433.59	0.00123
3443.23	0.00144
3452.88	0.00134
3462.52	0.00175
3472.17	0.00137
3481.81	0.00126
3491.46	0.000927
3501.1	0.00107
3510.75	0.00115
3520.39	0.00195
3530.04	0.00217
3539.68	0.00234
3549.32	0.00276
3558.97	0.00402
3568.61	0.00522
3578.26	0.00435
3587.9	0.00435
3597.55	0.00308
3607.19	0.00258
3616.84	0.00207
3626.48	0.00123
3636.13	0.00227
3645.77	0.00273
3655.42	0.00275
3665.06	0.00273
3674.71	0.00335
3684.35	0.00419
3694	0.00457
3703.64	0.00466
3713.29	0.00396
3722.93	0.00387
3732.58	0.00434
3742.22	0.00395
3751.86	0.00326
3761.51	0.0026
3771.15	0.00273
3780.8	0.00356
3790.44	0.00284
3800.09	0.00251
3809.73	0.00228
3819.38	0.0018
3829.02	0.00127
3838.67	0.0017
3848.31	0.00179
3857.96	0.00103
3867.6	0.0015
3877.25	0.00107
3886.89	0.0013
3896.54	0.0012
3906.18	0.000751
3915.83	0.00116
3925.47	0.000997
3935.12	0.0007945
3944.76	0.0009784
3954.41	0.00132
3964.05	0.00117
3973.69	0.00128
3983.34	0.00111
3992.98	0.00145
