Infrared Spectrum: 6-Nitroveratryl alcohol
Formula: C 9 H 11 N O 5
CAS: 1016-58-6
State: gas
Origin: EPA-IR VAPOR PHASE LIBRARY
1/CM	ABSORBANCE
549.8	0.00404
559.445	0.00352
569.09	0.00353
578.735	0.00394
588.38	0.00503
598.025	0.00602
607.67	0.00544
617.315	0.00478
626.96	0.00406
636.605	0.0042
646.251	0.00401
655.896	0.00408
665.541	0.00404
675.186	0.00336
684.831	0.00305
694.476	0.00249
704.121	0.00255
713.766	0.00316
723.411	0.00463
733.056	0.00613
742.701	0.00672
752.346	0.00728
761.991	0.00862
771.636	0.0105
781.281	0.01633
790.926	0.0234
800.571	0.01664
810.216	0.00796
819.861	0.00488
829.507	0.00473
839.152	0.00623
848.797	0.00883
858.442	0.00994
868.087	0.01073
877.732	0.01059
887.377	0.01146
897.022	0.01078
906.667	0.00686
916.312	0.00482
925.957	0.00509
935.602	0.00641
945.247	0.00935
954.892	0.01512
964.537	0.01733
974.182	0.01589
983.827	0.01494
993.472	0.01477
1003.12	0.01766
1012.76	0.02693
1022.41	0.04418
1032.05	0.05846
1041.7	0.04952
1051.34	0.03978
1060.99	0.06267
1070.63	0.07617
1080.28	0.0357
1089.92	0.01389
1099.57	0.0091
1109.21	0.00757
1118.86	0.00744
1128.5	0.0086
1138.15	0.01308
1147.79	0.02236
1157.44	0.03044
1167.08	0.03132
1176.73	0.03088
1186.37	0.02895
1196.02	0.02726
1205.66	0.03459
1215.31	0.04941
1224.95	0.05956
1234.6	0.05357
1244.24	0.03986
1253.89	0.04167
1263.53	0.06747
1273.18	0.11407
1282.82	0.13491
1292.47	0.10194
1302.11	0.0636
1311.76	0.04967
1321.4	0.05274
1331.05	0.07144
1340.69	0.09082
1350.34	0.08681
1359.98	0.06548
1369.63	0.04456
1379.27	0.03676
1388.92	0.03328
1398.56	0.02738
1408.21	0.01961
1417.85	0.01546
1427.5	0.01668
1437.14	0.02482
1446.79	0.02922
1456.43	0.02993
1466.08	0.03896
1475.73	0.03535
1485.37	0.03591
1495.02	0.06318
1504.66	0.10061
1514.31	0.10282
1523.95	0.11762
1533.6	0.15155
1543.24	0.10365
1552.89	0.05645
1562.53	0.04745
1572.18	0.04896
1581.82	0.0394
1591.47	0.02168
1601.11	0.01357
1610.76	0.01267
1620.4	0.01129
1630.05	0.00754
1639.69	0.0053
1649.34	0.00431
1658.98	0.00372
1668.63	0.00329
1678.27	0.00286
1687.92	0.00264
1697.56	0.00274
1707.21	0.00284
1716.85	0.00284
1726.5	0.00248
1736.14	0.00224
1745.79	0.00216
1755.43	0.00216
1765.08	0.0020156
1774.72	0.0018938
1784.37	0.0018867
1794.01	0.00174
1803.66	0.001704
1813.3	0.0016364
1822.95	0.0016174
1832.59	0.0015813
1842.24	0.0014286
1851.88	0.0013164
1861.53	0.0013067
1871.17	0.0012326
1880.82	0.00111365
1890.46	0.0010945
1900.11	0.0010906
1909.75	0.0010313
1919.4	0.0010444
1929.04	0.00112491
1938.69	0.0011603
1948.33	0.00117289
1957.98	0.001278
1967.62	0.0013765
1977.27	0.0015488
1986.91	0.0018642
1996.56	0.00219
2006.2	0.00247
2015.85	0.00258
2025.49	0.00267
2035.14	0.00264
2044.78	0.00264
2054.43	0.00256
2064.07	0.00252
2073.72	0.00217
2083.36	0.001831
2093.01	0.0015617
2102.65	0.0013846
2112.3	0.0012556
2121.94	0.00115868
2131.59	0.00101
2141.23	0.00103
2150.88	0.00089
2160.52	0.000837
2170.17	0.000805
2179.81	0.000844
2189.46	0.000969
2199.1	0.001006
2208.75	0.000965
2218.39	0.00093
2228.04	0.000955
2237.68	0.000951
2247.33	0.000976
2256.97	0.0010603
2266.62	0.0010527
2276.26	0.00110045
2285.91	0.00116783
2295.55	0.0012516
2305.2	0.0012689
2314.84	0.00119391
2324.49	0.001072
2334.13	0.0010333
2343.78	0.000994
2353.42	0.000922
2363.07	0.000941
2372.72	0.000975
2382.36	0.0010213
2392.01	0.0010564
2401.65	0.00110733
2411.3	0.00112641
2420.94	0.001099
2430.59	0.0010242
2440.23	0.0010199
2449.88	0.000995
2459.52	0.000937
2469.17	0.000905
2478.81	0.000858
2488.46	0.000848
2498.1	0.000923
2507.75	0.000939
2517.39	0.000956
2527.04	0.000983
2536.68	0.0010824
2546.33	0.0012224
2555.97	0.001282
2565.62	0.0014884
2575.26	0.0016969
2584.91	0.0018689
2594.55	0.00212
2604.2	0.00217
2613.84	0.00223
2623.49	0.0020708
2633.13	0.001929
2642.78	0.0017331
2652.42	0.0016447
2662.07	0.001428
2671.71	0.001563
2681.36	0.0012885
2691	0.0012353
2700.65	0.001004
2710.29	0.0010925
2719.94	0.0010717
2729.58	0.0012187
2739.23	0.00119503
2748.87	0.0014134
2758.52	0.0014356
2768.16	0.0016314
2777.81	0.0019141
2787.45	0.00226
2797.1	0.00269
2806.74	0.00329
2816.39	0.00446
2826.03	0.00676
2835.68	0.01034
2845.32	0.01485
2854.97	0.01801
2864.61	0.01546
2874.26	0.01159
2883.9	0.0115
2893.55	0.01356
2903.19	0.0148
2912.84	0.0163
2922.48	0.01821
2932.13	0.02196
2941.77	0.03327
2951.42	0.03645
2961.06	0.03075
2970.71	0.02558
2980.35	0.0172
2990	0.01325
2999.64	0.01421
3009.29	0.01987
3018.93	0.0181
3028.58	0.00853
3038.22	0.00512
3047.87	0.00402
3057.51	0.00341
3067.16	0.00318
3076.8	0.00342
3086.45	0.00367
3096.09	0.0037
3105.74	0.00272
3115.38	0.0017778
3125.03	0.0012831
3134.67	0.00111708
3144.32	0.000972
3153.96	0.000754
3163.61	0.000561
3173.25	0.000577
3182.9	0.000544
3192.54	0.000569
3202.19	0.000498
3211.83	0.000303
3221.48	0.0003
3231.12	0.00024
3240.77	0.000173
3250.41	0.000233
3260.06	8e-05
3269.7	0.000223
3279.35	0.0001
3289	0.000269
3298.64	0.00011
3308.29	0.000159
3317.93	9e-05
3327.58	0.000266
3337.22	0.000271
3346.87	4e-05
3356.51	0.000299
3366.16	0.000284
3375.8	0.000161
3385.45	0.000312
3395.09	0.00031
3404.74	0.000287
3414.38	0.000401
3424.03	0.00037
3433.67	0.000358
3443.32	0.000439
3452.96	0.000442
3462.61	0.000439
3472.25	0.000421
3481.9	0.000494
3491.54	0.000562
3501.19	0.000563
3510.83	0.000514
3520.48	0.000595
3530.12	0.000552
3539.77	0.000667
3549.41	0.000777
3559.06	0.000903
3568.7	0.000807
3578.35	0.000926
3587.99	0.0013008
3597.64	0.0016711
3607.28	0.00293
3616.93	0.00656
3626.57	0.00829
3636.22	0.0064
3645.86	0.00484
3655.51	0.00481
3665.15	0.00604
3674.8	0.00658
3684.44	0.00493
3694.09	0.00259
3703.73	0.0016138
3713.38	0.0013108
3723.02	0.0010767
3732.67	0.0010738
3742.31	0.000866
3751.96	0.000789
3761.6	0.00078
3771.25	0.000756
3780.89	0.000524
3790.54	0.000584
3800.18	0.000473
3809.83	0.000594
3819.47	0.000783
3829.12	0.000665
3838.76	0.000759
3848.41	0.00067
3858.05	0.000435
3867.7	0.000646
3877.34	0.000438
3886.99	0.000697
3896.63	0.000558
3906.28	0.000723
3915.92	0.000781
3925.57	0.000716
3935.21	0.000772
3944.86	0.000676
3954.5	0.000775
3964.15	0.000704
3973.79	0.000693
3983.44	0.000618
3993.08	0.000829
