Infrared Spectrum: BENZOPHENONE, 3-CHLORO-
Formula: C13 H9 Cl O
CAS: 1016-78-0
State: SOLID (KBr PELLET)
Class: COBLENTZ
Instrument: Not specified, most likely a prism, grating, or hybrid spectrometer.
Sampling: TRANSMISSION
Resolution: 4
Origin: TENNESSEE EASTMAN COMPANY, RESEARCH LABORATORIES
MICROMETERS	TRANSMITTANCE
2.014	0.544
2.05512	0.546
2.09624	0.547
2.13735	0.558
2.17847	0.573
2.21959	0.587
2.26071	0.598
2.30182	0.609
2.34294	0.617
2.38406	0.624
2.42518	0.629
2.46629	0.631
2.50741	0.655
2.54853	0.672
2.58965	0.679
2.63076	0.686
2.67188	0.689
2.713	0.697
2.75412	0.689
2.79524	0.665
2.83635	0.648
2.87747	0.631
2.91859	0.634
2.95971	0.679
3.00082	0.701
3.04194	0.701
3.08306	0.747
3.12418	0.762
3.16529	0.774
3.20641	0.776
3.24753	0.609
3.28865	0.74
3.32976	0.8
3.37088	0.812
3.412	0.822
3.45312	0.836
3.49424	0.851
3.53535	0.878
3.57647	0.892
3.61759	0.887
3.65871	0.899
3.69982	0.912
3.74094	0.918
3.78206	0.919
3.82318	0.919
3.86429	0.919
3.90541	0.921
3.94653	0.926
3.98765	0.941
4.02876	0.955
4.06988	0.96
4.111	0.959
4.15212	0.948
4.19324	0.959
4.23435	0.953
4.27547	0.94
4.31659	0.948
4.35771	0.972
4.39882	0.979
4.43994	0.962
4.48106	0.967
4.52218	0.972
4.56329	0.972
4.60441	0.97
4.64553	0.972
4.68665	0.976
4.72776	0.977
4.76888	0.977
4.81	0.979
4.85112	0.976
4.89224	0.97
4.93335	0.974
4.97447	0.977
5.01559	0.933
5.05671	0.912
5.09782	0.883
5.13894	0.947
5.18006	0.919
5.22118	0.912
5.26229	0.894
5.30341	0.962
5.34453	0.965
5.38565	0.953
5.42676	0.88
5.46788	0.907
5.509	0.952
5.55012	0.923
5.59124	0.868
5.63235	0.931
5.67347	0.93
5.71459	0.911
5.75571	0.858
5.79682	0.837
5.83794	0.82
5.87906	0.802
5.92018	0.829
5.96129	0.726
6.00241	0.189
6.04353	0.049
6.08465	0.25
6.12576	0.598
6.16688	0.595
6.208	0.616
6.24912	0.117
6.29024	0.401
6.33135	0.156
6.37247	0.213
6.41359	0.68
6.45471	0.796
6.49582	0.8
6.53694	0.832
6.57806	0.878
6.61918	0.889
6.66029	0.877
6.70141	0.872
6.74253	0.757
6.78365	0.725
6.82476	0.764
6.86588	0.36
6.907	0.476
6.94812	0.52
6.98924	0.156
7.03035	0.43
7.07147	0.47
7.11259	0.626
7.15371	0.802
7.19482	0.849
7.23594	0.856
7.27706	0.87
7.31818	0.885
7.35929	0.88
7.40041	0.837
7.44153	0.834
7.48265	0.803
7.52376	0.595
7.56488	0.117
7.606	0.087
7.64712	0.327
7.68824	0.372
7.72935	0.153
7.77047	0.027
7.81159	0.022
7.85271	0.02
7.89382	0.03
7.93494	0.119
7.97606	0.271
8.01718	0.498
8.05829	0.619
8.09941	0.728
8.14053	0.713
8.18165	0.725
8.22276	0.773
8.26388	0.781
8.305	0.795
8.34612	0.8
8.38724	0.757
8.42835	0.476
8.46947	0.689
8.51059	0.597
8.55171	0.621
8.59282	0.353
8.63394	0.385
8.67506	0.621
8.71618	0.745
8.75729	0.781
8.79841	0.798
8.83953	0.813
8.88065	0.824
8.92176	0.827
8.96288	0.82
9.004	0.817
9.04512	0.783
9.08624	0.691
9.12735	0.629
9.16847	0.619
9.20959	0.423
9.25071	0.184
9.29182	0.607
9.33294	0.761
9.37406	0.82
9.41518	0.841
9.45629	0.844
9.49741	0.854
9.53853	0.875
9.57965	0.88
9.62076	0.88
9.66188	0.819
9.703	0.761
9.74412	0.853
9.78524	0.865
9.82635	0.875
9.86747	0.882
9.90859	0.854
9.94971	0.638
9.99082	0.837
10.0319	0.849
10.0731	0.849
10.1142	0.709
10.1553	0.726
10.1964	0.728
10.2375	0.786
10.2786	0.767
10.3198	0.455
10.3609	0.197
10.402	0.392
10.4431	0.672
10.4842	0.776
10.5254	0.831
10.5665	0.849
10.6076	0.807
10.6487	0.709
10.6898	0.72
10.7309	0.771
10.7721	0.848
10.8132	0.872
10.8543	0.872
10.8954	0.883
10.9365	0.887
10.9776	0.882
11.0188	0.815
11.0599	0.668
11.101	0.269
11.1421	0.261
11.1832	0.752
11.2244	0.836
11.2655	0.887
11.3066	0.916
11.3477	0.926
11.3888	0.933
11.4299	0.933
11.4711	0.933
11.5122	0.933
11.5533	0.933
11.5944	0.924
11.6355	0.902
11.6766	0.904
11.7178	0.904
11.7589	0.885
11.8	0.901
11.8411	0.923
11.8822	0.931
11.9234	0.935
11.9645	0.935
12.0056	0.933
12.0467	0.928
12.0878	0.918
12.1289	0.904
12.1701	0.872
12.2112	0.793
12.2523	0.558
12.2934	0.24
12.3345	0.264
12.3756	0.677
12.4168	0.834
12.4579	0.89
12.499	0.901
12.5401	0.899
12.5812	0.856
12.6224	0.779
12.6635	0.605
12.7046	0.329
12.7457	0.112
12.7868	0.158
12.8279	0.566
12.8691	0.66
12.9102	0.552
12.9513	0.298
12.9924	0.117
13.0335	0.121
13.0746	0.329
13.1158	0.617
13.1569	0.732
13.198	0.791
13.2391	0.822
13.2802	0.834
13.3214	0.837
13.3625	0.837
13.4036	0.836
13.4447	0.817
13.4858	0.791
13.5269	0.744
13.5681	0.697
13.6092	0.629
13.6503	0.537
13.6914	0.416
13.7325	0.255
13.7736	0.131
13.8148	0.081
13.8559	0.068
13.897	0.063
13.9381	0.063
13.9792	0.126
14.0204	0.266
14.0615	0.433
14.1026	0.546
14.1437	0.576
14.1848	0.549
14.2259	0.436
14.2671	0.293
14.3082	0.175
14.3493	0.141
14.3904	0.177
14.4315	0.38
14.4726	0.598
14.5138	0.674
14.5549	0.66
14.596	0.493
14.6371	0.37
14.6782	0.262
14.7194	0.218
14.7605	0.223
14.8016	0.322
14.8427	0.47
14.8838	0.643
14.9249	0.72
14.9661	0.766
15.0072	0.803
15.0483	0.834
15.0894	0.861
15.1305	0.872
15.1716	0.88
15.2128	0.882
15.2539	0.883
15.295	0.883
15.3361	0.882
15.3772	0.873
15.4184	0.863
15.4595	0.849
15.5006	0.824
15.5417	0.774
15.5828	0.711
15.6239	0.607
15.6651	0.51
15.7062	0.47
15.7473	0.469
15.7884	0.481
15.8295	0.552
15.8706	0.602
15.9118	0.621
15.9529	0.638
15.994	0.639
