Infrared Spectrum: 1,3,5-CYCLOHEXANETRIOL, 2,2,4,4,6,6-HEXAMETHYL-, TRIISOBUTYRATE
Formula: C24 H42 O6
CAS: 101611-75-0
State: SOLID (KBr PELLET)
Class: COBLENTZ
Instrument: Not specified, most likely a prism, grating, or hybrid spectrometer.
Sampling: TRANSMISSION
Resolution: 4
Origin: TENNESSEE EASTMAN COMPANY, RESEARCH LABORATORIES
MICROMETERS	TRANSMITTANCE
2	0.929
2.04116	0.927
2.08232	0.924
2.12348	0.922
2.16464	0.922
2.2058	0.92
2.24696	0.903
2.28812	0.903
2.32928	0.903
2.37044	0.907
2.41161	0.908
2.45277	0.91
2.49393	0.914
2.53509	0.915
2.57625	0.915
2.61741	0.915
2.65857	0.914
2.69973	0.912
2.74089	0.891
2.78205	0.835
2.82321	0.8
2.86437	0.771
2.90553	0.75
2.94669	0.781
2.98785	0.826
3.02901	0.859
3.07017	0.874
3.11133	0.883
3.15249	0.896
3.19366	0.914
3.23482	0.914
3.27598	0.785
3.31714	0.618
3.3583	0.233
3.39946	0.472
3.44062	0.568
3.48178	0.896
3.52294	0.915
3.5641	0.927
3.60526	0.929
3.64642	0.931
3.68758	0.934
3.72874	0.945
3.7699	0.946
3.81106	0.951
3.85222	0.951
3.89338	0.95
3.93454	0.95
3.97571	0.951
4.01687	0.95
4.05803	0.95
4.09919	0.95
4.14035	0.95
4.18151	0.95
4.22267	0.95
4.26383	0.95
4.30499	0.945
4.34615	0.938
4.38731	0.939
4.42847	0.948
4.46963	0.951
4.51079	0.951
4.55195	0.951
4.59311	0.951
4.63427	0.951
4.67543	0.953
4.71659	0.95
4.75776	0.95
4.79892	0.948
4.84008	0.95
4.88124	0.95
4.9224	0.95
4.96356	0.95
5.00472	0.95
5.04588	0.951
5.08704	0.951
5.1282	0.95
5.16936	0.951
5.21052	0.95
5.25168	0.95
5.29284	0.95
5.334	0.95
5.37516	0.945
5.41632	0.919
5.45748	0.903
5.49865	0.881
5.53981	0.859
5.58097	0.835
5.62213	0.695
5.66329	0.333
5.70445	0.049
5.74561	0.199
5.78677	0.587
5.82793	0.762
5.86909	0.786
5.91025	0.797
5.95141	0.848
5.99257	0.871
6.03373	0.884
6.07489	0.884
6.11605	0.884
6.15721	0.883
6.19837	0.891
6.23953	0.907
6.2807	0.922
6.32186	0.927
6.36302	0.922
6.40418	0.912
6.44534	0.91
6.4865	0.902
6.52766	0.888
6.56882	0.86
6.60998	0.852
6.65114	0.826
6.6923	0.673
6.73346	0.417
6.77462	0.269
6.81578	0.441
6.85694	0.534
6.8981	0.663
6.93926	0.762
6.98042	0.802
7.02158	0.713
7.06275	0.532
7.10391	0.546
7.14507	0.532
7.18623	0.328
7.22739	0.506
7.26855	0.295
7.30971	0.309
7.35087	0.438
7.39203	0.515
7.43319	0.601
7.47435	0.661
7.51551	0.776
7.55667	0.804
7.59783	0.795
7.63899	0.819
7.68015	0.828
7.72131	0.833
7.76247	0.831
7.80363	0.762
7.8448	0.597
7.88596	0.347
7.92712	0.164
7.96828	0.101
8.00944	0.13
8.0506	0.324
8.09176	0.544
8.13292	0.649
8.17408	0.664
8.21524	0.53
8.2564	0.415
8.29756	0.47
8.33872	0.427
8.37988	0.175
8.42104	0.082
8.4622	0.109
8.50336	0.226
8.54452	0.197
8.58568	0.104
8.62685	0.053
8.66801	0.041
8.70917	0.044
8.75033	0.121
8.79149	0.266
8.83265	0.431
8.87381	0.503
8.91497	0.522
8.95613	0.506
8.99729	0.462
9.03845	0.438
9.07961	0.556
9.12077	0.637
9.16193	0.64
9.20309	0.577
9.24425	0.41
9.28541	0.182
9.32657	0.077
9.36773	0.068
9.4089	0.204
9.45006	0.439
9.49122	0.525
9.53238	0.42
9.57354	0.159
9.6147	0.082
9.65586	0.36
9.69702	0.62
9.73818	0.702
9.77934	0.701
9.8205	0.582
9.86166	0.664
9.90282	0.754
9.94398	0.788
9.98514	0.793
10.0263	0.774
10.0675	0.685
10.1086	0.542
10.1498	0.326
10.1909	0.178
10.2321	0.101
10.2733	0.134
10.3144	0.278
10.3556	0.462
10.3967	0.604
10.4379	0.723
10.4791	0.766
10.5202	0.804
10.5614	0.814
10.6026	0.817
10.6437	0.778
10.6849	0.711
10.726	0.735
10.7672	0.786
10.8084	0.804
10.8495	0.761
10.8907	0.68
10.9318	0.75
10.973	0.84
11.0142	0.857
11.0553	0.836
11.0965	0.695
11.1376	0.457
11.1788	0.381
11.22	0.628
11.2611	0.79
11.3023	0.859
11.3434	0.905
11.3846	0.924
11.4258	0.934
11.4669	0.943
11.5081	0.945
11.5492	0.941
11.5904	0.888
11.6316	0.776
11.6727	0.81
11.7139	0.86
11.755	0.89
11.7962	0.927
11.8374	0.953
11.8785	0.963
11.9197	0.97
11.9608	0.974
12.002	0.981
12.0432	0.986
12.0843	0.987
12.1255	0.989
12.1667	0.989
12.2078	0.989
12.249	0.989
12.2901	0.991
12.3313	0.991
12.3725	0.991
12.4136	0.991
12.4548	0.991
12.4959	0.991
12.5371	0.991
12.5783	0.989
12.6194	0.989
12.6606	0.989
12.7017	0.989
12.7429	0.986
12.7841	0.986
12.8252	0.989
12.8664	0.993
12.9075	0.991
12.9487	0.991
12.9899	0.975
13.031	0.929
13.0722	0.862
13.1133	0.826
13.1545	0.829
13.1957	0.852
13.2368	0.886
13.278	0.929
13.3191	0.957
13.3603	0.982
13.4015	0.996
13.4426	1.003
13.4838	1.005
13.5249	1.005
13.5661	1.003
13.6073	0.996
13.6484	0.996
13.6896	0.996
13.7308	0.996
13.7719	0.996
13.8131	0.994
13.8542	0.994
13.8954	0.996
13.9366	0.996
13.9777	0.996
14.0189	0.998
14.06	0.998
14.1012	1
14.1424	1
14.1835	1.001
14.2247	1.001
14.2658	1.001
14.307	1.003
14.3482	1.003
14.3893	1.001
14.4305	1
14.4716	0.998
14.5128	0.998
14.554	0.994
14.5951	0.993
14.6363	0.984
14.6774	0.981
14.7186	0.977
14.7598	0.972
14.8009	0.967
14.8421	0.958
14.8832	0.948
14.9244	0.934
14.9656	0.903
15.0067	0.881
15.0479	0.878
15.089	0.884
15.1302	0.89
15.1714	0.89
15.2125	0.89
15.2537	0.883
15.2949	0.869
15.336	0.855
15.3772	0.841
15.4183	0.828
15.4595	0.809
15.5007	0.804
15.5418	0.795
15.583	0.785
15.6241	0.769
15.6653	0.754
15.7065	0.728
15.7476	0.716
15.7888	0.706
15.8299	0.694
15.8711	0.687
15.9123	0.678
15.9534	0.671
