Infrared Spectrum: 4-Phenylthioacetophenone
Formula: C 14 H 12 O S
CAS: 10169-55-8
State: gas
Origin: EPA-IR VAPOR PHASE LIBRARY
1/CM	ABSORBANCE
549.8	0.002166
559.446	0.002066
569.092	0.003206
578.738	0.006506
588.384	0.010936
598.03	0.010636
607.676	0.013036
617.322	0.022336
626.968	0.007356
636.614	0.003236
646.26	0.002586
655.906	0.003416
665.552	0.004886
675.198	0.007296
684.844	0.016026
694.49	0.022236
704.136	0.017446
713.782	0.010476
723.428	0.011876
733.073	0.015846
742.719	0.020896
752.365	0.024216
762.011	0.017356
771.657	0.004926
781.303	0.003416
790.949	0.003366
800.595	0.005396
810.241	0.013116
819.887	0.019876
829.533	0.017516
839.179	0.011166
848.825	0.005406
858.471	0.002666
868.117	0.001936
877.763	0.001656
887.409	0.0015695
897.055	0.001796
906.701	0.002256
916.347	0.002516
925.993	0.002946
935.639	0.005996
945.285	0.018016
954.931	0.024846
964.577	0.010546
974.223	0.005566
983.869	0.004426
993.515	0.005296
1003.16	0.010886
1012.81	0.025516
1022.45	0.017066
1032.1	0.007236
1041.74	0.004356
1051.39	0.005506
1061.04	0.008796
1070.68	0.013256
1080.33	0.024826
1089.97	0.026436
1099.62	0.019106
1109.27	0.007536
1118.91	0.004596
1128.56	0.002986
1138.2	0.002146
1147.85	0.002126
1157.5	0.002466
1167.14	0.004326
1176.79	0.012636
1186.43	0.014046
1196.08	0.006536
1205.73	0.006496
1215.37	0.011206
1225.02	0.019346
1234.66	0.031586
1244.31	0.062636
1253.96	0.114926
1263.6	0.079116
1273.25	0.040786
1282.89	0.021016
1292.54	0.013396
1302.19	0.012406
1311.83	0.007866
1321.48	0.005126
1331.12	0.005416
1340.77	0.008396
1350.42	0.019376
1360.06	0.036826
1369.71	0.020406
1379.35	0.013946
1389	0.020976
1398.65	0.025236
1408.29	0.012426
1417.94	0.008776
1427.58	0.010046
1437.23	0.012176
1446.88	0.009686
1456.52	0.007066
1466.17	0.011296
1475.81	0.025106
1485.46	0.018136
1495.11	0.007766
1504.75	0.004586
1514.4	0.004006
1524.04	0.004296
1533.69	0.005386
1543.34	0.008946
1552.98	0.016546
1562.63	0.018646
1572.27	0.026916
1581.92	0.058936
1591.57	0.069526
1601.21	0.029216
1610.86	0.010536
1620.5	0.006566
1630.15	0.005676
1639.79	0.005446
1649.44	0.006006
1659.09	0.008016
1668.73	0.010296
1678.38	0.015816
1688.02	0.037886
1697.67	0.103836
1707.32	0.108716
1716.96	0.037126
1726.61	0.013396
1736.25	0.007676
1745.9	0.006266
1755.55	0.005016
1765.19	0.003696
1774.84	0.002886
1784.48	0.002906
1794.13	0.003466
1803.78	0.003156
1813.42	0.002286
1823.07	0.001916
1832.71	0.001706
1842.36	0.0016161
1852.01	0.001926
1861.65	0.002376
1871.3	0.003036
1880.94	0.003116
1890.59	0.002826
1900.24	0.002426
1909.88	0.002166
1919.53	0.002076
1929.17	0.002216
1938.82	0.002516
1948.47	0.002576
1958.11	0.002156
1967.76	0.001549
1977.4	0.0011708
1987.05	0.0009205
1996.7	0.0009432
2006.34	0.000987
2015.99	0.0010761
2025.63	0.0010016
2035.28	0.0007845
2044.93	0.00064866
2054.57	0.0005709
2064.22	0.000535
2073.86	0.000488
2083.51	0.000507
2093.16	0.0005364
2102.8	0.0005517
2112.45	0.0005466
2122.09	0.000516
2131.74	0.000429
2141.39	0.000421
2151.03	0.000415
2160.68	0.000414
2170.32	0.000479
2179.97	0.000459
2189.62	0.000496
2199.26	0.0005644
2208.91	0.0005859
2218.55	0.0005825
2228.2	0.00052
2237.85	0.0006201
2247.49	0.000521
2257.14	0.00051
2266.78	0.0005823
2276.43	0.00066414
2286.08	0.0007871
2295.72	0.000873
2305.37	0.0010625
2315.01	0.0012715
2324.66	0.0011255
2334.31	0.0010373
2343.95	0.0008616
2353.6	0.0007408
2363.24	0.00065066
2372.89	0.0005686
2382.53	0.0005548
2392.18	0.0005567
2401.83	0.0005488
2411.47	0.0005662
2421.12	0.0006208
2430.76	0.000497
2440.41	0.0005465
2450.06	0.000484
2459.7	0.000498
2469.35	0.0005368
2478.99	0.0005422
2488.64	0.000643232
2498.29	0.0008438
2507.93	0.0009156
2517.58	0.0010488
2527.22	0.0012303
2536.87	0.0013154
2546.52	0.0012365
2556.16	0.0010802
2565.81	0.0009489
2575.45	0.0008041
2585.1	0.00069413
2594.75	0.0007493
2604.39	0.0008654
2614.04	0.00066139
2623.68	0.0005519
2633.33	0.00053
2642.98	0.00063006
2652.62	0.00068095
2662.27	0.0006218
2671.91	0.0005986
2681.56	0.000451
2691.21	0.000403
2700.85	0.000346
2710.5	0.000263
2720.14	0.000192
2729.79	0.000293
2739.44	0.000371
2749.08	0.00034
2758.73	0.000354
2768.37	0.000443
2778.02	0.000412
2787.67	0.000401
2797.31	0.000395
2806.96	0.000428
2816.6	0.0005539
2826.25	0.00066956
2835.9	0.0010309
2845.54	0.001188
2855.19	0.0010667
2864.83	0.0010066
2874.48	0.0008213
2884.13	0.0007423
2893.77	0.0008273
2903.42	0.0008825
2913.06	0.0011234
2922.71	0.0016257
2932.36	0.002136
2942	0.002096
2951.65	0.002016
2961.29	0.002336
2970.94	0.002976
2980.59	0.003066
2990.23	0.003186
2999.88	0.004586
3009.52	0.007876
3019.17	0.009506
3028.82	0.008386
3038.46	0.006716
3048.11	0.007026
3057.75	0.012016
3067.4	0.024056
3077.04	0.024316
3086.69	0.019376
3096.34	0.009216
3105.98	0.003636
3115.63	0.002016
3125.27	0.001479
3134.92	0.0012255
3144.57	0.0010306
3154.21	0.001019
3163.86	0.00068873
3173.5	0.00063451
3183.15	0.0005486
3192.8	0.000415
3202.44	0.000323
3212.09	0.00025
3221.73	0.000161
3231.38	0.000131
3241.03	0.000133
3250.67	0.000143
3260.32	0.000128
3269.96	0.000199
3279.61	9.8e-05
3289.26	0.000165
3298.9	8.4e-05
3308.55	0.000147
3318.19	0.000136
3327.84	0.000256
3337.49	0.000254
3347.13	0.000258
3356.78	0.000464
3366.42	0.0007932
3376.07	0.0014579
3385.72	0.002086
3395.36	0.001549
3405.01	0.0007988
3414.65	0.000367
3424.3	0.000157
3433.95	0.000297
3443.59	0.000303
3453.24	0.000354
3462.88	0.000215
3472.53	0.000208
3482.18	9.2e-05
3491.82	0.000249
3501.47	5.2e-05
3511.11	6.9e-05
3520.76	0.000305
3530.41	0.000273
3540.05	0.000223
3549.7	0.000102
3559.34	0.000293
3568.99	0.000279
3578.64	0.000352
3588.28	0.000294
3597.93	0.000197
3607.57	0.000218
3617.22	0.000286
3626.87	0.00042
3636.51	0.000298
3646.16	0.000442
3655.8	0.000383
3665.45	0.000359
3675.1	0.000363
3684.74	0.000485
3694.39	0.0005868
3704.03	0.00064508
3713.68	0.000411
3723.33	0.000274
3732.97	0.00039
3742.62	0.000242
3752.26	0.000341
3761.91	0.0005539
3771.56	0.000526
3781.2	0.000404
3790.85	0.000393
3800.49	0.000319
3810.14	0.000411
3819.78	0.000282
3829.43	0.000341
3839.08	0.000377
3848.72	0.0003
3858.37	0.000348
3868.01	0.000329
3877.66	0.000266
3887.31	0.00037
3896.95	0.000417
3906.6	0.00031
3916.24	0.00032
3925.89	0.00032
3935.54	0.000344
3945.18	0.000393
3954.83	0.000306
3964.47	0.000419
3974.12	0.000307
3983.77	0.000402
3993.41	0.0005965
