Infrared Spectrum: Dibenzothiophene-5,5-dioxide
Formula: C 12 H 8 O 2 S
CAS: 1016-05-3
State: gas
Origin: EPA-IR VAPOR PHASE LIBRARY
1/CM	ABSORBANCE
501.5	0.0010028
513.074	0.0009365
524.648	0.001118
536.222	0.001524
547.796	0.001464
559.37	0.003384
570.944	0.005194
582.518	0.003974
594.092	0.0008939
605.666	0.0006978
617.24	0.001504
628.814	0.0009083
640.388	0.0007244
651.962	0.0006003
663.536	0.0005953
675.11	0.0006127
686.684	0.0005727
698.258	0.0010125
709.832	0.002054
721.406	0.003334
732.98	0.004014
744.554	0.004024
756.128	0.006014
767.702	0.001614
779.276	0.0006369
790.85	0.0005076
802.423	0.00046825
813.997	0.0005096
825.571	0.000527
837.145	0.000557
848.719	0.0005902
860.293	0.0005691
871.867	0.0005318
883.441	0.0006001
895.015	0.00043627
906.589	0.0004423
918.163	0.00045893
929.737	0.0004971
941.311	0.000592
952.885	0.00049
964.459	0.0004764
976.033	0.0005558
987.607	0.000475
999.181	0.0004778
1010.76	0.0005402
1022.33	0.0006251
1033.9	0.0006648
1045.48	0.0008387
1057.05	0.0010507
1068.63	0.0008994
1080.2	0.0010239
1091.77	0.0008451
1103.35	0.0008855
1114.92	0.0010107
1126.49	0.0012081
1138.07	0.001202
1149.64	0.002034
1161.22	0.004644
1172.79	0.010714
1184.36	0.008554
1195.94	0.001944
1207.51	0.001484
1219.09	0.0010933
1230.66	0.0010719
1242.23	0.0007447
1253.81	0.0007718
1265.38	0.0010204
1276.96	0.0013638
1288.53	0.0010119
1300.1	0.0008745
1311.68	0.0012016
1323.25	0.002994
1334.83	0.009224
1346.4	0.008334
1357.97	0.0013202
1369.55	0.0005353
1381.12	0.0004932
1392.7	0.0005025
1404.27	0.000527
1415.84	0.0005945
1427.42	0.0007435
1438.99	0.001604
1450.57	0.002824
1462.14	0.0009119
1473.71	0.0007576
1485.29	0.0006955
1496.86	0.000475
1508.44	0.0003395
1520.01	0.0004012
1531.58	0.000380183
1543.16	0.00039366
1554.73	0.00042971
1566.31	0.0005181
1577.88	0.0008697
1589.45	0.0012142
1601.03	0.0009112
1612.6	0.000537
1624.18	0.00042914
1635.75	0.00043107
1647.32	0.0003538
1658.9	0.00037885
1670.47	0.000381452
1682.05	0.00036577
1693.62	0.00040223
1705.19	0.00040716
1716.77	0.0003885
1728.34	0.0003505
1739.92	0.0003537
1751.49	0.0003294
1763.06	0.0003358
1774.64	0.0003331
1786.21	0.000379907
1797.79	0.0005013
1809.36	0.0004765
1820.93	0.00036708
1832.51	0.00041405
1844.08	0.000415
1855.66	0.00036416
1867.23	0.0003576
1878.8	0.00044999
1890.38	0.00041045
1901.95	0.00038931
1913.53	0.0005488
1925.1	0.00046441
1936.67	0.00036849
1948.25	0.0005073
1959.82	0.0004955
1971.4	0.0003223
1982.97	0.0003172
1994.54	0.0003201
2006.12	0.0002846
2017.69	0.0003051
2029.27	0.0002952
2040.84	0.0003089
2052.41	0.0002997
2063.99	0.0003141
2075.56	0.0003012
2087.14	0.0002924
2098.71	0.0003244
2110.28	0.0002913
2121.86	0.000292
2133.43	0.000261
2145.01	0.000267
2156.58	0.000269
2168.15	0.0002976
2179.73	0.0003003
2191.3	0.0002848
2202.88	0.000254
2214.45	0.000273
2226.02	0.0003086
2237.6	0.000306
2249.17	0.0002904
2260.74	0.0002809
2272.32	0.0002987
2283.89	0.0003165
2295.47	0.0002982
2307.04	0.0003187
2318.61	0.0003211
2330.19	0.000266
2341.76	0.0003
2353.34	0.0002927
2364.91	0.000254
2376.48	0.000237
2388.06	0.000266
2399.63	0.000231
2411.21	0.000268
2422.78	0.000245
2434.35	0.000244
2445.93	0.000261
2457.5	0.00026
2469.08	0.000273
2480.65	0.000229
2492.22	0.000254
2503.8	0.0002892
2515.37	0.000268
2526.95	0.000235
2538.52	0.000256
2550.09	0.000185
2561.67	0.000221
2573.24	0.000188
2584.82	0.000186
2596.39	0.00025
2607.96	0.000242
2619.54	0.000209
2631.11	0.000265
2642.69	0.00019
2654.26	0.000233
2665.83	0.000246
2677.41	0.000237
2688.98	0.000205
2700.56	0.00021
2712.13	0.000193
2723.7	0.000176
2735.28	0.00016
2746.85	0.000182
2758.43	0.000155
2770	0.000185
2781.57	0.00016
2793.15	0.000177
2804.72	0.000164
2816.3	0.000141
2827.87	0.000173
2839.44	0.000158
2851.02	0.000138
2862.59	0.000171
2874.17	0.000214
2885.74	0.000178
2897.31	0.000177
2908.89	0.000181
2920.46	0.00022
2932.04	0.000139
2943.61	0.00015
2955.18	0.00017
2966.76	0.000157
2978.33	0.000102
2989.91	0.000167
3001.48	0.000167
3013.05	0.000228
3024.63	0.0003535
3036.2	0.00045678
3047.78	0.0005297
3059.35	0.0007978
3070.92	0.001534
3082.5	0.002154
3094.07	0.0009389
3105.65	0.0003041
3117.22	0.000141
3128.79	0.000203
3140.37	0.000187
3151.94	0.00013
3163.52	0.000171
3175.09	0.000163
3186.66	0.000117
3198.24	0.000151
3209.81	2.4e-05
3221.39	0.000111
3232.96	0.000171
3244.53	9.1e-05
3256.11	0.000118
3267.68	0.000144
3279.26	5.5e-05
3290.83	5.1e-05
3302.4	0.000112
3313.98	0.000134
3325.55	8.7e-05
3337.13	9.3e-05
3348.7	0.000186
3360.27	9.4e-05
3371.85	8e-05
3383.42	0.000153
3395	0.000116
3406.57	7.9e-05
3418.14	7.1e-05
3429.72	0.000102
3441.29	0.000179
3452.86	0.000152
3464.44	0.000168
3476.01	0.000171
3487.59	0.000111
3499.16	0.000106
3510.73	0.000129
3522.31	0.000106
3533.88	0.000195
3545.46	2.6e-05
3557.03	0.000125
3568.6	0.000109
3580.18	0.000135
3591.75	0.000151
3603.33	0.000124
3614.9	0.000127
3626.47	0.000102
3638.05	0.00015
3649.62	0
3661.2	0.000138
3672.77	0.000151
3684.34	0.000126
3695.92	0.00015
3707.49	0.000219
3719.07	8.7e-05
3730.64	9.8e-05
3742.21	5e-05
3753.79	7.4e-05
3765.36	8.3e-05
3776.94	0.000161
3788.51	0.000117
3800.08	0.00012
3811.66	0.000116
3823.23	0.000131
3834.81	0.000165
3846.38	0.000183
3857.95	0.000137
3869.53	9.4e-05
3881.1	0.000133
3892.68	9.4e-05
3904.25	0.000108
3915.82	9.5e-05
3927.4	0.000196
3938.97	0.000184
3950.55	0.000113
3962.12	0.000122
3973.69	0.000153
3985.27	0.000182
3996.84	9.9e-05
