Infrared Spectrum: BENZAMIDE,p-(n-HEXYLOXY)-
Formula: C13 H19 N O2
CAS: 101772-33-2
State: SOLUTION (7% IN CHCl3)
Melting point: 149-151C
Class: COBLENTZ
Instrument: PERKIN-ELMER 421 (GRATING)
Instrument parameters: GRATINGS: 1999 CM^-^1
Sampling: TRANSMISSION
Path length: 0.01 CM
Resolution: 2
Origin: ABBOTT LABORATORIES
1/CM	TRANSMITTANCE
642.909	0.839
651.841	0.845
660.773	0.842
669.704	0.832
678.636	0.807
687.568	0.826
696.5	0.831
705.432	0.823
714.364	0.818
723.295	0.821
732.227	0.821
741.159	0.821
750.091	0.822
759.023	0.822
767.955	0.823
776.886	0.825
785.818	0.821
794.75	0.803
803.682	0.792
812.614	0.787
821.546	0.761
830.477	0.594
839.409	0.646
848.341	0.799
857.273	0.799
866.205	0.801
875.137	0.802
884.068	0.802
893	0.804
901.932	0.813
910.864	0.813
919.796	0.792
928.728	0.761
937.659	0.798
946.591	0.792
955.523	0.794
964.455	0.794
973.387	0.78
982.319	0.756
991.25	0.728
1000.18	0.666
1009.11	0.638
1018.05	0.666
1026.98	0.743
1035.91	0.727
1044.84	0.724
1053.77	0.721
1062.71	0.718
1071.64	0.721
1080.57	0.749
1089.5	0.743
1098.43	0.724
1107.36	0.686
1116.3	0.679
1125.23	0.646
1134.16	0.705
1143.09	0.737
1152.02	0.727
1160.96	0.599
1169.89	0.457
1178.82	0.6
1187.75	0.565
1196.68	0.528
1205.61	0.493
1214.55	0.456
1223.48	0.42
1232.41	0.385
1241.34	0.272
1250.27	0.202
1259.21	0.462
1268.14	0.688
1277.07	0.721
1286	0.686
1294.93	0.543
1303.86	0.588
1312.8	0.724
1321.73	0.736
1330.66	0.713
1339.59	0.671
1348.52	0.541
1357.46	0.321
1366.39	0.314
1375.32	0.458
1384.25	0.6
1393.18	0.738
1402.11	0.702
1411.05	0.674
1419.98	0.773
1428.91	0.771
1437.84	0.751
1446.77	0.7
1455.71	0.636
1464.64	0.73
1473.57	0.788
1482.5	0.775
1491.43	0.718
1500.36	0.391
1509.3	0.738
1518.23	0.802
1527.16	0.788
1536.09	0.789
1545.02	0.731
1553.96	0.68
1562.89	0.527
1571.82	0.531
1580.75	0.4
1589.68	0.413
1598.62	0.153
1607.55	0.504
1616.48	0.671
1625.41	0.676
1634.34	0.647
1643.27	0.467
1652.21	0.292
1661.14	0.13
1670.07	0.172
1679	0.496
1687.93	0.749
1696.87	0.779
1705.8	0.804
1714.73	0.823
1723.66	0.832
1732.59	0.835
1741.52	0.836
1750.46	0.833
1759.39	0.833
1768.32	0.836
1777.25	0.841
1786.18	0.841
1795.12	0.841
1804.05	0.842
1812.98	0.841
1821.91	0.84
1830.84	0.84
1839.77	0.839
1848.71	0.839
1857.64	0.839
1866.57	0.836
1875.5	0.837
1884.43	0.837
1893.37	0.837
1902.3	0.837
1911.23	0.836
1920.16	0.836
1929.09	0.836
1938.02	0.836
1946.96	0.835
1955.89	0.836
1964.82	0.837
1973.75	0.841
1982.68	0.841
1991.62	0.837
2000.55	0.836
2009.48	0.836
2018.41	0.836
2027.34	0.835
2036.27	0.837
2045.21	0.837
2054.14	0.837
2063.07	0.837
2072	0.837
2080.93	0.837
2089.87	0.837
2098.8	0.839
2107.73	0.839
2116.66	0.837
2125.59	0.837
2134.53	0.839
2143.46	0.837
2152.39	0.837
2161.32	0.837
2170.25	0.837
2179.18	0.837
2188.12	0.836
2197.05	0.835
2205.98	0.835
2214.91	0.835
2223.84	0.833
2232.78	0.833
2241.71	0.833
2250.64	0.831
2259.57	0.831
2268.5	0.83
2277.43	0.83
2286.37	0.83
2295.3	0.83
2304.23	0.83
2313.16	0.831
2322.09	0.831
2331.03	0.831
2339.96	0.835
2348.89	0.835
2357.82	0.837
2366.75	0.839
2375.68	0.841
2384.62	0.844
2393.55	0.851
2402.48	0.833
2411.41	0.821
2420.34	0.814
2429.28	0.809
2438.21	0.803
2447.14	0.803
2456.07	0.803
2465	0.803
2473.93	0.804
2482.87	0.806
2491.8	0.804
2500.73	0.804
2509.66	0.804
2518.59	0.807
2527.53	0.806
2536.46	0.803
2545.39	0.802
2554.32	0.802
2563.25	0.802
2572.18	0.802
2581.12	0.802
2590.05	0.803
2598.98	0.801
2607.91	0.801
2616.84	0.802
2625.78	0.803
2634.71	0.803
2643.64	0.803
2652.57	0.798
2661.5	0.797
2670.44	0.793
2679.37	0.793
2688.3	0.792
2697.23	0.789
2706.16	0.789
2715.09	0.782
2724.03	0.778
2732.96	0.774
2741.89	0.775
2750.82	0.774
2759.75	0.779
2768.69	0.778
2777.62	0.778
2786.55	0.774
2795.48	0.769
2804.41	0.765
2813.34	0.757
2822.28	0.749
2831.21	0.722
2840.14	0.676
2849.07	0.593
2858	0.586
2866.94	0.594
2875.87	0.655
2884.8	0.652
2893.73	0.627
2902.66	0.571
2911.59	0.503
2920.53	0.437
2929.46	0.442
2938.39	0.471
2947.32	0.481
2956.25	0.509
2965.19	0.608
2974.12	0.66
2983.05	0.652
2991.98	0.59
3000.91	0.56
3009.84	0.73
3018.78	0.752
3027.71	0.754
3036.64	0.755
3045.57	0.754
3054.5	0.754
3063.44	0.752
3072.37	0.752
3081.3	0.749
3090.23	0.745
3099.16	0.74
3108.09	0.736
3117.03	0.728
3125.96	0.721
3134.89	0.712
3143.82	0.705
3152.75	0.7
3161.69	0.698
3170.62	0.698
3179.55	0.704
3188.48	0.714
3197.41	0.721
3206.34	0.728
3215.28	0.733
3224.21	0.737
3233.14	0.741
3242.07	0.74
3251	0.738
3259.94	0.733
3268.87	0.728
3277.8	0.722
3286.73	0.723
3295.66	0.723
3304.6	0.721
3313.53	0.716
3322.46	0.704
3331.39	0.699
3340.32	0.7
3349.25	0.703
3358.19	0.705
3367.12	0.709
3376.05	0.709
3384.98	0.698
3393.91	0.673
3402.85	0.591
3411.78	0.558
3420.71	0.717
3429.64	0.775
3438.57	0.78
3447.5	0.779
3456.44	0.768
3465.37	0.756
3474.3	0.745
3483.23	0.723
3492.16	0.704
3501.1	0.698
3510.03	0.692
3518.96	0.651
3527.89	0.641
3536.82	0.741
3545.75	0.785
3554.69	0.794
3563.62	0.79
3572.55	0.79
3581.48	0.79
3590.41	0.799
3599.35	0.799
3608.28	0.801
3617.21	0.801
3626.14	0.801
3635.07	0.793
3644	0.789
3652.94	0.788
3661.87	0.792
3670.8	0.799
3679.73	0.801
3688.66	0.803
3697.6	0.804
3706.53	0.807
3715.46	0.807
3724.39	0.807
3733.32	0.808
3742.25	0.808
3751.19	0.809
3760.12	0.812
3769.05	0.812
3777.98	0.812
3786.91	0.812
3795.85	0.812
3804.78	0.812
3813.71	0.813
3822.64	0.816
3831.57	0.817
3840.51	0.817
3849.44	0.817
3858.37	0.818
3867.3	0.817
3876.23	0.821
3885.16	0.823
3894.1	0.826
