Infrared Spectrum: Purine, 8-(methylsulfonyl)-,
Formula: C6 H6 N4 O2 S
CAS: 10179-91-6
State: SOLID (0.9 mg / 650 mg KBr DISC)
Class: COBLENTZ III
Instrument: PERKIN-ELMER 21 (GRATING)
Instrument parameters: FILTER CHANGE ABOUT 980 CM^-^1
Resolution: 2
Origin: SOUTHERN RESEARCH INSTITUTE
1/CM	TRANSMITTANCE
618.896	0.9784
626.924	0.9718
634.951	0.9529
642.979	0.7966
651.006	0.6124
659.034	0.9049
667.061	0.9215
675.089	0.9148
683.116	0.9049
691.144	0.8942
699.171	0.8745
707.199	0.797
715.226	0.8576
723.254	0.8624
731.281	0.8582
739.309	0.8414
747.337	0.8125
755.364	0.7518
763.392	0.4936
771.419	0.2689
779.447	0.7762
787.474	0.7809
795.502	0.4681
803.529	0.7477
811.557	0.7171
819.584	0.5757
827.612	0.3051
835.639	0.7197
843.667	0.8242
851.694	0.8233
859.722	0.8077
867.749	0.7842
875.777	0.7221
883.805	0.5665
891.832	0.4561
899.86	0.3348
907.887	0.583
915.915	0.7654
923.942	0.6932
931.97	0.7278
939.997	0.736
948.025	0.6533
956.052	0.4725
964.08	0.5151
972.107	0.7411
980.135	0.5079
988.162	0.3142
996.19	0.6932
1004.22	0.7836
1012.25	0.7613
1020.27	0.7279
1028.3	0.7298
1036.33	0.7358
1044.36	0.7207
1052.38	0.703
1060.41	0.6875
1068.44	0.6694
1076.47	0.6998
1084.49	0.7186
1092.52	0.7065
1100.55	0.6789
1108.58	0.6427
1116.6	0.5695
1124.63	0.3624
1132.66	0.1455
1140.69	0.0736
1148.71	0.5183
1156.74	0.7391
1164.77	0.7328
1172.8	0.6945
1180.82	0.4842
1188.85	0.409
1196.88	0.6717
1204.91	0.7427
1212.93	0.7325
1220.96	0.708
1228.99	0.6676
1237.02	0.534
1245.04	0.6403
1253.07	0.6479
1261.1	0.6216
1269.13	0.5922
1277.15	0.4227
1285.18	0.2838
1293.21	0.1635
1301.24	0.0787
1309.26	0.0848
1317.29	0.0718
1325.32	0.1105
1333.35	0.3623
1341.37	0.5026
1349.4	0.6386
1357.43	0.7037
1365.46	0.6223
1373.48	0.6386
1381.51	0.5235
1389.54	0.6527
1397.57	0.582
1405.59	0.4115
1413.62	0.2517
1421.65	0.3339
1429.68	0.3163
1437.7	0.3051
1445.73	0.3354
1453.76	0.6694
1461.79	0.7633
1469.81	0.7698
1477.84	0.7713
1485.87	0.7638
1493.9	0.7402
1501.92	0.7267
1509.95	0.6835
1517.98	0.5934
1526.01	0.6808
1534.03	0.7684
1542.06	0.7903
1550.09	0.7723
1558.12	0.7513
1566.14	0.7323
1574.17	0.709
1582.2	0.6795
1590.23	0.6283
1598.25	0.6043
1606.28	0.6452
1614.31	0.6059
1622.34	0.546
1630.36	0.4737
1638.39	0.3175
1646.42	0.1133
1654.45	0.6013
1662.48	0.7319
1670.5	0.7418
1678.53	0.7403
1686.56	0.73
1694.59	0.7167
1702.61	0.7099
1710.64	0.704
1718.67	0.6896
1726.7	0.6918
1734.72	0.6935
1742.75	0.6897
1750.78	0.6801
1758.81	0.6783
1766.83	0.6845
1774.86	0.6932
1782.89	0.7028
1790.92	0.6996
1798.94	0.6937
1806.97	0.7033
1815	0.7086
1823.03	0.695
1831.05	0.6861
1839.08	0.6844
1847.11	0.6693
1855.14	0.6543
1863.16	0.6343
1871.19	0.6296
1879.22	0.6192
1887.25	0.6044
1895.27	0.593
1903.3	0.591
1911.33	0.5925
1919.36	0.5887
1927.38	0.5823
1935.41	0.5721
1943.44	0.562
1951.47	0.5562
1959.49	0.5612
1967.52	0.5738
1975.55	0.5845
1983.58	0.5921
1991.6	0.5922
1999.63	0.577
2007.66	0.5512
2015.69	0.5269
2023.71	0.5042
2031.74	0.4983
2039.77	0.4994
2047.8	0.4927
2055.82	0.4785
2063.85	0.4742
2071.88	0.4763
2079.91	0.4892
2087.93	0.5125
2095.96	0.5383
2103.99	0.5586
2112.02	0.579
2120.04	0.5957
2128.07	0.6104
2136.1	0.6228
2144.13	0.6316
2152.15	0.6364
2160.18	0.6395
2168.21	0.642
2176.24	0.6446
2184.26	0.6443
2192.29	0.6401
2200.32	0.6357
2208.35	0.6307
2216.37	0.6248
2224.4	0.6171
2232.43	0.6089
2240.46	0.6004
2248.48	0.5918
2256.51	0.5831
2264.54	0.5751
2272.57	0.5674
2280.59	0.5593
2288.62	0.5511
2296.65	0.5429
2304.68	0.533
2312.71	0.5224
2320.73	0.5083
2328.76	0.4924
2336.79	0.4809
2344.82	0.4722
2352.84	0.4635
2360.87	0.4557
2368.9	0.448
2376.93	0.4408
2384.95	0.4338
2392.98	0.4268
2401.01	0.4209
2409.04	0.4159
2417.06	0.4107
2425.09	0.4048
2433.12	0.398
2441.15	0.3924
2449.17	0.3915
2457.2	0.3912
2465.23	0.3902
2473.26	0.3885
2481.28	0.3869
2489.31	0.3848
2497.34	0.3815
2505.37	0.3762
2513.39	0.3736
2521.42	0.3721
2529.45	0.3721
2537.48	0.3721
2545.5	0.371
2553.53	0.3684
2561.56	0.3636
2569.59	0.3618
2577.61	0.3613
2585.64	0.3616
2593.67	0.3629
2601.7	0.3662
2609.72	0.3697
2617.75	0.3753
2625.78	0.3845
2633.81	0.3902
2641.83	0.3854
2649.86	0.3869
2657.89	0.3937
2665.92	0.392
2673.94	0.3914
2681.97	0.3914
2690	0.3931
2698.03	0.3978
2706.05	0.4097
2714.08	0.4181
2722.11	0.4212
2730.14	0.4195
2738.16	0.4174
2746.19	0.4221
2754.22	0.4358
2762.25	0.4477
2770.27	0.4556
2778.3	0.4572
2786.33	0.455
2794.36	0.4513
2802.38	0.4536
2810.41	0.4628
2818.44	0.4747
2826.47	0.4877
2834.49	0.4956
2842.52	0.5019
2850.55	0.5115
2858.58	0.5248
2866.6	0.5327
2874.63	0.5286
2882.66	0.5197
2890.69	0.5103
2898.71	0.5052
2906.74	0.5041
2914.77	0.5004
2922.8	0.4764
2930.83	0.5446
2938.85	0.5605
2946.88	0.5608
2954.91	0.5745
2962.94	0.5775
2970.96	0.5902
2978.99	0.6011
2987.02	0.5984
2995.05	0.579
3003.07	0.4673
3011.1	0.5046
3019.13	0.5067
3027.16	0.5653
3035.18	0.5736
3043.21	0.5764
3051.24	0.5867
3059.27	0.5987
3067.29	0.6059
3075.32	0.6358
3083.35	0.6497
3091.38	0.6474
3099.4	0.6251
3107.43	0.6123
3115.46	0.6248
3123.49	0.6139
3131.51	0.6776
3139.54	0.7052
3147.57	0.7092
3155.6	0.7067
3163.62	0.6998
3171.65	0.6883
3179.68	0.6787
3187.71	0.6738
3195.73	0.6897
3203.76	0.7022
3211.79	0.714
3219.82	0.7161
3227.84	0.7109
3235.87	0.7094
3243.9	0.7127
3251.93	0.717
3259.95	0.7198
3267.98	0.7218
3276.01	0.7239
3284.04	0.7261
3292.06	0.7273
3300.09	0.7263
3308.12	0.7248
3316.15	0.7237
3324.17	0.7235
3332.2	0.7206
3340.23	0.7145
3348.26	0.7081
3356.28	0.7009
3364.31	0.6963
3372.34	0.6934
3380.37	0.6862
3388.39	0.6774
3396.42	0.6728
3404.45	0.668
3412.48	0.6643
3420.5	0.6618
3428.53	0.66
3436.56	0.6593
3444.59	0.6593
3452.61	0.6594
3460.64	0.6585
3468.67	0.6598
3476.7	0.6633
3484.72	0.6619
3492.75	0.6638
3500.78	0.6659
3508.81	0.6684
3516.83	0.671
3524.86	0.6755
3532.89	0.6794
3540.92	0.6812
3548.94	0.6827
3556.97	0.6827
3565	0.6888
3573.03	0.6991
3581.06	0.6992
3589.08	0.6995
3597.11	0.7019
3605.14	0.7056
3613.17	0.7098
3621.19	0.7133
3629.22	0.7145
3637.25	0.7153
3645.28	0.7152
3653.3	0.7151
3661.33	0.7147
3669.36	0.7139
3677.39	0.713
3685.41	0.7124
3693.44	0.7117
3701.47	0.7113
3709.5	0.7111
3717.52	0.7113
3725.55	0.7124
3733.58	0.7121
3741.61	0.7113
3749.63	0.7102
3757.66	0.708
3765.69	0.7042
3773.72	0.7011
3781.74	0.7007
3789.77	0.7004
3797.8	0.7004
3805.83	0.7003
