Infrared Spectrum: 2,3-Difluoropropiophenone
Formula: C 9 H 8 F 2 O
CAS: 101712-19-0
State: gas
Origin: EPA-IR VAPOR PHASE LIBRARY
1/CM	ABSORBANCE
549.8	0.005752
559.445	0.004742
569.09	0.006122
578.734	0.005262
588.379	0.008202
598.024	0.008852
607.669	0.009302
617.313	0.005922
626.958	0.005402
636.603	0.005722
646.248	0.005612
655.893	0.003442
665.537	0.002862
675.182	0.003262
684.827	0.002982
694.472	0.005862
704.116	0.011282
713.761	0.017202
723.406	0.019762
733.051	0.018212
742.695	0.015202
752.34	0.012032
761.985	0.015132
771.63	0.026712
781.275	0.035092
790.919	0.025172
800.564	0.015212
810.209	0.012792
819.854	0.016002
829.498	0.015462
839.143	0.008072
848.788	0.005202
858.433	0.006942
868.078	0.013242
877.722	0.025052
887.367	0.044882
897.012	0.041792
906.657	0.015752
916.301	0.007292
925.946	0.004552
935.591	0.003912
945.236	0.004862
954.88	0.006182
964.525	0.008432
974.17	0.009772
983.815	0.010092
993.46	0.008652
1003.1	0.006952
1012.75	0.010022
1022.39	0.014452
1032.04	0.014702
1041.68	0.008282
1051.33	0.008152
1060.97	0.010412
1070.62	0.012912
1080.26	0.011722
1089.91	0.011592
1099.55	0.013452
1109.2	0.008312
1118.84	0.006962
1128.49	0.007282
1138.13	0.004652
1147.78	0.002962
1157.42	0.004092
1167.07	0.006002
1176.71	0.006132
1186.36	0.007792
1196	0.010362
1205.64	0.017602
1215.29	0.044012
1224.93	0.075532
1234.58	0.100692
1244.22	0.088582
1253.87	0.058532
1263.51	0.088652
1273.16	0.114902
1282.8	0.079382
1292.45	0.046492
1302.09	0.035282
1311.74	0.026322
1321.38	0.023962
1331.03	0.023122
1340.67	0.025542
1350.32	0.028752
1359.96	0.026012
1369.61	0.017372
1379.25	0.013252
1388.9	0.011162
1398.54	0.008142
1408.18	0.008512
1417.83	0.009492
1427.47	0.011442
1437.12	0.014662
1446.76	0.020642
1456.41	0.038252
1466.05	0.086132
1475.7	0.156872
1485.34	0.149262
1494.99	0.071182
1504.63	0.024122
1514.28	0.012372
1523.92	0.008282
1533.57	0.005902
1543.21	0.005132
1552.86	0.005692
1562.5	0.007202
1572.15	0.012312
1581.79	0.023942
1591.44	0.031072
1601.08	0.022032
1610.73	0.017282
1620.37	0.017562
1630.01	0.012182
1639.66	0.007272
1649.3	0.006752
1658.95	0.007822
1668.59	0.011242
1678.24	0.016742
1687.88	0.028902
1697.53	0.060132
1707.17	0.101622
1716.82	0.090962
1726.46	0.046432
1736.11	0.025472
1745.75	0.014672
1755.4	0.008372
1765.04	0.005422
1774.69	0.004382
1784.33	0.004032
1793.98	0.003632
1803.62	0.003152
1813.27	0.002962
1822.91	0.002542
1832.55	0.002422
1842.2	0.002292
1851.84	0.002692
1861.49	0.003152
1871.13	0.003132
1880.78	0.002652
1890.42	0.002172
1900.07	0.001942
1909.71	0.002102
1919.36	0.002752
1929	0.002652
1938.65	0.002352
1948.29	0.001802
1957.94	0.0015667
1967.58	0.0012775
1977.23	0.001722
1986.87	0.0013553
1996.52	0.0010151
2006.16	0.0013474
2015.81	0.0013046
2025.45	0.0014154
2035.1	0.0013097
2044.74	0.001872
2054.38	0.001752
2064.03	0.0013555
2073.67	0.001742
2083.32	0.0012936
2092.96	0.0012309
2102.61	0.0012728
2112.25	0.0012763
2121.9	0.0012586
2131.54	0.0012468
2141.19	0.001421
2150.83	0.0014625
2160.48	0.0014271
2170.12	0.0012617
2179.77	0.001702
2189.41	0.001622
2199.06	0.0014099
2208.7	0.001205
2218.35	0.0014066
2227.99	0.0011696
2237.64	0.0013138
2247.28	0.001503
2256.92	0.001137
2266.57	0.0014111
2276.21	0.0013611
2285.86	0.0012128
2295.5	0.0015094
2305.15	0.0015558
2314.79	0.0014155
2324.44	0.0013842
2334.08	0.0013166
2343.73	0.0008945
2353.37	0.0013376
2363.02	0.0013399
2372.66	0.0012731
2382.31	0.0014801
2391.95	0.0014664
2401.6	0.0011521
2411.24	0.0011684
2420.89	0.001872
2430.53	0.0013876
2440.18	0.001962
2449.82	0.002152
2459.47	0.0014241
2469.11	0.0013358
2478.75	0.001652
2488.4	0.0013535
2498.04	0.0011709
2507.69	0.0012837
2517.33	0.001243
2526.98	0.0015381
2536.62	0.0015622
2546.27	0.0013887
2555.91	0.001892
2565.56	0.001902
2575.2	0.001922
2584.85	0.0014017
2594.49	0.0014265
2604.14	0.001792
2613.78	0.001144
2623.43	0.000799
2633.07	0.001244
2642.72	0.0011138
2652.36	0.0014356
2662.01	0.001199
2671.65	0.0012976
2681.29	0.0012441
2690.94	0.0015178
2700.58	0.0010456
2710.23	0.0013172
2719.87	0.0014249
2729.52	0.001742
2739.16	0.001772
2748.81	0.002302
2758.45	0.001822
2768.1	0.0015279
2777.74	0.0014471
2787.39	0.0013722
2797.03	0.0015781
2806.68	0.001802
2816.32	0.002162
2825.97	0.002432
2835.61	0.002912
2845.26	0.003272
2854.9	0.002812
2864.55	0.004482
2874.19	0.005452
2883.84	0.008192
2893.48	0.010982
2903.12	0.010492
2912.77	0.010422
2922.41	0.011522
2932.06	0.012562
2941.7	0.017252
2951.35	0.022072
2960.99	0.016842
2970.64	0.014782
2980.28	0.021162
2989.93	0.025142
2999.57	0.018242
3009.22	0.009492
3018.86	0.006592
3028.51	0.005402
3038.15	0.005422
3047.8	0.005652
3057.44	0.005492
3067.09	0.005462
3076.73	0.006432
3086.38	0.006642
3096.02	0.005372
3105.67	0.003612
3115.31	0.003102
3124.95	0.0015871
3134.6	0.001852
3144.24	0.001662
3153.89	0.0011872
3163.53	0.002082
3173.18	0.001662
3182.82	0.001792
3192.47	0.001612
3202.11	0.0010969
3211.76	0.00075
3221.4	0.000153
3231.05	0.000839
3240.69	0.0011004
3250.34	0.0015231
3259.98	0.0013482
3269.63	0.0006288
3279.27	0.0007668
3288.92	0.0013137
3298.56	0.0010158
3308.21	0.0010445
3317.85	0.0012668
3327.49	0.0011904
3337.14	0.0009372
3346.78	0.0008627
3356.43	0.00068241
3366.07	0.0007837
3375.72	0.0012357
3385.36	0.0015325
3395.01	0.003252
3404.65	0.002092
3414.3	0.002042
3423.94	0.001862
3433.59	0.001822
3443.23	0.0012202
3452.88	0.001752
3462.52	0.0012074
3472.17	0.001506
3481.81	0.0013643
3491.46	0.0005031
3501.1	0.0011615
3510.75	0.0011617
3520.39	0.0012128
3530.04	0.0007173
3539.68	0.00064722
3549.32	0.000551
3558.97	0.0005284
3568.61	0.001982
3578.26	0.001742
3587.9	0.0008941
3597.55	0.00061352
3607.19	0.0011474
3616.84	0.0011107
3626.48	0.0008295
3636.13	0.00065931
3645.77	0.000111
3655.42	0.0005164
3665.06	0.0008894
3674.71	0.0009569
3684.35	0.0011485
3694	0.0005104
3703.64	0.0013231
3713.29	0.00048
3722.93	0.0005567
3732.58	0.0011402
3742.22	0.0007713
3751.86	9.6e-05
3761.51	0.0015649
3771.15	0.0011449
3780.8	0.0011904
3790.44	0.0008082
3800.09	0.0011605
3809.73	0.0011338
3819.38	0.0012673
3829.02	0.0014126
3838.67	0.0010426
3848.31	0.0005026
3857.96	0.0009798
3867.6	0.001782
3877.25	0.0012965
3886.89	0.0008842
3896.54	0.0014274
3906.18	0.00066909
3915.83	0.0008811
3925.47	0.0009867
3935.12	0.0011623
3944.76	0.0009772
3954.41	0.001392
3964.05	0.001042
3973.69	0.00063644
3983.34	0.001662
3992.98	0.00067859
