Infrared Spectrum: 2,5-DIANILINO-3,6-DICHLORO HYDROQUINONE
Formula: C18 H14 Cl2 N2 O2
CAS: 101716-14-7
State: SOLID (MINERAL OIL MULL)
Class: COBLENTZ
Instrument: Not specified, most likely a prism, grating, or hybrid spectrometer.
Sampling: TRANSMISSION
Resolution: 4
Origin: DOW CHEMICAL COMPANY
MICROMETERS	TRANSMITTANCE
2.021	0.441
2.06211	0.453
2.10323	0.462
2.14434	0.47
2.18546	0.479
2.22657	0.482
2.26769	0.486
2.3088	0.491
2.34992	0.506
2.39103	0.511
2.43215	0.529
2.47326	0.539
2.51438	0.553
2.55549	0.561
2.59661	0.573
2.63772	0.58
2.67884	0.589
2.71995	0.595
2.76107	0.611
2.80218	0.621
2.8433	0.633
2.88441	0.595
2.92553	0.467
2.96664	0.493
3.00776	0.59
3.04887	0.592
3.08999	0.582
3.1311	0.611
3.17222	0.614
3.21333	0.618
3.25444	0.59
3.29556	0.544
3.33667	0.41
3.37779	0.094
3.4189	0.025
3.46002	0.095
3.50113	0.304
3.54225	0.679
3.58336	0.732
3.62448	0.741
3.66559	0.736
3.70671	0.739
3.74782	0.748
3.78894	0.758
3.83005	0.772
3.87117	0.785
3.91228	0.794
3.9534	0.799
3.99451	0.818
4.03563	0.82
4.07674	0.825
4.11786	0.823
4.15897	0.823
4.20009	0.823
4.2412	0.842
4.28232	0.859
4.32343	0.856
4.36454	0.857
4.40566	0.868
4.44677	0.871
4.48789	0.869
4.529	0.878
4.57012	0.88
4.61123	0.885
4.65235	0.886
4.69346	0.886
4.73458	0.892
4.77569	0.9
4.81681	0.9
4.85792	0.904
4.89904	0.91
4.94015	0.912
4.98127	0.914
5.02238	0.916
5.0635	0.929
5.10461	0.922
5.14573	0.916
5.18684	0.914
5.22796	0.934
5.26907	0.933
5.31019	0.936
5.3513	0.941
5.39242	0.943
5.43353	0.952
5.47465	0.96
5.51576	0.955
5.55687	0.957
5.59799	0.958
5.6391	0.965
5.68022	0.97
5.72133	0.969
5.76245	0.984
5.80356	0.977
5.84468	0.965
5.88579	0.981
5.92691	0.976
5.96802	0.979
6.00914	0.952
6.05025	0.953
6.09137	0.969
6.13248	0.946
6.1736	0.833
6.21471	0.565
6.25583	0.601
6.29694	0.731
6.33806	0.712
6.37917	0.808
6.42029	0.89
6.4614	0.905
6.50252	0.929
6.54363	0.902
6.58475	0.803
6.62586	0.606
6.66697	0.426
6.70809	0.498
6.7492	0.535
6.79032	0.354
6.83143	0.172
6.87255	0.169
6.91366	0.332
6.95478	0.642
6.99589	0.731
7.03701	0.741
7.07812	0.686
7.11924	0.715
7.16035	0.743
7.20147	0.578
7.24258	0.5
7.2837	0.611
7.32481	0.731
7.36593	0.77
7.40704	0.78
7.44816	0.779
7.48927	0.729
7.53039	0.672
7.5715	0.589
7.61262	0.542
7.65373	0.541
7.69485	0.561
7.73596	0.655
7.77708	0.715
7.81819	0.78
7.8593	0.801
7.90042	0.779
7.94153	0.655
7.98265	0.63
8.02376	0.755
8.06488	0.773
8.10599	0.792
8.14711	0.823
8.18822	0.823
8.22934	0.82
8.27045	0.803
8.31157	0.767
8.35268	0.696
8.3938	0.613
8.43491	0.534
8.47603	0.476
8.51714	0.441
8.55826	0.493
8.59937	0.611
8.64049	0.679
8.6816	0.703
8.72272	0.695
8.76383	0.75
8.80495	0.797
8.84606	0.808
8.88718	0.818
8.92829	0.818
8.9694	0.818
9.01052	0.813
9.05163	0.815
9.09275	0.818
9.13386	0.823
9.17498	0.82
9.21609	0.804
9.25721	0.734
9.29832	0.7
9.33944	0.777
9.38055	0.804
9.42167	0.815
9.46278	0.818
9.5039	0.818
9.54501	0.818
9.58613	0.818
9.62724	0.816
9.66836	0.809
9.70947	0.763
9.75059	0.736
9.7917	0.756
9.83282	0.801
9.87393	0.809
9.91505	0.815
9.95616	0.811
9.99728	0.779
10.0384	0.761
10.0795	0.804
10.1206	0.811
10.1617	0.801
10.2028	0.767
10.244	0.703
10.2851	0.583
10.3262	0.551
10.3673	0.631
10.4084	0.717
10.4495	0.768
10.4907	0.792
10.5318	0.797
10.5729	0.806
10.614	0.813
10.6551	0.813
10.6962	0.815
10.7373	0.816
10.7785	0.821
10.8196	0.823
10.8607	0.823
10.9018	0.823
10.9429	0.821
10.984	0.816
11.0251	0.818
11.0663	0.828
11.1074	0.828
11.1485	0.821
11.1896	0.815
11.2307	0.801
11.2718	0.789
11.3129	0.78
11.3541	0.782
11.3952	0.791
11.4363	0.792
11.4774	0.797
11.5185	0.801
11.5596	0.797
11.6008	0.76
11.6419	0.686
11.683	0.573
11.7241	0.51
11.7652	0.578
11.8063	0.678
11.8474	0.714
11.8886	0.731
11.9297	0.75
11.9708	0.76
12.0119	0.767
12.053	0.777
12.0941	0.792
12.1352	0.801
12.1764	0.815
12.2175	0.818
12.2586	0.821
12.2997	0.827
12.3408	0.83
12.3819	0.837
12.423	0.839
12.4642	0.84
12.5053	0.839
12.5464	0.84
12.5875	0.84
12.6286	0.84
12.6697	0.84
12.7109	0.832
12.752	0.815
12.7931	0.809
12.8342	0.816
12.8753	0.82
12.9164	0.827
12.9575	0.823
12.9987	0.82
13.0398	0.813
13.0809	0.796
13.122	0.761
13.1631	0.695
13.2042	0.59
13.2453	0.47
13.2865	0.364
13.3276	0.308
13.3687	0.304
13.4098	0.39
13.4509	0.491
13.492	0.594
13.5332	0.65
13.5743	0.679
13.6154	0.698
13.6565	0.705
13.6976	0.707
13.7387	0.707
13.7798	0.705
13.821	0.698
13.8621	0.693
13.9032	0.696
13.9443	0.705
13.9854	0.712
14.0265	0.72
14.0676	0.724
14.1088	0.724
14.1499	0.72
14.191	0.717
14.2321	0.688
14.2732	0.648
14.3143	0.582
14.3554	0.513
14.3966	0.465
14.4377	0.445
14.4788	0.441
14.5199	0.476
14.561	0.535
14.6021	0.585
14.6433	0.625
14.6844	0.64
14.7255	0.647
14.7666	0.648
14.8077	0.645
14.8488	0.636
14.8899	0.626
14.9311	0.623
14.9722	0.616
15.0133	0.614
15.0544	0.601
15.0955	0.589
15.1366	0.583
15.1777	0.582
15.2189	0.573
15.26	0.563
15.3011	0.556
15.3422	0.549
15.3833	0.542
15.4244	0.53
15.4655	0.527
15.5067	0.518
15.5478	0.506
15.5889	0.503
15.63	0.496
15.6711	0.486
15.7122	0.477
15.7534	0.469
15.7945	0.465
15.8356	0.464
15.8767	0.464
