Infrared Spectrum: 3-HYDROXY-17Alpha-OXA-D-HOMOESTRA-1,3,5(10),6,8-PENTAEN-17-ONE
Formula: C18 H18 O3
CAS: 101790-02-7
State: SOLID (KBr DISC)
Class: COBLENTZ III
Instrument: BECKMAN IR-7
Sampling: TRANSMISSION
Resolution: 4
Origin: THE WORCESTER FOUNDATION FOR EXPERIMENTAL BIOLOGY, Neal L. McNiven
1/CM	TRANSMITTANCE
603.634	0.659
612.357	0.568
621.08	0.568
629.802	0.594
638.525	0.6
647.248	0.56
655.971	0.592
664.693	0.592
673.416	0.579
682.139	0.543
690.862	0.486
699.584	0.507
708.307	0.45
717.03	0.349
725.753	0.468
734.475	0.538
743.198	0.569
751.921	0.4551
760.644	0.4889
769.366	0.565
778.089	0.594
786.812	0.596
795.535	0.4149
804.257	0.597
812.98	0.5331
821.703	0.429
830.426	0.569
839.148	0.638
847.871	0.5531
856.594	0.2
865.317	0.458
874.039	0.6
882.762	0.621
891.485	0.621
900.208	0.607
908.93	0.597
917.653	0.576
926.376	0.508
935.099	0.454
943.821	0.4421
952.544	0.444
961.267	0.386
969.99	0.426
978.712	0.1071
987.435	0.3179
996.158	0.51
1004.88	0.479
1013.6	0.401
1022.33	0.3939
1031.05	0.3431
1039.77	0.443
1048.49	0.439
1057.22	0.392
1065.94	0.242
1074.66	0.05
1083.39	0.157
1092.11	0.4
1100.83	0.447
1109.55	0.1972
1118.28	0.3779
1127	0.446
1135.72	0.36
1144.44	0.45
1153.17	0.355
1161.89	0.3861
1170.61	0.244
1179.34	0.247
1188.06	0.402
1196.78	0.2791
1205.5	0.122
1214.23	0.082
1222.95	0.242
1231.67	0.17
1240.39	0.178
1249.12	0.4159
1257.84	0.475
1266.56	0.444
1275.29	0.436
1284.01	0.418
1292.73	0.3291
1301.45	0.137
1310.18	0.096
1318.9	0.165
1327.62	0.371
1336.35	0.326
1345.07	0.378
1353.79	0.287
1362.51	0.403
1371.24	0.389
1379.96	0.2831
1388.68	0.173
1397.4	0.164
1406.13	0.342
1414.85	0.455
1423.57	0.431
1432.3	0.305
1441.02	0.407
1449.74	0.444
1458.46	0.426
1467.19	0.428
1475.91	0.433
1484.63	0.378
1493.35	0.539
1502.08	0.536
1510.8	0.523
1519.52	0.506
1528.25	0.489
1536.97	0.517
1545.69	0.537
1554.41	0.536
1563.14	0.494
1571.86	0.418
1580.58	0.351
1589.31	0.315
1598.03	0.126
1606.75	0.254
1615.47	0.222
1624.2	0.192
1632.92	0.316
1641.64	0.351
1650.36	0.357
1659.09	0.278
1667.81	0.213
1676.53	0.078
1685.26	0.047
1693.98	0.034
1702.7	0.116
1711.42	0.214
1720.15	0.328
1728.87	0.408
1737.59	0.503
1746.31	0.57
1755.04	0.61
1763.76	0.633
1772.48	0.647
1781.21	0.651
1789.93	0.655
1798.65	0.652
1807.37	0.671
1816.1	0.677
1824.82	0.68
1833.54	0.675
1842.26	0.671
1850.99	0.67
1859.71	0.669
1868.43	0.666
1877.16	0.653
1885.88	0.63
1894.6	0.629
1903.32	0.642
1912.05	0.647
1920.77	0.647
1929.49	0.642
1938.22	0.64
1946.94	0.636
1955.66	0.632
1964.38	0.633
1973.11	0.631
1981.83	0.627
1990.55	0.624
1999.27	0.619
2008	0.618
2016.72	0.616
2025.44	0.6142
2034.17	0.613
2042.89	0.6111
2051.61	0.61
2060.33	0.608
2069.06	0.607
2077.78	0.605
2086.5	0.6039
2095.22	0.602
2103.95	0.5999
2112.67	0.597
2121.39	0.594
2130.12	0.592
2138.84	0.5898
2147.56	0.5867
2156.28	0.5847
2165.01	0.5827
2173.73	0.5796
2182.45	0.5776
2191.18	0.5752
2199.9	0.5725
2208.62	0.5705
2217.34	0.568
2226.07	0.5655
2234.79	0.5644
2243.51	0.563
2252.23	0.5614
2260.96	0.5593
2269.68	0.557
2278.4	0.5535
2287.13	0.5512
2295.85	0.55
2304.57	0.55
2313.29	0.549
2322.02	0.549
2330.74	0.548
2339.46	0.548
2348.18	0.548
2356.91	0.548
2365.63	0.546
2374.35	0.5439
2383.08	0.5398
2391.8	0.5337
2400.52	0.5278
2409.24	0.5246
2417.97	0.5218
2426.69	0.5177
2435.41	0.5157
2444.13	0.5103
2452.86	0.5046
2461.58	0.5016
2470.3	0.4996
2479.03	0.498
2487.75	0.4945
2496.47	0.492
2505.19	0.4895
2513.92	0.4849
2522.64	0.4758
2531.36	0.473
2540.09	0.4723
2548.81	0.4727
2557.53	0.4737
2566.25	0.476
2574.98	0.4742
2583.7	0.473
2592.42	0.4711
2601.14	0.4701
2609.87	0.4671
2618.59	0.463
2627.31	0.46
2636.04	0.459
2644.76	0.456
2653.48	0.4549
2662.2	0.453
2670.93	0.452
2679.65	0.452
2688.37	0.452
2697.09	0.452
2705.82	0.4507
2714.54	0.4484
2723.26	0.4447
2731.99	0.442
2740.71	0.4406
2749.43	0.439
2758.15	0.438
2766.88	0.436
2775.6	0.436
2784.32	0.435
2793.04	0.4319
2801.77	0.4186
2810.49	0.4094
2819.21	0.3936
2827.94	0.3363
2836.66	0.3401
2845.38	0.3555
2854.1	0.3608
2862.83	0.3417
2871.55	0.313
2880.27	0.3205
2889	0.3279
2897.72	0.3241
2906.44	0.3071
2915.16	0.301
2923.89	0.2806
2932.61	0.2539
2941.33	0.2615
2950.05	0.287
2958.78	0.3092
2967.5	0.3064
2976.22	0.3047
2984.95	0.3206
2993.67	0.3369
3002.39	0.3483
3011.11	0.3604
3019.84	0.364
3028.56	0.3616
3037.28	0.3575
3046	0.356
3054.73	0.3485
3063.45	0.3227
3072.17	0.312
3080.9	0.318
3089.62	0.3299
3098.34	0.3373
3107.06	0.3352
3115.79	0.3208
3124.51	0.3165
3133.23	0.3058
3141.96	0.2947
3150.68	0.2844
3159.4	0.2735
3168.12	0.2623
3176.85	0.2503
3185.57	0.2381
3194.29	0.225
3203.01	0.2098
3211.74	0.1925
3220.46	0.1755
3229.18	0.1617
3237.91	0.156
3246.63	0.126
3255.35	0.107
3264.07	0.0852
3272.8	0.0724
3281.52	0.0723
3290.24	0.082
3298.96	0.0963
3307.69	0.1145
3316.41	0.1355
3325.13	0.1599
3333.86	0.1781
3342.58	0.1972
3351.3	0.2073
3360.02	0.221
3368.75	0.2329
3377.47	0.242
3386.19	0.2555
3394.91	0.2746
3403.64	0.287
3412.36	0.2982
3421.08	0.3066
3429.81	0.3147
3438.53	0.3208
3447.25	0.3317
3455.97	0.3389
3464.7	0.3469
3473.42	0.354
3482.14	0.3571
3490.87	0.3622
3499.59	0.3703
3508.31	0.3804
3517.03	0.3893
3525.76	0.3944
3534.48	0.4002
3543.2	0.4055
3551.92	0.4106
3560.65	0.4156
3569.37	0.4193
3578.09	0.4267
3586.82	0.429
3595.54	0.431
3604.26	0.4339
3612.98	0.436
3621.71	0.4385
3630.43	0.4416
3639.15	0.443
3647.87	0.444
3656.6	0.4417
3665.32	0.439
3674.04	0.4373
3682.77	0.436
3691.49	0.436
3700.21	0.436
3708.93	0.4388
3717.66	0.442
3726.38	0.4429
3735.1	0.444
3743.83	0.445
3752.55	0.443
3761.27	0.4359
3769.99	0.4309
3778.72	0.428
3787.44	0.4279
3796.16	0.426
3804.88	0.4262
3813.61	0.428
3822.33	0.428
3831.05	0.429
3839.78	0.429
3848.5	0.428
3857.22	0.428
3865.94	0.4266
3874.67	0.4256
3883.39	0.4225
3892.11	0.419
3900.83	0.4155
3909.56	0.415
3918.28	0.414
3927	0.413
3935.73	0.412
3944.45	0.411
3953.17	0.41
3961.89	0.409
3970.62	0.4072
3979.34	0.4062
3988.06	0.4042
3996.78	0.402
