Infrared Spectrum: PHOSPHORODICHLORIDIC ACID, PROPYL ESTER
Formula: C3 H7 Cl2 O2 P
CAS: 10173-43-0
State: SOLUTION (10% IN CCl4 FOR 3800-1333, 10% IN CS2 FOR 1333-450 CM^-^1)
Class: COBLENTZ III
Instrument: DOW KBr FOREPRISM-GRATING
Instrument parameters: BLAZED AT 3.5, 12.0, 20.0 MICRON, CHANGED AT 5.0, 7.5, 14.9 MICRON
Sampling: TRANSMISSION
Path length: 0.011, 0.011 CM
Resolution: 4
Origin: DOW CHEMICAL COMPANY
1/CM	TRANSMITTANCE
431.659	0.878
440.421	0.879
449.182	0.881
457.944	0.886
466.706	0.898
475.467	0.905
484.229	0.905
492.991	0.903
501.752	0.881
510.514	0.801
519.276	0.348
528.037	0.412
536.799	0.37
545.561	0.107
554.322	0.102
563.084	0.162
571.846	0.001
580.607	0.01
589.369	0.072
598.131	0
606.892	0.017
615.654	0.469
624.416	0.788
633.177	0.887
641.939	0.904
650.701	0.892
659.462	0.941
668.224	0.976
676.986	0.991
685.747	0.993
694.509	0.989
703.271	0.979
712.032	0.961
720.794	0.913
729.556	0.765
738.317	0.629
747.079	0.856
755.841	0.912
764.602	0.963
773.364	0.98
782.126	0.972
790.887	0.954
799.649	0.935
808.411	0.89
817.172	0.804
825.934	0.663
834.696	0.398
843.457	0.449
852.219	0.631
860.981	0.715
869.742	0.758
878.504	0.766
887.266	0.829
896.027	0.857
904.789	0.796
913.551	0.84
922.312	0.892
931.074	0.903
939.836	0.893
948.597	0.87
957.359	0.811
966.121	0.707
974.882	0.478
983.644	0.113
992.406	0.012
1001.17	0.002
1009.93	0.009
1018.69	0.03
1027.45	0.086
1036.21	0.086
1044.98	0.117
1053.74	0.157
1062.5	0.52
1071.26	0.726
1080.02	0.807
1088.78	0.815
1097.55	0.795
1106.31	0.872
1115.07	0.907
1123.83	0.894
1132.59	0.898
1141.35	0.856
1150.12	0.792
1158.88	0.872
1167.64	0.913
1176.4	0.957
1185.16	0.971
1193.92	0.963
1202.69	0.964
1211.45	0.975
1220.21	0.99
1228.97	0.979
1237.73	0.957
1246.49	0.894
1255.26	0.759
1264.02	0.778
1272.78	0.711
1281.54	0.469
1290.3	0.086
1299.06	0.012
1307.83	0.038
1316.59	0.023
1325.35	0.539
1334.11	0.811
1342.87	0.878
1351.63	0.807
1360.4	0.922
1369.16	0.935
1377.92	0.898
1386.68	0.848
1395.44	0.71
1404.2	0.935
1412.97	0.954
1421.73	0.945
1430.49	0.92
1439.25	0.846
1448.01	0.856
1456.77	0.618
1465.54	0.543
1474.3	0.62
1483.06	0.811
1491.82	0.851
1500.58	0.833
1509.34	0.781
1518.11	0.743
1526.87	0.704
1535.63	0.628
1544.39	0.524
1553.15	0.509
1561.91	0.577
1570.68	0.674
1579.44	0.696
1588.2	0.719
1596.96	0.788
1605.72	0.881
1614.48	0.933
1623.25	0.959
1632.01	0.971
1640.77	0.979
1649.53	0.986
1658.29	0.987
1667.05	0.99
1675.82	0.987
1684.58	0.991
1693.34	0.989
1702.1	0.989
1710.86	0.983
1719.62	0.979
1728.39	0.975
1737.15	0.963
1745.91	0.974
1754.67	0.976
1763.43	0.979
1772.19	0.98
1780.96	0.98
1789.72	0.979
1798.48	0.978
1807.24	0.975
1816	0.974
1824.76	0.965
1833.53	0.954
1842.29	0.953
1851.05	0.956
1859.81	0.959
1868.57	0.961
1877.33	0.974
1886.1	0.978
1894.86	0.983
1903.62	0.987
1912.38	0.993
1921.14	0.994
1929.9	0.998
1938.67	0.998
1947.43	1
1956.19	0.998
1964.95	0.998
1973.71	0.998
1982.47	0.993
1991.24	0.991
2000	0.994
2008.76	0.995
2017.52	0.997
2026.28	0.998
2035.04	1
2043.81	1.001
2052.57	1.001
2061.33	1.001
2070.09	1.001
2078.85	1.001
2087.61	1.001
2096.38	1.001
2105.14	1.001
2113.9	1.001
2122.66	1.001
2131.42	1
2140.18	0.998
2148.95	0.998
2157.71	0.998
2166.47	0.998
2175.23	0.998
2183.99	0.998
2192.75	0.9978
2201.52	0.997
2210.28	0.997
2219.04	0.997
2227.8	0.9965
2236.56	0.995
2245.32	0.993
2254.09	0.9898
2262.85	0.9835
2271.61	0.9787
2280.37	0.975
2289.13	0.9717
2297.89	0.9677
2306.66	0.9683
2315.42	0.9743
2324.18	0.9783
2332.94	0.978
2341.7	0.9747
2350.46	0.9767
2359.23	0.9824
2367.99	0.9864
2376.75	0.9904
2385.51	0.9934
2394.27	0.995
2403.03	0.995
2411.8	0.997
2420.56	0.997
2429.32	0.997
2438.08	0.997
2446.84	0.997
2455.6	0.997
2464.37	0.997
2473.13	0.997
2481.89	0.997
2490.65	0.997
2499.41	0.997
2508.17	0.997
2516.94	0.995
2525.7	0.995
2534.46	0.994
2543.22	0.9935
2551.98	0.993
2560.74	0.9904
2569.51	0.9849
2578.27	0.9808
2587.03	0.982
2595.79	0.983
2604.55	0.984
2613.31	0.9852
2622.08	0.986
2630.84	0.989
2639.6	0.9896
2648.36	0.99
2657.12	0.99
2665.88	0.99
2674.65	0.9877
2683.41	0.9846
2692.17	0.9837
2700.93	0.987
2709.69	0.987
2718.45	0.983
2727.22	0.98
2735.98	0.9753
2744.74	0.974
2753.5	0.9752
2762.26	0.9775
2771.02	0.976
2779.79	0.9775
2788.55	0.979
2797.31	0.978
2806.07	0.9716
2814.83	0.9672
2823.59	0.9609
2832.36	0.9467
2841.12	0.9342
2849.88	0.8953
2858.64	0.8841
2867.4	0.8934
2876.16	0.8406
2884.93	0.629
2893.69	0.737
2902.45	0.683
2911.21	0.7433
2919.97	0.7367
2928.73	0.6544
2937.5	0.6124
2946.26	0.6036
2955.02	0.6066
2963.78	0.4532
2972.54	0.2445
2981.3	0.2589
2990.07	0.4309
2998.83	0.6869
3007.59	0.838
3016.35	0.9131
3025.11	0.9421
3033.87	0.956
3042.64	0.9641
3051.4	0.974
3060.16	0.9761
3068.92	0.98
3077.68	0.982
3086.44	0.9861
3095.21	0.989
3103.97	0.987
3112.73	0.989
3121.49	0.9901
3130.25	0.991
3139.01	0.991
3147.78	0.993
3156.54	0.991
3165.3	0.99
3174.06	0.989
3182.82	0.99
3191.58	0.99
3200.35	0.9914
3209.11	0.993
3217.87	0.993
3226.63	0.9925
3235.39	0.9902
3244.15	0.993
3252.92	0.994
3261.68	0.994
3270.44	0.993
3279.2	0.9916
3287.96	0.9924
3296.72	0.991
3305.49	0.9907
3314.25	0.99
3323.01	0.99
3331.77	0.99
3340.53	0.99
3349.29	0.991
3358.06	0.989
3366.82	0.989
3375.58	0.989
3384.34	0.989
3393.1	0.989
3401.86	0.99
3410.63	0.9918
3419.39	0.994
3428.15	0.993
3436.91	0.991
3445.67	0.993
3454.43	0.993
3463.2	0.995
3471.96	0.9961
3480.72	0.9945
3489.48	0.997
3498.24	0.998
3507	0.995
3515.77	0.995
3524.53	0.994
3533.29	0.9935
3542.05	0.993
3550.81	0.9961
3559.57	0.998
3568.34	1.0006
3577.1	1.004
3585.86	1.005
3594.62	1.004
3603.38	1.002
3612.14	1.002
3620.91	1.002
3629.67	1.002
3638.43	1.0033
3647.19	1.004
3655.95	1.004
3664.71	1.004
3673.48	1.002
3682.24	0.9973
3691	1
3699.76	1.005
3708.52	1.0074
3717.28	1.008
3726.05	1.008
3734.81	1.008
3743.57	1.006
3752.33	1.006
3761.09	1.006
3769.85	1.006
3778.62	1.005
3787.38	1.0002
3796.14	0.991
