Infrared Spectrum: DI-N-BUTYL-2,5-DIETHYL ADIPATE
Formula: C18 H34 O4
CAS: 101885-30-7
Class: COBLENTZ
Instrument: Not specified, most likely a prism, grating, or hybrid spectrometer.
Sampling: TRANSMISSION
Path length: 0.0026 CM
Resolution: 4
MICROMETERS	TRANSMITTANCE
2.034	0.918
2.07264	0.918
2.11127	0.931
2.14991	0.914
2.18854	0.88
2.22718	0.87
2.26581	0.881
2.30445	0.896
2.34308	0.899
2.38172	0.894
2.42035	0.904
2.45899	0.918
2.49762	0.925
2.53626	0.933
2.57489	0.933
2.61353	0.944
2.65216	0.933
2.6908	0.925
2.72943	0.92
2.76807	0.93
2.8067	0.928
2.84534	0.91
2.88397	0.889
2.92261	0.928
2.96124	0.938
2.99988	0.941
3.03851	0.936
3.07715	0.931
3.11578	0.915
3.15442	0.915
3.19305	0.904
3.23169	0.881
3.27032	0.805
3.30896	0.541
3.34759	0.051
3.38623	0.03
3.42486	0.121
3.4635	0.113
3.50213	0.452
3.54077	0.755
3.5794	0.826
3.61804	0.88
3.65667	0.854
3.69531	0.902
3.73394	0.915
3.77258	0.923
3.81121	0.941
3.84985	0.94
3.88848	0.948
3.92712	0.951
3.96575	0.951
4.00439	0.957
4.04302	0.957
4.08166	0.959
4.12029	0.954
4.15893	0.951
4.19756	0.949
4.2362	0.957
4.27483	0.952
4.31347	0.943
4.3521	0.951
4.39074	0.957
4.42937	0.959
4.46801	0.965
4.50664	0.965
4.54528	0.965
4.58391	0.964
4.62255	0.962
4.66118	0.962
4.69982	0.959
4.73845	0.954
4.77709	0.956
4.81572	0.954
4.85436	0.954
4.89299	0.954
4.93163	0.954
4.97026	0.954
5.0089	0.952
5.04753	0.954
5.08617	0.959
5.1248	0.959
5.16344	0.954
5.20207	0.952
5.24071	0.952
5.27934	0.952
5.31798	0.959
5.35661	0.954
5.39525	0.949
5.43388	0.948
5.47252	0.943
5.51115	0.918
5.54979	0.886
5.58842	0.823
5.62706	0.74
5.66569	0.62
5.70433	0.363
5.74296	0.032
5.7816	0.014
5.82023	0.068
5.85887	0.429
5.8975	0.594
5.93614	0.653
5.97477	0.79
6.01341	0.849
6.05204	0.891
6.09068	0.894
6.12931	0.909
6.16795	0.914
6.20658	0.915
6.24522	0.928
6.28385	0.928
6.32249	0.935
6.36112	0.918
6.39976	0.917
6.43839	0.917
6.47703	0.897
6.51566	0.899
6.5543	0.894
6.59293	0.867
6.63157	0.854
6.6702	0.818
6.70884	0.743
6.74747	0.546
6.78611	0.277
6.82474	0.094
6.86338	0.155
6.90201	0.411
6.94065	0.518
6.97928	0.659
7.01792	0.748
7.05655	0.73
7.09519	0.656
7.13382	0.421
7.17246	0.301
7.21109	0.293
7.24973	0.312
7.28836	0.348
7.327	0.354
7.36563	0.418
7.40427	0.461
7.4429	0.499
7.48154	0.551
7.52017	0.567
7.55881	0.526
7.59744	0.486
7.63608	0.448
7.67471	0.442
7.71335	0.461
7.75198	0.426
7.79062	0.333
7.82925	0.225
7.86789	0.111
7.90652	0.115
7.94516	0.149
7.98379	0.175
8.02243	0.184
8.06106	0.162
8.0997	0.158
8.13833	0.186
8.17697	0.149
8.2156	0.155
8.25424	0.163
8.29287	0.1
8.33151	0.066
8.37014	0.056
8.40878	0.048
8.44741	0.027
8.48605	0.019
8.52468	0.017
8.56332	0.017
8.60195	0.017
8.64059	0.017
8.67922	0.027
8.71786	0.051
8.75649	0.094
8.79513	0.157
8.83376	0.218
8.8724	0.26
8.91103	0.28
8.94967	0.296
8.9883	0.345
9.02694	0.351
9.06557	0.34
9.10421	0.301
9.14284	0.288
9.18148	0.303
9.22011	0.367
9.25875	0.413
9.29738	0.395
9.33602	0.359
9.37465	0.345
9.41329	0.371
9.45192	0.487
9.49056	0.588
9.52919	0.623
9.56783	0.643
9.60646	0.633
9.6451	0.625
9.68373	0.601
9.72237	0.562
9.761	0.481
9.79964	0.481
9.83827	0.539
9.87691	0.567
9.91554	0.583
9.95418	0.593
9.99281	0.599
10.0314	0.622
10.0701	0.648
10.1087	0.679
10.1474	0.687
10.186	0.666
10.2246	0.623
10.2633	0.58
10.3019	0.549
10.3405	0.51
10.3792	0.502
10.4178	0.542
10.4564	0.562
10.4951	0.534
10.5337	0.504
10.5723	0.504
10.611	0.538
10.6496	0.619
10.6882	0.716
10.7269	0.773
10.7655	0.79
10.8042	0.803
10.8428	0.808
10.8814	0.821
10.9201	0.834
10.9587	0.846
10.9973	0.849
11.036	0.854
11.0746	0.862
11.1132	0.863
11.1519	0.863
11.1905	0.868
11.2291	0.875
11.2678	0.881
11.3064	0.875
11.345	0.884
11.3837	0.891
11.4223	0.894
11.4609	0.902
11.4996	0.922
11.5382	0.922
11.5769	0.923
11.6155	0.918
11.6541	0.92
11.6928	0.914
11.7314	0.896
11.77	0.889
11.8087	0.839
11.8473	0.802
11.8859	0.779
11.9246	0.777
11.9632	0.797
12.0018	0.821
12.0405	0.839
12.0791	0.85
12.1177	0.854
12.1564	0.831
12.195	0.802
12.2336	0.773
12.2723	0.753
12.3109	0.74
12.3496	0.721
12.3882	0.713
12.4268	0.706
12.4655	0.709
12.5041	0.7
12.5427	0.672
12.5814	0.654
12.62	0.636
12.6586	0.63
12.6973	0.625
12.7359	0.648
12.7745	0.679
12.8132	0.701
12.8518	0.724
12.8904	0.747
12.9291	0.756
12.9677	0.761
13.0063	0.769
13.045	0.769
13.0836	0.764
13.1223	0.763
13.1609	0.752
13.1995	0.737
13.2382	0.73
13.2768	0.714
13.3154	0.714
13.3541	0.727
13.3927	0.729
13.4313	0.724
13.47	0.703
13.5086	0.685
13.5472	0.682
13.5859	0.703
13.6245	0.771
13.6631	0.811
13.7018	0.854
13.7404	0.894
13.779	0.925
13.8177	0.944
13.8563	0.959
13.895	0.964
13.9336	0.965
13.9722	0.975
14.0109	0.982
14.0495	0.985
14.0881	0.983
14.1268	0.987
14.1654	0.982
14.204	0.988
14.2427	0.985
14.2813	0.987
14.3199	0.983
14.3586	0.98
14.3972	0.972
14.4358	0.974
14.4745	0.975
14.5131	0.969
14.5517	0.969
14.5904	0.965
14.629	0.959
14.6677	0.952
14.7063	0.944
14.7449	0.936
14.7836	0.935
14.8222	0.928
14.8608	0.928
14.8995	0.918
14.9381	0.915
14.9767	0.91
15.0154	0.904
15.054	0.899
15.0926	0.901
15.1313	0.886
15.1699	0.883
15.2085	0.87
15.2472	0.867
15.2858	0.855
15.3244	0.849
15.3631	0.841
15.4017	0.834
15.4404	0.826
15.479	0.818
15.5176	0.811
15.5563	0.799
15.5949	0.8
15.6335	0.786
15.6722	0.776
15.7108	0.771
15.7494	0.756
15.7881	0.755
15.8267	0.748
15.8653	0.745
15.904	0.737
15.9426	0.727
15.9812	0.719
