Infrared Spectrum: 3H-1,4-Benzodiazepine-2,5-dione, 8-chloro-1,2,4,5-tetrahydro-1,4-dimethyl-
Formula: C11 H11 Cl N2 O2
CAS: 1018-73-1
State: SOLUTION 7% (CHCl3 FOR 2.5-12.5 microns)
Class: COBLENTZ
Instrument: PERKIN-ELMER 21 (GRATING)
Instrument parameters: FILTER AT ABOUT 10 MICRONS
Path length: 0.01 CM
Resolution: 2
Origin: ABBOTT LABORATORIES
1/CM	TRANSMITTANCE
799	0.7231
808	0.7275
817	0.8086
826	0.7422
835	0.5424
844	0.7766
853	0.7691
862	0.67
871	0.5969
880	0.7134
889	0.7224
898	0.7184
907	0.7169
916	0.7302
925	0.7493
934	0.6963
943	0.5141
952	0.4968
961	0.5589
970	0.7027
979	0.7473
988	0.7505
997	0.7586
1006	0.7578
1015	0.7589
1024	0.752
1033	0.7443
1042	0.7128
1051	0.6345
1060	0.6398
1069	0.6722
1078	0.6691
1087	0.6525
1096	0.5957
1105	0.4298
1114	0.5574
1123	0.5086
1132	0.206
1141	0.5479
1150	0.5812
1159	0.5157
1168	0.6799
1177	0.7483
1186	0.7647
1195	0.7126
1204	0.5881
1213	0.5505
1222	0.5191
1231	0.5524
1240	0.6419
1249	0.6599
1258	0.5176
1267	0.5817
1276	0.7149
1285	0.748
1294	0.7359
1303	0.6694
1312	0.6859
1321	0.7404
1330	0.7522
1339	0.7089
1348	0.5416
1357	0.3721
1366	0.3448
1375	0.6888
1384	0.6551
1393	0.6439
1402	0.4716
1411	0.2759
1420	0.2993
1429	0.4017
1438	0.4763
1447	0.4246
1456	0.3548
1465	0.2939
1474	0.2924
1483	0.392
1492	0.477
1501	0.6837
1510	0.7712
1519	0.7945
1528	0.7852
1537	0.7606
1546	0.7381
1555	0.6081
1564	0.5481
1573	0.6503
1582	0.5705
1591	0.259
1600	0.154
1609	0.5372
1618	0.5436
1627	0.3376
1636	0.1237
1645	0.0462
1654	0.079
1663	0.1293
1672	0.1268
1681	0.0817
1690	0.1142
1699	0.3146
1708	0.5499
1717	0.7251
1726	0.761
1735	0.7785
1744	0.7935
1753	0.8036
1762	0.809
1771	0.8114
1780	0.814
1789	0.8241
1798	0.8323
1807	0.8402
1816	0.8463
1825	0.8485
1834	0.8505
1843	0.852
1852	0.8533
1861	0.854
1870	0.8543
1879	0.8533
1888	0.8517
1897	0.8501
1906	0.85
1915	0.8543
1924	0.8597
1933	0.8665
1942	0.8691
1951	0.8697
1960	0.8694
1969	0.8689
1978	0.8679
1987	0.8677
1996	0.8681
2005	0.869
2014	0.8697
2023	0.8703
2032	0.8705
2041	0.8706
2050	0.8707
2059	0.8707
2068	0.8708
2077	0.8709
2086	0.871
2095	0.8712
2104	0.8714
2113	0.8705
2122	0.8694
2131	0.8689
2140	0.8694
2149	0.87
2158	0.8703
2167	0.8694
2176	0.8683
2185	0.8656
2194	0.8646
2203	0.8655
2212	0.8667
2221	0.8682
2230	0.8693
2239	0.8698
2248	0.8686
2257	0.867
2266	0.8663
2275	0.8666
2284	0.867
2293	0.8677
2302	0.8682
2311	0.8694
2320	0.8711
2329	0.8729
2338	0.875
2347	0.878
2356	0.8837
2365	0.885
2374	0.8858
2383	0.8854
2392	0.8782
2401	0.8671
2410	0.8567
2419	0.8483
2428	0.8434
2437	0.8401
2446	0.8396
2455	0.8408
2464	0.8443
2473	0.8497
2482	0.8543
2491	0.8581
2500	0.8607
2509	0.8613
2518	0.8618
2527	0.8621
2536	0.8625
2545	0.8626
2554	0.8627
2563	0.8627
2572	0.8627
2581	0.8632
2590	0.8635
2599	0.864
2608	0.8641
2617	0.8642
2626	0.8644
2635	0.864
2644	0.8632
2653	0.8622
2662	0.8609
2671	0.8599
2680	0.8591
2689	0.859
2698	0.8597
2707	0.8591
2716	0.8561
2725	0.8528
2734	0.8497
2743	0.8473
2752	0.8458
2761	0.8449
2770	0.8445
2779	0.8451
2788	0.8451
2797	0.8437
2806	0.8408
2815	0.8367
2824	0.8345
2833	0.8285
2842	0.8205
2851	0.8129
2860	0.8054
2869	0.7963
2878	0.7871
2887	0.7762
2896	0.7629
2905	0.7508
2914	0.7392
2923	0.7294
2932	0.7228
2941	0.721
2950	0.7211
2959	0.7156
2968	0.6979
2977	0.6805
2986	0.663
2995	0.6512
3004	0.6506
3013	0.6583
3022	0.7313
3031	0.7927
3040	0.8044
3049	0.8134
3058	0.8206
3067	0.8254
3076	0.8271
3085	0.828
3094	0.8286
3103	0.8293
3112	0.8298
3121	0.83
3130	0.8302
3139	0.8304
3148	0.8305
3157	0.8301
3166	0.8299
3175	0.8297
3184	0.8291
3193	0.828
3202	0.827
3211	0.826
3220	0.8252
3229	0.8245
3238	0.8239
3247	0.8244
3256	0.8251
3265	0.8258
3274	0.8263
3283	0.8269
3292	0.8273
3301	0.8269
3310	0.826
3319	0.8246
3328	0.8232
3337	0.822
3346	0.8223
3355	0.8236
3364	0.8266
3373	0.8298
3382	0.8331
3391	0.8358
3400	0.8366
3409	0.8374
3418	0.8376
3427	0.8378
3436	0.838
3445	0.8392
3454	0.8406
3463	0.8421
3472	0.846
3481	0.8505
3490	0.8553
3499	0.8606
3508	0.8668
3517	0.8678
3526	0.8684
3535	0.869
3544	0.8695
3553	0.8702
3562	0.8715
3571	0.8727
3580	0.8746
3589	0.8777
3598	0.8809
3607	0.8841
3616	0.887
3625	0.8898
3634	0.8926
3643	0.8951
3652	0.8968
3661	0.8984
3670	0.9001
3679	0.901
3688	0.9018
3697	0.9025
3706	0.9033
3715	0.9041
3724	0.9048
3733	0.905
3742	0.905
3751	0.905
3760	0.905
3769	0.9051
3778	0.905
3787	0.9048
3796	0.9046
3805	0.9044
3814	0.9041
3823	0.9039
3832	0.9038
3841	0.9039
3850	0.9039
3859	0.904
3868	0.9041
3877	0.9042
3886	0.9042
3895	0.904
3904	0.9037
3913	0.9034
3922	0.9031
3931	0.9028
3940	0.9027
3949	0.9024
3958	0.9021
3967	0.9018
3976	0.9015
3985	0.9013
3994	0.901
