Infrared Spectrum: 6-CHLORO-2,4-DI-TERT-BUTYLPHENYL PROPIONATE
Formula: C17 H25 Cl O2
CAS: 101865-85-4
State: SOLUTION (10% IN CCl4 FOR 5000-1350 CM^-^1, 10% IN CS2 FOR 1350-625 CM^-^1)
Class: COBLENTZ
Instrument: Not specified, most likely a prism, grating, or hybrid spectrometer.
Sampling: TRANSMISSION
Path length: 0.01 CM, 0.01 CM
Resolution: 4
Origin: DOW CHEMICAL COMPANY
MICROMETERS	TRANSMITTANCE
2.031	0.857
2.07028	0.857
2.10955	0.857
2.14883	0.86
2.1881	0.855
2.22738	0.834
2.26666	0.833
2.30593	0.849
2.34521	0.849
2.38448	0.847
2.42376	0.86
2.46304	0.867
2.50231	0.868
2.54159	0.868
2.58086	0.87
2.62014	0.87
2.65941	0.872
2.69869	0.87
2.73797	0.862
2.77724	0.849
2.81652	0.836
2.85579	0.846
2.89507	0.847
2.93435	0.838
2.97362	0.836
3.0129	0.836
3.05217	0.838
3.09145	0.834
3.13073	0.841
3.17	0.849
3.20928	0.831
3.24855	0.82
3.28783	0.734
3.32711	0.359
3.36638	0.121
3.40566	0.325
3.44493	0.433
3.48421	0.778
3.52348	0.823
3.56276	0.859
3.60204	0.867
3.64131	0.867
3.68059	0.881
3.71986	0.878
3.75914	0.886
3.79842	0.893
3.83769	0.896
3.87697	0.889
3.91624	0.896
3.95552	0.899
3.9948	0.899
4.03407	0.896
4.07335	0.899
4.11262	0.901
4.1519	0.898
4.19118	0.888
4.23045	0.883
4.26973	0.88
4.309	0.878
4.34828	0.883
4.38756	0.898
4.42683	0.902
4.46611	0.906
4.50538	0.904
4.54466	0.911
4.58393	0.914
4.62321	0.911
4.66249	0.911
4.70176	0.909
4.74104	0.914
4.78031	0.911
4.81959	0.902
4.85887	0.896
4.89814	0.893
4.93742	0.893
4.97669	0.886
5.01597	0.893
5.05525	0.896
5.09452	0.898
5.1338	0.899
5.17307	0.898
5.21235	0.898
5.25163	0.886
5.2909	0.875
5.33018	0.868
5.36945	0.864
5.40873	0.855
5.44801	0.828
5.48728	0.809
5.52656	0.739
5.56583	0.529
5.60511	0.152
5.64438	0.105
5.68366	0.391
5.72294	0.705
5.76221	0.799
5.80149	0.831
5.84076	0.857
5.88004	0.859
5.91932	0.859
5.95859	0.859
5.99787	0.862
6.03714	0.851
6.07642	0.846
6.1157	0.83
6.15497	0.783
6.19425	0.661
6.23352	0.535
6.2728	0.545
6.31208	0.482
6.35135	0.365
6.39063	0.381
6.4299	0.412
6.46918	0.453
6.50845	0.543
6.54773	0.569
6.58701	0.6
6.62628	0.637
6.66556	0.618
6.70483	0.399
6.74411	0.265
6.78339	0.268
6.82266	0.237
6.86194	0.315
6.90121	0.343
6.94049	0.563
6.97977	0.567
7.01904	0.592
7.05832	0.588
7.09759	0.414
7.13687	0.393
7.17615	0.572
7.21542	0.611
7.2547	0.517
7.29397	0.268
7.33325	0.419
7.37253	0.407
7.4118	0.577
7.45108	0.702
7.49035	0.707
7.52963	0.742
7.5689	0.791
7.60818	0.784
7.64746	0.744
7.68673	0.644
7.72601	0.488
7.76528	0.417
7.80456	0.467
7.84384	0.467
7.88311	0.482
7.92239	0.449
7.96166	0.598
8.00094	0.653
8.04022	0.629
8.07949	0.483
8.11877	0.292
8.15804	0.215
8.19732	0.373
8.2366	0.451
8.27587	0.338
8.31515	0.218
8.35442	0.184
8.3937	0.199
8.43298	0.257
8.47225	0.339
8.51153	0.398
8.5508	0.425
8.59008	0.393
8.62935	0.279
8.66863	0.168
8.70791	0.184
8.74718	0.279
8.78646	0.254
8.82573	0.158
8.86501	0.059
8.90429	0.059
8.94356	0.166
8.98284	0.279
9.02211	0.36
9.06139	0.344
9.10067	0.202
9.13994	0.148
9.17922	0.299
9.21849	0.427
9.25777	0.444
9.29705	0.393
9.33632	0.462
9.3756	0.517
9.41487	0.529
9.45415	0.564
9.49342	0.624
9.5327	0.69
9.57198	0.718
9.61125	0.742
9.65053	0.752
9.6898	0.762
9.72908	0.768
9.76836	0.776
9.80763	0.775
9.84691	0.747
9.88618	0.699
9.92546	0.661
9.96474	0.682
10.004	0.726
10.0433	0.749
10.0826	0.737
10.1218	0.702
10.1611	0.613
10.2004	0.522
10.2397	0.553
10.2789	0.723
10.3182	0.809
10.3575	0.849
10.3968	0.868
10.436	0.877
10.4753	0.88
10.5146	0.878
10.5539	0.875
10.5932	0.867
10.6324	0.844
10.6717	0.797
10.711	0.755
10.7503	0.762
10.7895	0.773
10.8288	0.791
10.8681	0.799
10.9074	0.779
10.9466	0.779
10.9859	0.81
11.0252	0.817
11.0645	0.799
11.1037	0.776
11.143	0.715
11.1823	0.611
11.2216	0.537
11.2608	0.495
11.3001	0.368
11.3394	0.27
11.3787	0.317
11.4179	0.355
11.4572	0.317
11.4965	0.383
11.5358	0.457
11.575	0.373
11.6143	0.291
11.6536	0.373
11.6929	0.537
11.7322	0.606
11.7714	0.668
11.8107	0.705
11.85	0.736
11.8893	0.745
11.9285	0.747
11.9678	0.736
12.0071	0.711
12.0464	0.681
12.0856	0.65
12.1249	0.631
12.1642	0.656
12.2035	0.707
12.2427	0.728
12.282	0.726
12.3213	0.707
12.3606	0.679
12.3998	0.65
12.4391	0.632
12.4784	0.64
12.5177	0.686
12.5569	0.711
12.5962	0.733
12.6355	0.741
12.6748	0.744
12.7141	0.749
12.7533	0.737
12.7926	0.729
12.8319	0.682
12.8712	0.58
12.9104	0.485
12.9497	0.451
12.989	0.59
13.0283	0.703
13.0675	0.733
13.1068	0.741
13.1461	0.729
13.1854	0.723
13.2246	0.739
13.2639	0.752
13.3032	0.758
13.3425	0.76
13.3817	0.768
13.421	0.771
13.4603	0.773
13.4996	0.778
13.5388	0.773
13.5781	0.77
13.6174	0.765
13.6567	0.757
13.6959	0.747
13.7352	0.729
13.7745	0.713
13.8138	0.695
13.8531	0.695
13.8923	0.703
13.9316	0.71
13.9709	0.72
14.0102	0.723
14.0494	0.726
14.0887	0.724
14.128	0.72
14.1673	0.716
14.2065	0.711
14.2458	0.707
14.2851	0.702
14.3244	0.695
14.3636	0.689
14.4029	0.682
14.4422	0.674
14.4815	0.668
14.5207	0.661
14.56	0.653
14.5993	0.644
14.6386	0.629
14.6778	0.616
14.7171	0.606
14.7564	0.597
14.7957	0.587
14.835	0.579
14.8742	0.572
14.9135	0.566
14.9528	0.561
14.9921	0.559
15.0313	0.553
15.0706	0.543
15.1099	0.53
15.1492	0.517
15.1884	0.501
15.2277	0.487
15.267	0.469
15.3063	0.448
15.3455	0.425
15.3848	0.406
15.4241	0.396
15.4634	0.401
15.5026	0.412
15.5419	0.422
15.5812	0.427
15.6205	0.428
15.6597	0.428
15.699	0.425
15.7383	0.417
15.7776	0.411
15.8168	0.406
15.8561	0.404
15.8954	0.409
