Infrared Spectrum: 3H-1,4-Benzodiazepine-2,5-dione, 7-chloro-1,2,4,5-tetrahydro-1,4-dimethyl-
Formula: C11 H11 Cl N2 O2
CAS: 1018-72-0
State: SOLUTION 7% (CHCl3 FOR 2.5-12.5 microns)
Class: COBLENTZ
Instrument: PERKIN-ELMER 21 (GRATING)
Instrument parameters: FILTER AT ABOUT 10 MICRONS
Path length: 0.01 CM
Resolution: 2
Origin: ABBOTT LABORATORIES
1/CM	TRANSMITTANCE
797	1.0166
806	0.9824
815	0.9323
824	0.8664
833	0.3409
842	0.713
851	0.9049
860	0.8555
869	0.8391
878	0.8739
887	0.8455
896	0.7099
905	0.6797
914	0.4628
923	0.8821
932	0.8684
941	0.861
950	0.8107
959	0.7199
968	0.8434
977	0.8496
986	0.8524
995	0.8528
1004	0.8105
1013	0.7552
1022	0.7184
1031	0.6296
1040	0.8184
1049	0.8142
1058	0.7693
1067	0.5193
1076	0.4589
1085	0.3184
1094	0.2539
1103	0.3733
1112	0.5821
1121	0.3503
1130	0.7166
1139	0.6865
1148	0.625
1157	0.7894
1166	0.7893
1175	0.7703
1184	0.7256
1193	0.7593
1202	0.7009
1211	0.6915
1220	0.685
1229	0.6819
1238	0.6796
1247	0.6475
1256	0.5185
1265	0.4449
1274	0.4811
1283	0.8343
1292	0.842
1301	0.8232
1310	0.7701
1319	0.4952
1328	0.2837
1337	0.5741
1346	0.5334
1355	0.4623
1364	0.5625
1373	0.567
1382	0.6121
1391	0.7659
1400	0.7516
1409	0.6153
1418	0.6091
1427	0.5227
1436	0.585
1445	0.5237
1454	0.4489
1463	0.2801
1472	0.242
1481	0.604
1490	0.7696
1499	0.8189
1508	0.888
1517	0.9015
1526	0.8955
1535	0.8724
1544	0.8609
1553	0.795
1562	0.7768
1571	0.778
1580	0.6727
1589	0.4046
1598	0.1137
1607	0.1992
1616	0.4994
1625	0.6965
1634	0.6626
1643	0.5843
1652	0.315
1661	0.1169
1670	0.027
1679	0.0348
1688	0.1079
1697	0.594
1706	0.7621
1715	0.8119
1724	0.8465
1733	0.8565
1742	0.8608
1751	0.8644
1760	0.8913
1769	0.8907
1778	0.8837
1787	0.8789
1796	0.8838
1805	0.9159
1814	0.9198
1823	0.9213
1832	0.922
1841	0.9222
1850	0.9223
1859	0.9223
1868	0.9216
1877	0.9207
1886	0.9167
1895	0.9144
1904	0.9128
1913	0.9129
1922	0.9179
1931	0.9218
1940	0.9232
1949	0.9241
1958	0.9235
1967	0.9222
1976	0.9214
1985	0.9208
1994	0.9193
2003	0.9177
2012	0.916
2021	0.9145
2030	0.9129
2039	0.9121
2048	0.9128
2057	0.9194
2066	0.923
2075	0.9239
2084	0.9243
2093	0.9248
2102	0.9258
2111	0.9276
2120	0.9277
2129	0.9226
2138	0.9212
2147	0.9214
2156	0.9214
2165	0.9212
2174	0.9212
2183	0.9212
2192	0.9212
2201	0.9212
2210	0.9211
2219	0.9209
2228	0.9207
2237	0.9205
2246	0.9208
2255	0.9218
2264	0.9227
2273	0.9237
2282	0.927
2291	0.9307
2300	0.9327
2309	0.9337
2318	0.9341
2327	0.9345
2336	0.9348
2345	0.9349
2354	0.935
2363	0.9347
2372	0.9336
2381	0.9315
2390	0.9263
2399	0.9193
2408	0.9129
2417	0.9088
2426	0.9064
2435	0.9064
2444	0.9064
2453	0.9066
2462	0.907
2471	0.9074
2480	0.9077
2489	0.9082
2498	0.9087
2507	0.9091
2516	0.9095
2525	0.9099
2534	0.9104
2543	0.9105
2552	0.9107
2561	0.9108
2570	0.911
2579	0.9111
2588	0.9107
2597	0.9105
2606	0.9102
2615	0.9099
2624	0.9096
2633	0.9093
2642	0.909
2651	0.9087
2660	0.9082
2669	0.9078
2678	0.907
2687	0.905
2696	0.9023
2705	0.8989
2714	0.8967
2723	0.8953
2732	0.894
2741	0.888
2750	0.8739
2759	0.8584
2768	0.8431
2777	0.8278
2786	0.8126
2795	0.7976
2804	0.785
2813	0.7826
2822	0.7835
2831	0.7835
2840	0.78
2849	0.7663
2858	0.7518
2867	0.7375
2876	0.7233
2885	0.7092
2894	0.6952
2903	0.6812
2912	0.6691
2921	0.6571
2930	0.6544
2939	0.6541
2948	0.6542
2957	0.6544
2966	0.6576
2975	0.677
2984	0.7747
2993	0.8779
3002	0.887
3011	0.8934
3020	0.8981
3029	0.9027
3038	0.9064
3047	0.9099
3056	0.9128
3065	0.9151
3074	0.9173
3083	0.919
3092	0.9201
3101	0.9211
3110	0.9221
3119	0.9231
3128	0.9235
3137	0.9238
3146	0.9241
3155	0.9243
3164	0.9246
3173	0.9249
3182	0.9251
3191	0.9251
3200	0.9252
3209	0.9252
3218	0.9253
3227	0.9253
3236	0.9254
3245	0.9254
3254	0.9253
3263	0.9253
3272	0.9252
3281	0.9252
3290	0.9251
3299	0.9251
3308	0.925
3317	0.925
3326	0.9249
3335	0.9249
3344	0.9248
3353	0.9248
3362	0.9247
3371	0.9248
3380	0.925
3389	0.9252
3398	0.9254
3407	0.9257
3416	0.9259
3425	0.9261
3434	0.9262
3443	0.9265
3452	0.9267
3461	0.9271
3470	0.9277
3479	0.9283
3488	0.9288
3497	0.9295
3506	0.9313
3515	0.9329
3524	0.9347
3533	0.9354
3542	0.9353
3551	0.9343
3560	0.9327
3569	0.9313
3578	0.9301
3587	0.9289
3596	0.9277
3605	0.9266
3614	0.9261
3623	0.9261
3632	0.9261
3641	0.9261
3650	0.9261
3659	0.9261
3668	0.9262
3677	0.9264
3686	0.9265
3695	0.9267
3704	0.9269
3713	0.927
3722	0.9272
3731	0.9274
3740	0.9277
3749	0.9279
3758	0.9282
3767	0.9281
3776	0.9281
3785	0.928
3794	0.9279
3803	0.9279
3812	0.9281
3821	0.9283
3830	0.9285
3839	0.9287
3848	0.9289
3857	0.9291
3866	0.9293
3875	0.9295
3884	0.9298
3893	0.93
3902	0.9302
3911	0.9304
3920	0.9306
3929	0.9308
3938	0.931
3947	0.9311
3956	0.9313
3965	0.9314
3974	0.9315
3983	0.9317
3992	0.9317
