Infrared Spectrum: DI-N-BUTYL-2-ETHYL SUBERATE
Formula: C18 H34 O4
CAS: 101885-32-9
Class: COBLENTZ
Instrument: Not specified, most likely a prism, grating, or hybrid spectrometer.
Sampling: TRANSMISSION
Path length: 0.0026 CM
Resolution: 4
MICROMETERS	TRANSMITTANCE
2.027	0.927
2.06566	0.935
2.10432	0.93
2.14298	0.915
2.18164	0.878
2.22031	0.873
2.25897	0.888
2.29763	0.894
2.33629	0.899
2.37495	0.901
2.41361	0.905
2.45227	0.918
2.49093	0.931
2.52959	0.933
2.56826	0.935
2.60692	0.936
2.64558	0.923
2.68424	0.883
2.7229	0.881
2.76156	0.881
2.80022	0.884
2.83888	0.862
2.87754	0.886
2.91621	0.915
2.95487	0.914
2.99353	0.91
3.03219	0.907
3.07085	0.907
3.10951	0.901
3.14817	0.899
3.18683	0.897
3.22549	0.862
3.26416	0.776
3.30282	0.44
3.34148	0.068
3.38014	0.019
3.4188	0.076
3.45746	0.147
3.49612	0.27
3.53478	0.747
3.57344	0.828
3.61211	0.873
3.65077	0.868
3.68943	0.897
3.72809	0.902
3.76675	0.918
3.80541	0.933
3.84407	0.936
3.88273	0.946
3.92139	0.949
3.96005	0.957
3.99872	0.961
4.03738	0.961
4.07604	0.959
4.1147	0.959
4.15336	0.957
4.19202	0.952
4.23068	0.933
4.26934	0.936
4.308	0.944
4.34667	0.956
4.38533	0.961
4.42399	0.964
4.46265	0.969
4.50131	0.97
4.53997	0.967
4.57863	0.964
4.61729	0.961
4.65595	0.957
4.69462	0.956
4.73328	0.957
4.77194	0.957
4.8106	0.956
4.84926	0.957
4.88792	0.951
4.92658	0.951
4.96524	0.951
5.0039	0.948
5.04257	0.951
5.08123	0.957
5.11989	0.961
5.15855	0.959
5.19721	0.954
5.23587	0.956
5.27453	0.957
5.31319	0.957
5.35185	0.956
5.39052	0.946
5.42918	0.933
5.46784	0.922
5.5065	0.901
5.54516	0.855
5.58382	0.774
5.62248	0.649
5.66114	0.458
5.6998	0.202
5.73847	0.022
5.77713	0.016
5.81579	0.03
5.85445	0.28
5.89311	0.51
5.93177	0.64
5.97043	0.782
6.00909	0.831
6.04775	0.868
6.08642	0.868
6.12508	0.876
6.16374	0.883
6.2024	0.91
6.24106	0.918
6.27972	0.923
6.31838	0.927
6.35704	0.922
6.3957	0.917
6.43437	0.917
6.47303	0.893
6.51169	0.901
6.55035	0.891
6.58901	0.88
6.62767	0.85
6.66633	0.807
6.70499	0.706
6.74365	0.507
6.78232	0.265
6.82098	0.108
6.85964	0.199
6.8983	0.395
6.93696	0.46
6.97562	0.544
7.01428	0.559
7.05294	0.638
7.0916	0.609
7.13026	0.419
7.16893	0.303
7.20759	0.298
7.24625	0.332
7.28491	0.341
7.32357	0.335
7.36223	0.322
7.40089	0.363
7.43955	0.4
7.47821	0.439
7.51688	0.431
7.55554	0.421
7.5942	0.363
7.63286	0.332
7.67152	0.32
7.71018	0.332
7.74884	0.332
7.7875	0.286
7.82616	0.199
7.86483	0.126
7.90349	0.118
7.94215	0.103
7.98081	0.105
8.01947	0.108
8.05813	0.108
8.09679	0.113
8.13545	0.116
8.17411	0.121
8.21278	0.132
8.25144	0.139
8.2901	0.118
8.32876	0.092
8.36742	0.058
8.40608	0.034
8.44474	0.03
8.4834	0.022
8.52206	0.019
8.56073	0.021
8.59939	0.032
8.63805	0.04
8.67671	0.045
8.71537	0.055
8.75403	0.111
8.79269	0.204
8.83135	0.272
8.87001	0.272
8.90868	0.239
8.94734	0.249
8.986	0.299
9.02466	0.322
9.06332	0.343
9.10198	0.314
9.14064	0.283
9.1793	0.288
9.21796	0.367
9.25663	0.398
9.29529	0.369
9.33395	0.332
9.37261	0.309
9.41127	0.361
9.44993	0.468
9.48859	0.575
9.52725	0.63
9.56591	0.638
9.60458	0.596
9.64324	0.551
9.6819	0.528
9.72056	0.5
9.75922	0.478
9.79788	0.487
9.83654	0.547
9.8752	0.58
9.91386	0.588
9.95253	0.593
9.99119	0.599
10.0298	0.627
10.0685	0.646
10.1072	0.651
10.1458	0.645
10.1845	0.63
10.2232	0.589
10.2618	0.562
10.3005	0.544
10.3391	0.539
10.3778	0.541
10.4165	0.562
10.4551	0.581
10.4938	0.589
10.5324	0.576
10.5711	0.591
10.6098	0.599
10.6484	0.622
10.6871	0.69
10.7257	0.748
10.7644	0.777
10.8031	0.8
10.8417	0.811
10.8804	0.815
10.9191	0.828
10.9577	0.829
10.9964	0.841
11.035	0.844
11.0737	0.841
11.1124	0.841
11.151	0.847
11.1897	0.849
11.2283	0.852
11.267	0.847
11.3057	0.844
11.3443	0.847
11.383	0.854
11.4216	0.86
11.4603	0.857
11.499	0.863
11.5376	0.873
11.5763	0.883
11.615	0.886
11.6536	0.883
11.6923	0.873
11.7309	0.86
11.7696	0.834
11.8083	0.799
11.8469	0.763
11.8856	0.752
11.9242	0.76
11.9629	0.773
12.0016	0.808
12.0402	0.824
12.0789	0.842
12.1175	0.852
12.1562	0.865
12.1949	0.871
12.2335	0.87
12.2722	0.852
12.3109	0.844
12.3495	0.831
12.3882	0.82
12.4268	0.815
12.4655	0.811
12.5042	0.802
12.5428	0.792
12.5815	0.792
12.6201	0.797
12.6588	0.805
12.6975	0.813
12.7361	0.823
12.7748	0.829
12.8134	0.839
12.8521	0.85
12.8908	0.852
12.9294	0.86
12.9681	0.863
13.0068	0.86
13.0454	0.85
13.0841	0.842
13.1227	0.82
13.1614	0.8
13.2001	0.777
13.2387	0.768
13.2774	0.761
13.316	0.753
13.3547	0.752
13.3934	0.745
13.432	0.722
13.4707	0.705
13.5093	0.68
13.548	0.692
13.5867	0.706
13.6253	0.732
13.664	0.752
13.7027	0.768
13.7413	0.799
13.78	0.824
13.8186	0.86
13.8573	0.894
13.896	0.902
13.9346	0.92
13.9733	0.923
14.0119	0.931
14.0506	0.94
14.0893	0.94
14.1279	0.941
14.1666	0.946
14.2052	0.946
14.2439	0.951
14.2826	0.952
14.3212	0.944
14.3599	0.952
14.3986	0.949
14.4372	0.949
14.4759	0.946
14.5145	0.94
14.5532	0.948
14.5919	0.933
14.6305	0.933
14.6692	0.936
14.7078	0.93
14.7465	0.927
14.7852	0.927
14.8238	0.92
14.8625	0.914
14.9011	0.912
14.9398	0.901
14.9785	0.897
15.0171	0.894
15.0558	0.888
15.0945	0.883
15.1331	0.878
15.1718	0.868
15.2104	0.855
15.2491	0.85
15.2878	0.834
15.3264	0.831
15.3651	0.813
15.4037	0.811
15.4424	0.802
15.4811	0.797
15.5197	0.794
15.5584	0.786
15.597	0.776
15.6357	0.773
15.6744	0.76
15.713	0.755
15.7517	0.745
15.7904	0.742
15.829	0.739
15.8677	0.732
15.9063	0.729
15.945	0.722
15.9837	0.721
