Infrared Spectrum: 9H-Purine, 6-mercapto-, 8-ethyl-
Formula: C7 H8 N4 S
CAS: 101861-17-0
State: SOLID (0.4 mg / 650 mg KBr DISC)
Class: COBLENTZ III
Instrument: PERKIN-ELMER 21 (GRATING)
Instrument parameters: FILTER CHANGE ABOUT 1090 CM^-^1
Sampling: TRANSMISSION
Resolution: 2
Origin: SOUTHERN RESEARCH INSTITUTE
1/CM	TRANSMITTANCE
599.727	0.899
608.754	0.9143
617.781	0.8823
626.809	0.8429
635.836	0.7476
644.863	0.7958
653.89	0.8619
662.917	0.8417
671.945	0.8328
680.972	0.8099
689.999	0.7998
699.026	0.7943
708.053	0.7864
717.081	0.7652
726.108	0.7421
735.135	0.7286
744.162	0.71
753.189	0.6773
762.216	0.6902
771.244	0.6729
780.271	0.5916
789.298	0.6058
798.325	0.6376
807.352	0.6774
816.38	0.6686
825.407	0.6389
834.434	0.6413
843.461	0.6574
852.488	0.6496
861.516	0.6434
870.543	0.6354
879.57	0.5213
888.597	0.4228
897.624	0.427
906.652	0.7196
915.679	0.7857
924.706	0.7493
933.733	0.7063
942.76	0.7489
951.788	0.7746
960.815	0.7401
969.842	0.7649
978.869	0.7655
987.896	0.7344
996.924	0.7149
1005.95	0.6625
1014.98	0.485
1024.01	0.5227
1033.03	0.3928
1042.06	0.7026
1051.09	0.7527
1060.11	0.7289
1069.14	0.5802
1078.17	0.6271
1087.2	0.7412
1096.22	0.7291
1105.25	0.6736
1114.28	0.7058
1123.3	0.7252
1132.33	0.7304
1141.36	0.7256
1150.39	0.709
1159.41	0.6891
1168.44	0.6565
1177.47	0.6074
1186.49	0.3323
1195.52	0.3876
1204.55	0.4328
1213.58	0.5749
1222.6	0.5842
1231.63	0.6248
1240.66	0.6921
1249.68	0.7402
1258.71	0.711
1267.74	0.6923
1276.77	0.6799
1285.79	0.6407
1294.82	0.6855
1303.85	0.6464
1312.88	0.5947
1321.9	0.5103
1330.93	0.4265
1339.96	0.257
1348.98	0.4115
1358.01	0.5716
1367.04	0.4415
1376.07	0.2777
1385.09	0.2581
1394.12	0.3753
1403.15	0.5679
1412.17	0.5789
1421.2	0.5194
1430.23	0.5027
1439.26	0.525
1448.28	0.6026
1457.31	0.5889
1466.34	0.6266
1475.36	0.6251
1484.39	0.5843
1493.42	0.4104
1502.45	0.2538
1511.47	0.5164
1520.5	0.4561
1529.53	0.2597
1538.56	0.2095
1547.58	0.2184
1556.61	0.3091
1565.64	0.5571
1574.66	0.5148
1583.69	0.4099
1592.72	0.4975
1601.75	0.3987
1610.77	0.1734
1619.8	0.1121
1628.83	0.2318
1637.85	0.4465
1646.88	0.6262
1655.91	0.7185
1664.94	0.7483
1673.96	0.7787
1682.99	0.7885
1692.02	0.8067
1701.04	0.8018
1710.07	0.8043
1719.1	0.8165
1728.13	0.8109
1737.15	0.8124
1746.18	0.8146
1755.21	0.8151
1764.23	0.8103
1773.26	0.8088
1782.29	0.81
1791.32	0.8048
1800.34	0.8035
1809.37	0.798
1818.4	0.7913
1827.43	0.7893
1836.45	0.7681
1845.48	0.7646
1854.51	0.777
1863.53	0.7792
1872.56	0.7784
1881.59	0.7761
1890.62	0.7703
1899.64	0.768
1908.67	0.765
1917.7	0.7666
1926.72	0.7703
1935.75	0.7668
1944.78	0.7617
1953.81	0.7573
1962.83	0.7541
1971.86	0.755
1980.89	0.757
1989.91	0.7596
1998.94	0.7612
2007.97	0.7601
2017	0.7566
2026.02	0.7527
2035.05	0.7496
2044.08	0.7473
2053.11	0.7472
2062.13	0.7474
2071.16	0.7476
2080.19	0.7471
2089.21	0.7466
2098.24	0.744
2107.27	0.7377
2116.3	0.7333
2125.32	0.7304
2134.35	0.7294
2143.38	0.7289
2152.4	0.7283
2161.43	0.7266
2170.46	0.7247
2179.49	0.7226
2188.51	0.72
2197.54	0.7161
2206.57	0.7086
2215.59	0.7045
2224.62	0.7028
2233.65	0.7021
2242.68	0.7011
2251.7	0.7
2260.73	0.6953
2269.76	0.6904
2278.78	0.6856
2287.81	0.6833
2296.84	0.6802
2305.87	0.6737
2314.89	0.6663
2323.92	0.6603
2332.95	0.6589
2341.98	0.6573
2351	0.6498
2360.03	0.6475
2369.06	0.643
2378.08	0.6375
2387.11	0.6318
2396.14	0.6261
2405.17	0.6205
2414.19	0.6141
2423.22	0.6078
2432.25	0.5982
2441.27	0.5985
2450.3	0.6016
2459.33	0.5933
2468.36	0.5815
2477.38	0.5732
2486.41	0.5659
2495.44	0.5599
2504.46	0.5558
2513.49	0.5479
2522.52	0.5385
2531.55	0.5334
2540.57	0.5313
2549.6	0.5276
2558.63	0.5206
2567.66	0.5115
2576.68	0.5019
2585.71	0.491
2594.74	0.4759
2603.76	0.4662
2612.79	0.4587
2621.82	0.4568
2630.85	0.4579
2639.87	0.4576
2648.9	0.4518
2657.93	0.4454
2666.95	0.4483
2675.98	0.4461
2685.01	0.4352
2694.04	0.4227
2703.06	0.4185
2712.09	0.4173
2721.12	0.4066
2730.14	0.4015
2739.17	0.3996
2748.2	0.4
2757.23	0.4017
2766.25	0.397
2775.28	0.3816
2784.31	0.3638
2793.33	0.3724
2802.36	0.3698
2811.39	0.3714
2820.42	0.3684
2829.44	0.3618
2838.47	0.3508
2847.5	0.3389
2856.53	0.33
2865.55	0.3245
2874.58	0.3223
2883.61	0.3213
2892.63	0.3187
2901.66	0.3166
2910.69	0.3172
2919.72	0.3256
2928.74	0.3325
2937.77	0.3224
2946.8	0.3064
2955.82	0.2986
2964.85	0.3025
2973.88	0.3037
2982.91	0.3021
2991.93	0.305
3000.96	0.3121
3009.99	0.3177
3019.01	0.3167
3028.04	0.3156
3037.07	0.3159
3046.1	0.3198
3055.12	0.3273
3064.15	0.3358
3073.18	0.3443
3082.21	0.3457
3091.23	0.3442
3100.26	0.3447
3109.29	0.3534
3118.31	0.3649
3127.34	0.3805
3136.37	0.3903
3145.4	0.3987
3154.42	0.4183
3163.45	0.4288
3172.48	0.4442
3181.5	0.4682
3190.53	0.4809
3199.56	0.4954
3208.59	0.5122
3217.61	0.5353
3226.64	0.5447
3235.67	0.5663
3244.69	0.5762
3253.72	0.5819
3262.75	0.5896
3271.78	0.5985
3280.8	0.606
3289.83	0.6075
3298.86	0.6064
3307.88	0.604
3316.91	0.5991
3325.94	0.5952
3334.97	0.5884
3343.99	0.5783
3353.02	0.5679
3362.05	0.5589
3371.08	0.5519
3380.1	0.5446
3389.13	0.5366
3398.16	0.5304
3407.18	0.5249
3416.21	0.5246
3425.24	0.5255
3434.27	0.5259
3443.29	0.5251
3452.32	0.5286
3461.35	0.5378
3470.37	0.5426
3479.4	0.5442
3488.43	0.5468
3497.46	0.5538
3506.48	0.5622
3515.51	0.5676
3524.54	0.5736
3533.56	0.5797
3542.59	0.5864
3551.62	0.5917
3560.65	0.5876
3569.67	0.5936
3578.7	0.601
3587.73	0.6151
3596.76	0.622
3605.78	0.6293
3614.81	0.6298
3623.84	0.63
3632.86	0.6302
3641.89	0.6292
3650.92	0.6287
3659.95	0.6284
3668.97	0.6287
3678	0.6302
3687.03	0.6309
3696.05	0.6303
3705.08	0.6285
3714.11	0.6254
3723.14	0.6239
3732.16	0.6262
3741.19	0.6237
3750.22	0.6224
3759.24	0.6216
3768.27	0.6139
3777.3	0.6135
3786.33	0.6139
3795.35	0.611
3804.38	0.6045
3813.41	0.6058
3822.43	0.6049
3831.46	0.6014
3840.49	0.6004
3849.52	0.6013
3858.54	0.6021
3867.57	0.6028
3876.6	0.6037
3885.63	0.6026
3894.65	0.5968
3903.68	0.5962
3912.71	0.5946
3921.73	0.5933
3930.76	0.5952
3939.79	0.5941
3948.82	0.5969
3957.84	0.594
3966.87	0.5902
3975.9	0.5879
3984.92	0.5806
3993.95	0.5895
4002.98	0.5883
