Infrared Spectrum: Pentaerythritol, tetrakis(mercaptoacetate)
Formula: C13 H20 O8 S4
CAS: 10193-99-4
State: LIQUID (NEAT)
Class: COBLENTZ III
Instrument: DOW KBr FOREPRISM-GRATING
Instrument parameters: BLAZED AT 3.5, 12.0, 20.0 MICRON AND CHANGED AT 5.0, 7.5, 14.9 MICRON
Sampling: TRANSMISSION
Path length: CAPILLARY
Resolution: 2
Origin: DOW CHEMICAL COMPANY
1/CM	TRANSMITTANCE
3796	0.8906
3787	0.8904
3778	0.8903
3769	0.89
3760	0.8896
3751	0.8891
3742	0.8887
3733	0.8882
3724	0.8878
3715	0.8875
3706	0.8875
3697	0.8874
3688	0.8871
3679	0.8865
3670	0.8859
3661	0.8839
3652	0.882
3643	0.8792
3634	0.8754
3625	0.8707
3616	0.8652
3607	0.8583
3598	0.8509
3589	0.8428
3580	0.8327
3571	0.8176
3562	0.8004
3553	0.7853
3544	0.7731
3535	0.7665
3526	0.7637
3517	0.7622
3508	0.7628
3499	0.7638
3490	0.7651
3481	0.7661
3472	0.7671
3463	0.768
3454	0.77
3445	0.7732
3436	0.7776
3427	0.7825
3418	0.786
3409	0.7891
3400	0.7921
3391	0.7951
3382	0.7982
3373	0.8011
3364	0.8035
3355	0.8056
3346	0.8062
3337	0.8071
3328	0.8078
3319	0.8078
3310	0.8078
3301	0.8071
3292	0.8065
3283	0.8057
3274	0.8051
3265	0.8044
3256	0.8049
3247	0.8057
3238	0.8065
3229	0.8076
3220	0.8092
3211	0.8106
3202	0.8121
3193	0.8133
3184	0.8143
3175	0.8153
3166	0.8164
3157	0.8168
3148	0.8174
3139	0.8176
3130	0.8178
3121	0.8178
3112	0.8178
3103	0.8178
3094	0.8176
3085	0.8169
3076	0.816
3067	0.8144
3058	0.8124
3049	0.8101
3040	0.8064
3031	0.7994
3022	0.7892
3013	0.7761
3004	0.76
2995	0.7389
2986	0.7201
2977	0.7056
2968	0.6935
2959	0.6908
2950	0.7111
2941	0.7204
2932	0.7215
2923	0.7351
2914	0.751
2905	0.7548
2896	0.7611
2887	0.783
2878	0.8007
2869	0.8139
2860	0.8221
2851	0.8274
2842	0.8314
2833	0.8347
2824	0.8366
2815	0.8385
2806	0.8399
2797	0.8409
2788	0.8418
2779	0.8428
2770	0.8437
2761	0.8447
2752	0.8456
2743	0.8456
2734	0.8456
2725	0.8451
2716	0.8444
2707	0.8435
2698	0.8418
2689	0.8402
2680	0.8381
2671	0.836
2662	0.8344
2653	0.8331
2644	0.8324
2635	0.8321
2626	0.8318
2617	0.8303
2608	0.8275
2599	0.8192
2590	0.7926
2581	0.7256
2572	0.6965
2563	0.6954
2554	0.7236
2545	0.7493
2536	0.7703
2527	0.7871
2518	0.8011
2509	0.8107
2500	0.8162
2491	0.8204
2482	0.8237
2473	0.8261
2464	0.8277
2455	0.8293
2446	0.8304
2437	0.8311
2428	0.8318
2419	0.8324
2410	0.833
2401	0.8338
2392	0.8351
2383	0.8383
2374	0.8433
2365	0.8499
2356	0.8533
2347	0.8539
2338	0.8534
2329	0.8528
2320	0.8486
2311	0.8393
2302	0.8348
2293	0.8323
2284	0.8318
2275	0.8315
2266	0.8311
2257	0.8312
2248	0.8315
2239	0.8317
2230	0.8321
2221	0.8324
2212	0.8328
2203	0.8331
2194	0.8335
2185	0.8338
2176	0.8341
2167	0.8345
2158	0.835
2149	0.8355
2140	0.836
2131	0.8365
2122	0.837
2113	0.8373
2104	0.8375
2095	0.8375
2086	0.8375
2077	0.8375
2068	0.8377
2059	0.838
2050	0.8384
2041	0.8387
2032	0.8385
2023	0.8383
2014	0.8368
2005	0.8315
1996	0.8266
1987	0.8266
1978	0.826
1969	0.8259
1960	0.8317
1951	0.827
1942	0.8267
1933	0.8263
1924	0.8268
1915	0.827
1906	0.8267
1897	0.8248
1888	0.8218
1879	0.8193
1870	0.8164
1861	0.8131
1852	0.8084
1843	0.8034
1834	0.798
1825	0.7896
1816	0.7796
1807	0.7675
1798	0.7514
1789	0.7261
1780	0.6787
1771	0.5385
1762	0.3041
1753	0.0943
1744	0.0513
1735	0.0481
1726	0.0964
1717	0.279
1708	0.4339
1699	0.5037
1690	0.5599
1681	0.6312
1672	0.6987
1663	0.7312
1654	0.7521
1645	0.7645
1636	0.7722
1627	0.7782
1618	0.7828
1609	0.7855
1600	0.7887
1591	0.7914
1582	0.7935
1573	0.795
1564	0.7958
1555	0.7964
1546	0.7962
1537	0.7951
1528	0.7928
1519	0.7898
1510	0.7854
1501	0.7789
1492	0.7695
1483	0.7025
1474	0.5682
1465	0.6112
1456	0.6768
1447	0.7218
1438	0.7249
1429	0.6507
1420	0.5498
1411	0.5205
1402	0.5214
1393	0.5488
1384	0.5751
1375	0.635
1366	0.6881
1357	0.7015
1348	0.6928
1339	0.6633
1330	0.6124
1321	0.5112
1312	0.2974
1303	0.2467
1294	0.2111
1285	0.1956
1276	0.1844
1267	0.231
1258	0.3184
1249	0.3991
1240	0.4222
1231	0.4412
1222	0.46
1213	0.461
1204	0.4104
1195	0.3572
1186	0.3009
1177	0.2405
1168	0.192
1159	0.1495
1150	0.1244
1141	0.1342
1132	0.2518
1123	0.4815
1114	0.6465
1105	0.7118
1096	0.7403
1087	0.7407
1078	0.7321
1069	0.6992
1060	0.636
1051	0.6008
1042	0.554
1033	0.4516
1024	0.4192
1015	0.4192
1006	0.4558
997	0.5008
988	0.551
979	0.6148
970	0.6811
961	0.7212
952	0.7297
943	0.7238
934	0.7161
925	0.71
916	0.7135
907	0.7168
898	0.7181
889	0.7208
880	0.7275
871	0.7328
862	0.7396
853	0.7485
844	0.7536
835	0.7555
826	0.7626
817	0.7568
808	0.7568
799	0.7632
790	0.764
781	0.7587
772	0.7504
763	0.7388
754	0.7326
745	0.7432
736	0.7482
727	0.745
718	0.7311
709	0.7051
700	0.693
691	0.7001
682	0.7111
673	0.7356
664	0.7493
655	0.7495
646	0.7494
637	0.7392
628	0.7274
619	0.7161
610	0.7078
601	0.694
592	0.6772
583	0.6694
574	0.6693
565	0.6734
556	0.6792
547	0.6851
538	0.6862
529	0.6851
520	0.6837
511	0.6834
502	0.6843
493	0.6875
484	0.6925
475	0.6958
466	0.6978
