Infrared Spectrum: 1,3-PROPANEDIOL, 2-(HYDROXYMETHYL)-2-METHYL-, TRIS(MERCAPTOACETAE)
Formula: C11 H18 O6 S3
CAS: 10193-98-3
State: LIQUID (NEAT)
Class: COBLENTZ III
Instrument: DOW KBr FOREPRISM-GRATING
Instrument parameters: BLAZED AT 3.5, 12.0, 20.0 MICRON AND CHANGED AT 5.0, 7.5, 14.9 MICRON
Sampling: TRANSMISSION
Path length: CAPILLARY
Resolution: 2
Origin: DOW CHEMICAL COMPANY
1/CM	TRANSMITTANCE
466	0.7125
475	0.7101
484	0.7082
493	0.7075
502	0.7068
511	0.7061
520	0.7062
529	0.7086
538	0.7097
547	0.7085
556	0.7015
565	0.6938
574	0.693
583	0.6948
592	0.7015
601	0.7165
610	0.7331
619	0.7439
628	0.7505
637	0.7557
646	0.7572
655	0.7591
664	0.7542
673	0.7522
682	0.7425
691	0.7361
700	0.7211
709	0.7375
718	0.7625
727	0.7731
736	0.7553
745	0.7645
754	0.7612
763	0.7714
772	0.781
781	0.7884
790	0.794
799	0.796
808	0.7971
817	0.7975
826	0.7901
835	0.7857
844	0.7861
853	0.78
862	0.771
871	0.7648
880	0.7617
889	0.7586
898	0.7548
907	0.7501
916	0.7451
925	0.7397
934	0.7336
943	0.7319
952	0.7561
961	0.7531
970	0.7084
979	0.6207
988	0.5577
997	0.5092
1006	0.4673
1015	0.4166
1024	0.4064
1033	0.4562
1042	0.5884
1051	0.6865
1060	0.734
1069	0.7665
1078	0.7746
1087	0.7705
1096	0.7581
1105	0.73
1114	0.6628
1123	0.4967
1132	0.3202
1141	0.1527
1150	0.1279
1159	0.1576
1168	0.2033
1177	0.2421
1186	0.3103
1195	0.3768
1204	0.4324
1213	0.4841
1222	0.4725
1231	0.462
1240	0.4572
1249	0.4337
1258	0.3521
1267	0.2298
1276	0.1913
1285	0.196
1294	0.2063
1303	0.233
1312	0.3249
1321	0.4781
1330	0.6145
1339	0.6768
1348	0.7145
1357	0.7186
1366	0.7011
1375	0.5662
1384	0.5438
1393	0.6058
1402	0.5623
1411	0.5374
1420	0.5834
1429	0.6785
1438	0.7346
1447	0.724
1456	0.6747
1465	0.6065
1474	0.5385
1483	0.6549
1492	0.7805
1501	0.7862
1510	0.805
1519	0.8083
1528	0.8108
1537	0.8121
1546	0.8124
1555	0.8118
1564	0.8114
1573	0.8103
1582	0.8084
1591	0.8058
1600	0.8031
1609	0.7997
1618	0.7961
1627	0.7924
1636	0.7896
1645	0.7858
1654	0.7819
1663	0.7694
1672	0.7451
1681	0.6918
1690	0.6341
1699	0.5558
1708	0.455
1717	0.3325
1726	0.1635
1735	0.0549
1744	0.0477
1753	0.0727
1762	0.3812
1771	0.5324
1780	0.6601
1789	0.7246
1798	0.7593
1807	0.7811
1816	0.7965
1825	0.8075
1834	0.8161
1843	0.8217
1852	0.8271
1861	0.8321
1870	0.8345
1879	0.8359
1888	0.8378
1897	0.8383
1906	0.8388
1915	0.8398
1924	0.8411
1933	0.8425
1942	0.8418
1951	0.841
1960	0.8428
1969	0.8427
1978	0.8428
1987	0.8437
1996	0.8431
2005	0.8394
2014	0.835
2023	0.8312
2032	0.8309
2041	0.8308
2050	0.8307
2059	0.8308
2068	0.8309
2077	0.8306
2086	0.8302
2095	0.8298
2104	0.8299
2113	0.83
2122	0.8301
2131	0.83
2140	0.83
2149	0.8299
2158	0.8298
2167	0.8296
2176	0.8294
2185	0.8292
2194	0.8288
2203	0.8283
2212	0.8283
2221	0.8284
2230	0.8285
2239	0.8286
2248	0.8287
2257	0.8288
2266	0.8289
2275	0.8284
2284	0.8275
2293	0.8281
2302	0.8294
2311	0.8316
2320	0.8393
2329	0.8485
2338	0.8508
2347	0.8509
2356	0.8506
2365	0.8484
2374	0.8411
2383	0.8348
2392	0.8318
2401	0.8308
2410	0.8308
2419	0.8305
2428	0.8299
2437	0.8294
2446	0.8292
2455	0.8289
2464	0.8284
2473	0.8275
2482	0.8261
2491	0.8235
2500	0.8201
2509	0.8154
2518	0.8099
2527	0.8007
2536	0.7875
2545	0.7676
2554	0.7448
2563	0.7219
2572	0.7108
2581	0.7232
2590	0.758
2599	0.7978
2608	0.8243
2617	0.8288
2626	0.8305
2635	0.8318
2644	0.8333
2653	0.8345
2662	0.836
2671	0.8374
2680	0.8394
2689	0.8413
2698	0.8425
2707	0.8437
2716	0.8445
2725	0.845
2734	0.8452
2743	0.8452
2752	0.8451
2761	0.8448
2770	0.8445
2779	0.8439
2788	0.8427
2797	0.8415
2806	0.8401
2815	0.8383
2824	0.8362
2833	0.8333
2842	0.8304
2851	0.8252
2860	0.8174
2869	0.8041
2878	0.7881
2887	0.7689
2896	0.7478
2905	0.7425
2914	0.7526
2923	0.7433
2932	0.7232
2941	0.7026
2950	0.6849
2959	0.6717
2968	0.6611
2977	0.6525
2986	0.6553
2995	0.686
3004	0.7421
3013	0.7658
3022	0.7832
3031	0.7967
3040	0.8061
3049	0.8124
3058	0.8167
3067	0.8195
3076	0.8209
3085	0.8221
3094	0.8233
3103	0.8234
3112	0.8231
3121	0.8225
3130	0.8223
3139	0.8216
3148	0.8209
3157	0.8201
3166	0.8192
3175	0.8181
3184	0.8171
3193	0.816
3202	0.8149
3211	0.8139
3220	0.8128
3229	0.8118
3238	0.8108
3247	0.81
3256	0.8101
3265	0.8111
3274	0.8124
3283	0.8135
3292	0.8146
3301	0.8157
3310	0.8168
3319	0.818
3328	0.8191
3337	0.8203
3346	0.8237
3355	0.8271
3364	0.8297
3373	0.8321
3382	0.8335
3391	0.8347
3400	0.8349
3409	0.8339
3418	0.833
3427	0.8317
3436	0.8298
3445	0.8277
3454	0.8257
3463	0.8246
3472	0.8255
3481	0.8282
3490	0.8303
3499	0.8318
3508	0.8321
3517	0.8321
3526	0.8313
3535	0.8307
3544	0.8311
3553	0.8327
3562	0.8368
3571	0.8411
3580	0.8475
3589	0.8531
3598	0.8575
3607	0.8612
3616	0.8639
3625	0.8657
3634	0.8675
3643	0.8695
3652	0.8718
3661	0.8745
3670	0.8773
3679	0.8798
3688	0.8818
3697	0.8832
3706	0.8847
3715	0.8861
3724	0.8877
3733	0.889
3742	0.89
3751	0.8908
3760	0.891
3769	0.8908
3778	0.8904
3787	0.89
3796	0.8897
