Infrared Spectrum: ACETALDEHYDE, 2,4-DINITROPHENYL HYDRAZONE
Formula: C8 H8 N4 O4
CAS: 1019-57-4
State: SOLID (KBr PELLET)
Melting point: 154 C
Class: COBLENTZ
Instrument: Not specified, most likely a prism, grating, or hybrid spectrometer.
Sampling: TRANSMISSION
Resolution: 4
MICROMETERS	TRANSMITTANCE
2.02	0.294
2.05341	0.298
2.08682	0.299
2.12024	0.306
2.15365	0.31
2.18706	0.316
2.22047	0.322
2.25389	0.326
2.2873	0.336
2.32071	0.34
2.35412	0.343
2.38753	0.354
2.42095	0.362
2.45436	0.364
2.48777	0.372
2.52118	0.382
2.5546	0.391
2.58801	0.398
2.62142	0.401
2.65483	0.406
2.68824	0.406
2.72166	0.406
2.75507	0.405
2.78848	0.405
2.82189	0.406
2.85531	0.406
2.88872	0.409
2.92213	0.419
2.95554	0.434
2.98896	0.457
3.02237	0.213
3.05578	0.287
3.08919	0.429
3.1226	0.463
3.15602	0.481
3.18943	0.443
3.22284	0.395
3.25625	0.45
3.28967	0.461
3.32308	0.462
3.35649	0.449
3.3899	0.446
3.42331	0.463
3.45673	0.477
3.49014	0.478
3.52355	0.491
3.55696	0.504
3.59038	0.512
3.62379	0.518
3.6572	0.524
3.69061	0.528
3.72402	0.532
3.75744	0.534
3.79085	0.534
3.82426	0.549
3.85767	0.553
3.89109	0.558
3.9245	0.56
3.95791	0.569
3.99132	0.572
4.02473	0.572
4.05815	0.568
4.09156	0.569
4.12497	0.574
4.15838	0.58
4.1918	0.59
4.22521	0.621
4.25862	0.621
4.29203	0.621
4.32545	0.622
4.35886	0.622
4.39227	0.621
4.42568	0.617
4.45909	0.631
4.49251	0.641
4.52592	0.641
4.55933	0.643
4.59274	0.653
4.62616	0.66
4.65957	0.664
4.69298	0.669
4.72639	0.672
4.7598	0.673
4.79322	0.679
4.82663	0.68
4.86004	0.675
4.89345	0.685
4.92687	0.692
4.96028	0.697
4.99369	0.692
5.0271	0.689
5.06051	0.695
5.09393	0.699
5.12734	0.699
5.16075	0.701
5.19416	0.716
5.22758	0.727
5.26099	0.729
5.2944	0.733
5.32781	0.736
5.36122	0.736
5.39464	0.731
5.42805	0.735
5.46146	0.735
5.49487	0.745
5.52829	0.758
5.5617	0.76
5.59511	0.762
5.62852	0.763
5.66194	0.77
5.69535	0.78
5.72876	0.782
5.76217	0.786
5.79558	0.786
5.829	0.79
5.86241	0.772
5.89582	0.771
5.92923	0.745
5.96265	0.731
5.99606	0.705
6.02947	0.622
6.06288	0.422
6.09629	0.286
6.12971	0.2
6.16312	0.02
6.19653	0.03
6.22994	0.094
6.26336	0.086
6.29677	0.09
6.33018	0.181
6.36359	0.352
6.397	0.51
6.43042	0.592
6.46383	0.482
6.49724	0.447
6.53065	0.326
6.56407	0.084
6.59748	0.066
6.63089	0.153
6.6643	0.128
6.69771	0.225
6.73113	0.386
6.76454	0.516
6.79795	0.585
6.83136	0.581
6.86478	0.561
6.89819	0.534
6.9316	0.463
6.96501	0.327
6.99843	0.298
7.03184	0.207
7.06525	0.204
7.09866	0.414
7.13207	0.55
7.16549	0.506
7.1989	0.459
7.23231	0.55
7.26572	0.533
7.29914	0.442
7.33255	0.359
7.36596	0.358
7.39937	0.292
7.43278	0.121
7.4662	0.013
7.49961	0.013
7.53302	0.013
7.56643	0.073
7.59985	0.082
7.63326	0.028
7.66667	0.013
7.70008	0.062
7.73349	0.106
7.76691	0.141
7.80032	0.141
7.83373	0.12
7.86714	0.081
7.90056	0.041
7.93397	0.041
7.96738	0.081
8.00079	0.172
8.0342	0.244
8.06762	0.322
8.10103	0.382
8.13444	0.386
8.16785	0.272
8.20127	0.118
8.23468	0.155
8.26809	0.252
8.3015	0.314
8.33492	0.363
8.36833	0.411
8.40174	0.442
8.43515	0.454
8.46856	0.473
8.50198	0.512
8.53539	0.538
8.5688	0.562
8.60221	0.57
8.63563	0.565
8.66904	0.528
8.70245	0.429
8.73586	0.251
8.76927	0.108
8.80269	0.096
8.8361	0.127
8.86951	0.137
8.90292	0.165
8.93634	0.172
8.96975	0.231
9.00316	0.3
9.03657	0.35
9.06998	0.39
9.1034	0.421
9.13681	0.437
9.17022	0.446
9.20363	0.446
9.23705	0.433
9.27046	0.371
9.30387	0.205
9.33728	0.096
9.37069	0.131
9.40411	0.241
9.43752	0.314
9.47093	0.326
9.50434	0.318
9.53776	0.342
9.57117	0.393
9.60458	0.425
9.63799	0.445
9.67141	0.465
9.70482	0.485
9.73823	0.502
9.77164	0.521
9.80505	0.533
9.83847	0.541
9.87188	0.55
9.90529	0.562
9.9387	0.57
9.97212	0.577
10.0055	0.578
10.0389	0.577
10.0724	0.581
10.1058	0.593
10.1392	0.594
10.1726	0.596
10.206	0.598
10.2394	0.601
10.2728	0.606
10.3062	0.613
10.3397	0.62
10.3731	0.622
10.4065	0.624
10.4399	0.624
10.4733	0.625
10.5067	0.625
10.5401	0.624
10.5735	0.62
10.6069	0.617
10.6404	0.62
10.6738	0.627
10.7072	0.628
10.7406	0.612
10.774	0.562
10.8074	0.459
10.8408	0.387
10.8742	0.414
10.9077	0.431
10.9411	0.429
10.9745	0.513
11.0079	0.58
11.0413	0.604
11.0747	0.618
11.1081	0.622
11.1415	0.617
11.175	0.608
11.2084	0.569
11.2418	0.491
11.2752	0.427
11.3086	0.463
11.342	0.525
11.3754	0.574
11.4088	0.608
11.4423	0.624
11.4757	0.639
11.5091	0.643
11.5425	0.648
11.5759	0.649
11.6093	0.648
11.6427	0.632
11.6761	0.593
11.7096	0.473
11.743	0.389
11.7764	0.423
11.8098	0.502
11.8432	0.544
11.8766	0.525
11.91	0.479
11.9434	0.486
11.9769	0.53
12.0103	0.478
12.0437	0.352
12.0771	0.354
12.1105	0.487
12.1439	0.572
12.1773	0.604
12.2107	0.628
12.2441	0.641
12.2776	0.645
12.311	0.653
12.3444	0.655
12.3778	0.657
12.4112	0.659
12.4446	0.661
12.478	0.664
12.5114	0.664
12.5449	0.664
12.5783	0.665
12.6117	0.665
12.6451	0.667
12.6785	0.668
12.7119	0.671
12.7453	0.671
12.7787	0.672
12.8122	0.675
12.8456	0.676
12.879	0.676
12.9124	0.677
12.9458	0.675
12.9792	0.676
13.0126	0.675
13.046	0.667
13.0795	0.64
13.1129	0.589
13.1463	0.612
13.1797	0.653
13.2131	0.669
13.2465	0.669
13.2799	0.663
13.3133	0.652
13.3468	0.621
13.3802	0.542
13.4136	0.406
13.447	0.286
13.4804	0.299
13.5138	0.401
13.5472	0.505
13.5806	0.576
13.6141	0.605
13.6475	0.613
13.6809	0.613
13.7143	0.605
13.7477	0.58
13.7811	0.501
13.8145	0.387
13.8479	0.29
13.8813	0.286
13.9148	0.358
13.9482	0.457
13.9816	0.521
14.015	0.564
14.0484	0.589
14.0818	0.601
14.1152	0.612
14.1486	0.616
14.1821	0.621
14.2155	0.625
14.2489	0.628
14.2823	0.629
14.3157	0.631
14.3491	0.631
14.3825	0.631
14.4159	0.628
14.4494	0.62
14.4828	0.61
14.5162	0.589
14.5496	0.566
14.583	0.56
14.6164	0.565
14.6498	0.582
14.6832	0.602
14.7167	0.624
14.7501	0.633
14.7835	0.64
14.8169	0.64
14.8503	0.639
14.8837	0.637
14.9171	0.633
14.9505	0.633
14.984	0.633
