Infrared Spectrum: 5-Amino-1-methyl-3-phenylpyrazole
Formula: C 10 H 11 N 3
CAS: 10199-50-5
State: gas
Origin: EPA-IR VAPOR PHASE LIBRARY
1/CM	ABSORBANCE
549.8	0.008713
559.445	0.007393
569.09	0.009753
578.734	0.010143
588.379	0.010373
598.024	0.012323
607.669	0.012703
617.313	0.013123
626.958	0.012833
636.603	0.014703
646.248	0.017903
655.893	0.012823
665.537	0.010133
675.182	0.013713
684.827	0.019353
694.472	0.022163
704.116	0.014713
713.761	0.011043
723.406	0.012853
733.051	0.021283
742.695	0.034343
752.34	0.033863
761.985	0.020273
771.63	0.010463
781.275	0.007873
790.919	0.006333
800.564	0.005653
810.209	0.004273
819.854	0.004693
829.498	0.003203
839.143	0.004383
848.788	0.003763
858.433	0.003833
868.078	0.003343
877.722	0.003533
887.367	0.002643
897.012	0.002893
906.657	0.003723
916.301	0.003513
925.946	0.002563
935.591	0.004023
945.236	0.006483
954.88	0.008153
964.525	0.005523
974.17	0.004483
983.815	0.003953
993.46	0.004063
1003.1	0.004463
1012.75	0.007513
1022.39	0.009413
1032.04	0.005983
1041.68	0.004933
1051.33	0.003623
1060.97	0.005813
1070.62	0.004663
1080.26	0.006693
1089.91	0.004523
1099.55	0.003403
1109.2	0.003023
1118.84	0.002063
1128.49	0.0009833
1138.13	0.001703
1147.78	0.003483
1157.42	0.002473
1167.07	0.001903
1176.71	0.002413
1186.36	0.004913
1196	0.003253
1205.64	0.003563
1215.29	0.002193
1224.93	0.002703
1234.58	0.002933
1244.22	0.001803
1253.87	0.002593
1263.51	0.003843
1273.16	0.007303
1282.8	0.008053
1292.45	0.007563
1302.09	0.006243
1311.74	0.004713
1321.38	0.004703
1331.03	0.004483
1340.67	0.005123
1350.32	0.007003
1359.96	0.013093
1369.61	0.023723
1379.25	0.023073
1388.9	0.013203
1398.54	0.008133
1408.18	0.007563
1417.83	0.007553
1427.47	0.008023
1437.12	0.011453
1446.76	0.016193
1456.41	0.017713
1466.05	0.013713
1475.7	0.016503
1485.34	0.020243
1494.99	0.023073
1504.63	0.024303
1514.28	0.023623
1523.92	0.017763
1533.57	0.015813
1543.21	0.025863
1552.86	0.058303
1562.5	0.055763
1572.15	0.022163
1581.79	0.012923
1591.44	0.012123
1601.08	0.015533
1610.73	0.022863
1620.37	0.025843
1630.01	0.018623
1639.66	0.010263
1649.3	0.006573
1658.95	0.004663
1668.59	0.003953
1678.24	0.003583
1687.88	0.002953
1697.53	0.002163
1707.17	0.002303
1716.82	0.001703
1726.46	0.002203
1736.11	0.002403
1745.75	0.002413
1755.4	0.001913
1765.04	0.002193
1774.69	0.001853
1784.33	0.001923
1793.98	0.002493
1803.62	0.002433
1813.27	0.002113
1822.91	0.002123
1832.55	0.001863
1842.2	0.001683
1851.84	0.001603
1861.49	0.001623
1871.13	0.002283
1880.78	0.002553
1890.42	0.002133
1900.07	0.001743
1909.71	0.0012363
1919.36	0.001773
1929	0.002243
1938.65	0.002273
1948.29	0.002403
1957.94	0.002103
1967.58	0.001733
1977.23	0.0012642
1986.87	0.0012518
1996.52	0.0012011
2006.16	0.001232
2015.81	0.001358
2025.45	0.001413
2035.1	0.0013299
2044.74	0.0014041
2054.38	0.0012676
2064.03	0.0011588
2073.67	0.001453
2083.32	0.0012343
2092.96	0.001763
2102.61	0.0011182
2112.25	0.001593
2121.9	0.001513
2131.54	0.001543
2141.19	0.0013493
2150.83	0.0013888
2160.48	0.0013894
2170.12	0.001553
2179.77	0.0011273
2189.41	0.0012828
2199.06	0.001823
2208.7	0.001503
2218.35	0.001763
2227.99	0.0012923
2237.64	0.001633
2247.28	0.0013497
2256.92	0.001583
2266.57	0.001903
2276.21	0.002133
2285.86	0.001793
2295.5	0.001633
2305.15	0.001973
2314.79	0.001423
2324.44	0.0013827
2334.08	0.001603
2343.73	0.0012028
2353.37	0.001723
2363.02	0.0013589
2372.66	0.0013774
2382.31	0.001503
2391.95	0.001713
2401.6	0.0013388
2411.24	0.001713
2420.89	0.001603
2430.53	0.0012123
2440.18	0.0008822
2449.82	0.001603
2459.47	0.0013044
2469.11	0.0012853
2478.75	0.001533
2488.4	0.001483
2498.04	0.001753
2507.69	0.001463
2517.33	0.001382
2526.98	0.0012764
2536.62	0.001493
2546.27	0.001533
2555.91	0.001903
2565.56	0.001553
2575.2	0.001933
2584.85	0.001793
2594.49	0.001733
2604.14	0.001863
2613.78	0.001327
2623.43	0.001653
2633.07	0.001603
2642.72	0.001533
2652.36	0.001613
2662.01	0.002053
2671.65	0.001743
2681.29	0.0012212
2690.94	0.0010331
2700.58	0.002083
2710.23	0.001943
2719.87	0.002063
2729.52	0.002613
2739.16	0.002423
2748.81	0.0013419
2758.45	0.001743
2768.1	0.002313
2777.74	0.002073
2787.39	0.002803
2797.03	0.003073
2806.68	0.003103
2816.32	0.002733
2825.97	0.002733
2835.61	0.002633
2845.26	0.003103
2854.9	0.002513
2864.55	0.004223
2874.19	0.004873
2883.84	0.006463
2893.48	0.007793
2903.12	0.008173
2912.77	0.007753
2922.41	0.008303
2932.06	0.010773
2941.7	0.016153
2951.35	0.017263
2960.99	0.013173
2970.64	0.007953
2980.28	0.005033
2989.93	0.004263
2999.57	0.003873
3009.22	0.004913
3018.86	0.005963
3028.51	0.007913
3038.15	0.010593
3047.8	0.011773
3057.44	0.016673
3067.09	0.022873
3076.73	0.015823
3086.38	0.009153
3096.02	0.006173
3105.67	0.005083
3115.31	0.003643
3124.95	0.002783
3134.6	0.003333
3144.24	0.002593
3153.89	0.002253
3163.53	0.001633
3173.18	0.0012057
3182.82	0.0014065
3192.47	0.001753
3202.11	0.001703
3211.76	0.001663
3221.4	0.001443
3231.05	0.001643
3240.69	0.0011287
3250.34	0.001853
3259.98	0.0013691
3269.63	0.0009836
3279.27	0.001613
3288.92	0.0009642
3298.56	0.001823
3308.21	0.0011864
3317.85	0.0009157
3327.49	0.001813
3337.14	0.001703
3346.78	0.001014
3356.43	0.001276
3366.07	0.002323
3375.72	0.003953
3385.36	0.004833
3395.01	0.003323
3404.65	0.001753
3414.3	0.002383
3423.94	0.002003
3433.59	0.002493
3443.23	0.002313
3452.88	0.002783
3462.52	0.002943
3472.17	0.002963
3481.81	0.002163
3491.46	0.002343
3501.1	0.0012125
3510.75	0.002443
3520.39	0.001883
3530.04	0.001563
3539.68	0.0010883
3549.32	0.001623
3558.97	0.001743
3568.61	0.0012933
3578.26	0.002003
3587.9	0.0011934
3597.55	0.001583
3607.19	0.0013168
3616.84	0.0012586
3626.48	0.0010027
3636.13	0.001413
3645.77	0.0009975
3655.42	0.000588
3665.06	0.0005935
3674.71	0.0006939
3684.35	0.001833
3694	0.0013715
3703.64	0.0013163
3713.29	0.001983
3722.93	0.0013706
3732.58	0.0011954
3742.22	0.001613
3751.86	0.0008578
3761.51	0.0006502
3771.15	0.001453
3780.8	0.0013961
3790.44	0.001613
3800.09	0.00051131
3809.73	0.0012012
3819.38	0.002023
3829.02	0.0012139
3838.67	0.0011856
3848.31	0.001943
3857.96	0.0011617
3867.6	0.0008231
3877.25	0.001463
3886.89	0.0006715
3896.54	0.001583
3906.18	0.002213
3915.83	0.0007636
3925.47	0.001453
3935.12	0.0009143
3944.76	0.0013601
3954.41	0.001963
3964.05	0.0008037
3973.69	0.0012866
3983.34	0.0012933
3992.98	0.001623
