Infrared Spectrum: CARBONIC ACID, DIPHENYL ESTER
Formula: C13 H10 O3
CAS: 102-09-0
State: SOLUTION (6% IN CCl4 FOR 4000-1350 CM^-^1, 6% IN CS2 FOR 1350-600 CM^-^1)
Class: COBLENTZ III
Instrument: BECKMAN IR-7 (GRATING)
Instrument parameters: GRATING CHANGES AT 3000, 2200, 1150 CM^-^1
Sampling: TRANSMISSION
Path length: 0.011 CM, 0.011 CM
Resolution: 4
Origin: WESTERN REGIONAL RES. USDA
1/CM	TRANSMITTANCE
598.033	0.787
606.558	0.785
615.082	0.766
623.607	0.773
632.131	0.764
640.656	0.724
649.181	0.711
657.705	0.698
666.23	0.717
674.754	0.647
683.279	0.128
691.804	0.585
700.328	0.623
708.853	0.449
717.378	0.55
725.902	0.634
734.427	0.59
742.951	0.204
751.476	0.341
760.001	0.318
768.525	0.476
777.05	0.595
785.574	0.2591
794.099	0.697
802.624	0.729
811.148	0.729
819.673	0.703
828.197	0.741
836.722	0.724
845.247	0.66
853.771	0.628
862.296	0.618
870.82	0.605
879.345	0.674
887.87	0.731
896.394	0.652
904.919	0.565
913.443	0.747
921.968	0.77
930.493	0.766
939.017	0.774
947.542	0.771
956.067	0.76
964.591	0.759
973.116	0.734
981.64	0.686
990.165	0.587
998.69	0.465
1007.21	0.454
1015.74	0.5461
1024.26	0.571
1032.79	0.677
1041.31	0.668
1049.84	0.657
1058.36	0.671
1066.89	0.495
1075.41	0.673
1083.94	0.718
1092.46	0.726
1100.98	0.716
1109.51	0.737
1118.03	0.729
1126.56	0.714
1135.08	0.675
1143.61	0.565
1152.13	0.176
1160.66	0.1589
1169.18	0.164
1177.71	0
1186.23	0.042
1194.76	0.287
1203.28	0.199
1211.8	0.024
1220.33	0
1228.85	0
1237.38	0
1245.9	0.102
1254.43	0.284
1262.95	0.461
1271.48	0.556
1280	0.548
1288.53	0.494
1297.05	0.576
1305.58	0.653
1314.1	0.7
1322.62	0.695
1331.15	0.696
1339.67	0.715
1348.2	0.712
1356.72	0.698
1365.25	0.7
1373.77	0.699
1382.3	0.699
1390.82	0.677
1399.35	0.689
1407.87	0.695
1416.4	0.701
1424.92	0.691
1433.44	0.692
1441.97	0.691
1450.49	0.664
1459.02	0.429
1467.54	0.593
1476.07	0.462
1484.59	0.374
1493.12	0.02
1501.64	0.478
1510.17	0.531
1518.69	0.516
1527.22	0.496
1535.74	0.444
1544.26	0.383
1552.79	0.361
1561.31	0.404
1569.84	0.459
1578.36	0.47
1586.89	0.434
1595.41	0.218
1603.94	0.484
1612.46	0.612
1620.99	0.647
1629.51	0.669
1638.04	0.68
1646.56	0.69
1655.08	0.691
1663.61	0.688
1672.13	0.695
1680.66	0.697
1689.18	0.691
1697.71	0.686
1706.23	0.678
1714.76	0.666
1723.28	0.642
1731.81	0.603
1740.33	0.553
1748.86	0.452
1757.38	0.383
1765.9	0.354
1774.43	0.157
1782.95	0.005
1791.48	0.1221
1800	0.358
1808.53	0.561
1817.05	0.626
1825.58	0.648
1834.1	0.655
1842.63	0.67
1851.15	0.67
1859.67	0.659
1868.2	0.651
1876.72	0.683
1885.25	0.684
1893.77	0.698
1902.3	0.703
1910.82	0.705
1919.35	0.701
1927.87	0.694
1936.4	0.644
1944.92	0.691
1953.45	0.689
1961.97	0.693
1970.49	0.703
1979.02	0.708
1987.54	0.703
1996.07	0.705
2004.59	0.706
2013.12	0.706
2021.64	0.7057
2030.17	0.704
2038.69	0.703
2047.22	0.701
2055.74	0.7007
2064.27	0.6975
2072.79	0.6962
2081.31	0.694
2089.84	0.6917
2098.36	0.691
2106.89	0.69
2115.41	0.6901
2123.94	0.6923
2132.46	0.694
2140.99	0.697
2149.51	0.701
2158.04	0.7043
2166.56	0.708
2175.09	0.7119
2183.61	0.7141
2192.13	0.716
2200.66	0.716
2209.18	0.714
2217.71	0.712
2226.23	0.71
2234.76	0.7084
2243.28	0.708
2251.81	0.7111
2260.33	0.7154
2268.86	0.718
2277.38	0.718
2285.91	0.719
2294.43	0.72
2302.95	0.72
2311.48	0.72
2320	0.72
2328.53	0.72
2337.05	0.72
2345.58	0.722
2354.1	0.7232
2362.63	0.724
2371.15	0.724
2379.68	0.722
2388.2	0.7208
2396.73	0.72
2405.25	0.7207
2413.77	0.722
2422.3	0.7243
2430.82	0.726
2439.35	0.727
2447.87	0.727
2456.4	0.728
2464.92	0.729
2473.45	0.7292
2481.97	0.729
2490.5	0.7293
2499.02	0.7326
2507.55	0.735
2516.07	0.735
2524.59	0.735
2533.12	0.735
2541.64	0.7368
2550.17	0.737
2558.69	0.738
2567.22	0.739
2575.74	0.7371
2584.27	0.737
2592.79	0.737
2601.32	0.736
2609.84	0.735
2618.37	0.7349
2626.89	0.7336
2635.41	0.733
2643.94	0.735
2652.46	0.7361
2660.99	0.737
2669.51	0.737
2678.04	0.737
2686.56	0.737
2695.09	0.737
2703.61	0.737
2712.14	0.736
2720.66	0.735
2729.18	0.7336
2737.71	0.7313
2746.23	0.73
2754.76	0.7278
2763.28	0.7265
2771.81	0.726
2780.33	0.724
2788.86	0.7242
2797.38	0.726
2805.91	0.7277
2814.43	0.729
2822.96	0.731
2831.48	0.7315
2840	0.733
2848.53	0.733
2857.05	0.731
2865.58	0.73
2874.1	0.729
2882.63	0.726
2891.15	0.7247
2899.68	0.724
2908.2	0.724
2916.73	0.723
2925.25	0.723
2933.78	0.7234
2942.3	0.722
2950.82	0.72
2959.35	0.72
2967.87	0.719
2976.4	0.718
2984.92	0.718
2993.45	0.716
3001.97	0.7071
3010.5	0.6982
3019.02	0.6917
3027.55	0.6808
3036.07	0.6612
3044.6	0.6307
3053.12	0.5793
3061.64	0.639
3070.17	0.6214
3078.69	0.5991
3087.22	0.6131
3095.74	0.6381
3104.27	0.654
3112.79	0.6606
3121.32	0.6822
3129.84	0.6975
3138.37	0.7007
3146.89	0.701
3155.42	0.7012
3163.94	0.703
3172.46	0.704
3180.99	0.705
3189.51	0.704
3198.04	0.704
3206.56	0.704
3215.09	0.704
3223.61	0.7043
3232.14	0.706
3240.66	0.7042
3249.19	0.704
3257.71	0.703
3266.24	0.7015
3274.76	0.701
3283.28	0.701
3291.81	0.7013
3300.33	0.703
3308.86	0.704
3317.38	0.7041
3325.91	0.706
3334.43	0.706
3342.96	0.706
3351.48	0.7049
3360.01	0.703
3368.53	0.702
3377.06	0.701
3385.58	0.701
3394.1	0.6996
3402.63	0.7006
3411.15	0.701
3419.68	0.7021
3428.2	0.703
3436.73	0.7024
3445.25	0.701
3453.78	0.7012
3462.3	0.703
3470.83	0.703
3479.35	0.703
3487.88	0.7018
3496.4	0.701
3504.92	0.6993
3513.45	0.699
3521.97	0.697
3530.5	0.696
3539.02	0.695
3547.55	0.693
3556.07	0.692
3564.6	0.692
3573.12	0.692
3581.65	0.693
3590.17	0.6942
3598.69	0.695
3607.22	0.695
3615.74	0.696
3624.27	0.697
3632.79	0.698
3641.32	0.697
3649.84	0.697
3658.37	0.695
3666.89	0.695
3675.42	0.694
3683.94	0.693
3692.47	0.692
3700.99	0.693
3709.51	0.6948
3718.04	0.696
3726.56	0.697
3735.09	0.6986
3743.61	0.699
3752.14	0.7001
3760.66	0.701
3769.19	0.702
3777.71	0.703
3786.24	0.703
3794.76	0.703
3803.29	0.703
3811.81	0.703
3820.33	0.703
3828.86	0.703
3837.38	0.703
3845.91	0.703
3854.43	0.703
3862.96	0.703
3871.48	0.703
3880.01	0.704
3888.53	0.704
3897.06	0.704
3905.58	0.704
3914.11	0.704
3922.63	0.705
3931.15	0.705
3939.68	0.706
3948.2	0.706
3956.73	0.706
3965.25	0.7075
3973.78	0.708
3982.3	0.709
3990.83	0.71
