Infrared Spectrum: Acetic acid, (3,4-dihydroxyphenyl)-,
Formula: C8 H8 O4
CAS: 102-32-9
State: SOLID (SPLIT MULL)
Class: COBLENTZ II
Instrument: BECKMAN IR-9 (GRATING)
Instrument parameters: ORDER CHANGES: 670, 1200, 2000 CM^-^1
Sampling: TRANSMISSION
Resolution: 2
Origin: DOW CHEMICAL COMPANY
1/CM	TRANSMITTANCE
3798	0.5923
3789	0.5952
3780	0.5987
3771	0.6021
3762	0.6055
3753	0.6089
3744	0.6124
3735	0.6159
3726	0.6201
3717	0.6243
3708	0.6291
3699	0.6343
3690	0.6396
3681	0.6446
3672	0.6496
3663	0.6544
3654	0.6593
3645	0.664
3636	0.6687
3627	0.6735
3618	0.6784
3609	0.6834
3600	0.6886
3591	0.6941
3582	0.6987
3573	0.7021
3564	0.7049
3555	0.7048
3546	0.7001
3537	0.6825
3528	0.6634
3519	0.6437
3510	0.6175
3501	0.5658
3492	0.4459
3483	0.2724
3474	0.0989
3465	0.1354
3456	0.2302
3447	0.3237
3438	0.3662
3429	0.375
3420	0.375
3411	0.374
3402	0.3709
3393	0.356
3384	0.3379
3375	0.294
3366	0.2173
3357	0.216
3348	0.253
3339	0.2834
3330	0.3105
3321	0.3346
3312	0.3566
3303	0.3728
3294	0.3878
3285	0.3987
3276	0.4097
3267	0.4199
3258	0.4287
3249	0.4374
3240	0.444
3231	0.4492
3222	0.4544
3213	0.4591
3204	0.4636
3195	0.4676
3186	0.4712
3177	0.4741
3168	0.4762
3159	0.4766
3150	0.4756
3141	0.4737
3132	0.4699
3123	0.4656
3114	0.4607
3105	0.4557
3096	0.4509
3087	0.4466
3078	0.4424
3069	0.4384
3060	0.435
3051	0.4315
3042	0.428
3033	0.4282
3024	0.4285
3015	0.4288
3006	0.431
2997	0.4335
2988	0.4362
2979	0.439
2970	0.442
2961	0.444
2952	0.447
2943	0.4522
2934	0.4586
2925	0.4635
2916	0.465
2907	0.4658
2898	0.4674
2889	0.4704
2880	0.4733
2871	0.4773
2862	0.4834
2853	0.4901
2844	0.4982
2835	0.5064
2826	0.5155
2817	0.5251
2808	0.5352
2799	0.545
2790	0.5503
2781	0.5512
2772	0.5427
2763	0.5239
2754	0.513
2745	0.5131
2736	0.5115
2727	0.5065
2718	0.5007
2709	0.4996
2700	0.5062
2691	0.5165
2682	0.5258
2673	0.5349
2664	0.5438
2655	0.5518
2646	0.5586
2637	0.5639
2628	0.566
2619	0.566
2610	0.5636
2601	0.5518
2592	0.526
2583	0.5225
2574	0.5268
2565	0.5417
2556	0.5548
2547	0.563
2538	0.5723
2529	0.5837
2520	0.5946
2511	0.6046
2502	0.6135
2493	0.6182
2484	0.6164
2475	0.6162
2466	0.6171
2457	0.6205
2448	0.6267
2439	0.6334
2430	0.6393
2421	0.6428
2412	0.6451
2403	0.6497
2394	0.6556
2385	0.6667
2376	0.6751
2367	0.6728
2358	0.6771
2349	0.6799
2340	0.6792
2331	0.6792
2322	0.6807
2313	0.6832
2304	0.6871
2295	0.691
2286	0.6967
2277	0.7024
2268	0.708
2259	0.7132
2250	0.7182
2241	0.7233
2232	0.7292
2223	0.7338
2214	0.7378
2205	0.7421
2196	0.7465
2187	0.7511
2178	0.756
2169	0.7608
2160	0.7658
2151	0.7701
2142	0.7741
2133	0.7775
2124	0.7807
2115	0.7834
2106	0.7861
2097	0.7875
2088	0.7888
2079	0.7899
2070	0.7935
2061	0.8001
2052	0.8055
2043	0.8076
2034	0.8096
2025	0.8115
2016	0.8134
2007	0.8149
1998	0.8171
1989	0.8199
1980	0.8225
1971	0.8249
1962	0.8271
1953	0.8293
1944	0.8311
1935	0.8327
1926	0.8341
1917	0.8353
1908	0.8365
1899	0.8371
1890	0.8381
1881	0.8325
1872	0.8371
1863	0.8353
1854	0.8317
1845	0.8424
1836	0.8528
1827	0.8594
1818	0.8637
1809	0.8585
1800	0.8518
1791	0.8628
1782	0.8668
1773	0.8648
1764	0.8604
1755	0.8441
1746	0.8271
1737	0.8167
1728	0.7539
1719	0.5962
1710	0.3241
1701	0.1921
1692	0.058
1683	0.0842
1674	0.2578
1665	0.4381
1656	0.5567
1647	0.62
1638	0.6638
1629	0.6658
1620	0.577
1611	0.3891
1602	0.6514
1593	0.7231
1584	0.758
1575	0.7778
1566	0.7854
1557	0.7907
1548	0.8001
1539	0.8021
1530	0.7481
1521	0.2278
1512	0.308
1503	0.5969
1494	0.7017
1485	0.7424
1476	0.7245
1467	0.5164
1458	0.6975
1449	0.6417
1440	0.5297
1431	0.5937
1422	0.3558
1413	0.4537
1404	0.5815
1395	0.6241
1386	0.6046
1377	0.462
1368	0.5428
1359	0.5835
1350	0.4412
1341	0.4703
1332	0.5704
1323	0.5001
1314	0.2166
1305	0.4457
1296	0.3443
1287	0.0604
1278	0.2593
1269	0.2823
1260	0.4691
1251	0.4499
1242	0.5436
1233	0.6572
1224	0.7083
1215	0.7021
1206	0.5638
1197	0.1473
1188	0.3828
1179	0.4182
1170	0.4356
1161	0.6425
1152	0.6848
1143	0.7367
1134	0.7556
1125	0.6539
1116	0.4275
1107	0.7018
1098	0.7583
1089	0.7724
1080	0.7811
1071	0.7891
1062	0.7983
1053	0.8061
1044	0.8101
1035	0.8131
1026	0.8168
1017	0.8204
1008	0.8231
999	0.8213
990	0.8171
981	0.7706
972	0.7678
963	0.7744
954	0.7539
945	0.7776
936	0.6376
927	0.6701
918	0.6036
909	0.5501
900	0.6159
891	0.7031
882	0.7558
873	0.6041
864	0.8225
855	0.831
846	0.8175
837	0.6081
828	0.8205
819	0.7411
810	0.4004
801	0.7575
792	0.8433
783	0.7728
774	0.4044
765	0.8058
756	0.8237
747	0.8168
738	0.8001
729	0.6226
720	0.6948
711	0.7554
702	0.8487
693	0.858
684	0.8589
675	0.8649
666	0.8521
657	0.8388
648	0.8143
639	0.7467
630	0.4764
621	0.7065
612	0.655
603	0.6319
594	0.678
585	0.7686
576	0.6015
567	0.4343
558	0.4092
549	0.4947
540	0.6036
531	0.6589
522	0.6561
513	0.6328
504	0.7475
495	0.7908
486	0.7847
477	0.7894
468	0.7775
459	0.6086
450	0.7571
441	0.6817
432	0.6834
423	0.6306
414	0.6055
405	0.5966
