Infrared Spectrum: 1,3-Diphenylguanidine
Formula: C 13 H 13 N 3
CAS: 102-06-7
State: gas
Instrument: HP-GC/MS/IRD
Origin: NIST Mass Spectrometry Data Center
1/CM	ABSORBANCE
550	0.00162
562	0.000315
574	0.0002025
586	0.0002865
598	0.000357
610	0.000567
622	0.0005805
634	0.0005595
646	0.0007185
658	0.000813
670	0.0011055
682	0.0014985
694	0.002454
706	0.001938
718	0.0013365
730	0.001533
742	0.002472
754	0.0023235
766	0.0017355
778	0.0009345
790	0.0007155
802	0.000645
814	0.0006615
826	0.0005835
838	0.0005025
850	0.0005115
862	0.000495
874	0.0005475
886	0.000573
898	0.000759
910	0.0006645
922	0.0006345
934	0.000534
946	0.000684
958	0.0008685
970	0.0007665
982	0.0006795
994	0.000618
1006	0.0006495
1018	0.000582
1030	0.000729
1042	0.000378
1054	0.0004515
1066	0.0005505
1078	0.0004935
1090	0.000402
1102	0.000414
1114	0.0002325
1126	0.000177
1138	0.000126
1150	0
1162	8.25e-05
1174	0.000165
1186	6e-05
1198	0.000399
1210	0.0006525
1222	0.001572
1234	0.002541
1246	0.002025
1258	0.001236
1270	0.000825
1282	0.000723
1294	0.0006525
1306	0.0006885
1318	0.000927
1330	0.0012585
1342	0.000846
1354	0.0008055
1366	0.0011595
1378	0.002115
1390	0.0033615
1402	0.002799
1414	0.0014475
1426	0.0012135
1438	0.0016395
1450	0.0012315
1462	0.001254
1474	0.0019575
1486	0.003831
1498	0.0050475
1510	0.0031395
1522	0.002547
1534	0.001824
1546	0.0013035
1558	0.00147
1570	0.0029985
1582	0.008295
1594	0.008598
1606	0.0039075
1618	0.002271
1630	0.002115
1642	0.0026625
1654	0.0048015
1666	0.011298
1678	0.014205
1690	0.006561
1702	0.0024585
1714	0.001299
1726	0.000918
1738	0.000678
1750	0.0004665
1762	0.0004305
1774	0.000438
1786	0.0004155
1798	0.000357
1810	0.0003345
1822	0.0002805
1834	0.000279
1846	0.0002475
1858	0.0002775
1870	0.000258
1882	0.0002715
1894	0.0002595
1906	0.0003135
1918	0.0003465
1930	0.000393
1942	0.0003555
1954	0.0002895
1966	0.000234
1978	0.000249
1990	0.000207
2002	0.0002085
2014	0.0002595
2026	0.0003465
2038	0.000381
2050	0.000369
2062	0.000363
2074	0.000378
2086	0.000465
2098	0.000699
2110	0.0012645
2122	0.001485
2134	0.001833
2146	0.003168
2158	0.003183
2170	0.001548
2182	0.0010125
2194	0.0008655
2206	0.000696
2218	0.000552
2230	0.0005745
2242	0.000654
2254	0.0006915
2266	0.000609
2278	0.0005355
2290	0.00051
2302	0.000405
2314	0.000357
2326	0.0003225
2338	0.0003075
2350	0.000279
2362	0.000258
2374	0.000249
2386	0.0002445
2398	0.0002415
2410	0.000255
2422	0.0002625
2434	0.000288
2446	0.000231
2458	0.000243
2470	0.0002535
2482	0.0002685
2494	0.0002955
2506	0.000294
2518	0.0002415
2530	0.0002835
2542	0.000285
2554	0.0002235
2566	0.00021
2578	0.000243
2590	0.000246
2602	0.000252
2614	0.000267
2626	0.0002805
2638	0.000222
2650	0.00027
2662	0.0001785
2674	0.000231
2686	0.000204
2698	0.0002055
2710	0.000207
2722	0.000231
2734	0.00024
2746	0.000234
2758	0.0002415
2770	0.0002745
2782	0.000291
2794	0.0002805
2806	0.0002955
2818	0.000315
2830	0.0002745
2842	0.000273
2854	0.0002805
2866	0.0003375
2878	0.0003225
2890	0.000306
2902	0.0003945
2914	0.000354
2926	0.0003675
2938	0.0002775
2950	0.0003405
2962	0.000333
2974	0.000342
2986	0.000387
2998	0.0004695
3010	0.000636
3022	0.001008
3034	0.001335
3046	0.0012465
3058	0.0015285
3070	0.002016
3082	0.0016065
3094	0.0010545
3106	0.000768
3118	0.0004395
3130	0.000396
3142	0.000303
3154	0.0003525
3166	0.000378
3178	0.000336
3190	0.00039
3202	0.000378
3214	0.0003375
3226	0.0003465
3238	0.000363
3250	0.0003945
3262	0.0003525
3274	0.000357
3286	0.00036
3298	0.000327
3310	0.0003225
3322	0.0004185
3334	0.0003645
3346	0.000396
3358	0.0003795
3370	0.0003735
3382	0.0004935
3394	0.0006915
3406	0.0011445
3418	0.001161
3430	0.000849
3442	0.000711
3454	0.000603
3466	0.0005115
3478	0.000504
3490	0.0007065
3502	0.0008355
3514	0.0010845
3526	0.000609
3538	0.0004485
3550	0.0003255
3562	0.0002655
3574	0.000345
3586	0.000237
3598	0.000294
3610	0.000192
3622	0.0003195
3634	0.000276
3646	0.0002205
3658	0.0002715
3670	0.00027
3682	0.000297
3694	0.0003375
3706	0.000282
3718	0.0003705
3730	0.000357
3742	0.000237
3754	0.00024
3766	0.000336
3778	0.0003375
3790	0.0004035
3802	0.000327
3814	0.0003255
3826	0.000378
3838	0.00036
