Infrared Spectrum: TRIETHANOLAMINE
Formula: C6 H15 N O3
CAS: 102-71-6
State: LIQUID (NEAT)
Class: COBLENTZ III
Instrument: DOW KBr FOREPRISM-GRATING
Instrument parameters: BLAZED AT 3.5, 12.0, 20.0 MICRON AND CHANGED AT 5.0, 7.5, 14.9 MICRON
Sampling: TRANSMISSION
Path length: CAPILLARY
Resolution: 2
Origin: DOW CHEMICAL COMPANY
1/CM	TRANSMITTANCE
464	0.5447
473	0.5365
482	0.524
491	0.5097
500	0.4921
509	0.4709
518	0.4445
527	0.4226
536	0.4154
545	0.4139
554	0.4145
563	0.4154
572	0.4177
581	0.421
590	0.4246
599	0.4286
608	0.4333
617	0.4381
626	0.4435
635	0.4489
644	0.4538
653	0.4588
662	0.4649
671	0.4725
680	0.4812
689	0.4881
698	0.4958
707	0.501
716	0.4962
725	0.48
734	0.4826
743	0.5368
752	0.5553
761	0.5575
770	0.5633
779	0.5882
788	0.612
797	0.6338
806	0.6561
815	0.6692
824	0.6743
833	0.6715
842	0.6508
851	0.6119
860	0.5453
869	0.4598
878	0.309
887	0.3962
896	0.4651
905	0.3972
914	0.5397
923	0.615
932	0.6449
941	0.6568
950	0.6591
959	0.6538
968	0.6366
977	0.5956
986	0.5344
995	0.5008
1004	0.3423
1013	0.1872
1022	0.0761
1031	0.0441
1040	0.0661
1049	0.1099
1058	0.0891
1067	0.0635
1076	0.0796
1085	0.2319
1094	0.4149
1103	0.5997
1112	0.6326
1121	0.6146
1130	0.558
1139	0.4909
1148	0.4604
1157	0.5021
1166	0.5954
1175	0.6725
1184	0.6505
1193	0.5932
1202	0.5316
1211	0.5197
1220	0.5162
1229	0.4993
1238	0.4749
1247	0.4818
1256	0.4916
1265	0.4806
1274	0.4251
1283	0.4242
1292	0.4496
1301	0.4705
1310	0.4551
1319	0.4305
1328	0.4218
1337	0.4014
1346	0.3805
1355	0.333
1364	0.343
1373	0.3696
1382	0.3875
1391	0.3509
1400	0.3103
1409	0.3141
1418	0.3307
1427	0.3312
1436	0.315
1445	0.2826
1454	0.2833
1463	0.3145
1472	0.374
1481	0.4941
1490	0.614
1499	0.6665
1508	0.7069
1517	0.7355
1526	0.7539
1535	0.7649
1544	0.774
1553	0.7822
1562	0.7908
1571	0.798
1580	0.8046
1589	0.8112
1598	0.8162
1607	0.8195
1616	0.8224
1625	0.8236
1634	0.8237
1643	0.8228
1652	0.8218
1661	0.8225
1670	0.825
1679	0.8281
1688	0.8287
1697	0.8288
1706	0.8283
1715	0.8285
1724	0.8293
1733	0.8301
1742	0.831
1751	0.8324
1760	0.8344
1769	0.8364
1778	0.8384
1787	0.8405
1796	0.8432
1805	0.8462
1814	0.8485
1823	0.8498
1832	0.8506
1841	0.8513
1850	0.8509
1859	0.8497
1868	0.8477
1877	0.8452
1886	0.8428
1895	0.8418
1904	0.8428
1913	0.8423
1922	0.8418
1931	0.8406
1940	0.8425
1949	0.8481
1958	0.858
1967	0.8525
1976	0.8537
1985	0.8561
1994	0.858
2003	0.8415
2012	0.8213
2021	0.8214
2030	0.8207
2039	0.8184
2048	0.815
2057	0.8111
2066	0.8069
2075	0.805
2084	0.8044
2093	0.8043
2102	0.8045
2111	0.8047
2120	0.8054
2129	0.8061
2138	0.808
2147	0.8099
2156	0.8117
2165	0.8118
2174	0.8122
2183	0.8125
2192	0.8125
2201	0.8119
2210	0.8096
2219	0.8062
2228	0.8028
2237	0.7996
2246	0.7974
2255	0.7951
2264	0.7928
2273	0.7911
2282	0.7894
2291	0.7875
2300	0.7861
2309	0.7851
2318	0.7842
2327	0.7832
2336	0.7825
2345	0.7817
2354	0.781
2363	0.7801
2372	0.7793
2381	0.7785
2390	0.7775
2399	0.7758
2408	0.7735
2417	0.7678
2426	0.7632
2435	0.7596
2444	0.7568
2453	0.7544
2462	0.7519
2471	0.7495
2480	0.7468
2489	0.7436
2498	0.74
2507	0.7358
2516	0.7318
2525	0.7276
2534	0.7236
2543	0.7185
2552	0.7128
2561	0.7071
2570	0.7017
2579	0.696
2588	0.6897
2597	0.6832
2606	0.6768
2615	0.6687
2624	0.6601
2633	0.6508
2642	0.6406
2651	0.6291
2660	0.6094
2669	0.5972
2678	0.5852
2687	0.5684
2696	0.5444
2705	0.5203
2714	0.5066
2723	0.4945
2732	0.4826
2741	0.4755
2750	0.4657
2759	0.446
2768	0.411
2777	0.355
2786	0.3144
2795	0.2616
2804	0.1859
2813	0.1507
2822	0.1416
2831	0.144
2840	0.1496
2849	0.15
2858	0.1403
2867	0.1292
2876	0.1091
2885	0.1088
2894	0.1228
2903	0.1428
2912	0.1434
2921	0.134
2930	0.1214
2939	0.109
2948	0.0976
2957	0.1003
2966	0.1214
2975	0.2046
2984	0.3759
2993	0.4878
3002	0.5203
3011	0.5262
3020	0.5248
3029	0.5194
3038	0.5115
3047	0.4977
3056	0.4819
3065	0.4648
3074	0.4473
3083	0.4293
3092	0.4106
3101	0.3873
3110	0.3607
3119	0.333
3128	0.3107
3137	0.2877
3146	0.2646
3155	0.2412
3164	0.2184
3173	0.1979
3182	0.1794
3191	0.1614
3200	0.1427
3209	0.124
3218	0.1069
3227	0.0931
3236	0.0824
3245	0.0745
3254	0.0675
3263	0.0614
3272	0.0561
3281	0.0508
3290	0.0473
3299	0.0447
3308	0.0417
3317	0.0387
3326	0.0357
3335	0.0326
3344	0.0311
3353	0.0313
3362	0.0317
3371	0.0324
3380	0.0334
3389	0.0346
3398	0.0363
3407	0.04
3416	0.0435
3425	0.0465
3434	0.051
3443	0.0589
3452	0.067
3461	0.0801
3470	0.103
3479	0.1281
3488	0.1566
3497	0.196
3506	0.242
3515	0.2981
3524	0.3408
3533	0.3808
3542	0.4259
3551	0.483
3560	0.5238
3569	0.5676
3578	0.6289
3587	0.6784
3596	0.7222
3605	0.751
3614	0.7722
3623	0.7892
3632	0.8051
3641	0.8191
3650	0.8278
3659	0.8345
3668	0.8407
3677	0.8453
3686	0.8488
3695	0.8515
3704	0.8533
3713	0.855
3722	0.8565
3731	0.8578
3740	0.8591
3749	0.8602
3758	0.8614
3767	0.862
3776	0.8627
3785	0.8637
3794	0.8649
3803	0.8661
3812	0.8671
