Infrared Spectrum: .beta.-Phenethylphenyl acetate
Formula: C 16 H 16 O 2
CAS: 102-20-5
State: gas
Origin: EPA-IR VAPOR PHASE LIBRARY
1/CM	ABSORBANCE
549.8	0.00567
559.445	0.008443
569.09	0.01267
578.734	0.00773
588.379	0.00534
598.024	0.00593
607.669	0.00664
617.313	0.008712
626.958	0.01151
636.603	0.01307
646.248	0.01191
655.893	0.01225
665.537	0.01756
675.182	0.03236
684.827	0.06321
694.472	0.1197
704.116	0.11383
713.761	0.10015
723.406	0.08075
733.051	0.06896
742.695	0.07206
752.34	0.04416
761.985	0.02443
771.63	0.01554
781.275	0.01072
790.919	0.009437
800.564	0.0095074
810.209	0.01049
819.854	0.0096545
829.498	0.00766
839.143	0.008404
848.788	0.00794
858.433	0.00825
868.078	0.008354
877.722	0.010049
887.367	0.01216
897.012	0.01297
906.657	0.01257
916.301	0.01122
925.946	0.01191
935.591	0.01232
945.236	0.01166
954.88	0.0107
964.525	0.01238
974.17	0.01611
983.815	0.02413
993.46	0.04763
1003.1	0.08542
1012.75	0.08613
1022.39	0.06345
1032.04	0.0565
1041.68	0.04181
1051.33	0.04345
1060.97	0.03727
1070.62	0.03453
1080.26	0.03297
1089.91	0.03233
1099.55	0.03855
1109.2	0.05484
1118.84	0.09119
1128.49	0.17084
1138.13	0.26337
1147.78	0.25028
1157.42	0.17061
1167.07	0.10681
1176.71	0.07734
1186.36	0.06681
1196	0.06692
1205.64	0.07792
1215.29	0.10264
1224.93	0.14032
1234.58	0.19277
1244.22	0.21627
1253.87	0.17685
1263.51	0.12062
1273.16	0.09173
1282.8	0.07787
1292.45	0.07074
1302.09	0.06434
1311.74	0.06145
1321.38	0.06091
1331.03	0.05871
1340.67	0.04959
1350.32	0.03434
1359.96	0.02482
1369.61	0.02251
1379.25	0.0264
1388.9	0.02308
1398.54	0.01493
1408.18	0.01345
1417.83	0.01701
1427.47	0.02555
1437.12	0.03367
1446.76	0.03694
1456.41	0.03936
1466.05	0.03114
1475.7	0.02326
1485.34	0.02695
1494.99	0.06122
1504.63	0.03746
1514.28	0.01176
1523.92	0.008432
1533.57	0.00785
1543.21	0.00712
1552.86	0.00697
1562.5	0.00745
1572.15	0.008863
1581.79	0.01259
1591.44	0.01884
1601.08	0.02719
1610.73	0.02128
1620.37	0.0096276
1630.01	0.00701
1639.66	0.00658
1649.3	0.0068
1658.95	0.00727
1668.59	0.00773
1678.24	0.008924
1687.88	0.01054
1697.53	0.01389
1707.17	0.02049
1716.82	0.0311
1726.46	0.05059
1736.11	0.0969
1745.75	0.22368
1755.4	0.31924
1765.04	0.18533
1774.69	0.0839
1784.33	0.04648
1793.98	0.03197
1803.62	0.02049
1813.27	0.01365
1822.91	0.01064
1832.55	0.008937
1842.2	0.00819
1851.84	0.008379
1861.49	0.008942
1871.13	0.009125
1880.78	0.00842
1890.42	0.00661
1900.07	0.00548
1909.71	0.00536
1919.36	0.0064
1929	0.008412
1938.65	0.0105
1948.29	0.01085
1957.94	0.0092157
1967.58	0.00531
1977.23	0.00434
1986.87	0.00405
1996.52	0.00384
2006.16	0.00374
2015.81	0.00371
2025.45	0.0036
2035.1	0.00372
2044.74	0.0035
2054.38	0.00339
2064.03	0.00343
2073.67	0.00319
2083.32	0.00287
2092.96	0.00254
2102.61	0.00243
2112.25	0.00223
2121.9	0.00206
2131.54	0.00194
2141.19	0.00193
2150.83	0.00172
2160.48	0.00172
2170.12	0.00167
2179.77	0.0019
2189.41	0.00185
2199.06	0.00166
2208.7	0.00184
2218.35	0.0018
2227.99	0.00176
2237.64	0.00175
2247.28	0.0018
2256.92	0.00203
2266.57	0.00199
2276.21	0.00199
2285.86	0.00196
2295.5	0.00191
2305.15	0.00208
2314.79	0.00261
2324.44	0.00205
2334.08	0.00214
2343.73	0.00224
2353.37	0.00199
2363.02	0.00206
2372.66	0.00185
2382.31	0.00155
2391.95	0.00146
2401.6	0.0014
2411.24	0.0015
2420.89	0.00146
2430.53	0.00123
2440.18	0.00127
2449.82	0.00125
2459.47	0.0011
2469.11	0.00118
2478.75	0.00108
2488.4	0.00105
2498.04	0.00101
2507.69	0.00123
2517.33	0.0012
2526.98	0.00111
2536.62	0.00119
2546.27	0.00093
2555.91	0.00093
2565.56	0.00102
2575.2	0.00115
2584.85	0.00117
2594.49	0.00116
2604.14	0.00134
2613.78	0.0013
2623.43	0.00118
2633.07	0.00129
2642.72	0.0012
2652.36	0.00102
2662.01	0.00097
2671.65	0.00101
2681.29	0.00112
2690.94	0.00105
2700.58	0.00142
2710.23	0.0012
2719.87	0.00131
2729.52	0.00149
2739.16	0.0018
2748.81	0.00169
2758.45	0.00178
2768.1	0.00161
2777.74	0.00194
2787.39	0.00206
2797.03	0.00204
2806.68	0.00199
2816.32	0.00244
2825.97	0.00345
2835.61	0.00482
2845.26	0.00708
2854.9	0.008404
2864.55	0.008541
2874.19	0.009203
2883.84	0.01085
2893.48	0.0146
2903.12	0.02093
2912.77	0.02754
2922.41	0.03545
2932.06	0.03697
2941.7	0.03932
2951.35	0.04322
2960.99	0.05381
2970.64	0.05141
2980.28	0.03669
2989.93	0.02856
2999.57	0.02175
3009.22	0.02364
3018.86	0.0359
3028.51	0.06825
3038.15	0.08679
3047.8	0.05599
3057.44	0.04894
3067.09	0.07964
3076.73	0.07952
3086.38	0.04968
3096.02	0.03697
3105.67	0.02454
3115.31	0.01563
3124.95	0.00705
3134.6	0.0033
3144.24	0.00235
3153.89	0.002
3163.53	0.00207
3173.18	0.00151
3182.82	0.00085
3192.47	0.00089
3202.11	0.00078
3211.76	0.0007
3221.4	0.00063
3231.05	0.00047
3240.69	0.00061
3250.34	0.00063
3259.98	0.00053
3269.63	0.00073
3279.27	0.00049
3288.92	0.00033
3298.56	0.00051
3308.21	0.00047
3317.85	0.00044
3327.49	0
3337.14	0.00049
3346.78	0.00051
3356.43	0.00061
3366.07	0.00073
3375.72	0.00045
3385.36	0.00045
3395.01	0.00061
3404.65	0.00057
3414.3	0.00065
3423.94	0.00047
3433.59	0.001
3443.23	0.00095
3452.88	0.00098
3462.52	0.00163
3472.17	0.00184
3481.81	0.0032
3491.46	0.00328
3501.1	0.00237
3510.75	0.00203
3520.39	0.00153
3530.04	0.001
3539.68	0.00097
3549.32	0.00082
3558.97	0.00029
3568.61	0.00071
3578.26	0.00068
3587.9	0.00051
3597.55	0.0006
3607.19	0.00053
3616.84	0.00075
3626.48	0.00058
3636.13	0.00077
3645.77	0.00127
3655.42	0.0013
3665.06	0.00096
3674.71	0.00095
3684.35	0.00107
3694	0.00117
3703.64	0.00091
3713.29	0.001
3722.93	0.00087
3732.58	0.00079
3742.22	0.00044
3751.86	0.00055
3761.51	0.00094
3771.15	0.00072
3780.8	0.00077
3790.44	0.00061
3800.09	0.00065
3809.73	0.00082
3819.38	0.00094
3829.02	0.00102
3838.67	0.00103
3848.31	0.00096
3857.96	0.00038
3867.6	0.00103
3877.25	0.00079
3886.89	0.0009
3896.54	0.00101
3906.18	0.00099
3915.83	0.0008
3925.47	0.00126
3935.12	0.0013
3944.76	0.00104
3954.41	0.00102
3964.05	0.00101
3973.69	0.00122
3983.34	0.00118
3992.98	0.00127
