Infrared Spectrum: BIGUANIDE, 1-PHENYL-
Formula: C8 H11 N5
CAS: 102-02-3
State: SOLID (OIL MULL)
Melting point: 143 C
Class: COBLENTZ III
Instrument: BAIRD (PRISM)
Instrument parameters: NaCl PRISM
Sampling: TRANSMISSION
Resolution: 2
Origin: WYANDOTTE CHEMICALS CORP.
MICROMETERS	TRANSMITTANCE
2.004	0.367
2.04307	0.371
2.08214	0.379
2.12121	0.389
2.16029	0.399
2.19936	0.402
2.23843	0.421
2.2775	0.422
2.31657	0.438
2.35564	0.453
2.39471	0.46
2.43378	0.471
2.47286	0.485
2.51193	0.501
2.551	0.513
2.59007	0.527
2.62914	0.547
2.66821	0.563
2.70728	0.582
2.74636	0.598
2.78543	0.619
2.8245	0.646
2.86357	0.663
2.90264	0.557
2.94171	0.425
2.98078	0.296
3.01985	0.159
3.05893	0.148
3.098	0.183
3.13707	0.211
3.17614	0.203
3.21521	0.173
3.25428	0.176
3.29335	0.176
3.33243	0.173
3.3715	0.117
3.41057	0.018
3.44964	0.011
3.48871	0.029
3.52778	0.042
3.56685	0.205
3.60592	0.484
3.645	0.53
3.68407	0.528
3.72314	0.53
3.76221	0.557
3.80128	0.589
3.84035	0.605
3.87942	0.625
3.9185	0.633
3.95757	0.668
3.99664	0.673
4.03571	0.683
4.07478	0.695
4.11385	0.703
4.15292	0.708
4.19199	0.713
4.23107	0.723
4.27014	0.734
4.30921	0.733
4.34828	0.738
4.38735	0.738
4.42642	0.756
4.46549	0.759
4.50457	0.773
4.54364	0.782
4.58271	0.791
4.62178	0.802
4.66085	0.805
4.69992	0.818
4.73899	0.834
4.77806	0.841
4.81714	0.841
4.85621	0.85
4.89528	0.862
4.93435	0.872
4.97342	0.885
5.01249	0.891
5.05156	0.899
5.09063	0.909
5.12971	0.914
5.16878	0.916
5.20785	0.914
5.24692	0.906
5.28599	0.936
5.32506	0.942
5.36413	0.938
5.40321	0.942
5.44228	0.952
5.48135	0.96
5.52042	0.953
5.55949	0.954
5.59856	0.943
5.63763	0.939
5.6767	0.932
5.71578	0.89
5.75485	0.851
5.79392	0.846
5.83299	0.78
5.87206	0.718
5.91113	0.531
5.9502	0.245
5.98928	0.171
6.02835	0.2
6.06742	0.265
6.10649	0.125
6.14556	0.049
6.18463	0.024
6.2237	0.028
6.26277	0.049
6.30185	0.042
6.34092	0.049
6.37999	0.042
6.41906	0.035
6.45813	0.05
6.4972	0.082
6.53627	0.111
6.57535	0.115
6.61442	0.149
6.65349	0.189
6.69256	0.144
6.73163	0.099
6.7707	0.126
6.80977	0.085
6.84884	0.12
6.88792	0.16
6.92699	0.266
6.96606	0.4
7.00513	0.471
7.0442	0.481
7.08327	0.454
7.12234	0.348
7.16142	0.159
7.20049	0.098
7.23956	0.084
7.27863	0.078
7.3177	0.055
7.35677	0.098
7.39584	0.194
7.43491	0.272
7.47399	0.351
7.51306	0.402
7.55213	0.441
7.5912	0.479
7.63027	0.474
7.66934	0.501
7.70841	0.525
7.74749	0.549
7.78656	0.552
7.82563	0.56
7.8647	0.555
7.90377	0.479
7.94284	0.337
7.98191	0.27
8.02098	0.239
8.06006	0.346
8.09913	0.425
8.1382	0.484
8.17727	0.515
8.21634	0.529
8.25541	0.544
8.29448	0.552
8.33356	0.552
8.37263	0.552
8.4117	0.558
8.45077	0.557
8.48984	0.55
8.52891	0.518
8.56798	0.452
8.60705	0.517
8.64613	0.529
8.6852	0.55
8.72427	0.585
8.76334	0.6
8.80241	0.603
8.84148	0.605
8.88055	0.613
8.91963	0.614
8.9587	0.615
8.99777	0.609
9.03684	0.601
9.07591	0.588
9.11498	0.579
9.15405	0.568
9.19312	0.57
9.2322	0.57
9.27127	0.567
9.31034	0.522
9.34941	0.579
9.38848	0.628
9.42755	0.66
9.46662	0.665
9.5057	0.659
9.54477	0.621
9.58384	0.589
9.62291	0.571
9.66198	0.585
9.70105	0.603
9.74012	0.62
9.77919	0.62
9.81827	0.637
9.85734	0.651
9.89641	0.67
9.93548	0.681
9.97455	0.687
10.0136	0.685
10.0527	0.701
10.0918	0.712
10.1308	0.714
10.1699	0.712
10.209	0.711
10.2481	0.706
10.2871	0.703
10.3262	0.706
10.3653	0.712
10.4043	0.714
10.4434	0.712
10.4825	0.719
10.5215	0.718
10.5606	0.722
10.5997	0.722
10.6388	0.718
10.6778	0.712
10.7169	0.701
10.756	0.671
10.795	0.632
10.8341	0.577
10.8732	0.557
10.9123	0.544
10.9513	0.517
10.9904	0.552
11.0295	0.582
11.0685	0.546
11.1076	0.6
11.1467	0.66
11.1858	0.692
11.2248	0.711
11.2639	0.718
11.303	0.722
11.342	0.726
11.3811	0.724
11.4202	0.718
11.4593	0.721
11.4983	0.721
11.5374	0.721
11.5765	0.723
11.6155	0.722
11.6546	0.719
11.6937	0.711
11.7328	0.703
11.7718	0.671
11.8109	0.636
11.85	0.584
11.889	0.538
11.9281	0.52
11.9672	0.53
12.0063	0.554
12.0453	0.594
12.0844	0.624
12.1235	0.662
12.1625	0.687
12.2016	0.703
12.2407	0.711
12.2798	0.718
12.3188	0.719
12.3579	0.727
12.397	0.723
12.436	0.722
12.4751	0.714
12.5142	0.71
12.5533	0.697
12.5923	0.678
12.6314	0.668
12.6705	0.673
12.7095	0.67
12.7486	0.648
12.7877	0.635
12.8268	0.601
12.8658	0.579
12.9049	0.561
12.944	0.554
12.983	0.538
13.0221	0.503
13.0612	0.415
13.1003	0.355
13.1393	0.363
13.1784	0.362
13.2175	0.339
13.2565	0.361
13.2956	0.398
13.3347	0.427
13.3738	0.459
13.4128	0.486
13.4519	0.497
13.491	0.507
13.53	0.511
13.5691	0.517
13.6082	0.529
13.6473	0.533
13.6863	0.541
13.7254	0.551
13.7645	0.556
13.8035	0.563
13.8426	0.556
13.8817	0.547
13.9208	0.536
13.9598	0.533
13.9989	0.536
14.038	0.552
14.077	0.56
14.1161	0.552
14.1552	0.535
14.1943	0.511
14.2333	0.472
14.2724	0.423
14.3115	0.373
14.3505	0.348
14.3896	0.325
14.4287	0.323
14.4678	0.328
14.5068	0.352
14.5459	0.398
14.585	0.441
14.624	0.497
14.6631	0.528
14.7022	0.544
14.7413	0.556
14.7803	0.56
14.8194	0.56
14.8585	0.558
14.8975	0.557
14.9366	0.554
14.9757	0.544
15.0148	0.529
15.0538	0.523
15.0929	0.519
15.132	0.525
15.171	0.529
15.2101	0.52
15.2492	0.519
15.2883	0.517
15.3273	0.512
15.3664	0.509
15.4055	0.506
15.4445	0.503
15.4836	0.501
15.5227	0.498
15.5618	0.493
15.6008	0.49
15.6399	0.488
15.679	0.486
15.718	0.484
15.7571	0.482
15.7962	0.48
15.8353	0.48
15.8743	0.474
15.9134	0.475
15.9525	0.472
