Infrared Spectrum: Cyclopentamine
Formula: C 9 H 19 N
CAS: 102-45-4
State: gas
Instrument: HP-GC/MS/IRD
Origin: NIST Mass Spectrometry Data Center
1/CM	ABSORBANCE
550	0.001036
562	0.0005254
574	0.0005106
586	0.0006549
598	0.0008547
610	0.0008621
622	0.0010397
634	0.0011729
646	0.0015133
658	0.0020276
670	0.0026825
682	0.002997
694	0.0030155
706	0.0024864
718	0.001998
730	0.001443
742	0.0009213
754	0.0005402
766	0.0004144
778	0.000185
790	0.0001221
802	0.0002331
814	0.0002109
826	0.0002849
838	0.0002849
850	0.000222
862	0.0002331
874	0.0002331
886	0.0002405
898	0.0002257
910	0.0001961
922	0.000222
934	0.0002072
946	0.0001332
958	6.29e-05
970	4.07e-05
982	0.000111
994	0.0002849
1006	0.0004255
1018	0.0005698
1030	0.0005957
1042	0.0006105
1054	0.0007696
1066	0.0010619
1078	0.0013912
1090	0.0016391
1102	0.0018981
1114	0.0022718
1126	0.0027232
1138	0.0033078
1150	0.0035964
1162	0.0032782
1174	0.0026307
1186	0.0017612
1198	0.0011248
1210	0.0007141
1222	0.0005069
1234	0.0005254
1246	0.0005365
1258	0.0004662
1270	0.000481
1282	0.0004588
1294	0.0005624
1306	0.0007474
1318	0.0010804
1330	0.0014615
1342	0.0019314
1354	0.0022422
1366	0.0028305
1378	0.0029082
1390	0.0016243
1402	0.0008658
1414	0.0010175
1426	0.0017834
1438	0.0030932
1450	0.0040811
1462	0.003959
1474	0.0035964
1486	0.0025752
1498	0.0011396
1510	0.0005735
1522	0.0003145
1534	0.0001998
1546	0.0001628
1558	0.0001147
1570	9.99e-05
1582	4.81e-05
1594	8.51e-05
1606	4.07e-05
1618	2.22e-05
1630	2.59e-05
1642	2.96e-05
1654	6.66e-05
1666	7.03e-05
1678	5.18e-05
1690	3.33e-05
1702	1.48e-05
1714	1.48e-05
1726	3.7e-06
1738	2.96e-05
1750	1.85e-05
1762	2.59e-05
1774	3.7e-05
1786	3.7e-05
1798	4.81e-05
1810	5.55e-05
1822	5.55e-05
1834	2.22e-05
1846	5.55e-05
1858	6.29e-05
1870	1.48e-05
1882	4.44e-05
1894	4.81e-05
1906	5.55e-05
1918	4.44e-05
1930	1.11e-05
1942	2.22e-05
1954	4.44e-05
1966	2.96e-05
1978	3.33e-05
1990	4.81e-05
2002	2.59e-05
2014	4.07e-05
2026	1.11e-05
2038	3.7e-05
2050	1.48e-05
2062	4.07e-05
2074	3.33e-05
2086	3.7e-05
2098	2.59e-05
2110	4.44e-05
2122	2.22e-05
2134	4.44e-05
2146	7.4e-05
2158	5.18e-05
2170	7.4e-05
2182	4.44e-05
2194	7.4e-05
2206	4.81e-05
2218	2.96e-05
2230	4.44e-05
2242	5.55e-05
2254	3.7e-06
2266	3.33e-05
2278	4.81e-05
2290	5.55e-05
2302	4.44e-05
2314	8.14e-05
2326	6.66e-05
2338	8.51e-05
2350	6.29e-05
2362	5.92e-05
2374	5.92e-05
2386	4.07e-05
2398	3.33e-05
2410	1.85e-05
2422	3.7e-06
2434	1.11e-05
2446	1.85e-05
2458	4.81e-05
2470	5.55e-05
2482	2.59e-05
2494	6.66e-05
2506	8.14e-05
2518	0.0001036
2530	0.000148
2542	0.0001591
2554	0.000185
2566	0.0001998
2578	0.000296
2590	0.0003589
2602	0.0004181
2614	0.0004662
2626	0.0004884
2638	0.0005069
2650	0.0004958
2662	0.0004847
2674	0.0004625
2686	0.0005217
2698	0.0005698
2710	0.0006105
2722	0.0007807
2734	0.0008806
2746	0.0011211
2758	0.0015873
2770	0.0024235
2782	0.0041218
2794	0.0064972
2806	0.0066415
2818	0.0051652
2830	0.0053169
2842	0.007215
2854	0.01036
2866	0.0138084
2878	0.0162097
2890	0.0155326
2902	0.0166722
2914	0.0205202
2926	0.0229659
2938	0.0255596
2950	0.0331335
2962	0.036482
2974	0.0256521
2986	0.0123543
2998	0.005513
3010	0.0030451
3022	0.0019462
3034	0.0014245
3046	0.0011063
3058	0.0009102
3070	0.0007104
3082	0.0006438
3094	0.0005365
3106	0.0004144
3118	0.0003848
3130	0.0003071
3142	0.0002812
3154	0.0002368
3166	0.0002183
3178	0.0001776
3190	0.0001924
3202	0.0001739
3214	0.0001221
3226	9.99e-05
3238	9.99e-05
3250	5.92e-05
3262	8.14e-05
3274	6.29e-05
3286	5.92e-05
3298	3.33e-05
3310	4.07e-05
3322	5.92e-05
3334	6.29e-05
3346	6.66e-05
3358	0.0001184
3370	0.0001184
3382	0.0001406
3394	0.0001702
3406	0.000148
3418	0.0001369
3430	8.51e-05
3442	0.0001443
3454	0.0001073
3466	0.0001258
3478	0.0001258
3490	0.0001147
3502	9.99e-05
3514	0.0001517
3526	0.0001295
3538	9.62e-05
3550	9.25e-05
3562	0.0001369
3574	0.0001184
3586	0.0001739
3598	0.0001517
3610	0.0001406
3622	0.0001591
3634	0.0001258
3646	0.0001739
3658	0.0001813
3670	0.0001887
3682	0.0001591
3694	0.0001887
3706	0.0001961
3718	0.0001739
3730	0.0001702
3742	0.000185
3754	0.000185
3766	0.0001702
3778	0.000185
3790	0.0001924
3802	0.0001665
3814	0.0002072
3826	0.0001887
3838	0.000222
