Infrared Spectrum: 4-Methoxy-o-phenylenediamine
Formula: C 7 H 10 N 2 O
CAS: 102-51-2
State: gas
Origin: EPA-IR VAPOR PHASE LIBRARY
1/CM	ABSORBANCE
549.8	0.02813
559.445	0.03045
569.09	0.03262
578.734	0.0331
588.379	0.03425
598.024	0.0373
607.669	0.0392
617.313	0.04132
626.958	0.04339
636.603	0.04622
646.248	0.04878
655.893	0.05221
665.537	0.05773
675.182	0.0654
684.827	0.0674
694.472	0.06165
704.116	0.05502
713.761	0.05426
723.406	0.05296
733.051	0.04865
742.695	0.04181
752.34	0.03698
761.985	0.03606
771.63	0.03797
781.275	0.04219
790.919	0.04335
800.564	0.04108
810.209	0.03616
819.854	0.03566
829.498	0.03811
839.143	0.04161
848.788	0.0398
858.433	0.02934
868.078	0.02085
877.722	0.01702
887.367	0.01572
897.012	0.01554
906.657	0.0154
916.301	0.01483
925.946	0.01506
935.591	0.01695
945.236	0.02027
954.88	0.01942
964.525	0.01593
974.17	0.01402
983.815	0.01403
993.46	0.01465
1003.1	0.01603
1012.75	0.01941
1022.39	0.03124
1032.04	0.04869
1041.68	0.05134
1051.33	0.03866
1060.97	0.03129
1070.62	0.02877
1080.26	0.02729
1089.91	0.02406
1099.55	0.02195
1109.2	0.01969
1118.84	0.02009
1128.49	0.02373
1138.13	0.0387
1147.78	0.05641
1157.42	0.08821
1167.07	0.105
1176.71	0.08021
1186.36	0.05799
1196	0.07988
1205.64	0.08584
1215.29	0.06796
1224.93	0.0781
1234.58	0.12658
1244.22	0.12859
1253.87	0.06774
1263.51	0.03334
1273.16	0.03066
1282.8	0.0405
1292.45	0.0468
1302.09	0.04343
1311.74	0.03598
1321.38	0.0291
1331.03	0.02173
1340.67	0.01567
1350.32	0.01109
1359.96	0.00864
1369.61	0.00757
1379.25	0.00744
1388.9	0.00777
1398.54	0.00866
1408.18	0.01044
1417.83	0.01482
1427.47	0.02377
1437.12	0.03237
1446.76	0.03454
1456.41	0.03543
1466.05	0.04099
1475.7	0.04109
1485.34	0.04486
1494.99	0.0838
1504.63	0.18845
1514.28	0.25233
1523.92	0.16841
1533.57	0.05907
1543.21	0.03071
1552.86	0.02392
1562.5	0.0236
1572.15	0.03044
1581.79	0.04652
1591.44	0.06395
1601.08	0.07527
1610.73	0.08945
1620.37	0.09744
1630.01	0.08181
1639.66	0.05297
1649.3	0.03005
1658.95	0.01875
1668.59	0.01349
1678.24	0.01117
1687.88	0.00908
1697.53	0.00796
1707.17	0.00728
1716.82	0.00662
1726.46	0.00605
1736.11	0.00558
1745.75	0.00557
1755.4	0.00537
1765.04	0.00548
1774.69	0.00561
1784.33	0.00548
1793.98	0.00567
1803.62	0.00562
1813.27	0.00547
1822.91	0.00517
1832.55	0.00454
1842.2	0.00408
1851.84	0.00365
1861.49	0.0037
1871.13	0.00383
1880.78	0.00419
1890.42	0.00389
1900.07	0.00366
1909.71	0.00355
1919.36	0.00326
1929	0.00313
1938.65	0.00265
1948.29	0.00256
1957.94	0.00246
1967.58	0.00277
1977.23	0.00296
1986.87	0.00296
1996.52	0.00292
2006.16	0.00319
2015.81	0.00322
2025.45	0.00309
2035.1	0.00304
2044.74	0.00309
2054.38	0.00346
2064.03	0.00348
2073.67	0.00328
2083.32	0.00314
2092.96	0.00277
2102.61	0.00248
2112.25	0.00214
2121.9	0.00205
2131.54	0.00184
2141.19	0.00176
2150.83	0.00186
2160.48	0.0019
2170.12	0.0021
2179.77	0.00235
2189.41	0.00255
2199.06	0.00242
2208.7	0.00254
2218.35	0.00248
2227.99	0.00249
2237.64	0.00255
2247.28	0.00244
2256.92	0.0023
2266.57	0.0021
2276.21	0.00191
2285.86	0.00181
2295.5	0.00172
2305.15	0.00166
2314.79	0.00172
2324.44	0.00186
2334.08	0.00149
2343.73	0.00178
2353.37	0.00168
2363.02	0.00167
2372.66	0.0017
2382.31	0.00165
2391.95	0.0016
2401.6	0.00169
2411.24	0.00151
2420.89	0.00137
2430.53	0.00146
2440.18	0.00186
2449.82	0.00201
2459.47	0.00167
2469.11	0.00156
2478.75	0.00161
2488.4	0.0017
2498.04	0.00154
2507.69	0.00158
2517.33	0.00136
2526.98	0.00136
2536.62	0.00156
2546.27	0.00138
2555.91	0.00139
2565.56	0.00132
2575.2	0.00141
2584.85	0.00149
2594.49	0.00169
2604.14	0.0017
2613.78	0.0018
2623.43	0.00157
2633.07	0.00163
2642.72	0.00152
2652.36	0.00142
2662.01	0.0014
2671.65	0.00141
2681.29	0.00134
2690.94	0.00143
2700.58	0.00132
2710.23	0.0016
2719.87	0.00121
2729.52	0.0015
2739.16	0.00147
2748.81	0.0018
2758.45	0.00194
2768.1	0.00211
2777.74	0.0025
2787.39	0.00315
2797.03	0.00427
2806.68	0.00536
2816.32	0.00767
2825.97	0.01316
2835.61	0.02344
2845.26	0.02483
2854.9	0.01656
2864.55	0.0119
2874.19	0.01153
2883.84	0.01289
2893.48	0.01543
2903.12	0.019
2912.77	0.02408
2922.41	0.02582
2932.06	0.02972
2941.7	0.03717
2951.35	0.03733
2960.99	0.02651
2970.64	0.0194
2980.28	0.01776
2989.93	0.0249
2999.57	0.03514
3009.22	0.03166
3018.86	0.02446
3028.51	0.02589
3038.15	0.0226
3047.8	0.01437
3057.44	0.00997
3067.09	0.00963
3076.73	0.01016
3086.38	0.00939
3096.02	0.00711
3105.67	0.00517
3115.31	0.00373
3124.95	0.00305
3134.6	0.00241
3144.24	0.00212
3153.89	0.00183
3163.53	0.00162
3173.18	0.00186
3182.82	0.00146
3192.47	0.0017
3202.11	0.0017
3211.76	0.00191
3221.4	0.0017
3231.05	0.00148
3240.69	0.00131
3250.34	0.00116
3259.98	0.0009753
3269.63	0.000801
3279.27	0.00111
3288.92	0.0009559
3298.56	0.00107
3308.21	0.00121
3317.85	0.00109
3327.49	0.00136
3337.14	0.00154
3346.78	0.00299
3356.43	0.00499
3366.07	0.00832
3375.72	0.00985
3385.36	0.00708
3395.01	0.00452
3404.65	0.00308
3414.3	0.00339
3423.94	0.00438
3433.59	0.006
3443.23	0.0082
3452.88	0.01088
3462.52	0.01253
3472.17	0.01148
3481.81	0.0078
3491.46	0.00541
3501.1	0.00397
3510.75	0.00313
3520.39	0.00249
3530.04	0.00204
3539.68	0.0018
3549.32	0.00157
3558.97	0.00151
3568.61	0.00121
3578.26	0.00141
3587.9	0.0012
3597.55	0.0007552
3607.19	0.0009924
3616.84	0.00109
3626.48	0.0008916
3636.13	0.0006624
3645.77	0.0005363
3655.42	0.0006317
3665.06	0.00102
3674.71	0.0004653
3684.35	0.0007719
3694	0.0006254
3703.64	0.0004771
3713.29	0.0007199
3722.93	0.0007404
3732.58	0.0005817
3742.22	0.0006486
3751.86	0.0006664
3761.51	0.0004388
3771.15	0.0004767
3780.8	0.0004969
3790.44	0.0005011
3800.09	0.0001484
3809.73	0.0004759
3819.38	0.0006433
3829.02	0.0007044
3838.67	0.0009359
3848.31	0.0004282
3857.96	0.0005369
3867.6	0.0003624
3877.25	0.0004885
3886.89	0.0007344
3896.54	0.0008883
3906.18	0.00122
3915.83	0.0007683
3925.47	0.00107
3935.12	0.0004515
3944.76	0.001
3954.41	0.0009332
3964.05	0.00117
3973.69	0.00104
3983.34	0.00126
3992.98	0.00192
