Infrared Spectrum: ACETOACETONILIDE
Formula: C10 H11 N O2
CAS: 102-01-2
State: SOLID (MULL, KEL-F OIL FOR 2-7.5 AND MINERAL OIL FOR 7.5-16 MICRONS)
Melting point: 85-89 C
Class: COBLENTZ
Instrument: Not specified, most likely a prism, grating, or hybrid spectrometer.
Sampling: TRANSMISSION
Resolution: 4
Origin: WYANDOTTE CHEMICALS CORP., WYANDOTTE, MICHIGAN, USA
MICROMETERS	TRANSMITTANCE
2.032	0.46
2.07179	0.46
2.11158	0.473
2.15137	0.488
2.19115	0.493
2.23094	0.5
2.27073	0.511
2.31052	0.523
2.35031	0.531
2.3901	0.534
2.42989	0.546
2.46967	0.551
2.50946	0.557
2.54925	0.571
2.58904	0.591
2.62883	0.584
2.66862	0.596
2.70841	0.607
2.74819	0.619
2.78798	0.629
2.82777	0.639
2.86756	0.649
2.90735	0.657
2.94714	0.655
2.98693	0.673
3.02672	0.538
3.0665	0.213
3.10629	0.281
3.14608	0.35
3.18587	0.389
3.22566	0.428
3.26545	0.357
3.30524	0.45
3.34502	0.508
3.38481	0.473
3.4246	0.503
3.46439	0.572
3.50418	0.581
3.54397	0.6
3.58376	0.62
3.62354	0.647
3.66333	0.668
3.70312	0.672
3.74291	0.692
3.7827	0.706
3.82249	0.711
3.86228	0.72
3.90206	0.726
3.94185	0.73
3.98164	0.741
4.02143	0.743
4.06122	0.741
4.10101	0.745
4.1408	0.75
4.18058	0.751
4.22037	0.75
4.26016	0.728
4.29995	0.728
4.33974	0.738
4.37953	0.766
4.41932	0.778
4.4591	0.771
4.49889	0.783
4.53868	0.796
4.57847	0.801
4.61826	0.819
4.65805	0.821
4.69784	0.831
4.73763	0.846
4.77741	0.852
4.8172	0.865
4.85699	0.877
4.89678	0.88
4.93657	0.892
4.97636	0.895
5.01615	0.905
5.05593	0.903
5.09572	0.908
5.13551	0.92
5.1753	0.907
5.21509	0.895
5.25488	0.93
5.29467	0.938
5.33445	0.938
5.37424	0.912
5.41403	0.942
5.45382	0.942
5.49361	0.95
5.5334	0.963
5.57319	0.95
5.61297	0.945
5.65276	0.948
5.69255	0.953
5.73234	0.829
5.77213	0.329
5.81192	0.122
5.85171	0.129
5.89149	0.246
5.93128	0.23
5.97107	0.134
6.01086	0.049
6.05065	0.258
6.09044	0.365
6.13023	0.41
6.17001	0.321
6.2098	0.102
6.24959	0.385
6.28938	0.546
6.32917	0.534
6.36896	0.334
6.40875	0.16
6.44854	0.149
6.48832	0.259
6.52811	0.389
6.5679	0.493
6.60769	0.491
6.64748	0.288
6.68727	0.432
6.72706	0.45
6.76684	0.567
6.80663	0.63
6.84642	0.438
6.88621	0.096
6.926	0.153
6.96579	0.225
7.00558	0.279
7.04536	0.188
7.08515	0.157
7.12494	0.319
7.16473	0.403
7.20452	0.418
7.24431	0.437
7.2841	0.395
7.32388	0.263
7.36367	0.314
7.40346	0.329
7.44325	0.24
7.48304	0.344
7.52283	0.324
7.56262	0.254
7.6024	0.193
7.64219	0.294
7.68198	0.427
7.72177	0.581
7.76156	0.658
7.80135	0.599
7.84114	0.596
7.88092	0.64
7.92071	0.692
7.9605	0.735
8.00029	0.716
8.04008	0.652
8.07987	0.579
8.11966	0.759
8.15945	0.844
8.19923	0.849
8.23902	0.857
8.27881	0.862
8.3186	0.862
8.35839	0.862
8.39818	0.839
8.43797	0.594
8.47775	0.403
8.51754	0.266
8.55733	0.144
8.59712	0.253
8.63691	0.317
8.6767	0.526
8.71649	0.625
8.75627	0.68
8.79606	0.725
8.83585	0.748
8.87564	0.761
8.91543	0.769
8.95522	0.779
8.99501	0.783
9.03479	0.801
9.07458	0.814
9.11437	0.816
9.15416	0.809
9.19395	0.778
9.23374	0.624
9.27353	0.706
9.31331	0.788
9.3531	0.802
9.39289	0.816
9.43268	0.812
9.47247	0.814
9.51226	0.816
9.55205	0.812
9.59183	0.809
9.63162	0.786
9.67141	0.715
9.7112	0.725
9.75099	0.746
9.79078	0.766
9.83057	0.771
9.87035	0.781
9.91014	0.759
9.94993	0.68
9.98972	0.706
10.0295	0.733
10.0693	0.71
10.1091	0.731
10.1489	0.726
10.1887	0.697
10.2285	0.698
10.2682	0.672
10.308	0.602
10.3478	0.552
10.3876	0.572
10.4274	0.647
10.4672	0.68
10.507	0.713
10.5468	0.754
10.5865	0.776
10.6263	0.788
10.6661	0.789
10.7059	0.791
10.7457	0.794
10.7855	0.796
10.8253	0.804
10.8651	0.796
10.9049	0.786
10.9446	0.763
10.9844	0.697
11.0242	0.508
11.064	0.352
11.1038	0.548
11.1436	0.703
11.1834	0.759
11.2232	0.796
11.263	0.817
11.3027	0.832
11.3425	0.836
11.3823	0.824
11.4221	0.786
11.4619	0.678
11.5017	0.572
11.5415	0.554
11.5813	0.619
11.6211	0.698
11.6608	0.73
11.7006	0.745
11.7404	0.778
11.7802	0.794
11.82	0.788
11.8598	0.776
11.8996	0.793
11.9394	0.768
11.9792	0.781
12.0189	0.839
12.0587	0.839
12.0985	0.827
12.1383	0.802
12.1781	0.779
12.2179	0.773
12.2577	0.778
12.2975	0.801
12.3372	0.822
12.377	0.832
12.4168	0.841
12.4566	0.847
12.4964	0.846
12.5362	0.849
12.576	0.846
12.6158	0.846
12.6556	0.842
12.6953	0.836
12.7351	0.829
12.7749	0.819
12.8147	0.801
12.8545	0.783
12.8943	0.756
12.9341	0.73
12.9739	0.678
13.0137	0.612
13.0534	0.491
13.0932	0.37
13.133	0.266
13.1728	0.139
13.2126	0.089
13.2524	0.081
13.2922	0.092
13.332	0.114
13.3718	0.114
13.4115	0.139
13.4513	0.162
13.4911	0.163
13.5309	0.21
13.5707	0.273
13.6105	0.347
13.6503	0.395
13.6901	0.43
13.7298	0.453
13.7696	0.465
13.8094	0.466
13.8492	0.451
13.889	0.442
13.9288	0.433
13.9686	0.415
14.0084	0.4
14.0482	0.382
14.0879	0.365
14.1277	0.352
14.1675	0.354
14.2073	0.365
14.2471	0.385
14.2869	0.412
14.3267	0.422
14.3665	0.415
14.4063	0.347
14.446	0.269
14.4858	0.188
14.5256	0.157
14.5654	0.198
14.6052	0.279
14.645	0.392
14.6848	0.478
14.7246	0.549
14.7644	0.587
14.8041	0.615
14.8439	0.632
14.8837	0.647
14.9235	0.653
14.9633	0.662
15.0031	0.649
15.0429	0.642
15.0827	0.657
15.1225	0.693
15.1622	0.708
15.202	0.715
15.2418	0.718
15.2816	0.72
15.3214	0.718
15.3612	0.715
15.401	0.713
15.4408	0.711
15.4805	0.706
15.5203	0.703
15.5601	0.701
15.5999	0.697
15.6397	0.68
15.6795	0.665
15.7193	0.63
15.7591	0.596
15.7989	0.564
15.8386	0.564
15.8784	0.577
15.9182	0.597
15.958	0.61
15.9978	0.612
