Infrared Spectrum: Tridodecylamine
Formula: C 36 H 75 N
CAS: 102-87-4
State: gas
Origin: EPA-IR VAPOR PHASE LIBRARY
1/CM	ABSORBANCE
549.8	0.000122
559.445	0.000155
569.09	0.000231
578.734	0.000415
588.379	0.000604
598.024	0.000317
607.669	0.000776
617.313	0.000423
626.958	0.000674
636.603	0.0007
646.248	0.000482
655.893	0.000784
665.537	0.000562
675.182	0.000706
684.827	0.000839
694.472	0.000839
704.116	0.0009782
713.761	0.0011121
723.406	0.0009264
733.051	0.0010518
742.695	0.0009268
752.34	0.000772
761.985	0.000734
771.63	0.000885
781.275	0.000777
790.919	0.000639
800.564	0.000763
810.209	0.000875
819.854	0.00088
829.498	0.000814
839.143	0.00099394
848.788	0.000667
858.433	0.000589
868.078	0.000679
877.722	0.000625
887.367	0.000676
897.012	0.000764
906.657	0.000813
916.301	0.0009651
925.946	0.0009312
935.591	0.0009053
945.236	0.000726
954.88	0.000695
964.525	0.000749
974.17	0.000652
983.815	0.000695
993.46	0.00084
1003.1	0.000849
1012.75	0.000678
1022.39	0.000577
1032.04	0.000417
1041.68	0.000701
1051.33	0.000819
1060.97	0.000583
1070.62	0.000748
1080.26	0.0009056
1089.91	0.000313
1099.55	0.000568
1109.2	0.000501
1118.84	0.000727
1128.49	0.000875
1138.13	0.000458
1147.78	0.000408
1157.42	0.000658
1167.07	0.000568
1176.71	0.000453
1186.36	0.000467
1196	0.000294
1205.64	0.000608
1215.29	0.000482
1224.93	0.000494
1234.58	0.000771
1244.22	0.000591
1253.87	0.000865
1263.51	0.000711
1273.16	0.00069
1282.8	0.000963
1292.45	0.00102849
1302.09	0.0011346
1311.74	0.0011435
1321.38	0.0011417
1331.03	0.0011793
1340.67	0.001348
1350.32	0.0014963
1359.96	0.0015892
1369.61	0.0014423
1379.25	0.0013871
1388.9	0.0012816
1398.54	0.00108323
1408.18	0.0011013
1417.83	0.0010876
1427.47	0.0011159
1437.12	0.0013172
1446.76	0.001593
1456.41	0.0019242
1466.05	0.00203
1475.7	0.0014912
1485.34	0.0011127
1494.99	0.0010507
1504.63	0.00104756
1514.28	0.0009263
1523.92	0.00100424
1533.57	0.0009345
1543.21	0.000897
1552.86	0.00101148
1562.5	0.00100898
1572.15	0.0009487
1581.79	0.0009619
1591.44	0.0009444
1601.08	0.000935
1610.73	0.0009183
1620.37	0.000886
1630.01	0.0009392
1639.66	0.000879
1649.3	0.0009604
1658.95	0.0009604
1668.59	0.0009246
1678.24	0.0009459
1687.88	0.0009598
1697.53	0.0009353
1707.17	0.0009315
1716.82	0.0009534
1726.46	0.000903
1736.11	0.000879
1745.75	0.0009379
1755.4	0.0009545
1765.04	0.0009296
1774.69	0.0009052
1784.33	0.000953
1793.98	0.0009432
1803.62	0.0009027
1813.27	0.0009023
1822.91	0.0009205
1832.55	0.0009423
1842.2	0.000884
1851.84	0.0009122
1861.49	0.0009279
1871.13	0.0009368
1880.78	0.000967
1890.42	0.0009306
1900.07	0.0009457
1909.71	0.0009564
1919.36	0.00100882
1929	0.0009389
1938.65	0.000879
1948.29	0.0009786
1957.94	0.0009362
1967.58	0.0009593
1977.23	0.00099103
1986.87	0.0009599
1996.52	0.000964
2006.16	0.0009827
2015.81	0.0009376
2025.45	0.00097
2035.1	0.0010079
2044.74	0.00102182
2054.38	0.0009652
2064.03	0.00101535
2073.67	0.00102103
2083.32	0.0010256
2092.96	0.0009681
2102.61	0.00099785
2112.25	0.00100985
2121.9	0.0010077
2131.54	0.0009803
2141.19	0.0010333
2150.83	0.0009682
2160.48	0.00107546
2170.12	0.00101592
2179.77	0.0009506
2189.41	0.00106481
2199.06	0.00101094
2208.7	0.00105393
2218.35	0.00106218
2227.99	0.0010264
2237.64	0.0009648
2247.28	0.0009486
2256.92	0.00109242
2266.57	0.00103884
2276.21	0.00108912
2285.86	0.00105573
2295.5	0.0011014
2305.15	0.0011161
2314.79	0.00105671
2324.44	0.0009839
2334.08	0.00100436
2343.73	0.00106304
2353.37	0.00102491
2363.02	0.00103857
2372.66	0.00099599
2382.31	0.00105466
2391.95	0.00102888
2401.6	0.00104801
2411.24	0.00105211
2420.89	0.00103858
2430.53	0.00108611
2440.18	0.0011245
2449.82	0.00107729
2459.47	0.001043
2469.11	0.001113
2478.75	0.00102577
2488.4	0.0011017
2498.04	0.0011134
2507.69	0.0010451
2517.33	0.0011218
2526.98	0.0011578
2536.62	0.00103977
2546.27	0.0010635
2555.91	0.0011634
2565.56	0.0011956
2575.2	0.0011107
2584.85	0.0012059
2594.49	0.0012047
2604.14	0.0011801
2613.78	0.0012041
2623.43	0.0012283
2633.07	0.0012375
2642.72	0.0013006
2652.36	0.0013138
2662.01	0.0013176
2671.65	0.0013507
2681.29	0.0014431
2690.94	0.0014241
2700.58	0.0013655
2710.23	0.0014674
2719.87	0.0015517
2729.52	0.0016621
2739.16	0.0015032
2748.81	0.0016129
2758.45	0.0016596
2768.1	0.0017575
2777.74	0.0017839
2787.39	0.00209
2797.03	0.00241
2806.68	0.00252
2816.32	0.00238
2825.97	0.00234
2835.61	0.00254
2845.26	0.00326
2854.9	0.00568
2864.55	0.00699
2874.19	0.00516
2883.84	0.00444
2893.48	0.00453
2903.12	0.00568
2912.77	0.00762
2922.41	0.01209
2932.06	0.01674
2941.7	0.01256
2951.35	0.00792
2960.99	0.00598
2970.64	0.00512
2980.28	0.00316
2989.93	0.00223
2999.57	0.0019575
3009.22	0.0015793
3018.86	0.0016432
3028.51	0.0015599
3038.15	0.0014639
3047.8	0.0014061
3057.44	0.0012609
3067.09	0.0012675
3076.73	0.0012533
3086.38	0.0012233
3096.02	0.001353
3105.67	0.0012166
3115.31	0.0012516
3124.95	0.0012405
3134.6	0.0012728
3144.24	0.00109835
3153.89	0.0011101
3163.53	0.0013067
3173.18	0.0012517
3182.82	0.0011474
3192.47	0.0012221
3202.11	0.0012516
3211.76	0.001147
3221.4	0.0012384
3231.05	0.0011096
3240.69	0.0011232
3250.34	0.0011739
3259.98	0.0011309
3269.63	0.0011624
3279.27	0.0011907
3288.92	0.0012659
3298.56	0.0012012
3308.21	0.00109403
3317.85	0.0011802
3327.49	0.0009815
3337.14	0.0011909
3346.78	0.000893
3356.43	0.000876
3366.07	0.00104971
3375.72	0.00108777
3385.36	0.0009202
3395.01	0.0009387
3404.65	0.00105062
3414.3	0.0009434
3423.94	0.0009038
3433.59	0.0011999
3443.23	0.00101055
3452.88	0.0009264
3462.52	0.0010323
3472.17	0.00102134
3481.81	0.0011422
3491.46	0.00107956
3501.1	0.00108995
3510.75	0.0009589
3520.39	0.000853
3530.04	0.00104521
3539.68	0.00105961
3549.32	0.00105434
3558.97	0.0009847
3568.61	0.00109903
3578.26	0.0009414
3587.9	0.0011226
3597.55	0.001106
3607.19	0.00106546
3616.84	0.0009026
3626.48	0.000805
3636.13	0.000759
3645.77	0.00101327
3655.42	0.0009869
3665.06	0.000879
3674.71	0.0009233
3684.35	0.00100556
3694	0.00109249
3703.64	0.000894
3713.29	0.00102268
3722.93	0.000859
3732.58	0.000866
3742.22	0.0009497
3751.86	0.00102793
3761.51	0.000887
3771.15	0.0009556
3780.8	0.0009424
3790.44	0.00099009
3800.09	0.0009715
3809.73	0.00099269
3819.38	0.000883
3829.02	0.000904
3838.67	0.000806
3848.31	0.00100722
3857.96	0.00106947
3867.6	0.00099191
3877.25	0.00099374
3886.89	0.00107139
3896.54	0.000837
3906.18	0.00104055
3915.83	0.000791
3925.47	0.000888
3935.12	0.0009516
3944.76	0.0011924
3954.41	0.00105242
3964.05	0.000801
3973.69	0.000898
3983.34	0.000886
3992.98	0.0009853
