Infrared Spectrum: TRI-N-HEXYLAMINE
Formula: C18 H39 N
CAS: 102-86-3
State: LIQUID
Boiling point: 155-157 C AT 5 mmHg
Class: COBLENTZ
Instrument: Not specified, most likely a prism, grating, or hybrid spectrometer.
Sampling: TRANSMISSION
Path length: 0.003 CM
Resolution: 4
Origin: WYANDOTTE CHEMICALS CORP., WYANDOTTE, MICHIGAN, USA
MICROMETERS	TRANSMITTANCE
2.017	0.974
2.05581	0.974
2.09463	0.974
2.13344	0.972
2.17226	0.959
2.21107	0.898
2.24988	0.903
2.2887	0.908
2.32751	0.917
2.36632	0.919
2.40514	0.932
2.44395	0.943
2.48277	0.95
2.52158	0.959
2.56039	0.961
2.59921	0.964
2.63802	0.972
2.67684	0.974
2.71565	0.974
2.75446	0.977
2.79328	0.98
2.83209	0.983
2.87091	0.98
2.90972	0.979
2.94853	0.979
2.98735	0.974
3.02616	0.969
3.06498	0.959
3.10379	0.951
3.1426	0.927
3.18142	0.924
3.22023	0.911
3.25904	0.861
3.29786	0.748
3.33667	0.364
3.37549	0.033
3.4143	0.035
3.45311	0.048
3.49193	0.038
3.53074	0.174
3.56956	0.169
3.60837	0.283
3.64718	0.483
3.686	0.559
3.72481	0.717
3.76363	0.761
3.80244	0.84
3.84125	0.875
3.88007	0.893
3.91888	0.916
3.95769	0.941
3.99651	0.956
4.03532	0.962
4.07414	0.962
4.11295	0.964
4.15176	0.972
4.19058	0.972
4.22939	0.972
4.26821	0.983
4.30702	0.977
4.34583	0.974
4.38465	0.975
4.42346	0.98
4.46227	0.982
4.50109	0.979
4.5399	0.983
4.57872	0.983
4.61753	0.983
4.65634	0.983
4.69516	0.985
4.73397	0.988
4.77279	0.99
4.8116	0.99
4.85041	0.988
4.88923	0.987
4.92804	0.985
4.96686	0.983
5.00567	0.985
5.04448	0.985
5.0833	0.985
5.12211	0.99
5.16093	0.991
5.19974	0.99
5.23855	0.991
5.27737	0.99
5.31618	0.99
5.35499	0.99
5.39381	0.987
5.43262	0.991
5.47144	0.991
5.51025	0.991
5.54906	0.991
5.58788	0.993
5.62669	0.99
5.66551	0.987
5.70432	0.985
5.74313	0.979
5.78195	0.967
5.82076	0.959
5.85957	0.956
5.89839	0.914
5.9372	0.94
5.97602	0.959
6.01483	0.958
6.05364	0.954
6.09246	0.958
6.13127	0.966
6.17009	0.969
6.2089	0.969
6.24771	0.967
6.28653	0.961
6.32534	0.959
6.36416	0.958
6.40297	0.956
6.44178	0.95
6.4806	0.932
6.51941	0.929
6.55823	0.911
6.59704	0.898
6.63585	0.87
6.67467	0.833
6.71348	0.73
6.75229	0.43
6.79111	0.109
6.82992	0.198
6.86874	0.358
6.90755	0.483
6.94636	0.62
6.98518	0.751
7.02399	0.808
7.06281	0.827
7.10162	0.82
7.14043	0.78
7.17925	0.667
7.21806	0.429
7.25688	0.358
7.29569	0.491
7.3345	0.548
7.37332	0.608
7.41213	0.641
7.45094	0.675
7.48976	0.74
7.52857	0.753
7.56739	0.719
7.6062	0.65
7.64501	0.595
7.68383	0.588
7.72264	0.64
7.76146	0.659
7.80027	0.656
7.83908	0.659
7.8779	0.672
7.91671	0.724
7.95552	0.798
7.99434	0.764
8.03315	0.704
8.07197	0.675
8.11078	0.7
8.14959	0.727
8.18841	0.722
8.22722	0.701
8.26604	0.7
8.30485	0.738
8.34366	0.779
8.38248	0.8
8.42129	0.809
8.46011	0.764
8.49892	0.656
8.53773	0.593
8.57655	0.572
8.61536	0.606
8.65418	0.691
8.69299	0.787
8.7318	0.809
8.77062	0.793
8.80943	0.787
8.84824	0.782
8.88706	0.754
8.92587	0.698
8.96469	0.691
9.0035	0.675
9.04231	0.537
9.08113	0.369
9.11994	0.262
9.15876	0.28
9.19757	0.408
9.23638	0.535
9.2752	0.616
9.31401	0.667
9.35283	0.716
9.39164	0.751
9.43045	0.772
9.46927	0.782
9.50808	0.787
9.54689	0.787
9.58571	0.793
9.62452	0.787
9.66334	0.766
9.70215	0.745
9.74096	0.732
9.77978	0.725
9.81859	0.72
9.85741	0.719
9.89622	0.732
9.93503	0.75
9.97385	0.756
10.0127	0.759
10.0515	0.762
10.0903	0.782
10.1291	0.796
10.1679	0.811
10.2067	0.825
10.2455	0.825
10.2844	0.824
10.3232	0.825
10.362	0.825
10.4008	0.829
10.4396	0.833
10.4784	0.837
10.5172	0.843
10.5561	0.85
10.5949	0.851
10.6337	0.853
10.6725	0.851
10.7113	0.859
10.7501	0.869
10.7889	0.874
10.8278	0.883
10.8666	0.891
10.9054	0.9
10.9442	0.898
10.983	0.896
11.0218	0.883
11.0606	0.861
11.0994	0.838
11.1383	0.82
11.1771	0.791
11.2159	0.775
11.2547	0.774
11.2935	0.788
11.3323	0.808
11.3711	0.817
11.41	0.822
11.4488	0.819
11.4876	0.812
11.5264	0.808
11.5652	0.811
11.604	0.82
11.6428	0.822
11.6817	0.825
11.7205	0.83
11.7593	0.835
11.7981	0.845
11.8369	0.851
11.8757	0.859
11.9145	0.872
11.9534	0.885
11.9922	0.891
12.031	0.898
12.0698	0.898
12.1086	0.896
12.1474	0.895
12.1862	0.893
12.2251	0.891
12.2639	0.885
12.3027	0.883
12.3415	0.875
12.3803	0.872
12.4191	0.872
12.4579	0.867
12.4968	0.864
12.5356	0.858
12.5744	0.851
12.6132	0.84
12.652	0.837
12.6908	0.833
12.7296	0.843
12.7684	0.85
12.8073	0.861
12.8461	0.87
12.8849	0.872
12.9237	0.87
12.9625	0.861
13.0013	0.853
13.0401	0.846
13.079	0.837
13.1178	0.829
13.1566	0.822
13.1954	0.819
13.2342	0.82
13.273	0.824
13.3118	0.824
13.3507	0.819
13.3895	0.811
13.4283	0.803
13.4671	0.798
13.5059	0.793
13.5447	0.788
13.5835	0.777
13.6224	0.751
13.6612	0.72
13.7	0.683
13.7388	0.638
13.7776	0.6
13.8164	0.572
13.8552	0.57
13.8941	0.606
13.9329	0.664
13.9717	0.717
14.0105	0.756
14.0493	0.787
14.0881	0.809
14.1269	0.827
14.1657	0.84
14.2046	0.848
14.2434	0.856
14.2822	0.862
14.321	0.872
14.3598	0.879
14.3986	0.88
14.4374	0.888
14.4763	0.89
14.5151	0.89
14.5539	0.89
14.5927	0.891
14.6315	0.89
14.6703	0.888
14.7091	0.885
14.748	0.887
14.7868	0.885
14.8256	0.88
14.8644	0.88
14.9032	0.879
14.942	0.877
14.9808	0.862
15.0197	0.835
15.0585	0.82
15.0973	0.833
15.1361	0.856
15.1749	0.858
15.2137	0.853
15.2525	0.843
15.2913	0.84
15.3302	0.837
15.369	0.827
15.4078	0.822
15.4466	0.82
15.4854	0.814
15.5242	0.812
15.563	0.811
15.6019	0.804
15.6407	0.8
15.6795	0.796
15.7183	0.795
15.7571	0.79
15.7959	0.782
15.8347	0.777
15.8736	0.772
15.9124	0.769
15.9512	0.759
15.99	0.758
