Infrared Spectrum: ISO-BUTYL-PHENYL-ACETATE
Formula: C12 H16 O2
CAS: 102-13-6
State: LIQUID
Boiling point: 120-122 C AT 10 mmHg
Class: COBLENTZ
Instrument: Not specified, most likely a prism, grating, or hybrid spectrometer.
Sampling: TRANSMISSION
Path length: 0.003 CM
Resolution: 4
Origin: WYANDOTTE CHEMICALS CORP., WYANDOTTE, MICHIGAN, USA
MICROMETERS	TRANSMITTANCE
2.03	0.965
2.06987	0.958
2.10973	0.963
2.1496	0.961
2.18946	0.951
2.22933	0.941
2.26919	0.945
2.30906	0.95
2.34893	0.941
2.38879	0.933
2.42866	0.955
2.46852	0.961
2.50839	0.96
2.54825	0.955
2.58812	0.953
2.62799	0.968
2.66785	0.97
2.70772	0.955
2.74758	0.953
2.78745	0.965
2.82731	0.95
2.86718	0.965
2.90705	0.945
2.94691	0.948
2.98678	0.966
3.02664	0.961
3.06651	0.965
3.10637	0.951
3.14624	0.946
3.18611	0.938
3.22597	0.88
3.26584	0.725
3.3057	0.627
3.34557	0.316
3.38543	0.286
3.4253	0.46
3.46517	0.47
3.50503	0.785
3.5449	0.893
3.58476	0.928
3.62463	0.948
3.66449	0.936
3.70436	0.96
3.74423	0.956
3.78409	0.965
3.82396	0.96
3.86382	0.966
3.90369	0.96
3.94355	0.968
3.98342	0.965
4.02329	0.968
4.06315	0.968
4.10302	0.968
4.14288	0.966
4.18275	0.963
4.22261	0.965
4.26248	0.963
4.30235	0.956
4.34221	0.95
4.38208	0.955
4.42194	0.958
4.46181	0.965
4.50167	0.961
4.54154	0.97
4.58141	0.968
4.62127	0.965
4.66114	0.97
4.701	0.963
4.74087	0.961
4.78073	0.965
4.8206	0.965
4.86047	0.961
4.90033	0.96
4.9402	0.96
4.98006	0.958
5.01993	0.956
5.05979	0.943
5.09966	0.95
5.13953	0.926
5.17939	0.906
5.21926	0.941
5.25912	0.945
5.29899	0.943
5.33885	0.925
5.37872	0.925
5.41859	0.94
5.45845	0.931
5.49832	0.91
5.53818	0.871
5.57805	0.831
5.61791	0.8
5.65778	0.68
5.69765	0.357
5.73751	0.019
5.77738	0.028
5.81724	0.326
5.85711	0.605
5.89697	0.705
5.93684	0.806
5.97671	0.846
6.01657	0.88
6.05644	0.886
6.0963	0.885
6.13617	0.881
6.17603	0.715
6.2159	0.823
6.25577	0.845
6.29563	0.901
6.3355	0.918
6.37536	0.901
6.41523	0.911
6.45509	0.9
6.49496	0.903
6.53483	0.895
6.57469	0.883
6.61456	0.697
6.65442	0.47
6.69429	0.757
6.73415	0.613
6.77402	0.311
6.81389	0.424
6.85375	0.41
6.89362	0.67
6.93348	0.68
6.97335	0.65
7.01321	0.668
7.05308	0.685
7.09295	0.73
7.13281	0.648
7.17268	0.589
7.21254	0.505
7.25241	0.332
7.29227	0.434
7.33214	0.677
7.37201	0.555
7.41187	0.409
7.45174	0.437
7.4916	0.435
7.53147	0.455
7.57133	0.469
7.6112	0.391
7.65107	0.321
7.69093	0.334
7.7308	0.299
7.77066	0.291
7.81053	0.269
7.85039	0.194
7.89026	0.129
7.93013	0.101
7.96999	0.081
8.00986	0.071
8.04972	0.108
8.08959	0.189
8.12945	0.239
8.16932	0.247
8.20919	0.262
8.24905	0.369
8.28892	0.494
8.32878	0.502
8.36865	0.454
8.40851	0.424
8.44838	0.376
8.48825	0.284
8.52811	0.168
8.56798	0.118
8.60784	0.069
8.64771	0.056
8.68757	0.059
8.72744	0.058
8.76731	0.084
8.80717	0.131
8.84704	0.246
8.8869	0.445
8.92677	0.625
8.96663	0.7
9.0065	0.73
9.04637	0.783
9.08623	0.84
9.1261	0.858
9.16596	0.865
9.20583	0.855
9.24569	0.735
9.28556	0.697
9.32543	0.813
9.36529	0.873
9.40516	0.888
9.44502	0.89
9.48489	0.895
9.52475	0.888
9.56462	0.866
9.60449	0.836
9.64435	0.753
9.68422	0.632
9.72408	0.633
9.76395	0.495
9.80381	0.309
9.84368	0.169
9.88355	0.116
9.92341	0.126
9.96328	0.219
10.0031	0.289
10.043	0.474
10.0829	0.638
10.1227	0.723
10.1626	0.768
10.2025	0.792
10.2423	0.8
10.2822	0.757
10.3221	0.728
10.3619	0.72
10.4018	0.73
10.4417	0.732
10.4815	0.718
10.5214	0.713
10.5613	0.722
10.6011	0.737
10.641	0.733
10.6809	0.737
10.7207	0.745
10.7606	0.745
10.8005	0.735
10.8403	0.755
10.8802	0.78
10.9201	0.787
10.9599	0.79
10.9998	0.783
11.0397	0.787
11.0795	0.788
11.1194	0.8
11.1592	0.801
11.1991	0.811
11.239	0.825
11.2788	0.838
11.3187	0.853
11.3586	0.866
11.3984	0.876
11.4383	0.873
11.4782	0.878
11.518	0.883
11.5579	0.885
11.5978	0.883
11.6376	0.885
11.6775	0.881
11.7174	0.878
11.7572	0.871
11.7971	0.858
11.837	0.858
11.8768	0.845
11.9167	0.85
11.9566	0.846
11.9964	0.848
12.0363	0.841
12.0762	0.833
12.116	0.835
12.1559	0.835
12.1958	0.848
12.2356	0.878
12.2755	0.903
12.3154	0.918
12.3552	0.918
12.3951	0.925
12.435	0.931
12.4748	0.94
12.5147	0.941
12.5545	0.951
12.5944	0.951
12.6343	0.953
12.6741	0.955
12.714	0.956
12.7539	0.953
12.7937	0.951
12.8336	0.951
12.8735	0.94
12.9133	0.921
12.9532	0.888
12.9931	0.825
13.0329	0.74
13.0728	0.658
13.1127	0.628
13.1525	0.628
13.1924	0.647
13.2323	0.687
13.2721	0.722
13.312	0.76
13.3519	0.775
13.3917	0.787
13.4316	0.787
13.4715	0.777
13.5113	0.762
13.5512	0.732
13.5911	0.683
13.6309	0.62
13.6708	0.534
13.7107	0.449
13.7505	0.354
13.7904	0.287
13.8303	0.247
13.8701	0.244
13.91	0.276
13.9498	0.306
13.9897	0.331
14.0296	0.346
14.0694	0.332
14.1093	0.319
14.1492	0.304
14.189	0.292
14.2289	0.296
14.2688	0.317
14.3086	0.324
14.3485	0.326
14.3884	0.297
14.4282	0.284
14.4681	0.339
14.508	0.465
14.5478	0.607
14.5877	0.698
14.6276	0.76
14.6674	0.795
14.7073	0.816
14.7472	0.826
14.787	0.83
14.8269	0.828
14.8668	0.83
14.9066	0.831
14.9465	0.823
14.9864	0.811
15.0262	0.788
15.0661	0.793
15.106	0.823
15.1458	0.833
15.1857	0.83
15.2256	0.83
15.2654	0.823
15.3053	0.8
15.3451	0.801
15.385	0.806
15.4249	0.798
15.4647	0.782
15.5046	0.78
15.5445	0.767
15.5843	0.763
15.6242	0.757
15.6641	0.755
15.7039	0.745
15.7438	0.74
15.7837	0.738
15.8235	0.743
15.8634	0.745
15.9033	0.752
15.9431	0.748
15.983	0.747
