Infrared Spectrum: 3,4-Dimethylbenzyl amine
Formula: C 9 H 13 N
CAS: 102-48-7
State: gas
Origin: EPA-IR VAPOR PHASE LIBRARY
1/CM	ABSORBANCE
501.5	0.00112
513.074	0.0014
524.648	0.00153
536.222	0.00153
547.796	0.00187
559.37	0.00205
570.944	0.00233
582.518	0.0027
594.092	0.00318
605.666	0.00295
617.24	0.00261
628.814	0.00228
640.388	0.00238
651.962	0.00262
663.536	0.00305
675.11	0.00374
686.684	0.0048
698.258	0.00639
709.832	0.00779
721.406	0.00843
732.98	0.00831
744.554	0.00844
756.128	0.0096
767.702	0.01211
779.276	0.01479
790.85	0.01659
802.423	0.01928
813.997	0.01991
825.571	0.01492
837.145	0.0097
848.719	0.0064
860.293	0.00515
871.867	0.00554
883.441	0.00526
895.015	0.00397
906.589	0.00306
918.163	0.0027
929.737	0.00274
941.311	0.00271
952.885	0.00257
964.459	0.00289
976.033	0.00303
987.607	0.00388
999.181	0.00423
1010.76	0.00356
1022.33	0.00365
1033.9	0.00401
1045.48	0.00382
1057.05	0.00296
1068.63	0.00214
1080.2	0.00167
1091.77	0.00141
1103.35	0.0016
1114.92	0.00271
1126.49	0.00326
1138.07	0.00244
1149.64	0.00228
1161.22	0.0022
1172.79	0.00149
1184.36	0.00105
1195.94	0.0009052
1207.51	0.0007526
1219.09	0.0009107
1230.66	0.00149
1242.23	0.0019
1253.81	0.00156
1265.38	0.00125
1276.96	0.00132
1288.53	0.0014
1300.1	0.00161
1311.68	0.00192
1323.25	0.00246
1334.83	0.00322
1346.4	0.00376
1357.97	0.00445
1369.55	0.00551
1381.12	0.00594
1392.7	0.00523
1404.27	0.00436
1415.84	0.00442
1427.42	0.00447
1438.99	0.00527
1450.57	0.00698
1462.14	0.00751
1473.71	0.00607
1485.29	0.0053
1496.86	0.00852
1508.44	0.00854
1520.01	0.00391
1531.58	0.00257
1543.16	0.00239
1554.73	0.00243
1566.31	0.00273
1577.88	0.00337
1589.45	0.00381
1601.03	0.00471
1612.6	0.00593
1624.18	0.00579
1635.75	0.00406
1647.32	0.0029
1658.9	0.00185
1670.47	0.00122
1682.05	0.0008503
1693.62	0.0006636
1705.19	0.0005879
1716.77	0.0006315
1728.34	0.0007273
1739.92	0.0009803
1751.49	0.00111
1763.06	0.000904
1774.64	0.0006548
1786.21	0.0005348
1797.79	0.0004849
1809.36	0.0004331
1820.93	0.0004694
1832.51	0.0004221
1844.08	0.000407
1855.66	0.0004823
1867.23	0.0007295
1878.8	0.0009269
1890.38	0.0007873
1901.95	0.0004686
1913.53	0.0002854
1925.1	0.0001975
1936.67	0.0001495
1948.25	0.0001349
1959.82	0.0001298
1971.4	0.0001212
1982.97	0.0001203
1994.54	9.148e-05
2006.12	5.759e-05
2017.69	5.701e-05
2029.27	9.473e-05
2040.84	5.79e-05
2052.41	7.451e-05
2063.99	6.959e-05
2075.56	5.826e-05
2087.14	6.728e-05
2098.71	8.453e-05
2110.28	7.211e-05
2121.86	7.421e-05
2133.43	0.0001041
2145.01	8.684e-05
2156.58	6.036e-05
2168.15	8.618e-05
2179.73	0.0001047
2191.3	5.788e-05
2202.88	0.000104
2214.45	8.792e-05
2226.02	0.0001122
2237.6	9.548e-05
2249.17	0.0001908
2260.74	0.0002087
2272.32	0.0002222
2283.89	0.0002137
2295.47	0.0001716
2307.04	0.0001601
2318.61	0.0001705
2330.19	0.0001293
2341.76	0.0001314
2353.34	0.0001203
2364.91	0.0001484
2376.48	9.549e-05
2388.06	0.0001072
2399.63	0.0001357
2411.21	0.0001796
2422.78	0.000161
2434.35	0.0001424
2445.93	0.0001721
2457.5	0.0001488
2469.08	0.0001405
2480.65	0.0001508
2492.22	0.0001714
2503.8	0.0001535
2515.37	0.0001637
2526.95	0.0001703
2538.52	0.0001745
2550.09	0.0001518
2561.67	0.0002235
2573.24	0.0002704
2584.82	0.000248
2596.39	0.0002531
2607.96	0.0002481
2619.54	0.0003393
2631.11	0.0003412
2642.69	0.0003507
2654.26	0.0003467
2665.83	0.0003954
2677.41	0.0004551
2688.98	0.0005212
2700.56	0.0006416
2712.13	0.0007256
2723.7	0.0009585
2735.28	0.00142
2746.85	0.00155
2758.43	0.00137
2770	0.00142
2781.57	0.00147
2793.15	0.00156
2804.72	0.00215
2816.3	0.00314
2827.87	0.00444
2839.44	0.00636
2851.02	0.00936
2862.59	0.01337
2874.17	0.01612
2885.74	0.01585
2897.31	0.01522
2908.89	0.01543
2920.46	0.0185
2932.04	0.02436
2943.61	0.02258
2955.18	0.01641
2966.76	0.0134
2978.33	0.01221
2989.91	0.01113
3001.48	0.01234
3013.05	0.01366
3024.63	0.01152
3036.2	0.00932
3047.78	0.00873
3059.35	0.00718
3070.92	0.00495
3082.5	0.0034
3094.07	0.00246
3105.65	0.00193
3117.22	0.00171
3128.79	0.00129
3140.37	0.0008611
3151.94	0.0005854
3163.52	0.0004531
3175.09	0.0003579
3186.66	0.0003536
3198.24	0.0003573
3209.81	0.0003688
3221.39	0.0003298
3232.96	0.0003052
3244.53	0.0002281
3256.11	0.0002245
3267.68	0.0002538
3279.26	0.0002082
3290.83	0.0002145
3302.4	0.000282
3313.98	0.0002473
3325.55	0.0002935
3337.13	0.0005868
3348.7	0.0006974
3360.27	0.0004196
3371.85	0.0003991
3383.42	0.0002232
3395	0.0002838
3406.57	0.0002231
3418.14	0.0003482
3429.72	0.0002727
3441.29	0.0002853
3452.86	0.0002464
3464.44	0.0001802
3476.01	0.000157
3487.59	0.0001819
3499.16	0.0001421
3510.73	0.0001312
3522.31	0.0001748
3533.88	9.257e-05
3545.46	0.0001906
3557.03	0.0001788
3568.6	0.0001939
3580.18	0.0001249
3591.75	0.0001246
3603.33	0.0002138
3614.9	8.085e-05
3626.47	0.0002424
3638.05	0.0001364
3649.62	0.0001903
3661.2	8.92e-05
3672.77	0.000187
3684.34	9.664e-05
3695.92	0.0001542
3707.49	0.0001799
3719.07	0.0001707
3730.64	0.0002545
3742.21	0.0002151
3753.79	0.00028
3765.36	0.0002402
3776.94	0.0002518
3788.51	0.0002106
3800.08	0.0001824
3811.66	0.0001638
3823.23	0.0002355
3834.81	0.0001441
3846.38	0.0002245
3857.95	0.0002159
3869.53	0.0002321
3881.1	0.0002193
3892.68	0.000372
3904.25	0.000349
3915.82	0.0003236
3927.4	0.0003754
3938.97	0.0002966
3950.55	0.0002774
3962.12	0.0002651
3973.69	0.0003006
3985.27	0.0002886
3996.84	0.0002371
