Infrared Spectrum: N-Benzyl-N,N'-dimethylethylenediamine
Formula: C 11 H 18 N 2
CAS: 102-11-4
State: gas
Instrument: HP-GC/MS/IRD
Origin: NIST Mass Spectrometry Data Center
1/CM	ABSORBANCE
550	0.0026169
562	0.0004819
574	0.0009638
586	0.0016104
598	0.002013
610	0.0016287
622	0.0012017
634	0.0014335
646	0.00244
658	0.0041541
670	0.0074664
682	0.013481
694	0.0256749
706	0.0237229
718	0.0200263
730	0.0230153
742	0.0216245
754	0.0118279
766	0.007259
778	0.0058926
790	0.0038308
802	0.0029341
814	0.0029951
826	0.0024095
838	0.0019642
850	0.0017385
862	0.0012322
874	0.0007747
886	0.000671
898	0.0013969
910	0.0016287
922	0.0019093
934	0.0026047
946	0.0028182
958	0.0029463
970	0.0036478
982	0.0037149
994	0.0038674
1006	0.0059963
1018	0.0114314
1030	0.0193614
1042	0.0231007
1054	0.0223199
1066	0.014396
1078	0.0089853
1090	0.0081801
1102	0.010492
1114	0.0162931
1126	0.0213988
1138	0.014945
1150	0.0099308
1162	0.0080825
1174	0.0072529
1186	0.0065026
1198	0.0064538
1210	0.0054412
1222	0.0050325
1234	0.0055388
1246	0.0070943
1258	0.0091866
1270	0.0114558
1282	0.0114802
1294	0.0095648
1306	0.0078507
1318	0.0079544
1330	0.0096563
1342	0.0114131
1354	0.0120841
1366	0.0082106
1378	0.005551
1390	0.0040931
1402	0.0034892
1414	0.0044042
1426	0.0074664
1438	0.0160613
1450	0.0330864
1462	0.0370758
1474	0.0216611
1486	0.012505
1498	0.0104371
1510	0.0035563
1522	0.0017751
1534	0.0011163
1546	0.0008235
1558	0.0007259
1570	0.0008601
1582	0.0014152
1594	0.0025315
1606	0.0027328
1618	0.0009028
1630	0.0003233
1642	0.0003599
1654	0.0004026
1666	0.0001952
1678	0.0001281
1690	0.0001037
1702	0.0001708
1714	0.0002684
1726	0.0003782
1738	0.0004758
1750	0.0003172
1762	0.0002379
1774	0.0004575
1786	0.000854
1798	0.001525
1810	0.0009333
1822	0.0005978
1834	0.0004697
1846	0.000549
1858	0.0008601
1870	0.0009821
1882	0.0008235
1894	0.0004331
1906	0.0003355
1918	0.0005856
1930	0.0010736
1942	0.0014945
1954	0.0012749
1966	0.0004453
1978	0.0002013
1990	0.0002013
2002	0.0002013
2014	0.0002196
2026	0.0002867
2038	0.0003294
2050	0.0003477
2062	0.0003355
2074	0.0003538
2086	0.0003843
2098	0.0003843
2110	0.000366
2122	0.0003355
2134	0.0003233
2146	0.0003355
2158	0.0003355
2170	0.0003416
2182	0.0003721
2194	0.000366
2206	0.0003721
2218	0.0004209
2230	0.000366
2242	0.0003721
2254	0.0003477
2266	0.0003233
2278	0.0003782
2290	0.000427
2302	0.0004697
2314	0.0006344
2326	0.00061
2338	0.0005856
2350	0.0005063
2362	0.0005307
2374	0.0005246
2386	0.0004636
2398	0.0005185
2410	0.0005734
2422	0.0006649
2434	0.0006588
2446	0.0006649
2458	0.0006832
2470	0.0007686
2482	0.0009089
2494	0.0011651
2506	0.0012688
2518	0.0012688
2530	0.0012505
2542	0.0012505
2554	0.0013237
2566	0.0013481
2578	0.0014701
2590	0.0016165
2602	0.0018483
2614	0.002074
2626	0.0023241
2638	0.0027328
2650	0.0032086
2662	0.0037454
2674	0.004514
2686	0.0056242
2698	0.0071431
2710	0.0089304
2722	0.011163
2734	0.0144021
2746	0.0187453
2758	0.0280356
2770	0.0497638
2782	0.061
2794	0.0544303
2806	0.0514596
2818	0.0577426
2830	0.0561078
2842	0.0411201
2854	0.0352702
2866	0.0330376
2878	0.0314577
2890	0.0325923
2902	0.0337635
2914	0.0360693
2926	0.040565
2938	0.0465491
2950	0.0509106
2962	0.0400892
2974	0.0367647
2986	0.0273402
2998	0.0127368
3010	0.0105957
3022	0.0150304
3034	0.0194163
3046	0.0139873
3058	0.0142923
3070	0.0213622
3082	0.0143411
3094	0.0096441
3106	0.0059658
3118	0.0034221
3130	0.0019825
3142	0.0014945
3154	0.0013908
3166	0.0014335
3178	0.0013237
3190	0.0010675
3202	0.0010187
3214	0.0009516
3226	0.0008662
3238	0.000793
3250	0.0007381
3262	0.0006344
3274	0.0007442
3286	0.0006832
3298	0.0006893
3310	0.0008601
3322	0.0011163
3334	0.0017812
3346	0.0018544
3358	0.0015677
3370	0.0012139
3382	0.0009028
3394	0.0007503
3406	0.0007442
3418	0.0006222
3430	0.0005795
3442	0.0005307
3454	0.0005002
3466	0.0004819
3478	0.0005063
3490	0.000488
3502	0.000427
3514	0.0004026
3526	0.0004392
3538	0.0004026
3550	0.0004026
3562	0.0004819
3574	0.0003904
3586	0.0003599
3598	0.000427
3610	0.0004636
3622	0.0005185
3634	0.0005978
3646	0.0006954
3658	0.0007442
3670	0.0006344
3682	0.0006161
3694	0.0005246
3706	0.0006405
3718	0.000549
3730	0.0005795
3742	0.0005673
3754	0.0005856
3766	0.00061
3778	0.0005429
3790	0.0005795
3802	0.0006466
3814	0.000793
3826	0.0006832
3838	0.0007198
