Infrared Spectrum: STYRENE, Beta-NITRO
Formula: C8 H7 N O2
CAS: 102-96-5
State: SOLID (PELLET)
Class: COBLENTZ
Instrument: Not specified, most likely a prism, grating, or hybrid spectrometer.
Sampling: TRANSMISSION
Resolution: 4
Origin: TENNESSEE EASTMAN COMPANY, RESEARCH LABORATORIES
MICROMETERS	TRANSMITTANCE
2.02	0.499
2.05977	0.509
2.09955	0.517
2.13932	0.524
2.17909	0.538
2.21887	0.552
2.25864	0.558
2.29841	0.568
2.33819	0.578
2.37796	0.585
2.41773	0.595
2.45751	0.601
2.49728	0.608
2.53705	0.62
2.57683	0.623
2.6166	0.631
2.65637	0.64
2.69615	0.65
2.73592	0.653
2.77569	0.645
2.81547	0.635
2.85524	0.63
2.89501	0.623
2.93479	0.626
2.97456	0.645
3.01433	0.676
3.05411	0.689
3.09388	0.699
3.13365	0.709
3.17343	0.718
3.2132	0.681
3.25297	0.731
3.29275	0.708
3.33252	0.746
3.37229	0.749
3.41207	0.754
3.45184	0.771
3.49161	0.779
3.53139	0.764
3.57116	0.797
3.61094	0.805
3.65071	0.82
3.69048	0.827
3.73026	0.83
3.77003	0.834
3.8098	0.834
3.84958	0.835
3.88935	0.835
3.92912	0.844
3.9689	0.85
4.00867	0.85
4.04844	0.852
4.08822	0.855
4.12799	0.864
4.16776	0.87
4.20754	0.877
4.24731	0.892
4.28708	0.893
4.32686	0.892
4.36663	0.872
4.4064	0.89
4.44618	0.9
4.48595	0.905
4.52572	0.912
4.5655	0.915
4.60527	0.915
4.64504	0.918
4.68482	0.923
4.72459	0.927
4.76436	0.927
4.80414	0.928
4.84391	0.932
4.88368	0.932
4.92346	0.933
4.96323	0.935
5.003	0.933
5.04278	0.922
5.08255	0.913
5.12232	0.923
5.1621	0.917
5.20187	0.92
5.24164	0.925
5.28142	0.927
5.32119	0.94
5.36096	0.943
5.40074	0.943
5.44051	0.941
5.48028	0.927
5.52006	0.928
5.55983	0.94
5.5996	0.945
5.63938	0.945
5.67915	0.933
5.71892	0.941
5.7587	0.941
5.79847	0.943
5.83824	0.912
5.87802	0.89
5.91779	0.887
5.95756	0.903
5.99734	0.91
6.03711	0.9
6.07688	0.827
6.11666	0.417
6.15643	0.376
6.1962	0.762
6.23598	0.786
6.27575	0.792
6.31552	0.676
6.3553	0.777
6.39507	0.786
6.43484	0.812
6.47462	0.805
6.51439	0.608
6.55417	0.031
6.59394	0.071
6.63371	0.175
6.67349	0.263
6.71326	0.663
6.75303	0.752
6.79281	0.822
6.83258	0.817
6.87235	0.373
6.91213	0.8
6.9519	0.88
6.99167	0.907
7.03145	0.907
7.07122	0.912
7.11099	0.878
7.15077	0.822
7.19054	0.842
7.23031	0.852
7.27009	0.842
7.30986	0.746
7.34963	0.671
7.38941	0.373
7.42918	0.036
7.46895	0.049
7.50873	0.253
7.5485	0.427
7.58827	0.54
7.62805	0.696
7.66782	0.782
7.70759	0.84
7.74737	0.84
7.78714	0.887
7.82691	0.902
7.86669	0.756
7.90646	0.298
7.94623	0.663
7.98601	0.81
8.02578	0.888
8.06555	0.923
8.10533	0.935
8.1451	0.938
8.18487	0.935
8.22465	0.91
8.26442	0.802
8.30419	0.618
8.34397	0.714
8.38374	0.761
8.42351	0.59
8.46329	0.782
8.50306	0.85
8.54283	0.892
8.58261	0.839
8.62238	0.927
8.66215	0.935
8.70193	0.941
8.7417	0.948
8.78147	0.948
8.82125	0.948
8.86102	0.946
8.90079	0.946
8.94057	0.946
8.98034	0.946
9.02011	0.948
9.05989	0.946
9.09966	0.932
9.13943	0.933
9.17921	0.935
9.21898	0.935
9.25875	0.897
9.29853	0.865
9.3383	0.91
9.37807	0.93
9.41785	0.936
9.45762	0.936
9.49739	0.936
9.53717	0.941
9.57694	0.941
9.61672	0.936
9.65649	0.912
9.69626	0.872
9.73604	0.912
9.77581	0.922
9.81558	0.928
9.85536	0.925
9.89513	0.922
9.9349	0.883
9.97468	0.834
10.0144	0.82
10.0542	0.827
10.094	0.84
10.1338	0.744
10.1735	0.429
10.2133	0.308
10.2531	0.305
10.2929	0.29
10.3326	0.3
10.3724	0.553
10.4122	0.709
10.452	0.779
10.4917	0.829
10.5315	0.849
10.5713	0.867
10.611	0.887
10.6508	0.9
10.6906	0.92
10.7304	0.932
10.7701	0.936
10.8099	0.935
10.8497	0.935
10.8895	0.94
10.9292	0.943
10.969	0.948
11.0088	0.953
11.0486	0.955
11.0883	0.955
11.1281	0.958
11.1679	0.96
11.2077	0.963
11.2474	0.961
11.2872	0.961
11.327	0.963
11.3667	0.966
11.4065	0.966
11.4463	0.965
11.4861	0.963
11.5258	0.961
11.5656	0.912
11.6054	0.859
11.6452	0.857
11.6849	0.864
11.7247	0.837
11.7645	0.739
11.8043	0.718
11.844	0.66
11.8838	0.606
11.9236	0.764
11.9633	0.859
12.0031	0.907
12.0429	0.927
12.0827	0.936
12.1224	0.946
12.1622	0.96
12.202	0.966
12.2418	0.966
12.2815	0.963
12.3213	0.965
12.3611	0.968
12.4009	0.973
12.4406	0.973
12.4804	0.973
12.5202	0.971
12.5599	0.971
12.5997	0.973
12.6395	0.973
12.6793	0.966
12.719	0.955
12.7588	0.936
12.7986	0.903
12.8384	0.794
12.8781	0.525
12.9179	0.232
12.9577	0.172
12.9975	0.356
13.0372	0.711
13.077	0.839
13.1168	0.917
13.1565	0.941
13.1963	0.956
13.2361	0.965
13.2759	0.971
13.3156	0.975
13.3554	0.976
13.3952	0.968
13.435	0.877
13.4747	0.663
13.5145	0.645
13.5543	0.81
13.5941	0.922
13.6338	0.965
13.6736	0.978
13.7134	0.99
13.7531	0.995
13.7929	0.995
13.8327	0.995
13.8725	0.99
13.9122	0.95
13.952	0.875
13.9918	0.713
14.0316	0.49
14.0713	0.354
14.1111	0.369
14.1509	0.562
14.1907	0.711
14.2304	0.802
14.2702	0.859
14.31	0.91
14.3497	0.928
14.3895	0.941
14.4293	0.945
14.4691	0.948
14.5088	0.943
14.5486	0.883
14.5884	0.791
14.6282	0.719
14.6679	0.708
14.7077	0.759
14.7475	0.845
14.7873	0.925
14.827	0.95
14.8668	0.965
14.9066	0.973
14.9463	0.975
14.9861	0.975
15.0259	0.976
15.0657	0.98
15.1054	0.985
15.1452	0.99
15.185	0.99
15.2248	0.993
15.2645	0.993
15.3043	0.991
15.3441	0.99
15.3839	0.988
15.4236	0.983
15.4634	0.976
15.5032	0.973
15.5429	0.966
15.5827	0.96
15.6225	0.955
15.6623	0.938
15.702	0.922
15.7418	0.91
15.7816	0.897
15.8214	0.888
15.8611	0.87
15.9009	0.855
15.9407	0.835
15.9805	0.834
