Infrared Spectrum: N,N,N',N'-Tetraethylmethanediamine
Formula: C 9 H 22 N 2
CAS: 102-53-4
State: gas
Origin: EPA-IR VAPOR PHASE LIBRARY
1/CM	ABSORBANCE
549.8	0.000154
559.445	2.8e-05
569.09	0.0003554
578.734	0.000244
588.379	0.000149
598.024	0.000128
607.669	0.00040891
617.313	4.8e-05
626.958	0.0002898
636.603	0.0003274
646.248	0.000389754
655.893	0.0005243
665.537	0.0003614
675.182	0.00051
684.827	0.0005263
694.472	0.00041249
704.116	0.0006119
713.761	0.0005539
723.406	0.0005133
733.051	0.0004882
742.695	0.0007322
752.34	0.0009799
761.985	0.0012904
771.63	0.0012002
781.275	0.0011201
790.919	0.001184
800.564	0.0010948
810.209	0.0009535
819.854	0.0007255
829.498	0.00047783
839.143	0.0003646
848.788	0.00041438
858.433	0.0005788
868.078	0.0002966
877.722	0.00026
887.367	0.000227
897.012	0.00040752
906.657	0.0004847
916.301	0.0004858
925.946	0.0005727
935.591	0.0006222
945.236	0.0005708
954.88	0.0007473
964.525	0.0009121
974.17	0.00115
983.815	0.0012056
993.46	0.0012678
1003.1	0.001475
1012.75	0.001725
1022.39	0.002685
1032.04	0.003235
1041.68	0.004025
1051.33	0.005355
1060.97	0.005755
1070.62	0.005065
1080.26	0.004255
1089.91	0.003185
1099.55	0.002465
1109.2	0.002085
1118.84	0.002085
1128.49	0.001755
1138.13	0.001905
1147.78	0.001635
1157.42	0.001665
1167.07	0.002175
1176.71	0.002585
1186.36	0.003575
1196	0.005235
1205.64	0.006545
1215.29	0.005025
1224.93	0.003195
1234.58	0.001875
1244.22	0.001605
1253.87	0.0013185
1263.51	0.0009391
1273.16	0.0012859
1282.8	0.001685
1292.45	0.002435
1302.09	0.002595
1311.74	0.002445
1321.38	0.002365
1331.03	0.002635
1340.67	0.003145
1350.32	0.003715
1359.96	0.003925
1369.61	0.004865
1379.25	0.005775
1388.9	0.004635
1398.54	0.002745
1408.18	0.002005
1417.83	0.001595
1427.47	0.001455
1437.12	0.001655
1446.76	0.002205
1456.41	0.002495
1466.05	0.002735
1475.7	0.002515
1485.34	0.001725
1494.99	0.0010964
1504.63	0.0008852
1514.28	0.0007066
1523.92	0.0006371
1533.57	0.0006223
1543.21	0.0006328
1552.86	0.0007215
1562.5	0.0008261
1572.15	0.0008469
1581.79	0.0007765
1591.44	0.0007386
1601.08	0.0007316
1610.73	0.0006895
1620.37	0.0007311
1630.01	0.0010393
1639.66	0.0010789
1649.3	0.001049
1658.95	0.0007567
1668.59	0.0004981
1678.24	0.0005457
1687.88	0.0005431
1697.53	0.0005035
1707.17	0.0005098
1716.82	0.0004883
1726.46	0.0005444
1736.11	0.00041147
1745.75	0.0008308
1755.4	0.00042302
1765.04	0.0005397
1774.69	0.0005365
1784.33	0.0005765
1793.98	0.0005494
1803.62	0.00046215
1813.27	0.00047374
1822.91	0.00041431
1832.55	0.000391541
1842.2	0.0003999
1851.84	0.00041591
1861.49	0.00045793
1871.13	0.0004136
1880.78	0.00045662
1890.42	0.000392581
1900.07	0.0003714
1909.71	0.00041715
1919.36	0.00042451
1929	0.0004877
1938.65	0.00045163
1948.29	0.00042711
1957.94	0.00041673
1967.58	0.00041785
1977.23	0.00047261
1986.87	0.0004895
1996.52	0.00042517
2006.16	0.00044045
2015.81	0.00041267
2025.45	0.00044244
2035.1	0.0005045
2044.74	0.00042573
2054.38	0.00048235
2064.03	0.0005151
2073.67	0.00040589
2083.32	0.00047545
2092.96	0.00046483
2102.61	0.0004741
2112.25	0.00046284
2121.9	0.0004992
2131.54	0.0004926
2141.19	0.00046231
2150.83	0.0005374
2160.48	0.00048091
2170.12	0.00042453
2179.77	0.0005625
2189.41	0.00048397
2199.06	0.000527
2208.7	0.00043197
2218.35	0.00045475
2227.99	0.0004967
2237.64	0.00045897
2247.28	0.0005462
2256.92	0.0005553
2266.57	0.0005869
2276.21	0.0005322
2285.86	0.0005488
2295.5	0.0005028
2305.15	0.00045771
2314.79	0.0005424
2324.44	0.0005621
2334.08	0.000558
2343.73	0.0005852
2353.37	0.00048178
2363.02	0.0005289
2372.66	0.0005863
2382.31	0.0004918
2391.95	0.000568
2401.6	0.0006107
2411.24	0.0005815
2420.89	0.0005255
2430.53	0.0005894
2440.18	0.0005148
2449.82	0.0005376
2459.47	0.0005474
2469.11	0.0005471
2478.75	0.0006519
2488.4	0.0006309
2498.04	0.000567
2507.69	0.0006044
2517.33	0.0006612
2526.98	0.0005955
2536.62	0.0006075
2546.27	0.0006326
2555.91	0.0007476
2565.56	0.0007261
2575.2	0.0007406
2584.85	0.0007641
2594.49	0.0008152
2604.14	0.0008654
2613.78	0.0009233
2623.43	0.0009499
2633.07	0.0010198
2642.72	0.0011222
2652.36	0.0012186
2662.01	0.0013641
2671.65	0.001385
2681.29	0.001435
2690.94	0.001675
2700.58	0.001775
2710.23	0.002025
2719.87	0.002245
2729.52	0.002635
2739.16	0.002865
2748.81	0.003195
2758.45	0.003535
2768.1	0.004085
2777.74	0.005005
2787.39	0.006015
2797.03	0.007405
2806.68	0.008665
2816.32	0.008715
2825.97	0.008295
2835.61	0.007575
2845.26	0.007015
2854.9	0.006265
2864.55	0.006345
2874.19	0.006965
2883.84	0.007495
2893.48	0.006875
2903.12	0.006595
2912.77	0.007075
2922.41	0.008525
2932.06	0.010785
2941.7	0.011525
2951.35	0.009955
2960.99	0.011625
2970.64	0.016645
2980.28	0.015375
2989.93	0.008555
2999.57	0.004575
3009.22	0.002855
3018.86	0.001915
3028.51	0.001715
3038.15	0.001475
3047.8	0.0013763
3057.44	0.0012401
3067.09	0.0012132
3076.73	0.0010741
3086.38	0.0009563
3096.02	0.0010199
3105.67	0.0010027
3115.31	0.0010667
3124.95	0.0009809
3134.6	0.0008583
3144.24	0.0007825
3153.89	0.0007702
3163.53	0.0008205
3173.18	0.0008208
3182.82	0.0006917
3192.47	0.0006226
3202.11	0.0005459
3211.76	0.0004863
3221.4	0.0005674
3231.05	0.00041923
3240.69	0.0005481
3250.34	0.0005391
3259.98	0.0005498
3269.63	0.000616
3279.27	0.00048448
3288.92	0.000384854
3298.56	0.0005066
3308.21	0.000569
3317.85	0.0004785
3327.49	0.0005033
3337.14	0.0003814
3346.78	0.0003019
3356.43	0.00041951
3366.07	0.0005269
3375.72	0.000393894
3385.36	0.0005176
3395.01	0.0002987
3404.65	0.00040629
3414.3	0.00047219
3423.94	0.00039755
3433.59	0.0002876
3443.23	0.0003523
3452.88	0.00044869
3462.52	0.00042839
3472.17	0.000262
3481.81	0.000212
3491.46	0.000394146
3501.1	0.0004226
3510.75	0.00047225
3520.39	0.00038147
3530.04	0.0002947
3539.68	0.0003475
3549.32	0.000175
3558.97	0.0003631
3568.61	0.0002977
3578.26	0.0003591
3587.9	0.00045515
3597.55	0.0003018
3607.19	0.00044084
3616.84	0.000339
3626.48	0.0003725
3636.13	0.0004075
3645.77	0.0003243
3655.42	0.0003147
3665.06	0.00043975
3674.71	0.0003558
3684.35	0.0003304
3694	0.000279
3703.64	0.0004338
3713.29	0.0003366
3722.93	0.000388665
3732.58	0.000387927
3742.22	0.00021
3751.86	0.000184
3761.51	0.0005009
3771.15	0.0003359
3780.8	0.000354
3790.44	0.0003647
3800.09	0.0003209
3809.73	0.000205
3819.38	0.00046956
3829.02	0.0004276
3838.67	0.00042479
3848.31	0.00041425
3857.96	0.00038391
3867.6	0.0004507
3877.25	0.0004656
3886.89	0.0003459
3896.54	0.0004186
3906.18	0.00039666
3915.83	0.00041609
3925.47	0.000216
3935.12	0.00040177
3944.76	0.0003313
3954.41	0.000271
3964.05	0.000187
3973.69	0.00040229
3983.34	0.00040135
3992.98	0.0005593
