Infrared Spectrum: Triallylamine
Formula: C 9 H 15 N
CAS: 102-70-5
State: gas
Instrument: HP-GC/MS/IRD
Origin: NIST Mass Spectrometry Data Center
1/CM	ABSORBANCE
550	0.0007272
562	0.0003987
574	0.0001989
586	0.0001062
598	0.0001854
610	0.0002286
622	0.0002565
634	0.0004932
646	0.0004203
658	0.0003537
670	0.0004005
682	0.0002007
694	0.0001494
706	0.0001179
718	2.7e-06
730	0.0001251
742	9.09e-05
754	4.32e-05
766	4.5e-05
778	0.0001197
790	8.55e-05
802	9.99e-05
814	0.000243
826	0.000477
838	0.0006858
850	0.0007749
862	0.0007695
874	0.000738
886	0.0010215
898	0.0021492
910	0.0058905
922	0.009
934	0.0047322
946	0.0027063
958	0.0028755
970	0.003303
982	0.0037998
994	0.0043857
1006	0.0027774
1018	0.0013734
1030	0.0011394
1042	0.0012537
1054	0.0015282
1066	0.0018009
1078	0.0021717
1090	0.0023022
1102	0.0024264
1114	0.0025335
1126	0.0023067
1138	0.0023328
1150	0.0026604
1162	0.0023211
1174	0.0015624
1186	0.0009198
1198	0.0006066
1210	0.0004698
1222	0.0003798
1234	0.0004266
1246	0.0006894
1258	0.0012492
1270	0.0015741
1282	0.0013581
1294	0.0012132
1306	0.001152
1318	0.0015057
1330	0.0020061
1342	0.0021816
1354	0.0020655
1366	0.0015192
1378	0.0009459
1390	0.0008487
1402	0.0012915
1414	0.0023148
1426	0.002313
1438	0.0018072
1450	0.0017154
1462	0.0009999
1474	0.0004626
1486	0.0002988
1498	0.0002574
1510	0.0002205
1522	0.0001926
1534	0.0001557
1546	0.0002124
1558	0.000198
1570	0.0001917
1582	0.0001782
1594	0.0001962
1606	0.0002718
1618	0.00045
1630	0.00117
1642	0.001737
1654	0.0008946
1666	0.0002412
1678	0.0001215
1690	0.0001197
1702	8.19e-05
1714	8.37e-05
1726	8.82e-05
1738	6.21e-05
1750	7.65e-05
1762	6.48e-05
1774	7.56e-05
1786	7.83e-05
1798	0.0001044
1810	0.0001566
1822	0.0003015
1834	0.0006795
1846	0.0008064
1858	0.0004626
1870	0.0001791
1882	0.000144
1894	0.0001143
1906	9.36e-05
1918	8.37e-05
1930	6.21e-05
1942	6.93e-05
1954	6.48e-05
1966	9.45e-05
1978	0.0001476
1990	0.0001242
2002	7.92e-05
2014	3.87e-05
2026	3.15e-05
2038	5.13e-05
2050	4.68e-05
2062	4.05e-05
2074	4.5e-05
2086	4.5e-05
2098	1.98e-05
2110	5.04e-05
2122	3.78e-05
2134	2.79e-05
2146	5.67e-05
2158	2.61e-05
2170	3.33e-05
2182	4.77e-05
2194	2.79e-05
2206	3.51e-05
2218	7.29e-05
2230	3.24e-05
2242	2.88e-05
2254	4.95e-05
2266	3.06e-05
2278	3.15e-05
2290	4.5e-05
2302	6.84e-05
2314	5.31e-05
2326	2.88e-05
2338	3.69e-05
2350	7.56e-05
2362	5.31e-05
2374	7.83e-05
2386	5.67e-05
2398	5.22e-05
2410	6.57e-05
2422	9.09e-05
2434	4.32e-05
2446	6.48e-05
2458	7.11e-05
2470	8.28e-05
2482	5.94e-05
2494	7.38e-05
2506	0.0001008
2518	9.63e-05
2530	0.000126
2542	0.000108
2554	0.0001458
2566	0.000117
2578	0.0001386
2590	0.0001845
2602	0.0001944
2614	0.0002565
2626	0.0002322
2638	0.0002583
2650	0.0002529
2662	0.0003429
2674	0.0004104
2686	0.0005805
2698	0.0006534
2710	0.0007164
2722	0.0007101
2734	0.0007848
2746	0.0009819
2758	0.0014454
2770	0.0020484
2782	0.0030879
2794	0.0044613
2806	0.0052128
2818	0.0048177
2830	0.0033588
2842	0.0021456
2854	0.0016317
2866	0.0016335
2878	0.001827
2890	0.0021402
2902	0.0023679
2914	0.0029871
2926	0.0035856
2938	0.0031194
2950	0.001917
2962	0.0014904
2974	0.0021312
2986	0.0030636
2998	0.0025272
3010	0.0024129
3022	0.0020952
3034	0.0011871
3046	0.0011007
3058	0.0015021
3070	0.0025803
3082	0.0043506
3094	0.0033201
3106	0.00108
3118	0.0004977
3130	0.0003771
3142	0.0003006
3154	0.0002583
3166	0.0002475
3178	0.0002421
3190	0.0001746
3202	0.0002106
3214	0.0001701
3226	0.0001746
3238	0.0001413
3250	0.0001962
3262	0.0001647
3274	0.000153
3286	0.0001593
3298	0.0001719
3310	0.0001377
3322	0.000108
3334	0.0001566
3346	0.0001872
3358	0.0001152
3370	0.0001458
3382	0.0001296
3394	0.0001566
3406	5.4e-06
3418	0.000162
3430	0.0001206
3442	0.000171
3454	8.28e-05
3466	0.0001971
3478	0.0001251
3490	0.0001233
3502	0.0001296
3514	0.0001971
3526	0.0001332
3538	6.21e-05
3550	0.0001512
3562	0.0001287
3574	0.0001944
3586	8.73e-05
3598	0.0001287
3610	0.0001476
3622	0.0001098
3634	0.0001692
3646	0.0001845
3658	0.0001233
3670	0.0001755
3682	0.000153
3694	0.0001647
3706	0.0002349
3718	0.0001503
3730	0.0002349
3742	0.000189
3754	0.0001701
3766	0.000198
3778	0.0002169
3790	0.0002394
3802	0.0001791
3814	0.0001458
3826	0.0001935
3838	0.0002043
