Infrared Spectrum: Anisyl phenylacetate
Formula: C 16 H 16 O 3
CAS: 102-17-0
State: gas
Instrument: HP-GC/MS/IRD
Origin: NIST Mass Spectrometry Data Center
1/CM	ABSORBANCE
550	0.0010125
562	0.00111
574	0.00095
586	0.00041
598	1.5e-05
610	3.75e-05
622	3.75e-05
634	0.000145
646	0.0001175
658	0.0001475
670	0.000395
682	0.00114
694	0.002825
706	0.0034125
718	0.00336
730	0.0019425
742	0.00135
754	0.000835
766	0.0004175
778	0.000295
790	0.0005875
802	0.0015125
814	0.0026775
826	0.0031875
838	0.0024475
850	0.0018425
862	0.000795
874	0.00043
886	0.000325
898	0.0004075
910	0.00052
922	0.00065
934	0.001015
946	0.001155
958	0.00176
970	0.003605
982	0.005845
994	0.0056775
1006	0.004505
1018	0.003295
1030	0.00412
1042	0.0044525
1054	0.0025625
1066	0.001555
1078	0.0014
1090	0.0016625
1102	0.0029575
1114	0.0056025
1126	0.0119025
1138	0.018385
1150	0.01332
1162	0.0089425
1174	0.0095225
1186	0.00557
1198	0.005175
1210	0.00759
1222	0.01275
1234	0.02097
1246	0.025
1258	0.0169525
1270	0.0099225
1282	0.006955
1294	0.0065425
1306	0.0050125
1318	0.003895
1330	0.0034575
1342	0.0026475
1354	0.001925
1366	0.0019875
1378	0.00163
1390	0.0008125
1402	0.0006425
1414	0.0008175
1426	0.00137
1438	0.00204
1450	0.0027525
1462	0.0029675
1474	0.0024525
1486	0.002165
1498	0.0046825
1510	0.0114975
1522	0.007795
1534	0.0016125
1546	0.0007825
1558	0.00065
1570	0.0008425
1582	0.001595
1594	0.00264
1606	0.0046125
1618	0.0042
1630	0.0015175
1642	0.00068
1654	0.000515
1666	0.0004625
1678	0.00048
1690	0.0006325
1702	0.0010025
1714	0.0016525
1726	0.00292
1738	0.006415
1750	0.0153175
1762	0.01305
1774	0.00495
1786	0.00229
1798	0.0013475
1810	0.0007475
1822	0.0004775
1834	0.0003825
1846	0.000315
1858	0.000355
1870	0.00038
1882	0.0003925
1894	0.0002875
1906	0.0002275
1918	0.000205
1930	0.000255
1942	0.000335
1954	0.000345
1966	0.0002275
1978	0.000215
1990	0.0002275
2002	0.000235
2014	0.0002425
2026	0.0002425
2038	0.0002
2050	0.0002125
2062	0.0002575
2074	0.000235
2086	0.000205
2098	0.000105
2110	6.25e-05
2122	5e-05
2134	3.75e-05
2146	3.25e-05
2158	1.5e-05
2170	2.25e-05
2182	1.5e-05
2194	1.75e-05
2206	5.25e-05
2218	2.75e-05
2230	5e-05
2242	4e-05
2254	6.25e-05
2266	8e-05
2278	9.25e-05
2290	7.75e-05
2302	4.75e-05
2314	5.25e-05
2326	6e-05
2338	7.75e-05
2350	7e-05
2362	3e-05
2374	7.5e-06
2386	2.5e-06
2398	2.5e-05
2410	2.25e-05
2422	6e-05
2434	3.25e-05
2446	5.5e-05
2458	6.75e-05
2470	5.25e-05
2482	8.25e-05
2494	8e-05
2506	9.75e-05
2518	0.0001025
2530	9e-05
2542	0.000145
2554	0.00012
2566	6.5e-05
2578	4.25e-05
2590	7.25e-05
2602	5.75e-05
2614	6.5e-05
2626	7e-05
2638	6.75e-05
2650	4.5e-05
2662	5.25e-05
2674	1.75e-05
2686	6e-05
2698	4.5e-05
2710	6.5e-05
2722	5.75e-05
2734	6.5e-05
2746	9e-05
2758	0.00011
2770	0.00012
2782	0.000175
2794	0.0002225
2806	0.0003175
2818	0.00049
2830	0.00086
2842	0.001825
2854	0.0013975
2866	0.0008425
2878	0.0008825
2890	0.00123
2902	0.001625
2914	0.002065
2926	0.00239
2938	0.0031525
2950	0.0039275
2962	0.004015
2974	0.0028275
2986	0.0021175
2998	0.0024325
3010	0.00327
3022	0.0024175
3034	0.00335
3046	0.0030325
3058	0.0022025
3070	0.0031525
3082	0.002415
3094	0.00164
3106	0.00113
3118	0.00071
3130	0.0003825
3142	0.0002275
3154	0.0001775
3166	0.0001075
3178	0.00011
3190	0.0001025
3202	0.0001
3214	7.25e-05
3226	7.25e-05
3238	7.5e-05
3250	9e-05
3262	3.5e-05
3274	5.75e-05
3286	3.25e-05
3298	6.25e-05
3310	4.75e-05
3322	5.5e-05
3334	3.25e-05
3346	4.75e-05
3358	8.25e-05
3370	7.25e-05
3382	2.5e-05
3394	5.5e-05
3406	1.5e-05
3418	5.25e-05
3430	5.5e-05
3442	7.75e-05
3454	8.75e-05
3466	0.0001575
3478	0.00019
3490	0.000255
3502	0.0002
3514	0.0001125
3526	6.25e-05
3538	0.00012
3550	9.75e-05
3562	0.0001225
3574	0.000115
3586	0.0001275
3598	0.000105
3610	9.25e-05
3622	0.0001275
3634	0.000105
3646	9.25e-05
3658	8e-05
3670	0.000105
3682	0.0001025
3694	8e-05
3706	7e-05
3718	7.75e-05
3730	0.0001
3742	5e-05
3754	7.75e-05
3766	7e-05
3778	6.5e-05
3790	6.5e-05
3802	6.25e-05
3814	8.25e-05
3826	8e-05
3838	0.0001175
