Infrared Spectrum: 3,5-Di-t-butylcatechol
Formula: C 14 H 22 O 2
CAS: 1020-31-1
State: gas
Origin: EPA-IR VAPOR PHASE LIBRARY
1/CM	ABSORBANCE
549.8	0.00192
559.445	0.00235
569.09	0.00214
578.734	0.00161
588.379	0.0017
598.024	0.00176
607.669	0.00147
617.313	0.00279
626.958	0.00492
636.603	0.00614
646.248	0.00507
655.893	0.0047
665.537	0.00255
675.182	0.00163
684.827	0.00136
694.472	0.00145
704.116	0.00163
713.761	0.00275
723.406	0.00618
733.051	0.00451
742.695	0.00443
752.34	0.00381
761.985	0.00211
771.63	0.00179
781.275	0.00243
790.919	0.00586
800.564	0.00752
810.209	0.00575
819.854	0.00676
829.498	0.00458
839.143	0.00597
848.788	0.00611
858.433	0.00644
868.078	0.00615
877.722	0.00346
887.367	0.00257
897.012	0.00363
906.657	0.00603
916.301	0.00501
925.946	0.00414
935.591	0.00608
945.236	0.01458
954.88	0.02664
964.525	0.02104
974.17	0.00939
983.815	0.00432
993.46	0.00288
1003.1	0.00234
1012.75	0.0024
1022.39	0.00326
1032.04	0.00256
1041.68	0.00237
1051.33	0.00228
1060.97	0.00212
1070.62	0.00278
1080.26	0.00307
1089.91	0.00453
1099.55	0.00862
1109.2	0.01255
1118.84	0.00962
1128.49	0.00998
1138.13	0.01774
1147.78	0.02772
1157.42	0.02478
1167.07	0.01963
1176.71	0.02014
1186.36	0.02052
1196	0.02401
1205.64	0.02575
1215.29	0.03326
1224.93	0.0521
1234.58	0.0448
1244.22	0.03128
1253.87	0.03071
1263.51	0.02201
1273.16	0.02209
1282.8	0.03306
1292.45	0.04475
1302.09	0.05076
1311.74	0.03346
1321.38	0.01432
1331.03	0.00994
1340.67	0.01105
1350.32	0.01608
1359.96	0.02431
1369.61	0.0313
1379.25	0.01864
1388.9	0.01315
1398.54	0.01675
1408.18	0.02176
1417.83	0.03247
1427.47	0.02589
1437.12	0.01848
1446.76	0.01659
1456.41	0.01783
1466.05	0.01941
1475.7	0.0219
1485.34	0.02942
1494.99	0.02403
1504.63	0.01674
1514.28	0.01238
1523.92	0.00846
1533.57	0.00509
1543.21	0.00322
1552.86	0.00297
1562.5	0.00343
1572.15	0.0053
1581.79	0.00963
1591.44	0.01601
1601.08	0.01762
1610.73	0.01093
1620.37	0.00561
1630.01	0.00288
1639.66	0.00162
1649.3	0.00121
1658.95	0.00112
1668.59	0.00145
1678.24	0.00178
1687.88	0.00143
1697.53	0.00118
1707.17	0.00115
1716.82	0.00105
1726.46	0.00124
1736.11	0.00123
1745.75	0.0009139
1755.4	0.0006764
1765.04	0.0006631
1774.69	0.0005522
1784.33	0.000498
1793.98	0.0004461
1803.62	0.0004399
1813.27	0.0003799
1822.91	0.000434
1832.55	0.000473
1842.2	0.0003551
1851.84	0.0003686
1861.49	0.0002982
1871.13	0.0003817
1880.78	0.0003475
1890.42	0.0002663
1900.07	0.000355
1909.71	0.0003748
1919.36	0.0003518
1929	0.0003946
1938.65	0.000446
1948.29	0.0005054
1957.94	0.0003954
1967.58	0.0003371
1977.23	0.0004084
1986.87	0.0003234
1996.52	0.0002966
2006.16	0.0002452
2015.81	0.0002803
2025.45	0.0003397
2035.1	0.0003939
2044.74	0.0004095
2054.38	0.0004114
2064.03	0.0002874
2073.67	0.0002271
2083.32	0.000265
2092.96	0.0002105
2102.61	0.0002985
2112.25	0.0002515
2121.9	0.000216
2131.54	0.0002614
2141.19	0.0002412
2150.83	0.0002546
2160.48	0.0003851
2170.12	0.0003477
2179.77	0.0002901
2189.41	0.0003028
2199.06	0.0003554
2208.7	0.0003421
2218.35	0.0003531
2227.99	0.0002547
2237.64	0.0002928
2247.28	0.0003397
2256.92	0.0002719
2266.57	0.0003947
2276.21	0.0004328
2285.86	0.000452
2295.5	0.0004424
2305.15	0.0004447
2314.79	0.0002577
2324.44	0.0003647
2334.08	0.0003809
2343.73	0.0003676
2353.37	0.0004027
2363.02	0.0003899
2372.66	0.0005419
2382.31	0.0005865
2391.95	0.000684
2401.6	0.0005463
2411.24	0.0005084
2420.89	0.0005589
2430.53	0.0005276
2440.18	0.0005352
2449.82	0.0005667
2459.47	0.0005376
2469.11	0.0004092
2478.75	0.000456
2488.4	0.0004898
2498.04	0.0005134
2507.69	0.0004777
2517.33	0.0004805
2526.98	0.0005334
2536.62	0.0006424
2546.27	0.0006096
2555.91	0.000577
2565.56	0.0007377
2575.2	0.0004311
2584.85	0.0004815
2594.49	0.000508
2604.14	0.0003548
2613.78	0.0003128
2623.43	0.0003655
2633.07	0.000464
2642.72	0.0005538
2652.36	0.0006501
2662.01	0.0006354
2671.65	0.0007249
2681.29	0.0006978
2690.94	0.000691
2700.58	0.0008905
2710.23	0.0009929
2719.87	0.00126
2729.52	0.00134
2739.16	0.00108
2748.81	0.00109
2758.45	0.00113
2768.1	0.0009445
2777.74	0.00111
2787.39	0.00152
2797.03	0.00149
2806.68	0.00162
2816.32	0.00213
2825.97	0.00251
2835.61	0.00315
2845.26	0.00435
2854.9	0.00767
2864.55	0.01532
2874.19	0.02559
2883.84	0.02835
2893.48	0.0258
2903.12	0.02881
2912.77	0.03604
2922.41	0.03605
2932.06	0.03484
2941.7	0.03999
2951.35	0.06379
2960.99	0.10881
2970.64	0.11343
2980.28	0.05275
2989.93	0.02086
2999.57	0.01268
3009.22	0.00865
3018.86	0.00463
3028.51	0.00368
3038.15	0.00365
3047.8	0.00363
3057.44	0.00306
3067.09	0.00264
3076.73	0.0024
3086.38	0.00237
3096.02	0.00232
3105.67	0.00191
3115.31	0.00162
3124.95	0.00146
3134.6	0.00121
3144.24	0.00114
3153.89	0.0009188
3163.53	0.00109
3173.18	0.00101
3182.82	0.00137
3192.47	0.00121
3202.11	0.00126
3211.76	0.00103
3221.4	0.0008935
3231.05	0.0011
3240.69	0.0009505
3250.34	0.0009275
3259.98	0.000893
3269.63	0.0006905
3279.27	0.0006751
3288.92	0.0004684
3298.56	0.0006586
3308.21	0.0006039
3317.85	0.0003019
3327.49	0.0004654
3337.14	9.416e-05
3346.78	0.0002864
3356.43	0.0002701
3366.07	0.0003195
3375.72	0.0003596
3385.36	0.0005051
3395.01	0.0004724
3404.65	0.0004594
3414.3	0.0003843
3423.94	0.0003373
3433.59	0.0004524
3443.23	0.0003966
3452.88	0.0005899
3462.52	0.0009452
3472.17	0.00111
3481.81	0.0008696
3491.46	0.0009449
3501.1	0.0007976
3510.75	0.0006665
3520.39	0.0009023
3530.04	0.0009638
3539.68	0.00152
3549.32	0.00231
3558.97	0.006
3568.61	0.01648
3578.26	0.0314
3587.9	0.03874
3597.55	0.0182
3607.19	0.00513
3616.84	0.00272
3626.48	0.00289
3636.13	0.00458
3645.77	0.00837
3655.42	0.01554
3665.06	0.02101
3674.71	0.01084
3684.35	0.00416
3694	0.00217
3703.64	0.00136
3713.29	0.00104
3722.93	0.0007255
3732.58	0.0005822
3742.22	0.0005434
3751.86	0.0005374
3761.51	0.0004869
3771.15	0.0004373
3780.8	0.0005998
3790.44	0.0003903
3800.09	0.000675
3809.73	0.0004225
3819.38	0.0004022
3829.02	0.000559
3838.67	0.0003961
3848.31	0.0004155
3857.96	0.0004959
3867.6	0.0004066
3877.25	0.0006784
3886.89	0.0005476
3896.54	0.0004733
3906.18	0.0004021
3915.83	0.0003354
3925.47	0.0004408
3935.12	0.0005494
3944.76	0.0003291
3954.41	0.0002089
3964.05	0.0004094
3973.69	0.0002194
3983.34	0.0002801
3992.98	0.0002195
