Infrared Spectrum: 4-Allyl-1,6-heptadiene-4-ol
Formula: C 10 H 16 O
CAS: 10202-75-2
State: gas
Instrument: HP-GC/MS/IRD
Origin: NIST Mass Spectrometry Data Center
1/CM	ABSORBANCE
550	0.000506
562	0.000216
574	0.000414
586	0.000432
598	0.000512
610	0.000538
622	0.001096
634	0.00182
646	0.001808
658	0.001328
670	0.001202
682	0.001432
694	0.001396
706	0.0008
718	0.000364
730	0.000164
742	8.4e-05
754	0.000168
766	0.000172
778	0.000654
790	0.001086
802	0.000936
814	0.000474
826	0.0005
838	0.000898
850	0.001668
862	0.002666
874	0.003848
886	0.003636
898	0.005102
910	0.014546
922	0.019098
934	0.00797
946	0.003608
958	0.002806
970	0.003234
982	0.006286
994	0.011588
1006	0.010112
1018	0.007386
1030	0.007192
1042	0.006074
1054	0.004464
1066	0.003504
1078	0.00314
1090	0.002872
1102	0.002726
1114	0.002658
1126	0.002878
1138	0.003218
1150	0.003312
1162	0.002576
1174	0.001804
1186	0.001556
1198	0.001816
1210	0.002286
1222	0.00263
1234	0.002798
1246	0.002936
1258	0.003
1270	0.00293
1282	0.00277
1294	0.002754
1306	0.002828
1318	0.00317
1330	0.00338
1342	0.003532
1354	0.003948
1366	0.003662
1378	0.002578
1390	0.001834
1402	0.001866
1414	0.002752
1426	0.004206
1438	0.00621
1450	0.004516
1462	0.00149
1474	0.00068
1486	0.000512
1498	0.000406
1510	0.000356
1522	0.00024
1534	0.00022
1546	0.000216
1558	0.000282
1570	0.000284
1582	0.000324
1594	0.000432
1606	0.00071
1618	0.001574
1630	0.004326
1642	0.005778
1654	0.002044
1666	0.000514
1678	0.000274
1690	0.000166
1702	0.00013
1714	5.8e-05
1726	3.2e-05
1738	2.8e-05
1750	6e-06
1762	2.4e-05
1774	9e-05
1786	0.000146
1798	0.000154
1810	0.000272
1822	0.000768
1834	0.001766
1846	0.001746
1858	0.000796
1870	0.000278
1882	0.00016
1894	0.000132
1906	9.8e-05
1918	0.000102
1930	3.2e-05
1942	8e-06
1954	7.2e-05
1966	0.000118
1978	0.000176
1990	0.000206
2002	0.000116
2014	9.2e-05
2026	5.2e-05
2038	4.2e-05
2050	3.8e-05
2062	5.6e-05
2074	8e-05
2086	8.6e-05
2098	8.2e-05
2110	9.2e-05
2122	6.8e-05
2134	5.6e-05
2146	0.000118
2158	0.000114
2170	7.2e-05
2182	0.000102
2194	8e-05
2206	7.4e-05
2218	7.6e-05
2230	8.8e-05
2242	0.0001
2254	0.0001
2266	7.6e-05
2278	8e-05
2290	8.8e-05
2302	7.8e-05
2314	8.6e-05
2326	9e-05
2338	0.000118
2350	0.000102
2362	0.000106
2374	0.000104
2386	9.2e-05
2398	9e-05
2410	0.000108
2422	0.000104
2434	9.4e-05
2446	8.2e-05
2458	7.8e-05
2470	9.6e-05
2482	6e-05
2494	6e-05
2506	0.000108
2518	9e-05
2530	9.6e-05
2542	0.000148
2554	0.000174
2566	0.000174
2578	0.000174
2590	0.000148
2602	0.00015
2614	0.0001
2626	0.000104
2638	8.4e-05
2650	0.000106
2662	9.6e-05
2674	9e-05
2686	0.00012
2698	0.000152
2710	0.000164
2722	0.000128
2734	0.000176
2746	0.000242
2758	0.00022
2770	0.000192
2782	0.000234
2794	0.000246
2806	0.000378
2818	0.000612
2830	0.00119
2842	0.001812
2854	0.002102
2866	0.002036
2878	0.001954
2890	0.002592
2902	0.004928
2914	0.007974
2926	0.009222
2938	0.009358
2950	0.006112
2962	0.003286
2974	0.004458
2986	0.006886
2998	0.004908
3010	0.004434
3022	0.003962
3034	0.00222
3046	0.00201
3058	0.002892
3070	0.005722
3082	0.011688
3094	0.007382
3106	0.00143
3118	0.00069
3130	0.000552
3142	0.000494
3154	0.000416
3166	0.000256
3178	0.000194
3190	0.000218
3202	0.000128
3214	0.000114
3226	9e-05
3238	0.000168
3250	0.000154
3262	0.000174
3274	0.000142
3286	0.000144
3298	0.000148
3310	0.000114
3322	9.2e-05
3334	8.6e-05
3346	0.000116
3358	0.000142
3370	6.2e-05
3382	8.6e-05
3394	9.8e-05
3406	0.00011
3418	8e-05
3430	6.2e-05
3442	9.4e-05
3454	0.000122
3466	0.00014
3478	7.4e-05
3490	0.000158
3502	8.6e-05
3514	7e-05
3526	7.8e-05
3538	0.000182
3550	0.000204
3562	0.000314
3574	0.000432
3586	0.00091
3598	0.002092
3610	0.0025
3622	0.00187
3634	0.001348
3646	0.000774
3658	0.000296
3670	0.000228
3682	0.000148
3694	9.4e-05
3706	7.8e-05
3718	4.4e-05
3730	8.4e-05
3742	2e-06
3754	6.4e-05
3766	0
3778	2e-06
3790	4e-06
3802	3.4e-05
3814	3.2e-05
3826	0.000114
3838	3.2e-05
