Infrared Spectrum: 2-Dodecanol
Formula: C 12 H 26 O
CAS: 10203-28-8
State: gas
Instrument: HP-GC/MS/IRD
Origin: NIST Mass Spectrometry Data Center
1/CM	ABSORBANCE
550	0.0001475
562	0
574	5.9e-06
586	0.0001357
598	0.0001888
610	0.0001534
622	0.0001357
634	0.0002124
646	0.0002006
658	0.0001711
670	0.0002478
682	0.0002832
694	0.0004248
706	0.0006667
718	0.0009027
730	0.0008496
742	0.0006726
754	0.0006195
766	0.0005546
778	0.000531
790	0.0005841
802	0.0005605
814	0.0006077
826	0.0006962
838	0.0008968
850	0.0009145
862	0.0008732
874	0.0008909
886	0.0009853
898	0.0011446
910	0.0014809
922	0.0018644
934	0.0021712
946	0.0020237
958	0.0017346
970	0.0018113
982	0.0018231
994	0.001888
1006	0.002242
1018	0.0026727
1030	0.002832
1042	0.0028792
1054	0.0029559
1066	0.003186
1078	0.0035223
1090	0.0038527
1102	0.003894
1114	0.0035341
1126	0.0034633
1138	0.0031211
1150	0.0022833
1162	0.001888
1174	0.001711
1186	0.0016107
1198	0.0016933
1210	0.0018821
1222	0.0021948
1234	0.0025724
1246	0.0028438
1258	0.002478
1270	0.0021063
1282	0.0018408
1294	0.0018054
1306	0.0018644
1318	0.0018998
1330	0.0020709
1342	0.0028438
1354	0.0034515
1366	0.0040297
1378	0.0048911
1390	0.0041418
1402	0.0026727
1414	0.0018939
1426	0.00177
1438	0.0025783
1450	0.0039943
1462	0.005074
1474	0.0034515
1486	0.0015458
1498	0.0009145
1510	0.0009027
1522	0.0006431
1534	0.0004307
1546	0.0004307
1558	0.0004838
1570	0.0001888
1582	0.0001298
1594	0.0001298
1606	0.0001121
1618	0.000177
1630	0.0001416
1642	0.0001829
1654	0.000354
1666	0.0002124
1678	0.000236
1690	0.0002006
1702	0.0003304
1714	0.0003127
1726	0.0001829
1738	0.0002891
1750	0.0003245
1762	0.000177
1774	0.000177
1786	0.0001475
1798	0.0001416
1810	9.44e-05
1822	0.0001003
1834	7.08e-05
1846	0.0001652
1858	6.49e-05
1870	0.0001062
1882	4.72e-05
1894	7.08e-05
1906	1.18e-05
1918	7.67e-05
1930	2.36e-05
1942	4.13e-05
1954	1.77e-05
1966	5.9e-06
1978	1.18e-05
1990	4.72e-05
2002	1.18e-05
2014	1.77e-05
2026	4.72e-05
2038	2.95e-05
2050	3.54e-05
2062	3.54e-05
2074	2.36e-05
2086	0
2098	1.18e-05
2110	1.77e-05
2122	1.18e-05
2134	1.77e-05
2146	1.18e-05
2158	3.54e-05
2170	3.54e-05
2182	1.77e-05
2194	2.36e-05
2206	2.95e-05
2218	2.36e-05
2230	1.18e-05
2242	2.36e-05
2254	2.95e-05
2266	2.95e-05
2278	1.77e-05
2290	1.77e-05
2302	2.36e-05
2314	4.72e-05
2326	5.31e-05
2338	2.95e-05
2350	4.72e-05
2362	1.77e-05
2374	5.9e-05
2386	6.49e-05
2398	2.36e-05
2410	4.72e-05
2422	3.54e-05
2434	4.72e-05
2446	1.77e-05
2458	1.77e-05
2470	4.13e-05
2482	4.13e-05
2494	2.95e-05
2506	5.31e-05
2518	7.08e-05
2530	9.44e-05
2542	0.0001298
2554	0.0001357
2566	0.000177
2578	0.0002006
2590	0.000236
2602	0.0002596
2614	0.0003127
2626	0.0003717
2638	0.0004425
2650	0.000531
2662	0.0005841
2674	0.0006254
2686	0.0006372
2698	0.0005782
2710	0.00059
2722	0.0006195
2734	0.0006962
2746	0.0007788
2758	0.0008319
2770	0.0009263
2782	0.0011387
2794	0.0014573
2806	0.0019234
2818	0.0026255
2830	0.003835
2842	0.0067791
2854	0.0151748
2866	0.0220542
2878	0.0179478
2890	0.0155937
2902	0.0185201
2914	0.0291932
2926	0.0512356
2938	0.0553184
2950	0.0321314
2962	0.0236177
2974	0.0205025
2986	0.0109799
2998	0.0050268
3010	0.0028497
3022	0.0019234
3034	0.0014042
3046	0.0010384
3058	0.0008496
3070	0.0006962
3082	0.0005841
3094	0.0005074
3106	0.000472
3118	0.0004071
3130	0.0003481
3142	0.0003186
3154	0.0002832
3166	0.0002537
3178	0.000236
3190	0.0002065
3202	0.0002242
3214	0.0001711
3226	0.000118
3238	8.85e-05
3250	2.95e-05
3262	8.26e-05
3274	4.13e-05
3286	2.95e-05
3298	2.95e-05
3310	2.95e-05
3322	6.49e-05
3334	2.36e-05
3346	2.36e-05
3358	2.95e-05
3370	6.49e-05
3382	6.49e-05
3394	9.44e-05
3406	6.49e-05
3418	7.08e-05
3430	9.44e-05
3442	9.44e-05
3454	6.49e-05
3466	7.67e-05
3478	5.31e-05
3490	5.31e-05
3502	8.85e-05
3514	4.13e-05
3526	7.67e-05
3538	4.13e-05
3550	0.0001062
3562	0.0001062
3574	5.9e-05
3586	0.0001888
3598	0.000118
3610	0.000354
3622	0.0004543
3634	0.0007965
3646	0.0014573
3658	0.0016284
3670	0.0009027
3682	0.0003658
3694	0.0001652
3706	0.0001121
3718	9.44e-05
3730	0.0001062
3742	0.0002006
3754	0.0001416
3766	3.54e-05
3778	1.18e-05
3790	1.77e-05
3802	0.0001298
3814	7.08e-05
3826	6.49e-05
3838	0.0002301
