Infrared Spectrum: 2,6-Difluorocinnamic acid
Formula: C 9 H 6 F 2 O 2
CAS: 102082-89-3
State: gas
Origin: EPA-IR VAPOR PHASE LIBRARY
1/CM	ABSORBANCE
549.8	0.010245
559.445	0.011475
569.09	0.010775
578.734	0.009565
588.379	0.005945
598.024	0.003745
607.669	0.004785
617.313	0.007715
626.958	0.010085
636.603	0.006355
646.248	0.002835
655.893	0.001545
665.537	0.0011088
675.182	0.0014999
684.827	0.0010265
694.472	0.001865
704.116	0.002255
713.761	0.002995
723.406	0.005905
733.051	0.011125
742.695	0.013425
752.34	0.009505
761.985	0.004425
771.63	0.004755
781.275	0.011055
790.919	0.010245
800.564	0.003995
810.209	0.001385
819.854	0.000671
829.498	0.0008171
839.143	0.001785
848.788	0.001735
858.433	0.002565
868.078	0.003805
877.722	0.003625
887.367	0.002925
897.012	0.002695
906.657	0.002045
916.301	0.002585
925.946	0.003185
935.591	0.002985
945.236	0.002615
954.88	0.002965
964.525	0.003515
974.17	0.007355
983.815	0.011275
993.46	0.013255
1003.1	0.023215
1012.75	0.033765
1022.39	0.024715
1032.04	0.009275
1041.68	0.004245
1051.33	0.004065
1060.97	0.003255
1070.62	0.004315
1080.26	0.003225
1089.91	0.008055
1099.55	0.012405
1109.2	0.030455
1118.84	0.066915
1128.49	0.051385
1138.13	0.024185
1147.78	0.023765
1157.42	0.026545
1167.07	0.018375
1176.71	0.008605
1186.36	0.009455
1196	0.012205
1205.64	0.012365
1215.29	0.007515
1224.93	0.010035
1234.58	0.018295
1244.22	0.016595
1253.87	0.008325
1263.51	0.009815
1273.16	0.014565
1282.8	0.011435
1292.45	0.008555
1302.09	0.009205
1311.74	0.009285
1321.38	0.009645
1331.03	0.010665
1340.67	0.012375
1350.32	0.017465
1359.96	0.022615
1369.61	0.014785
1379.25	0.006895
1388.9	0.004525
1398.54	0.002615
1408.18	0.001935
1417.83	0.002245
1427.47	0.002135
1437.12	0.003195
1446.76	0.005945
1456.41	0.017465
1466.05	0.033295
1475.7	0.028835
1485.34	0.011405
1494.99	0.003595
1504.63	0.002465
1514.28	0.001885
1523.92	0.002205
1533.57	0.002985
1543.21	0.004475
1552.86	0.006125
1562.5	0.008245
1572.15	0.009215
1581.79	0.011365
1591.44	0.011245
1601.08	0.006925
1610.73	0.010865
1620.37	0.017525
1630.01	0.017095
1639.66	0.025105
1649.3	0.017165
1658.95	0.005105
1668.59	0.003205
1678.24	0.002825
1687.88	0.002885
1697.53	0.003455
1707.17	0.004385
1716.82	0.006805
1726.46	0.011825
1736.11	0.023065
1745.75	0.046695
1755.4	0.072385
1765.04	0.058045
1774.69	0.030125
1784.33	0.020455
1793.98	0.012415
1803.62	0.005785
1813.27	0.003605
1822.91	0.003095
1832.55	0.002665
1842.2	0.002395
1851.84	0.002485
1861.49	0.002035
1871.13	0.0013522
1880.78	0.0011139
1890.42	0.0009991
1900.07	0.0013588
1909.71	0.002275
1919.36	0.001815
1929	0.0009693
1938.65	0.0008376
1948.29	0.0009649
1957.94	0.0009529
1967.58	0.0010936
1977.23	0.0010946
1986.87	0.0008374
1996.52	0.0007208
2006.16	0.0009656
2015.81	0.0008699
2025.45	0.0007981
2035.1	0.0009297
2044.74	0.0011506
2054.38	0.0010374
2064.03	0.0008694
2073.67	0.00059469
2083.32	0.0009234
2092.96	0.0007453
2102.61	0.0008035
2112.25	0.0008459
2121.9	0.0007558
2131.54	0.00056675
2141.19	0.0006713
2150.83	0.0007722
2160.48	0.0008451
2170.12	0.0007596
2179.77	0.0007099
2189.41	0.0008665
2199.06	0.0007685
2208.7	0.0009641
2218.35	0.0008138
2227.99	0.0009174
2237.64	0.0008254
2247.28	0.0007105
2256.92	0.0007883
2266.57	0.0008842
2276.21	0.000987
2285.86	0.0010474
2295.5	0.001264
2305.15	0.0010395
2314.79	0.000974
2324.44	0.0006884
2334.08	0.0009568
2343.73	0.0006904
2353.37	0.000528306
2363.02	0.000792
2372.66	0.00055022
2382.31	0.0005049
2391.95	0.000530552
2401.6	0.0006602
2411.24	0.0005975
2420.89	0.00054506
2430.53	0.0007263
2440.18	0.0007639
2449.82	0.0008331
2459.47	0.0008191
2469.11	0.0007876
2478.75	0.0010936
2488.4	0.0010716
2498.04	0.0010218
2507.69	0.0009074
2517.33	0.0009974
2526.98	0.0008557
2536.62	0.000827
2546.27	0.00059209
2555.91	0.0009308
2565.56	0.0006273
2575.2	0.0008321
2584.85	0.0007613
2594.49	0.0006412
2604.14	0.0008282
2613.78	0.0006634
2623.43	0.0006671
2633.07	0.0009005
2642.72	0.0009442
2652.36	0.0008455
2662.01	0.0004921
2671.65	0.0008357
2681.29	0.0008701
2690.94	0.0005912
2700.58	0.0011903
2710.23	0.0007737
2719.87	0.0008714
2729.52	0.00061702
2739.16	0.0008026
2748.81	0.0009107
2758.45	0.0008935
2768.1	0.0006347
2777.74	0.0007559
2787.39	0.0006327
2797.03	0.00077
2806.68	0.0010049
2816.32	0.0006343
2825.97	0.00058107
2835.61	0.0009062
2845.26	0.00053759
2854.9	0.000484
2864.55	0.0007043
2874.19	0.0008067
2883.84	0.000738
2893.48	0.0007756
2903.12	0.0009592
2912.77	0.00060272
2922.41	0.00054417
2932.06	0.0006975
2941.7	0.0011506
2951.35	0.0006551
2960.99	0.00055202
2970.64	0.0007985
2980.28	0.0010611
2989.93	0.0009892
2999.57	0.0008943
3009.22	0.0008317
3018.86	0.0012523
3028.51	0.0009222
3038.15	0.0010276
3047.8	0.0009189
3057.44	0.0009912
3067.09	0.0014661
3076.73	0.0014163
3086.38	0.002035
3096.02	0.0013411
3105.67	0.0011547
3115.31	0.0010621
3124.95	0.00056704
3134.6	0.00033
3144.24	0.0008739
3153.89	0.000406
3163.53	0.0005013
3173.18	0.0009441
3182.82	0.00025
3192.47	0.0013257
3202.11	0.0011395
3211.76	0.00059278
3221.4	0.000951
3231.05	0.0009203
3240.69	0.0006526
3250.34	0.00057724
3259.98	0.000178
3269.63	0.00053715
3279.27	0.0009632
3288.92	0.000394
3298.56	0.0006504
3308.21	0.0008234
3317.85	0.00054412
3327.49	0.0009202
3337.14	0.0006489
3346.78	0.0007876
3356.43	0.0012667
3366.07	0.00056503
3375.72	0.0006662
3385.36	0.0004307
3395.01	0.0004837
3404.65	0.0006877
3414.3	0.00054763
3423.94	0.0009936
3433.59	0.0009401
3443.23	0.000919
3452.88	0.0009999
3462.52	0.0006683
3472.17	0.0007458
3481.81	0.0011625
3491.46	0.0010998
3501.1	0.0011046
3510.75	0.0012751
3520.39	0.0009249
3530.04	0.0010186
3539.68	0.001379
3549.32	0.0013281
3558.97	0.001885
3568.61	0.005985
3578.26	0.028785
3587.9	0.027315
3597.55	0.005755
3607.19	0.001575
3616.84	0.0008689
3626.48	0.0008078
3636.13	0.0012633
3645.77	0.0007673
3655.42	0.0010823
3665.06	0.0007585
3674.71	0.000362
3684.35	0.00057706
3694	0.00061977
3703.64	0.000366
3713.29	0.0007139
3722.93	0.0008332
3732.58	0.0009054
3742.22	0
3751.86	0.0009356
3761.51	0.000876
3771.15	0.0009494
3780.8	0.000416
3790.44	0.0006436
3800.09	0.0011033
3809.73	0.0006443
3819.38	0.000384
3829.02	0.0004848
3838.67	0.000259
3848.31	0.0007557
3857.96	0.0007071
3867.6	0.000258
3877.25	0.000974
3886.89	0.0006624
3896.54	0.0007065
3906.18	0.0007559
3915.83	0.0007889
3925.47	0.0007652
3935.12	0.0004957
3944.76	0.000266
3954.41	0.0006968
3964.05	0.0006508
3973.69	0.000403
3983.34	0.00055735
3992.98	0.00057858
