Infrared Spectrum: 4-AMINO-6-METHYL-1,3-BENZENEDISULFONAMIDE
Formula: C7 H11 N3 O4 S2
CAS: 1020-33-3
State: SOLID (NUJOL MULL)
Class: COBLENTZ
Instrument: PERKIN-ELMER
Sampling: TRANSMISSION
Resolution: 4
Origin: ABBOTT LABORATORIES - WASHBURN
MICROMETERS	TRANSMITTANCE
2.022	0.629
2.05616	0.634
2.09031	0.6341
2.12447	0.643
2.15862	0.6512
2.19278	0.6621
2.22693	0.668
2.26109	0.674
2.29524	0.6769
2.3294	0.674
2.36355	0.6752
2.39771	0.6821
2.43186	0.686
2.46602	0.691
2.50017	0.694
2.53433	0.703
2.56848	0.708
2.60264	0.7112
2.63679	0.7249
2.67095	0.727
2.7051	0.732
2.73926	0.74
2.77341	0.756
2.80757	0.7511
2.84172	0.759
2.87588	0.7542
2.91003	0.692
2.94419	0.6631
2.97834	0.3604
3.0125	0.3037
3.04665	0.387
3.08081	0.3098
3.11496	0.4608
3.14912	0.5667
3.18327	0.6022
3.21743	0.612
3.25158	0.6313
3.28574	0.6461
3.31989	0.6321
3.35405	0.4526
3.3882	0.1843
3.42236	0.1079
3.45651	0.0944
3.49067	0.1112
3.52482	0.1497
3.55898	0.6135
3.59313	0.7162
3.62729	0.749
3.66144	0.7591
3.6956	0.7701
3.72975	0.7729
3.76391	0.773
3.79806	0.778
3.83222	0.78
3.86637	0.782
3.90053	0.7951
3.93468	0.8072
3.96884	0.8162
4.00299	0.821
4.03715	0.823
4.0713	0.8211
4.10546	0.826
4.13961	0.826
4.17377	0.8248
4.20792	0.8249
4.24208	0.819
4.27623	0.8249
4.31039	0.83
4.34454	0.8332
4.3787	0.831
4.41285	0.833
4.44701	0.833
4.48116	0.838
4.51532	0.838
4.54947	0.8379
4.58363	0.8352
4.61779	0.84
4.65194	0.8379
4.6861	0.843
4.72025	0.84
4.75441	0.84
4.78856	0.8401
4.82272	0.8421
4.85687	0.847
4.89103	0.852
4.92518	0.852
4.95934	0.854
4.99349	0.8538
5.02765	0.8539
5.0618	0.8568
5.09596	0.8575
5.13011	0.859
5.16427	0.861
5.19842	0.8631
5.23258	0.8681
5.26673	0.866
5.30089	0.864
5.33504	0.866
5.3692	0.868
5.40335	0.867
5.43751	0.8708
5.47166	0.867
5.50582	0.862
5.53997	0.8659
5.57413	0.8728
5.60828	0.8727
5.64244	0.871
5.67659	0.873
5.71075	0.873
5.7449	0.871
5.77906	0.8726
5.81321	0.862
5.84737	0.8659
5.88152	0.861
5.91568	0.8543
5.94983	0.8487
5.98399	0.833
6.01814	0.8072
6.0523	0.7493
6.08645	0.6073
6.12061	0.4101
6.15476	0.466
6.18892	0.5739
6.22307	0.5105
6.25723	0.5194
6.29138	0.644
6.32554	0.655
6.35969	0.5724
6.39385	0.5055
6.428	0.5265
6.46216	0.4986
6.49631	0.4808
6.53047	0.5404
6.56462	0.6326
6.59878	0.6909
6.63293	0.7226
6.66709	0.7458
6.70124	0.7384
6.7354	0.6245
6.76955	0.5315
6.80371	0.4975
6.83786	0.3316
6.87202	0.2966
6.90617	0.3138
6.94033	0.3852
6.97448	0.5292
7.00864	0.6588
7.04279	0.7075
7.07695	0.6956
7.1111	0.6423
7.14526	0.7088
7.17942	0.7345
7.21357	0.68
7.24773	0.5562
7.28188	0.4553
7.31604	0.5656
7.35019	0.6003
7.38435	0.6501
7.4185	0.6459
7.45266	0.5674
7.48681	0.3784
7.52097	0.3254
7.55512	0.4335
7.58928	0.4203
7.62343	0.3543
7.65759	0.3483
7.69174	0.2751
7.7259	0.1858
7.76005	0.1513
7.79421	0.1791
7.82836	0.2432
7.86252	0.3531
7.89667	0.4616
7.93083	0.536
7.96498	0.5951
7.99914	0.6332
8.03329	0.6638
8.06745	0.6836
8.1016	0.6969
8.13576	0.7106
8.16991	0.7235
8.20407	0.7359
8.23822	0.7428
8.27238	0.751
8.30653	0.7533
8.34069	0.7539
8.37484	0.7388
8.409	0.7031
8.44315	0.7335
8.47731	0.7353
8.51146	0.6956
8.54562	0.6184
8.57977	0.4125
8.61393	0.2389
8.64808	0.232
8.68224	0.1366
8.71639	0.0986
8.75055	0.2261
8.7847	0.3432
8.81886	0.415
8.85301	0.3507
8.88717	0.2847
8.92132	0.4263
8.95548	0.4873
8.98963	0.5069
9.02379	0.5385
9.05794	0.5861
9.0921	0.6191
9.12625	0.6461
9.16041	0.6555
9.19456	0.655
9.22872	0.6492
9.26287	0.6311
9.29703	0.6167
9.33118	0.6201
9.36534	0.632
9.39949	0.6479
9.43365	0.6648
9.4678	0.6817
9.50196	0.6918
9.53611	0.7025
9.57027	0.7099
9.60442	0.7211
9.63858	0.729
9.67273	0.7237
9.70689	0.7011
9.74105	0.6903
9.7752	0.6409
9.80936	0.581
9.84351	0.6221
9.87767	0.6819
9.91182	0.7057
9.94598	0.708
9.98013	0.6964
10.0143	0.7022
10.0484	0.7171
10.0826	0.7492
10.1168	0.7655
10.1509	0.7704
10.1851	0.7807
10.2192	0.7793
10.2534	0.777
10.2875	0.777
10.3217	0.777
10.3558	0.782
10.39	0.789
10.4241	0.789
10.4583	0.7873
10.4925	0.7874
10.5266	0.794
10.5608	0.792
10.5949	0.787
10.6291	0.79
10.6632	0.783
10.6974	0.782
10.7315	0.7694
10.7657	0.7578
10.7999	0.7385
10.834	0.6988
10.8682	0.6418
10.9023	0.5849
10.9365	0.5396
10.9706	0.5232
11.0048	0.4783
11.0389	0.4086
11.0731	0.4405
11.1072	0.485
11.1414	0.5378
11.1756	0.5956
11.2097	0.6241
11.2439	0.6554
11.278	0.6841
11.3122	0.6981
11.3463	0.71
11.3805	0.7219
11.4146	0.7314
11.4488	0.7375
11.483	0.7347
11.5171	0.722
11.5513	0.6897
11.5854	0.5942
11.6196	0.4622
11.6537	0.5204
11.6879	0.6582
11.722	0.7104
11.7562	0.7423
11.7903	0.7542
11.8245	0.7679
11.8587	0.765
11.8928	0.7697
11.927	0.7747
11.9611	0.7811
11.9953	0.7787
12.0294	0.7811
12.0636	0.782
12.0977	0.787
12.1319	0.7738
12.1661	0.775
12.2002	0.7815
12.2344	0.777
12.2685	0.777
12.3027	0.775
12.3368	0.7662
12.371	0.768
12.4051	0.766
12.4393	0.7634
12.4735	0.759
12.5076	0.7524
12.5418	0.7451
12.5759	0.7448
12.6101	0.7346
12.6442	0.7272
12.6784	0.7292
12.7125	0.7198
12.7467	0.704
12.7808	0.696
12.815	0.6861
12.8492	0.6791
12.8833	0.6653
12.9175	0.6534
12.9516	0.6351
12.9858	0.6229
13.0199	0.5956
13.0541	0.5932
13.0882	0.5708
13.1224	0.5526
13.1566	0.5371
13.1907	0.5138
13.2249	0.4929
13.259	0.4759
13.2932	0.4573
13.3273	0.4403
13.3615	0.4272
13.3956	0.418
13.4298	0.4407
13.4639	0.4791
13.4981	0.5355
13.5323	0.561
13.5664	0.5624
13.6006	0.5436
13.6347	0.5159
13.6689	0.4776
13.703	0.4606
13.7372	0.4299
13.7713	0.4201
13.8055	0.3962
13.8397	0.3683
13.8738	0.3563
13.908	0.3608
13.9421	0.4181
13.9763	0.4712
14.0104	0.5149
14.0446	0.5408
14.0787	0.545
14.1129	0.5526
14.147	0.5599
14.1812	0.5574
14.2154	0.5518
14.2495	0.5451
14.2837	0.5352
14.3178	0.531
14.352	0.5266
14.3861	0.5182
14.4203	0.5184
14.4544	0.514
14.4886	0.5074
14.5228	0.5066
14.5569	0.5009
14.5911	0.499
14.6252	0.493
14.6594	0.49
14.6935	0.485
14.7277	0.478
14.7618	0.471
14.796	0.469
14.8301	0.4614
14.8643	0.4512
14.8985	0.447
14.9326	0.44
14.9668	0.435
15.0009	0.4326
15.0351	0.4219
15.0692	0.4037
15.1034	0.394
15.1375	0.3848
15.1717	0.3745
15.2059	0.36
15.24	0.351
15.2742	0.3372
15.3083	0.332
15.3425	0.3368
