Infrared Spectrum: 3,5-Dichlorobenzaldehyde
Formula: C 7 H 4 Cl 2 O
CAS: 10203-08-4
State: gas
Origin: EPA-IR VAPOR PHASE LIBRARY
1/CM	ABSORBANCE
501.5	0.0001233
513.074	9e-06
524.648	0.0001204
536.222	0.0002568
547.796	0.0001591
559.37	0.00024934
570.944	0.0006564
582.518	0.0008562
594.092	0.0009574
605.666	0.0009058
617.24	0.0009192
628.814	0.0011554
640.388	0.002288
651.962	0.008928
663.536	0.020818
675.11	0.015848
686.684	0.034118
698.258	0.017518
709.832	0.003878
721.406	0.002628
732.98	0.002428
744.554	0.002648
756.128	0.003068
767.702	0.004668
779.276	0.007028
790.85	0.016508
802.423	0.046868
813.997	0.035868
825.571	0.015088
837.145	0.012358
848.719	0.010408
860.293	0.024258
871.867	0.014758
883.441	0.004688
895.015	0.003278
906.589	0.003838
918.163	0.004138
929.737	0.001638
941.311	0.0006686
952.885	0.0008439
964.459	0.0004968
976.033	0.0006663
987.607	0.001628
999.181	0.002048
1010.76	0.0009175
1022.33	0.0008004
1033.9	0.001188
1045.48	0.0011312
1057.05	0.001208
1068.63	0.001708
1080.2	0.002188
1091.77	0.006498
1103.35	0.011378
1114.92	0.004878
1126.49	0.001548
1138.07	0.001468
1149.64	0.002018
1161.22	0.003218
1172.79	0.008698
1184.36	0.036428
1195.94	0.091998
1207.51	0.062578
1219.09	0.018818
1230.66	0.020278
1242.23	0.012148
1253.81	0.004708
1265.38	0.003698
1276.96	0.002828
1288.53	0.003218
1300.1	0.002168
1311.68	0.0011513
1323.25	0.0011352
1334.83	0.001548
1346.4	0.002608
1357.97	0.006828
1369.55	0.026308
1381.12	0.025258
1392.7	0.010868
1404.27	0.010068
1415.84	0.010578
1427.42	0.022048
1438.99	0.027078
1450.57	0.008878
1462.14	0.002808
1473.71	0.001568
1485.29	0.001358
1496.86	0.0010874
1508.44	0.001208
1520.01	0.001838
1531.58	0.002788
1543.16	0.006528
1554.73	0.023268
1566.31	0.059408
1577.88	0.053098
1589.45	0.012748
1601.03	0.005128
1612.6	0.003688
1624.18	0.002838
1635.75	0.002808
1647.32	0.001898
1658.9	0.001718
1670.47	0.001948
1682.05	0.003948
1693.62	0.006328
1705.19	0.016428
1716.77	0.099878
1728.34	0.155958
1739.92	0.024918
1751.49	0.006718
1763.06	0.004268
1774.64	0.003198
1786.21	0.003368
1797.79	0.003018
1809.36	0.003108
1820.93	0.002708
1832.51	0.002408
1844.08	0.001928
1855.66	0.001228
1867.23	0.001558
1878.8	0.002008
1890.38	0.001408
1901.95	0.0009117
1913.53	0.0007901
1925.1	0.0005747
1936.67	0.0004224
1948.25	0.0003786
1959.82	0.00045
1971.4	0.0004649
1982.97	0.000491
1994.54	0.0004019
2006.12	0.0003645
2017.69	0.000398
2029.27	0.0003694
2040.84	0.00026584
2052.41	0.00023351
2063.99	0.00023723
2075.56	0.00025054
2087.14	0.0003445
2098.71	0.0005195
2110.28	0.0007068
2121.86	0.0006071
2133.43	0.0003027
2145.01	0.00024821
2156.58	0.00026358
2168.15	0.0002879
2179.73	0.0004215
2191.3	0.0004217
2202.88	0.000373
2214.45	0.0003137
2226.02	0.00021278
2237.6	0.0001628
2249.17	0.0001634
2260.74	0.000181496
2272.32	0.00018829
2283.89	0.00023335
2295.47	0.0002893
2307.04	0.0003116
2318.61	0.000322
2330.19	0.0003708
2341.76	0.0003794
2353.34	0.0002828
2364.91	0.0002381
2376.48	0.0004207
2388.06	0.0005589
2399.63	0.0005326
2411.21	0.0003051
2422.78	0.000287
2434.35	0.0002894
2445.93	0.00025162
2457.5	0.0003101
2469.08	0.0003193
2480.65	0.000307
2492.22	0.0003004
2503.8	0.0003111
2515.37	0.0004361
2526.95	0.0004857
2538.52	0.0003536
2550.09	0.000301
2561.67	0.000525
2573.24	0.0007094
2584.82	0.000629
2596.39	0.0004806
2607.96	0.0005537
2619.54	0.0006929
2631.11	0.000928
2642.69	0.0009505
2654.26	0.001104
2665.83	0.001378
2677.41	0.001288
2688.98	0.001398
2700.56	0.004128
2712.13	0.017258
2723.7	0.015608
2735.28	0.004818
2746.85	0.003448
2758.43	0.004078
2770	0.005988
2781.57	0.009258
2793.15	0.012008
2804.72	0.014898
2816.3	0.024798
2827.87	0.022178
2839.44	0.007688
2851.02	0.002998
2862.59	0.002468
2874.17	0.002268
2885.74	0.001398
2897.31	0.0010748
2908.89	0.001084
2920.46	0.0008188
2932.04	0.000659
2943.61	0.0006976
2955.18	0.0008021
2966.76	0.0007639
2978.33	0.0006872
2989.91	0.0005429
3001.48	0.0004097
3013.05	0.0004157
3024.63	0.0003452
3036.2	0.0003554
3047.78	0.0004424
3059.35	0.0008447
3070.92	0.001638
3082.5	0.003008
3094.07	0.001748
3105.65	0.0006547
3117.22	0.0002998
3128.79	0.0002625
3140.37	0.00025408
3151.94	0.0002905
3163.52	0.00025206
3175.09	0.00022462
3186.66	0.00017139
3198.24	0.0001293
3209.81	9.93e-05
3221.39	0.0001256
3232.96	0.00016812
3244.53	0.0001254
3256.11	0.0001255
3267.68	0.0001505
3279.26	0.0001261
3290.83	0.00018999
3302.4	0.00017441
3313.98	0.00017601
3325.55	0.00017519
3337.13	0.00024895
3348.7	0.00026825
3360.27	0.00017433
3371.85	0.00023964
3383.42	0.0003161
3395	0.0004235
3406.57	0.0005531
3418.14	0.001698
3429.72	0.003448
3441.29	0.002008
3452.86	0.0006573
3464.44	0.0003927
3476.01	0.00027044
3487.59	0.00025499
3499.16	0.0003096
3510.73	0.0002849
3522.31	0.00022256
3533.88	0.00022495
3545.46	0.00026722
3557.03	0.00022601
3568.6	0.00024902
3580.18	0.00027172
3591.75	0.00023649
3603.33	0.00023266
3614.9	0.00017131
3626.47	0.0001397
3638.05	0.00021932
3649.62	0.0001676
3661.2	0.00016967
3672.77	0.0001415
3684.34	0.0001489
3695.92	0.00020856
3707.49	0.00021714
3719.07	0.00017246
3730.64	0.00019378
3742.21	0.000207
3753.79	0.0003148
3765.36	0.000311
3776.94	0.00017047
3788.51	0.00023411
3800.08	0.00020447
3811.66	0.00016984
3823.23	0.00017167
3834.81	0.0001644
3846.38	0.00024089
3857.95	0.00022585
3869.53	0.0003494
3881.1	0.00022135
3892.68	0.00022746
3904.25	0.00023626
3915.82	0.0001556
3927.4	0.00022972
3938.97	0.00019847
3950.55	0.0002857
3962.12	0.0003144
3973.69	0.00025419
3985.27	0.000328
3996.84	0.0003027
