Infrared Spectrum: DIETHYL,ETHYL(1-ETHYLPROPYL) MALONATE
Formula: C14 H26 O4
CAS: 10203-59-5
State: LIQUID
Class: COBLENTZ
Instrument: PERKIN-ELMER
Sampling: TRANSMISSION
Path length: 0.00125 CM
Resolution: 4
Origin: ABBOTT LABORATORIES - WASHBURN
MICROMETERS	TRANSMITTANCE
2.042	0.889
2.07569	0.892
2.10939	0.8949
2.14308	0.895
2.17678	0.899
2.21047	0.8991
2.24417	0.9041
2.27786	0.901
2.31156	0.8692
2.34525	0.8569
2.37895	0.857
2.41264	0.8789
2.44634	0.885
2.48003	0.8819
2.51373	0.8822
2.54742	0.8893
2.58112	0.902
2.61481	0.906
2.64851	0.907
2.6822	0.909
2.7159	0.909
2.74959	0.9021
2.78329	0.8888
2.81698	0.885
2.85068	0.8899
2.88437	0.882
2.91807	0.8769
2.95176	0.85
2.98546	0.8743
3.01915	0.8871
3.05285	0.89
3.08654	0.89
3.12024	0.8919
3.15393	0.884
3.18763	0.877
3.22132	0.877
3.25502	0.877
3.28871	0.872
3.32241	0.8416
3.3561	0.7294
3.3898	0.3147
3.42349	0.083
3.45719	0.1296
3.49088	0.256
3.52458	0.3002
3.55827	0.5582
3.59197	0.7599
3.62566	0.8248
3.65936	0.8653
3.69305	0.874
3.72675	0.8688
3.76044	0.8827
3.79414	0.901
3.82783	0.909
3.86153	0.911
3.89522	0.9059
3.92892	0.902
3.96261	0.906
3.99631	0.907
4.03	0.904
4.0637	0.9042
4.09739	0.9008
4.13109	0.894
4.16478	0.889
4.19847	0.8839
4.23217	0.8749
4.26586	0.87
4.29956	0.87
4.33325	0.87
4.36695	0.872
4.40064	0.8722
4.43434	0.8788
4.46803	0.874
4.50173	0.869
4.53542	0.8689
4.56912	0.864
4.60281	0.864
4.63651	0.86
4.6702	0.86
4.7039	0.857
4.73759	0.857
4.77129	0.855
4.80498	0.852
4.83868	0.842
4.87237	0.84
4.90607	0.842
4.93976	0.848
4.97346	0.852
5.00715	0.8471
5.04085	0.843
5.07454	0.8449
5.10824	0.845
5.14193	0.845
5.17563	0.8422
5.20932	0.847
5.24302	0.8435
5.27671	0.8406
5.31041	0.8311
5.3441	0.823
5.3778	0.8241
5.41149	0.832
5.44519	0.8275
5.47888	0.8217
5.51258	0.8111
5.54627	0.7937
5.57997	0.7774
5.61366	0.7588
5.64736	0.7126
5.68105	0.5819
5.71475	0.1892
5.74844	0.0664
5.78214	0.038
5.81583	0.0352
5.84953	0.1481
5.88322	0.3458
5.91692	0.4818
5.95061	0.5434
5.98431	0.6644
6.018	0.7113
6.0517	0.7371
6.08539	0.7589
6.11909	0.7668
6.15278	0.771
6.18648	0.775
6.22017	0.7786
6.25386	0.7815
6.28756	0.7914
6.32125	0.795
6.35495	0.793
6.38864	0.795
6.42234	0.791
6.45603	0.793
6.48973	0.7882
6.52342	0.786
6.55712	0.783
6.59081	0.778
6.62451	0.7738
6.6582	0.763
6.6919	0.7495
6.72559	0.7073
6.75929	0.6005
6.79298	0.4089
6.82668	0.1998
6.86037	0.1709
6.89407	0.2421
6.92776	0.2893
6.96146	0.3259
6.99515	0.4462
7.02885	0.5892
7.06254	0.6543
7.09624	0.6769
7.12993	0.6721
7.16363	0.6365
7.19732	0.5377
7.23102	0.3266
7.26471	0.321
7.29841	0.333
7.3321	0.3037
7.3658	0.3755
7.39949	0.5804
7.43319	0.6296
7.46688	0.6037
7.50058	0.512
7.53427	0.427
7.56797	0.4583
7.60166	0.4638
7.63536	0.3465
7.66905	0.3001
7.70275	0.2119
7.73644	0.1972
7.77014	0.245
7.80383	0.3227
7.83753	0.3749
7.87122	0.4119
7.90492	0.3995
7.93861	0.3395
7.97231	0.2293
8.006	0.109
8.0397	0.0859
8.07339	0.0387
8.10709	0.0318
8.14078	0.03
8.17448	0.03
8.20817	0.032
8.24187	0.036
8.27556	0.038
8.30926	0.0387
8.34295	0.0452
8.37664	0.0554
8.41034	0.1276
8.44403	0.2536
8.47773	0.3588
8.51142	0.3869
8.54512	0.3313
8.57881	0.307
8.61251	0.2973
8.6462	0.2126
8.6799	0.1723
8.71359	0.1417
8.74729	0.1327
8.78098	0.1178
8.81468	0.1079
8.84837	0.104
8.88207	0.1117
8.91576	0.1522
8.94946	0.169
8.98315	0.1453
9.01685	0.0986
9.05054	0.0816
9.08424	0.0834
9.11793	0.1055
9.15163	0.1275
9.18532	0.1968
9.21902	0.2781
9.25271	0.3677
9.28641	0.44
9.3201	0.5023
9.3538	0.5251
9.38749	0.5491
9.42119	0.5452
9.45488	0.5621
9.48858	0.5826
9.52227	0.5796
9.55597	0.5373
9.58966	0.4474
9.62336	0.302
9.65705	0.1489
9.69075	0.1031
9.72444	0.087
9.75814	0.1073
9.79183	0.1478
9.82553	0.2535
9.85922	0.335
9.89292	0.4253
9.92661	0.5256
9.96031	0.5923
9.994	0.6333
10.0277	0.6533
10.0614	0.6707
10.0951	0.6847
10.1288	0.7062
10.1625	0.7136
10.1962	0.7286
10.2299	0.7385
10.2636	0.739
10.2973	0.7228
10.331	0.708
10.3646	0.6844
10.3983	0.6667
10.432	0.6645
10.4657	0.6766
10.4994	0.6953
10.5331	0.7286
10.5668	0.7582
10.6005	0.7761
10.6342	0.7999
10.6679	0.8079
10.7016	0.813
10.7353	0.81
10.769	0.803
10.8027	0.7873
10.8364	0.7525
10.8701	0.6968
10.9038	0.6802
10.9375	0.7114
10.9712	0.7486
11.0048	0.758
11.0385	0.7603
11.0722	0.777
11.1059	0.7971
11.1396	0.81
11.1733	0.81
11.207	0.8029
11.2407	0.791
11.2744	0.7611
11.3081	0.7167
11.3418	0.6784
11.3755	0.6477
11.4092	0.6258
11.4429	0.622
11.4766	0.615
11.5103	0.5987
11.544	0.5958
11.5777	0.5926
11.6114	0.593
11.6451	0.6009
11.6787	0.6103
11.7124	0.6351
11.7461	0.6701
11.7798	0.6913
11.8135	0.71
11.8472	0.725
11.8809	0.748
11.9146	0.755
11.9483	0.7551
11.982	0.755
12.0157	0.744
12.0494	0.7332
12.0831	0.7135
12.1168	0.704
12.1505	0.697
12.1842	0.7
12.2179	0.7137
12.2516	0.723
12.2853	0.73
12.319	0.7336
12.3526	0.733
12.3863	0.725
12.42	0.7174
12.4537	0.7075
12.4874	0.6968
12.5211	0.691
12.5548	0.6908
12.5885	0.684
12.6222	0.6809
12.6559	0.672
12.6896	0.6592
12.7233	0.6441
12.757	0.64
12.7907	0.6482
12.8244	0.654
12.8581	0.649
12.8918	0.644
12.9255	0.6344
12.9592	0.6282
12.9928	0.6437
13.0265	0.6605
13.0602	0.682
13.0939	0.692
13.1276	0.689
13.1613	0.6854
13.195	0.682
13.2287	0.676
13.2624	0.6744
13.2961	0.674
13.3298	0.6719
13.3635	0.6689
13.3972	0.667
13.4309	0.6719
13.4646	0.6817
13.4983	0.706
13.532	0.7188
13.5657	0.7325
13.5994	0.7387
13.6331	0.7454
13.6667	0.751
13.7004	0.7556
13.7341	0.7572
13.7678	0.7604
13.8015	0.7653
13.8352	0.7645
13.8689	0.7658
13.9026	0.7697
13.9363	0.7627
13.97	0.758
14.0037	0.751
14.0374	0.744
14.0711	0.7341
14.1048	0.7231
14.1385	0.7181
14.1722	0.7114
14.2059	0.7082
14.2396	0.709
14.2733	0.711
14.307	0.7084
14.3406	0.711
14.3743	0.713
14.408	0.713
14.4417	0.711
14.4754	0.709
14.5091	0.7073
14.5428	0.704
14.5765	0.7066
14.6102	0.7038
14.6439	0.703
14.6776	0.703
14.7113	0.704
14.745	0.708
14.7787	0.711
14.8124	0.7109
14.8461	0.7062
14.8798	0.706
14.9135	0.703
14.9472	0.6978
14.9808	0.6966
15.0145	0.7034
15.0482	0.698
15.0819	0.6941
15.1156	0.6898
15.1493	0.6883
15.183	0.677
15.2167	0.6784
15.2504	0.672
15.2841	0.671
15.3178	0.6666
15.3515	0.6608
15.3852	0.656
15.4189	0.654
