Infrared Spectrum: 3-Dodecanol
Formula: C 12 H 26 O
CAS: 10203-30-2
State: gas
Instrument: HP-GC/MS/IRD
Origin: NIST Mass Spectrometry Data Center
1/CM	ABSORBANCE
550	0.0006372
562	0.0001296
574	0.0001782
586	0.0001728
598	0.000216
610	8.64e-05
622	0.0001134
634	4.86e-05
646	4.32e-05
658	7.56e-05
670	0.0001512
682	0.0001566
694	0.0002808
706	0.0004266
718	0.0006426
730	0.0005346
742	0.000432
754	0.0004158
766	0.0004698
778	0.00054
790	0.0004698
802	0.000378
814	0.0003294
826	0.0003996
838	0.0005292
850	0.0005832
862	0.0007074
874	0.0007938
886	0.0009396
898	0.0010206
910	0.0011286
922	0.0013392
934	0.0017658
946	0.0021708
958	0.0029646
970	0.003753
982	0.0037044
994	0.0034344
1006	0.0031806
1018	0.0027864
1030	0.002511
1042	0.0022842
1054	0.0020898
1066	0.0020196
1078	0.0020412
1090	0.0022842
1102	0.002511
1114	0.0025434
1126	0.0025326
1138	0.0020358
1150	0.0014688
1162	0.0012528
1174	0.0012852
1186	0.001323
1198	0.0015012
1210	0.001782
1222	0.0020574
1234	0.002052
1246	0.0019062
1258	0.0018198
1270	0.0017712
1282	0.0016794
1294	0.001728
1306	0.0017388
1318	0.0016362
1330	0.0016038
1342	0.0021492
1354	0.0026514
1366	0.002997
1378	0.003213
1390	0.0030294
1402	0.002079
1414	0.0014958
1426	0.0014958
1438	0.0024192
1450	0.0038232
1462	0.0050814
1474	0.0036234
1486	0.0016146
1498	0.0009072
1510	0.0009126
1522	0.0006264
1534	0.0004104
1546	0.0003942
1558	0.0004536
1570	0.000189
1582	0.0001134
1594	9.72e-05
1606	9.18e-05
1618	0.000162
1630	0.0001188
1642	0.000135
1654	0.0003294
1666	0.000162
1678	0.0001836
1690	0.0001458
1702	0.000297
1714	0.0002376
1726	0.0001296
1738	0.0002268
1750	0.0002322
1762	0.0001026
1774	0.0001134
1786	0.000108
1798	0.0001188
1810	5.94e-05
1822	5.94e-05
1834	4.86e-05
1846	0.0001242
1858	4.32e-05
1870	7.56e-05
1882	2.7e-05
1894	4.86e-05
1906	5.4e-06
1918	5.94e-05
1930	1.62e-05
1942	5.4e-05
1954	3.24e-05
1966	2.16e-05
1978	2.7e-05
1990	5.4e-05
2002	1.08e-05
2014	4.32e-05
2026	4.86e-05
2038	7.02e-05
2050	4.86e-05
2062	5.94e-05
2074	5.4e-05
2086	3.78e-05
2098	0
2110	2.7e-05
2122	2.16e-05
2134	3.78e-05
2146	4.86e-05
2158	2.16e-05
2170	2.16e-05
2182	3.24e-05
2194	2.16e-05
2206	3.78e-05
2218	1.62e-05
2230	1.62e-05
2242	2.16e-05
2254	2.16e-05
2266	3.78e-05
2278	4.86e-05
2290	2.7e-05
2302	4.32e-05
2314	4.86e-05
2326	5.4e-05
2338	3.24e-05
2350	4.32e-05
2362	4.32e-05
2374	5.4e-05
2386	6.48e-05
2398	5.4e-05
2410	5.94e-05
2422	7.56e-05
2434	8.1e-05
2446	7.02e-05
2458	7.02e-05
2470	8.1e-05
2482	5.4e-05
2494	5.4e-05
2506	8.1e-05
2518	0.0001134
2530	0.0001242
2542	0.0001404
2554	0.0001728
2566	0.0001944
2578	0.0002214
2590	0.0002808
2602	0.0003078
2614	0.000351
2626	0.0003726
2638	0.0004212
2650	0.000486
2662	0.00054
2674	0.0006318
2686	0.0006318
2698	0.000621
2710	0.0006372
2722	0.0006534
2734	0.0007668
2746	0.000864
2758	0.000918
2770	0.0009882
2782	0.0011718
2794	0.0014688
2806	0.0018684
2818	0.0025542
2830	0.0037152
2842	0.0064962
2854	0.014175
2866	0.0206766
2878	0.0175176
2890	0.0154764
2902	0.0171558
2914	0.0265248
2926	0.0460944
2938	0.0517536
2950	0.0320868
2962	0.0235278
2974	0.0205362
2986	0.009747
2998	0.00486
3010	0.002943
3022	0.0020574
3034	0.0015174
3046	0.0012312
3058	0.0009936
3070	0.0008964
3082	0.0007506
3094	0.0006804
3106	0.0005508
3118	0.000486
3130	0.000432
3142	0.0003834
3154	0.0003618
3166	0.0003348
3178	0.0002754
3190	0.0002808
3202	0.0002322
3214	0.0001404
3226	0.0001134
3238	0.0001296
3250	8.64e-05
3262	0.000108
3274	5.94e-05
3286	7.56e-05
3298	5.94e-05
3310	4.86e-05
3322	9.18e-05
3334	8.1e-05
3346	8.64e-05
3358	0.0001026
3370	9.18e-05
3382	9.18e-05
3394	0.0001026
3406	9.18e-05
3418	9.18e-05
3430	6.48e-05
3442	7.02e-05
3454	8.1e-05
3466	4.86e-05
3478	7.56e-05
3490	7.02e-05
3502	9.72e-05
3514	2.16e-05
3526	7.56e-05
3538	2.7e-05
3550	7.02e-05
3562	0.0001026
3574	0
3586	0.0002106
3598	0.0001566
3610	0.0003294
3622	0.0004158
3634	0.0006804
3646	0.0013338
3658	0.0015174
3670	0.000891
3682	0.0003348
3694	0.0002214
3706	0.0001404
3718	0.0001566
3730	0.0001998
3742	0.000216
3754	0.0001404
3766	7.56e-05
3778	3.24e-05
3790	1.62e-05
3802	0.0001566
3814	7.56e-05
3826	8.1e-05
3838	0.0002268
