Infrared Spectrum: 5-Dodecanol
Formula: C 12 H 26 O
CAS: 10203-33-5
State: gas
Instrument: HP-GC/MS/IRD
Origin: NIST Mass Spectrometry Data Center
1/CM	ABSORBANCE
550	0.0010788
562	0.0002204
574	0.0002262
586	0.000145
598	0.0001218
610	0.0001044
622	8.12e-05
634	3.48e-05
646	8.12e-05
658	0.0001334
670	2.9e-05
682	0.0001044
694	0.0002552
706	0.000377
718	0.000667
730	0.0008526
742	0.0007656
754	0.000609
766	0.0006264
778	0.000609
790	0.0005916
802	0.0005162
814	0.0004872
826	0.0005104
838	0.00058
850	0.0006554
862	0.0008178
874	0.001044
886	0.0011716
898	0.0012992
910	0.0011252
922	0.001073
934	0.0010904
946	0.0012354
958	0.0017052
970	0.002349
982	0.0030334
994	0.0038744
1006	0.0042688
1018	0.0039498
1030	0.0040774
1042	0.0040542
1054	0.0034162
1066	0.0028014
1078	0.0024534
1090	0.0022504
1102	0.002291
1114	0.0025114
1126	0.0027666
1138	0.0023606
1150	0.0016008
1162	0.0014036
1174	0.0015776
1186	0.0017922
1198	0.0019778
1210	0.0020996
1222	0.0022098
1234	0.0022852
1246	0.0024128
1258	0.0024824
1270	0.0023548
1282	0.0021344
1294	0.002117
1306	0.002059
1318	0.0019894
1330	0.0021054
1342	0.0026912
1354	0.0030798
1366	0.0035496
1378	0.0041122
1390	0.0037642
1402	0.002552
1414	0.0019024
1426	0.0019314
1438	0.0028072
1450	0.0042456
1462	0.0053882
1474	0.0037874
1486	0.0017632
1498	0.0009512
1510	0.0007714
1522	0.0004698
1534	0.0003828
1546	0.0003422
1558	1.74e-05
1570	0.0001508
1582	0.0001972
1594	0.0002146
1606	0.000232
1618	0.0001102
1630	0.0001624
1642	0.000174
1654	2.32e-05
1666	0.0002088
1678	0.0002378
1690	0.0002204
1702	0.0001218
1714	0.0002146
1726	0.0003364
1738	0.0001856
1750	0.0002204
1762	0.0001798
1774	0.0001044
1786	0.0002204
1798	0.0001798
1810	0.0001682
1822	0.0002088
1834	0.0001682
1846	0.0001508
1858	0.0001392
1870	0.0001508
1882	0.0001392
1894	0.0001392
1906	0.0001276
1918	0.000116
1930	0.000116
1942	0.000116
1954	9.86e-05
1966	9.28e-05
1978	9.86e-05
1990	9.86e-05
2002	9.28e-05
2014	9.28e-05
2026	0.0001218
2038	0.000145
2050	0.0001102
2062	9.86e-05
2074	6.38e-05
2086	4.64e-05
2098	5.8e-05
2110	5.8e-05
2122	5.8e-05
2134	5.22e-05
2146	4.64e-05
2158	5.22e-05
2170	5.8e-05
2182	2.9e-05
2194	4.64e-05
2206	4.64e-05
2218	5.22e-05
2230	2.32e-05
2242	1.74e-05
2254	5.8e-05
2266	4.64e-05
2278	4.64e-05
2290	5.8e-05
2302	6.38e-05
2314	5.22e-05
2326	5.8e-05
2338	8.12e-05
2350	8.7e-05
2362	6.38e-05
2374	6.96e-05
2386	0.0001218
2398	8.7e-05
2410	0.0001044
2422	9.86e-05
2434	8.7e-05
2446	8.12e-05
2458	0.0001102
2470	0.0001044
2482	0.0001044
2494	0.000116
2506	0.000145
2518	0.0001566
2530	0.0001624
2542	0.0002088
2554	0.0002378
2566	0.0002494
2578	0.00029
2590	0.0003132
2602	0.0003538
2614	0.0003886
2626	0.0004466
2638	0.000522
2650	0.0005742
2662	0.0006612
2674	0.0007308
2686	0.0007192
2698	0.0007482
2710	0.0007424
2722	0.0007714
2734	0.0008642
2746	0.0010034
2758	0.0010266
2770	0.0011368
2782	0.001363
2794	0.0017168
2806	0.0021634
2818	0.0029116
2830	0.0042572
2842	0.0072732
2854	0.0146566
2866	0.0225678
2878	0.0212454
2890	0.0180902
2902	0.0196562
2914	0.0297598
2926	0.0485054
2938	0.05713
2950	0.0379958
2962	0.0306878
2974	0.0242788
2986	0.0100224
2998	0.0053476
3010	0.0034684
3022	0.0024766
3034	0.0018618
3046	0.0014442
3058	0.00116
3070	0.0009454
3082	0.000841
3094	0.0007134
3106	0.0006496
3118	0.000551
3130	0.0004524
3142	0.0004698
3154	0.000406
3166	0.0003944
3178	0.0003422
3190	0.0003132
3202	0.0002494
3214	0.0002552
3226	0.000174
3238	0.0001044
3250	0.000116
3262	8.7e-05
3274	9.28e-05
3286	8.12e-05
3298	5.22e-05
3310	7.54e-05
3322	5.8e-05
3334	7.54e-05
3346	3.48e-05
3358	6.38e-05
3370	8.7e-05
3382	0.0001392
3394	8.12e-05
3406	9.28e-05
3418	9.86e-05
3430	9.28e-05
3442	0.000116
3454	8.12e-05
3466	4.64e-05
3478	7.54e-05
3490	6.38e-05
3502	0.0001102
3514	5.8e-06
3526	6.96e-05
3538	3.48e-05
3550	3.48e-05
3562	4.06e-05
3574	2.32e-05
3586	9.28e-05
3598	0.0001102
3610	0.0001798
3622	0.0003828
3634	0.0007134
3646	0.0013398
3658	0.001624
3670	0.0005684
3682	0.0001914
3694	0.0001218
3706	4.64e-05
3718	5.8e-05
3730	1.16e-05
3742	5.8e-06
3754	5.8e-06
3766	5.8e-06
3778	5.8e-06
3790	4.64e-05
3802	5.8e-06
3814	5.8e-06
3826	1.16e-05
3838	5.8e-06
