Infrared Spectrum: OCTAMETHYLCYCLOTETRASILAZANE
Formula: C8 H28 N4 Si4
CAS: 1020-84-4
State: SOLUTION (10% IN CCl4 FOR 3800-1300, 3% IN CS2 FOR 1300-650, AND 10% IN CCl4 FOR 650-250 CM^-^1) VS. SOLVENT
Melting point: 97 C
Boiling point: 225 C
Class: COBLENTZ III
Instrument: PERKIN-ELMER 521 (GRATING)
Instrument parameters: FILTERS AT 3150, 2500, 2000, 1150, 700, 410. GRATING CHANGES: 2000, 630 CM^-^1
Sampling: TRANSMISSION
Path length: 0.010 CM, 0.011 CM, AND 0.010 CM
Resolution: 2
Origin: DOW CORNING CORP.
1/CM	TRANSMITTANCE
228.076	0.891
237.319	0.88
246.562	0.864
255.806	0.844
265.049	0.824
274.292	0.786
283.535	0.764
292.779	0.75
302.022	0.712
311.265	0.661
320.508	0.601
329.751	0.48
338.995	0.368
348.238	0.305
357.481	0.293
366.724	0.373
375.968	0.322
385.211	0.363
394.454	0.41
403.697	0.355
412.94	0.442
422.184	0.502
431.427	0.598
440.67	0.699
449.913	0.758
459.157	0.791
468.4	0.827
477.643	0.845
486.886	0.853
496.129	0.858
505.373	0.858
514.616	0.858
523.859	0.859
533.102	0.855
542.346	0.849
551.589	0.842
560.832	0.824
570.075	0.788
579.318	0.664
588.562	0.427
597.805	0.348
607.048	0.703
616.291	0.788
625.535	0.794
634.778	0.797
644.021	0.8
653.264	0.803
662.507	0.805
671.751	0.751
680.994	0.598
690.237	0.728
699.48	0.807
708.724	0.824
717.967	0.823
727.21	0.809
736.453	0.791
745.696	0.767
754.94	0.764
764.183	0.677
773.426	0.597
782.669	0.539
791.913	0.282
801.156	0.17
810.399	0.184
819.642	0.493
828.885	0.643
838.129	0.6099
847.372	0.553
856.615	0.565
865.858	0.641
875.102	0.677
884.345	0.646
893.588	0.563
902.831	0.589
912.074	0.3559
921.318	0.189
930.561	0.05
939.804	0.026
949.047	0.172
958.291	0.451
967.534	0.661
976.777	0.779
986.02	0.823
995.263	0.839
1004.51	0.845
1013.75	0.851
1022.99	0.855
1032.24	0.858
1041.48	0.859
1050.72	0.86
1059.97	0.86
1069.21	0.86
1078.45	0.86
1087.7	0.858
1096.94	0.855
1106.18	0.851
1115.43	0.847
1124.67	0.819
1133.91	0.787
1143.16	0.695
1152.4	0.5339
1161.64	0.24
1170.88	0.075
1180.13	0.1911
1189.37	0.495
1198.61	0.667
1207.86	0.777
1217.1	0.805
1226.34	0.778
1235.59	0.65
1244.83	0.104
1254.07	0.468
1263.32	0.791
1272.56	0.791
1281.8	0.791
1291.05	0.791
1300.29	0.791
1309.53	0.791
1318.78	0.779
1328.02	0.787
1337.26	0.81
1346.51	0.815
1355.75	0.809
1364.99	0.799
1374.24	0.788
1383.48	0.75
1392.72	0.64
1401.97	0.589
1411.21	0.633
1420.45	0.737
1429.69	0.743
1438.94	0.753
1448.18	0.793
1457.42	0.812
1466.67	0.829
1475.91	0.83
1485.15	0.82
1494.4	0.81
1503.64	0.809
1512.88	0.812
1522.13	0.835
1531.37	0.861
1540.61	0.875
1549.86	0.884
1559.1	0.885
1568.34	0.878
1577.59	0.871
1586.83	0.86
1596.07	0.853
1605.32	0.861
1614.56	0.869
1623.8	0.879
1633.05	0.88
1642.29	0.885
1651.53	0.89
1660.78	0.893
1670.02	0.891
1679.26	0.884
1688.51	0.888
1697.75	0.885
1706.99	0.889
1716.23	0.888
1725.48	0.886
1734.72	0.884
1743.96	0.883
1753.21	0.88
1762.45	0.875
1771.69	0.88
1780.94	0.889
1790.18	0.894
1799.42	0.9
1808.67	0.9
1817.91	0.896
1827.15	0.891
1836.4	0.889
1845.64	0.885
1854.88	0.89
1864.13	0.895
1873.37	0.899
1882.61	0.899
1891.86	0.895
1901.1	0.894
1910.34	0.896
1919.59	0.881
1928.83	0.874
1938.07	0.879
1947.32	0.889
1956.56	0.895
1965.8	0.898
1975.05	0.902
1984.29	0.899
1993.53	0.895
2002.77	0.8985
2012.02	0.9
2021.26	0.9007
2030.5	0.901
2039.75	0.901
2048.99	0.9
2058.23	0.898
2067.48	0.896
2076.72	0.8948
2085.96	0.894
2095.21	0.895
2104.45	0.895
2113.69	0.896
2122.94	0.9006
2132.18	0.904
2141.42	0.904
2150.67	0.904
2159.91	0.904
2169.15	0.904
2178.4	0.904
2187.64	0.904
2196.88	0.904
2206.13	0.904
2215.37	0.904
2224.61	0.9055
2233.86	0.907
2243.1	0.906
2252.34	0.904
2261.59	0.904
2270.83	0.904
2280.07	0.904
2289.31	0.905
2298.56	0.906
2307.8	0.907
2317.04	0.9094
2326.29	0.91
2335.53	0.91
2344.77	0.911
2354.02	0.911
2363.26	0.91
2372.5	0.9073
2381.75	0.906
2390.99	0.904
2400.23	0.904
2409.48	0.9036
2418.72	0.902
2427.96	0.902
2437.21	0.904
2446.45	0.9029
2455.69	0.901
2464.94	0.8946
2474.18	0.894
2483.42	0.8931
2492.67	0.896
2501.91	0.9
2511.15	0.901
2520.4	0.901
2529.64	0.901
2538.88	0.9
2548.12	0.9005
2557.37	0.901
2566.61	0.901
2575.85	0.901
2585.1	0.901
2594.34	0.9
2603.58	0.899
2612.83	0.899
2622.07	0.899
2631.31	0.898
2640.56	0.8931
2649.8	0.891
2659.04	0.8935
2668.29	0.894
2677.53	0.8956
2686.77	0.896
2696.02	0.896
2705.26	0.8941
2714.5	0.894
2723.75	0.893
2732.99	0.8899
2742.23	0.8838
2751.48	0.8774
2760.72	0.869
2769.96	0.8596
2779.21	0.8281
2788.45	0.8061
2797.69	0.803
2806.94	0.8066
2816.18	0.8052
2825.42	0.794
2834.66	0.793
2843.91	0.7807
2853.15	0.7701
2862.39	0.7451
2871.64	0.7016
2880.88	0.6288
2890.12	0.4912
2899.37	0.4964
2908.61	0.5892
2917.85	0.6341
2927.1	0.5589
2936.34	0.3248
2945.58	0.1024
2954.83	0.0591
2964.07	0.1674
2973.31	0.4329
2982.56	0.6464
2991.8	0.7438
3001.04	0.7969
3010.29	0.8127
3019.53	0.8197
3028.77	0.823
3038.02	0.825
3047.26	0.828
3056.5	0.8302
3065.75	0.8353
3074.99	0.8405
3084.23	0.842
3093.48	0.8412
3102.72	0.8465
3111.96	0.843
3121.2	0.8637
3130.45	0.8697
3139.69	0.871
3148.93	0.874
3158.18	0.878
3167.42	0.8841
3176.66	0.886
3185.91	0.888
3195.15	0.8903
3204.39	0.8944
3213.64	0.896
3222.88	0.896
3232.12	0.896
3241.37	0.896
3250.61	0.898
3259.85	0.898
3269.1	0.896
3278.34	0.895
3287.58	0.895
3296.83	0.894
3306.07	0.8907
3315.31	0.888
3324.56	0.882
3333.8	0.8681
3343.04	0.8453
3352.29	0.831
3361.53	0.7788
3370.77	0.6405
3380.01	0.344
3389.26	0.2811
3398.5	0.5618
3407.74	0.7951
3416.99	0.8484
3426.23	0.8698
3435.47	0.8805
3444.72	0.8872
3453.96	0.893
3463.2	0.8948
3472.45	0.896
3481.69	0.899
3490.93	0.899
3500.18	0.899
3509.42	0.899
3518.66	0.9
3527.91	0.9
3537.15	0.9
3546.39	0.9
3555.64	0.9
3564.88	0.9
3574.12	0.902
3583.37	0.902
3592.61	0.8991
3601.85	0.895
3611.1	0.894
3620.34	0.8908
3629.58	0.888
3638.83	0.888
3648.07	0.888
3657.31	0.887
3666.55	0.884
3675.8	0.88
3685.04	0.8765
3694.28	0.874
3703.53	0.8749
3712.77	0.881
3722.01	0.884
3731.26	0.884
3740.5	0.883
3749.74	0.881
3758.99	0.884
3768.23	0.8855
3777.47	0.8952
3786.72	0.8974
3795.96	0.899
