Infrared Spectrum: 4-AMINO-6-BROMO-1,3-BENZENEDISULFONAMIDE
Formula: C6 H8 Br N3 O4 S2
CAS: 1020-32-2
State: SOLID (NUJOL MULL)
Class: COBLENTZ
Instrument: PERKIN-ELMER
Sampling: TRANSMISSION
Resolution: 4
Origin: ABBOTT LABORATORIES - WASHBURN
MICROMETERS	TRANSMITTANCE
2.015	0.332
2.04919	0.3389
2.08339	0.346
2.11758	0.35
2.15178	0.36
2.18597	0.3642
2.22017	0.3761
2.25436	0.379
2.28855	0.3824
2.32275	0.3831
2.35694	0.381
2.39114	0.3877
2.42533	0.3932
2.45953	0.405
2.49372	0.4131
2.52791	0.4241
2.56211	0.4339
2.5963	0.4429
2.6305	0.4509
2.66469	0.4594
2.69888	0.4775
2.73308	0.4965
2.76727	0.5046
2.80147	0.5201
2.83566	0.542
2.86986	0.5508
2.90405	0.4533
2.93824	0.5252
2.97244	0.22
3.00663	0.202
3.04083	0.262
3.07502	0.1976
3.10922	0.1719
3.14341	0.2475
3.1776	0.3018
3.2118	0.3334
3.24599	0.337
3.28019	0.332
3.31438	0.3315
3.34858	0.2303
3.38277	0.059
3.41696	0.0082
3.45116	0.003
3.48535	0.003
3.51955	0.0301
3.55374	0.2577
3.58794	0.4375
3.62213	0.5062
3.65632	0.522
3.69052	0.522
3.72471	0.527
3.75891	0.5256
3.7931	0.525
3.8273	0.527
3.86149	0.5351
3.89568	0.548
3.92988	0.5664
3.96407	0.5849
3.99827	0.5948
4.03246	0.5964
4.06665	0.6063
4.10085	0.6121
4.13504	0.6131
4.16924	0.622
4.20343	0.625
4.23763	0.629
4.27182	0.634
4.30601	0.6399
4.34021	0.643
4.3744	0.648
4.4086	0.6541
4.44279	0.658
4.47699	0.663
4.51118	0.663
4.54537	0.6638
4.57957	0.6655
4.61376	0.672
4.64796	0.6753
4.68215	0.6811
4.71635	0.6871
4.75054	0.694
4.78473	0.696
4.81893	0.7044
4.85312	0.708
4.88732	0.706
4.92151	0.71
4.95571	0.7161
4.9899	0.722
5.02409	0.725
5.05829	0.73
5.09248	0.7352
5.12668	0.7401
5.16087	0.7435
5.19506	0.745
5.22926	0.751
5.26345	0.7541
5.29765	0.7589
5.33184	0.7609
5.36604	0.765
5.40023	0.767
5.43442	0.767
5.46862	0.762
5.50281	0.7694
5.53701	0.777
5.5712	0.782
5.6054	0.7881
5.63959	0.791
5.67378	0.7949
5.70798	0.799
5.74217	0.805
5.77637	0.806
5.81056	0.8102
5.84476	0.813
5.87895	0.813
5.91314	0.815
5.94734	0.8054
5.98153	0.7767
6.01573	0.718
6.04992	0.6261
6.08412	0.4249
6.11831	0.239
6.1525	0.3309
6.1867	0.5227
6.22089	0.617
6.25509	0.4127
6.28928	0.169
6.32348	0.3428
6.35767	0.4709
6.39186	0.5269
6.42606	0.5141
6.46025	0.3961
6.49445	0.33
6.52864	0.2175
6.56283	0.3256
6.59703	0.4332
6.63122	0.5236
6.66542	0.5658
6.69961	0.5913
6.73381	0.6006
6.768	0.54
6.80219	0.3011
6.83639	0.1112
6.87058	0.086
6.90478	0.1275
6.93897	0.2075
6.97317	0.3305
7.00736	0.495
7.04155	0.553
7.07575	0.398
7.10994	0.4593
7.14414	0.5568
7.17833	0.6101
7.21253	0.5986
7.24672	0.4344
7.28091	0.2616
7.31511	0.3302
7.3493	0.3926
7.3835	0.4697
7.41769	0.4634
7.45189	0.33
7.48608	0.161
7.52027	0.1055
7.55447	0.168
7.58866	0.123
7.62286	0.1175
7.65705	0.1374
7.69124	0.1767
7.72544	0.2768
7.75963	0.3161
7.79383	0.301
7.82802	0.3937
7.86222	0.4781
7.89641	0.519
7.9306	0.5132
7.9648	0.4424
7.99899	0.467
8.03319	0.5463
8.06738	0.5806
8.10158	0.6102
8.13577	0.6323
8.16996	0.645
8.20416	0.654
8.23835	0.6637
8.27255	0.665
8.30674	0.6659
8.34094	0.665
8.37513	0.665
8.40932	0.6599
8.44352	0.6358
8.47771	0.6002
8.51191	0.5067
8.5461	0.3514
8.5803	0.1957
8.61449	0.1175
8.64868	0.1175
8.68288	0.129
8.71707	0.129
8.75127	0.1209
8.78546	0.1054
8.81966	0.1251
8.85385	0.1589
8.88804	0.1854
8.92224	0.2189
8.95643	0.3003
8.99063	0.3593
9.02482	0.4102
9.05901	0.4365
9.09321	0.441
9.1274	0.4253
9.1616	0.406
9.19579	0.4069
9.22999	0.4403
9.26418	0.4782
9.29837	0.5076
9.33257	0.5332
9.36676	0.555
9.40096	0.559
9.43515	0.554
9.46935	0.555
9.50354	0.5719
9.53773	0.5899
9.57193	0.6109
9.60612	0.622
9.64032	0.6296
9.67451	0.639
9.70871	0.6452
9.7429	0.649
9.77709	0.653
9.81129	0.6609
9.84548	0.6625
9.87968	0.665
9.91387	0.665
9.94807	0.665
9.98226	0.668
10.0165	0.675
10.0506	0.679
10.0848	0.679
10.119	0.679
10.1532	0.681
10.1874	0.681
10.2216	0.681
10.2558	0.677
10.29	0.67
10.3242	0.665
10.3584	0.6659
10.3926	0.6641
10.4268	0.6625
10.461	0.6505
10.4952	0.6206
10.5294	0.5697
10.5636	0.5128
10.5978	0.4676
10.632	0.421
10.6661	0.384
10.7003	0.3572
10.7345	0.348
10.7687	0.351
10.8029	0.3788
10.8371	0.39
10.8713	0.4128
10.9055	0.4661
10.9397	0.507
10.9739	0.5305
11.0081	0.547
11.0423	0.551
11.0765	0.551
11.1107	0.5412
11.1449	0.5057
11.1791	0.4282
11.2133	0.3554
11.2474	0.336
11.2816	0.3314
11.3158	0.331
11.35	0.333
11.3842	0.3426
11.4184	0.3712
11.4526	0.4036
11.4868	0.4371
11.521	0.4725
11.5552	0.5035
11.5894	0.5246
11.6236	0.537
11.6578	0.5365
11.692	0.4876
11.7262	0.4721
11.7604	0.5097
11.7946	0.5189
11.8287	0.4244
11.8629	0.386
11.8971	0.4803
11.9313	0.539
11.9655	0.5678
11.9997	0.5829
12.0339	0.5969
12.0681	0.609
12.1023	0.618
12.1365	0.6246
12.1707	0.6351
12.2049	0.649
12.2391	0.651
12.2733	0.655
12.3075	0.656
12.3417	0.658
12.3759	0.662
12.4101	0.664
12.4442	0.665
12.4784	0.668
12.5126	0.6687
12.5468	0.668
12.581	0.668
12.6152	0.6675
12.6494	0.668
12.6836	0.668
12.7178	0.668
12.752	0.668
12.7862	0.668
12.8204	0.667
12.8546	0.667
12.8888	0.6591
12.923	0.6555
12.9572	0.651
12.9914	0.6424
13.0255	0.6307
13.0597	0.61
13.0939	0.6035
13.1281	0.584
13.1623	0.5611
13.1965	0.5379
13.2307	0.5088
13.2649	0.4699
13.2991	0.4278
13.3333	0.3814
13.3675	0.353
13.4017	0.3583
13.4359	0.4018
13.4701	0.4469
13.5043	0.4819
13.5385	0.5071
13.5727	0.5223
13.6068	0.5365
13.641	0.539
13.6752	0.541
13.7094	0.543
13.7436	0.541
13.7778	0.537
13.812	0.5326
13.8462	0.5164
13.8804	0.4983
13.9146	0.4921
13.9488	0.484
13.983	0.482
14.0172	0.481
14.0514	0.4594
14.0856	0.4354
14.1198	0.424
14.154	0.4304
14.1882	0.4456
14.2223	0.449
14.2565	0.4421
14.2907	0.4223
14.3249	0.407
14.3591	0.4005
14.3933	0.3744
14.4275	0.3625
14.4617	0.35
14.4959	0.3426
14.5301	0.336
14.5643	0.334
14.5985	0.3314
14.6327	0.324
14.6669	0.32
14.7011	0.321
14.7353	0.3272
14.7695	0.3331
14.8036	0.336
14.8378	0.336
14.872	0.334
14.9062	0.334
14.9404	0.334
14.9746	0.334
15.0088	0.3444
15.043	0.346
15.0772	0.3507
15.1114	0.3641
15.1456	0.3768
15.1798	0.3853
15.214	0.395
15.2482	0.4005
15.2824	0.412
15.3166	0.422
15.3508	0.4245
15.385	0.427
15.4191	0.4306
