Infrared Spectrum: 4-Dodecanol
Formula: C 12 H 26 O
CAS: 10203-32-4
State: gas
Instrument: HP-GC/MS/IRD
Origin: NIST Mass Spectrometry Data Center
1/CM	ABSORBANCE
550	0.0005439
562	0.0004263
574	0.0003136
586	0.0003038
598	0.0001372
610	0.0001176
622	8.82e-05
634	0.0001029
646	0.0001617
658	4.41e-05
670	7.35e-05
682	0.0001813
694	0.0002254
706	0.0003087
718	0.0004998
730	0.0005978
742	0.0006125
754	0.0005439
766	0.0004459
778	0.0003528
790	0.000343
802	0.0003871
814	0.000441
826	0.0005831
838	0.0008379
850	0.0008869
862	0.000686
874	0.0006958
886	0.0006762
898	0.0009408
910	0.0009408
922	0.0010094
934	0.0009996
946	0.0009849
958	0.0011515
970	0.0015582
982	0.0022491
994	0.0032879
1006	0.0034104
1018	0.0027587
1030	0.0023177
1042	0.0021266
1054	0.002254
1066	0.0024206
1078	0.0023324
1090	0.0022442
1102	0.0022883
1114	0.0025382
1126	0.0027391
1138	0.0022932
1150	0.0015337
1162	0.0013132
1174	0.001421
1186	0.0015141
1198	0.0017003
1210	0.0019257
1222	0.0019502
1234	0.0019355
1246	0.0020286
1258	0.0020629
1270	0.0020041
1282	0.001862
1294	0.0016954
1306	0.001617
1318	0.0015631
1330	0.0017101
1342	0.0020678
1354	0.0025088
1366	0.0029253
1378	0.0032732
1390	0.0028714
1402	0.0019845
1414	0.0014406
1426	0.00147
1438	0.002254
1450	0.0034741
1462	0.0044982
1474	0.0031507
1486	0.0014112
1498	0.0007595
1510	0.0005047
1522	0.0003626
1534	0.0003038
1546	0.0002156
1558	0.0002009
1570	0.0001127
1582	0.0001813
1594	0.0001323
1606	0.0001029
1618	0.0001176
1630	8.82e-05
1642	0.0001029
1654	7.84e-05
1666	0.0001029
1678	6.86e-05
1690	5.39e-05
1702	6.86e-05
1714	5.88e-05
1726	7.35e-05
1738	6.86e-05
1750	3.43e-05
1762	9.8e-06
1774	2.45e-05
1786	2.94e-05
1798	0
1810	9.8e-06
1822	3.92e-05
1834	1.47e-05
1846	1.47e-05
1858	1.47e-05
1870	1.47e-05
1882	2.45e-05
1894	3.92e-05
1906	1.47e-05
1918	2.94e-05
1930	4.41e-05
1942	4.41e-05
1954	2.94e-05
1966	9.8e-06
1978	1.96e-05
1990	4.41e-05
2002	3.43e-05
2014	5.39e-05
2026	7.84e-05
2038	5.88e-05
2050	5.88e-05
2062	4.9e-05
2074	5.88e-05
2086	5.88e-05
2098	5.88e-05
2110	4.41e-05
2122	5.39e-05
2134	5.88e-05
2146	5.39e-05
2158	5.88e-05
2170	3.92e-05
2182	9.31e-05
2194	9.31e-05
2206	3.43e-05
2218	9.31e-05
2230	6.86e-05
2242	7.84e-05
2254	4.9e-05
2266	0.0001078
2278	7.35e-05
2290	9.8e-05
2302	8.82e-05
2314	0.0001078
2326	9.31e-05
2338	0.0001078
2350	8.82e-05
2362	0.0001225
2374	7.84e-05
2386	0.0001274
2398	9.31e-05
2410	9.8e-05
2422	0.0001029
2434	9.8e-05
2446	0.0001274
2458	0.0001078
2470	0.0001127
2482	0.0001225
2494	0.0001225
2506	0.0001372
2518	0.0001176
2530	0.000147
2542	0.000147
2554	0.0001813
2566	0.0002254
2578	0.000245
2590	0.0002989
2602	0.0003185
2614	0.0003577
2626	0.0003871
2638	0.0004214
2650	0.0004949
2662	0.0005488
2674	0.0006076
2686	0.0006566
2698	0.0006174
2710	0.0006321
2722	0.0006566
2734	0.0007497
2746	0.0008575
2758	0.0008722
2770	0.0009604
2782	0.0011319
2794	0.0014014
2806	0.0017689
2818	0.002401
2830	0.0035133
2842	0.0060956
2854	0.0124803
2866	0.0184044
2878	0.0172774
2890	0.01519
2902	0.0165914
2914	0.0252399
2926	0.0417284
2938	0.0474859
2950	0.0307475
2962	0.0252056
2974	0.0204918
2986	0.0085064
2998	0.0044443
3010	0.0028567
3022	0.0020433
3034	0.0015925
3046	0.0012299
3058	0.0009898
3070	0.000784
3082	0.0007203
3094	0.0006419
3106	0.0005096
3118	0.0004802
3130	0.0004165
3142	0.000392
3154	0.000343
3166	0.0003136
3178	0.0002548
3190	0.0002695
3202	0.0002303
3214	0.0002009
3226	0.0001568
3238	9.31e-05
3250	0.0001029
3262	9.8e-05
3274	7.84e-05
3286	9.31e-05
3298	9.8e-05
3310	5.39e-05
3322	7.84e-05
3334	6.37e-05
3346	9.31e-05
3358	8.33e-05
3370	8.82e-05
3382	0.000147
3394	3.43e-05
3406	0.0001568
3418	0.0001666
3430	0.0001519
3442	0.0001176
3454	0.0001274
3466	0.0001323
3478	0.0001617
3490	0.000147
3502	0.0001617
3514	0.0001176
3526	8.82e-05
3538	7.84e-05
3550	9.31e-05
3562	9.8e-05
3574	0.0001617
3586	0.0001617
3598	0.0001911
3610	0.0002842
3622	0.0004214
3634	0.0007497
3646	0.0012985
3658	0.001568
3670	0.0007938
3682	0.0004263
3694	0.000294
3706	0.0002107
3718	0.0002009
3730	0.0001519
3742	0.0001519
3754	0.0001862
3766	0.0001519
3778	0.0002499
3790	0.0002254
3802	0.000196
3814	0.0002058
3826	0.0002156
3838	0.0002646
