Infrared Spectrum: 2-NAPHTHANILIDE, 4-[4-DIETHYLAMINO-o-TOLYLIMINO]-1,4-DIHYDRO-1-OXO-
Formula: C28 H27 N3 O2
CAS: 102187-19-9
State: SOLID (KBr PRESSING)
Melting point: 205-206 C
Class: COBLENTZ
Instrument: Not specified, most likely a prism, grating, or hybrid spectrometer.
Sampling: TRANSMISSION
Resolution: 4
Origin: EASTMAN KODAK COMPANY, RESEARCH LABORATORIES, ROCHESTER, N.Y.
MICROMETERS	TRANSMITTANCE
2.034	0.7
2.06925	0.709
2.1045	0.716
2.13975	0.723
2.175	0.726
2.21025	0.73
2.2455	0.733
2.28075	0.737
2.316	0.74
2.35125	0.742
2.3865	0.749
2.42175	0.756
2.457	0.77
2.49225	0.772
2.5275	0.775
2.56275	0.789
2.598	0.805
2.63325	0.801
2.6685	0.8
2.70375	0.817
2.739	0.82
2.77425	0.806
2.8095	0.763
2.84475	0.733
2.88	0.706
2.91525	0.681
2.9505	0.68
2.98575	0.697
3.021	0.721
3.05625	0.749
3.0915	0.747
3.12675	0.747
3.162	0.735
3.19725	0.742
3.2325	0.756
3.26775	0.758
3.303	0.737
3.33825	0.756
3.3735	0.732
3.40875	0.732
3.444	0.735
3.47925	0.751
3.5145	0.777
3.54975	0.812
3.585	0.829
3.62025	0.834
3.6555	0.841
3.69075	0.848
3.726	0.85
3.76125	0.848
3.7965	0.846
3.83175	0.845
3.867	0.846
3.90225	0.845
3.9375	0.852
3.97275	0.86
4.008	0.864
4.04325	0.864
4.0785	0.874
4.11375	0.883
4.149	0.888
4.18425	0.892
4.2195	0.895
4.25475	0.911
4.29	0.921
4.32525	0.937
4.3605	0.928
4.39575	0.9
4.431	0.9
4.46625	0.906
4.5015	0.909
4.53675	0.916
4.572	0.911
4.60725	0.911
4.6425	0.914
4.67775	0.913
4.713	0.914
4.74825	0.925
4.7835	0.921
4.81875	0.921
4.854	0.921
4.88925	0.921
4.9245	0.916
4.95975	0.913
4.995	0.914
5.03025	0.918
5.0655	0.92
5.10075	0.923
5.136	0.92
5.17125	0.916
5.2065	0.918
5.24175	0.921
5.277	0.921
5.31225	0.921
5.3475	0.909
5.38275	0.909
5.418	0.923
5.45325	0.926
5.4885	0.926
5.52375	0.925
5.559	0.921
5.59425	0.92
5.6295	0.909
5.66475	0.913
5.7	0.913
5.73525	0.913
5.7705	0.902
5.80575	0.888
5.841	0.886
5.87625	0.883
5.9115	0.871
5.94675	0.633
5.982	0.389
6.01725	0.631
6.0525	0.728
6.08775	0.733
6.123	0.72
6.15825	0.626
6.1935	0.389
6.22875	0.257
6.264	0.342
6.29925	0.156
6.3345	0.271
6.36975	0.513
6.405	0.553
6.44025	0.33
6.4755	0.295
6.51075	0.354
6.546	0.464
6.58125	0.521
6.6165	0.542
6.65175	0.419
6.687	0.41
6.72225	0.486
6.7575	0.476
6.79275	0.401
6.828	0.335
6.86325	0.452
6.8985	0.339
6.93375	0.227
6.969	0.246
7.00425	0.375
7.0395	0.507
7.07475	0.653
7.11	0.641
7.14525	0.45
7.1805	0.281
7.21575	0.344
7.251	0.521
7.28625	0.483
7.3215	0.441
7.35675	0.419
7.392	0.307
7.42725	0.335
7.4625	0.445
7.49775	0.492
7.533	0.285
7.56825	0.205
7.6035	0.194
7.63875	0.194
7.674	0.354
7.70925	0.481
7.7445	0.521
7.77975	0.514
7.815	0.459
7.85025	0.433
7.8855	0.412
7.92075	0.25
7.956	0.142
7.99125	0.116
8.0265	0.306
8.06175	0.495
8.097	0.633
8.13225	0.69
8.1675	0.702
8.20275	0.7
8.238	0.74
8.27325	0.753
8.3085	0.733
8.34375	0.626
8.379	0.537
8.41425	0.424
8.4495	0.445
8.48475	0.629
8.52	0.702
8.55525	0.763
8.5905	0.761
8.62575	0.74
8.661	0.751
8.69625	0.782
8.7315	0.794
8.76675	0.784
8.802	0.782
8.83725	0.787
8.8725	0.744
8.90775	0.72
8.943	0.756
8.97825	0.791
9.0135	0.789
9.04875	0.779
9.084	0.737
9.11925	0.638
9.1545	0.594
9.18975	0.667
9.225	0.62
9.26025	0.42
9.2955	0.26
9.33075	0.168
9.366	0.175
9.40125	0.335
9.4365	0.495
9.47175	0.64
9.507	0.711
9.54225	0.753
9.5775	0.773
9.61275	0.773
9.648	0.636
9.68325	0.535
9.7185	0.598
9.75375	0.697
9.789	0.749
9.82425	0.791
9.8595	0.806
9.89475	0.812
9.93	0.805
9.96525	0.77
10.0005	0.711
10.0358	0.683
10.071	0.683
10.1063	0.725
10.1415	0.773
10.1768	0.793
10.212	0.817
10.2473	0.82
10.2825	0.822
10.3178	0.826
10.353	0.827
10.3883	0.829
10.4235	0.831
10.4588	0.829
10.494	0.831
10.5293	0.822
10.5645	0.796
10.5998	0.728
10.635	0.664
10.6703	0.627
10.7055	0.662
10.7408	0.735
10.776	0.777
10.8113	0.801
10.8465	0.822
10.8818	0.836
10.917	0.84
10.9523	0.848
10.9875	0.846
11.0228	0.841
11.058	0.81
11.0933	0.803
11.1285	0.817
11.1638	0.822
11.199	0.838
11.2343	0.843
11.2695	0.846
11.3048	0.848
11.34	0.853
11.3753	0.852
11.4105	0.846
11.4458	0.834
11.481	0.805
11.5163	0.739
11.5515	0.726
11.5868	0.746
11.622	0.772
11.6573	0.782
11.6925	0.789
11.7278	0.793
11.763	0.793
11.7983	0.747
11.8335	0.733
11.8688	0.735
11.904	0.73
11.9393	0.723
11.9745	0.723
12.0098	0.742
12.045	0.773
12.0803	0.8
12.1155	0.801
12.1508	0.798
12.186	0.761
12.2213	0.716
12.2565	0.718
12.2918	0.702
12.327	0.646
12.3623	0.566
12.3975	0.532
12.4328	0.563
12.468	0.584
12.5033	0.626
12.5385	0.659
12.5738	0.68
12.609	0.68
12.6443	0.664
12.6795	0.662
12.7148	0.671
12.75	0.667
12.7853	0.66
12.8205	0.641
12.8558	0.638
12.891	0.627
12.9263	0.613
12.9615	0.61
12.9968	0.615
13.032	0.61
13.0673	0.6
13.1025	0.535
13.1378	0.483
13.173	0.464
13.2083	0.488
13.2435	0.523
13.2788	0.544
13.314	0.558
13.3493	0.58
13.3845	0.617
13.4198	0.652
13.455	0.674
13.4903	0.69
13.5255	0.695
13.5608	0.699
13.596	0.7
13.6313	0.7
13.6665	0.699
13.7018	0.692
13.737	0.69
13.7723	0.685
13.8075	0.683
13.8428	0.69
13.878	0.7
13.9133	0.707
13.9485	0.711
13.9838	0.713
14.019	0.714
14.0543	0.711
14.0895	0.709
14.1248	0.699
14.16	0.69
14.1953	0.683
14.2305	0.676
14.2658	0.65
14.301	0.631
14.3363	0.601
14.3715	0.56
14.4068	0.551
14.442	0.539
14.4773	0.554
14.5125	0.547
14.5478	0.575
14.583	0.62
14.6183	0.64
14.6535	0.636
14.6888	0.631
14.724	0.629
14.7593	0.627
14.7945	0.629
14.8298	0.629
14.865	0.627
14.9003	0.613
14.9355	0.586
14.9708	0.589
15.006	0.627
15.0413	0.6
15.0765	0.558
15.1118	0.532
15.147	0.53
15.1823	0.532
15.2175	0.535
15.2528	0.537
15.288	0.539
15.3233	0.528
15.3585	0.521
15.3938	0.521
15.429	0.513
15.4643	0.511
15.4995	0.507
15.5348	0.502
15.57	0.5
15.6053	0.499
15.6405	0.492
15.6758	0.483
15.711	0.471
15.7463	0.459
15.7815	0.452
15.8168	0.44
15.852	0.42
15.8873	0.419
15.9225	0.412
15.9578	0.412
15.993	0.422
