Infrared Spectrum: BIS(2,4-PENTANEDIONATO) BERYLLIUM
Formula: C10 H14 Be O4
CAS: 10210-64-7
State: SOLID (KBr WAFER)
Melting point: 108 C
Class: COBLENTZ
Instrument: BECKMAN IR-4 (HYBRID PRISM-GRATING)
Sampling: TRANSMISSION
Resolution: 4
Origin: MAC KENZIE CHEMICAL WORKS, INC., LONG ISLAND, NEW YORK
MICROMETERS	TRANSMITTANCE
2.015	0.88
2.05001	0.89
2.08503	0.909
2.12004	0.91
2.15505	0.919
2.19007	0.923
2.22508	0.928
2.26009	0.928
2.29511	0.93
2.33012	0.934
2.36513	0.936
2.40015	0.941
2.43516	0.942
2.47018	0.946
2.50519	0.946
2.5402	0.944
2.57522	0.944
2.61023	0.944
2.64524	0.937
2.68026	0.934
2.71527	0.928
2.75028	0.92
2.7853	0.908
2.82031	0.897
2.85532	0.887
2.89034	0.883
2.92535	0.882
2.96036	0.889
2.99538	0.895
3.03039	0.909
3.0654	0.91
3.10042	0.914
3.13543	0.919
3.17044	0.91
3.20546	0.908
3.24047	0.912
3.27548	0.908
3.3105	0.903
3.34551	0.877
3.38053	0.873
3.41554	0.88
3.45055	0.872
3.48557	0.897
3.52058	0.9
3.55559	0.91
3.59061	0.912
3.62562	0.912
3.66063	0.913
3.69565	0.92
3.73066	0.927
3.76567	0.927
3.80069	0.928
3.8357	0.929
3.87071	0.929
3.90573	0.93
3.94074	0.929
3.97575	0.925
4.01077	0.925
4.04578	0.925
4.08079	0.927
4.11581	0.922
4.15082	0.92
4.18583	0.923
4.22085	0.936
4.25586	0.937
4.29087	0.937
4.32589	0.936
4.3609	0.933
4.39592	0.93
4.43093	0.925
4.46594	0.923
4.50096	0.924
4.53597	0.93
4.57098	0.925
4.606	0.925
4.64101	0.929
4.67602	0.927
4.71104	0.928
4.74605	0.93
4.78106	0.925
4.81608	0.927
4.85109	0.93
4.8861	0.922
4.92112	0.923
4.95613	0.93
4.99114	0.924
5.02616	0.912
5.06117	0.919
5.09618	0.922
5.1312	0.923
5.16621	0.924
5.20122	0.924
5.23624	0.924
5.27125	0.907
5.30627	0.895
5.34128	0.9
5.37629	0.899
5.41131	0.903
5.44632	0.9
5.48133	0.899
5.51635	0.893
5.55136	0.898
5.58637	0.894
5.62139	0.884
5.6564	0.882
5.69141	0.861
5.72643	0.87
5.76144	0.879
5.79645	0.872
5.83147	0.867
5.86648	0.841
5.90149	0.831
5.93651	0.82
5.97152	0.809
6.00653	0.786
6.04155	0.752
6.07656	0.74
6.11158	0.713
6.14659	0.693
6.1816	0.666
6.21662	0.622
6.25163	0.555
6.28664	0.468
6.32166	0.346
6.35667	0.257
6.39168	0.276
6.4267	0.367
6.46171	0.363
6.49672	0.165
6.53174	0.215
6.56675	0.493
6.60176	0.74
6.63678	0.809
6.67179	0.821
6.7068	0.83
6.74182	0.821
6.77683	0.752
6.81184	0.702
6.84686	0.652
6.88187	0.654
6.91688	0.624
6.9519	0.608
6.98691	0.622
7.02192	0.599
7.05694	0.578
7.09195	0.494
7.12697	0.386
7.16198	0.257
7.19699	0.255
7.23201	0.387
7.26702	0.511
7.30203	0.573
7.33705	0.652
7.37206	0.726
7.40707	0.79
7.44209	0.818
7.4771	0.855
7.51211	0.86
7.54713	0.867
7.58214	0.872
7.61715	0.867
7.65217	0.843
7.68718	0.776
7.72219	0.856
7.75721	0.908
7.79222	0.904
7.82723	0.908
7.86225	0.908
7.89726	0.914
7.93227	0.915
7.96729	0.912
8.0023	0.908
8.03732	0.912
8.07233	0.91
8.10734	0.912
8.14236	0.917
8.17737	0.919
8.21238	0.918
8.2474	0.915
8.28241	0.912
8.31742	0.905
8.35244	0.902
8.38745	0.9
8.42246	0.905
8.45748	0.909
8.49249	0.909
8.5275	0.907
8.56252	0.904
8.59753	0.902
8.63254	0.905
8.66756	0.905
8.70257	0.899
8.73758	0.9
8.7726	0.892
8.80761	0.894
8.84262	0.895
8.87764	0.883
8.91265	0.879
8.94767	0.883
8.98268	0.882
9.01769	0.884
9.05271	0.882
9.08772	0.884
9.12273	0.883
9.15775	0.885
9.19276	0.893
9.22777	0.892
9.26279	0.887
9.2978	0.884
9.33281	0.882
9.36783	0.88
9.40284	0.87
9.43785	0.854
9.47287	0.836
9.50788	0.823
9.54289	0.749
9.57791	0.629
9.61292	0.538
9.64793	0.58
9.68295	0.68
9.71796	0.726
9.75297	0.756
9.78799	0.762
9.823	0.77
9.85802	0.777
9.89303	0.791
9.92804	0.818
9.96306	0.838
9.99807	0.856
10.0331	0.872
10.0681	0.885
10.1031	0.898
10.1381	0.9
10.1731	0.9
10.2081	0.905
10.2432	0.907
10.2782	0.903
10.3132	0.89
10.3482	0.88
10.3832	0.855
10.4182	0.845
10.4532	0.864
10.4883	0.892
10.5233	0.905
10.5583	0.9
10.5933	0.885
10.6283	0.868
10.6633	0.825
10.6983	0.804
10.7334	0.815
10.7684	0.851
10.8034	0.88
10.8384	0.898
10.8734	0.904
10.9084	0.912
10.9434	0.913
10.9784	0.92
11.0135	0.924
11.0485	0.923
11.0835	0.924
11.1185	0.932
11.1535	0.929
11.1885	0.928
11.2235	0.93
11.2586	0.927
11.2936	0.932
11.3286	0.929
11.3636	0.925
11.3986	0.93
11.4336	0.932
11.4686	0.932
11.5036	0.932
11.5387	0.925
11.5737	0.924
11.6087	0.922
11.6437	0.922
11.6787	0.919
11.7137	0.919
11.7487	0.914
11.7838	0.9
11.8188	0.88
11.8538	0.865
11.8888	0.836
11.9238	0.8
11.9588	0.731
11.9938	0.646
12.0289	0.56
12.0639	0.489
12.0989	0.459
12.1339	0.466
12.1689	0.524
12.2039	0.587
12.2389	0.659
12.2739	0.713
12.309	0.749
12.344	0.776
12.379	0.803
12.414	0.816
12.449	0.82
12.484	0.83
12.519	0.844
12.5541	0.851
12.5891	0.863
12.6241	0.874
12.6591	0.898
12.6941	0.9
12.7291	0.895
12.7641	0.884
12.7991	0.878
12.8342	0.88
12.8692	0.902
12.9042	0.918
12.9392	0.925
12.9742	0.934
13.0092	0.938
13.0442	0.932
13.0793	0.93
13.1143	0.929
13.1493	0.929
13.1843	0.929
13.2193	0.922
13.2543	0.92
13.2893	0.898
13.3243	0.882
13.3594	0.875
13.3944	0.877
13.4294	0.894
13.4644	0.9
13.4994	0.914
13.5344	0.932
13.5694	0.938
13.6045	0.946
13.6395	0.957
13.6745	0.959
13.7095	0.967
13.7445	0.971
13.7795	0.967
13.8145	0.951
13.8495	0.951
13.8846	0.949
13.9196	0.948
13.9546	0.953
13.9896	0.958
14.0246	0.956
14.0596	0.952
14.0946	0.952
14.1297	0.952
14.1647	0.951
14.1997	0.951
14.2347	0.949
14.2697	0.947
14.3047	0.947
14.3397	0.953
14.3748	0.954
14.4098	0.953
14.4448	0.957
14.4798	0.958
14.5148	0.961
14.5498	0.958
14.5848	0.954
14.6198	0.952
14.6549	0.956
14.6899	0.958
14.7249	0.959
14.7599	0.959
14.7949	0.961
14.8299	0.959
14.8649	0.953
14.9	0.946
14.935	0.942
14.97	0.944
15.005	0.942
