Infrared Spectrum: o-TOLUIDINE, N-tert-BUTYL-
Formula: C11 H17 N
CAS: 10219-30-4
State: LIQUID (NEAT)
Class: COBLENTZ III
Instrument: BECKMAN IR-4 (HYBRID PRISM-GRATING)
Instrument parameters: NaCl PRISM
Sampling: TRANSMISSION
Path length: CAPILLARY
Resolution: 2
Origin: MONSANTO (J. FREEMAN)
1/CM	TRANSMITTANCE
3875.97	0.9032
3867.3	0.9036
3858.63	0.9041
3849.97	0.9046
3841.3	0.9051
3832.63	0.9056
3823.96	0.9061
3815.29	0.9067
3806.62	0.9071
3797.96	0.9075
3789.29	0.9078
3780.62	0.9081
3771.95	0.9083
3763.28	0.9082
3754.62	0.9081
3745.95	0.908
3737.28	0.9078
3728.61	0.9078
3719.94	0.9075
3711.27	0.9073
3702.61	0.9071
3693.94	0.9068
3685.27	0.9066
3676.6	0.9065
3667.93	0.906
3659.27	0.9054
3650.6	0.9048
3641.93	0.9044
3633.26	0.9039
3624.59	0.9035
3615.92	0.9032
3607.26	0.9027
3598.59	0.9023
3589.92	0.9018
3581.25	0.9015
3572.58	0.901
3563.92	0.9004
3555.25	0.8999
3546.58	0.8993
3537.91	0.8984
3529.24	0.8961
3520.57	0.8928
3511.91	0.881
3503.24	0.8559
3494.57	0.8302
3485.9	0.8044
3477.23	0.7784
3468.57	0.7523
3459.9	0.7407
3451.23	0.7399
3442.56	0.7397
3433.89	0.7674
3425.22	0.8163
3416.56	0.8607
3407.89	0.8712
3399.22	0.877
3390.55	0.8821
3381.88	0.8867
3373.22	0.8909
3364.55	0.894
3355.88	0.8972
3347.21	0.9001
3338.54	0.9024
3329.87	0.9041
3321.21	0.9048
3312.54	0.9055
3303.87	0.9061
3295.2	0.9066
3286.53	0.907
3277.87	0.9071
3269.2	0.9062
3260.53	0.9051
3251.86	0.9039
3243.19	0.9026
3234.52	0.9014
3225.86	0.9002
3217.19	0.8989
3208.52	0.8977
3199.85	0.8964
3191.18	0.895
3182.52	0.8936
3173.85	0.8914
3165.18	0.8867
3156.51	0.8785
3147.84	0.8668
3139.17	0.8518
3130.51	0.8382
3121.84	0.8249
3113.17	0.8044
3104.5	0.7789
3095.83	0.7613
3087.17	0.7415
3078.5	0.7231
3069.83	0.7069
3061.16	0.6912
3052.49	0.6724
3043.83	0.6551
3035.16	0.6174
3026.49	0.599
3017.82	0.5793
3009.15	0.5578
3000.48	0.5279
2991.82	0.4655
2983.15	0.3953
2974.48	0.3249
2965.81	0.2541
2957.14	0.2258
2948.48	0.2257
2939.81	0.2268
2931.14	0.2578
2922.47	0.3526
2913.8	0.4254
2905.13	0.447
2896.47	0.5178
2887.8	0.5329
2879.13	0.5407
2870.46	0.5458
2861.79	0.5494
2853.13	0.841
2844.46	0.8611
2835.79	0.8732
2827.12	0.8842
2818.45	0.8945
2809.78	0.9003
2801.12	0.9035
2792.45	0.9042
2783.78	0.9032
2775.11	0.9
2766.44	0.8962
2757.78	0.8947
2749.11	0.8985
2740.44	0.9038
2731.77	0.9091
2723.1	0.9138
2714.43	0.9183
2705.77	0.922
2697.1	0.9236
2688.43	0.924
2679.76	0.9233
2671.09	0.9224
2662.43	0.9212
2653.76	0.9191
2645.09	0.9169
2636.42	0.9147
2627.75	0.9121
2619.08	0.9095
2610.42	0.9071
2601.75	0.9053
2593.08	0.905
2584.41	0.9097
2575.74	0.9156
2567.08	0.9217
2558.41	0.925
2549.74	0.9268
2541.07	0.9278
2532.4	0.9287
2523.73	0.9294
2515.07	0.9292
2506.4	0.9288
2497.73	0.9284
2489.06	0.9274
2480.39	0.9263
2471.73	0.9259
2463.06	0.9255
2454.39	0.9254
2445.72	0.926
2437.05	0.9265
2428.38	0.9275
2419.72	0.9292
2411.05	0.9304
2402.38	0.9305
2393.71	0.9306
2385.04	0.9306
2376.38	0.9305
2367.71	0.9305
2359.04	0.9306
2350.37	0.9307
2341.7	0.9309
2333.03	0.9307
2324.37	0.9301
2315.7	0.9298
2307.03	0.9298
2298.36	0.9301
2289.69	0.9311
2281.03	0.934
2272.36	0.9377
2263.69	0.9393
2255.02	0.939
2246.35	0.9369
2237.68	0.935
2229.02	0.9344
2220.35	0.9357
2211.68	0.9376
2203.01	0.9401
2194.34	0.9414
2185.68	0.9421
2177.01	0.9409
2168.34	0.9373
2159.67	0.9358
2151	0.9359
2142.33	0.9365
2133.67	0.9374
2125	0.9381
2116.33	0.9389
2107.66	0.9398
2098.99	0.9405
2090.33	0.9413
2081.66	0.9421
2072.99	0.9428
2064.32	0.943
2055.65	0.9432
2046.98	0.9434
2038.32	0.9437
2029.65	0.944
2020.98	0.9443
2012.31	0.9446
2003.64	0.9447
1994.98	0.9446
1986.31	0.9445
1977.64	0.9432
1968.97	0.939
1960.3	0.9328
1951.63	0.9259
1942.97	0.9182
1934.3	0.9112
1925.63	0.9109
1916.96	0.913
1908.29	0.914
1899.63	0.9136
1890.96	0.9062
1882.29	0.9144
1873.62	0.9259
1864.95	0.9308
1856.28	0.9304
1847.62	0.927
1838.95	0.9261
1830.28	0.9295
1821.61	0.9326
1812.94	0.9299
1804.28	0.9284
1795.61	0.9302
1786.94	0.9316
1778.27	0.9298
1769.6	0.9304
1760.93	0.9374
1752.27	0.9472
1743.6	0.952
1734.93	0.9533
1726.26	0.9502
1717.59	0.9438
1708.93	0.9383
1700.26	0.9319
1691.59	0.9207
1682.92	0.9122
1674.25	0.9075
1665.58	0.9052
1656.92	0.9007
1648.25	0.8822
1639.58	0.8283
1630.91	0.7882
1622.24	0.7239
1613.58	0.4929
1604.91	0.1921
1596.24	0.4797
1587.57	0.3552
1578.9	0.5157
1570.23	0.8083
1561.57	0.8275
1552.9	0.8256
1544.23	0.7667
1535.56	0.5754
1526.89	0.3821
1518.23	0.1865
1509.56	0.2153
1500.89	0.3751
1492.22	0.3966
1483.55	0.2056
1474.89	0.2406
1466.22	0.4051
1457.55	0.4966
1448.88	0.393
1440.21	0.4301
1431.54	0.7086
1422.88	0.7972
1414.21	0.8357
1405.54	0.7846
1396.87	0.5182
1388.2	0.5339
1379.54	0.6804
1370.87	0.5057
1362.2	0.5859
1353.53	0.8428
1344.86	0.8457
1336.19	0.7422
1327.53	0.4952
1318.86	0.2338
1310.19	0.4927
1301.52	0.5322
1292.85	0.7595
1284.19	0.7526
1275.52	0.6442
1266.85	0.316
1258.18	0.3616
1249.51	0.5997
1240.84	0.6022
1232.18	0.3081
1223.51	0.174
1214.84	0.2642
1206.17	0.3629
1197.5	0.6148
1188.84	0.7371
1180.17	0.6929
1171.5	0.855
1162.83	0.8479
1154.16	0.9052
1145.49	0.9391
1136.83	0.9476
1128.16	0.946
1119.49	0.8663
1110.82	0.8155
1102.15	0.941
1093.49	0.9641
1084.82	0.9682
1076.15	0.9628
1067.48	0.9424
1058.81	0.7332
1050.14	0.7068
1041.48	0.8964
1032.81	0.8541
1024.14	0.8752
1015.47	0.9417
1006.8	0.9498
998.135	0.9304
989.467	0.8143
980.799	0.8553
972.131	0.8863
963.463	0.7987
954.794	0.8598
946.126	0.9029
937.458	0.9233
928.79	0.9116
920.122	0.8349
911.454	0.9019
902.785	0.9504
894.117	0.9623
885.449	0.9631
876.781	0.9622
868.113	0.9581
859.445	0.9535
850.776	0.9436
842.108	0.8943
833.44	0.8823
824.772	0.916
816.104	0.9235
807.435	0.9167
798.767	0.9131
790.099	0.9159
781.431	0.9017
772.763	0.8489
764.095	0.7306
755.426	0.5623
746.758	0.1541
738.09	0.254
729.422	0.6629
720.754	0.7381
712.086	0.7989
703.417	0.9093
694.749	0.912
686.081	0.8955
677.413	0.8784
668.745	0.8865
660.076	0.9074
651.408	0.9192
642.74	0.9163
634.072	0.9052
