Infrared Spectrum: Aniline, 4-methyl-N-tert-butyl-
Formula: C11 H17 N
CAS: 10219-31-5
State: LIQUID (NEAT)
Class: COBLENTZ III
Instrument: BECKMAN IR-4 (HYBRID PRISM-GRATING)
Instrument parameters: NaCl PRISM
Sampling: TRANSMISSION
Path length: CAPILLARY
Resolution: 2
Origin: MONSANTO (J. FREEMAN)
1/CM	TRANSMITTANCE
626	0.7513
635	0.7741
644	0.7878
653	0.8164
662	0.8528
671	0.8475
680	0.8044
689	0.797
698	0.8891
707	0.8961
716	0.8681
725	0.9028
734	0.9226
743	0.8997
752	0.853
761	0.7624
770	0.6152
779	0.5839
788	0.5208
797	0.4063
806	0.1447
815	0.1779
824	0.477
833	0.736
842	0.8313
851	0.8773
860	0.9052
869	0.9211
878	0.9337
887	0.9411
896	0.9387
905	0.915
914	0.872
923	0.8611
932	0.8717
941	0.8437
950	0.7776
959	0.7527
968	0.8287
977	0.9077
986	0.9127
995	0.921
1004	0.9229
1013	0.8926
1022	0.7972
1031	0.7739
1040	0.8033
1049	0.8688
1058	0.9122
1067	0.925
1076	0.9357
1085	0.9366
1094	0.9183
1103	0.8457
1112	0.7208
1121	0.7092
1130	0.7489
1139	0.8993
1148	0.9066
1157	0.8987
1166	0.8621
1175	0.8092
1184	0.5281
1193	0.5621
1202	0.4079
1211	0.2394
1220	0.1001
1229	0.1076
1238	0.2022
1247	0.3119
1256	0.257
1265	0.2431
1274	0.4578
1283	0.6072
1292	0.6112
1301	0.4711
1310	0.2879
1319	0.3169
1328	0.2834
1337	0.5321
1346	0.7128
1355	0.7471
1364	0.5325
1373	0.1892
1382	0.632
1391	0.4544
1400	0.3141
1409	0.6184
1418	0.7626
1427	0.7619
1436	0.6668
1445	0.5718
1454	0.4778
1463	0.3801
1472	0.427
1481	0.4428
1490	0.4653
1499	0.4588
1508	0.4072
1517	0.1583
1526	0.0087
1535	0.1898
1544	0.4622
1553	0.6928
1562	0.7439
1571	0.7945
1580	0.8038
1589	0.7374
1598	0.7414
1607	0.7038
1616	0.4457
1625	0.197
1634	0.3523
1643	0.6705
1652	0.8398
1661	0.8689
1670	0.8858
1679	0.901
1688	0.9143
1697	0.9258
1706	0.9343
1715	0.9406
1724	0.9452
1733	0.9463
1742	0.943
1751	0.9367
1760	0.9273
1769	0.9222
1778	0.923
1787	0.925
1796	0.9274
1805	0.9312
1814	0.935
1823	0.934
1832	0.9295
1841	0.922
1850	0.9128
1859	0.8991
1868	0.8836
1877	0.8627
1886	0.8556
1895	0.8734
1904	0.8912
1913	0.9051
1922	0.9121
1931	0.9175
1940	0.9221
1949	0.9265
1958	0.9304
1967	0.9338
1976	0.9365
1985	0.9384
1994	0.9399
2003	0.9409
2012	0.9414
2021	0.9414
2030	0.9415
2039	0.9412
2048	0.9408
2057	0.9406
2066	0.9404
2075	0.9402
2084	0.9399
2093	0.9397
2102	0.9394
2111	0.9391
2120	0.9388
2129	0.9378
2138	0.9367
2147	0.9357
2156	0.9349
2165	0.9345
2174	0.9342
2183	0.9357
2192	0.9373
2201	0.939
2210	0.9396
2219	0.9401
2228	0.9401
2237	0.94
2246	0.9398
2255	0.9396
2264	0.9394
2273	0.9387
2282	0.9379
2291	0.9371
2300	0.9359
2309	0.9345
2318	0.9331
2327	0.9317
2336	0.9301
2345	0.9284
2354	0.9267
2363	0.9249
2372	0.9231
2381	0.9211
2390	0.9194
2399	0.9192
2408	0.9241
2417	0.927
2426	0.9271
2435	0.9266
2444	0.9251
2453	0.9235
2462	0.9218
2471	0.9192
2480	0.9173
2489	0.9192
2498	0.9213
2507	0.9226
2516	0.9218
2525	0.9206
2534	0.9183
2543	0.9154
2552	0.9126
2561	0.9099
2570	0.9072
2579	0.9045
2588	0.9013
2597	0.8987
2606	0.8977
2615	0.8987
2624	0.9015
2633	0.9085
2642	0.9154
2651	0.9174
2660	0.9185
2669	0.9185
2678	0.9183
2687	0.9176
2696	0.916
2705	0.9144
2714	0.9126
2723	0.91
2732	0.9074
2741	0.9023
2750	0.8964
2759	0.8889
2768	0.88
2777	0.8734
2786	0.8743
2795	0.8827
2804	0.8935
2813	0.8938
2822	0.8924
2831	0.889
2840	0.882
2849	0.8711
2858	0.862
2867	0.8472
2876	0.8292
2885	0.7918
2894	0.6142
2903	0.4989
2912	0.3938
2921	0.3845
2930	0.3948
2939	0.3801
2948	0.3162
2957	0.2764
2966	0.2639
2975	0.2536
2984	0.239
2993	0.1648
3002	0.1104
3011	0.1082
3020	0.1233
3029	0.1838
3038	0.2441
3047	0.3039
3056	0.3633
3065	0.4225
3074	0.4812
3083	0.5397
3092	0.5978
3101	0.6555
3110	0.713
3119	0.7589
3128	0.772
3137	0.7785
3146	0.7837
3155	0.8147
3164	0.8442
3173	0.8692
3182	0.8773
3191	0.881
3200	0.8825
3209	0.8835
3218	0.8845
3227	0.8849
3236	0.8848
3245	0.8848
3254	0.8846
3263	0.8844
3272	0.8841
3281	0.8837
3290	0.8822
3299	0.8799
3308	0.8769
3317	0.8676
3326	0.8579
3335	0.85
3344	0.8423
3353	0.8369
3362	0.834
3371	0.8314
3380	0.8264
3389	0.8083
3398	0.7896
3407	0.771
3416	0.7525
3425	0.7342
3434	0.7158
3443	0.7109
3452	0.7145
3461	0.7429
3470	0.7737
3479	0.8043
3488	0.8348
3497	0.8642
3506	0.8742
3515	0.8792
3524	0.8832
3533	0.8862
3542	0.8888
3551	0.8902
3560	0.8917
3569	0.893
3578	0.8939
3587	0.8948
3596	0.8957
3605	0.8966
3614	0.8971
3623	0.8974
3632	0.8978
3641	0.8981
3650	0.8985
3659	0.8988
3668	0.8991
3677	0.9009
3686	0.8991
3695	0.8992
3704	0.8992
3713	0.8992
3722	0.8992
3731	0.8992
3740	0.8993
3749	0.899
3758	0.8987
3767	0.8985
3776	0.8982
3785	0.8979
3794	0.8976
3803	0.8972
3812	0.8967
3821	0.8962
3830	0.8957
3839	0.8952
3848	0.8947
3857	0.8942
3866	0.8937
3875	0.8932
3884	0.8926
3893	0.8919
3902	0.8912
3911	0.8905
3920	0.8898
3929	0.8891
3938	0.8885
3947	0.8878
3956	0.8877
3965	0.8876
3974	0.8876
3983	0.8876
3992	0.8875
