Infrared Spectrum: 6-CHLORO-2,4-DIISOPROPYL PHENOL
Formula: C12 H17 Cl O
CAS: 102127-39-9
State: SOLUTION (10% CCl4 FOR 5000-1330, 10% CS2 FOR 1330-625 CM^-^1)
Class: COBLENTZ
Instrument: Not specified, most likely a prism, grating, or hybrid spectrometer.
Sampling: TRANSMISSION
Path length: 0.0120 CM, 0.0120 CM
Resolution: 4
Origin: DOW CHEMICAL COMPANY
MICROMETERS	TRANSMITTANCE
2.041	0.914
2.08212	0.912
2.12323	0.922
2.16435	0.921
2.20547	0.907
2.24658	0.898
2.2877	0.9
2.32881	0.912
2.36993	0.91
2.41105	0.909
2.45216	0.912
2.49328	0.909
2.5344	0.91
2.57551	0.917
2.61663	0.924
2.65774	0.921
2.69886	0.9
2.73998	0.804
2.78109	0.61
2.82221	0.608
2.86333	0.854
2.90444	0.867
2.94556	0.862
2.98667	0.85
3.02779	0.825
3.06891	0.809
3.11002	0.801
3.15114	0.809
3.19226	0.802
3.23337	0.766
3.27449	0.701
3.3156	0.55
3.35672	0.108
3.39784	0.284
3.43895	0.38
3.48007	0.734
3.52119	0.771
3.5623	0.801
3.60342	0.806
3.64453	0.813
3.68565	0.828
3.72677	0.831
3.76788	0.843
3.809	0.843
3.85012	0.849
3.89123	0.864
3.93235	0.861
3.97346	0.857
4.01458	0.842
4.0557	0.843
4.09681	0.849
4.13793	0.849
4.17905	0.847
4.22016	0.842
4.26128	0.842
4.30239	0.843
4.34351	0.849
4.38463	0.864
4.42574	0.871
4.46686	0.873
4.50798	0.878
4.54909	0.879
4.59021	0.885
4.63132	0.886
4.67244	0.891
4.71356	0.891
4.75467	0.891
4.79579	0.9
4.83691	0.898
4.87802	0.898
4.91914	0.895
4.96025	0.891
5.00137	0.895
5.04249	0.902
5.0836	0.905
5.12472	0.907
5.16584	0.903
5.20695	0.905
5.24807	0.902
5.28918	0.902
5.3303	0.898
5.37142	0.897
5.41253	0.898
5.45365	0.898
5.49477	0.898
5.53588	0.888
5.577	0.867
5.61811	0.871
5.65923	0.862
5.70035	0.867
5.74146	0.84
5.78258	0.849
5.8237	0.871
5.86481	0.867
5.90593	0.852
5.94704	0.801
5.98816	0.83
6.02928	0.828
6.07039	0.813
6.11151	0.811
6.15263	0.746
6.19374	0.668
6.23486	0.547
6.27597	0.449
6.31709	0.542
6.35821	0.519
6.39932	0.457
6.44044	0.471
6.48156	0.542
6.52267	0.572
6.56379	0.579
6.6049	0.523
6.64602	0.49
6.68714	0.301
6.72825	0.084
6.76937	0.228
6.81049	0.271
6.8516	0.406
6.89272	0.504
6.93383	0.44
6.97495	0.403
7.01607	0.665
7.05718	0.737
7.0983	0.753
7.13942	0.696
7.18053	0.55
7.22165	0.72
7.26276	0.602
7.30388	0.586
7.345	0.662
7.38611	0.605
7.42723	0.454
7.46835	0.427
7.50946	0.408
7.55058	0.272
7.59169	0.283
7.63281	0.457
7.67393	0.54
7.71504	0.439
7.75616	0.403
7.79728	0.432
7.83839	0.385
7.87951	0.464
7.92062	0.526
7.96174	0.444
8.00286	0.305
8.04397	0.271
8.08509	0.531
8.12621	0.61
8.16732	0.61
8.20844	0.598
8.24955	0.394
8.29067	0.26
8.33179	0.483
8.3729	0.632
8.41402	0.665
8.45514	0.524
8.49625	0.317
8.53737	0.161
8.57848	0.332
8.6196	0.518
8.66072	0.555
8.70183	0.605
8.74295	0.674
8.78407	0.663
8.82518	0.624
8.8663	0.61
8.90741	0.581
8.94853	0.54
8.98965	0.571
9.03076	0.643
9.07188	0.722
9.113	0.727
9.15411	0.706
9.19523	0.698
9.23634	0.682
9.27746	0.778
9.31858	0.809
9.35969	0.821
9.40081	0.809
9.44193	0.819
9.48304	0.867
9.52416	0.879
9.56527	0.897
9.60639	0.907
9.64751	0.91
9.68862	0.917
9.72974	0.921
9.77086	0.922
9.81197	0.924
9.85309	0.929
9.8942	0.931
9.93532	0.929
9.97644	0.929
10.0176	0.931
10.0587	0.931
10.0998	0.926
10.1409	0.924
10.182	0.927
10.2231	0.929
10.2643	0.922
10.3054	0.917
10.3465	0.9
10.3876	0.893
10.4287	0.888
10.4698	0.893
10.5109	0.886
10.5521	0.861
10.5932	0.842
10.6343	0.861
10.6754	0.866
10.7165	0.84
10.7576	0.807
10.7988	0.77
10.8399	0.787
10.881	0.828
10.9221	0.837
10.9632	0.821
11.0043	0.773
11.0455	0.687
11.0866	0.584
11.1277	0.5
11.1688	0.502
11.2099	0.54
11.251	0.624
11.2922	0.727
11.3333	0.737
11.3744	0.723
11.4155	0.67
11.4566	0.583
11.4977	0.421
11.5389	0.255
11.58	0.288
11.6211	0.466
11.6622	0.524
11.7033	0.584
11.7444	0.658
11.7856	0.723
11.8267	0.766
11.8678	0.785
11.9089	0.79
11.95	0.806
11.9911	0.818
12.0323	0.816
12.0734	0.799
12.1145	0.771
12.1556	0.756
12.1967	0.73
12.2378	0.677
12.2789	0.6
12.3201	0.48
12.3612	0.368
12.4023	0.373
12.4434	0.485
12.4845	0.61
12.5256	0.73
12.5668	0.775
12.6079	0.799
12.649	0.811
12.6901	0.818
12.7312	0.818
12.7723	0.818
12.8135	0.819
12.8546	0.819
12.8957	0.809
12.9368	0.797
12.9779	0.775
13.019	0.734
13.0602	0.694
13.1013	0.648
13.1424	0.555
13.1835	0.449
13.2246	0.331
13.2657	0.25
13.3069	0.265
13.348	0.332
13.3891	0.379
13.4302	0.349
13.4713	0.437
13.5124	0.602
13.5536	0.703
13.5947	0.728
13.6358	0.749
13.6769	0.759
13.718	0.765
13.7591	0.765
13.8002	0.766
13.8414	0.766
13.8825	0.761
13.9236	0.759
13.9647	0.756
14.0058	0.753
14.0469	0.747
14.0881	0.744
14.1292	0.739
14.1703	0.734
14.2114	0.727
14.2525	0.72
14.2936	0.713
14.3348	0.704
14.3759	0.698
14.417	0.691
14.4581	0.686
14.4992	0.68
14.5403	0.672
14.5815	0.665
14.6226	0.655
14.6637	0.644
14.7048	0.636
14.7459	0.626
14.787	0.617
14.8282	0.607
14.8693	0.596
14.9104	0.584
14.9515	0.578
14.9926	0.572
15.0337	0.559
15.0749	0.552
15.116	0.54
15.1571	0.528
15.1982	0.519
15.2393	0.5
15.2804	0.488
15.3216	0.478
15.3627	0.466
15.4038	0.454
15.4449	0.432
15.486	0.403
15.5271	0.373
15.5682	0.348
15.6094	0.336
15.6505	0.331
15.6916	0.336
15.7327	0.339
15.7738	0.341
15.8149	0.348
15.8561	0.348
15.8972	0.336
15.9383	0.358
