Infrared Spectrum: ADENINE, 3-BENZYL-, HYDROCHLORIDE
Formula: C12 H12 Cl N5
CAS: 10211-84-4
State: SOLID (0.7 mg / 650 mg KBr DISC)
Class: COBLENTZ III
Instrument: PERKIN-ELMER 221 (GRATING)
Instrument parameters: FILTER CHANGES AT 2490, 980 CM^-^1, GRATING FOR 4000-1428 CM^-^1, NaCl PRISM FOR 1428-650 CM^-^1
Sampling: TRANSMISSION
Resolution: 4
Origin: SOUTHERN RESEARCH INST.
1/CM	TRANSMITTANCE
640.369	0.642
649.94	0.6449
659.512	0.7002
669.083	0.7345
678.654	0.5599
688.225	0.6191
697.797	0.6967
707.368	0.7915
716.939	0.6695
726.51	0.5465
736.082	0.78
745.653	0.8378
755.224	0.8581
764.796	0.7518
774.367	0.7211
783.938	0.7752
793.509	0.7775
803.081	0.7288
812.652	0.7642
822.223	0.8373
831.794	0.9291
841.366	0.9241
850.937	0.9188
860.508	0.9337
870.08	0.891
879.651	0.8582
889.222	0.9161
898.793	0.927
908.365	0.9182
917.936	0.904
927.507	0.8696
937.078	0.8337
946.65	0.871
956.221	0.8814
965.792	0.8684
975.363	0.8626
984.935	0.858
994.506	0.8458
1004.08	0.8079
1013.65	0.6848
1023.22	0.6671
1032.79	0.8251
1042.36	0.8381
1051.93	0.7902
1061.5	0.706
1071.08	0.8033
1080.65	0.8233
1090.22	0.852
1099.79	0.849
1109.36	0.8074
1118.93	0.7586
1128.5	0.8025
1138.08	0.8158
1147.65	0.7934
1157.22	0.7768
1166.79	0.752
1176.36	0.7028
1185.93	0.618
1195.5	0.6338
1205.07	0.5237
1214.65	0.3056
1224.22	0.4905
1233.79	0.6702
1243.36	0.8021
1252.93	0.7839
1262.5	0.7439
1272.07	0.73
1281.64	0.733
1291.22	0.7117
1300.79	0.6861
1310.36	0.6362
1319.93	0.5026
1329.5	0.5439
1339.07	0.6346
1348.64	0.6838
1358.21	0.6509
1367.79	0.609
1377.36	0.6008
1386.93	0.434
1396.5	0.3229
1406.07	0.3137
1415.64	0.1784
1425.21	0.232
1434.78	0.4068
1444.36	0.5787
1453.93	0.7029
1463.5	0.806
1473.07	0.8103
1482.64	0.7143
1492.21	0.5143
1501.78	0.6711
1511.35	0.7302
1520.93	0.5415
1530.5	0.5194
1540.07	0.6228
1549.64	0.8115
1559.21	0.8019
1568.78	0.7634
1578.35	0.6993
1587.92	0.424
1597.5	0.6152
1607.07	0.5988
1616.64	0.3897
1626.21	0.45
1635.78	0.4331
1645.35	0.1959
1654.92	0.0905
1664.5	0.1836
1674.07	0.2777
1683.64	0.4031
1693.21	0.5342
1702.78	0.6601
1712.35	0.7816
1721.92	0.8508
1731.49	0.8983
1741.07	0.9306
1750.64	0.934
1760.21	0.9205
1769.78	0.9086
1779.35	0.9448
1788.92	0.9683
1798.49	0.973
1808.06	0.9647
1817.64	0.9509
1827.21	0.944
1836.78	0.9411
1846.35	0.939
1855.92	0.9352
1865.49	0.931
1875.06	0.9274
1884.63	0.9244
1894.21	0.9205
1903.78	0.919
1913.35	0.919
1922.92	0.918
1932.49	0.9158
1942.06	0.9119
1951.63	0.9039
1961.2	0.8961
1970.78	0.8911
1980.35	0.888
1989.92	0.885
1999.49	0.883
2009.06	0.881
2018.63	0.8803
2028.2	0.877
2037.77	0.8723
2047.35	0.87
2056.92	0.869
2066.49	0.8683
2076.06	0.8643
2085.63	0.8603
2095.2	0.862
2104.77	0.864
2114.34	0.8596
2123.92	0.8543
2133.49	0.85
2143.06	0.851
2152.63	0.854
2162.2	0.8533
2171.77	0.851
2181.34	0.847
2190.91	0.8433
2200.49	0.8403
2210.06	0.8373
2219.63	0.835
2229.2	0.832
2238.77	0.828
2248.34	0.824
2257.91	0.8193
2267.49	0.8153
2277.06	0.812
2286.63	0.81
2296.2	0.809
2305.77	0.807
2315.34	0.8033
2324.91	0.7993
2334.48	0.7953
2344.06	0.7913
2353.63	0.7863
2363.2	0.782
2372.77	0.7837
2382.34	0.788
2391.91	0.785
2401.48	0.782
2411.05	0.7773
2420.63	0.7673
2430.2	0.765
2439.77	0.7633
2449.34	0.7613
2458.91	0.761
2468.48	0.7583
2478.05	0.756
2487.62	0.755
2497.2	0.7486
2506.77	0.7407
2516.34	0.738
2525.91	0.7353
2535.48	0.7253
2545.05	0.703
2554.62	0.694
2564.19	0.703
2573.77	0.713
2583.34	0.712
2592.91	0.706
2602.48	0.6953
2612.05	0.6883
2621.62	0.6793
2631.19	0.6713
2640.76	0.6596
2650.34	0.6483
2659.91	0.645
2669.48	0.6433
2679.05	0.642
2688.62	0.641
2698.19	0.6373
2707.76	0.6303
2717.33	0.6196
2726.91	0.6153
2736.48	0.6106
2746.05	0.591
2755.62	0.5803
2765.19	0.569
2774.76	0.5566
2784.33	0.5446
2793.91	0.5233
2803.48	0.5073
2813.05	0.5084
2822.62	0.5086
2832.19	0.4876
2841.76	0.487
2851.33	0.5174
2860.9	0.54
2870.48	0.53
2880.05	0.5063
2889.62	0.4803
2899.19	0.455
2908.76	0.4457
2918.33	0.4587
2927.9	0.4483
2937.47	0.4276
2947.05	0.4176
2956.62	0.398
2966.19	0.3856
2975.76	0.3753
2985.33	0.3527
2994.9	0.3356
3004.47	0.3223
3014.04	0.2805
3023.62	0.2495
3033.19	0.2266
3042.76	0.2073
3052.33	0.2027
3061.9	0.2144
3071.47	0.228
3081.04	0.2574
3090.61	0.2871
3100.19	0.3187
3109.76	0.332
3119.33	0.3397
3128.9	0.356
3138.47	0.37
3148.04	0.3914
3157.61	0.405
3167.18	0.4217
3176.76	0.44
3186.33	0.456
3195.9	0.4664
3205.47	0.472
3215.04	0.4602
3224.61	0.439
3234.18	0.418
3243.75	0.3963
3253.33	0.396
3262.9	0.4264
3272.47	0.464
3282.04	0.5027
3291.61	0.5471
3301.18	0.5904
3310.75	0.6167
3320.32	0.6343
3329.9	0.6417
3339.47	0.6413
3349.04	0.641
3358.61	0.6604
3368.18	0.6727
3377.75	0.6713
3387.32	0.667
3396.9	0.6633
3406.47	0.66
3416.04	0.659
3425.61	0.658
3435.18	0.66
3444.75	0.663
3454.32	0.665
3463.89	0.6677
3473.47	0.671
3483.04	0.671
3492.61	0.673
3502.18	0.673
3511.75	0.6767
3521.32	0.6844
3530.89	0.694
3540.46	0.7004
3550.04	0.706
3559.61	0.716
3569.18	0.721
3578.75	0.7247
3588.32	0.727
3597.89	0.7317
3607.46	0.7444
3617.03	0.748
3626.61	0.751
3636.18	0.755
3645.75	0.7557
3655.32	0.7553
3664.89	0.754
3674.46	0.753
3684.03	0.755
3693.6	0.757
3703.18	0.7583
3712.75	0.7563
3722.32	0.755
3731.89	0.7523
3741.46	0.7503
3751.03	0.748
3760.6	0.747
3770.17	0.746
3779.75	0.7443
3789.32	0.743
3798.89	0.741
3808.46	0.7393
3818.03	0.737
3827.6	0.7353
3837.17	0.7323
3846.74	0.732
3856.32	0.73
3865.89	0.729
3875.46	0.728
3885.03	0.726
3894.6	0.724
3904.17	0.7213
3913.74	0.72
3923.32	0.718
3932.89	0.717
3942.46	0.717
3952.03	0.717
3961.6	0.717
3971.17	0.714
3980.74	0.711
3990.31	0.709
