Infrared Spectrum: N,N'-DITHIOBISPIPERIDINE
Formula: C10 H20 N2 S2
CAS: 10220-20-9
State: SOLID (KBr PELLET)
Class: COBLENTZ
Instrument: PERKIN-ELMER
Sampling: TRANSMISSION
Resolution: 4
MICROMETERS	TRANSMITTANCE
2.027	0.039
2.06087	0.044
2.09474	0.047
2.12861	0.049
2.16248	0.059
2.19636	0.078
2.23023	0.085
2.2641	0.086
2.29797	0.093
2.33184	0.096
2.36571	0.098
2.39958	0.1
2.43345	0.108
2.46732	0.117
2.5012	0.12
2.53507	0.125
2.56894	0.13
2.60281	0.139
2.63668	0.149
2.67055	0.154
2.70442	0.163
2.73829	0.171
2.77216	0.178
2.80604	0.185
2.83991	0.188
2.87378	0.19
2.90765	0.195
2.94152	0.2
2.97539	0.209
3.00926	0.224
3.04313	0.231
3.077	0.243
3.11087	0.256
3.14475	0.267
3.17862	0.27
3.21249	0.287
3.24636	0.297
3.28023	0.299
3.3141	0.304
3.34797	0.304
3.38184	0.299
3.41571	0.127
3.44959	0.044
3.48346	0.093
3.51733	0.154
3.5512	0.119
3.58507	0.093
3.61894	0.192
3.65281	0.319
3.68668	0.357
3.72055	0.372
3.75443	0.374
3.7883	0.377
3.82217	0.387
3.85604	0.418
3.88991	0.43
3.92378	0.44
3.95765	0.467
3.99152	0.471
4.02539	0.479
4.05927	0.479
4.09314	0.498
4.12701	0.508
4.16088	0.511
4.19475	0.513
4.22862	0.52
4.26249	0.518
4.29636	0.518
4.33023	0.523
4.36411	0.537
4.39798	0.544
4.43185	0.556
4.46572	0.561
4.49959	0.564
4.53346	0.573
4.56733	0.581
4.6012	0.586
4.63507	0.591
4.66895	0.591
4.70282	0.598
4.73669	0.603
4.77056	0.61
4.80443	0.619
4.8383	0.62
4.87217	0.625
4.90604	0.625
4.93991	0.63
4.97378	0.634
5.00766	0.637
5.04153	0.641
5.0754	0.641
5.10927	0.642
5.14314	0.649
5.17701	0.653
5.21088	0.661
5.24475	0.664
5.27862	0.666
5.3125	0.67
5.34637	0.673
5.38024	0.68
5.41411	0.681
5.44798	0.688
5.48185	0.69
5.51572	0.692
5.54959	0.693
5.58346	0.695
5.61734	0.7
5.65121	0.7
5.68508	0.702
5.71895	0.702
5.75282	0.7
5.78669	0.695
5.82056	0.693
5.85443	0.688
5.8883	0.693
5.92218	0.7
5.95605	0.709
5.98992	0.707
6.02379	0.704
6.05766	0.695
6.09153	0.693
6.1254	0.693
6.15927	0.697
6.19314	0.7
6.22702	0.688
6.26089	0.664
6.29476	0.666
6.32863	0.688
6.3625	0.704
6.39637	0.71
6.43024	0.712
6.46411	0.719
6.49798	0.722
6.53185	0.722
6.56573	0.726
6.5996	0.729
6.63347	0.717
6.66734	0.719
6.70121	0.721
6.73508	0.726
6.76895	0.715
6.80282	0.673
6.83669	0.355
6.87057	0.18
6.90444	0.253
6.93831	0.193
6.97218	0.1
7.00605	0.481
7.03992	0.634
7.07379	0.67
7.10766	0.695
7.14153	0.709
7.17541	0.709
7.20928	0.681
7.24315	0.683
7.27702	0.702
7.31089	0.634
7.34476	0.391
7.37863	0.212
7.4125	0.309
7.44637	0.46
7.48025	0.545
7.51412	0.688
7.54799	0.719
7.58186	0.738
7.61573	0.722
7.6496	0.729
7.68347	0.731
7.71734	0.688
7.75121	0.261
7.78509	0.345
7.81896	0.659
7.85283	0.688
7.8867	0.615
7.92057	0.352
7.95444	0.455
7.98831	0.54
8.02218	0.681
8.05605	0.71
8.08993	0.717
8.1238	0.709
8.15767	0.663
8.19154	0.591
8.22541	0.069
8.25928	0.149
8.29315	0.384
8.32702	0.6
8.36089	0.688
8.39476	0.71
8.42864	0.729
8.46251	0.743
8.49638	0.741
8.53025	0.743
8.56412	0.744
8.59799	0.743
8.63186	0.738
8.66573	0.698
8.6996	0.416
8.73348	0.338
8.76735	0.418
8.80122	0.62
8.83509	0.698
8.86896	0.714
8.90283	0.719
8.9367	0.719
8.97057	0.714
9.00444	0.698
9.03832	0.637
9.07219	0.328
9.10606	0.198
9.13993	0.29
9.1738	0.528
9.20767	0.663
9.24154	0.707
9.27541	0.731
9.30928	0.743
9.34316	0.722
9.37703	0.727
9.4109	0.693
9.44477	0.416
9.47864	0.447
9.51251	0.636
9.54638	0.656
9.58025	0.658
9.61412	0.598
9.648	0.299
9.68187	0.158
9.71574	0.108
9.74961	0.224
9.78348	0.255
9.81735	0.52
9.85122	0.649
9.88509	0.704
9.91896	0.729
9.95284	0.739
9.98671	0.748
10.0206	0.755
10.0544	0.76
10.0883	0.765
10.1222	0.77
10.1561	0.77
10.1899	0.763
10.2238	0.751
10.2577	0.741
10.2915	0.724
10.3254	0.71
10.3593	0.698
10.3932	0.578
10.427	0.42
10.4609	0.627
10.4948	0.688
10.5286	0.712
10.5625	0.715
10.5964	0.709
10.6303	0.678
10.6641	0.63
10.698	0.52
10.7319	0.309
10.7657	0.108
10.7996	0.119
10.8335	0.139
10.8674	0.069
10.9012	0.035
10.9351	0.035
10.969	0.059
11.0028	0.115
11.0367	0.173
11.0706	0.309
11.1045	0.343
11.1383	0.421
11.1722	0.59
11.2061	0.676
11.2399	0.721
11.2738	0.755
11.3077	0.768
11.3415	0.777
11.3754	0.784
11.4093	0.792
11.4432	0.792
11.477	0.792
11.5109	0.79
11.5448	0.777
11.5786	0.731
11.6125	0.45
11.6464	0.217
11.6803	0.137
11.7141	0.394
11.748	0.573
11.7819	0.692
11.8157	0.758
11.8496	0.782
11.8835	0.799
11.9174	0.789
11.9512	0.724
11.9851	0.448
12.019	0.251
12.0528	0.518
12.0867	0.68
12.1206	0.75
12.1545	0.795
12.1883	0.812
12.2222	0.826
12.2561	0.836
12.2899	0.84
12.3238	0.843
12.3577	0.841
12.3916	0.831
12.4254	0.831
12.4593	0.831
12.4932	0.833
12.527	0.841
12.5609	0.852
12.5948	0.853
12.6287	0.853
12.6625	0.85
12.6964	0.85
12.7303	0.852
12.7641	0.848
12.798	0.846
12.8319	0.85
12.8657	0.852
12.8996	0.852
12.9335	0.848
12.9674	0.848
13.0012	0.848
13.0351	0.85
13.069	0.843
13.1028	0.841
13.1367	0.841
13.1706	0.841
13.2045	0.84
13.2383	0.838
13.2722	0.831
13.3061	0.831
13.3399	0.833
13.3738	0.833
13.4077	0.833
13.4416	0.831
13.4754	0.829
13.5093	0.826
13.5432	0.823
13.577	0.819
13.6109	0.816
13.6448	0.819
13.6787	0.818
13.7125	0.811
13.7464	0.802
13.7803	0.792
13.8141	0.792
13.848	0.79
13.8819	0.789
13.9158	0.782
13.9496	0.782
13.9835	0.782
14.0174	0.785
14.0512	0.789
14.0851	0.792
14.119	0.79
14.1529	0.789
14.1867	0.787
14.2206	0.782
14.2545	0.778
14.2883	0.772
14.3222	0.772
14.3561	0.768
14.3899	0.767
14.4238	0.765
14.4577	0.758
14.4916	0.751
14.5254	0.746
14.5593	0.734
14.5932	0.715
14.627	0.688
14.6609	0.644
14.6948	0.591
14.7287	0.442
14.7625	0.309
14.7964	0.226
14.8303	0.139
14.8641	0.1
14.898	0.103
14.9319	0.192
14.9658	0.319
14.9996	0.392
15.0335	0.435
15.0674	0.568
15.1012	0.62
15.1351	0.651
15.169	0.668
15.2029	0.681
15.2367	0.697
15.2706	0.705
15.3045	0.709
15.3383	0.712
15.3722	0.717
15.4061	0.721
15.44	0.721
