Infrared Spectrum: 2-Phenyl-4-benz[d]oxazinone
Formula: C 14 H 9 N O 2
CAS: 1022-46-4
State: gas
Origin: EPA-IR VAPOR PHASE LIBRARY
1/CM	ABSORBANCE
551.7	0.001976
563.274	0.001706
574.848	0.002536
586.421	0.001326
597.995	0.0008988
609.569	0.002446
621.143	0.011656
632.717	0.005956
644.291	0.003106
655.864	0.004346
667.438	0.008076
679.012	0.026666
690.586	0.047786
702.16	0.023766
713.734	0.006986
725.307	0.007116
736.881	0.010626
748.455	0.012806
760.029	0.040556
771.603	0.047606
783.177	0.012076
794.75	0.003536
806.324	0.002536
817.898	0.002566
829.472	0.003046
841.046	0.002646
852.619	0.003516
864.193	0.003356
875.767	0.004106
887.341	0.004256
898.915	0.004406
910.489	0.006656
922.062	0.009636
933.636	0.007346
945.21	0.004846
956.784	0.006836
968.358	0.010986
979.932	0.031416
991.505	0.095936
1003.08	0.071936
1014.65	0.023806
1026.23	0.040846
1037.8	0.024366
1049.37	0.017946
1060.95	0.030566
1072.52	0.016156
1084.1	0.005976
1095.67	0.007586
1107.24	0.011956
1118.82	0.009426
1130.39	0.003706
1141.97	0.004726
1153.54	0.009896
1165.11	0.007586
1176.69	0.014866
1188.26	0.015766
1199.83	0.010836
1211.41	0.027796
1222.98	0.032126
1234.56	0.023596
1246.13	0.049736
1257.7	0.081816
1269.28	0.023756
1280.85	0.017906
1292.42	0.025786
1304	0.040476
1315.57	0.033026
1327.15	0.018596
1338.72	0.008236
1350.29	0.004116
1361.87	0.003546
1373.44	0.004036
1385.02	0.004406
1396.59	0.003606
1408.16	0.003626
1419.74	0.004366
1431.31	0.004456
1442.88	0.008846
1454.46	0.017526
1466.03	0.042716
1477.61	0.056856
1489.18	0.022646
1500.75	0.012776
1512.33	0.005706
1523.9	0.005626
1535.48	0.005756
1547.05	0.008646
1558.62	0.016486
1570.2	0.047836
1581.77	0.054406
1593.34	0.050126
1604.92	0.104096
1616.49	0.143936
1628.07	0.152626
1639.64	0.040346
1651.21	0.010906
1662.79	0.006066
1674.36	0.005346
1685.93	0.005496
1697.51	0.005266
1709.08	0.005056
1720.66	0.005416
1732.23	0.007176
1743.8	0.010966
1755.38	0.014836
1766.95	0.032026
1778.53	0.139806
1790.1	0.249906
1801.67	0.116576
1813.25	0.034416
1824.82	0.012736
1836.39	0.008756
1847.97	0.005966
1859.54	0.005096
1871.12	0.004046
1882.69	0.004546
1894.26	0.005786
1905.84	0.006046
1917.41	0.005326
1928.99	0.003636
1940.56	0.004226
1952.13	0.004626
1963.71	0.005346
1975.28	0.003856
1986.85	0.003166
1998.43	0.002466
2010	0.001796
2021.58	0.001736
2033.15	0.001516
2044.72	0.0011686
2056.3	0.001406
2067.87	0.001266
2079.44	0.000996
2091.02	0.0009692
2102.59	0.0010736
2114.17	0.0010478
2125.74	0.0010346
2137.31	0.0011097
2148.89	0.001236
2160.46	0.001246
2172.04	0.001346
2183.61	0.001076
2195.18	0.0008267
2206.76	0.0009665
2218.33	0.0010881
2229.9	0.0010267
2241.48	0.001157
2253.05	0.001216
2264.63	0.0010722
2276.2	0.0010414
2287.77	0.0009281
2299.35	0.0009564
2310.92	0.001506
2322.5	0.001426
2334.07	0.0009035
2345.64	0.0008805
2357.22	0.0006132
2368.79	0.0006554
2380.36	0.0006567
2391.94	0.000707
2403.51	0.0006926
2415.09	0.000662
2426.66	0.0005903
2438.23	0.0005716
2449.81	0.0005459
2461.38	0.0008183
2472.96	0.0009756
2484.53	0.0010113
2496.1	0.001316
2507.68	0.001266
2519.25	0.001
2530.82	0.0011579
2542.4	0.0010577
2553.97	0.0009144
2565.55	0.0007837
2577.12	0.0007124
2588.69	0.0006584
2600.27	0.0007607
2611.84	0.0007742
2623.41	0.000853
2634.99	0.0008347
2646.56	0.00064
2658.14	0.0005218
2669.71	0.0005659
2681.28	0.000621
2692.86	0.0006524
2704.43	0.0005911
2716.01	0.000401
2727.58	0.0004057
2739.15	0.0004086
2750.73	0.0003903
2762.3	0.000453
2773.87	0.000646
2785.45	0.0005917
2797.02	0.0004668
2808.6	0.0004888
2820.17	0.0006074
2831.74	0.0007179
2843.32	0.0008074
2854.89	0.0008955
2866.47	0.0008322
2878.04	0.0009637
2889.61	0.0009542
2901.19	0.0009538
2912.76	0.0009724
2924.33	0.0009402
2935.91	0.0008196
2947.48	0.0006927
2959.06	0.0005575
2970.63	0.0005954
2982.2	0.0009052
2993.78	0.001186
3005.35	0.002056
3016.92	0.002986
3028.5	0.004576
3040.07	0.007696
3051.65	0.008876
3063.22	0.014826
3074.79	0.025756
3086.37	0.019866
3097.94	0.008926
3109.52	0.004126
3121.09	0.002116
3132.66	0.001526
3144.24	0.001416
3155.81	0.001366
3167.38	0.0009245
3178.96	0.0007278
3190.53	0.0007689
3202.11	0.0008912
3213.68	0.0009344
3225.25	0.001196
3236.83	0.0010259
3248.4	0.0007246
3259.98	0.0004745
3271.55	0.0003296
3283.12	0.0002115
3294.7	0.0001133
3306.27	8.54e-05
3317.84	9.43e-05
3329.42	0.0001037
3340.99	0.0001495
3352.57	0.00020706
3364.14	0.00020218
3375.71	0.00023998
3387.29	0.00021047
3398.86	0.0002093
3410.43	0.00023138
3422.01	0.0001232
3433.58	0.0003115
3445.16	0.0002404
3456.73	0.00025864
3468.3	0.00023272
3479.88	0.0002864
3491.45	0.0004149
3503.03	0.0003939
3514.6	0.0004287
3526.17	0.0005732
3537.75	0.0007698
3549.32	0.001986
3560.89	0.003166
3572.47	0.001706
3584.04	0.0008448
3595.62	0.0005415
3607.19	0.0005029
3618.76	0.00042
3630.34	0.0003433
3641.91	0.0003348
3653.49	0.0003669
3665.06	0.0003194
3676.63	0.00026392
3688.21	0.0003725
3699.78	0.0003536
3711.35	0.00022914
3722.93	0.0003322
3734.5	5.8e-05
3746.08	0.0002849
3757.65	0.00022789
3769.22	0.0003002
3780.8	0.000322
3792.37	0.0003891
3803.94	0.00025154
3815.52	0.0002924
3827.09	0.00020334
3838.67	3.1e-05
3850.24	6.5e-05
3861.81	0.0003322
3873.39	0.0003695
3884.96	0.0002969
3896.54	0.00018701
3908.11	0.0002896
3919.68	0.00035
3931.26	0.0004693
3942.83	0.0002774
3954.4	0.000142
3965.98	0.00023647
3977.55	0.00023827
3989.13	0.0001988
4000.7	0.00026409
