Infrared Spectrum: PHENETOLE, 4-CHLORO-2-NITRO
Formula: C8 H8 Cl N O3
CAS: 102236-24-8
State: SOLID (NUJOL MULL)
Class: COBLENTZ
Instrument: Not specified, most likely a prism, grating, or hybrid spectrometer.
Sampling: TRANSMISSION
Resolution: 4
Origin: TENNESSEE EASTMAN COMPANY, RESEARCH LABORATORIES
MICROMETERS	TRANSMITTANCE
2.039	0.366
2.07768	0.367
2.11637	0.375
2.15505	0.38
2.19374	0.379
2.23242	0.38
2.27111	0.38
2.30979	0.38
2.34848	0.383
2.38716	0.391
2.42585	0.401
2.46453	0.403
2.50321	0.42
2.5419	0.427
2.58058	0.435
2.61927	0.437
2.65795	0.45
2.69664	0.454
2.73532	0.459
2.77401	0.462
2.81269	0.469
2.85138	0.474
2.89006	0.477
2.92874	0.48
2.96743	0.485
3.00611	0.49
3.0448	0.493
3.08348	0.503
3.12217	0.503
3.16085	0.503
3.19954	0.425
3.23822	0.38
3.27691	0.401
3.31559	0.206
3.35427	0.066
3.39296	0.02
3.43164	0.02
3.47033	0.045
3.50901	0.338
3.5477	0.517
3.58638	0.548
3.62507	0.554
3.66375	0.553
3.70244	0.562
3.74112	0.569
3.7798	0.575
3.81849	0.588
3.85717	0.596
3.89586	0.603
3.93454	0.606
3.97323	0.62
4.01191	0.627
4.0506	0.632
4.08928	0.633
4.12797	0.638
4.16665	0.637
4.20533	0.651
4.24402	0.666
4.2827	0.666
4.32139	0.666
4.36007	0.666
4.39876	0.666
4.43744	0.677
4.47613	0.68
4.51481	0.682
4.5535	0.687
4.59218	0.696
4.63086	0.703
4.66955	0.711
4.70823	0.711
4.74692	0.711
4.7856	0.714
4.82429	0.717
4.86297	0.717
4.90166	0.722
4.94034	0.729
4.97903	0.733
5.01771	0.74
5.05639	0.741
5.09508	0.741
5.13376	0.743
5.17245	0.753
5.21113	0.725
5.24982	0.72
5.2885	0.75
5.32719	0.758
5.36587	0.759
5.40456	0.764
5.44324	0.764
5.48193	0.772
5.52061	0.777
5.55929	0.779
5.59798	0.775
5.63666	0.754
5.67535	0.767
5.71403	0.777
5.75272	0.779
5.7914	0.782
5.83009	0.788
5.86877	0.798
5.90746	0.796
5.94614	0.798
5.98482	0.8
6.02351	0.796
6.06219	0.777
6.10088	0.777
6.13956	0.756
6.17825	0.546
6.21693	0.498
6.25562	0.675
6.2943	0.625
6.33299	0.479
6.37167	0.485
6.41035	0.509
6.44904	0.362
6.48772	0.156
6.52641	0.14
6.56509	0.208
6.60378	0.398
6.64246	0.358
6.68115	0.301
6.71983	0.332
6.75852	0.222
6.7972	0.143
6.83588	0.175
6.87457	0.269
6.91325	0.348
6.95194	0.609
6.99062	0.685
7.02931	0.711
7.06799	0.682
7.10668	0.493
7.14536	0.448
7.18405	0.5
7.22273	0.375
7.26141	0.3
7.3001	0.309
7.33878	0.241
7.37747	0.117
7.41615	0.072
7.45484	0.101
7.49352	0.296
7.53221	0.419
7.57089	0.482
7.60958	0.551
7.64826	0.598
7.68694	0.524
7.72563	0.322
7.76431	0.201
7.803	0.206
7.84168	0.148
7.88037	0.122
7.91905	0.217
7.95774	0.254
7.99642	0.214
8.03511	0.332
8.07379	0.451
8.11247	0.524
8.15116	0.55
8.18984	0.569
8.22853	0.595
8.26721	0.619
8.3059	0.651
8.34458	0.672
8.38327	0.688
8.42195	0.708
8.46064	0.717
8.49932	0.709
8.538	0.479
8.57669	0.227
8.61537	0.214
8.65406	0.422
8.69274	0.553
8.73143	0.62
8.77011	0.648
8.8088	0.648
8.84748	0.603
8.88617	0.474
8.92485	0.432
8.96353	0.441
9.00222	0.493
9.0409	0.577
9.07959	0.643
9.11827	0.674
9.15696	0.688
9.19564	0.685
9.23433	0.653
9.27301	0.674
9.3117	0.696
9.35038	0.714
9.38906	0.717
9.42775	0.719
9.46643	0.72
9.50512	0.703
9.5438	0.611
9.58249	0.49
9.62117	0.312
9.65986	0.309
9.69854	0.403
9.73723	0.498
9.77591	0.558
9.81459	0.619
9.85328	0.638
9.89196	0.667
9.93065	0.679
9.96933	0.69
10.008	0.7
10.0467	0.709
10.0854	0.712
10.1241	0.716
10.1628	0.717
10.2014	0.717
10.2401	0.716
10.2788	0.717
10.3175	0.719
10.3562	0.719
10.3949	0.719
10.4335	0.717
10.4722	0.717
10.5109	0.72
10.5496	0.73
10.5883	0.74
10.627	0.745
10.6657	0.745
10.7043	0.746
10.743	0.74
10.7817	0.669
10.8204	0.638
10.8591	0.675
10.8978	0.717
10.9364	0.735
10.9751	0.745
11.0138	0.75
11.0525	0.75
11.0912	0.745
11.1299	0.703
11.1686	0.601
11.2072	0.446
11.2459	0.398
11.2846	0.327
11.3233	0.262
11.362	0.201
11.4007	0.3
11.4393	0.545
11.478	0.624
11.5167	0.677
11.5554	0.696
11.5941	0.703
11.6328	0.712
11.6715	0.712
11.7101	0.712
11.7488	0.708
11.7875	0.682
11.8262	0.637
11.8649	0.58
11.9036	0.529
11.9422	0.517
11.9809	0.561
12.0196	0.63
12.0583	0.637
12.097	0.62
12.1357	0.554
12.1744	0.472
12.213	0.325
12.2517	0.203
12.2904	0.153
12.3291	0.237
12.3678	0.382
12.4065	0.403
12.4451	0.5
12.4838	0.645
12.5225	0.682
12.5612	0.711
12.5999	0.727
12.6386	0.733
12.6773	0.74
12.7159	0.746
12.7546	0.75
12.7933	0.751
12.832	0.75
12.8707	0.75
12.9094	0.74
12.948	0.724
12.9867	0.719
13.0254	0.664
13.0641	0.529
13.1028	0.422
13.1415	0.464
13.1802	0.62
13.2188	0.677
13.2575	0.7
13.2962	0.711
13.3349	0.717
13.3736	0.72
13.4123	0.72
13.4509	0.72
13.4896	0.717
13.5283	0.708
13.567	0.7
13.6057	0.685
13.6444	0.669
13.683	0.635
13.7217	0.579
13.7604	0.487
13.7991	0.361
13.8378	0.285
13.8765	0.246
13.9152	0.245
13.9538	0.322
13.9925	0.404
14.0312	0.479
14.0699	0.54
14.1086	0.559
14.1473	0.595
14.1859	0.606
14.2246	0.616
14.2633	0.619
14.302	0.622
14.3407	0.622
14.3794	0.62
14.4181	0.612
14.4567	0.596
14.4954	0.575
14.5341	0.569
14.5728	0.569
14.6115	0.579
14.6502	0.598
14.6888	0.606
14.7275	0.611
14.7662	0.616
14.8049	0.619
14.8436	0.619
14.8823	0.62
14.921	0.622
14.9596	0.622
14.9983	0.622
15.037	0.62
15.0757	0.62
15.1144	0.619
15.1531	0.619
15.1917	0.614
15.2304	0.59
15.2691	0.551
15.3078	0.543
15.3465	0.541
15.3852	0.543
15.4239	0.546
15.4625	0.55
15.5012	0.553
15.5399	0.554
15.5786	0.556
15.6173	0.558
15.656	0.558
15.6946	0.558
15.7333	0.558
15.772	0.558
15.8107	0.558
