Infrared Spectrum: 1-(Benzylthio)-2-propanone
Formula: C 10 H 12 O S
CAS: 10230-69-0
State: gas
Origin: EPA-IR VAPOR PHASE LIBRARY
1/CM	ABSORBANCE
551.7	0.00793
563.274	0.00936
574.848	0.00696
586.421	0.00383
597.995	0.00247
609.569	0.00195
621.143	0.00212
632.717	0.00229
644.291	0.00284
655.864	0.0048
667.438	0.00916
679.012	0.01728
690.586	0.03641
702.16	0.04525
713.734	0.02657
725.307	0.01743
736.881	0.01149
748.455	0.01017
760.029	0.01175
771.603	0.00842
783.177	0.00463
794.75	0.00372
806.324	0.00362
817.898	0.00337
829.472	0.00277
841.046	0.00257
852.619	0.00248
864.193	0.00278
875.767	0.00302
887.341	0.00302
898.915	0.00303
910.489	0.00419
922.062	0.00382
933.636	0.00303
945.21	0.00342
956.784	0.00431
968.358	0.00518
979.932	0.0066
991.505	0.00741
1003.08	0.00674
1014.65	0.00641
1026.23	0.00852
1037.8	0.0059
1049.37	0.00442
1060.95	0.00596
1072.52	0.00633
1084.1	0.00441
1095.67	0.00431
1107.24	0.00582
1118.82	0.00968
1130.39	0.01534
1141.97	0.01678
1153.54	0.01463
1165.11	0.01196
1176.69	0.01204
1188.26	0.01644
1199.83	0.02629
1211.41	0.03609
1222.98	0.03994
1234.56	0.03744
1246.13	0.02343
1257.7	0.01414
1269.28	0.01092
1280.85	0.00976
1292.42	0.00709
1304	0.00554
1315.57	0.00615
1327.15	0.00808
1338.72	0.01285
1350.29	0.02478
1361.87	0.03492
1373.44	0.02103
1385.02	0.0137
1396.59	0.01284
1408.16	0.01412
1419.74	0.01488
1431.31	0.01376
1442.88	0.0135
1454.46	0.01345
1466.03	0.00865
1477.61	0.00699
1489.18	0.01384
1500.75	0.01435
1512.33	0.00562
1523.9	0.00447
1535.48	0.00438
1547.05	0.00409
1558.62	0.00413
1570.2	0.00429
1581.77	0.00501
1593.34	0.0072
1604.92	0.00784
1616.49	0.00472
1628.07	0.00362
1639.64	0.0036
1651.21	0.00423
1662.79	0.00558
1674.36	0.00832
1685.93	0.0131
1697.51	0.02326
1709.08	0.04556
1720.66	0.0742
1732.23	0.07093
1743.8	0.04208
1755.38	0.0241
1766.95	0.01395
1778.53	0.0088
1790.1	0.00673
1801.67	0.00522
1813.25	0.00358
1824.82	0.00277
1836.39	0.00242
1847.97	0.00232
1859.54	0.00251
1871.12	0.00282
1882.69	0.00291
1894.26	0.00265
1905.84	0.00215
1917.41	0.00213
1928.99	0.00265
1940.56	0.00331
1952.13	0.00332
1963.71	0.00239
1975.28	0.00162
1986.85	0.00154
1998.43	0.00147
2010	0.00141
2021.58	0.00133
2033.15	0.00123
2044.72	0.00119
2056.3	0.00113
2067.87	0.00112
2079.44	0.00111
2091.02	0.00109
2102.59	0.00112
2114.17	0.00116
2125.74	0.00115
2137.31	0.00119
2148.89	0.00114
2160.46	0.00101
2172.04	0.0009849
2183.61	0.0009532
2195.18	0.0009781
2206.76	0.0009614
2218.33	0.0009721
2229.9	0.0009565
2241.48	0.0009244
2253.05	0.000953
2264.63	0.0009265
2276.2	0.0009337
2287.77	0.0009423
2299.35	0.00102
2310.92	0.00118
2322.5	0.00125
2334.07	0.00116
2345.64	0.00123
2357.22	0.0011
2368.79	0.00102
2380.36	0.0009672
2391.94	0.0009298
2403.51	0.0009527
2415.09	0.0009651
2426.66	0.0009821
2438.23	0.0009412
2449.81	0.0009017
2461.38	0.0008811
2472.96	0.0008514
2484.53	0.0007799
2496.1	0.0007454
2507.68	0.0007973
2519.25	0.0007668
2530.82	0.0007529
2542.4	0.0007757
2553.97	0.0007922
2565.55	0.0008569
2577.12	0.0008859
2588.69	0.0009448
2600.27	0.0011
2611.84	0.00112
2623.41	0.00113
2634.99	0.00108
2646.56	0.00105
2658.14	0.00103
2669.71	0.00108
2681.28	0.00102
2692.86	0.0009491
2704.43	0.0009418
2716.01	0.0009308
2727.58	0.000842
2739.15	0.0008801
2750.73	0.0009557
2762.3	0.00107
2773.87	0.00123
2785.45	0.00145
2797.02	0.00166
2808.6	0.0019
2820.17	0.00222
2831.74	0.00262
2843.32	0.00291
2854.89	0.00304
2866.47	0.00324
2878.04	0.00394
2889.61	0.0057
2901.19	0.0081
2912.76	0.01245
2924.33	0.01809
2935.91	0.01626
2947.48	0.01072
2959.06	0.00905
2970.63	0.00802
2982.2	0.00682
2993.78	0.00631
3005.35	0.00823
3016.92	0.01223
3028.5	0.01991
3040.07	0.02188
3051.65	0.01449
3063.22	0.02063
3074.79	0.02601
3086.37	0.01651
3097.94	0.01117
3109.52	0.00689
3121.09	0.00366
3132.66	0.00217
3144.24	0.0016
3155.81	0.0015
3167.38	0.0014
3178.96	0.00116
3190.53	0.00106
3202.11	0.0009548
3213.68	0.0008976
3225.25	0.0008336
3236.83	0.0009031
3248.4	0.0008009
3259.98	0.0007756
3271.55	0.0008599
3283.12	0.000792
3294.7	0.000827
3306.27	0.0008121
3317.84	0.0008236
3329.42	0.0007663
3340.99	0.0008014
3352.57	0.0008392
3364.14	0.0009188
3375.71	0.0009693
3387.29	0.00108
3398.86	0.00137
3410.43	0.00155
3422.01	0.00207
3433.58	0.00211
3445.16	0.00189
3456.73	0.00167
3468.3	0.0014
3479.88	0.00124
3491.45	0.00112
3503.03	0.0008541
3514.6	0.0008052
3526.17	0.0007491
3537.75	0.000672
3549.32	0.0007692
3560.89	0.0007431
3572.47	0.000776
3584.04	0.0007788
3595.62	0.0007995
3607.19	0.000914
3618.76	0.0008043
3630.34	0.0009631
3641.91	0.0009439
3653.49	0.00105
3665.06	0.0009189
3676.63	0.0007842
3688.21	0.0008378
3699.78	0.0008688
3711.35	0.000779
3722.93	0.0008528
3734.5	0.0007597
3746.08	0.0006881
3757.65	0.0006891
3769.22	0.0007623
3780.8	0.0007041
3792.37	0.0007571
3803.94	0.0008153
3815.52	0.0007313
3827.09	0.0007936
3838.67	0.0006627
3850.24	0.0008122
3861.81	0.0008688
3873.39	0.0008559
3884.96	0.0008433
3896.54	0.0007596
3908.11	0.0008125
3919.68	0.0008188
3931.26	0.0007664
3942.83	0.0007761
3954.4	0.0007427
3965.98	0.0006556
3977.55	0.0007938
3989.13	0.0007981
4000.7	0.0008965
