Infrared Spectrum: THIAZOLE, 2-AMINO-5-NITRO-4-(P-NITROPHENYL)
Formula: C9 H6 N4 O4 S
CAS: 102300-80-1
State: SOLID (PELLET)
Melting point: 250-251 C
Class: COBLENTZ
Instrument: Not specified, most likely a prism, grating, or hybrid spectrometer.
Sampling: TRANSMISSION
Resolution: 4
Origin: TENNESSEE EASTMAN COMPANY, RESEARCH LABORATORIES
MICROMETERS	TRANSMITTANCE
2.049	0.557
2.08892	0.562
2.12884	0.571
2.16876	0.579
2.20868	0.589
2.2486	0.6
2.28852	0.605
2.32844	0.615
2.36836	0.622
2.40828	0.625
2.4482	0.629
2.48812	0.635
2.52804	0.644
2.56796	0.644
2.60788	0.642
2.6478	0.644
2.68772	0.644
2.72764	0.645
2.76756	0.637
2.80748	0.619
2.8474	0.6
2.88732	0.574
2.92724	0.533
2.96716	0.317
3.00708	0.495
3.047	0.513
3.08692	0.577
3.12684	0.544
3.16676	0.461
3.20668	0.418
3.2466	0.534
3.28652	0.602
3.32644	0.624
3.36636	0.64
3.40628	0.649
3.4462	0.68
3.48612	0.692
3.52604	0.7
3.56596	0.716
3.60588	0.721
3.6458	0.721
3.68572	0.713
3.72564	0.723
3.76556	0.736
3.80548	0.74
3.8454	0.74
3.88532	0.743
3.92524	0.746
3.96516	0.751
4.00508	0.753
4.045	0.758
4.08492	0.761
4.12484	0.759
4.16476	0.761
4.20468	0.769
4.2446	0.768
4.28452	0.753
4.32444	0.756
4.36436	0.769
4.40428	0.784
4.4442	0.789
4.48412	0.793
4.52404	0.794
4.56396	0.793
4.60388	0.793
4.6438	0.794
4.68372	0.796
4.72364	0.798
4.76356	0.798
4.80348	0.798
4.8434	0.798
4.88332	0.798
4.92324	0.796
4.96316	0.799
5.00308	0.802
5.043	0.802
5.08292	0.802
5.12284	0.801
5.16276	0.801
5.20268	0.802
5.2426	0.802
5.28252	0.804
5.32244	0.806
5.36236	0.807
5.40228	0.809
5.4422	0.809
5.48212	0.802
5.52204	0.802
5.56196	0.802
5.60188	0.802
5.6418	0.802
5.68172	0.802
5.72164	0.791
5.76156	0.791
5.80148	0.794
5.8414	0.791
5.88132	0.788
5.92124	0.781
5.96116	0.768
6.00108	0.673
6.041	0.408
6.08092	0.496
6.12084	0.65
6.16076	0.715
6.20068	0.72
6.2406	0.653
6.28052	0.75
6.32044	0.761
6.36036	0.759
6.40028	0.75
6.4402	0.71
6.48012	0.428
6.52004	0.39
6.55996	0.149
6.59988	0.201
6.6398	0.475
6.67972	0.412
6.71964	0.521
6.75956	0.465
6.79948	0.44
6.8394	0.64
6.87932	0.723
6.91924	0.753
6.95916	0.761
6.99908	0.771
7.039	0.763
7.07892	0.74
7.11884	0.773
7.15876	0.771
7.19868	0.751
7.2386	0.7
7.27852	0.64
7.31844	0.551
7.35836	0.334
7.39828	0.218
7.4382	0.147
7.47812	0.253
7.51804	0.415
7.55796	0.488
7.59788	0.493
7.6378	0.447
7.67772	0.372
7.71764	0.491
7.75756	0.289
7.79748	0.18
7.8374	0.271
7.87732	0.438
7.91724	0.577
7.95716	0.64
7.99708	0.682
8.037	0.703
8.07692	0.731
8.11684	0.751
8.15676	0.754
8.19668	0.761
8.2366	0.764
8.27652	0.759
8.31644	0.756
8.35636	0.731
8.39628	0.572
8.4362	0.634
8.47612	0.72
8.51604	0.753
8.55596	0.768
8.59588	0.771
8.6358	0.774
8.67572	0.778
8.71564	0.778
8.75556	0.779
8.79548	0.778
8.8354	0.766
8.87532	0.75
8.91524	0.673
8.95516	0.642
8.99508	0.644
9.035	0.721
9.07492	0.726
9.11484	0.723
9.15476	0.693
9.19468	0.677
9.2346	0.711
9.27452	0.75
9.31444	0.763
9.35436	0.774
9.39428	0.791
9.4342	0.794
9.47412	0.796
9.51404	0.802
9.55396	0.802
9.59388	0.802
9.6338	0.799
9.67372	0.802
9.71364	0.801
9.75356	0.802
9.79348	0.791
9.8334	0.796
9.87332	0.802
9.91324	0.801
9.95316	0.804
9.99308	0.806
10.033	0.812
10.0729	0.812
10.1128	0.812
10.1528	0.816
10.1927	0.814
10.2326	0.807
10.2725	0.812
10.3124	0.819
10.3524	0.821
10.3923	0.822
10.4322	0.824
10.4721	0.832
10.512	0.837
10.552	0.841
10.5919	0.841
10.6318	0.842
10.6717	0.85
10.7116	0.852
10.7516	0.852
10.7915	0.852
10.8314	0.86
10.8713	0.862
10.9112	0.864
10.9512	0.862
10.9911	0.827
11.031	0.842
11.0709	0.864
11.1108	0.867
11.1508	0.87
11.1907	0.877
11.2306	0.88
11.2705	0.88
11.3104	0.877
11.3504	0.879
11.3903	0.879
11.4302	0.872
11.4701	0.832
11.51	0.721
11.55	0.534
11.5899	0.599
11.6298	0.655
11.6697	0.536
11.7096	0.619
11.7496	0.764
11.7895	0.842
11.8294	0.867
11.8693	0.877
11.9092	0.879
11.9492	0.882
11.9891	0.882
12.029	0.882
12.0689	0.882
12.1088	0.839
12.1488	0.774
12.1887	0.817
12.2286	0.874
12.2685	0.89
12.3084	0.897
12.3484	0.903
12.3883	0.908
12.4282	0.918
12.4681	0.922
12.508	0.922
12.548	0.923
12.5879	0.925
12.6278	0.928
12.6677	0.927
12.7076	0.93
12.7476	0.93
12.7875	0.932
12.8274	0.932
12.8673	0.932
12.9072	0.935
12.9472	0.938
12.9871	0.937
13.027	0.93
13.0669	0.915
13.1068	0.915
13.1468	0.932
13.1867	0.938
13.2266	0.938
13.2665	0.938
13.3064	0.937
13.3464	0.925
13.3863	0.867
13.4262	0.766
13.4661	0.769
13.506	0.854
13.546	0.884
13.5859	0.884
13.6258	0.859
13.6657	0.852
13.7056	0.882
13.7456	0.923
13.7855	0.942
13.8254	0.942
13.8653	0.943
13.9052	0.943
13.9452	0.947
13.9851	0.925
14.025	0.85
14.0649	0.773
14.1048	0.754
14.1448	0.784
14.1847	0.799
14.2246	0.811
14.2645	0.832
14.3044	0.862
14.3444	0.88
14.3843	0.902
14.4242	0.913
14.4641	0.935
14.504	0.94
14.544	0.953
14.5839	0.963
14.6238	0.973
14.6637	0.983
14.7036	0.993
14.7436	1.003
14.7835	1.004
14.8234	1.008
14.8633	1.008
14.9032	1.008
14.9432	1.003
14.9831	1.001
15.023	1.011
15.0629	1.016
15.1028	1.018
15.1428	1.019
15.1827	1.019
15.2226	1.019
15.2625	1.019
15.3024	1.018
15.3424	1.019
15.3823	1.018
15.4222	1.018
15.4621	1.008
15.502	1.001
15.542	0.998
15.5819	0.99
15.6218	0.978
15.6617	0.975
15.7016	0.97
15.7416	0.96
15.7815	0.956
15.8214	0.948
15.8613	0.948
15.9012	0.937
15.9412	0.932
15.9811	0.923
16.021	0.928
