Infrared Spectrum: 1,3,8-Triazaspiro[4,5]decan-4-one, 3-methyl-1-phenyl-, hydrochloride
Formula: C14 H20 Cl N3 O
CAS: 1023-85-4
State: SOLID (SPLIT MULL), FLUOROLUBE FOR 3800-1330 CM^-^1, NUJOL FOR 1330-460 CM^-^1
Class: COBLENTZ III
Instrument: DOW KBr FOREPRISM-GRATING
Instrument parameters: BLAZED AT 3.5, 12.0, 20.0 MICRON AND CHANGED AT 5.0, 7.5, 14.9 MICRON
Sampling: TRANSMISSION
Resolution: 2
Origin: DOW CHEMICAL COMPANY
1/CM	TRANSMITTANCE
3802	0.5733
3793	0.5749
3784	0.5768
3775	0.5787
3766	0.5806
3757	0.5824
3748	0.5845
3739	0.5866
3730	0.5888
3721	0.5905
3712	0.5921
3703	0.5941
3694	0.5967
3685	0.5992
3676	0.6006
3667	0.6012
3658	0.6006
3649	0.5978
3640	0.5931
3631	0.5862
3622	0.5794
3613	0.5725
3604	0.5656
3595	0.5602
3586	0.5566
3577	0.5564
3568	0.556
3559	0.552
3550	0.541
3541	0.5279
3532	0.5199
3523	0.5142
3514	0.5134
3505	0.5143
3496	0.5184
3487	0.5262
3478	0.5357
3469	0.5431
3460	0.548
3451	0.5512
3442	0.5523
3433	0.5523
3424	0.5523
3415	0.5525
3406	0.5544
3397	0.5597
3388	0.5674
3379	0.5755
3370	0.583
3361	0.5903
3352	0.5962
3343	0.6021
3334	0.6081
3325	0.6127
3316	0.616
3307	0.6191
3298	0.6223
3289	0.6253
3280	0.6284
3271	0.6314
3262	0.6343
3253	0.6362
3244	0.6382
3235	0.6399
3226	0.6415
3217	0.643
3208	0.6448
3199	0.6451
3190	0.6431
3181	0.6418
3172	0.6487
3163	0.6561
3154	0.6621
3145	0.6648
3136	0.6625
3127	0.6567
3118	0.6548
3109	0.6554
3100	0.6558
3091	0.6397
3082	0.6122
3073	0.6097
3064	0.6132
3055	0.615
3046	0.596
3037	0.584
3028	0.5718
3019	0.5575
3010	0.5424
3001	0.5181
2992	0.4599
2983	0.3982
2974	0.3527
2965	0.3464
2956	0.302
2947	0.2606
2938	0.2438
2929	0.2565
2920	0.2883
2911	0.3304
2902	0.3639
2893	0.3874
2884	0.4076
2875	0.412
2866	0.4108
2857	0.383
2848	0.3068
2839	0.2985
2830	0.3021
2821	0.3103
2812	0.3103
2803	0.2997
2794	0.2846
2785	0.2803
2776	0.2896
2767	0.2957
2758	0.2465
2749	0.2078
2740	0.1724
2731	0.167
2722	0.1761
2713	0.22
2704	0.2807
2695	0.3169
2686	0.3216
2677	0.335
2668	0.3534
2659	0.3556
2650	0.3862
2641	0.385
2632	0.3741
2623	0.3864
2614	0.4575
2605	0.4637
2596	0.4275
2587	0.437
2578	0.4631
2569	0.5051
2560	0.5449
2551	0.5623
2542	0.5543
2533	0.4933
2524	0.4272
2515	0.4769
2506	0.4719
2497	0.3586
2488	0.4295
2479	0.5176
2470	0.5364
2461	0.5483
2452	0.5612
2443	0.5609
2434	0.5596
2425	0.5879
2416	0.5959
2407	0.5722
2398	0.6181
2389	0.6247
2380	0.6272
2371	0.6299
2362	0.6328
2353	0.6365
2344	0.6411
2335	0.6481
2326	0.6561
2317	0.6641
2308	0.6704
2299	0.6753
2290	0.6808
2281	0.6862
2272	0.6911
2263	0.6951
2254	0.6983
2245	0.7008
2236	0.7076
2227	0.7165
2218	0.7251
2209	0.7308
2200	0.7358
2191	0.7395
2182	0.7435
2173	0.7483
2164	0.753
2155	0.758
2146	0.7601
2137	0.7455
2128	0.738
2119	0.7518
2110	0.7653
2101	0.7755
2092	0.7834
2083	0.7905
2074	0.7957
2065	0.8003
2056	0.8049
2047	0.8105
2038	0.8161
2029	0.8193
2020	0.8213
2011	0.8224
2002	0.8168
1993	0.8211
1984	0.8189
1975	0.8167
1966	0.822
1957	0.8221
1948	0.8239
1939	0.826
1930	0.8275
1921	0.8297
1912	0.8313
1903	0.8318
1894	0.8309
1885	0.8353
1876	0.8391
1867	0.8374
1858	0.8375
1849	0.8388
1840	0.8427
1831	0.8481
1822	0.8532
1813	0.8593
1804	0.859
1795	0.8535
1786	0.848
1777	0.8528
1768	0.8583
1759	0.8555
1750	0.8518
1741	0.8437
1732	0.7686
1723	0.5187
1714	0.2928
1705	0.1173
1696	0.0396
1687	0.5183
1678	0.6493
1669	0.6935
1660	0.7117
1651	0.7433
1642	0.7395
1633	0.6938
1624	0.7095
1615	0.7147
1606	0.4102
1597	0.3202
1588	0.5419
1579	0.6007
1570	0.7425
1561	0.7854
1552	0.8091
1543	0.8202
1534	0.8215
1525	0.7682
1516	0.3684
1507	0.2799
1498	0.3996
1489	0.3946
1480	0.4685
1471	0.5033
1462	0.424
1453	0.4198
1444	0.3282
1435	0.5231
1426	0.6332
1417	0.4643
1408	0.4495
1399	0.5265
1390	0.5385
1381	0.1477
1372	0.371
1363	0.5008
1354	0.5947
1345	0.6528
1336	0.6615
1327	0.5588
1318	0.5048
1309	0.4816
1300	0.4522
1291	0.202
1282	0.4326
1273	0.4959
1264	0.6503
1255	0.7078
1246	0.738
1237	0.7594
1228	0.7565
1219	0.7235
1210	0.7122
1201	0.7558
1192	0.7197
1183	0.7643
1174	0.5935
1165	0.7004
1156	0.7258
1147	0.7835
1138	0.816
1129	0.8058
1120	0.7735
1111	0.804
1102	0.7311
1093	0.6786
1084	0.6833
1075	0.7375
1066	0.7291
1057	0.8115
1048	0.6325
1039	0.751
1030	0.7744
1021	0.7949
1012	0.8097
1003	0.6337
994	0.6965
985	0.7765
976	0.6794
967	0.7822
958	0.8034
949	0.7318
940	0.7856
931	0.8242
922	0.8375
913	0.8128
904	0.8395
895	0.8506
886	0.8286
877	0.8225
868	0.8593
859	0.8642
850	0.8664
841	0.8663
832	0.8675
823	0.8725
814	0.8685
805	0.8783
796	0.8751
787	0.8808
778	0.879
769	0.8712
760	0.7871
751	0.635
742	0.4659
733	0.7982
724	0.8006
715	0.8501
706	0.8509
697	0.6451
688	0.8792
679	0.8903
670	0.8933
661	0.8944
652	0.8874
643	0.7284
634	0.8661
625	0.8697
616	0.8701
607	0.8391
598	0.8604
589	0.8621
580	0.8345
571	0.7537
562	0.8282
553	0.849
544	0.8293
535	0.7704
526	0.8128
517	0.7867
508	0.8265
499	0.8454
490	0.8468
481	0.8478
472	0.8491
