Infrared Spectrum: COLCHICEINE
Formula: C21 H23 N O6
CAS: 102491-69-0
State: SOLUTION (7% IN CHCl3)
Class: COBLENTZ
Instrument: PERKIN-ELMER
Sampling: TRANSMISSION
Path length: 0.010 CM
Resolution: 4
Origin: ABBOTT LABORATORIES - WASHBURN
MICROMETERS	TRANSMITTANCE
2.077	0.981
2.11668	0.983
2.15637	0.983
2.19605	0.981
2.23574	0.9861
2.27542	0.98
2.3151	0.9749
2.35479	0.976
2.39447	0.976
2.43416	0.9751
2.47384	0.985
2.51352	0.9881
2.55321	0.99
2.59289	0.99
2.63258	0.995
2.67226	0.993
2.71194	0.991
2.75163	0.9798
2.79131	0.9784
2.831	0.9758
2.87068	0.9345
2.91036	0.8918
2.95005	0.8048
2.98973	0.8253
3.02942	0.7592
3.0691	0.702
3.10878	0.725
3.14847	0.7572
3.18815	0.8002
3.22784	0.832
3.26752	0.8267
3.3072	0.7883
3.34689	0.6347
3.38657	0.5893
3.42626	0.586
3.46594	0.7289
3.50562	0.8118
3.54531	0.803
3.58499	0.9
3.62468	0.943
3.66436	0.9552
3.70404	0.966
3.74373	0.9732
3.78341	0.98
3.82309	0.981
3.86278	0.976
3.90246	0.9709
3.94215	0.965
3.98183	0.96
4.02151	0.955
4.0612	0.9349
4.10088	0.928
4.14057	0.9262
4.18025	0.9413
4.21993	0.965
4.25962	0.9651
4.2993	0.97
4.33899	0.966
4.37867	0.9596
4.41835	0.956
4.45804	0.951
4.49772	0.951
4.53741	0.95
4.57709	0.946
4.61677	0.946
4.65646	0.943
4.69614	0.943
4.73583	0.941
4.77551	0.9381
4.81519	0.9378
4.85488	0.936
4.89456	0.938
4.93425	0.935
4.97393	0.935
5.01361	0.928
5.0533	0.926
5.09298	0.9274
5.13267	0.931
5.17235	0.926
5.21203	0.928
5.25172	0.9308
5.2914	0.933
5.33109	0.9347
5.37077	0.9316
5.41045	0.926
5.45014	0.9256
5.48982	0.9174
5.52951	0.91
5.56919	0.91
5.60887	0.9102
5.64856	0.9103
5.68824	0.903
5.72793	0.892
5.76761	0.8787
5.80729	0.863
5.84698	0.8327
5.88666	0.6919
5.92635	0.4551
5.96603	0.31
6.00571	0.3566
6.0454	0.5125
6.08508	0.634
6.12477	0.5705
6.16445	0.3451
6.20413	0.2643
6.24382	0.2712
6.2835	0.3615
6.32319	0.5684
6.36287	0.5408
6.40255	0.4427
6.44224	0.3334
6.48192	0.2759
6.52161	0.295
6.56129	0.3106
6.60097	0.3484
6.64066	0.35
6.68034	0.2806
6.72003	0.1401
6.75971	0.1236
6.79939	0.1942
6.83908	0.2048
6.87876	0.1209
6.91845	0.1233
6.95813	0.2413
6.99781	0.3004
7.0375	0.3651
7.07718	0.4694
7.11686	0.4048
7.15655	0.289
7.19623	0.5556
7.23592	0.634
7.2756	0.5173
7.31528	0.4444
7.35497	0.4025
7.39465	0.3889
7.43434	0.2211
7.47402	0.5135
7.5137	0.5158
7.55339	0.326
7.59307	0.2266
7.63276	0.4387
7.67244	0.4709
7.71212	0.3597
7.75181	0.3117
7.79149	0.231
7.83118	0.1311
7.87086	0.1051
7.91054	0.2033
7.95023	0.2691
7.98991	0.2877
8.0296	0.3436
8.06928	0.3229
8.10896	0.2667
8.14865	0.244
8.18833	0.2734
8.22802	0.3382
8.2677	0.377
8.30738	0.4308
8.34707	0.4899
8.38675	0.4728
8.42644	0.5427
8.46612	0.6556
8.5058	0.689
8.54549	0.6749
8.58517	0.6628
8.62486	0.7031
8.66454	0.6723
8.70422	0.5605
8.74391	0.4291
8.78359	0.233
8.82328	0.2444
8.86296	0.3818
8.90264	0.5445
8.94233	0.601
8.98201	0.6262
9.0217	0.6066
9.06138	0.5338
9.10106	0.3115
9.14075	0.2255
9.18043	0.2876
9.22012	0.4305
9.2598	0.5337
9.29948	0.5842
9.33917	0.6802
9.37885	0.7249
9.41854	0.737
9.45822	0.717
9.4979	0.6357
9.53759	0.5354
9.57727	0.503
9.61696	0.6089
9.65664	0.7549
9.69632	0.8086
9.73601	0.838
9.77569	0.8299
9.81538	0.7649
9.85506	0.6405
9.89474	0.5314
9.93443	0.4644
9.97411	0.5307
10.0138	0.654
10.0535	0.7305
10.0932	0.7168
10.1328	0.7023
10.1725	0.7246
10.2122	0.7684
10.2519	0.8067
10.2916	0.8281
10.3313	0.8335
10.371	0.8298
10.4106	0.8134
10.4503	0.8015
10.49	0.8128
10.5297	0.8409
10.5694	0.8574
10.6091	0.8677
10.6487	0.8668
10.6884	0.8485
10.7281	0.8183
10.7678	0.7588
10.8075	0.7458
10.8472	0.762
10.8868	0.7537
10.9265	0.75
10.9662	0.764
11.0059	0.7611
11.0456	0.7418
11.0853	0.7491
11.1249	0.7914
11.1646	0.8286
11.2043	0.8577
11.244	0.8798
11.2837	0.882
11.3234	0.887
11.3631	0.89
11.4027	0.89
11.4424	0.8869
11.4821	0.8588
11.5218	0.8204
11.5615	0.7562
11.6012	0.6773
11.6408	0.6772
11.6805	0.7575
11.7202	0.795
11.7599	0.7511
11.7996	0.6734
11.8393	0.6348
11.8789	0.6943
11.9186	0.7659
11.9583	0.785
11.998	0.779
12.0377	0.7838
12.0774	0.802
12.117	0.8409
12.1567	0.8562
12.1964	0.8757
12.2361	0.885
12.2758	0.8879
12.3155	0.89
12.3551	0.8885
12.3948	0.89
12.4345	0.8791
12.4742	0.8511
12.5139	0.8402
12.5536	0.843
12.5933	0.852
12.6329	0.853
12.6726	0.852
12.7123	0.8524
12.752	0.858
12.7917	0.865
12.8314	0.8967
12.871	0.904
12.9107	0.92
12.9504	0.9318
12.9901	0.9415
13.0298	0.948
13.0695	0.9561
13.1091	0.9697
13.1488	0.9775
13.1885	0.981
13.2282	0.9893
13.2679	1
13.3076	1.0094
13.3472	1.009
13.3869	1.013
13.4266	1.0155
13.4663	1.018
13.506	1.0186
13.5457	1.0105
13.5854	1.0133
13.625	1.021
13.6647	1.0232
13.7044	1.019
13.7441	1.015
13.7838	1.0027
13.8235	0.9838
13.8631	0.9523
13.9028	0.9118
13.9425	0.855
13.9822	0.8144
14.0219	0.7611
14.0616	0.7286
14.1012	0.7013
14.1409	0.6737
14.1806	0.6642
14.2203	0.664
14.26	0.6666
14.2997	0.672
14.3393	0.676
14.379	0.6811
14.4187	0.6919
14.4584	0.6969
14.4981	0.7235
14.5378	0.7346
14.5775	0.7379
14.6171	0.7493
14.6568	0.7623
14.6965	0.777
14.7362	0.779
14.7759	0.788
14.8156	0.797
14.8552	0.799
14.8949	0.794
14.9346	0.79
14.9743	0.7851
15.014	0.7661
15.0537	0.7228
15.0933	0.6543
15.133	0.6611
15.1727	0.709
15.2124	0.7678
15.2521	0.8018
15.2918	0.8278
15.3314	0.838
15.3711	0.8474
15.4108	0.8536
15.4505	0.855
