Infrared Spectrum: PHOSPHONIC ACID, PHENYL-, DIBUTYL ESTER
Formula: C14 H23 O3 P
CAS: 1024-34-6
Boiling point: 128-132 C AT 1 mmHg
Class: COBLENTZ
Instrument: Not specified, most likely a prism, grating, or hybrid spectrometer.
Sampling: TRANSMISSION
Path length: SMEAR
Resolution: 4
Origin: TENNESSEE EASTMAN COMPANY, RESEARCH LABORATORIES
MICROMETERS	TRANSMITTANCE
2.066	0.911
2.10602	0.914
2.14604	0.923
2.18607	0.929
2.22609	0.931
2.26611	0.931
2.30613	0.933
2.34615	0.934
2.38618	0.936
2.4262	0.936
2.46622	0.936
2.50624	0.936
2.54626	0.934
2.58628	0.936
2.62631	0.938
2.66633	0.938
2.70635	0.938
2.74637	0.938
2.78639	0.938
2.82642	0.936
2.86644	0.934
2.90646	0.933
2.94648	0.933
2.9865	0.934
3.02653	0.933
3.06655	0.934
3.10657	0.936
3.14659	0.936
3.18661	0.934
3.22663	0.934
3.26666	0.919
3.30668	0.861
3.3467	0.769
3.38672	0.375
3.42674	0.517
3.46677	0.562
3.50679	0.739
3.54681	0.866
3.58683	0.903
3.62685	0.906
3.66688	0.908
3.7069	0.914
3.74692	0.929
3.78694	0.934
3.82696	0.934
3.86699	0.934
3.90701	0.936
3.94703	0.939
3.98705	0.939
4.02707	0.939
4.06709	0.939
4.10712	0.939
4.14714	0.941
4.18716	0.943
4.22718	0.943
4.2672	0.936
4.30723	0.926
4.34725	0.926
4.38727	0.934
4.42729	0.938
4.46731	0.939
4.50734	0.941
4.54736	0.941
4.58738	0.941
4.6274	0.943
4.66742	0.943
4.70744	0.944
4.74747	0.944
4.78749	0.944
4.82751	0.944
4.86753	0.946
4.90755	0.946
4.94758	0.946
4.9876	0.946
5.02762	0.944
5.06764	0.939
5.10766	0.936
5.14769	0.936
5.18771	0.936
5.22773	0.931
5.26775	0.928
5.30777	0.926
5.3478	0.926
5.38782	0.926
5.42784	0.924
5.46786	0.919
5.50788	0.921
5.5479	0.921
5.58793	0.919
5.62795	0.919
5.66797	0.919
5.70799	0.919
5.74801	0.921
5.78804	0.921
5.82806	0.919
5.86808	0.919
5.9081	0.911
5.94812	0.904
5.98815	0.901
6.02817	0.903
6.06819	0.906
6.10821	0.903
6.14823	0.909
6.18825	0.911
6.22828	0.909
6.2683	0.863
6.30832	0.896
6.34834	0.918
6.38836	0.921
6.42839	0.908
6.46841	0.906
6.50843	0.901
6.54845	0.899
6.58847	0.893
6.6285	0.879
6.66852	0.873
6.70854	0.809
6.74856	0.747
6.78858	0.644
6.82861	0.622
6.86863	0.696
6.90865	0.651
6.94867	0.617
6.98869	0.804
7.02871	0.851
7.06874	0.861
7.10876	0.861
7.14878	0.813
7.1888	0.754
7.22882	0.737
7.26885	0.771
7.30887	0.844
7.34889	0.861
7.38891	0.866
7.42893	0.873
7.46896	0.874
7.50898	0.873
7.549	0.873
7.58902	0.863
7.62904	0.821
7.66907	0.806
7.70909	0.794
7.74911	0.792
7.78913	0.724
7.82915	0.634
7.86917	0.489
7.9092	0.37
7.94922	0.265
7.98924	0.232
8.02926	0.312
8.06928	0.47
8.10931	0.542
8.14933	0.696
8.18935	0.781
8.22937	0.814
8.26939	0.833
8.30942	0.838
8.34944	0.844
8.38946	0.846
8.42948	0.848
8.4695	0.838
8.50952	0.833
8.54955	0.809
8.58957	0.786
8.62959	0.761
8.66961	0.707
8.70963	0.679
8.74966	0.585
8.78968	0.362
8.8297	0.295
8.86972	0.535
8.90974	0.642
8.94977	0.686
8.98979	0.721
9.02981	0.734
9.06983	0.736
9.10985	0.734
9.14988	0.709
9.1899	0.641
9.22992	0.522
9.26994	0.404
9.30996	0.333
9.34998	0.305
9.39001	0.3
9.43003	0.307
9.47005	0.33
9.51007	0.335
9.55009	0.323
9.59012	0.312
9.63014	0.285
9.67016	0.248
9.71018	0.21
9.7502	0.185
9.79023	0.183
9.83025	0.191
9.87027	0.232
9.91029	0.253
9.95031	0.265
9.99033	0.267
10.0304	0.265
10.0704	0.265
10.1104	0.252
10.1504	0.232
10.1904	0.217
10.2305	0.212
10.2705	0.218
10.3105	0.277
10.3505	0.362
10.3906	0.417
10.4306	0.43
10.4706	0.455
10.5106	0.522
10.5506	0.577
10.5907	0.634
10.6307	0.689
10.6707	0.729
10.7107	0.761
10.7508	0.774
10.7908	0.784
10.8308	0.791
10.8708	0.791
10.9108	0.786
10.9509	0.751
10.9909	0.691
11.0309	0.646
11.0709	0.627
11.1109	0.622
11.151	0.626
11.191	0.639
11.231	0.652
11.271	0.669
11.3111	0.692
11.3511	0.724
11.3911	0.759
11.4311	0.789
11.4711	0.804
11.5112	0.809
11.5512	0.809
11.5912	0.801
11.6312	0.781
11.6713	0.756
11.7113	0.741
11.7513	0.717
11.7913	0.696
11.8313	0.677
11.8714	0.669
11.9114	0.667
11.9514	0.667
11.9914	0.667
12.0315	0.667
12.0715	0.671
12.1115	0.676
12.1515	0.679
12.1915	0.682
12.2316	0.686
12.2716	0.687
12.3116	0.686
12.3516	0.682
12.3916	0.662
12.4317	0.636
12.4717	0.627
12.5117	0.624
12.5517	0.624
12.5918	0.624
12.6318	0.626
12.6718	0.626
12.7118	0.629
12.7518	0.647
12.7919	0.674
12.8319	0.707
12.8719	0.734
12.9119	0.764
12.952	0.774
12.992	0.774
13.032	0.761
13.072	0.731
13.112	0.669
13.1521	0.614
13.1921	0.554
13.2321	0.517
13.2721	0.502
13.3122	0.509
13.3522	0.554
13.3922	0.592
13.4322	0.599
13.4722	0.587
13.5123	0.552
13.5523	0.525
13.5923	0.522
13.6323	0.535
13.6723	0.582
13.7124	0.652
13.7524	0.701
13.7924	0.729
13.8324	0.746
13.8725	0.749
13.9125	0.749
13.9525	0.744
13.9925	0.724
14.0325	0.699
14.0726	0.681
14.1126	0.664
14.1526	0.646
14.1926	0.622
14.2327	0.577
14.2727	0.517
14.3127	0.479
14.3527	0.449
14.3927	0.449
14.4328	0.514
14.4728	0.595
14.5128	0.681
14.5528	0.732
14.5929	0.776
14.6329	0.794
14.6729	0.803
14.7129	0.808
14.7529	0.809
14.793	0.809
14.833	0.809
14.873	0.809
14.913	0.809
14.953	0.809
14.9931	0.809
15.0331	0.808
15.0731	0.808
15.1131	0.809
15.1532	0.809
15.1932	0.811
15.2332	0.811
15.2732	0.811
15.3132	0.811
15.3533	0.811
15.3933	0.811
15.4333	0.809
15.4733	0.809
15.5134	0.809
15.5534	0.806
15.5934	0.804
15.6334	0.803
15.6734	0.801
15.7135	0.799
15.7535	0.797
15.7935	0.796
15.8335	0.792
15.8736	0.787
15.9136	0.784
15.9536	0.782
15.9936	0.782
