Infrared Spectrum: Heptachlor epoxide
Formula: C 10 H 5 Cl 7 O
CAS: 1024-57-3
State: gas
Instrument: HP-GC/MS/IRD
Origin: NIST Mass Spectrometry Data Center
1/CM	ABSORBANCE
550	0.0007952
562	0.0007448
574	0.0040072
586	0.0013888
598	0.0001632
610	0.0001752
622	0.0006104
634	9.44e-05
646	0.0001552
658	0.0006208
670	0.0025496
682	0.0065264
694	0.0034176
706	0.0009992
718	0.000412
730	0.0002504
742	0.0002408
754	0.000272
766	0.0003056
778	0.0009824
790	0.0029344
802	0.0040104
814	0.0025576
826	0.0037544
838	0.0056552
850	0.0052688
862	0.0073656
874	0.0015448
886	0.0020888
898	0.0027632
910	0.0041904
922	0.0013176
934	0.000764
946	0.0007912
958	0.0004688
970	0.0003224
982	0.0005088
994	0.0012
1006	0.0022232
1018	0.0018656
1030	0.0030944
1042	0.0059528
1054	0.0058568
1066	0.00456
1078	0.002612
1090	0.0027328
1102	0.0026736
1114	0.0008944
1126	0.0006568
1138	0.0005248
1150	0.0011672
1162	0.003636
1174	0.002248
1186	0.0005424
1198	0.000444
1210	0.0010872
1222	0.0015296
1234	0.0021296
1246	0.003304
1258	0.0036984
1270	0.001884
1282	0.0013184
1294	0.0015416
1306	0.000624
1318	0.0001936
1330	0.0002192
1342	0.0001208
1354	0.00012
1366	0.0001936
1378	0.0006224
1390	0.0017048
1402	0.0005944
1414	0.000164
1426	6.32e-05
1438	4.64e-05
1450	3.04e-05
1462	4.48e-05
1474	8.24e-05
1486	3.68e-05
1498	4e-05
1510	1.68e-05
1522	2.56e-05
1534	2e-05
1546	5.6e-06
1558	8.32e-05
1570	0.000252
1582	0.0005856
1594	0.0024912
1606	0.0037888
1618	0.0005144
1630	0.0001664
1642	9.44e-05
1654	5.76e-05
1666	7.2e-05
1678	6.4e-05
1690	6.64e-05
1702	4e-05
1714	2.8e-05
1726	3.28e-05
1738	4.24e-05
1750	4.32e-05
1762	4.88e-05
1774	6.4e-05
1786	5.2e-05
1798	3.2e-05
1810	3.12e-05
1822	2.8e-05
1834	1.92e-05
1846	4.72e-05
1858	2.4e-05
1870	4.4e-05
1882	6.96e-05
1894	6.72e-05
1906	7.04e-05
1918	4.88e-05
1930	6.88e-05
1942	4.64e-05
1954	6.64e-05
1966	6.16e-05
1978	5.44e-05
1990	6.72e-05
2002	4.4e-05
2014	5.04e-05
2026	4.72e-05
2038	8.72e-05
2050	9.28e-05
2062	8.48e-05
2074	7.76e-05
2086	8.32e-05
2098	7.68e-05
2110	8.16e-05
2122	0.0001072
2134	0.000104
2146	8.48e-05
2158	0.000112
2170	0.0001144
2182	0.0001008
2194	7.84e-05
2206	7.6e-05
2218	9.76e-05
2230	9.68e-05
2242	7.36e-05
2254	6.4e-05
2266	7.04e-05
2278	7.76e-05
2290	7.92e-05
2302	8.96e-05
2314	8.96e-05
2326	0.000104
2338	0.0001056
2350	8.64e-05
2362	7.52e-05
2374	8.64e-05
2386	9.68e-05
2398	9.04e-05
2410	9.04e-05
2422	9.76e-05
2434	9.76e-05
2446	0.000112
2458	0.0001096
2470	8.96e-05
2482	7.04e-05
2494	0.0001008
2506	0.000104
2518	9.44e-05
2530	0.0001056
2542	0.0001104
2554	9.76e-05
2566	7.52e-05
2578	0.0001128
2590	0.0001336
2602	0.0001176
2614	9.84e-05
2626	7.76e-05
2638	8.96e-05
2650	9.52e-05
2662	6.24e-05
2674	0.0001104
2686	0.0001312
2698	0.0001168
2710	9.92e-05
2722	0.0001
2734	0.0001192
2746	8.16e-05
2758	9.36e-05
2770	9.28e-05
2782	0.000128
2794	0.0001056
2806	9.84e-05
2818	8.88e-05
2830	0.0001096
2842	9.12e-05
2854	7.2e-05
2866	8.32e-05
2878	0.0001024
2890	0.0001336
2902	0.0001312
2914	0.0001192
2926	0.0001064
2938	0.0001104
2950	0.0001216
2962	0.0001784
2974	0.0004368
2986	0.0002272
2998	0.000152
3010	0.0001344
3022	0.0002328
3034	0.0010208
3046	0.0018016
3058	0.00038
3070	0.0001352
3082	0.000112
3094	0.0001184
3106	0.0001128
3118	8.72e-05
3130	8.48e-05
3142	8e-05
3154	0.0001
3166	0.000144
3178	9.84e-05
3190	0.0001008
3202	0.0001288
3214	9.6e-05
3226	0.0001048
3238	0.0001288
3250	8.8e-05
3262	7.04e-05
3274	0.00014
3286	0.0001104
3298	0.0001336
3310	5.68e-05
3322	0.0001328
3334	0.0001056
3346	8.4e-05
3358	0.0001336
3370	9.28e-05
3382	0.00012
3394	0.000144
3406	0.0001016
3418	0.0001072
3430	0.0001344
3442	9.92e-05
3454	0.000144
3466	0.0001656
3478	0.0001816
3490	0.0001512
3502	0.0001816
3514	0.0001192
3526	0.0001288
3538	0.000172
3550	0.0001512
3562	0.0001488
3574	0.0001424
3586	0.0001336
3598	0.00014
3610	0.000156
3622	0.0001936
3634	0.0001288
3646	0.0001136
3658	0.0001472
3670	0.0001336
3682	9.84e-05
3694	9.12e-05
3706	8.72e-05
3718	0.000152
3730	0.0001496
3742	0.0001744
3754	0.0001272
3766	0.0001304
3778	0.000128
3790	0.0001416
3802	0.0001912
3814	0.0001632
3826	0.0001256
3838	0.0001736
