Infrared Spectrum: CARBAMIC ACID, N-(2-PHENYL-2-PROPYL), METHYL ESTER
Formula: C11 H15 N O2
CAS: 102414-20-0
State: SOLUTION (7% IN CHCl3)
Class: COBLENTZ
Instrument: PERKIN-ELMER
Sampling: TRANSMISSION
Path length: 0.010 CM CELL
Resolution: 4
Origin: ABBOTT LABORATORIES - WASHBURN
MICROMETERS	TRANSMITTANCE
2.045	0.918
2.07798	0.92
2.11096	0.921
2.14394	0.923
2.17692	0.926
2.2099	0.926
2.24288	0.923
2.27586	0.9111
2.30884	0.9248
2.34182	0.936
2.3748	0.9261
2.40778	0.923
2.44076	0.925
2.47374	0.925
2.50672	0.931
2.5397	0.9349
2.57268	0.941
2.60566	0.9459
2.63864	0.9479
2.67162	0.948
2.7046	0.9459
2.73758	0.948
2.77056	0.951
2.80354	0.9345
2.83652	0.9078
2.8695	0.8496
2.90248	0.5213
2.93546	0.8179
2.96844	0.84
3.00142	0.8504
3.0344	0.8731
3.06738	0.8921
3.10036	0.9051
3.13334	0.9129
3.16632	0.9029
3.1993	0.8864
3.23228	0.8176
3.26526	0.7597
3.29824	0.6628
3.33122	0.509
3.3642	0.5235
3.39718	0.5946
3.43016	0.6992
3.46314	0.7571
3.49612	0.8103
3.5291	0.8731
3.56208	0.908
3.59506	0.928
3.62804	0.93
3.66102	0.931
3.69401	0.931
3.72699	0.936
3.75997	0.936
3.79295	0.938
3.82593	0.938
3.85891	0.943
3.89189	0.951
3.92487	0.951
3.95785	0.955
3.99083	0.9531
4.02381	0.9411
4.05679	0.9331
4.08977	0.9231
4.12275	0.9229
4.15573	0.9379
4.18871	0.9548
4.22169	0.955
4.25467	0.951
4.28765	0.9499
4.32063	0.953
4.35361	0.958
4.38659	0.9609
4.41957	0.9601
4.45255	0.963
4.48553	0.9608
4.51851	0.951
4.55149	0.9579
4.58447	0.951
4.61745	0.951
4.65043	0.953
4.68341	0.9551
4.71639	0.961
4.74937	0.9611
4.78235	0.9581
4.81533	0.9599
4.84831	0.9529
4.88129	0.955
4.91427	0.951
4.94725	0.95
4.98023	0.951
5.01321	0.9479
5.04619	0.9404
5.07917	0.9302
5.11215	0.9186
5.14513	0.932
5.17811	0.9421
5.21109	0.945
5.24407	0.9368
5.27705	0.9243
5.31003	0.911
5.34301	0.9231
5.37599	0.93
5.40897	0.9215
5.44195	0.909
5.47493	0.8855
5.50791	0.8637
5.54089	0.8667
5.57387	0.878
5.60685	0.8629
5.63983	0.8233
5.67281	0.715
5.70579	0.4257
5.73877	0.1293
5.77175	0.0489
5.80473	0.034
5.83771	0.1233
5.87069	0.2452
5.90367	0.342
5.93665	0.4991
5.96963	0.6864
6.00261	0.7753
6.03559	0.7983
6.06857	0.8325
6.10155	0.8455
6.13453	0.848
6.16751	0.8431
6.20049	0.8244
6.23347	0.7832
6.26645	0.8335
6.29943	0.812
6.33241	0.8291
6.36539	0.8136
6.39837	0.7819
6.43135	0.756
6.46433	0.7198
6.49731	0.6915
6.53029	0.5851
6.56327	0.4462
6.59625	0.2135
6.62923	0.0989
6.66221	0.066
6.69519	0.0719
6.72817	0.3408
6.76115	0.4688
6.79413	0.451
6.82711	0.365
6.86009	0.3022
6.89308	0.3162
6.92606	0.2972
6.95904	0.4929
6.99202	0.6005
7.025	0.6742
7.05798	0.7426
7.09096	0.7844
7.12394	0.792
7.15692	0.7877
7.1899	0.7312
7.22288	0.3807
7.25586	0.5201
7.28884	0.6086
7.32182	0.355
7.3548	0.3917
7.38778	0.5196
7.42076	0.6387
7.45374	0.7205
7.48672	0.7557
7.5197	0.7779
7.55268	0.7858
7.58566	0.789
7.61864	0.787
7.65162	0.7642
7.6846	0.7522
7.71758	0.7205
7.75056	0.6623
7.78354	0.5924
7.81652	0.4894
7.8495	0.3791
7.88248	0.309
7.91546	0.1952
7.94844	0.1445
7.98142	0.1395
8.0144	0.1537
8.04738	0.1511
8.08036	0.159
8.11334	0.1834
8.14632	0.212
8.1793	0.2393
8.21228	0.2664
8.24526	0.2951
8.27824	0.3125
8.31122	0.3404
8.3442	0.4068
8.37718	0.5155
8.41016	0.5379
8.44314	0.519
8.47612	0.5669
8.5091	0.6344
8.54208	0.6225
8.57506	0.4665
8.60804	0.3831
8.64102	0.5149
8.674	0.6728
8.70698	0.7419
8.73996	0.7856
8.77294	0.805
8.80592	0.818
8.8389	0.8198
8.87188	0.8133
8.90486	0.8039
8.93784	0.7779
8.97082	0.6931
9.0038	0.5684
9.03678	0.46
9.06976	0.486
9.10274	0.4001
9.13572	0.1852
9.1687	0.1136
9.20168	0.1178
9.23466	0.1997
9.26764	0.2915
9.30062	0.3654
9.3336	0.54
9.36658	0.6785
9.39956	0.7596
9.43254	0.7959
9.46552	0.8273
9.4985	0.8334
9.53148	0.8371
9.56446	0.8433
9.59744	0.848
9.63042	0.8371
9.6634	0.8109
9.69638	0.6218
9.72936	0.6373
9.76234	0.7687
9.79532	0.7985
9.8283	0.807
9.86128	0.8124
9.89426	0.8234
9.92724	0.83
9.96022	0.83
9.9932	0.823
10.0262	0.822
10.0592	0.818
10.0921	0.8163
10.1251	0.8268
10.1581	0.845
10.1911	0.8542
10.2241	0.8623
10.257	0.8673
10.29	0.8624
10.323	0.8358
10.356	0.7718
10.389	0.7402
10.4219	0.7418
10.4549	0.7739
10.4879	0.7912
10.5209	0.8027
10.5539	0.8022
10.5868	0.781
10.6198	0.7588
10.6528	0.747
10.6858	0.7546
10.7188	0.7701
10.7517	0.769
10.7847	0.7652
10.8177	0.7636
10.8507	0.7792
10.8837	0.7896
10.9166	0.794
10.9496	0.7835
10.9826	0.7746
11.0156	0.785
11.0486	0.8219
11.0815	0.8375
11.1145	0.845
11.1475	0.848
11.1805	0.845
11.2135	0.8383
11.2464	0.835
11.2794	0.8391
11.3124	0.854
11.3454	0.8682
11.3784	0.8773
11.4113	0.8823
11.4443	0.8884
11.4773	0.8932
11.5103	0.8881
11.5433	0.893
11.5762	0.893
11.6092	0.8916
11.6422	0.8941
11.6752	0.897
11.7082	0.9
11.7412	0.8985
11.7741	0.895
11.8071	0.8866
11.8401	0.887
11.8731	0.8881
11.9061	0.892
11.939	0.8947
11.972	0.8966
12.005	0.898
12.038	0.9006
12.071	0.905
12.1039	0.9069
12.1369	0.911
12.1699	0.913
12.2029	0.916
12.2359	0.9163
12.2688	0.92
12.3018	0.921
12.3348	0.918
12.3678	0.913
12.4008	0.908
12.4337	0.9019
12.4667	0.901
12.4997	0.901
12.5327	0.8993
12.5657	0.887
12.5986	0.887
12.6316	0.887
12.6646	0.883
12.6976	0.8849
12.7306	0.888
12.7635	0.888
12.7965	0.885
12.8295	0.892
12.8625	0.893
12.8955	0.895
12.9284	0.9004
12.9614	0.908
12.9944	0.9132
13.0274	0.916
13.0604	0.9199
13.0933	0.92
13.1263	0.92
13.1593	0.92
13.1923	0.921
13.2253	0.9241
13.2582	0.926
13.2912	0.928
13.3242	0.925
13.3572	0.93
13.3902	0.9227
13.4231	0.916
13.4561	0.916
13.4891	0.9151
13.5221	0.916
13.5551	0.918
13.588	0.9118
13.621	0.911
13.654	0.911
13.687	0.911
13.72	0.91
13.7529	0.9047
13.7859	0.8999
13.8189	0.9
13.8519	0.903
13.8849	0.905
13.9178	0.9015
13.9508	0.8973
13.9838	0.88
14.0168	0.8649
14.0498	0.8476
14.0827	0.8342
14.1157	0.8065
14.1487	0.7815
14.1817	0.7471
14.2147	0.6624
14.2476	0.566
14.2806	0.4649
14.3136	0.3621
14.3466	0.2916
14.3796	0.2771
14.4125	0.3335
14.4455	0.4342
14.4785	0.5597
14.5115	0.6489
14.5445	0.7175
14.5774	0.7803
14.6104	0.8
14.6434	0.8129
14.6764	0.8278
14.7094	0.8415
14.7423	0.8486
14.7753	0.8574
14.8083	0.86
14.8413	0.86
14.8743	0.858
14.9072	0.863
14.9402	0.8619
14.9732	0.8551
