Infrared Spectrum: 3,3'(p-PHENYLENE DIIMINO) DIPHTHALIDE
Formula: C22 H16 N2 O4
CAS: 102468-13-3
State: SOLID (NUJOL MULL)
Class: COBLENTZ
Instrument: Not specified, most likely a prism, grating, or hybrid spectrometer.
Sampling: TRANSMISSION
Resolution: 4
Origin: DOW CHEMICAL COMPANY
MICROMETERS	TRANSMITTANCE
2.025	0.653
2.05999	0.663
2.09497	0.665
2.12996	0.67
2.16495	0.677
2.19994	0.68
2.23492	0.679
2.26991	0.669
2.3049	0.667
2.33989	0.672
2.37487	0.682
2.40986	0.687
2.44485	0.692
2.47984	0.707
2.51482	0.713
2.54981	0.718
2.5848	0.726
2.61979	0.731
2.65477	0.733
2.68976	0.736
2.72475	0.741
2.75974	0.741
2.79472	0.733
2.82971	0.731
2.8647	0.727
2.89969	0.717
2.93467	0.687
2.96966	0.506
3.00465	0.466
3.03964	0.665
3.07462	0.692
3.10961	0.701
3.1446	0.699
3.17959	0.69
3.21457	0.702
3.24956	0.682
3.28455	0.633
3.31953	0.592
3.35452	0.454
3.38951	0.109
3.4245	0.045
3.45948	0.085
3.49447	0.14
3.52946	0.551
3.56445	0.704
3.59943	0.758
3.63442	0.757
3.66941	0.757
3.7044	0.767
3.73938	0.77
3.77437	0.777
3.80936	0.783
3.84435	0.793
3.87933	0.802
3.91432	0.812
3.94931	0.82
3.9843	0.825
4.01928	0.829
4.05427	0.831
4.08926	0.83
4.12425	0.836
4.15923	0.837
4.19422	0.834
4.22921	0.831
4.2642	0.836
4.29918	0.841
4.33417	0.85
4.36916	0.851
4.40415	0.853
4.43913	0.855
4.47412	0.856
4.50911	0.858
4.54409	0.863
4.57908	0.864
4.61407	0.859
4.64906	0.855
4.68404	0.861
4.71903	0.869
4.75402	0.869
4.78901	0.87
4.82399	0.873
4.85898	0.87
4.89397	0.87
4.92896	0.87
4.96394	0.874
4.99893	0.875
5.03392	0.866
5.06891	0.876
5.10389	0.865
5.13888	0.855
5.17387	0.868
5.20886	0.868
5.24384	0.873
5.27883	0.876
5.31382	0.878
5.34881	0.868
5.38379	0.861
5.41878	0.86
5.45377	0.87
5.48876	0.878
5.52374	0.869
5.55873	0.846
5.59372	0.827
5.62871	0.795
5.66369	0.702
5.69868	0.508
5.73367	0.26
5.76865	0.099
5.80364	0.096
5.83863	0.298
5.87362	0.575
5.9086	0.719
5.94359	0.741
5.97858	0.778
6.01357	0.801
6.04855	0.801
6.08354	0.8
6.11853	0.78
6.15352	0.758
6.1885	0.698
6.22349	0.718
6.25848	0.788
6.29347	0.812
6.32845	0.797
6.36344	0.75
6.39843	0.511
6.43342	0.231
6.4684	0.233
6.50339	0.472
6.53838	0.366
6.57337	0.354
6.60835	0.623
6.64334	0.734
6.67833	0.752
6.71332	0.726
6.7483	0.611
6.78329	0.369
6.81828	0.232
6.85327	0.311
6.88825	0.424
6.92324	0.559
6.95823	0.623
6.99321	0.592
7.0282	0.663
7.06319	0.76
7.09818	0.771
7.13316	0.772
7.16815	0.744
7.20314	0.619
7.23813	0.494
7.27311	0.493
7.3081	0.505
7.34309	0.477
7.37808	0.554
7.41306	0.538
7.44805	0.569
7.48304	0.619
7.51803	0.597
7.55301	0.506
7.588	0.396
7.62299	0.391
7.65798	0.54
7.69296	0.508
7.72795	0.473
7.76294	0.33
7.79793	0.432
7.83291	0.576
7.8679	0.554
7.90289	0.482
7.93788	0.403
7.97286	0.359
8.00785	0.5
8.04284	0.67
8.07783	0.703
8.11281	0.684
8.1478	0.597
8.18279	0.424
8.21777	0.278
8.25276	0.435
8.28775	0.608
8.32274	0.701
8.35772	0.738
8.39271	0.722
8.4277	0.738
8.46269	0.711
8.49767	0.623
8.53266	0.505
8.56765	0.424
8.60264	0.523
8.63762	0.604
8.67261	0.657
8.7076	0.722
8.74259	0.767
8.77757	0.778
8.81256	0.781
8.84755	0.781
8.88254	0.776
8.91752	0.76
8.95251	0.734
8.9875	0.692
9.02249	0.636
9.05747	0.561
9.09246	0.435
9.12745	0.261
9.16244	0.277
9.19742	0.4
9.23241	0.403
9.2674	0.236
9.30239	0.157
9.33737	0.414
9.37236	0.584
9.40735	0.667
9.44233	0.732
9.47732	0.77
9.51231	0.782
9.5473	0.792
9.58228	0.798
9.61727	0.802
9.65226	0.807
9.68725	0.815
9.72223	0.822
9.75722	0.824
9.79221	0.795
9.8272	0.727
9.86218	0.708
9.89717	0.802
9.93216	0.831
9.96715	0.839
10.0021	0.841
10.0371	0.821
10.0721	0.822
10.1071	0.847
10.1421	0.854
10.1771	0.856
10.2121	0.859
10.247	0.86
10.282	0.858
10.317	0.856
10.352	0.853
10.387	0.847
10.422	0.841
10.457	0.849
10.492	0.858
10.5269	0.861
10.5619	0.863
10.5969	0.861
10.6319	0.851
10.6669	0.845
10.7019	0.846
10.7369	0.849
10.7719	0.85
10.8068	0.846
10.8418	0.819
10.8768	0.782
10.9118	0.783
10.9468	0.817
10.9818	0.834
11.0168	0.842
11.0518	0.845
11.0867	0.844
11.1217	0.837
11.1567	0.832
11.1917	0.826
11.2267	0.812
11.2617	0.795
11.2967	0.762
11.3317	0.729
11.3666	0.67
11.4016	0.611
11.4366	0.569
11.4716	0.5
11.5066	0.394
11.5416	0.302
11.5766	0.262
11.6116	0.271
11.6465	0.327
11.6815	0.434
11.7165	0.538
11.7515	0.6
11.7865	0.646
11.8215	0.684
11.8565	0.695
11.8915	0.698
11.9264	0.679
11.9614	0.644
11.9964	0.574
12.0314	0.491
12.0664	0.327
12.1014	0.226
12.1364	0.244
12.1714	0.413
12.2063	0.569
12.2413	0.59
12.2763	0.585
12.3113	0.639
12.3463	0.719
12.3813	0.765
12.4163	0.752
12.4513	0.716
12.4862	0.708
12.5212	0.766
12.5562	0.796
12.5912	0.809
12.6262	0.821
12.6612	0.832
12.6962	0.84
12.7312	0.842
12.7661	0.842
12.8011	0.842
12.8361	0.841
12.8711	0.834
12.9061	0.826
12.9411	0.815
12.9761	0.8
13.0111	0.783
13.046	0.77
13.081	0.761
13.116	0.75
13.151	0.724
13.186	0.678
13.221	0.601
13.256	0.493
13.291	0.355
13.3259	0.25
13.3609	0.222
13.3959	0.224
13.4309	0.226
13.4659	0.218
13.5009	0.267
13.5359	0.349
13.5709	0.443
13.6058	0.53
13.6408	0.581
13.6758	0.62
13.7108	0.649
13.7458	0.663
13.7808	0.672
13.8158	0.679
13.8508	0.683
13.8857	0.694
13.9207	0.702
13.9557	0.712
13.9907	0.718
14.0257	0.717
14.0607	0.709
14.0957	0.698
14.1307	0.678
14.1656	0.636
14.2006	0.572
14.2356	0.502
14.2706	0.453
14.3056	0.453
14.3406	0.488
14.3756	0.513
14.4105	0.51
14.4455	0.488
14.4805	0.468
14.5155	0.468
14.5505	0.5
14.5855	0.543
14.6205	0.58
14.6555	0.6
14.6904	0.614
14.7254	0.621
14.7604	0.624
14.7954	0.624
14.8304	0.624
14.8654	0.62
14.9004	0.605
14.9354	0.594
14.9703	0.594
15.0053	0.611
15.0403	0.609
15.0753	0.591
15.1103	0.581
15.1453	0.576
15.1803	0.571
15.2153	0.566
15.2502	0.561
15.2852	0.556
15.3202	0.55
15.3552	0.545
15.3902	0.538
15.4252	0.531
15.4602	0.522
15.4952	0.515
15.5301	0.505
15.5651	0.497
15.6001	0.488
15.6351	0.477
15.6701	0.469
15.7051	0.462
15.7401	0.454
15.7751	0.447
15.81	0.445
15.845	0.445
15.88	0.445
15.915	0.457
