Infrared Spectrum: Triallyl-s-triazine-2,4,6-(1H,3H,5H)-trione
Formula: C12 H15 N3 O3
CAS: 1025-15-6
State: SOLUTION (10% CCl4 FOR 3800-1335, 10% CS2 FOR 1335-400 CM^-^1)
Melting point: 20 C
Class: COBLENTZ III
Instrument: DOW KBr FOREPRISM-GRATING
Instrument parameters: BLAZED AT 3.5, 12.0, 20.0 MICRON AND CHANGED AT 5.0, 7.5, 14.9 MICRON
Sampling: TRANSMISSION
Path length: 0.011 CM, 0.011 CM
Resolution: 2
Origin: DOW CHEMICAL COMPANY
1/CM	TRANSMITTANCE
3784	0.9311
3775	0.9298
3766	0.9307
3757	0.9299
3748	0.9294
3739	0.9297
3730	0.9307
3721	0.9303
3712	0.93
3703	0.9294
3694	0.9238
3685	0.9153
3676	0.9115
3667	0.9137
3658	0.9159
3649	0.9174
3640	0.9189
3631	0.9212
3622	0.9201
3613	0.9185
3604	0.9171
3595	0.9167
3586	0.9159
3577	0.9141
3568	0.9025
3559	0.9002
3550	0.9013
3541	0.9015
3532	0.9015
3523	0.9
3514	0.9
3505	0.8999
3496	0.8996
3487	0.899
3478	0.8981
3469	0.8927
3460	0.8791
3451	0.8484
3442	0.8271
3433	0.8576
3424	0.8721
3415	0.878
3406	0.8806
3397	0.8679
3388	0.8354
3379	0.8281
3370	0.8479
3361	0.8627
3352	0.8736
3343	0.8808
3334	0.8849
3325	0.8867
3316	0.8869
3307	0.8854
3298	0.8827
3289	0.8813
3280	0.8808
3271	0.8818
3262	0.8814
3253	0.8808
3244	0.8796
3235	0.8798
3226	0.8777
3217	0.8788
3208	0.8766
3199	0.877
3190	0.8762
3181	0.8754
3172	0.8756
3163	0.8768
3154	0.8762
3145	0.8739
3136	0.8748
3127	0.8742
3118	0.8712
3109	0.8613
3100	0.8397
3091	0.538
3082	0.5768
3073	0.772
3064	0.8059
3055	0.8224
3046	0.8363
3037	0.8453
3028	0.7983
3019	0.729
3010	0.7516
3001	0.76
2992	0.7213
2983	0.6265
2974	0.7093
2965	0.6661
2956	0.5635
2947	0.6085
2938	0.7687
2929	0.7975
2920	0.8043
2911	0.8131
2902	0.8257
2893	0.8405
2884	0.8472
2875	0.8491
2866	0.8534
2857	0.8533
2848	0.8528
2839	0.8709
2830	0.8793
2821	0.8853
2812	0.8859
2803	0.8886
2794	0.8888
2785	0.887
2776	0.8765
2767	0.8628
2758	0.8778
2749	0.8907
2740	0.897
2731	0.9026
2722	0.9074
2713	0.9111
2704	0.9118
2695	0.909
2686	0.9074
2677	0.9073
2668	0.9088
2659	0.9064
2650	0.9008
2641	0.8903
2632	0.8834
2623	0.8855
2614	0.8897
2605	0.8908
2596	0.8942
2587	0.8991
2578	0.8991
2569	0.8946
2560	0.8873
2551	0.8897
2542	0.8968
2533	0.901
2524	0.9006
2515	0.8992
2506	0.8989
2497	0.9007
2488	0.9027
2479	0.9044
2470	0.9066
2461	0.9103
2452	0.91
2443	0.906
2434	0.8975
2425	0.8833
2416	0.8808
2407	0.8892
2398	0.893
2389	0.893
2380	0.8943
2371	0.8967
2362	0.8933
2353	0.9017
2344	0.9044
2335	0.905
2326	0.9119
2317	0.9149
2308	0.9139
2299	0.9088
2290	0.9065
2281	0.9019
2272	0.8975
2263	0.8943
2254	0.8947
2245	0.8983
2236	0.9011
2227	0.8999
2218	0.8973
2209	0.8994
2200	0.9045
2191	0.907
2182	0.9075
2173	0.9098
2164	0.9087
2155	0.9098
2146	0.9073
2137	0.8969
2128	0.8889
2119	0.8909
2110	0.8959
2101	0.8983
2092	0.8988
2083	0.8993
2074	0.8998
2065	0.9009
2056	0.9037
2047	0.9032
2038	0.904
2029	0.9041
2020	0.9042
2011	0.9018
2002	0.8921
1993	0.8584
1984	0.8661
1975	0.8662
1966	0.8738
1957	0.8925
1948	0.8789
1939	0.8739
1930	0.8694
1921	0.8662
1912	0.8715
1903	0.8763
1894	0.8659
1885	0.8449
1876	0.8136
1867	0.7834
1858	0.8043
1849	0.8184
1840	0.8239
1831	0.8192
1822	0.8155
1813	0.8114
1804	0.7965
1795	0.7766
1786	0.7386
1777	0.6806
1768	0.6164
1759	0.5614
1750	0.5199
1741	0.4593
1732	0.3408
1723	0.1816
1714	0.038
1705	0.0003
1696	0.0001
1687	0
1678	0.0116
1669	0.1147
1660	0.2526
1651	0.3346
1642	0.1478
1633	0.5908
1624	0.6615
1615	0.7003
1606	0.7382
1597	0.7603
1588	0.7711
1579	0.7749
1570	0.7663
1561	0.7455
1552	0.7262
1543	0.7059
1534	0.6636
1525	0.6016
1516	0.494
1507	0.4054
1498	0.4535
1489	0.4023
1480	0.1826
1471	0.0396
1462	0.0001
1453	0.0001
1444	0
1435	0.0823
1426	0.1284
1417	0.0924
1408	0.0154
1399	0.3857
1390	0.5474
1381	0.6186
1372	0.6211
1363	0.5074
1354	0.4734
1345	0.2491
1336	0.4846
1327	0.3994
1318	0.054
1309	0.3348
1300	0.5752
1291	0.5359
1282	0.5257
1273	0.7031
1264	0.7649
1255	0.79
1246	0.7986
1237	0.7844
1228	0.7861
1219	0.8153
1210	0.831
1201	0.8318
1192	0.8134
1183	0.8191
1174	0.828
1165	0.8289
1156	0.7991
1147	0.8339
1138	0.8376
1129	0.8477
1120	0.8195
1111	0.7058
1102	0.7265
1093	0.8094
1084	0.8332
1075	0.811
1066	0.8075
1057	0.8328
1048	0.8431
1039	0.846
1030	0.8417
1021	0.8307
1012	0.8051
1003	0.622
994	0.2764
985	0.2815
976	0.5675
967	0.7151
958	0.7235
949	0.6476
940	0.3734
931	0.0416
922	0.275
913	0.3616
904	0.5521
895	0.6782
886	0.6641
877	0.7381
868	0.8637
859	0.9016
850	0.9446
841	0.9303
832	0.924
823	0.9208
814	0.9199
805	0.9217
796	0.9053
787	0.8364
778	0.3931
769	0.1023
760	0.3646
751	0.7414
742	0.8164
733	0.8151
724	0.8835
715	0.9044
706	0.9039
697	0.8868
688	0.8399
679	0.678
670	0.5144
661	0.4519
652	0.4937
643	0.608
634	0.6911
625	0.7921
616	0.8517
607	0.8778
598	0.8933
589	0.9011
580	0.9024
571	0.8997
562	0.8874
553	0.856
544	0.7223
535	0.7463
526	0.809
517	0.8262
508	0.8116
499	0.754
490	0.7049
481	0.742
472	0.7995
463	0.7891
454	0.6908
445	0.6703
436	0.6709
427	0.6424
418	0.5532
409	0.3528
400	0.1767
391	0.1336
