Infrared Spectrum: INDOLE, 3-METHYL-2-PHENYL-
Formula: C15 H13 N
CAS: 10257-92-8
State: SOLUTION (10% CCl4 FOR 3800-1330, 10% CS2 FOR 1330-400 CM^-^1)
Melting point: 92 C
Class: COBLENTZ III
Instrument: DOW KBr FOREPRISM-GRATING
Instrument parameters: BLAZED AT 3.5, 12.0, 20.0 MICRON AND CHANGED AT 5.0, 7.5, 14.9 MICRON
Sampling: TRANSMISSION
Path length: 0.011 CM, 0.011 CM
Resolution: 2
Origin: DOW CHEMICAL COMPANY
1/CM	TRANSMITTANCE
389.641	0.177
398.47	0.185
407.298	0.226
416.127	0.252
424.956	0.28
433.785	0.284
442.613	0.368
451.442	0.552
460.271	0.605
469.1	0.639
477.928	0.655
486.757	0.481
495.586	0.416
504.415	0.694
513.243	0.778
522.072	0.765
530.901	0.319
539.73	0.831
548.558	0.851
557.387	0.856
566.216	0.842
575.044	0.621
583.873	0.78
592.702	0.869
601.531	0.872
610.359	0.869
619.188	0.871
628.017	0.876
636.846	0.862
645.674	0.824
654.503	0.788
663.332	0.768
672.161	0.735
680.989	0.762
689.818	0.534
698.647	0.057
707.475	0.65
716.304	0.756
725.133	0.538
733.962	0.387
742.79	0.007
751.619	0.524
760.448	0.524
769.277	0.038
778.105	0.752
786.934	0.809
795.763	0.807
804.592	0.742
813.42	0.75
822.249	0.75
831.078	0.722
839.907	0.662
848.735	0.621
857.564	0.604
866.393	0.648
875.221	0.708
884.05	0.771
892.879	0.788
901.708	0.735
910.536	0.6
919.365	0.631
928.194	0.788
937.023	0.806
945.851	0.806
954.68	0.795
963.509	0.792
972.338	0.806
981.166	0.798
989.995	0.798
998.824	0.791
1007.65	0.753
1016.48	0.795
1025.31	0.795
1034.14	0.577
1042.97	0.814
1051.8	0.827
1060.62	0.814
1069.45	0.676
1078.28	0.759
1087.11	0.832
1095.94	0.827
1104.77	0.806
1113.6	0.788
1122.43	0.6581
1131.25	0.819
1140.08	0.809
1148.91	0.7118
1157.74	0.681
1166.57	0.653
1175.4	0.75
1184.23	0.752
1193.06	0.796
1201.88	0.813
1210.71	0.81
1219.54	0.793
1228.37	0.67
1237.2	0.3908
1246.03	0.493
1254.86	0.768
1263.69	0.778
1272.51	0.716
1281.34	0.596
1290.17	0.689
1299	0.4659
1307.83	0.3631
1316.66	0.4272
1325.49	0.46
1334.32	0.167
1343.14	0.73
1351.97	0.795
1360.8	0.707
1369.63	0.5852
1378.46	0.7689
1387.29	0.786
1396.12	0.824
1404.95	0.814
1413.77	0.751
1422.6	0.654
1431.43	0.6311
1440.26	0.5429
1449.09	0.333
1457.92	0.086
1466.75	0.4052
1475.58	0.652
1484.4	0.456
1493.23	0.521
1502.06	0.667
1510.89	0.649
1519.72	0.614
1528.55	0.57
1537.38	0.483
1546.21	0.439
1555.03	0.444
1563.86	0.506
1572.69	0.512
1581.52	0.548
1590.35	0.585
1599.18	0.467
1608.01	0.3931
1616.84	0.779
1625.66	0.832
1634.49	0.847
1643.32	0.842
1652.15	0.82
1660.98	0.814
1669.81	0.823
1678.64	0.819
1687.47	0.84
1696.29	0.846
1705.12	0.836
1713.95	0.85
1722.78	0.853
1731.61	0.849
1740.44	0.835
1749.27	0.809
1758.1	0.805
1766.92	0.849
1775.75	0.86
1784.58	0.853
1793.41	0.822
1802.24	0.835
1811.07	0.85
1819.9	0.845
1828.72	0.849
1837.55	0.835
1846.38	0.854
1855.21	0.863
1864.04	0.851
1872.87	0.793
1881.7	0.813
1890.53	0.835
1899.35	0.855
1908.18	0.833
1917.01	0.82
1925.84	0.862
1934.67	0.862
1943.5	0.823
1952.33	0.842
1961.16	0.833
1969.98	0.871
1978.81	0.876
1987.64	0.876
1996.47	0.873
2005.3	0.882
2014.13	0.884
2022.96	0.884
2031.79	0.885
2040.61	0.885
2049.44	0.8859
2058.27	0.886
2067.1	0.8899
2075.93	0.89
2084.76	0.89
2093.59	0.891
2102.42	0.89
2111.24	0.8892
2120.07	0.887
2128.9	0.8898
2137.73	0.891
2146.56	0.889
2155.39	0.8874
2164.22	0.8874
2173.05	0.887
2181.87	0.889
2190.7	0.89
2199.53	0.8875
2208.36	0.885
2217.19	0.882
2226.02	0.88
2234.85	0.877
2243.68	0.873
2252.5	0.8737
2261.33	0.8701
2270.16	0.8703
2278.99	0.868
2287.82	0.871
2296.65	0.8674
2305.48	0.8894
2314.31	0.894
2323.13	0.894
2331.96	0.894
2340.79	0.894
2349.62	0.8945
2358.45	0.893
2367.28	0.8885
2376.11	0.873
2384.94	0.874
2393.76	0.8805
2402.59	0.885
2411.42	0.885
2420.25	0.885
2429.08	0.885
2437.91	0.881
2446.74	0.8766
2455.57	0.8626
2464.39	0.86
2473.22	0.8701
2482.05	0.875
2490.88	0.872
2499.71	0.872
2508.54	0.8763
2517.37	0.88
2526.2	0.884
2535.02	0.882
2543.85	0.8777
2552.68	0.8694
2561.51	0.868
2570.34	0.872
2579.17	0.871
2588	0.865
2596.82	0.8694
2605.65	0.877
2614.48	0.88
2623.31	0.8768
2632.14	0.8707
2640.97	0.867
2649.8	0.8675
2658.63	0.873
2667.45	0.872
2676.28	0.869
2685.11	0.873
2693.94	0.873
2702.77	0.8708
2711.6	0.8618
2720.43	0.846
2729.26	0.859
2738.08	0.8631
2746.91	0.873
2755.74	0.872
2764.57	0.863
2773.4	0.863
2782.23	0.864
2791.06	0.8591
2799.89	0.8462
2808.71	0.84
2817.54	0.837
2826.37	0.8332
2835.2	0.8109
2844.03	0.7055
2852.86	0.5456
2861.69	0.7207
2870.52	0.734
2879.34	0.7436
2888.17	0.7351
2897	0.6664
2905.83	0.5104
2914.66	0.5561
2923.49	0.5812
2932.32	0.5878
2941.15	0.6907
2949.97	0.6995
2958.8	0.695
2967.63	0.7107
2976.46	0.7756
2985.29	0.7866
2994.12	0.7565
3002.95	0.668
3011.78	0.5864
3020.6	0.5492
3029.43	0.5228
3038.26	0.4999
3047.09	0.3778
3055.92	0.4004
3064.75	0.5285
3073.58	0.5564
3082.41	0.6941
3091.23	0.8002
3100.06	0.8141
3108.89	0.8571
3117.72	0.871
3126.55	0.8725
3135.38	0.8765
3144.21	0.877
3153.04	0.877
3161.86	0.877
3170.69	0.8789
3179.52	0.877
3188.35	0.872
3197.18	0.8782
3206.01	0.8816
3214.84	0.882
3223.67	0.885
3232.49	0.887
3241.32	0.887
3250.15	0.8877
3258.98	0.886
3267.81	0.885
3276.64	0.882
3285.47	0.881
3294.3	0.88
3303.12	0.8767
3311.95	0.873
3320.78	0.8718
3329.61	0.869
3338.44	0.864
3347.27	0.8576
3356.1	0.8436
3364.92	0.8138
3373.75	0.7625
3382.58	0.6674
3391.41	0.5906
3400.24	0.5027
3409.07	0.4479
3417.9	0.4518
3426.73	0.499
3435.55	0.5329
3444.38	0.4747
3453.21	0.3638
3462.04	0.1929
3470.87	0.2329
3479.7	0.6984
3488.53	0.8331
3497.36	0.872
3506.18	0.881
3515.01	0.885
3523.84	0.8899
3532.67	0.8929
3541.5	0.893
3550.33	0.893
3559.16	0.8912
3567.99	0.887
3576.81	0.8978
3585.64	0.9
3594.47	0.8981
3603.3	0.898
3612.13	0.896
3620.96	0.899
3629.79	0.899
3638.62	0.899
3647.44	0.9038
3656.27	0.903
3665.1	0.9
3673.93	0.8998
3682.76	0.9
3691.59	0.9037
3700.42	0.904
3709.25	0.9047
3718.07	0.905
3726.9	0.907
3735.73	0.907
3744.56	0.905
3753.39	0.905
3762.22	0.905
3771.05	0.9086
3779.88	0.908
3788.7	0.908
