Infrared Spectrum: 2-Isopropyl-6-methylphenyl isocyanate
Formula: C 11 H 13 N O
CAS: 102561-43-3
State: gas
Origin: EPA-IR VAPOR PHASE LIBRARY
1/CM	ABSORBANCE
549.8	0.00563
559.445	0.0078
569.09	0.01097
578.734	0.0091
588.379	0.00596
598.024	0.00476
607.669	0.00423
617.313	0.00468
626.958	0.004
636.603	0.00132
646.248	0.0005375
655.893	0.0007648
665.537	0.0007364
675.182	0.001044
684.827	0.00196
694.472	0.00389
704.116	0.00502
713.761	0.00424
723.406	0.01113
733.051	0.04373
742.695	0.04457
752.34	0.01014
761.985	0.00585
771.63	0.02141
781.275	0.03065
790.919	0.00955
800.564	0.00178
810.209	0.00134
819.854	0.0011659
829.498	0.0010956
839.143	0.00255
848.788	0.00277
858.433	0.00155
868.078	0.0017
877.722	0.00295
887.367	0.00533
897.012	0.00795
906.657	0.01293
916.301	0.02324
925.946	0.03422
935.591	0.04126
945.236	0.03363
954.88	0.01445
964.525	0.00702
974.17	0.00458
983.815	0.00376
993.46	0.00344
1003.1	0.00271
1012.75	0.00223
1022.39	0.00185
1032.04	0.0018
1041.68	0.00297
1051.33	0.00387
1060.97	0.00337
1070.62	0.00227
1080.26	0.00174
1089.91	0.00251
1099.55	0.00349
1109.2	0.00374
1118.84	0.00275
1128.49	0.00154
1138.13	0.0015
1147.78	0.00136
1157.42	0.00182
1167.07	0.00189
1176.71	0.00292
1186.36	0.0019
1196	0.00178
1205.64	0.00235
1215.29	0.0023
1224.93	0.00271
1234.58	0.00341
1244.22	0.00383
1253.87	0.00723
1263.51	0.00757
1273.16	0.00428
1282.8	0.00339
1292.45	0.00292
1302.09	0.00349
1311.74	0.00373
1321.38	0.00402
1331.03	0.00563
1340.67	0.00995
1350.32	0.00903
1359.96	0.00709
1369.61	0.01041
1379.25	0.00793
1388.9	0.00839
1398.54	0.00599
1408.18	0.0054
1417.83	0.0088
1427.47	0.01629
1437.12	0.02193
1446.76	0.02378
1456.41	0.02813
1466.05	0.02848
1475.7	0.02486
1485.34	0.01568
1494.99	0.00744
1504.63	0.00505
1514.28	0.00441
1523.92	0.00389
1533.57	0.00345
1543.21	0.00398
1552.86	0.005
1562.5	0.00507
1572.15	0.00554
1581.79	0.00943
1591.44	0.01157
1601.08	0.00665
1610.73	0.00366
1620.37	0.00357
1630.01	0.00359
1639.66	0.00263
1649.3	0.00207
1658.95	0.00229
1668.59	0.00327
1678.24	0.00293
1687.88	0.00224
1697.53	0.00262
1707.17	0.00259
1716.82	0.00208
1726.46	0.00213
1736.11	0.0024
1745.75	0.00225
1755.4	0.00191
1765.04	0.002
1774.69	0.00276
1784.33	0.00343
1793.98	0.00282
1803.62	0.00253
1813.27	0.00263
1822.91	0.00296
1832.55	0.00353
1842.2	0.00426
1851.84	0.00546
1861.49	0.00531
1871.13	0.00452
1880.78	0.00448
1890.42	0.00438
1900.07	0.00421
1909.71	0.00487
1919.36	0.00764
1929	0.00883
1938.65	0.0074
1948.29	0.00897
1957.94	0.01196
1967.58	0.01642
1977.23	0.02226
1986.87	0.02952
1996.52	0.03897
2006.16	0.05163
2015.81	0.06978
2025.45	0.09706
2035.1	0.13849
2044.74	0.19739
2054.38	0.27272
2064.03	0.36396
2073.67	0.4532
2083.32	0.49428
2092.96	0.45534
2102.61	0.35277
2112.25	0.24054
2121.9	0.17949
2131.54	0.16528
2141.19	0.16869
2150.83	0.17033
2160.48	0.13557
2170.12	0.07981
2179.77	0.04953
2189.41	0.03527
2199.06	0.02736
2208.7	0.02021
2218.35	0.01418
2227.99	0.01027
2237.64	0.00739
2247.28	0.00549
2256.92	0.00459
2266.57	0.0041
2276.21	0.0039
2285.86	0.00361
2295.5	0.00338
2305.15	0.00325
2314.79	0.00331
2324.44	0.00313
2334.08	0.00268
2343.73	0.00251
2353.37	0.00266
2363.02	0.00258
2372.66	0.00255
2382.31	0.00251
2391.95	0.00284
2401.6	0.0035
2411.24	0.00427
2420.89	0.00422
2430.53	0.00346
2440.18	0.0035
2449.82	0.0041
2459.47	0.00447
2469.11	0.00431
2478.75	0.00384
2488.4	0.00366
2498.04	0.0037
2507.69	0.00373
2517.33	0.00375
2526.98	0.00372
2536.62	0.00373
2546.27	0.00384
2555.91	0.00365
2565.56	0.00372
2575.2	0.00352
2584.85	0.00337
2594.49	0.00323
2604.14	0.00279
2613.78	0.00275
2623.43	0.00248
2633.07	0.00235
2642.72	0.00246
2652.36	0.00248
2662.01	0.00221
2671.65	0.00236
2681.29	0.00248
2690.94	0.00243
2700.58	0.00268
2710.23	0.00276
2719.87	0.00276
2729.52	0.00279
2739.16	0.00265
2748.81	0.00261
2758.45	0.00239
2768.1	0.00251
2777.74	0.0027
2787.39	0.00281
2797.03	0.00324
2806.68	0.00376
2816.32	0.0042
2825.97	0.00431
2835.61	0.00457
2845.26	0.00518
2854.9	0.00693
2864.55	0.01113
2874.19	0.01946
2883.84	0.02486
2893.48	0.02061
2903.12	0.01891
2912.77	0.02185
2922.41	0.02765
2932.06	0.03794
2941.7	0.041
2951.35	0.03344
2960.99	0.04634
2970.64	0.08657
2980.28	0.06872
2989.93	0.03093
2999.57	0.01643
3009.22	0.01274
3018.86	0.01254
3028.51	0.01306
3038.15	0.01249
3047.8	0.01268
3057.44	0.01732
3067.09	0.02367
3076.73	0.02162
3086.38	0.01274
3096.02	0.00497
3105.67	0.00313
3115.31	0.00243
3124.95	0.0023
3134.6	0.00194
3144.24	0.00196
3153.89	0.00174
3163.53	0.00172
3173.18	0.00151
3182.82	0.00127
3192.47	0.00127
3202.11	0.0009852
3211.76	0.0009048
3221.4	0.0006929
3231.05	0.0005303
3240.69	0.0006035
3250.34	0.0004225
3259.98	0.0005265
3269.63	0.0003544
3279.27	0.0004746
3288.92	0.0004079
3298.56	0.0002419
3308.21	0.0003697
3317.85	0.00023061
3327.49	0.0003532
3337.14	0.00029995
3346.78	0.000117
3356.43	0.00029857
3366.07	0.00025769
3375.72	0.000109
3385.36	0.0004159
3395.01	0.00033776
3404.65	0.00031956
3414.3	0.0003985
3423.94	0.0004428
3433.59	0.000343
3443.23	0.0003416
3452.88	0.0003585
3462.52	0.0003461
3472.17	0.00023049
3481.81	0.00031162
3491.46	0.00031082
3501.1	0.00041
3510.75	0.0004891
3520.39	0.00032112
3530.04	0.00030656
3539.68	0.00026275
3549.32	0.00027264
3558.97	0.00029019
3568.61	0.000397
3578.26	0.0003754
3587.9	0.0004654
3597.55	0.00029863
3607.19	0.000243658
3616.84	0.000356
3626.48	0.00027401
3636.13	0.0003146
3645.77	0.0004538
3655.42	0.00029085
3665.06	0.00028973
3674.71	0.00032634
3684.35	9.1e-05
3694	0.0003481
3703.64	0.00027015
3713.29	0.0004021
3722.93	0.0002203
3732.58	0.000404
3742.22	0.0004905
3751.86	0.0004119
3761.51	0.0004579
3771.15	0.0003917
3780.8	0.0004543
3790.44	0.0006678
3800.09	0.0006398
3809.73	0.000567
3819.38	0.0006353
3829.02	0.0005459
3838.67	0.0005529
3848.31	0.0007129
3857.96	0.0006919
3867.6	0.0006214
3877.25	0.0006738
3886.89	0.0007413
3896.54	0.0007899
3906.18	0.0008297
3915.83	0.0009766
3925.47	0.0007995
3935.12	0.0009543
3944.76	0.0008279
3954.41	0.000808
3964.05	0.0007919
3973.69	0.0009805
3983.34	0.0009277
3992.98	0.0012242
