Infrared Spectrum: 2-Methoxyethyl cyanoacetate
Formula: C 6 H 9 N O 3
CAS: 10258-54-5
State: gas
Origin: EPA-IR VAPOR PHASE LIBRARY
1/CM	ABSORBANCE
549.9	0.00263096
559.547	0.0026449
569.193	0.00254122
578.84	0.003064
588.486	0.00364
598.133	0.00379
607.779	0.00355
617.426	0.0029966
627.072	0.00259343
636.719	0.002142
646.365	0.001908
656.012	0.001851
665.658	0.002026
675.305	0.00256615
684.951	0.0027939
694.598	0.0026592
704.245	0.00262588
713.891	0.0027616
723.538	0.0028543
733.184	0.002965
742.831	0.0027193
752.477	0.0027019
762.124	0.00260136
771.77	0.0025779
781.417	0.00261838
791.063	0.002932
800.71	0.0031988
810.356	0.00358
820.003	0.00425
829.649	0.00539
839.296	0.00718
848.943	0.00837
858.589	0.00829
868.236	0.00692
877.882	0.00543
887.529	0.00478
897.175	0.00491
906.822	0.00599
916.468	0.00758
926.115	0.00906
935.761	0.00947
945.408	0.00871
955.054	0.00813
964.701	0.00845
974.347	0.00864
983.994	0.0092
993.64	0.01072
1003.29	0.01433
1012.93	0.01989
1022.58	0.02398
1032.23	0.02878
1041.87	0.02841
1051.52	0.01783
1061.17	0.0115
1070.81	0.01095
1080.46	0.01279
1090.11	0.01642
1099.75	0.02091
1109.4	0.02647
1119.05	0.03764
1128.69	0.05701
1138.34	0.06977
1147.99	0.06772
1157.63	0.06916
1167.28	0.07334
1176.92	0.06876
1186.57	0.06119
1196.22	0.05439
1205.86	0.04542
1215.51	0.03683
1225.16	0.03517
1234.8	0.04249
1244.45	0.05824
1254.1	0.07309
1263.74	0.07144
1273.39	0.05666
1283.04	0.0435
1292.68	0.03697
1302.33	0.0327
1311.98	0.02765
1321.62	0.02609
1331.27	0.02539
1340.92	0.02028
1350.56	0.0146
1360.21	0.01184
1369.86	0.01138
1379.5	0.0105
1389.15	0.00998
1398.79	0.01153
1408.44	0.012
1418.09	0.01035
1427.73	0.00844
1437.38	0.00859
1447.03	0.01034
1456.67	0.01164
1466.32	0.0107
1475.97	0.00778
1485.61	0.00544
1495.26	0.00406
1504.91	0.0033071
1514.55	0.0029969
1524.2	0.0028125
1533.85	0.00263025
1543.49	0.00260597
1553.14	0.0024774
1562.79	0.002432
1572.43	0.002421
1582.08	0.002377
1591.73	0.002384
1601.37	0.002327
1611.02	0.002427
1620.67	0.002387
1630.31	0.002451
1639.96	0.0024671
1649.6	0.0024894
1659.25	0.0026268
1668.9	0.0026967
1678.54	0.0029384
1688.19	0.0032594
1697.84	0.0038
1707.48	0.00486
1717.13	0.00675
1726.78	0.00994
1736.42	0.01539
1746.07	0.0269
1755.72	0.05424
1765.36	0.09317
1775.01	0.10621
1784.66	0.0741
1794.3	0.03692
1803.95	0.01844
1813.6	0.01032
1823.24	0.00679
1832.89	0.005
1842.54	0.00401
1852.18	0.00354
1861.83	0.0033075
1871.47	0.0031473
1881.12	0.0030248
1890.77	0.0029277
1900.41	0.002834
1910.06	0.0026646
1919.71	0.00256351
1929.35	0.00256658
1939	0.00254853
1948.65	0.00261937
1958.29	0.0026438
1967.94	0.0027539
1977.59	0.0027956
1987.23	0.002834
1996.88	0.0027845
2006.53	0.0027626
2016.17	0.0028356
2025.82	0.0028369
2035.47	0.0028361
2045.11	0.0028337
2054.76	0.0028044
2064.41	0.0027895
2074.05	0.0028316
2083.7	0.0027601
2093.35	0.0027373
2102.99	0.0026502
2112.64	0.00258657
2122.28	0.0024833
2131.93	0.002374
2141.58	0.002389
2151.22	0.002337
2160.87	0.002349
2170.52	0.002326
2180.16	0.002151
2189.81	0.002103
2199.46	0.002087
2209.1	0.0021
2218.75	0.00206
2228.4	0.002104
2238.04	0.002164
2247.69	0.002325
2257.34	0.0024407
2266.98	0.0024617
2276.63	0.002292
2286.28	0.002153
2295.92	0.00214
2305.57	0.002149
2315.22	0.002222
2324.86	0.002249
2334.51	0.002346
2344.16	0.002246
2353.8	0.002298
2363.45	0.00222
2373.09	0.002243
2382.74	0.002132
2392.39	0.00205
2402.03	0.002035
2411.68	0.00204
2421.33	0.001976
2430.97	0.002044
2440.62	0.002016
2450.27	0.001928
2459.91	0.001995
2469.56	0.002025
2479.21	0.002049
2488.85	0.002041
2498.5	0.002047
2508.15	0.002019
2517.79	0.002032
2527.44	0.002018
2537.09	0.002015
2546.73	0.001984
2556.38	0.002021
2566.03	0.002015
2575.67	0.002105
2585.32	0.002022
2594.96	0.002121
2604.61	0.002132
2614.26	0.002169
2623.9	0.002149
2633.55	0.00207
2643.2	0.002062
2652.84	0.002111
2662.49	0.002152
2672.14	0.002106
2681.78	0.002145
2691.43	0.002236
2701.08	0.002375
2710.72	0.00256601
2720.37	0.0028449
2730.02	0.0031807
2739.66	0.0033947
2749.31	0.0034183
2758.96	0.0034178
2768.6	0.00366
2778.25	0.0041
2787.9	0.00479
2797.54	0.006
2807.19	0.00781
2816.84	0.0111
2826.48	0.01536
2836.13	0.01705
2845.77	0.01637
2855.42	0.01665
2865.07	0.01738
2874.71	0.01906
2884.36	0.02199
2894.01	0.02338
2903.65	0.02233
2913.3	0.02091
2922.95	0.02126
2932.59	0.02281
2942.24	0.02236
2951.89	0.02129
2961.53	0.02145
2971.18	0.01973
2980.83	0.01725
2990.47	0.01763
3000.12	0.01743
3009.77	0.0126
3019.41	0.00733
3029.06	0.00492
3038.71	0.00368
3048.35	0.0030537
3058	0.0026608
3067.64	0.002368
3077.29	0.00208
3086.94	0.001767
3096.58	0.0015
3106.23	0.001578
3115.88	0.0012
3125.52	0.00121
3135.17	0.00098
3144.82	0.001
3154.46	0.00081
3164.11	0.0008
3173.76	0.00066
3183.4	0.00069
3193.05	0.00064
3202.7	0.00045
3212.34	0.00064
3221.99	0.00051
3231.64	0.00063
3241.28	0.00052
3250.93	0.00024
3260.58	0.00023
3270.22	0.00038
3279.87	0.0002
3289.52	0.00024
3299.16	0
3308.81	7e-05
3318.45	0.00024
3328.1	0.00028
3337.75	0.00027
3347.39	0.00034
3357.04	0.00017
3366.69	0.00014
3376.33	0.00027
3385.98	0.00016
3395.63	0.00023
3405.27	0.00033
3414.92	0.00037
3424.57	0.00028
3434.21	0.00026
3443.86	0.00029
3453.51	0.00038
3463.15	0.00035
3472.8	0.00075
3482.45	0.00071
3492.09	0.0009
3501.74	0.00104
3511.39	0.00133
3521.03	0.00148
3530.68	0.00153
3540.33	0.0014
3549.97	0.00101
3559.62	0.00095
3569.26	0.00074
3578.91	0.00101
3588.56	0.00086
3598.2	0.00078
3607.85	0.00073
3617.5	0.00079
3627.14	0.00061
3636.79	0.00075
3646.44	0.00064
3656.08	0.00084
3665.73	0.00095
3675.38	0.00086
3685.02	0.00081
3694.67	0.00088
3704.32	0.00092
3713.96	0.00112
3723.61	0.00099
3733.26	0.00106
3742.9	0.00095
3752.55	0.00105
3762.2	0.00103
3771.84	0.00115
3781.49	0.00121
3791.13	0.00112
3800.78	0.001
3810.43	0.00113
3820.07	0.00116
3829.72	0.00119
3839.37	0.00122
3849.01	0.00122
3858.66	0.0013
3868.31	0.00114
3877.95	0.00133
3887.6	0.00139
3897.25	0.00134
3906.89	0.00125
3916.54	0.00141
3926.19	0.00153
3935.83	0.00149
3945.48	0.001573
3955.13	0.00147
3964.77	0.00154
3974.42	0.00154
3984.07	0.001564
3993.71	0.001659
