Infrared Spectrum: 1,3-DIAZETIDINE, 2,4-DIOXO-1,3-DIPHENYL-
Formula: C14 H10 N2 O2
CAS: 1025-36-1
State: SOLID (SPLIT MULL, FLUOROLUBE FOR 3800-1300 AND NUJOL FOR 1300-230 CM ^-^1)
Class: COBLENTZ III
Instrument: PERKIN-ELMER 521 (GRATING)
Instrument parameters: FILTERS AT 3150, 2500, 2000, 1150, 700, 410; GRATING CHANGES AT 2000, 630 CM^-^1
Sampling: TRANSMISSION
Resolution: 4
Origin: DOW CORNING CORP.
1/CM	TRANSMITTANCE
221.656	0.586
230.828	0.622
240	0.678
249.172	0.7289
258.344	0.796
267.516	0.839
276.688	0.87
285.86	0.899
295.032	0.935
304.204	0.945
313.376	0.968
322.548	0.983
331.72	0.989
340.892	0.99
350.064	0.983
359.236	0.975
368.408	0.972
377.58	0.973
386.752	0.965
395.924	0.964
405.096	0.957
414.268	0.96
423.44	0.949
432.612	0.945
441.784	0.938
450.956	0.931
460.128	0.924
469.3	0.917
478.472	0.912
487.644	0.879
496.816	0.767
505.988	0.8122
515.16	0.901
524.332	0.896
533.504	0.876
542.676	0.887
551.848	0.895
561.02	0.895
570.192	0.894
579.364	0.892
588.536	0.891
597.708	0.887
606.88	0.881
616.052	0.87
625.224	0.865
634.396	0.864
643.568	0.862
652.74	0.855
661.912	0.844
671.084	0.81
680.256	0.6749
689.428	0.3704
698.6	0.826
707.772	0.828
716.944	0.778
726.116	0.766
735.288	0.645
744.46	0.201
753.632	0.685
762.804	0.184
771.976	0.795
781.148	0.778
790.32	0.759
799.492	0.833
808.664	0.843
817.836	0.842
827.008	0.842
836.18	0.837
845.352	0.836
854.524	0.835
863.696	0.833
872.868	0.814
882.04	0.781
891.212	0.6291
900.384	0.818
909.556	0.88
918.728	0.984
927.9	1.008
937.072	1.005
946.244	1.001
955.416	0.995
964.588	0.98
973.76	0.987
982.932	0.994
992.104	0.99
1001.28	0.976
1010.45	0.957
1019.62	0.917
1028.79	0.769
1037.96	0.929
1047.14	0.964
1056.31	0.95
1065.48	0.914
1074.65	0.777
1083.82	0.597
1093	0.799
1102.17	0.55
1111.34	0.872
1120.51	0.88
1129.68	0.879
1138.86	0.873
1148.03	0.88
1157.2	0.853
1166.37	0.8539
1175.54	0.814
1184.72	0.74
1193.89	0.861
1203.06	0.905
1212.23	0.928
1221.4	0.928
1230.58	0.914
1239.75	0.887
1248.92	0.855
1258.09	0.857
1267.26	0.876
1276.44	0.873
1285.61	0.866
1294.78	0.854
1303.95	0.885
1313.12	0.884
1322.3	0.858
1331.47	0.833
1340.64	0.861
1349.81	0.865
1358.98	0.848
1368.16	0.798
1377.33	0.743
1386.5	0.633
1395.67	0.541
1404.84	0.358
1414.02	0.282
1423.19	0.303
1432.36	0.6419
1441.53	0.828
1450.7	0.851
1459.88	0.619
1469.05	0.804
1478.22	0.71
1487.39	0.74
1496.56	0.4419
1505.74	0.289
1514.91	0.7289
1524.08	0.862
1533.25	0.909
1542.42	0.932
1551.6	0.921
1560.77	0.92
1569.94	0.923
1579.11	0.857
1588.28	0.789
1597.46	0.5959
1606.63	0.5808
1615.8	0.879
1624.97	0.888
1634.14	0.905
1643.32	0.901
1652.49	0.896
1661.66	0.883
1670.83	0.861
1680	0.851
1689.18	0.859
1698.35	0.855
1707.52	0.837
1716.69	0.822
1725.86	0.795
1735.04	0.729
1744.21	0.434
1753.38	0.221
1762.55	0.302
1771.72	0.2799
1780.9	0.2001
1790.07	0.483
1799.24	0.663
1808.41	0.8059
1817.58	0.881
1826.76	0.898
1835.93	0.899
1845.1	0.895
1854.27	0.881
1863.44	0.903
1872.62	0.907
1881.79	0.91
1890.96	0.914
1900.13	0.91
1909.3	0.907
1918.48	0.899
1927.65	0.892
1936.82	0.859
1945.99	0.896
1955.16	0.888
1964.34	0.92
1973.51	0.924
1982.68	0.923
1991.85	0.925
2001.02	0.9415
2010.2	0.945
2019.37	0.9425
2028.54	0.9401
2037.71	0.9371
2046.88	0.9312
2056.06	0.929
2065.23	0.932
2074.4	0.9302
2083.57	0.9253
2092.74	0.92
2101.92	0.921
2111.09	0.924
2120.26	0.923
2129.43	0.9207
2138.6	0.9162
2147.78	0.9146
2156.95	0.92
2166.12	0.9233
2175.29	0.925
2184.46	0.9237
2193.64	0.921
2202.81	0.9185
2211.98	0.921
2221.15	0.9196
2230.32	0.9173
2239.5	0.914
2248.67	0.9053
2257.84	0.896
2267.01	0.894
2276.18	0.895
2285.36	0.8956
2294.53	0.8993
2303.7	0.9056
2312.87	0.907
2322.04	0.91
2331.22	0.907
2340.39	0.9024
2349.56	0.901
2358.73	0.899
2367.9	0.899
2377.08	0.899
2386.25	0.899
2395.42	0.899
2404.59	0.898
2413.76	0.898
2422.94	0.896
2432.11	0.896
2441.28	0.896
2450.45	0.895
2459.62	0.894
2468.8	0.891
2477.97	0.888
2487.14	0.884
2496.31	0.883
2505.48	0.8844
2514.66	0.885
2523.83	0.8837
2533	0.8813
2542.17	0.8803
2551.34	0.881
2560.52	0.8809
2569.69	0.8814
2578.86	0.88
2588.03	0.8775
2597.2	0.877
2606.38	0.876
2615.55	0.876
2624.72	0.876
2633.89	0.8758
2643.06	0.875
2652.24	0.873
2661.41	0.873
2670.58	0.8675
2679.75	0.8615
2688.92	0.869
2698.1	0.87
2707.27	0.866
2716.44	0.866
2725.61	0.866
2734.78	0.865
2743.96	0.865
2753.13	0.8629
2762.3	0.859
2771.47	0.8599
2780.64	0.858
2789.82	0.856
2798.99	0.854
2808.16	0.854
2817.33	0.854
2826.5	0.853
2835.68	0.8501
2844.85	0.8426
2854.02	0.842
2863.19	0.8412
2872.36	0.8372
2881.54	0.836
2890.71	0.8332
2899.88	0.8286
2909.05	0.824
2918.22	0.822
2927.4	0.8167
2936.57	0.824
2945.74	0.821
2954.91	0.814
2964.08	0.8208
2973.26	0.822
2982.43	0.824
2991.6	0.8235
3000.77	0.8155
3009.94	0.813
3019.12	0.8116
3028.29	0.7998
3037.46	0.7929
3046.63	0.7759
3055.8	0.7426
3064.98	0.7449
3074.15	0.7912
3083.32	0.817
3092.49	0.817
3101.66	0.814
3110.84	0.8134
3120.01	0.813
3129.18	0.811
3138.35	0.811
3147.52	0.811
3156.7	0.811
3165.87	0.8105
3175.04	0.809
3184.21	0.809
3193.38	0.809
3202.56	0.807
3211.73	0.807
3220.9	0.806
3230.07	0.806
3239.24	0.807
3248.42	0.806
3257.59	0.804
3266.76	0.803
3275.93	0.802
3285.1	0.799
3294.28	0.799
3303.45	0.798
3312.62	0.796
3321.79	0.7933
3330.96	0.7927
3340.14	0.792
3349.31	0.791
3358.48	0.789
3367.65	0.787
3376.82	0.785
3386	0.7835
3395.17	0.781
3404.34	0.778
3413.51	0.778
3422.68	0.7784
3431.86	0.78
3441.03	0.78
3450.2	0.778
3459.37	0.777
3468.54	0.777
3477.72	0.776
3486.89	0.776
3496.06	0.774
3505.23	0.773
3514.4	0.773
3523.58	0.771
3532.75	0.771
3541.92	0.771
3551.09	0.77
3560.26	0.7695
3569.44	0.769
3578.61	0.767
3587.78	0.766
3596.95	0.763
3606.12	0.762
3615.3	0.76
3624.47	0.76
3633.64	0.759
3642.81	0.758
3651.98	0.756
3661.16	0.7541
3670.33	0.75
3679.5	0.745
3688.67	0.75
3697.84	0.7519
3707.02	0.752
3716.19	0.7501
3725.36	0.748
3734.53	0.7453
3743.7	0.744
3752.88	0.744
3762.05	0.744
3771.22	0.744
3780.39	0.744
3789.56	0.744
3798.74	0.74
