Infrared Spectrum: Morpholine, 4,4'-malonyldi-
Formula: C11 H18 N2 O4
CAS: 10256-01-6
State: SOLID (SPLIT MULL), FLUOROLUBE FOR 3800-1330 CM^-^1, NUJOL FOR 1330-400 CM^-^1
Class: COBLENTZ III
Instrument: DOW KBr FOREPRISM-GRATING
Instrument parameters: BLAZED AT 3.5, 12.0, 20.0 MICRON AND CHANGED AT 5.0, 7.5, 14.9 MICRON
Sampling: TRANSMISSION
Resolution: 2
Origin: DOW CHEMICAL COMPANY
1/CM	TRANSMITTANCE
3800	0.785
3791	0.7851
3782	0.7856
3773	0.7858
3764	0.7864
3755	0.7871
3746	0.7881
3737	0.7889
3728	0.7898
3719	0.7906
3710	0.7914
3701	0.7921
3692	0.7928
3683	0.7936
3674	0.7944
3665	0.7956
3656	0.7968
3647	0.7978
3638	0.7978
3629	0.7976
3620	0.7975
3611	0.7971
3602	0.7968
3593	0.7961
3584	0.7951
3575	0.7918
3566	0.7914
3557	0.7912
3548	0.7912
3539	0.7904
3530	0.7898
3521	0.7904
3512	0.7922
3503	0.7939
3494	0.7955
3485	0.7965
3476	0.7971
3467	0.7976
3458	0.7982
3449	0.7987
3440	0.7993
3431	0.7998
3422	0.8007
3413	0.8015
3404	0.8025
3395	0.8035
3386	0.8043
3377	0.8051
3368	0.8058
3359	0.8067
3350	0.8078
3341	0.8088
3332	0.8098
3323	0.8108
3314	0.8118
3305	0.8125
3296	0.8128
3287	0.8115
3278	0.8092
3269	0.8064
3260	0.8039
3251	0.8071
3242	0.8142
3233	0.8189
3224	0.8227
3215	0.8246
3206	0.826
3197	0.8274
3188	0.8288
3179	0.8302
3170	0.8317
3161	0.8334
3152	0.835
3143	0.8353
3134	0.8355
3125	0.8351
3116	0.8348
3107	0.8345
3098	0.8342
3089	0.8339
3080	0.8337
3071	0.8341
3062	0.8347
3053	0.8361
3044	0.8365
3035	0.8362
3026	0.8353
3017	0.8261
3008	0.7783
2999	0.8072
2990	0.8115
2981	0.7576
2972	0.5776
2963	0.518
2954	0.725
2945	0.7292
2936	0.7194
2927	0.6594
2918	0.6109
2909	0.6339
2900	0.6742
2891	0.7071
2882	0.6871
2873	0.6118
2864	0.5678
2855	0.6594
2846	0.7378
2837	0.7669
2828	0.7851
2819	0.7991
2810	0.8104
2801	0.8196
2792	0.8265
2783	0.8282
2774	0.8268
2765	0.8243
2756	0.8262
2747	0.829
2738	0.832
2729	0.8321
2720	0.8314
2711	0.8306
2702	0.832
2693	0.835
2684	0.8346
2675	0.8349
2666	0.8385
2657	0.8423
2648	0.8446
2639	0.8465
2630	0.8484
2621	0.8502
2612	0.8509
2603	0.8511
2594	0.8515
2585	0.8517
2576	0.852
2567	0.8516
2558	0.8513
2549	0.8509
2540	0.8507
2531	0.8504
2522	0.8502
2513	0.8499
2504	0.8497
2495	0.8497
2486	0.8497
2477	0.8497
2468	0.8497
2459	0.8499
2450	0.8502
2441	0.8505
2432	0.8509
2423	0.8514
2414	0.8518
2405	0.8524
2396	0.853
2387	0.8536
2378	0.854
2369	0.8542
2360	0.8546
2351	0.8552
2342	0.8539
2333	0.8516
2324	0.8497
2315	0.8488
2306	0.8485
2297	0.8485
2288	0.8491
2279	0.8506
2270	0.8516
2261	0.8527
2252	0.8542
2243	0.8556
2234	0.8571
2225	0.8586
2216	0.8601
2207	0.8616
2198	0.8631
2189	0.8646
2180	0.8661
2171	0.8671
2162	0.8682
2153	0.8692
2144	0.8701
2135	0.8711
2126	0.8721
2117	0.873
2108	0.8743
2099	0.8758
2090	0.8774
2081	0.879
2072	0.8805
2063	0.8818
2054	0.8832
2045	0.8843
2036	0.8855
2027	0.887
2018	0.8888
2009	0.891
2000	0.8894
1991	0.8671
1982	0.8782
1973	0.8804
1964	0.8771
1955	0.8695
1946	0.8671
1937	0.8723
1928	0.8738
1919	0.8748
1910	0.876
1901	0.8775
1892	0.8818
1883	0.8837
1874	0.8817
1865	0.8812
1856	0.8814
1847	0.8825
1838	0.8833
1829	0.8837
1820	0.8838
1811	0.8838
1802	0.8842
1793	0.8841
1784	0.8831
1775	0.8823
1766	0.8818
1757	0.8753
1748	0.8735
1739	0.8745
1730	0.8756
1721	0.8691
1712	0.8515
1703	0.8245
1694	0.7968
1685	0.7451
1676	0.6425
1667	0.4292
1658	0.0645
1649	0.0781
1640	0.1277
1631	0.0458
1622	0.2964
1613	0.5697
1604	0.6302
1595	0.6895
1586	0.743
1577	0.7799
1568	0.794
1559	0.805
1550	0.8147
1541	0.8228
1532	0.8282
1523	0.8304
1514	0.8287
1505	0.8004
1496	0.8021
1487	0.7868
1478	0.7108
1469	0.3764
1460	0.2544
1451	0.2217
1442	0.2978
1433	0.4762
1424	0.6304
1415	0.6378
1406	0.5525
1397	0.7065
1388	0.7191
1379	0.7568
1370	0.7057
1361	0.5364
1352	0.7585
1343	0.7818
1334	0.7308
1325	0.7251
1316	0.6269
1307	0.5075
1298	0.5729
1289	0.7421
1280	0.7501
1271	0.3995
1262	0.5372
1253	0.6312
1244	0.7357
1235	0.3434
1226	0.5991
1217	0.7233
1208	0.7297
1199	0.7167
1190	0.7462
1181	0.4199
1172	0.6412
1163	0.7771
1154	0.8004
1145	0.8085
1136	0.8089
1127	0.7667
1118	0.5117
1109	0.1429
1100	0.5776
1091	0.7684
1082	0.7924
1073	0.7056
1064	0.5366
1055	0.7365
1046	0.79
1037	0.6193
1028	0.6433
1019	0.7525
1010	0.7905
1001	0.8204
992	0.8196
983	0.6102
974	0.7028
965	0.7465
956	0.7671
947	0.8165
938	0.8339
929	0.81
920	0.8028
911	0.8207
902	0.8582
893	0.8618
884	0.8644
875	0.8573
866	0.8394
857	0.671
848	0.6304
839	0.8444
830	0.7961
821	0.8621
812	0.8654
803	0.8678
794	0.8695
785	0.8691
776	0.8606
767	0.8699
758	0.8689
749	0.8583
740	0.8449
731	0.852
722	0.8428
713	0.8618
704	0.866
695	0.8649
686	0.8633
677	0.7911
668	0.8536
659	0.8514
650	0.8484
641	0.7043
632	0.8414
623	0.8499
614	0.8285
605	0.7958
596	0.6018
587	0.7494
578	0.7443
569	0.7658
560	0.8313
551	0.7233
542	0.8178
533	0.843
524	0.8502
515	0.853
506	0.8537
497	0.8527
488	0.8436
479	0.8014
470	0.8115
461	0.806
452	0.8055
443	0.7739
434	0.7721
425	0.7686
416	0.7605
407	0.7539
398	0.7526
389	0.7535
