Infrared Spectrum: THIADIAZOLE, 2-ANILINO-5-MERCAPTO-1,3,4-
Formula: C8 H7 N3 S2
CAS: 10253-83-5
State: SOLID
Melting point: 210 C
Class: COBLENTZ
Instrument: Not specified, most likely a prism, grating, or hybrid spectrometer.
Sampling: TRANSMISSION
Resolution: 4
Origin: TENNESSEE EASTMAN COMPANY, RESEARCH LABORATORIES
MICROMETERS	TRANSMITTANCE
2.02	0.835
2.06096	0.843
2.10191	0.85
2.14287	0.853
2.18382	0.857
2.22478	0.862
2.26574	0.865
2.30669	0.869
2.34765	0.872
2.3886	0.874
2.42956	0.875
2.47051	0.88
2.51147	0.884
2.55243	0.884
2.59338	0.886
2.63434	0.889
2.67529	0.882
2.71625	0.814
2.75721	0.715
2.79816	0.659
2.83912	0.622
2.88007	0.607
2.92103	0.62
2.96198	0.661
3.00294	0.67
3.0439	0.581
3.08485	0.362
3.12581	0.309
3.16676	0.178
3.20772	0.222
3.24868	0.34
3.28963	0.34
3.33059	0.205
3.37154	0.221
3.4125	0.333
3.45346	0.391
3.49441	0.452
3.53537	0.386
3.57632	0.455
3.61728	0.554
3.65823	0.632
3.69919	0.67
3.74015	0.693
3.7811	0.705
3.82206	0.748
3.86301	0.77
3.90397	0.801
3.94493	0.819
3.98588	0.835
4.02684	0.853
4.06779	0.865
4.10875	0.877
4.1497	0.886
4.19066	0.891
4.23162	0.886
4.27257	0.879
4.31353	0.882
4.35448	0.899
4.39544	0.913
4.4364	0.92
4.47735	0.923
4.51831	0.923
4.55926	0.926
4.60022	0.93
4.64118	0.933
4.68213	0.93
4.72309	0.93
4.76404	0.933
4.805	0.938
4.84595	0.937
4.88691	0.938
4.92787	0.94
4.96882	0.943
5.00978	0.955
5.05073	0.95
5.09169	0.938
5.13265	0.931
5.1736	0.938
5.21456	0.942
5.25551	0.943
5.29647	0.942
5.33742	0.935
5.37838	0.937
5.41934	0.94
5.46029	0.942
5.50125	0.945
5.5422	0.938
5.58316	0.933
5.62412	0.928
5.66507	0.925
5.70603	0.899
5.74698	0.869
5.78794	0.862
5.82889	0.86
5.86985	0.845
5.91081	0.831
5.95176	0.809
5.99272	0.785
6.03367	0.732
6.07463	0.71
6.11559	0.668
6.15654	0.579
6.1975	0.399
6.23845	0.1
6.27941	0.454
6.32037	0.125
6.36132	0.066
6.40228	0.309
6.44323	0.367
6.48419	0.331
6.52514	0.561
6.5661	0.68
6.60706	0.506
6.64801	0.21
6.68897	0.494
6.72992	0.401
6.77088	0.355
6.81184	0.664
6.85279	0.744
6.89375	0.715
6.9347	0.54
6.97566	0.705
7.01661	0.777
7.05757	0.802
7.09853	0.809
7.13948	0.801
7.18044	0.78
7.22139	0.734
7.26235	0.625
7.30331	0.34
7.34426	0.141
7.38522	0.164
7.42617	0.236
7.46713	0.379
7.50809	0.299
7.54904	0.272
7.59	0.295
7.63095	0.329
7.67191	0.335
7.71286	0.28
7.75382	0.384
7.79478	0.562
7.83573	0.636
7.87669	0.676
7.91764	0.705
7.9586	0.717
7.99956	0.722
8.04051	0.729
8.08147	0.707
8.12242	0.61
8.16338	0.489
8.20433	0.583
8.24529	0.676
8.28625	0.729
8.3272	0.756
8.36816	0.772
8.40911	0.778
8.45007	0.756
8.49103	0.751
8.53198	0.799
8.57294	0.799
8.61389	0.782
8.65485	0.777
8.69581	0.801
8.73676	0.802
8.77772	0.801
8.81867	0.78
8.85963	0.727
8.90058	0.625
8.94154	0.586
8.9825	0.602
9.02345	0.63
9.06441	0.651
9.10536	0.651
9.14632	0.59
9.18728	0.508
9.22823	0.537
9.26919	0.63
9.31014	0.647
9.3511	0.532
9.39205	0.248
9.43301	0.096
9.47397	0.185
9.51492	0.435
9.55588	0.678
9.59683	0.741
9.63779	0.75
9.67875	0.636
9.7197	0.707
9.76066	0.785
9.80161	0.819
9.84257	0.833
9.88353	0.846
9.92448	0.853
9.96544	0.857
10.0064	0.86
10.0473	0.865
10.0883	0.865
10.1293	0.865
10.1702	0.87
10.2112	0.879
10.2521	0.886
10.2931	0.896
10.334	0.894
10.375	0.886
10.416	0.887
10.4569	0.892
10.4979	0.899
10.5388	0.911
10.5798	0.914
10.6207	0.92
10.6617	0.923
10.7026	0.926
10.7436	0.93
10.7846	0.93
10.8255	0.93
10.8665	0.933
10.9074	0.937
10.9484	0.935
10.9893	0.935
11.0303	0.931
11.0712	0.916
11.1122	0.88
11.1532	0.872
11.1941	0.872
11.2351	0.877
11.276	0.887
11.317	0.892
11.3579	0.889
11.3989	0.828
11.4398	0.704
11.4808	0.695
11.5218	0.814
11.5627	0.869
11.6037	0.894
11.6446	0.909
11.6856	0.914
11.7265	0.914
11.7675	0.914
11.8085	0.906
11.8494	0.896
11.8904	0.886
11.9313	0.874
11.9723	0.85
12.0132	0.836
12.0542	0.826
12.0951	0.824
12.1361	0.821
12.1771	0.816
12.218	0.799
12.259	0.785
12.2999	0.765
12.3409	0.738
12.3818	0.717
12.4228	0.697
12.4637	0.687
12.5047	0.676
12.5457	0.676
12.5866	0.673
12.6276	0.656
12.6685	0.627
12.7095	0.573
12.7504	0.496
12.7914	0.403
12.8323	0.336
12.8733	0.312
12.9143	0.319
12.9552	0.372
12.9962	0.423
13.0371	0.471
13.0781	0.527
13.119	0.554
13.16	0.559
13.2009	0.518
13.2419	0.443
13.2829	0.377
13.3238	0.353
13.3648	0.341
13.4057	0.319
13.4467	0.29
13.4876	0.297
13.5286	0.397
13.5696	0.561
13.6105	0.646
13.6515	0.693
13.6924	0.719
13.7334	0.731
13.7743	0.736
13.8153	0.738
13.8562	0.738
13.8972	0.738
13.9382	0.739
13.9791	0.739
14.0201	0.738
14.061	0.738
14.102	0.734
14.1429	0.724
14.1839	0.698
14.2248	0.649
14.2658	0.586
14.3068	0.506
14.3477	0.437
14.3887	0.379
14.4296	0.352
14.4706	0.367
14.5115	0.437
14.5525	0.527
14.5934	0.581
14.6344	0.617
14.6754	0.639
14.7163	0.647
14.7573	0.646
14.7982	0.644
14.8392	0.636
14.8801	0.634
14.9211	0.634
14.9621	0.634
15.003	0.636
15.044	0.639
15.0849	0.636
15.1259	0.63
15.1668	0.622
15.2078	0.615
15.2487	0.608
15.2897	0.603
15.3307	0.595
15.3716	0.59
15.4126	0.588
15.4535	0.588
15.4945	0.588
15.5354	0.59
15.5764	0.593
15.6173	0.595
15.6583	0.596
15.6993	0.596
15.7402	0.598
15.7812	0.598
15.8221	0.6
15.8631	0.6
15.904	0.6
15.945	0.6
15.9859	0.598
