Infrared Spectrum: N,N'-DIACETYL-N,N'-BIS-[5-BENZYLMERCAPTO-1,3,4-THIADIAZOLYL-2-]HYDRAZINE
Formula: C22 H20 N6 O2 S4
CAS: 102599-00-8
State: SOLID (KBr PELLET)
Class: COBLENTZ
Instrument: Not specified, most likely a prism, grating, or hybrid spectrometer.
Sampling: TRANSMISSION
Resolution: 4
Origin: NORBERT PETRI
MICROMETERS	TRANSMITTANCE
2.042	0.567
2.07803	0.574
2.11405	0.582
2.15008	0.587
2.18611	0.591
2.22214	0.597
2.25816	0.6
2.29419	0.605
2.33022	0.61
2.36624	0.617
2.40227	0.621
2.4383	0.625
2.47432	0.625
2.51035	0.629
2.54638	0.633
2.58241	0.637
2.61843	0.639
2.65446	0.645
2.69049	0.646
2.72651	0.641
2.76254	0.616
2.79857	0.558
2.83459	0.514
2.87062	0.48
2.90665	0.445
2.94268	0.438
2.9787	0.466
3.01473	0.51
3.05076	0.538
3.08678	0.558
3.12281	0.575
3.15884	0.597
3.19486	0.612
3.23089	0.621
3.26692	0.618
3.30295	0.62
3.33897	0.623
3.375	0.634
3.41103	0.621
3.44705	0.598
3.48308	0.64
3.51911	0.652
3.55513	0.683
3.59116	0.689
3.62719	0.688
3.66322	0.689
3.69924	0.702
3.73527	0.712
3.7713	0.711
3.80732	0.712
3.84335	0.714
3.87938	0.718
3.9154	0.72
3.95143	0.719
3.98746	0.725
4.02349	0.728
4.05951	0.73
4.09554	0.733
4.13157	0.735
4.16759	0.736
4.20362	0.739
4.23965	0.737
4.27567	0.734
4.3117	0.735
4.34773	0.742
4.38376	0.745
4.41978	0.75
4.45581	0.748
4.49184	0.752
4.52786	0.756
4.56389	0.757
4.59992	0.759
4.63594	0.757
4.67197	0.759
4.708	0.76
4.74403	0.76
4.78005	0.763
4.81608	0.762
4.85211	0.763
4.88813	0.765
4.92416	0.764
4.96019	0.768
4.99621	0.77
5.03224	0.771
5.06827	0.77
5.1043	0.766
5.14032	0.765
5.17635	0.769
5.21238	0.775
5.2484	0.774
5.28443	0.774
5.32046	0.769
5.35648	0.773
5.39251	0.78
5.42854	0.78
5.46457	0.781
5.50059	0.781
5.53662	0.771
5.57265	0.775
5.60867	0.776
5.6447	0.773
5.68073	0.754
5.71675	0.731
5.75278	0.668
5.78881	0.479
5.82484	0.265
5.86086	0.155
5.89689	0.486
5.93292	0.572
5.96894	0.623
6.00497	0.638
6.041	0.645
6.07702	0.637
6.11305	0.632
6.14908	0.629
6.18511	0.65
6.22113	0.655
6.25716	0.679
6.29319	0.689
6.32921	0.701
6.36524	0.711
6.40127	0.705
6.43729	0.713
6.47332	0.709
6.50935	0.714
6.54538	0.716
6.5814	0.718
6.61743	0.719
6.65346	0.683
6.68948	0.541
6.72551	0.58
6.76154	0.35
6.79756	0.308
6.83359	0.417
6.86962	0.463
6.90565	0.532
6.94167	0.575
6.9777	0.567
7.01373	0.574
7.04975	0.58
7.08578	0.543
7.12181	0.489
7.15783	0.381
7.19386	0.385
7.22989	0.489
7.26592	0.462
7.30194	0.337
7.33797	0.451
7.374	0.611
7.41002	0.661
7.44605	0.68
7.48208	0.682
7.5181	0.684
7.55413	0.672
7.59016	0.639
7.62619	0.586
7.66221	0.497
7.69824	0.341
7.73427	0.173
7.77029	0.174
7.80632	0.211
7.84235	0.182
7.87837	0.254
7.9144	0.378
7.95043	0.332
7.98646	0.245
8.02248	0.379
8.05851	0.439
8.09454	0.519
8.13056	0.578
8.16659	0.605
8.20262	0.622
8.23864	0.635
8.27467	0.639
8.3107	0.641
8.34673	0.628
8.38275	0.631
8.41878	0.649
8.45481	0.645
8.49083	0.645
8.52686	0.649
8.56289	0.643
8.59891	0.643
8.63494	0.635
8.67097	0.634
8.707	0.646
8.74302	0.65
8.77905	0.652
8.81508	0.657
8.8511	0.656
8.88713	0.651
8.92316	0.651
8.95918	0.644
8.99521	0.643
9.03124	0.641
9.06727	0.633
9.10329	0.632
9.13932	0.628
9.17535	0.621
9.21137	0.622
9.2474	0.62
9.28343	0.608
9.31945	0.564
9.35548	0.563
9.39151	0.57
9.42754	0.52
9.46356	0.398
9.49959	0.338
9.53562	0.412
9.57164	0.478
9.60767	0.536
9.6437	0.547
9.67972	0.541
9.71575	0.523
9.75178	0.56
9.78781	0.593
9.82383	0.605
9.85986	0.605
9.89589	0.599
9.93191	0.6
9.96794	0.618
10.004	0.639
10.04	0.66
10.076	0.678
10.112	0.684
10.1481	0.685
10.1841	0.691
10.2201	0.699
10.2562	0.705
10.2922	0.703
10.3282	0.695
10.3642	0.662
10.4003	0.658
10.4363	0.703
10.4723	0.724
10.5083	0.731
10.5444	0.736
10.5804	0.737
10.6164	0.741
10.6525	0.741
10.6885	0.74
10.7245	0.739
10.7605	0.735
10.7966	0.723
10.8326	0.671
10.8686	0.678
10.9046	0.678
10.9407	0.705
10.9767	0.718
11.0127	0.722
11.0488	0.705
11.0848	0.682
11.1208	0.702
11.1568	0.729
11.1929	0.741
11.2289	0.743
11.2649	0.746
11.3009	0.75
11.337	0.754
11.373	0.756
11.409	0.754
11.445	0.756
11.4811	0.751
11.5171	0.739
11.5531	0.709
11.5892	0.712
11.6252	0.74
11.6612	0.752
11.6972	0.76
11.7333	0.769
11.7693	0.77
11.8053	0.774
11.8413	0.771
11.8774	0.773
11.9134	0.768
11.9494	0.773
11.9855	0.776
12.0215	0.781
12.0575	0.779
12.0935	0.783
12.1296	0.782
12.1656	0.78
12.2016	0.773
12.2376	0.77
12.2737	0.762
12.3097	0.759
12.3457	0.758
12.3817	0.759
12.4178	0.757
12.4538	0.756
12.4898	0.754
12.5259	0.752
12.5619	0.756
12.5979	0.754
12.6339	0.754
12.67	0.745
12.706	0.747
12.742	0.753
12.778	0.752
12.8141	0.746
12.8501	0.739
12.8861	0.731
12.9222	0.728
12.9582	0.72
12.9942	0.712
13.0302	0.707
13.0663	0.701
13.1023	0.699
13.1383	0.685
13.1743	0.672
13.2104	0.62
13.2464	0.592
13.2824	0.632
13.3185	0.658
13.3545	0.668
13.3905	0.674
13.4265	0.683
13.4626	0.69
13.4986	0.696
13.5346	0.689
13.5706	0.674
13.6067	0.634
13.6427	0.604
13.6787	0.62
13.7147	0.66
13.7508	0.686
13.7868	0.697
13.8228	0.7
13.8589	0.7
13.8949	0.699
13.9309	0.684
13.9669	0.674
14.003	0.66
14.039	0.632
14.075	0.6
14.111	0.548
14.1471	0.493
14.1831	0.429
14.2191	0.376
14.2552	0.344
14.2912	0.334
14.3272	0.367
14.3632	0.429
14.3993	0.498
14.4353	0.561
14.4713	0.594
14.5073	0.606
14.5434	0.621
14.5794	0.628
14.6154	0.644
14.6515	0.656
14.6875	0.661
14.7235	0.66
14.7595	0.672
14.7956	0.671
14.8316	0.668
14.8676	0.661
14.9036	0.655
14.9397	0.649
14.9757	0.622
15.0117	0.559
15.0477	0.506
15.0838	0.473
15.1198	0.479
15.1558	0.536
15.1919	0.581
15.2279	0.617
15.2639	0.648
15.2999	0.68
15.336	0.7
15.372	0.701
