Infrared Spectrum: Aniline, 3-methyl-N-tert-butyl-
Formula: C11 H17 N
CAS: 10250-14-3
State: LIQUID (NEAT)
Class: COBLENTZ III
Instrument: BECKMAN IR-4 (HYBRID PRISM-GRATING)
Instrument parameters: NaCl PRISM
Sampling: TRANSMISSION
Path length: CAPILLARY
Resolution: 2
Origin: MONSANTO (J. FREEMAN)
1/CM	TRANSMITTANCE
626	0.727
635	0.7582
644	0.7779
653	0.8049
662	0.8146
671	0.8009
680	0.7249
689	0.3056
698	0.5039
707	0.7942
716	0.8387
725	0.8447
734	0.798
743	0.6876
752	0.4605
761	0.1631
770	0.1129
779	0.3204
788	0.5616
797	0.7617
806	0.7724
815	0.8006
824	0.8518
833	0.8135
842	0.5823
851	0.6546
860	0.6283
869	0.7694
878	0.8366
887	0.853
896	0.8897
905	0.866
914	0.8782
923	0.8746
932	0.8875
941	0.8922
950	0.8353
959	0.7546
968	0.7734
977	0.8732
986	0.8431
995	0.6296
1004	0.7007
1013	0.7211
1022	0.6434
1031	0.6423
1040	0.7418
1049	0.8544
1058	0.8972
1067	0.9138
1076	0.9142
1085	0.8761
1094	0.8148
1103	0.932
1112	0.9385
1121	0.9345
1130	0.9251
1139	0.9075
1148	0.8742
1157	0.7262
1166	0.3783
1175	0.3333
1184	0.4873
1193	0.5407
1202	0.3204
1211	0.2128
1220	0.1053
1229	0.0471
1238	0.2477
1247	0.5272
1256	0.6215
1265	0.3547
1274	0.299
1283	0.5816
1292	0.5904
1301	0.5358
1310	0.4071
1319	0.4166
1328	0.2623
1337	0.1688
1346	0.3852
1355	0.6139
1364	0.4405
1373	0.1437
1382	0.5707
1391	0.3917
1400	0.2104
1409	0.5539
1418	0.5213
1427	0.4816
1436	0.5201
1445	0.4993
1454	0.4283
1463	0.3561
1472	0.2841
1481	0.2359
1490	0.0871
1499	0.0711
1508	0.201
1517	0.2535
1526	0.159
1535	0.3063
1544	0.4941
1553	0.6073
1562	0.6464
1571	0.647
1580	0.513
1589	0.2712
1598	0.0799
1607	0.1093
1616	0.0215
1625	0.2285
1634	0.5541
1643	0.7829
1652	0.8398
1661	0.8856
1670	0.891
1679	0.8935
1688	0.8934
1697	0.8913
1706	0.8881
1715	0.8898
1724	0.8979
1733	0.9065
1742	0.9131
1751	0.9193
1760	0.9252
1769	0.9283
1778	0.9275
1787	0.9246
1796	0.92
1805	0.9117
1814	0.9058
1823	0.9055
1832	0.9066
1841	0.9106
1850	0.9163
1859	0.9219
1868	0.9255
1877	0.9252
1886	0.9236
1895	0.9194
1904	0.9095
1913	0.887
1922	0.8797
1931	0.8901
1940	0.9103
1949	0.921
1958	0.9265
1967	0.9311
1976	0.9338
1985	0.9358
1994	0.9374
2003	0.9385
2012	0.9393
2021	0.9396
2030	0.9399
2039	0.9401
2048	0.9402
2057	0.9401
2066	0.9393
2075	0.9384
2084	0.9376
2093	0.9368
2102	0.9352
2111	0.9334
2120	0.9317
2129	0.931
2138	0.9312
2147	0.9328
2156	0.9334
2165	0.9339
2174	0.9338
2183	0.9337
2192	0.9336
2201	0.9334
2210	0.9332
2219	0.9323
2228	0.9312
2237	0.9301
2246	0.9285
2255	0.9266
2264	0.9247
2273	0.9231
2282	0.9218
2291	0.924
2300	0.9257
2309	0.9252
2318	0.924
2327	0.9228
2336	0.9213
2345	0.9197
2354	0.9182
2363	0.9167
2372	0.9154
2381	0.9142
2390	0.9132
2399	0.9124
2408	0.9116
2417	0.9116
2426	0.9118
2435	0.912
2444	0.9122
2453	0.9121
2462	0.9112
2471	0.9103
2480	0.909
2489	0.907
2498	0.9072
2507	0.9077
2516	0.9087
2525	0.9103
2534	0.9101
2543	0.9074
2552	0.9043
2561	0.9014
2570	0.8986
2579	0.8957
2588	0.8922
2597	0.8888
2606	0.8872
2615	0.8885
2624	0.892
2633	0.8974
2642	0.9
2651	0.9009
2660	0.9008
2669	0.9004
2678	0.8998
2687	0.8989
2696	0.8979
2705	0.8958
2714	0.8883
2723	0.8807
2732	0.8738
2741	0.8678
2750	0.8665
2759	0.8702
2768	0.8792
2777	0.8813
2786	0.8781
2795	0.8733
2804	0.8653
2813	0.8501
2822	0.8307
2831	0.8092
2840	0.7901
2849	0.7739
2858	0.7017
2867	0.5508
2876	0.4183
2885	0.3992
2894	0.3953
2903	0.3917
2912	0.3895
2921	0.3869
2930	0.3757
2939	0.3048
2948	0.2574
2957	0.2387
2966	0.2247
2975	0.2111
2984	0.1965
2993	0.1548
3002	0.1057
3011	0.0872
3020	0.143
3029	0.3
3038	0.4541
3047	0.4601
3056	0.4631
3065	0.4737
3074	0.5524
3083	0.64
3092	0.6966
3101	0.704
3110	0.7098
3119	0.7219
3128	0.8127
3137	0.8549
3146	0.8627
3155	0.8656
3164	0.8675
3173	0.8684
3182	0.8691
3191	0.8699
3200	0.8702
3209	0.8705
3218	0.867
3227	0.871
3236	0.8708
3245	0.8705
3254	0.8702
3263	0.8678
3272	0.8648
3281	0.8605
3290	0.8545
3299	0.8468
3308	0.8391
3317	0.8317
3326	0.823
3335	0.8028
3344	0.7804
3353	0.7581
3362	0.736
3371	0.7139
3380	0.6919
3389	0.6701
3398	0.6484
3407	0.6279
3416	0.6229
3425	0.624
3434	0.6674
3443	0.73
3452	0.7922
3461	0.8288
3470	0.8429
3479	0.8556
3488	0.8641
3497	0.8688
3506	0.8713
3515	0.8737
3524	0.8757
3533	0.8772
3542	0.8786
3551	0.8795
3560	0.8802
3569	0.8809
3578	0.8812
3587	0.8814
3596	0.8814
3605	0.8816
3614	0.8817
3623	0.8817
3632	0.8816
3641	0.8815
3650	0.8814
3659	0.8814
3668	0.8813
3677	0.8807
3686	0.8801
3695	0.8796
3704	0.879
3713	0.8785
3722	0.8779
3731	0.8774
3740	0.8765
3749	0.8756
3758	0.8747
3767	0.8738
3776	0.873
3785	0.8721
3794	0.8712
3803	0.8703
3812	0.8695
3821	0.8686
3830	0.8678
3839	0.867
3848	0.8661
3857	0.8653
3866	0.8644
3875	0.8635
3884	0.8627
3893	0.8619
3902	0.861
3911	0.8601
3920	0.8593
3929	0.8584
3938	0.8576
3947	0.8568
3956	0.8559
3965	0.8551
3974	0.8543
3983	0.8535
3992	0.8527
