Infrared Spectrum: 3-Ethylcyclopentanone
Formula: C 7 H 12 O
CAS: 10264-55-8
State: gas
Instrument: HP-GC/MS/IRD
Origin: NIST Mass Spectrometry Data Center
1/CM	ABSORBANCE
550	0.000324
562	0.000324
574	0.00045
586	0.000426
598	0.000456
610	0.000186
622	6e-06
634	0
646	4.2e-05
658	7.8e-05
670	9e-05
682	6.6e-05
694	0
706	0.00015
718	0.000288
730	0.000372
742	0.000324
754	0.000306
766	0.00051
778	0.000624
790	0.000738
802	0.0009
814	0.000834
826	0.000426
838	0.000348
850	0.000372
862	0.000348
874	0.00039
886	0.000588
898	0.000768
910	0.000672
922	0.000684
934	0.000858
946	0.000942
958	0.001014
970	0.001032
982	0.000798
994	0.000492
1006	0.00045
1018	0.000588
1030	0.000666
1042	0.00084
1054	0.00102
1066	0.001536
1078	0.002034
1090	0.0021
1102	0.002118
1114	0.002958
1126	0.004656
1138	0.0081
1150	0.011106
1162	0.00891
1174	0.004596
1186	0.002286
1198	0.001446
1210	0.00126
1222	0.00159
1234	0.002058
1246	0.001968
1258	0.001494
1270	0.001602
1282	0.001806
1294	0.001794
1306	0.0015
1318	0.001224
1330	0.001104
1342	0.000942
1354	0.000876
1366	0.001074
1378	0.00171
1390	0.002538
1402	0.003468
1414	0.004488
1426	0.003804
1438	0.002322
1450	0.002682
1462	0.003438
1474	0.002826
1486	0.001482
1498	0.000744
1510	0.000456
1522	0.000372
1534	0.000318
1546	0.000336
1558	0.000348
1570	0.00033
1582	0.000348
1594	0.000402
1606	0.000462
1618	0.000504
1630	0.000504
1642	0.000576
1654	0.000672
1666	0.000786
1678	0.001086
1690	0.001626
1702	0.002436
1714	0.003576
1726	0.005634
1738	0.013026
1750	0.038928
1762	0.06
1774	0.040794
1786	0.009978
1798	0.003966
1810	0.002406
1822	0.001704
1834	0.00123
1846	0.000858
1858	0.0006
1870	0.00045
1882	0.000372
1894	0.000288
1906	0.000198
1918	0.000162
1930	0.000138
1942	0.000156
1954	0.000186
1966	0.000174
1978	0.000156
1990	0.00015
2002	0.000144
2014	0.00012
2026	0.000126
2038	0.000138
2050	0.000126
2062	9.6e-05
2074	6.6e-05
2086	7.8e-05
2098	8.4e-05
2110	8.4e-05
2122	7.2e-05
2134	9e-05
2146	9e-05
2158	9e-05
2170	7.8e-05
2182	6.6e-05
2194	8.4e-05
2206	0.000108
2218	0.000114
2230	0.00012
2242	9e-05
2254	0.000102
2266	6.6e-05
2278	7.8e-05
2290	0.00012
2302	0.000126
2314	0.00012
2326	9.6e-05
2338	8.4e-05
2350	0.000114
2362	0.000132
2374	0.000108
2386	9.6e-05
2398	6.6e-05
2410	6.6e-05
2422	7.2e-05
2434	4.8e-05
2446	4.8e-05
2458	3e-05
2470	1.8e-05
2482	3.6e-05
2494	5.4e-05
2506	2.4e-05
2518	1.8e-05
2530	3.6e-05
2542	0
2554	3e-05
2566	5.4e-05
2578	7.8e-05
2590	8.4e-05
2602	0.000126
2614	0.00012
2626	0.000156
2638	0.000168
2650	0.000174
2662	0.000156
2674	0.000162
2686	0.00015
2698	0.00018
2710	0.00018
2722	0.00024
2734	0.000288
2746	0.000402
2758	0.00045
2770	0.000486
2782	0.000594
2794	0.00075
2806	0.001032
2818	0.00135
2830	0.001602
2842	0.002298
2854	0.004566
2866	0.008292
2878	0.011916
2890	0.013074
2902	0.013416
2914	0.01635
2926	0.01959
2938	0.02016
2950	0.020232
2962	0.02577
2974	0.02703
2986	0.015054
2998	0.00507
3010	0.002298
3022	0.001578
3034	0.001326
3046	0.00117
3058	0.001002
3070	0.000828
3082	0.000702
3094	0.000606
3106	0.000486
3118	0.000414
3130	0.000372
3142	0.000288
3154	0.000282
3166	0.000252
3178	0.000222
3190	0.00018
3202	0.000156
3214	0.000102
3226	7.2e-05
3238	1.2e-05
3250	1.8e-05
3262	5.4e-05
3274	4.2e-05
3286	3e-05
3298	4.2e-05
3310	6e-05
3322	7.8e-05
3334	4.8e-05
3346	6e-05
3358	6e-05
3370	6.6e-05
3382	4.2e-05
3394	6.6e-05
3406	7.2e-05
3418	9.6e-05
3430	0.00012
3442	0.00012
3454	0.000174
3466	0.000252
3478	0.000414
3490	0.000792
3502	0.001146
3514	0.00108
3526	0.000558
3538	0.000348
3550	0.000234
3562	0.00018
3574	0.000132
3586	0.00012
3598	6.6e-05
3610	6.6e-05
3622	9e-05
3634	9.6e-05
3646	0.000102
3658	8.4e-05
3670	8.4e-05
3682	7.2e-05
3694	8.4e-05
3706	0.000102
3718	9e-05
3730	0.000102
3742	9.6e-05
3754	9.6e-05
3766	0.000108
3778	0.000102
3790	0.00012
3802	0.000126
3814	0.00012
3826	0.000138
3838	0.000162
