Infrared Spectrum: 3,7,11,15-Tetramethyl-2-hexadecen-1-ol
Formula: C 20 H 40 O
CAS: 102608-53-7
State: gas
Instrument: HP-GC/MS/IRD
Origin: NIST Mass Spectrometry Data Center
1/CM	ABSORBANCE
550	0.0002905
562	0.00021
574	8.05e-05
586	0.0002065
598	0.000175
610	0.0001435
622	0.0001225
634	0.0001085
646	0.0001365
658	6.3e-05
670	0.0001365
682	0.0001365
694	0.0001085
706	0.0002555
718	0.000308
730	0.0005215
742	0.000574
754	0.000371
766	0.0003395
778	0.0004305
790	0.000427
802	0.000476
814	0.0004655
826	0.0005355
838	0.000588
850	0.000546
862	0.0005565
874	0.0004585
886	0.0005915
898	0.000721
910	0.000896
922	0.001085
934	0.001428
946	0.0018305
958	0.002331
970	0.002989
982	0.0039025
994	0.0049105
1006	0.004963
1018	0.003682
1030	0.00252
1042	0.001911
1054	0.0015365
1066	0.0013125
1078	0.001211
1090	0.001015
1102	0.0009205
1114	0.000819
1126	0.0008645
1138	0.0009835
1150	0.0011235
1162	0.0013265
1174	0.0013195
1186	0.0012635
1198	0.0013405
1210	0.0014385
1222	0.0013965
1234	0.001295
1246	0.001232
1258	0.001183
1270	0.0011515
1282	0.0012075
1294	0.0012215
1306	0.001302
1318	0.0014525
1330	0.0018165
1342	0.0022925
1354	0.0028
1366	0.0036505
1378	0.005425
1390	0.004781
1402	0.0024675
1414	0.001694
1426	0.001554
1438	0.0022085
1450	0.003549
1462	0.0049735
1474	0.003507
1486	0.0015365
1498	0.0008645
1510	0.00063
1522	0.0005075
1534	0.0003955
1546	0.0003815
1558	0.0003325
1570	0.000315
1582	0.000287
1594	0.000308
1606	0.000308
1618	0.000315
1630	0.000322
1642	0.000441
1654	0.0007595
1666	0.000973
1678	0.0004515
1690	0.0002345
1702	0.0002275
1714	0.000133
1726	9.45e-05
1738	8.4e-05
1750	4.55e-05
1762	5.6e-05
1774	8.4e-05
1786	8.4e-05
1798	9.1e-05
1810	7e-05
1822	9.8e-05
1834	6.65e-05
1846	5.6e-05
1858	3.85e-05
1870	6.3e-05
1882	2.1e-05
1894	5.25e-05
1906	2.8e-05
1918	3.85e-05
1930	2.8e-05
1942	4.55e-05
1954	1.75e-05
1966	3.5e-05
1978	5.6e-05
1990	5.25e-05
2002	6.65e-05
2014	5.95e-05
2026	6.3e-05
2038	4.9e-05
2050	5.6e-05
2062	1.4e-05
2074	4.2e-05
2086	3.5e-05
2098	3.15e-05
2110	3.5e-06
2122	3.5e-05
2134	4.9e-05
2146	3.15e-05
2158	3.15e-05
2170	2.8e-05
2182	2.8e-05
2194	3.5e-05
2206	4.55e-05
2218	2.45e-05
2230	3.5e-05
2242	5.25e-05
2254	2.45e-05
2266	5.95e-05
2278	6.65e-05
2290	7.35e-05
2302	6.3e-05
2314	8.4e-05
2326	7.35e-05
2338	4.9e-05
2350	7e-05
2362	8.05e-05
2374	8.75e-05
2386	8.05e-05
2398	0.000105
2410	9.45e-05
2422	0.000105
2434	9.8e-05
2446	0.0001085
2458	0.0001155
2470	0.0001225
2482	0.000147
2494	0.0001365
2506	0.0001435
2518	0.0001575
2530	0.000182
2542	0.000217
2554	0.00021
2566	0.000245
2578	0.0002975
2590	0.0003045
2602	0.000336
2614	0.0003745
2626	0.000413
2638	0.0004235
2650	0.0004445
2662	0.0004725
2674	0.000511
2686	0.00056
2698	0.0005915
2710	0.000623
2722	0.000749
2734	0.000854
2746	0.0008365
2758	0.000875
2770	0.0009275
2782	0.001071
2794	0.001344
2806	0.0017185
2818	0.002296
2830	0.003388
2842	0.0059605
2854	0.0117845
2866	0.0140105
2878	0.0172655
2890	0.0161595
2902	0.020195
2914	0.025571
2926	0.031416
2938	0.0341425
2950	0.0258965
2962	0.030625
2974	0.018263
2986	0.0070875
2998	0.0041895
3010	0.0028945
3022	0.002233
3034	0.0017465
3046	0.001428
3058	0.0011865
3070	0.000966
3082	0.000882
3094	0.000791
3106	0.000616
3118	0.000511
3130	0.0004655
3142	0.000434
3154	0.00042
3166	0.0004025
3178	0.000357
3190	0.000294
3202	0.0002765
3214	0.000203
3226	0.0001295
3238	0.000126
3250	0.000112
3262	8.75e-05
3274	0.0001435
3286	0.0001085
3298	8.05e-05
3310	8.4e-05
3322	0.0001085
3334	0.000126
3346	8.4e-05
3358	0.0001015
3370	0.0001015
3382	8.05e-05
3394	7.35e-05
3406	7e-05
3418	8.4e-05
3430	7.35e-05
3442	5.95e-05
3454	4.9e-05
3466	3.85e-05
3478	8.05e-05
3490	0
3502	1.75e-05
3514	6.3e-05
3526	7.35e-05
3538	4.2e-05
3550	4.2e-05
3562	8.75e-05
3574	1.75e-05
3586	4.55e-05
3598	7.35e-05
3610	0.0001645
3622	0.0002485
3634	0.0004025
3646	0.000749
3658	0.000854
3670	0.000609
3682	0.000287
3694	0.0001855
3706	0.0001435
3718	0.0001085
3730	8.4e-05
3742	9.8e-05
3754	5.6e-05
3766	0.000126
3778	9.45e-05
3790	5.25e-05
3802	0.0001365
3814	0.000105
3826	0.0001365
3838	0.000168
