Infrared Spectrum: Phenyl anthranilate
Formula: C 13 H 11 N O 2
CAS: 10268-69-6
State: gas
Origin: EPA-IR VAPOR PHASE LIBRARY
1/CM	ABSORBANCE
549.8	0.01808
559.445	0.01908
569.09	0.01816
578.734	0.03068
588.379	0.02664
598.024	0.01443
607.669	0.01258
617.313	0.01278
626.958	0.01426
636.603	0.01638
646.248	0.01862
655.893	0.02456
665.537	0.03474
675.182	0.05288
684.827	0.05941
694.472	0.05889
704.116	0.03918
713.761	0.03011
723.406	0.03535
733.051	0.06447
742.695	0.11428
752.34	0.09609
761.985	0.04636
771.63	0.02387
781.275	0.01819
790.919	0.01831
800.564	0.01936
810.209	0.01826
819.854	0.01817
829.498	0.01832
839.143	0.0209
848.788	0.02278
858.433	0.02098
868.078	0.01598
877.722	0.01304
887.367	0.0131
897.012	0.01473
906.657	0.01773
916.301	0.01648
925.946	0.0126
935.591	0.0107
945.236	0.01051
954.88	0.01205
964.525	0.01328
974.17	0.01377
983.815	0.01644
993.46	0.02881
1003.1	0.04495
1012.75	0.03968
1022.39	0.05412
1032.04	0.08439
1041.68	0.15146
1051.33	0.20687
1060.97	0.136
1070.62	0.09512
1080.26	0.10146
1089.91	0.09233
1099.55	0.05182
1109.2	0.028
1118.84	0.02023
1128.49	0.01855
1138.13	0.0247
1147.78	0.0509
1157.42	0.21218
1167.07	0.18897
1176.71	0.07855
1186.36	0.20513
1196	0.51591
1205.64	0.36017
1215.29	0.13096
1224.93	0.19635
1234.58	0.34609
1244.22	0.3999
1253.87	0.16977
1263.51	0.09158
1273.16	0.10385
1282.8	0.15756
1292.45	0.11691
1302.09	0.06091
1311.74	0.06386
1321.38	0.06337
1331.03	0.03309
1340.67	0.01993
1350.32	0.01587
1359.96	0.01382
1369.61	0.0115
1379.25	0.00935
1388.9	0.008
1398.54	0.00784
1408.18	0.00784
1417.83	0.00789
1427.47	0.00957
1437.12	0.01386
1446.76	0.02857
1456.41	0.05166
1466.05	0.05295
1475.7	0.06994
1485.34	0.1168
1494.99	0.15812
1504.63	0.04825
1514.28	0.0211
1523.92	0.0162
1533.57	0.01606
1543.21	0.0191
1552.86	0.02898
1562.5	0.05343
1572.15	0.06571
1581.79	0.0914
1591.44	0.14376
1601.08	0.13225
1610.73	0.14343
1620.37	0.16955
1630.01	0.10037
1639.66	0.0362
1649.3	0.01883
1658.95	0.0142
1668.59	0.01286
1678.24	0.01508
1687.88	0.02201
1697.53	0.0305
1707.17	0.06317
1716.82	0.17992
1726.46	0.25004
1736.11	0.11652
1745.75	0.05898
1755.4	0.04488
1765.04	0.02389
1774.69	0.01591
1784.33	0.0124
1793.98	0.01131
1803.62	0.00838
1813.27	0.0068
1822.91	0.00561
1832.55	0.00476
1842.2	0.00441
1851.84	0.00455
1861.49	0.00493
1871.13	0.00528
1880.78	0.00574
1890.42	0.00571
1900.07	0.00598
1909.71	0.00815
1919.36	0.00844
1929	0.00738
1938.65	0.00707
1948.29	0.00616
1957.94	0.00471
1967.58	0.00357
1977.23	0.00359
1986.87	0.00451
1996.52	0.00458
2006.16	0.0037
2015.81	0.00345
2025.45	0.00382
2035.1	0.00404
2044.74	0.00349
2054.38	0.0028
2064.03	0.00261
2073.67	0.00273
2083.32	0.00274
2092.96	0.0031
2102.61	0.00314
2112.25	0.00274
2121.9	0.00238
2131.54	0.00225
2141.19	0.00226
2150.83	0.00208
2160.48	0.00193
2170.12	0.00181
2179.77	0.00165
2189.41	0.00145
2199.06	0.00125
2208.7	0.00107
2218.35	0.0011
2227.99	0.00123
2237.64	0.00125
2247.28	0.00137
2256.92	0.00151
2266.57	0.0017
2276.21	0.00207
2285.86	0.00235
2295.5	0.00215
2305.15	0.00217
2314.79	0.00271
2324.44	0.00282
2334.08	0.00259
2343.73	0.00231
2353.37	0.00277
2363.02	0.00282
2372.66	0.0025
2382.31	0.00288
2391.95	0.00316
2401.6	0.00248
2411.24	0.00182
2420.89	0.00148
2430.53	0.00142
2440.18	0.00137
2449.82	0.00148
2459.47	0.00145
2469.11	0.00166
2478.75	0.00175
2488.4	0.00166
2498.04	0.00124
2507.69	0.00133
2517.33	0.00149
2526.98	0.00149
2536.62	0.00125
2546.27	0.00104
2555.91	0.0009879
2565.56	0.00127
2575.2	0.00122
2584.85	0.00118
2594.49	0.00102
2604.14	0.00117
2613.78	0.00137
2623.43	0.00139
2633.07	0.00168
2642.72	0.0021
2652.36	0.00207
2662.01	0.00148
2671.65	0.00121
2681.29	0.000906
2690.94	0.0009131
2700.58	0.0008592
2710.23	0.00104
2719.87	0.00149
2729.52	0.00143
2739.16	0.0009936
2748.81	0.0009057
2758.45	0.00104
2768.1	0.00125
2777.74	0.00152
2787.39	0.00183
2797.03	0.00166
2806.68	0.00177
2816.32	0.00147
2825.97	0.00105
2835.61	0.0008182
2845.26	0.0008673
2854.9	0.0007975
2864.55	0.0011
2874.19	0.00149
2883.84	0.00182
2893.48	0.00187
2903.12	0.0019
2912.77	0.00189
2922.41	0.0018
2932.06	0.00183
2941.7	0.00198
2951.35	0.00211
2960.99	0.00188
2970.64	0.0019
2980.28	0.00166
2989.93	0.00188
2999.57	0.00288
3009.22	0.00485
3018.86	0.00903
3028.51	0.01846
3038.15	0.02848
3047.8	0.03501
3057.44	0.03483
3067.09	0.03473
3076.73	0.03895
3086.38	0.04029
3096.02	0.02371
3105.67	0.01378
3115.31	0.00702
3124.95	0.00383
3134.6	0.0023
3144.24	0.00197
3153.89	0.00181
3163.53	0.00179
3173.18	0.00193
3182.82	0.00212
3192.47	0.00186
3202.11	0.00153
3211.76	0.00131
3221.4	0.00103
3231.05	0.0007906
3240.69	0.0005187
3250.34	0.0006363
3259.98	0.0006329
3269.63	0.0009047
3279.27	0.00116
3288.92	0.00136
3298.56	0.00183
3308.21	0.00245
3317.85	0.00334
3327.49	0.00338
3337.14	0.00331
3346.78	0.00355
3356.43	0.00415
3366.07	0.00683
3375.72	0.01663
3385.36	0.04616
3395.01	0.06197
3404.65	0.02912
3414.3	0.01248
3423.94	0.01147
3433.59	0.01015
3443.23	0.00544
3452.88	0.00379
3462.52	0.00421
3472.17	0.00562
3481.81	0.00821
3491.46	0.01271
3501.1	0.0211
3510.75	0.03555
3520.39	0.04415
3530.04	0.03037
3539.68	0.01384
3549.32	0.0057
3558.97	0.00302
3568.61	0.00201
3578.26	0.00136
3587.9	0.00111
3597.55	0.0009573
3607.19	0.0008534
3616.84	0.0008705
3626.48	0.0006489
3636.13	0.0006548
3645.77	0.0006212
3655.42	0.0004377
3665.06	0.0006554
3674.71	0.0005172
3684.35	0.0005901
3694	0.0006379
3703.64	0.0007019
3713.29	0.0006706
3722.93	0.0005263
3732.58	0.0004525
3742.22	0.0002567
3751.86	0.0004483
3761.51	0.0003486
3771.15	0.0004758
3780.8	0.0003927
3790.44	0.0004796
3800.09	0.0005795
3809.73	0.0006636
3819.38	0.0008843
3829.02	0.0007292
3838.67	0.0007462
3848.31	0.0006675
3857.96	0.0006111
3867.6	0.000693
3877.25	0.0004895
3886.89	0.000535
3896.54	0.0006273
3906.18	0.0005165
3915.83	0.0007738
3925.47	0.000801
3935.12	0.0008704
3944.76	0.0005394
3954.41	0.0008734
3964.05	0.00083
3973.69	0.0005055
3983.34	0.0006212
3992.98	0.0004989
