Infrared Spectrum: O-METHOXYBENZOIC ACID, PHENYL ESTER
Formula: C14 H12 O3
CAS: 10268-71-0
State: SOLID (MINERAL OIL MULL)
Class: COBLENTZ
Instrument: Not specified, most likely a prism, grating, or hybrid spectrometer.
Sampling: TRANSMISSION
Resolution: 4
Origin: WYANDOTTE CHEMICALS CORP., WYANDOTTE, MICHIGAN, USA
MICROMETERS	TRANSMITTANCE
2.026	0.603
2.06572	0.601
2.10543	0.609
2.14515	0.618
2.18487	0.613
2.22458	0.613
2.2643	0.616
2.30402	0.624
2.34373	0.626
2.38345	0.626
2.42316	0.641
2.46288	0.644
2.5026	0.644
2.54231	0.651
2.58203	0.672
2.62175	0.654
2.66146	0.679
2.70118	0.682
2.7409	0.672
2.78061	0.682
2.82033	0.679
2.86005	0.669
2.89976	0.664
2.93948	0.656
2.9792	0.669
3.01891	0.669
3.05863	0.667
3.09834	0.669
3.13806	0.664
3.17778	0.659
3.21749	0.647
3.25721	0.595
3.29693	0.576
3.33664	0.386
3.37636	0.132
3.41608	0.12
3.45579	0.224
3.49551	0.231
3.53523	0.408
3.57494	0.728
3.61466	0.761
3.65438	0.765
3.69409	0.768
3.73381	0.775
3.77352	0.775
3.81324	0.783
3.85296	0.781
3.89267	0.79
3.93239	0.78
3.97211	0.796
4.01182	0.804
4.05154	0.809
4.09126	0.811
4.13097	0.811
4.17069	0.816
4.21041	0.818
4.25012	0.816
4.28984	0.804
4.32956	0.818
4.36927	0.836
4.40899	0.867
4.44871	0.857
4.48842	0.849
4.52814	0.862
4.56785	0.869
4.60757	0.867
4.64729	0.871
4.687	0.877
4.72672	0.877
4.76644	0.857
4.80615	0.874
4.84587	0.892
4.88559	0.89
4.9253	0.894
4.96502	0.874
5.00474	0.879
5.04445	0.89
5.08417	0.88
5.12389	0.892
5.1636	0.922
5.20332	0.887
5.24303	0.899
5.28275	0.892
5.32247	0.907
5.36218	0.933
5.4019	0.93
5.44162	0.93
5.48133	0.942
5.52105	0.91
5.56077	0.907
5.60048	0.904
5.6402	0.897
5.67992	0.869
5.71963	0.639
5.75935	0.211
5.79907	0.247
5.83878	0.543
5.8785	0.634
5.91821	0.702
5.95793	0.79
5.99765	0.809
6.03736	0.791
6.07708	0.833
6.1168	0.849
6.15651	0.814
6.19623	0.433
6.23595	0.533
6.27566	0.566
6.31538	0.75
6.3551	0.838
6.39481	0.846
6.43453	0.877
6.47425	0.861
6.51396	0.8
6.55368	0.791
6.59339	0.719
6.63311	0.238
6.67283	0.307
6.71254	0.533
6.75226	0.586
6.79198	0.373
6.83169	0.214
6.87141	0.216
6.91113	0.454
6.95084	0.53
6.99056	0.672
7.03028	0.768
7.06999	0.814
7.10971	0.793
7.14943	0.785
7.18914	0.831
7.22886	0.697
7.26858	0.611
7.30829	0.748
7.34801	0.79
7.38772	0.818
7.42744	0.846
7.46716	0.851
7.50687	0.849
7.54659	0.791
7.58631	0.542
7.62602	0.36
7.66574	0.365
7.70546	0.444
7.74517	0.34
7.78489	0.181
7.82461	0.178
7.86432	0.107
7.90404	0.112
7.94376	0.104
7.98347	0.097
8.02319	0.229
8.0629	0.378
8.10262	0.454
8.14234	0.533
8.18205	0.595
8.22177	0.616
8.26149	0.565
8.3012	0.395
8.34092	0.262
8.38064	0.371
8.42035	0.558
8.46007	0.548
8.49979	0.386
8.5395	0.127
8.57922	0.272
8.61894	0.315
8.65865	0.241
8.69837	0.441
8.73808	0.6
8.7778	0.684
8.81752	0.72
8.85723	0.727
8.89695	0.657
8.93667	0.492
8.97638	0.142
9.0161	0.289
9.05582	0.523
9.09553	0.638
9.13525	0.689
9.17497	0.697
9.21468	0.476
9.2544	0.271
9.29412	0.5
9.33383	0.547
9.37355	0.234
9.41326	0.117
9.45298	0.2
9.4927	0.37
9.53241	0.489
9.57213	0.423
9.61185	0.333
9.65156	0.545
9.69128	0.568
9.731	0.229
9.77071	0.163
9.81043	0.309
9.85015	0.434
9.88986	0.543
9.92958	0.608
9.9693	0.578
10.009	0.616
10.0487	0.697
10.0884	0.719
10.1282	0.73
10.1679	0.73
10.2076	0.728
10.2473	0.737
10.287	0.72
10.3267	0.737
10.3665	0.752
10.4062	0.757
10.4459	0.76
10.4856	0.76
10.5253	0.765
10.565	0.766
10.6048	0.757
10.6445	0.679
10.6842	0.676
10.7239	0.51
10.7636	0.646
10.8033	0.745
10.8431	0.766
10.8828	0.77
10.9225	0.785
10.9622	0.79
11.0019	0.796
11.0416	0.798
11.0814	0.801
11.1211	0.806
11.1608	0.808
11.2005	0.811
11.2402	0.808
11.2799	0.808
11.3197	0.801
11.3594	0.798
11.3991	0.766
11.4388	0.73
11.4785	0.742
11.5182	0.771
11.558	0.791
11.5977	0.791
11.6374	0.788
11.6771	0.783
11.7168	0.798
11.7565	0.8
11.7963	0.793
11.836	0.768
11.8757	0.666
11.9154	0.621
11.9551	0.719
11.9948	0.709
12.0346	0.644
12.0743	0.758
12.114	0.795
12.1537	0.811
12.1934	0.814
12.2331	0.823
12.2729	0.823
12.3126	0.819
12.3523	0.808
12.392	0.798
12.4317	0.752
12.4714	0.659
12.5112	0.685
12.5509	0.758
12.5906	0.783
12.6303	0.798
12.67	0.811
12.7097	0.809
12.7494	0.808
12.7892	0.8
12.8289	0.791
12.8686	0.773
12.9083	0.753
12.948	0.699
12.9877	0.586
13.0275	0.353
13.0672	0.261
13.1069	0.276
13.1466	0.251
13.1863	0.196
13.226	0.181
13.2658	0.247
13.3055	0.342
13.3452	0.447
13.3849	0.5
13.4246	0.548
13.4643	0.571
13.5041	0.606
13.5438	0.641
13.5835	0.669
13.6232	0.666
13.6629	0.669
13.7026	0.661
13.7424	0.652
13.7821	0.633
13.8218	0.586
13.8615	0.509
13.9012	0.434
13.9409	0.355
13.9807	0.256
14.0204	0.191
14.0601	0.176
14.0998	0.203
14.1395	0.252
14.1792	0.319
14.219	0.37
14.2587	0.429
14.2984	0.504
14.3381	0.573
14.3778	0.628
14.4175	0.659
14.4573	0.689
14.497	0.695
14.5367	0.707
14.5764	0.7
14.6161	0.677
14.6558	0.659
14.6956	0.651
14.7353	0.679
14.775	0.689
14.8147	0.674
14.8544	0.626
14.8941	0.618
14.9339	0.647
14.9736	0.68
15.0133	0.679
15.053	0.674
15.0927	0.679
15.1324	0.71
15.1722	0.727
15.2119	0.722
15.2516	0.715
15.2913	0.71
15.331	0.702
15.3707	0.69
15.4105	0.687
15.4502	0.677
15.4899	0.674
15.5296	0.672
15.5693	0.667
15.609	0.664
15.6488	0.659
15.6885	0.651
15.7282	0.644
15.7679	0.638
15.8076	0.638
15.8473	0.629
15.8871	0.628
15.9268	0.621
15.9665	0.618
16.0062	0.604
