Infrared Spectrum: 2,2'-(1,2-Ethanediyl)bis(benzonitrile)
Formula: C 16 H 12 N 2
CAS: 10270-33-4
State: gas
Origin: EPA-IR VAPOR PHASE LIBRARY
1/CM	ABSORBANCE
551.7	0.001809
563.274	0.0012663
574.848	0.0010963
586.421	0.0011345
597.995	0.0009379
609.569	0.0008953
621.143	0.0008651
632.717	0.0007384
644.291	0.0007716
655.864	0.0006566
667.438	0.0006237
679.012	0.0007501
690.586	0.0008815
702.16	0.0009436
713.734	0.0011449
725.307	0.0012961
736.881	0.002289
748.455	0.008469
760.029	0.015159
771.603	0.003289
783.177	0.001519
794.75	0.0010803
806.324	0.0009041
817.898	0.0008589
829.472	0.0007564
841.046	0.0006856
852.619	0.0007473
864.193	0.0007949
875.767	0.0006959
887.341	0.0007782
898.915	0.0007121
910.489	0.0007447
922.062	0.0008256
933.636	0.0008184
945.21	0.0010304
956.784	0.001055
968.358	0.0006062
979.932	0.0006246
991.505	0.0006823
1003.08	0.0006308
1014.65	0.0007956
1026.23	0.000769
1037.8	0.0011114
1049.37	0.0007866
1060.95	0.00047622
1072.52	0.0007986
1084.1	0.0009036
1095.67	0.0008501
1107.24	0.0006537
1118.82	0.0006694
1130.39	0.0007007
1141.97	0.0006053
1153.54	0.0010013
1165.11	0.0011879
1176.69	0.0010614
1188.26	0.0009164
1199.83	0.0011307
1211.41	0.001157
1222.98	0.00103
1234.56	0.0009694
1246.13	0.0009396
1257.7	0.0010469
1269.28	0.0011259
1280.85	0.0012453
1292.42	0.0011817
1304	0.001243
1315.57	0.0009221
1327.15	0.0007986
1338.72	0.0009196
1350.29	0.0009279
1361.87	0.0006973
1373.44	0.0006168
1385.02	0.0005699
1396.59	0.0005796
1408.16	0.0006487
1419.74	0.0007129
1431.31	0.0010955
1442.88	0.002269
1454.46	0.003099
1466.03	0.001909
1477.61	0.002759
1489.18	0.004059
1500.75	0.0012581
1512.33	0.000846
1523.9	0.000655
1535.48	0.00055473
1547.05	0.0005117
1558.62	0.00052273
1570.2	0.0006672
1581.77	0.0008484
1593.34	0.001589
1604.92	0.001619
1616.49	0.0009502
1628.07	0.0008619
1639.64	0.0006876
1651.21	0.00054423
1662.79	0.00052459
1674.36	0.00052827
1685.93	0.00054049
1697.51	0.000677
1709.08	0.0007179
1720.66	0.0006132
1732.23	0.000608
1743.8	0.0005768
1755.38	0.00051957
1766.95	0.0004439
1778.53	0.00048768
1790.1	0.00054678
1801.67	0.000629
1813.25	0.0007487
1824.82	0.0006963
1836.39	0.0006731
1847.97	0.0006334
1859.54	0.0005806
1871.12	0.00052877
1882.69	0.00054422
1894.26	0.000607
1905.84	0.0005976
1917.41	0.0006498
1928.99	0.0009338
1940.56	0.0006363
1952.13	0.0006793
1963.71	0.0008378
1975.28	0.00052096
1986.85	0.0004396
1998.43	0.0003954
2010	0.0003987
2021.58	0.0004292
2033.15	0.000422
2044.72	0.0004219
2056.3	0.000412
2067.87	0.000421
2079.44	0.0004376
2091.02	0.0004297
2102.59	0.0003967
2114.17	0.0003944
2125.74	0.0004064
2137.31	0.0004054
2148.89	0.0004294
2160.46	0.0004006
2172.04	0.0004344
2183.61	0.00045788
2195.18	0.00052675
2206.76	0.000698
2218.33	0.001719
2229.9	0.002549
2241.48	0.0008666
2253.05	0.00054357
2264.63	0.00048096
2276.2	0.00044939
2287.77	0.00046309
2299.35	0.0004334
2310.92	0.0004298
2322.5	0.00047398
2334.07	0.0004482
2345.64	0.0004206
2357.22	0.0003923
2368.79	0.0004254
2380.36	0.00043
2391.94	0.0004131
2403.51	0.0003652
2415.09	0.000345
2426.66	0.0003945
2438.23	0.0003664
2449.81	0.000337
2461.38	0.0003638
2472.96	0.00033
2484.53	0.000313
2496.1	0.0003616
2507.68	0.000339
2519.25	0.000336
2530.82	0.000387
2542.4	0.000328
2553.97	0.0004068
2565.55	0.000358
2577.12	0.000344
2588.69	0.000355
2600.27	0.00035
2611.84	0.0003806
2623.41	0.000319
2634.99	0.000317
2646.56	0.000321
2658.14	0.000303
2669.71	0.0003661
2681.28	0.0004067
2692.86	0.000329
2704.43	0.000311
2716.01	0.000358
2727.58	0.000351
2739.15	0.000338
2750.73	0.000354
2762.3	0.000318
2773.87	0.000285
2785.45	0.0004006
2797.02	0.0003815
2808.6	0.00038
2820.17	0.000296
2831.74	0.000339
2843.32	0.000358
2854.89	0.000428
2866.47	0.0007576
2878.04	0.0012219
2889.61	0.0007857
2901.19	0.0006279
2912.76	0.0008133
2924.33	0.0011033
2935.91	0.001789
2947.48	0.002109
2959.06	0.001759
2970.63	0.001559
2982.2	0.0007687
2993.78	0.00051227
3005.35	0.00054511
3016.92	0.0007769
3028.5	0.001559
3040.07	0.001559
3051.65	0.0011052
3063.22	0.001699
3074.79	0.003569
3086.37	0.002909
3097.94	0.0011778
3109.52	0.000755
3121.09	0.0004446
3132.66	0.000344
3144.24	0.0004268
3155.81	0.000305
3167.38	0.000259
3178.96	0.000222
3190.53	0.0002
3202.11	0.000274
3213.68	0.000116
3225.25	0.000202
3236.83	0.000183
3248.4	0.000196
3259.98	0.000157
3271.55	0.000171
3283.12	0.000179
3294.7	0.000184
3306.27	0.000139
3317.84	0.000153
3329.42	0.000103
3340.99	0.000145
3352.57	0.000207
3364.14	0.000156
3375.71	0.00018
3387.29	0.000239
3398.86	0.000176
3410.43	0.000183
3422.01	0.000189
3433.58	0.000143
3445.16	0.000222
3456.73	0.000123
3468.3	0.000203
3479.88	7.8e-05
3491.45	0.000148
3503.03	0.000236
3514.6	0.000143
3526.17	0.000111
3537.75	0.00015
3549.32	0.000103
3560.89	0.000137
3572.47	0.000221
3584.04	0.000157
3595.62	0.000124
3607.19	0.000184
3618.76	0.00018
3630.34	0.00015
3641.91	0.000117
3653.49	0.000144
3665.06	0.000107
3676.63	0.00015
3688.21	0.000144
3699.78	0.000171
3711.35	0.000105
3722.93	0.000135
3734.5	8.1e-05
3746.08	4.1e-05
3757.65	0.000175
3769.22	0.000204
3780.8	0.000138
3792.37	0.000173
3803.94	0.000292
3815.52	0.00017
3827.09	0.000166
3838.67	0.000234
3850.24	0.000143
3861.81	0.000163
3873.39	0.000151
3884.96	0.000189
3896.54	0.000105
3908.11	4.3e-05
3919.68	0.000146
3931.26	8.4e-05
3942.83	7.1e-05
3954.4	9.8e-05
3965.98	0.000147
3977.55	0.000116
3989.13	0.000133
4000.7	0.000134
