Infrared Spectrum: p-Nitrophenyl hexadecyl ether
Formula: C 22 H 37 N O 3
CAS: 102703-33-3
State: gas
Origin: EPA-IR VAPOR PHASE LIBRARY
1/CM	ABSORBANCE
549.8	0.0006409
559.445	0.000176
569.09	0.0002849
578.734	0.0006012
588.379	0.0004977
598.024	0.0008679
607.669	0.001315
617.313	0.002235
626.958	0.001945
636.603	0.002575
646.248	0.003905
655.893	0.003685
665.537	0.001635
675.182	0.001935
684.827	0.002385
694.472	0.002175
704.116	0.001935
713.761	0.002055
723.406	0.002145
733.051	0.002045
742.695	0.003325
752.34	0.004685
761.985	0.002125
771.63	0.001505
781.275	0.0011642
790.919	0.0010475
800.564	0.0010296
810.209	0.0011115
819.854	0.002235
829.498	0.003415
839.143	0.007515
848.788	0.010315
858.433	0.012465
868.078	0.005445
877.722	0.002515
887.367	0.001705
897.012	0.001615
906.657	0.001655
916.301	0.001645
925.946	0.001605
935.591	0.001935
945.236	0.002165
954.88	0.002375
964.525	0.002695
974.17	0.003265
983.815	0.004035
993.46	0.004605
1003.1	0.006205
1012.75	0.007335
1022.39	0.007815
1032.04	0.007495
1041.68	0.006035
1051.33	0.004975
1060.97	0.003925
1070.62	0.003445
1080.26	0.003205
1089.91	0.003895
1099.55	0.004795
1109.2	0.011155
1118.84	0.006915
1128.49	0.002415
1138.13	0.001455
1147.78	0.002375
1157.42	0.004495
1167.07	0.012755
1176.71	0.007585
1186.36	0.004585
1196	0.003815
1205.64	0.004965
1215.29	0.008025
1224.93	0.012065
1234.58	0.020705
1244.22	0.034855
1253.87	0.047235
1263.51	0.029675
1273.16	0.013645
1282.8	0.009775
1292.45	0.013425
1302.09	0.011055
1311.74	0.009525
1321.38	0.012895
1331.03	0.015625
1340.67	0.032425
1350.32	0.047065
1359.96	0.019835
1369.61	0.010535
1379.25	0.007195
1388.9	0.005775
1398.54	0.003755
1408.18	0.002885
1417.83	0.002925
1427.47	0.003465
1437.12	0.004865
1446.76	0.006945
1456.41	0.009635
1466.05	0.012445
1475.7	0.013105
1485.34	0.012115
1494.99	0.027185
1504.63	0.017315
1514.28	0.011675
1523.92	0.018975
1533.57	0.030045
1543.21	0.020035
1552.86	0.010325
1562.5	0.006885
1572.15	0.007195
1581.79	0.013985
1591.44	0.030585
1601.08	0.025145
1610.73	0.014875
1620.37	0.006875
1630.01	0.003205
1639.66	0.002025
1649.3	0.001715
1658.95	0.001395
1668.59	0.0011198
1678.24	0.0009608
1687.88	0.000944
1697.53	0.0007715
1707.17	0.0007939
1716.82	0.0007093
1726.46	0.0008302
1736.11	0.0007884
1745.75	0.0008919
1755.4	0.0010669
1765.04	0.0009867
1774.69	0.0007679
1784.33	0.0007501
1793.98	0.0006934
1803.62	0.0007317
1813.27	0.0006928
1822.91	0.0006386
1832.55	0.0006135
1842.2	0.0005851
1851.84	0.00058
1861.49	0.0006465
1871.13	0.0008032
1880.78	0.000854
1890.42	0.0009912
1900.07	0.0010569
1909.71	0.0010557
1919.36	0.0009248
1929	0.0007658
1938.65	0.000708
1948.29	0.000683
1957.94	0.0007795
1967.58	0.0007835
1977.23	0.0008138
1986.87	0.0007162
1996.52	0.0007449
2006.16	0.0008862
2015.81	0.0009723
2025.45	0.0009139
2035.1	0.0009372
2044.74	0.0008514
2054.38	0.0008634
2064.03	0.000837
2073.67	0.0008151
2083.32	0.0007583
2092.96	0.0007006
2102.61	0.0007085
2112.25	0.0007902
2121.9	0.0007827
2131.54	0.0006993
2141.19	0.0006447
2150.83	0.0006036
2160.48	0.0006563
2170.12	0.0005648
2179.77	0.0005419
2189.41	0.0006235
2199.06	0.0005959
2208.7	0.0006111
2218.35	0.0006195
2227.99	0.0006009
2237.64	0.0006213
2247.28	0.0006348
2256.92	0.000662
2266.57	0.0007159
2276.21	0.0007578
2285.86	0.0006163
2295.5	0.0006251
2305.15	0.0006402
2314.79	0.0006464
2324.44	0.0006496
2334.08	0.0006435
2343.73	0.000629
2353.37	0.0006979
2363.02	0.0007355
2372.66	0.0006985
2382.31	0.0007556
2391.95	0.0007857
2401.6	0.0007809
2411.24	0.0007798
2420.89	0.0007361
2430.53	0.0008284
2440.18	0.0008527
2449.82	0.0009842
2459.47	0.001145
2469.11	0.0009437
2478.75	0.0008796
2488.4	0.0009193
2498.04	0.0009328
2507.69	0.0009336
2517.33	0.0008266
2526.98	0.0010081
2536.62	0.0010457
2546.27	0.0010179
2555.91	0.0010768
2565.56	0.0011204
2575.2	0.0011647
2584.85	0.0010542
2594.49	0.0011628
2604.14	0.0010329
2613.78	0.0011753
2623.43	0.0012525
2633.07	0.0012446
2642.72	0.001315
2652.36	0.0012817
2662.01	0.0012595
2671.65	0.001325
2681.29	0.001405
2690.94	0.001415
2700.58	0.001335
2710.23	0.001385
2719.87	0.001305
2729.52	0.001315
2739.16	0.001505
2748.81	0.001545
2758.45	0.001665
2768.1	0.001715
2777.74	0.001855
2787.39	0.002055
2797.03	0.002355
2806.68	0.002785
2816.32	0.003365
2825.97	0.004555
2835.61	0.006165
2845.26	0.010515
2854.9	0.023285
2864.55	0.034255
2874.19	0.024085
2883.84	0.018935
2893.48	0.018145
2903.12	0.023525
2912.77	0.035575
2922.41	0.060695
2932.06	0.091995
2941.7	0.069785
2951.35	0.039915
2960.99	0.026565
2970.64	0.020935
2980.28	0.011575
2989.93	0.006685
2999.57	0.004445
3009.22	0.003335
3018.86	0.002685
3028.51	0.002145
3038.15	0.001835
3047.8	0.001795
3057.44	0.001655
3067.09	0.001695
3076.73	0.001775
3086.38	0.002305
3096.02	0.001905
3105.67	0.0012333
3115.31	0.0009982
3124.95	0.0009564
3134.6	0.0007223
3144.24	0.0007225
3153.89	0.000701
3163.53	0.0007055
3173.18	0.0007059
3182.82	0.0006448
3192.47	0.0005512
3202.11	0.0007191
3211.76	0.0006766
3221.4	0.0006724
3231.05	0.0005485
3240.69	0.0005195
3250.34	0.00035714
3259.98	0.0004724
3269.63	0.0004481
3279.27	0.0004791
3288.92	0.0005213
3298.56	0.0004325
3308.21	0.000409
3317.85	0.00033677
3327.49	0.0004208
3337.14	0.0005315
3346.78	0.0006144
3356.43	0.0004379
3366.07	0.000419
3375.72	0.00031679
3385.36	0.0004202
3395.01	0.0004942
3404.65	0.0004218
3414.3	0.00037523
3423.94	0.00038222
3433.59	0.00034696
3443.23	0.00038102
3452.88	0.00034701
3462.52	0.0004765
3472.17	0.0004712
3481.81	0.0004954
3491.46	0.00039526
3501.1	0.00038831
3510.75	0.0004443
3520.39	0.00038913
3530.04	0.000201
3539.68	0.00037302
3549.32	0.00039393
3558.97	0.00037116
3568.61	0.0002632
3578.26	0.0004197
3587.9	0.0004225
3597.55	0.00041
3607.19	0.000477
3616.84	0.0005641
3626.48	0.0004158
3636.13	0.0004357
3645.77	0.0004571
3655.42	0.00038367
3665.06	0.000559
3674.71	0.00036558
3684.35	0.0004943
3694	0.0004675
3703.64	0.0005577
3713.29	0.0005115
3722.93	0.0004509
3732.58	0.0004612
3742.22	0.0005538
3751.86	0.0004261
3761.51	0.00035559
3771.15	0.0003468
3780.8	0.0004849
3790.44	0.00038932
3800.09	0.0004806
3809.73	0.000467
3819.38	0.000517
3829.02	0.0005541
3838.67	0.0004509
3848.31	0.0004657
3857.96	0.0005886
3867.6	0.0005021
3877.25	0.0005522
3886.89	0.0005537
3896.54	0.0005441
3906.18	0.0005483
3915.83	0.0004705
3925.47	0.00038544
3935.12	0.00039521
3944.76	0.0005349
3954.41	0.00036449
3964.05	0.0005379
3973.69	0.0004929
3983.34	0.0005916
3992.98	0.0005157
