Infrared Spectrum: HYPOXANTHINE, 7-Alpha-D-ARABINOFURANOSYL-
Formula: C10 H12 N4 O5
CAS: 10280-02-1
State: SOLID (0.7 mg / 500 mg KBr DISC)
Class: COBLENTZ III
Instrument: PERKIN-ELMER 21 (GRATING)
Instrument parameters: FILTER CHANGE AT 1090 CM^-^1
Sampling: TRANSMISSION
Resolution: 4
Origin: SOUTHERN RESEARCH INST.
1/CM	TRANSMITTANCE
601.046	0.411
610.622	0.411
620.198	0.413
629.775	0.426
639.351	0.447
648.927	0.513
658.503	0.546
668.08	0.565
677.656	0.576
687.232	0.566
696.808	0.558
706.384	0.551
715.961	0.559
725.537	0.594
735.113	0.605
744.689	0.608
754.266	0.612
763.842	0.623
773.418	0.632
782.994	0.621
792.57	0.386
802.147	0.509
811.723	0.525
821.299	0.485
830.875	0.495
840.451	0.554
850.028	0.585
859.604	0.573
869.18	0.518
878.756	0.504
888.333	0.514
897.909	0.522
907.485	0.525
917.061	0.541
926.637	0.578
936.214	0.631
945.79	0.658
955.366	0.648
964.942	0.643
974.519	0.633
984.095	0.599
993.671	0.562
1003.25	0.555
1012.82	0.507
1022.4	0.422
1031.98	0.319
1041.55	0.243
1051.13	0.208
1060.7	0.187
1070.28	0.183
1079.86	0.234
1089.43	0.297
1099.01	0.326
1108.59	0.339
1118.16	0.316
1127.74	0.338
1137.31	0.4
1146.89	0.476
1156.47	0.52
1166.04	0.536
1175.62	0.524
1185.2	0.518
1194.77	0.493
1204.35	0.396
1213.92	0.308
1223.5	0.315
1233.08	0.375
1242.65	0.47
1252.23	0.546
1261.81	0.573
1271.38	0.591
1280.96	0.596
1290.53	0.59
1300.11	0.568
1309.69	0.496
1319.26	0.455
1328.84	0.444
1338.41	0.417
1347.99	0.361
1357.57	0.406
1367.14	0.466
1376.72	0.436
1386.3	0.376
1395.87	0.33
1405.45	0.275
1415.02	0.271
1424.6	0.336
1434.18	0.379
1443.75	0.374
1453.33	0.38
1462.91	0.411
1472.48	0.457
1482.06	0.533
1491.63	0.621
1501.21	0.62
1510.79	0.58
1520.36	0.589
1529.94	0.611
1539.52	0.625
1549.09	0.594
1558.67	0.669
1568.24	0.705
1577.82	0.662
1587.4	0.52
1596.97	0.301
1606.55	0.375
1616.13	0.548
1625.7	0.575
1635.28	0.518
1644.85	0.461
1654.43	0.373
1664.01	0.188
1673.58	0.074
1683.16	0.063
1692.74	0.066
1702.31	0.09
1711.89	0.151
1721.46	0.272
1731.04	0.441
1740.62	0.54
1750.19	0.613
1759.77	0.665
1769.34	0.695
1778.92	0.714
1788.5	0.724
1798.07	0.735
1807.65	0.75
1817.23	0.763
1826.8	0.772
1836.38	0.776
1845.95	0.779
1855.53	0.783
1865.11	0.786
1874.68	0.787
1884.26	0.789
1893.84	0.79
1903.41	0.792
1912.99	0.794
1922.56	0.794
1932.14	0.794
1941.72	0.793
1951.29	0.79
1960.87	0.788
1970.45	0.791
1980.02	0.794
1989.6	0.796
1999.17	0.797
2008.75	0.801
2018.33	0.807
2027.9	0.809
2037.48	0.81
2047.06	0.808
2056.63	0.808
2066.21	0.807
2075.78	0.806
2085.36	0.805
2094.94	0.805
2104.51	0.803
2114.09	0.801
2123.66	0.802
2133.24	0.803
2142.82	0.803
2152.39	0.802
2161.97	0.801
2171.55	0.801
2181.12	0.799
2190.7	0.797
2200.27	0.797
2209.85	0.794
2219.43	0.794
2229	0.792
2238.58	0.79
2248.16	0.786
2257.73	0.783
2267.31	0.78
2276.88	0.778
2286.46	0.774
2296.04	0.769
2305.61	0.766
2315.19	0.762
2324.77	0.757
2334.34	0.753
2343.92	0.748
2353.49	0.746
2363.07	0.742
2372.65	0.74
2382.22	0.736
2391.8	0.733
2401.38	0.729
2410.95	0.726
2420.53	0.721
2430.1	0.714
2439.68	0.708
2449.26	0.698
2458.83	0.692
2468.41	0.685
2477.99	0.677
2487.56	0.672
2497.14	0.667
2506.71	0.661
2516.29	0.649
2525.87	0.639
2535.44	0.634
2545.02	0.626
2554.59	0.617
2564.17	0.605
2573.75	0.598
2583.32	0.582
2592.9	0.57
2602.48	0.555
2612.05	0.552
2621.63	0.558
2631.2	0.558
2640.78	0.547
2650.36	0.54
2659.93	0.533
2669.51	0.526
2679.09	0.516
2688.66	0.5
2698.24	0.493
2707.81	0.486
2717.39	0.478
2726.97	0.472
2736.54	0.466
2746.12	0.456
2755.7	0.444
2765.27	0.433
2774.85	0.422
2784.42	0.403
2794	0.394
2803.58	0.375
2813.15	0.365
2822.73	0.36
2832.31	0.346
2841.88	0.344
2851.46	0.349
2861.03	0.354
2870.61	0.361
2880.19	0.367
2889.76	0.37
2899.34	0.364
2908.91	0.355
2918.49	0.349
2928.07	0.369
2937.64	0.391
2947.22	0.414
2956.8	0.421
2966.37	0.421
2975.95	0.414
2985.52	0.397
2995.1	0.382
3004.68	0.364
3014.25	0.354
3023.83	0.324
3033.41	0.319
3042.98	0.318
3052.56	0.319
3062.13	0.318
3071.71	0.312
3081.29	0.304
3090.86	0.293
3100.44	0.284
3110.02	0.282
3119.59	0.28
3129.17	0.278
3138.74	0.273
3148.32	0.268
3157.9	0.262
3167.47	0.257
3177.05	0.253
3186.63	0.247
3196.2	0.242
3205.78	0.238
3215.35	0.235
3224.93	0.23
3234.51	0.227
3244.08	0.224
3253.66	0.22
3263.24	0.216
3272.81	0.212
3282.39	0.209
3291.96	0.206
3301.54	0.205
3311.12	0.202
3320.69	0.201
3330.27	0.198
3339.84	0.195
3349.42	0.192
3359	0.191
3368.57	0.19
3378.15	0.19
3387.73	0.193
3397.3	0.196
3406.88	0.201
3416.45	0.205
3426.03	0.214
3435.61	0.226
3445.18	0.245
3454.76	0.258
3464.34	0.286
3473.91	0.301
3483.49	0.317
3493.06	0.345
3502.64	0.38
3512.22	0.417
3521.79	0.443
3531.37	0.472
3540.95	0.497
3550.52	0.522
3560.1	0.548
3569.67	0.583
3579.25	0.618
3588.83	0.649
3598.4	0.682
3607.98	0.71
3617.56	0.728
3627.13	0.739
3636.71	0.749
3646.28	0.757
3655.86	0.761
3665.44	0.764
3675.01	0.768
3684.59	0.774
3694.16	0.778
3703.74	0.782
3713.32	0.787
3722.89	0.79
3732.47	0.791
3742.05	0.791
3751.62	0.789
3761.2	0.784
3770.77	0.783
3780.35	0.78
3789.93	0.779
3799.5	0.781
3809.08	0.783
3818.66	0.783
3828.23	0.781
3837.81	0.779
3847.38	0.779
3856.96	0.779
3866.54	0.777
3876.11	0.773
3885.69	0.77
3895.27	0.768
3904.84	0.768
3914.42	0.766
3923.99	0.764
3933.57	0.764
3943.15	0.763
3952.72	0.762
3962.3	0.761
3971.88	0.76
3981.45	0.759
3991.03	0.76
4000.6	0.762
