Infrared Spectrum: 3-Tridecanol
Formula: C 13 H 28 O
CAS: 10289-68-6
State: gas
Instrument: HP-GC/MS/IRD
Origin: NIST Mass Spectrometry Data Center
1/CM	ABSORBANCE
550	0.0008496
562	0.0004176
574	0.0003552
586	0.0003216
598	0.0002448
610	0.0001248
622	0.0001776
634	0.0001968
646	0.000168
658	3.84e-05
670	0.00012
682	0.0002352
694	0.0002592
706	0.0004416
718	0.0005664
730	0.0005952
742	0.0004896
754	0.0003888
766	0.0004464
778	0.0003984
790	0.0003984
802	0.0003552
814	0.0003504
826	0.0004848
838	0.0003888
850	0.0004368
862	0.0005328
874	0.0005952
886	0.0006576
898	0.0007536
910	0.000816
922	0.0010224
934	0.001272
946	0.0018288
958	0.0024864
970	0.003
982	0.0027264
994	0.0025152
1006	0.0023856
1018	0.0021168
1030	0.0019296
1042	0.0017568
1054	0.0015456
1066	0.001536
1078	0.0015696
1090	0.0016368
1102	0.0019392
1114	0.0019008
1126	0.0018432
1138	0.0014976
1150	0.0011184
1162	0.0009888
1174	0.000984
1186	0.001032
1198	0.0012
1210	0.0014352
1222	0.0016752
1234	0.0016368
1246	0.0015504
1258	0.0014448
1270	0.001464
1282	0.001368
1294	0.0014688
1306	0.0014832
1318	0.0015072
1330	0.0013968
1342	0.0019872
1354	0.0022752
1366	0.0025968
1378	0.0026928
1390	0.0025584
1402	0.0017712
1414	0.0013392
1426	0.0013344
1438	0.002208
1450	0.0033312
1462	0.0044496
1474	0.003288
1486	0.0014496
1498	0.0009024
1510	0.001296
1522	0.0008976
1534	0.000504
1546	0.0006048
1558	0.0007728
1570	0.0001968
1582	5.76e-05
1594	5.28e-05
1606	8.16e-05
1618	0.0002064
1630	0.0001488
1642	0.0002496
1654	0.0006192
1666	0.0003072
1678	0.0003936
1690	0.0003168
1702	0.000624
1714	0.0005568
1726	0.000312
1738	0.0004848
1750	0.000552
1762	0.0002976
1774	0.0003168
1786	0.0002736
1798	0.0002736
1810	0.000144
1822	0.0001728
1834	0.0001152
1846	0.0002736
1858	9.12e-05
1870	0.000168
1882	4.8e-05
1894	9.12e-05
1906	5.76e-05
1918	0.0001296
1930	3.36e-05
1942	8.64e-05
1954	2.88e-05
1966	5.28e-05
1978	1.92e-05
1990	8.16e-05
2002	1.44e-05
2014	5.76e-05
2026	6.72e-05
2038	5.76e-05
2050	3.36e-05
2062	4.32e-05
2074	3.36e-05
2086	2.88e-05
2098	1.92e-05
2110	0
2122	2.4e-05
2134	4.8e-05
2146	4.32e-05
2158	1.92e-05
2170	1.92e-05
2182	1.92e-05
2194	4.8e-06
2206	2.88e-05
2218	9.6e-06
2230	2.4e-05
2242	1.44e-05
2254	2.88e-05
2266	3.84e-05
2278	1.92e-05
2290	5.28e-05
2302	4.32e-05
2314	6.24e-05
2326	7.2e-05
2338	4.8e-05
2350	4.32e-05
2362	4.32e-05
2374	4.32e-05
2386	5.28e-05
2398	4.32e-05
2410	3.36e-05
2422	2.4e-05
2434	2.88e-05
2446	1.92e-05
2458	1.92e-05
2470	1.44e-05
2482	4.8e-06
2494	4.32e-05
2506	5.28e-05
2518	5.76e-05
2530	7.68e-05
2542	9.6e-05
2554	9.6e-05
2566	0.0001344
2578	0.0001584
2590	0.0001776
2602	0.00024
2614	0.0002544
2626	0.0003024
2638	0.000336
2650	0.0003792
2662	0.0004416
2674	0.0004752
2686	0.0005088
2698	0.000504
2710	0.0004992
2722	0.000528
2734	0.0006096
2746	0.000672
2758	0.0007152
2770	0.000768
2782	0.0009456
2794	0.0012144
2806	0.001536
2818	0.0021168
2830	0.0031008
2842	0.0055104
2854	0.0124416
2866	0.0181392
2878	0.0146304
2890	0.012888
2902	0.0146496
2914	0.0229632
2926	0.0409056
2938	0.0454944
2950	0.0269808
2962	0.0191952
2974	0.0164448
2986	0.0078768
2998	0.0039552
3010	0.002424
3022	0.0016752
3034	0.0013056
3046	0.0010176
3058	0.0008016
3070	0.000696
3082	0.0006048
3094	0.0004992
3106	0.0004464
3118	0.0003696
3130	0.0003408
3142	0.0003168
3154	0.0002928
3166	0.0002688
3178	0.00024
3190	0.0001728
3202	0.0001632
3214	0.0001632
3226	9.6e-05
3238	7.68e-05
3250	8.64e-05
3262	7.68e-05
3274	4.8e-05
3286	3.84e-05
3298	2.4e-05
3310	9.6e-06
3322	6.24e-05
3334	2.88e-05
3346	3.36e-05
3358	6.72e-05
3370	5.28e-05
3382	7.68e-05
3394	0.0001056
3406	6.24e-05
3418	0.0001104
3430	9.12e-05
3442	0.0001152
3454	6.24e-05
3466	7.68e-05
3478	6.72e-05
3490	7.2e-05
3502	0.0001872
3514	6.72e-05
3526	0.0002304
3538	8.64e-05
3550	0.0001872
3562	0.0002304
3574	8.16e-05
3586	0.000432
3598	0.0002352
3610	0.0005328
3622	0.0004416
3634	0.0006192
3646	0.0012288
3658	0.0012864
3670	0.0008736
3682	0.0003264
3694	0.0001824
3706	0.0001536
3718	0.000192
3730	0.0002976
3742	0.0004512
3754	0.000264
3766	0.0001152
3778	6.24e-05
3790	1.44e-05
3802	0.0001824
3814	8.16e-05
3826	0.0001488
3838	0.000312
