Infrared Spectrum: 1-Hexyltheobromine
Formula: C 13 H 20 N 4 O 2
CAS: 1028-33-7
State: gas
Origin: EPA-IR VAPOR PHASE LIBRARY
1/CM	ABSORBANCE
549.8	8.8e-05
559.445	0.000796
569.09	0.0010237
578.734	0.001485
588.379	0.002955
598.024	0.003595
607.669	0.007345
617.313	0.002975
626.958	0.0009428
636.603	0.0010528
646.248	0.001575
655.893	0.0010039
665.537	0.0007095
675.182	0.0004782
684.827	0.0008186
694.472	0.0012421
704.116	0.001625
713.761	0.001995
723.406	0.002845
733.051	0.005225
742.695	0.008075
752.34	0.011405
761.985	0.012415
771.63	0.009475
781.275	0.003185
790.919	0.001805
800.564	0.001715
810.209	0.002465
819.854	0.004365
829.498	0.010655
839.143	0.004515
848.788	0.002525
858.433	0.002385
868.078	0.001865
877.722	0.001985
887.367	0.002305
897.012	0.002725
906.657	0.002655
916.301	0.003395
925.946	0.003445
935.591	0.003595
945.236	0.002575
954.88	0.002395
964.525	0.002625
974.17	0.003085
983.815	0.004415
993.46	0.004225
1003.1	0.005195
1012.75	0.006815
1022.39	0.005665
1032.04	0.004705
1041.68	0.004935
1051.33	0.006235
1060.97	0.006035
1070.62	0.006895
1080.26	0.010235
1089.91	0.011595
1099.55	0.006345
1109.2	0.003985
1118.84	0.003385
1128.49	0.003185
1138.13	0.004025
1147.78	0.005325
1157.42	0.005695
1167.07	0.006195
1176.71	0.009265
1186.36	0.014015
1196	0.013965
1205.64	0.013105
1215.29	0.016075
1224.93	0.029345
1234.58	0.042825
1244.22	0.015595
1253.87	0.008035
1263.51	0.008175
1273.16	0.012845
1282.8	0.015505
1292.45	0.012095
1302.09	0.014135
1311.74	0.024795
1321.38	0.036655
1331.03	0.026455
1340.67	0.018765
1350.32	0.031395
1359.96	0.030125
1369.61	0.020435
1379.25	0.019655
1388.9	0.021585
1398.54	0.019475
1408.18	0.020855
1417.83	0.027885
1427.47	0.019565
1437.12	0.028715
1446.76	0.037555
1456.41	0.054765
1466.05	0.053445
1475.7	0.052945
1485.34	0.038445
1494.99	0.020975
1504.63	0.015375
1514.28	0.017315
1523.92	0.027145
1533.57	0.036395
1543.21	0.052025
1552.86	0.044105
1562.5	0.021025
1572.15	0.013745
1581.79	0.012805
1591.44	0.017055
1601.08	0.031985
1610.73	0.032445
1620.37	0.013085
1630.01	0.010435
1639.66	0.014435
1649.3	0.027895
1658.95	0.049465
1668.59	0.099605
1678.24	0.230075
1687.88	0.227515
1697.53	0.107735
1707.17	0.087205
1716.82	0.185055
1726.46	0.132775
1736.11	0.035725
1745.75	0.017145
1755.4	0.010815
1765.04	0.007905
1774.69	0.006285
1784.33	0.005045
1793.98	0.004155
1803.62	0.003515
1813.27	0.003085
1822.91	0.002575
1832.55	0.002295
1842.2	0.002065
1851.84	0.001965
1861.49	0.001935
1871.13	0.001835
1880.78	0.001605
1890.42	0.001435
1900.07	0.001365
1909.71	0.0013188
1919.36	0.0012719
1929	0.0012067
1938.65	0.0011639
1948.29	0.001221
1957.94	0.0012527
1967.58	0.0013272
1977.23	0.0012798
1986.87	0.0012913
1996.52	0.0011542
2006.16	0.0012011
2015.81	0.0011526
2025.45	0.0012304
2035.1	0.0012624
2044.74	0.0012171
2054.38	0.0010904
2064.03	0.0011113
2073.67	0.0009516
2083.32	0.0009593
2092.96	0.0010015
2102.61	0.0010417
2112.25	0.0010225
2121.9	0.0010725
2131.54	0.0011278
2141.19	0.0010283
2150.83	0.0010502
2160.48	0.0010407
2170.12	0.00106
2179.77	0.0011486
2189.41	0.0011581
2199.06	0.0012109
2208.7	0.0010553
2218.35	0.0011003
2227.99	0.0012518
2237.64	0.0012545
2247.28	0.00133
2256.92	0.0012418
2266.57	0.0012178
2276.21	0.0013445
2285.86	0.0012418
2295.5	0.0011509
2305.15	0.0012384
2314.79	0.0011497
2324.44	0.001162
2334.08	0.0011328
2343.73	0.0010658
2353.37	0.0012432
2363.02	0.0011942
2372.66	0.001243
2382.31	0.0012186
2391.95	0.0013323
2401.6	0.0013605
2411.24	0.001485
2420.89	0.001465
2430.53	0.0012478
2440.18	0.0012244
2449.82	0.0011524
2459.47	0.0011939
2469.11	0.0013189
2478.75	0.0012865
2488.4	0.0012705
2498.04	0.0012075
2507.69	0.0011885
2517.33	0.0011405
2526.98	0.0012407
2536.62	0.0012044
2546.27	0.0013484
2555.91	0.001485
2565.56	0.0013543
2575.2	0.0013385
2584.85	0.0013239
2594.49	0.001455
2604.14	0.001395
2613.78	0.001395
2623.43	0.001445
2633.07	0.001435
2642.72	0.001545
2652.36	0.001625
2662.01	0.001555
2671.65	0.001725
2681.29	0.001625
2690.94	0.001645
2700.58	0.001755
2710.23	0.001615
2719.87	0.001545
2729.52	0.001825
2739.16	0.001995
2748.81	0.002005
2758.45	0.002205
2768.1	0.002135
2777.74	0.002295
2787.39	0.002445
2797.03	0.002945
2806.68	0.003695
2816.32	0.004315
2825.97	0.004865
2835.61	0.005695
2845.26	0.007515
2854.9	0.012675
2864.55	0.020965
2874.19	0.021555
2883.84	0.020015
2893.48	0.017465
2903.12	0.019535
2912.77	0.025755
2922.41	0.037415
2932.06	0.049095
2941.7	0.049975
2951.35	0.046475
2960.99	0.052815
2970.64	0.047725
2980.28	0.023265
2989.93	0.013155
2999.57	0.009595
3009.22	0.007625
3018.86	0.005495
3028.51	0.003985
3038.15	0.003545
3047.8	0.003055
3057.44	0.002805
3067.09	0.002665
3076.73	0.002485
3086.38	0.002485
3096.02	0.002185
3105.67	0.002225
3115.31	0.002215
3124.95	0.002305
3134.6	0.001665
3144.24	0.001415
3153.89	0.0012622
3163.53	0.0012106
3173.18	0.0010624
3182.82	0.0011996
3192.47	0.0011263
3202.11	0.0012393
3211.76	0.0010519
3221.4	0.0008828
3231.05	0.0008616
3240.69	0.0007701
3250.34	0.0006514
3259.98	0.00078
3269.63	0.0007495
3279.27	0.0008207
3288.92	0.0007335
3298.56	0.0008373
3308.21	0.0008262
3317.85	0.0007407
3327.49	0.0007929
3337.14	0.0007495
3346.78	0.0009937
3356.43	0.0011748
3366.07	0.0012185
3375.72	0.001735
3385.36	0.002125
3395.01	0.001655
3404.65	0.001375
3414.3	0.0009501
3423.94	0.0008933
3433.59	0.000982
3443.23	0.0007273
3452.88	0.0007236
3462.52	0.00044252
3472.17	0.00045217
3481.81	0.00036324
3491.46	0.000228
3501.1	0.00045774
3510.75	0.0002768
3520.39	0.00041298
3530.04	0.00036253
3539.68	0.0003116
3549.32	0.0003619
3558.97	0.0003807
3568.61	0.000368017
3578.26	0.0002761
3587.9	0.0003438
3597.55	0.0003152
3607.19	0.0003069
3616.84	0.00026
3626.48	0.0004835
3636.13	0.0005548
3645.77	0.0004992
3655.42	0.00037146
3665.06	0.000367405
3674.71	0.00044963
3684.35	0.00038721
3694	0.0005104
3703.64	0.0004522
3713.29	0.0003539
3722.93	0.00041615
3732.58	0.0004573
3742.22	0.0003081
3751.86	0.0005759
3761.51	0.0004913
3771.15	0.00042943
3780.8	0.0005167
3790.44	0.00043161
3800.09	0.00040269
3809.73	0.00042774
3819.38	0.00037703
3829.02	0.0005877
3838.67	0.0004733
3848.31	0.00039755
3857.96	0.000367911
3867.6	0.000257
3877.25	0.00038812
3886.89	0.0005774
3896.54	0.0005525
3906.18	0.00039398
3915.83	0.00043201
3925.47	0.0005985
3935.12	0.0006315
3944.76	0.00055
3954.41	0.00043904
3964.05	0.00043196
3973.69	0.0004415
3983.34	0.0005056
3992.98	0.00042689
