Infrared Spectrum: 1-(2,3-DICHLOROPHENYL)-3,3-DIMETHYL UREA
Formula: C9 H10 Cl2 N2 O
CAS: 10290-37-6
State: SOLID (MINERAL OIL MULL)
Class: COBLENTZ
Instrument: Not specified, most likely a prism, grating, or hybrid spectrometer.
Sampling: TRANSMISSION
Resolution: 4
Origin: DOW CHEMICAL COMPANY
MICROMETERS	TRANSMITTANCE
2.03	0.637
2.06515	0.647
2.1003	0.651
2.13546	0.653
2.17061	0.659
2.20576	0.663
2.24091	0.653
2.27607	0.644
2.31122	0.651
2.34637	0.662
2.38152	0.671
2.41667	0.677
2.45183	0.695
2.48698	0.707
2.52213	0.716
2.55728	0.721
2.59243	0.722
2.62759	0.732
2.66274	0.739
2.69789	0.747
2.73304	0.75
2.7682	0.747
2.80335	0.74
2.8385	0.73
2.87365	0.73
2.9088	0.723
2.94396	0.697
2.97911	0.555
3.01426	0.337
3.04941	0.407
3.08457	0.55
3.11972	0.584
3.15487	0.628
3.19002	0.632
3.22517	0.612
3.26033	0.602
3.29548	0.573
3.33063	0.445
3.36578	0.112
3.40094	0.028
3.43609	0.063
3.47124	0.089
3.50639	0.515
3.54154	0.697
3.5767	0.754
3.61185	0.767
3.647	0.765
3.68215	0.776
3.7173	0.78
3.75246	0.794
3.78761	0.803
3.82276	0.808
3.85791	0.825
3.89307	0.836
3.92822	0.844
3.96337	0.858
3.99852	0.859
4.03367	0.863
4.06883	0.869
4.10398	0.874
4.13913	0.874
4.17428	0.873
4.20944	0.872
4.24459	0.873
4.27974	0.878
4.31489	0.883
4.35004	0.887
4.3852	0.889
4.42035	0.89
4.4555	0.89
4.49065	0.893
4.52581	0.897
4.56096	0.898
4.59611	0.9
4.63126	0.902
4.66641	0.905
4.70157	0.908
4.73672	0.91
4.77187	0.915
4.80702	0.919
4.84217	0.922
4.87733	0.925
4.91248	0.922
4.94763	0.929
4.98278	0.928
5.01794	0.932
5.05309	0.932
5.08824	0.93
5.12339	0.919
5.15854	0.922
5.1937	0.929
5.22885	0.934
5.264	0.936
5.29915	0.933
5.33431	0.932
5.36946	0.933
5.40461	0.944
5.43976	0.949
5.47491	0.949
5.51007	0.948
5.54522	0.941
5.58037	0.936
5.61552	0.941
5.65068	0.946
5.68583	0.943
5.72098	0.939
5.75613	0.937
5.79128	0.924
5.82644	0.914
5.86159	0.899
5.89674	0.878
5.93189	0.838
5.96704	0.747
6.0022	0.573
6.03735	0.387
6.0725	0.245
6.10765	0.506
6.14281	0.647
6.17796	0.651
6.21311	0.455
6.24826	0.22
6.28341	0.079
6.31857	0.233
6.35372	0.377
6.38887	0.382
6.42402	0.409
6.45918	0.486
6.49433	0.578
6.52948	0.626
6.56463	0.675
6.59978	0.723
6.63494	0.771
6.67009	0.777
6.70524	0.739
6.74039	0.641
6.77554	0.436
6.8107	0.217
6.84585	0.195
6.881	0.378
6.91615	0.528
6.95131	0.685
6.98646	0.628
7.02161	0.452
7.05676	0.332
7.09191	0.545
7.12707	0.676
7.16222	0.703
7.19737	0.582
7.23252	0.466
7.26768	0.547
7.30283	0.668
7.33798	0.762
7.37313	0.77
7.40828	0.775
7.44344	0.792
7.47859	0.8
7.51374	0.797
7.54889	0.774
7.58405	0.742
7.6192	0.697
7.65435	0.654
7.6895	0.598
7.72465	0.51
7.75981	0.462
7.79496	0.524
7.83011	0.636
7.86526	0.67
7.90041	0.715
7.93557	0.762
7.97072	0.754
8.00587	0.705
8.04102	0.631
8.07618	0.582
8.11133	0.573
8.14648	0.631
8.18163	0.69
8.21678	0.744
8.25194	0.765
8.28709	0.759
8.32224	0.707
8.35739	0.661
8.39255	0.712
8.4277	0.782
8.46285	0.801
8.498	0.809
8.53315	0.792
8.56831	0.741
8.60346	0.717
8.63861	0.792
8.67376	0.818
8.70892	0.825
8.74407	0.828
8.77922	0.829
8.81437	0.829
8.84952	0.836
8.88468	0.846
8.91983	0.848
8.95498	0.824
8.99013	0.799
9.02528	0.792
9.06044	0.803
9.09559	0.809
9.13074	0.795
9.16589	0.794
9.20105	0.826
9.2362	0.828
9.27135	0.801
9.3065	0.787
9.34165	0.799
9.37681	0.819
9.41196	0.821
9.44711	0.814
9.48226	0.774
9.51742	0.702
9.55257	0.634
9.58772	0.73
9.62287	0.83
9.65802	0.849
9.69318	0.856
9.72833	0.864
9.76348	0.872
9.79863	0.874
9.83379	0.875
9.86894	0.875
9.90409	0.875
9.93924	0.879
9.97439	0.89
10.0095	0.898
10.0447	0.903
10.0799	0.907
10.115	0.907
10.1502	0.908
10.1853	0.904
10.2205	0.898
10.2556	0.889
10.2908	0.882
10.3259	0.885
10.3611	0.894
10.3962	0.895
10.4314	0.897
10.4665	0.889
10.5017	0.869
10.5368	0.846
10.572	0.815
10.6071	0.801
10.6423	0.823
10.6774	0.856
10.7126	0.88
10.7477	0.894
10.7829	0.903
10.818	0.908
10.8532	0.908
10.8884	0.908
10.9235	0.912
10.9587	0.915
10.9938	0.912
11.029	0.9
11.0641	0.884
11.0993	0.854
11.1344	0.808
11.1696	0.762
11.2047	0.713
11.2399	0.697
11.275	0.765
11.3102	0.839
11.3453	0.854
11.3805	0.86
11.4156	0.879
11.4508	0.899
11.4859	0.908
11.5211	0.912
11.5562	0.918
11.5914	0.92
11.6265	0.924
11.6617	0.925
11.6969	0.925
11.732	0.925
11.7672	0.925
11.8023	0.925
11.8375	0.925
11.8726	0.928
11.9078	0.928
11.9429	0.928
11.9781	0.927
12.0132	0.928
12.0484	0.925
12.0835	0.919
12.1187	0.917
12.1538	0.909
12.189	0.904
12.2241	0.888
12.2593	0.869
12.2944	0.86
12.3296	0.86
12.3647	0.846
12.3999	0.84
12.435	0.856
12.4702	0.873
12.5054	0.877
12.5405	0.879
12.5757	0.873
12.6108	0.82
12.646	0.725
12.6811	0.589
12.7163	0.483
12.7514	0.466
12.7866	0.505
12.8217	0.597
12.8569	0.648
12.892	0.651
12.9272	0.648
12.9623	0.654
12.9975	0.705
13.0326	0.767
13.0678	0.803
13.1029	0.814
13.1381	0.815
13.1732	0.815
13.2084	0.811
13.2435	0.806
13.2787	0.792
13.3139	0.769
13.349	0.744
13.3842	0.71
13.4193	0.678
13.4545	0.653
13.4896	0.637
13.5248	0.637
13.5599	0.654
13.5951	0.68
13.6302	0.693
13.6654	0.707
13.7005	0.721
13.7357	0.728
13.7708	0.728
13.806	0.721
13.8411	0.708
13.8763	0.683
13.9114	0.629
13.9466	0.573
13.9817	0.555
14.0169	0.599
14.052	0.683
14.0872	0.718
14.1224	0.731
14.1575	0.732
14.1927	0.725
14.2278	0.715
14.263	0.705
14.2981	0.7
14.3333	0.693
14.3684	0.682
14.4036	0.673
14.4387	0.661
14.4739	0.654
14.509	0.651
14.5442	0.651
14.5793	0.648
14.6145	0.644
14.6496	0.638
14.6848	0.628
14.7199	0.618
14.7551	0.608
14.7902	0.598
14.8254	0.58
14.8605	0.57
14.8957	0.558
14.9309	0.547
14.966	0.528
15.0012	0.5
15.0363	0.471
15.0715	0.45
15.1066	0.429
15.1418	0.411
15.1769	0.396
15.2121	0.38
15.2472	0.37
15.2824	0.358
15.3175	0.348
15.3527	0.341
15.3878	0.337
15.423	0.335
15.4581	0.332
15.4933	0.329
15.5284	0.329
15.5636	0.329
15.5987	0.331
15.6339	0.332
15.669	0.332
15.7042	0.336
15.7394	0.337
15.7745	0.337
15.8097	0.338
15.8448	0.34
15.88	0.34
15.9151	0.34
