Infrared Spectrum: 2-Methyl-2-nonanol
Formula: C 10 H 22 O
CAS: 10297-57-1
State: gas
Instrument: HP-GC/MS/IRD
Origin: NIST Mass Spectrometry Data Center
1/CM	ABSORBANCE
550	0.000847
562	0.000231
574	0.0001085
586	0.000231
598	0.000112
610	3.5e-06
622	3.5e-05
634	0.0001085
646	9.45e-05
658	0.000119
670	0.0001785
682	0.000126
694	0.000203
706	0.0004375
718	0.0005565
730	0.0005635
742	0.000588
754	0.0005635
766	0.000602
778	0.0004865
790	0.0003535
802	0.000322
814	0.000329
826	0.000532
838	0.000371
850	0.000434
862	0.0005635
874	0.0008505
886	0.001533
898	0.0026285
910	0.002989
922	0.0023695
934	0.002205
946	0.001967
958	0.0015225
970	0.001043
982	0.0007105
994	0.0005355
1006	0.0005355
1018	0.0005915
1030	0.000735
1042	0.000784
1054	0.000917
1066	0.001232
1078	0.001687
1090	0.002177
1102	0.002527
1114	0.002772
1126	0.003381
1138	0.0039865
1150	0.0044135
1162	0.004333
1174	0.0034545
1186	0.003171
1198	0.0033635
1210	0.0036225
1222	0.003402
1234	0.002975
1246	0.002611
1258	0.0024605
1270	0.0022995
1282	0.0022925
1294	0.002289
1306	0.0023555
1318	0.002394
1330	0.002464
1342	0.0026845
1354	0.003171
1366	0.0047425
1378	0.005488
1390	0.0039095
1402	0.001708
1414	0.001176
1426	0.0012075
1438	0.001729
1450	0.002814
1462	0.003899
1474	0.0032025
1486	0.001589
1498	0.0008015
1510	0.0005565
1522	0.000399
1534	0.0003045
1546	0.000252
1558	0.000217
1570	0.000133
1582	0.000168
1594	0.0001365
1606	0.00014
1618	0.0001435
1630	0.000112
1642	0.000133
1654	0.0001645
1666	0.000112
1678	0.0001155
1690	9.1e-05
1702	0.0001085
1714	9.1e-05
1726	7e-05
1738	7e-05
1750	6.65e-05
1762	4.2e-05
1774	6.3e-05
1786	5.25e-05
1798	7.35e-05
1810	5.6e-05
1822	3.85e-05
1834	5.25e-05
1846	5.95e-05
1858	4.55e-05
1870	2.45e-05
1882	2.45e-05
1894	3.15e-05
1906	2.45e-05
1918	3.85e-05
1930	0
1942	2.8e-05
1954	0
1966	1.75e-05
1978	0
1990	2.8e-05
2002	3.15e-05
2014	2.1e-05
2026	5.95e-05
2038	5.6e-05
2050	3.85e-05
2062	2.8e-05
2074	3.5e-05
2086	2.1e-05
2098	2.8e-05
2110	2.1e-05
2122	1.75e-05
2134	4.2e-05
2146	2.45e-05
2158	1.75e-05
2170	3.15e-05
2182	2.8e-05
2194	2.1e-05
2206	1.75e-05
2218	1.05e-05
2230	7e-06
2242	2.1e-05
2254	3.5e-05
2266	3.85e-05
2278	5.25e-05
2290	5.95e-05
2302	6.3e-05
2314	5.25e-05
2326	4.2e-05
2338	2.45e-05
2350	4.9e-05
2362	3.5e-05
2374	3.85e-05
2386	3.85e-05
2398	4.55e-05
2410	2.45e-05
2422	2.8e-05
2434	7e-06
2446	0
2458	3.85e-05
2470	0
2482	2.45e-05
2494	3.85e-05
2506	1.4e-05
2518	4.2e-05
2530	6.3e-05
2542	8.4e-05
2554	7.7e-05
2566	8.75e-05
2578	0.0001155
2590	0.000133
2602	0.0001645
2614	0.000154
2626	0.0002275
2638	0.000231
2650	0.000252
2662	0.0003045
2674	0.000336
2686	0.000336
2698	0.000336
2710	0.0003745
2722	0.00042
2734	0.00049
2746	0.000539
2758	0.0005705
2770	0.000588
2782	0.000728
2794	0.00098
2806	0.001267
2818	0.00175
2830	0.002569
2842	0.0044275
2854	0.008897
2866	0.012859
2878	0.012383
2890	0.01134
2902	0.0130025
2914	0.0191485
2926	0.029918
2938	0.0348845
2950	0.026005
2962	0.023247
2974	0.024549
2986	0.0143535
2998	0.0056875
3010	0.0027895
3022	0.001708
3034	0.001239
3046	0.0009555
3058	0.000798
3070	0.0006895
3082	0.0006405
3094	0.000518
3106	0.0004795
3118	0.0003955
3130	0.0003605
3142	0.0003115
3154	0.0003045
3166	0.0003045
3178	0.0002765
3190	0.0002905
3202	0.000238
3214	0.000196
3226	0.000168
3238	0.0001575
3250	0.000133
3262	0.0001015
3274	3.15e-05
3286	2.8e-05
3298	4.55e-05
3310	3.85e-05
3322	9.1e-05
3334	3.5e-05
3346	7e-05
3358	7.35e-05
3370	7e-05
3382	7e-05
3394	8.75e-05
3406	7.35e-05
3418	0.0001085
3430	0.000112
3442	5.25e-05
3454	4.9e-05
3466	6.3e-05
3478	2.1e-05
3490	3.5e-05
3502	3.15e-05
3514	5.6e-05
3526	2.1e-05
3538	2.1e-05
3550	1.05e-05
3562	1.75e-05
3574	7e-06
3586	8.05e-05
3598	9.1e-05
3610	0.000182
3622	0.0004445
3634	0.0011515
3646	0.001302
3658	0.000602
3670	0.0002415
3682	0.0001645
3694	7e-05
3706	9.45e-05
3718	0.0001085
3730	0.000105
3742	0.000105
3754	0.0001295
3766	0.00014
3778	9.1e-05
3790	0.0001225
3802	0.0001295
3814	0.0001435
3826	0.000175
3838	0.000168
