Infrared Spectrum: Boron tribromide
Formula: B Br3
CAS: 10294-33-4
State: SOLUTION (10% CCl4 FOR 3800-1330, 10% CS2 FOR 1330-450 CM^-^1)
Class: COBLENTZ
Instrument: BECKMAN IR-9 (GRATING)
Instrument parameters: ORDER CHANGES: 670, 1200, 2000 CM^-^1
Sampling: TRANSMISSION
Path length: 0.011 CM, 0.011 CM
Resolution: 2
Origin: DOW CHEMICAL COMPANY
1/CM	TRANSMITTANCE
407	0.1064
416	0.3169
425	0.4771
434	0.5619
443	0.6171
452	0.6637
461	0.7046
470	0.7394
479	0.7658
488	0.7708
497	0.7828
506	0.7935
515	0.7926
524	0.7656
533	0.7878
542	0.8108
551	0.8134
560	0.8075
569	0.8151
578	0.8232
587	0.8266
596	0.8277
605	0.8278
614	0.8267
623	0.8241
632	0.8184
641	0.8061
650	0.7903
659	0.8028
668	0.8307
677	0.8467
686	0.8497
695	0.8617
704	0.8695
713	0.8689
722	0.8627
731	0.8556
740	0.8547
749	0.8505
758	0.8423
767	0.818
776	0.7511
785	0.5001
794	0.2058
803	0
812	0.0006
821	0.3375
830	0.3973
839	0.0764
848	0.0847
857	0.5026
866	0.6089
875	0.6925
884	0.758
893	0.7069
902	0.5469
911	0.8174
920	0.8395
929	0.8262
938	0.7638
947	0.8313
956	0.8357
965	0.8508
974	0.86
983	0.8597
992	0.8584
1001	0.8603
1010	0.8621
1019	0.863
1028	0.8623
1037	0.8604
1046	0.8597
1055	0.8575
1064	0.8475
1073	0.8068
1082	0.7189
1091	0.8149
1100	0.844
1109	0.8361
1118	0.8111
1127	0.8384
1136	0.8501
1145	0.8444
1154	0.8357
1163	0.8524
1172	0.8585
1181	0.8609
1190	0.8617
1199	0.8623
1208	0.8598
1217	0.8612
1226	0.8635
1235	0.8596
1244	0.8573
1253	0.8559
1262	0.8543
1271	0.8521
1280	0.8499
1289	0.8475
1298	0.8454
1307	0.8409
1316	0.8268
1325	0.7961
1334	0.7393
1343	0.7404
1352	0.7244
1361	0.7091
1370	0.7161
1379	0.745
1388	0.7667
1397	0.7832
1406	0.7878
1415	0.7854
1424	0.786
1433	0.7936
1442	0.8028
1451	0.8084
1460	0.8115
1469	0.811
1478	0.8051
1487	0.7868
1496	0.7512
1505	0.7056
1514	0.6651
1523	0.6186
1532	0.5726
1541	0.5027
1550	0.4285
1559	0.4442
1568	0.5212
1577	0.5577
1586	0.571
1595	0.6515
1604	0.7278
1613	0.7735
1622	0.7934
1631	0.8039
1640	0.8212
1649	0.8391
1658	0.8465
1667	0.8485
1676	0.8495
1685	0.8493
1694	0.8484
1703	0.8491
1712	0.851
1721	0.8535
1730	0.8556
1739	0.8568
1748	0.8566
1757	0.857
1766	0.8596
1775	0.8597
1784	0.8593
1793	0.8603
1802	0.859
1811	0.8581
1820	0.8574
1829	0.8567
1838	0.856
1847	0.8558
1856	0.8556
1865	0.8555
1874	0.8554
1883	0.8565
1892	0.8567
1901	0.856
1910	0.8562
1919	0.858
1928	0.8604
1937	0.8614
1946	0.8588
1955	0.8583
1964	0.8575
1973	0.8564
1982	0.8563
1991	0.8557
2000	0.8524
2009	0.8508
2018	0.8504
2027	0.8499
2036	0.8496
2045	0.8497
2054	0.8497
2063	0.8497
2072	0.8503
2081	0.8507
2090	0.8513
2099	0.8515
2108	0.8518
2117	0.852
2126	0.8523
2135	0.8525
2144	0.8528
2153	0.8534
2162	0.8539
2171	0.8544
2180	0.8549
2189	0.8553
2198	0.8556
2207	0.8558
2216	0.856
2225	0.8561
2234	0.8547
2243	0.853
2252	0.8513
2261	0.849
2270	0.8448
2279	0.8391
2288	0.8344
2297	0.8325
2306	0.8344
2315	0.8392
2324	0.843
2333	0.8414
2342	0.8415
2351	0.8427
2360	0.8452
2369	0.8486
2378	0.8525
2387	0.8547
2396	0.8534
2405	0.8523
2414	0.8546
2423	0.8568
2432	0.8574
2441	0.8566
2450	0.8559
2459	0.8543
2468	0.8523
2477	0.8502
2486	0.8491
2495	0.8478
2504	0.8467
2513	0.8453
2522	0.8439
2531	0.8445
2540	0.8481
2549	0.8493
2558	0.849
2567	0.8487
2576	0.8485
2585	0.8483
2594	0.8482
2603	0.848
2612	0.8478
2621	0.8477
2630	0.8477
2639	0.8478
2648	0.8481
2657	0.8484
2666	0.8489
2675	0.8494
2684	0.85
2693	0.8506
2702	0.8512
2711	0.8516
2720	0.852
2729	0.8523
2738	0.8518
2747	0.851
2756	0.8502
2765	0.8494
2774	0.8486
2783	0.8477
2792	0.8468
2801	0.8462
2810	0.8456
2819	0.8444
2828	0.8433
2837	0.8424
2846	0.8418
2855	0.8415
2864	0.8414
2873	0.8413
2882	0.841
2891	0.8413
2900	0.8413
2909	0.8397
2918	0.837
2927	0.8339
2936	0.8314
2945	0.8317
2954	0.8325
2963	0.8334
2972	0.8342
2981	0.8345
2990	0.8347
2999	0.8349
3008	0.8344
3017	0.8338
3026	0.8333
3035	0.8328
3044	0.8324
3053	0.8314
3062	0.8301
3071	0.8287
3080	0.8274
3089	0.8255
3098	0.8236
3107	0.8212
3116	0.8186
3125	0.8156
3134	0.8118
3143	0.8096
3152	0.8092
3161	0.8105
3170	0.8124
3179	0.8147
3188	0.8171
3197	0.8174
3206	0.8168
3215	0.8151
3224	0.8137
3233	0.8121
3242	0.8107
3251	0.809
3260	0.8072
3269	0.8056
3278	0.8038
3287	0.8018
3296	0.7997
3305	0.7999
3314	0.8017
3323	0.8043
3332	0.8071
3341	0.8111
3350	0.8153
3359	0.8191
3368	0.8228
3377	0.8264
3386	0.8299
3395	0.8331
3404	0.8354
3413	0.8375
3422	0.839
3431	0.8404
3440	0.8418
3449	0.843
3458	0.8442
3467	0.8453
3476	0.846
3485	0.8466
3494	0.847
3503	0.8471
3512	0.8471
3521	0.8471
3530	0.8471
3539	0.8471
3548	0.8471
3557	0.8473
3566	0.8475
3575	0.8478
3584	0.8483
3593	0.8487
3602	0.8491
3611	0.8494
3620	0.8498
3629	0.8501
3638	0.8505
3647	0.8506
3656	0.8507
3665	0.8508
3674	0.851
3683	0.8511
3692	0.8512
3701	0.8513
3710	0.8514
3719	0.8515
3728	0.8515
3737	0.8514
3746	0.8513
3755	0.8512
3764	0.8511
3773	0.851
3782	0.8516
3791	0.8518
3800	0.8518
