Infrared Spectrum: SULFONYL BIS(P,P'-BENZOIC ACID) 5-HYDROXY PENTYL ESTER
Formula: C24 H30 O8 S
CAS: 102955-13-5
State: SOLID (NUJOL MULL)
Class: COBLENTZ
Instrument: Not specified, most likely a prism, grating, or hybrid spectrometer.
Sampling: TRANSMISSION
Resolution: 4
Origin: TENNESSEE EASTMAN COMPANY, RESEARCH LABORATORIES
MICROMETERS	TRANSMITTANCE
1.989	0.87
2.02889	0.873
2.06878	0.875
2.10867	0.876
2.14857	0.878
2.18846	0.88
2.22835	0.881
2.26824	0.876
2.30813	0.871
2.34802	0.871
2.38792	0.873
2.42781	0.876
2.4677	0.878
2.50759	0.901
2.54748	0.911
2.58737	0.915
2.62727	0.916
2.66716	0.93
2.70705	0.931
2.74694	0.935
2.78683	0.935
2.82672	0.935
2.86662	0.915
2.90651	0.841
2.9464	0.696
2.98629	0.683
3.02618	0.676
3.06607	0.688
3.10596	0.746
3.14586	0.8
3.18575	0.835
3.22564	0.851
3.26553	0.843
3.30542	0.815
3.34531	0.438
3.38521	0.07
3.4251	0.02
3.46499	0.106
3.50488	0.205
3.54477	0.736
3.58466	0.818
3.62456	0.873
3.66445	0.878
3.70434	0.88
3.74423	0.898
3.78412	0.898
3.82401	0.915
3.8639	0.921
3.9038	0.938
3.94369	0.95
3.98358	0.956
4.02347	0.965
4.06336	0.971
4.10325	0.973
4.14315	0.973
4.18304	0.973
4.22293	0.976
4.26282	0.98
4.30271	0.98
4.3426	0.98
4.3825	0.981
4.42239	0.99
4.46228	0.991
4.50217	0.993
4.54206	0.993
4.58195	0.998
4.62185	1
4.66174	1.001
4.70163	1.001
4.74152	1.003
4.78141	1.005
4.8213	1.006
4.86119	1.008
4.90109	1.008
4.94098	1.01
4.98087	1.01
5.02076	1.013
5.06065	1.013
5.10054	1.005
5.14044	1
5.18033	1.011
5.22022	1.013
5.26011	1.013
5.3	1.011
5.33989	1.011
5.37979	1.013
5.41968	1.015
5.45957	1.015
5.49946	1.01
5.53935	1.01
5.57924	1.011
5.61913	1.008
5.65903	1.005
5.69892	0.993
5.73881	0.92
5.7787	0.635
5.81859	0.321
5.85848	0.33
5.89838	0.798
5.93827	0.87
5.97816	0.91
6.01805	0.951
6.05794	0.963
6.09783	0.966
6.13773	0.971
6.17762	0.976
6.21751	0.981
6.2574	0.981
6.29729	0.975
6.33718	0.941
6.37708	0.981
6.41697	0.983
6.45686	0.985
6.49675	0.985
6.53664	0.985
6.57653	0.983
6.61642	0.965
6.65632	0.931
6.69621	0.855
6.7361	0.755
6.77599	0.461
6.81588	0.355
6.85577	0.396
6.89567	0.515
6.93556	0.715
6.97545	0.836
7.01534	0.876
7.05523	0.861
7.09512	0.576
7.13502	0.748
7.17491	0.775
7.2148	0.603
7.25469	0.483
7.29458	0.566
7.33447	0.651
7.37436	0.77
7.41426	0.8
7.45415	0.806
7.49404	0.751
7.53393	0.468
7.57382	0.668
7.61371	0.646
7.65361	0.446
7.6935	0.44
7.73339	0.476
7.77328	0.431
7.81317	0.213
7.85306	0.2
7.89296	0.346
7.93285	0.558
7.97274	0.666
8.01263	0.736
8.05252	0.8
8.09241	0.855
8.13231	0.866
8.1722	0.873
8.21209	0.891
8.25198	0.898
8.29187	0.901
8.33176	0.903
8.37165	0.876
8.41155	0.82
8.45144	0.858
8.49133	0.861
8.53122	0.836
8.57111	0.64
8.611	0.32
8.6509	0.535
8.69079	0.74
8.73068	0.801
8.77057	0.816
8.81046	0.776
8.85035	0.653
8.89025	0.538
8.93014	0.53
8.97003	0.516
9.00992	0.481
9.04981	0.458
9.0897	0.531
9.12959	0.69
9.16949	0.773
9.20938	0.821
9.24927	0.833
9.28916	0.813
9.32905	0.72
9.36894	0.671
9.40884	0.595
9.44873	0.668
9.48862	0.771
9.52851	0.823
9.5684	0.838
9.60829	0.838
9.64819	0.763
9.68808	0.685
9.72797	0.738
9.76786	0.765
9.80775	0.716
9.84764	0.718
9.88754	0.816
9.92743	0.841
9.96732	0.831
10.0072	0.775
10.0471	0.818
10.087	0.866
10.1269	0.875
10.1668	0.881
10.2067	0.883
10.2466	0.88
10.2865	0.871
10.3263	0.87
10.3662	0.871
10.4061	0.871
10.446	0.87
10.4859	0.871
10.5258	0.878
10.5657	0.895
10.6056	0.915
10.6455	0.921
10.6854	0.928
10.7253	0.931
10.7652	0.935
10.805	0.943
10.8449	0.945
10.8848	0.951
10.9247	0.955
10.9646	0.958
11.0045	0.963
11.0444	0.965
11.0843	0.966
11.1242	0.966
11.1641	0.965
11.204	0.963
11.2438	0.96
11.2837	0.96
11.3236	0.961
11.3635	0.963
11.4034	0.963
11.4433	0.961
11.4832	0.956
11.5231	0.923
11.563	0.763
11.6029	0.648
11.6428	0.823
11.6827	0.888
11.7225	0.931
11.7624	0.948
11.8023	0.95
11.8422	0.953
11.8821	0.953
11.922	0.953
11.9619	0.956
12.0018	0.956
12.0417	0.958
12.0816	0.96
12.1215	0.96
12.1614	0.96
12.2012	0.96
12.2411	0.958
12.281	0.96
12.3209	0.96
12.3608	0.96
12.4007	0.958
12.4406	0.96
12.4805	0.96
12.5204	0.96
12.5603	0.96
12.6002	0.961
12.6401	0.96
12.6799	0.958
12.7198	0.955
12.7597	0.95
12.7996	0.941
12.8395	0.921
12.8794	0.856
12.9193	0.686
12.9592	0.571
12.9991	0.686
13.039	0.808
13.0789	0.863
13.1188	0.876
13.1586	0.876
13.1985	0.873
13.2384	0.83
13.2783	0.688
13.3182	0.585
13.3581	0.59
13.398	0.691
13.4379	0.75
13.4778	0.771
13.5177	0.78
13.5576	0.781
13.5975	0.781
13.6373	0.778
13.6772	0.768
13.7171	0.726
13.757	0.683
13.7969	0.681
13.8368	0.723
13.8767	0.766
13.9166	0.791
13.9565	0.803
13.9964	0.811
14.0363	0.815
14.0762	0.815
14.116	0.816
14.1559	0.818
14.1958	0.816
14.2357	0.813
14.2756	0.798
14.3155	0.775
14.3554	0.728
14.3953	0.65
14.4352	0.563
14.4751	0.52
14.515	0.516
14.5549	0.575
14.5947	0.65
14.6346	0.7
14.6745	0.716
14.7144	0.731
14.7543	0.736
14.7942	0.741
14.8341	0.741
14.874	0.741
14.9139	0.741
14.9538	0.741
14.9937	0.741
15.0336	0.738
15.0734	0.731
15.1133	0.718
15.1532	0.713
15.1931	0.711
15.233	0.711
15.2729	0.706
15.3128	0.703
15.3527	0.701
15.3926	0.7
15.4325	0.7
15.4724	0.7
15.5122	0.7
15.5521	0.698
15.592	0.696
15.6319	0.696
15.6718	0.695
15.7117	0.691
15.7516	0.69
15.7915	0.685
15.8314	0.675
15.8713	0.66
15.9112	0.648
15.9511	0.645
