Infrared Spectrum: N-Phenylbenzylamine
Formula: C 13 H 13 N
CAS: 103-32-2
State: gas
Origin: EPA-IR VAPOR PHASE LIBRARY
1/CM	ABSORBANCE
549.8	0.01553
559.445	0.01559
569.09	0.01747
578.734	0.01927
588.379	0.0214
598.024	0.02263
607.669	0.02244
617.313	0.02133
626.958	0.01849
636.603	0.01801
646.248	0.01982
655.893	0.02431
665.537	0.03351
675.182	0.05437
684.827	0.10007
694.472	0.12411
704.116	0.09292
713.761	0.07081
723.406	0.07916
733.051	0.10068
742.695	0.13735
752.34	0.11484
761.985	0.05501
771.63	0.03185
781.275	0.02567
790.919	0.02141
800.564	0.01642
810.209	0.01427
819.854	0.01177
829.498	0.01034
839.143	0.0101
848.788	0.01093
858.433	0.01331
868.078	0.01546
877.722	0.01181
887.367	0.00912
897.012	0.00943
906.657	0.00993
916.301	0.00826
925.946	0.00596
935.591	0.00526
945.236	0.00531
954.88	0.00554
964.525	0.00688
974.17	0.00891
983.815	0.01182
993.46	0.01517
1003.1	0.0108
1012.75	0.01017
1022.39	0.02327
1032.04	0.02876
1041.68	0.01299
1051.33	0.02014
1060.97	0.0294
1070.62	0.02606
1080.26	0.023
1089.91	0.02507
1099.55	0.02223
1109.2	0.02129
1118.84	0.01656
1128.49	0.01055
1138.13	0.0095
1147.78	0.01242
1157.42	0.0142
1167.07	0.01529
1176.71	0.03061
1186.36	0.02979
1196	0.02168
1205.64	0.02149
1215.29	0.02569
1224.93	0.03443
1234.58	0.0574
1244.22	0.10687
1253.87	0.12368
1263.51	0.09639
1273.16	0.07141
1282.8	0.05787
1292.45	0.07492
1302.09	0.09679
1311.74	0.10289
1321.38	0.08318
1331.03	0.04809
1340.67	0.02858
1350.32	0.02695
1359.96	0.02816
1369.61	0.02006
1379.25	0.01483
1388.9	0.01286
1398.54	0.01345
1408.18	0.01845
1417.83	0.03358
1427.47	0.06132
1437.12	0.05302
1446.76	0.03981
1456.41	0.04504
1466.05	0.05544
1475.7	0.07285
1485.34	0.09515
1494.99	0.21265
1504.63	0.30279
1514.28	0.12618
1523.92	0.04974
1533.57	0.03122
1543.21	0.0257
1552.86	0.02727
1562.5	0.02828
1572.15	0.03262
1581.79	0.06108
1591.44	0.15586
1601.08	0.27763
1610.73	0.17168
1620.37	0.06846
1630.01	0.02876
1639.66	0.01575
1649.3	0.01149
1658.95	0.00981
1668.59	0.00944
1678.24	0.00877
1687.88	0.00765
1697.53	0.00681
1707.17	0.00639
1716.82	0.00625
1726.46	0.00639
1736.11	0.00681
1745.75	0.00768
1755.4	0.00819
1765.04	0.00675
1774.69	0.00654
1784.33	0.0071
1793.98	0.00922
1803.62	0.00933
1813.27	0.00794
1822.91	0.00744
1832.55	0.00681
1842.2	0.00579
1851.84	0.00578
1861.49	0.00608
1871.13	0.00627
1880.78	0.00614
1890.42	0.0062
1900.07	0.00712
1909.71	0.00841
1919.36	0.00853
1929	0.00899
1938.65	0.00794
1948.29	0.00744
1957.94	0.00657
1967.58	0.00398
1977.23	0.00311
1986.87	0.00286
1996.52	0.00262
2006.16	0.00238
2015.81	0.00237
2025.45	0.00252
2035.1	0.00256
2044.74	0.00245
2054.38	0.00223
2064.03	0.00196
2073.67	0.00187
2083.32	0.00187
2092.96	0.00194
2102.61	0.00198
2112.25	0.00199
2121.9	0.00192
2131.54	0.0019
2141.19	0.00184
2150.83	0.00179
2160.48	0.00181
2170.12	0.00202
2179.77	0.00196
2189.41	0.00169
2199.06	0.00158
2208.7	0.00148
2218.35	0.00149
2227.99	0.0014
2237.64	0.00138
2247.28	0.00136
2256.92	0.0014
2266.57	0.00147
2276.21	0.0016
2285.86	0.0019
2295.5	0.00205
2305.15	0.00231
2314.79	0.00256
2324.44	0.00207
2334.08	0.00224
2343.73	0.0022
2353.37	0.00214
2363.02	0.00201
2372.66	0.00189
2382.31	0.00181
2391.95	0.00222
2401.6	0.00235
2411.24	0.00198
2420.89	0.00161
2430.53	0.00142
2440.18	0.00146
2449.82	0.00162
2459.47	0.00171
2469.11	0.00179
2478.75	0.00184
2488.4	0.00191
2498.04	0.00185
2507.69	0.00182
2517.33	0.00199
2526.98	0.00228
2536.62	0.00278
2546.27	0.00329
2555.91	0.00379
2565.56	0.00368
2575.2	0.0034
2584.85	0.00311
2594.49	0.00259
2604.14	0.00234
2613.78	0.00217
2623.43	0.00205
2633.07	0.00202
2642.72	0.00203
2652.36	0.00216
2662.01	0.00213
2671.65	0.00219
2681.29	0.00233
2690.94	0.0022
2700.58	0.00218
2710.23	0.00208
2719.87	0.002
2729.52	0.00189
2739.16	0.00212
2748.81	0.00238
2758.45	0.00265
2768.1	0.00326
2777.74	0.00392
2787.39	0.00487
2797.03	0.006
2806.68	0.00765
2816.32	0.0096
2825.97	0.01231
2835.61	0.01625
2845.26	0.0214
2854.9	0.02721
2864.55	0.03042
2874.19	0.02972
2883.84	0.02729
2893.48	0.02438
2903.12	0.0228
2912.77	0.02306
2922.41	0.02687
2932.06	0.02745
2941.7	0.0201
2951.35	0.01456
2960.99	0.01108
2970.64	0.00817
2980.28	0.0071
2989.93	0.00836
2999.57	0.01458
3009.22	0.02971
3018.86	0.05461
3028.51	0.07866
3038.15	0.08016
3047.8	0.07495
3057.44	0.09397
3067.09	0.1025
3076.73	0.08815
3086.38	0.06555
3096.02	0.04826
3105.67	0.03234
3115.31	0.01917
3124.95	0.00893
3134.6	0.00407
3144.24	0.00245
3153.89	0.00201
3163.53	0.00184
3173.18	0.00156
3182.82	0.00125
3192.47	0.00117
3202.11	0.00112
3211.76	0.00106
3221.4	0.0008088
3231.05	0.0006902
3240.69	0.00065
3250.34	0.0004391
3259.98	0.0003535
3269.63	0.0005046
3279.27	0.0002048
3288.92	0.0003816
3298.56	0.0004541
3308.21	0.0004513
3317.85	0.0005288
3327.49	0.0003627
3337.14	0.0004354
3346.78	0.0004066
3356.43	0.0006141
3366.07	0.0006017
3375.72	0.0009874
3385.36	0.00143
3395.01	0.0024
3404.65	0.00374
3414.3	0.00658
3423.94	0.01021
3433.59	0.01126
3443.23	0.0103
3452.88	0.00924
3462.52	0.00748
3472.17	0.00497
3481.81	0.00301
3491.46	0.00216
3501.1	0.00148
3510.75	0.00107
3520.39	0.00102
3530.04	0.0009329
3539.68	0.0007471
3549.32	0.0007201
3558.97	0.0007507
3568.61	0.0008335
3578.26	0.0005518
3587.9	0.0007079
3597.55	0.0005626
3607.19	0.000757
3616.84	0.0007354
3626.48	0.00102
3636.13	0.0009653
3645.77	0.00106
3655.42	0.00107
3665.06	0.00105
3674.71	0.0009952
3684.35	0.00103
3694	0.0007295
3703.64	0.001
3713.29	0.0009302
3722.93	0.000961
3732.58	0.0006785
3742.22	0.0005602
3751.86	0.0007632
3761.51	0.0006735
3771.15	0.0006405
3780.8	0.0005529
3790.44	0.0006852
3800.09	0.0009339
3809.73	0.00104
3819.38	0.00099
3829.02	0.0009753
3838.67	0.00108
3848.31	0.0009843
3857.96	0.00106
3867.6	0.00117
3877.25	0.00105
3886.89	0.0009999
3896.54	0.001
3906.18	0.00109
3915.83	0.00109
3925.47	0.0008487
3935.12	0.00101
3944.76	0.0009438
3954.41	0.0007322
3964.05	0.0009297
3973.69	0.00107
3983.34	0.0009225
3992.98	0.00122
