Infrared Spectrum: Benzyl cinnamate
Formula: C 16 H 14 O 2
CAS: 103-41-3
State: gas
Instrument: HP-GC/MS/IRD
Origin: NIST Mass Spectrometry Data Center
1/CM	ABSORBANCE
550	0.0026
562	0.0066
574	0.01905
586	0.01315
598	0.00865
610	0.00355
622	0.00105
634	0.0003
646	0.0014
658	0.00625
670	0.0205
682	0.04545
694	0.0676
706	0.056
718	0.0417
730	0.04005
742	0.0476
754	0.0548
766	0.0466
778	0.01695
790	0.00615
802	0.0041
814	0.0049
826	0.00775
838	0.00995
850	0.01225
862	0.01585
874	0.0117
886	0.0097
898	0.0113
910	0.0146
922	0.01245
934	0.0126
946	0.01465
958	0.02395
970	0.05365
982	0.07065
994	0.066
1006	0.08825
1018	0.0869
1030	0.0494
1042	0.02875
1054	0.02095
1066	0.02085
1078	0.0169
1090	0.01755
1102	0.0197
1114	0.02305
1126	0.03685
1138	0.0862
1150	0.3044
1162	0.42675
1174	0.124
1186	0.0934
1198	0.1349
1210	0.07975
1222	0.07765
1234	0.14185
1246	0.2213
1258	0.15585
1270	0.1353
1282	0.09955
1294	0.13
1306	0.15095
1318	0.09055
1330	0.05175
1342	0.03
1354	0.02275
1366	0.02805
1378	0.04065
1390	0.01565
1402	0.0098
1414	0.0085
1426	0.00995
1438	0.0173
1450	0.03795
1462	0.0259
1474	0.0146
1486	0.01615
1498	0.0366
1510	0.00945
1522	0.00555
1534	0.0052
1546	0.005
1558	0.00555
1570	0.0102
1582	0.0152
1594	0.01205
1606	0.0152
1618	0.0233
1630	0.0583
1642	0.0998
1654	0.0371
1666	0.0179
1678	0.014
1690	0.0176
1702	0.0277
1714	0.05255
1726	0.15045
1738	0.29965
1750	0.1468
1762	0.0469
1774	0.02475
1786	0.0154
1798	0.01255
1810	0.0079
1822	0.00665
1834	0.00585
1846	0.00535
1858	0.00505
1870	0.00565
1882	0.00565
1894	0.00425
1906	0.0025
1918	0.0027
1930	0.00415
1942	0.00625
1954	0.007
1966	0.0042
1978	0.0025
1990	0.0021
2002	0.0015
2014	0.00115
2026	0.0009
2038	0.00075
2050	0.0007
2062	0.00085
2074	0.0012
2086	0.00155
2098	0.00135
2110	0.00115
2122	0.001
2134	0.0009
2146	0.00075
2158	0.0006
2170	0.0005
2182	0.00035
2194	0.00025
2206	0.0003
2218	0.0003
2230	0.0003
2242	0.0003
2254	0.00045
2266	0.0004
2278	0.00045
2290	0.00045
2302	0.0006
2314	0.00135
2326	0.0006
2338	0.0005
2350	0.00035
2362	0.00015
2374	0
2386	0
2398	0
2410	5e-05
2422	0.0001
2434	0.00015
2446	0.0003
2458	0.00025
2470	0.0003
2482	0.00015
2494	0.0001
2506	5e-05
2518	0.0001
2530	0.0001
2542	5e-05
2554	5e-05
2566	0.0002
2578	0.00025
2590	0.0004
2602	0.0005
2614	0.0004
2626	0.00035
2638	0.0004
2650	0.00045
2662	0.0003
2674	0.00025
2686	0.00025
2698	0.0003
2710	0.0003
2722	0.0003
2734	0.0005
2746	0.00065
2758	0.0006
2770	0.0008
2782	0.0012
2794	0.0015
2806	0.0016
2818	0.00195
2830	0.00235
2842	0.00205
2854	0.00215
2866	0.00285
2878	0.0048
2890	0.0082
2902	0.0092
2914	0.0071
2926	0.0073
2938	0.01075
2950	0.0192
2962	0.02415
2974	0.0151
2986	0.00995
2998	0.0079
3010	0.011
3022	0.0228
3034	0.04665
3046	0.0422
3058	0.0395
3070	0.07215
3082	0.0458
3094	0.03145
3106	0.02015
3118	0.00955
3130	0.0034
3142	0.0019
3154	0.00175
3166	0.0012
3178	0.00075
3190	0.0004
3202	0.00035
3214	0.00025
3226	0.00035
3238	0.0003
3250	0.00025
3262	0.00025
3274	0.0003
3286	0.0003
3298	0.00035
3310	0.0003
3322	0.00025
3334	0.00035
3346	0.00045
3358	0.0006
3370	0.00085
3382	0.0008
3394	0.0006
3406	0.00055
3418	0.0006
3430	0.001
3442	0.0017
3454	0.0025
3466	0.00225
3478	0.00145
3490	0.00095
3502	0.0006
3514	0.00045
3526	0.00035
3538	0.0003
3550	0.0003
3562	0.0003
3574	0.00035
3586	0.00035
3598	0.0003
3610	0.0004
3622	0.00045
3634	0.0005
3646	0.0008
3658	0.0008
3670	0.0006
3682	0.00055
3694	0.0005
3706	0.0006
3718	0.0004
3730	0.00045
3742	0.0004
3754	0.0004
3766	0.0004
3778	0.0004
3790	0.00045
3802	0.0004
3814	0.0004
3826	0.00045
3838	0.00035
