Infrared Spectrum: N-Methylbenzylamine
Formula: C 8 H 11 N
CAS: 103-67-3
State: gas
Instrument: HP-GC/MS/IRD
Origin: NIST Mass Spectrometry Data Center
1/CM	ABSORBANCE
550	0.0007008
562	0.0006588
574	0.0011796
586	0.0012936
598	0.0012804
610	0.0011292
622	0.0011064
634	0.0012408
646	0.0019548
658	0.0027732
670	0.0045252
682	0.007458
694	0.0113532
706	0.0114228
718	0.0102312
730	0.0101676
742	0.0087768
754	0.005004
766	0.0021624
778	0.0010224
790	0.00081
802	0.0009912
814	0.000996
826	0.0006756
838	0.000348
850	0.0001344
862	0.000114
874	0.0001044
886	0.0002772
898	0.000462
910	0.000534
922	0.0004728
934	0.0004152
946	0.0004716
958	0.0006096
970	0.0007332
982	0.0006504
994	0.0003252
1006	0.0001932
1018	0.000834
1030	0.001116
1042	0.0004044
1054	0.0004068
1066	0.000888
1078	0.001128
1090	0.0019308
1102	0.003906
1114	0.0052692
1126	0.0048312
1138	0.0034656
1150	0.0023472
1162	0.0015468
1174	0.0008316
1186	0.0005772
1198	0.0006456
1210	0.0003756
1222	6.84e-05
1234	4.92e-05
1246	9.48e-05
1258	5.28e-05
1270	4.56e-05
1282	7.08e-05
1294	0.0001956
1306	0.0004392
1318	0.0007356
1330	0.0012072
1342	0.0020784
1354	0.002568
1366	0.0014964
1378	0.0005496
1390	0.000378
1402	0.0004728
1414	0.0008328
1426	0.001788
1438	0.0043368
1450	0.0060732
1462	0.0051948
1474	0.0039036
1486	0.0034644
1498	0.0030336
1510	0.0011892
1522	0.0004824
1534	0.0003372
1546	0.0002724
1558	0.000318
1570	0.0003816
1582	0.0006
1594	0.000984
1606	0.0009564
1618	0.0004728
1630	0.0001824
1642	0.0001896
1654	0.000294
1666	0.000186
1678	1.92e-05
1690	0
1702	3e-05
1714	6.72e-05
1726	7.08e-05
1738	0.000102
1750	9.96e-05
1762	8.88e-05
1774	0.0001956
1786	0.0003924
1798	0.0006
1810	0.0004152
1822	0.0002244
1834	0.0001872
1846	0.0002592
1858	0.0003696
1870	0.0004128
1882	0.0002988
1894	0.0001584
1906	0.000156
1918	0.0002544
1930	0.0004464
1942	0.0005796
1954	0.0005304
1966	0.0002424
1978	6.72e-05
1990	8.88e-05
2002	6.84e-05
2014	7.8e-05
2026	9.6e-05
2038	0.0001272
2050	0.000162
2062	0.0001416
2074	0.0001152
2086	0.0001224
2098	0.0001308
2110	9.48e-05
2122	8.04e-05
2134	9.72e-05
2146	0.0001236
2158	0.0001068
2170	0.0001212
2182	0.0001272
2194	0.0001236
2206	0.0001392
2218	0.0001284
2230	0.0001488
2242	0.0001272
2254	8.76e-05
2266	0.000126
2278	0.0001164
2290	0.0001452
2302	0.0001572
2314	0.0002208
2326	0.0001968
2338	0.0001908
2350	0.0001572
2362	0.0002076
2374	0.0001488
2386	0.0001584
2398	0.0001908
2410	0.0002292
2422	0.0001836
2434	0.000204
2446	0.0001524
2458	0.0001608
2470	0.0001824
2482	0.0001872
2494	0.0001908
2506	0.0001752
2518	0.0002256
2530	0.0002736
2542	0.0002916
2554	0.0003384
2566	0.0003432
2578	0.000354
2590	0.0004092
2602	0.0004272
2614	0.0003912
2626	0.0004332
2638	0.0004716
2650	0.0005688
2662	0.0006696
2674	0.0007944
2686	0.0009012
2698	0.0009984
2710	0.0010332
2722	0.0010848
2734	0.0012612
2746	0.0016488
2758	0.0023808
2770	0.003768
2782	0.0064776
2794	0.0102696
2806	0.0107088
2818	0.0084036
2830	0.0076944
2842	0.0080244
2854	0.008484
2866	0.0080952
2878	0.0076164
2890	0.0078972
2902	0.0078408
2914	0.0078204
2926	0.0080748
2938	0.0084504
2950	0.0085704
2962	0.0074904
2974	0.0066336
2986	0.0051636
2998	0.0033384
3010	0.0036444
3022	0.0058128
3034	0.0073512
3046	0.0060888
3058	0.006018
3070	0.00783
3082	0.006384
3094	0.004032
3106	0.0024888
3118	0.0014052
3130	0.000762
3142	0.0005856
3154	0.000534
3166	0.0005124
3178	0.0004176
3190	0.0003912
3202	0.0003492
3214	0.0002652
3226	0.0002928
3238	0.0003252
3250	0.0002004
3262	0.0002724
3274	0.0002856
3286	0.0003204
3298	0.0003228
3310	0.000228
3322	0.00018
3334	0.0002556
3346	0.0002496
3358	0.0002376
3370	0.0002952
3382	0.0002856
3394	0.0002676
3406	0.0001956
3418	0.00027
3430	0.0002136
3442	0.0002508
3454	0.0001812
3466	0.0002124
3478	0.0001968
3490	0.0002448
3502	0.0002232
3514	0.0001956
3526	0.0002568
3538	0.0001992
3550	0.0002088
3562	7.68e-05
3574	0.0001476
3586	0.000186
3598	0.000192
3610	0.0001212
3622	0.0002484
3634	0.0002268
3646	0.0001908
3658	0.0003048
3670	0.0002976
3682	0.0002628
3694	0.0003024
3706	0.0002892
3718	0.0002016
3730	0.0002268
3742	0.0002676
3754	0.0002916
3766	0.000342
3778	0.0002604
3790	0.0002928
3802	0.000336
3814	0.000306
3826	0.0003252
3838	0.0003672
