Infrared Spectrum: trans-Stilbene
Formula: C 14 H 12
CAS: 103-30-0
State: gas
Instrument: HP-GC/MS/IRD
Origin: NIST Mass Spectrometry Data Center
1/CM	ABSORBANCE
550	0.0010131
562	0.0004191
574	0.0001419
586	4.95e-05
598	8.91e-05
610	0.0001881
622	0.0002772
634	0.0004917
646	0.0011187
658	0.0030888
670	0.0081345
682	0.0203313
694	0.0281424
706	0.016533
718	0.0071181
730	0.0050655
742	0.0123387
754	0.0267399
766	0.0175692
778	0.0043956
790	0.002079
802	0.0010989
814	0.0009669
826	0.0009999
838	0.0007755
850	0.0007623
862	0.000759
874	0.0007359
886	0.0011715
898	0.0017556
910	0.0014685
922	0.0014817
934	0.002937
946	0.0093126
958	0.015774
970	0.0084876
982	0.0032604
994	0.0017325
1006	0.0016368
1018	0.0021747
1030	0.0043362
1042	0.0012606
1054	0.0017028
1066	0.0026367
1078	0.0017292
1090	0.0009339
1102	0.0007194
1114	0.0002079
1126	3.63e-05
1138	2.31e-05
1150	0.0001056
1162	0.0001221
1174	0.0002706
1186	0.000264
1198	7.92e-05
1210	0.0002277
1222	0.0003432
1234	0.0002904
1246	0.0003894
1258	0.0006237
1270	0.0004224
1282	0.0005016
1294	0.0005808
1306	0.0006006
1318	0.000792
1330	0.0007854
1342	0.0005544
1354	0.0004422
1366	0.0005511
1378	0.0005577
1390	0.0004389
1402	0.0004158
1414	0.0006732
1426	0.0013002
1438	0.0024684
1450	0.004224
1462	0.0030459
1474	0.0024222
1486	0.0070389
1498	0.0132825
1510	0.0048015
1522	0.0014454
1534	0.0013893
1546	0.0009669
1558	0.0011352
1570	0.0019305
1582	0.0036366
1594	0.009867
1606	0.0097317
1618	0.0017853
1630	0.0009636
1642	0.0008943
1654	0.0007623
1666	0.0010032
1678	0.0007128
1690	0.0007854
1702	0.0006039
1714	0.0007128
1726	0.0011286
1738	0.0014421
1750	0.0013893
1762	0.0009834
1774	0.0014883
1786	0.0029205
1798	0.0028677
1810	0.0017622
1822	0.0012177
1834	0.00066
1846	0.0007491
1858	0.0013299
1870	0.0017259
1882	0.0016071
1894	0.0008613
1906	0.000528
1918	0.0009933
1930	0.0018018
1942	0.0021714
1954	0.0022044
1966	0.0005841
1978	0.0002079
1990	0.0001452
2002	8.91e-05
2014	8.58e-05
2026	4.62e-05
2038	3.96e-05
2050	4.62e-05
2062	3.3e-05
2074	2.97e-05
2086	4.29e-05
2098	0
2110	2.64e-05
2122	7.26e-05
2134	5.28e-05
2146	5.61e-05
2158	6.6e-05
2170	0.0001023
2182	9.57e-05
2194	0.0001023
2206	6.27e-05
2218	6.27e-05
2230	7.92e-05
2242	9.57e-05
2254	0.0001221
2266	0.0001089
2278	9.24e-05
2290	9.24e-05
2302	0.0001485
2314	0.0004257
2326	0.0002541
2338	0.0002706
2350	0.0002145
2362	0.0002145
2374	0.0001782
2386	8.58e-05
2398	0.0001254
2410	0.0001386
2422	0.0001188
2434	0.0001419
2446	9.24e-05
2458	8.25e-05
2470	7.92e-05
2482	6.27e-05
2494	0.0001155
2506	0.0001254
2518	0.000132
2530	0.0001089
2542	0.0001056
2554	0.0001386
2566	0.0001683
2578	0.0002079
2590	0.0002673
2602	0.0002475
2614	0.0001287
2626	0.0001815
2638	0.0001188
2650	0.0001056
2662	8.91e-05
2674	8.91e-05
2686	6.6e-05
2698	9.24e-05
2710	8.25e-05
2722	3.63e-05
2734	6.27e-05
2746	9.24e-05
2758	0.000132
2770	0.000198
2782	0.0003366
2794	0.0003036
2806	0.0002475
2818	0.00033
2830	0.0004026
2842	0.0004092
2854	0.0004983
2866	0.0005874
2878	0.0006534
2890	0.0009669
2902	0.0009933
2914	0.0009768
2926	0.0010956
2938	0.001353
2950	0.0015015
2962	0.0014025
2974	0.0014751
2986	0.0017193
2998	0.0030195
3010	0.0063921
3022	0.0168663
3034	0.0297528
3046	0.0156882
3058	0.0166749
3070	0.033
3082	0.0193083
3094	0.0139491
3106	0.0080355
3118	0.0030294
3130	0.0013233
3142	0.0010263
3154	0.0009306
3166	0.000495
3178	0.0002904
3190	0.0002079
3202	0.0002541
3214	0.0001749
3226	0.0001782
3238	0.0002046
3250	0.0001287
3262	0.0001287
3274	0.0002508
3286	0.000165
3298	9.57e-05
3310	0.0001287
3322	9.9e-05
3334	9.24e-05
3346	0.0001584
3358	0.0001353
3370	0.0001617
3382	0.0001353
3394	0.0001452
3406	0.0002013
3418	0.0001617
3430	4.62e-05
3442	0.0001056
3454	0.0001485
3466	0.0002079
3478	0.0001353
3490	3.63e-05
3502	9.9e-05
3514	9.24e-05
3526	0.0001815
3538	6.93e-05
3550	0.000132
3562	0.0001617
3574	0.0001188
3586	0.000165
3598	0.0001782
3610	0.0001617
3622	0.0001947
3634	0.0002079
3646	0.0002739
3658	0.0001848
3670	0.000198
3682	0.0002409
3694	0.0002013
3706	0.0002706
3718	0.0002178
3730	0.0002607
3742	0.0001188
3754	0.0001584
3766	0.0002013
3778	0.0002211
3790	0.0001353
3802	0.0001716
3814	0.000165
3826	0.0002475
3838	0.000231
