Infrared Spectrum: STEARAMIDE, M-HYDROXYPHENOL
Formula: C24 H41 N O2
CAS: 103-99-1
State: SOLID (PELLET)
Melting point: 107-108 C
Class: COBLENTZ
Instrument: Not specified, most likely a prism, grating, or hybrid spectrometer.
Sampling: TRANSMISSION
Resolution: 4
Origin: TENNESSEE EASTMAN COMPANY, RESEARCH LABORATORIES
MICROMETERS	TRANSMITTANCE
2.033	0.881
2.07286	0.885
2.11271	0.886
2.15257	0.888
2.19243	0.888
2.23229	0.888
2.27214	0.89
2.312	0.888
2.35186	0.888
2.39172	0.888
2.43157	0.89
2.47143	0.888
2.51129	0.888
2.55114	0.89
2.591	0.89
2.63086	0.888
2.67072	0.89
2.71057	0.871
2.75043	0.725
2.79029	0.608
2.83014	0.532
2.87	0.48
2.90986	0.42
2.94972	0.389
2.98957	0.336
3.02943	0.212
3.06929	0.384
3.10915	0.52
3.149	0.617
3.18886	0.685
3.22872	0.728
3.26857	0.73
3.30843	0.76
3.34829	0.592
3.38815	0.193
3.428	0.314
3.46786	0.252
3.50772	0.605
3.54757	0.797
3.58743	0.833
3.62729	0.851
3.66715	0.851
3.707	0.856
3.74686	0.86
3.78672	0.865
3.82658	0.873
3.86643	0.885
3.90629	0.895
3.94615	0.903
3.986	0.913
4.02586	0.916
4.06572	0.916
4.10558	0.92
4.14543	0.921
4.18529	0.928
4.22515	0.936
4.265	0.93
4.30486	0.926
4.34472	0.926
4.38458	0.935
4.42443	0.938
4.46429	0.941
4.50415	0.945
4.54401	0.945
4.58386	0.946
4.62372	0.946
4.66358	0.948
4.70343	0.945
4.74329	0.945
4.78315	0.945
4.82301	0.945
4.86286	0.945
4.90272	0.943
4.94258	0.943
4.98243	0.945
5.02229	0.951
5.06215	0.95
5.10201	0.95
5.14186	0.95
5.18172	0.953
5.22158	0.953
5.26144	0.953
5.30129	0.93
5.34115	0.94
5.38101	0.953
5.42086	0.956
5.46072	0.956
5.50058	0.956
5.54044	0.955
5.58029	0.955
5.62015	0.948
5.66001	0.931
5.69986	0.92
5.73972	0.911
5.77958	0.901
5.81944	0.9
5.85929	0.895
5.89915	0.853
5.93901	0.798
5.97887	0.52
6.01872	0.282
6.05858	0.153
6.09844	0.54
6.13829	0.618
6.17815	0.559
6.21801	0.612
6.25787	0.775
6.29772	0.81
6.33758	0.763
6.37744	0.515
6.41729	0.176
6.45715	0.244
6.49701	0.45
6.53687	0.361
6.57672	0.341
6.61658	0.727
6.65644	0.783
6.6963	0.803
6.73615	0.703
6.77601	0.415
6.81587	0.579
6.85572	0.582
6.89558	0.605
6.93544	0.565
6.9753	0.608
7.01515	0.64
7.05501	0.73
7.09487	0.78
7.13472	0.785
7.17458	0.735
7.21444	0.647
7.2543	0.655
7.29415	0.725
7.33401	0.738
7.37387	0.755
7.41373	0.763
7.45358	0.77
7.49344	0.77
7.5333	0.783
7.57315	0.803
7.61301	0.773
7.65287	0.773
7.69273	0.772
7.73258	0.818
7.77244	0.831
7.8123	0.818
7.85215	0.785
7.89201	0.695
7.93187	0.567
7.97173	0.494
8.01158	0.44
8.05144	0.52
8.0913	0.582
8.13116	0.612
8.17101	0.638
8.21087	0.702
8.25073	0.745
8.29058	0.758
8.33044	0.758
8.3703	0.787
8.41016	0.801
8.45001	0.775
8.48987	0.795
8.52973	0.806
8.56958	0.835
8.60944	0.868
8.6493	0.875
8.68916	0.881
8.72901	0.886
8.76887	0.89
8.80873	0.89
8.84859	0.89
8.88844	0.891
8.9283	0.888
8.96816	0.858
9.00801	0.762
9.04787	0.723
9.08773	0.818
9.12759	0.88
9.16744	0.901
9.2073	0.921
9.24716	0.926
9.28701	0.928
9.32687	0.928
9.36673	0.93
9.40659	0.93
9.44644	0.93
9.4863	0.931
9.52616	0.933
9.56602	0.933
9.60587	0.936
9.64573	0.936
9.68559	0.938
9.72544	0.938
9.7653	0.938
9.80516	0.931
9.84502	0.923
9.88487	0.931
9.92473	0.94
9.96459	0.943
10.0044	0.945
10.0443	0.946
10.0842	0.946
10.124	0.946
10.1639	0.946
10.2037	0.945
10.2436	0.94
10.2834	0.94
10.3233	0.921
10.3632	0.875
10.403	0.86
10.4429	0.89
10.4827	0.926
10.5226	0.945
10.5624	0.956
10.6023	0.965
10.6422	0.968
10.682	0.973
10.7219	0.973
10.7617	0.97
10.8016	0.971
10.8414	0.976
10.8813	0.978
10.9212	0.98
10.961	0.981
11.0009	0.983
11.0407	0.983
11.0806	0.985
11.1204	0.986
11.1603	0.986
11.2002	0.986
11.24	0.985
11.2799	0.985
11.3197	0.985
11.3596	0.985
11.3994	0.985
11.4393	0.985
11.4792	0.985
11.519	0.973
11.5589	0.96
11.5987	0.958
11.6386	0.956
11.6784	0.956
11.7183	0.955
11.7582	0.941
11.798	0.916
11.8379	0.86
11.8777	0.768
11.9176	0.622
11.9574	0.51
11.9973	0.475
12.0372	0.487
12.077	0.638
12.1169	0.75
12.1567	0.808
12.1966	0.85
12.2364	0.875
12.2763	0.888
12.3162	0.895
12.356	0.9
12.3959	0.901
12.4357	0.901
12.4756	0.89
12.5154	0.861
12.5553	0.853
12.5952	0.871
12.635	0.905
12.6749	0.933
12.7147	0.941
12.7546	0.943
12.7945	0.943
12.8343	0.945
12.8742	0.948
12.914	0.95
12.9539	0.95
12.9937	0.95
13.0336	0.95
13.0735	0.95
13.1133	0.948
13.1532	0.948
13.193	0.943
13.2329	0.943
13.2727	0.938
13.3126	0.931
13.3525	0.925
13.3923	0.921
13.4322	0.918
13.472	0.905
13.5119	0.896
13.5517	0.883
13.5916	0.868
13.6315	0.85
13.6713	0.823
13.7112	0.798
13.751	0.772
13.7909	0.737
13.8307	0.692
13.8706	0.667
13.9105	0.672
13.9503	0.707
13.9902	0.752
14.03	0.768
14.0699	0.773
14.1097	0.775
14.1496	0.773
14.1895	0.768
14.2293	0.767
14.2692	0.763
14.309	0.763
14.3489	0.763
14.3887	0.765
14.4286	0.768
14.4685	0.77
14.5083	0.772
14.5482	0.775
14.588	0.778
14.6279	0.782
14.6677	0.785
14.7076	0.788
14.7475	0.793
14.7873	0.795
14.8272	0.797
14.867	0.8
14.9069	0.798
14.9467	0.783
14.9866	0.783
15.0265	0.801
15.0663	0.81
15.1062	0.811
15.146	0.81
15.1859	0.806
15.2257	0.801
15.2656	0.797
15.3055	0.792
15.3453	0.783
15.3852	0.772
15.425	0.767
15.4649	0.767
15.5047	0.758
15.5446	0.752
15.5845	0.742
15.6243	0.735
15.6642	0.727
15.704	0.722
15.7439	0.71
15.7837	0.702
15.8236	0.693
15.8635	0.69
15.9033	0.682
15.9432	0.673
15.983	0.663
