Infrared Spectrum: Acetone phenylhydrazone
Formula: C9 H12 N2
CAS: 103-02-6
State: SOLUTION (10% CCl4 FOR 3800-1340, 10% CS2 FOR 1340-450 CM^-^1)
Melting point: 24 C
Class: COBLENTZ III
Instrument: DOW KBr FOREPRISM-GRATING
Instrument parameters: BLAZED AT 3.5, 12.0, 20.0 MICRON AND CHANGED AT 5.0, 7.5, 14.9 MICRON
Sampling: TRANSMISSION
Path length: 0.011 CM, 0.011 CM
Resolution: 2
Origin: DOW CHEMICAL COMPANY
1/CM	TRANSMITTANCE
3796	0.9261
3787	0.927
3778	0.9274
3769	0.9282
3760	0.9297
3751	0.929
3742	0.9284
3733	0.9299
3724	0.9324
3715	0.9282
3706	0.9257
3697	0.9217
3688	0.9163
3679	0.9112
3670	0.9112
3661	0.9096
3652	0.9102
3643	0.9121
3634	0.9146
3625	0.9195
3616	0.923
3607	0.9207
3598	0.9204
3589	0.922
3580	0.9228
3571	0.9222
3562	0.9231
3553	0.9242
3544	0.9255
3535	0.9265
3526	0.9253
3517	0.9252
3508	0.9248
3499	0.9245
3490	0.9245
3481	0.9202
3472	0.919
3463	0.918
3454	0.9174
3445	0.9162
3436	0.9144
3427	0.9119
3418	0.9109
3409	0.9098
3400	0.9061
3391	0.8953
3382	0.8738
3373	0.8125
3364	0.6948
3355	0.7078
3346	0.7705
3337	0.8211
3328	0.8461
3319	0.8703
3310	0.8842
3301	0.8918
3292	0.8966
3283	0.9014
3274	0.9043
3265	0.9087
3256	0.9013
3247	0.904
3238	0.9054
3229	0.9068
3220	0.9083
3211	0.9109
3202	0.9057
3193	0.9017
3184	0.9019
3175	0.904
3166	0.9042
3157	0.9053
3148	0.9028
3139	0.9017
3130	0.8969
3121	0.889
3112	0.864
3103	0.8264
3094	0.7417
3085	0.7238
3076	0.7416
3067	0.7354
3058	0.5183
3049	0.5362
3040	0.6131
3031	0.6108
3022	0.5594
3013	0.6096
3004	0.6771
2995	0.6287
2986	0.5661
2977	0.6632
2968	0.7251
2959	0.7534
2950	0.6992
2941	0.5735
2932	0.5068
2923	0.5657
2914	0.4496
2905	0.4349
2896	0.6774
2887	0.7351
2878	0.7675
2869	0.7664
2860	0.7329
2851	0.6555
2842	0.7005
2833	0.8184
2824	0.8467
2815	0.8654
2806	0.87
2797	0.8814
2788	0.8919
2779	0.9001
2770	0.9031
2761	0.9042
2752	0.9014
2743	0.8931
2734	0.8801
2725	0.872
2716	0.8976
2707	0.9075
2698	0.9067
2689	0.9092
2680	0.9098
2671	0.9095
2662	0.9094
2653	0.9097
2644	0.9033
2635	0.9014
2626	0.9061
2617	0.906
2608	0.9047
2599	0.9033
2590	0.9021
2581	0.8915
2572	0.8857
2563	0.8916
2554	0.8928
2545	0.8999
2536	0.904
2527	0.9044
2518	0.9075
2509	0.9114
2500	0.9131
2491	0.9097
2482	0.9062
2473	0.9053
2464	0.9045
2455	0.9096
2446	0.9167
2437	0.9168
2428	0.9159
2419	0.9109
2410	0.9092
2401	0.9106
2392	0.9102
2383	0.9133
2374	0.9198
2365	0.9235
2356	0.9284
2347	0.9246
2338	0.921
2329	0.9225
2320	0.9214
2311	0.9172
2302	0.9142
2293	0.9167
2284	0.9161
2275	0.9122
2266	0.9112
2257	0.9086
2248	0.9066
2239	0.9062
2230	0.9085
2221	0.9114
2212	0.9144
2203	0.9115
2194	0.9091
2185	0.9029
2176	0.9016
2167	0.8986
2158	0.8984
2149	0.8987
2140	0.8997
2131	0.9007
2122	0.9001
2113	0.9029
2104	0.9053
2095	0.9061
2086	0.9042
2077	0.9023
2068	0.9002
2059	0.8969
2050	0.8962
2041	0.8958
2032	0.8975
2023	0.8989
2014	0.897
2005	0.8877
1996	0.8699
1987	0.8794
1978	0.8758
1969	0.8734
1960	0.869
1951	0.8639
1942	0.8439
1933	0.8237
1924	0.806
1915	0.8251
1906	0.8438
1897	0.8529
1888	0.8567
1879	0.8516
1870	0.8544
1861	0.8549
1852	0.8237
1843	0.835
1834	0.8119
1825	0.8329
1816	0.8595
1807	0.8591
1798	0.8581
1789	0.8581
1780	0.8445
1771	0.8189
1762	0.8333
1753	0.8455
1744	0.8536
1735	0.8577
1726	0.8459
1717	0.7791
1708	0.7764
1699	0.7843
1690	0.8104
1681	0.8221
1672	0.819
1663	0.807
1654	0.7883
1645	0.7428
1636	0.6249
1627	0.5021
1618	0.3898
1609	0.1433
1600	0
1591	0.1491
1582	0.4825
1573	0.6483
1564	0.7218
1555	0.761
1546	0.7558
1537	0.7001
1528	0.614
1519	0.439
1510	0.1056
1501	0.002
1492	0.1292
1483	0.4593
1474	0.4782
1465	0.586
1456	0.528
1447	0.4975
1438	0.3677
1429	0.3863
1420	0.4368
1411	0.6412
1402	0.7231
1393	0.7282
1384	0.6583
1375	0.5198
1366	0.2714
1357	0.7152
1348	0.7741
1339	0.6891
1330	0.6729
1321	0.3439
1312	0.2288
1303	0.5829
1294	0.7734
1285	0.6787
1276	0.6897
1267	0.3209
1258	0.437
1249	0.1417
1240	0.0625
1231	0.2966
1222	0.547
1213	0.7282
1204	0.7982
1195	0.7876
1186	0.8147
1177	0.8041
1168	0.2909
1159	0.6841
1150	0.4985
1141	0.4245
1132	0.168
1123	0.0821
1114	0.289
1105	0.4731
1096	0.6322
1087	0.7524
1078	0.6991
1069	0.6499
1060	0.7648
1051	0.7778
1042	0.5637
1033	0.2393
1024	0.6077
1015	0.7627
1006	0.8173
997	0.7868
988	0.8066
979	0.8453
970	0.8329
961	0.822
952	0.8377
943	0.8629
934	0.8769
925	0.8814
916	0.8745
907	0.8734
898	0.8711
889	0.8494
880	0.5163
871	0.6779
862	0.8375
853	0.8404
844	0.8412
835	0.8573
826	0.8489
817	0.7887
808	0.7608
799	0.827
790	0.8438
781	0.8397
772	0.8171
763	0.7508
754	0.4475
745	0.0076
736	0.5469
727	0.7785
718	0.8149
709	0.8049
700	0.6556
691	0.0595
682	0.6279
673	0.7725
664	0.8201
655	0.7843
646	0.8141
637	0.7721
628	0.4887
619	0.7981
610	0.8538
601	0.8642
592	0.8571
583	0.8499
574	0.8392
565	0.8262
556	0.8075
547	0.7911
538	0.7846
529	0.772
520	0.7224
511	0.4492
502	0.5323
493	0.7142
484	0.7562
475	0.762
466	0.7592
457	0.7426
