Infrared Spectrum: 2-PROPENOIC ACID, 2-ETHYLHEXYL ESTER
Formula: C11 H20 O2
CAS: 103-11-7
State: SOLUTION (5% IN CCl4 FOR 3800-1300, 5% IN CS2 FOR 1300-650, AND 5% IN CCl4 FOR 650-240 CM^-^1) VERSUS SOLVENT
Class: COBLENTZ III
Instrument: PERKIN-ELMER 521 (GRATING)
Instrument parameters: FILTERS AT 3150, 2500, 2000, 1150, 700, 410; GRATING CHANGES AT 2000, 630 CM^-^1
Sampling: TRANSMISSION
Path length: 0.010, 0.010, AND 0.020 CM (CsBr CELL)
Resolution: 4
Origin: DOW CORNING CORP.
1/CM	TRANSMITTANCE
228.617	1.019
237.57	1.003
246.523	0.947
255.476	0.921
264.428	0.904
273.381	0.892
282.334	0.868
291.287	0.855
300.24	0.869
309.193	0.855
318.145	0.847
327.098	0.854
336.051	0.854
345.004	0.852
353.957	0.848
362.91	0.84
371.863	0.835
380.815	0.848
389.768	0.868
398.721	0.864
407.674	0.861
416.627	0.859
425.58	0.855
434.533	0.855
443.485	0.857
452.438	0.847
461.391	0.842
470.344	0.842
479.297	0.838
488.25	0.836
497.202	0.84
506.155	0.847
515.108	0.848
524.061	0.85
533.014	0.854
541.967	0.854
550.92	0.859
559.872	0.866
568.825	0.871
577.778	0.873
586.731	0.875
595.684	0.875
604.637	0.875
613.59	0.873
622.542	0.878
631.495	0.881
640.448	0.883
649.401	0.878
658.354	0.869
667.307	0.838
676.259	0.873
685.212	0.892
694.165	0.899
703.118	0.902
712.071	0.895
721.024	0.875
729.977	0.848
738.929	0.88
747.882	0.892
756.835	0.885
765.788	0.845
774.741	0.84
783.694	0.847
792.647	0.848
801.599	0.7502
810.552	0.4538
819.505	0.798
828.458	0.847
837.411	0.864
846.364	0.868
855.316	0.868
864.269	0.876
873.222	0.871
882.175	0.861
891.128	0.838
900.081	0.829
909.034	0.831
917.986	0.842
926.939	0.85
935.892	0.814
944.845	0.805
953.798	0.7111
962.751	0.3781
971.703	0.623
980.656	0.4093
989.609	0.5269
998.562	0.699
1007.51	0.718
1016.47	0.786
1025.42	0.772
1034.37	0.755
1043.33	0.6901
1052.28	0.416
1061.23	0.427
1070.18	0.6989
1079.14	0.795
1088.09	0.836
1097.04	0.859
1106	0.847
1114.95	0.824
1123.9	0.815
1132.85	0.814
1141.81	0.753
1150.76	0.72
1159.71	0.661
1168.67	0.5431
1177.62	0.26
1186.57	0.026
1195.52	0.064
1204.48	0.375
1213.43	0.625
1222.38	0.7359
1231.34	0.734
1240.29	0.694
1249.24	0.5363
1258.19	0.434
1267.15	0.256
1276.1	0.263
1285.05	0.482
1294.01	0.284
1302.96	0.5431
1311.91	0.7339
1320.86	0.807
1329.82	0.836
1338.77	0.835
1347.72	0.843
1356.68	0.842
1365.63	0.838
1374.58	0.776
1383.53	0.649
1392.49	0.758
1401.44	0.5194
1410.39	0.131
1419.35	0.729
1428.3	0.809
1437.25	0.795
1446.2	0.708
1455.16	0.5881
1464.11	0.421
1473.06	0.592
1482.02	0.7961
1490.97	0.854
1499.92	0.876
1508.87	0.892
1517.83	0.899
1526.78	0.906
1535.73	0.921
1544.69	0.927
1553.64	0.923
1562.59	0.918
1571.54	0.911
1580.5	0.906
1589.45	0.899
1598.4	0.881
1607.36	0.854
1616.31	0.777
1625.26	0.703
1634.21	0.715
1643.17	0.7169
1652.12	0.848
1661.07	0.861
1670.03	0.857
1678.98	0.842
1687.93	0.777
1696.88	0.767
1705.84	0.71
1714.79	0.5009
1723.74	0.0604
1732.7	0.031
1741.65	0.2741
1750.6	0.6521
1759.55	0.786
1768.51	0.831
1777.46	0.847
1786.41	0.855
1795.37	0.875
1804.32	0.885
1813.27	0.89
1822.22	0.892
1831.18	0.895
1840.13	0.899
1849.08	0.899
1858.04	0.899
1866.99	0.902
1875.94	0.901
1884.89	0.899
1893.85	0.901
1902.8	0.899
1911.75	0.894
1920.71	0.89
1929.66	0.875
1938.61	0.881
1947.56	0.89
1956.52	0.894
1965.47	0.897
1974.42	0.901
1983.38	0.904
1992.33	0.909
2001.28	0.918
2010.23	0.906
2019.19	0.903
2028.14	0.901
2037.09	0.899
2046.05	0.901
2055	0.899
2063.95	0.901
2072.9	0.9
2081.86	0.901
2090.81	0.899
2099.76	0.897
2108.72	0.899
2117.67	0.8991
2126.62	0.902
2135.57	0.902
2144.53	0.9015
2153.48	0.901
2162.43	0.901
2171.39	0.902
2180.34	0.902
2189.29	0.902
2198.24	0.902
2207.2	0.904
2216.15	0.904
2225.1	0.9019
2234.06	0.901
2243.01	0.8991
2251.96	0.901
2260.91	0.901
2269.87	0.902
2278.82	0.902
2287.77	0.9032
2296.73	0.902
2305.68	0.901
2314.63	0.9011
2323.58	0.906
2332.54	0.906
2341.49	0.9014
2350.44	0.895
2359.4	0.8962
2368.35	0.895
2377.3	0.8908
2386.25	0.89
2395.21	0.892
2404.16	0.8922
2413.11	0.895
2422.07	0.895
2431.02	0.895
2439.97	0.894
2448.92	0.894
2457.88	0.8973
2466.83	0.8951
2475.78	0.8923
2484.74	0.894
2493.69	0.892
2502.64	0.89
2511.59	0.89
2520.55	0.8913
2529.5	0.89
2538.45	0.89
2547.4	0.887
2556.36	0.887
2565.31	0.8866
2574.26	0.883
2583.22	0.88
2592.17	0.8786
2601.12	0.8776
2610.07	0.8774
2619.03	0.8784
2627.98	0.8824
2636.93	0.883
2645.89	0.8789
2654.84	0.875
2663.79	0.875
2672.74	0.873
2681.7	0.875
2690.65	0.8726
2699.6	0.871
2708.56	0.873
2717.51	0.8695
2726.46	0.8676
2735.41	0.866
2744.37	0.869
2753.32	0.871
2762.27	0.873
2771.23	0.8688
2780.18	0.864
2789.13	0.8595
2798.08	0.8535
2807.04	0.8433
2815.99	0.8325
2824.94	0.812
2833.9	0.7737
2842.85	0.7318
2851.8	0.5834
2860.75	0.3289
2869.71	0.3701
2878.66	0.3191
2887.61	0.491
2896.57	0.4621
2905.52	0.3959
2914.47	0.3217
2923.42	0.2235
2932.38	0.1487
2941.33	0.1474
2950.28	0.2458
2959.24	0.1843
2968.19	0.1
2977.14	0.2749
2986.09	0.5633
2995.05	0.6831
3004	0.7742
3012.95	0.8106
3021.91	0.8218
3030.86	0.831
3039.81	0.8142
3048.76	0.84
3057.72	0.854
3066.67	0.8577
3075.62	0.8618
3084.58	0.871
3093.53	0.8693
3102.48	0.8563
3111.43	0.8601
3120.39	0.8787
3129.34	0.883
3138.29	0.881
3147.25	0.881
3156.2	0.88
3165.15	0.88
3174.1	0.8857
3183.06	0.887
3192.01	0.888
3200.96	0.89
3209.92	0.8908
3218.87	0.895
3227.82	0.8958
3236.77	0.897
3245.73	0.8978
3254.68	0.9008
3263.63	0.901
3272.59	0.901
3281.54	0.901
3290.49	0.901
3299.44	0.901
3308.4	0.901
3317.35	0.902
3326.3	0.8992
3335.26	0.899
3344.21	0.899
3353.16	0.9014
3362.11	0.901
3371.07	0.9014
3380.02	0.902
3388.97	0.904
3397.93	0.902
3406.88	0.902
3415.83	0.8991
3424.78	0.8928
3433.74	0.883
3442.69	0.8859
3451.64	0.8949
3460.6	0.9015
3469.55	0.906
3478.5	0.907
3487.45	0.909
3496.41	0.9099
3505.36	0.909
3514.31	0.907
3523.27	0.9089
3532.22	0.909
3541.17	0.907
3550.12	0.907
3559.08	0.911
3568.03	0.913
3576.98	0.914
3585.94	0.915
3594.89	0.911
3603.84	0.91
3612.79	0.909
3621.75	0.912
3630.7	0.911
3639.65	0.91
3648.61	0.913
3657.56	0.91
3666.51	0.916
3675.46	0.914
3684.42	0.914
3693.37	0.914
3702.32	0.914
3711.28	0.914
3720.23	0.916
3729.18	0.9191
3738.13	0.923
3747.09	0.9205
3756.04	0.914
3764.99	0.913
3773.95	0.913
3782.9	0.9151
3791.85	0.9201
