Infrared Spectrum: MORPHOLINE DISULFIDE
Formula: C8 H16 N2 O2 S2
CAS: 103-34-4
State: SOLUTION (10% CCl4 FOR 5000-1330, 10% CS2 FOR 1330-625 CM^-^1)
Class: COBLENTZ
Instrument: Not specified, most likely a prism, grating, or hybrid spectrometer.
Sampling: TRANSMISSION
Path length: 0.0124 CM, 0.0105 CM
Resolution: 4
Origin: DOW CHEMICAL COMPANY
MICROMETERS	TRANSMITTANCE
2.069	0.901
2.11013	0.901
2.15127	0.904
2.1924	0.904
2.23354	0.899
2.27467	0.887
2.31581	0.889
2.35694	0.889
2.39807	0.886
2.43921	0.88
2.48034	0.879
2.52148	0.882
2.56261	0.887
2.60375	0.887
2.64488	0.889
2.68601	0.892
2.72715	0.892
2.76828	0.894
2.80942	0.896
2.85055	0.899
2.89169	0.903
2.93282	0.908
2.97395	0.913
3.01509	0.913
3.05622	0.911
3.09736	0.904
3.13849	0.904
3.17963	0.899
3.22076	0.896
3.26189	0.891
3.30303	0.877
3.34416	0.705
3.3853	0.244
3.42643	0.42
3.46756	0.304
3.5087	0.188
3.54983	0.659
3.59097	0.795
3.6321	0.78
3.67324	0.787
3.71437	0.792
3.7555	0.833
3.79664	0.869
3.83777	0.879
3.87891	0.882
3.92004	0.88
3.96118	0.894
4.00231	0.892
4.04344	0.88
4.08458	0.887
4.12571	0.884
4.16685	0.886
4.20798	0.887
4.24912	0.884
4.29025	0.88
4.33138	0.875
4.37252	0.87
4.41365	0.88
4.45479	0.88
4.49592	0.879
4.53706	0.879
4.57819	0.887
4.61932	0.889
4.66046	0.884
4.70159	0.884
4.74273	0.882
4.78386	0.879
4.825	0.875
4.86613	0.88
4.90726	0.875
4.9484	0.88
4.98953	0.88
5.03067	0.879
5.0718	0.863
5.11294	0.823
5.15407	0.86
5.1952	0.88
5.23634	0.872
5.27747	0.877
5.31861	0.88
5.35974	0.879
5.40088	0.877
5.44201	0.88
5.48314	0.882
5.52428	0.88
5.56541	0.879
5.60655	0.877
5.64768	0.877
5.68881	0.87
5.72995	0.869
5.77108	0.869
5.81222	0.88
5.85335	0.88
5.89449	0.879
5.93562	0.872
5.97675	0.88
6.01789	0.884
6.05902	0.884
6.10016	0.882
6.14129	0.855
6.18243	0.845
6.22356	0.848
6.26469	0.852
6.30583	0.846
6.34696	0.836
6.3881	0.826
6.42923	0.816
6.47037	0.795
6.5115	0.79
6.55263	0.795
6.59377	0.799
6.6349	0.809
6.67604	0.831
6.71717	0.838
6.75831	0.836
6.79944	0.772
6.84057	0.564
6.88171	0.185
6.92284	0.323
6.96398	0.7
7.00511	0.775
7.04625	0.831
7.08738	0.852
7.12851	0.846
7.16965	0.761
7.21078	0.591
7.25192	0.663
7.29305	0.717
7.33419	0.579
7.37532	0.438
7.41645	0.726
7.45759	0.818
7.49872	0.818
7.53986	0.775
7.58099	0.778
7.62213	0.806
7.66326	0.702
7.70439	0.647
7.74553	0.579
7.78666	0.297
7.8278	0.404
7.86893	0.67
7.91006	0.494
7.9512	0.192
7.99233	0.268
8.03347	0.712
8.0746	0.78
8.11574	0.818
8.15687	0.828
8.198	0.848
8.23914	0.84
8.28027	0.734
8.32141	0.658
8.36254	0.773
8.40368	0.843
8.44481	0.845
8.48594	0.838
8.52708	0.828
8.56821	0.824
8.60935	0.816
8.65048	0.799
8.69162	0.787
8.73275	0.768
8.77388	0.727
8.81502	0.617
8.85615	0.46
8.89729	0.244
8.93842	0.076
8.97956	0.018
9.02069	0.044
9.06182	0.185
9.10296	0.506
9.14409	0.646
9.18523	0.731
9.22636	0.755
9.2675	0.729
9.30863	0.603
9.34976	0.508
9.3909	0.549
9.43203	0.476
9.47317	0.248
9.5143	0.528
9.55544	0.734
9.59657	0.818
9.6377	0.833
9.67884	0.838
9.71997	0.835
9.76111	0.826
9.80224	0.818
9.84338	0.818
9.88451	0.828
9.92564	0.833
9.96678	0.845
10.0079	0.84
10.049	0.826
10.0902	0.806
10.1313	0.777
10.1724	0.768
10.2136	0.761
10.2547	0.76
10.2959	0.75
10.337	0.746
10.3781	0.736
10.4193	0.709
10.4604	0.653
10.5015	0.578
10.5427	0.403
10.5838	0.234
10.6249	0.059
10.6661	0.04
10.7072	0.047
10.7483	0.028
10.7895	0.022
10.8306	0.112
10.8717	0.318
10.9129	0.476
10.954	0.489
10.9951	0.392
11.0363	0.397
11.0774	0.61
11.1185	0.712
11.1597	0.767
11.2008	0.797
11.2419	0.819
11.2831	0.818
11.3242	0.821
11.3653	0.811
11.4065	0.807
11.4476	0.835
11.4887	0.853
11.5299	0.858
11.571	0.86
11.6121	0.85
11.6533	0.829
11.6944	0.78
11.7356	0.697
11.7767	0.447
11.8178	0.265
11.859	0.467
11.9001	0.773
11.9412	0.846
11.9824	0.879
12.0235	0.896
12.0646	0.906
12.1058	0.913
12.1469	0.918
12.188	0.923
12.2292	0.926
12.2703	0.93
12.3114	0.931
12.3526	0.933
12.3937	0.933
12.4348	0.933
12.476	0.933
12.5171	0.933
12.5582	0.937
12.5994	0.937
12.6405	0.937
12.6816	0.937
12.7228	0.937
12.7639	0.937
12.805	0.935
12.8462	0.935
12.8873	0.933
12.9284	0.933
12.9696	0.93
13.0107	0.928
13.0518	0.923
13.093	0.923
13.1341	0.921
13.1753	0.92
13.2164	0.914
13.2575	0.913
13.2987	0.908
13.3398	0.906
13.3809	0.901
13.4221	0.894
13.4632	0.886
13.5043	0.882
13.5455	0.879
13.5866	0.877
13.6277	0.875
13.6689	0.88
13.71	0.88
13.7511	0.88
13.7923	0.88
13.8334	0.88
13.8745	0.877
13.9157	0.874
13.9568	0.872
13.9979	0.87
14.0391	0.867
14.0802	0.867
14.1213	0.858
14.1625	0.845
14.2036	0.829
14.2447	0.809
14.2859	0.773
14.327	0.727
14.3681	0.683
14.4093	0.624
14.4504	0.505
14.4915	0.418
14.5327	0.265
14.5738	0.164
14.6149	0.117
14.6561	0.154
14.6972	0.278
14.7384	0.437
14.7795	0.566
14.8206	0.656
14.8618	0.704
14.9029	0.739
14.944	0.756
14.9852	0.777
15.0263	0.794
15.0674	0.802
15.1086	0.809
15.1497	0.807
15.1908	0.806
15.232	0.809
15.2731	0.809
15.3142	0.806
15.3554	0.806
15.3965	0.806
15.4376	0.801
15.4788	0.799
15.5199	0.802
15.561	0.802
15.6022	0.795
15.6433	0.79
15.6844	0.795
15.7256	0.792
15.7667	0.792
15.8078	0.79
15.849	0.784
