Infrared Spectrum: .alpha.-Methyl-p-isopropylhydrocinammic aldheyde
Formula: C 13 H 18 O
CAS: 103-95-7
State: gas
Origin: EPA-IR VAPOR PHASE LIBRARY
1/CM	ABSORBANCE
549.8	0.006826
559.445	0.007346
569.09	0.006696
578.734	0.005566
588.379	0.004306
598.024	0.003356
607.669	0.002456
617.313	0.002126
626.958	0.002096
636.603	0.001936
646.248	0.001906
655.893	0.001696
665.537	0.001376
675.182	0.001122
684.827	0.001226
694.472	0.001586
704.116	0.001706
713.761	0.001426
723.406	0.0011022
733.051	0.001276
742.695	0.001366
752.34	0.001306
761.985	0.001456
771.63	0.002536
781.275	0.004206
790.919	0.007036
800.564	0.009126
810.209	0.009966
819.854	0.012316
829.498	0.015586
839.143	0.016386
848.788	0.011936
858.433	0.007386
868.078	0.005626
877.722	0.005636
887.367	0.005846
897.012	0.005856
906.657	0.007656
916.301	0.011546
925.946	0.012356
935.591	0.008176
945.236	0.005136
954.88	0.003516
964.525	0.002566
974.17	0.001926
983.815	0.001646
993.46	0.001556
1003.1	0.001846
1012.75	0.005496
1022.39	0.007796
1032.04	0.002586
1041.68	0.004246
1051.33	0.008096
1060.97	0.008646
1070.62	0.006686
1080.26	0.004906
1089.91	0.005096
1099.55	0.005926
1109.2	0.007636
1118.84	0.007066
1128.49	0.005596
1138.13	0.004716
1147.78	0.003396
1157.42	0.002286
1167.07	0.001756
1176.71	0.001906
1186.36	0.002406
1196	0.002816
1205.64	0.002736
1215.29	0.002026
1224.93	0.002006
1234.58	0.002356
1244.22	0.002186
1253.87	0.002546
1263.51	0.002966
1273.16	0.003566
1282.8	0.004126
1292.45	0.004186
1302.09	0.005556
1311.74	0.005916
1321.38	0.005886
1331.03	0.006646
1340.67	0.007256
1350.32	0.006886
1359.96	0.007226
1369.61	0.010066
1379.25	0.011846
1388.9	0.011526
1398.54	0.009066
1408.18	0.007716
1417.83	0.008206
1427.47	0.007786
1437.12	0.008096
1446.76	0.011236
1456.41	0.015456
1466.05	0.016236
1475.7	0.011606
1485.34	0.007446
1494.99	0.007876
1504.63	0.014916
1514.28	0.022146
1523.92	0.009866
1533.57	0.003426
1543.21	0.001926
1552.86	0.001386
1562.5	0.001206
1572.15	0.001196
1581.79	0.0011363
1591.44	0.0011675
1601.08	0.001356
1610.73	0.001566
1620.37	0.001816
1630.01	0.002056
1639.66	0.002266
1649.3	0.002676
1658.95	0.003436
1668.59	0.004096
1678.24	0.004876
1687.88	0.006316
1697.53	0.009226
1707.17	0.013236
1716.82	0.020026
1726.46	0.036826
1736.11	0.074646
1745.75	0.080466
1755.4	0.042266
1765.04	0.021826
1774.69	0.013736
1784.33	0.009586
1793.98	0.006076
1803.62	0.004146
1813.27	0.003106
1822.91	0.002406
1832.55	0.001946
1842.2	0.001596
1851.84	0.001386
1861.49	0.001206
1871.13	0.001276
1880.78	0.001656
1890.42	0.002396
1900.07	0.002476
1909.71	0.001606
1919.36	0.0009614
1929	0.0006864
1938.65	0.0005792
1948.29	0.0005234
1957.94	0.0005175
1967.58	0.0005259
1977.23	0.0004966
1986.87	0.0004524
1996.52	0.0004751
2006.16	0.0004553
2015.81	0.0004471
2025.45	0.0004155
2035.1	0.0004206
2044.74	0.000369
2054.38	0.0003229
2064.03	0.0003575
2073.67	0.0003488
2083.32	0.0003592
2092.96	0.000339
2102.61	0.0003397
2112.25	0.0003544
2121.9	0.00027378
2131.54	0.00025193
2141.19	0.0003146
2150.83	0.0003278
2160.48	0.0003031
2170.12	0.0003074
2179.77	0.00028524
2189.41	0.0002999
2199.06	0.0003336
2208.7	0.0003323
2218.35	0.0003138
2227.99	0.0003233
2237.64	0.00039
2247.28	0.0003968
2256.92	0.0004925
2266.57	0.0005315
2276.21	0.0004308
2285.86	0.0004122
2295.5	0.0004771
2305.15	0.0004251
2314.79	0.0004857
2324.44	0.0005287
2334.08	0.0004857
2343.73	0.0004069
2353.37	0.000382
2363.02	0.0004656
2372.66	0.0004714
2382.31	0.0005513
2391.95	0.0004571
2401.6	0.0004827
2411.24	0.0004863
2420.89	0.0004213
2430.53	0.00041
2440.18	0.0004338
2449.82	0.0004228
2459.47	0.0004769
2469.11	0.0005572
2478.75	0.0004862
2488.4	0.0004372
2498.04	0.0004709
2507.69	0.0005425
2517.33	0.0005438
2526.98	0.000596
2536.62	0.0005701
2546.27	0.0006281
2555.91	0.0007752
2565.56	0.000996
2575.2	0.0011868
2584.85	0.001516
2594.49	0.001846
2604.14	0.002046
2613.78	0.002226
2623.43	0.002716
2633.07	0.003366
2642.72	0.004026
2652.36	0.004996
2662.01	0.006356
2671.65	0.008686
2681.29	0.012646
2690.94	0.018116
2700.58	0.022476
2710.23	0.020826
2719.87	0.015936
2729.52	0.012966
2739.16	0.010866
2748.81	0.009616
2758.45	0.009276
2768.1	0.009636
2777.74	0.010176
2787.39	0.011796
2797.03	0.015756
2806.68	0.016616
2816.32	0.013196
2825.97	0.010876
2835.61	0.009996
2845.26	0.011416
2854.9	0.015616
2864.55	0.021116
2874.19	0.028976
2883.84	0.035356
2893.48	0.032296
2903.12	0.032346
2912.77	0.035526
2922.41	0.040576
2932.06	0.047386
2941.7	0.051196
2951.35	0.044886
2960.99	0.071816
2970.64	0.110636
2980.28	0.063666
2989.93	0.033986
2999.57	0.019156
3009.22	0.016996
3018.86	0.021976
3028.51	0.023016
3038.15	0.013536
3047.8	0.011926
3057.44	0.011476
3067.09	0.009396
3076.73	0.007666
3086.38	0.007216
3096.02	0.006066
3105.67	0.004276
3115.31	0.003366
3124.95	0.003056
3134.6	0.002676
3144.24	0.001966
3153.89	0.001676
3163.53	0.001566
3173.18	0.001416
3182.82	0.001326
3192.47	0.001296
3202.11	0.0011943
3211.76	0.0010409
3221.4	0.0007252
3231.05	0.0005853
3240.69	0.0004215
3250.34	0.0003247
3259.98	0.00022588
3269.63	0.0003964
3279.27	0.0003211
3288.92	0.00028662
3298.56	0.00024586
3308.21	0.00023298
3317.85	0.00022008
3327.49	0.000199186
3337.14	0.0002336
3346.78	0.00021894
3356.43	0.00021235
3366.07	0.00027027
3375.72	0.00023883
3385.36	0.0003618
3395.01	0.000377
3404.65	0.0004573
3414.3	0.0005464
3423.94	0.0006081
3433.59	0.0007649
3443.23	0.0011003
3452.88	0.001456
3462.52	0.001646
3472.17	0.001426
3481.81	0.0010698
3491.46	0.0007724
3501.1	0.0005099
3510.75	0.0003257
3520.39	0.0003311
3530.04	0.00025057
3539.68	0.00021996
3549.32	0.0001676
3558.97	0.0001375
3568.61	0.00021797
3578.26	0.0001068
3587.9	0.0001841
3597.55	0.0001669
3607.19	7e-05
3616.84	0.0001198
3626.48	0.0001605
3636.13	0.0001819
3645.77	0.0001031
3655.42	0.00026603
3665.06	0.00028878
3674.71	0.000166
3684.35	0.00025878
3694	0.00025572
3703.64	0.0001195
3713.29	0.00022555
3722.93	0.00021348
3732.58	0.00021032
3742.22	7.3e-05
3751.86	0.00029153
3761.51	0.00023112
3771.15	0.0003146
3780.8	0.0003539
3790.44	0.000357
3800.09	0.00028826
3809.73	0.0003414
3819.38	0.0003049
3829.02	0.0005416
3838.67	0.0003309
3848.31	0.0003467
3857.96	0.0003064
3867.6	0.00023809
3877.25	0.0003281
3886.89	0.0003014
3896.54	0.00022628
3906.18	0.00027463
3915.83	0.00029394
3925.47	0.0003386
3935.12	0.0001284
3944.76	0.00027327
3954.41	0.00029119
3964.05	0.0004183
3973.69	0.00022931
3983.34	0.0004514
3992.98	0.0005956
