Infrared Spectrum: Phenethyl acetate
Formula: C 10 H 12 O 2
CAS: 103-45-7
State: gas
Instrument: HP-GC/MS/IRD
Origin: NIST Mass Spectrometry Data Center
1/CM	ABSORBANCE
550	0.001534
562	0.00065
574	0.001118
586	0.000884
598	0.00221
610	0.002912
622	0.002236
634	0.003146
646	0.003016
658	0.00195
670	0.003796
682	0.012402
694	0.026468
706	0.022048
718	0.013962
730	0.014508
742	0.02054
754	0.012974
766	0.004992
778	0.002132
790	0.001248
802	0.00182
814	0.002886
826	0.002548
838	0.001352
850	0.001456
862	0.001846
874	0.00221
886	0.003146
898	0.003692
910	0.00325
922	0.002938
934	0.002548
946	0.001404
958	0.002158
970	0.005122
982	0.006396
994	0.00793
1006	0.016484
1018	0.03523
1030	0.056836
1042	0.056316
1054	0.04888
1066	0.037414
1078	0.027924
1090	0.020488
1102	0.013416
1114	0.00819
1126	0.004732
1138	0.003614
1150	0.003718
1162	0.00533
1174	0.010218
1186	0.021424
1198	0.043966
1210	0.093288
1222	0.202228
1234	0.257634
1246	0.134056
1258	0.05668
1270	0.036894
1282	0.022646
1294	0.014716
1306	0.010946
1318	0.008034
1330	0.006682
1342	0.007956
1354	0.016978
1366	0.040144
1378	0.033566
1390	0.026832
1402	0.013858
1414	0.00767
1426	0.007852
1438	0.010686
1450	0.01391
1462	0.013702
1474	0.010504
1486	0.009984
1498	0.015496
1510	0.006604
1522	0.003458
1534	0.002834
1546	0.002366
1558	0.002158
1570	0.00247
1582	0.003354
1594	0.00533
1606	0.00663
1618	0.003276
1630	0.002158
1642	0.00221
1654	0.002496
1666	0.002678
1678	0.003172
1690	0.00416
1702	0.006578
1714	0.011336
1726	0.02002
1738	0.04108
1750	0.096252
1762	0.15522
1774	0.090402
1786	0.036452
1798	0.017836
1810	0.01053
1822	0.006344
1834	0.004134
1846	0.00338
1858	0.003172
1870	0.002938
1882	0.00234
1894	0.00143
1906	0.001066
1918	0.001222
1930	0.001794
1942	0.002184
1954	0.002002
1966	0.000858
1978	0.00052
1990	0.000598
2002	0.00078
2014	0.000988
2026	0.001092
2038	0.001274
2050	0.001248
2062	0.001118
2074	0.001014
2086	0.000962
2098	0.000728
2110	0.000572
2122	0.000468
2134	0.00039
2146	0.000312
2158	0.000208
2170	0.000182
2182	0.000182
2194	0.000234
2206	0.000286
2218	0.000234
2230	0.000156
2242	0.000234
2254	0.000208
2266	0.000234
2278	0.00026
2290	0.00026
2302	0.000312
2314	0.000468
2326	0.000338
2338	0.000442
2350	0.00039
2362	0.00026
2374	0.000208
2386	0.000182
2398	0.000208
2410	0.000312
2422	0.000416
2434	0.000442
2446	0.000494
2458	0.000546
2470	0.000442
2482	0.000364
2494	0.000234
2506	0.000208
2518	0.000156
2530	0.000156
2542	0.000208
2554	0.000156
2566	0.000182
2578	0.000312
2590	0.000416
2602	0.00039
2614	0.000364
2626	0.000338
2638	0.000338
2650	0.00039
2662	0.00039
2674	0.000416
2686	0.00039
2698	0.00039
2710	0.00039
2722	0.00052
2734	0.000676
2746	0.000754
2758	0.000676
2770	0.000676
2782	0.000832
2794	0.00078
2806	0.000884
2818	0.001118
2830	0.00169
2842	0.00273
2854	0.003926
2866	0.00468
2878	0.005226
2890	0.006448
2902	0.009074
2914	0.012064
2926	0.014768
2938	0.017108
2950	0.021684
2962	0.025194
2974	0.022542
2986	0.015964
2998	0.011154
3010	0.010582
3022	0.016926
3034	0.026962
3046	0.019968
3058	0.01625
3070	0.024778
3082	0.018694
3094	0.012376
3106	0.00793
3118	0.004368
3130	0.00195
3142	0.001144
3154	0.000884
3166	0.000676
3178	0.00052
3190	0.000364
3202	0.000286
3214	0.000338
3226	0.000286
3238	0.00026
3250	0.000208
3262	0.000234
3274	0.000286
3286	0.00026
3298	0.000286
3310	0.000234
3322	0.000208
3334	0.000208
3346	0.000182
3358	0.000182
3370	0.000234
3382	0.000182
3394	0.000234
3406	0.000234
3418	0.000338
3430	0.000286
3442	0.000338
3454	0.000442
3466	0.00052
3478	0.00078
3490	0.0013
3502	0.00195
3514	0.001716
3526	0.001092
3538	0.000676
3550	0.000494
3562	0.00039
3574	0.000364
3586	0.000364
3598	0.000312
3610	0.000286
3622	0.000312
3634	0.000416
3646	0.000442
3658	0.000416
3670	0.000364
3682	0.000286
3694	0.000364
3706	0.000286
3718	0.000364
3730	0.000338
3742	0.000312
3754	0.000312
3766	0.000364
3778	0.000338
3790	0.000364
3802	0.000364
3814	0.000364
3826	0.000416
3838	0.000416
