Infrared Spectrum: .beta.-Phenethyl butyrate
Formula: C 12 H 16 O 2
CAS: 103-52-6
State: gas
Origin: EPA-IR VAPOR PHASE LIBRARY
1/CM	ABSORBANCE
549.8	0.0017017
559.445	0.0042617
569.09	0.0075917
578.734	0.0051617
588.379	0.0041317
598.024	0.0038017
607.669	0.0038217
617.313	0.0032317
626.958	0.0028617
636.603	0.0031317
646.248	0.0034417
655.893	0.0040417
665.537	0.0063817
675.182	0.0132117
684.827	0.0274617
694.472	0.0497817
704.116	0.0422417
713.761	0.0294917
723.406	0.0264017
733.051	0.0311917
742.695	0.0396317
752.34	0.0268617
761.985	0.0152317
771.63	0.0099317
781.275	0.0076117
790.919	0.0078117
800.564	0.0084817
810.209	0.0078517
819.854	0.0069917
829.498	0.0062317
839.143	0.0051017
848.788	0.0049217
858.433	0.0053617
868.078	0.0060817
877.722	0.0066817
887.367	0.0079617
897.012	0.0086417
906.657	0.0086917
916.301	0.0087917
925.946	0.0091517
935.591	0.0077217
945.236	0.0061217
954.88	0.0061117
964.525	0.0078517
974.17	0.0122517
983.815	0.0243617
993.46	0.0445517
1003.1	0.0453517
1012.75	0.0332517
1022.39	0.0274717
1032.04	0.0347117
1041.68	0.0389417
1051.33	0.0477617
1060.97	0.0478517
1070.62	0.0502717
1080.26	0.0624317
1089.91	0.0768217
1099.55	0.0775817
1109.2	0.0615217
1118.84	0.0447517
1128.49	0.0413917
1138.13	0.0497217
1147.78	0.0744517
1157.42	0.132362
1167.07	0.229302
1176.71	0.242752
1186.36	0.171012
1196	0.130932
1205.64	0.101902
1215.29	0.0822617
1224.93	0.0772017
1234.58	0.0830717
1244.22	0.0934317
1253.87	0.0962817
1263.51	0.0771417
1273.16	0.0604317
1282.8	0.0516517
1292.45	0.0541917
1302.09	0.0515117
1311.74	0.0383217
1321.38	0.0290117
1331.03	0.0297517
1340.67	0.0400417
1350.32	0.0474817
1359.96	0.0399917
1369.61	0.0288817
1379.25	0.0277517
1388.9	0.0304417
1398.54	0.0222417
1408.18	0.0153517
1417.83	0.0156717
1427.47	0.0212617
1437.12	0.0270717
1446.76	0.0301317
1456.41	0.0349417
1466.05	0.0328317
1475.7	0.0236517
1485.34	0.0189717
1494.99	0.0287017
1504.63	0.0196817
1514.28	0.0073217
1523.92	0.0054917
1533.57	0.0047617
1543.21	0.0040817
1552.86	0.0037517
1562.5	0.0039517
1572.15	0.0046917
1581.79	0.0062117
1591.44	0.0087917
1601.08	0.0122817
1610.73	0.0094917
1620.37	0.0046617
1630.01	0.0038117
1639.66	0.0039917
1649.3	0.0042317
1658.95	0.0043917
1668.59	0.0046317
1678.24	0.0053517
1687.88	0.0070117
1697.53	0.0103617
1707.17	0.0167817
1716.82	0.0267117
1726.46	0.0453517
1736.11	0.0878817
1745.75	0.184672
1755.4	0.248882
1765.04	0.142692
1774.69	0.0626817
1784.33	0.0340017
1793.98	0.0217217
1803.62	0.0134417
1813.27	0.0084517
1822.91	0.0062417
1832.55	0.0051117
1842.2	0.0046917
1851.84	0.0046617
1861.49	0.0048417
1871.13	0.0048017
1880.78	0.0044817
1890.42	0.0033117
1900.07	0.0028017
1909.71	0.0027817
1919.36	0.0031617
1929	0.0041317
1938.65	0.0047817
1948.29	0.0048917
1957.94	0.0042417
1967.58	0.0026617
1977.23	0.0024617
1986.87	0.0025017
1996.52	0.0023917
2006.16	0.0023117
2015.81	0.0021317
2025.45	0.0019917
2035.1	0.0020017
2044.74	0.0020717
2054.38	0.0020917
2064.03	0.0020517
2073.67	0.0019117
2083.32	0.0017817
2092.96	0.0016517
2102.61	0.0015117
2112.25	0.0014117
2121.9	0.0012317
2131.54	0.0011017
2141.19	0.00101
2150.83	0.0009339
2160.48	0.000879
2170.12	0.0009508
2179.77	0.0009468
2189.41	0.000928
2199.06	0.0009927
2208.7	0.0009956
2218.35	0.0008836
2227.99	0.0008994
2237.64	0.0009473
2247.28	0.0009792
2256.92	0.0011317
2266.57	0.0011117
2276.21	0.0010917
2285.86	0.0011117
2295.5	0.0011017
2305.15	0.0012117
2314.79	0.0014117
2324.44	0.0013217
2334.08	0.0013117
2343.73	0.0012817
2353.37	0.0012117
2363.02	0.0010817
2372.66	0.0009105
2382.31	0.000866
2391.95	0.0008369
2401.6	0.0008001
2411.24	0.0008022
2420.89	0.000781
2430.53	0.000749
2440.18	0.0006468
2449.82	0.0006021
2459.47	0.0006085
2469.11	0.0005466
2478.75	0.0004689
2488.4	0.0005205
2498.04	0.0004398
2507.69	0.0004606
2517.33	0.0005337
2526.98	0.0004427
2536.62	0.0004626
2546.27	0.0004114
2555.91	0.0005719
2565.56	0.000589
2575.2	0.0006172
2584.85	0.0007706
2594.49	0.0006645
2604.14	0.0007772
2613.78	0.0007623
2623.43	0.0007434
2633.07	0.0008874
2642.72	0.000968
2652.36	0.000971
2662.01	0.0009905
2671.65	0.0011517
2681.29	0.0011017
2690.94	0.0010817
2700.58	0.0010417
2710.23	0.0010717
2719.87	0.0012217
2729.52	0.0015417
2739.16	0.0019117
2748.81	0.0022717
2758.45	0.0022617
2768.1	0.0023317
2777.74	0.0024717
2787.39	0.0027017
2797.03	0.0030117
2806.68	0.0034217
2816.32	0.0040317
2825.97	0.0051817
2835.61	0.0070317
2845.26	0.0097317
2854.9	0.0126817
2864.55	0.0163917
2874.19	0.0247717
2883.84	0.0368017
2893.48	0.0375817
2903.12	0.0365317
2912.77	0.0416617
2922.41	0.0513417
2932.06	0.0613217
2941.7	0.0788117
2951.35	0.0871817
2960.99	0.0961317
2970.64	0.106722
2980.28	0.0952317
2989.93	0.0614617
2999.57	0.0356317
3009.22	0.0258817
3018.86	0.0268317
3028.51	0.0398517
3038.15	0.0444717
3047.8	0.0271717
3057.44	0.0240517
3067.09	0.0379917
3076.73	0.0375917
3086.38	0.0237517
3096.02	0.0180217
3105.67	0.0123817
3115.31	0.0081917
3124.95	0.0042517
3134.6	0.0025917
3144.24	0.0021317
3153.89	0.0018517
3163.53	0.0016417
3173.18	0.0014017
3182.82	0.0011317
3192.47	0.0010043
3202.11	0.0007391
3211.76	0.0007157
3221.4	0.000589
3231.05	0.000525
3240.69	0.0003138
3250.34	0.0002448
3259.98	0.0003057
3269.63	0.0003112
3279.27	0.0002349
3288.92	0.0003163
3298.56	0.0001978
3308.21	0.0003329
3317.85	0.0003615
3327.49	0.00011099
3337.14	0.0001328
3346.78	9.535e-05
3356.43	0.0002028
3366.07	0.0003411
3375.72	0.0001579
3385.36	0.0002847
3395.01	0.0002457
3404.65	0.00010904
3414.3	0.0001917
3423.94	0.0002631
3433.59	0.000218
3443.23	0.0004259
3452.88	0.0005439
3462.52	0.0008194
3472.17	0.0016117
3481.81	0.0022517
3491.46	0.0025617
3501.1	0.0018517
3510.75	0.0011717
3520.39	0.0008453
3530.04	0.000576
3539.68	0.0005316
3549.32	0.0003743
3558.97	0.0002222
3568.61	0.0003036
3578.26	7.83e-05
3587.9	0.00012755
3597.55	0.0002511
3607.19	5.405e-05
3616.84	0.0002024
3626.48	0.000287
3636.13	0.0002569
3645.77	0.0005036
3655.42	0.0004912
3665.06	0.0006487
3674.71	0.0002613
3684.35	0.0004348
3694	0.000188
3703.64	0.0002502
3713.29	0.0003915
3722.93	0.000369
3732.58	0.0003171
3742.22	0.0004485
3751.86	0.0002892
3761.51	0.0003024
3771.15	0.0004249
3780.8	0.000322
3790.44	0.0004465
3800.09	0.0004299
3809.73	0.0005328
3819.38	0.0004879
3829.02	0.0006121
3838.67	0.0004754
3848.31	0.000318
3857.96	0.0005028
3867.6	0.0003387
3877.25	0.0003418
3886.89	0.0003451
3896.54	0.000479
3906.18	0.0003114
3915.83	0.0003789
3925.47	0.0004188
3935.12	0.0004497
3944.76	0.0005901
3954.41	0.00056
3964.05	0.000742
3973.69	0.0007176
3983.34	0.0007698
3992.98	0.0008529
