Infrared Spectrum: p-BENZYLAMINOPHENOL
Formula: C13 H13 N O
CAS: 103-14-0
State: SOLID (MINERAL OIL MULL)
Melting point: 87-89 C
Class: COBLENTZ
Instrument: Not specified, most likely a prism, grating, or hybrid spectrometer.
Sampling: TRANSMISSION
Resolution: 4
Origin: WYANDOTTE CHEMICALS CORP., WYANDOTTE, MICHIGAN, USA
MICROMETERS	TRANSMITTANCE
2.019	0.446
2.05618	0.458
2.09337	0.461
2.13055	0.479
2.16774	0.489
2.20492	0.491
2.2421	0.483
2.27929	0.477
2.31647	0.489
2.35366	0.503
2.39084	0.508
2.42802	0.514
2.46521	0.524
2.50239	0.539
2.53958	0.55
2.57676	0.569
2.61394	0.581
2.65113	0.586
2.68831	0.598
2.7255	0.601
2.76268	0.604
2.79986	0.608
2.83705	0.611
2.87423	0.612
2.91142	0.569
2.9486	0.485
2.98578	0.351
3.02297	0.213
3.06015	0.304
3.09734	0.418
3.13452	0.437
3.17171	0.426
3.20889	0.402
3.24607	0.367
3.28326	0.306
3.32044	0.228
3.35763	0.116
3.39481	0.035
3.43199	0.027
3.46918	0.029
3.50636	0.029
3.54355	0.062
3.58073	0.325
3.61791	0.401
3.6551	0.43
3.69228	0.41
3.72947	0.398
3.76665	0.398
3.80383	0.388
3.84102	0.391
3.8782	0.37
3.91539	0.367
3.95257	0.41
3.98975	0.441
4.02694	0.452
4.06412	0.469
4.10131	0.494
4.13849	0.505
4.17567	0.533
4.21286	0.567
4.25004	0.584
4.28723	0.6
4.32441	0.62
4.36159	0.65
4.39878	0.667
4.43596	0.673
4.47315	0.688
4.51033	0.704
4.54751	0.716
4.5847	0.73
4.62188	0.737
4.65907	0.743
4.69625	0.76
4.73343	0.771
4.77062	0.785
4.8078	0.794
4.84499	0.796
4.88217	0.799
4.91935	0.799
4.95654	0.8
4.99372	0.808
5.03091	0.811
5.06809	0.816
5.10527	0.814
5.14246	0.808
5.17964	0.771
5.21683	0.813
5.25401	0.818
5.2912	0.814
5.32838	0.797
5.36556	0.783
5.40275	0.771
5.43993	0.763
5.47712	0.796
5.5143	0.802
5.55148	0.805
5.58867	0.828
5.62585	0.836
5.66304	0.836
5.70022	0.824
5.7374	0.835
5.77459	0.855
5.81177	0.864
5.84896	0.87
5.88614	0.864
5.92332	0.87
5.96051	0.874
5.99769	0.883
6.03488	0.87
6.07206	0.874
6.10924	0.877
6.14643	0.864
6.18361	0.802
6.2208	0.643
6.25798	0.832
6.29516	0.884
6.33235	0.92
6.36953	0.911
6.40672	0.909
6.4439	0.884
6.48108	0.83
6.51827	0.597
6.55545	0.213
6.59264	0.057
6.62982	0.233
6.667	0.172
6.70419	0.101
6.74137	0.102
6.77856	0.09
6.81574	0.051
6.85292	0.071
6.89011	0.175
6.92729	0.306
6.96448	0.435
7.00166	0.373
7.03884	0.368
7.07603	0.573
7.11321	0.65
7.1504	0.597
7.18758	0.311
7.22476	0.169
7.26195	0.139
7.29913	0.314
7.33632	0.387
7.3735	0.44
7.41069	0.525
7.44787	0.589
7.48505	0.631
7.52224	0.67
7.55942	0.698
7.59661	0.734
7.63379	0.701
7.67097	0.586
7.70816	0.482
7.74534	0.555
7.78253	0.648
7.81971	0.659
7.85689	0.572
7.89408	0.412
7.93126	0.206
7.96845	0.122
8.00563	0.129
8.04281	0.153
8.08	0.189
8.11718	0.157
8.15437	0.149
8.19155	0.121
8.22873	0.205
8.26592	0.174
8.3031	0.231
8.34029	0.359
8.37747	0.466
8.41465	0.528
8.45184	0.561
8.48902	0.552
8.52621	0.502
8.56339	0.617
8.60057	0.656
8.63776	0.665
8.67494	0.698
8.71213	0.743
8.74931	0.771
8.78649	0.786
8.82368	0.766
8.86086	0.702
8.89805	0.701
8.93523	0.572
8.97241	0.39
9.0096	0.682
9.04678	0.771
9.08397	0.804
9.12115	0.813
9.15833	0.786
9.19552	0.646
9.2327	0.595
9.26989	0.642
9.30707	0.723
9.34425	0.772
9.38144	0.797
9.41862	0.813
9.45581	0.821
9.49299	0.827
9.53018	0.824
9.56736	0.813
9.60454	0.774
9.64173	0.702
9.67891	0.595
9.7161	0.517
9.75328	0.598
9.79046	0.696
9.82765	0.757
9.86483	0.785
9.90202	0.774
9.9392	0.772
9.97638	0.786
10.0136	0.811
10.0508	0.807
10.0879	0.78
10.1251	0.737
10.1623	0.721
10.1995	0.657
10.2367	0.623
10.2739	0.65
10.311	0.657
10.3482	0.723
10.3854	0.741
10.4226	0.749
10.4598	0.732
10.497	0.713
10.5341	0.698
10.5713	0.762
10.6085	0.783
10.6457	0.782
10.6829	0.76
10.7201	0.752
10.7572	0.729
10.7944	0.716
10.8316	0.723
10.8688	0.67
10.906	0.628
10.9432	0.547
10.9804	0.564
11.0175	0.643
11.0547	0.665
11.0919	0.671
11.1291	0.674
11.1663	0.676
11.2035	0.678
11.2406	0.69
11.2778	0.699
11.315	0.718
11.3522	0.741
11.3894	0.757
11.4266	0.76
11.4637	0.76
11.5009	0.755
11.5381	0.757
11.5753	0.76
11.6125	0.765
11.6497	0.766
11.6868	0.76
11.724	0.716
11.7612	0.637
11.7984	0.612
11.8356	0.639
11.8728	0.553
11.91	0.371
11.9471	0.199
11.9843	0.093
12.0215	0.062
12.0587	0.082
12.0959	0.105
12.1331	0.133
12.1702	0.2
12.2074	0.293
12.2446	0.407
12.2818	0.474
12.319	0.402
12.3562	0.317
12.3933	0.457
12.4305	0.567
12.4677	0.645
12.5049	0.723
12.5421	0.78
12.5793	0.811
12.6165	0.822
12.6536	0.824
12.6908	0.811
12.728	0.752
12.7652	0.646
12.8024	0.508
12.8396	0.479
12.8767	0.547
12.9139	0.618
12.9511	0.667
12.9883	0.695
13.0255	0.715
13.0627	0.724
13.0998	0.707
13.137	0.673
13.1742	0.597
13.2114	0.468
13.2486	0.362
13.2858	0.3
13.3229	0.275
13.3601	0.262
13.3973	0.287
13.4345	0.331
13.4717	0.356
13.5089	0.373
13.5461	0.373
13.5832	0.363
13.6204	0.354
13.6576	0.356
13.6948	0.36
13.732	0.387
13.7692	0.421
13.8063	0.469
13.8435	0.522
13.8807	0.562
13.9179	0.604
13.9551	0.659
13.9923	0.664
14.0294	0.581
14.0666	0.472
14.1038	0.401
14.141	0.356
14.1782	0.32
14.2154	0.27
14.2525	0.22
14.2897	0.178
14.3269	0.178
14.3641	0.244
14.4013	0.368
14.4385	0.488
14.4757	0.578
14.5128	0.625
14.55	0.654
14.5872	0.668
14.6244	0.676
14.6616	0.679
14.6988	0.679
14.7359	0.679
14.7731	0.664
14.8103	0.657
14.8475	0.653
14.8847	0.631
14.9219	0.618
14.959	0.614
14.9962	0.609
15.0334	0.581
15.0706	0.534
15.1078	0.503
15.145	0.508
15.1821	0.544
15.2193	0.562
15.2565	0.584
15.2937	0.589
15.3309	0.594
15.3681	0.598
15.4053	0.598
15.4424	0.604
15.4796	0.608
15.5168	0.606
15.554	0.604
15.5912	0.598
15.6284	0.59
15.6655	0.586
15.7027	0.583
15.7399	0.583
15.7771	0.583
15.8143	0.583
15.8515	0.581
15.8886	0.58
15.9258	0.58
15.963	0.576
