Infrared Spectrum: p-Tolyl sulfide
Formula: C 14 H 14 S 2
CAS: 103-19-5
State: gas
Origin: EPA-IR VAPOR PHASE LIBRARY
1/CM	ABSORBANCE
549.8	0.0011576
559.445	0.0011176
569.09	0.0007128
578.734	0.0007913
588.379	0.0008552
598.024	0.0009414
607.669	0.0012376
617.313	0.0020676
626.958	0.0023276
636.603	0.0017876
646.248	0.0011676
655.893	0.0007972
665.537	0.0007174
675.182	0.0008677
684.827	0.0013176
694.472	0.0021376
704.116	0.0030376
713.761	0.0021476
723.406	0.0014676
733.051	0.0012576
742.695	0.0012976
752.34	0.0016376
761.985	0.0032476
771.63	0.0073576
781.275	0.0173276
790.919	0.0368076
800.564	0.0731476
810.209	0.0671476
819.854	0.0274576
829.498	0.0114976
839.143	0.0050876
848.788	0.0026676
858.433	0.0019676
868.078	0.0017776
877.722	0.0018376
887.367	0.0014076
897.012	0.0013476
906.657	0.0011876
916.301	0.0013776
925.946	0.0014076
935.591	0.0018976
945.236	0.0016876
954.88	0.0015576
964.525	0.0019076
974.17	0.0021476
983.815	0.0021676
993.46	0.0025176
1003.1	0.0059876
1012.75	0.0270876
1022.39	0.0201576
1032.04	0.0053276
1041.68	0.0054876
1051.33	0.0056376
1060.97	0.0057876
1070.62	0.0070276
1080.26	0.0103676
1089.91	0.0085976
1099.55	0.0082876
1109.2	0.0091976
1118.84	0.0086176
1128.49	0.0046776
1138.13	0.0025476
1147.78	0.0018976
1157.42	0.0015876
1167.07	0.0022576
1176.71	0.0133876
1186.36	0.0123576
1196	0.0058976
1205.64	0.0104076
1215.29	0.0077176
1224.93	0.0070976
1234.58	0.0044776
1244.22	0.0027676
1253.87	0.0025576
1263.51	0.0024876
1273.16	0.0022476
1282.8	0.0024876
1292.45	0.0038276
1302.09	0.0054876
1311.74	0.0041476
1321.38	0.0031476
1331.03	0.0031076
1340.67	0.0031576
1350.32	0.0031276
1359.96	0.0033876
1369.61	0.0042376
1379.25	0.0068576
1388.9	0.0104376
1398.54	0.0137076
1408.18	0.0133376
1417.83	0.0118376
1427.47	0.0107476
1437.12	0.0092876
1446.76	0.0085976
1456.41	0.0098076
1466.05	0.0143276
1475.7	0.0286876
1485.34	0.0764376
1494.99	0.0755676
1504.63	0.0251476
1514.28	0.0120376
1523.92	0.0076076
1533.57	0.0059976
1543.21	0.0050976
1552.86	0.0049976
1562.5	0.0056776
1572.15	0.0062276
1581.79	0.0066776
1591.44	0.0083676
1601.08	0.0084676
1610.73	0.0073076
1620.37	0.0073776
1630.01	0.0073776
1639.66	0.0053676
1649.3	0.0031376
1658.95	0.0022376
1668.59	0.0017176
1678.24	0.0013776
1687.88	0.0012076
1697.53	0.0011876
1707.17	0.0010976
1716.82	0.0010576
1726.46	0.0013076
1736.11	0.0019176
1745.75	0.0021076
1755.4	0.0019976
1765.04	0.0025176
1774.69	0.0044376
1784.33	0.0041776
1793.98	0.0014576
1803.62	0.0009233
1813.27	0.0007327
1822.91	0.0007956
1832.55	0.0008985
1842.2	0.0011976
1851.84	0.0017576
1861.49	0.0021876
1871.13	0.0033676
1880.78	0.0049476
1890.42	0.0060576
1900.07	0.0048376
1909.71	0.0024976
1919.36	0.0013876
1929	0.0009281
1938.65	0.0007214
1948.29	0.0007084
1957.94	0.0007393
1967.58	0.0007256
1977.23	0.000783
1986.87	0.0007806
1996.52	0.0007938
2006.16	0.0007917
2015.81	0.0006151
2025.45	0.000481
2035.1	0.0003631
2044.74	0.0003389
2054.38	0.0003008
2064.03	0.0003493
2073.67	0.000396
2083.32	0.0004859
2092.96	0.0005599
2102.61	0.0005962
2112.25	0.0003813
2121.9	0.0003088
2131.54	0.0003209
2141.19	0.000319
2150.83	0.00037
2160.48	0.0005003
2170.12	0.000632
2179.77	0.0005938
2189.41	0.0005099
2199.06	0.000497
2208.7	0.0004543
2218.35	0.0004306
2227.99	0.0004602
2237.64	0.0004299
2247.28	0.0004808
2256.92	0.0004617
2266.57	0.0004292
2276.21	0.0005964
2285.86	0.0009228
2295.5	0.0012276
2305.15	0.0011176
2314.79	0.0008977
2324.44	0.0007224
2334.08	0.0005578
2343.73	0.0004994
2353.37	0.0005742
2363.02	0.0006845
2372.66	0.0007878
2382.31	0.0008994
2391.95	0.0009034
2401.6	0.0009455
2411.24	0.0009886
2420.89	0.0008427
2430.53	0.0007061
2440.18	0.000626
2449.82	0.0006384
2459.47	0.0006402
2469.11	0.0006297
2478.75	0.0006636
2488.4	0.0006892
2498.04	0.0006673
2507.69	0.0007472
2517.33	0.0006289
2526.98	0.0005593
2536.62	0.0005658
2546.27	0.0005484
2555.91	0.0007795
2565.56	0.0011076
2575.2	0.0013076
2584.85	0.0013976
2594.49	0.0011676
2604.14	0.0010376
2613.78	0.0009468
2623.43	0.0005634
2633.07	0.0005624
2642.72	0.0005527
2652.36	0.0005931
2662.01	0.0007355
2671.65	0.000992
2681.29	0.0009733
2690.94	0.0008727
2700.58	0.0007608
2710.23	0.0007073
2719.87	0.000893
2729.52	0.0013176
2739.16	0.0026476
2748.81	0.0024676
2758.45	0.0013276
2768.1	0.0011176
2777.74	0.0013076
2787.39	0.0016276
2797.03	0.0017776
2806.68	0.0018876
2816.32	0.0021276
2825.97	0.0027876
2835.61	0.0038076
2845.26	0.0056776
2854.9	0.0092876
2864.55	0.0159776
2874.19	0.0232676
2883.84	0.0244276
2893.48	0.0211876
2903.12	0.0192076
2912.77	0.0218176
2922.41	0.0329076
2932.06	0.0530876
2941.7	0.0414476
2951.35	0.0213776
2960.99	0.0164276
2970.64	0.0157976
2980.28	0.0163576
2989.93	0.0174576
2999.57	0.0199176
3009.22	0.0257776
3018.86	0.0409776
3028.51	0.0500476
3038.15	0.0359576
3047.8	0.0327876
3057.44	0.0336176
3067.09	0.0262476
3076.73	0.0244776
3086.38	0.0167976
3096.02	0.0103376
3105.67	0.0060676
3115.31	0.0032076
3124.95	0.0019376
3134.6	0.0013876
3144.24	0.0011476
3153.89	0.0008736
3163.53	0.0007822
3173.18	0.0005913
3182.82	0.0006885
3192.47	0.0005756
3202.11	0.0004464
3211.76	0.0004079
3221.4	0.000285
3231.05	0.0003002
3240.69	0.0004171
3250.34	0.0003494
3259.98	0.0003107
3269.63	0.0003542
3279.27	0.000285
3288.92	0.0002377
3298.56	0.0002981
3308.21	0.0002411
3317.85	0.0003175
3327.49	0.0003822
3337.14	0.0003637
3346.78	0.0003131
3356.43	0.0003186
3366.07	0.0002355
3375.72	0.0001926
3385.36	0.0001344
3395.01	0.0002672
3404.65	0.0002593
3414.3	0.000222
3423.94	4.645e-05
3433.59	0.0002577
3443.23	9.34e-05
3452.88	0.0001902
3462.52	0.0001758
3472.17	9.278e-05
3481.81	0.0001198
3491.46	0.0001195
3501.1	4.379e-05
3510.75	0
3520.39	8.207e-05
3530.04	8.28e-05
3539.68	0.0001501
3549.32	0.0001931
3558.97	7.729e-05
3568.61	0.0001836
3578.26	6.75e-05
3587.9	0.0002256
3597.55	0.0001525
3607.19	0.0001549
3616.84	6.191e-05
3626.48	0.0001426
3636.13	0.0001887
3645.77	0.0003496
3655.42	0.000619
3665.06	0.0005688
3674.71	0.0004809
3684.35	0.0003039
3694	0.0003279
3703.64	0.0003528
3713.29	0.0002637
3722.93	0.0002461
3732.58	0.0003269
3742.22	0.00024
3751.86	0.0001872
3761.51	0.0001498
3771.15	0.0001424
3780.8	0.000164
3790.44	0.0001497
3800.09	0.0001345
3809.73	0.0002465
3819.38	0.0002881
3829.02	0.0004121
3838.67	0.0004022
3848.31	0.0003261
3857.96	0.0005341
3867.6	0.0006854
3877.25	0.0006584
3886.89	0.0004872
3896.54	0.0005639
3906.18	0.0002396
3915.83	0.0003651
3925.47	0.0002784
3935.12	0.0004104
3944.76	0.0002781
3954.41	0.0003203
3964.05	0.00031
3973.69	0.0003692
3983.34	0.0006054
3992.98	0.0002969
