Infrared Spectrum: N,N'-DI-SEC-OCTYL P-PHENYLENE DIAMINE
Formula: C22 H40 N2
CAS: 103-96-8
State: LIQUID
Class: COBLENTZ
Instrument: Not specified, most likely a prism, grating, or hybrid spectrometer.
Sampling: TRANSMISSION
Path length: THIN FILM
Resolution: 4
Origin: PERKIN-ELMER CORP.
MICROMETERS	TRANSMITTANCE
2.013	0.757
2.04656	0.755
2.08012	0.755
2.11367	0.75
2.14723	0.75
2.18079	0.75
2.21435	0.75
2.24791	0.75
2.28147	0.743
2.31502	0.728
2.34858	0.723
2.38214	0.726
2.4157	0.726
2.44926	0.726
2.48282	0.726
2.51637	0.733
2.54993	0.736
2.58349	0.736
2.61705	0.74
2.65061	0.747
2.68417	0.747
2.71772	0.748
2.75128	0.75
2.78484	0.748
2.8184	0.752
2.85196	0.75
2.88552	0.733
2.91907	0.672
2.95263	0.607
2.98619	0.618
3.01975	0.677
3.05331	0.713
3.08687	0.723
3.12042	0.728
3.15398	0.731
3.18754	0.728
3.2211	0.713
3.25466	0.666
3.28822	0.595
3.32177	0.527
3.35533	0.418
3.38889	0.17
3.42245	0.089
3.45601	0.143
3.48957	0.165
3.52312	0.376
3.55668	0.534
3.59024	0.64
3.6238	0.682
3.65736	0.694
3.69092	0.699
3.72447	0.706
3.75803	0.711
3.79159	0.716
3.82515	0.718
3.85871	0.726
3.89227	0.73
3.92582	0.735
3.95938	0.747
3.99294	0.752
4.0265	0.757
4.06006	0.758
4.09362	0.763
4.12717	0.763
4.16073	0.763
4.19429	0.765
4.22785	0.765
4.26141	0.763
4.29497	0.763
4.32852	0.763
4.36208	0.767
4.39564	0.772
4.4292	0.77
4.46276	0.772
4.49632	0.774
4.52987	0.774
4.56343	0.774
4.59699	0.772
4.63055	0.772
4.66411	0.772
4.69767	0.772
4.73122	0.77
4.76478	0.768
4.79834	0.768
4.8319	0.768
4.86546	0.77
4.89902	0.77
4.93257	0.768
4.96613	0.774
4.99969	0.774
5.03325	0.77
5.06681	0.77
5.10037	0.772
5.13392	0.768
5.16748	0.768
5.20104	0.767
5.2346	0.767
5.26816	0.767
5.30172	0.763
5.33527	0.758
5.36883	0.758
5.40239	0.75
5.43595	0.741
5.46951	0.74
5.50306	0.752
5.53662	0.758
5.57018	0.763
5.60374	0.767
5.6373	0.767
5.67086	0.765
5.70441	0.765
5.73797	0.763
5.77153	0.752
5.80509	0.743
5.83865	0.741
5.87221	0.743
5.90576	0.745
5.93932	0.741
5.97288	0.741
6.00644	0.736
6.04	0.733
6.07356	0.731
6.10711	0.713
6.14067	0.666
6.17423	0.647
6.20779	0.674
6.24135	0.693
6.27491	0.694
6.30846	0.693
6.34202	0.698
6.37558	0.693
6.40914	0.676
6.4427	0.634
6.47626	0.588
6.50981	0.456
6.54337	0.298
6.57693	0.092
6.61049	0.038
6.64405	0.241
6.67761	0.379
6.71116	0.509
6.74472	0.544
6.77828	0.472
6.81184	0.276
6.8454	0.263
6.87896	0.296
6.91251	0.349
6.94607	0.384
6.97963	0.483
7.01319	0.586
7.04675	0.627
7.08031	0.64
7.11386	0.591
7.14742	0.561
7.18098	0.618
7.21454	0.583
7.2481	0.403
7.28166	0.372
7.31521	0.462
7.34877	0.549
7.38233	0.561
7.41589	0.541
7.44945	0.522
7.48301	0.527
7.51656	0.534
7.55012	0.49
7.58368	0.391
7.61724	0.345
7.6508	0.35
7.68436	0.35
7.71791	0.327
7.75147	0.338
7.78503	0.381
7.81859	0.418
7.85215	0.413
7.88571	0.379
7.91926	0.31
7.95282	0.244
7.98638	0.229
8.01994	0.261
8.0535	0.322
8.08706	0.3
8.12061	0.313
8.15417	0.431
8.18773	0.492
8.22129	0.554
8.25485	0.59
8.28841	0.617
8.32196	0.61
8.35552	0.588
8.38908	0.578
8.42264	0.581
8.4562	0.6
8.48976	0.613
8.52331	0.596
8.55687	0.529
8.59043	0.423
8.62399	0.355
8.65755	0.327
8.6911	0.338
8.72466	0.37
8.75822	0.404
8.79178	0.448
8.82534	0.478
8.8589	0.494
8.89245	0.497
8.92601	0.497
8.95957	0.509
8.99313	0.539
9.02669	0.548
9.06025	0.593
9.0938	0.65
9.12736	0.662
9.16092	0.661
9.19448	0.64
9.22804	0.627
9.2616	0.622
9.29515	0.623
9.32871	0.629
9.36227	0.63
9.39583	0.645
9.42939	0.661
9.46295	0.667
9.4965	0.672
9.53006	0.672
9.56362	0.676
9.59718	0.677
9.63074	0.684
9.6643	0.693
9.69785	0.706
9.73141	0.721
9.76497	0.735
9.79853	0.741
9.83209	0.743
9.86565	0.745
9.8992	0.748
9.93276	0.748
9.96632	0.745
9.99988	0.745
10.0334	0.748
10.067	0.75
10.1006	0.752
10.1341	0.752
10.1677	0.75
10.2012	0.747
10.2348	0.748
10.2683	0.75
10.3019	0.75
10.3355	0.753
10.369	0.755
10.4026	0.757
10.4361	0.757
10.4697	0.762
10.5033	0.767
10.5368	0.767
10.5704	0.77
10.6039	0.772
10.6375	0.774
10.671	0.777
10.7046	0.775
10.7382	0.775
10.7717	0.774
10.8053	0.774
10.8388	0.774
10.8724	0.77
10.906	0.768
10.9395	0.768
10.9731	0.768
11.0066	0.77
11.0402	0.765
11.0737	0.762
11.1073	0.763
11.1409	0.762
11.1744	0.755
11.208	0.752
11.2415	0.75
11.2751	0.745
11.3087	0.735
11.3422	0.726
11.3758	0.723
11.4093	0.72
11.4429	0.716
11.4764	0.713
11.51	0.718
11.5436	0.721
11.5771	0.73
11.6107	0.736
11.6442	0.735
11.6778	0.735
11.7114	0.733
11.7449	0.731
11.7785	0.725
11.812	0.725
11.8456	0.723
11.8791	0.72
11.9127	0.713
11.9463	0.703
11.9798	0.694
12.0134	0.667
12.0469	0.634
12.0805	0.59
12.1141	0.536
12.1476	0.47
12.1812	0.396
12.2147	0.33
12.2483	0.284
12.2818	0.254
12.3154	0.241
12.349	0.242
12.3825	0.296
12.4161	0.359
12.4496	0.431
12.4832	0.487
12.5168	0.527
12.5503	0.549
12.5839	0.569
12.6174	0.593
12.651	0.613
12.6845	0.63
12.7181	0.649
12.7517	0.664
12.7852	0.676
12.8188	0.686
12.8523	0.701
12.8859	0.709
12.9195	0.715
12.953	0.72
12.9866	0.726
13.0201	0.728
13.0537	0.73
13.0872	0.728
13.1208	0.723
13.1544	0.718
13.1879	0.715
13.2215	0.708
13.255	0.704
13.2886	0.699
13.3222	0.699
13.3557	0.699
13.3893	0.701
13.4228	0.698
13.4564	0.691
13.4899	0.691
13.5235	0.688
13.5571	0.686
13.5906	0.679
13.6242	0.671
13.6577	0.657
13.6913	0.639
13.7249	0.615
13.7584	0.59
13.792	0.568
13.8255	0.554
13.8591	0.554
13.8926	0.569
13.9262	0.588
13.9598	0.608
13.9933	0.622
14.0269	0.627
14.0604	0.63
14.094	0.635
14.1276	0.644
14.1611	0.649
14.1947	0.649
14.2282	0.65
14.2618	0.649
14.2953	0.65
14.3289	0.649
14.3625	0.645
14.396	0.644
14.4296	0.64
14.4631	0.639
14.4967	0.639
14.5303	0.634
14.5638	0.632
14.5974	0.63
14.6309	0.625
14.6645	0.623
14.698	0.62
14.7316	0.612
14.7652	0.612
14.7987	0.61
14.8323	0.603
14.8658	0.602
14.8994	0.6
14.933	0.596
14.9665	0.59
15.0001	0.59
15.0336	0.586
15.0672	0.578
15.1007	0.573
15.1343	0.571
15.1679	0.566
15.2014	0.561
15.235	0.558
