Infrared Spectrum: Dibenzyl succinate
Formula: C 18 H 18 O 4
CAS: 103-43-5
State: gas
Origin: EPA-IR VAPOR PHASE LIBRARY
1/CM	ABSORBANCE
549.9	0.00562
559.547	0.00623
569.193	0.00805
578.84	0.01052
588.486	0.01053
598.133	0.00957
607.779	0.00832
617.426	0.00707
627.072	0.00615
636.719	0.00596
646.365	0.00629
656.012	0.00686
665.658	0.00908
675.305	0.01585
684.951	0.02643
694.598	0.04144
704.245	0.03344
713.891	0.02714
723.538	0.02861
733.184	0.03152
742.831	0.03881
752.477	0.03072
762.124	0.01469
771.77	0.00774
781.417	0.00565
791.063	0.0057
800.71	0.00612
810.356	0.00755
820.003	0.00959
829.649	0.00975
839.296	0.00896
848.943	0.00772
858.589	0.00718
868.236	0.00742
877.882	0.00851
887.529	0.01018
897.175	0.01165
906.822	0.01338
916.468	0.01392
926.115	0.01232
935.761	0.01235
945.408	0.01424
955.054	0.01886
964.701	0.02799
974.347	0.03898
983.994	0.046
993.64	0.04935
1003.29	0.05291
1012.93	0.04685
1022.58	0.03776
1032.23	0.0293
1041.87	0.02336
1051.52	0.02168
1061.17	0.01913
1070.81	0.0149
1080.46	0.01368
1090.11	0.01455
1099.75	0.01821
1109.4	0.02617
1119.05	0.04229
1128.69	0.07294
1138.34	0.13075
1147.99	0.20924
1157.63	0.20404
1167.28	0.14668
1176.92	0.10465
1186.57	0.08254
1196.22	0.07647
1205.86	0.08648
1215.51	0.08909
1225.16	0.08485
1234.8	0.08744
1244.45	0.08514
1254.1	0.08178
1263.74	0.07783
1273.39	0.0656
1283.04	0.05231
1292.68	0.04192
1302.33	0.0362
1311.98	0.03321
1321.62	0.02997
1331.27	0.03102
1340.92	0.03957
1350.56	0.04242
1360.21	0.03037
1369.86	0.0251
1379.5	0.03223
1389.15	0.02323
1398.79	0.01467
1408.44	0.01305
1418.09	0.01675
1427.73	0.02103
1437.38	0.02124
1447.03	0.02167
1456.67	0.02301
1466.32	0.01776
1475.97	0.01139
1485.61	0.00985
1495.26	0.01551
1504.91	0.01181
1514.55	0.00616
1524.2	0.00515
1533.85	0.00482
1543.49	0.0045102
1553.14	0.0044024
1562.79	0.0045671
1572.43	0.00492
1582.08	0.00548
1591.73	0.00595
1601.37	0.00627
1611.02	0.0061
1620.67	0.0049
1630.31	0.0046747
1639.96	0.00478
1649.6	0.00494
1659.25	0.00523
1668.9	0.00566
1678.54	0.00644
1688.19	0.00778
1697.84	0.01013
1707.48	0.01461
1717.13	0.02136
1726.78	0.03145
1736.42	0.05426
1746.07	0.11756
1755.72	0.22331
1765.36	0.16741
1775.01	0.06906
1784.66	0.03514
1794.3	0.02294
1803.95	0.01632
1813.6	0.01143
1823.24	0.00873
1832.89	0.0071
1842.54	0.00617
1852.18	0.00575
1861.83	0.00565
1871.47	0.00564
1881.12	0.00554
1890.77	0.00494
1900.41	0.0043313
1910.06	0.0041731
1919.71	0.0044002
1929.35	0.00486
1939	0.00545
1948.65	0.00593
1958.29	0.00586
1967.94	0.0045153
1977.59	0.0039917
1987.23	0.003858
1996.88	0.00371592
2006.53	0.003586
2016.17	0.003486
2025.82	0.003442
2035.47	0.003404
2045.11	0.003333
2054.76	0.003217
2064.41	0.003146
2074.05	0.00312
2083.7	0.00307
2093.35	0.003023
2102.99	0.002945
2112.64	0.002858
2122.28	0.00284
2131.93	0.002757
2141.58	0.002727
2151.22	0.00267
2160.87	0.00264
2170.52	0.0026
2180.16	0.00262
2189.81	0.00258
2199.46	0.00259
2209.1	0.00258
2218.75	0.00248
2228.4	0.00244
2238.04	0.00241
2247.69	0.0024
2257.34	0.00242
2266.98	0.00242
2276.63	0.00243
2286.28	0.00246
2295.92	0.00246
2305.57	0.00262
2315.22	0.002902
2324.86	0.002731
2334.51	0.00267
2344.16	0.00262
2353.8	0.00248
2363.45	0.00231
2373.09	0.00227
2382.74	0.00229
2392.39	0.00224
2402.03	0.00222
2411.68	0.00223
2421.33	0.00218
2430.97	0.00213
2440.62	0.00206
2450.27	0.00207
2459.91	0.00201
2469.56	0.00195
2479.21	0.00191
2488.85	0.00185
2498.5	0.00179
2508.15	0.00176
2517.79	0.00174
2527.44	0.00172
2537.09	0.00166
2546.73	0.00163
2556.38	0.00165
2566.03	0.00167
2575.67	0.0017
2585.32	0.00172
2594.96	0.0017
2604.61	0.00171
2614.26	0.00169
2623.9	0.0016
2633.55	0.00159
2643.2	0.00157
2652.84	0.00149
2662.49	0.00149
2672.14	0.00137
2681.78	0.00142
2691.43	0.00132
2701.08	0.00132
2710.72	0.00132
2720.37	0.00138
2730.02	0.00136
2739.66	0.00139
2749.31	0.00137
2758.96	0.00139
2768.6	0.00137
2778.25	0.00138
2787.9	0.00142
2797.54	0.00163
2807.19	0.0017
2816.84	0.00191
2826.48	0.00206
2836.13	0.00213
2845.77	0.00205
2855.42	0.00208
2865.07	0.00248
2874.71	0.003329
2884.36	0.00513
2894.01	0.00716
2903.65	0.00721
2913.3	0.0064
2922.95	0.00783
2932.59	0.01293
2942.24	0.01704
2951.89	0.02102
2961.53	0.02376
2971.18	0.01747
2980.83	0.01251
2990.47	0.01016
3000.12	0.00796
3009.77	0.00774
3019.41	0.01089
3029.06	0.01887
3038.71	0.02676
3048.35	0.02166
3058	0.01824
3067.64	0.0272
3077.29	0.02741
3086.94	0.01614
3096.58	0.01216
3106.23	0.00859
3115.88	0.0055
3125.52	0.00246
3135.17	0.00103
3144.82	0.00061
3154.46	0.00052
3164.11	0.00041
3173.76	0.00042
3183.4	0.0003
3193.05	0.00022
3202.7	0.00027
3212.34	0.00015
3221.99	4e-05
3231.64	0.00019
3241.28	0.00021
3250.93	0.00013
3260.58	0.00025
3270.22	0.00026
3279.87	0.00026
3289.52	0.0003
3299.16	0.00033
3308.81	0.00043
3318.45	0.00037
3328.1	0.00037
3337.75	0.00051
3347.39	0.00057
3357.04	0.00047
3366.69	0.0007
3376.33	0.00067
3385.98	0.00083
3395.63	0.00089
3405.27	0.0009
3414.92	0.00089
3424.57	0.00096
3434.21	0.00103
3443.86	0.00134
3453.51	0.00125
3463.15	0.00157
3472.8	0.002
3482.45	0.00251
3492.09	0.00302
3501.74	0.002942
3511.39	0.00234
3521.03	0.00198
3530.68	0.00182
3540.33	0.0016
3549.97	0.00157
3559.62	0.00153
3569.26	0.00147
3578.91	0.00159
3588.56	0.00158
3598.2	0.0016
3607.85	0.00172
3617.5	0.00164
3627.14	0.00173
3636.79	0.00171
3646.44	0.00184
3656.08	0.00192
3665.73	0.00193
3675.38	0.00186
3685.02	0.00183
3694.67	0.00179
3704.32	0.00186
3713.96	0.00192
3723.61	0.00181
3733.26	0.00172
3742.9	0.00171
3752.55	0.0017
3762.2	0.00171
3771.84	0.00181
3781.49	0.00175
3791.13	0.00175
3800.78	0.00182
3810.43	0.00186
3820.07	0.0018
3829.72	0.0019
3839.37	0.00185
3849.01	0.00188
3858.66	0.00197
3868.31	0.00196
3877.95	0.00202
3887.6	0.002
3897.25	0.00188
3906.89	0.00197
3916.54	0.002
3926.19	0.00202
3935.83	0.00199
3945.48	0.00196
3955.13	0.00198
3964.77	0.00202
3974.42	0.00203
3984.07	0.002
3993.71	0.00194
