Infrared Spectrum: .beta.-Phenylethyl cinnamate
Formula: C 17 H 16 O 2
CAS: 103-53-7
State: gas
Origin: EPA-IR VAPOR PHASE LIBRARY
1/CM	ABSORBANCE
549.8	0.008588
559.445	0.019048
569.09	0.052128
578.734	0.036108
588.379	0.027958
598.024	0.016398
607.669	0.009678
617.313	0.006058
626.958	0.005108
636.603	0.005598
646.248	0.008188
655.893	0.015068
665.537	0.032558
675.182	0.068828
684.827	0.120108
694.472	0.173048
704.116	0.148108
713.761	0.107358
723.406	0.084018
733.051	0.083818
742.695	0.109918
752.34	0.109698
761.985	0.120198
771.63	0.078648
781.275	0.034978
790.919	0.019518
800.564	0.015028
810.209	0.016088
819.854	0.020998
829.498	0.019168
839.143	0.018348
848.788	0.021368
858.433	0.033928
868.078	0.036728
877.722	0.023928
887.367	0.020968
897.012	0.020798
906.657	0.019548
916.301	0.018378
925.946	0.021398
935.591	0.027508
945.236	0.033598
954.88	0.041188
964.525	0.069458
974.17	0.112078
983.815	0.104868
993.46	0.090738
1003.1	0.129198
1012.75	0.144748
1022.39	0.169908
1032.04	0.145128
1041.68	0.116948
1051.33	0.125878
1060.97	0.116068
1070.62	0.083938
1080.26	0.063738
1089.91	0.054828
1099.55	0.049148
1109.2	0.046178
1118.84	0.050428
1128.49	0.072088
1138.13	0.137478
1147.78	0.329538
1157.42	0.873298
1167.07	0.830148
1176.71	0.316098
1186.36	0.230398
1196	0.298278
1205.64	0.221708
1215.29	0.138208
1224.93	0.167598
1234.58	0.263218
1244.22	0.447158
1253.87	0.457008
1263.51	0.374108
1273.16	0.283268
1282.8	0.228758
1292.45	0.280958
1302.09	0.317988
1311.74	0.367068
1321.38	0.214698
1331.03	0.122128
1340.67	0.070448
1350.32	0.048578
1359.96	0.045028
1369.61	0.052658
1379.25	0.074378
1388.9	0.065468
1398.54	0.036168
1408.18	0.025738
1417.83	0.024108
1427.47	0.030248
1437.12	0.047998
1446.76	0.085648
1456.41	0.081818
1466.05	0.056308
1475.7	0.043328
1485.34	0.045998
1494.99	0.108788
1504.63	0.054558
1514.28	0.021718
1523.92	0.017608
1533.57	0.016388
1543.21	0.015108
1552.86	0.014828
1562.5	0.018168
1572.15	0.031208
1581.79	0.040628
1591.44	0.035628
1601.08	0.045508
1610.73	0.045048
1620.37	0.059128
1630.01	0.127238
1639.66	0.243358
1649.3	0.126248
1658.95	0.055338
1668.59	0.038428
1678.24	0.032898
1687.88	0.037008
1697.53	0.052118
1707.17	0.079298
1716.82	0.154088
1726.46	0.399828
1736.11	0.732118
1745.75	0.450068
1755.4	0.152048
1765.04	0.074488
1774.69	0.049368
1784.33	0.035208
1793.98	0.033918
1803.62	0.024178
1813.27	0.018848
1822.91	0.016958
1832.55	0.015798
1842.2	0.015168
1851.84	0.014328
1861.49	0.015088
1871.13	0.016598
1880.78	0.016778
1890.42	0.013438
1900.07	0.009258
1909.71	0.007938
1919.36	0.009318
1929	0.012788
1938.65	0.017198
1948.29	0.018708
1957.94	0.016168
1967.58	0.010198
1977.23	0.008278
1986.87	0.007858
1996.52	0.006898
2006.16	0.006248
2015.81	0.005688
2025.45	0.005238
2035.1	0.004898
2044.74	0.004808
2054.38	0.005018
2064.03	0.005348
2073.67	0.005568
2083.32	0.005918
2092.96	0.006448
2102.61	0.006378
2112.25	0.006008
2121.9	0.005418
2131.54	0.004788
2141.19	0.004358
2150.83	0.004118
2160.48	0.003748
2170.12	0.003418
2179.77	0.003128
2189.41	0.003078
2199.06	0.003098
2208.7	0.003138
2218.35	0.003088
2227.99	0.003128
2237.64	0.003148
2247.28	0.003428
2256.92	0.003518
2266.57	0.003358
2276.21	0.003168
2285.86	0.003238
2295.5	0.003238
2305.15	0.003898
2314.79	0.006018
2324.44	0.004388
2334.08	0.004138
2343.73	0.003888
2353.37	0.003338
2363.02	0.002868
2372.66	0.002468
2382.31	0.002248
2391.95	0.001978
2401.6	0.001928
2411.24	0.001948
2420.89	0.001958
2430.53	0.002138
2440.18	0.002248
2449.82	0.002208
2459.47	0.002068
2469.11	0.002318
2478.75	0.001948
2488.4	0.001908
2498.04	0.001828
2507.69	0.001838
2517.33	0.001788
2526.98	0.001708
2536.62	0.001608
2546.27	0.001598
2555.91	0.001678
2565.56	0.001878
2575.2	0.002208
2584.85	0.002478
2594.49	0.002578
2604.14	0.002598
2613.78	0.002248
2623.43	0.002068
2633.07	0.002108
2642.72	0.002068
2652.36	0.002018
2662.01	0.001958
2671.65	0.001868
2681.29	0.001788
2690.94	0.001638
2700.58	0.001648
2710.23	0.001488
2719.87	0.001748
2729.52	0.001998
2739.16	0.002578
2748.81	0.003088
2758.45	0.003228
2768.1	0.003378
2777.74	0.003868
2787.39	0.004348
2797.03	0.004568
2806.68	0.004318
2816.32	0.004688
2825.97	0.005908
2835.61	0.007988
2845.26	0.011258
2854.9	0.014468
2864.55	0.015238
2874.19	0.016848
2883.84	0.019618
2893.48	0.026498
2903.12	0.036238
2912.77	0.042988
2922.41	0.055058
2932.06	0.052358
2941.7	0.054708
2951.35	0.067188
2960.99	0.093098
2970.64	0.082518
2980.28	0.054968
2989.93	0.042028
2999.57	0.031998
3009.22	0.035908
3018.86	0.055128
3028.51	0.110488
3038.15	0.137198
3047.8	0.083108
3057.44	0.086338
3067.09	0.159328
3076.73	0.143558
3086.38	0.094168
3096.02	0.068948
3105.67	0.045488
3115.31	0.025798
3124.95	0.010338
3134.6	0.005528
3144.24	0.004318
3153.89	0.004348
3163.53	0.003288
3173.18	0.001968
3182.82	0.001273
3192.47	0.0012207
3202.11	0.0009501
3211.76	0.0008285
3221.4	0.0006021
3231.05	0.0008985
3240.69	0.000881
3250.34	0.0007441
3259.98	0.000492
3269.63	0.0008503
3279.27	0.0004923
3288.92	0.0005462
3298.56	0.0005174
3308.21	0.0005882
3317.85	0.0006799
3327.49	0.0005483
3337.14	0.0007469
3346.78	0.0012164
3356.43	0.0012453
3366.07	0.001928
3375.72	0.001778
3385.36	0.0013452
3395.01	0.0009666
3404.65	0.000712
3414.3	0.0008096
3423.94	0.001468
3433.59	0.002068
3443.23	0.004178
3452.88	0.005598
3462.52	0.004978
3472.17	0.002868
3481.81	0.001758
3491.46	0.0012072
3501.1	0.0007216
3510.75	0.000497
3520.39	0.00048723
3530.04	0.0003676
3539.68	0.00019
3549.32	0.000196
3558.97	0.000267
3568.61	0
3578.26	0.000214
3587.9	0.000178
3597.55	0.0003043
3607.19	0.000132
3616.84	0.00047965
3626.48	0.0006664
3636.13	0.0011227
3645.77	0.0012028
3655.42	0.001498
3665.06	0.0009906
3674.71	0.0010356
3684.35	0.0006488
3694	0.0006517
3703.64	0.0010674
3713.29	0.0007216
3722.93	0.0006782
3732.58	0.0005116
3742.22	0.00042888
3751.86	0.00046131
3761.51	0.0006452
3771.15	0.0007165
3780.8	0.00042471
3790.44	0.0003436
3800.09	0.0005794
3809.73	0.0005627
3819.38	0.0006164
3829.02	0.0005562
3838.67	0.0006594
3848.31	0.0006124
3857.96	0.0008482
3867.6	0.0007456
3877.25	0.0009448
3886.89	0.0007147
3896.54	0.0006077
3906.18	0.0011986
3915.83	0.0012528
3925.47	0.0011841
3935.12	0.0009524
3944.76	0.000671
3954.41	0.0009239
3964.05	0.0008618
3973.69	0.0009335
3983.34	0.0011891
3992.98	0.0012571
