Infrared Spectrum: N,N-Dimethylbenzylamine
Formula: C9 H13 N
CAS: 103-83-3
State: SOLUTION (10% CCl4 FOR 3800-1340, 10% CS2 FOR 1340-450 CM^-^1)
Class: COBLENTZ III
Instrument: DOW KBr FOREPRISM-GRATING
Instrument parameters: BLAZED AT 3.5, 12.0, 20.0 MICRON AND CHANGED AT 5.0, 7.5, 14.9 MICRON
Sampling: TRANSMISSION
Path length: 0.011 CM, 0.011 CM
Resolution: 2
Origin: DOW CHEMICAL COMPANY
1/CM	TRANSMITTANCE
3800	0.9687
3791	0.9696
3782	0.9676
3773	0.9699
3764	0.9711
3755	0.9722
3746	0.9754
3737	0.9814
3728	0.9828
3719	0.9788
3710	0.9776
3701	0.9761
3692	0.9718
3683	0.9674
3674	0.965
3665	0.9648
3656	0.9652
3647	0.9659
3638	0.9662
3629	0.9664
3620	0.9678
3611	0.9672
3602	0.9654
3593	0.9747
3584	0.9738
3575	0.9639
3566	0.9722
3557	0.9741
3548	0.9732
3539	0.9709
3530	0.9744
3521	0.9735
3512	0.9727
3503	0.9717
3494	0.9709
3485	0.9702
3476	0.9701
3467	0.9698
3458	0.9694
3449	0.9691
3440	0.969
3431	0.9686
3422	0.9681
3413	0.9676
3404	0.9672
3395	0.9667
3386	0.9664
3377	0.966
3368	0.9656
3359	0.965
3350	0.964
3341	0.9631
3332	0.962
3323	0.9611
3314	0.9602
3305	0.9611
3296	0.9587
3287	0.9581
3278	0.9584
3269	0.958
3260	0.9561
3251	0.9538
3242	0.9513
3233	0.9475
3224	0.9436
3215	0.9414
3206	0.938
3197	0.9381
3188	0.9371
3179	0.9316
3170	0.9277
3161	0.9256
3152	0.9264
3143	0.923
3134	0.9222
3125	0.9157
3116	0.8849
3107	0.8486
3098	0.7685
3089	0.6173
3080	0.7096
3071	0.5182
3062	0.6264
3053	0.7269
3044	0.6087
3035	0.3897
3026	0.5158
3017	0.7302
3008	0.7442
2999	0.69
2990	0.3781
2981	0.2405
2972	0.2742
2963	0.4174
2954	0.2386
2945	0.1361
2936	0.2772
2927	0.3749
2918	0.431
2909	0.4513
2900	0.4817
2891	0.467
2882	0.4557
2873	0.4801
2864	0.1916
2855	0.2979
2846	0.5298
2837	0.4964
2828	0.2371
2819	0.045
2810	0.308
2801	0.3626
2792	0.1063
2783	0.0028
2774	0.0148
2765	0.0339
2756	0.4066
2747	0.5576
2738	0.6639
2729	0.6501
2720	0.6101
2711	0.6209
2702	0.6043
2693	0.7764
2684	0.8353
2675	0.8826
2666	0.9089
2657	0.9226
2648	0.9242
2639	0.9227
2630	0.9153
2621	0.9093
2612	0.9095
2603	0.9216
2594	0.9354
2585	0.9428
2576	0.9453
2567	0.9475
2558	0.9489
2549	0.9494
2540	0.9478
2531	0.9457
2522	0.9438
2513	0.9411
2504	0.936
2495	0.9316
2486	0.9328
2477	0.9435
2468	0.9493
2459	0.9532
2450	0.9531
2441	0.9504
2432	0.9479
2423	0.9482
2414	0.9478
2405	0.9483
2396	0.9528
2387	0.9591
2378	0.9683
2369	0.98
2360	0.9793
2351	0.968
2342	0.9634
2333	0.9546
2324	0.9651
2315	0.9602
2306	0.9579
2297	0.9582
2288	0.9552
2279	0.953
2270	0.9545
2261	0.9546
2252	0.9527
2243	0.9511
2234	0.9511
2225	0.9526
2216	0.952
2207	0.9525
2198	0.9527
2189	0.9516
2180	0.9526
2171	0.956
2162	0.9561
2153	0.9575
2144	0.9582
2135	0.9575
2126	0.9519
2117	0.9411
2108	0.9415
2099	0.9422
2090	0.9429
2081	0.9436
2072	0.9443
2063	0.9448
2054	0.9448
2045	0.9397
2036	0.9356
2027	0.9334
2018	0.9324
2009	0.9285
2000	0.917
1991	0.9119
1982	0.918
1973	0.9191
1964	0.9008
1955	0.8788
1946	0.8414
1937	0.8847
1928	0.9162
1919	0.9259
1910	0.9269
1901	0.9214
1892	0.8763
1883	0.8713
1874	0.8463
1865	0.8807
1856	0.905
1847	0.9164
1838	0.9217
1829	0.9056
1820	0.8849
1811	0.8604
1802	0.8795
1793	0.9105
1784	0.9006
1775	0.9067
1766	0.9083
1757	0.8816
1748	0.8782
1739	0.8929
1730	0.9113
1721	0.9124
1712	0.867
1703	0.8782
1694	0.8709
1685	0.8623
1676	0.8905
1667	0.9053
1658	0.9075
1649	0.9066
1640	0.9069
1631	0.9132
1622	0.9017
1613	0.8848
1604	0.7254
1595	0.8277
1586	0.8004
1577	0.85
1568	0.8475
1559	0.7983
1550	0.8534
1541	0.9069
1532	0.9043
1523	0.8935
1514	0.8829
1505	0.8071
1496	0.4816
1487	0.7609
1478	0.621
1469	0.3177
1460	0.0649
1451	0.2315
1442	0.4889
1433	0.6263
1424	0.8506
1415	0.8755
1406	0.8424
1397	0.8863
1388	0.8408
1379	0.8122
1370	0.194
1361	0.7392
1352	0.8654
1343	0.857
1334	0.826
1325	0.7449
1316	0.7321
1307	0.8247
1298	0.8256
1289	0.8049
1280	0.7724
1271	0.5586
1262	0.3066
1253	0.5542
1244	0.8376
1235	0.9098
1226	0.9288
1217	0.9241
1208	0.8849
1199	0.888
1190	0.8455
1181	0.6841
1172	0.5648
1163	0.7901
1154	0.7199
1145	0.4284
1136	0.867
1127	0.9261
1118	0.933
1109	0.9066
1100	0.6502
1091	0.8282
1082	0.8601
1073	0.6986
1064	0.847
1055	0.8158
1046	0.2134
1037	0.2917
1028	0.1373
1019	0.5523
1010	0.8173
1001	0.8389
992	0.862
983	0.7852
974	0.6923
965	0.8499
956	0.9072
947	0.9337
938	0.9415
929	0.9409
920	0.9213
911	0.7856
902	0.7882
893	0.9026
884	0.9361
875	0.913
866	0.8928
857	0.4899
848	0.3859
839	0.7398
830	0.7797
821	0.8054
812	0.8711
803	0.9075
794	0.9376
785	0.9494
776	0.942
767	0.9252
758	0.8687
749	0.5723
740	-0.0036
731	0.1661
722	0.7438
713	0.7497
704	0.2258
695	0.2565
686	0.8175
677	0.9207
668	0.9376
659	0.9542
650	0.9604
641	0.9763
632	0.9716
623	0.9494
614	0.8306
605	0.9203
596	0.9715
587	0.9844
578	0.9841
569	0.9809
560	0.9747
551	0.9675
542	0.9599
533	0.9544
524	0.9424
515	0.919
506	0.8857
497	0.7477
488	0.7202
479	0.7966
470	0.8324
461	0.8349
452	0.8197
