Infrared Spectrum: N,N-Dibenzylamine
Formula: C 14 H 15 N
CAS: 103-49-1
State: gas
Origin: EPA-IR VAPOR PHASE LIBRARY
1/CM	ABSORBANCE
501.5	0.00296
513.074	0.00221
524.648	0.00215
536.222	0.00283
547.796	0.00395
559.37	0.00516
570.944	0.0054
582.518	0.00442
594.092	0.00468
605.666	0.00581
617.24	0.00561
628.814	0.00476
640.388	0.00519
651.962	0.00696
663.536	0.0104
675.11	0.01734
686.684	0.03083
698.258	0.04677
709.832	0.03554
721.406	0.02937
732.98	0.03459
744.554	0.0358
756.128	0.01888
767.702	0.00817
779.276	0.00432
790.85	0.00403
802.423	0.00438
813.997	0.00479
825.571	0.00423
837.145	0.00316
848.719	0.00248
860.293	0.00206
871.867	0.00211
883.441	0.00246
895.015	0.00351
906.589	0.00463
918.163	0.00376
929.737	0.00339
941.311	0.00304
952.885	0.00335
964.459	0.0034
976.033	0.00351
987.607	0.00324
999.181	0.00297
1010.76	0.0036
1022.33	0.0092
1033.9	0.00731
1045.48	0.00338
1057.05	0.00396
1068.63	0.00549
1080.2	0.00693
1091.77	0.00942
1103.35	0.01595
1114.92	0.02159
1126.49	0.01241
1138.07	0.00611
1149.64	0.00389
1161.22	0.00357
1172.79	0.00451
1184.36	0.00542
1195.94	0.00697
1207.51	0.00516
1219.09	0.00363
1230.66	0.0034
1242.23	0.0031
1253.81	0.00258
1265.38	0.00246
1276.96	0.00304
1288.53	0.00409
1300.1	0.00545
1311.68	0.0061
1323.25	0.00707
1334.83	0.00857
1346.4	0.0095
1357.97	0.01074
1369.55	0.00665
1381.12	0.00385
1392.7	0.00267
1404.27	0.00266
1415.84	0.0036
1427.42	0.00619
1438.99	0.01325
1450.57	0.02573
1462.14	0.02023
1473.71	0.00969
1485.29	0.00885
1496.86	0.01471
1508.44	0.00433
1520.01	0.00202
1531.58	0.00178
1543.16	0.00168
1554.73	0.00159
1566.31	0.002
1577.88	0.00293
1589.45	0.00455
1601.03	0.00662
1612.6	0.0038
1624.18	0.00169
1635.75	0.00163
1647.32	0.00241
1658.9	0.00169
1670.47	0.00101
1682.05	0.0007584
1693.62	0.0007055
1705.19	0.0007408
1716.77	0.0008169
1728.34	0.0009457
1739.92	0.00103
1751.49	0.0009557
1763.06	0.000988
1774.64	0.00135
1786.21	0.00204
1797.79	0.00319
1809.36	0.00203
1820.93	0.00129
1832.51	0.00101
1844.08	0.00115
1855.66	0.0016
1867.23	0.00194
1878.8	0.00183
1890.38	0.00119
1901.95	0.0008836
1913.53	0.00105
1925.1	0.00158
1936.67	0.00249
1948.25	0.00273
1959.82	0.00179
1971.4	0.0006272
1982.97	0.0004011
1994.54	0.0002967
2006.12	0.0002631
2017.69	0.0002593
2029.27	0.0002451
2040.84	0.0002237
2052.41	0.0001952
2063.99	0.0002057
2075.56	0.0002034
2087.14	0.0001861
2098.71	0.0001844
2110.28	0.0001652
2121.86	0.0001778
2133.43	0.0002072
2145.01	0.0002213
2156.58	0.0002496
2168.15	0.0002689
2179.73	0.0002631
2191.3	0.0002707
2202.88	0.0002484
2214.45	0.0002295
2226.02	0.0002662
2237.6	0.0002774
2249.17	0.0002664
2260.74	0.0002841
2272.32	0.0002932
2283.89	0.0002726
2295.47	0.0002998
2307.04	0.0004506
2318.61	0.0005145
2330.19	0.000445
2341.76	0.0004691
2353.34	0.0003744
2364.91	0.0003669
2376.48	0.0002952
2388.06	0.0002771
2399.63	0.0003017
2411.21	0.0002995
2422.78	0.0003057
2434.35	0.0003039
2445.93	0.0002629
2457.5	0.0002459
2469.08	0.0002714
2480.65	0.0002545
2492.22	0.0002529
2503.8	0.0002652
2515.37	0.0002909
2526.95	0.0003092
2538.52	0.0003612
2550.09	0.0003945
2561.67	0.0004273
2573.24	0.0004608
2584.82	0.0005579
2596.39	0.0006534
2607.96	0.0007206
2619.54	0.0007418
2631.11	0.0007852
2642.69	0.0008349
2654.26	0.0009275
2665.83	0.00103
2677.41	0.00118
2688.98	0.00144
2700.56	0.00168
2712.13	0.00182
2723.7	0.00188
2735.28	0.0022
2746.85	0.00257
2758.43	0.00293
2770	0.00391
2781.57	0.00602
2793.15	0.00918
2804.72	0.01311
2816.3	0.01696
2827.87	0.0185
2839.44	0.01697
2851.02	0.01425
2862.59	0.01205
2874.17	0.01148
2885.74	0.01234
2897.31	0.01245
2908.89	0.01262
2920.46	0.01521
2932.04	0.01469
2943.61	0.00958
2955.18	0.00551
2966.76	0.00319
2978.33	0.00249
2989.91	0.00289
3001.48	0.00534
3013.05	0.01071
3024.63	0.02281
3036.2	0.02904
3047.78	0.01957
3059.35	0.02233
3070.92	0.0351
3082.5	0.02192
3094.07	0.01455
3105.65	0.00859
3117.22	0.00435
3128.79	0.0017
3140.37	0.0009603
3151.94	0.0008042
3163.52	0.0007878
3175.09	0.0006152
3186.66	0.0003298
3198.24	0.0002885
3209.81	0.0002764
3221.39	0.0002455
3232.96	0.0002172
3244.53	0.0001784
3256.11	0.000222
3267.68	0.0001826
3279.26	0.0002567
3290.83	0.0002114
3302.4	0.0001594
3313.98	0.0001533
3325.55	0.000182
3337.13	0.0001504
3348.7	0.0002767
3360.27	0.0003689
3371.85	0.0003875
3383.42	0.0003706
3395	0.000282
3406.57	0.0002697
3418.14	0.0001742
3429.72	0.0001638
3441.29	0.0001561
3452.86	0.0001834
3464.44	0.000122
3476.01	0.0001405
3487.59	0.0001334
3499.16	0.0001362
3510.73	0.0001913
3522.31	0.0001207
3533.88	0.0001723
3545.46	0.00019
3557.03	0.0001733
3568.6	0.0001198
3580.18	0.0001457
3591.75	0.0002341
3603.33	0.000234
3614.9	0.0002617
3626.47	0.0002595
3638.05	0.0003553
3649.62	0.0003896
3661.2	0.0004038
3672.77	0.0002767
3684.34	0.0002914
3695.92	0.0003012
3707.49	0.0004179
3719.07	0.0002747
3730.64	0.0002362
3742.21	0.0002839
3753.79	0.0002971
3765.36	0.0002801
3776.94	0.0003012
3788.51	0.000346
3800.08	0.0002571
3811.66	0.000382
3823.23	0.0003241
3834.81	0.0003241
3846.38	0.0003479
3857.95	0.0004409
3869.53	0.0004115
3881.1	0.0004081
3892.68	0.0003594
3904.25	0.0002879
3915.82	0.0003318
3927.4	0.0003258
3938.97	0.0003277
3950.55	0.0002924
3962.12	0.0003127
3973.69	0.0003842
3985.27	0.0004053
3996.84	0.0004603
