Infrared Spectrum: FORMANILIDE
Formula: C7 H7 N O
CAS: 103-70-8
State: SOLID (OIL MULL)
Melting point: 47-49 C
Class: COBLENTZ III
Instrument: BAIRD (GRATING)
Instrument parameters: NaCl PRISM
Sampling: TRANSMISSION
Resolution: 2
Origin: WYANDOTTE CHEMICALS CORP.
1/CM	TRANSMITTANCE
4000	0.4648
3991	0.4662
3982	0.4678
3973	0.4692
3964	0.471
3955	0.4736
3946	0.4762
3937	0.4791
3928	0.4818
3919	0.4851
3910	0.4887
3901	0.4912
3892	0.4936
3883	0.4948
3874	0.4952
3865	0.4952
3856	0.4942
3847	0.4931
3838	0.4919
3829	0.4914
3820	0.4921
3811	0.493
3802	0.4952
3793	0.4998
3784	0.5049
3775	0.5094
3766	0.511
3757	0.5114
3748	0.5118
3739	0.5118
3730	0.5112
3721	0.5106
3712	0.5101
3703	0.5095
3694	0.509
3685	0.5086
3676	0.5083
3667	0.5081
3658	0.5094
3649	0.511
3640	0.514
3631	0.5164
3622	0.5169
3613	0.5172
3604	0.5172
3595	0.5169
3586	0.5164
3577	0.516
3568	0.5158
3559	0.5156
3550	0.5156
3541	0.5156
3532	0.5157
3523	0.516
3514	0.5164
3505	0.5169
3496	0.5174
3487	0.5177
3478	0.5182
3469	0.5186
3460	0.5192
3451	0.5205
3442	0.5222
3433	0.5248
3424	0.528
3415	0.5321
3406	0.5353
3397	0.5383
3388	0.5402
3379	0.5414
3370	0.5416
3361	0.541
3352	0.5399
3343	0.5365
3334	0.5302
3325	0.5147
3316	0.475
3307	0.4108
3298	0.3459
3289	0.281
3280	0.2222
3271	0.2134
3262	0.2098
3253	0.2071
3244	0.2042
3235	0.1975
3226	0.1819
3217	0.1679
3208	0.1667
3199	0.1679
3190	0.1734
3181	0.182
3172	0.1872
3163	0.1879
3154	0.1877
3145	0.1759
3136	0.1462
3127	0.1424
3118	0.1435
3109	0.1461
3100	0.143
3091	0.1256
3082	0.112
3073	0.1112
3064	0.1112
3055	0.1113
3046	0.1092
3037	0.1049
3028	0.0969
3019	0.0854
3010	0.0736
3001	0.064
2992	0.0544
2983	0.0423
2974	0.0349
2965	0.0312
2956	0.0298
2947	0.0289
2938	0.029
2929	0.0318
2920	0.0359
2911	0.0408
2902	0.0461
2893	0.0518
2884	0.0588
2875	0.0682
2866	0.0847
2857	0.1181
2848	0.1959
2839	0.272
2830	0.3484
2821	0.3946
2812	0.4099
2803	0.4231
2794	0.4377
2785	0.4528
2776	0.4699
2767	0.4838
2758	0.4927
2749	0.4999
2740	0.507
2731	0.514
2722	0.5212
2713	0.5297
2704	0.5382
2695	0.5456
2686	0.5528
2677	0.5606
2668	0.5684
2659	0.5756
2650	0.5827
2641	0.5878
2632	0.5914
2623	0.5934
2614	0.5955
2605	0.5976
2596	0.6002
2587	0.6047
2578	0.6109
2569	0.6162
2560	0.6203
2551	0.6214
2542	0.6212
2533	0.6209
2524	0.6206
2515	0.6205
2506	0.6255
2497	0.6324
2488	0.6366
2479	0.6373
2470	0.6379
2461	0.6411
2452	0.6468
2443	0.651
2434	0.6541
2425	0.6558
2416	0.6568
2407	0.6575
2398	0.658
2389	0.6578
2380	0.6578
2371	0.6556
2362	0.6518
2353	0.6506
2344	0.6532
2335	0.6628
2326	0.6731
2317	0.6838
2308	0.6951
2299	0.7064
2290	0.7178
2281	0.7256
2272	0.7276
2263	0.7271
2254	0.7256
2245	0.7276
2236	0.7324
2227	0.738
2218	0.7442
2209	0.7508
2200	0.7581
2191	0.7626
2182	0.7625
2173	0.7618
2164	0.7611
2155	0.7624
2146	0.7656
2137	0.7714
2128	0.7778
2119	0.7845
2110	0.7915
2101	0.7985
2092	0.8049
2083	0.8106
2074	0.8161
2065	0.8178
2056	0.8176
2047	0.8223
2038	0.8318
2029	0.8409
2020	0.8399
2011	0.8381
2002	0.8443
1993	0.8525
1984	0.8602
1975	0.8653
1966	0.8657
1957	0.8649
1948	0.8586
1939	0.8486
1930	0.8518
1921	0.8666
1912	0.8945
1903	0.9067
1894	0.9075
1885	0.8961
1876	0.8886
1867	0.9056
1858	0.9162
1849	0.9182
1840	0.9401
1831	0.9518
1822	0.9527
1813	0.9391
1804	0.9208
1795	0.8974
1786	0.8724
1777	0.8462
1768	0.8076
1759	0.7184
1750	0.6065
1741	0.4309
1732	0.4055
1723	0.2612
1714	0.2059
1705	0.1546
1696	0.0972
1687	0.0697
1678	0.057
1669	0.0624
1660	0.0935
1651	0.2111
1642	0.2457
1633	0.2496
1624	0.1234
1615	0.0373
1606	0.147
1597	0.288
1588	0.3674
1579	0.2502
1570	0.1119
1561	0.0743
1552	0.1951
1543	0.3088
1534	0.343
1525	0.3736
1516	0.1944
1507	0.0564
1498	0.1245
1489	0.2099
1480	0.2459
1471	0.2743
1462	0.242
1453	0.1076
1444	0.3169
1435	0.5323
1426	0.6001
1417	0.5122
1408	0.1634
1399	0.3229
1390	0.3841
1381	0.4671
1372	0.5955
1363	0.6707
1354	0.6521
1345	0.5639
1336	0.2884
1327	0.0497
1318	0.1075
1309	0.1649
1300	0.225
1291	0.2823
1282	0.3212
1273	0.3282
1264	0.1963
1255	0.3566
1246	0.4877
1237	0.5192
1228	0.5212
1219	0.5205
1210	0.592
1201	0.6299
1192	0.4558
1183	0.5526
1174	0.6437
1165	0.5889
1156	0.616
1147	0.7046
1138	0.7335
1129	0.7288
1120	0.7408
1111	0.7218
1102	0.7389
1093	0.7507
1084	0.6489
1075	0.7098
1066	0.7349
1057	0.7312
1048	0.72
1039	0.6634
1030	0.4645
1021	0.5936
1012	0.7299
1003	0.7056
994	0.7596
985	0.7551
976	0.7265
967	0.7591
958	0.6898
949	0.7671
940	0.7828
931	0.7847
922	0.7606
913	0.7055
904	0.6137
895	0.5837
886	0.5901
877	0.6468
868	0.5073
859	0.4751
850	0.4532
841	0.4539
832	0.4548
823	0.4098
814	0.4952
805	0.5796
796	0.6021
787	0.5678
778	0.5748
769	0.5162
760	0.1674
751	0.1072
742	0.3709
733	0.5837
724	0.6842
715	0.7504
706	0.7778
697	0.6283
688	0.3395
679	0.5622
670	0.6837
661	0.6317
652	0.4951
643	0.6097
634	0.5821
