Infrared Spectrum: 4'-Bromoacetanilide
Formula: C8 H8 Br N O
CAS: 103-88-8
State: SOLID (SPLIT MULL)
Melting point: 166 C
Class: COBLENTZ II
Instrument: DOW KBr FOREPRISM-GRATING
Instrument parameters: BLAZED AT 3.5, 12.0, 20.0 MICRON AND CHANGED AT 5.0, 7.5, 14.9 MICRON
Sampling: TRANSMISSION
Resolution: 2
Origin: DOW CHEMICAL COMPANY
1/CM	TRANSMITTANCE
3800	0.601
3791	0.6033
3782	0.6058
3773	0.6082
3764	0.6142
3755	0.6188
3746	0.6185
3737	0.6179
3728	0.6181
3719	0.6192
3710	0.6203
3701	0.6212
3692	0.6223
3683	0.6232
3674	0.6241
3665	0.6251
3656	0.6258
3647	0.6265
3638	0.6273
3629	0.628
3620	0.6287
3611	0.6292
3602	0.6299
3593	0.6304
3584	0.631
3575	0.6317
3566	0.6324
3557	0.6331
3548	0.6338
3539	0.6345
3530	0.6353
3521	0.6364
3512	0.638
3503	0.6394
3494	0.6408
3485	0.6426
3476	0.6451
3467	0.6476
3458	0.6503
3449	0.6531
3440	0.6558
3431	0.6588
3422	0.6617
3413	0.6645
3404	0.6676
3395	0.67
3386	0.6715
3377	0.6719
3368	0.6715
3359	0.6682
3350	0.6596
3341	0.6388
3332	0.6069
3323	0.5667
3314	0.4895
3305	0.3232
3296	0.1455
3287	0.2088
3278	0.3156
3269	0.3341
3260	0.2503
3251	0.2995
3242	0.4082
3233	0.486
3224	0.5153
3215	0.5286
3206	0.5352
3197	0.4821
3188	0.416
3179	0.4762
3170	0.5162
3161	0.5481
3152	0.5681
3143	0.5736
3134	0.5673
3125	0.5124
3116	0.468
3107	0.4748
3098	0.5656
3089	0.5997
3080	0.6045
3071	0.592
3062	0.57
3053	0.5441
3044	0.5468
3035	0.5851
3026	0.5971
3017	0.6095
3008	0.6269
2999	0.6373
2990	0.6393
2981	0.6406
2972	0.6449
2963	0.6545
2954	0.663
2945	0.6687
2936	0.6706
2927	0.6685
2918	0.6671
2909	0.6694
2900	0.6721
2891	0.6758
2882	0.6801
2873	0.6849
2864	0.6878
2855	0.6828
2846	0.6801
2837	0.6818
2828	0.6857
2819	0.6896
2810	0.6936
2801	0.6968
2792	0.6888
2783	0.6839
2774	0.689
2765	0.6958
2756	0.703
2747	0.7092
2738	0.7139
2729	0.7185
2720	0.7215
2711	0.7238
2702	0.7261
2693	0.7283
2684	0.7305
2675	0.7324
2666	0.7343
2657	0.7361
2648	0.7381
2639	0.7397
2630	0.7412
2621	0.7428
2612	0.7444
2603	0.7464
2594	0.7484
2585	0.7504
2576	0.7519
2567	0.7528
2558	0.7539
2549	0.7546
2540	0.7553
2531	0.7561
2522	0.7568
2513	0.7576
2504	0.7586
2495	0.7595
2486	0.7605
2477	0.7615
2468	0.7625
2459	0.7635
2450	0.7645
2441	0.7655
2432	0.7665
2423	0.7674
2414	0.7685
2405	0.7697
2396	0.7711
2387	0.7719
2378	0.7728
2369	0.7736
2360	0.7744
2351	0.7751
2342	0.7757
2333	0.7761
2324	0.7767
2315	0.7776
2306	0.7787
2297	0.7798
2288	0.7808
2279	0.7822
2270	0.7841
2261	0.786
2252	0.7886
2243	0.7911
2234	0.7938
2225	0.7967
2216	0.7999
2207	0.803
2198	0.806
2189	0.8086
2180	0.8111
2171	0.8138
2162	0.8164
2153	0.8189
2144	0.8214
2135	0.8238
2126	0.8261
2117	0.8284
2108	0.8305
2099	0.8325
2090	0.8346
2081	0.8366
2072	0.8388
2063	0.8398
2054	0.841
2045	0.8425
2036	0.8461
2027	0.8528
2018	0.8536
2009	0.8536
2000	0.8503
1991	0.8378
1982	0.8382
1973	0.8409
1964	0.8516
1955	0.8467
1946	0.8417
1937	0.8403
1928	0.8404
1919	0.8411
1910	0.8306
1901	0.8136
1892	0.8382
1883	0.8391
1874	0.8436
1865	0.8481
1856	0.8516
1847	0.8546
1838	0.8547
1829	0.8464
1820	0.8471
1811	0.8455
1802	0.844
1793	0.8435
1784	0.8455
1775	0.8496
1766	0.8525
1757	0.8553
1748	0.8577
1739	0.8598
1730	0.863
1721	0.8628
1712	0.8568
1703	0.841
1694	0.7972
1685	0.5862
1676	0.1484
1667	0.2417
1658	0.4886
1649	0.5154
1640	0.5972
1631	0.7258
1622	0.7705
1613	0.7581
1604	0.1503
1595	0.598
1586	0.4187
1577	0.7496
1568	0.7984
1559	0.7805
1550	0.4685
1541	0.0892
1532	0.0744
1523	0.3482
1514	0.5407
1505	0.5916
1496	0.2984
1487	0.1858
1478	0.4456
1469	0.501
1460	0.5958
1451	0.5831
1442	0.6146
1433	0.6668
1424	0.6845
1415	0.6939
1406	0.6943
1397	0.1053
1388	0.3547
1379	0.5093
1370	0.4276
1361	0.5893
1352	0.6238
1343	0.6517
1334	0.6621
1325	0.6179
1316	0.2544
1307	0.2063
1298	0.4936
1289	0.4669
1280	0.6645
1271	0.7064
1262	0.3026
1253	0.3912
1244	0.612
1235	0.6545
1226	0.6864
1217	0.7128
1208	0.7367
1199	0.7612
1190	0.7781
1181	0.6062
1172	0.7684
1163	0.79
1154	0.7994
1145	0.8053
1136	0.8078
1127	0.8265
1118	0.8067
1109	0.7846
1100	0.8169
1091	0.8128
1082	0.8138
1073	0.3721
1064	0.743
1055	0.7725
1046	0.754
1037	0.7528
1028	0.7818
1019	0.6867
1010	0.1641
1001	0.6903
992	0.7668
983	0.79
974	0.7389
965	0.7599
956	0.7141
947	0.8043
938	0.7951
929	0.8396
920	0.8466
911	0.8513
902	0.854
893	0.8553
884	0.8565
875	0.8575
866	0.8543
857	0.8437
848	0.7121
839	0.6908
830	0.5299
821	0.2905
812	0.8445
803	0.8721
794	0.8717
785	0.8628
776	0.8411
767	0.7976
758	0.6968
749	0.5235
740	0.5115
731	0.6696
722	0.7308
713	0.8098
704	0.8521
695	0.8433
686	0.8065
677	0.8784
668	0.884
659	0.8886
650	0.8934
641	0.8998
632	0.9042
623	0.9075
614	0.9013
605	0.8186
596	0.9045
587	0.9249
578	0.9317
569	0.9106
560	0.9325
551	0.9413
542	0.9412
533	0.9368
524	0.9268
515	0.9096
506	0.5199
497	0.8902
488	0.9001
479	0.8992
470	0.8864
461	0.8625
452	0.8352
