Infrared Spectrum: 4-Acetamidophenol
Formula: C 8 H 9 N O 2
CAS: 103-90-2
State: gas
Instrument: HP-GC/MS/IRD
Origin: NIST Mass Spectrometry Data Center
1/CM	ABSORBANCE
550	0.0005572
562	0.000434
574	0.000378
586	0.000364
598	0.0004956
610	0.0005068
622	0.0004536
634	0.0004424
646	0.0003752
658	0.0002856
670	0.0001792
682	0.0001568
694	7.56e-05
706	8.4e-05
718	5.6e-06
730	8.4e-05
742	0.0001232
754	0.0001848
766	0.0004508
778	0.0010948
790	0.0015988
802	0.0015232
814	0.0023044
826	0.0031444
838	0.00259
850	0.0014084
862	0.0007448
874	0.0005264
886	0.0003724
898	0.0003556
910	0.0003388
922	0.0003556
934	0.0003696
946	0.0003864
958	0.0005012
970	0.0007616
982	0.0013104
994	0.0013972
1006	0.00105
1018	0.0008008
1030	0.0006468
1042	0.0007924
1054	0.0007672
1066	0.000826
1078	0.0009016
1090	0.0012712
1102	0.0014616
1114	0.0012208
1126	0.0010024
1138	0.0010416
1150	0.0019432
1162	0.00784
1174	0.0128044
1186	0.0074872
1198	0.0045752
1210	0.0053704
1222	0.007392
1234	0.0103544
1246	0.0081928
1258	0.0057652
1270	0.00294
1282	0.002786
1294	0.0040656
1306	0.0054376
1318	0.0052332
1330	0.0031836
1342	0.0017556
1354	0.001918
1366	0.0034384
1378	0.0031864
1390	0.0023828
1402	0.0031976
1414	0.0052444
1426	0.00525
1438	0.0031136
1450	0.002366
1462	0.002534
1474	0.0034832
1486	0.0060648
1498	0.0126868
1510	0.0274988
1522	0.0180824
1534	0.0053424
1546	0.0033824
1558	0.0022764
1570	0.0014364
1582	0.001162
1594	0.0013748
1606	0.0014784
1618	0.0011312
1630	0.0008792
1642	0.000728
1654	0.0007924
1666	0.001022
1678	0.0014056
1690	0.0021896
1702	0.0047992
1714	0.0122332
1726	0.0143052
1738	0.0080696
1750	0.003766
1762	0.001736
1774	0.0008316
1786	0.0005628
1798	0.0003836
1810	0.0003304
1822	0.0002576
1834	0.0002688
1846	0.0002884
1858	0.0003136
1870	0.000266
1882	0.0002128
1894	0.0001624
1906	0.000112
1918	8.68e-05
1930	8.4e-05
1942	5.32e-05
1954	5.6e-05
1966	4.76e-05
1978	3.08e-05
1990	5.04e-05
2002	7e-05
2014	5.32e-05
2026	5.88e-05
2038	9.8e-05
2050	7e-05
2062	5.32e-05
2074	8.4e-05
2086	7.56e-05
2098	3.64e-05
2110	2.24e-05
2122	4.76e-05
2134	4.2e-05
2146	5.04e-05
2158	3.36e-05
2170	2.24e-05
2182	1.96e-05
2194	8.4e-06
2206	3.92e-05
2218	2.52e-05
2230	4.2e-05
2242	1.96e-05
2254	1.96e-05
2266	6.72e-05
2278	3.36e-05
2290	6.44e-05
2302	2.8e-05
2314	2.8e-05
2326	6.16e-05
2338	6.72e-05
2350	9.24e-05
2362	7.28e-05
2374	7.56e-05
2386	6.72e-05
2398	7.84e-05
2410	0.0001372
2422	0.0001624
2434	0.0001736
2446	0.0001288
2458	8.4e-05
2470	7.84e-05
2482	0.0001176
2494	9.8e-05
2506	7.84e-05
2518	5.88e-05
2530	4.48e-05
2542	2.24e-05
2554	6.44e-05
2566	3.92e-05
2578	5.32e-05
2590	3.36e-05
2602	4.2e-05
2614	4.48e-05
2626	3.64e-05
2638	7.28e-05
2650	4.2e-05
2662	7e-05
2674	4.2e-05
2686	7.56e-05
2698	8.96e-05
2710	5.32e-05
2722	0.0001036
2734	0.0001036
2746	4.48e-05
2758	7.56e-05
2770	8.4e-05
2782	5.6e-05
2794	5.04e-05
2806	3.08e-05
2818	5.6e-05
2830	7e-05
2842	0.0001064
2854	9.8e-05
2866	0.0001148
2878	9.8e-05
2890	0.0001652
2902	0.0001876
2914	0.0002492
2926	0.0003752
2938	0.0005432
2950	0.0004984
2962	0.0003332
2974	0.0003416
2986	0.0003528
2998	0.0004676
3010	0.000784
3022	0.0012264
3034	0.001652
3046	0.0013188
3058	0.0007868
3070	0.0006356
3082	0.000546
3094	0.0004228
3106	0.0003276
3118	0.0002604
3130	0.0002044
3142	0.0001792
3154	5.6e-05
3166	4.48e-05
3178	6.72e-05
3190	9.52e-05
3202	8.68e-05
3214	7.84e-05
3226	9.52e-05
3238	4.2e-05
3250	9.24e-05
3262	1.4e-05
3274	1.96e-05
3286	6.72e-05
3298	1.4e-05
3310	6.16e-05
3322	0.0001316
3334	9.8e-05
3346	0.0001484
3358	0.000126
3370	0.0002016
3382	0.0001904
3394	0.0002968
3406	0.00042
3418	0.0005964
3430	0.000602
3442	0.000686
3454	0.0008092
3466	0.0009296
3478	0.0006888
3490	0.0003276
3502	0.0001848
3514	4.2e-05
3526	3.08e-05
3538	0.0001064
3550	0.0001176
3562	8.96e-05
3574	0.0001148
3586	9.8e-05
3598	0.0001092
3610	0.0001512
3622	0.000266
3634	0.001008
3646	0.0037408
3658	0.0045108
3670	0.0009884
3682	0.0002576
3694	0.0001232
3706	1.96e-05
3718	7.28e-05
3730	9.24e-05
3742	0.0001064
3754	5.6e-06
3766	2.24e-05
3778	8.4e-05
3790	0.0001232
3802	0.0001008
3814	0.0001036
3826	8.4e-05
3838	2.8e-06
