Infrared Spectrum: Azobenzene
Formula: C 12 H 10 N 2
CAS: 103-33-3
State: gas
Instrument: HP-GC/MS/IRD
Origin: NIST Mass Spectrometry Data Center
1/CM	ABSORBANCE
550	0.002704
562	0.000504
574	0.0001264
586	5.6e-05
598	1.44e-05
610	9.6e-06
622	0.000112
634	0.00036
646	0.0008128
658	0.001928
670	0.0046336
682	0.0121696
694	0.0146944
706	0.0066608
718	0.0025616
730	0.0020512
742	0.0020912
754	0.0054128
766	0.0140384
778	0.0122608
790	0.0034208
802	0.0009024
814	0.00068
826	0.0004192
838	0.0002448
850	0.0002976
862	0.0006288
874	0.0005056
886	0.0004304
898	0.0005296
910	0.0009392
922	0.001456
934	0.0010896
946	0.0005536
958	0.0002672
970	0.0002736
982	0.0004576
994	0.0008208
1006	0.0015936
1018	0.0036192
1030	0.0019024
1042	0.0005488
1054	0.0011632
1066	0.00196
1078	0.001312
1090	0.0006912
1102	0.0005632
1114	0.0003648
1126	0.0002752
1138	0.0007488
1150	0.0035664
1162	0.0031488
1174	0.0003408
1186	0.0001744
1198	0.0003168
1210	0.0007712
1222	0.000528
1234	0.0002768
1246	0.000208
1258	0.0002944
1270	0.0006224
1282	0.0010752
1294	0.0011024
1306	0.0012112
1318	0.0003936
1330	0.0003024
1342	0.000192
1354	0.0001872
1366	0.0002928
1378	0.0003648
1390	0.0003104
1402	0.0002384
1414	0.0003136
1426	0.0005632
1438	0.0011664
1450	0.0023616
1462	0.0019552
1474	0.0029504
1486	0.0052192
1498	0.0011088
1510	0.0006512
1522	0.000688
1534	0.0004272
1546	0.00028
1558	0.0003344
1570	0.0006064
1582	0.0011712
1594	0.0015776
1606	0.000824
1618	0.0003952
1630	0.0002288
1642	0.000248
1654	0.0002928
1666	0.000512
1678	0.000616
1690	0.000648
1702	0.0002848
1714	0.0002688
1726	0.0003792
1738	0.000488
1750	0.0005696
1762	0.00048
1774	0.0005072
1786	0.0008704
1798	0.0010928
1810	0.0004752
1822	0.0003408
1834	0.0002992
1846	0.0002496
1858	0.0003296
1870	0.0004992
1882	0.0007488
1894	0.0009232
1906	0.0005888
1918	0.0003728
1930	0.0006112
1942	0.0009648
1954	0.0011808
1966	0.0006816
1978	0.0001664
1990	8.48e-05
2002	4.96e-05
2014	8.16e-05
2026	8.48e-05
2038	7.2e-05
2050	4.48e-05
2062	2.72e-05
2074	8e-06
2086	2.56e-05
2098	3.36e-05
2110	3.68e-05
2122	4.32e-05
2134	4.32e-05
2146	4.8e-05
2158	5.12e-05
2170	4.16e-05
2182	1.76e-05
2194	4.8e-05
2206	8.48e-05
2218	8.8e-05
2230	0.0001232
2242	7.68e-05
2254	8.8e-05
2266	2.88e-05
2278	3.36e-05
2290	5.76e-05
2302	0.0001488
2314	0.0003856
2326	0.0001808
2338	0.0001648
2350	8.64e-05
2362	6.08e-05
2374	2.56e-05
2386	2.72e-05
2398	1.28e-05
2410	2.72e-05
2422	4.32e-05
2434	4.48e-05
2446	6.24e-05
2458	4.8e-05
2470	4.48e-05
2482	2.24e-05
2494	1.76e-05
2506	4.8e-06
2518	4.8e-05
2530	2.88e-05
2542	1.92e-05
2554	3.84e-05
2566	4.48e-05
2578	8.64e-05
2590	0.0001456
2602	9.76e-05
2614	9.28e-05
2626	6.08e-05
2638	5.44e-05
2650	7.84e-05
2662	8e-05
2674	6.88e-05
2686	7.04e-05
2698	6.08e-05
2710	7.36e-05
2722	0.0001408
2734	0.0002224
2746	0.000184
2758	0.0001808
2770	0.000184
2782	0.0001232
2794	8.64e-05
2806	0.00012
2818	9.28e-05
2830	0.0001072
2842	9.44e-05
2854	0.0001184
2866	0.0002496
2878	0.0002432
2890	0.0003056
2902	0.0002688
2914	0.0002096
2926	0.0002368
2938	0.0002416
2950	0.0003168
2962	0.000264
2974	0.000248
2986	0.0002816
2998	0.0004928
3010	0.0009808
3022	0.0020768
3034	0.0037584
3046	0.0054032
3058	0.0067168
3070	0.0124528
3082	0.0110544
3094	0.0058976
3106	0.0025888
3118	0.0009264
3130	0.0004736
3142	0.00032
3154	0.000288
3166	0.0003584
3178	0.0003136
3190	0.0001552
3202	0.0001248
3214	7.52e-05
3226	6.88e-05
3238	8.16e-05
3250	9.28e-05
3262	4.32e-05
3274	7.52e-05
3286	7.84e-05
3298	5.76e-05
3310	6.56e-05
3322	6.4e-05
3334	5.44e-05
3346	5.12e-05
3358	6.88e-05
3370	6.24e-05
3382	8.8e-05
3394	9.28e-05
3406	2.72e-05
3418	8.48e-05
3430	8.64e-05
3442	8.16e-05
3454	6.56e-05
3466	4.64e-05
3478	0
3490	8e-05
3502	3.84e-05
3514	8.32e-05
3526	4.64e-05
3538	7.2e-05
3550	9.12e-05
3562	4.96e-05
3574	7.36e-05
3586	7.04e-05
3598	7.84e-05
3610	0.0001104
3622	0.000152
3634	0.0001008
3646	9.44e-05
3658	0.0001296
3670	0.0001184
3682	0.000128
3694	0.0001504
3706	0.0001888
3718	0.0001488
3730	0.0001616
3742	0.0001344
3754	0.0001264
3766	0.000136
3778	9.6e-05
3790	0.0001392
3802	0.000136
3814	0.0001072
3826	0.0001136
3838	0.0001168
