Infrared Spectrum: ANTHRACENE, 9,10-DIFORMAMIDO-
Formula: C16 H12 N2 O2
CAS: 10303-96-5
State: SOLID (SPLIT MULL), FLUOROLUBE FOR 3800-1330 CM^-^1, NUJOL FOR 1330-400 CM^-^1, VS SCREEN
Melting point: MORE THAN 360 C
Class: COBLENTZ III
Instrument: DOW KBr FOREPRISM-GRATING
Instrument parameters: BLAZED AT 3.5, 12.0, 20.0 MICRON AND CHANGED AT 5.0, 7.5, 14.9 MICRON
Sampling: TRANSMISSION
Resolution: 2
Origin: DOW CHEMICAL COMPANY
1/CM	TRANSMITTANCE
422	0.6846
431	0.7428
440	0.7808
449	0.8274
458	0.8595
467	0.8757
476	0.8885
485	0.8968
494	0.9025
503	0.9024
512	0.9078
521	0.9055
530	0.8971
539	0.8796
548	0.8984
557	0.8893
566	0.7304
575	0.8866
584	0.8754
593	0.8443
602	0.5034
611	0.5549
620	0.8266
629	0.8583
638	0.8841
647	0.8754
656	0.8771
665	0.8663
674	0.848
683	0.8217
692	0.7748
701	0.7258
710	0.6761
719	0.6107
728	0.6168
737	0.5489
746	0.5935
755	0.4345
764	0.4573
773	0.7005
782	0.8266
791	0.8637
800	0.8771
809	0.8728
818	0.8843
827	0.8823
836	0.859
845	0.8064
854	0.7318
863	0.765
872	0.7962
881	0.8082
890	0.8125
899	0.7991
908	0.611
917	0.8677
926	0.8711
935	0.8616
944	0.871
953	0.8585
962	0.8682
971	0.8716
980	0.8704
989	0.8757
998	0.8734
1007	0.8618
1016	0.8418
1025	0.8065
1034	0.8351
1043	0.8603
1052	0.8602
1061	0.8571
1070	0.8528
1079	0.85
1088	0.8461
1097	0.8205
1106	0.7975
1115	0.8431
1124	0.8354
1133	0.824
1142	0.8037
1151	0.7617
1160	0.7431
1169	0.5191
1178	0.7321
1187	0.6532
1196	0.459
1205	0.4572
1214	0.6715
1223	0.7615
1232	0.8055
1241	0.8203
1250	0.8165
1259	0.8044
1268	0.7878
1277	0.6661
1286	0.669
1295	0.7249
1304	0.7175
1313	0.7501
1322	0.7283
1331	0.7171
1340	0.6418
1349	0.6425
1358	0.6412
1367	0.508
1376	0.4479
1385	0.3644
1394	0.3138
1403	0.2055
1412	0.5786
1421	0.6744
1430	0.6418
1439	0.6105
1448	0.5598
1457	0.6761
1466	0.6617
1475	0.638
1484	0.5995
1493	0.5179
1502	0.371
1511	0.1964
1520	0.1671
1529	0.5575
1538	0.2913
1547	0.516
1556	0.7015
1565	0.7039
1574	0.7158
1583	0.6996
1592	0.6643
1601	0.6553
1610	0.5694
1619	0.3829
1628	0.3091
1637	0.1808
1646	0.051
1655	0.0299
1664	0.135
1673	0.4207
1682	0.645
1691	0.7389
1700	0.8128
1709	0.8628
1718	0.8902
1727	0.8959
1736	0.8964
1745	0.8952
1754	0.8948
1763	0.8939
1772	0.8908
1781	0.8842
1790	0.8792
1799	0.8774
1808	0.8771
1817	0.8774
1826	0.8784
1835	0.8806
1844	0.88
1853	0.8759
1862	0.8734
1871	0.8715
1880	0.8693
1889	0.8656
1898	0.8587
1907	0.8502
1916	0.8448
1925	0.8475
1934	0.8432
1943	0.8397
1952	0.8368
1961	0.8355
1970	0.8401
1979	0.8408
1988	0.8358
1997	0.827
2006	0.8191
2015	0.8141
2024	0.8095
2033	0.8049
2042	0.8008
2051	0.7968
2060	0.7941
2069	0.7918
2078	0.791
2087	0.7903
2096	0.7883
2105	0.7838
2114	0.7791
2123	0.7747
2132	0.7701
2141	0.7656
2150	0.7608
2159	0.756
2168	0.7515
2177	0.7475
2186	0.7434
2195	0.7394
2204	0.7357
2213	0.7321
2222	0.7285
2231	0.7246
2240	0.7208
2249	0.7172
2258	0.7139
2267	0.7106
2276	0.7078
2285	0.7048
2294	0.7021
2303	0.7
2312	0.6985
2321	0.6968
2330	0.6955
2339	0.6944
2348	0.6933
2357	0.6918
2366	0.6899
2375	0.6878
2384	0.6861
2393	0.6844
2402	0.6826
2411	0.6808
2420	0.6791
2429	0.6775
2438	0.6762
2447	0.6748
2456	0.6733
2465	0.6715
2474	0.6688
2483	0.6656
2492	0.6625
2501	0.6603
2510	0.6581
2519	0.6558
2528	0.6546
2537	0.6534
2546	0.6521
2555	0.651
2564	0.6496
2573	0.6481
2582	0.6456
2591	0.643
2600	0.6405
2609	0.6379
2618	0.6347
2627	0.6297
2636	0.6248
2645	0.62
2654	0.6157
2663	0.6112
2672	0.6071
2681	0.603
2690	0.5991
2699	0.5968
2708	0.596
2717	0.5952
2726	0.593
2735	0.5904
2744	0.5879
2753	0.5857
2762	0.5836
2771	0.5814
2780	0.5788
2789	0.5762
2798	0.5724
2807	0.5681
2816	0.562
2825	0.5532
2834	0.5431
2843	0.5301
2852	0.5142
2861	0.504
2870	0.4932
2879	0.4837
2888	0.4762
2897	0.4674
2906	0.4588
2915	0.452
2924	0.4586
2933	0.4686
2942	0.4615
2951	0.4446
2960	0.4212
2969	0.4155
2978	0.4162
2987	0.4172
2996	0.4186
3005	0.4203
3014	0.4225
3023	0.4229
3032	0.4204
3041	0.4158
3050	0.4089
3059	0.4023
3068	0.3978
3077	0.3926
3086	0.3794
3095	0.3576
3104	0.3357
3113	0.3221
3122	0.3012
3131	0.2801
3140	0.2587
3149	0.2324
3158	0.2192
3167	0.2091
3176	0.1944
3185	0.1744
3194	0.141
3203	0.1276
3212	0.1331
3221	0.1564
3230	0.1967
3239	0.2572
3248	0.3024
3257	0.339
3266	0.3884
3275	0.4331
3284	0.4554
3293	0.4705
3302	0.4828
3311	0.4909
3320	0.4964
3329	0.4994
3338	0.4992
3347	0.4996
3356	0.501
3365	0.5048
3374	0.5122
3383	0.5162
3392	0.5157
3401	0.515
3410	0.5136
3419	0.5119
3428	0.5107
3437	0.5096
3446	0.5086
3455	0.5073
3464	0.506
3473	0.5057
3482	0.5079
3491	0.5081
3500	0.5075
3509	0.5068
3518	0.506
3527	0.505
3536	0.5039
3545	0.5027
3554	0.5019
3563	0.5012
3572	0.5006
3581	0.4998
3590	0.4987
3599	0.4976
3608	0.4965
3617	0.495
3626	0.4933
3635	0.4915
3644	0.4899
3653	0.4885
3662	0.4873
3671	0.486
3680	0.485
3689	0.4839
3698	0.4829
3707	0.4819
3716	0.4806
3725	0.4792
3734	0.478
3743	0.4765
3752	0.4751
3761	0.4737
3770	0.4723
3779	0.471
3788	0.4702
3797	0.4694
