Infrared Spectrum: 6Alpha-(p-NITROBENZAMIDO)-3Alpha,5-CYCLO-5Alpha-ANDROSTAN-17-ONE
Formula: C26 H32 N2 O4
CAS: 103064-86-4
State: SOLUTION (7% IN CHCl3 FOR 2.5-12.5 MICRON) VS. SOLVENT
Melting point: 165-168 C
Class: COBLENTZ
Instrument: PERKIN-ELMER 21 (GRATING)
Instrument parameters: FILTER CHANGE AT 10 MICRON
Sampling: TRANSMISSION
Path length: 0.01 CM
Resolution: 2
Origin: ABBOTT LABORATORIES
MICROMETERS	TRANSMITTANCE
2.508	0.908
2.53668	0.905
2.56537	0.902
2.59405	0.901
2.62274	0.901
2.65142	0.905
2.68011	0.911
2.70879	0.911
2.73748	0.904
2.76616	0.898
2.79485	0.897
2.82353	0.895
2.85222	0.895
2.8809	0.897
2.90958	0.82
2.93827	0.8
2.96695	0.835
2.99564	0.849
3.02432	0.852
3.05301	0.862
3.08169	0.891
3.11038	0.898
3.13906	0.905
3.16775	0.906
3.19643	0.906
3.22512	0.897
3.2538	0.876
3.28248	0.855
3.31117	0.839
3.33985	0.752
3.36854	0.665
3.39722	0.55
3.42591	0.516
3.45459	0.602
3.48328	0.639
3.51196	0.667
3.54065	0.731
3.56933	0.84
3.59802	0.87
3.6267	0.894
3.65538	0.898
3.68407	0.901
3.71275	0.907
3.74144	0.913
3.77012	0.914
3.79881	0.914
3.82749	0.914
3.85618	0.916
3.88486	0.917
3.91355	0.918
3.94223	0.917
3.97092	0.916
3.9996	0.916
4.02828	0.916
4.05697	0.914
4.08565	0.912
4.11434	0.91
4.14302	0.91
4.17171	0.913
4.20039	0.934
4.22908	0.932
4.25776	0.93
4.28645	0.93
4.31513	0.932
4.34382	0.932
4.3725	0.932
4.40118	0.926
4.42987	0.925
4.45855	0.924
4.48724	0.923
4.51592	0.924
4.54461	0.926
4.57329	0.928
4.60198	0.926
4.63066	0.928
4.65935	0.928
4.68803	0.928
4.71672	0.928
4.7454	0.928
4.77408	0.928
4.80277	0.924
4.83145	0.923
4.86014	0.923
4.88882	0.924
4.91751	0.925
4.94619	0.925
4.97488	0.925
5.00356	0.925
5.03225	0.925
5.06093	0.926
5.08962	0.926
5.1183	0.924
5.14698	0.917
5.17567	0.913
5.20435	0.911
5.23304	0.912
5.26172	0.913
5.29041	0.916
5.31909	0.917
5.34778	0.916
5.37646	0.913
5.40515	0.914
5.43383	0.914
5.46252	0.911
5.4912	0.912
5.51988	0.908
5.54857	0.904
5.57725	0.898
5.60594	0.894
5.63462	0.889
5.66331	0.862
5.69199	0.796
5.72068	0.623
5.74936	0.258
5.77805	0.276
5.80673	0.568
5.83542	0.735
5.8641	0.77
5.89278	0.756
5.92147	0.659
5.95015	0.38
5.97884	0.271
6.00752	0.286
6.03621	0.398
6.06489	0.57
6.09358	0.71
6.12226	0.77
6.15095	0.794
6.17963	0.789
6.20832	0.553
6.237	0.47
6.26568	0.631
6.29437	0.776
6.32305	0.797
6.35174	0.813
6.38042	0.814
6.40911	0.797
6.43779	0.766
6.46648	0.686
6.49516	0.58
6.52385	0.156
6.55253	0.143
6.58122	0.168
6.6099	0.257
6.63858	0.409
6.66727	0.617
6.69595	0.675
6.72464	0.556
6.75332	0.505
6.78201	0.568
6.81069	0.644
6.83938	0.692
6.86806	0.712
6.89675	0.687
6.92543	0.72
6.95412	0.765
6.9828	0.807
7.01148	0.843
7.04017	0.858
7.06885	0.864
7.09754	0.837
7.12622	0.759
7.15491	0.776
7.18359	0.795
7.21228	0.786
7.24096	0.75
7.26965	0.645
7.29833	0.644
7.32702	0.655
7.3557	0.613
7.38438	0.457
7.41307	0.273
7.44175	0.257
7.47044	0.314
7.49912	0.504
7.52781	0.634
7.55649	0.669
7.58518	0.619
7.61386	0.554
7.64255	0.604
7.67123	0.681
7.69992	0.7
7.7286	0.689
7.75728	0.692
7.78597	0.622
7.81465	0.604
7.84334	0.676
7.87202	0.591
7.90071	0.541
7.92939	0.601
7.95808	0.645
7.98676	0.675
8.01545	0.71
8.04413	0.719
8.07282	0.702
8.1015	0.693
8.13018	0.695
8.15887	0.713
8.18755	0.726
8.21624	0.737
8.24492	0.748
8.27361	0.761
8.30229	0.766
8.33098	0.797
8.35966	0.85
8.38835	0.881
8.41703	0.891
8.44572	0.891
8.4744	0.831
8.50308	0.833
8.53177	0.843
8.56045	0.845
8.58914	0.844
8.61782	0.847
8.64651	0.849
8.67519	0.835
8.70388	0.82
8.73256	0.8
8.76125	0.782
8.78993	0.765
8.81862	0.771
8.8473	0.797
8.87598	0.816
8.90467	0.814
8.93335	0.807
8.96204	0.779
8.99072	0.772
9.01941	0.741
9.04809	0.68
9.07678	0.699
9.10546	0.746
9.13415	0.742
9.16283	0.743
9.19152	0.779
9.2202	0.783
9.24888	0.777
9.27757	0.768
9.30625	0.78
9.33494	0.779
9.36362	0.776
9.39231	0.776
9.42099	0.783
9.44968	0.795
9.47836	0.78
9.50705	0.75
9.53573	0.73
9.56442	0.732
9.5931	0.758
9.62178	0.776
9.65047	0.795
9.67915	0.829
9.70784	0.835
9.73652	0.834
9.76521	0.796
9.79389	0.738
9.82258	0.746
9.85126	0.691
9.87995	0.613
9.90863	0.726
9.93732	0.788
9.966	0.804
9.99468	0.797
10.0234	0.764
10.0521	0.794
10.0807	0.808
10.1094	0.82
10.1381	0.825
10.1668	0.831
10.1955	0.838
10.2242	0.853
10.2528	0.861
10.2815	0.862
10.3102	0.858
10.3389	0.843
10.3676	0.832
10.3963	0.837
10.425	0.85
10.4536	0.858
10.4823	0.868
10.511	0.869
10.5397	0.87
10.5684	0.876
10.5971	0.883
10.6257	0.889
10.6544	0.906
10.6831	0.912
10.7118	0.914
10.7405	0.919
10.7692	0.924
10.7979	0.936
10.8265	0.937
10.8552	0.92
10.8839	0.898
10.9126	0.893
10.9413	0.892
10.97	0.893
10.9986	0.892
11.0273	0.882
11.056	0.877
11.0847	0.882
11.1134	0.887
11.1421	0.887
11.1708	0.888
11.1994	0.888
11.2281	0.883
11.2568	0.87
11.2855	0.845
11.3142	0.849
11.3429	0.853
11.3715	0.85
11.4002	0.851
11.4289	0.852
11.4576	0.843
11.4863	0.8
11.515	0.701
11.5437	0.615
11.5723	0.62
11.601	0.694
11.6297	0.776
11.6584	0.816
11.6871	0.843
11.7158	0.841
11.7444	0.827
11.7731	0.776
11.8018	0.659
11.8305	0.549
11.8592	0.549
11.8879	0.631
11.9166	0.701
11.9452	0.738
11.9739	0.759
12.0026	0.766
12.0313	0.798
12.06	0.833
12.0887	0.851
12.1173	0.858
12.146	0.864
12.1747	0.868
12.2034	0.874
12.2321	0.875
12.2608	0.893
12.2895	0.912
12.3181	0.925
12.3468	0.929
12.3755	0.928
12.4042	0.925
12.4329	0.926
12.4616	0.929
12.4902	0.93
12.5189	0.936
12.5476	0.937
12.5763	0.941
12.605	0.949
12.6337	0.953
12.6624	0.959
12.691	0.959
12.7197	0.962
12.7484	0.964
12.7771	0.965
12.8058	0.964
12.8345	0.965
12.8631	0.965
12.8918	0.967
12.9205	0.97
12.9492	0.973
12.9779	0.973
13.0066	0.973
13.0353	0.974
13.0639	0.977
13.0926	0.978
13.1213	0.979
13.15	0.979
13.1787	0.979
13.2074	0.982
13.236	0.98
13.2647	0.98
13.2934	0.977
13.3221	0.979
13.3508	0.98
13.3795	0.98
13.4082	0.988
13.4368	0.985
13.4655	0.984
13.4942	0.984
13.5229	0.986
13.5516	0.989
13.5803	0.989
13.6089	0.989
13.6376	0.989
13.6663	0.991
13.695	0.992
