Infrared Spectrum: Endosulfan sulfate
Formula: C 9 H 6 Cl 6 O 4 S
CAS: 1031-07-8
State: gas
Instrument: HP-GC/MS/IRD
Origin: NIST Mass Spectrometry Data Center
1/CM	ABSORBANCE
550	0.0011816
562	0.0001092
574	0.0002856
586	0.000224
598	0.0012796
610	0.0002072
622	0.0017192
634	0.001834
646	0.0003304
658	0.000196
670	0.00084
682	0.0020048
694	0.001008
706	0.0004452
718	0.0007392
730	0.0010136
742	0.0015568
754	0.0044296
766	0.0089152
778	0.0060816
790	0.005012
802	0.00658
814	0.012124
826	0.0030268
838	0.0012852
850	0.0018536
862	0.0038304
874	0.0018676
886	0.0015428
898	0.0016464
910	0.0028672
922	0.0017892
934	0.0012516
946	0.0005572
958	0.000924
970	0.0024332
982	0.0027748
994	0.004424
1006	0.0085568
1018	0.0164192
1030	0.0190148
1042	0.0068404
1054	0.0060732
1066	0.0054684
1078	0.0059444
1090	0.0047012
1102	0.0043904
1114	0.001386
1126	0.0009884
1138	0.0009632
1150	0.001862
1162	0.0029932
1174	0.0028252
1186	0.0028672
1198	0.0157612
1210	0.0165312
1222	0.004844
1234	0.001344
1246	0.0023436
1258	0.0025788
1270	0.0030016
1282	0.000854
1294	0.0003892
1306	0.0003864
1318	0.0003304
1330	0.000378
1342	0.0003948
1354	0.0002464
1366	0.00021
1378	0.000686
1390	0.0008484
1402	0.0005908
1414	0.001638
1426	0.0068208
1438	0.028
1450	0.0041944
1462	0.0010696
1474	0.0005012
1486	0.000322
1498	0.000336
1510	0.0001288
1522	7.56e-05
1534	8.68e-05
1546	7.28e-05
1558	0.00021
1570	0.000336
1582	0.0004928
1594	0.0022848
1606	0.0026096
1618	0.000392
1630	0.0001204
1642	6.16e-05
1654	3.64e-05
1666	4.48e-05
1678	0
1690	5.6e-06
1702	1.4e-05
1714	3.08e-05
1726	6.16e-05
1738	5.04e-05
1750	5.04e-05
1762	7e-05
1774	7.56e-05
1786	9.8e-05
1798	8.96e-05
1810	8.12e-05
1822	5.04e-05
1834	3.36e-05
1846	1.96e-05
1858	2.52e-05
1870	1.68e-05
1882	3.08e-05
1894	3.64e-05
1906	5.6e-05
1918	5.6e-05
1930	8.12e-05
1942	0.0001064
1954	0.0001428
1966	0.0001232
1978	0.00014
1990	7.56e-05
2002	9.52e-05
2014	0.0001316
2026	0.0001092
2038	9.8e-05
2050	9.8e-05
2062	0.0001092
2074	0.0001148
2086	0.0001092
2098	8.68e-05
2110	0.0001204
2122	0.000126
2134	0.000126
2146	0.000112
2158	0.0001204
2170	0.0001204
2182	0.000126
2194	0.0001288
2206	0.0001428
2218	0.0001428
2230	0.0001484
2242	0.000126
2254	0.0001456
2266	0.0001148
2278	0.0001204
2290	0.000126
2302	0.0001148
2314	0.0001092
2326	0.000126
2338	0.00014
2350	0.0001288
2362	0.0001232
2374	0.0001148
2386	0.0001232
2398	0.0001652
2410	0.0001372
2422	0.0001316
2434	0.0001428
2446	0.0001512
2458	0.0001204
2470	0.0001512
2482	0.0001176
2494	0.000154
2506	0.0001428
2518	0.0001484
2530	0.0001204
2542	0.0001288
2554	0.0001372
2566	0.0001232
2578	0.000126
2590	0.0001176
2602	0.000154
2614	0.0001372
2626	0.0002016
2638	0.0002128
2650	0.0001568
2662	0.0001428
2674	0.0001092
2686	0.000154
2698	0.0001484
2710	0.0001176
2722	0.00014
2734	0.0001456
2746	0.0001484
2758	0.0001344
2770	0.0001288
2782	0.0001624
2794	0.00014
2806	0.0001456
2818	0.0001764
2830	0.000168
2842	0.0001484
2854	0.0001708
2866	0.0001904
2878	0.0001876
2890	0.0001876
2902	0.0002716
2914	0.000406
2926	0.000364
2938	0.0003976
2950	0.0004732
2962	0.0006384
2974	0.00077
2986	0.0008484
2998	0.0005908
3010	0.0004032
3022	0.000182
3034	0.0001372
3046	0.0001484
3058	0.0001344
3070	0.0001316
3082	0.0001372
3094	0.0001344
3106	0.0001344
3118	0.0001316
3130	0.0001708
3142	0.0001316
3154	0.000154
3166	0.0001624
3178	0.0001596
3190	0.0001372
3202	0.000154
3214	0.000126
3226	0.0001372
3238	0.0001344
3250	0.0001288
3262	0.0001148
3274	0.0001316
3286	0.0001708
3298	0.0001176
3310	0.0002128
3322	0.0001624
3334	0.0001428
3346	0.0001484
3358	0.000168
3370	0.000182
3382	0.0001484
3394	0.000112
3406	0.000126
3418	0.0001764
3430	0.0001652
3442	0.000168
3454	0.0001652
3466	0.0001232
3478	0.0001596
3490	0.0001848
3502	0.00014
3514	0.0001988
3526	0.0001428
3538	0.0001484
3550	0.0001848
3562	0.000126
3574	0.0001456
3586	0.0001064
3598	0.0001456
3610	0.0001736
3622	0.0002016
3634	0.0001596
3646	0.0001428
3658	0.0001764
3670	0.0001904
3682	0.0001568
3694	0.000196
3706	0.00021
3718	0.0001876
3730	0.000224
3742	0.0002016
3754	0.000182
3766	0.0001932
3778	0.0001624
3790	0.0001652
3802	0.0002044
3814	0.0002324
3826	0.0002352
3838	0.0002464
