Infrared Spectrum: 3,20-BISETHYLENEDIOXY-16Alpha-HYDROXYMETHYL-5-PREGNENE
Formula: C26 H40 O5
CAS: 103189-18-0
State: SOLUTION (0.2M IN CHCl3 FOR 2.5-12.5 MICRON) VS. SOLVENT
Class: COBLENTZ
Instrument: PERKIN-ELMER 21 (GRATING)
Instrument parameters: FILTER CHANGE AT 10 MICRON
Sampling: TRANSMISSION
Path length: 0.010 CM
Resolution: 2
Origin: ABBOTT LABORATORIES
MICROMETERS	TRANSMITTANCE
2.508	0.92
2.53664	0.92
2.56528	0.922
2.59392	0.922
2.62256	0.922
2.6512	0.924
2.67984	0.925
2.70848	0.928
2.73711	0.928
2.76575	0.897
2.79439	0.868
2.82303	0.891
2.85167	0.883
2.88031	0.79
2.90895	0.671
2.93759	0.613
2.96623	0.598
2.99487	0.632
3.02351	0.73
3.05215	0.803
3.08079	0.845
3.10943	0.869
3.13807	0.885
3.16671	0.892
3.19534	0.895
3.22398	0.897
3.25262	0.897
3.28126	0.892
3.3099	0.84
3.33854	0.389
3.36718	0.237
3.39582	0.173
3.42446	0.179
3.4531	0.217
3.48174	0.213
3.51038	0.308
3.53902	0.453
3.56766	0.628
3.5963	0.795
3.62493	0.851
3.65357	0.867
3.68221	0.875
3.71085	0.876
3.73949	0.877
3.76813	0.877
3.79677	0.879
3.82541	0.883
3.85405	0.892
3.88269	0.894
3.91133	0.904
3.93997	0.904
3.96861	0.904
3.99725	0.902
4.02589	0.898
4.05453	0.891
4.08316	0.883
4.1118	0.881
4.14044	0.885
4.16908	0.895
4.19772	0.924
4.22636	0.932
4.255	0.934
4.28364	0.934
4.31228	0.932
4.34092	0.93
4.36956	0.924
4.3982	0.919
4.42684	0.918
4.45548	0.917
4.48412	0.917
4.51275	0.917
4.54139	0.917
4.57003	0.917
4.59867	0.917
4.62731	0.917
4.65595	0.916
4.68459	0.914
4.71323	0.913
4.74187	0.912
4.77051	0.91
4.79915	0.907
4.82779	0.906
4.85643	0.905
4.88507	0.905
4.91371	0.906
4.94234	0.906
4.97098	0.906
4.99962	0.907
5.02826	0.907
5.0569	0.91
5.08554	0.911
5.11418	0.911
5.14282	0.911
5.17146	0.911
5.2001	0.91
5.22874	0.907
5.25738	0.907
5.28602	0.907
5.31466	0.907
5.3433	0.907
5.37194	0.907
5.40057	0.907
5.42921	0.908
5.45785	0.911
5.48649	0.912
5.51513	0.913
5.54377	0.914
5.57241	0.914
5.60105	0.914
5.62969	0.913
5.65833	0.913
5.68697	0.913
5.71561	0.912
5.74425	0.91
5.77289	0.907
5.80153	0.905
5.83016	0.904
5.8588	0.904
5.88744	0.904
5.91608	0.904
5.94472	0.902
5.97336	0.895
6.002	0.874
6.03064	0.87
6.05928	0.874
6.08792	0.879
6.11656	0.879
6.1452	0.879
6.17384	0.879
6.20248	0.879
6.23112	0.879
6.25976	0.881
6.28839	0.883
6.31703	0.886
6.34567	0.889
6.37431	0.891
6.40295	0.891
6.43159	0.892
6.46023	0.895
6.48887	0.906
6.51751	0.906
6.54615	0.907
6.57479	0.906
6.60343	0.894
6.63207	0.88
6.66071	0.876
6.68935	0.875
6.71798	0.858
6.74662	0.822
6.77526	0.771
6.8039	0.705
6.83254	0.653
6.86118	0.578
6.88982	0.534
6.91846	0.506
6.9471	0.564
6.97574	0.547
7.00438	0.529
7.03302	0.519
7.06166	0.542
7.0903	0.661
7.11894	0.755
7.14758	0.777
7.17621	0.784
7.20485	0.725
7.23349	0.613
7.26213	0.45
7.29077	0.421
7.31941	0.501
7.34805	0.507
7.37669	0.493
7.40533	0.552
7.43397	0.637
7.46261	0.667
7.49125	0.65
7.51989	0.661
7.54853	0.688
7.57717	0.719
7.6058	0.71
7.63444	0.687
7.66308	0.687
7.69172	0.695
7.72036	0.713
7.749	0.724
7.77764	0.741
7.80628	0.764
7.83492	0.76
7.86356	0.72
7.8922	0.629
7.92084	0.524
7.94948	0.469
7.97812	0.438
8.00676	0.41
8.03539	0.374
8.06403	0.322
8.09267	0.27
8.12131	0.253
8.14995	0.249
8.17859	0.252
8.20723	0.269
8.23587	0.279
8.26451	0.283
8.29315	0.291
8.32179	0.298
8.35043	0.311
8.37907	0.367
8.40771	0.535
8.43635	0.641
8.46499	0.686
8.49362	0.698
8.52226	0.718
8.5509	0.72
8.57954	0.693
8.60818	0.651
8.63682	0.582
8.66546	0.437
8.6941	0.35
8.72274	0.364
8.75138	0.382
8.78002	0.361
8.80866	0.336
8.8373	0.325
8.86594	0.332
8.89458	0.347
8.92321	0.378
8.95185	0.389
8.98049	0.4
9.00913	0.395
9.03777	0.329
9.06641	0.221
9.09505	0.13
9.12369	0.102
9.15233	0.098
9.18097	0.105
9.20961	0.178
9.23825	0.233
9.26689	0.226
9.29553	0.156
9.32417	0.153
9.35281	0.185
9.38144	0.209
9.41008	0.234
9.43872	0.287
9.46736	0.312
9.496	0.264
9.52464	0.195
9.55328	0.167
9.58192	0.2
9.61056	0.211
9.6392	0.203
9.66784	0.215
9.69648	0.24
9.72512	0.239
9.75376	0.196
9.7824	0.183
9.81103	0.219
9.83967	0.253
9.86831	0.31
9.89695	0.366
9.92559	0.429
9.95423	0.463
9.98287	0.474
10.0115	0.525
10.0401	0.572
10.0688	0.598
10.0974	0.605
10.1261	0.602
10.1547	0.576
10.1833	0.565
10.212	0.584
10.2406	0.631
10.2693	0.656
10.2979	0.658
10.3265	0.652
10.3552	0.655
10.3838	0.664
10.4125	0.633
10.4411	0.565
10.4697	0.538
10.4984	0.546
10.527	0.488
10.5557	0.398
10.5843	0.324
10.6129	0.376
10.6416	0.487
10.6702	0.617
10.6989	0.708
10.7275	0.766
10.7561	0.8
10.7848	0.816
10.8134	0.825
10.8421	0.829
10.8707	0.832
10.8993	0.831
10.928	0.821
10.9566	0.789
10.9852	0.774
11.0139	0.783
11.0425	0.797
11.0712	0.802
11.0998	0.797
11.1284	0.779
11.1571	0.759
11.1857	0.752
11.2144	0.748
11.243	0.747
11.2716	0.744
11.3003	0.742
11.3289	0.737
11.3576	0.729
11.3862	0.716
11.4148	0.701
11.4435	0.669
11.4721	0.644
11.5008	0.621
11.5294	0.578
11.558	0.546
11.5867	0.519
11.6153	0.512
11.644	0.516
11.6726	0.536
11.7012	0.573
11.7299	0.628
11.7585	0.671
11.7872	0.7
11.8158	0.719
11.8444	0.736
11.8731	0.752
11.9017	0.756
11.9303	0.762
11.959	0.772
11.9876	0.783
12.0163	0.789
12.0449	0.79
12.0735	0.791
12.1022	0.791
12.1308	0.79
12.1595	0.767
12.1881	0.697
12.2167	0.662
12.2454	0.674
12.274	0.725
12.3027	0.768
12.3313	0.8
12.3599	0.808
12.3886	0.81
12.4172	0.808
12.4459	0.804
12.4745	0.802
12.5031	0.814
