Infrared Spectrum: Diphenyl p-tolyphosphine
Formula: C 19 H 17 P
CAS: 1031-93-2
State: gas
Origin: EPA-IR VAPOR PHASE LIBRARY
1/CM	ABSORBANCE
549.8	0.003252
559.445	0.002222
569.09	0.002452
578.734	0.002232
588.379	0.002202
598.024	0.003912
607.669	0.010782
617.313	0.019182
626.958	0.012722
636.603	0.005582
646.248	0.004472
655.893	0.006192
665.537	0.013192
675.182	0.023922
684.827	0.045192
694.472	0.110552
704.116	0.068512
713.761	0.033752
723.406	0.024172
733.051	0.051242
742.695	0.089932
752.34	0.026082
761.985	0.012132
771.63	0.007882
781.275	0.008542
790.919	0.012642
800.564	0.044302
810.209	0.034282
819.854	0.007872
829.498	0.004482
839.143	0.004162
848.788	0.003762
858.433	0.002582
868.078	0.002052
877.722	0.001642
887.367	0.001392
897.012	0.001672
906.657	0.003072
916.301	0.003472
925.946	0.002462
935.591	0.002612
945.236	0.002082
954.88	0.002012
964.525	0.002172
974.17	0.002222
983.815	0.002952
993.46	0.005792
1003.1	0.008402
1012.75	0.010032
1022.39	0.026362
1032.04	0.014462
1041.68	0.005482
1051.33	0.005492
1060.97	0.006972
1070.62	0.010532
1080.26	0.026352
1089.91	0.046702
1099.55	0.017622
1109.2	0.009242
1118.84	0.006752
1128.49	0.004392
1138.13	0.002982
1147.78	0.002292
1157.42	0.003142
1167.07	0.003372
1176.71	0.009692
1186.36	0.025662
1196	0.010382
1205.64	0.004782
1215.29	0.003212
1224.93	0.003622
1234.58	0.004702
1244.22	0.004302
1253.87	0.004452
1263.51	0.005972
1273.16	0.005882
1282.8	0.003552
1292.45	0.005262
1302.09	0.008752
1311.74	0.009132
1321.38	0.008052
1331.03	0.006182
1340.67	0.004872
1350.32	0.004502
1359.96	0.004432
1369.61	0.005712
1379.25	0.006802
1388.9	0.009372
1398.54	0.012532
1408.18	0.011132
1417.83	0.012232
1427.47	0.025852
1437.12	0.038772
1446.76	0.013602
1456.41	0.011622
1466.05	0.016442
1475.7	0.028722
1485.34	0.036852
1494.99	0.038852
1504.63	0.019972
1514.28	0.008462
1523.92	0.006432
1533.57	0.006122
1543.21	0.005722
1552.86	0.005292
1562.5	0.006102
1572.15	0.009472
1581.79	0.018782
1591.44	0.018022
1601.08	0.011902
1610.73	0.007532
1620.37	0.005182
1630.01	0.005292
1639.66	0.006662
1649.3	0.006642
1658.95	0.004882
1668.59	0.002512
1678.24	0.001812
1687.88	0.001562
1697.53	0.001522
1707.17	0.001662
1716.82	0.001662
1726.46	0.001842
1736.11	0.002152
1745.75	0.003622
1755.4	0.003902
1765.04	0.002972
1774.69	0.003312
1784.33	0.003892
1793.98	0.007482
1803.62	0.009362
1813.27	0.006432
1822.91	0.004442
1832.55	0.002512
1842.2	0.002142
1851.84	0.002422
1861.49	0.003062
1871.13	0.005562
1880.78	0.007522
1890.42	0.008472
1900.07	0.007082
1909.71	0.004622
1919.36	0.002782
1929	0.003052
1938.65	0.005342
1948.29	0.007172
1957.94	0.006402
1967.58	0.003652
1977.23	0.001572
1986.87	0.001292
1996.52	0.0012604
2006.16	0.0010733
2015.81	0.0010154
2025.45	0.0008184
2035.1	0.0006433
2044.74	0.0006532
2054.38	0.0005792
2064.03	0.0005948
2073.67	0.0006748
2083.32	0.000713
2092.96	0.0007403
2102.61	0.0008112
2112.25	0.0009114
2121.9	0.0008557
2131.54	0.0006854
2141.19	0.0006529
2150.83	0.0007051
2160.48	0.0007326
2170.12	0.0011819
2179.77	0.0011748
2189.41	0.0009385
2199.06	0.0006022
2208.7	0.0007745
2218.35	0.0006964
2227.99	0.0007883
2237.64	0.0008904
2247.28	0.0007552
2256.92	0.0008706
2266.57	0.0010309
2276.21	0.0007649
2285.86	0.0009721
2295.5	0.0010512
2305.15	0.001502
2314.79	0.002192
2324.44	0.001402
2334.08	0.001332
2343.73	0.001512
2353.37	0.0011753
2363.02	0.0011187
2372.66	0.0010133
2382.31	0.0012372
2391.95	0.0011078
2401.6	0.001282
2411.24	0.001032
2420.89	0.0012086
2430.53	0.0009452
2440.18	0.0008517
2449.82	0.0007923
2459.47	0.0007903
2469.11	0.0007735
2478.75	0.0009055
2488.4	0.0008936
2498.04	0.0009801
2507.69	0.0009452
2517.33	0.0007739
2526.98	0.000744
2536.62	0.0007733
2546.27	0.0008211
2555.91	0.0010357
2565.56	0.001312
2575.2	0.001622
2584.85	0.002012
2594.49	0.001822
2604.14	0.001632
2613.78	0.001552
2623.43	0.001342
2633.07	0.0009313
2642.72	0.0011335
2652.36	0.0011518
2662.01	0.001352
2671.65	0.001622
2681.29	0.001402
2690.94	0.001362
2700.58	0.0012035
2710.23	0.0009762
2719.87	0.0009985
2729.52	0.0012797
2739.16	0.002082
2748.81	0.001722
2758.45	0.0011201
2768.1	0.001127
2777.74	0.0011518
2787.39	0.001542
2797.03	0.001652
2806.68	0.001922
2816.32	0.002072
2825.97	0.002302
2835.61	0.003252
2845.26	0.004612
2854.9	0.006692
2864.55	0.011122
2874.19	0.015642
2883.84	0.016132
2893.48	0.013612
2903.12	0.012752
2912.77	0.014982
2922.41	0.022612
2932.06	0.035822
2941.7	0.024192
2951.35	0.013832
2960.99	0.011932
2970.64	0.012392
2980.28	0.014132
2989.93	0.017792
2999.57	0.025862
3009.22	0.039152
3018.86	0.058672
3028.51	0.041182
3038.15	0.039082
3047.8	0.054282
3057.44	0.105552
3067.09	0.117972
3076.73	0.084612
3086.38	0.044682
3096.02	0.020292
3105.67	0.010332
3115.31	0.006662
3124.95	0.005722
3134.6	0.006132
3144.24	0.005392
3153.89	0.002452
3163.53	0.001982
3173.18	0.001392
3182.82	0.0012228
3192.47	0.0011491
3202.11	0.0011553
3211.76	0.0008821
3221.4	0.000687
3231.05	0.0006613
3240.69	0.0007225
3250.34	0.0007554
3259.98	0.0005316
3269.63	0.0007569
3279.27	0.0008113
3288.92	0.00035528
3298.56	0.0006984
3308.21	0.0005724
3317.85	0.0006833
3327.49	0.0006526
3337.14	0.0004769
3346.78	0.0005309
3356.43	0.0005872
3366.07	0.0004018
3375.72	0.0003856
3385.36	0.000283455
3395.01	0.0006099
3404.65	0.000386
3414.3	0.0005372
3423.94	0.0005054
3433.59	0.0007451
3443.23	0.0006
3452.88	0.0003836
3462.52	0.00032862
3472.17	0.0004073
3481.81	0.0006166
3491.46	0.0004595
3501.1	0.0006215
3510.75	0.00036411
3520.39	0.00029763
3530.04	0.000166
3539.68	0.0004871
3549.32	0.000159
3558.97	0.0004784
3568.61	0
3578.26	0.00033137
3587.9	0.000117
3597.55	0.0003841
3607.19	0.0004673
3616.84	0.0004213
3626.48	0.0008345
3636.13	0.0005043
3645.77	0.0007216
3655.42	0.0007031
3665.06	0.0007336
3674.71	0.0009113
3684.35	0.0010564
3694	0.001442
3703.64	0.000945
3713.29	0.0005949
3722.93	0.000263
3732.58	0.000489
3742.22	0.0008129
3751.86	0.000671
3761.51	0.0007955
3771.15	0.0002187
3780.8	0.0004542
3790.44	0.0004031
3800.09	0.0004178
3809.73	0.00027896
3819.38	0.000269
3829.02	0.0007814
3838.67	0.000673
3848.31	0.00029527
3857.96	0.0005839
3867.6	0.0004925
3877.25	0.00033919
3886.89	0.000249
3896.54	0.0004096
3906.18	0.0004019
3915.83	0.0004599
3925.47	0.000165
3935.12	0.000384
3944.76	0.0006007
3954.41	0.000559
3964.05	0.0006404
3973.69	0.0007648
3983.34	0.0009469
3992.98	0.0007491
