Infrared Spectrum: CYSTEINE HYDROCHLORIDE
Formula: C3 H7 N O2 S  * H Cl
CAS: 10318-18-0
State: SOLID (MINERAL OIL MULL)
Class: COBLENTZ
Instrument: Not specified, most likely a prism, grating, or hybrid spectrometer.
Sampling: TRANSMISSION
Resolution: 4
Origin: WYANDOTTE CHEMICALS CORP., WYANDOTTE, MICHIGAN, USA
MICROMETERS	TRANSMITTANCE
2.012	0.653
2.04919	0.666
2.08637	0.666
2.12356	0.672
2.16075	0.687
2.19793	0.687
2.23512	0.683
2.27231	0.687
2.30949	0.712
2.34668	0.736
2.38387	0.753
2.42105	0.779
2.45824	0.801
2.49543	0.821
2.53261	0.827
2.5698	0.855
2.60699	0.88
2.64417	0.903
2.68136	0.928
2.71855	0.937
2.75573	0.922
2.79292	0.844
2.83011	0.742
2.86729	0.631
2.90448	0.503
2.94167	0.4
2.97885	0.324
3.01604	0.279
3.05323	0.336
3.09041	0.295
3.1276	0.197
3.16479	0.116
3.20197	0.076
3.23916	0.069
3.27635	0.062
3.31353	0.059
3.35072	0.051
3.38791	0.038
3.42509	0.037
3.46228	0.037
3.49947	0.04
3.53666	0.038
3.57384	0.051
3.61103	0.066
3.64822	0.072
3.6854	0.077
3.72259	0.091
3.75978	0.113
3.79696	0.128
3.83415	0.11
3.87134	0.127
3.90852	0.156
3.94571	0.142
3.9829	0.156
4.02008	0.194
4.05727	0.232
4.09446	0.257
4.13164	0.327
4.16883	0.327
4.20602	0.355
4.2432	0.422
4.28039	0.451
4.31758	0.478
4.35476	0.524
4.39195	0.572
4.42914	0.591
4.46632	0.6
4.50351	0.618
4.5407	0.621
4.57788	0.633
4.61507	0.655
4.65226	0.661
4.68944	0.669
4.72663	0.678
4.76382	0.656
4.801	0.658
4.83819	0.653
4.87538	0.677
4.91256	0.69
4.94975	0.698
4.98694	0.677
5.02412	0.628
5.06131	0.503
5.0985	0.431
5.13568	0.4
5.17287	0.454
5.21006	0.545
5.24724	0.6
5.28443	0.684
5.32162	0.725
5.3588	0.753
5.39599	0.76
5.43318	0.757
5.47036	0.76
5.50755	0.757
5.54474	0.746
5.58192	0.692
5.61911	0.649
5.6563	0.576
5.69348	0.333
5.73067	0.107
5.76786	0.083
5.80504	0.128
5.84223	0.232
5.87942	0.295
5.9166	0.366
5.95379	0.464
5.99098	0.495
6.02816	0.49
6.06535	0.461
6.10254	0.434
6.13972	0.388
6.17691	0.352
6.2141	0.222
6.25128	0.284
6.28847	0.256
6.32566	0.267
6.36284	0.349
6.40003	0.422
6.43722	0.422
6.4744	0.36
6.51159	0.209
6.54878	0.161
6.58597	0.153
6.62315	0.104
6.66034	0.077
6.69753	0.118
6.73471	0.195
6.7719	0.183
6.80909	0.136
6.84627	0.142
6.88346	0.139
6.92065	0.116
6.95783	0.131
6.99502	0.226
7.03221	0.288
7.06939	0.195
7.10658	0.131
7.14377	0.175
7.18095	0.305
7.21814	0.29
7.25533	0.254
7.29251	0.363
7.3297	0.381
7.36689	0.287
7.40407	0.172
7.44126	0.31
7.47845	0.461
7.51563	0.489
7.55282	0.383
7.59001	0.31
7.62719	0.44
7.66438	0.51
7.70157	0.538
7.73875	0.549
7.77594	0.503
7.81313	0.44
7.85031	0.413
7.8875	0.427
7.92469	0.403
7.96187	0.341
7.99906	0.265
8.03625	0.184
8.07343	0.121
8.11062	0.082
8.14781	0.074
8.18499	0.071
8.22218	0.1
8.25937	0.08
8.29655	0.066
8.33374	0.077
8.37093	0.119
8.40811	0.184
8.4453	0.25
8.48249	0.307
8.51967	0.368
8.55686	0.397
8.59405	0.42
8.63123	0.409
8.66842	0.322
8.70561	0.203
8.74279	0.206
8.77998	0.33
8.81717	0.433
8.85435	0.478
8.89154	0.453
8.92873	0.336
8.96591	0.242
9.0031	0.237
9.04029	0.295
9.07747	0.368
9.11466	0.43
9.15185	0.462
9.18903	0.476
9.22622	0.479
9.26341	0.454
9.30059	0.364
9.33778	0.208
9.37497	0.161
9.41215	0.215
9.44934	0.304
9.48653	0.408
9.52372	0.493
9.5609	0.545
9.59809	0.579
9.63528	0.6
9.67246	0.607
9.70965	0.621
9.74684	0.639
9.78402	0.649
9.82121	0.653
9.8584	0.661
9.89558	0.669
9.93277	0.67
9.96996	0.669
10.0071	0.636
10.0443	0.565
10.0815	0.486
10.1187	0.482
10.1559	0.585
10.1931	0.641
10.2303	0.667
10.2674	0.69
10.3046	0.706
10.3418	0.714
10.379	0.717
10.4162	0.728
10.4534	0.725
10.4906	0.728
10.5278	0.726
10.5649	0.715
10.6021	0.695
10.6393	0.647
10.6765	0.56
10.7137	0.478
10.7509	0.44
10.7881	0.479
10.8252	0.555
10.8624	0.616
10.8996	0.641
10.9368	0.653
10.974	0.656
11.0112	0.655
11.0484	0.653
11.0856	0.653
11.1227	0.647
11.1599	0.641
11.1971	0.639
11.2343	0.621
11.2715	0.608
11.3087	0.588
11.3459	0.565
11.3831	0.513
11.4202	0.453
11.4574	0.344
11.4946	0.225
11.5318	0.178
11.569	0.214
11.6062	0.318
11.6434	0.403
11.6805	0.458
11.7177	0.47
11.7549	0.47
11.7921	0.454
11.8293	0.431
11.8665	0.397
11.9037	0.364
11.9409	0.336
11.978	0.333
12.0152	0.346
12.0524	0.358
12.0896	0.377
12.1268	0.38
12.164	0.381
12.2012	0.386
12.2383	0.374
12.2755	0.364
12.3127	0.352
12.3499	0.34
12.3871	0.327
12.4243	0.312
12.4615	0.293
12.4987	0.279
12.5358	0.265
12.573	0.25
12.6102	0.236
12.6474	0.212
12.6846	0.198
12.7218	0.183
12.759	0.163
12.7961	0.145
12.8333	0.124
12.8705	0.125
12.9077	0.128
12.9449	0.149
12.9821	0.172
13.0193	0.201
13.0565	0.228
13.0936	0.254
13.1308	0.274
13.168	0.301
13.2052	0.315
13.2424	0.338
13.2796	0.358
13.3168	0.38
13.3539	0.399
13.3911	0.409
13.4283	0.42
13.4655	0.423
13.5027	0.413
13.5399	0.403
13.5771	0.402
13.6143	0.433
13.6514	0.458
13.6886	0.478
13.7258	0.478
13.763	0.479
13.8002	0.472
13.8374	0.464
13.8746	0.451
13.9117	0.47
13.9489	0.479
13.9861	0.49
14.0233	0.504
14.0605	0.518
14.0977	0.534
14.1349	0.537
14.1721	0.549
14.2092	0.555
14.2464	0.559
14.2836	0.571
14.3208	0.568
14.358	0.577
14.3952	0.576
14.4324	0.574
14.4695	0.574
14.5067	0.576
14.5439	0.572
14.5811	0.568
14.6183	0.557
14.6555	0.545
14.6927	0.523
14.7299	0.506
14.767	0.495
14.8042	0.478
14.8414	0.456
14.8786	0.417
14.9158	0.392
14.953	0.385
14.9902	0.388
15.0273	0.399
15.0645	0.403
15.1017	0.405
15.1389	0.408
15.1761	0.417
15.2133	0.439
15.2505	0.45
15.2877	0.456
15.3248	0.459
15.362	0.454
15.3992	0.456
15.4364	0.459
15.4736	0.462
15.5108	0.464
15.548	0.465
15.5851	0.468
15.6223	0.467
15.6595	0.468
15.6967	0.465
15.7339	0.464
15.7711	0.464
15.8083	0.47
15.8455	0.462
15.8826	0.465
15.9198	0.465
15.957	0.468
15.9942	0.467
