Infrared Spectrum: ACETIC ACID, 4-BENZOYL-3-HYDROXYPHENOXY-, DODECYL ESTER
Formula: C27 H36 O5
CAS: 103100-75-0
State: SOLID (KBr PELLET)
Class: COBLENTZ
Instrument: Not specified, most likely a prism, grating, or hybrid spectrometer.
Sampling: TRANSMISSION
Resolution: 4
Origin: TENNESSEE EASTMAN COMPANY, RESEARCH LABORATORIES
MICROMETERS	TRANSMITTANCE
2.027	0.823
2.06807	0.815
2.10915	0.8
2.15022	0.789
2.1913	0.782
2.23237	0.769
2.27345	0.758
2.31452	0.752
2.3556	0.747
2.39667	0.743
2.43775	0.74
2.47882	0.74
2.5199	0.74
2.56097	0.74
2.60205	0.741
2.64312	0.741
2.6842	0.74
2.72527	0.716
2.76635	0.651
2.80742	0.596
2.8485	0.569
2.88957	0.564
2.93065	0.584
2.97172	0.625
3.0128	0.658
3.05387	0.673
3.09495	0.683
3.13602	0.695
3.1771	0.704
3.21817	0.699
3.25925	0.676
3.30032	0.682
3.34139	0.42
3.38247	0.152
3.42354	0.374
3.46462	0.271
3.50569	0.661
3.54677	0.707
3.58784	0.724
3.62892	0.726
3.66999	0.747
3.71107	0.765
3.75214	0.779
3.79322	0.784
3.83429	0.794
3.87537	0.82
3.91644	0.835
3.95752	0.849
3.99859	0.854
4.03967	0.858
4.08074	0.864
4.12182	0.87
4.16289	0.875
4.20397	0.876
4.24504	0.876
4.28612	0.878
4.32719	0.899
4.36827	0.914
4.40934	0.921
4.45042	0.928
4.49149	0.938
4.53257	0.938
4.57364	0.941
4.61471	0.943
4.65579	0.945
4.69686	0.952
4.73794	0.958
4.77901	0.962
4.82009	0.965
4.86116	0.957
4.90224	0.957
4.94331	0.957
4.98439	0.96
5.02546	0.952
5.06654	0.948
5.10761	0.955
5.14869	0.955
5.18976	0.95
5.23084	0.936
5.27191	0.945
5.31299	0.955
5.35406	0.958
5.39514	0.955
5.43621	0.952
5.47729	0.947
5.51836	0.945
5.55944	0.912
5.60051	0.794
5.64159	0.302
5.68266	0.196
5.72374	0.728
5.76481	0.81
5.80589	0.823
5.84696	0.846
5.88804	0.847
5.92911	0.839
5.97018	0.825
6.01126	0.762
6.05233	0.613
6.09341	0.27
6.13448	0.066
6.17556	0.116
6.21663	0.141
6.25771	0.157
6.29878	0.186
6.33986	0.309
6.38093	0.584
6.42201	0.729
6.46308	0.741
6.50416	0.765
6.54523	0.692
6.58631	0.572
6.62738	0.622
6.66846	0.611
6.70953	0.594
6.75061	0.494
6.79168	0.646
6.83276	0.707
6.87383	0.552
6.91491	0.444
6.95598	0.67
6.99706	0.601
7.03813	0.632
7.07921	0.738
7.12028	0.745
7.16136	0.639
7.20243	0.425
7.2435	0.188
7.28458	0.297
7.32565	0.451
7.36673	0.309
7.4078	0.124
7.44888	0.288
7.48995	0.634
7.53103	0.726
7.5721	0.741
7.61318	0.654
7.65425	0.682
7.69533	0.695
7.7364	0.654
7.77748	0.586
7.81855	0.358
7.85963	0.07
7.9007	0.114
7.94178	0.302
7.98285	0.432
8.02393	0.4
8.065	0.133
8.10608	0.068
8.14715	0.054
8.18823	0.054
8.2293	0.133
8.27038	0.16
8.31145	0.124
8.35253	0.288
8.3936	0.466
8.43468	0.541
8.47575	0.603
8.51682	0.594
8.5579	0.564
8.59897	0.723
8.64005	0.779
8.68112	0.818
8.7222	0.842
8.76327	0.83
8.80435	0.762
8.84542	0.572
8.8865	0.181
8.92757	0.36
8.96865	0.666
9.00972	0.782
9.0508	0.796
9.09187	0.782
9.13295	0.736
9.17402	0.519
9.2151	0.193
9.25617	0.23
9.29725	0.483
9.33832	0.694
9.3794	0.747
9.42047	0.793
9.46155	0.839
9.50262	0.852
9.5437	0.856
9.58477	0.859
9.62585	0.866
9.66692	0.82
9.708	0.835
9.74907	0.856
9.79014	0.858
9.83122	0.856
9.87229	0.866
9.91337	0.876
9.95444	0.841
9.99552	0.856
10.0366	0.786
10.0777	0.699
10.1187	0.748
10.1598	0.76
10.2009	0.77
10.242	0.798
10.283	0.801
10.3241	0.758
10.3652	0.788
10.4063	0.863
10.4473	0.894
10.4884	0.909
10.5295	0.905
10.5706	0.847
10.6116	0.695
10.6527	0.67
10.6938	0.683
10.7349	0.764
10.7759	0.806
10.817	0.646
10.8581	0.574
10.8992	0.765
10.9402	0.875
10.9813	0.923
11.0224	0.96
11.0635	0.969
11.1045	0.97
11.1456	0.974
11.1867	0.97
11.2278	0.964
11.2688	0.958
11.3099	0.96
11.351	0.962
11.3921	0.965
11.4331	0.96
11.4742	0.947
11.5153	0.936
11.5564	0.926
11.5974	0.895
11.6385	0.808
11.6796	0.678
11.7207	0.528
11.7617	0.447
11.8028	0.437
11.8439	0.475
11.885	0.533
11.926	0.582
11.9671	0.649
12.0082	0.731
12.0493	0.745
12.0903	0.613
12.1314	0.444
12.1725	0.358
12.2136	0.343
12.2546	0.379
12.2957	0.451
12.3368	0.538
12.3779	0.611
12.4189	0.676
12.46	0.717
12.5011	0.721
12.5422	0.717
12.5832	0.724
12.6243	0.716
12.6654	0.68
12.7065	0.695
12.7475	0.721
12.7886	0.741
12.8297	0.777
12.8708	0.808
12.9118	0.829
12.9529	0.841
12.994	0.844
13.0351	0.847
13.0761	0.849
13.1172	0.851
13.1583	0.849
13.1994	0.805
13.2404	0.745
13.2815	0.646
13.3226	0.589
13.3637	0.635
13.4047	0.753
13.4458	0.825
13.4869	0.871
13.528	0.897
13.569	0.9
13.6101	0.899
13.6512	0.897
13.6923	0.895
13.7333	0.863
13.7744	0.794
13.8155	0.743
13.8566	0.755
13.8976	0.803
13.9387	0.829
13.9798	0.82
14.0209	0.709
14.0619	0.516
14.103	0.362
14.1441	0.311
14.1852	0.355
14.2262	0.458
14.2673	0.524
14.3084	0.588
14.3495	0.671
14.3905	0.731
14.4316	0.777
14.4727	0.794
14.5138	0.798
14.5548	0.798
14.5959	0.803
14.637	0.829
14.6781	0.854
14.7191	0.885
14.7602	0.907
14.8013	0.919
14.8424	0.926
14.8834	0.931
14.9245	0.933
14.9656	0.929
15.0066	0.923
15.0477	0.924
15.0888	0.924
15.1299	0.926
15.1709	0.924
15.212	0.923
15.2531	0.917
15.2942	0.911
15.3352	0.897
15.3763	0.885
15.4174	0.863
15.4585	0.844
15.4995	0.832
15.5406	0.817
15.5817	0.811
15.6228	0.8
15.6638	0.796
15.7049	0.784
15.746	0.774
15.7871	0.762
15.8281	0.748
15.8692	0.724
15.9103	0.709
15.9514	0.695
