Infrared Spectrum: 4-AMINO-3-PHENYL PHENOL
Formula: C12 H11 N O
CAS: 103114-32-5
State: SOLID (MINERAL OIL MULL)
Class: COBLENTZ
Instrument: Not specified, most likely a prism, grating, or hybrid spectrometer.
Sampling: TRANSMISSION
Resolution: 4
Origin: DOW CHEMICAL COMPANY
MICROMETERS	TRANSMITTANCE
2.027	0.632
2.06808	0.64
2.10916	0.647
2.15023	0.66
2.19131	0.672
2.23239	0.674
2.27347	0.674
2.31454	0.679
2.35562	0.691
2.3967	0.706
2.43778	0.718
2.47885	0.739
2.51993	0.744
2.56101	0.751
2.60209	0.77
2.64317	0.761
2.68424	0.781
2.72532	0.787
2.7664	0.792
2.80748	0.802
2.84855	0.783
2.88963	0.752
2.93071	0.679
2.97179	0.451
3.01286	0.395
3.05394	0.514
3.09502	0.56
3.1361	0.524
3.17718	0.499
3.21825	0.456
3.25933	0.402
3.30041	0.333
3.34149	0.221
3.38256	0.037
3.42364	0.047
3.46472	0.086
3.5058	0.318
3.54687	0.403
3.58795	0.403
3.62903	0.371
3.67011	0.35
3.71119	0.35
3.75226	0.328
3.79334	0.33
3.83442	0.313
3.8755	0.33
3.91657	0.359
3.95765	0.39
3.99873	0.417
4.03981	0.47
4.08088	0.519
4.12196	0.56
4.16304	0.575
4.20412	0.614
4.2452	0.654
4.28627	0.689
4.32735	0.72
4.36843	0.737
4.40951	0.754
4.45058	0.764
4.49166	0.776
4.53274	0.788
4.57382	0.802
4.61489	0.819
4.65597	0.827
4.69705	0.833
4.73813	0.836
4.77921	0.839
4.82028	0.85
4.86136	0.853
4.90244	0.851
4.94352	0.863
4.98459	0.87
5.02567	0.872
5.06675	0.858
5.10783	0.855
5.1489	0.879
5.18998	0.88
5.23106	0.873
5.27214	0.856
5.31322	0.848
5.35429	0.87
5.39537	0.88
5.43645	0.873
5.47753	0.863
5.5186	0.851
5.55968	0.86
5.60076	0.862
5.64184	0.853
5.68291	0.829
5.72399	0.821
5.76507	0.819
5.80615	0.822
5.84723	0.814
5.8883	0.78
5.92938	0.768
5.97046	0.793
6.01154	0.814
6.05261	0.802
6.09369	0.735
6.13477	0.587
6.17585	0.432
6.21692	0.281
6.258	0.303
6.29908	0.413
6.34016	0.373
6.38124	0.538
6.42231	0.65
6.46339	0.601
6.50447	0.431
6.54555	0.471
6.58662	0.66
6.6277	0.608
6.66878	0.419
6.70986	0.281
6.75094	0.439
6.79201	0.316
6.83309	0.211
6.87417	0.284
6.91525	0.257
6.95632	0.158
6.9974	0.231
7.03848	0.475
7.07956	0.606
7.12063	0.684
7.16171	0.689
7.20279	0.577
7.24387	0.497
7.28495	0.567
7.32602	0.652
7.3671	0.683
7.40818	0.65
7.44926	0.683
7.49033	0.657
7.53141	0.64
7.57249	0.529
7.61357	0.282
7.65464	0.373
7.69572	0.621
7.7368	0.637
7.77788	0.505
7.81896	0.335
7.86003	0.248
7.90111	0.441
7.94219	0.647
7.98327	0.66
8.02434	0.652
8.06542	0.724
8.1065	0.77
8.14758	0.747
8.18865	0.601
8.22973	0.441
8.27081	0.546
8.31189	0.54
8.35297	0.555
8.39404	0.654
8.43512	0.727
8.4762	0.771
8.51728	0.81
8.55835	0.793
8.59943	0.727
8.64051	0.713
8.68159	0.761
8.72266	0.821
8.76374	0.855
8.80482	0.868
8.8459	0.872
8.88698	0.875
8.92805	0.875
8.96913	0.873
9.01021	0.844
9.05129	0.805
9.09236	0.751
9.13344	0.65
9.17452	0.66
9.2156	0.793
9.25667	0.858
9.29775	0.862
9.33883	0.885
9.37991	0.921
9.42099	0.942
9.46206	0.948
9.50314	0.945
9.54422	0.919
9.5853	0.884
9.62637	0.88
9.66745	0.875
9.70853	0.843
9.74961	0.822
9.79068	0.833
9.83176	0.834
9.87284	0.819
9.91392	0.802
9.955	0.773
9.99607	0.73
10.0372	0.691
10.0782	0.638
10.1193	0.57
10.1604	0.519
10.2015	0.451
10.2425	0.388
10.2836	0.306
10.3247	0.26
10.3658	0.243
10.4068	0.241
10.4479	0.272
10.489	0.31
10.5301	0.352
10.5712	0.391
10.6122	0.419
10.6533	0.361
10.6944	0.262
10.7355	0.247
10.7765	0.284
10.8176	0.337
10.8587	0.405
10.8998	0.468
10.9409	0.534
10.9819	0.555
11.023	0.57
11.0641	0.541
11.1052	0.453
11.1462	0.293
11.1873	0.216
11.2284	0.245
11.2695	0.294
11.3106	0.321
11.3516	0.337
11.3927	0.339
11.4338	0.33
11.4749	0.291
11.5159	0.223
11.557	0.224
11.5981	0.345
11.6392	0.432
11.6803	0.48
11.7213	0.519
11.7624	0.541
11.8035	0.567
11.8446	0.574
11.8856	0.591
11.9267	0.621
11.9678	0.655
12.0089	0.688
12.05	0.705
12.091	0.729
12.1321	0.749
12.1732	0.759
12.2143	0.763
12.2553	0.759
12.2964	0.722
12.3375	0.712
12.3786	0.744
12.4197	0.795
12.4607	0.809
12.5018	0.821
12.5429	0.827
12.584	0.827
12.625	0.817
12.6661	0.775
12.7072	0.71
12.7483	0.609
12.7894	0.521
12.8304	0.419
12.8715	0.315
12.9126	0.241
12.9537	0.269
12.9947	0.315
13.0358	0.291
13.0769	0.156
13.118	0.086
13.1591	0.078
13.2001	0.207
13.2412	0.431
13.2823	0.57
13.3234	0.64
13.3644	0.7
13.4055	0.734
13.4466	0.754
13.4877	0.763
13.5288	0.768
13.5698	0.768
13.6109	0.763
13.652	0.751
13.6931	0.725
13.7341	0.657
13.7752	0.574
13.8163	0.442
13.8574	0.393
13.8985	0.47
13.9395	0.558
13.9806	0.618
14.0217	0.65
14.0628	0.649
14.1038	0.633
14.1449	0.608
14.186	0.584
14.2271	0.541
14.2682	0.492
14.3092	0.422
14.3503	0.347
14.3914	0.287
14.4325	0.257
14.4735	0.291
14.5146	0.379
14.5557	0.478
14.5968	0.54
14.6379	0.579
14.6789	0.592
14.72	0.596
14.7611	0.597
14.8022	0.597
14.8432	0.597
14.8843	0.597
14.9254	0.597
14.9665	0.599
15.0076	0.599
15.0486	0.597
15.0897	0.592
15.1308	0.587
15.1719	0.58
15.2129	0.572
15.254	0.56
15.2951	0.555
15.3362	0.55
15.3773	0.545
15.4183	0.531
15.4594	0.522
15.5005	0.517
15.5416	0.507
15.5826	0.5
15.6237	0.485
15.6648	0.478
15.7059	0.471
15.747	0.468
15.788	0.458
15.8291	0.451
15.8702	0.441
15.9113	0.441
