Infrared Spectrum: N,N'-BIS-(4-(6-METHYL)1,3,3a,7-TETRAZAINDENYL)-HEXAMETHYLENEDIAMINE
Formula: C18 H24 N10
CAS: 103154-79-6
State: SOLID (KBr PRESSING)
Melting point: 242 C
Class: COBLENTZ
Instrument: Not specified, most likely a prism, grating, or hybrid spectrometer.
Sampling: TRANSMISSION
Resolution: 4
Origin: EASTMAN KODAK COMPANY, RESEARCH LABORATORIES, ROCHESTER, N.Y.
MICROMETERS	TRANSMITTANCE
2.043	0.555
2.07819	0.55
2.11337	0.548
2.14856	0.548
2.18375	0.546
2.21893	0.546
2.25412	0.537
2.28931	0.539
2.3245	0.55
2.35968	0.553
2.39487	0.56
2.43006	0.564
2.46524	0.564
2.50043	0.571
2.53562	0.578
2.5708	0.578
2.60599	0.585
2.64118	0.597
2.67636	0.602
2.71155	0.604
2.74674	0.601
2.78192	0.553
2.81711	0.488
2.8523	0.43
2.88749	0.398
2.92267	0.377
2.95786	0.362
2.99305	0.381
3.02823	0.37
3.06342	0.333
3.09861	0.286
3.13379	0.281
3.16898	0.267
3.20417	0.263
3.23935	0.282
3.27454	0.279
3.30973	0.289
3.34492	0.281
3.3801	0.239
3.41529	0.198
3.45048	0.261
3.48566	0.263
3.52085	0.333
3.55604	0.381
3.59122	0.414
3.62641	0.451
3.6616	0.471
3.69678	0.509
3.73197	0.528
3.76716	0.551
3.80235	0.571
3.83753	0.59
3.87272	0.601
3.90791	0.623
3.94309	0.63
3.97828	0.639
4.01347	0.648
4.04865	0.655
4.08384	0.66
4.11903	0.673
4.15421	0.687
4.1894	0.687
4.22459	0.687
4.25977	0.688
4.29496	0.697
4.33015	0.711
4.36534	0.718
4.40052	0.724
4.43571	0.722
4.4709	0.727
4.50608	0.722
4.54127	0.724
4.57646	0.732
4.61164	0.734
4.64683	0.739
4.68202	0.745
4.7172	0.748
4.75239	0.752
4.78758	0.753
4.82277	0.755
4.85795	0.757
4.89314	0.759
4.92833	0.764
4.96351	0.769
4.9987	0.778
5.03389	0.782
5.06907	0.789
5.10426	0.794
5.13945	0.796
5.17463	0.796
5.20982	0.799
5.24501	0.803
5.28019	0.808
5.31538	0.818
5.35057	0.822
5.38576	0.831
5.42094	0.826
5.45613	0.818
5.49132	0.799
5.5265	0.746
5.56169	0.801
5.59688	0.831
5.63206	0.82
5.66725	0.811
5.70244	0.783
5.73762	0.76
5.77281	0.732
5.808	0.692
5.84319	0.666
5.87837	0.602
5.91356	0.507
5.94875	0.4
5.98393	0.288
6.01912	0.212
6.05431	0.077
6.08949	0.028
6.12468	0.026
6.15987	0.096
6.19505	0.188
6.23024	0.094
6.26543	0.019
6.30062	0.022
6.3358	0.079
6.37099	0.137
6.40618	0.207
6.44136	0.263
6.47655	0.305
6.51174	0.365
6.54692	0.355
6.58211	0.244
6.6173	0.149
6.65248	0.221
6.68767	0.307
6.72286	0.365
6.75804	0.326
6.79323	0.249
6.82842	0.282
6.86361	0.274
6.89879	0.121
6.93398	0.093
6.96917	0.082
7.00435	0.198
7.03954	0.253
7.07473	0.333
7.10991	0.402
7.1451	0.442
7.18029	0.46
7.21547	0.46
7.25066	0.321
7.28585	0.442
7.32104	0.428
7.35622	0.539
7.39141	0.527
7.4266	0.351
7.46178	0.152
7.49697	0.202
7.53216	0.138
7.56734	0.267
7.60253	0.314
7.63772	0.274
7.6729	0.393
7.70809	0.485
7.74328	0.493
7.77846	0.337
7.81365	0.272
7.84884	0.456
7.88403	0.55
7.91921	0.507
7.9544	0.179
7.98959	0.224
8.02477	0.393
8.05996	0.499
8.09515	0.541
8.13033	0.53
8.16552	0.583
8.20071	0.625
8.23589	0.637
8.27108	0.548
8.30627	0.312
8.34146	0.082
8.37664	0.23
8.41183	0.42
8.44702	0.506
8.4822	0.543
8.51739	0.53
8.55258	0.435
8.58776	0.214
8.62295	0.087
8.65814	0.202
8.69332	0.325
8.72851	0.383
8.7637	0.383
8.79889	0.39
8.83407	0.479
8.86926	0.55
8.90445	0.585
8.93963	0.602
8.97482	0.611
9.01001	0.623
9.04519	0.632
9.08038	0.634
9.11557	0.644
9.15075	0.641
9.18594	0.644
9.22113	0.648
9.25631	0.653
9.2915	0.65
9.32669	0.646
9.36188	0.622
9.39706	0.548
9.43225	0.485
9.46744	0.548
9.50262	0.586
9.53781	0.602
9.573	0.602
9.60818	0.592
9.64337	0.555
9.67856	0.543
9.71374	0.572
9.74893	0.618
9.78412	0.632
9.81931	0.592
9.85449	0.557
9.88968	0.557
9.92487	0.56
9.96005	0.615
9.99524	0.66
10.0304	0.678
10.0656	0.697
10.1008	0.706
10.136	0.711
10.1712	0.717
10.2064	0.722
10.2415	0.718
10.2767	0.702
10.3119	0.585
10.3471	0.492
10.3823	0.611
10.4175	0.639
10.4527	0.504
10.4879	0.652
10.523	0.688
10.5582	0.708
10.5934	0.724
10.6286	0.736
10.6638	0.743
10.699	0.755
10.7342	0.76
10.7694	0.766
10.8045	0.768
10.8397	0.766
10.8749	0.757
10.9101	0.746
10.9453	0.706
10.9805	0.56
11.0157	0.641
11.0508	0.736
11.086	0.768
11.1212	0.78
11.1564	0.799
11.1916	0.801
11.2268	0.801
11.262	0.799
11.2972	0.797
11.3323	0.796
11.3675	0.796
11.4027	0.803
11.4379	0.806
11.4731	0.81
11.5083	0.817
11.5435	0.817
11.5787	0.818
11.6138	0.815
11.649	0.813
11.6842	0.811
11.7194	0.81
11.7546	0.808
11.7898	0.804
11.825	0.804
11.8601	0.801
11.8953	0.799
11.9305	0.797
11.9657	0.79
12.0009	0.79
12.0361	0.785
12.0713	0.778
12.1065	0.768
12.1416	0.755
12.1768	0.708
12.212	0.537
12.2472	0.546
12.2824	0.671
12.3176	0.706
12.3528	0.713
12.3879	0.718
12.4231	0.715
12.4583	0.711
12.4935	0.706
12.5287	0.697
12.5639	0.687
12.5991	0.674
12.6343	0.655
12.6694	0.627
12.7046	0.567
12.7398	0.544
12.775	0.513
12.8102	0.471
12.8454	0.395
12.8806	0.249
12.9158	0.298
12.9509	0.465
12.9861	0.485
13.0213	0.481
13.0565	0.471
13.0917	0.465
13.1269	0.456
13.1621	0.455
13.1972	0.456
13.2324	0.463
13.2676	0.467
13.3028	0.474
13.338	0.476
13.3732	0.478
13.4084	0.483
13.4436	0.479
13.4787	0.458
13.5139	0.43
13.5491	0.425
13.5843	0.437
13.6195	0.463
13.6547	0.478
13.6899	0.488
13.7251	0.516
13.7602	0.534
13.7954	0.544
13.8306	0.56
13.8658	0.572
13.901	0.586
13.9362	0.601
13.9714	0.609
14.0065	0.62
14.0417	0.629
14.0769	0.632
14.1121	0.625
14.1473	0.597
14.1825	0.548
14.2177	0.506
14.2529	0.467
14.288	0.444
14.3232	0.441
14.3584	0.463
14.3936	0.509
14.4288	0.534
14.464	0.544
14.4992	0.534
14.5344	0.495
14.5695	0.435
14.6047	0.395
14.6399	0.416
14.6751	0.476
14.7103	0.534
14.7455	0.551
14.7807	0.564
14.8158	0.569
14.851	0.572
14.8862	0.557
14.9214	0.528
14.9566	0.523
14.9918	0.567
15.027	0.574
15.0622	0.574
15.0973	0.565
15.1325	0.557
15.1677	0.543
15.2029	0.536
15.2381	0.53
15.2733	0.532
15.3085	0.528
15.3436	0.536
15.3788	0.532
15.414	0.525
15.4492	0.518
15.4844	0.504
15.5196	0.495
15.5548	0.485
15.59	0.485
15.6251	0.488
15.6603	0.507
15.6955	0.521
15.7307	0.536
15.7659	0.546
15.8011	0.555
15.8363	0.557
15.8715	0.56
15.9066	0.564
15.9418	0.565
15.977	0.567
16.0122	0.567
