Infrared Spectrum: N-Isobutylmorpholine
Formula: C 8 H 17 N O
CAS: 10315-98-7
State: gas
Origin: EPA-IR VAPOR PHASE LIBRARY
1/CM	ABSORBANCE
549.9	4e-05
559.547	0.00027
569.193	0.0007
578.84	0.00038
588.486	0.00035
598.133	0.00037
607.779	0.00109
617.426	0.00388
627.072	0.01038
636.719	0.00981
646.365	0.0030624
656.012	0.001251
665.658	0.00066
675.305	0.00044
684.951	0.00039
694.598	0.00049
704.245	0.00047
713.891	0.00044
723.538	0.00049
733.184	0.00075
742.831	0.00104
752.477	0.00143
762.124	0.0020219
771.77	0.00347
781.417	0.00669
791.063	0.01158
800.71	0.0128
810.356	0.00821
820.003	0.00541
829.649	0.00467
839.296	0.00577
848.943	0.01075
858.589	0.03499
868.236	0.04966
877.882	0.02638
887.529	0.0161
897.175	0.01552
906.822	0.01114
916.468	0.00919
926.115	0.01179
935.761	0.01337
945.408	0.01091
955.054	0.00843
964.701	0.00662
974.347	0.00605
983.994	0.00769
993.64	0.01345
1003.29	0.03942
1012.93	0.06385
1022.58	0.04334
1032.23	0.01926
1041.87	0.01244
1051.52	0.00907
1061.17	0.01275
1070.81	0.01897
1080.46	0.02138
1090.11	0.02813
1099.75	0.0529
1109.4	0.09528
1119.05	0.15212
1128.69	0.18099
1138.34	0.13565
1147.99	0.07777
1157.63	0.0404
1167.28	0.01811
1176.92	0.01035
1186.57	0.00877
1196.22	0.00891
1205.86	0.00901
1215.51	0.00761
1225.16	0.00756
1234.8	0.01281
1244.45	0.0212
1254.1	0.02448
1263.74	0.02393
1273.39	0.02743
1283.04	0.03476
1292.68	0.0391
1302.33	0.03386
1311.98	0.02571
1321.62	0.02072
1331.27	0.02165
1340.92	0.02265
1350.56	0.0264
1360.21	0.03211
1369.86	0.0354
1379.5	0.03359
1389.15	0.02773
1398.79	0.02321
1408.44	0.01429
1418.09	0.00881
1427.73	0.01012
1437.38	0.01784
1447.03	0.03033
1456.67	0.04136
1466.32	0.04116
1475.97	0.02757
1485.61	0.01281
1495.26	0.00579
1504.91	0.00368
1514.55	0.0029484
1524.2	0.0024971
1533.85	0.0020844
1543.49	0.001779
1553.14	0.00156
1562.79	0.001445
1572.43	0.001383
1582.08	0.001494
1591.73	0.00149
1601.37	0.001503
1611.02	0.001487
1620.67	0.001444
1630.31	0.00139
1639.96	0.001498
1649.6	0.001485
1659.25	0.001526
1668.9	0.001466
1678.54	0.001452
1688.19	0.001483
1697.84	0.001509
1707.48	0.001522
1717.13	0.001513
1726.78	0.001545
1736.42	0.001513
1746.07	0.001303
1755.72	0.001159
1765.36	0.001121
1775.01	0.0011
1784.66	0.001225
1794.3	0.001227
1803.95	0.00118
1813.6	0.00107
1823.24	0.00098
1832.89	0.00098
1842.54	0.00096
1852.18	0.001
1861.83	0.001142
1871.47	0.001268
1881.12	0.001405
1890.77	0.001526
1900.41	0.001684
1910.06	0.001819
1919.71	0.001978
1929.35	0.0022529
1939	0.0022974
1948.65	0.0020469
1958.29	0.00210996
1967.94	0.0026809
1977.59	0.00329
1987.23	0.00328
1996.88	0.0025716
2006.53	0.001774
2016.17	0.001388
2025.82	0.001225
2035.47	0.001171
2045.11	0.001201
2054.76	0.001296
2064.41	0.001328
2074.05	0.001414
2083.7	0.001541
2093.35	0.001667
2102.99	0.001582
2112.64	0.001432
2122.28	0.001401
2131.93	0.001479
2141.58	0.001479
2151.22	0.001459
2160.87	0.00152
2170.52	0.001468
2180.16	0.001473
2189.81	0.001477
2199.46	0.001529
2209.1	0.001526
2218.75	0.001552
2228.4	0.001707
2238.04	0.001957
2247.69	0.0020773
2257.34	0.00210543
2266.98	0.0020211
2276.63	0.0020339
2286.28	0.0020852
2295.92	0.0020399
2305.57	0.0020777
2315.22	0.001934
2324.86	0.001741
2334.51	0.001544
2344.16	0.001442
2353.8	0.001415
2363.45	0.001624
2373.09	0.00187
2382.74	0.0020999
2392.39	0.00211998
2402.03	0.002076
2411.68	0.001931
2421.33	0.001712
2430.97	0.001594
2440.62	0.001571
2450.27	0.001716
2459.91	0.001912
2469.56	0.00213654
2479.21	0.0023076
2488.85	0.0022646
2498.5	0.00219342
2508.15	0.0022742
2517.79	0.0022246
2527.44	0.0022783
2537.09	0.0024492
2546.73	0.0027182
2556.38	0.00312
2566.03	0.00354
2575.67	0.00371
2585.32	0.00379
2594.96	0.00402
2604.61	0.00444
2614.26	0.00495
2623.9	0.00577
2633.55	0.00692
2643.2	0.00875
2652.84	0.01038
2662.49	0.01172
2672.14	0.0141
2681.78	0.01738
2691.43	0.01873
2701.08	0.01842
2710.72	0.01931
2720.37	0.02288
2730.02	0.02769
2739.66	0.03292
2749.31	0.03924
2758.96	0.04641
2768.6	0.05306
2778.25	0.06361
2787.9	0.08675
2797.54	0.12277
2807.19	0.14399
2816.84	0.12308
2826.48	0.08363
2836.13	0.06296
2845.77	0.07757
2855.42	0.12159
2865.07	0.1384
2874.71	0.12376
2884.36	0.10851
2894.01	0.10019
2903.65	0.11161
2913.3	0.12791
2922.95	0.13676
2932.59	0.14701
2942.24	0.16346
2951.89	0.19504
2961.53	0.27197
2971.18	0.27065
2980.83	0.13924
2990.47	0.04349
3000.12	0.01798
3009.77	0.01188
3019.41	0.00867
3029.06	0.00665
3038.71	0.00539
3048.35	0.00495
3058	0.00471
3067.64	0.00443
3077.29	0.00434
3086.94	0.00402
3096.58	0.00357
3106.23	0.00357
3115.88	0.00328
3125.52	0.00327
3135.17	0.0030731
3144.82	0.0029356
3154.46	0.0030147
3164.11	0.0030937
3173.76	0.0029513
3183.4	0.0028229
3193.05	0.0027263
3202.7	0.0023956
3212.34	0.001832
3221.99	0.001755
3231.64	0.001752
3241.28	0.001538
3250.93	0.00142
3260.58	0.001155
3270.22	0.00106
3279.87	0.00082
3289.52	0.00075
3299.16	0.00082
3308.81	0.00093
3318.45	0.00075
3328.1	0.00076
3337.75	0.00056
3347.39	0.00066
3357.04	0.00077
3366.69	0.0008
3376.33	0.00078
3385.98	0.00066
3395.63	0.0006
3405.27	0.0005
3414.92	0.00046
3424.57	0.00041
3434.21	0.00037
3443.86	0.00044
3453.51	0.00036
3463.15	0.00025
3472.8	0.00027
3482.45	0.00027
3492.09	0.00011
3501.74	0
3511.39	7e-05
3521.03	0.00015
3530.68	5e-05
3540.33	0.00024
3549.97	0.00031
3559.62	0.00015
3569.26	0.00027
3578.91	0.00038
3588.56	0.00021
3598.2	0.00044
3607.85	0.00033
3617.5	0.00036
3627.14	0.0001
3636.79	0.00027
3646.44	0.00034
3656.08	0.00026
3665.73	0.00038
3675.38	0.00026
3685.02	0.00036
3694.67	0.00053
3704.32	0.00039
3713.96	0.00042
3723.61	0.00051
3733.26	0.00053
3742.9	0.00042
3752.55	0.0006
3762.2	0.00067
3771.84	0.00068
3781.49	0.00092
3791.13	0.00078
3800.78	0.00091
3810.43	0.00097
3820.07	0.00103
3829.72	0.00109
3839.37	0.001225
3849.01	0.00106
3858.66	0.00103
3868.31	0.00103
3877.95	0.00108
3887.6	0.00105
3897.25	0.001188
3906.89	0.001184
3916.54	0.001318
3926.19	0.001503
3935.83	0.001355
3945.48	0.001331
3955.13	0.00148
3964.77	0.001692
3974.42	0.001828
3984.07	0.001889
3993.71	0.001731
