Infrared Spectrum: 3,5-Dichlorophenoxyacetonitrile
Formula: C 8 H 5 Cl 2 N O
CAS: 103140-12-1
State: gas
Origin: EPA-IR VAPOR PHASE LIBRARY
1/CM	ABSORBANCE
549.8	0.003116
559.445	0.001886
569.09	0.002306
578.734	0.0014448
588.379	0.002406
598.024	0.003246
607.669	0.002716
617.313	0.004526
626.958	0.003946
636.603	0.005336
646.248	0.006336
655.893	0.011526
665.537	0.021486
675.182	0.019256
684.827	0.010656
694.472	0.005706
704.116	0.003256
713.761	0.001936
723.406	0.002736
733.051	0.002646
742.695	0.002436
752.34	0.002046
761.985	0.002836
771.63	0.004256
781.275	0.009436
790.919	0.025426
800.564	0.062706
810.209	0.076186
819.854	0.045996
829.498	0.046756
839.143	0.042796
848.788	0.054836
858.433	0.040946
868.078	0.027176
877.722	0.039096
887.367	0.035606
897.012	0.024396
906.657	0.027126
916.301	0.034426
925.946	0.021276
935.591	0.010346
945.236	0.007196
954.88	0.005426
964.525	0.005506
974.17	0.004946
983.815	0.006036
993.46	0.008316
1003.1	0.011456
1012.75	0.017416
1022.39	0.028626
1032.04	0.050046
1041.68	0.090486
1051.33	0.118946
1060.97	0.122086
1070.62	0.090636
1080.26	0.043026
1089.91	0.061356
1099.55	0.089666
1109.2	0.073196
1118.84	0.034026
1128.49	0.012516
1138.13	0.005186
1147.78	0.004276
1157.42	0.003126
1167.07	0.004016
1176.71	0.004346
1186.36	0.005426
1196	0.010056
1205.64	0.022986
1215.29	0.055746
1224.93	0.064886
1234.58	0.050926
1244.22	0.044136
1253.87	0.038646
1263.51	0.038566
1273.16	0.041756
1282.8	0.031536
1292.45	0.029846
1302.09	0.029596
1311.74	0.013976
1321.38	0.007326
1331.03	0.006946
1340.67	0.009386
1350.32	0.018296
1359.96	0.032476
1369.61	0.041756
1379.25	0.041976
1388.9	0.031086
1398.54	0.026106
1408.18	0.037116
1417.83	0.071546
1427.47	0.112486
1437.12	0.116266
1446.76	0.085006
1456.41	0.041616
1466.05	0.017656
1475.7	0.011516
1485.34	0.009606
1494.99	0.008916
1504.63	0.008786
1514.28	0.009756
1523.92	0.011836
1533.57	0.014846
1543.21	0.020546
1552.86	0.035086
1562.5	0.085846
1572.15	0.229706
1581.79	0.339386
1591.44	0.196336
1601.08	0.069656
1610.73	0.033146
1620.37	0.022156
1630.01	0.014766
1639.66	0.009846
1649.3	0.008006
1658.95	0.006596
1668.59	0.005076
1678.24	0.004606
1687.88	0.005116
1697.53	0.005686
1707.17	0.006486
1716.82	0.006086
1726.46	0.004796
1736.11	0.003606
1745.75	0.002486
1755.4	0.002346
1765.04	0.001946
1774.69	0.0017347
1784.33	0.001856
1793.98	0.001806
1803.62	0.0017415
1813.27	0.0015439
1822.91	0.0016037
1832.55	0.0016213
1842.2	0.001727
1851.84	0.0014484
1861.49	0.0014658
1871.13	0.0014686
1880.78	0.001936
1890.42	0.001776
1900.07	0.002286
1909.71	0.002466
1919.36	0.002396
1929	0.002336
1938.65	0.002046
1948.29	0.002076
1957.94	0.001886
1967.58	0.002136
1977.23	0.002146
1986.87	0.002516
1996.52	0.002066
2006.16	0.001806
2015.81	0.0016886
2025.45	0.001796
2035.1	0.001806
2044.74	0.002016
2054.38	0.002206
2064.03	0.002386
2073.67	0.002726
2083.32	0.003176
2092.96	0.003816
2102.61	0.004306
2112.25	0.004206
2121.9	0.003606
2131.54	0.003116
2141.19	0.002896
2150.83	0.002406
2160.48	0.002356
2170.12	0.002216
2179.77	0.001956
2189.41	0.001876
2199.06	0.0016226
2208.7	0.001796
2218.35	0.001916
2227.99	0.002596
2237.64	0.003796
2247.28	0.004976
2256.92	0.004196
2266.57	0.002856
2276.21	0.0017367
2285.86	0.0016792
2295.5	0.001565
2305.15	0.001766
2314.79	0.001886
2324.44	0.001996
2334.08	0.001816
2343.73	0.0014222
2353.37	0.0014507
2363.02	0.0016204
2372.66	0.002016
2382.31	0.001876
2391.95	0.0017291
2401.6	0.0016925
2411.24	0.001471
2420.89	0.001722
2430.53	0.001876
2440.18	0.0016692
2449.82	0.001896
2459.47	0.0015944
2469.11	0.001502
2478.75	0.0014411
2488.4	0.001946
2498.04	0.001786
2507.69	0.001996
2517.33	0.001816
2526.98	0.0014238
2536.62	0.0012311
2546.27	0.0011677
2555.91	0.00077286
2565.56	0.000912
2575.2	0.0011354
2584.85	0.0009947
2594.49	0.0015168
2604.14	0.0015943
2613.78	0.0014042
2623.43	0.0014148
2633.07	0.001876
2642.72	0.002016
2652.36	0.002226
2662.01	0.002286
2671.65	0.001708
2681.29	0.0012553
2690.94	0.0015648
2700.58	0.0014812
2710.23	0.0011141
2719.87	0.0016395
2729.52	0.0009685
2739.16	0.0014624
2748.81	0.0010337
2758.45	0.0008756
2768.1	0.0010455
2777.74	0.0011282
2787.39	0.0010283
2797.03	0.0014517
2806.68	0.0013284
2816.32	0.0016728
2825.97	0.001856
2835.61	0.001976
2845.26	0.001846
2854.9	0.002376
2864.55	0.002776
2874.19	0.003986
2883.84	0.005516
2893.48	0.004196
2903.12	0.003276
2912.77	0.003886
2922.41	0.004916
2932.06	0.009686
2941.7	0.014346
2951.35	0.008516
2960.99	0.004526
2970.64	0.003226
2980.28	0.004346
2989.93	0.005356
2999.57	0.002756
3009.22	0.0014371
3018.86	0.001255
3028.51	0.0011877
3038.15	0.00081475
3047.8	0.0012434
3057.44	0.0007103
3067.09	0.0015447
3076.73	0.0014831
3086.38	0.002886
3096.02	0.003406
3105.67	0.0014371
3115.31	0.0009661
3124.95	0.0007762
3134.6	0.0011212
3144.24	0.002026
3153.89	0.0013793
3163.53	0.0016854
3173.18	0.0014857
3182.82	0.0011202
3192.47	0.000561
3202.11	0.00078347
3211.76	0.0012072
3221.4	0.0009067
3231.05	0.00082012
3240.69	0.00076034
3250.34	0.0010599
3259.98	0.001059
3269.63	0.0011521
3279.27	0.000243
3288.92	0.000395
3298.56	0.000542
3308.21	0.0010307
3317.85	0.000613
3327.49	0.00084345
3337.14	0.000544
3346.78	0.0008544
3356.43	0.0006771
3366.07	0.0012363
3375.72	0.0010455
3385.36	0.000476
3395.01	0.0011267
3404.65	0.00080813
3414.3	0.0011996
3423.94	0.0010994
3433.59	0.0014197
3443.23	0.0008501
3452.88	0.0009745
3462.52	0.0008734
3472.17	0.00089
3481.81	0.0010122
3491.46	0.0009818
3501.1	0.0006664
3510.75	0.0008637
3520.39	0.0010357
3530.04	0.0008547
3539.68	0.0010064
3549.32	0.0010224
3558.97	0.0013584
3568.61	9.1e-05
3578.26	0.00080605
3587.9	0.000387
3597.55	0.0011003
3607.19	0.000542
3616.84	0.0007077
3626.48	0.00082535
3636.13	0.000235
3645.77	0.0010026
3655.42	0.0007276
3665.06	0.000875
3674.71	0.0012035
3684.35	0.0006705
3694	0.0010263
3703.64	0.0009334
3713.29	0.000656
3722.93	0.0008938
3732.58	0.0007054
3742.22	0.001079
3751.86	0.000614
3761.51	0.0012896
3771.15	0.0012798
3780.8	0.001386
3790.44	0.0010971
3800.09	0.00078011
3809.73	0.001415
3819.38	0.001113
3829.02	0.0009222
3838.67	0.0006757
3848.31	0.000628
3857.96	0.0006975
3867.6	0.0010889
3877.25	0.0006506
3886.89	0.001209
3896.54	0.0015004
3906.18	0.0010831
3915.83	0.0010601
3925.47	0.0009001
3935.12	0.0011143
3944.76	0.0010348
3954.41	0.000627
3964.05	0.0009768
3973.69	0.0014022
3983.34	0.0014589
3992.98	0.0014062
