Infrared Spectrum: 4(1H)-PYRIDONE, 2,6-DIMETHYL-1-PHENYL-, HYDROCHLORIDE
Formula: C13 H14 Cl N O
CAS: 103206-23-1
State: SOLID (SPLIT MULL)
Melting point: 320 C (DECOMP.)
Class: COBLENTZ III
Instrument: DOW KBr FOREPRISM-GRATING
Instrument parameters: BLAZED AT 3.5, 12.0, 20.0 MICRON AND CHANGED AT 5.0, 7.5, 14.9 MICRON
Sampling: TRANSMISSION
Resolution: 2
Origin: DOW CHEMICAL COMPANY
1/CM	TRANSMITTANCE
463	0.8432
472	0.8514
481	0.8587
490	0.8665
499	0.869
508	0.8477
517	0.8616
526	0.8425
535	0.8901
544	0.8916
553	0.8875
562	0.7418
571	0.8996
580	0.901
589	0.9015
598	0.8961
607	0.467
616	0.9113
625	0.9167
634	0.9133
643	0.9291
652	0.9294
661	0.9181
670	0.8998
679	0.9475
688	0.9025
697	0.1828
706	0.5171
715	0.8864
724	0.8309
733	0.8643
742	0.8971
751	0.913
760	0.912
769	0.5623
778	0.7305
787	0.939
796	0.9374
805	0.931
814	0.9218
823	0.9114
832	0.8949
841	0.8625
850	0.8312
859	0.7115
868	0.1369
877	0.4912
886	0.8076
895	0.8043
904	0.894
913	0.906
922	0.9032
931	0.8951
940	0.9243
949	0.9162
958	0.904
967	0.8744
976	0.8878
985	0.9073
994	0.8806
1003	0.8827
1012	0.8915
1021	0.8727
1030	0.7188
1039	0.7475
1048	0.7454
1057	0.8007
1066	0.8328
1075	0.7501
1084	0.8423
1093	0.8418
1102	0.8436
1111	0.8454
1120	0.8451
1129	0.8428
1138	0.838
1147	0.8295
1156	0.8075
1165	0.743
1174	0.7237
1183	0.1756
1192	0.8024
1201	0.8494
1210	0.8581
1219	0.8216
1228	0.5158
1237	0.74
1246	0.5009
1255	0.5222
1264	0.79
1273	0.7833
1282	0.7545
1291	0.7488
1300	0.7344
1309	0.7012
1318	0.5862
1327	0.4823
1336	0.3084
1345	0.1792
1354	0.1171
1363	0.3038
1372	0.8078
1381	0.7892
1390	0.7756
1399	0.8078
1408	0.77
1417	0.7721
1426	0.699
1435	0.6386
1444	0.4834
1453	0.6515
1462	0.4412
1471	0.4306
1480	0.1448
1489	0.1482
1498	0.6091
1507	0.6453
1516	0.563
1525	0.7038
1534	0.7142
1543	0.7858
1552	0.719
1561	0.6649
1570	0.3376
1579	0.5346
1588	0.4838
1597	0.367
1606	0.4389
1615	0.2384
1624	0.1451
1633	0.0498
1642	0.0425
1651	0.3648
1660	0.7597
1669	0.937
1678	0.9127
1687	0.8194
1696	0.726
1705	0.6951
1714	0.7908
1723	0.8817
1732	0.8887
1741	0.8118
1750	0.8221
1759	0.8995
1768	0.8459
1777	0.8692
1786	0.9307
1795	0.9188
1804	0.9136
1813	0.9416
1822	0.9566
1831	0.9551
1840	0.9466
1849	0.9338
1858	0.924
1867	0.9278
1876	0.9333
1885	0.9304
1894	0.9154
1903	0.914
1912	0.9268
1921	0.9155
1930	0.9049
1939	0.8966
1948	0.8978
1957	0.9041
1966	0.8937
1975	0.9012
1984	0.8975
1993	0.8899
2002	0.9173
2011	0.9275
2020	0.9278
2029	0.9221
2038	0.9143
2047	0.9042
2056	0.8934
2065	0.8806
2074	0.8712
2083	0.8621
2092	0.8557
2101	0.8504
2110	0.8457
2119	0.8352
2128	0.8238
2137	0.8105
2146	0.7968
2155	0.7825
2164	0.7678
2173	0.7511
2182	0.7333
2191	0.7141
2200	0.6887
2209	0.6637
2218	0.6408
2227	0.6189
2236	0.597
2245	0.5751
2254	0.5532
2263	0.5312
2272	0.5066
2281	0.4838
2290	0.4606
2299	0.4356
2308	0.4026
2317	0.3542
2326	0.3061
2335	0.2809
2344	0.2595
2353	0.2418
2362	0.2269
2371	0.2205
2380	0.202
2389	0.1756
2398	0.144
2407	0.1201
2416	0.1055
2425	0.096
2434	0.0914
2443	0.0908
2452	0.0965
2461	0.1192
2470	0.1438
2479	0.1693
2488	0.1842
2497	0.213
2506	0.2349
2515	0.2601
2524	0.2873
2533	0.3303
2542	0.3814
2551	0.4367
2560	0.5071
2569	0.5004
2578	0.484
2587	0.4693
2596	0.4557
2605	0.4322
2614	0.4226
2623	0.431
2632	0.4502
2641	0.4743
2650	0.5062
2659	0.539
2668	0.5428
2677	0.5364
2686	0.5191
2695	0.491
2704	0.442
2713	0.4021
2722	0.414
2731	0.4492
2740	0.4842
2749	0.5192
2758	0.5514
2767	0.5734
2776	0.5821
2785	0.5874
2794	0.5793
2803	0.5535
2812	0.5505
2821	0.551
2830	0.5576
2839	0.5746
2848	0.5955
2857	0.6062
2866	0.6095
2875	0.612
2884	0.6142
2893	0.6156
2902	0.6058
2911	0.5779
2920	0.5506
2929	0.6286
2938	0.6442
2947	0.6401
2956	0.6122
2965	0.5999
2974	0.6858
2983	0.6847
2992	0.6726
3001	0.6551
3010	0.6367
3019	0.6569
3028	0.6272
3037	0.5339
3046	0.5573
3055	0.4847
3064	0.5934
3073	0.6045
3082	0.6399
3091	0.6865
3100	0.7196
3109	0.7506
3118	0.7555
3127	0.7578
3136	0.7593
3145	0.7604
3154	0.7601
3163	0.7593
3172	0.7574
3181	0.7543
3190	0.7575
3199	0.7592
3208	0.7581
3217	0.7565
3226	0.755
3235	0.7524
3244	0.7495
3253	0.7461
3262	0.7422
3271	0.7383
3280	0.735
3289	0.7318
3298	0.7288
3307	0.7261
3316	0.7237
3325	0.7211
3334	0.7185
3343	0.716
3352	0.7135
3361	0.7111
3370	0.7089
3379	0.7065
3388	0.7043
3397	0.7019
3406	0.6997
3415	0.6971
3424	0.6948
3433	0.6922
3442	0.6898
3451	0.6872
3460	0.6851
3469	0.6828
3478	0.6807
3487	0.6785
3496	0.6762
3505	0.674
3514	0.6717
3523	0.6693
3532	0.6669
3541	0.6646
3550	0.6621
3559	0.6599
3568	0.6578
3577	0.6557
3586	0.6536
3595	0.6514
3604	0.6493
3613	0.6468
3622	0.6444
3631	0.6418
3640	0.6393
3649	0.6365
3658	0.6336
3667	0.6309
3676	0.6289
3685	0.6269
3694	0.6249
3703	0.6228
3712	0.6208
3721	0.6187
3730	0.6171
3739	0.6156
3748	0.6141
3757	0.6126
3766	0.6112
3775	0.6097
3784	0.6078
3793	0.6059
