Infrared Spectrum: 1-AMYL PIPERIDINE
Formula: C10 H21 N
CAS: 10324-58-0
State: SOLUTION (10% CCl4 FOR 5000-1330, 10% CS2 FOR 1330-625 CM^-^1)
Class: COBLENTZ
Instrument: Not specified, most likely a prism, grating, or hybrid spectrometer.
Sampling: TRANSMISSION
Path length: 0.0120 CM, 0.0115 CM
Resolution: 4
Origin: DOW CHEMICAL COMPANY
MICROMETERS	TRANSMITTANCE
2.034	0.892
2.07498	0.896
2.11595	0.892
2.15693	0.889
2.19791	0.886
2.23889	0.865
2.27986	0.85
2.32084	0.852
2.36182	0.857
2.4028	0.86
2.44377	0.862
2.48475	0.875
2.52573	0.875
2.56671	0.877
2.60768	0.896
2.64866	0.886
2.68964	0.884
2.73061	0.887
2.77159	0.887
2.81257	0.857
2.85355	0.836
2.89452	0.811
2.9355	0.806
2.97648	0.809
3.01746	0.816
3.05843	0.814
3.09941	0.811
3.14039	0.816
3.18137	0.816
3.22234	0.809
3.26332	0.782
3.3043	0.719
3.34527	0.539
3.38625	0.1
3.42723	0.073
3.46821	0.149
3.50918	0.255
3.55016	0.243
3.59114	0.18
3.63212	0.181
3.67309	0.35
3.71407	0.457
3.75505	0.542
3.79603	0.641
3.837	0.68
3.87798	0.726
3.91896	0.722
3.95993	0.722
4.00091	0.732
4.04189	0.756
4.08287	0.775
4.12384	0.78
4.16482	0.785
4.2058	0.792
4.24678	0.804
4.28775	0.819
4.32873	0.826
4.36971	0.838
4.41069	0.846
4.45166	0.855
4.49264	0.858
4.53362	0.863
4.5746	0.86
4.61557	0.865
4.65655	0.877
4.69753	0.877
4.7385	0.877
4.77948	0.877
4.82046	0.877
4.86144	0.879
4.90241	0.879
4.94339	0.88
4.98437	0.88
5.02535	0.889
5.06632	0.892
5.1073	0.897
5.14828	0.896
5.18926	0.896
5.23023	0.894
5.27121	0.896
5.31219	0.891
5.35316	0.894
5.39414	0.887
5.43512	0.896
5.4761	0.903
5.51707	0.904
5.55805	0.904
5.59903	0.913
5.64001	0.906
5.68098	0.897
5.72196	0.874
5.76294	0.874
5.80392	0.884
5.84489	0.887
5.88587	0.874
5.92685	0.829
5.96782	0.782
6.0088	0.795
6.04978	0.797
6.09076	0.809
6.13173	0.799
6.17271	0.761
6.21369	0.736
6.25467	0.671
6.29564	0.612
6.33662	0.583
6.3776	0.542
6.41858	0.482
6.45955	0.455
6.50053	0.53
6.54151	0.6
6.58248	0.651
6.62346	0.685
6.66444	0.726
6.70542	0.738
6.74639	0.646
6.78737	0.382
6.82835	0.312
6.86933	0.336
6.9103	0.331
6.95128	0.552
6.99226	0.681
7.03324	0.736
7.07421	0.746
7.11519	0.717
7.15617	0.692
7.19714	0.612
7.23812	0.447
7.2791	0.539
7.32008	0.615
7.36105	0.547
7.40203	0.501
7.44301	0.68
7.48399	0.687
7.52496	0.629
7.56594	0.627
7.60692	0.506
7.6479	0.445
7.68887	0.496
7.72985	0.564
7.77083	0.596
7.8118	0.607
7.85278	0.547
7.89376	0.508
7.93474	0.482
7.97571	0.564
8.01669	0.659
8.05767	0.69
8.09865	0.688
8.13962	0.683
8.1806	0.726
8.22158	0.76
8.26256	0.758
8.30353	0.738
8.34451	0.732
8.38549	0.743
8.42647	0.761
8.46744	0.765
8.50842	0.736
8.5494	0.659
8.59037	0.549
8.63135	0.372
8.67233	0.377
8.71331	0.517
8.75428	0.535
8.79526	0.481
8.83624	0.426
8.87722	0.488
8.91819	0.596
8.95917	0.596
9.00015	0.51
9.04113	0.423
9.0821	0.323
9.12308	0.397
9.16406	0.649
9.20503	0.743
9.24601	0.772
9.28699	0.785
9.32797	0.782
9.36894	0.724
9.40992	0.627
9.4509	0.583
9.49188	0.671
9.53285	0.705
9.57383	0.612
9.61481	0.52
9.65579	0.588
9.69676	0.714
9.73774	0.773
9.77872	0.797
9.81969	0.804
9.86067	0.809
9.90165	0.804
9.94263	0.794
9.9836	0.756
10.0246	0.71
10.0656	0.664
10.1065	0.624
10.1475	0.656
10.1885	0.687
10.2295	0.722
10.2704	0.755
10.3114	0.77
10.3524	0.768
10.3934	0.736
10.4344	0.778
10.4753	0.823
10.5163	0.838
10.5573	0.846
10.5983	0.848
10.6392	0.85
10.6802	0.85
10.7212	0.85
10.7622	0.838
10.8032	0.819
10.8441	0.811
10.8851	0.806
10.9261	0.809
10.9671	0.811
11.008	0.792
11.049	0.782
11.09	0.797
11.131	0.797
11.1719	0.777
11.2129	0.784
11.2539	0.787
11.2949	0.763
11.3359	0.741
11.3768	0.729
11.4178	0.717
11.4588	0.687
11.4998	0.646
11.5407	0.602
11.5817	0.569
11.6227	0.551
11.6637	0.561
11.7047	0.59
11.7456	0.627
11.7866	0.685
11.8276	0.722
11.8686	0.765
11.9095	0.789
11.9505	0.804
11.9915	0.816
12.0325	0.823
12.0734	0.824
12.1144	0.824
12.1554	0.829
12.1964	0.829
12.2374	0.829
12.2783	0.826
12.3193	0.807
12.3603	0.792
12.4013	0.789
12.4422	0.797
12.4832	0.787
12.5242	0.772
12.5652	0.763
12.6062	0.75
12.6471	0.722
12.6881	0.683
12.7291	0.632
12.7701	0.598
12.811	0.596
12.852	0.637
12.893	0.681
12.934	0.71
12.9749	0.721
13.0159	0.722
13.0569	0.722
13.0979	0.727
13.1389	0.726
13.1798	0.715
13.2208	0.7
13.2618	0.685
13.3028	0.676
13.3437	0.697
13.3847	0.724
13.4257	0.734
13.4667	0.734
13.5077	0.724
13.5486	0.705
13.5896	0.687
13.6306	0.668
13.6716	0.649
13.7125	0.636
13.7535	0.624
13.7945	0.62
13.8355	0.642
13.8765	0.659
13.9174	0.676
13.9584	0.687
13.9994	0.69
14.0404	0.692
14.0813	0.69
14.1223	0.688
14.1633	0.687
14.2043	0.681
14.2452	0.676
14.2862	0.671
14.3272	0.668
14.3682	0.661
14.4092	0.656
14.4501	0.647
14.4911	0.642
14.5321	0.637
14.5731	0.627
14.614	0.62
14.655	0.613
14.696	0.603
14.737	0.598
14.778	0.591
14.8189	0.574
14.8599	0.568
14.9009	0.561
14.9419	0.557
14.9828	0.554
15.0238	0.545
15.0648	0.53
15.1058	0.518
15.1467	0.51
15.1877	0.5
15.2287	0.493
15.2697	0.484
15.3107	0.476
15.3516	0.469
15.3926	0.465
15.4336	0.462
15.4746	0.459
15.5155	0.454
15.5565	0.448
15.5975	0.442
15.6385	0.438
15.6795	0.431
15.7204	0.426
15.7614	0.428
15.8024	0.425
15.8434	0.42
15.8843	0.423
