Infrared Spectrum: 2-ETHYLHEXENAL-2, 2,4-DINITROPHENYL HYDRAZONE
Formula: C14 H18 N4 O4
CAS: 10324-64-8
State: SOLID (KBr PELLET)
Melting point: 125 C
Class: COBLENTZ
Instrument: PERKIN-ELMER
Sampling: TRANSMISSION
Resolution: 4
MICROMETERS	TRANSMITTANCE
2.04	0.734
2.0733	0.737
2.1066	0.738
2.1399	0.738
2.17321	0.739
2.20651	0.739
2.23981	0.742
2.27311	0.747
2.30641	0.749
2.33971	0.75
2.37302	0.753
2.40632	0.756
2.43962	0.756
2.47292	0.754
2.50622	0.76
2.53952	0.76
2.57283	0.764
2.60613	0.76
2.63943	0.764
2.67273	0.76
2.70603	0.753
2.73933	0.749
2.77264	0.739
2.80594	0.733
2.83924	0.727
2.87254	0.721
2.90584	0.723
2.93914	0.733
2.97245	0.749
3.00575	0.758
3.03905	0.554
3.07235	0.77
3.10565	0.804
3.13895	0.828
3.17226	0.836
3.20556	0.819
3.23886	0.75
3.27216	0.79
3.30546	0.789
3.33876	0.762
3.37207	0.564
3.40537	0.642
3.43867	0.701
3.47197	0.68
3.50527	0.746
3.53857	0.769
3.57188	0.772
3.60518	0.77
3.63848	0.777
3.67178	0.778
3.70508	0.778
3.73838	0.778
3.77169	0.778
3.80499	0.782
3.83829	0.785
3.87159	0.789
3.90489	0.789
3.93819	0.79
3.9715	0.792
4.0048	0.793
4.0381	0.789
4.0714	0.789
4.1047	0.792
4.138	0.792
4.17131	0.792
4.20461	0.8
4.23791	0.801
4.27121	0.802
4.30451	0.802
4.33781	0.804
4.37112	0.802
4.40442	0.801
4.43772	0.802
4.47102	0.804
4.50432	0.805
4.53762	0.805
4.57092	0.808
4.60423	0.808
4.63753	0.806
4.67083	0.806
4.70413	0.805
4.73743	0.806
4.77073	0.81
4.80404	0.809
4.83734	0.808
4.87064	0.809
4.90394	0.813
4.93724	0.815
4.97054	0.815
5.00385	0.815
5.03715	0.815
5.07045	0.815
5.10375	0.813
5.13705	0.809
5.17035	0.808
5.20366	0.816
5.23696	0.819
5.27026	0.82
5.30356	0.819
5.33686	0.813
5.37016	0.819
5.40347	0.821
5.43677	0.823
5.47007	0.828
5.50337	0.821
5.53667	0.815
5.56997	0.819
5.60328	0.821
5.63658	0.823
5.66988	0.821
5.70318	0.821
5.73648	0.821
5.76978	0.821
5.80309	0.815
5.83639	0.815
5.86969	0.815
5.90299	0.812
5.93629	0.81
5.96959	0.8
6.0029	0.793
6.0362	0.753
6.0695	0.721
6.1028	0.648
6.1361	0.505
6.1694	0.302
6.20271	0.092
6.23601	0.194
6.26931	0.241
6.30261	0.371
6.33591	0.43
6.36921	0.659
6.40252	0.713
6.43582	0.722
6.46912	0.68
6.50242	0.678
6.53572	0.53
6.56902	0.26
6.60233	0.202
6.63563	0.39
6.66893	0.575
6.70223	0.662
6.73553	0.701
6.76883	0.71
6.80214	0.693
6.83544	0.68
6.86874	0.706
6.90204	0.721
6.93534	0.719
6.96864	0.682
7.00195	0.615
7.03525	0.534
7.06855	0.723
7.10185	0.835
7.13515	0.844
7.16845	0.82
7.20175	0.773
7.23506	0.76
7.26836	0.739
7.30166	0.727
7.33496	0.735
7.36826	0.71
7.40156	0.64
7.43487	0.502
7.46817	0.3
7.50147	0.171
7.53477	0.056
7.56807	0.101
7.60137	0.117
7.63468	0.195
7.66798	0.344
7.70128	0.4
7.73458	0.482
7.76788	0.52
7.80118	0.49
7.83449	0.466
7.86779	0.516
7.90109	0.577
7.93439	0.611
7.96769	0.634
8.00099	0.678
8.0343	0.693
8.0676	0.694
8.1009	0.69
8.1342	0.676
8.1675	0.583
8.2008	0.619
8.23411	0.682
8.26741	0.691
8.30071	0.691
8.33401	0.687
8.36731	0.683
8.40061	0.694
8.43392	0.71
8.46722	0.729
8.50052	0.742
8.53382	0.754
8.56712	0.762
8.60042	0.768
8.63373	0.77
8.66703	0.766
8.70033	0.742
8.73363	0.703
8.76693	0.53
8.80023	0.369
8.83354	0.308
8.86684	0.349
8.90014	0.461
8.93344	0.514
8.96674	0.58
9.00004	0.636
9.03335	0.668
9.06665	0.684
9.09995	0.678
9.13325	0.648
9.16655	0.573
9.19985	0.58
9.23316	0.565
9.26646	0.41
9.29976	0.344
9.33306	0.571
9.36636	0.651
9.39966	0.656
9.43297	0.66
9.46627	0.634
9.49957	0.63
9.53287	0.678
9.56617	0.71
9.59947	0.723
9.63277	0.731
9.66608	0.741
9.69938	0.75
9.73268	0.76
9.76598	0.761
9.79928	0.764
9.83258	0.765
9.86589	0.769
9.89919	0.769
9.93249	0.77
9.96579	0.77
9.99909	0.764
10.0324	0.758
10.0657	0.761
10.099	0.769
10.1323	0.77
10.1656	0.772
10.1989	0.772
10.2322	0.764
10.2655	0.734
10.2988	0.699
10.3321	0.679
10.3654	0.652
10.3987	0.731
10.432	0.758
10.4653	0.765
10.4986	0.769
10.5319	0.77
10.5652	0.77
10.5985	0.766
10.6318	0.731
10.6651	0.674
10.6984	0.725
10.7317	0.754
10.765	0.743
10.7983	0.719
10.8316	0.718
10.8649	0.742
10.8982	0.757
10.9315	0.761
10.9648	0.768
10.9981	0.769
11.0314	0.768
11.0647	0.762
11.098	0.743
11.1313	0.749
11.1647	0.76
11.198	0.758
11.2313	0.754
11.2646	0.76
11.2979	0.766
11.3312	0.77
11.3645	0.772
11.3978	0.773
11.4311	0.773
11.4644	0.77
11.4977	0.765
11.531	0.752
11.5643	0.738
11.5976	0.709
11.6309	0.699
11.6642	0.714
11.6975	0.739
11.7308	0.758
11.7641	0.762
11.7974	0.765
11.8307	0.765
11.864	0.766
11.8973	0.764
11.9306	0.761
11.9639	0.756
11.9972	0.738
12.0305	0.672
12.0638	0.631
12.0971	0.556
12.1304	0.609
12.1637	0.718
12.197	0.752
12.2303	0.761
12.2636	0.764
12.2969	0.765
12.3302	0.765
12.3635	0.762
12.3968	0.761
12.4301	0.756
12.4634	0.749
12.4967	0.735
12.53	0.719
12.5633	0.718
12.5966	0.731
12.6299	0.743
12.6632	0.749
12.6965	0.749
12.7298	0.747
12.7631	0.745
12.7964	0.742
12.8297	0.739
12.863	0.734
12.8963	0.733
12.9296	0.733
12.9629	0.729
12.9962	0.722
13.0295	0.725
13.0628	0.729
13.0961	0.731
13.1294	0.718
13.1627	0.71
13.1961	0.719
13.2294	0.737
13.2627	0.738
13.296	0.735
13.3293	0.729
13.3626	0.71
13.3959	0.662
13.4292	0.597
13.4625	0.593
13.4958	0.651
13.5291	0.695
13.5624	0.719
13.5957	0.729
13.629	0.733
13.6623	0.734
13.6956	0.733
13.7289	0.731
13.7622	0.727
13.7955	0.721
13.8288	0.707
13.8621	0.678
13.8954	0.639
13.9287	0.628
13.962	0.648
13.9953	0.678
14.0286	0.694
14.0619	0.705
14.0952	0.709
14.1285	0.709
14.1618	0.707
14.1951	0.705
14.2284	0.706
14.2617	0.703
14.295	0.702
14.3283	0.701
14.3616	0.701
14.3949	0.699
14.4282	0.699
14.4615	0.697
14.4948	0.693
14.5281	0.69
14.5614	0.686
14.5947	0.678
14.628	0.67
14.6613	0.667
14.6946	0.667
14.7279	0.667
14.7612	0.667
14.7945	0.667
14.8278	0.667
14.8611	0.667
14.8944	0.667
14.9277	0.668
14.961	0.671
14.9943	0.671
