Infrared Spectrum: 8-QuinolineMethaneThiol
Formula: C10 H9 N S
CAS: 103264-35-3
State: LIQUID (NEAT)
Class: COBLENTZ III
Instrument: PERKIN-ELMER 221 (GRATING)
Instrument parameters: FILTER AT 2490, 980 CM^-^1. GRATING 4000-1428 CM^-^1, NaCl PRISM 1428-650 CM^-^1
Sampling: TRANSMISSION
Path length: CAPILLARY
Resolution: 2
Origin: SOUTHERN RESEARCH INSTITUTE
1/CM	TRANSMITTANCE
599	0.6941
608	0.6923
617	0.6797
626	0.5931
635	0.7297
644	0.8156
653	0.8194
662	0.8129
671	0.7634
680	0.7441
689	0.8129
698	0.8175
707	0.7912
716	0.7615
725	0.8414
734	0.8511
743	0.84
752	0.6372
761	0.5591
770	0.5139
779	0.4907
788	0.2683
797	0.088
806	0.439
815	0.6592
824	0.6365
833	0.3131
842	0.7595
851	0.8537
860	0.8488
869	0.6941
878	0.6574
887	0.8495
896	0.8628
905	0.8595
914	0.8655
923	0.8691
932	0.8602
941	0.8432
950	0.7887
959	0.8003
968	0.7977
977	0.7776
986	0.7841
995	0.8693
1004	0.8756
1013	0.858
1022	0.8135
1031	0.7987
1040	0.8374
1049	0.7977
1058	0.7405
1067	0.8202
1076	0.6501
1085	0.8625
1094	0.8607
1103	0.8563
1112	0.8504
1121	0.8095
1130	0.702
1139	0.8449
1148	0.8321
1157	0.7373
1166	0.7476
1175	0.8088
1184	0.8538
1193	0.8476
1202	0.8161
1211	0.8397
1220	0.8131
1229	0.7471
1238	0.7429
1247	0.7493
1256	0.7037
1265	0.7947
1274	0.873
1283	0.873
1292	0.867
1301	0.8525
1310	0.76
1319	0.69
1328	0.8633
1337	0.8637
1346	0.8476
1355	0.7273
1364	0.609
1373	0.7185
1382	0.7259
1391	0.698
1400	0.7773
1409	0.691
1418	0.7382
1427	0.7127
1436	0.8257
1445	0.8381
1454	0.8143
1463	0.687
1472	0.7693
1481	0.7451
1490	0.2706
1499	0.377
1508	0.8155
1517	0.8534
1526	0.8565
1535	0.8562
1544	0.852
1553	0.8438
1562	0.826
1571	0.5017
1580	0.6961
1589	0.5046
1598	0.6109
1607	0.7159
1616	0.6974
1625	0.8558
1634	0.8698
1643	0.8697
1652	0.868
1661	0.8686
1670	0.8712
1679	0.875
1688	0.8764
1697	0.8742
1706	0.8699
1715	0.8669
1724	0.8644
1733	0.8626
1742	0.8656
1751	0.8695
1760	0.8722
1769	0.8724
1778	0.8713
1787	0.8696
1796	0.8677
1805	0.8659
1814	0.8687
1823	0.8749
1832	0.8761
1841	0.873
1850	0.867
1859	0.8599
1868	0.8525
1877	0.8501
1886	0.851
1895	0.8532
1904	0.8537
1913	0.8491
1922	0.8385
1931	0.8296
1940	0.8321
1949	0.841
1958	0.864
1967	0.8753
1976	0.8861
1985	0.8873
1994	0.8867
2003	0.887
2012	0.8882
2021	0.8884
2030	0.888
2039	0.8884
2048	0.889
2057	0.8896
2066	0.8896
2075	0.8896
2084	0.8897
2093	0.8899
2102	0.8899
2111	0.8895
2120	0.8891
2129	0.8887
2138	0.8882
2147	0.8877
2156	0.8874
2165	0.8872
2174	0.8867
2183	0.8855
2192	0.8834
2201	0.8814
2210	0.88
2219	0.8788
2228	0.8775
2237	0.8767
2246	0.8761
2255	0.8759
2264	0.8767
2273	0.8787
2282	0.8794
2291	0.8793
2300	0.878
2309	0.8733
2318	0.8661
2327	0.8638
2336	0.8618
2345	0.8597
2354	0.8576
2363	0.8567
2372	0.8565
2381	0.8573
2390	0.8576
2399	0.8566
2408	0.855
2417	0.853
2426	0.8508
2435	0.8475
2444	0.8431
2453	0.8375
2462	0.8318
2471	0.8309
2480	0.8294
2489	0.8234
2498	0.8164
2507	0.8089
2516	0.8009
2525	0.7932
2534	0.7856
2543	0.7779
2552	0.7745
2561	0.7835
2570	0.801
2579	0.861
2588	0.8675
2597	0.8674
2606	0.8678
2615	0.8676
2624	0.8675
2633	0.8679
2642	0.8682
2651	0.8682
2660	0.8682
2669	0.8684
2678	0.8686
2687	0.8688
2696	0.8688
2705	0.8685
2714	0.8684
2723	0.8684
2732	0.8677
2741	0.8668
2750	0.8654
2759	0.863
2768	0.8606
2777	0.8576
2786	0.8549
2795	0.8524
2804	0.8496
2813	0.8489
2822	0.8481
2831	0.847
2840	0.8458
2849	0.8458
2858	0.8462
2867	0.8454
2876	0.8385
2885	0.8373
2894	0.8328
2903	0.8166
2912	0.7891
2921	0.7375
2930	0.6741
2939	0.7011
2948	0.754
2957	0.7805
2966	0.7729
2975	0.7608
2984	0.7427
2993	0.6922
3002	0.6693
3011	0.6754
3020	0.6578
3029	0.6304
3038	0.6424
3047	0.6653
3056	0.6739
3065	0.7239
3074	0.7454
3083	0.8116
3092	0.8307
3101	0.8394
3110	0.8437
3119	0.8462
3128	0.8484
3137	0.8494
3146	0.85
3155	0.8506
3164	0.8511
3173	0.8511
3182	0.8509
3191	0.8505
3200	0.8498
3209	0.8491
3218	0.8487
3227	0.8482
3236	0.8483
3245	0.8485
3254	0.8487
3263	0.8485
3272	0.8479
3281	0.8473
3290	0.8467
3299	0.8463
3308	0.8459
3317	0.8455
3326	0.8451
3335	0.8443
3344	0.8434
3353	0.8432
3362	0.8436
3371	0.8444
3380	0.8456
3389	0.8471
3398	0.8485
3407	0.8494
3416	0.8498
3425	0.8496
3434	0.8497
3443	0.8504
3452	0.8509
3461	0.8513
3470	0.8518
3479	0.8523
3488	0.8527
3497	0.853
3506	0.8533
3515	0.8539
3524	0.8546
3533	0.856
3542	0.8576
3551	0.8577
3560	0.8573
3569	0.8581
3578	0.86
3587	0.8626
3596	0.8651
3605	0.8675
3614	0.8695
3623	0.8715
3632	0.8721
3641	0.8725
3650	0.8714
3659	0.8704
3668	0.8696
3677	0.8688
3686	0.8681
3695	0.8675
3704	0.867
3713	0.8675
3722	0.8682
3731	0.8689
3740	0.8691
3749	0.8693
3758	0.8695
3767	0.87
3776	0.8706
3785	0.8708
3794	0.8715
