Infrared Spectrum: 8,8'-METHYLENE BIS-(6-CHLORO-3,4-DIHYDRO-3-PHENYL-2H, 1,3-BENZOXAZINE)
Formula: C29 H24 Cl2 N2 O2
CAS: 103269-23-4
State: SOLUTION (10% CCl4 FOR 5000-1300, 10% CS2 FOR 1300-625 CM^-^1)
Class: COBLENTZ
Instrument: Not specified, most likely a prism, grating, or hybrid spectrometer.
Sampling: TRANSMISSION
Path length: 0.01 CM, 0.01 CM
Resolution: 4
Origin: DOW CHEMICAL COMPANY
MICROMETERS	TRANSMITTANCE
2.027	0.84
2.06776	0.847
2.10851	0.846
2.14927	0.846
2.19002	0.849
2.23078	0.851
2.27154	0.847
2.31229	0.847
2.35305	0.852
2.39381	0.857
2.43456	0.849
2.47532	0.856
2.51607	0.861
2.55683	0.856
2.59759	0.857
2.63834	0.862
2.6791	0.861
2.71986	0.852
2.76061	0.83
2.80137	0.817
2.84212	0.8
2.88288	0.749
2.92364	0.73
2.96439	0.766
3.00515	0.788
3.04591	0.808
3.08666	0.817
3.12742	0.818
3.16817	0.818
3.20893	0.773
3.24969	0.7
3.29044	0.646
3.3312	0.692
3.37196	0.644
3.41271	0.576
3.45347	0.597
3.49422	0.685
3.53498	0.751
3.57574	0.796
3.61649	0.808
3.65725	0.832
3.69801	0.842
3.73876	0.852
3.77952	0.859
3.82027	0.857
3.86103	0.847
3.90179	0.854
3.94254	0.861
3.9833	0.864
4.02406	0.864
4.06481	0.862
4.10557	0.866
4.14632	0.869
4.18708	0.869
4.22784	0.859
4.26859	0.856
4.30935	0.857
4.35011	0.862
4.39086	0.869
4.43162	0.873
4.47237	0.878
4.51313	0.879
4.55389	0.878
4.59464	0.874
4.6354	0.878
4.67616	0.879
4.71691	0.879
4.75767	0.879
4.79842	0.876
4.83918	0.874
4.87994	0.878
4.92069	0.876
4.96145	0.873
5.00221	0.873
5.04296	0.871
5.08372	0.868
5.12447	0.852
5.16523	0.837
5.20599	0.854
5.24674	0.866
5.2875	0.868
5.32826	0.861
5.36901	0.854
5.40977	0.852
5.45052	0.862
5.49128	0.866
5.53204	0.862
5.57279	0.859
5.61355	0.856
5.65431	0.856
5.69506	0.859
5.73582	0.851
5.77657	0.824
5.81733	0.824
5.85809	0.834
5.89884	0.84
5.9396	0.842
5.98036	0.84
6.02111	0.832
6.06187	0.822
6.10262	0.803
6.14338	0.747
6.18414	0.576
6.22489	0.201
6.26565	0.358
6.30641	0.401
6.34716	0.497
6.38792	0.494
6.42867	0.443
6.46943	0.445
6.51019	0.512
6.55094	0.522
6.5917	0.465
6.63246	0.294
6.67321	0.126
6.71397	0.291
6.75472	0.236
6.79548	0.079
6.83624	0.128
6.87699	0.318
6.91775	0.385
6.95851	0.531
6.99926	0.582
7.04002	0.615
7.08077	0.642
7.12153	0.6
7.16229	0.505
7.20304	0.385
7.2438	0.373
7.28456	0.399
7.32531	0.507
7.36607	0.612
7.40682	0.653
7.44758	0.636
7.48834	0.597
7.52909	0.592
7.56985	0.651
7.61061	0.661
7.65136	0.661
7.69212	0.666
7.73287	0.641
7.77363	0.637
7.81439	0.612
7.85514	0.556
7.8959	0.446
7.93666	0.38
7.97741	0.328
8.01817	0.296
8.05892	0.28
8.09968	0.157
8.14044	0.074
8.18119	0.118
8.22195	0.252
8.26271	0.34
8.30346	0.335
8.34422	0.336
8.38497	0.423
8.42573	0.47
8.46649	0.475
8.50724	0.426
8.548	0.326
8.58876	0.296
8.62951	0.343
8.67027	0.429
8.71102	0.45
8.75178	0.576
8.79254	0.666
8.83329	0.697
8.87405	0.724
8.91481	0.725
8.95556	0.719
8.99632	0.673
9.03707	0.612
9.07783	0.61
9.11859	0.639
9.15934	0.637
9.2001	0.6
9.24086	0.538
9.28161	0.48
9.32237	0.468
9.36312	0.477
9.40388	0.57
9.44464	0.653
9.48539	0.681
9.52615	0.681
9.56691	0.651
9.60766	0.588
9.64842	0.509
9.68917	0.411
9.72993	0.494
9.77069	0.56
9.81144	0.58
9.8522	0.602
9.89296	0.631
9.93371	0.632
9.97447	0.563
10.0152	0.521
10.056	0.565
10.0967	0.549
10.1375	0.524
10.1782	0.517
10.219	0.514
10.2598	0.478
10.3005	0.421
10.3413	0.416
10.382	0.455
10.4228	0.458
10.4635	0.411
10.5043	0.313
10.5451	0.192
10.5858	0.108
10.6266	0.079
10.6673	0.106
10.7081	0.204
10.7488	0.299
10.7896	0.363
10.8303	0.414
10.8711	0.455
10.9119	0.516
10.9526	0.57
10.9934	0.598
11.0341	0.605
11.0749	0.6
11.1156	0.592
11.1564	0.58
11.1972	0.546
11.2379	0.492
11.2787	0.433
11.3194	0.404
11.3602	0.377
11.4009	0.355
11.4417	0.351
11.4824	0.311
11.5232	0.262
11.564	0.211
11.6047	0.169
11.6455	0.187
11.6862	0.345
11.727	0.48
11.7677	0.561
11.8085	0.612
11.8493	0.649
11.89	0.675
11.9308	0.69
11.9715	0.698
12.0123	0.707
12.053	0.708
12.0938	0.705
12.1345	0.692
12.1753	0.666
12.2161	0.624
12.2568	0.627
12.2976	0.658
12.3383	0.668
12.3791	0.671
12.4198	0.675
12.4606	0.678
12.5014	0.67
12.5421	0.631
12.5829	0.544
12.6236	0.446
12.6644	0.439
12.7051	0.531
12.7459	0.604
12.7866	0.641
12.8274	0.656
12.8682	0.656
12.9089	0.639
12.9497	0.615
12.9904	0.604
13.0312	0.583
13.0719	0.541
13.1127	0.453
13.1535	0.331
13.1942	0.216
13.235	0.142
13.2757	0.135
13.3165	0.197
13.3572	0.275
13.398	0.373
13.4387	0.478
13.4795	0.536
13.5203	0.563
13.561	0.573
13.6018	0.556
13.6425	0.5
13.6833	0.402
13.724	0.319
13.7648	0.331
13.8056	0.406
13.8463	0.45
13.8871	0.455
13.9278	0.446
13.9686	0.433
14.0093	0.431
14.0501	0.448
14.0908	0.465
14.1316	0.475
14.1724	0.47
14.2131	0.441
14.2539	0.395
14.2946	0.316
14.3354	0.221
14.3761	0.148
14.4169	0.113
14.4577	0.14
14.4984	0.216
14.5392	0.301
14.5799	0.372
14.6207	0.429
14.6614	0.458
14.7022	0.477
14.7429	0.483
14.7837	0.483
14.8245	0.485
14.8652	0.482
14.906	0.472
14.9467	0.465
14.9875	0.465
15.0282	0.463
15.069	0.453
15.1098	0.443
15.1505	0.429
15.1913	0.412
15.232	0.395
15.2728	0.382
15.3135	0.377
15.3543	0.372
15.395	0.372
15.4358	0.373
15.4766	0.373
15.5173	0.368
15.5581	0.363
15.5988	0.36
15.6396	0.351
15.6803	0.345
15.7211	0.333
15.7619	0.324
15.8026	0.318
15.8434	0.311
15.8841	0.311
15.9249	0.329
15.9656	0.35
