Infrared Spectrum: 3H-1,4-Benzodiazepine-2,5-dione, 1,2,4,5-tetrahydro-1-methyl-4-phenyl-
Formula: C16 H14 N2 O2
CAS: 1032-21-9
State: SOLUTION 7% (CHCl3 FOR 2.5-12.5 microns)
Class: COBLENTZ
Instrument: PERKIN-ELMER 21 (GRATING)
Instrument parameters: FILTER AT ABOUT 10 MICRONS
Path length: 0.01 CM
Resolution: 2
Origin: ABBOTT LABORATORIES
1/CM	TRANSMITTANCE
791	0.9711
800	0.9008
809	1.0004
818	0.9786
827	0.9605
836	0.9815
845	1.0015
854	0.9677
863	0.9609
872	0.9608
881	0.9636
890	0.9638
899	0.9403
908	0.9157
917	0.9035
926	0.9343
935	0.9405
944	0.9029
953	0.775
962	0.8198
971	0.9319
980	0.9329
989	0.9468
998	0.8999
1007	0.911
1016	0.8837
1025	0.8802
1034	0.7578
1043	0.7276
1052	0.8726
1061	0.8508
1070	0.7819
1079	0.7803
1088	0.83
1097	0.839
1106	0.8095
1115	0.7323
1124	0.4046
1133	0.5349
1142	0.7836
1151	0.7555
1160	0.6659
1169	0.6626
1178	0.7882
1187	0.7429
1196	0.6761
1205	0.677
1214	0.6732
1223	0.6433
1232	0.6405
1241	0.695
1250	0.764
1259	0.7927
1268	0.6826
1277	0.6266
1286	0.7663
1295	0.7726
1304	0.7359
1313	0.7508
1322	0.7772
1331	0.7676
1340	0.7377
1349	0.734
1358	0.6492
1367	0.5199
1376	0.4254
1385	0.1897
1394	0.1209
1403	0.464
1412	0.5459
1421	0.6859
1430	0.5699
1439	0.4932
1448	0.253
1457	0.1707
1466	0.2897
1475	0.3435
1484	0.2194
1493	0.5358
1502	0.8051
1511	0.8793
1520	0.8816
1529	0.8802
1538	0.8746
1547	0.8431
1556	0.8187
1565	0.7206
1574	0.6787
1583	0.5197
1592	0.3226
1601	0.6056
1610	0.6207
1619	0.5829
1628	0.3638
1637	0.1128
1646	0.028
1655	0.0391
1664	0.065
1673	0.0751
1682	0.3407
1691	0.5903
1700	0.724
1709	0.8246
1718	0.8658
1727	0.8891
1736	0.9066
1745	0.9197
1754	0.9263
1763	0.9278
1772	0.9278
1781	0.928
1790	0.9312
1799	0.9316
1808	0.9308
1817	0.9378
1826	0.9429
1835	0.9411
1844	0.9394
1853	0.9379
1862	0.9422
1871	0.9474
1880	0.9481
1889	0.9477
1898	0.9458
1907	0.939
1916	0.9328
1925	0.9332
1934	0.9356
1943	0.9399
1952	0.9495
1961	0.96
1970	0.9606
1979	0.9609
1988	0.9612
1997	0.9614
2006	0.9616
2015	0.9619
2024	0.9621
2033	0.9624
2042	0.9626
2051	0.9629
2060	0.9631
2069	0.9634
2078	0.9636
2087	0.9639
2096	0.9643
2105	0.9642
2114	0.9643
2123	0.9644
2132	0.9645
2141	0.9642
2150	0.9638
2159	0.9635
2168	0.9632
2177	0.9627
2186	0.9622
2195	0.9616
2204	0.9614
2213	0.9612
2222	0.9612
2231	0.9611
2240	0.961
2249	0.9609
2258	0.961
2267	0.9611
2276	0.9612
2285	0.9613
2294	0.9614
2303	0.961
2312	0.9607
2321	0.9603
2330	0.9594
2339	0.9585
2348	0.9573
2357	0.9537
2366	0.9493
2375	0.9442
2384	0.9403
2393	0.939
2402	0.9389
2411	0.9394
2420	0.9414
2429	0.9446
2438	0.9486
2447	0.9536
2456	0.9577
2465	0.9606
2474	0.9623
2483	0.963
2492	0.9635
2501	0.9638
2510	0.9638
2519	0.9639
2528	0.964
2537	0.9636
2546	0.9631
2555	0.9626
2564	0.9622
2573	0.9617
2582	0.9613
2591	0.9608
2600	0.9608
2609	0.9613
2618	0.9619
2627	0.9623
2636	0.9626
2645	0.9624
2654	0.9614
2663	0.9599
2672	0.9584
2681	0.9568
2690	0.9551
2699	0.9533
2708	0.9516
2717	0.9499
2726	0.9486
2735	0.9472
2744	0.9458
2753	0.944
2762	0.9422
2771	0.9396
2780	0.9364
2789	0.9333
2798	0.9289
2807	0.923
2816	0.9147
2825	0.9045
2834	0.8931
2843	0.8813
2852	0.8669
2861	0.8523
2870	0.8469
2879	0.8435
2888	0.8286
2897	0.8168
2906	0.8088
2915	0.8034
2924	0.7969
2933	0.7546
2942	0.7102
2951	0.7021
2960	0.7027
2969	0.7388
2978	0.7958
2987	0.8299
2996	0.8397
3005	0.8453
3014	0.8484
3023	0.8549
3032	0.8973
3041	0.9112
3050	0.9163
3059	0.923
3068	0.929
3077	0.9306
3086	0.9307
3095	0.9308
3104	0.9309
3113	0.9309
3122	0.9309
3131	0.9309
3140	0.9309
3149	0.9307
3158	0.9301
3167	0.9295
3176	0.9288
3185	0.9274
3194	0.9259
3203	0.9236
3212	0.9208
3221	0.918
3230	0.9166
3239	0.915
3248	0.9192
3257	0.9221
3266	0.9248
3275	0.9273
3284	0.9296
3293	0.9321
3302	0.9338
3311	0.9346
3320	0.9354
3329	0.9358
3338	0.936
3347	0.9362
3356	0.9363
3365	0.9364
3374	0.9365
3383	0.9366
3392	0.9367
3401	0.9369
3410	0.9372
3419	0.9389
3428	0.941
3437	0.9433
3446	0.9455
3455	0.9477
3464	0.9498
3473	0.9512
3482	0.9525
3491	0.9538
3500	0.9549
3509	0.9555
3518	0.956
3527	0.9563
3536	0.9561
3545	0.9558
3554	0.9555
3563	0.9554
3572	0.956
3581	0.9566
3590	0.9573
3599	0.958
3608	0.9586
3617	0.9588
3626	0.9591
3635	0.9594
3644	0.9596
3653	0.9598
3662	0.9596
3671	0.9595
3680	0.9593
3689	0.9591
3698	0.959
3707	0.9588
3716	0.9583
3725	0.9577
3734	0.9572
3743	0.9566
3752	0.956
3761	0.9554
3770	0.9549
3779	0.9543
3788	0.9537
3797	0.953
3806	0.9523
3815	0.9517
3824	0.951
3833	0.9503
3842	0.9496
3851	0.9489
3860	0.9479
3869	0.9469
3878	0.946
3887	0.9451
3896	0.9441
3905	0.9429
3914	0.9414
3923	0.9399
3932	0.9385
3941	0.9372
3950	0.9362
3959	0.9351
3968	0.934
3977	0.933
3986	0.9319
3995	0.931
