Infrared Spectrum: 2H-3,1-BENZOXAZINE-2,4(1H)-DIONE,N-METHYL
Formula: C9 H7 N O3
CAS: 10328-92-4
State: SOLUTION (5% IN CHCl3)
Class: COBLENTZ
Instrument: PERKIN-ELMER 21 (GRATING)
Instrument parameters: FILTER CHANGE AT 10 MICRON
Sampling: TRANSMISSION
Path length: 0.01 CM
Resolution: 2
Origin: ABBOTT LABORATORIES
MICROMETERS	TRANSMITTANCE
2.494	0.959
2.52291	0.959
2.55181	0.959
2.58072	0.959
2.60963	0.959
2.63854	0.959
2.66744	0.959
2.69635	0.958
2.72526	0.959
2.75417	0.96
2.78307	0.96
2.81198	0.956
2.84089	0.95
2.86979	0.946
2.8987	0.935
2.92761	0.918
2.95652	0.913
2.98542	0.918
3.01433	0.925
3.04324	0.926
3.07214	0.929
3.10105	0.934
3.12996	0.937
3.15887	0.938
3.18777	0.938
3.21668	0.936
3.24559	0.918
3.2745	0.902
3.3034	0.871
3.33231	0.817
3.36122	0.81
3.39012	0.83
3.41903	0.868
3.44794	0.884
3.47685	0.9
3.50575	0.913
3.53466	0.925
3.56357	0.931
3.59248	0.936
3.62138	0.941
3.65029	0.946
3.6792	0.95
3.7081	0.954
3.73701	0.955
3.76592	0.953
3.79483	0.953
3.82373	0.952
3.85264	0.95
3.88155	0.956
3.91046	0.955
3.93936	0.953
3.96827	0.952
3.99718	0.95
4.02608	0.949
4.05499	0.946
4.0839	0.944
4.11281	0.944
4.14171	0.944
4.17062	0.947
4.19953	0.949
4.22843	0.95
4.25734	0.952
4.28625	0.953
4.31516	0.955
4.34406	0.956
4.37297	0.953
4.40188	0.949
4.43079	0.947
4.45969	0.95
4.4886	0.96
4.51751	0.961
4.54641	0.953
4.57532	0.948
4.60423	0.948
4.63314	0.95
4.66204	0.95
4.69095	0.952
4.71986	0.958
4.74877	0.961
4.77767	0.961
4.80658	0.956
4.83549	0.95
4.86439	0.952
4.8933	0.952
4.92221	0.955
4.95112	0.956
4.98002	0.955
5.00893	0.947
5.03784	0.947
5.06674	0.942
5.09565	0.937
5.12456	0.941
5.15347	0.935
5.18237	0.923
5.21128	0.932
5.24019	0.926
5.2691	0.917
5.298	0.925
5.32691	0.912
5.35582	0.911
5.38472	0.922
5.41363	0.924
5.44254	0.898
5.47145	0.884
5.50035	0.811
5.52926	0.707
5.55817	0.454
5.58708	0.208
5.61598	0.026
5.64489	0.02
5.6738	0.112
5.7027	0.29
5.73161	0.345
5.76052	0.154
5.78943	0.039
5.81833	0.021
5.84724	0.05
5.87615	0.249
5.90506	0.43
5.93396	0.612
5.96287	0.718
5.99178	0.814
6.02068	0.844
6.04959	0.851
6.0785	0.845
6.10741	0.839
6.13631	0.768
6.16522	0.618
6.19413	0.407
6.22303	0.169
6.25194	0.131
6.28085	0.317
6.30976	0.592
6.33866	0.779
6.36757	0.834
6.39648	0.858
6.42539	0.864
6.45429	0.869
6.4832	0.881
6.51211	0.89
6.54101	0.89
6.56992	0.896
6.59883	0.881
6.62774	0.793
6.65664	0.718
6.68555	0.61
6.71446	0.345
6.74337	0.239
6.77227	0.061
6.80118	0.118
6.83009	0.507
6.85899	0.649
6.8879	0.688
6.91681	0.798
6.94572	0.827
6.97462	0.851
7.00353	0.838
7.03244	0.803
7.06134	0.645
7.09025	0.646
7.11916	0.803
7.14807	0.822
7.17697	0.824
7.20588	0.826
7.23479	0.805
7.2637	0.79
7.2926	0.711
7.32151	0.485
7.35042	0.34
7.37932	0.179
7.40823	0.189
7.43714	0.387
7.46605	0.581
7.49495	0.6
7.52386	0.428
7.55277	0.413
7.58168	0.365
7.61058	0.182
7.63949	0.312
7.6684	0.51
7.6973	0.505
7.72621	0.6
7.75512	0.727
7.78403	0.778
7.81293	0.781
7.84184	0.761
7.87075	0.762
7.89966	0.782
7.92856	0.793
7.95747	0.732
7.98638	0.514
8.01528	0.462
8.04419	0.58
8.0731	0.417
8.10201	0.404
8.13091	0.517
8.15982	0.54
8.18873	0.564
8.21763	0.587
8.24654	0.611
8.27545	0.634
8.30436	0.658
8.33326	0.677
8.36217	0.701
8.39108	0.781
8.41999	0.86
8.44889	0.889
8.4778	0.894
8.50671	0.89
8.53561	0.851
8.56452	0.717
8.59343	0.636
8.62234	0.747
8.65124	0.799
8.68015	0.798
8.70906	0.761
8.73797	0.618
8.76687	0.485
8.79578	0.42
8.82469	0.617
8.85359	0.72
8.8825	0.732
8.91141	0.574
8.94032	0.587
8.96922	0.724
8.99813	0.79
9.02704	0.821
9.05594	0.838
9.08485	0.842
9.11376	0.846
9.14267	0.854
9.17157	0.85
9.20048	0.84
9.22939	0.829
9.2583	0.804
9.2872	0.741
9.31611	0.61
9.34502	0.429
9.37392	0.393
9.40283	0.535
9.43174	0.707
9.46065	0.788
9.48955	0.794
9.51846	0.739
9.54737	0.708
9.57628	0.64
9.60518	0.502
9.63409	0.363
9.663	0.339
9.6919	0.242
9.72081	0.113
9.74972	0.082
9.77863	0.193
9.80753	0.344
9.83644	0.523
9.86535	0.665
9.89426	0.76
9.92316	0.796
9.95207	0.835
9.98098	0.852
10.0099	0.875
10.0388	0.88
10.0677	0.882
10.0966	0.884
10.1255	0.887
10.1544	0.888
10.1833	0.89
10.2122	0.901
10.2411	0.91
10.27	0.914
10.299	0.92
10.3279	0.92
10.3568	0.92
10.3857	0.92
10.4146	0.919
10.4435	0.912
10.4724	0.9
10.5013	0.9
10.5302	0.917
10.5591	0.928
10.588	0.935
10.6169	0.938
10.6458	0.942
10.6748	0.948
10.7037	0.953
10.7326	0.959
10.7615	0.966
10.7904	0.972
10.8193	0.976
10.8482	0.978
10.8771	0.976
10.906	0.973
10.9349	0.972
10.9638	0.97
10.9927	0.97
11.0216	0.97
11.0505	0.97
11.0795	0.97
11.1084	0.968
11.1373	0.967
11.1662	0.965
11.1951	0.965
11.224	0.965
11.2529	0.965
11.2818	0.965
11.3107	0.966
11.3396	0.966
11.3685	0.965
11.3974	0.961
11.4263	0.955
11.4552	0.955
11.4842	0.954
11.5131	0.952
11.542	0.95
11.5709	0.948
11.5998	0.942
11.6287	0.93
11.6576	0.944
11.6865	0.953
11.7154	0.973
11.7443	0.982
11.7732	0.978
11.8021	0.966
11.831	0.955
11.8599	0.964
11.8889	0.967
11.9178	0.967
11.9467	0.967
11.9756	0.967
12.0045	0.967
12.0334	0.966
12.0623	0.966
12.0912	0.966
12.1201	0.966
12.149	0.967
12.1779	0.972
12.2068	0.977
12.2357	0.98
12.2646	0.98
12.2936	0.985
12.3225	0.992
12.3514	0.996
12.3803	0.997
12.4092	1
12.4381	1.001
12.467	1.001
