Infrared Spectrum: 4-BROMO-2-t-BUTYL PHENOL
Formula: C10 H13 Br O
CAS: 10323-39-4
State: SOLUTION (10% CCl4 FOR 5000-1330, 10% CS2 FOR 1330-625 CM^-^1)
Class: COBLENTZ
Instrument: Not specified, most likely a prism, grating, or hybrid spectrometer.
Sampling: TRANSMISSION
Path length: 0.0116 CM, 0.0116 CM
Resolution: 4
Origin: DOW CHEMICAL COMPANY
MICROMETERS	TRANSMITTANCE
2.048	0.907
2.08904	0.904
2.13007	0.907
2.17111	0.91
2.21215	0.909
2.25318	0.9
2.29422	0.897
2.33525	0.907
2.37629	0.902
2.41733	0.907
2.45836	0.91
2.4994	0.909
2.54044	0.898
2.58147	0.902
2.62251	0.912
2.66355	0.916
2.70458	0.897
2.74562	0.78
2.78665	0.506
2.82769	0.751
2.86873	0.791
2.90976	0.833
2.9508	0.868
2.99184	0.871
3.03287	0.871
3.07391	0.873
3.11494	0.873
3.15598	0.875
3.19702	0.875
3.23805	0.866
3.27909	0.844
3.32013	0.739
3.36116	0.506
3.4022	0.327
3.44324	0.542
3.48427	0.654
3.52531	0.868
3.56634	0.883
3.60738	0.895
3.64842	0.902
3.68945	0.902
3.73049	0.91
3.77153	0.907
3.81256	0.912
3.8536	0.921
3.89464	0.917
3.93567	0.921
3.97671	0.912
4.01774	0.912
4.05878	0.91
4.09982	0.905
4.14085	0.912
4.18189	0.921
4.22293	0.912
4.26396	0.904
4.305	0.902
4.34603	0.905
4.38707	0.914
4.42811	0.931
4.46914	0.934
4.51018	0.941
4.55122	0.946
4.59225	0.945
4.63329	0.948
4.67433	0.946
4.71536	0.946
4.7564	0.946
4.79743	0.948
4.83847	0.946
4.87951	0.941
4.92054	0.952
4.96158	0.948
5.00262	0.948
5.04365	0.946
5.08469	0.952
5.12573	0.948
5.16676	0.953
5.2078	0.957
5.24883	0.95
5.28987	0.941
5.33091	0.926
5.37194	0.921
5.41298	0.898
5.45402	0.926
5.49505	0.934
5.53609	0.924
5.57712	0.941
5.61816	0.946
5.6592	0.921
5.70023	0.909
5.74127	0.922
5.78231	0.919
5.82334	0.931
5.86438	0.938
5.90542	0.941
5.94645	0.933
5.98749	0.924
6.02852	0.926
6.06956	0.921
6.1106	0.91
6.15163	0.881
6.19267	0.832
6.23371	0.69
6.27474	0.583
6.31578	0.601
6.35682	0.583
6.39785	0.546
6.43889	0.498
6.47992	0.491
6.52096	0.597
6.562	0.63
6.60303	0.642
6.64407	0.559
6.68511	0.39
6.72614	0.162
6.76718	0.409
6.80822	0.554
6.84925	0.51
6.89029	0.654
6.93132	0.767
6.97236	0.755
7.0134	0.724
7.05443	0.72
7.09547	0.589
7.13651	0.349
7.17754	0.188
7.21858	0.561
7.25961	0.741
7.30065	0.607
7.34169	0.594
7.38272	0.873
7.42376	0.857
7.4648	0.787
7.50583	0.638
7.54687	0.443
7.58791	0.431
7.62894	0.667
7.66998	0.758
7.71101	0.753
7.75205	0.727
7.79309	0.602
7.83412	0.559
7.87516	0.606
7.9162	0.428
7.95723	0.25
7.99827	0.205
8.03931	0.253
8.08034	0.575
8.12138	0.683
8.16241	0.705
8.20345	0.707
8.24449	0.693
8.28552	0.636
8.32656	0.582
8.3676	0.565
8.40863	0.491
8.44967	0.301
8.4907	0.109
8.53174	0.092
8.57278	0.253
8.61381	0.417
8.65485	0.547
8.69589	0.64
8.73692	0.659
8.77796	0.534
8.819	0.554
8.86003	0.679
8.90107	0.755
8.9421	0.784
8.98314	0.803
9.02418	0.803
9.06521	0.777
9.10625	0.648
9.14729	0.57
9.18832	0.534
9.22936	0.325
9.2704	0.148
9.31143	0.453
9.35247	0.561
9.3935	0.625
9.43454	0.772
9.47558	0.823
9.51661	0.842
9.55765	0.857
9.59869	0.869
9.63972	0.875
9.68076	0.876
9.72179	0.876
9.76283	0.852
9.80387	0.833
9.8449	0.871
9.88594	0.854
9.92698	0.876
9.96801	0.886
10.009	0.9
10.0501	0.909
10.0911	0.914
10.1322	0.914
10.1732	0.914
10.2142	0.917
10.2553	0.916
10.2963	0.916
10.3373	0.914
10.3784	0.914
10.4194	0.912
10.4604	0.904
10.5015	0.902
10.5425	0.898
10.5836	0.893
10.6246	0.885
10.6656	0.868
10.7067	0.832
10.7477	0.821
10.7887	0.825
10.8298	0.839
10.8708	0.859
10.9118	0.871
10.9529	0.875
10.9939	0.875
11.035	0.875
11.076	0.873
11.117	0.868
11.1581	0.856
11.1991	0.842
11.2401	0.808
11.2812	0.743
11.3222	0.597
11.3632	0.469
11.4043	0.527
11.4453	0.638
11.4864	0.664
11.5274	0.607
11.5684	0.578
11.6095	0.643
11.6505	0.679
11.6915	0.686
11.7326	0.696
11.7736	0.715
11.8146	0.753
11.8557	0.779
11.8967	0.796
11.9378	0.808
11.9788	0.813
12.0198	0.806
12.0609	0.782
12.1019	0.739
12.1429	0.645
12.184	0.554
12.225	0.51
12.266	0.534
12.3071	0.539
12.3481	0.493
12.3892	0.412
12.4302	0.234
12.4712	0.131
12.5123	0.238
12.5533	0.541
12.5943	0.674
12.6354	0.756
12.6764	0.784
12.7174	0.804
12.7585	0.816
12.7995	0.825
12.8406	0.832
12.8816	0.837
12.9226	0.842
12.9637	0.845
13.0047	0.847
13.0457	0.851
13.0868	0.851
13.1278	0.851
13.1688	0.849
13.2099	0.845
13.2509	0.84
13.292	0.835
13.333	0.83
13.374	0.821
13.4151	0.818
13.4561	0.813
13.4971	0.811
13.5382	0.806
13.5792	0.799
13.6202	0.784
13.6613	0.779
13.7023	0.779
13.7434	0.775
13.7844	0.77
13.8254	0.763
13.8665	0.758
13.9075	0.75
13.9485	0.732
13.9896	0.712
14.0306	0.666
14.0716	0.602
14.1127	0.527
14.1537	0.508
14.1948	0.547
14.2358	0.595
14.2768	0.633
14.3179	0.662
14.3589	0.672
14.3999	0.672
14.441	0.669
14.482	0.666
14.523	0.662
14.5641	0.659
14.6051	0.65
14.6462	0.636
14.6872	0.628
14.7282	0.621
14.7693	0.611
14.8103	0.601
14.8513	0.595
14.8924	0.585
14.9334	0.575
14.9744	0.57
15.0155	0.566
15.0565	0.558
15.0976	0.549
15.1386	0.537
15.1796	0.525
15.2207	0.515
15.2617	0.501
15.3027	0.491
15.3438	0.484
15.3848	0.476
15.4258	0.467
15.4669	0.457
15.5079	0.45
15.549	0.44
15.59	0.431
15.631	0.419
15.6721	0.405
15.7131	0.39
15.7541	0.373
15.7952	0.356
15.8362	0.325
15.8772	0.296
15.9183	0.32
