Infrared Spectrum: 2-PROPENENITRILE, 3-CHLORO-2-METHYL-
Formula: C4 H4 Cl N
CAS: 10329-37-0
State: LIQUID (NEAT)
Class: COBLENTZ III
Instrument: PERKIN-ELMER 521 (GRATING)
Instrument parameters: FILTERS AT 3150, 2500, 2000, 1150, 700, 410 AND GRATING CHANGES AT 2000, 630 CM^-^1
Sampling: TRANSMISSION
Path length: 0.0027 CM
Resolution: 4
Origin: STANDARD OIL OF OHIO
1/CM	TRANSMITTANCE
538.911	0.1
547.666	0.14
556.421	0.17
565.176	0.203
573.93	0.218
582.685	0.1031
591.44	0.238
600.195	0.24
608.95	0.406
617.705	0.488
626.46	0.546
635.214	0.587
643.969	0.636
652.724	0.629
661.479	0.604
670.234	0.544
678.989	0.58
687.743	0.709
696.498	0.746
705.253	0.717
714.008	0.646
722.763	0.5641
731.518	0.2772
740.273	0.2869
749.027	0.5659
757.782	0.726
766.537	0.767
775.292	0.733
784.047	0.659
792.802	0.595
801.557	0.6
810.311	0.5001
819.066	0.2272
827.821	0.113
836.576	0.123
845.331	0.056
854.086	0.065
862.841	0.099
871.595	0.18
880.35	0.534
889.105	0.656
897.86	0.743
906.615	0.806
915.37	0.843
924.125	0.837
932.879	0.809
941.634	0.797
950.389	0.838
959.144	0.82
967.899	0.838
976.654	0.841
985.408	0.8011
994.163	0.721
1002.92	0.6081
1011.67	0.495
1020.43	0.1301
1029.18	0.1169
1037.94	0.392
1046.69	0.476
1055.45	0.562
1064.2	0.698
1072.96	0.783
1081.71	0.769
1090.47	0.6781
1099.22	0.4721
1107.98	0.413
1116.73	0.579
1125.49	0.593
1134.24	0.547
1143	0.569
1151.75	0.549
1160.51	0.4999
1169.26	0.547
1178.02	0.647
1186.77	0.741
1195.52	0.747
1204.28	0.779
1213.03	0.812
1221.79	0.816
1230.54	0.792
1239.3	0.743
1248.05	0.713
1256.81	0.699
1265.56	0.675
1274.32	0.648
1283.07	0.652
1291.83	0.591
1300.58	0.475
1309.34	0.511
1318.09	0.575
1326.85	0.649
1335.6	0.753
1344.36	0.804
1353.11	0.818
1361.87	0.787
1370.62	0.688
1379.38	0.4711
1388.13	0.632
1396.89	0.749
1405.64	0.712
1414.4	0.656
1423.15	0.4842
1431.91	0.2611
1440.66	0.1581
1449.42	0.2009
1458.17	0.556
1466.93	0.701
1475.68	0.728
1484.44	0.804
1493.19	0.837
1501.94	0.852
1510.7	0.853
1519.45	0.858
1528.21	0.85
1536.96	0.844
1545.72	0.836
1554.47	0.814
1563.23	0.786
1571.98	0.705
1580.74	0.648
1589.49	0.569
1598.25	0.3521
1607	0.069
1615.76	0.3729
1624.51	0.587
1633.27	0.63
1642.02	0.654
1650.78	0.704
1659.53	0.717
1668.29	0.746
1677.04	0.766
1685.8	0.776
1694.55	0.781
1703.31	0.78
1712.06	0.785
1720.82	0.802
1729.57	0.819
1738.33	0.8
1747.08	0.792
1755.84	0.827
1764.59	0.848
1773.35	0.884
1782.1	0.895
1790.85	0.898
1799.61	0.904
1808.36	0.909
1817.12	0.907
1825.87	0.909
1834.63	0.9
1843.38	0.903
1852.14	0.901
1860.89	0.9
1869.65	0.894
1878.4	0.895
1887.16	0.9
1895.91	0.901
1904.67	0.903
1913.42	0.906
1922.18	0.906
1930.93	0.909
1939.69	0.906
1948.44	0.909
1957.2	0.9
1965.95	0.905
1974.71	0.904
1983.46	0.9
1992.22	0.909
2000.97	0.9035
2009.73	0.901
2018.48	0.906
2027.24	0.907
2035.99	0.9
2044.75	0.899
2053.5	0.9065
2062.26	0.904
2071.01	0.9
2079.77	0.898
2088.52	0.9025
2097.27	0.909
2106.03	0.9095
2114.78	0.906
2123.54	0.9035
2132.29	0.901
2141.05	0.9005
2149.8	0.89
2158.56	0.885
2167.31	0.878
2176.07	0.8791
2184.82	0.8759
2193.58	0.8619
2202.33	0.8175
2211.09	0.7056
2219.84	0.0854
2228.6	0.4507
2237.35	0.805
2246.11	0.8627
2254.86	0.8781
2263.62	0.8825
2272.37	0.89
2281.13	0.8895
2289.88	0.893
2298.64	0.8914
2307.39	0.888
2316.15	0.8931
2324.9	0.889
2333.66	0.8864
2342.41	0.8881
2351.17	0.8986
2359.92	0.9
2368.68	0.899
2377.43	0.8979
2386.18	0.896
2394.94	0.8827
2403.69	0.87
2412.45	0.8709
2421.2	0.8696
2429.96	0.875
2438.71	0.8687
2447.47	0.8527
2456.22	0.8374
2464.98	0.8373
2473.73	0.8572
2482.49	0.8672
2491.24	0.8776
2500	0.878
2508.75	0.8848
2517.51	0.8881
2526.26	0.8894
2535.02	0.871
2543.77	0.8866
2552.53	0.8903
2561.28	0.896
2570.04	0.899
2578.79	0.898
2587.55	0.895
2596.3	0.895
2605.06	0.8929
2613.81	0.8874
2622.57	0.8893
2631.32	0.899
2640.08	0.8959
2648.83	0.8978
2657.59	0.899
2666.34	0.8984
2675.1	0.8959
2683.85	0.89
2692.6	0.8927
2701.36	0.8932
2710.11	0.8949
2718.87	0.8884
2727.62	0.8798
2736.38	0.8627
2745.13	0.8582
2753.89	0.865
2762.64	0.883
2771.4	0.878
2780.15	0.877
2788.91	0.873
2797.66	0.8649
2806.42	0.8471
2815.17	0.8374
2823.93	0.8356
2832.68	0.8427
2841.44	0.8187
2850.19	0.7547
2858.95	0.7479
2867.7	0.7469
2876.46	0.7417
2885.21	0.7324
2893.97	0.7051
2902.72	0.689
2911.48	0.6821
2920.23	0.6123
2928.99	0.4623
2937.74	0.6295
2946.5	0.6677
2955.25	0.629
2964.01	0.4874
2972.76	0.5306
2981.51	0.5383
2990.27	0.5579
2999.02	0.5949
3007.78	0.695
3016.53	0.7497
3025.29	0.755
3034.04	0.749
3042.8	0.6956
3051.55	0.6034
3060.31	0.5204
3069.06	0.2937
3077.82	0.129
3086.57	0.3311
3095.33	0.588
3104.08	0.7248
3112.84	0.7651
3121.59	0.7964
3130.35	0.8062
3139.1	0.8127
3147.86	0.828
3156.61	0.8377
3165.37	0.8484
3174.12	0.853
3182.88	0.8546
3191.63	0.8463
3200.39	0.8566
3209.14	0.861
3217.9	0.8722
3226.65	0.8774
3235.41	0.8812
3244.16	0.881
3252.92	0.8778
3261.67	0.8887
3270.43	0.89
3279.18	0.892
3287.93	0.8942
3296.69	0.8947
3305.44	0.894
3314.2	0.8943
3322.95	0.8888
3331.71	0.889
3340.46	0.887
3349.22	0.8893
3357.97	0.8889
3366.73	0.8867
3375.48	0.8876
3384.24	0.878
3392.99	0.871
3401.75	0.8907
3410.5	0.8948
3419.26	0.896
3428.01	0.8982
3436.77	0.899
3445.52	0.898
3454.28	0.8975
3463.03	0.9
3471.79	0.895
3480.54	0.899
3489.3	0.8943
3498.05	0.8932
3506.81	0.8933
3515.56	0.887
3524.32	0.8765
3533.07	0.8705
3541.83	0.881
3550.58	0.883
3559.34	0.8868
3568.09	0.894
3576.84	0.889
3585.6	0.8885
3594.35	0.8948
3603.11	0.8915
3611.86	0.888
3620.62	0.8897
3629.37	0.888
3638.13	0.8873
3646.88	0.889
3655.64	0.8877
3664.39	0.889
3673.15	0.8923
3681.9	0.8998
3690.66	0.904
3699.41	0.9058
3708.17	0.9103
3716.92	0.9158
3725.68	0.9127
3734.43	0.9146
3743.19	0.917
3751.94	0.913
3760.7	0.91
3769.45	0.9098
3778.21	0.91
3786.96	0.9054
3795.72	0.9024
