Infrared Spectrum: P-PHENYL AZO CARBANILIC ACID, CEDROL ESTER
Formula: C28 H35 N3 O2
CAS: 103306-68-9
State: SOLID (1.5 mg / 100 mg KBr)
Melting point: 139-140 C
Class: COBLENTZ
Instrument: Not specified, most likely a grating spectrometer.
Sampling: TRANSMISSION
Resolution: 4
Origin: CITRUS EXPERIMENT STATION, UNIVERSITY OF FLORIDA (G. EDWARDS)
MICROMETERS	TRANSMITTANCE
2.007	0.862
2.0401	0.862
2.07319	0.865
2.10629	0.869
2.13939	0.872
2.17248	0.873
2.20558	0.873
2.23868	0.874
2.27178	0.878
2.30487	0.882
2.33797	0.885
2.37107	0.888
2.40416	0.889
2.43726	0.892
2.47036	0.894
2.50345	0.898
2.53655	0.901
2.56965	0.901
2.60275	0.904
2.63584	0.905
2.66894	0.909
2.70204	0.909
2.73513	0.908
2.76823	0.904
2.80133	0.901
2.83442	0.902
2.86752	0.9
2.90062	0.873
2.93371	0.87
2.96681	0.841
2.99991	0.83
3.03301	0.874
3.0661	0.898
3.0992	0.913
3.1323	0.918
3.16539	0.921
3.19849	0.918
3.23159	0.908
3.26468	0.901
3.29778	0.882
3.33088	0.757
3.36397	0.636
3.39707	0.707
3.43017	0.769
3.46327	0.794
3.49636	0.896
3.52946	0.932
3.56256	0.94
3.59565	0.94
3.62875	0.941
3.66185	0.946
3.69494	0.949
3.72804	0.949
3.76114	0.949
3.79424	0.95
3.82733	0.95
3.86043	0.953
3.89353	0.953
3.92662	0.956
3.95972	0.958
3.99282	0.96
4.02591	0.961
4.05901	0.961
4.09211	0.964
4.1252	0.965
4.1583	0.965
4.1914	0.965
4.2245	0.965
4.25759	0.965
4.29069	0.966
4.32379	0.968
4.35688	0.968
4.38998	0.969
4.42308	0.969
4.45617	0.972
4.48927	0.974
4.52237	0.974
4.55546	0.974
4.58856	0.976
4.62166	0.977
4.65476	0.978
4.68785	0.978
4.72095	0.978
4.75405	0.978
4.78714	0.978
4.82024	0.977
4.85334	0.977
4.88643	0.978
4.91953	0.978
4.95263	0.978
4.98573	0.978
5.01882	0.978
5.05192	0.976
5.08502	0.976
5.11811	0.976
5.15121	0.976
5.18431	0.976
5.2174	0.976
5.2505	0.976
5.2836	0.978
5.31669	0.981
5.34979	0.982
5.38289	0.984
5.41599	0.984
5.44908	0.98
5.48218	0.977
5.51528	0.974
5.54837	0.973
5.58147	0.97
5.61457	0.969
5.64766	0.965
5.68076	0.93
5.71386	0.801
5.74695	0.677
5.78005	0.712
5.81315	0.687
5.84625	0.701
5.87934	0.778
5.91244	0.904
5.94554	0.945
5.97863	0.95
6.01173	0.96
6.04483	0.961
6.07792	0.961
6.11102	0.956
6.14412	0.93
6.17722	0.866
6.21031	0.644
6.24341	0.661
6.27651	0.766
6.3096	0.904
6.3427	0.933
6.3758	0.897
6.40889	0.837
6.44199	0.712
6.47509	0.56
6.50818	0.513
6.54128	0.513
6.57438	0.572
6.60748	0.736
6.64057	0.792
6.67367	0.826
6.70677	0.824
6.73986	0.852
6.77296	0.805
6.80606	0.769
6.83915	0.801
6.87225	0.825
6.90535	0.824
6.93845	0.826
6.97154	0.901
7.00464	0.932
7.03774	0.864
7.07083	0.729
7.10393	0.788
7.13703	0.894
7.17012	0.901
7.20322	0.88
7.23632	0.797
7.26941	0.822
7.30251	0.841
7.33561	0.866
7.36871	0.889
7.4018	0.897
7.4349	0.878
7.468	0.865
7.50109	0.816
7.53419	0.784
7.56729	0.766
7.60038	0.724
7.63348	0.668
7.66658	0.701
7.69967	0.802
7.73277	0.898
7.76587	0.912
7.79897	0.913
7.83206	0.876
7.86516	0.836
7.89826	0.82
7.93135	0.834
7.96445	0.838
7.99755	0.832
8.03064	0.785
8.06374	0.683
8.09684	0.585
8.12994	0.482
8.16303	0.423
8.19613	0.424
8.22923	0.46
8.26232	0.491
8.29542	0.579
8.32852	0.727
8.36161	0.81
8.39471	0.806
8.42781	0.83
8.4609	0.865
8.494	0.89
8.5271	0.896
8.5602	0.886
8.59329	0.87
8.62639	0.793
8.65949	0.724
8.69258	0.727
8.72568	0.736
8.75878	0.761
8.79187	0.84
8.82497	0.868
8.85807	0.845
8.89116	0.802
8.92426	0.745
8.95736	0.659
8.99046	0.667
9.02355	0.6
9.05665	0.545
9.08975	0.579
9.12284	0.703
9.15594	0.764
9.18904	0.7
9.22213	0.689
9.25523	0.806
9.28833	0.878
9.32143	0.87
9.35452	0.841
9.38762	0.86
9.42072	0.866
9.45381	0.858
9.48691	0.868
9.52001	0.833
9.5531	0.782
9.5862	0.797
9.6193	0.821
9.65239	0.845
9.68549	0.89
9.71859	0.914
9.75169	0.914
9.78478	0.884
9.81788	0.885
9.85098	0.905
9.88407	0.908
9.91717	0.912
9.95027	0.918
9.98336	0.925
10.0165	0.934
10.0496	0.957
10.0827	0.966
10.1158	0.966
10.1488	0.969
10.1819	0.97
10.215	0.969
10.2481	0.96
10.2812	0.953
10.3143	0.938
10.3474	0.948
10.3805	0.961
10.4136	0.964
10.4467	0.966
10.4798	0.969
10.5129	0.969
10.546	0.961
10.5791	0.952
10.6122	0.942
10.6453	0.942
10.6784	0.949
10.7115	0.946
10.7446	0.937
10.7777	0.945
10.8108	0.945
10.8439	0.933
10.877	0.921
10.9101	0.934
10.9432	0.944
10.9763	0.949
11.0094	0.949
11.0425	0.948
11.0756	0.948
11.1087	0.949
11.1418	0.949
11.1749	0.953
11.208	0.965
11.241	0.972
11.2741	0.973
11.3072	0.973
11.3403	0.973
11.3734	0.976
11.4065	0.98
11.4396	0.984
11.4727	0.982
11.5058	0.981
11.5389	0.977
11.572	0.974
11.6051	0.97
11.6382	0.964
11.6713	0.954
11.7044	0.93
11.7375	0.886
11.7706	0.833
11.8037	0.781
11.8368	0.749
11.8699	0.757
11.903	0.788
11.9361	0.822
11.9692	0.856
12.0023	0.885
12.0354	0.908
12.0685	0.916
12.1016	0.933
12.1347	0.937
12.1678	0.941
12.2009	0.941
12.234	0.94
12.2671	0.944
12.3002	0.946
12.3332	0.949
12.3663	0.957
12.3994	0.956
12.4325	0.952
12.4656	0.95
12.4987	0.945
12.5318	0.93
12.5649	0.908
12.598	0.878
12.6311	0.833
12.6642	0.806
12.6973	0.793
12.7304	0.789
12.7635	0.796
12.7966	0.8
12.8297	0.805
12.8628	0.805
12.8959	0.801
12.929	0.792
12.9621	0.77
12.9952	0.745
13.0283	0.707
13.0614	0.683
13.0945	0.684
13.1276	0.712
13.1607	0.748
13.1938	0.78
13.2269	0.81
13.26	0.833
13.2931	0.858
13.3262	0.877
13.3593	0.894
13.3923	0.897
13.4254	0.901
13.4585	0.912
13.4916	0.922
13.5247	0.93
13.5578	0.937
13.5909	0.94
13.624	0.94
13.6571	0.94
13.6902	0.94
13.7233	0.938
13.7564	0.936
13.7895	0.93
13.8226	0.926
13.8557	0.912
13.8888	0.897
13.9219	0.9
13.955	0.912
13.9881	0.92
14.0212	0.924
14.0543	0.926
14.0874	0.93
14.1205	0.929
14.1536	0.926
14.1867	0.924
14.2198	0.925
14.2529	0.921
14.286	0.912
14.3191	0.898
14.3522	0.884
14.3853	0.873
14.4184	0.86
14.4515	0.828
14.4845	0.8
14.5176	0.745
14.5507	0.721
14.5838	0.721
14.6169	0.744
14.65	0.772
14.6831	0.812
14.7162	0.83
14.7493	0.854
14.7824	0.864
14.8155	0.872
14.8486	0.869
14.8817	0.86
14.9148	0.818
14.9479	0.794
14.981	0.845
15.0141	0.873
