Infrared Spectrum: D-Camphorquinone
Formula: C 10 H 14 O 2
CAS: 10334-26-6
State: gas
Origin: EPA-IR VAPOR PHASE LIBRARY
1/CM	ABSORBANCE
549.8	0.006099
559.445	0.005259
569.09	0.003099
578.734	0.002699
588.379	0.004599
598.024	0.005219
607.669	0.005299
617.313	0.004609
626.958	0.003259
636.603	0.0011645
646.248	0.0011167
655.893	0.00032
665.537	0.0011722
675.182	0.002169
684.827	0.003789
694.472	0.003859
704.116	0.002719
713.761	0.002949
723.406	0.005969
733.051	0.005609
742.695	0.003279
752.34	0.001559
761.985	0.0012559
771.63	0.0009211
781.275	0.0011945
790.919	0.0010784
800.564	0.001819
810.209	0.003279
819.854	0.004379
829.498	0.003849
839.143	0.002789
848.788	0.002529
858.433	0.001939
868.078	0.001659
877.722	0.002429
887.367	0.005209
897.012	0.011199
906.657	0.013159
916.301	0.007919
925.946	0.005159
935.591	0.006149
945.236	0.010519
954.88	0.020159
964.525	0.023909
974.17	0.014949
983.815	0.018829
993.46	0.031619
1003.1	0.027049
1012.75	0.012039
1022.39	0.005899
1032.04	0.007009
1041.68	0.012069
1051.33	0.013889
1060.97	0.007569
1070.62	0.003129
1080.26	0.003409
1089.91	0.005229
1099.55	0.008729
1109.2	0.010269
1118.84	0.010489
1128.49	0.007709
1138.13	0.006659
1147.78	0.012859
1157.42	0.020329
1167.07	0.016369
1176.71	0.008549
1186.36	0.007009
1196	0.007639
1205.64	0.007249
1215.29	0.006499
1224.93	0.007789
1234.58	0.007699
1244.22	0.006799
1253.87	0.005779
1263.51	0.005179
1273.16	0.009199
1282.8	0.012579
1292.45	0.010559
1302.09	0.008499
1311.74	0.010399
1321.38	0.009889
1331.03	0.006129
1340.67	0.003459
1350.32	0.003189
1359.96	0.005909
1369.61	0.016379
1379.25	0.027339
1388.9	0.025639
1398.54	0.021239
1408.18	0.011379
1417.83	0.004469
1427.47	0.005279
1437.12	0.009959
1446.76	0.018809
1456.41	0.023929
1466.05	0.020819
1475.7	0.018059
1485.34	0.014229
1494.99	0.007429
1504.63	0.003459
1514.28	0.002619
1523.92	0.002259
1533.57	0.001809
1543.21	0.002139
1552.86	0.002209
1562.5	0.001919
1572.15	0.001969
1581.79	0.001999
1591.44	0.002389
1601.08	0.002879
1610.73	0.003099
1620.37	0.003119
1630.01	0.002889
1639.66	0.003359
1649.3	0.004029
1658.95	0.004719
1668.59	0.005019
1678.24	0.005429
1687.88	0.006409
1697.53	0.006659
1707.17	0.007099
1716.82	0.010329
1726.46	0.017159
1736.11	0.028269
1745.75	0.065749
1755.4	0.184159
1765.04	0.285649
1774.69	0.229979
1784.33	0.142929
1793.98	0.074889
1803.62	0.024619
1813.27	0.013189
1822.91	0.009009
1832.55	0.006309
1842.2	0.005349
1851.84	0.005189
1861.49	0.004919
1871.13	0.004699
1880.78	0.003369
1890.42	0.002669
1900.07	0.002549
1909.71	0.002529
1919.36	0.002539
1929	0.002349
1938.65	0.001849
1948.29	0.001639
1957.94	0.0015001
1967.58	0.001549
1977.23	0.0013699
1986.87	0.0011694
1996.52	0.0012649
2006.16	0.0013659
2015.81	0.0012059
2025.45	0.0010993
2035.1	0.0012186
2044.74	0.0011105
2054.38	0.0010849
2064.03	0.0010966
2073.67	0.0013476
2083.32	0.0014524
2092.96	0.0012115
2102.61	0.0010487
2112.25	0.0009918
2121.9	0.0007471
2131.54	0.0008629
2141.19	0.0007665
2150.83	0.0007592
2160.48	0.0009467
2170.12	0.0009545
2179.77	0.000824
2189.41	0.0009039
2199.06	0.0011221
2208.7	0.0010829
2218.35	0.0010591
2227.99	0.0009984
2237.64	0.0007225
2247.28	0.0006694
2256.92	0.0008228
2266.57	0.0008747
2276.21	0.0010002
2285.86	0.0010182
2295.5	0.0009445
2305.15	0.0008449
2314.79	0.0009456
2324.44	0.0011245
2334.08	0.0009225
2343.73	0.0008258
2353.37	0.0008721
2363.02	0.0008351
2372.66	0.0007674
2382.31	0.0008967
2391.95	0.0007982
2401.6	0.0006452
2411.24	0.0006407
2420.89	0.0008457
2430.53	0.00059754
2440.18	0.0007099
2449.82	0.0004707
2459.47	0.0006854
2469.11	0.000647
2478.75	0.0006814
2488.4	0.0006285
2498.04	0.00055912
2507.69	0.00061916
2517.33	0.0007303
2526.98	0.000481
2536.62	0.00057233
2546.27	0.000711
2555.91	0.000531207
2565.56	0.00053905
2575.2	0.0006538
2584.85	0.000833
2594.49	0.0007368
2604.14	0.0008814
2613.78	0.0007875
2623.43	0.0008676
2633.07	0.0008311
2642.72	0.0008295
2652.36	0.0006754
2662.01	0.0009808
2671.65	0.0009959
2681.29	0.0010083
2690.94	0.0009307
2700.58	0.0010367
2710.23	0.0014851
2719.87	0.0014821
2729.52	0.001829
2739.16	0.002179
2748.81	0.002469
2758.45	0.002279
2768.1	0.002169
2777.74	0.001899
2787.39	0.002089
2797.03	0.002419
2806.68	0.002839
2816.32	0.003189
2825.97	0.004029
2835.61	0.004659
2845.26	0.005479
2854.9	0.007679
2864.55	0.013099
2874.19	0.026919
2883.84	0.042739
2893.48	0.046239
2903.12	0.038909
2912.77	0.034459
2922.41	0.040629
2932.06	0.056279
2941.7	0.066809
2951.35	0.076259
2960.99	0.123899
2970.64	0.171899
2980.28	0.138379
2989.93	0.067519
2999.57	0.024909
3009.22	0.010139
3018.86	0.006049
3028.51	0.004389
3038.15	0.004199
3047.8	0.003939
3057.44	0.003889
3067.09	0.003479
3076.73	0.003649
3086.38	0.003779
3096.02	0.003409
3105.67	0.003419
3115.31	0.002769
3124.95	0.002869
3134.6	0.002729
3144.24	0.002459
3153.89	0.002369
3163.53	0.001899
3173.18	0.001609
3182.82	0.001889
3192.47	0.0013791
3202.11	0.0013076
3211.76	0.001105
3221.4	0.0010876
3231.05	0.0011391
3240.69	0.0010258
3250.34	0.0009989
3259.98	0.0004817
3269.63	0.00060308
3279.27	0.0004684
3288.92	0.000512
3298.56	0.000389
3308.21	0.0004835
3317.85	0.000325
3327.49	0.000479
3337.14	0.000319
3346.78	0.0005158
3356.43	0.0007176
3366.07	0.00053924
3375.72	0.0006297
3385.36	0.000344
3395.01	0.0007659
3404.65	0.0006738
3414.3	0.0005011
3423.94	0.00056406
3433.59	0.0009463
3443.23	0.000937
3452.88	0.0009406
3462.52	0.0008848
3472.17	0.000879
3481.81	0.0012749
3491.46	0.002189
3501.1	0.003839
3510.75	0.005859
3520.39	0.007039
3530.04	0.006679
3539.68	0.004709
3549.32	0.003119
3558.97	0.002219
3568.61	0.001498
3578.26	0.0011592
3587.9	0.0010791
3597.55	0.000415
3607.19	0.00059239
3616.84	0.0005135
3626.48	0.00052622
3636.13	0.000348
3645.77	0.000225
3655.42	0.00057006
3665.06	0.00058467
3674.71	0.00060491
3684.35	0.0006623
3694	0.0006857
3703.64	0.000171
3713.29	0.00033
3722.93	0.0004704
3732.58	0.000262
3742.22	0.00060074
3751.86	0.000161
3761.51	0.000393
3771.15	0.00056546
3780.8	0.000289
3790.44	0.000432
3800.09	0.000446
3809.73	0.000325
3819.38	0.0004461
3829.02	0.000532235
3838.67	0.0008858
3848.31	0.00054644
3857.96	0.0006627
3867.6	0.0006497
3877.25	0.0006547
3886.89	0.0008838
3896.54	0.000293
3906.18	0.000281
3915.83	0.0004809
3925.47	0.0007371
3935.12	0.0009142
3944.76	0.0004944
3954.41	0.00061144
3964.05	0.00062459
3973.69	0.0009922
3983.34	0.000402
3992.98	0.0010624
