Infrared Spectrum: 3H-1,4-Benzodiazepine, 1,2,4,5-tetrahydro- 4-(p-methoxyphenyl)-1-methyl-,
Formula: C17 H20 N2 O
CAS: 1033-18-7
State: SOLUTION 7% (CHCl3 FOR 2.5-15 microns)
Melting point: 62-64 C
Class: COBLENTZ
Instrument: PERKIN-ELMER 421 (GRATING)
Instrument parameters: GRATING CHANGE AT 1999 CM^-^
Path length: 0.01 CM
Resolution: 2
Origin: ABBOTT LABORATORIES
1/CM	TRANSMITTANCE
728	0.6942
737	0.695
746	0.6965
755	0.6982
764	0.6999
773	0.7014
782	0.7029
791	0.6895
800	0.5911
809	0.4778
818	0.4958
827	0.7106
836	0.7989
845	0.8896
854	0.8586
863	0.8464
872	0.7215
881	0.7198
890	0.8304
899	0.8403
908	0.8811
917	0.9152
926	0.9048
935	0.8414
944	0.8581
953	0.7085
962	0.527
971	0.6502
980	0.4936
989	0.7497
998	0.7906
1007	0.7688
1016	0.6261
1025	0.4701
1034	0.3465
1043	0.4698
1052	0.5808
1061	0.711
1070	0.7815
1079	0.797
1088	0.6851
1097	0.7598
1106	0.8498
1115	0.7951
1124	0.7006
1133	0.8163
1142	0.855
1151	0.7672
1160	0.5678
1169	0.5171
1178	0.4664
1187	0.4158
1196	0.3651
1205	0.3144
1214	0.2637
1223	0.213
1232	0.1565
1241	0.1572
1250	0.2408
1259	0.5101
1268	0.6745
1277	0.6257
1286	0.4911
1295	0.4259
1304	0.5541
1313	0.4885
1322	0.5358
1331	0.6657
1340	0.6254
1349	0.6786
1358	0.6576
1367	0.6352
1376	0.601
1385	0.5846
1394	0.7442
1403	0.8206
1412	0.8007
1421	0.7518
1430	0.5112
1439	0.3298
1448	0.3637
1457	0.3917
1466	0.5483
1475	0.579
1484	0.176
1493	0.2158
1502	0.0578
1511	0.3448
1520	0.6669
1529	0.7959
1538	0.8312
1547	0.8317
1556	0.8196
1565	0.7504
1574	0.7341
1583	0.6695
1592	0.4507
1601	0.7813
1610	0.8302
1619	0.8535
1628	0.8696
1637	0.8784
1646	0.8815
1655	0.8813
1664	0.8817
1673	0.884
1682	0.886
1691	0.8872
1700	0.8862
1709	0.8875
1718	0.8892
1727	0.8894
1736	0.8888
1745	0.8874
1754	0.8853
1763	0.8829
1772	0.8812
1781	0.8805
1790	0.8791
1799	0.878
1808	0.8785
1817	0.8792
1826	0.8757
1835	0.877
1844	0.8787
1853	0.8794
1862	0.8815
1871	0.8838
1880	0.8822
1889	0.8776
1898	0.8793
1907	0.883
1916	0.8821
1925	0.8797
1934	0.8874
1943	0.8926
1952	0.8927
1961	0.8918
1970	0.8907
1979	0.8889
1988	0.8882
1997	0.888
2006	0.888
2015	0.8883
2024	0.8883
2033	0.8821
2042	0.8815
2051	0.8829
2060	0.8855
2069	0.8907
2078	0.8967
2087	0.9006
2096	0.9031
2105	0.9041
2114	0.904
2123	0.9032
2132	0.9032
2141	0.9034
2150	0.9033
2159	0.9027
2168	0.9023
2177	0.9019
2186	0.9019
2195	0.9034
2204	0.9044
2213	0.9046
2222	0.9039
2231	0.9026
2240	0.9018
2249	0.9012
2258	0.9015
2267	0.9023
2276	0.9025
2285	0.9074
2294	0.9123
2303	0.9171
2312	0.921
2321	0.9242
2330	0.926
2339	0.9277
2348	0.9292
2357	0.93
2366	0.93
2375	0.9309
2384	0.9498
2393	0.9449
2402	0.9135
2411	0.9037
2420	0.9039
2429	0.9021
2438	0.8991
2447	0.8966
2456	0.8943
2465	0.8922
2474	0.8912
2483	0.8904
2492	0.8893
2501	0.8895
2510	0.8918
2519	0.8918
2528	0.8903
2537	0.89
2546	0.8902
2555	0.8912
2564	0.8905
2573	0.8867
2582	0.8833
2591	0.8815
2600	0.8862
2609	0.8917
2618	0.8954
2627	0.8978
2636	0.8978
2645	0.8973
2654	0.8947
2663	0.8902
2672	0.886
2681	0.8821
2690	0.8795
2699	0.8777
2708	0.8682
2717	0.8628
2726	0.8615
2735	0.8565
2744	0.842
2753	0.822
2762	0.7954
2771	0.7357
2780	0.7163
2789	0.6861
2798	0.5801
2807	0.6002
2816	0.6121
2825	0.5276
2834	0.6069
2843	0.5674
2852	0.5872
2861	0.614
2870	0.6067
2879	0.5929
2888	0.5626
2897	0.5613
2906	0.6102
2915	0.5785
2924	0.4788
2933	0.4373
2942	0.4392
2951	0.5017
2960	0.5762
2969	0.5773
2978	0.5595
2987	0.5192
2996	0.4375
3005	0.7479
3014	0.8079
3023	0.7977
3032	0.7883
3041	0.786
3050	0.7838
3059	0.787
3068	0.8465
3077	0.8626
3086	0.8629
3095	0.8641
3104	0.8819
3113	0.8923
3122	0.8948
3131	0.8963
3140	0.8969
3149	0.8979
3158	0.8981
3167	0.8996
3176	0.9046
3185	0.9055
3194	0.9064
3203	0.9054
3212	0.9067
3221	0.908
3230	0.9087
3239	0.9093
3248	0.9098
3257	0.9098
3266	0.9098
3275	0.91
3284	0.9105
3293	0.9104
3302	0.9094
3311	0.9079
3320	0.9059
3329	0.9063
3338	0.909
3347	0.9105
3356	0.9097
3365	0.9079
3374	0.906
3383	0.9062
3392	0.9097
3401	0.9113
3410	0.9117
3419	0.9116
3428	0.9111
3437	0.9105
3446	0.9099
3455	0.9093
3464	0.9087
3473	0.9086
3482	0.9096
3491	0.9104
3500	0.9105
3509	0.9108
3518	0.9112
3527	0.9118
3536	0.9121
3545	0.91
3554	0.9081
3563	0.9075
3572	0.9033
3581	0.915
3590	0.9154
3599	0.9157
3608	0.9159
3617	0.9154
3626	0.9137
3635	0.9117
3644	0.9107
3653	0.9164
3662	0.9262
3671	0.9349
3680	0.9297
3689	0.9248
3698	0.9222
3707	0.9205
3716	0.9198
3725	0.9194
3734	0.9191
3743	0.9188
3752	0.9185
3761	0.9182
3770	0.9179
3779	0.918
3788	0.9181
3797	0.9182
3806	0.9176
3815	0.9171
3824	0.9165
3833	0.9159
3842	0.9151
3851	0.9142
3860	0.9137
3869	0.9138
3878	0.9139
3887	0.9144
3896	0.9131
3905	0.91
3914	0.9088
3923	0.9084
3932	0.908
3941	0.9083
3950	0.9087
3959	0.9091
3968	0.9096
3977	0.9104
3986	0.9118
3995	0.9131
