Infrared Spectrum: p-Toluenesulfonamide], N,N'-dithiodiethylenebis[N-(2-thenyl)-
Formula: C28 H32 N2 O4 S6
CAS: 103458-90-8
State: SOLID (0.8 mg / 650 mg KBr DISC)
Class: COBLENTZ III
Instrument: PERKIN-ELMER 21 (GRATING)
Instrument parameters: FILTER CHANGE ABOUT 1020 CM^-^1
Sampling: TRANSMISSION
Resolution: 2
Origin: SOUTHERN RESEARCH INSTITUTE
1/CM	TRANSMITTANCE
595.764	0.8743
604.787	0.8756
613.81	0.8649
622.832	0.8568
631.855	0.8492
640.878	0.803
649.901	0.6115
658.924	0.417
667.947	0.8055
676.969	0.7527
685.992	0.7059
695.015	0.5282
704.038	0.3922
713.061	0.32
722.083	0.6484
731.106	0.6407
740.129	0.7901
749.152	0.8102
758.175	0.7984
767.198	0.7633
776.22	0.6606
785.243	0.5728
794.266	0.7129
803.289	0.5125
812.312	0.4652
821.334	0.7441
830.357	0.7697
839.38	0.6187
848.403	0.7533
857.426	0.7967
866.449	0.8219
875.471	0.7979
884.494	0.7621
893.517	0.6775
902.54	0.6092
911.563	0.3917
920.586	0.6786
929.608	0.8135
938.631	0.8165
947.654	0.8059
956.677	0.7928
965.7	0.7752
974.722	0.818
983.745	0.8123
992.768	0.7985
1001.79	0.7792
1010.81	0.7456
1019.84	0.7092
1028.86	0.6458
1037.88	0.4997
1046.9	0.6273
1055.93	0.4734
1064.95	0.7218
1073.97	0.6692
1083	0.4747
1092.02	0.5412
1101.04	0.5426
1110.06	0.4926
1119.09	0.6899
1128.11	0.6992
1137.13	0.6767
1146.16	0.5325
1155.18	0.0501
1164.2	0.3132
1173.22	0.713
1182.25	0.7576
1191.27	0.8077
1200.29	0.767
1209.32	0.7586
1218.34	0.7525
1227.36	0.6562
1236.38	0.6522
1245.41	0.8321
1254.43	0.83
1263.45	0.8164
1272.48	0.769
1281.5	0.6346
1290.52	0.7377
1299.54	0.7256
1308.57	0.6887
1317.59	0.6559
1326.61	0.546
1335.64	0.1943
1344.66	0.4614
1353.68	0.3569
1362.7	0.7534
1371.73	0.7551
1380.75	0.7817
1389.77	0.7819
1398.79	0.7515
1407.82	0.7562
1416.84	0.7899
1425.86	0.7769
1434.89	0.7104
1443.91	0.6709
1452.93	0.6462
1461.95	0.7563
1470.98	0.8347
1480	0.8358
1489.02	0.7799
1498.05	0.8503
1507.07	0.8582
1516.09	0.8597
1525.11	0.8575
1534.14	0.8479
1543.16	0.8455
1552.18	0.8457
1561.21	0.8433
1570.23	0.8341
1579.25	0.8112
1588.27	0.7571
1597.3	0.6424
1606.32	0.8182
1615.34	0.8125
1624.37	0.8137
1633.39	0.8229
1642.41	0.8203
1651.43	0.8179
1660.46	0.8228
1669.48	0.8418
1678.5	0.8572
1687.53	0.8583
1696.55	0.8693
1705.57	0.8699
1714.59	0.8707
1723.62	0.8651
1732.64	0.8657
1741.66	0.8733
1750.68	0.8762
1759.71	0.8771
1768.73	0.8766
1777.75	0.8693
1786.78	0.8628
1795.8	0.865
1804.82	0.8693
1813.84	0.8744
1822.87	0.8782
1831.89	0.8746
1840.91	0.8789
1849.94	0.8786
1858.96	0.8778
1867.98	0.8763
1877	0.8744
1886.03	0.8729
1895.05	0.8703
1904.07	0.8651
1913.1	0.8615
1922.12	0.864
1931.14	0.8699
1940.16	0.8683
1949.19	0.8772
1958.21	0.8753
1967.23	0.8732
1976.26	0.8746
1985.28	0.8772
1994.3	0.8759
2003.32	0.8749
2012.35	0.8741
2021.37	0.874
2030.39	0.8714
2039.42	0.8712
2048.44	0.8715
2057.46	0.8712
2066.48	0.8706
2075.51	0.8695
2084.53	0.8683
2093.55	0.8694
2102.57	0.8706
2111.6	0.8691
2120.62	0.8679
2129.64	0.8707
2138.67	0.8716
2147.69	0.8724
2156.71	0.8731
2165.73	0.8735
2174.76	0.8737
2183.78	0.8739
2192.8	0.8735
2201.83	0.8731
2210.85	0.8722
2219.87	0.8709
2228.89	0.8704
2237.92	0.8696
2246.94	0.869
2255.96	0.869
2264.99	0.8705
2274.01	0.87
2283.03	0.8636
2292.05	0.8643
2301.08	0.8643
2310.1	0.8625
2319.12	0.8605
2328.15	0.8617
2337.17	0.8626
2346.19	0.8605
2355.21	0.8625
2364.24	0.8641
2373.26	0.865
2382.28	0.8669
2391.31	0.8635
2400.33	0.8631
2409.35	0.8647
2418.37	0.866
2427.4	0.8668
2436.42	0.866
2445.44	0.8654
2454.46	0.8655
2463.49	0.865
2472.51	0.8642
2481.53	0.8601
2490.56	0.8614
2499.58	0.8629
2508.6	0.864
2517.62	0.8641
2526.65	0.8642
2535.67	0.864
2544.69	0.8602
2553.72	0.8612
2562.74	0.8619
2571.76	0.8598
2580.78	0.8602
2589.81	0.8608
2598.83	0.8606
2607.85	0.8603
2616.88	0.8593
2625.9	0.8575
2634.92	0.8567
2643.94	0.859
2652.97	0.8587
2661.99	0.8605
2671.01	0.8609
2680.04	0.8599
2689.06	0.8582
2698.08	0.855
2707.1	0.8525
2716.13	0.8515
2725.15	0.8516
2734.17	0.8513
2743.2	0.8509
2752.22	0.8505
2761.24	0.8501
2770.26	0.8428
2779.29	0.842
2788.31	0.8415
2797.33	0.8408
2806.35	0.8414
2815.38	0.8401
2824.4	0.838
2833.42	0.8273
2842.45	0.816
2851.47	0.8107
2860.49	0.8066
2869.51	0.8033
2878.54	0.8001
2887.56	0.7949
2896.58	0.7859
2905.61	0.776
2914.63	0.7711
2923.65	0.7697
2932.67	0.7694
2941.7	0.7722
2950.72	0.776
2959.74	0.7841
2968.77	0.7963
2977.79	0.8028
2986.81	0.8007
2995.83	0.8109
3004.86	0.8149
3013.88	0.8136
3022.9	0.8137
3031.93	0.8106
3040.95	0.8037
3049.97	0.8014
3058.99	0.7986
3068.02	0.784
3077.04	0.775
3086.06	0.7792
3095.09	0.7973
3104.11	0.8035
3113.13	0.801
3122.15	0.7974
3131.18	0.8012
3140.2	0.8155
3149.22	0.8218
3158.24	0.8198
3167.27	0.818
3176.29	0.8167
3185.31	0.8155
3194.34	0.8143
3203.36	0.8139
3212.38	0.8127
3221.4	0.8117
3230.43	0.8085
3239.45	0.8039
3248.47	0.8065
3257.5	0.8442
3266.52	0.7944
3275.54	0.794
3284.56	0.789
3293.59	0.7881
3302.61	0.7885
3311.63	0.7795
3320.66	0.7773
3329.68	0.7749
3338.7	0.7707
3347.72	0.762
3356.75	0.7579
3365.77	0.7546
3374.79	0.7506
3383.82	0.7488
3392.84	0.7433
3401.86	0.7366
3410.88	0.7297
3419.91	0.7219
3428.93	0.7207
3437.95	0.7213
3446.98	0.7215
3456	0.722
3465.02	0.7224
3474.04	0.7238
3483.07	0.7304
3492.09	0.733
3501.11	0.7343
3510.13	0.7339
3519.16	0.7378
3528.18	0.7476
3537.2	0.7537
3546.23	0.7571
3555.25	0.7597
3564.27	0.7614
3573.29	0.7656
3582.32	0.7697
3591.34	0.7736
3600.36	0.7778
3609.39	0.7821
3618.41	0.7851
3627.43	0.7964
3636.45	0.8046
3645.48	0.8045
3654.5	0.8049
3663.52	0.8129
3672.55	0.8139
3681.57	0.8137
3690.59	0.8143
3699.61	0.8189
3708.64	0.8229
3717.66	0.8224
3726.68	0.8231
3735.71	0.8249
3744.73	0.8218
3753.75	0.8231
3762.77	0.821
3771.8	0.8207
3780.82	0.8208
3789.84	0.8222
3798.87	0.8246
3807.89	0.8251
3816.91	0.8257
3825.93	0.8258
3834.96	0.822
3843.98	0.8173
3853	0.8137
3862.02	0.8145
3871.05	0.8146
3880.07	0.8145
3889.09	0.8137
3898.12	0.8094
3907.14	0.8099
3916.16	0.8123
3925.18	0.8148
3934.21	0.819
3943.23	0.8229
3952.25	0.8204
3961.28	0.818
3970.3	0.8169
3979.32	0.8164
3988.34	0.8213
3997.37	0.8216
4006.39	0.8213
