Infrared Spectrum: 1-CYANO-2-ETHYL-NAPHTHALENE
Formula: C13 H11 N
CAS: 103408-11-3
State: SOLID (1.0% IN KBr PELLET)
Class: COBLENTZ
Instrument: Not specified, most likely a prism, grating, or hybrid spectrometer.
Sampling: TRANSMISSION
Path length: 0.0355 CM THICK
Resolution: 4
Origin: ANDERSON PHYSICAL LABORATORY
1/CM	TRANSMITTANCE
673.005	0.804
681.422	0.7343
689.838	0.8088
698.255	0.894
706.671	0.891
715.088	0.8061
723.504	0.864
731.921	0.897
740.337	0.842
748.754	0.651
757.17	0.295
765.587	0.4554
774.003	0.8249
782.42	0.845
790.836	0.924
799.253	0.9
807.669	0.876
816.086	0.7341
824.502	0.2351
832.919	0.345
841.335	0.801
849.752	0.912
858.168	0.914
866.585	0.933
875.001	0.6542
883.418	0.8689
891.834	0.903
900.251	0.881
908.667	0.863
917.084	0.921
925.5	0.929
933.917	0.926
942.333	0.923
950.75	0.908
959.166	0.869
967.583	0.893
975.999	0.831
984.416	0.834
992.832	0.816
1001.25	0.866
1009.67	0.873
1018.08	0.873
1026.5	0.858
1034.91	0.797
1043.33	0.828
1051.75	0.819
1060.16	0.774
1068.58	0.758
1077	0.867
1085.41	0.869
1093.83	0.855
1102.25	0.855
1110.66	0.857
1119.08	0.851
1127.5	0.84
1135.91	0.831
1144.33	0.804
1152.75	0.659
1161.16	0.797
1169.58	0.722
1178	0.761
1186.41	0.756
1194.83	0.809
1203.24	0.819
1211.66	0.788
1220.08	0.704
1228.49	0.759
1236.91	0.8
1245.33	0.833
1253.74	0.822
1262.16	0.78
1270.58	0.711
1278.99	0.716
1287.41	0.816
1295.83	0.821
1304.24	0.812
1312.66	0.797
1321.08	0.765
1329.49	0.698
1337.91	0.725
1346.33	0.72
1354.74	0.743
1363.16	0.768
1371.57	0.764
1379.99	0.674
1388.41	0.698
1396.82	0.737
1405.24	0.747
1413.66	0.738
1422.07	0.725
1430.49	0.677
1438.91	0.609
1447.32	0.644
1455.74	0.587
1464.16	0.512
1472.57	0.558
1480.99	0.662
1489.41	0.707
1497.82	0.698
1506.24	0.593
1514.66	0.515
1523.07	0.686
1531.49	0.773
1539.9	0.777
1548.32	0.77
1556.74	0.758
1565.15	0.741
1573.57	0.71
1581.99	0.692
1590.4	0.623
1598.82	0.4681
1607.24	0.675
1615.65	0.707
1624.07	0.653
1632.49	0.671
1640.9	0.711
1649.32	0.713
1657.74	0.714
1666.15	0.717
1674.57	0.72
1682.99	0.728
1691.4	0.716
1699.82	0.705
1708.23	0.705
1716.65	0.713
1725.07	0.722
1733.48	0.713
1741.9	0.711
1750.32	0.714
1758.73	0.71
1767.15	0.704
1775.57	0.701
1783.98	0.696
1792.4	0.695
1800.82	0.696
1809.23	0.681
1817.65	0.665
1826.07	0.689
1834.48	0.683
1842.9	0.681
1851.32	0.678
1859.73	0.689
1868.15	0.687
1876.56	0.683
1884.98	0.675
1893.4	0.672
1901.81	0.659
1910.23	0.654
1918.65	0.651
1927.06	0.636
1935.48	0.623
1943.9	0.626
1952.31	0.645
1960.73	0.638
1969.15	0.632
1977.56	0.633
1985.98	0.65
1994.4	0.654
2002.81	0.651
2011.23	0.651
2019.65	0.6477
2028.06	0.645
2036.48	0.644
2044.89	0.642
2053.31	0.6387
2061.73	0.6343
2070.14	0.6304
2078.56	0.6269
2086.98	0.6253
2095.39	0.6234
2103.81	0.623
2112.23	0.6209
2120.64	0.6176
2129.06	0.6144
2137.48	0.6111
2145.89	0.605
2154.31	0.6
2162.73	0.5993
2171.14	0.5932
2179.56	0.5838
2187.98	0.5702
2196.39	0.5535
2204.81	0.4695
2213.23	0.4086
2221.64	0.3475
2230.06	0.37
2238.47	0.507
2246.89	0.5736
2255.31	0.5898
2263.72	0.6016
2272.14	0.6
2280.56	0.599
2288.97	0.5964
2297.39	0.5943
2305.81	0.5898
2314.22	0.587
2322.64	0.5828
2331.06	0.5793
2339.47	0.5777
2347.89	0.5756
2356.31	0.5737
2364.72	0.573
2373.14	0.5698
2381.56	0.5666
2389.97	0.5646
2398.39	0.564
2406.8	0.563
2415.22	0.563
2423.64	0.561
2432.05	0.56
2440.47	0.558
2448.89	0.557
2457.3	0.5542
2465.72	0.552
2474.14	0.5504
2482.55	0.5484
2490.97	0.5435
2499.39	0.5399
2507.8	0.539
2516.22	0.537
2524.64	0.5361
2533.05	0.5358
2541.47	0.534
2549.89	0.533
2558.3	0.5301
2566.72	0.5278
2575.13	0.5262
2583.55	0.5227
2591.97	0.5211
2600.38	0.5204
2608.8	0.5155
2617.22	0.5136
2625.63	0.5101
2634.05	0.51
2642.47	0.5095
2650.88	0.507
2659.3	0.506
2667.72	0.5037
2676.13	0.503
2684.55	0.503
2692.97	0.5009
2701.38	0.4974
2709.8	0.498
2718.22	0.4952
2726.63	0.493
2735.05	0.492
2743.46	0.49
2751.88	0.4872
2760.3	0.4827
2768.71	0.4792
2777.13	0.4757
2785.55	0.4722
2793.96	0.4675
2802.38	0.4607
2810.8	0.4563
2819.21	0.453
2827.63	0.4478
2836.05	0.4426
2844.46	0.4331
2852.88	0.4211
2861.3	0.4027
2869.71	0.3784
2878.13	0.3615
2886.55	0.364
2894.96	0.3699
2903.38	0.3726
2911.79	0.373
2920.21	0.3718
2928.63	0.3587
2937.04	0.3492
2945.46	0.345
2953.88	0.3294
2962.29	0.3128
2970.71	0.297
2979.13	0.3346
2987.54	0.3837
2995.96	0.4198
3004.38	0.4297
3012.79	0.4291
3021.21	0.427
3029.63	0.4251
3038.04	0.4203
3046.46	0.4151
3054.88	0.4105
3063.29	0.41
3071.71	0.4132
3080.12	0.418
3088.54	0.4279
3096.96	0.435
3105.37	0.435
3113.79	0.433
3122.21	0.432
3130.62	0.432
3139.04	0.432
3147.46	0.429
3155.87	0.427
3164.29	0.426
3172.71	0.4214
3181.12	0.4179
3189.54	0.4162
3197.96	0.4144
3206.37	0.414
3214.79	0.415
3223.21	0.414
3231.62	0.4113
3240.04	0.4061
3248.45	0.4044
3256.87	0.402
3265.29	0.402
3273.7	0.4
3282.12	0.3983
3290.54	0.394
3298.95	0.3915
3307.37	0.3899
3315.79	0.3847
3324.2	0.3829
3332.62	0.3812
3341.04	0.3809
3349.45	0.377
3357.87	0.3724
3366.29	0.3673
3374.7	0.3627
3383.12	0.3576
3391.54	0.3521
3399.95	0.3463
3408.37	0.3399
3416.78	0.3366
3425.2	0.3333
3433.62	0.3312
3442.03	0.331
3450.45	0.331
3458.87	0.33
3467.28	0.33
3475.7	0.328
3484.12	0.328
3492.53	0.3295
3500.95	0.33
3509.37	0.33
3517.78	0.33
3526.2	0.331
3534.62	0.331
3543.03	0.331
3551.45	0.331
3559.87	0.331
3568.28	0.333
3576.7	0.333
3585.12	0.333
3593.53	0.333
3601.95	0.3342
3610.36	0.3378
3618.78	0.3413
3627.2	0.3459
3635.61	0.349
3644.03	0.349
3652.45	0.3483
3660.86	0.346
3669.28	0.346
3677.7	0.348
3686.11	0.3504
3694.53	0.351
3702.95	0.351
3711.36	0.351
3719.78	0.351
3728.2	0.351
3736.61	0.3505
3745.03	0.348
3753.45	0.346
3761.86	0.348
3770.28	0.348
3778.69	0.348
3787.11	0.348
3795.53	0.348
3803.94	0.348
3812.36	0.346
3820.78	0.346
3829.19	0.345
3837.61	0.345
3846.03	0.343
3854.44	0.3421
3862.86	0.342
3871.28	0.342
3879.69	0.34
3888.11	0.3362
3896.53	0.333
3904.94	0.333
3913.36	0.3315
3921.78	0.331
3930.19	0.331
3938.61	0.332
3947.02	0.333
3955.44	0.333
3963.86	0.331
3972.27	0.3305
