Infrared Spectrum: L(-)-3-BENZOYLAMINO-4-BENZOYLMERCAPTO-1-BUTANOL BENZOATE
Formula: C25 H23 N O4 S
CAS: 10357-55-8
State: SOLID (MINERAL OIL MULL)
Melting point: 187.5-188.5 C
Class: COBLENTZ
Instrument: Not specified, most likely a prism, grating, or hybrid spectrometer.
Sampling: TRANSMISSION
Resolution: 4
Origin: ARTHUR D. LITTLE, INC.
1/CM	TRANSMITTANCE
647.651	0.542
655.705	0.542
663.758	0.52
671.812	0.48
679.866	0.362
687.92	0.444
695.973	0.363
704.027	0.426
712.081	0.274
720.134	0.606
728.188	0.633
736.242	0.662
744.295	0.67
752.349	0.632
760.403	0.689
768.457	0.62
776.51	0.707
784.564	0.73
792.618	0.718
800.671	0.697
808.725	0.742
816.779	0.748
824.832	0.746
832.886	0.736
840.94	0.729
848.994	0.714
857.047	0.705
865.101	0.732
873.155	0.752
881.208	0.746
889.262	0.732
897.316	0.693
905.37	0.577
913.423	0.305
921.477	0.64
929.531	0.71
937.584	0.738
945.638	0.755
953.692	0.757
961.745	0.749
969.799	0.702
977.853	0.716
985.907	0.765
993.96	0.755
1002.01	0.701
1010.07	0.76
1018.12	0.74
1026.18	0.672
1034.23	0.701
1042.28	0.721
1050.34	0.637
1058.39	0.732
1066.44	0.701
1074.5	0.578
1082.55	0.724
1090.6	0.714
1098.66	0.639
1106.71	0.597
1114.77	0.499
1122.82	0.458
1130.87	0.701
1138.93	0.741
1146.98	0.729
1155.03	0.683
1163.09	0.711
1171.14	0.702
1179.2	0.627
1187.25	0.663
1195.3	0.697
1203.36	0.565
1211.41	0.383
1219.46	0.658
1227.52	0.699
1235.57	0.672
1243.63	0.633
1251.68	0.588
1259.73	0.465
1267.79	0.432
1275.84	0.316
1283.89	0.301
1291.95	0.576
1300	0.609
1308.05	0.608
1316.11	0.519
1324.16	0.623
1332.22	0.689
1340.27	0.648
1348.32	0.613
1356.38	0.646
1364.43	0.598
1372.48	0.567
1380.54	0.566
1388.59	0.619
1396.65	0.66
1404.7	0.651
1412.75	0.685
1420.81	0.655
1428.86	0.562
1436.91	0.523
1444.97	0.473
1453.02	0.407
1461.08	0.425
1469.13	0.445
1477.18	0.604
1485.24	0.616
1493.29	0.648
1501.34	0.671
1509.4	0.627
1517.45	0.592
1525.5	0.471
1533.56	0.395
1541.61	0.485
1549.67	0.502
1557.72	0.65
1565.77	0.703
1573.83	0.689
1581.88	0.561
1589.93	0.698
1597.99	0.636
1606.04	0.6
1614.1	0.663
1622.15	0.604
1630.2	0.532
1638.26	0.335
1646.31	0.41
1654.36	0.586
1662.42	0.475
1670.47	0.483
1678.53	0.768
1686.58	0.769
1694.63	0.752
1702.69	0.632
1710.74	0.37
1718.79	0.523
1726.85	0.734
1734.9	0.819
1742.95	0.841
1751.01	0.846
1759.06	0.847
1767.12	0.847
1775.17	0.847
1783.22	0.846
1791.28	0.846
1799.33	0.847
1807.38	0.85
1815.44	0.849
1823.49	0.85
1831.55	0.854
1839.6	0.861
1847.65	0.864
1855.71	0.865
1863.76	0.865
1871.81	0.864
1879.87	0.861
1887.92	0.857
1895.98	0.854
1904.03	0.853
1912.08	0.854
1920.14	0.855
1928.19	0.861
1936.24	0.864
1944.3	0.865
1952.35	0.864
1960.4	0.86
1968.46	0.857
1976.51	0.861
1984.57	0.872
1992.62	0.873
2000.67	0.874
2008.73	0.874
2016.78	0.874
2024.83	0.876
2032.89	0.876
2040.94	0.876
2049	0.876
2057.05	0.878
2065.1	0.877
2073.16	0.877
2081.21	0.878
2089.26	0.877
2097.32	0.877
2105.37	0.878
2113.43	0.878
2121.48	0.878
2129.53	0.877
2137.59	0.877
2145.64	0.877
2153.69	0.878
2161.75	0.88
2169.8	0.877
2177.85	0.878
2185.91	0.88
2193.96	0.88
2202.02	0.881
2210.07	0.881
2218.12	0.881
2226.18	0.881
2234.23	0.881
2242.28	0.88
2250.34	0.881
2258.39	0.881
2266.45	0.881
2274.5	0.884
2282.55	0.882
2290.61	0.886
2298.66	0.889
2306.71	0.892
2314.77	0.895
2322.82	0.893
2330.88	0.889
2338.93	0.889
2346.98	0.886
2355.04	0.886
2363.09	0.886
2371.14	0.886
2379.2	0.884
2387.25	0.881
2395.3	0.881
2403.36	0.884
2411.41	0.882
2419.47	0.881
2427.52	0.881
2435.57	0.884
2443.63	0.881
2451.68	0.881
2459.73	0.881
2467.79	0.881
2475.84	0.881
2483.9	0.881
2491.95	0.881
2500	0.88
2508.06	0.88
2516.11	0.88
2524.16	0.88
2532.22	0.881
2540.27	0.88
2548.33	0.876
2556.38	0.876
2564.43	0.873
2572.49	0.87
2580.54	0.866
2588.59	0.862
2596.65	0.858
2604.7	0.854
2612.75	0.854
2620.81	0.853
2628.86	0.853
2636.92	0.851
2644.97	0.851
2653.02	0.85
2661.08	0.85
2669.13	0.849
2677.18	0.849
2685.24	0.849
2693.29	0.849
2701.35	0.849
2709.4	0.847
2717.45	0.846
2725.51	0.845
2733.56	0.846
2741.61	0.849
2749.67	0.846
2757.72	0.843
2765.78	0.838
2773.83	0.834
2781.88	0.825
2789.94	0.807
2797.99	0.798
2806.04	0.783
2814.1	0.76
2822.15	0.732
2830.2	0.668
2838.26	0.531
2846.31	0.345
2854.37	0.242
2862.42	0.254
2870.47	0.277
2878.53	0.306
2886.58	0.312
2894.63	0.257
2902.69	0.213
2910.74	0.184
2918.8	0.154
2926.85	0.145
2934.9	0.166
2942.96	0.204
2951.01	0.215
2959.06	0.22
2967.12	0.262
2975.17	0.366
2983.23	0.515
2991.28	0.629
2999.33	0.686
3007.39	0.724
3015.44	0.748
3023.49	0.752
3031.55	0.752
3039.6	0.755
3047.65	0.761
3055.71	0.741
3063.76	0.722
3071.82	0.741
3079.87	0.781
3087.92	0.786
3095.98	0.802
3104.03	0.807
3112.08	0.811
3120.14	0.811
3128.19	0.812
3136.25	0.811
3144.3	0.808
3152.35	0.807
3160.41	0.806
3168.46	0.803
3176.51	0.8
3184.57	0.8
3192.62	0.8
3200.68	0.799
3208.73	0.796
3216.78	0.794
3224.84	0.79
3232.89	0.788
3240.94	0.781
3249	0.764
3257.05	0.748
3265.1	0.717
3273.16	0.67
3281.21	0.646
3289.27	0.604
3297.32	0.554
3305.37	0.449
3313.43	0.446
3321.48	0.557
3329.53	0.674
3337.59	0.736
3345.64	0.779
3353.7	0.802
3361.75	0.81
3369.8	0.816
3377.86	0.819
3385.91	0.818
3393.96	0.818
3402.02	0.819
3410.07	0.819
3418.13	0.82
3426.18	0.82
3434.23	0.82
3442.29	0.82
3450.34	0.82
