Infrared Spectrum: 4-Accetamidothioanisole
Formula: C 9 H 11 N O S
CAS: 10352-44-0
State: gas
Origin: EPA-IR VAPOR PHASE LIBRARY
1/CM	ABSORBANCE
549.8	0.003542
559.445	0.002182
569.09	0.002032
578.734	0.003672
588.379	0.003862
598.024	0.002032
607.669	0.001632
617.313	0.001562
626.958	0.001852
636.603	0.001422
646.248	0.0011467
655.893	0.0011881
665.537	0.0008368
675.182	0.0011018
684.827	0.001164
694.472	0.001692
704.116	0.002082
713.761	0.0010756
723.406	0.0008226
733.051	0.0012558
742.695	0.0009043
752.34	0.0009012
761.985	0.000994
771.63	0.0012822
781.275	0.001702
790.919	0.003122
800.564	0.004662
810.209	0.006142
819.854	0.007562
829.498	0.008622
839.143	0.006062
848.788	0.003082
858.433	0.001712
868.078	0.001552
877.722	0.0012071
887.367	0.0011059
897.012	0.001612
906.657	0.0013236
916.301	0.001742
925.946	0.001912
935.591	0.002352
945.236	0.002652
954.88	0.003162
964.525	0.005212
974.17	0.005702
983.815	0.006182
993.46	0.005632
1003.1	0.004582
1012.75	0.005432
1022.39	0.004352
1032.04	0.002922
1041.68	0.002862
1051.33	0.003122
1060.97	0.002602
1070.62	0.002222
1080.26	0.002102
1089.91	0.004222
1099.55	0.004732
1109.2	0.003382
1118.84	0.002212
1128.49	0.001772
1138.13	0.0005141
1147.78	0.0010834
1157.42	0.001642
1167.07	0.001882
1176.71	0.003952
1186.36	0.004732
1196	0.005732
1205.64	0.010702
1215.29	0.016772
1224.93	0.018732
1234.58	0.018842
1244.22	0.010902
1253.87	0.007912
1263.51	0.014182
1273.16	0.024842
1282.8	0.020502
1292.45	0.014892
1302.09	0.024232
1311.74	0.019742
1321.38	0.011132
1331.03	0.007292
1340.67	0.005282
1350.32	0.005902
1359.96	0.010512
1369.61	0.016392
1379.25	0.016162
1388.9	0.019562
1398.54	0.017182
1408.18	0.010202
1417.83	0.007952
1427.47	0.007982
1437.12	0.009352
1446.76	0.011112
1456.41	0.013042
1466.05	0.018502
1475.7	0.026532
1485.34	0.045572
1494.99	0.083112
1504.63	0.069982
1514.28	0.030062
1523.92	0.014762
1533.57	0.009892
1543.21	0.007282
1552.86	0.005842
1562.5	0.006132
1572.15	0.009452
1581.79	0.014992
1591.44	0.013972
1601.08	0.009492
1610.73	0.004912
1620.37	0.003412
1630.01	0.003132
1639.66	0.002732
1649.3	0.002862
1658.95	0.003042
1668.59	0.003762
1678.24	0.004542
1687.88	0.005952
1697.53	0.008542
1707.17	0.015982
1716.82	0.040792
1726.46	0.054102
1736.11	0.036582
1745.75	0.017042
1755.4	0.008362
1765.04	0.005492
1774.69	0.003732
1784.33	0.002962
1793.98	0.002392
1803.62	0.001882
1813.27	0.001652
1822.91	0.0013327
1832.55	0.0011776
1842.2	0.0011377
1851.84	0.0012183
1861.49	0.0012346
1871.13	0.001422
1880.78	0.001592
1890.42	0.0013189
1900.07	0.0011557
1909.71	0.0011144
1919.36	0.0010127
1929	0.0009189
1938.65	0.0008012
1948.29	0.0007908
1957.94	0.0007428
1967.58	0.000505
1977.23	0.0007206
1986.87	0.0007671
1996.52	0.00048326
2006.16	0.0006242
2015.81	0.0007082
2025.45	0.0007239
2035.1	0.0006424
2044.74	0.000714
2054.38	0.0005913
2064.03	0.0007729
2073.67	0.0007864
2083.32	0.0007861
2092.96	0.0007205
2102.61	0.000819
2112.25	0.0006295
2121.9	0.0006744
2131.54	0.0007462
2141.19	0.0008523
2150.83	0.0006564
2160.48	0.0005681
2170.12	0.0008185
2179.77	0.0005912
2189.41	0.0007792
2199.06	0.0005992
2208.7	0.0007311
2218.35	0.0005259
2227.99	0.0007449
2237.64	0.0007211
2247.28	0.000671
2256.92	0.0006616
2266.57	0.0005644
2276.21	0.0005501
2285.86	0.0007577
2295.5	0.0006431
2305.15	0.0009487
2314.79	0.000727
2324.44	0.0007844
2334.08	0.0007607
2343.73	0.0007077
2353.37	0.0005973
2363.02	0.0005434
2372.66	0.0005646
2382.31	0.0006489
2391.95	0.0007184
2401.6	0.0006332
2411.24	0.0008305
2420.89	0.0008612
2430.53	0.0008869
2440.18	0.0006934
2449.82	0.0006189
2459.47	0.0007043
2469.11	0.0006028
2478.75	0.0007594
2488.4	0.0005427
2498.04	0.0007645
2507.69	0.0008875
2517.33	0.000647
2526.98	0.0006848
2536.62	0.0007822
2546.27	0.0006359
2555.91	0.0005307
2565.56	0.0007595
2575.2	0.0003999
2584.85	0.0005284
2594.49	0.0006163
2604.14	0.00042039
2613.78	0.0005909
2623.43	0.00043922
2633.07	0.0009179
2642.72	0.00048866
2652.36	0.0005338
2662.01	0.00048552
2671.65	0.0007767
2681.29	0.0007686
2690.94	0.0006732
2700.58	0.0008641
2710.23	0.0006212
2719.87	0.0008353
2729.52	0.0007093
2739.16	0.0007839
2748.81	0.0008425
2758.45	0.0006202
2768.1	0.0005285
2777.74	0.0005768
2787.39	0.0007627
2797.03	0.0006534
2806.68	0.0007945
2816.32	0.0011026
2825.97	0.0010356
2835.61	0.001422
2845.26	0.001652
2854.9	0.001862
2864.55	0.0013403
2874.19	0.001642
2883.84	0.001502
2893.48	0.001722
2903.12	0.002222
2912.77	0.003072
2922.41	0.004842
2932.06	0.007912
2941.7	0.005262
2951.35	0.003782
2960.99	0.002532
2970.64	0.002862
2980.28	0.003102
2989.93	0.003542
2999.57	0.004222
3009.22	0.003622
3018.86	0.004612
3028.51	0.004792
3038.15	0.004002
3047.8	0.002912
3057.44	0.003212
3067.09	0.002842
3076.73	0.002922
3086.38	0.002442
3096.02	0.002232
3105.67	0.001832
3115.31	0.0013133
3124.95	0.0012008
3134.6	0.0011506
3144.24	0.0008635
3153.89	0.0009549
3163.53	0.0008761
3173.18	0.0007788
3182.82	0.0005907
3192.47	0.00049189
3202.11	0.00039533
3211.76	0.0003435
3221.4	0.00046626
3231.05	0.0006061
3240.69	0.0006167
3250.34	0.000483
3259.98	0.0005351
3269.63	0.0006366
3279.27	0.00044985
3288.92	0.0005918
3298.56	0.000291
3308.21	0.000294
3317.85	0.0005655
3327.49	0.0003112
3337.14	0.000789
3346.78	0.00046028
3356.43	0.000187
3366.07	0.0006083
3375.72	0.0006525
3385.36	0.0010369
3395.01	0.0011198
3404.65	0.0012509
3414.3	0.001732
3423.94	0.001902
3433.59	0.001772
3443.23	0.002522
3452.88	0.003022
3462.52	0.003482
3472.17	0.003002
3481.81	0.001472
3491.46	0.0010751
3501.1	0.0005258
3510.75	0.000584
3520.39	0.0005369
3530.04	0.00046191
3539.68	0.0006483
3549.32	0.0005438
3558.97	0.0003328
3568.61	0.000383
3578.26	0.00045487
3587.9	0.000271
3597.55	0.0003491
3607.19	0.0006176
3616.84	0.0007208
3626.48	0.000199
3636.13	0.0003263
3645.77	0.000523
3655.42	0.000625
3665.06	0.00049109
3674.71	0.00042471
3684.35	0.0005628
3694	0.000261
3703.64	0.000256
3713.29	0.0005067
3722.93	0.0008984
3732.58	0.00045308
3742.22	0.000102
3751.86	0.00025
3761.51	0.0003112
3771.15	0.0005249
3780.8	4.4e-05
3790.44	0.000238
3800.09	0.0003512
3809.73	0.0007018
3819.38	0.000211
3829.02	0.0007782
3838.67	0.00048089
3848.31	0.0006411
3857.96	0.0005761
3867.6	0.0003716
3877.25	0.00047517
3886.89	0.0006366
3896.54	0.0003502
3906.18	0.0005683
3915.83	0.000694
3925.47	0.000112
3935.12	0.00078
3944.76	0.00075
3954.41	0.0003527
3964.05	0.0005431
3973.69	0.0007458
3983.34	0.0003635
3992.98	0.0004376
