Infrared Spectrum: 1-(3,4-Methylenedioxyphenyl)-1-pentene-3-one
Formula: C 12 H 12 O 3
CAS: 10354-27-5
State: gas
Origin: EPA-IR VAPOR PHASE LIBRARY
1/CM	ABSORBANCE
549.8	0.004049
559.445	0.001859
569.09	0.001949
578.734	0.002589
588.379	0.002679
598.024	0.004039
607.669	0.004069
617.313	0.003209
626.958	0.002139
636.603	0.001229
646.248	0.0011182
655.893	0.001149
665.537	0.0009276
675.182	0.001219
684.827	0.0011172
694.472	0.001319
704.116	0.001219
713.761	0.001719
723.406	0.001879
733.051	0.001209
742.695	0.001439
752.34	0.001709
761.985	0.003299
771.63	0.006299
781.275	0.008219
790.919	0.011669
800.564	0.019849
810.209	0.024919
819.854	0.017439
829.498	0.009899
839.143	0.010609
848.788	0.012669
858.433	0.009989
868.078	0.007689
877.722	0.006519
887.367	0.005109
897.012	0.004999
906.657	0.006529
916.301	0.011789
925.946	0.021349
935.591	0.032479
945.236	0.033099
954.88	0.029409
964.525	0.031459
974.17	0.033199
983.815	0.024219
993.46	0.017549
1003.1	0.015079
1012.75	0.020079
1022.39	0.036729
1032.04	0.060899
1041.68	0.076639
1051.33	0.077609
1060.97	0.052079
1070.62	0.028619
1080.26	0.021689
1089.91	0.025989
1099.55	0.032719
1109.2	0.034029
1118.84	0.034309
1128.49	0.029039
1138.13	0.023339
1147.78	0.019979
1157.42	0.023099
1167.07	0.031389
1176.71	0.043999
1186.36	0.046499
1196	0.052859
1205.64	0.042699
1215.29	0.043149
1224.93	0.078149
1234.58	0.124759
1244.22	0.153389
1253.87	0.146109
1263.51	0.064769
1273.16	0.028739
1282.8	0.022519
1292.45	0.020279
1302.09	0.018769
1311.74	0.020149
1321.38	0.019889
1331.03	0.023619
1340.67	0.037329
1350.32	0.055749
1359.96	0.032189
1369.61	0.016379
1379.25	0.012909
1388.9	0.010159
1398.54	0.009609
1408.18	0.010569
1417.83	0.015319
1427.47	0.027869
1437.12	0.059439
1446.76	0.086559
1456.41	0.049759
1466.05	0.038409
1475.7	0.054449
1485.34	0.142469
1494.99	0.152799
1504.63	0.059959
1514.28	0.037739
1523.92	0.015299
1533.57	0.009679
1543.21	0.007239
1552.86	0.006459
1562.5	0.006889
1572.15	0.008519
1581.79	0.014329
1591.44	0.031449
1601.08	0.071189
1610.73	0.085009
1620.37	0.073129
1630.01	0.040159
1639.66	0.017139
1649.3	0.011579
1658.95	0.012239
1668.59	0.018799
1678.24	0.043109
1687.88	0.074239
1697.53	0.054459
1707.17	0.050779
1716.82	0.029219
1726.46	0.012769
1736.11	0.007549
1745.75	0.005359
1755.4	0.004649
1765.04	0.004399
1774.69	0.003539
1784.33	0.002619
1793.98	0.002279
1803.62	0.002499
1813.27	0.002889
1822.91	0.003179
1832.55	0.003959
1842.2	0.004219
1851.84	0.003609
1861.49	0.003459
1871.13	0.003729
1880.78	0.003579
1890.42	0.002919
1900.07	0.002279
1909.71	0.002059
1919.36	0.001879
1929	0.001639
1938.65	0.001619
1948.29	0.001569
1957.94	0.001559
1967.58	0.001599
1977.23	0.001559
1986.87	0.001529
1996.52	0.001479
2006.16	0.001669
2015.81	0.001889
2025.45	0.002149
2035.1	0.002389
2044.74	0.002549
2054.38	0.002299
2064.03	0.002179
2073.67	0.001769
2083.32	0.001499
2092.96	0.001339
2102.61	0.001179
2112.25	0.0011169
2121.9	0.001129
2131.54	0.0010233
2141.19	0.0009147
2150.83	0.000935
2160.48	0.0010269
2170.12	0.0009918
2179.77	0.0010731
2189.41	0.001159
2199.06	0.001249
2208.7	0.001199
2218.35	0.001219
2227.99	0.001269
2237.64	0.001209
2247.28	0.001149
2256.92	0.0010918
2266.57	0.0010878
2276.21	0.001259
2285.86	0.001179
2295.5	0.0011167
2305.15	0.001359
2314.79	0.001199
2324.44	0.001229
2334.08	0.0009864
2343.73	0.0010218
2353.37	0.0009348
2363.02	0.0009676
2372.66	0.001249
2382.31	0.001159
2391.95	0.001075
2401.6	0.0008968
2411.24	0.0009203
2420.89	0.0009835
2430.53	0.001129
2440.18	0.0009784
2449.82	0.000993
2459.47	0.0009909
2469.11	0.000897
2478.75	0.0009158
2488.4	0.0011147
2498.04	0.0009644
2507.69	0.0009833
2517.33	0.0010741
2526.98	0.001489
2536.62	0.001849
2546.27	0.001979
2555.91	0.001909
2565.56	0.001939
2575.2	0.001989
2584.85	0.002099
2594.49	0.002129
2604.14	0.001989
2613.78	0.001899
2623.43	0.001439
2633.07	0.001379
2642.72	0.001309
2652.36	0.001369
2662.01	0.001479
2671.65	0.001749
2681.29	0.001929
2690.94	0.002209
2700.58	0.002269
2710.23	0.001889
2719.87	0.001999
2729.52	0.001969
2739.16	0.002169
2748.81	0.002719
2758.45	0.003309
2768.1	0.005859
2777.74	0.008909
2787.39	0.005159
2797.03	0.003859
2806.68	0.004119
2816.32	0.004509
2825.97	0.005409
2835.61	0.006679
2845.26	0.008029
2854.9	0.011029
2864.55	0.015639
2874.19	0.023519
2883.84	0.029989
2893.48	0.029139
2903.12	0.028329
2912.77	0.031569
2922.41	0.032139
2932.06	0.027079
2941.7	0.027959
2951.35	0.032279
2960.99	0.024489
2970.64	0.022959
2980.28	0.028319
2989.93	0.024519
2999.57	0.016959
3009.22	0.013739
3018.86	0.015479
3028.51	0.013719
3038.15	0.013159
3047.8	0.011749
3057.44	0.008219
3067.09	0.007199
3076.73	0.007309
3086.38	0.005259
3096.02	0.003509
3105.67	0.002679
3115.31	0.001959
3124.95	0.001409
3134.6	0.0010744
3144.24	0.0010809
3153.89	0.0008328
3163.53	0.0008967
3173.18	0.0006924
3182.82	0.0007733
3192.47	0.0007378
3202.11	0.0007742
3211.76	0.0008338
3221.4	0.0007694
3231.05	0.0006422
3240.69	0.0007164
3250.34	0.0006913
3259.98	0.0003618
3269.63	0.0003471
3279.27	0.0005073
3288.92	0.0008075
3298.56	0.0005999
3308.21	0.0005408
3317.85	0.0006759
3327.49	0.000655
3337.14	0.000751
3346.78	0.0010699
3356.43	0.0009452
3366.07	0.001329
3375.72	0.0008461
3385.36	0.001209
3395.01	0.001209
3404.65	0.001149
3414.3	0.000848
3423.94	0.0005067
3433.59	0.0005764
3443.23	0.0003501
3452.88	0.0003195
3462.52	0.0002902
3472.17	0.00015295
3481.81	0.00020613
3491.46	0.0003324
3501.1	0.0003258
3510.75	0.0002427
3520.39	9.49e-05
3530.04	0.0003635
3539.68	0.0003866
3549.32	0.00014058
3558.97	0.00018088
3568.61	0.00011343
3578.26	0.00018806
3587.9	0.000293
3597.55	0.0003779
3607.19	0.0003193
3616.84	0.0003109
3626.48	0.0002953
3636.13	0.0002911
3645.77	0.0002566
3655.42	0.0004405
3665.06	0.0002993
3674.71	0.00021188
3684.35	0.0003055
3694	0.00010932
3703.64	0.0002452
3713.29	0.0003591
3722.93	0.0004588
3732.58	0.00021556
3742.22	0.0003717
3751.86	0.0003146
3761.51	0.0003922
3771.15	0.0002488
3780.8	0.0003268
3790.44	0.0003991
3800.09	0.0003455
3809.73	0.0003589
3819.38	0.0004912
3829.02	0.0003604
3838.67	0.0002394
3848.31	0.0003161
3857.96	0.0003267
3867.6	0.000381
3877.25	0.0005717
3886.89	0.0005164
3896.54	0.0005372
3906.18	0.0005103
3915.83	0.000478
3925.47	0.0007792
3935.12	0.000839
3944.76	0.0006947
3954.41	0.0005507
3964.05	0.0007514
3973.69	0.0008646
3983.34	0.0007145
3992.98	0.0005965
