Infrared Spectrum: 5H-DIBENZO[a,d]-1-CYCLOHEPTEN-5-OL
Formula: C15 H12 O
CAS: 10354-00-4
State: SOLUTION (1% CCl4 FOR 3800-1330, 1% CS2 FOR 1330-400 CM^-^1)
Melting point: 121 C
Class: COBLENTZ III
Instrument: DOW KBr FOREPRISM-GRATING
Instrument parameters: BLAZED AT 3.5, 12.0, 20.0 MICRON AND CHANGED AT 5.0, 7.5, 14.9 MICRON
Sampling: TRANSMISSION
Path length: 0.107 CM, 0.103 CM
Resolution: 2
Origin: DOW CHEMICAL COMPANY
1/CM	TRANSMITTANCE
385	0.0891
394	0.0919
403	0.0971
412	0.1165
421	0.1898
430	0.307
439	0.413
448	0.5473
457	0.5648
466	0.5052
475	0.6269
484	0.5008
493	0.7604
502	0.7998
511	0.8225
520	0.8321
529	0.8411
538	0.8652
547	0.8705
556	0.87
565	0.8394
574	0.8364
583	0.8533
592	0.8478
601	0.8071
610	0.6965
619	0.7092
628	0.7448
637	0.625
646	0.1491
655	0.4602
664	0.6216
673	0.7341
682	0.7697
691	0.7711
700	0.7225
709	0.716
718	0.7158
727	0.4255
736	0.1016
745	0.6179
754	0.7138
763	0.3808
772	0.3806
781	0.6911
790	0.4009
799	0.0835
808	0.6123
817	0.637
826	0.5214
835	0.5454
844	0.3088
853	0.1345
862	0.1587
871	0.2292
880	0.322
889	0.5258
898	0.7256
907	0.7998
916	0.8402
925	0.8465
934	0.8258
943	0.5651
952	0.8178
961	0.7817
970	0.7749
979	0.7441
988	0.6146
997	0.5658
1006	0.75
1015	0.7836
1024	0.7357
1033	0.4975
1042	0.1959
1051	0.5992
1060	0.7768
1069	0.8353
1078	0.8375
1087	0.8367
1096	0.81
1105	0.7386
1114	0.5695
1123	0.7211
1132	0.8
1141	0.7728
1150	0.7043
1159	0.6106
1168	0.5637
1177	0.4407
1186	0.3424
1195	0.4366
1204	0.6496
1213	0.6188
1222	0.6399
1231	0.7358
1240	0.7643
1249	0.7801
1258	0.7698
1267	0.7521
1276	0.7308
1285	0.701
1294	0.6488
1303	0.5854
1312	0.6242
1321	0.6765
1330	0.753
1339	0.794
1348	0.8046
1357	0.7897
1366	0.7635
1375	0.6975
1384	0.7221
1393	0.7564
1402	0.775
1411	0.7391
1420	0.763
1429	0.7004
1438	0.5336
1447	0.5772
1456	0.6242
1465	0.6398
1474	0.5662
1483	0.2957
1492	0.3054
1501	0.175
1510	0.0916
1519	0.0473
1528	0.0198
1537	0.004
1546	0.0022
1555	0.0074
1564	0.016
1573	0.0235
1582	0.0335
1591	0.0579
1600	0.185
1609	0.3409
1618	0.5226
1627	0.6675
1636	0.7365
1645	0.7819
1654	0.8081
1663	0.8136
1672	0.7904
1681	0.8121
1690	0.8264
1699	0.8298
1708	0.8409
1717	0.8518
1726	0.8512
1735	0.8378
1744	0.8299
1753	0.823
1762	0.8268
1771	0.8356
1780	0.851
1789	0.8443
1798	0.8224
1807	0.8011
1816	0.7911
1825	0.8045
1834	0.7825
1843	0.7747
1852	0.786
1861	0.8028
1870	0.8246
1879	0.8404
1888	0.8304
1897	0.8278
1906	0.8417
1915	0.8189
1924	0.7841
1933	0.8368
1942	0.833
1951	0.7847
1960	0.8387
1969	0.8416
1978	0.8383
1987	0.8292
1996	0.8162
2005	0.8111
2014	0.8194
2023	0.8306
2032	0.8428
2041	0.8473
2050	0.8535
2059	0.8601
2068	0.8661
2077	0.8703
2086	0.8748
2095	0.8784
2104	0.8821
2113	0.8848
2122	0.8867
2131	0.8863
2140	0.8844
2149	0.8836
2158	0.8838
2167	0.8875
2176	0.8896
2185	0.8888
2194	0.8863
2203	0.8823
2212	0.8763
2221	0.8667
2230	0.8534
2239	0.8362
2248	0.8195
2257	0.8006
2266	0.7761
2275	0.7441
2284	0.7021
2293	0.6912
2302	0.7031
2311	0.72
2320	0.7334
2329	0.7518
2338	0.7615
2347	0.7964
2356	0.8165
2365	0.8355
2374	0.8492
2383	0.862
2392	0.8698
2401	0.8749
2410	0.8796
2419	0.8824
2428	0.8848
2437	0.886
2446	0.8864
2455	0.8866
2464	0.8867
2473	0.8856
2482	0.8845
2491	0.8836
2500	0.8828
2509	0.8821
2518	0.8815
2527	0.8811
2536	0.8809
2545	0.8806
2554	0.8805
2563	0.8805
2572	0.8804
2581	0.8804
2590	0.8808
2599	0.8811
2608	0.8816
2617	0.8821
2626	0.8825
2635	0.8831
2644	0.883
2653	0.8828
2662	0.8825
2671	0.8808
2680	0.8791
2689	0.8777
2698	0.8764
2707	0.8751
2716	0.8734
2725	0.8714
2734	0.8708
2743	0.8705
2752	0.8718
2761	0.8737
2770	0.8732
2779	0.8718
2788	0.8697
2797	0.8657
2806	0.8596
2815	0.8503
2824	0.8377
2833	0.8151
2842	0.7755
2851	0.7931
2860	0.8035
2869	0.8125
2878	0.8285
2887	0.8286
2896	0.8268
2905	0.8248
2914	0.8233
2923	0.8218
2932	0.8208
2941	0.8236
2950	0.8313
2959	0.8335
2968	0.8351
2977	0.83
2986	0.8201
2995	0.8038
3004	0.7817
3013	0.6705
3022	0.4584
3031	0.4646
3040	0.5341
3049	0.6231
3058	0.5557
3067	0.5518
3076	0.4501
3085	0.6803
3094	0.7745
3103	0.7758
3112	0.8468
3121	0.848
3130	0.8441
3139	0.8471
3148	0.8597
3157	0.8598
3166	0.8582
3175	0.8565
3184	0.8558
3193	0.8554
3202	0.8549
3211	0.8544
3220	0.8542
3229	0.8539
3238	0.8537
3247	0.853
3256	0.8523
3265	0.8515
3274	0.8506
3283	0.8497
3292	0.8488
3301	0.8478
3310	0.8468
3319	0.846
3328	0.8451
3337	0.8438
3346	0.8417
3355	0.8397
3364	0.8375
3373	0.8355
3382	0.8328
3391	0.8304
3400	0.8278
3409	0.8253
3418	0.8225
3427	0.8199
3436	0.8171
3445	0.8143
3454	0.8144
3463	0.8151
3472	0.8171
3481	0.8195
3490	0.8221
3499	0.8266
3508	0.8309
3517	0.8349
3526	0.8385
3535	0.8402
3544	0.8392
3553	0.8334
3562	0.8211
3571	0.8051
3580	0.7758
3589	0.7571
3598	0.7449
3607	0.7031
3616	0.5812
3625	0.4502
3634	0.3192
3643	0.5379
3652	0.8274
3661	0.8524
3670	0.8614
3679	0.8663
3688	0.8671
3697	0.8647
3706	0.8731
3715	0.8774
3724	0.8796
3733	0.8808
3742	0.8816
3751	0.8821
3760	0.8824
3769	0.8818
3778	0.8805
3787	0.8793
3796	0.881
