Infrared Spectrum: N-Benzoylimidazole
Formula: C 10 H 8 N 2 O
CAS: 10364-94-0
State: gas
Origin: EPA-IR VAPOR PHASE LIBRARY
1/CM	ABSORBANCE
549.8	0.001108
559.445	0.0016997
569.09	0.00294
578.735	0.002457
588.38	0.001447
598.025	0.0018973
607.67	0.0023777
617.315	0.0029
626.96	0.00395
636.605	0.00948
646.251	0.01615
655.896	0.01157
665.541	0.01659
675.186	0.03685
684.831	0.03596
694.476	0.0428
704.121	0.03849
713.766	0.03437
723.411	0.04209
733.056	0.03152
742.701	0.0206
752.346	0.01479
761.991	0.0078
771.636	0.00602
781.281	0.0079
790.926	0.00818
800.571	0.00615
810.216	0.00804
819.861	0.01339
829.507	0.01374
839.152	0.01185
848.797	0.00746
858.442	0.00503
868.087	0.0062
877.732	0.01446
887.377	0.04069
897.022	0.08619
906.667	0.05287
916.312	0.01012
925.957	0.00769
935.602	0.00496
945.247	0.0034
954.892	0.00303
964.537	0.00364
974.182	0.00374
983.827	0.00389
993.472	0.00719
1003.12	0.01071
1012.76	0.01788
1022.41	0.02545
1032.05	0.01747
1041.7	0.00884
1051.34	0.01644
1060.99	0.03859
1070.63	0.03518
1080.28	0.01673
1089.92	0.03033
1099.57	0.03216
1109.21	0.00868
1118.86	0.00371
1128.5	0.0032
1138.15	0.00375
1147.79	0.00438
1157.44	0.00668
1167.08	0.01375
1176.73	0.02842
1186.37	0.03081
1196.02	0.01529
1205.66	0.01317
1215.31	0.01787
1224.95	0.03115
1234.6	0.07735
1244.24	0.09093
1253.89	0.04189
1263.53	0.03316
1273.18	0.05668
1282.82	0.10742
1292.47	0.16933
1302.11	0.17323
1311.76	0.0881
1321.4	0.02405
1331.05	0.01292
1340.69	0.01143
1350.34	0.0225
1359.98	0.07218
1369.63	0.11831
1379.27	0.06622
1388.92	0.01626
1398.56	0.00899
1408.21	0.00739
1417.85	0.00722
1427.5	0.00861
1437.14	0.01426
1446.79	0.02726
1456.43	0.03868
1466.08	0.04441
1475.73	0.04136
1485.37	0.02624
1495.02	0.01906
1504.66	0.01405
1514.31	0.01013
1523.95	0.01293
1533.6	0.0096
1543.24	0.00524
1552.89	0.00569
1562.53	0.00703
1572.18	0.00794
1581.82	0.00721
1591.47	0.00888
1601.11	0.01226
1610.76	0.01118
1620.4	0.00863
1630.05	0.00707
1639.69	0.00699
1649.34	0.00585
1658.98	0.00501
1668.63	0.00595
1678.27	0.00789
1687.92	0.01116
1697.56	0.01378
1707.21	0.02114
1716.85	0.06045
1726.5	0.13368
1736.14	0.13129
1745.79	0.05285
1755.43	0.01739
1765.08	0.0111
1774.72	0.00985
1784.37	0.00787
1794.01	0.00699
1803.66	0.00652
1813.3	0.00526
1822.95	0.00381
1832.59	0.00307
1842.24	0.0026306
1851.88	0.0023829
1861.53	0.0021474
1871.17	0.0019717
1880.82	0.0019524
1890.46	0.0022936
1900.11	0.0025921
1909.75	0.00273
1919.4	0.0022665
1929.04	0.00172727
1938.69	0.0018212
1948.33	0.0022968
1957.98	0.0028
1967.62	0.00288
1977.27	0.0024023
1986.91	0.001544
1996.56	0.001244
2006.2	0.001071
2015.85	0.001067
2025.49	0.001184
2035.14	0.001394
2044.78	0.001434
2054.43	0.001353
2064.07	0.001159
2073.72	0.001196
2083.36	0.001016
2093.01	0.001008
2102.65	0.000909
2112.3	0.001015
2121.94	0.001115
2131.59	0.001075
2141.23	0.001153
2150.88	0.001044
2160.52	0.001127
2170.17	0.001095
2179.81	0.001235
2189.46	0.00125
2199.1	0.001135
2208.75	0.001044
2218.39	0.001005
2228.04	0.000949
2237.68	0.001019
2247.33	0.00109
2256.97	0.001207
2266.62	0.001179
2276.26	0.001131
2285.91	0.001196
2295.55	0.001179
2305.2	0.001199
2314.84	0.001263
2324.49	0.001339
2334.13	0.001294
2343.78	0.001405
2353.42	0.001434
2363.07	0.001345
2372.72	0.001353
2382.36	0.001546
2392.01	0.001558
2401.65	0.001234
2411.3	0.001346
2420.94	0.001323
2430.59	0.001186
2440.23	0.001106
2449.88	0.001123
2459.52	0.00115
2469.17	0.00113
2478.81	0.001195
2488.46	0.001131
2498.1	0.001151
2507.75	0.001121
2517.39	0.00129
2527.04	0.001425
2536.68	0.001543
2546.33	0.0018786
2555.97	0.00175011
2565.62	0.001574
2575.26	0.001412
2584.91	0.001195
2594.55	0.001131
2604.2	0.001061
2613.84	0.001128
2623.49	0.001074
2633.13	0.001103
2642.78	0.001123
2652.42	0.001147
2662.07	0.001029
2671.71	0.000974
2681.36	0.000861
2691	0.00064
2700.65	0.00067
2710.29	0.000781
2719.94	0.000857
2729.58	0.000875
2739.23	0.001018
2748.87	0.00112
2758.52	0.001119
2768.16	0.001223
2777.81	0.00115
2787.45	0.000832
2797.1	0.000772
2806.74	0.00063
2816.39	0.00058
2826.03	0.00057
2835.68	0.000738
2845.32	0.00056
2854.97	0.00052
2864.61	0.0006
2874.26	0.00066
2883.9	0.00068
2893.55	0.000801
2903.19	0.000863
2912.84	0.000899
2922.48	0.000971
2932.13	0.000799
2941.77	0.00079
2951.42	0.00065
2961.06	0.00055
2970.71	0.00046
2980.35	0.00051
2990	0.00065
2999.64	0.000843
3009.29	0.000982
3018.93	0.0016629
3028.58	0.00334
3038.22	0.00513
3047.87	0.00505
3057.51	0.00536
3067.16	0.00972
3076.8	0.01227
3086.45	0.00885
3096.09	0.0068
3105.74	0.00461
3115.38	0.00332
3125.03	0.00368
3134.67	0.00395
3144.32	0.0023083
3153.96	0.0021482
3163.61	0.00295
3173.25	0.0019383
3182.9	0.00057
3192.54	0.00039
3202.19	0.0003
3211.83	0.0003
3221.48	6e-05
3231.12	0.00019
3240.77	0.00037
3250.41	0.00015
3260.06	0.0004
3269.7	0.00017
3279.35	0.00012
3289	0.0001
3298.64	0.0002
3308.29	0.0001
3317.93	0.00024
3327.58	0.00035
3337.22	0.0002
3346.87	0.00021
3356.51	0.00023
3366.16	0.00011
3375.8	0.00025
3385.45	0.00055
3395.09	0.00035
3404.74	0.00031
3414.38	0.00048
3424.03	0.001037
3433.67	0.00174777
3443.32	0.0019588
3452.96	0.00146
3462.61	0.000762
3472.25	0.00058
3481.9	0.00054
3491.54	0.00047
3501.19	0.00049
3510.83	0.00041
3520.48	0.00037
3530.12	0.00034
3539.77	0.00038
3549.41	0.00031
3559.06	7e-05
3568.7	0.00018
3578.35	0.00039
3587.99	0.00029
3597.64	0.00029
3607.28	0.00017
3616.93	0.00028
3626.57	0.00025
3636.22	0.00046
3645.86	0.00046
3655.51	0.00047
3665.15	0.00061
3674.8	0.00025
3684.44	0.00049
3694.09	0.00044
3703.73	0.00043
3713.38	0.00044
3723.02	0.00028
3732.67	0.00042
3742.31	0.00037
3751.96	0.00057
3761.6	0.0004
3771.25	0.00048
3780.89	0.00022
3790.54	0.0004
3800.18	0.00026
3809.83	0.00029
3819.47	0.00031
3829.12	0.00013
3838.76	0.00039
3848.41	0.00038
3858.05	0.00015
3867.7	0.00031
3877.34	0.00047
3886.99	0.00028
3896.63	0.00045
3906.28	0.00027
3915.92	0.00029
3925.57	0.0002
3935.21	8e-05
3944.86	0.00018
3954.5	0.00045
3964.15	0.00047
3973.79	0.00039
3983.44	0.00011
3993.08	0.00048
