Infrared Spectrum: SODIUM METAPHOSPHATE
Formula: O3 P Na
CAS: 10361-03-2
State: SOLID (MULL IN COCONITRILE OIL)
Class: COBLENTZ III
Instrument: PERKIN-ELMER 421 (GRATING)
Instrument parameters: GRATING CHANGE AT 1999 CM^-^1
Sampling: TRANSMISSION
Resolution: 4
Origin: PROCTER AND GAMBLE CO.
1/CM	TRANSMITTANCE
483.455	0.5
492.429	0.497
501.402	0.496
510.376	0.492
519.35	0.477
528.323	0.456
537.297	0.332
546.271	0.287
555.244	0.347
564.218	0.414
573.191	0.387
582.165	0.451
591.139	0.374
600.112	0.43
609.086	0.618
618.06	0.659
627.033	0.684
636.007	0.695
644.981	0.712
653.954	0.714
662.928	0.714
671.902	0.708
680.875	0.655
689.849	0.496
698.823	0.271
707.796	0.385
716.77	0.297
725.743	0.493
734.717	0.597
743.691	0.61
752.664	0.711
761.638	0.723
770.612	0.714
779.585	0.708
788.559	0.692
797.533	0.659
806.506	0.591
815.48	0.527
824.454	0.432
833.427	0.332
842.401	0.233
851.375	0.114
860.348	0.056
869.322	0.032
878.295	0.033
887.269	0.036
896.243	0.041
905.216	0.059
914.19	0.069
923.164	0.1
932.137	0.142
941.111	0.181
950.085	0.228
959.058	0.267
968.032	0.295
977.006	0.316
985.979	0.322
994.953	0.315
1003.93	0.289
1012.9	0.261
1021.87	0.201
1030.85	0.111
1039.82	0.057
1048.79	0.038
1057.77	0.044
1066.74	0.072
1075.72	0.178
1084.69	0.093
1093.66	0.029
1102.64	0.037
1111.61	0.079
1120.58	0.193
1129.56	0.348
1138.53	0.379
1147.5	0.284
1156.48	0.065
1165.45	0.236
1174.43	0.46
1183.4	0.497
1192.37	0.491
1201.35	0.488
1210.32	0.489
1219.29	0.488
1228.27	0.471
1237.24	0.422
1246.22	0.339
1255.19	0.244
1264.16	0.114
1273.14	0.038
1282.11	0.02
1291.08	0.017
1300.06	0.026
1309.03	0.048
1318	0.084
1326.98	0.202
1335.95	0.358
1344.93	0.499
1353.9	0.59
1362.87	0.644
1371.85	0.673
1380.82	0.71
1389.79	0.74
1398.77	0.761
1407.74	0.767
1416.71	0.765
1425.69	0.759
1434.66	0.766
1443.64	0.758
1452.61	0.724
1461.58	0.714
1470.56	0.798
1479.53	0.82
1488.5	0.822
1497.48	0.825
1506.45	0.822
1515.42	0.821
1524.4	0.82
1533.37	0.82
1542.35	0.818
1551.32	0.812
1560.29	0.805
1569.27	0.798
1578.24	0.793
1587.21	0.789
1596.19	0.786
1605.16	0.779
1614.13	0.775
1623.11	0.774
1632.08	0.773
1641.06	0.773
1650.03	0.771
1659	0.773
1667.98	0.775
1676.95	0.789
1685.92	0.794
1694.9	0.794
1703.87	0.797
1712.84	0.804
1721.82	0.805
1730.79	0.808
1739.77	0.812
1748.74	0.814
1757.71	0.818
1766.69	0.826
1775.66	0.829
1784.63	0.833
1793.61	0.834
1802.58	0.836
1811.55	0.84
1820.53	0.844
1829.5	0.853
1838.48	0.856
1847.45	0.86
1856.42	0.863
1865.4	0.863
1874.37	0.872
1883.34	0.875
1892.32	0.875
1901.29	0.876
1910.26	0.877
1919.24	0.88
1928.21	0.879
1937.19	0.879
1946.16	0.881
1955.13	0.88
1964.11	0.883
1973.08	0.881
1982.05	0.881
1991.03	0.879
2000	0.814
2008.98	0.869
2017.95	0.869
2026.92	0.871
2035.9	0.8691
2044.87	0.872
2053.84	0.8691
2062.82	0.868
2071.79	0.868
2080.76	0.865
2089.74	0.865
2098.71	0.867
2107.69	0.867
2116.66	0.868
2125.63	0.865
2134.61	0.865
2143.58	0.8641
2152.55	0.864
2161.53	0.865
2170.5	0.864
2179.47	0.863
2188.45	0.86
2197.42	0.86
2206.4	0.861
2215.37	0.8602
2224.34	0.8573
2233.32	0.8562
2242.29	0.8494
2251.26	0.8404
2260.24	0.8542
2269.21	0.8568
2278.18	0.859
2287.16	0.86
2296.13	0.859
2305.11	0.8598
2314.08	0.8575
2323.05	0.8495
2332.03	0.8483
2341	0.848
2349.97	0.845
2358.95	0.846
2367.92	0.849
2376.89	0.8504
2385.87	0.851
2394.84	0.851
2403.82	0.8489
2412.79	0.849
2421.76	0.849
2430.74	0.849
2439.71	0.8517
2448.68	0.8543
2457.66	0.857
2466.63	0.859
2475.6	0.859
2484.58	0.857
2493.55	0.8679
2502.53	0.9195
2511.5	0.8702
2520.47	0.872
2529.45	0.873
2538.42	0.8756
2547.39	0.8782
2556.37	0.879
2565.34	0.88
2574.31	0.8804
2583.29	0.883
2592.26	0.881
2601.24	0.8835
2610.21	0.883
2619.18	0.883
2628.16	0.884
2637.13	0.884
2646.1	0.883
2655.08	0.881
2664.05	0.88
2673.02	0.877
2682	0.879
2690.97	0.875
2699.95	0.875
2708.92	0.877
2717.89	0.875
2726.87	0.872
2735.84	0.869
2744.81	0.868
2753.79	0.869
2762.76	0.8682
2771.74	0.865
2780.71	0.865
2789.68	0.864
2798.66	0.861
2807.63	0.8548
2816.6	0.8486
2825.58	0.8399
2834.55	0.8235
2843.52	0.7964
2852.5	0.67
2861.47	0.5309
2870.45	0.6458
2879.42	0.7004
2888.39	0.7317
2897.37	0.7059
2906.34	0.6406
2915.31	0.548
2924.29	0.3651
2933.26	0.3906
2942.23	0.4792
2951.21	0.5857
2960.18	0.6188
2969.16	0.659
2978.13	0.743
2987.1	0.8075
2996.08	0.83
3005.05	0.8425
3014.02	0.8495
3023	0.8552
3031.97	0.8617
3040.94	0.865
3049.92	0.8712
3058.89	0.8718
3067.87	0.872
3076.84	0.8734
3085.81	0.877
3094.79	0.8787
3103.76	0.8773
3112.73	0.8802
3121.71	0.883
3130.68	0.883
3139.65	0.881
3148.63	0.881
3157.6	0.88
3166.58	0.88
3175.55	0.88
3184.52	0.879
3193.5	0.879
3202.47	0.877
3211.44	0.877
3220.42	0.876
3229.39	0.876
3238.36	0.876
3247.34	0.876
3256.31	0.876
3265.29	0.877
3274.26	0.876
3283.23	0.876
3292.21	0.875
3301.18	0.873
3310.15	0.876
3319.13	0.875
3328.1	0.872
3337.07	0.872
3346.05	0.872
3355.02	0.872
3364	0.869
3372.97	0.868
3381.94	0.868
3390.92	0.868
3399.89	0.868
3408.86	0.8689
3417.84	0.871
3426.81	0.8729
3435.78	0.873
3444.76	0.8732
3453.73	0.875
3462.71	0.876
3471.68	0.8788
3480.65	0.879
3489.63	0.88
3498.6	0.883
3507.57	0.885
3516.55	0.8867
3525.52	0.887
3534.5	0.8907
3543.47	0.892
3552.44	0.892
3561.42	0.892
3570.39	0.893
3579.36	0.893
3588.34	0.8946
3597.31	0.902
3606.28	0.904
3615.26	0.906
3624.23	0.9078
3633.21	0.9118
3642.18	0.916
3651.15	0.919
3660.13	0.9197
3669.1	0.92
3678.07	0.92
3687.05	0.922
3696.02	0.9227
3704.99	0.924
3713.97	0.922
3722.94	0.922
3731.92	0.9227
3740.89	0.9206
3749.86	0.92
3758.84	0.922
3767.81	0.922
3776.78	0.923
3785.76	0.923
3794.73	0.922
3803.7	0.923
3812.68	0.922
3821.65	0.92
3830.63	0.92
3839.6	0.92
3848.57	0.92
3857.55	0.92
3866.52	0.92
3875.49	0.922
3884.47	0.922
3893.44	0.922
3902.41	0.92
3911.39	0.92
3920.36	0.92
3929.34	0.92
3938.31	0.92
3947.28	0.92
3956.26	0.922
3965.23	0.92
3974.2	0.92
3983.18	0.92
3992.15	0.9195
