Infrared Spectrum: 3H-1,4-BENZODIAZEPINE-2,5-DIONE,4-(P-CHLOROPHENYL)-1,2,4,5-TETRAHYDRO-1-METHYL-
Formula: C16 H13 Cl N2 O2
CAS: 1036-16-4
State: SOLUTION (7% IN CHCl3)
Class: COBLENTZ
Instrument: PERKIN-ELMER 21 (GRATING)
Instrument parameters: FILTER CHANGE AT 10 MICRON
Sampling: TRANSMISSION
Path length: 0.01 CM
Resolution: 2
Origin: ABBOTT LABORATORIES
MICROMETERS	TRANSMITTANCE
2.494	0.943
2.52289	0.947
2.55179	0.949
2.58068	0.952
2.60958	0.955
2.63847	0.958
2.66736	0.96
2.69626	0.962
2.72515	0.959
2.75404	0.952
2.78294	0.942
2.81183	0.943
2.84073	0.947
2.86962	0.937
2.89851	0.922
2.92741	0.922
2.9563	0.925
2.98519	0.93
3.01409	0.922
3.04298	0.914
3.07188	0.912
3.10077	0.913
3.12966	0.919
3.15856	0.941
3.18745	0.94
3.21634	0.937
3.24524	0.932
3.27413	0.914
3.30303	0.893
3.33192	0.854
3.36081	0.748
3.38971	0.733
3.4186	0.811
3.44749	0.856
3.47639	0.868
3.50528	0.889
3.53418	0.908
3.56307	0.919
3.59196	0.931
3.62086	0.944
3.64975	0.948
3.67864	0.949
3.70754	0.95
3.73643	0.952
3.76533	0.952
3.79422	0.953
3.82311	0.953
3.85201	0.952
3.8809	0.95
3.90979	0.949
3.93869	0.95
3.96758	0.95
3.99648	0.95
4.02537	0.942
4.05426	0.938
4.08316	0.94
4.11205	0.934
4.14094	0.931
4.16984	0.934
4.19873	0.943
4.22763	0.962
4.25652	0.962
4.28541	0.961
4.31431	0.959
4.3432	0.958
4.37209	0.953
4.40099	0.949
4.42988	0.95
4.45878	0.952
4.48767	0.952
4.51656	0.954
4.54546	0.955
4.57435	0.955
4.60325	0.955
4.63214	0.961
4.66103	0.961
4.68993	0.961
4.71882	0.961
4.74771	0.96
4.77661	0.959
4.8055	0.959
4.8344	0.958
4.86329	0.959
4.89218	0.967
4.92108	0.965
4.94997	0.961
4.97886	0.958
5.00776	0.958
5.03665	0.958
5.06555	0.956
5.09444	0.954
5.12333	0.947
5.15223	0.947
5.18112	0.948
5.21001	0.937
5.23891	0.942
5.2678	0.942
5.2967	0.935
5.32559	0.917
5.35448	0.94
5.38338	0.949
5.41227	0.942
5.44116	0.942
5.47006	0.942
5.49895	0.946
5.52785	0.931
5.55674	0.934
5.58563	0.936
5.61453	0.94
5.64342	0.937
5.67231	0.917
5.70121	0.916
5.7301	0.916
5.759	0.912
5.78789	0.895
5.81678	0.864
5.84568	0.816
5.87457	0.749
5.90346	0.647
5.93236	0.3
5.96125	0.129
5.99015	0.07
6.01904	0.056
6.04793	0.038
6.07683	0.039
6.10572	0.064
6.13461	0.182
6.16351	0.471
6.1924	0.6
6.2213	0.633
6.25019	0.39
6.27908	0.372
6.30798	0.534
6.33687	0.69
6.36576	0.658
6.39466	0.718
6.42355	0.802
6.45245	0.823
6.48134	0.863
6.51023	0.865
6.53913	0.868
6.56802	0.87
6.59692	0.865
6.62581	0.85
6.6547	0.782
6.6836	0.691
6.71249	0.363
6.74138	0.1
6.77028	0.264
6.79917	0.305
6.82807	0.263
6.85696	0.247
6.88585	0.124
6.91475	0.25
6.94364	0.468
6.97253	0.537
7.00143	0.57
7.03032	0.646
7.05922	0.515
7.08811	0.449
7.117	0.48
7.1459	0.511
7.17479	0.402
7.20368	0.183
7.23258	0.099
7.26147	0.274
7.29037	0.412
7.31926	0.516
7.34815	0.606
7.37705	0.678
7.40594	0.703
7.43483	0.706
7.46373	0.735
7.49262	0.779
7.52152	0.806
7.55041	0.805
7.5793	0.768
7.6082	0.774
7.63709	0.785
7.66598	0.762
7.69488	0.729
7.72377	0.747
7.75267	0.769
7.78156	0.744
7.81045	0.673
7.83935	0.599
7.86824	0.588
7.89713	0.628
7.92603	0.72
7.95492	0.767
7.98382	0.769
8.01271	0.737
8.0416	0.697
8.0705	0.676
8.09939	0.654
8.12828	0.645
8.15718	0.642
8.18607	0.642
8.21497	0.645
8.24386	0.645
8.27275	0.646
8.30165	0.655
8.33054	0.665
8.35943	0.66
8.38833	0.655
8.41722	0.689
8.44612	0.737
8.47501	0.768
8.5039	0.742
8.5328	0.693
8.56169	0.631
8.59058	0.589
8.61948	0.599
8.64837	0.684
8.67727	0.748
8.70616	0.77
8.73505	0.778
8.76395	0.749
8.79284	0.707
8.82174	0.523
8.85063	0.369
8.87952	0.371
8.90842	0.466
8.93731	0.576
8.9662	0.679
8.9951	0.732
9.02399	0.757
9.05289	0.761
9.08178	0.732
9.11067	0.675
9.13957	0.611
9.16846	0.513
9.19735	0.526
9.22625	0.574
9.25514	0.436
9.28404	0.597
9.31293	0.76
9.34182	0.797
9.37072	0.81
9.39961	0.833
9.4285	0.857
9.4574	0.866
9.48629	0.866
9.51519	0.868
9.54408	0.817
9.57297	0.725
9.60187	0.739
9.63076	0.689
9.65965	0.567
9.68855	0.665
9.71744	0.803
9.74634	0.835
9.77523	0.857
9.80412	0.863
9.83302	0.864
9.86191	0.714
9.8908	0.495
9.9197	0.649
9.94859	0.836
9.97749	0.874
10.0064	0.905
10.0353	0.912
10.0642	0.913
10.0931	0.914
10.122	0.917
10.1508	0.918
10.1797	0.919
10.2086	0.919
10.2375	0.922
10.2664	0.92
10.2953	0.924
10.3242	0.923
10.3531	0.911
10.382	0.866
10.4109	0.767
10.4398	0.648
10.4687	0.687
10.4976	0.75
10.5265	0.821
10.5554	0.875
10.5843	0.9
10.6131	0.913
10.642	0.919
10.6709	0.932
10.6998	0.935
10.7287	0.937
10.7576	0.94
10.7865	0.931
10.8154	0.894
10.8443	0.874
10.8732	0.878
10.9021	0.911
10.931	0.936
10.9599	0.948
10.9888	0.95
11.0177	0.952
11.0466	0.953
11.0754	0.958
11.1043	0.954
11.1332	0.954
11.1621	0.955
11.191	0.947
11.2199	0.95
11.2488	0.954
11.2777	0.954
11.3066	0.954
11.3355	0.955
11.3644	0.956
11.3933	0.954
11.4222	0.95
11.4511	0.95
11.48	0.943
11.5089	0.943
11.5377	0.946
11.5666	0.949
11.5955	0.946
11.6244	0.947
11.6533	0.948
11.6822	0.949
11.7111	0.946
11.74	0.928
11.7689	0.872
11.7978	0.77
11.8267	0.696
11.8556	0.663
11.8845	0.707
11.9134	0.796
11.9423	0.827
11.9712	0.829
12	0.806
12.0289	0.763
12.0578	0.723
12.0867	0.731
12.1156	0.778
12.1445	0.785
12.1734	0.808
12.2023	0.829
12.2312	0.848
12.2601	0.86
12.289	0.887
12.3179	0.902
12.3468	0.908
12.3757	0.906
12.4046	0.887
12.4335	0.859
12.4623	0.8
12.4912	0.782
12.5201	0.79
12.549	0.796
12.5779	0.803
12.6068	0.81
12.6357	0.82
12.6646	0.824
12.6935	0.824
