Infrared Spectrum: DL-Camphorquinone
Formula: C 10 H 14 O 2
CAS: 10373-78-1
State: gas
Origin: EPA-IR VAPOR PHASE LIBRARY
1/CM	ABSORBANCE
549.9	0.002191
559.547	0.001901
569.193	0.000996
578.84	0.000953
588.486	0.001821
598.133	0.002191
607.779	0.002181
617.426	0.002151
627.072	0.0013023
636.719	0.000452
646.365	0.000398
656.012	0.000288
665.658	0.000411
675.305	0.00073002
684.951	0.001365
694.598	0.0014642
704.245	0.0010902
713.891	0.001167
723.538	0.002211
733.184	0.002381
742.831	0.0012352
752.477	0.000531
762.124	0.000333
771.77	0.000361
781.417	0.000283
791.063	0.000364
800.71	0.00056
810.356	0.0012245
820.003	0.001751
829.649	0.0014514
839.296	0.0010158
848.943	0.0010147
858.589	0.0008511
868.236	0.0006987
877.882	0.0009334
887.529	0.002221
897.175	0.004751
906.822	0.005531
916.468	0.003251
926.115	0.002131
935.761	0.002551
945.408	0.004591
955.054	0.008891
964.701	0.010091
974.347	0.006581
983.994	0.008281
993.64	0.013731
1003.29	0.011521
1012.93	0.005081
1022.58	0.002591
1032.23	0.002911
1041.87	0.005251
1051.52	0.005671
1061.17	0.003161
1070.81	0.0014125
1080.46	0.0012932
1090.11	0.002051
1099.75	0.003811
1109.4	0.004521
1119.05	0.004031
1128.69	0.003161
1138.34	0.002991
1147.99	0.005461
1157.63	0.008531
1167.28	0.007001
1176.92	0.003481
1186.57	0.003071
1196.22	0.003471
1205.86	0.002761
1215.51	0.002651
1225.16	0.003441
1234.8	0.003061
1244.45	0.002811
1254.1	0.002471
1263.74	0.002371
1273.39	0.004171
1283.04	0.005491
1292.68	0.004381
1302.33	0.003541
1311.98	0.004331
1321.62	0.004051
1331.27	0.002451
1340.92	0.0013323
1350.56	0.0013358
1360.21	0.002501
1369.86	0.006961
1379.5	0.011601
1389.15	0.010771
1398.79	0.008861
1408.44	0.004641
1418.09	0.001861
1427.73	0.002111
1437.38	0.004221
1447.03	0.008031
1456.67	0.010101
1466.32	0.008721
1475.97	0.007631
1485.61	0.005821
1495.26	0.003021
1504.91	0.0015044
1514.55	0.000969
1524.2	0.000877
1533.85	0.0008422
1543.49	0.0008872
1553.14	0.0008647
1562.79	0.0008265
1572.43	0.0008
1582.08	0.0008291
1591.73	0.0010036
1601.37	0.0010796
1611.02	0.001249
1620.67	0.00121
1630.31	0.0012166
1639.96	0.0014903
1649.6	0.001821
1659.25	0.002101
1668.9	0.002181
1678.54	0.002391
1688.19	0.002741
1697.84	0.002881
1707.48	0.003171
1717.13	0.004591
1726.78	0.007401
1736.42	0.012431
1746.07	0.029101
1755.72	0.079991
1765.36	0.121571
1775.01	0.096701
1784.66	0.060041
1794.3	0.031011
1803.95	0.010171
1813.6	0.005511
1823.24	0.003801
1832.89	0.002751
1842.54	0.002301
1852.18	0.002161
1861.83	0.002141
1871.47	0.002021
1881.12	0.0014582
1890.77	0.0011227
1900.41	0.0010904
1910.06	0.0011471
1919.71	0.0011414
1929.35	0.0010243
1939	0.0008364
1948.65	0.00077564
1958.29	0.0006748
1967.94	0.0006549
1977.59	0.000597
1987.23	0.000534
1996.88	0.000559
2006.53	0.000538
2016.17	0.000505
2025.82	0.000431
2035.47	0.000459
2045.11	0.000468
2054.76	0.000464
2064.41	0.000445
2074.05	0.000462
2083.7	0.000526
2093.35	0.000483
2102.99	0.000479
2112.64	0.000358
2122.28	0.000302
2131.93	0.000302
2141.58	0.000331
2151.22	0.00037
2160.87	0.0004
2170.52	0.000343
2180.16	0.000344
2189.81	0.000358
2199.46	0.000417
2209.1	0.000419
2218.75	0.000338
2228.4	0.000307
2238.04	0.000303
2247.69	0.000279
2257.34	0.000345
2266.98	0.000375
2276.63	0.000438
2286.28	0.000359
2295.92	0.000399
2305.57	0.000342
2315.22	0.000335
2324.86	0.000401
2334.51	0.000407
2344.16	0.000402
2353.8	0.000399
2363.45	0.000407
2373.09	0.00034
2382.74	0.000311
2392.39	0.000323
2402.03	0.000276
2411.68	0.000178
2421.33	0.00019
2430.97	0.000209
2440.62	0.000205
2450.27	0.000234
2459.91	0.000207
2469.56	0.000208
2479.21	0.000241
2488.85	0.000248
2498.5	0.000201
2508.15	0.000208
2517.79	0.000203
2527.44	0.000224
2537.09	0.00019
2546.73	0.000163
2556.38	0.000178
2566.03	0.000101
2575.67	0.00014
2585.32	9e-05
2594.96	0.000159
2604.61	0.000243
2614.26	0.000262
2623.9	0.000209
2633.55	0.000205
2643.2	0.000287
2652.84	0.000187
2662.49	0.000243
2672.14	0.000286
2681.78	0.000268
2691.43	0.00025
2701.08	0.000233
2710.72	0.000337
2720.37	0.000407
2730.02	0.000554
2739.66	0.0008393
2749.31	0.0009272
2758.96	0.00080286
2768.6	0.0006378
2778.25	0.00070678
2787.9	0.000812
2797.54	0.00076842
2807.19	0.0010378
2816.84	0.0012754
2826.48	0.0016039
2836.13	0.001891
2845.77	0.002261
2855.42	0.003111
2865.07	0.005701
2874.71	0.011901
2884.36	0.018591
2894.01	0.019891
2903.65	0.016571
2913.3	0.014891
2922.95	0.017781
2932.59	0.024701
2942.24	0.029141
2951.89	0.033851
2961.53	0.055751
2971.18	0.075991
2980.83	0.059321
2990.47	0.028331
3000.12	0.010311
3009.77	0.004091
3019.41	0.002291
3029.06	0.001648
3038.71	0.0015218
3048.35	0.0014808
3058	0.0014483
3067.64	0.0013448
3077.29	0.0013778
3086.94	0.00136
3096.58	0.0012007
3106.23	0.0011908
3115.88	0.0012051
3125.52	0.0011627
3135.17	0.0010504
3144.82	0.00073882
3154.46	0.000711213
3164.11	0.000564
3173.76	0.000599
3183.4	0.000479
3193.05	0.00037
3202.7	0.000444
3212.34	0.000199
3221.99	0.000383
3231.64	0.000439
3241.28	0.000262
3250.93	0.000144
3260.58	0.000164
3270.22	0.000196
3279.87	9.8e-05
3289.52	0.000192
3299.16	8.8e-05
3308.81	0.000106
3318.45	6.3e-05
3328.1	0.000235
3337.75	0.000148
3347.39	0.00027
3357.04	0.000236
3366.69	9.2e-05
3376.33	0.000217
3385.98	0.000241
3395.63	0.000211
3405.27	0.000191
3414.92	0.000322
3424.57	0.000316
3434.21	0.000394
3443.86	0.00037
3453.51	0.000328
3463.15	0.000366
3472.8	0.000525
3482.45	0.00074309
3492.09	0.0009031
3501.74	0.001781
3511.39	0.002511
3521.03	0.003101
3530.68	0.002681
3540.33	0.002021
3549.97	0.0011942
3559.62	0.0011396
3569.26	0.0008061
3578.91	0.000552
3588.56	0.000461
3598.2	0.000536
3607.85	0.00043
3617.5	0.000303
3627.14	0.000345
3636.79	0.000334
3646.44	0.000262
3656.08	0.000299
3665.73	0.000351
3675.38	0.000231
3685.02	0.000285
3694.67	0.000301
3704.32	0.000384
3713.96	0.000437
3723.61	0.000288
3733.26	0.000363
3742.9	0.000261
3752.55	0.000302
3762.2	0.000343
3771.84	0.000411
3781.49	0.000406
3791.13	0.00031
3800.78	0.000389
3810.43	0.000308
3820.07	0.00028
3829.72	0.000372
3839.37	0.000437
3849.01	0.000578
3858.66	0.000495
3868.31	0.000558
3877.95	0.000502
3887.6	0.000468
3897.25	0.000417
3906.89	0.000401
3916.54	0.000395
3926.19	0.000356
3935.83	0.000412
3945.48	0.000352
3955.13	0.00036
3964.77	0.000357
3974.42	0.000452
3984.07	0.000448
3993.71	0.000407
