Infrared Spectrum: 2,4-THIAZOLIDINEDIONE, 5-P-HYDROXYBENZYLIDENE-
Formula: C10 H7 N O3 S
CAS: 103788-60-9
State: SOLID (KBr PELLET)
Melting point: 291-294 C
Class: COBLENTZ
Instrument: Not specified, most likely a prism, grating, or hybrid spectrometer.
Sampling: TRANSMISSION
Resolution: 4
Origin: TENNESSEE EASTMAN COMPANY, RESEARCH LABORATORIES
MICROMETERS	TRANSMITTANCE
2.014	0.793
2.05514	0.793
2.09627	0.793
2.13741	0.797
2.17855	0.797
2.21969	0.8
2.26082	0.804
2.30196	0.807
2.3431	0.81
2.38423	0.816
2.42537	0.819
2.46651	0.821
2.50764	0.826
2.54878	0.829
2.58992	0.829
2.63106	0.831
2.67219	0.833
2.71333	0.833
2.75447	0.817
2.7956	0.774
2.83674	0.716
2.87788	0.668
2.91901	0.417
2.96015	0.357
3.00129	0.563
3.04243	0.668
3.08356	0.702
3.1247	0.716
3.16584	0.695
3.20697	0.627
3.24811	0.664
3.28925	0.62
3.33038	0.587
3.37152	0.663
3.41266	0.733
3.4538	0.759
3.49493	0.757
3.53607	0.723
3.57721	0.666
3.61834	0.742
3.65948	0.793
3.70062	0.819
3.74175	0.838
3.78289	0.852
3.82403	0.865
3.86517	0.878
3.9063	0.884
3.94744	0.89
3.98858	0.9
4.02971	0.902
4.07085	0.905
4.11199	0.907
4.15312	0.907
4.19426	0.912
4.2354	0.914
4.27654	0.914
4.31767	0.914
4.35881	0.919
4.39995	0.927
4.44108	0.929
4.48222	0.931
4.52336	0.932
4.56449	0.932
4.60563	0.932
4.64677	0.936
4.68791	0.936
4.72904	0.938
4.77018	0.938
4.81132	0.938
4.85245	0.938
4.89359	0.938
4.93473	0.938
4.97586	0.941
5.017	0.946
5.05814	0.946
5.09928	0.946
5.14041	0.946
5.18155	0.948
5.22269	0.948
5.26382	0.945
5.30496	0.941
5.3461	0.943
5.38723	0.943
5.42837	0.934
5.46951	0.932
5.51065	0.932
5.55178	0.927
5.59292	0.912
5.63406	0.859
5.67519	0.833
5.71633	0.793
5.75747	0.513
5.7986	0.168
5.83974	0.431
5.88088	0.4
5.92202	0.128
5.96315	0.104
6.00429	0.448
6.04543	0.644
6.08656	0.699
6.1277	0.721
6.16884	0.733
6.20997	0.539
6.25111	0.24
6.29225	0.39
6.33339	0.276
6.37452	0.57
6.41566	0.743
6.4568	0.798
6.49793	0.831
6.53907	0.761
6.58021	0.336
6.62134	0.737
6.66248	0.847
6.70362	0.864
6.74476	0.864
6.78589	0.878
6.82703	0.878
6.86817	0.869
6.9093	0.859
6.95044	0.865
6.99158	0.876
7.03271	0.878
7.07385	0.9
7.11499	0.893
7.15613	0.883
7.19726	0.883
7.2384	0.865
7.27954	0.786
7.32067	0.723
7.36181	0.749
7.40295	0.579
7.44408	0.388
7.48522	0.601
7.52636	0.518
7.5675	0.661
7.60863	0.774
7.64977	0.776
7.69091	0.716
7.73204	0.572
7.77318	0.453
7.81432	0.556
7.85545	0.737
7.89659	0.795
7.93773	0.804
7.97887	0.79
8.02	0.756
8.06114	0.683
8.10228	0.534
8.14341	0.5
8.18455	0.388
8.22569	0.378
8.26682	0.639
8.30796	0.713
8.3491	0.766
8.39024	0.776
8.43137	0.689
8.47251	0.568
8.51365	0.675
8.55478	0.525
8.59592	0.278
8.63706	0.384
8.67819	0.637
8.71933	0.74
8.76047	0.798
8.80161	0.812
8.84274	0.821
8.88388	0.826
8.92502	0.826
8.96615	0.836
9.00729	0.85
9.04843	0.86
9.08956	0.862
9.1307	0.864
9.17184	0.865
9.21298	0.869
9.25411	0.872
9.29525	0.876
9.33639	0.876
9.37752	0.876
9.41866	0.872
9.4598	0.872
9.50093	0.874
9.54207	0.879
9.58321	0.881
9.62435	0.883
9.66548	0.871
9.70662	0.8
9.74776	0.823
9.78889	0.862
9.83003	0.879
9.87117	0.884
9.9123	0.888
9.95344	0.898
9.99458	0.903
10.0357	0.908
10.0769	0.915
10.118	0.92
10.1591	0.92
10.2003	0.922
10.2414	0.924
10.2825	0.926
10.3237	0.926
10.3648	0.926
10.4059	0.927
10.4471	0.927
10.4882	0.927
10.5294	0.927
10.5705	0.927
10.6116	0.927
10.6528	0.927
10.6939	0.929
10.735	0.932
10.7762	0.934
10.8173	0.934
10.8585	0.934
10.8996	0.936
10.9407	0.934
10.9819	0.898
11.023	0.867
11.0641	0.819
11.1053	0.852
11.1464	0.908
11.1876	0.927
11.2287	0.932
11.2698	0.934
11.311	0.934
11.3521	0.934
11.3932	0.934
11.4344	0.934
11.4755	0.934
11.5166	0.932
11.5578	0.929
11.5989	0.929
11.6401	0.929
11.6812	0.931
11.7223	0.926
11.7635	0.912
11.8046	0.89
11.8457	0.867
11.8869	0.847
11.928	0.771
11.9692	0.676
12.0103	0.599
12.0514	0.548
12.0926	0.606
12.1337	0.728
12.1748	0.792
12.216	0.807
12.2571	0.809
12.2983	0.831
12.3394	0.85
12.3805	0.859
12.4217	0.867
12.4628	0.874
12.5039	0.886
12.5451	0.902
12.5862	0.907
12.6273	0.91
12.6685	0.917
12.7096	0.922
12.7508	0.926
12.7919	0.927
12.833	0.927
12.8742	0.929
12.9153	0.931
12.9564	0.931
12.9976	0.931
13.0387	0.931
13.0799	0.931
13.121	0.931
13.1621	0.932
13.2033	0.932
13.2444	0.931
13.2855	0.931
13.3267	0.931
13.3678	0.922
13.4089	0.891
13.4501	0.878
13.4912	0.89
13.5324	0.922
13.5735	0.938
13.6146	0.951
13.6558	0.958
13.6969	0.96
13.738	0.962
13.7792	0.963
13.8203	0.965
13.8615	0.967
13.9026	0.969
13.9437	0.972
13.9849	0.975
14.026	0.975
14.0671	0.975
14.1083	0.974
14.1494	0.955
14.1906	0.902
14.2317	0.824
14.2728	0.743
14.314	0.678
14.3551	0.668
14.3962	0.699
14.4374	0.766
14.4785	0.833
14.5196	0.883
14.5608	0.926
14.6019	0.946
14.6431	0.962
14.6842	0.975
14.7253	0.989
14.7665	0.994
14.8076	0.996
14.8487	0.996
14.8899	0.996
14.931	0.996
14.9722	0.989
15.0133	0.989
15.0544	0.987
15.0956	0.987
15.1367	0.987
15.1778	0.986
15.219	0.979
15.2601	0.96
15.3013	0.938
15.3424	0.915
15.3835	0.891
15.4247	0.865
15.4658	0.841
15.5069	0.823
15.5481	0.798
15.5892	0.764
15.6303	0.714
15.6715	0.678
15.7126	0.668
15.7538	0.668
15.7949	0.668
15.836	0.666
15.8772	0.668
15.9183	0.668
15.9594	0.668
