Infrared Spectrum: Dimethyl 4,4'-stilbenedicarboxylate
Formula: C 18 H 16 O 4
CAS: 10374-80-8
State: gas
Origin: EPA-IR VAPOR PHASE LIBRARY
1/CM	ABSORBANCE
549.8	0.000182
559.445	0.00051483
569.09	0
578.734	0.000103
588.379	0.000169
598.024	0.0004115
607.669	0.000494826
617.313	0.0006232
626.958	0.0005648
636.603	0.0008129
646.248	0.0007769
655.893	0.0007003
665.537	0.0008391
675.182	0.0010317
684.827	0.0009034
694.472	0.0014865
704.116	0.001742
713.761	0.0011398
723.406	0.00063
733.051	0.0009579
742.695	0.0007538
752.34	0.0010198
761.985	0.001742
771.63	0.003202
781.275	0.001502
790.919	0.001622
800.564	0.001522
810.209	0.0012759
819.854	0.0008543
829.498	0.0011823
839.143	0.001662
848.788	0.001842
858.433	0.001423
868.078	0.0009612
877.722	0.0007861
887.367	0.0008738
897.012	0.0006241
906.657	0.0008628
916.301	0.0009586
925.946	0.0007379
935.591	0.0009603
945.236	0.001832
954.88	0.002112
964.525	0.002132
974.17	0.001792
983.815	0.0008067
993.46	0.0009892
1003.1	0.0007068
1012.75	0.002722
1022.39	0.002902
1032.04	0.0007974
1041.68	0.00051363
1051.33	0.0014748
1060.97	0.001682
1070.62	0.001792
1080.26	0.003522
1089.91	0.006842
1099.55	0.013682
1109.2	0.014742
1118.84	0.008672
1128.49	0.004442
1138.13	0.002742
1147.78	0.002322
1157.42	0.001852
1167.07	0.002082
1176.71	0.006872
1186.36	0.004242
1196	0.003142
1205.64	0.001852
1215.29	0.002742
1224.93	0.003082
1234.58	0.004012
1244.22	0.004672
1253.87	0.010712
1263.51	0.025262
1273.16	0.042892
1282.8	0.021242
1292.45	0.009532
1302.09	0.005912
1311.74	0.004682
1321.38	0.002842
1331.03	0.001892
1340.67	0.0013517
1350.32	0.0012549
1359.96	0.0011378
1369.61	0.0010197
1379.25	0.001026
1388.9	0.0010424
1398.54	0.0013731
1408.18	0.002252
1417.83	0.002082
1427.47	0.002062
1437.12	0.006442
1446.76	0.002752
1456.41	0.001612
1466.05	0.0014344
1475.7	0.0011661
1485.34	0.0010464
1494.99	0.000853
1504.63	0.0010329
1514.28	0.001134
1523.92	0.0009399
1533.57	0.0006808
1543.21	0.0008808
1552.86	0.0011354
1562.5	0.001522
1572.15	0.0011166
1581.79	0.0011923
1591.44	0.001892
1601.08	0.004952
1610.73	0.006232
1620.37	0.001832
1630.01	0.00113
1639.66	0.0008415
1649.3	0.0008851
1658.95	0.0010105
1668.59	0.001046
1678.24	0.0010143
1687.88	0.0012832
1697.53	0.001772
1707.17	0.001952
1716.82	0.003042
1726.46	0.005512
1736.11	0.015462
1745.75	0.030722
1755.4	0.008022
1765.04	0.003162
1774.69	0.001782
1784.33	0.0014598
1793.98	0.0014648
1803.62	0.0012699
1813.27	0.0007996
1822.91	0.0007157
1832.55	0.0007841
1842.2	0.0007168
1851.84	0.00057333
1861.49	0.0006031
1871.13	0.0006834
1880.78	0.00058553
1890.42	0.0006684
1900.07	0.0007531
1909.71	0.0008242
1919.36	0.0009857
1929	0.0008786
1938.65	0.0008956
1948.29	0.0006793
1957.94	0.0005936
1967.58	0.0005956
1977.23	0.00055076
1986.87	0.0006603
1996.52	0.00059092
2006.16	0.00050998
2015.81	0.00054404
2025.45	0.0006849
2035.1	0.00065
2044.74	0.00056
2054.38	0.0007487
2064.03	0.0007348
2073.67	0.0007786
2083.32	0.0008003
2092.96	0.0007552
2102.61	0.0007502
2112.25	0.00056582
2121.9	0.00058734
2131.54	0.0006278
2141.19	0.000645
2150.83	0.000624
2160.48	0.00055651
2170.12	0.00053101
2179.77	0.00037
2189.41	0.0004376
2199.06	0.00051328
2208.7	0.00054653
2218.35	0.00053057
2227.99	0.0005948
2237.64	0.0006436
2247.28	0.00051044
2256.92	0.0006483
2266.57	0.00056908
2276.21	0.00052132
2285.86	0.0006398
2295.5	0.0006018
2305.15	0.00058847
2314.79	0.0004616
2324.44	0.0006832
2334.08	0.00050973
2343.73	0.00058657
2353.37	0.0006512
2363.02	0.0006382
2372.66	0.00058447
2382.31	0.0006272
2391.95	0.00058409
2401.6	0.0006559
2411.24	0.0006243
2420.89	0.00050999
2430.53	0.000621
2440.18	0.00053621
2449.82	0.0005987
2459.47	0.0006951
2469.11	0.0004463
2478.75	0.00048807
2488.4	0.00056622
2498.04	0.0006559
2507.69	0.00052991
2517.33	0.0005978
2526.98	0.0007849
2536.62	0.0006564
2546.27	0.0006262
2555.91	0.0006138
2565.56	0.0007762
2575.2	0.0007322
2584.85	0.000633
2594.49	0.000699
2604.14	0.00054692
2613.78	0.00057049
2623.43	0.00058348
2633.07	0.0006335
2642.72	0.0006314
2652.36	0.0007395
2662.01	0.0004622
2671.65	0.00057761
2681.29	0.00053852
2690.94	0.00055652
2700.58	0.00052455
2710.23	0.0007462
2719.87	0.0006095
2729.52	0.0006541
2739.16	0.0006043
2748.81	0.00057472
2758.45	0.00056332
2768.1	0.0006006
2777.74	0.000497803
2787.39	0.00055854
2797.03	0.0006724
2806.68	0.0007249
2816.32	0.0006093
2825.97	0.0007486
2835.61	0.0008421
2845.26	0.0011978
2854.9	0.001373
2864.55	0.001022
2874.19	0.0009626
2883.84	0.0009523
2893.48	0.0009979
2903.12	0.0011324
2912.77	0.0013783
2922.41	0.0014814
2932.06	0.0010788
2941.7	0.00139
2951.35	0.002452
2960.99	0.005742
2970.64	0.001992
2980.28	0.001622
2989.93	0.0014048
2999.57	0.001622
3009.22	0.001672
3018.86	0.001722
3028.51	0.002182
3038.15	0.002422
3047.8	0.002092
3057.44	0.001752
3067.09	0.0011411
3076.73	0.0011254
3086.38	0.0011592
3096.02	0.0011747
3105.67	0.0010506
3115.31	0.0006179
3124.95	0.000887
3134.6	0.0005634
3144.24	0.0006827
3153.89	0.0008232
3163.53	0.0007928
3173.18	0.00052091
3182.82	0.0006838
3192.47	0.000531
3202.11	0.00052838
3211.76	0.00053926
3221.4	0.0007435
3231.05	0.00056407
3240.69	0.00053157
3250.34	0.000351
3259.98	0.0004006
3269.63	0.00057081
3279.27	0.0008434
3288.92	0.0006973
3298.56	0.0006244
3308.21	0.0007388
3317.85	0.00056776
3327.49	0.000439
3337.14	0.0006919
3346.78	0.0006052
3356.43	0.0008845
3366.07	0.0006498
3375.72	0.0006831
3385.36	0.00052453
3395.01	0.0006817
3404.65	0.0006673
3414.3	0.0004254
3423.94	0.0006712
3433.59	0.00054948
3443.23	0.000217
3452.88	0.0005558
3462.52	0.00053145
3472.17	0.0007849
3481.81	0.0004613
3491.46	0.0006638
3501.1	0.0006408
3510.75	0.000203
3520.39	0.00052951
3530.04	0.0006324
3539.68	0.0004663
3549.32	0.00054116
3558.97	0.00058124
3568.61	0.00056467
3578.26	0.00058554
3587.9	0.000338
3597.55	0.0006735
3607.19	0.0005891
3616.84	0.00050485
3626.48	0.00048935
3636.13	0.000274
3645.77	0.000499653
3655.42	0.000783
3665.06	0.000491043
3674.71	0.0007298
3684.35	0.00050571
3694	0.0007365
3703.64	0.0006382
3713.29	0.000778
3722.93	0.000318
3732.58	0.00058163
3742.22	0.00052845
3751.86	0.0006764
3761.51	0.0005984
3771.15	0.00051944
3780.8	0.0007304
3790.44	0.0006322
3800.09	0.0008415
3809.73	0.00052916
3819.38	0.0005935
3829.02	0.00056834
3838.67	0.000705
3848.31	0.0008336
3857.96	0.0006666
3867.6	0.000452
3877.25	0.000665
3886.89	0.00052284
3896.54	0.0006483
3906.18	0.0004688
3915.83	0.0005543
3925.47	0.0005965
3935.12	0.0004096
3944.76	0.000806
3954.41	0.0007872
3964.05	0.0008557
3973.69	0.0008071
3983.34	0.0006337
3992.98	0.0006767
