Infrared Spectrum: Triazolyl-5-carboxamide, 4-phenylamino-
Formula: C9 H9 N5 O
CAS: 103754-03-6
State: SOLID (0.4 mg / 650 mg KBr DISC)
Class: COBLENTZ III
Instrument: PERKIN-ELMER 21 (GRATING)
Instrument parameters: FILTER CHANGE AT 1075 CM^-^1
Sampling: TRANSMISSION
Resolution: 2
Origin: SOUTHERN RESEARCH INSTITUTE, W.C. Coburn, Jr.
1/CM	TRANSMITTANCE
614	0.7708
623.027	0.7697
632.053	0.7787
641.08	0.8205
650.106	0.8028
659.133	0.8357
668.159	0.8161
677.186	0.6926
686.213	0.6687
695.239	0.6735
704.266	0.8955
713.292	0.882
722.319	0.8523
731.346	0.7594
740.372	0.3402
749.399	0.6557
758.425	0.8138
767.452	0.8014
776.478	0.6957
785.505	0.7674
794.532	0.7738
803.558	0.7503
812.585	0.7443
821.611	0.7461
830.638	0.7613
839.665	0.8004
848.691	0.8029
857.718	0.7513
866.744	0.8111
875.771	0.8109
884.797	0.8362
893.824	0.8502
902.851	0.8481
911.877	0.8436
920.904	0.8399
929.93	0.836
938.957	0.8136
947.983	0.784
957.01	0.7323
966.037	0.6378
975.063	0.241
984.09	0.7334
993.116	0.8178
1002.14	0.8158
1011.17	0.7784
1020.2	0.7311
1029.22	0.6263
1038.25	0.5838
1047.28	0.8336
1056.3	0.8402
1065.33	0.7886
1074.36	0.7917
1083.38	0.7547
1092.41	0.7548
1101.44	0.6944
1110.46	0.8143
1119.49	0.8166
1128.52	0.8159
1137.54	0.8021
1146.57	0.7295
1155.59	0.6745
1164.62	0.7619
1173.65	0.7696
1182.67	0.7337
1191.7	0.7676
1200.73	0.7624
1209.75	0.7401
1218.78	0.6919
1227.81	0.5793
1236.83	0.5599
1245.86	0.4455
1254.89	0.1788
1263.91	0.1878
1272.94	0.5062
1281.97	0.6636
1290.99	0.6842
1300.02	0.6807
1309.05	0.6479
1318.07	0.5862
1327.1	0.5748
1336.13	0.6485
1345.15	0.7098
1354.18	0.6973
1363.21	0.607
1372.23	0.5821
1381.26	0.653
1390.29	0.6334
1399.31	0.5416
1408.34	0.5287
1417.37	0.6405
1426.39	0.7101
1435.42	0.6927
1444.45	0.5878
1453.47	0.4285
1462.5	0.7103
1471.53	0.7124
1480.55	0.605
1489.58	0.362
1498.6	0.5373
1507.63	0.5459
1516.66	0.4925
1525.68	0.4042
1534.71	0.3732
1543.74	0.6157
1552.76	0.5853
1561.79	0.4388
1570.82	0.2295
1579.84	0.2108
1588.87	0.2621
1597.9	0.2016
1606.92	0.4171
1615.95	0.4048
1624.98	0.257
1634	0.1446
1643.03	0.2178
1652.06	0.3183
1661.08	0.2046
1670.11	0.1222
1679.14	0.1959
1688.16	0.4062
1697.19	0.6339
1706.22	0.7517
1715.24	0.8219
1724.27	0.8603
1733.3	0.884
1742.32	0.894
1751.35	0.9042
1760.38	0.9124
1769.4	0.9128
1778.43	0.9104
1787.46	0.9086
1796.48	0.9164
1805.51	0.9242
1814.54	0.9247
1823.56	0.9245
1832.59	0.9243
1841.61	0.9243
1850.64	0.9245
1859.67	0.9254
1868.69	0.9262
1877.72	0.9255
1886.75	0.92
1895.77	0.9162
1904.8	0.9133
1913.83	0.9107
1922.85	0.9099
1931.88	0.9165
1940.91	0.9195
1949.93	0.9197
1958.96	0.9189
1967.99	0.9186
1977.01	0.9178
1986.04	0.9168
1995.07	0.9152
2004.09	0.9133
2013.12	0.9123
2022.15	0.9114
2031.17	0.9101
2040.2	0.9081
2049.23	0.9057
2058.25	0.9074
2067.28	0.9109
2076.31	0.9098
2085.33	0.8972
2094.36	0.8977
2103.39	0.8982
2112.41	0.8986
2121.44	0.8978
2130.47	0.8966
2139.49	0.896
2148.52	0.8954
2157.55	0.8913
2166.57	0.8887
2175.6	0.8865
2184.62	0.8795
2193.65	0.878
2202.68	0.8815
2211.7	0.885
2220.73	0.8848
2229.76	0.882
2238.78	0.8778
2247.81	0.8752
2256.84	0.873
2265.86	0.8708
2274.89	0.8695
2283.92	0.8685
2292.94	0.8668
2301.97	0.8653
2311	0.8639
2320.02	0.8622
2329.05	0.8602
2338.08	0.8578
2347.1	0.855
2356.13	0.8518
2365.16	0.8478
2374.18	0.8416
2383.21	0.8372
2392.24	0.8336
2401.26	0.8303
2410.29	0.8286
2419.32	0.8283
2428.34	0.8274
2437.37	0.822
2446.4	0.8185
2455.42	0.8146
2464.45	0.8103
2473.48	0.8036
2482.5	0.796
2491.53	0.7881
2500.56	0.78
2509.58	0.773
2518.61	0.7694
2527.63	0.7674
2536.66	0.7655
2545.69	0.764
2554.71	0.7624
2563.74	0.7571
2572.77	0.7485
2581.79	0.7443
2590.82	0.7292
2599.85	0.7218
2608.87	0.717
2617.9	0.7113
2626.93	0.7039
2635.95	0.6962
2644.98	0.685
2654.01	0.6798
2663.03	0.6782
2672.06	0.6767
2681.09	0.6755
2690.11	0.6555
2699.14	0.6442
2708.17	0.6356
2717.19	0.6265
2726.22	0.6177
2735.25	0.6085
2744.27	0.5947
2753.3	0.5915
2762.33	0.5892
2771.35	0.5857
2780.38	0.5743
2789.41	0.5722
2798.43	0.5714
2807.46	0.5709
2816.49	0.5708
2825.51	0.5707
2834.54	0.5706
2843.57	0.5706
2852.59	0.571
2861.62	0.5714
2870.65	0.5718
2879.67	0.5722
2888.7	0.5724
2897.72	0.5721
2906.75	0.5725
2915.78	0.5721
2924.8	0.5706
2933.83	0.5652
2942.86	0.562
2951.88	0.5587
2960.91	0.5516
2969.94	0.5456
2978.96	0.54
2987.99	0.5283
2997.02	0.5235
3006.04	0.5213
3015.07	0.5215
3024.1	0.5229
3033.12	0.5237
3042.15	0.5226
3051.18	0.5208
3060.2	0.5165
3069.23	0.5087
3078.26	0.5009
3087.28	0.493
3096.31	0.4831
3105.34	0.4714
3114.36	0.4541
3123.39	0.4332
3132.42	0.3819
3141.44	0.343
3150.47	0.2694
3159.5	0.2451
3168.52	0.2466
3177.55	0.2637
3186.58	0.2814
3195.6	0.3054
3204.63	0.3741
3213.66	0.4133
3222.68	0.4242
3231.71	0.426
3240.73	0.425
3249.76	0.4239
3258.79	0.4215
3267.81	0.417
3276.84	0.4065
3285.87	0.3872
3294.89	0.3583
3303.92	0.3162
3312.95	0.2819
3321.97	0.2473
3331	0.2282
3340.03	0.2067
3349.05	0.2003
3358.08	0.213
3367.11	0.2446
3376.13	0.3559
3385.16	0.431
3394.19	0.4722
3403.21	0.4901
3412.24	0.5078
3421.27	0.5345
3430.29	0.5447
3439.32	0.5561
3448.35	0.571
3457.37	0.5795
3466.4	0.5968
3475.43	0.6129
3484.45	0.6249
3493.48	0.6374
3502.51	0.6489
3511.53	0.6605
3520.56	0.6711
3529.59	0.6831
3538.61	0.6943
3547.64	0.7074
3556.67	0.7141
3565.69	0.7301
3574.72	0.7514
3583.74	0.7738
3592.77	0.7853
3601.8	0.7947
3610.82	0.8038
3619.85	0.8128
3628.88	0.8193
3637.9	0.8243
3646.93	0.8279
3655.96	0.8301
3664.98	0.8316
3674.01	0.8328
3683.04	0.834
3692.06	0.8368
3701.09	0.8391
3710.12	0.8384
3719.14	0.8329
3728.17	0.8311
3737.2	0.8312
3746.22	0.8268
3755.25	0.8218
3764.28	0.821
3773.3	0.821
3782.33	0.8212
3791.36	0.8214
3800.38	0.821
3809.41	0.8199
3818.44	0.8178
3827.46	0.8144
3836.49	0.8104
3845.52	0.8074
3854.54	0.8045
3863.57	0.8021
3872.6	0.8
3881.62	0.7999
3890.65	0.7993
3899.68	0.7967
3908.7	0.7907
3917.73	0.7896
3926.75	0.7892
3935.78	0.7878
3944.81	0.7854
3953.83	0.7829
3962.86	0.7799
3971.89	0.7761
3980.91	0.7732
3989.94	0.7711
3998.97	0.7699
4007.99	0.7675
