Infrared Spectrum: 2,5-Diisopropyl-p-xylene
Formula: C 14 H 22
CAS: 10375-96-9
State: gas
Instrument: HP-GC/MS/IRD
Origin: NIST Mass Spectrometry Data Center
1/CM	ABSORBANCE
550	6.24e-05
562	0.0001536
574	9.6e-06
586	0.000168
598	6.72e-05
610	0.0002304
622	0.0002496
634	0.0002592
646	0.0002448
658	0.0003552
670	0.0003216
682	0.00024
694	7.2e-05
706	0.0001104
718	0.0001488
730	0.0001008
742	0.0001104
754	7.68e-05
766	0.0002352
778	0.0004752
790	0.0006384
802	0.0004608
814	0.0003072
826	0.0001296
838	0.0002208
850	0.0002592
862	0.0006096
874	0.0025968
886	0.002904
898	0.0007632
910	0.000456
922	0.0004128
934	0.0004224
946	0.0004128
958	0.0005376
970	0.0008304
982	0.0015648
994	0.0013392
1006	0.0007728
1018	0.0006384
1030	0.000648
1042	0.0005904
1054	0.0006576
1066	0.0013872
1078	0.002352
1090	0.001752
1102	0.002136
1114	0.0031152
1126	0.0017856
1138	0.0007776
1150	0.0005808
1162	0.00048
1174	0.0004992
1186	0.0006528
1198	0.0010416
1210	0.0016224
1222	0.0007296
1234	0.0005376
1246	0.0006912
1258	0.0011136
1270	0.0012816
1282	0.0008352
1294	0.0007872
1306	0.001032
1318	0.0012864
1330	0.0017472
1342	0.0024
1354	0.0028032
1366	0.0040704
1378	0.0031392
1390	0.0027456
1402	0.0032016
1414	0.0022512
1426	0.0020304
1438	0.0027072
1450	0.0044592
1462	0.0063264
1474	0.004968
1486	0.0041472
1498	0.0063744
1510	0.0046896
1522	0.0017184
1534	0.0011184
1546	0.0009168
1558	0.0006576
1570	0.0005328
1582	0.0004272
1594	0.000432
1606	0.0003888
1618	0.0003312
1630	0.0002784
1642	0.00024
1654	0.0002208
1666	0.000216
1678	0.0002016
1690	0.0001728
1702	0.0001824
1714	0.0001872
1726	0.0002064
1738	0.0003408
1750	0.0005952
1762	0.0004224
1774	0.000192
1786	0.0001392
1798	8.64e-05
1810	9.6e-05
1822	7.68e-05
1834	9.6e-05
1846	8.16e-05
1858	0.0001104
1870	9.12e-05
1882	8.16e-05
1894	8.64e-05
1906	0.000144
1918	9.12e-05
1930	5.76e-05
1942	8.64e-05
1954	5.76e-05
1966	3.84e-05
1978	7.2e-05
1990	7.68e-05
2002	4.32e-05
2014	3.84e-05
2026	4.8e-05
2038	4.8e-05
2050	1.92e-05
2062	5.76e-05
2074	2.88e-05
2086	2.4e-05
2098	4.8e-05
2110	2.88e-05
2122	3.84e-05
2134	3.84e-05
2146	4.8e-05
2158	6.24e-05
2170	4.8e-05
2182	0
2194	2.88e-05
2206	6.72e-05
2218	0.0001056
2230	0.0001248
2242	0.00012
2254	9.6e-05
2266	8.16e-05
2278	6.24e-05
2290	4.32e-05
2302	4.8e-06
2314	4.8e-06
2326	3.36e-05
2338	4.32e-05
2350	5.28e-05
2362	0.0001008
2374	0.00012
2386	0.0001248
2398	0.0001152
2410	0.0001344
2422	0.0001344
2434	0.00012
2446	8.16e-05
2458	0.000144
2470	0.000192
2482	0.0001632
2494	0.0001488
2506	0.0001056
2518	6.72e-05
2530	0.0001152
2542	0.0001248
2554	0.000144
2566	0.0001584
2578	0.0002208
2590	0.000216
2602	0.0002256
2614	0.0002304
2626	0.0002256
2638	0.00024
2650	0.00024
2662	0.0002784
2674	0.0003168
2686	0.0003072
2698	0.0003264
2710	0.0004464
2722	0.0006816
2734	0.0007776
2746	0.0007872
2758	0.0007824
2770	0.0008208
2782	0.0008016
2794	0.0009456
2806	0.0012096
2818	0.0015072
2830	0.0018672
2842	0.002544
2854	0.0040368
2866	0.0076512
2878	0.014472
2890	0.013368
2902	0.011712
2914	0.013152
2926	0.0184128
2938	0.0247008
2950	0.0218496
2962	0.0408672
2974	0.0398784
2986	0.0148032
2998	0.0079008
3010	0.0072672
3022	0.007416
3034	0.0045504
3046	0.002568
3058	0.0020448
3070	0.0017328
3082	0.001512
3094	0.0014352
3106	0.001416
3118	0.0013776
3130	0.0010176
3142	0.0007392
3154	0.0005856
3166	0.0006096
3178	0.000552
3190	0.0005328
3202	0.0004512
3214	0.0003888
3226	0.0003648
3238	0.0002736
3250	0.0001536
3262	0.0001392
3274	0.0001296
3286	0.00012
3298	9.12e-05
3310	0.0001008
3322	0.0001584
3334	8.64e-05
3346	0.0001536
3358	0.0001248
3370	4.8e-05
3382	9.6e-05
3394	5.76e-05
3406	0.0001296
3418	0.0001344
3430	5.28e-05
3442	5.76e-05
3454	0.0001008
3466	5.76e-05
3478	4.32e-05
3490	0.0001008
3502	0.0001008
3514	0
3526	1.44e-05
3538	7.2e-05
3550	8.16e-05
3562	3.84e-05
3574	7.2e-05
3586	4.8e-06
3598	2.88e-05
3610	7.2e-05
3622	7.2e-05
3634	3.84e-05
3646	4.32e-05
3658	3.84e-05
3670	3.36e-05
3682	2.88e-05
3694	0
3706	2.4e-05
3718	3.84e-05
3730	1.44e-05
3742	8.64e-05
3754	3.84e-05
3766	0
3778	2.88e-05
3790	9.12e-05
3802	0.0001344
3814	9.6e-05
3826	8.64e-05
3838	0.000192
