Infrared Spectrum: 2-Furoic acid, 5-nitro-, 2-phenyl-1-hydrazide
Formula: C11 H9 N3 O4
CAS: 103854-67-7
State: SOLID (NUJOL MULL)
Class: COBLENTZ III
Instrument: PERKIN-ELMER 21 (GRATING)
Instrument parameters: FILTER AT ABOUT 10 MICRONS
Resolution: 2
Origin: ABBOTT LABORATORIES
1/CM	TRANSMITTANCE
648	0.6163
657	0.6428
666	0.6487
675	0.5903
684	0.2927
693	0.6165
702	0.5946
711	0.5105
720	0.5198
729	0.6159
738	0.3683
747	0.2129
756	0.2877
765	0.6478
774	0.7713
783	0.8092
792	0.8068
801	0.7575
810	0.4064
819	0.7369
828	0.6686
837	0.3574
846	0.3792
855	0.6842
864	0.747
873	0.7159
882	0.6318
891	0.3795
900	0.3195
909	0.5403
918	0.6804
927	0.7247
936	0.7373
945	0.7097
954	0.6166
963	0.5901
972	0.6577
981	0.7756
990	0.7731
999	0.7402
1008	0.7499
1017	0.6263
1026	0.4683
1035	0.7726
1044	0.777
1053	0.7531
1062	0.7774
1071	0.7404
1080	0.6971
1089	0.7606
1098	0.7222
1107	0.7623
1116	0.7724
1125	0.7696
1134	0.7621
1143	0.7478
1152	0.721
1161	0.7136
1170	0.7095
1179	0.7159
1188	0.69
1197	0.6522
1206	0.6738
1215	0.5977
1224	0.405
1233	0.5248
1242	0.2936
1251	0.5334
1260	0.5852
1269	0.4546
1278	0.2715
1287	0.0991
1296	0.0927
1305	0.334
1314	0.5744
1323	0.6029
1332	0.5437
1341	0.3078
1350	0.1484
1359	0.2585
1368	0.4996
1377	0.4344
1386	0.1448
1395	0.3943
1404	0.6389
1413	0.6075
1422	0.3809
1431	0.5369
1440	0.5511
1449	0.4352
1458	0.3207
1467	0.2308
1476	0.1876
1485	0.4432
1494	0.2374
1503	0.2246
1512	0.5987
1521	0.5202
1530	0.265
1539	0.1931
1548	0.4359
1557	0.34
1566	0.2078
1575	0.3247
1584	0.5306
1593	0.4387
1602	0.4322
1611	0.2662
1620	0.5286
1629	0.6737
1638	0.6777
1647	0.6513
1656	0.5995
1665	0.5469
1674	0.3477
1683	0.1336
1692	0.1062
1701	0.3111
1710	0.5835
1719	0.7245
1728	0.7658
1737	0.7824
1746	0.7955
1755	0.8068
1764	0.8155
1773	0.8206
1782	0.8268
1791	0.8302
1800	0.8283
1809	0.819
1818	0.812
1827	0.8167
1836	0.8216
1845	0.8263
1854	0.8313
1863	0.8338
1872	0.8343
1881	0.8338
1890	0.8297
1899	0.8252
1908	0.8178
1917	0.8088
1926	0.8083
1935	0.8186
1944	0.819
1953	0.8214
1962	0.8245
1971	0.8235
1980	0.8226
1989	0.8213
1998	0.82
2007	0.8186
2016	0.8172
2025	0.8157
2034	0.8143
2043	0.8132
2052	0.8123
2061	0.8116
2070	0.8122
2079	0.8123
2088	0.8118
2097	0.8105
2106	0.8086
2115	0.8068
2124	0.8053
2133	0.8038
2142	0.8024
2151	0.8009
2160	0.7996
2169	0.7983
2178	0.7971
2187	0.7959
2196	0.7946
2205	0.7934
2214	0.7925
2223	0.7916
2232	0.7907
2241	0.7898
2250	0.7888
2259	0.7877
2268	0.7866
2277	0.7856
2286	0.7846
2295	0.7827
2304	0.7802
2313	0.7781
2322	0.7776
2331	0.777
2340	0.7767
2349	0.7765
2358	0.7762
2367	0.7759
2376	0.7757
2385	0.7754
2394	0.7751
2403	0.7752
2412	0.7754
2421	0.7756
2430	0.7756
2439	0.7752
2448	0.773
2457	0.7713
2466	0.7704
2475	0.7697
2484	0.7688
2493	0.768
2502	0.7672
2511	0.7662
2520	0.765
2529	0.7637
2538	0.7625
2547	0.7606
2556	0.7575
2565	0.7545
2574	0.7515
2583	0.7487
2592	0.7462
2601	0.7438
2610	0.7413
2619	0.7377
2628	0.7329
2637	0.7291
2646	0.7261
2655	0.7254
2664	0.7253
2673	0.7253
2682	0.7252
2691	0.7237
2700	0.7222
2709	0.7205
2718	0.7181
2727	0.7155
2736	0.7136
2745	0.7122
2754	0.7108
2763	0.7093
2772	0.7069
2781	0.7042
2790	0.6972
2799	0.6903
2808	0.6796
2817	0.666
2826	0.6502
2835	0.6326
2844	0.608
2853	0.4193
2862	0.2166
2871	0.1856
2880	0.1795
2889	0.1755
2898	0.1713
2907	0.1615
2916	0.1367
2925	0.1121
2934	0.0877
2943	0.0732
2952	0.0734
2961	0.0827
2970	0.1033
2979	0.1202
2988	0.1875
2997	0.255
3006	0.3222
3015	0.389
3024	0.4492
3033	0.463
3042	0.4687
3051	0.4703
3060	0.4695
3069	0.4656
3078	0.4573
3087	0.4553
3096	0.4541
3105	0.4474
3114	0.4365
3123	0.4255
3132	0.4163
3141	0.4065
3150	0.3985
3159	0.3967
3168	0.4057
3177	0.4246
3186	0.4358
3195	0.4361
3204	0.4325
3213	0.4154
3222	0.3975
3231	0.3796
3240	0.3619
3249	0.3443
3258	0.3268
3267	0.3221
3276	0.3336
3285	0.3526
3294	0.3715
3303	0.3982
3312	0.3974
3321	0.3844
3330	0.369
3339	0.3536
3348	0.3407
3357	0.3759
3366	0.4573
3375	0.5383
3384	0.614
3393	0.642
3402	0.6534
3411	0.6561
3420	0.6581
3429	0.6588
3438	0.659
3447	0.6592
3456	0.6591
3465	0.6585
3474	0.6579
3483	0.6574
3492	0.6565
3501	0.6548
3510	0.6532
3519	0.6509
3528	0.6483
3537	0.6457
3546	0.6432
3555	0.6407
3564	0.638
3573	0.6354
3582	0.6337
3591	0.6331
3600	0.6325
3609	0.6319
3618	0.6313
3627	0.6313
3636	0.6314
3645	0.6311
3654	0.6297
3663	0.6283
3672	0.6268
3681	0.6254
3690	0.6239
3699	0.6224
3708	0.6209
3717	0.6195
3726	0.618
3735	0.6166
3744	0.6151
3753	0.6137
3762	0.6117
3771	0.6098
3780	0.6078
3789	0.6059
3798	0.6039
3807	0.602
3816	0.6001
3825	0.5982
3834	0.5963
3843	0.5948
3852	0.5935
3861	0.5921
3870	0.5906
3879	0.5893
3888	0.588
3897	0.5865
3906	0.5852
3915	0.5838
3924	0.5824
3933	0.5811
3942	0.5798
3951	0.5784
3960	0.5771
3969	0.5756
3978	0.5742
3987	0.5728
3996	0.5713
