Infrared Spectrum: 2-Furoic acid, 5-nitro-, 1-phenylhydrazide
Formula: C11 H9 N3 O4
CAS: 103856-73-1
State: SOLID (NUJOL MULL)
Class: COBLENTZ III
Instrument: PERKIN-ELMER 21 (GRATING)
Instrument parameters: FILTER AT ABOUT 10 MICRONS
Resolution: 2
Origin: ABBOTT LABORATORIES
1/CM	TRANSMITTANCE
650	0.6549
659	0.6725
668	0.6892
677	0.6948
686	0.5869
695	0.6089
704	0.2751
713	0.5965
722	0.6944
731	0.6844
740	0.6769
749	0.2193
758	0.6023
767	0.4036
776	0.7397
785	0.7576
794	0.73
803	0.5411
812	0.2655
821	0.6467
830	0.6268
839	0.7525
848	0.7593
857	0.7583
866	0.7479
875	0.7253
884	0.7013
893	0.6636
902	0.6052
911	0.4964
920	0.4685
929	0.4718
938	0.3735
947	0.5494
956	0.6941
965	0.6825
974	0.4937
983	0.7202
992	0.7305
1001	0.6613
1010	0.7007
1019	0.4258
1028	0.3657
1037	0.7297
1046	0.7385
1055	0.7356
1064	0.7115
1073	0.6269
1082	0.6846
1091	0.6878
1100	0.7028
1109	0.6986
1118	0.6853
1127	0.6672
1136	0.6584
1145	0.605
1154	0.5776
1163	0.4315
1172	0.4579
1181	0.4801
1190	0.3614
1199	0.5009
1208	0.639
1217	0.6267
1226	0.5809
1235	0.4727
1244	0.2182
1253	0.4489
1262	0.5745
1271	0.5504
1280	0.4608
1289	0.3202
1298	0.3457
1307	0.2339
1316	0.164
1325	0.2027
1334	0.1942
1343	0.1083
1352	0.0299
1361	0.1373
1370	0.0962
1379	0.2163
1388	0.5106
1397	0.5034
1406	0.3635
1415	0.3874
1424	0.5318
1433	0.5229
1442	0.3211
1451	0.1374
1460	0.2413
1469	0.3126
1478	0.3354
1487	0.2888
1496	0.1905
1505	0.4586
1514	0.3275
1523	0.1981
1532	0.107
1541	0.4426
1550	0.5356
1559	0.5055
1568	0.4398
1577	0.2265
1586	0.398
1595	0.3997
1604	0.3848
1613	0.243
1622	0.121
1631	0.1024
1640	0.1058
1649	0.1562
1658	0.32
1667	0.5152
1676	0.562
1685	0.6173
1694	0.689
1703	0.7196
1712	0.7492
1721	0.7635
1730	0.7686
1739	0.7695
1748	0.7688
1757	0.7674
1766	0.7635
1775	0.7591
1784	0.754
1793	0.7482
1802	0.7457
1811	0.7468
1820	0.7499
1829	0.7519
1838	0.7531
1847	0.7524
1856	0.7504
1865	0.7468
1874	0.7419
1883	0.7367
1892	0.7322
1901	0.7298
1910	0.7305
1919	0.7316
1928	0.7321
1937	0.7305
1946	0.7263
1955	0.7182
1964	0.7056
1973	0.7082
1982	0.7132
1991	0.7128
2000	0.7108
2009	0.7089
2018	0.7073
2027	0.706
2036	0.7044
2045	0.7024
2054	0.7005
2063	0.6986
2072	0.6967
2081	0.6949
2090	0.693
2099	0.6913
2108	0.6894
2117	0.6873
2126	0.6851
2135	0.6828
2144	0.6807
2153	0.6785
2162	0.6763
2171	0.6734
2180	0.6704
2189	0.6675
2198	0.6646
2207	0.6616
2216	0.6587
2225	0.6557
2234	0.6527
2243	0.6497
2252	0.6467
2261	0.6437
2270	0.6407
2279	0.6374
2288	0.6342
2297	0.6311
2306	0.6279
2315	0.6248
2324	0.6227
2333	0.6214
2342	0.6201
2351	0.6201
2360	0.621
2369	0.6223
2378	0.6242
2387	0.6254
2396	0.6259
2405	0.625
2414	0.6229
2423	0.6207
2432	0.6191
2441	0.6177
2450	0.6162
2459	0.6145
2468	0.6125
2477	0.6106
2486	0.6088
2495	0.6063
2504	0.6036
2513	0.601
2522	0.5983
2531	0.5958
2540	0.593
2549	0.5896
2558	0.5863
2567	0.5829
2576	0.5795
2585	0.5763
2594	0.573
2603	0.5698
2612	0.5668
2621	0.5637
2630	0.5606
2639	0.5577
2648	0.5553
2657	0.553
2666	0.5506
2675	0.5489
2684	0.5484
2693	0.5479
2702	0.5472
2711	0.5466
2720	0.5459
2729	0.545
2738	0.5437
2747	0.5425
2756	0.5393
2765	0.5349
2774	0.5279
2783	0.5205
2792	0.5088
2801	0.4928
2810	0.4671
2819	0.4323
2828	0.3454
2837	0.2558
2846	0.1667
2855	0.0796
2864	0.0559
2873	0.0541
2882	0.0527
2891	0.0499
2900	0.0426
2909	0.0282
2918	0.0247
2927	0.0245
2936	0.0286
2945	0.0488
2954	0.0602
2963	0.0747
2972	0.0988
2981	0.1716
2990	0.2462
2999	0.315
3008	0.3463
3017	0.366
3026	0.3839
3035	0.3959
3044	0.4045
3053	0.4115
3062	0.4164
3071	0.4196
3080	0.4212
3089	0.4208
3098	0.4203
3107	0.4189
3116	0.4171
3125	0.4145
3134	0.4118
3143	0.4091
3152	0.4053
3161	0.4014
3170	0.3948
3179	0.3829
3188	0.371
3197	0.3592
3206	0.3474
3215	0.3369
3224	0.3354
3233	0.3367
3242	0.3411
3251	0.3521
3260	0.3605
3269	0.3646
3278	0.3663
3287	0.3664
3296	0.3658
3305	0.3638
3314	0.3545
3323	0.3288
3332	0.3011
3341	0.2737
3350	0.2613
3359	0.2608
3368	0.3012
3377	0.3539
3386	0.4063
3395	0.4205
3404	0.4231
3413	0.4244
3422	0.4248
3431	0.4246
3440	0.4243
3449	0.4238
3458	0.4234
3467	0.423
3476	0.4221
3485	0.4211
3494	0.42
3503	0.4187
3512	0.4174
3521	0.4162
3530	0.4149
3539	0.4136
3548	0.4124
3557	0.4111
3566	0.4099
3575	0.4087
3584	0.4075
3593	0.4061
3602	0.4047
3611	0.4033
3620	0.4018
3629	0.4005
3638	0.3991
3647	0.3976
3656	0.3964
3665	0.3953
3674	0.3942
3683	0.393
3692	0.3919
3701	0.3908
3710	0.3897
3719	0.3886
3728	0.3875
3737	0.3861
3746	0.3846
3755	0.3831
3764	0.3816
3773	0.3801
3782	0.3787
3791	0.3772
3800	0.3757
3809	0.3742
3818	0.3728
3827	0.3713
3836	0.3698
3845	0.3682
3854	0.3667
3863	0.3651
3872	0.3636
3881	0.3621
3890	0.3606
3899	0.359
3908	0.3576
3917	0.3561
3926	0.3545
3935	0.3531
3944	0.3516
3953	0.3503
3962	0.349
3971	0.3478
3980	0.3465
3989	0.3452
3998	0.3439
