Infrared Spectrum: BENZIDINE, OCTAFLUORO-
Formula: C12 H4 F8 N2
CAS: 1038-66-0
State: SOLID (SPLIT MULL, FLUOROLUBE FOR 3800-1330 AND NUJOL FOR 1330-400 CM ^-^1)
Melting point: 183 C
Class: COBLENTZ III
Instrument: DOW KBr FOREPRISM-GRATING
Instrument parameters: BLAZED AT 3.5, 12.0, 20.0 MICRON, CHANGED AT 5.0, 7.5, 14.9 MICRON
Sampling: TRANSMISSION
Resolution: 4
Origin: DOW CHEMICAL COMPANY
1/CM	TRANSMITTANCE
380.911	0.867
389.668	0.868
398.424	0.871
407.181	0.872
415.937	0.871
424.694	0.872
433.451	0.879
442.207	0.892
450.964	0.904
459.72	0.913
468.477	0.922
477.234	0.954
485.99	0.969
494.747	0.975
503.503	0.975
512.26	0.976
521.016	0.975
529.773	0.972
538.53	0.972
547.286	0.969
556.043	0.965
564.799	0.96
573.556	0.95
582.313	0.93
591.069	0.9
599.826	0.986
608.582	0.961
617.339	0.909
626.096	0.933
634.852	0.948
643.609	0.92
652.365	0.905
661.122	0.887
669.879	0.868
678.635	0.862
687.392	0.86
696.148	0.86
704.905	0.87
713.661	0.878
722.418	0.553
731.175	0.658
739.931	0.74
748.688	0.79
757.444	0.827
766.201	0.842
774.958	0.867
783.714	0.875
792.471	0.897
801.227	0.92
809.984	0.935
818.741	0.949
827.497	0.959
836.254	0.965
845.01	0.969
853.767	0.976
862.524	0.976
871.28	0.978
880.037	0.975
888.793	0.969
897.55	0.959
906.306	0.942
915.063	0.896
923.82	0.6529
932.576	0.254
941.333	0.748
950.089	0.852
958.846	0.6528
967.603	0.6911
976.359	0.92
985.116	0.926
993.872	0.903
1002.63	0.943
1011.39	0.937
1020.14	0.931
1028.9	0.931
1037.66	0.927
1046.41	0.919
1055.17	0.913
1063.93	0.896
1072.68	0.874
1081.44	0.767
1090.19	0.51
1098.95	0.6401
1107.71	0.915
1116.46	0.93
1125.22	0.935
1133.98	0.96
1142.73	0.952
1151.49	0.933
1160.25	0.918
1169	0.878
1177.76	0.845
1186.52	0.715
1195.27	0.674
1204.03	0.838
1212.79	0.913
1221.54	0.924
1230.3	0.934
1239.06	0.933
1247.81	0.93
1256.57	0.923
1265.33	0.883
1274.08	0.7219
1282.84	0.882
1291.6	0.911
1300.35	0.901
1309.11	0.889
1317.87	0.893
1326.62	0.912
1335.38	0.912
1344.14	0.912
1352.89	0.915
1361.65	0.904
1370.41	0.93
1379.16	0.935
1387.92	0.934
1396.68	0.907
1405.43	0.909
1414.19	0.912
1422.95	0.903
1431.7	0.89
1440.46	0.883
1449.22	0.871
1457.97	0.823
1466.73	0.774
1475.48	0.6019
1484.24	0.2019
1493	0.1662
1501.75	0.2409
1510.51	0.095
1519.27	0.5813
1528.02	0.892
1536.78	0.913
1545.54	0.945
1554.29	0.948
1563.05	0.95
1571.81	0.95
1580.56	0.941
1589.32	0.928
1598.08	0.893
1606.83	0.84
1615.59	0.846
1624.35	0.825
1633.1	0.848
1641.86	0.872
1650.62	0.7799
1659.37	0.5489
1668.13	0.3331
1676.89	0.7242
1685.64	0.87
1694.4	0.909
1703.16	0.946
1711.91	0.965
1720.67	0.976
1729.43	0.98
1738.18	0.98
1746.94	0.978
1755.7	0.98
1764.45	0.979
1773.21	0.978
1781.97	0.982
1790.72	0.982
1799.48	0.983
1808.24	0.983
1816.99	0.98
1825.75	0.983
1834.51	0.982
1843.26	0.983
1852.02	0.982
1860.77	0.978
1869.53	0.974
1878.29	0.976
1887.04	0.979
1895.8	0.978
1904.56	0.978
1913.31	0.978
1922.07	0.978
1930.83	0.978
1939.58	0.978
1948.34	0.979
1957.1	0.982
1965.85	0.975
1974.61	0.974
1983.37	0.971
1992.12	0.971
2000.88	0.971
2009.64	0.971
2018.39	0.971
2027.15	0.974
2035.91	0.969
2044.66	0.97
2053.42	0.969
2062.18	0.967
2070.93	0.965
2079.69	0.964
2088.45	0.963
2097.2	0.963
2105.96	0.964
2114.72	0.9635
2123.47	0.963
2132.23	0.963
2140.99	0.963
2149.74	0.963
2158.5	0.964
2167.26	0.963
2176.01	0.96
2184.77	0.957
2193.53	0.956
2202.28	0.956
2211.04	0.9551
2219.8	0.953
2228.55	0.954
2237.31	0.953
2246.07	0.946
2254.82	0.942
2263.58	0.9425
2272.33	0.949
2281.09	0.949
2289.85	0.949
2298.6	0.948
2307.36	0.945
2316.12	0.9663
2324.87	0.956
2333.63	0.956
2342.39	0.954
2351.14	0.9564
2359.9	0.961
2368.66	0.9596
2377.41	0.9511
2386.17	0.941
2394.93	0.941
2403.68	0.942
2412.44	0.9401
2421.2	0.9399
2429.95	0.942
2438.71	0.942
2447.47	0.942
2456.22	0.942
2464.98	0.942
2473.74	0.9414
2482.49	0.941
2491.25	0.941
2500.01	0.942
2508.76	0.942
2517.52	0.941
2526.28	0.939
2535.03	0.938
2543.79	0.938
2552.55	0.938
2561.3	0.937
2570.06	0.935
2578.82	0.934
2587.57	0.933
2596.33	0.931
2605.09	0.9266
2613.84	0.9212
2622.6	0.922
2631.36	0.923
2640.11	0.926
2648.87	0.9266
2657.62	0.927
2666.38	0.928
2675.14	0.927
2683.89	0.927
2692.65	0.9266
2701.41	0.924
2710.16	0.924
2718.92	0.924
2727.68	0.9236
2736.43	0.923
2745.19	0.9226
2753.95	0.919
2762.7	0.919
2771.46	0.916
2780.22	0.913
2788.97	0.911
2797.73	0.9076
2806.49	0.908
2815.24	0.908
2824	0.909
2832.76	0.908
2841.51	0.907
2850.27	0.907
2859.03	0.907
2867.78	0.905
2876.54	0.9036
2885.3	0.9
2894.05	0.897
2902.81	0.894
2911.57	0.893
2920.32	0.893
2929.08	0.893
2937.84	0.893
2946.59	0.893
2955.35	0.892
2964.11	0.892
2972.86	0.892
2981.62	0.892
2990.38	0.892
2999.13	0.892
3007.89	0.892
3016.65	0.89
3025.4	0.8897
3034.16	0.8883
3042.91	0.8867
3051.67	0.885
3060.43	0.882
3069.18	0.8803
3077.94	0.8787
3086.7	0.8777
3095.45	0.874
3104.21	0.871
3112.97	0.8677
3121.72	0.8637
3130.48	0.8591
3139.24	0.853
3147.99	0.8487
3156.75	0.8407
3165.51	0.8307
3174.26	0.8141
3183.02	0.7972
3191.78	0.7663
3200.53	0.7294
3209.29	0.6843
3218.05	0.67
3226.8	0.6929
3235.56	0.7286
3244.32	0.7393
3253.07	0.739
3261.83	0.7247
3270.59	0.6988
3279.34	0.67
3288.1	0.6571
3296.86	0.6443
3305.61	0.612
3314.37	0.5422
3323.13	0.4909
3331.88	0.459
3340.64	0.4807
3349.4	0.588
3358.15	0.6895
3366.91	0.7853
3375.67	0.8125
3384.42	0.8384
3393.18	0.84
3401.94	0.8454
3410.69	0.8519
3419.45	0.8354
3428.2	0.7154
3436.96	0.6628
3445.72	0.6264
3454.47	0.6594
3463.23	0.8166
3471.99	0.8373
3480.74	0.844
3489.5	0.8483
3498.26	0.8555
3507.01	0.862
3515.77	0.8622
3524.53	0.868
3533.28	0.87
3542.04	0.872
3550.8	0.874
3559.55	0.8735
3568.31	0.871
3577.07	0.868
3585.82	0.87
3594.58	0.871
3603.34	0.8708
3612.09	0.8708
3620.85	0.87
3629.61	0.87
3638.36	0.868
3647.12	0.868
3655.88	0.867
3664.63	0.8668
3673.39	0.864
3682.15	0.8638
3690.9	0.8616
3699.66	0.8632
3708.42	0.8672
3717.17	0.8678
3725.93	0.8656
3734.69	0.864
3743.44	0.864
3752.2	0.863
3760.96	0.862
3769.71	0.86
3778.47	0.8568
3787.23	0.857
3795.98	0.8586
