Infrared Spectrum: Alpha,Alpha,Alpha,Alpha',Alpha',Alpha'-2-HEPTACHLORO-p-XYLENE
Formula: C8 H3 Cl7
CAS: 10388-10-0
State: SOLUTION (10% CCl4 FOR 5000-1330, 10% CS2 FOR 1330-625 CM^-^1)
Class: COBLENTZ
Instrument: Not specified, most likely a prism, grating, or hybrid spectrometer.
Sampling: TRANSMISSION
Path length: 0.0112 CM, 0.0111 CM
Resolution: 4
Origin: DOW CHEMICAL COMPANY
MICROMETERS	TRANSMITTANCE
2.021	0.843
2.06214	0.844
2.10327	0.848
2.14441	0.849
2.18554	0.856
2.22668	0.858
2.26781	0.861
2.30895	0.861
2.35009	0.865
2.39122	0.865
2.43236	0.87
2.47349	0.873
2.51463	0.872
2.55576	0.872
2.5969	0.868
2.63803	0.873
2.67917	0.87
2.72031	0.868
2.76144	0.868
2.80258	0.868
2.84371	0.872
2.88485	0.87
2.92598	0.868
2.96712	0.87
3.00826	0.87
3.04939	0.868
3.09053	0.87
3.13166	0.87
3.1728	0.861
3.21393	0.853
3.25507	0.86
3.2962	0.868
3.33734	0.873
3.37848	0.875
3.41961	0.883
3.46075	0.883
3.50188	0.883
3.54302	0.883
3.58415	0.883
3.62529	0.887
3.66643	0.89
3.70756	0.895
3.7487	0.897
3.78983	0.899
3.83097	0.902
3.8721	0.906
3.91324	0.906
3.95438	0.907
3.99551	0.909
4.03665	0.909
4.07778	0.909
4.11892	0.909
4.16005	0.902
4.20119	0.894
4.24232	0.88
4.28346	0.885
4.3246	0.895
4.36573	0.902
4.40687	0.907
4.448	0.921
4.48914	0.926
4.53027	0.928
4.57141	0.93
4.61255	0.931
4.65368	0.928
4.69482	0.926
4.73595	0.926
4.77709	0.928
4.81822	0.926
4.85936	0.924
4.9005	0.924
4.94163	0.924
4.98277	0.923
5.0239	0.924
5.06504	0.924
5.10617	0.926
5.14731	0.926
5.18844	0.919
5.22958	0.894
5.27072	0.933
5.31185	0.926
5.35299	0.921
5.39412	0.926
5.43526	0.926
5.47639	0.923
5.51753	0.921
5.55867	0.895
5.5998	0.885
5.64094	0.902
5.68207	0.923
5.72321	0.921
5.76434	0.916
5.80548	0.919
5.84661	0.914
5.88775	0.904
5.92889	0.901
5.97002	0.904
6.01116	0.904
6.05229	0.897
6.09343	0.892
6.13456	0.868
6.1757	0.813
6.21684	0.706
6.25797	0.641
6.29911	0.631
6.34024	0.6
6.38138	0.53
6.42251	0.474
6.46365	0.484
6.50479	0.568
6.54592	0.619
6.58706	0.66
6.62819	0.738
6.66933	0.779
6.71046	0.764
6.7516	0.744
6.79273	0.67
6.83387	0.812
6.87501	0.887
6.91614	0.887
6.95728	0.885
6.99841	0.878
7.03955	0.865
7.08068	0.843
7.12182	0.808
7.16296	0.684
7.20409	0.331
7.24523	0.733
7.28636	0.755
7.3275	0.793
7.36863	0.873
7.40977	0.866
7.4509	0.887
7.49204	0.906
7.53318	0.914
7.57431	0.928
7.61545	0.921
7.65658	0.923
7.69772	0.877
7.73885	0.851
7.77999	0.738
7.82113	0.769
7.86226	0.88
7.9034	0.889
7.94453	0.901
7.98567	0.897
8.0268	0.887
8.06794	0.895
8.10908	0.88
8.15021	0.873
8.19135	0.872
8.23248	0.839
8.27362	0.656
8.31475	0.298
8.35589	0.498
8.39702	0.757
8.43816	0.786
8.4793	0.773
8.52043	0.73
8.56157	0.764
8.6027	0.832
8.64384	0.844
8.68497	0.843
8.72611	0.856
8.76725	0.883
8.80838	0.889
8.84952	0.895
8.89065	0.897
8.93179	0.897
8.97292	0.897
9.01406	0.895
9.0552	0.899
9.09633	0.895
9.13747	0.887
9.1786	0.883
9.21974	0.889
9.26087	0.885
9.30201	0.877
9.34314	0.861
9.38428	0.735
9.42542	0.549
9.46655	0.764
9.50769	0.875
9.54882	0.89
9.58996	0.895
9.63109	0.894
9.67223	0.899
9.71337	0.909
9.7545	0.916
9.79564	0.928
9.83677	0.923
9.87791	0.918
9.91904	0.921
9.96018	0.926
10.0013	0.933
10.0425	0.936
10.0836	0.943
10.1247	0.947
10.1659	0.943
10.207	0.936
10.2481	0.936
10.2893	0.945
10.3304	0.943
10.3715	0.94
10.4127	0.933
10.4538	0.931
10.4949	0.93
10.5361	0.923
10.5772	0.894
10.6183	0.863
10.6595	0.837
10.7006	0.868
10.7418	0.89
10.7829	0.894
10.824	0.894
10.8652	0.892
10.9063	0.887
10.9474	0.885
10.9886	0.88
11.0297	0.873
11.0708	0.866
11.112	0.851
11.1531	0.822
11.1942	0.762
11.2354	0.723
11.2765	0.75
11.3177	0.755
11.3588	0.745
11.3999	0.725
11.4411	0.68
11.4822	0.646
11.5233	0.609
11.5645	0.576
11.6056	0.547
11.6467	0.472
11.6879	0.348
11.729	0.133
11.7701	0.052
11.8113	0.218
11.8524	0.373
11.8936	0.402
11.9347	0.46
11.9758	0.546
12.017	0.6
12.0581	0.617
12.0992	0.583
12.1404	0.535
12.1815	0.486
12.2226	0.506
12.2638	0.551
12.3049	0.568
12.346	0.573
12.3872	0.564
12.4283	0.542
12.4695	0.474
12.5106	0.334
12.5517	0.117
12.5929	0.011
12.634	0.001
12.6751	0.073
12.7163	0.201
12.7574	0.307
12.7985	0.377
12.8397	0.397
12.8808	0.411
12.9219	0.423
12.9631	0.433
13.0042	0.436
13.0454	0.416
13.0865	0.344
13.1276	0.244
13.1688	0.117
13.2099	0.032
13.251	0
13.2922	0
13.3333	0
13.3744	0.005
13.4156	0.056
13.4567	0.145
13.4978	0.23
13.539	0.322
13.5801	0.407
13.6213	0.479
13.6624	0.554
13.7035	0.587
13.7447	0.604
13.7858	0.61
13.8269	0.607
13.8681	0.592
13.9092	0.575
13.9503	0.552
13.9915	0.498
14.0326	0.343
14.0737	0.223
14.1149	0.201
14.156	0.334
14.1972	0.409
14.2383	0.428
14.2794	0.412
14.3206	0.418
14.3617	0.457
14.4028	0.498
14.444	0.52
14.4851	0.537
14.5262	0.554
14.5674	0.566
14.6085	0.569
14.6496	0.571
14.6908	0.571
14.7319	0.568
14.773	0.561
14.8142	0.551
14.8553	0.542
14.8965	0.529
14.9376	0.522
14.9787	0.534
15.0199	0.532
15.061	0.511
15.1021	0.5
15.1433	0.489
15.1844	0.481
15.2255	0.47
15.2667	0.462
15.3078	0.453
15.3489	0.445
15.3901	0.435
15.4312	0.426
15.4724	0.419
15.5135	0.407
15.5546	0.402
15.5958	0.392
15.6369	0.387
15.678	0.38
15.7192	0.373
15.7603	0.366
15.8014	0.361
15.8426	0.354
