Infrared Spectrum: BENZO[b]THIOPHENE-3-ETHYLAMINE, Alpha-METHYL-, HYDROCHLORIDE
Formula: C11 H14 Cl N S
CAS: 103861-06-9
State: SOLID (KBr DISC)
Class: COBLENTZ III
Instrument: PERKIN-ELMER 21 (GRATING)
Instrument parameters: NaCl PRISM
Sampling: TRANSMISSION
Resolution: 2
Origin: SMITH KLINE & FRENCH LABS.
MICROMETERS	TRANSMITTANCE
2.002	0.42
2.03623	0.419
2.07046	0.418
2.1047	0.418
2.13893	0.418
2.17316	0.418
2.20739	0.422
2.24162	0.424
2.27586	0.432
2.31009	0.435
2.34432	0.438
2.37855	0.455
2.41279	0.466
2.44702	0.477
2.48125	0.481
2.51548	0.482
2.54971	0.487
2.58395	0.488
2.61818	0.496
2.65241	0.512
2.68664	0.533
2.72087	0.542
2.75511	0.55
2.78934	0.53
2.82357	0.512
2.8578	0.501
2.89203	0.455
2.92627	0.454
2.9605	0.454
2.99473	0.481
3.02896	0.528
3.06319	0.545
3.09743	0.53
3.13166	0.448
3.16589	0.328
3.20012	0.22
3.23436	0.199
3.26859	0.177
3.30282	0.172
3.33705	0.156
3.37128	0.127
3.40552	0.096
3.43975	0.088
3.47398	0.08
3.50821	0.08
3.54244	0.102
3.57668	0.138
3.61091	0.184
3.64514	0.212
3.67937	0.228
3.7136	0.231
3.74784	0.275
3.78207	0.317
3.8163	0.328
3.85053	0.338
3.88476	0.36
3.919	0.369
3.95323	0.372
3.98746	0.347
4.02169	0.369
4.05593	0.453
4.09016	0.468
4.12439	0.5
4.15862	0.518
4.19285	0.525
4.22709	0.535
4.26132	0.535
4.29555	0.537
4.32978	0.55
4.36401	0.599
4.39825	0.603
4.43248	0.612
4.46671	0.622
4.50094	0.627
4.53517	0.63
4.56941	0.636
4.60364	0.645
4.63787	0.651
4.6721	0.651
4.70634	0.651
4.74057	0.66
4.7748	0.658
4.80903	0.665
4.84326	0.668
4.8775	0.663
4.91173	0.665
4.94596	0.658
4.98019	0.651
5.01442	0.645
5.04866	0.629
5.08289	0.619
5.11712	0.588
5.15135	0.581
5.18558	0.596
5.21982	0.575
5.25405	0.589
5.28828	0.611
5.32251	0.619
5.35674	0.654
5.39098	0.669
5.42521	0.677
5.45944	0.672
5.49367	0.709
5.52791	0.717
5.56214	0.71
5.59637	0.728
5.6306	0.738
5.66483	0.742
5.69907	0.749
5.7333	0.749
5.76753	0.749
5.80176	0.749
5.83599	0.733
5.87023	0.733
5.90446	0.733
5.93869	0.738
5.97292	0.732
6.00715	0.729
6.04139	0.729
6.07562	0.707
6.10985	0.683
6.14408	0.629
6.17831	0.578
6.21255	0.522
6.24678	0.328
6.28101	0.271
6.31524	0.328
6.34948	0.238
6.38371	0.201
6.41794	0.305
6.45217	0.436
6.4864	0.509
6.52064	0.57
6.55487	0.381
6.5891	0.221
6.62333	0.255
6.65756	0.469
6.6918	0.537
6.72603	0.568
6.76026	0.603
6.79449	0.579
6.82872	0.43
6.86296	0.347
6.89719	0.515
6.93142	0.471
6.96565	0.479
6.99989	0.348
7.03412	0.32
7.06835	0.551
7.10258	0.601
7.13681	0.568
7.17105	0.511
7.20528	0.374
7.23951	0.469
7.27374	0.541
7.30797	0.501
7.34221	0.422
7.37644	0.466
7.41067	0.501
7.4449	0.551
7.47913	0.602
7.51337	0.644
7.5476	0.65
7.58183	0.551
7.61606	0.579
7.65029	0.646
7.68453	0.666
7.71876	0.682
7.75299	0.706
7.78722	0.72
7.82146	0.728
7.85569	0.733
7.88992	0.7
7.92415	0.566
7.95838	0.6
7.99262	0.667
8.02685	0.69
8.06108	0.636
8.09531	0.678
8.12954	0.723
8.16378	0.738
8.19801	0.7
8.23224	0.551
8.26647	0.328
8.3007	0.338
8.33494	0.453
8.36917	0.55
8.4034	0.612
8.43763	0.619
8.47186	0.581
8.5061	0.65
8.54033	0.699
8.57456	0.713
8.60879	0.672
8.64303	0.592
8.67726	0.588
8.71149	0.613
8.74572	0.641
8.77995	0.633
8.81419	0.624
8.84842	0.525
8.88265	0.52
8.91688	0.619
8.95111	0.668
8.98535	0.71
9.01958	0.729
9.05381	0.732
9.08804	0.7
9.12227	0.55
9.15651	0.342
9.19074	0.409
9.22497	0.519
9.2592	0.551
9.29344	0.542
9.32767	0.618
9.3619	0.68
9.39613	0.701
9.43036	0.717
9.4646	0.732
9.49883	0.74
9.53306	0.7
9.56729	0.61
9.60152	0.508
9.63576	0.643
9.66999	0.711
9.70422	0.753
9.73845	0.756
9.77268	0.629
9.80692	0.446
9.84115	0.504
9.87538	0.562
9.90961	0.628
9.94384	0.646
9.97808	0.65
10.0123	0.649
10.0465	0.572
10.0808	0.54
10.115	0.569
10.1492	0.651
10.1835	0.699
10.2177	0.722
10.2519	0.729
10.2862	0.739
10.3204	0.751
10.3546	0.764
10.3889	0.766
10.4231	0.777
10.4573	0.788
10.4916	0.794
10.5258	0.797
10.56	0.74
10.5943	0.603
10.6285	0.572
10.6627	0.677
10.697	0.705
10.7312	0.704
10.7654	0.732
10.7996	0.756
10.8339	0.782
10.8681	0.79
10.9023	0.809
10.9366	0.812
10.9708	0.822
11.005	0.82
11.0393	0.801
11.0735	0.759
11.1077	0.745
11.142	0.759
11.1762	0.773
11.2104	0.782
11.2447	0.8
11.2789	0.81
11.3131	0.825
11.3474	0.842
11.3816	0.86
11.4158	0.864
11.4501	0.871
11.4843	0.872
11.5185	0.863
11.5528	0.842
11.587	0.776
11.6212	0.71
11.6554	0.639
11.6897	0.749
11.7239	0.803
11.7581	0.832
11.7924	0.852
11.8266	0.797
11.8608	0.602
11.8951	0.511
11.9293	0.602
11.9635	0.662
11.9978	0.612
12.032	0.601
12.0662	0.662
12.1005	0.739
12.1347	0.773
12.1689	0.801
12.2032	0.825
12.2374	0.833
12.2716	0.849
12.3059	0.859
12.3401	0.869
12.3743	0.874
12.4086	0.877
12.4428	0.881
12.477	0.888
12.5113	0.889
12.5455	0.889
12.5797	0.889
12.6139	0.883
12.6482	0.869
12.6824	0.831
12.7166	0.739
12.7509	0.55
12.7851	0.392
12.8193	0.414
12.8536	0.481
12.8878	0.602
12.922	0.688
12.9563	0.68
12.9905	0.559
13.0247	0.37
13.059	0.388
13.0932	0.449
13.1274	0.37
13.1617	0.218
13.1959	0.172
13.2301	0.257
13.2644	0.299
13.2986	0.232
13.3328	0.376
13.3671	0.53
13.4013	0.663
13.4355	0.75
13.4698	0.743
13.504	0.579
13.5382	0.255
13.5724	0.141
13.6067	0.134
13.6409	0.229
13.6751	0.311
13.7094	0.287
13.7436	0.339
13.7778	0.455
13.8121	0.512
13.8463	0.551
13.8805	0.583
13.9148	0.618
13.949	0.643
13.9832	0.658
14.0175	0.665
14.0517	0.661
14.0859	0.66
14.1202	0.671
14.1544	0.683
14.1886	0.691
14.2229	0.65
14.2571	0.59
14.2913	0.583
14.3256	0.641
14.3598	0.684
14.394	0.71
14.4282	0.726
14.4625	0.734
14.4967	0.742
14.5309	0.744
14.5652	0.753
14.5994	0.755
14.6336	0.755
14.6679	0.759
14.7021	0.76
14.7363	0.76
14.7706	0.764
14.8048	0.766
14.839	0.768
14.8733	0.77
14.9075	0.772
14.9417	0.771
14.976	0.764
15.0102	0.762
15.0444	0.768
15.0787	0.773
