Infrared Spectrum: 3-Iodo-5-nitroaniline
Formula: C6 H5 I N2 O2
CAS: 10394-64-6
State: SOLID (SPLIT MULL)
Class: COBLENTZ III
Instrument: BECKMAN IR-9 (GRATING)
Instrument parameters: ORDER CHANGES: 670, 1200, 2000 CM^-^1
Sampling: TRANSMISSION
Resolution: 2
Origin: DOW CHEMICAL COMPANY
1/CM	TRANSMITTANCE
405	0.5691
414	0.6016
423	0.6447
432	0.7265
441	0.7468
450	0.7575
459	0.7469
468	0.7893
477	0.8021
486	0.769
495	0.7315
504	0.7386
513	0.7764
522	0.808
531	0.8424
540	0.8392
549	0.8316
558	0.8321
567	0.8101
576	0.7943
585	0.7847
594	0.7715
603	0.7575
612	0.7436
621	0.7275
630	0.7087
639	0.6894
648	0.6694
657	0.5327
666	0.4401
675	0.7858
684	0.7951
693	0.7948
702	0.7821
711	0.7378
720	0.5986
729	0.202
738	0.7125
747	0.1723
756	0.8341
765	0.8663
774	0.8698
783	0.8667
792	0.8707
801	0.8685
810	0.8536
819	0.8157
828	0.7575
837	0.6108
846	0.4632
855	0.7849
864	0.4387
873	0.4199
882	0.8156
891	0.7707
900	0.8623
909	0.8591
918	0.838
927	0.8223
936	0.7967
945	0.7676
954	0.7
963	0.7907
972	0.7875
981	0.7265
990	0.4705
999	0.8312
1008	0.82
1017	0.805
1026	0.79
1035	0.775
1044	0.7565
1053	0.7458
1062	0.7275
1071	0.6938
1080	0.6808
1089	0.6664
1098	0.6244
1107	0.5936
1116	0.7171
1125	0.6947
1134	0.7285
1143	0.7221
1152	0.7021
1161	0.694
1170	0.6865
1179	0.6786
1188	0.6751
1197	0.6648
1206	0.6426
1215	0.6204
1224	0.6056
1233	0.5927
1242	0.5777
1251	0.5541
1260	0.4658
1269	0.4938
1278	0.4492
1287	0.3054
1296	0.4323
1305	0.3632
1314	0.3003
1323	0.1684
1332	0.0545
1341	0.091
1350	0.1753
1359	0.2524
1368	0.5946
1377	0.6608
1386	0.7111
1395	0.7851
1404	0.7676
1413	0.7262
1422	0.676
1431	0.6404
1440	0.5606
1449	0.6106
1458	0.564
1467	0.5906
1476	0.5484
1485	0.474
1494	0.4071
1503	0.2789
1512	0.0542
1521	0.0486
1530	0.6368
1539	0.837
1548	0.8324
1557	0.7501
1566	0.567
1575	0.6414
1584	0.6675
1593	0.5698
1602	0.3146
1611	0.4084
1620	0.367
1629	0.2201
1638	0.4177
1647	0.7233
1656	0.8388
1665	0.8954
1674	0.8977
1683	0.8834
1692	0.8782
1701	0.8798
1710	0.8578
1719	0.8466
1728	0.8234
1737	0.8297
1746	0.8087
1755	0.8086
1764	0.8297
1773	0.8243
1782	0.8165
1791	0.8093
1800	0.8028
1809	0.7962
1818	0.7894
1827	0.783
1836	0.7758
1845	0.7684
1854	0.7628
1863	0.7561
1872	0.7494
1881	0.744
1890	0.7375
1899	0.7308
1908	0.7242
1917	0.7187
1926	0.7135
1935	0.7076
1944	0.7008
1953	0.6947
1962	0.6925
1971	0.6856
1980	0.6807
1989	0.6757
1998	0.669
2007	0.6601
2016	0.653
2025	0.6458
2034	0.6388
2043	0.6319
2052	0.6252
2061	0.6186
2070	0.6123
2079	0.606
2088	0.5999
2097	0.5943
2106	0.5887
2115	0.583
2124	0.5774
2133	0.5718
2142	0.566
2151	0.5603
2160	0.5546
2169	0.5484
2178	0.5421
2187	0.5359
2196	0.5297
2205	0.5237
2214	0.5177
2223	0.5117
2232	0.5058
2241	0.4996
2250	0.4933
2259	0.4858
2268	0.4793
2277	0.4739
2286	0.47
2295	0.4662
2304	0.4632
2313	0.4622
2322	0.4617
2331	0.4634
2340	0.465
2349	0.4631
2358	0.4614
2367	0.466
2376	0.4562
2385	0.4445
2394	0.4324
2403	0.4284
2412	0.4268
2421	0.4262
2430	0.4251
2439	0.4233
2448	0.4209
2457	0.4184
2466	0.415
2475	0.4118
2484	0.4093
2493	0.4066
2502	0.404
2511	0.4012
2520	0.3984
2529	0.3954
2538	0.3923
2547	0.3892
2556	0.3864
2565	0.3837
2574	0.3809
2583	0.3775
2592	0.3742
2601	0.3706
2610	0.3666
2619	0.3625
2628	0.3584
2637	0.3549
2646	0.3514
2655	0.3486
2664	0.3462
2673	0.3437
2682	0.3404
2691	0.3374
2700	0.3392
2709	0.3366
2718	0.333
2727	0.3294
2736	0.3254
2745	0.3209
2754	0.3168
2763	0.3134
2772	0.3103
2781	0.3084
2790	0.3087
2799	0.3074
2808	0.3055
2817	0.3017
2826	0.2963
2835	0.2923
2844	0.2901
2853	0.2901
2862	0.2892
2871	0.2874
2880	0.2844
2889	0.2808
2898	0.2775
2907	0.2752
2916	0.273
2925	0.2708
2934	0.2685
2943	0.2674
2952	0.2667
2961	0.2656
2970	0.2642
2979	0.262
2988	0.2587
2997	0.2554
3006	0.2521
3015	0.2488
3024	0.2455
3033	0.2428
3042	0.2401
3051	0.236
3060	0.2313
3069	0.2202
3078	0.1912
3087	0.1618
3096	0.1718
3105	0.2448
3114	0.242
3123	0.2352
3132	0.2306
3141	0.2314
3150	0.2303
3159	0.2269
3168	0.2222
3177	0.2165
3186	0.2095
3195	0.2016
3204	0.1933
3213	0.1851
3222	0.1777
3231	0.1722
3240	0.1731
3249	0.177
3258	0.1786
3267	0.1794
3276	0.1783
3285	0.1756
3294	0.1715
3303	0.1635
3312	0.1498
3321	0.1339
3330	0.1157
3339	0.0922
3348	0.0704
3357	0.0739
3366	0.1139
3375	0.1717
3384	0.1894
3393	0.1881
3402	0.1806
3411	0.1689
3420	0.151
3429	0.1342
3438	0.1192
3447	0.1693
3456	0.2121
3465	0.2197
3474	0.2214
3483	0.221
3492	0.2191
3501	0.2167
3510	0.2142
3519	0.2114
3528	0.2085
3537	0.2056
3546	0.2027
3555	0.2004
3564	0.1984
3573	0.1964
3582	0.1945
3591	0.1929
3600	0.1915
3609	0.19
3618	0.1894
3627	0.1886
3636	0.1879
3645	0.1873
3654	0.1864
3663	0.1851
3672	0.1839
3681	0.1826
3690	0.1814
3699	0.1802
3708	0.179
3717	0.1778
3726	0.1766
3735	0.1753
3744	0.1739
3753	0.1712
3762	0.1666
3771	0.1641
3780	0.1624
3789	0.1614
3798	0.1604
