Infrared Spectrum: 4-Methyl-3-nitrobenzoyl chloride
Formula: C 8 H 6 Cl N O 3
CAS: 10397-30-5
State: gas
Origin: EPA-IR VAPOR PHASE LIBRARY
1/CM	ABSORBANCE
549.8	0.0020656
559.445	0.0025756
569.09	0.0022756
578.734	0.0028056
588.379	0.0039856
598.024	0.0059156
607.669	0.0069756
617.313	0.0133156
626.958	0.0356456
636.603	0.0406556
646.248	0.0177456
655.893	0.0133656
665.537	0.0151156
675.182	0.0254056
684.827	0.0350356
694.472	0.0256456
704.116	0.0284056
713.761	0.0237956
723.406	0.0167156
733.051	0.0130256
742.695	0.0153856
752.34	0.0195456
761.985	0.0167256
771.63	0.0176656
781.275	0.0438156
790.919	0.0612656
800.564	0.0237356
810.209	0.0134456
819.854	0.0200656
829.498	0.0447656
839.143	0.0735956
848.788	0.0775556
858.433	0.0459956
868.078	0.0196356
877.722	0.0104556
887.367	0.0078356
897.012	0.0092056
906.657	0.0151856
916.301	0.0222656
925.946	0.0335256
935.591	0.0476356
945.236	0.0435456
954.88	0.0534156
964.525	0.0715556
974.17	0.0428956
983.815	0.0173256
993.46	0.0092356
1003.1	0.0079356
1012.75	0.0064356
1022.39	0.0049656
1032.04	0.0049356
1041.68	0.0052656
1051.33	0.0052456
1060.97	0.0085056
1070.62	0.0202656
1080.26	0.0295156
1089.91	0.0159256
1099.55	0.0070556
1109.2	0.0053456
1118.84	0.0046256
1128.49	0.0045456
1138.13	0.0055456
1147.78	0.0095456
1157.42	0.0141356
1167.07	0.0158956
1176.71	0.0285756
1186.36	0.0752956
1196	0.152716
1205.64	0.111186
1215.29	0.0557856
1224.93	0.0236356
1234.58	0.0141156
1244.22	0.0092256
1253.87	0.0070856
1263.51	0.0069056
1273.16	0.0101756
1282.8	0.0125056
1292.45	0.0112556
1302.09	0.0107256
1311.74	0.0116356
1321.38	0.0142056
1331.03	0.0218656
1340.67	0.0441856
1350.32	0.0825856
1359.96	0.0834956
1369.61	0.0391256
1379.25	0.0183456
1388.9	0.0156156
1398.54	0.0134656
1408.18	0.0114356
1417.83	0.0107356
1427.47	0.0103356
1437.12	0.0112756
1446.76	0.0133756
1456.41	0.0140356
1466.05	0.0119256
1475.7	0.0115956
1485.34	0.0144256
1494.99	0.0171456
1504.63	0.0206756
1514.28	0.0301756
1523.92	0.0464156
1533.57	0.0753756
1543.21	0.118046
1552.86	0.117096
1562.5	0.0810656
1572.15	0.0591556
1581.79	0.0366856
1591.44	0.0239256
1601.08	0.0281856
1610.73	0.0500656
1620.37	0.0462156
1630.01	0.0185556
1639.66	0.0085656
1649.3	0.0060856
1658.95	0.0056256
1668.59	0.0050056
1678.24	0.0045456
1687.88	0.0047256
1697.53	0.0052356
1707.17	0.0056656
1716.82	0.0068856
1726.46	0.0097056
1736.11	0.0153756
1745.75	0.0238156
1755.4	0.0461756
1765.04	0.105056
1774.69	0.147846
1784.33	0.124396
1793.98	0.0860356
1803.62	0.0526656
1813.27	0.0304156
1822.91	0.0183756
1832.55	0.0111056
1842.2	0.0061556
1851.84	0.0037156
1861.49	0.0030556
1871.13	0.0029056
1880.78	0.0029556
1890.42	0.0028256
1900.07	0.0025456
1909.71	0.0024256
1919.36	0.0025756
1929	0.0030156
1938.65	0.0023556
1948.29	0.0014256
1957.94	0.0008551
1967.58	0.0006434
1977.23	0.0006215
1986.87	0.0008012
1996.52	0.0007279
2006.16	0.0007173
2015.81	0.0006828
2025.45	0.0007063
2035.1	0.0007064
2044.74	0.0006551
2054.38	0.0006572
2064.03	0.0004555
2073.67	0.0004485
2083.32	0.0004049
2092.96	0.0004063
2102.61	0.0006178
2112.25	0.0007018
2121.9	0.0007593
2131.54	0.0008816
2141.19	0.0009317
2150.83	0.0009589
2160.48	0.0009002
2170.12	0.0008102
2179.77	0.0006754
2189.41	0.0005248
2199.06	0.0005109
2208.7	0.0005453
2218.35	0.0004072
2227.99	0.0003553
2237.64	0.0003569
2247.28	0.0003969
2256.92	0.0004582
2266.57	0.0004772
2276.21	0.0004983
2285.86	0.0004587
2295.5	0.0003837
2305.15	0.0005137
2314.79	0.0004933
2324.44	0.0005238
2334.08	0.0005096
2343.73	0.0006672
2353.37	0.0007451
2363.02	0.000826
2372.66	0.0008053
2382.31	0.0010756
2391.95	0.0012156
2401.6	0.0012456
2411.24	0.0010856
2420.89	0.0009799
2430.53	0.0008152
2440.18	0.0006744
2449.82	0.0005661
2459.47	0.0005444
2469.11	0.0006025
2478.75	0.0005932
2488.4	0.0006167
2498.04	0.0005772
2507.69	0.0004056
2517.33	0.000452
2526.98	0.0004651
2536.62	0.0005256
2546.27	0.0007097
2555.91	0.0007043
2565.56	0.000762
2575.2	0.0008482
2584.85	0.0010756
2594.49	0.0009615
2604.14	0.0008061
2613.78	0.0006441
2623.43	0.000676
2633.07	0.0007268
2642.72	0.0007313
2652.36	0.0006253
2662.01	0.0007174
2671.65	0.0008464
2681.29	0.0009953
2690.94	0.0011356
2700.58	0.0012356
2710.23	0.0010656
2719.87	0.0010018
2729.52	0.0008284
2739.16	0.0010042
2748.81	0.0011756
2758.45	0.0013656
2768.1	0.0011856
2777.74	0.0009645
2787.39	0.0009331
2797.03	0.0012056
2806.68	0.0014756
2816.32	0.0017056
2825.97	0.0016256
2835.61	0.0017456
2845.26	0.0021156
2854.9	0.0025256
2864.55	0.0031856
2874.19	0.0040056
2883.84	0.0045956
2893.48	0.0044056
2903.12	0.0038056
2912.77	0.0033256
2922.41	0.0032956
2932.06	0.0046056
2941.7	0.0074056
2951.35	0.0072856
2960.99	0.0048556
2970.64	0.0043056
2980.28	0.0057156
2989.93	0.0068956
2999.57	0.0061156
3009.22	0.0040456
3018.86	0.0026656
3028.51	0.0023356
3038.15	0.0026956
3047.8	0.0034756
3057.44	0.0037956
3067.09	0.0048856
3076.73	0.0077956
3086.38	0.0073556
3096.02	0.0037256
3105.67	0.0019456
3115.31	0.0014556
3124.95	0.0010756
3134.6	0.0009184
3144.24	0.0009229
3153.89	0.0007524
3163.53	0.0006123
3173.18	0.0005391
3182.82	0.0003979
3192.47	0.0004349
3202.11	0.0004037
3211.76	0.0004211
3221.4	0.00048
3231.05	0.0004684
3240.69	0.0005317
3250.34	0.0003136
3259.98	0.0001846
3269.63	0.0002791
3279.27	0.00012217
3288.92	0.0003397
3298.56	0.0002568
3308.21	9.09e-05
3317.85	0.0001024
3327.49	0.0002744
3337.14	0.0003386
3346.78	0.0002482
3356.43	0.0003068
3366.07	0.0001753
3375.72	0.0002124
3385.36	0.0004606
3395.01	0.0004458
3404.65	0.0003774
3414.3	0.0003452
3423.94	0.0002411
3433.59	0.0002632
3443.23	0.000183
3452.88	0.0003643
3462.52	0.0003916
3472.17	0.0004612
3481.81	0.0006034
3491.46	0.0006392
3501.1	0.0008372
3510.75	0.0012756
3520.39	0.0020256
3530.04	0.0022956
3539.68	0.0020256
3549.32	0.0014756
3558.97	0.0012456
3568.61	0.0009929
3578.26	0.0008033
3587.9	0.0005354
3597.55	0.0003395
3607.19	0.000272
3616.84	0.0002303
3626.48	0.0002874
3636.13	0.0002376
3645.77	0.0002093
3655.42	0.000264
3665.06	0.0002502
3674.71	0.000334
3684.35	0.0002951
3694	0.000216
3703.64	0.000449
3713.29	0.0001364
3722.93	0.0001997
3732.58	0.0002561
3742.22	0.0002218
3751.86	0.000268
3761.51	0.00011981
3771.15	0.0003607
3780.8	0.00013452
3790.44	0
3800.09	0.0003496
3809.73	0.0002492
3819.38	0.0001333
3829.02	0.0001551
3838.67	0.0002112
3848.31	0.0003278
3857.96	0.0002618
3867.6	0.0003548
3877.25	0.0003567
3886.89	0.0002334
3896.54	0.0002291
3906.18	0.0002661
3915.83	0.0003201
3925.47	0.0003759
3935.12	0.0004979
3944.76	0.000303
3954.41	0.0002857
3964.05	0.0001848
3973.69	0.0001643
3983.34	0.0001934
3992.98	0.0002105
