Infrared Spectrum: p-Anisamide, 3-nitro-
Formula: C8 H8 N2 O4
CAS: 10397-58-7
State: SOLID (SPLIT MULL), FLUOROLUBE FOR 3800-1330 CM^-^1, NUJOL FOR 1330-400 CM^-^1
Melting point: 167 C
Class: COBLENTZ III
Instrument: DOW KBr FOREPRISM-GRATING
Instrument parameters: BLAZED AT 3.5, 12.0, 20.0 MICRON AND CHANGED AT 5.0, 7.5, 14.9 MICRON
Sampling: TRANSMISSION
Resolution: 2
Origin: DOW CHEMICAL COMPANY
1/CM	TRANSMITTANCE
3800	0.7921
3791	0.7928
3782	0.7934
3773	0.794
3764	0.7943
3755	0.7945
3746	0.795
3737	0.7953
3728	0.7954
3719	0.7949
3710	0.7944
3701	0.7939
3692	0.7935
3683	0.7932
3674	0.7928
3665	0.7926
3656	0.7926
3647	0.7926
3638	0.7926
3629	0.7926
3620	0.7928
3611	0.7932
3602	0.7936
3593	0.7939
3584	0.7944
3575	0.7948
3566	0.7953
3557	0.7957
3548	0.7961
3539	0.7964
3530	0.7967
3521	0.7958
3512	0.7951
3503	0.7943
3494	0.7915
3485	0.7872
3476	0.7785
3467	0.7446
3458	0.6775
3449	0.2694
3440	0.2472
3431	0.487
3422	0.6544
3413	0.6889
3404	0.7099
3395	0.7225
3386	0.7258
3377	0.7235
3368	0.718
3359	0.7108
3350	0.7011
3341	0.6968
3332	0.7147
3323	0.7246
3314	0.6908
3305	0.64
3296	0.6337
3287	0.6672
3278	0.6978
3269	0.7019
3260	0.6918
3251	0.6653
3242	0.6386
3233	0.6091
3224	0.5789
3215	0.5485
3206	0.5196
3197	0.434
3188	0.4026
3179	0.4018
3170	0.4291
3161	0.4903
3152	0.5312
3143	0.5629
3134	0.586
3125	0.6065
3116	0.6252
3107	0.635
3098	0.6396
3089	0.6461
3080	0.6603
3071	0.6788
3062	0.686
3053	0.6851
3044	0.6969
3035	0.7103
3026	0.7218
3017	0.7286
3008	0.733
2999	0.7361
2990	0.7268
2981	0.7345
2972	0.7385
2963	0.7378
2954	0.7201
2945	0.7183
2936	0.7207
2927	0.7194
2918	0.716
2909	0.7301
2900	0.7445
2891	0.7541
2882	0.7612
2873	0.7654
2864	0.7621
2855	0.7504
2846	0.7507
2837	0.7682
2828	0.7781
2819	0.786
2810	0.791
2801	0.7928
2792	0.7893
2783	0.7833
2774	0.7814
2765	0.7836
2756	0.7918
2747	0.7988
2738	0.8015
2729	0.8041
2720	0.8068
2711	0.8096
2702	0.8121
2693	0.8147
2684	0.8172
2675	0.8198
2666	0.8223
2657	0.8248
2648	0.8273
2639	0.8293
2630	0.8307
2621	0.8305
2612	0.8297
2603	0.8282
2594	0.8263
2585	0.824
2576	0.8232
2567	0.823
2558	0.827
2549	0.8305
2540	0.8334
2531	0.8343
2522	0.8348
2513	0.8349
2504	0.8358
2495	0.8362
2486	0.8366
2477	0.8361
2468	0.8355
2459	0.8341
2450	0.8324
2441	0.8316
2432	0.8312
2423	0.8313
2414	0.8314
2405	0.8315
2396	0.8315
2387	0.832
2378	0.8347
2369	0.8374
2360	0.8393
2351	0.8415
2342	0.8437
2333	0.8457
2324	0.8425
2315	0.8384
2306	0.8352
2297	0.8333
2288	0.8333
2279	0.8347
2270	0.8367
2261	0.8387
2252	0.8401
2243	0.8414
2234	0.8428
2225	0.8441
2216	0.8455
2207	0.8467
2198	0.8481
2189	0.8494
2180	0.8509
2171	0.8524
2162	0.8539
2153	0.8552
2144	0.8561
2135	0.857
2126	0.858
2117	0.8589
2108	0.8599
2099	0.8608
2090	0.8617
2081	0.8627
2072	0.8641
2063	0.8653
2054	0.8659
2045	0.8665
2036	0.8668
2027	0.867
2018	0.8667
2009	0.8736
2000	0.8823
1991	0.8791
1982	0.8815
1973	0.8847
1964	0.8852
1955	0.8788
1946	0.8782
1937	0.8887
1928	0.8886
1919	0.8883
1910	0.8883
1901	0.8887
1892	0.89
1883	0.8915
1874	0.8923
1865	0.8925
1856	0.8925
1847	0.8923
1838	0.892
1829	0.8915
1820	0.8905
1811	0.8833
1802	0.8824
1793	0.8825
1784	0.8821
1775	0.8806
1766	0.8773
1757	0.8723
1748	0.8656
1739	0.8558
1730	0.8417
1721	0.8227
1712	0.7619
1703	0.4189
1694	0.0694
1685	0.3527
1676	0.6376
1667	0.7232
1658	0.7557
1649	0.7636
1640	0.7521
1631	0.6158
1622	0.2988
1613	0.3756
1604	0.6441
1595	0.735
1586	0.7754
1577	0.7964
1568	0.793
1559	0.7825
1550	0.7703
1541	0.6775
1532	0.2624
1523	0.2458
1514	0.5591
1505	0.3259
1496	0.3712
1487	0.6567
1478	0.7243
1469	0.739
1460	0.7246
1451	0.6517
1442	0.7075
1433	0.7165
1424	0.7198
1415	0.6134
1406	0.4483
1397	0.2942
1388	0.3697
1379	0.4858
1370	0.4022
1361	0.2214
1352	0.5129
1343	0.6295
1334	0.7092
1325	0.7588
1316	0.7501
1307	0.5193
1298	0.3476
1289	0.1978
1280	0.4993
1271	0.6238
1262	0.7118
1253	0.7358
1244	0.7548
1235	0.7712
1226	0.7814
1217	0.7895
1208	0.7945
1199	0.7957
1190	0.648
1181	0.7832
1172	0.7912
1163	0.7254
1154	0.7421
1145	0.6349
1136	0.7908
1127	0.8095
1118	0.8075
1109	0.8168
1100	0.8307
1091	0.7276
1082	0.6983
1073	0.8227
1064	0.8357
1055	0.8295
1046	0.8153
1037	0.8271
1028	0.8265
1019	0.7883
1010	0.4377
1001	0.7569
992	0.8174
983	0.8425
974	0.8538
965	0.8536
956	0.8624
947	0.87
938	0.8756
929	0.8783
920	0.8775
911	0.7361
902	0.818
893	0.8823
884	0.8942
875	0.8975
866	0.893
857	0.7941
848	0.8768
839	0.631
830	0.8721
821	0.8898
812	0.7399
803	0.8755
794	0.8636
785	0.7953
776	0.7705
767	0.6533
758	0.836
749	0.8659
740	0.8162
731	0.8844
722	0.8603
713	0.8895
704	0.9101
695	0.9117
686	0.8604
677	0.791
668	0.9301
659	0.9525
650	0.9557
641	0.9564
632	0.952
623	0.94
614	0.9152
605	0.6461
596	0.8978
587	0.9083
578	0.9128
569	0.9018
560	0.8892
551	0.8661
542	0.8245
533	0.7464
524	0.7441
515	0.8065
506	0.7798
497	0.6874
488	0.7412
479	0.7988
470	0.8039
461	0.7953
452	0.8184
443	0.8277
434	0.8274
425	0.8216
416	0.8153
407	0.808
398	0.8005
389	0.793
