Infrared Spectrum: MALONITRILE, DIPHENYLMETHYLENE
Formula: C16 H10 N2
CAS: 10394-96-4
State: SOLID (KBr PELLET)
Class: COBLENTZ
Instrument: Not specified, most likely a prism, grating, or hybrid spectrometer.
Sampling: TRANSMISSION
Resolution: 4
Origin: TENNESSEE EASTMAN COMPANY, RESEARCH LABORATORIES
MICROMETERS	TRANSMITTANCE
2.007	0.611
2.04791	0.617
2.08883	0.629
2.12974	0.634
2.17066	0.651
2.21157	0.663
2.25249	0.675
2.2934	0.683
2.33432	0.692
2.37523	0.699
2.41615	0.704
2.45706	0.704
2.49798	0.714
2.53889	0.729
2.57981	0.733
2.62072	0.741
2.66164	0.752
2.70255	0.755
2.74347	0.752
2.78438	0.741
2.8253	0.723
2.86621	0.711
2.90713	0.699
2.94804	0.697
2.98896	0.724
3.02987	0.745
3.07079	0.76
3.1117	0.765
3.15262	0.769
3.19353	0.772
3.23445	0.755
3.27536	0.731
3.31628	0.762
3.35719	0.796
3.3981	0.784
3.43902	0.801
3.47993	0.808
3.52085	0.822
3.56176	0.846
3.60268	0.849
3.64359	0.861
3.68451	0.863
3.72542	0.87
3.76634	0.873
3.80725	0.873
3.84817	0.871
3.88908	0.871
3.93	0.882
3.97091	0.897
4.01183	0.9
4.05274	0.904
4.09366	0.911
4.13457	0.914
4.17549	0.916
4.2164	0.923
4.25732	0.923
4.29823	0.9
4.33915	0.911
4.38006	0.926
4.42098	0.928
4.46189	0.904
4.50281	0.35
4.54372	0.856
4.58464	0.912
4.62555	0.94
4.66646	0.948
4.70738	0.952
4.74829	0.952
4.78921	0.953
4.83012	0.962
4.87104	0.953
4.91195	0.96
4.95287	0.96
4.99378	0.952
5.0347	0.894
5.07561	0.912
5.11653	0.923
5.15744	0.941
5.19836	0.916
5.23927	0.894
5.28019	0.923
5.3211	0.947
5.36202	0.957
5.40293	0.962
5.44385	0.941
5.48476	0.936
5.52568	0.902
5.56659	0.933
5.60751	0.945
5.64842	0.9
5.68934	0.943
5.73025	0.94
5.77117	0.94
5.81208	0.938
5.853	0.907
5.89391	0.912
5.93483	0.87
5.97574	0.882
6.01665	0.904
6.05757	0.895
6.09848	0.887
6.1394	0.842
6.18031	0.813
6.22123	0.83
6.26214	0.536
6.30306	0.611
6.34397	0.63
6.38489	0.822
6.4258	0.757
6.46672	0.541
6.50763	0.03
6.54855	0.22
6.58946	0.6
6.63038	0.707
6.67129	0.75
6.71221	0.523
6.75312	0.757
6.79404	0.851
6.83495	0.844
6.87587	0.731
6.91678	0.376
6.9577	0.882
6.99861	0.914
7.03953	0.935
7.08044	0.94
7.12136	0.89
7.16227	0.89
7.20319	0.885
7.2441	0.895
7.28501	0.921
7.32593	0.94
7.36684	0.929
7.40776	0.876
7.44867	0.717
7.48959	0.376
7.5305	0.28
7.57142	0.558
7.61233	0.488
7.65325	0.598
7.69416	0.687
7.73508	0.682
7.77599	0.711
7.81691	0.724
7.85782	0.755
7.89874	0.851
7.93965	0.902
7.98057	0.905
8.02148	0.909
8.0624	0.911
8.10331	0.912
8.14423	0.916
8.18514	0.919
8.22606	0.919
8.26697	0.912
8.30789	0.847
8.3488	0.861
8.38972	0.76
8.43063	0.386
8.47155	0.41
8.51246	0.758
8.55338	0.75
8.59429	0.649
8.6352	0.844
8.67612	0.875
8.71703	0.882
8.75795	0.883
8.79886	0.883
8.83978	0.885
8.88069	0.887
8.92161	0.888
8.96252	0.871
9.00344	0.847
9.04435	0.837
9.08527	0.846
9.12618	0.858
9.1671	0.825
9.20801	0.782
9.24893	0.676
9.28984	0.702
9.33076	0.825
9.37167	0.861
9.41259	0.873
9.4535	0.878
9.49442	0.878
9.53533	0.878
9.57625	0.871
9.61716	0.844
9.65808	0.716
9.69899	0.711
9.73991	0.815
9.78082	0.829
9.82174	0.811
9.86265	0.839
9.90356	0.846
9.94448	0.738
9.98539	0.541
10.0263	0.767
10.0672	0.832
10.1081	0.873
10.1491	0.902
10.19	0.911
10.2309	0.868
10.2718	0.8
10.3127	0.864
10.3536	0.923
10.3945	0.938
10.4355	0.945
10.4764	0.95
10.5173	0.953
10.5582	0.955
10.5991	0.955
10.64	0.947
10.6809	0.921
10.7219	0.841
10.7628	0.841
10.8037	0.917
10.8446	0.953
10.8855	0.958
10.9264	0.958
10.9674	0.902
11.0083	0.779
11.0492	0.88
11.0901	0.943
11.131	0.952
11.1719	0.962
11.2128	0.97
11.2538	0.972
11.2947	0.972
11.3356	0.972
11.3765	0.97
11.4174	0.957
11.4583	0.955
11.4992	0.967
11.5402	0.976
11.5811	0.982
11.622	0.989
11.6629	0.989
11.7038	0.989
11.7447	0.977
11.7856	0.967
11.8266	0.914
11.8675	0.779
11.9084	0.868
11.9493	0.953
11.9902	0.974
12.0311	0.977
12.0721	0.976
12.113	0.969
12.1539	0.952
12.1948	0.943
12.2357	0.94
12.2766	0.948
12.3175	0.958
12.3585	0.962
12.3994	0.964
12.4403	0.964
12.4812	0.958
12.5221	0.953
12.563	0.95
12.6039	0.945
12.6449	0.936
12.6858	0.914
12.7267	0.839
12.7676	0.606
12.8085	0.157
12.8494	0.273
12.8903	0.642
12.9313	0.822
12.9722	0.854
13.0131	0.82
13.054	0.723
13.0949	0.459
13.1358	0.174
13.1768	0.087
13.2177	0.165
13.2586	0.432
13.2995	0.666
13.3404	0.77
13.3813	0.808
13.4222	0.846
13.4632	0.866
13.5041	0.88
13.545	0.888
13.5859	0.897
13.6268	0.909
13.6677	0.912
13.7086	0.917
13.7496	0.917
13.7905	0.916
13.8314	0.899
13.8723	0.887
13.9132	0.875
13.9541	0.847
13.995	0.8
14.036	0.723
14.0769	0.569
14.1178	0.37
14.1587	0.182
14.1996	0.097
14.2405	0.075
14.2815	0.082
14.3224	0.111
14.3633	0.126
14.4042	0.136
14.4451	0.194
14.486	0.329
14.5269	0.476
14.5679	0.594
14.6088	0.642
14.6497	0.644
14.6906	0.615
14.7315	0.588
14.7724	0.577
14.8133	0.62
14.8543	0.675
14.8952	0.743
14.9361	0.777
14.977	0.796
15.0179	0.808
15.0588	0.82
15.0998	0.83
15.1407	0.835
15.1816	0.835
15.2225	0.835
15.2634	0.83
15.3043	0.823
15.3452	0.82
15.3862	0.815
15.4271	0.81
15.468	0.81
15.5089	0.806
15.5498	0.803
15.5907	0.8
15.6316	0.796
15.6726	0.793
15.7135	0.789
15.7544	0.784
15.7953	0.781
15.8362	0.779
15.8771	0.769
15.918	0.752
15.959	0.731
