Infrared Spectrum: p-Bromoanisole
Formula: C 7 H 7 Br O
CAS: 104-92-7
State: gas
Instrument: HP-GC/MS/IRD
Origin: NIST Mass Spectrometry Data Center
1/CM	ABSORBANCE
550	0.0006357
562	0.0004134
574	0.0008151
586	0.0021879
598	0.0064974
610	0.0035841
622	0.001209
634	0.0007293
646	0.0001677
658	6.63e-05
670	7.8e-06
682	5.07e-05
694	0.0001521
706	0.0001989
718	9.75e-05
730	5.46e-05
742	0.0001131
754	0.000117
766	0.0002418
778	0.0005694
790	0.0013494
802	0.0031356
814	0.0061425
826	0.0078507
838	0.0045708
850	0.0013923
862	0.0003861
874	0.0001755
886	0.0001638
898	0.0001053
910	0.000117
922	0.0001209
934	0.0001404
946	0.000195
958	0.0003783
970	0.0006279
982	0.0010179
994	0.002691
1006	0.0059592
1018	0.0045786
1030	0.0077259
1042	0.0084825
1054	0.0044226
1066	0.0051948
1078	0.0065208
1090	0.0021918
1102	0.0016887
1114	0.0012714
1126	0.00078
1138	0.0007332
1150	0.0011856
1162	0.0049686
1174	0.0084942
1186	0.0047112
1198	0.0029289
1210	0.003666
1222	0.0075426
1234	0.0208182
1246	0.0365976
1258	0.0172419
1270	0.0131469
1282	0.0146055
1294	0.0082563
1306	0.0032058
1318	0.0016107
1330	0.0011583
1342	0.0008892
1354	0.0007566
1366	0.0006279
1378	0.0006942
1390	0.0008736
1402	0.0010062
1414	0.0014469
1426	0.0019539
1438	0.0035217
1450	0.0051831
1462	0.0067392
1474	0.0114543
1486	0.0355836
1498	0.0245817
1510	0.0039897
1522	0.0018759
1534	0.0012168
1546	0.0012909
1558	0.0017316
1570	0.0037557
1582	0.0059514
1594	0.0047268
1606	0.0031707
1618	0.0012207
1630	0.0007917
1642	0.0005577
1654	0.0004134
1666	0.0003003
1678	0.0002184
1690	0.0001989
1702	0.0001989
1714	0.0002457
1726	0.0002691
1738	0.0003549
1750	0.0002769
1762	0.0002223
1774	0.0001833
1786	0.0001716
1798	0.0002184
1810	0.0001716
1822	0.0002418
1834	0.0004095
1846	0.0005733
1858	0.0006591
1870	0.000702
1882	0.000546
1894	0.0003393
1906	0.0001677
1918	8.97e-05
1930	8.97e-05
1942	6.63e-05
1954	0.0001365
1966	0.0001287
1978	8.97e-05
1990	8.97e-05
2002	0.0001209
2014	0.0002691
2026	0.0005421
2038	0.0006435
2050	0.0005733
2062	0.0006123
2074	0.0005499
2086	0.0003198
2098	0.0001443
2110	4.68e-05
2122	3.9e-05
2134	7.8e-06
2146	1.95e-05
2158	7.8e-06
2170	2.73e-05
2182	3.9e-05
2194	3.9e-05
2206	5.07e-05
2218	2.73e-05
2230	3.51e-05
2242	1.95e-05
2254	9.75e-05
2266	0.0001872
2278	0.0002691
2290	0.0001833
2302	8.97e-05
2314	0.0001014
2326	5.85e-05
2338	4.68e-05
2350	8.58e-05
2362	0.0001131
2374	0.0001599
2386	0.000117
2398	8.19e-05
2410	0.0001014
2422	7.02e-05
2434	3.9e-05
2446	6.24e-05
2458	9.75e-05
2470	8.19e-05
2482	0.0001326
2494	0.0001599
2506	0.0001989
2518	0.0002613
2530	0.0002847
2542	0.0002379
2554	0.0001326
2566	0.0001248
2578	3.9e-05
2590	5.07e-05
2602	4.68e-05
2614	2.73e-05
2626	1.56e-05
2638	4.29e-05
2650	3.9e-05
2662	2.73e-05
2674	1.56e-05
2686	2.73e-05
2698	1.95e-05
2710	2.73e-05
2722	5.07e-05
2734	5.85e-05
2746	6.63e-05
2758	6.63e-05
2770	0.0001521
2782	0.0002145
2794	0.0003432
2806	0.0005187
2818	0.000897
2830	0.0015561
2842	0.0031863
2854	0.0029289
2866	0.001599
2878	0.0012441
2890	0.0014157
2902	0.0020709
2914	0.002886
2926	0.0030849
2938	0.0042822
2950	0.0055107
2962	0.0043095
2974	0.0028431
2986	0.002028
2998	0.0026325
3010	0.0046137
3022	0.0024765
3034	0.0012441
3046	0.0011427
3058	0.0009633
3070	0.0011037
3082	0.0014859
3094	0.0014001
3106	0.0011115
3118	0.0004563
3130	0.0002769
3142	0.0001482
3154	0.0001404
3166	0.0001443
3178	8.97e-05
3190	5.46e-05
3202	2.34e-05
3214	3.9e-05
3226	7.02e-05
3238	7.8e-06
3250	2.73e-05
3262	6.63e-05
3274	2.34e-05
3286	5.46e-05
3298	3.51e-05
3310	2.73e-05
3322	5.46e-05
3334	4.29e-05
3346	3.9e-05
3358	3.9e-06
3370	7.8e-06
3382	0
3394	3.51e-05
3406	0
3418	5.46e-05
3430	4.29e-05
3442	3.9e-05
3454	1.95e-05
3466	2.34e-05
3478	5.46e-05
3490	5.07e-05
3502	5.46e-05
3514	0.0001131
3526	5.46e-05
3538	6.24e-05
3550	8.97e-05
3562	4.68e-05
3574	0.0001248
3586	6.63e-05
3598	8.58e-05
3610	8.58e-05
3622	7.8e-05
3634	0.0001014
3646	7.41e-05
3658	0.000117
3670	0.0001365
3682	0.0001326
3694	9.75e-05
3706	0.0001209
3718	0.0001209
3730	0.0001209
3742	0.0001053
3754	0.0001365
3766	0.0001248
3778	0.0001131
3790	0.0001287
3802	0.0001599
3814	0.0001053
3826	8.58e-05
3838	0.0001404
