Infrared Spectrum: P-DODECYLANILINE
Formula: C18 H31 N
CAS: 104-42-7
State: LIQUID
Class: COBLENTZ
Instrument: Not specified, most likely a prism, grating, or hybrid spectrometer.
Sampling: TRANSMISSION
Path length: 0.003 CM
Resolution: 4
Origin: WYANDOTTE CHEMICALS CORP., WYANDOTTE, MICHIGAN, USA
MICROMETERS	TRANSMITTANCE
2.048	0.981
2.08884	0.979
2.12967	0.977
2.17051	0.943
2.21134	0.901
2.25218	0.926
2.29301	0.914
2.33385	0.911
2.37468	0.883
2.41552	0.923
2.45635	0.919
2.49719	0.931
2.53803	0.945
2.57886	0.933
2.6197	0.948
2.66053	0.945
2.70137	0.938
2.7422	0.93
2.78304	0.912
2.82387	0.807
2.86471	0.484
2.90554	0.378
2.94638	0.392
2.98721	0.209
3.02805	0.561
3.06889	0.641
3.10972	0.532
3.15056	0.745
3.19139	0.744
3.23223	0.54
3.27306	0.331
3.3139	0.245
3.35473	0.039
3.39557	0.052
3.4364	0.078
3.47724	0.093
3.51808	0.527
3.55891	0.766
3.59975	0.834
3.64058	0.846
3.68142	0.836
3.72225	0.878
3.76309	0.88
3.80392	0.897
3.84476	0.911
3.88559	0.911
3.92643	0.921
3.96727	0.94
4.0081	0.952
4.04894	0.943
4.08977	0.938
4.13061	0.945
4.17144	0.941
4.21228	0.941
4.25311	0.943
4.29395	0.94
4.33478	0.936
4.37562	0.936
4.41646	0.95
4.45729	0.952
4.49813	0.959
4.53896	0.959
4.5798	0.955
4.62063	0.959
4.66147	0.959
4.7023	0.952
4.74314	0.943
4.78397	0.947
4.82481	0.952
4.86564	0.95
4.90648	0.962
4.94732	0.952
4.98815	0.938
5.02899	0.938
5.06982	0.948
5.11066	0.933
5.15149	0.918
5.19233	0.892
5.23316	0.889
5.274	0.887
5.31483	0.82
5.35567	0.788
5.39651	0.849
5.43734	0.909
5.47818	0.912
5.51901	0.911
5.55985	0.897
5.60068	0.911
5.64152	0.89
5.68235	0.868
5.72319	0.866
5.76402	0.863
5.80486	0.846
5.8457	0.824
5.88653	0.798
5.92737	0.755
5.9682	0.687
6.00904	0.573
6.04987	0.245
6.09071	0.047
6.13154	0.051
6.17238	0.095
6.21321	0.291
6.25405	0.426
6.29488	0.477
6.33572	0.639
6.37656	0.667
6.41739	0.653
6.45823	0.58
6.49906	0.351
6.5399	0.059
6.58073	0.105
6.62157	0.165
6.6624	0.156
6.70324	0.209
6.74407	0.158
6.78491	0.1
6.82575	0.126
6.86658	0.127
6.90742	0.18
6.94825	0.409
6.98909	0.493
7.02992	0.616
7.07076	0.65
7.11159	0.617
7.15243	0.377
7.19326	0.341
7.2341	0.346
7.27494	0.307
7.31577	0.136
7.35661	0.488
7.39744	0.627
7.43828	0.658
7.47911	0.643
7.51995	0.609
7.56078	0.576
7.60162	0.421
7.64245	0.324
7.68329	0.167
7.72413	0.119
7.76496	0.138
7.8058	0.131
7.84663	0.124
7.88747	0.058
7.9283	0.174
7.96914	0.284
8.00997	0.404
8.05081	0.467
8.09164	0.525
8.13248	0.593
8.17331	0.609
8.21415	0.627
8.25499	0.595
8.29582	0.469
8.33666	0.428
8.37749	0.197
8.41833	0.244
8.45916	0.51
8.5	0.559
8.54083	0.549
8.58167	0.547
8.6225	0.6
8.66334	0.629
8.70418	0.595
8.74501	0.554
8.78585	0.513
8.82668	0.476
8.86752	0.551
8.90835	0.564
8.94919	0.467
8.99002	0.53
9.03086	0.537
9.07169	0.549
9.11253	0.578
9.15337	0.58
9.1942	0.578
9.23504	0.561
9.27587	0.518
9.31671	0.518
9.35754	0.542
9.39838	0.552
9.43921	0.576
9.48005	0.598
9.52088	0.612
9.56172	0.612
9.60255	0.614
9.64339	0.576
9.68423	0.503
9.72506	0.58
9.7659	0.604
9.80673	0.597
9.84757	0.537
9.8884	0.612
9.92924	0.631
9.97007	0.65
10.0109	0.663
10.0517	0.687
10.0926	0.699
10.1334	0.699
10.1743	0.696
10.2151	0.718
10.2559	0.709
10.2968	0.715
10.3376	0.699
10.3784	0.699
10.4193	0.691
10.4601	0.692
10.5009	0.679
10.5418	0.674
10.5826	0.674
10.6234	0.672
10.6643	0.648
10.7051	0.598
10.7459	0.566
10.7868	0.59
10.8276	0.622
10.8685	0.61
10.9093	0.588
10.9501	0.59
10.991	0.6
11.0318	0.616
11.0726	0.631
11.1135	0.646
11.1543	0.65
11.1951	0.65
11.236	0.641
11.2768	0.639
11.3176	0.631
11.3585	0.616
11.3993	0.6
11.4401	0.573
11.481	0.556
11.5218	0.525
11.5627	0.51
11.6035	0.484
11.6443	0.467
11.6852	0.445
11.726	0.424
11.7668	0.399
11.8077	0.397
11.8485	0.37
11.8893	0.336
11.9302	0.279
11.971	0.201
12.0118	0.122
12.0527	0.092
12.0935	0.061
12.1344	0.066
12.1752	0.066
12.216	0.104
12.2569	0.155
12.2977	0.208
12.3385	0.259
12.3794	0.32
12.4202	0.385
12.461	0.428
12.5019	0.45
12.5427	0.455
12.5835	0.45
12.6244	0.44
12.6652	0.402
12.706	0.351
12.7469	0.329
12.7877	0.296
12.8286	0.273
12.8694	0.271
12.9102	0.281
12.9511	0.273
12.9919	0.242
13.0327	0.175
13.0736	0.143
13.1144	0.129
13.1552	0.138
13.1961	0.138
13.2369	0.129
13.2777	0.117
13.3186	0.105
13.3594	0.098
13.4003	0.097
13.4411	0.122
13.4819	0.15
13.5228	0.177
13.5636	0.209
13.6044	0.232
13.6453	0.242
13.6861	0.252
13.7269	0.271
13.7678	0.286
13.8086	0.31
13.8494	0.303
13.8903	0.308
13.9311	0.295
13.9719	0.298
14.0128	0.281
14.0536	0.279
14.0945	0.267
14.1353	0.24
14.1761	0.218
14.217	0.175
14.2578	0.141
14.2986	0.112
14.3395	0.117
14.3803	0.124
14.4211	0.163
14.462	0.204
14.5028	0.237
14.5436	0.252
14.5845	0.278
14.6253	0.283
14.6661	0.286
14.707	0.291
14.7478	0.293
14.7887	0.302
14.8295	0.302
14.8703	0.303
14.9112	0.312
14.952	0.315
14.9928	0.344
15.0337	0.358
15.0745	0.373
15.1153	0.346
15.1562	0.337
15.197	0.336
15.2378	0.341
15.2787	0.332
15.3195	0.341
15.3604	0.344
15.4012	0.348
15.442	0.339
15.4829	0.361
15.5237	0.351
15.5645	0.36
15.6054	0.356
15.6462	0.373
15.687	0.365
15.7279	0.372
15.7687	0.377
15.8095	0.387
15.8504	0.38
15.8912	0.401
15.932	0.39
15.9729	0.401
