Infrared Spectrum: 4-HYDROXY UNDECANOIC ACID, LACTONE
Formula: C11 H20 O2
CAS: 104-67-6
State: LIQUID
Class: COBLENTZ
Instrument: Not specified, most likely a prism, grating, or hybrid spectrometer.
Sampling: TRANSMISSION
Path length: 0.0025 CM
Resolution: 4
Origin: INFRACORD
MICROMETERS	TRANSMITTANCE
2.53	0.855
2.56544	0.854
2.60089	0.85
2.63633	0.852
2.67177	0.854
2.70721	0.848
2.74266	0.839
2.7781	0.835
2.81354	0.822
2.84898	0.805
2.88443	0.829
2.91987	0.846
2.95531	0.849
2.99075	0.85
3.0262	0.854
3.06164	0.855
3.09708	0.853
3.13253	0.852
3.16797	0.849
3.20341	0.848
3.23885	0.846
3.2743	0.833
3.30974	0.808
3.34518	0.712
3.38062	0.41
3.41607	0.102
3.45151	0.097
3.48695	0.271
3.52239	0.267
3.55784	0.608
3.59328	0.797
3.62872	0.831
3.66416	0.844
3.69961	0.853
3.73505	0.855
3.77049	0.856
3.80594	0.867
3.84138	0.881
3.87682	0.886
3.91226	0.889
3.94771	0.897
3.98315	0.901
4.01859	0.901
4.05403	0.907
4.08948	0.908
4.12492	0.908
4.16036	0.908
4.1958	0.908
4.23125	0.908
4.26669	0.908
4.30213	0.908
4.33758	0.91
4.37302	0.911
4.40846	0.914
4.4439	0.915
4.47935	0.918
4.51479	0.923
4.55023	0.925
4.58567	0.926
4.62112	0.933
4.65656	0.936
4.692	0.937
4.72744	0.937
4.76289	0.937
4.79833	0.933
4.83377	0.93
4.86922	0.925
4.90466	0.908
4.9401	0.925
4.97554	0.926
5.01099	0.934
5.04643	0.936
5.08187	0.936
5.11731	0.932
5.15276	0.932
5.1882	0.93
5.22364	0.93
5.25908	0.924
5.29453	0.92
5.32997	0.917
5.36541	0.902
5.40085	0.876
5.4363	0.855
5.47174	0.804
5.50718	0.721
5.54263	0.637
5.57807	0.417
5.61351	0.089
5.64895	0.037
5.6844	0.043
5.71984	0.156
5.75528	0.422
5.79072	0.523
5.82617	0.616
5.86161	0.697
5.89705	0.788
5.93249	0.836
5.96794	0.859
6.00338	0.881
6.03882	0.887
6.07427	0.889
6.10971	0.891
6.14515	0.891
6.18059	0.892
6.21604	0.892
6.25148	0.894
6.28692	0.905
6.32236	0.913
6.35781	0.923
6.39325	0.925
6.42869	0.926
6.46413	0.927
6.49958	0.927
6.53502	0.924
6.57046	0.924
6.60591	0.919
6.64135	0.912
6.67679	0.908
6.71223	0.897
6.74768	0.874
6.78312	0.833
6.81856	0.717
6.854	0.407
6.88945	0.369
6.92489	0.536
6.96033	0.644
6.99577	0.691
7.03122	0.706
7.06666	0.634
7.1021	0.737
7.13755	0.815
7.17299	0.816
7.20843	0.752
7.24387	0.693
7.27932	0.637
7.31476	0.646
7.3502	0.653
7.38564	0.59
7.42109	0.512
7.45653	0.532
7.49197	0.65
7.52741	0.732
7.56286	0.756
7.5983	0.772
7.63374	0.772
7.66918	0.732
7.70463	0.707
7.74007	0.691
7.77551	0.661
7.81096	0.642
7.8464	0.667
7.88184	0.711
7.91728	0.752
7.95273	0.766
7.98817	0.76
8.02361	0.749
8.05905	0.719
8.0945	0.7
8.12994	0.678
8.16538	0.6
8.20082	0.479
8.23627	0.448
8.27171	0.469
8.30715	0.488
8.3426	0.426
8.37804	0.306
8.41348	0.176
8.44892	0.095
8.48437	0.076
8.51981	0.075
8.55525	0.092
8.59069	0.145
8.62614	0.228
8.66158	0.288
8.69702	0.338
8.73246	0.417
8.76791	0.534
8.80335	0.585
8.83879	0.552
8.87424	0.472
8.90968	0.461
8.94512	0.534
8.98056	0.598
9.01601	0.672
9.05145	0.732
9.08689	0.775
9.12233	0.783
9.15778	0.77
9.19322	0.747
9.22866	0.731
9.2641	0.706
9.29955	0.681
9.33499	0.669
9.37043	0.661
9.40587	0.667
9.44132	0.671
9.47676	0.668
9.5122	0.647
9.54765	0.613
9.58309	0.575
9.61853	0.533
9.65397	0.52
9.68942	0.504
9.72486	0.494
9.7603	0.48
9.79574	0.469
9.83119	0.466
9.86663	0.467
9.90207	0.493
9.93751	0.525
9.97296	0.564
10.0084	0.596
10.0438	0.604
10.0793	0.603
10.1147	0.586
10.1502	0.532
10.1856	0.484
10.2211	0.434
10.2565	0.418
10.2919	0.467
10.3274	0.57
10.3628	0.667
10.3983	0.727
10.4337	0.757
10.4692	0.779
10.5046	0.796
10.54	0.808
10.5755	0.809
10.6109	0.798
10.6464	0.766
10.6818	0.745
10.7173	0.721
10.7527	0.699
10.7881	0.646
10.8236	0.559
10.859	0.469
10.8945	0.41
10.9299	0.429
10.9654	0.487
11.0008	0.533
11.0362	0.568
11.0717	0.586
11.1071	0.617
11.1426	0.656
11.178	0.698
11.2135	0.75
11.2489	0.778
11.2843	0.797
11.3198	0.818
11.3552	0.831
11.3907	0.846
11.4261	0.852
11.4615	0.855
11.497	0.856
11.5324	0.852
11.5679	0.847
11.6033	0.836
11.6388	0.84
11.6742	0.843
11.7096	0.852
11.7451	0.859
11.7805	0.876
11.816	0.88
11.8514	0.885
11.8869	0.888
11.9223	0.886
11.9577	0.885
11.9932	0.882
12.0286	0.875
12.0641	0.876
12.0995	0.874
12.135	0.869
12.1704	0.861
12.2058	0.85
12.2413	0.846
12.2767	0.831
12.3122	0.813
12.3476	0.786
12.3831	0.758
12.4185	0.753
12.4539	0.775
12.4894	0.802
12.5248	0.829
12.5603	0.844
12.5957	0.856
12.6312	0.867
12.6666	0.874
12.702	0.878
12.7375	0.876
12.7729	0.875
12.8084	0.873
12.8438	0.872
12.8793	0.868
12.9147	0.869
12.9501	0.867
12.9856	0.865
13.021	0.867
13.0565	0.872
13.0919	0.875
13.1274	0.875
13.1628	0.876
13.1982	0.876
13.2337	0.873
13.2691	0.869
13.3046	0.859
13.34	0.852
13.3755	0.849
13.4109	0.842
13.4463	0.84
13.4818	0.833
13.5172	0.828
13.5527	0.828
13.5881	0.821
13.6236	0.807
13.659	0.788
13.6944	0.76
13.7299	0.732
13.7653	0.715
13.8008	0.714
13.8362	0.73
13.8716	0.76
13.9071	0.785
13.9425	0.802
13.978	0.808
14.0134	0.817
14.0489	0.823
14.0843	0.827
14.1197	0.828
14.1552	0.826
14.1906	0.824
14.2261	0.816
14.2615	0.809
14.297	0.81
14.3324	0.81
14.3678	0.809
14.4033	0.804
14.4387	0.802
14.4742	0.794
14.5096	0.784
14.5451	0.775
14.5805	0.766
14.6159	0.757
14.6514	0.745
14.6868	0.738
14.7223	0.736
14.7577	0.732
14.7932	0.728
14.8286	0.726
14.864	0.723
14.8995	0.718
14.9349	0.714
14.9704	0.708
