Infrared Spectrum: Dibenzylidene ethylenediamine
Formula: C 16 H 16 N 2
CAS: 104-71-2
State: gas
Origin: EPA-IR VAPOR PHASE LIBRARY
1/CM	ABSORBANCE
501.5	0.00684
513.074	0.00413
524.648	0.00241
536.222	0.00167
547.796	0.00171
559.37	0.00246
570.944	0.00205
582.518	0.00135
594.092	0.00128
605.666	0.00162
617.24	0.0026
628.814	0.0062
640.388	0.00848
651.962	0.00586
663.536	0.01009
675.11	0.01876
686.684	0.04194
698.258	0.03717
709.832	0.0203
721.406	0.01578
732.98	0.02194
744.554	0.03958
756.128	0.0384
767.702	0.01613
779.276	0.00657
790.85	0.00294
802.423	0.00216
813.997	0.00219
825.571	0.00275
837.145	0.0039
848.719	0.00568
860.293	0.00753
871.867	0.00721
883.441	0.00755
895.015	0.00726
906.589	0.00722
918.163	0.00858
929.737	0.0085
941.311	0.00529
952.885	0.00632
964.459	0.00881
976.033	0.00812
987.607	0.00678
999.181	0.01005
1010.76	0.01154
1022.33	0.01562
1033.9	0.01573
1045.48	0.01517
1057.05	0.00925
1068.63	0.00758
1080.2	0.00571
1091.77	0.00509
1103.35	0.00535
1114.92	0.00287
1126.49	0.00195
1138.07	0.00187
1149.64	0.00294
1161.22	0.00591
1172.79	0.01263
1184.36	0.00428
1195.94	0.00453
1207.51	0.00845
1219.09	0.01016
1230.66	0.00529
1242.23	0.00371
1253.81	0.00389
1265.38	0.00592
1276.96	0.01258
1288.53	0.01792
1300.1	0.01948
1311.68	0.02302
1323.25	0.01876
1334.83	0.02679
1346.4	0.01481
1357.97	0.01125
1369.55	0.01472
1381.12	0.01043
1392.7	0.00558
1404.27	0.00425
1415.84	0.00488
1427.42	0.00914
1438.99	0.0199
1450.57	0.02607
1462.14	0.01381
1473.71	0.00738
1485.29	0.00753
1496.86	0.00954
1508.44	0.00382
1520.01	0.00273
1531.58	0.00277
1543.16	0.00259
1554.73	0.00299
1566.31	0.00519
1577.88	0.01337
1589.45	0.00911
1601.03	0.00615
1612.6	0.0081
1624.18	0.01459
1635.75	0.03949
1647.32	0.13269
1658.9	0.07699
1670.47	0.02221
1682.05	0.01001
1693.62	0.00562
1705.19	0.00397
1716.77	0.00354
1728.34	0.00301
1739.92	0.00282
1751.49	0.00269
1763.06	0.00224
1774.64	0.00238
1786.21	0.00242
1797.79	0.0043
1809.36	0.00478
1820.93	0.00287
1832.51	0.00183
1844.08	0.00161
1855.66	0.00191
1867.23	0.00267
1878.8	0.00343
1890.38	0.00384
1901.95	0.00267
1913.53	0.00256
1925.1	0.00293
1936.67	0.0036
1948.25	0.00451
1959.82	0.00378
1971.4	0.00241
1982.97	0.00143
1994.54	0.00119
2006.12	0.00115
2017.69	0.00114
2029.27	0.00112
2040.84	0.00109
2052.41	0.00114
2063.99	0.00114
2075.56	0.00104
2087.14	0.0008776
2098.71	0.0007949
2110.28	0.0007545
2121.86	0.0007495
2133.43	0.0007427
2145.01	0.0007175
2156.58	0.0006533
2168.15	0.0006842
2179.73	0.0006401
2191.3	0.0006082
2202.88	0.0006024
2214.45	0.0006607
2226.02	0.0006906
2237.6	0.0007531
2249.17	0.0007706
2260.74	0.0007868
2272.32	0.0007731
2283.89	0.0007399
2295.47	0.0007562
2307.04	0.00112
2318.61	0.00148
2330.19	0.00116
2341.76	0.000988
2353.34	0.0008335
2364.91	0.0007004
2376.48	0.0007859
2388.06	0.0007796
2399.63	0.0007851
2411.21	0.0008673
2422.78	0.0008814
2434.35	0.0009072
2445.93	0.0008327
2457.5	0.0008436
2469.08	0.000859
2480.65	0.0008343
2492.22	0.0007967
2503.8	0.0008002
2515.37	0.0008063
2526.95	0.0008423
2538.52	0.0008293
2550.09	0.0008575
2561.67	0.0009159
2573.24	0.0009806
2584.82	0.00117
2596.39	0.0014
2607.96	0.00149
2619.54	0.00167
2631.11	0.0018
2642.69	0.00198
2654.26	0.00224
2665.83	0.00215
2677.41	0.00185
2688.98	0.00181
2700.56	0.00197
2712.13	0.00239
2723.7	0.00306
2735.28	0.00401
2746.85	0.0042
2758.43	0.00411
2770	0.00417
2781.57	0.00468
2793.15	0.0058
2804.72	0.00903
2816.3	0.0167
2827.87	0.03399
2839.44	0.0638
2851.02	0.074
2862.59	0.04523
2874.17	0.03072
2885.74	0.025
2897.31	0.02363
2908.89	0.02468
2920.46	0.02461
2932.04	0.03126
2943.61	0.03254
2955.18	0.01885
2966.76	0.00943
2978.33	0.00604
2989.91	0.00524
3001.48	0.00671
3013.05	0.01089
3024.63	0.022
3036.2	0.02733
3047.78	0.01807
3059.35	0.02522
3070.92	0.05015
3082.5	0.02727
3094.07	0.01897
3105.65	0.01141
3117.22	0.00508
3128.79	0.00256
3140.37	0.00203
3151.94	0.00214
3163.52	0.00205
3175.09	0.00125
3186.66	0.0009591
3198.24	0.00105
3209.81	0.0009359
3221.39	0.00102
3232.96	0.000971
3244.53	0.00108
3256.11	0.0013
3267.68	0.00185
3279.26	0.00283
3290.83	0.00308
3302.4	0.00185
3313.98	0.00118
3325.55	0.0009338
3337.13	0.0007601
3348.7	0.0007419
3360.27	0.000651
3371.85	0.0006166
3383.42	0.0006493
3395	0.000618
3406.57	0.0006336
3418.14	0.0005748
3429.72	0.0005105
3441.29	0.0005651
3452.86	0.0006483
3464.44	0.0006348
3476.01	0.0005653
3487.59	0.0006059
3499.16	0.00059
3510.73	0.0005845
3522.31	0.0005324
3533.88	0.0005741
3545.46	0.0005541
3557.03	0.0005345
3568.6	0.0005309
3580.18	0.0004967
3591.75	0.0005151
3603.33	0.000586
3614.9	0.0005055
3626.47	0.000652
3638.05	0.0007453
3649.62	0.0008764
3661.2	0.0008103
3672.77	0.0007585
3684.34	0.000847
3695.92	0.00103
3707.49	0.00103
3719.07	0.0008923
3730.64	0.0008261
3742.21	0.0008109
3753.79	0.0007465
3765.36	0.0007844
3776.94	0.0007933
3788.51	0.0007618
3800.08	0.0006976
3811.66	0.0008127
3823.23	0.0008163
3834.81	0.0006527
3846.38	0.000717
3857.95	0.0007706
3869.53	0.0008708
3881.1	0.0008872
3892.68	0.00101
3904.25	0.0009726
3915.82	0.0009437
3927.4	0.0009927
3938.97	0.0009598
3950.55	0.0008453
3962.12	0.0008479
3973.69	0.0008458
3985.27	0.0008344
3996.84	0.0009418
