Infrared Spectrum: p-TOLUENE SULFONIC ACID
Formula: C7 H8 O3 S
CAS: 104-15-4
State: SOLID (KBr PELLET)
Class: COBLENTZ
Instrument: PERKIN-ELMER
Sampling: TRANSMISSION
Resolution: 4
Origin: STANDARD OIL OF OHIO
1/CM	TRANSMITTANCE
297.37	0.604
306.837	0.601
316.303	0.595
325.77	0.59
335.236	0.589
344.703	0.592
354.17	0.627
363.636	0.612
373.103	0.55
382.57	0.53
392.036	0.531
401.503	0.511
410.969	0.516
420.436	0.555
429.903	0.594
439.369	0.602
448.836	0.602
458.303	0.592
467.769	0.58
477.236	0.582
486.702	0.629
496.169	0.6071
505.636	0.491
515.102	0.567
524.569	0.634
534.035	0.658
543.502	0.648
552.969	0.5571
562.435	0.3931
571.902	0.249
581.369	0.282
590.835	0.39
600.302	0.462
609.768	0.57
619.235	0.616
628.702	0.627
638.168	0.632
647.635	0.607
657.101	0.562
666.568	0.488
676.035	0.407
685.501	0.119
694.968	0.345
704.435	0.52
713.901	0.5278
723.368	0.575
732.834	0.569
742.301	0.558
751.768	0.555
761.234	0.547
770.701	0.538
780.168	0.523
789.634	0.51
799.101	0.489
808.567	0.4511
818.034	0.1391
827.501	0.397
836.967	0.43
846.434	0.425
855.9	0.41
865.367	0.415
874.834	0.414
884.3	0.417
893.767	0.42
903.234	0.427
912.7	0.436
922.167	0.449
931.633	0.456
941.1	0.456
950.567	0.449
960.033	0.439
969.5	0.414
978.966	0.368
988.433	0.299
997.9	0.2001
1007.37	0.095
1016.83	0.2081
1026.3	0.2501
1035.77	0.136
1045.23	0.202
1054.7	0.276
1064.17	0.235
1073.63	0.181
1083.1	0.146
1092.57	0.154
1102.03	0.154
1111.5	0.131
1120.97	0.092
1130.43	0.09
1139.9	0.153
1149.37	0.183
1158.83	0.202
1168.3	0.203
1177.77	0.148
1187.23	0.122
1196.7	0.19
1206.17	0.249
1215.63	0.26
1225.1	0.223
1234.57	0.178
1244.03	0.178
1253.5	0.218
1262.97	0.281
1272.43	0.328
1281.9	0.373
1291.36	0.414
1300.83	0.42
1310.3	0.454
1319.76	0.491
1329.23	0.51
1338.7	0.516
1348.16	0.52
1357.63	0.521
1367.1	0.531
1376.56	0.526
1386.03	0.478
1395.5	0.488
1404.96	0.441
1414.43	0.5
1423.9	0.51
1433.36	0.515
1442.83	0.505
1452.3	0.474
1461.76	0.474
1471.23	0.505
1480.7	0.516
1490.16	0.508
1499.63	0.4051
1509.1	0.521
1518.56	0.521
1528.03	0.523
1537.5	0.525
1546.96	0.526
1556.43	0.521
1565.9	0.516
1575.36	0.506
1584.83	0.5
1594.3	0.464
1603.76	0.388
1613.23	0.437
1622.7	0.422
1632.16	0.404
1641.63	0.39
1651.1	0.39
1660.56	0.387
1670.03	0.397
1679.5	0.402
1688.96	0.405
1698.43	0.409
1707.9	0.41
1717.36	0.41
1726.83	0.414
1736.3	0.42
1745.76	0.417
1755.23	0.422
1764.7	0.425
1774.16	0.427
1783.63	0.424
1793.1	0.424
1802.56	0.424
1812.03	0.42
1821.5	0.42
1830.96	0.424
1840.43	0.424
1849.9	0.425
1859.36	0.425
1868.83	0.429
1878.3	0.43
1887.76	0.432
1897.23	0.434
1906.7	0.437
1916.16	0.436
1925.63	0.425
1935.09	0.446
1944.56	0.452
1954.03	0.456
1963.49	0.462
1972.96	0.468
1982.43	0.471
1991.89	0.471
2001.36	0.474
2010.83	0.474
2020.29	0.474
2029.76	0.4729
2039.23	0.4685
2048.69	0.4679
2058.16	0.464
2067.63	0.461
2077.09	0.4578
2086.56	0.454
2096.03	0.451
2105.49	0.4487
2114.96	0.4414
2124.43	0.437
2133.89	0.436
2143.36	0.4316
2152.83	0.4293
2162.29	0.4264
2171.76	0.4206
2181.23	0.417
2190.69	0.4143
2200.16	0.4097
2209.63	0.4075
2219.09	0.407
2228.56	0.407
2238.03	0.405
2247.49	0.404
2256.96	0.4027
2266.43	0.4087
2275.89	0.4127
2285.36	0.4167
2294.83	0.4257
2304.29	0.4356
2313.76	0.4418
2323.23	0.4538
2332.69	0.4623
2342.16	0.4689
2351.63	0.4808
2361.09	0.489
2370.56	0.4861
2380.03	0.481
2389.49	0.475
2398.96	0.471
2408.43	0.465
2417.89	0.459
2427.36	0.456
2436.83	0.452
2446.29	0.4499
2455.76	0.446
2465.23	0.4414
2474.69	0.439
2484.16	0.4364
2493.63	0.4337
2503.09	0.43
2512.56	0.429
2522.03	0.427
2531.49	0.424
2540.96	0.422
2550.43	0.419
2559.89	0.417
2569.36	0.4148
2578.82	0.4125
2588.29	0.409
2597.76	0.409
2607.22	0.407
2616.69	0.405
2626.16	0.404
2635.62	0.4024
2645.09	0.4014
2654.56	0.4
2664.02	0.398
2673.49	0.398
2682.96	0.398
2692.42	0.398
2701.89	0.397
2711.36	0.397
2720.82	0.397
2730.29	0.398
2739.76	0.4
2749.22	0.4039
2758.69	0.404
2768.16	0.405
2777.62	0.407
2787.09	0.407
2796.56	0.408
2806.02	0.412
2815.49	0.4161
2824.96	0.419
2834.42	0.42
2843.89	0.417
2853.36	0.4082
2862.82	0.4041
2872.29	0.4082
2881.76	0.4141
2891.22	0.4196
2900.69	0.4217
2910.16	0.4177
2919.62	0.4027
2929.09	0.3906
2938.56	0.4014
2948.02	0.4214
2957.49	0.4344
2966.96	0.4406
2976.42	0.4495
2985.89	0.452
2995.36	0.4535
3004.82	0.4641
3014.29	0.4716
3023.76	0.4738
3033.22	0.4737
3042.69	0.4693
3052.16	0.4704
3061.62	0.4886
3071.09	0.4955
3080.56	0.5104
3090.02	0.5154
3099.49	0.5246
3108.96	0.5304
3118.42	0.5349
3127.89	0.5374
3137.36	0.5419
3146.82	0.547
3156.29	0.5499
3165.76	0.552
3175.22	0.553
3184.69	0.553
3194.16	0.553
3203.62	0.553
3213.09	0.555
3222.55	0.553
3232.02	0.552
3241.49	0.552
3250.95	0.5518
3260.42	0.55
3269.89	0.5497
3279.35	0.547
3288.82	0.5429
3298.29	0.5387
3307.75	0.5347
3317.22	0.5303
3326.69	0.5226
3336.15	0.5139
3345.62	0.5024
3355.09	0.4918
3364.55	0.4753
3374.02	0.4602
3383.49	0.4456
3392.95	0.4344
3402.42	0.4284
3411.89	0.424
3421.35	0.42
3430.82	0.4217
3440.29	0.424
3449.75	0.427
3459.22	0.4327
3468.69	0.4416
3478.15	0.4522
3487.62	0.4637
3497.09	0.4751
3506.55	0.4876
3516.02	0.4982
3525.49	0.5148
3534.95	0.5264
3544.42	0.5429
3553.89	0.5524
3563.35	0.57
3572.82	0.5916
3582.29	0.6071
3591.75	0.6256
3601.22	0.6484
3610.69	0.6697
3620.15	0.6863
3629.62	0.7099
3639.09	0.7236
3648.55	0.7438
3658.02	0.7541
3667.49	0.7633
3676.95	0.7711
3686.42	0.774
3695.89	0.7773
3705.35	0.782
3714.82	0.786
3724.29	0.787
3733.75	0.789
3743.22	0.789
3752.69	0.789
3762.15	0.789
3771.62	0.789
3781.09	0.789
3790.55	0.789
3800.02	0.791
3809.49	0.791
3818.95	0.791
3828.42	0.7927
3837.89	0.796
3847.35	0.799
3856.82	0.7993
3866.28	0.797
3875.75	0.7942
3885.22	0.7914
