Infrared Spectrum: p-Anisidine
Formula: C 7 H 9 N O
CAS: 104-94-9
State: gas
Instrument: HP-GC/MS/IRD
Origin: NIST Mass Spectrometry Data Center
1/CM	ABSORBANCE
550	0.0014309
562	0.0015334
574	0.0013899
586	0.0014063
598	0.0015498
610	0.0017179
622	0.0021771
634	0.0032923
646	0.0049856
658	0.0054858
670	0.0040836
682	0.0034768
694	0.0035342
706	0.0036613
718	0.0042476
730	0.0043337
742	0.0025502
754	0.0009881
766	0.0007052
778	0.0009471
790	0.0017999
802	0.0039155
814	0.0067486
826	0.0068552
838	0.0041984
850	0.0018655
862	0.0009143
874	0.0005125
886	0.0002747
898	0.0001804
910	7.79e-05
922	3.69e-05
934	5.74e-05
946	6.56e-05
958	0.0002214
970	0.0004633
982	0.000697
994	0.0010619
1006	0.0017138
1018	0.0033784
1030	0.0063222
1042	0.007995
1054	0.0058097
1066	0.0030053
1078	0.0020172
1090	0.0016605
1102	0.0014514
1114	0.0016728
1126	0.0015047
1138	0.001066
1150	0.0011562
1162	0.0021115
1174	0.0033538
1186	0.0033989
1198	0.0028167
1210	0.0042845
1222	0.011029
1234	0.028495
1246	0.0341448
1258	0.0178801
1270	0.0079622
1282	0.0040344
1294	0.003321
1306	0.002173
1318	0.0015006
1330	0.0012177
1342	0.0006437
1354	0.0003034
1366	0.0001968
1378	0.0002173
1390	0.0003034
1402	0.0005125
1414	0.0008528
1426	0.0013202
1438	0.0024846
1450	0.0032472
1462	0.0041164
1474	0.0041738
1486	0.0049528
1498	0.0179334
1510	0.041
1522	0.0283269
1534	0.0054038
1546	0.0017384
1558	0.0010619
1570	0.0009799
1582	0.0012464
1594	0.0019475
1606	0.0038786
1618	0.0056211
1630	0.0044813
1642	0.0022222
1654	0.0010414
1666	0.0006724
1678	0.0004346
1690	0.0002911
1702	0.0002296
1714	0.0003157
1726	0.0003362
1738	0.000287
1750	0.0002173
1762	0.0001763
1774	0.000164
1786	0.0001804
1798	0.0002296
1810	0.0002624
1822	0.0003649
1834	0.0004592
1846	0.000533
1858	0.0004428
1870	0.0002665
1882	0.0001804
1894	0.0002009
1906	0.0002009
1918	0.0001722
1930	0.0001435
1942	0.0001763
1954	0.0002214
1966	0.0003731
1978	0.0004428
1990	0.0003895
2002	0.0002952
2014	0.0002419
2026	0.0002706
2038	0.000287
2050	0.0003321
2062	0.0004264
2074	0.0004592
2086	0.0004141
2098	0.0002747
2110	0.0001312
2122	3.28e-05
2134	3.69e-05
2146	3.28e-05
2158	2.05e-05
2170	1.23e-05
2182	1.64e-05
2194	2.05e-05
2206	2.46e-05
2218	3.69e-05
2230	7.38e-05
2242	8.61e-05
2254	0.0001025
2266	0.0001312
2278	0.0001722
2290	0.0001722
2302	0.0001558
2314	0.0001394
2326	0.0001845
2338	0.0002173
2350	0.0002132
2362	0.000164
2374	4.1e-05
2386	4.1e-05
2398	3.28e-05
2410	4.51e-05
2422	3.28e-05
2434	3.28e-05
2446	5.33e-05
2458	0.0001189
2470	0.0001435
2482	0.0001804
2494	0.0001681
2506	0.0001312
2518	0.0001517
2530	0.0001435
2542	0.0001353
2554	9.84e-05
2566	4.92e-05
2578	7.38e-05
2590	0.0001189
2602	0.0001148
2614	0.0001066
2626	5.74e-05
2638	7.38e-05
2650	7.79e-05
2662	1.23e-05
2674	9.43e-05
2686	8.61e-05
2698	9.02e-05
2710	0.0001517
2722	0.0001148
2734	0.0001312
2746	0.0001681
2758	0.0001763
2770	0.0001927
2782	0.0002706
2794	0.0004715
2806	0.0007298
2818	0.0012136
2830	0.0025994
2842	0.0035055
2854	0.0024026
2866	0.0015908
2878	0.001599
2890	0.0019639
2902	0.002747
2914	0.0036449
2926	0.0039196
2938	0.0047806
2950	0.0049733
2962	0.0036736
2974	0.0027675
2986	0.0031201
2998	0.0052808
3010	0.0056457
3022	0.0040262
3034	0.004223
3046	0.0039073
3058	0.0022427
3070	0.0018122
3082	0.0015785
3094	0.0011808
3106	0.0009799
3118	0.0007462
3130	0.0005084
3142	0.0003034
3154	0.0001763
3166	0.000123
3178	0.0001025
3190	0.0001312
3202	0.0001312
3214	0.0001845
3226	0.0001148
3238	0.0001763
3250	0.0001435
3262	0.0001763
3274	0.0001312
3286	0.0001189
3298	7.79e-05
3310	5.33e-05
3322	4.1e-05
3334	0.0001025
3346	8.2e-05
3358	6.15e-05
3370	0.0002132
3382	0.000328
3394	0.000738
3406	0.0008733
3418	0.000451
3430	0.0002501
3442	0.0002952
3454	0.0004223
3466	0.0007011
3478	0.0008692
3490	0.0007503
3502	0.0005248
3514	0.0002788
3526	0.000164
3538	0.0001394
3550	0.0001435
3562	9.84e-05
3574	0.0001107
3586	9.84e-05
3598	6.15e-05
3610	2.87e-05
3622	7.38e-05
3634	0.0001394
3646	8.61e-05
3658	9.43e-05
3670	0.0001025
3682	7.79e-05
3694	0.0001066
3706	5.74e-05
3718	4.92e-05
3730	4.1e-05
3742	7.79e-05
3754	4.51e-05
3766	9.84e-05
3778	9.43e-05
3790	6.56e-05
3802	2.46e-05
3814	7.38e-05
3826	8.2e-05
3838	9.43e-05
