Infrared Spectrum: 1,3-bis(Anilino)propane
Formula: C15 H18 N2
CAS: 104-69-8
State: LIQUID (NEAT)
Class: COBLENTZ III
Instrument: BECKMAN IR-4 (HYBRID PRISM-GRATING)
Instrument parameters: NaCl PRISM
Sampling: TRANSMISSION
Path length: CAPILLARY
Resolution: 2
Origin: MONSANTO (J. FREEMAN)
1/CM	TRANSMITTANCE
4000	0.9131
3991	0.9164
3982	0.9189
3973	0.9211
3964	0.9234
3955	0.9258
3946	0.9283
3937	0.9299
3928	0.9305
3919	0.9311
3910	0.9317
3901	0.9317
3892	0.9317
3883	0.9316
3874	0.9318
3865	0.9323
3856	0.9328
3847	0.9332
3838	0.9337
3829	0.9341
3820	0.9346
3811	0.935
3802	0.9355
3793	0.9356
3784	0.9356
3775	0.9356
3766	0.9357
3757	0.9357
3748	0.9356
3739	0.9354
3730	0.9352
3721	0.9351
3712	0.9348
3703	0.934
3694	0.9328
3685	0.9317
3676	0.9301
3667	0.9275
3658	0.9251
3649	0.9221
3640	0.9195
3631	0.917
3622	0.9144
3613	0.9127
3604	0.9115
3595	0.9111
3586	0.9106
3577	0.9104
3568	0.9101
3559	0.9098
3550	0.9089
3541	0.9078
3532	0.9068
3523	0.9051
3514	0.9025
3505	0.8998
3496	0.897
3487	0.8911
3478	0.8831
3469	0.8721
3460	0.8575
3451	0.8402
3442	0.8131
3433	0.73
3424	0.6434
3415	0.5564
3406	0.4689
3397	0.3809
3388	0.3694
3379	0.4014
3370	0.438
3361	0.4747
3352	0.5116
3343	0.5487
3334	0.586
3325	0.6234
3316	0.6611
3307	0.699
3298	0.7371
3289	0.7755
3280	0.814
3271	0.8505
3262	0.8664
3253	0.8782
3244	0.8908
3235	0.9016
3226	0.9086
3217	0.9109
3208	0.9116
3199	0.9123
3190	0.9127
3181	0.9128
3172	0.9132
3163	0.9132
3154	0.9128
3145	0.9125
3136	0.9116
3127	0.9058
3118	0.8952
3109	0.8449
3100	0.7858
3091	0.7265
3082	0.6668
3073	0.6067
3064	0.5462
3055	0.5112
3046	0.5202
3037	0.5408
3028	0.5595
3019	0.5872
3010	0.6282
3001	0.6694
2992	0.7051
2983	0.6828
2974	0.604
2965	0.5247
2956	0.4575
2947	0.4609
2938	0.4803
2929	0.4999
2920	0.5196
2911	0.5297
2902	0.5142
2893	0.4974
2884	0.4806
2875	0.468
2866	0.4862
2857	0.5327
2848	0.5794
2839	0.6266
2830	0.6739
2821	0.7215
2812	0.7694
2803	0.8043
2794	0.8282
2785	0.8547
2776	0.8645
2767	0.8678
2758	0.8704
2749	0.873
2740	0.876
2731	0.8789
2722	0.8821
2713	0.8857
2704	0.8901
2695	0.8949
2686	0.8998
2677	0.9046
2668	0.9093
2659	0.9136
2650	0.9147
2641	0.9134
2632	0.9103
2623	0.9059
2614	0.8984
2605	0.8909
2596	0.8833
2587	0.8775
2578	0.8787
2569	0.8868
2560	0.8996
2551	0.911
2542	0.9194
2533	0.9271
2524	0.9307
2515	0.9334
2506	0.9351
2497	0.9368
2488	0.9385
2479	0.9392
2470	0.9397
2461	0.9396
2452	0.9394
2443	0.9392
2434	0.9383
2425	0.937
2416	0.9355
2407	0.932
2398	0.9238
2389	0.9099
2380	0.9067
2371	0.9095
2362	0.9134
2353	0.9178
2344	0.9227
2335	0.927
2326	0.9301
2317	0.9332
2308	0.9361
2299	0.9382
2290	0.9403
2281	0.9424
2272	0.9443
2263	0.9463
2254	0.9471
2245	0.9474
2236	0.9468
2227	0.9464
2218	0.9443
2209	0.9424
2200	0.9411
2191	0.9397
2182	0.9388
2173	0.9386
2164	0.9383
2155	0.9382
2146	0.9383
2137	0.9386
2128	0.9388
2119	0.9391
2110	0.9391
2101	0.9389
2092	0.9386
2083	0.9382
2074	0.9375
2065	0.9368
2056	0.9361
2047	0.9336
2038	0.9305
2029	0.9286
2020	0.928
2011	0.9286
2002	0.9295
1993	0.9302
1984	0.9284
1975	0.9249
1966	0.9124
1957	0.8827
1948	0.8582
1939	0.8335
1930	0.833
1921	0.8714
1912	0.9016
1903	0.9139
1894	0.9184
1885	0.9178
1876	0.9137
1867	0.9013
1858	0.8847
1849	0.8718
1840	0.863
1831	0.8695
1822	0.8921
1813	0.9018
1804	0.9021
1795	0.8917
1786	0.8749
1777	0.8775
1768	0.8911
1759	0.8971
1750	0.8995
1741	0.9002
1732	0.8996
1723	0.878
1714	0.855
1705	0.8328
1696	0.8291
1687	0.8345
1678	0.84
1669	0.8332
1660	0.7932
1651	0.7753
1642	0.6971
1633	0.4682
1624	0.2246
1615	0.0776
1606	0.1461
1597	0.289
1588	0.4522
1579	0.6194
1570	0.6648
1561	0.6719
1552	0.5512
1543	0.4795
1534	0.1889
1525	0.0955
1516	0.1024
1507	0.1909
1498	0.3077
1489	0.3
1480	0.3443
1471	0.4845
1462	0.6312
1453	0.6349
1444	0.4193
1435	0.3849
1426	0.7188
1417	0.7911
1408	0.7911
1399	0.7185
1390	0.6549
1381	0.6546
1372	0.6965
1363	0.715
1354	0.538
1345	0.3274
1336	0.2282
1327	0.1917
1318	0.2858
1309	0.3756
1300	0.3902
1291	0.3939
1282	0.3818
1273	0.2714
1264	0.22
1255	0.365
1246	0.4908
1237	0.6122
1228	0.6805
1219	0.6621
1210	0.5729
1201	0.6385
1192	0.4721
1183	0.434
1174	0.7122
1165	0.6193
1156	0.5726
1147	0.6607
1138	0.4538
1129	0.4747
1120	0.5543
1111	0.5809
1102	0.6237
1093	0.6499
1084	0.6198
1075	0.5432
1066	0.7007
1057	0.8001
1048	0.8115
1039	0.7484
1030	0.6775
1021	0.8383
1012	0.8362
1003	0.7581
994	0.4879
985	0.7756
976	0.7881
967	0.7971
958	0.8067
949	0.8362
940	0.8457
931	0.8506
922	0.8527
913	0.8512
904	0.8404
895	0.8071
886	0.7537
877	0.5522
868	0.5501
859	0.7568
850	0.7687
841	0.7378
832	0.7346
823	0.7049
814	0.7276
805	0.7565
796	0.7415
787	0.7157
778	0.6648
769	0.5105
760	0.196
751	0.1022
742	0.2924
733	0.5535
724	0.6185
715	0.608
706	0.4893
697	0.1404
688	0.3646
679	0.5307
670	0.4231
661	0.4912
652	0.4558
643	0.4517
634	0.4667
