Infrared Spectrum: P-PHENYLAZOBENZOYL CHLORIDE
Formula: C13 H9 Cl N2 O
CAS: 104-24-5
State: SOLID (OIL MULL)
Melting point: 92-95 C
Class: COBLENTZ
Instrument: Not specified, most likely a prism, grating, or hybrid spectrometer.
Sampling: TRANSMISSION
Resolution: 4
Origin: WYANDOTTE CHEMICALS CORP., WYANDOTTE, MICHIGAN, USA
MICROMETERS	TRANSMITTANCE
2.034	0.215
2.07371	0.216
2.11342	0.218
2.15312	0.216
2.19283	0.22
2.23254	0.216
2.27225	0.22
2.31196	0.231
2.35167	0.246
2.39137	0.245
2.43108	0.251
2.47079	0.263
2.5105	0.268
2.55021	0.276
2.58991	0.29
2.62962	0.281
2.66933	0.301
2.70904	0.301
2.74875	0.291
2.78846	0.298
2.82816	0.293
2.86787	0.295
2.90758	0.301
2.94729	0.306
2.987	0.313
3.0267	0.31
3.06641	0.318
3.10612	0.325
3.14583	0.315
3.18554	0.313
3.22525	0.301
3.26495	0.27
3.30466	0.248
3.34437	0.118
3.38408	0.03
3.42379	0.023
3.46349	0.023
3.5032	0.025
3.54291	0.148
3.58262	0.355
3.62233	0.405
3.66204	0.443
3.70174	0.44
3.74145	0.443
3.78116	0.445
3.82087	0.451
3.86058	0.47
3.90028	0.48
3.93999	0.473
3.9797	0.496
4.01941	0.513
4.05912	0.525
4.09883	0.531
4.13853	0.535
4.17824	0.548
4.21795	0.556
4.25766	0.535
4.29737	0.543
4.33707	0.553
4.37678	0.576
4.41649	0.596
4.4562	0.598
4.49591	0.603
4.53562	0.606
4.57532	0.611
4.61503	0.621
4.65474	0.633
4.69445	0.641
4.73416	0.651
4.77386	0.66
4.81357	0.668
4.85328	0.675
4.89299	0.681
4.9327	0.69
4.97241	0.703
5.01211	0.7
5.05182	0.72
5.09153	0.713
5.13124	0.67
5.17095	0.691
5.21065	0.65
5.25036	0.701
5.29007	0.705
5.32978	0.748
5.36949	0.76
5.4092	0.78
5.4489	0.786
5.48861	0.776
5.52832	0.766
5.56803	0.75
5.60774	0.631
5.64745	0.166
5.68715	0.061
5.72686	0.103
5.76657	0.121
5.80628	0.351
5.84599	0.426
5.88569	0.403
5.9254	0.353
5.96511	0.42
6.00482	0.576
6.04453	0.638
6.08424	0.691
6.12394	0.685
6.16365	0.715
6.20336	0.6
6.24307	0.426
6.28278	0.446
6.32248	0.643
6.36219	0.685
6.4019	0.726
6.44161	0.718
6.48132	0.721
6.52103	0.718
6.56073	0.745
6.60044	0.721
6.64015	0.691
6.67986	0.543
6.71957	0.443
6.75927	0.33
6.79898	0.093
6.83869	0.131
6.8784	0.188
6.91811	0.19
6.95782	0.46
6.99752	0.598
7.03723	0.626
7.07694	0.283
7.11665	0.251
7.15636	0.495
7.19606	0.455
7.23577	0.223
7.27548	0.311
7.31519	0.475
7.3549	0.646
7.39461	0.666
7.43431	0.696
7.47402	0.693
7.51373	0.6
7.55344	0.436
7.59315	0.5
7.63285	0.33
7.67256	0.328
7.71227	0.481
7.75198	0.586
7.79169	0.666
7.8314	0.74
7.8711	0.773
7.91081	0.79
7.95052	0.813
7.99023	0.776
8.02994	0.751
8.06964	0.771
8.10935	0.746
8.14906	0.616
8.18877	0.613
8.22848	0.63
8.26819	0.458
8.30789	0.151
8.3476	0.041
8.38731	0.123
8.42702	0.28
8.46673	0.376
8.50643	0.521
8.54614	0.603
8.58585	0.596
8.62556	0.493
8.66527	0.601
8.70498	0.333
8.74468	0.421
8.78439	0.598
8.8241	0.696
8.86381	0.721
8.90352	0.738
8.94322	0.661
8.98293	0.488
9.02264	0.705
9.06235	0.766
9.10206	0.813
9.14177	0.831
9.18147	0.836
9.22118	0.823
9.26089	0.716
9.3006	0.453
9.34031	0.643
9.38001	0.788
9.41972	0.828
9.45943	0.853
9.49914	0.873
9.53885	0.881
9.57856	0.885
9.61826	0.885
9.65797	0.888
9.69768	0.888
9.73739	0.861
9.7771	0.818
9.8168	0.82
9.85651	0.813
9.89622	0.758
9.93593	0.845
9.97564	0.848
10.0153	0.743
10.0551	0.851
10.0948	0.886
10.1345	0.9
10.1742	0.893
10.2139	0.838
10.2536	0.815
10.2933	0.823
10.333	0.82
10.3727	0.825
10.4124	0.855
10.4521	0.863
10.4918	0.843
10.5316	0.826
10.5713	0.83
10.611	0.831
10.6507	0.828
10.6904	0.741
10.7301	0.593
10.7698	0.58
10.8095	0.713
10.8492	0.698
10.8889	0.651
10.9286	0.69
10.9683	0.738
11.0081	0.775
11.0478	0.783
11.0875	0.761
11.1272	0.703
11.1669	0.613
11.2066	0.516
11.2463	0.36
11.286	0.193
11.3257	0.061
11.3654	0.018
11.4051	0.02
11.4448	0.013
11.4845	0.04
11.5243	0.095
11.564	0.15
11.6037	0.173
11.6434	0.096
11.6831	0.045
11.7228	0.031
11.7625	0.111
11.8022	0.295
11.8419	0.42
11.8816	0.568
11.9213	0.638
11.961	0.691
12.0008	0.711
12.0405	0.646
12.0802	0.488
12.1199	0.443
12.1596	0.45
12.1993	0.36
12.239	0.256
12.2787	0.245
12.3184	0.261
12.3581	0.21
12.3978	0.22
12.4375	0.3
12.4773	0.406
12.517	0.523
12.5567	0.623
12.5964	0.695
12.6361	0.73
12.6758	0.726
12.7155	0.715
12.7552	0.653
12.7949	0.476
12.8346	0.18
12.8743	0.04
12.914	0.045
12.9538	0.158
12.9935	0.39
13.0332	0.555
13.0729	0.663
13.1126	0.733
13.1523	0.798
13.192	0.831
13.2317	0.86
13.2714	0.871
13.3111	0.886
13.3508	0.903
13.3905	0.91
13.4302	0.91
13.47	0.911
13.5097	0.901
13.5494	0.863
13.5891	0.84
13.6288	0.853
13.6685	0.876
13.7082	0.898
13.7479	0.911
13.7876	0.911
13.8273	0.906
13.867	0.9
13.9067	0.901
13.9465	0.93
13.9862	0.948
14.0259	0.963
14.0656	0.978
14.1053	0.986
14.145	0.99
14.1847	0.981
14.2244	0.971
14.2641	0.946
14.3038	0.891
14.3435	0.831
14.3832	0.725
14.423	0.59
14.4627	0.445
14.5024	0.315
14.5421	0.191
14.5818	0.123
14.6215	0.08
14.6612	0.071
14.7009	0.073
14.7406	0.113
14.7803	0.216
14.82	0.331
14.8597	0.448
14.8995	0.555
14.9392	0.625
14.9789	0.66
15.0186	0.658
15.0583	0.633
15.098	0.643
15.1377	0.69
15.1774	0.705
15.2171	0.711
15.2568	0.711
15.2965	0.688
15.3362	0.68
15.376	0.66
15.4157	0.616
15.4554	0.508
15.4951	0.381
15.5348	0.291
15.5745	0.255
15.6142	0.295
15.6539	0.365
15.6936	0.43
15.7333	0.493
15.773	0.526
15.8127	0.521
15.8524	0.501
15.8922	0.503
15.9319	0.496
15.9716	0.505
16.0113	0.503
