Infrared Spectrum: P-NONYLPHENOL
Formula: C15 H24 O
CAS: 104-40-5
State: LIQUID
Class: COBLENTZ
Instrument: Not specified, most likely a prism, grating, or hybrid spectrometer.
Sampling: TRANSMISSION
Path length: 0.0200 CM
Resolution: 4
Origin: BATTELLE MEMORIAL INSTITUTE (R. JAKOBSEN)
1/CM	TRANSMITTANCE
300.199	0.284
301.129	0.299
302.058	0.309
302.988	0.294
303.917	0.305
304.847	0.352
305.777	0.397
306.706	0.445
307.636	0.486
308.566	0.507
309.495	0.527
310.425	0.531
311.354	0.554
312.284	0.562
313.214	0.566
314.143	0.56
315.073	0.541
316.002	0.552
316.932	0.544
317.862	0.539
318.791	0.548
319.721	0.549
320.651	0.553
321.58	0.552
322.51	0.548
323.439	0.553
324.369	0.561
325.299	0.55
326.228	0.544
327.158	0.548
328.087	0.553
329.017	0.553
329.947	0.621
330.876	0.631
331.806	0.622
332.736	0.606
333.665	0.609
334.595	0.614
335.524	0.623
336.454	0.634
337.384	0.623
338.313	0.609
339.243	0.619
340.172	0.615
341.102	0.61
342.032	0.617
342.961	0.613
343.891	0.598
344.821	0.607
345.75	0.607
346.68	0.6
347.609	0.602
348.539	0.637
349.469	0.655
350.398	0.664
351.328	0.664
352.257	0.668
353.187	0.663
354.117	0.655
355.046	0.651
355.976	0.641
356.906	0.63
357.835	0.619
358.765	0.625
359.694	0.609
360.624	0.731
361.554	0.728
362.483	0.721
363.413	0.719
364.342	0.719
365.272	0.715
366.202	0.711
367.131	0.711
368.061	0.707
368.991	0.705
369.92	0.704
370.85	0.705
371.779	0.705
372.709	0.705
373.639	0.704
374.568	0.705
375.498	0.713
376.427	0.725
377.357	0.737
378.287	0.727
379.216	0.705
380.146	0.699
381.076	0.691
382.005	0.686
382.935	0.68
383.864	0.678
384.794	0.688
385.724	0.698
386.653	0.698
387.583	0.696
388.512	0.69
389.442	0.691
390.372	0.691
391.301	0.688
392.231	0.687
393.161	0.687
394.09	0.696
395.02	0.699
395.949	0.704
396.879	0.711
397.809	0.72
398.738	0.725
399.668	0.731
400.597	0.732
401.527	0.729
402.457	0.719
403.386	0.707
404.316	0.69
405.246	0.684
406.175	0.687
407.105	0.684
408.034	0.686
408.964	0.687
409.894	0.686
410.823	0.687
411.753	0.69
412.682	0.688
413.612	0.686
414.542	0.692
415.471	0.692
416.401	0.698
417.331	0.704
418.26	0.72
419.19	0.725
420.119	0.732
421.049	0.733
421.979	0.731
422.908	0.731
423.838	0.723
424.767	0.715
425.697	0.715
426.627	0.716
427.556	0.716
428.486	0.713
429.416	0.712
430.345	0.719
431.275	0.723
432.204	0.724
433.134	0.731
434.064	0.732
434.993	0.736
435.923	0.737
436.852	0.736
437.782	0.737
438.712	0.743
439.641	0.745
440.571	0.745
441.501	0.743
442.43	0.743
443.36	0.744
444.289	0.75
445.219	0.75
446.149	0.75
447.078	0.752
448.008	0.75
448.937	0.75
449.867	0.75
450.797	0.75
451.726	0.749
452.656	0.747
453.586	0.744
454.515	0.743
455.445	0.741
456.374	0.74
457.304	0.749
458.234	0.756
459.163	0.754
460.093	0.753
461.022	0.756
461.952	0.758
462.882	0.76
463.811	0.747
464.741	0.745
465.671	0.744
466.6	0.743
467.53	0.747
468.459	0.747
469.389	0.748
470.319	0.747
471.248	0.744
472.178	0.745
473.107	0.745
474.037	0.736
474.967	0.728
475.896	0.725
476.826	0.719
477.756	0.709
478.685	0.694
479.615	0.692
480.544	0.687
481.474	0.68
482.404	0.672
483.333	0.662
484.263	0.652
485.192	0.65
486.122	0.639
487.052	0.635
487.981	0.623
488.911	0.617
489.841	0.613
490.77	0.607
491.7	0.606
492.629	0.603
493.559	0.594
494.489	0.584
495.418	0.573
496.348	0.564
497.277	0.557
498.207	0.548
499.137	0.537
500.066	0.536
500.996	0.531
501.926	0.524
502.855	0.524
503.785	0.524
504.714	0.519
505.644	0.513
506.574	0.507
507.503	0.501
508.433	0.498
509.362	0.491
510.292	0.486
511.222	0.479
512.151	0.467
513.081	0.462
514.011	0.449
514.94	0.431
515.87	0.417
516.799	0.409
517.729	0.401
518.659	0.397
519.588	0.392
520.518	0.392
521.447	0.388
522.377	0.385
523.307	0.392
524.236	0.4
525.166	0.409
526.096	0.419
527.025	0.427
527.955	0.441
528.884	0.45
529.814	0.459
530.744	0.46
531.673	0.463
532.603	0.467
533.532	0.471
534.462	0.472
535.392	0.47
536.321	0.466
537.251	0.454
538.181	0.429
539.11	0.409
540.04	0.392
540.969	0.377
541.899	0.358
542.829	0.331
543.758	0.3
544.688	0.268
545.617	0.25
546.547	0.235
547.477	0.223
548.406	0.221
549.336	0.229
550.266	0.233
551.195	0.237
552.125	0.243
553.054	0.254
553.984	0.272
554.914	0.28
555.843	0.283
556.773	0.283
557.703	0.283
558.632	0.283
559.562	0.271
560.491	0.267
561.421	0.259
562.351	0.252
563.28	0.234
564.21	0.215
565.139	0.206
566.069	0.2
566.999	0.197
567.928	0.206
568.858	0.217
569.788	0.229
570.717	0.237
571.647	0.246
572.576	0.26
573.506	0.284
574.436	0.304
575.365	0.316
576.295	0.323
577.224	0.328
578.154	0.321
579.084	0.319
580.013	0.317
580.943	0.312
581.873	0.307
582.802	0.295
583.732	0.287
584.661	0.284
585.591	0.287
586.521	0.296
587.45	0.305
588.38	0.317
589.309	0.329
590.239	0.336
591.169	0.343
592.098	0.352
593.028	0.364
593.958	0.378
594.887	0.386
595.817	0.392
596.746	0.393
597.676	0.397
598.606	0.403
599.535	0.407
600.465	0.409
601.394	0.409
602.324	0.41
603.254	0.409
604.183	0.407
605.113	0.415
606.043	0.417
606.972	0.421
607.902	0.431
608.831	0.435
609.761	0.439
610.691	0.441
611.62	0.441
612.55	0.441
613.479	0.45
614.409	0.454
615.339	0.454
616.268	0.456
617.198	0.459
618.128	0.46
619.057	0.466
619.987	0.462
620.916	0.459
621.846	0.46
622.776	0.463
623.705	0.466
624.635	0.466
625.564	0.464
626.494	0.463
627.424	0.466
628.353	0.464
629.283	0.464
630.213	0.462
631.142	0.46
632.072	0.46
633.001	0.463
633.931	0.464
634.861	0.462
635.79	0.46
636.72	0.46
637.649	0.454
638.579	0.449
639.509	0.441
640.438	0.438
641.368	0.437
642.298	0.437
643.227	0.437
644.157	0.441
645.086	0.442
646.016	0.446
646.946	0.451
647.875	0.45
648.805	0.45
649.734	0.452
650.664	0.451
651.594	0.449
652.523	0.442
653.453	0.439
654.383	0.433
655.312	0.427
656.242	0.418
657.171	0.411
658.101	0.398
659.031	0.393
