Infrared Spectrum: (3-Chloropropyl)benzene
Formula: C 9 H 11 Cl
CAS: 104-52-9
State: gas
Instrument: HP-GC/MS/IRD
Origin: NIST Mass Spectrometry Data Center
1/CM	ABSORBANCE
550	0.0004416
562	0.0005424
574	0.0004584
586	0.0001952
598	0.0001192
610	0.0001032
622	0.0001824
634	0.0004032
646	0.0011216
658	0.0025616
670	0.0030016
682	0.0036024
694	0.0071736
706	0.0070432
718	0.0050912
730	0.0063016
742	0.0071704
754	0.0048864
766	0.002576
778	0.001576
790	0.0009912
802	0.000824
814	0.0009512
826	0.0009432
838	0.0004992
850	0.0007016
862	0.0008688
874	0.0004584
886	0.0003712
898	0.0005328
910	0.0006304
922	0.0003336
934	0.0002928
946	0.000304
958	0.00064
970	0.0012136
982	0.0007808
994	0.0003896
1006	0.0003176
1018	0.0006216
1030	0.0012248
1042	0.0004936
1054	0.0003272
1066	0.0006016
1078	0.0007112
1090	0.0004232
1102	0.000188
1114	8.72e-05
1126	4.56e-05
1138	1.12e-05
1150	5.12e-05
1162	6.4e-05
1174	6.08e-05
1186	0.0001864
1198	0.0003152
1210	0.0001856
1222	0.000252
1234	0.00042
1246	0.0005744
1258	0.0011192
1270	0.0015776
1282	0.002268
1294	0.0032432
1306	0.0028488
1318	0.0019232
1330	0.0012728
1342	0.0010232
1354	0.000976
1366	0.0004904
1378	0.0002912
1390	0.000212
1402	0.0002232
1414	0.000396
1426	0.0009152
1438	0.0022152
1450	0.0037952
1462	0.0026328
1474	0.0012992
1486	0.0017424
1498	0.0034712
1510	0.001
1522	0.000312
1534	0.0002728
1546	0.0002088
1558	0.0002088
1570	0.0003952
1582	0.0007072
1594	0.001436
1606	0.0016656
1618	0.0005976
1630	0.0002072
1642	0.000148
1654	0.0001
1666	9.28e-05
1678	7.52e-05
1690	8.56e-05
1702	7.04e-05
1714	9.28e-05
1726	0.0001504
1738	0.0001776
1750	0.0001424
1762	8.8e-05
1774	0.0001456
1786	0.0003312
1798	0.000496
1810	0.000276
1822	0.0001968
1834	0.0001512
1846	0.0001648
1858	0.0002976
1870	0.0003872
1882	0.0003472
1894	0.0001664
1906	0.0001304
1918	0.0002176
1930	0.0003912
1942	0.000524
1954	0.0004416
1966	0.0001776
1978	0.0001176
1990	7.44e-05
2002	6.08e-05
2014	7.04e-05
2026	0.0001
2038	7.6e-05
2050	8e-05
2062	6.96e-05
2074	7.52e-05
2086	0.0001048
2098	6.4e-05
2110	7.36e-05
2122	6.16e-05
2134	8.32e-05
2146	0.0001016
2158	0.0001
2170	0.000112
2182	0.0001056
2194	9.44e-05
2206	9.2e-05
2218	8.72e-05
2230	0.0001032
2242	8.08e-05
2254	8.64e-05
2266	0.000112
2278	0.0001096
2290	0.000108
2302	0.0001184
2314	0.0001704
2326	0.0001576
2338	0.000144
2350	0.0001288
2362	0.0001144
2374	9.28e-05
2386	0.0001008
2398	0.000104
2410	0.000104
2422	0.0001032
2434	8.88e-05
2446	0.0001024
2458	8.96e-05
2470	0.000108
2482	0.0001
2494	8.72e-05
2506	9.04e-05
2518	9.28e-05
2530	9.6e-05
2542	8.32e-05
2554	6.08e-05
2566	8.64e-05
2578	0.0001112
2590	0.0001128
2602	0.0001296
2614	0.000116
2626	0.0001536
2638	0.000168
2650	0.0001304
2662	0.0001696
2674	0.0001456
2686	0.000148
2698	0.0001704
2710	0.0001744
2722	0.0001648
2734	0.000176
2746	0.0002056
2758	0.0002152
2770	0.0002472
2782	0.000252
2794	0.0003352
2806	0.0003744
2818	0.0004256
2830	0.000628
2842	0.0010472
2854	0.0018176
2866	0.0024824
2878	0.0025784
2890	0.0022096
2902	0.0025
2914	0.003616
2926	0.0048392
2938	0.0061536
2950	0.0073
2962	0.006684
2974	0.0046488
2986	0.0029992
2998	0.0033952
3010	0.0035672
3022	0.0045856
3034	0.0066136
3046	0.0043208
3058	0.003756
3070	0.0059808
3082	0.0045264
3094	0.0029424
3106	0.0018336
3118	0.000956
3130	0.0004384
3142	0.000268
3154	0.0002576
3166	0.0002376
3178	0.0002192
3190	0.0001544
3202	0.0001776
3214	0.0001416
3226	0.00014
3238	0.0001984
3250	0.0001456
3262	0.0002232
3274	0.0001152
3286	0.0001728
3298	0.0001504
3310	0.0001456
3322	0.0001096
3334	0.000124
3346	0.0001536
3358	0.000128
3370	0.0001272
3382	0.000152
3394	0.0001752
3406	0.0001128
3418	9.68e-05
3430	0.000152
3442	9.04e-05
3454	7.76e-05
3466	0.000116
3478	7.92e-05
3490	0.0001472
3502	8.32e-05
3514	0.0001184
3526	0.0001288
3538	0.0001592
3550	0.0001408
3562	9.36e-05
3574	7.2e-05
3586	6.48e-05
3598	0.0001528
3610	0.0001392
3622	0.0001216
3634	0.000152
3646	0.0001472
3658	0.0001616
3670	0.0001336
3682	0.0001272
3694	0.0001632
3706	0.0001376
3718	0.0001928
3730	0.0001768
3742	0.0001032
3754	8.64e-05
3766	0.0001528
3778	0.000172
3790	0.0001568
3802	0.0001912
3814	0.000156
3826	0.0001352
3838	0.0001368
