Infrared Spectrum: 4-Propylanisole
Formula: C 10 H 14 O
CAS: 104-45-0
State: gas
Origin: EPA-IR VAPOR PHASE LIBRARY
1/CM	ABSORBANCE
549.8	0.014526
559.445	0.012886
569.09	0.007926
578.734	0.004986
588.379	0.002966
598.024	0.002136
607.669	0.001686
617.313	0.0008563
626.958	0.0009466
636.603	0.001506
646.248	0.001226
655.893	0.001246
665.537	0.001626
675.182	0.002906
684.827	0.007206
694.472	0.010396
704.116	0.006476
713.761	0.004546
723.406	0.003656
733.051	0.004096
742.695	0.006576
752.34	0.006606
761.985	0.003896
771.63	0.004386
781.275	0.007846
790.919	0.014816
800.564	0.023966
810.209	0.031216
819.854	0.033906
829.498	0.031696
839.143	0.029446
848.788	0.020546
858.433	0.011426
868.078	0.006516
877.722	0.004486
887.367	0.003316
897.012	0.002776
906.657	0.002156
916.301	0.001726
925.946	0.001356
935.591	0.001886
945.236	0.001976
954.88	0.002336
964.525	0.002726
974.17	0.003916
983.815	0.005256
993.46	0.007296
1003.1	0.010296
1012.75	0.015846
1022.39	0.027116
1032.04	0.047166
1041.68	0.060506
1051.33	0.046206
1060.97	0.024066
1070.62	0.013636
1080.26	0.008996
1089.91	0.008386
1099.55	0.010266
1109.2	0.012076
1118.84	0.012676
1128.49	0.008586
1138.13	0.005986
1147.78	0.006816
1157.42	0.012946
1167.07	0.042366
1176.71	0.063496
1186.36	0.031866
1196	0.018226
1205.64	0.022016
1215.29	0.032456
1224.93	0.056016
1234.58	0.127686
1244.22	0.238496
1253.87	0.203316
1263.51	0.091626
1273.16	0.055036
1282.8	0.049796
1292.45	0.051446
1302.09	0.036886
1311.74	0.019186
1321.38	0.013556
1331.03	0.013136
1340.67	0.013166
1350.32	0.009356
1359.96	0.006966
1369.61	0.006996
1379.25	0.009026
1388.9	0.009316
1398.54	0.006946
1408.18	0.006846
1417.83	0.008556
1427.47	0.011616
1437.12	0.020216
1446.76	0.029586
1456.41	0.034096
1466.05	0.041286
1475.7	0.036576
1485.34	0.031576
1494.99	0.054246
1504.63	0.151496
1514.28	0.201256
1523.92	0.076076
1533.57	0.019346
1543.21	0.010456
1552.86	0.008256
1562.5	0.008466
1572.15	0.011586
1581.79	0.016946
1591.44	0.021666
1601.08	0.033326
1610.73	0.045006
1620.37	0.029826
1630.01	0.012396
1639.66	0.007576
1649.3	0.005666
1658.95	0.004176
1668.59	0.003116
1678.24	0.002496
1687.88	0.002226
1697.53	0.001976
1707.17	0.002006
1716.82	0.001766
1726.46	0.001906
1736.11	0.001896
1745.75	0.002556
1755.4	0.002886
1765.04	0.002046
1774.69	0.001346
1784.33	0.001246
1793.98	0.001336
1803.62	0.001396
1813.27	0.001336
1822.91	0.001356
1832.55	0.001556
1842.2	0.002066
1851.84	0.002616
1861.49	0.003416
1871.13	0.003996
1880.78	0.003786
1890.42	0.002956
1900.07	0.002116
1909.71	0.001636
1919.36	0.001576
1929	0.001726
1938.65	0.001906
1948.29	0.001886
1957.94	0.001866
1967.58	0.001766
1977.23	0.001966
1986.87	0.002276
1996.52	0.002336
2006.16	0.002066
2015.81	0.002226
2025.45	0.002706
2035.1	0.003136
2044.74	0.003516
2054.38	0.003756
2064.03	0.003846
2073.67	0.003936
2083.32	0.003496
2092.96	0.002626
2102.61	0.001656
2112.25	0.001146
2121.9	0.0008174
2131.54	0.0006235
2141.19	0.0006345
2150.83	0.0005102
2160.48	0.0005439
2170.12	0.0005911
2179.77	0.0006864
2189.41	0.0006688
2199.06	0.000803
2208.7	0.0008377
2218.35	0.0007718
2227.99	0.0008322
2237.64	0.0007908
2247.28	0.0008455
2256.92	0.0010084
2266.57	0.001156
2276.21	0.001286
2285.86	0.001536
2295.5	0.001636
2305.15	0.001616
2314.79	0.001306
2324.44	0.001346
2334.08	0.001146
2343.73	0.001156
2353.37	0.0011032
2363.02	0.0009885
2372.66	0.0008426
2382.31	0.0007995
2391.95	0.000876
2401.6	0.0010925
2411.24	0.001236
2420.89	0.001356
2430.53	0.0010884
2440.18	0.0010309
2449.82	0.0010155
2459.47	0.001146
2469.11	0.001416
2478.75	0.001666
2488.4	0.001976
2498.04	0.001856
2507.69	0.001656
2517.33	0.001636
2526.98	0.001806
2536.62	0.002186
2546.27	0.002206
2555.91	0.001696
2565.56	0.001436
2575.2	0.001386
2584.85	0.001496
2594.49	0.001566
2604.14	0.001456
2613.78	0.001386
2623.43	0.001476
2633.07	0.001476
2642.72	0.001686
2652.36	0.001496
2662.01	0.001566
2671.65	0.001586
2681.29	0.001516
2690.94	0.001496
2700.58	0.001416
2710.23	0.001636
2719.87	0.001976
2729.52	0.002396
2739.16	0.002746
2748.81	0.003096
2758.45	0.003106
2768.1	0.003386
2777.74	0.003776
2787.39	0.004886
2797.03	0.006066
2806.68	0.007836
2816.32	0.010816
2825.97	0.016046
2835.61	0.030446
2845.26	0.041296
2854.9	0.038566
2864.55	0.042006
2874.19	0.050896
2883.84	0.054506
2893.48	0.045466
2903.12	0.049246
2912.77	0.067486
2922.41	0.090776
2932.06	0.115976
2941.7	0.123596
2951.35	0.104866
2960.99	0.097336
2970.64	0.100826
2980.28	0.074326
2989.93	0.049126
2999.57	0.054336
3009.22	0.050726
3018.86	0.034386
3028.51	0.037026
3038.15	0.035376
3047.8	0.021836
3057.44	0.017256
3067.09	0.017946
3076.73	0.017126
3086.38	0.013596
3096.02	0.012146
3105.67	0.010216
3115.31	0.007386
3124.95	0.005576
3134.6	0.004386
3144.24	0.003246
3153.89	0.002646
3163.53	0.002136
3173.18	0.001906
3182.82	0.001676
3192.47	0.001726
3202.11	0.001206
3211.76	0.0010896
3221.4	0.0009882
3231.05	0.0007906
3240.69	0.000683
3250.34	0.0005939
3259.98	0.0006791
3269.63	0.0004453
3279.27	0.0004716
3288.92	0.000352
3298.56	0.0004991
3308.21	0.000369
3317.85	0.0002584
3327.49	0.00020059
3337.14	0.0002298
3346.78	0.0002876
3356.43	0.00021574
3366.07	0.0002651
3375.72	0.00019317
3385.36	0.00019754
3395.01	0.00016556
3404.65	0.000291
3414.3	0.0002964
3423.94	6.93e-05
3433.59	9.25e-05
3443.23	0.0003306
3452.88	0.0004031
3462.52	0.0002869
3472.17	0.00021868
3481.81	6.24e-05
3491.46	0.00015682
3501.1	0.00020201
3510.75	0.00015735
3520.39	0.0003407
3530.04	0.0002138
3539.68	0.0002994
3549.32	0.00016827
3558.97	0.00015441
3568.61	8.59e-05
3578.26	0.00014655
3587.9	8.22e-05
3597.55	0.0002989
3607.19	0.0003301
3616.84	0.0002794
3626.48	0.00017723
3636.13	0.0004359
3645.77	0.0003245
3655.42	0.0002851
3665.06	0.0004984
3674.71	0.0004658
3684.35	0.0004715
3694	0.0003612
3703.64	0.0004483
3713.29	0.0002783
3722.93	0.0002802
3732.58	0.0003068
3742.22	0.0004448
3751.86	0.0003051
3761.51	0.0004613
3771.15	0.0007032
3780.8	0.0005553
3790.44	0.0004733
3800.09	0.0003291
3809.73	0.0003954
3819.38	0.0005706
3829.02	0.0006852
3838.67	0.0004375
3848.31	0.0005268
3857.96	0.0004739
3867.6	0.0006214
3877.25	0.0006051
3886.89	0.000649
3896.54	0.0004593
3906.18	0.0005324
3915.83	0.0005478
3925.47	0.000716
3935.12	0.0008141
3944.76	0.0009079
3954.41	0.000692
3964.05	0.0004685
3973.69	0.0006441
3983.34	0.0008107
3992.98	0.001286
