Infrared Spectrum: CINNAMYL ALCOHOL
Formula: C9 H10 O
CAS: 104-54-1
State: SOLUTION (10% CCl4 FOR 5000-1330, 10% CS2 FOR 1330-625 CM^-^1)
Class: COBLENTZ
Instrument: Not specified, most likely a prism, grating, or hybrid spectrometer.
Sampling: TRANSMISSION
Path length: 0.0120 CM, 0.0118 CM
Resolution: 4
Origin: DOW CHEMICAL COMPANY
MICROMETERS	TRANSMITTANCE
2.048	0.902
2.08911	0.899
2.13023	0.894
2.17134	0.899
2.21246	0.9
2.25357	0.892
2.29469	0.89
2.3358	0.894
2.37692	0.895
2.41803	0.883
2.45915	0.878
2.50026	0.9
2.54138	0.892
2.58249	0.897
2.62361	0.902
2.66472	0.89
2.70584	0.852
2.74695	0.711
2.78807	0.695
2.82918	0.588
2.8703	0.476
2.91141	0.36
2.95253	0.305
2.99364	0.283
3.03476	0.324
3.07587	0.429
3.11699	0.552
3.1581	0.652
3.19922	0.654
3.24033	0.547
3.28145	0.499
3.32256	0.572
3.36368	0.637
3.40479	0.538
3.44591	0.521
3.48702	0.552
3.52814	0.738
3.56925	0.789
3.61037	0.82
3.65148	0.83
3.6926	0.851
3.73371	0.859
3.77483	0.863
3.81594	0.87
3.85706	0.878
3.89817	0.883
3.93929	0.895
3.9804	0.892
4.02152	0.9
4.06263	0.902
4.10375	0.902
4.14486	0.899
4.18598	0.888
4.22709	0.902
4.26821	0.904
4.30932	0.905
4.35044	0.895
4.39155	0.904
4.43267	0.911
4.47378	0.921
4.5149	0.921
4.55601	0.923
4.59713	0.921
4.63824	0.919
4.67936	0.923
4.72047	0.923
4.76159	0.924
4.8027	0.924
4.84382	0.921
4.88493	0.921
4.92605	0.912
4.96716	0.904
5.00828	0.902
5.04939	0.9
5.09051	0.868
5.13162	0.849
5.17274	0.9
5.21385	0.912
5.25497	0.897
5.29608	0.871
5.3372	0.88
5.37831	0.911
5.41943	0.911
5.46054	0.894
5.50166	0.864
5.54277	0.849
5.58389	0.88
5.625	0.878
5.66612	0.883
5.70723	0.863
5.74835	0.866
5.78946	0.873
5.83058	0.863
5.87169	0.856
5.91281	0.832
5.95392	0.815
5.99504	0.803
6.03615	0.791
6.07727	0.859
6.11838	0.844
6.1595	0.815
6.20061	0.685
6.24173	0.611
6.28284	0.589
6.32396	0.56
6.36507	0.56
6.40619	0.507
6.4473	0.482
6.48842	0.56
6.52953	0.613
6.57065	0.661
6.61176	0.678
6.65288	0.492
6.69399	0.485
6.73511	0.752
6.77622	0.697
6.81734	0.622
6.85845	0.439
6.89957	0.567
6.94068	0.623
6.9818	0.608
7.02291	0.588
7.06403	0.57
7.10514	0.569
7.14626	0.555
7.18737	0.512
7.22849	0.471
7.2696	0.49
7.31072	0.567
7.35183	0.652
7.39295	0.673
7.43406	0.673
7.47518	0.67
7.51629	0.671
7.55741	0.682
7.59852	0.676
7.63963	0.651
7.68075	0.634
7.72186	0.656
7.76298	0.7
7.80409	0.707
7.84521	0.712
7.88632	0.74
7.92744	0.774
7.96855	0.784
8.00967	0.784
8.05078	0.781
8.0919	0.75
8.13301	0.721
8.17413	0.7
8.21524	0.682
8.25636	0.67
8.29747	0.67
8.33859	0.688
8.3797	0.712
8.42082	0.716
8.46193	0.724
8.50305	0.752
8.54416	0.779
8.58528	0.789
8.62639	0.777
8.66751	0.8
8.70862	0.83
8.74974	0.839
8.79085	0.841
8.83197	0.834
8.87308	0.817
8.9142	0.794
8.95531	0.764
8.99643	0.673
9.03754	0.507
9.07866	0.413
9.11977	0.319
9.16089	0.261
9.202	0.316
9.24312	0.526
9.28423	0.606
9.32535	0.504
9.36646	0.417
9.40758	0.564
9.44869	0.704
9.48981	0.748
9.53092	0.758
9.57204	0.745
9.61315	0.67
9.65427	0.541
9.69538	0.437
9.7365	0.372
9.77761	0.309
9.81873	0.242
9.85984	0.201
9.90096	0.191
9.94207	0.23
9.98319	0.268
10.0243	0.305
10.0654	0.36
10.1065	0.408
10.1476	0.396
10.1888	0.309
10.2299	0.29
10.271	0.268
10.3121	0.097
10.3532	0.03
10.3943	0.071
10.4355	0.234
10.4766	0.439
10.5177	0.557
10.5588	0.618
10.5999	0.647
10.641	0.67
10.6821	0.711
10.7233	0.74
10.7644	0.741
10.8055	0.719
10.8466	0.682
10.8877	0.685
10.9288	0.711
10.9699	0.719
11.0111	0.735
11.0522	0.781
11.0933	0.822
11.1344	0.842
11.1755	0.847
11.2166	0.847
11.2578	0.842
11.2989	0.822
11.34	0.811
11.3811	0.801
11.4222	0.789
11.4633	0.781
11.5044	0.764
11.5456	0.75
11.5867	0.736
11.6278	0.717
11.6689	0.705
11.71	0.695
11.7511	0.694
11.7922	0.705
11.8334	0.733
11.8745	0.736
11.9156	0.733
11.9567	0.731
11.9978	0.733
12.0389	0.745
12.0801	0.788
12.1212	0.803
12.1623	0.808
12.2034	0.806
12.2445	0.793
12.2856	0.788
12.3267	0.788
12.3679	0.788
12.409	0.784
12.4501	0.767
12.4912	0.747
12.5323	0.747
12.5734	0.753
12.6145	0.776
12.6557	0.782
12.6968	0.789
12.7379	0.788
12.779	0.784
12.8201	0.784
12.8612	0.777
12.9024	0.767
12.9435	0.752
12.9846	0.74
13.0257	0.729
13.0668	0.716
13.1079	0.692
13.149	0.663
13.1902	0.62
13.2313	0.555
13.2724	0.497
13.3135	0.393
13.3546	0.271
13.3957	0.169
13.4368	0.097
13.478	0.09
13.5191	0.119
13.5602	0.148
13.6013	0.153
13.6424	0.129
13.6835	0.107
13.7246	0.155
13.7658	0.282
13.8069	0.381
13.848	0.454
13.8891	0.49
13.9302	0.514
13.9713	0.524
14.0125	0.528
14.0536	0.521
14.0947	0.511
14.1358	0.49
14.1769	0.452
14.218	0.417
14.2591	0.364
14.3003	0.297
14.3414	0.222
14.3825	0.14
14.4236	0.075
14.4647	0.056
14.5058	0.082
14.5469	0.158
14.5881	0.251
14.6292	0.328
14.6703	0.379
14.7114	0.42
14.7525	0.432
14.7936	0.439
14.8348	0.441
14.8759	0.441
14.917	0.439
14.9581	0.435
14.9992	0.429
15.0403	0.418
15.0814	0.413
15.1226	0.411
15.1637	0.41
15.2048	0.408
15.2459	0.401
15.287	0.396
15.3281	0.394
15.3692	0.391
15.4104	0.388
15.4515	0.386
15.4926	0.384
15.5337	0.384
15.5748	0.382
15.6159	0.382
15.6571	0.382
15.6982	0.382
15.7393	0.382
15.7804	0.384
15.8215	0.388
15.8626	0.389
15.9037	0.393
