Infrared Spectrum: BENZENE, 1,4-DIBUTOXY
Formula: C14 H22 O2
CAS: 104-36-9
State: SOLUTION (10% IN CCl4 FOR 3800-1330, 10% IN CS2 FOR 1330-450 CM^-^1) VERSUS SOLVENT
Class: COBLENTZ
Instrument: Not specified, most likely a prism, grating, or hybrid spectrometer.
Sampling: TRANSMISSION
Path length: 0.010AND 0.010 CM
Resolution: 4
Origin: DOW CHEMICAL COMPANY
1/CM	TRANSMITTANCE
450.704	0.89
459.155	0.893
467.605	0.894
476.056	0.894
484.507	0.894
492.957	0.888
501.408	0.878
509.859	0.843
518.31	0.736
526.76	0.632
535.211	0.78
543.662	0.866
552.112	0.901
560.563	0.926
569.014	0.934
577.464	0.937
585.915	0.939
594.366	0.948
602.817	0.956
611.267	0.961
619.718	0.964
628.169	0.96
636.619	0.942
645.07	0.926
653.521	0.904
661.971	0.929
670.422	0.963
678.873	0.963
687.324	0.954
695.774	0.931
704.225	0.885
712.676	0.841
721.126	0.7521
729.577	0.711
738.028	0.714
746.478	0.796
754.929	0.762
763.38	0.758
771.831	0.613
780.281	0.806
788.732	0.742
797.183	0.837
805.633	0.7771
814.084	0.4022
822.535	0.1079
830.985	0.4558
839.436	0.597
847.887	0.676
856.338	0.707
864.788	0.685
873.239	0.658
881.69	0.79
890.14	0.86
898.591	0.877
907.042	0.8619
915.492	0.926
923.943	0.937
932.394	0.926
940.845	0.904
949.295	0.866
957.746	0.786
966.197	0.6721
974.647	0.4779
983.098	0.7199
991.549	0.761
999.999	0.743
1008.45	0.4141
1016.9	0.494
1025.35	0.3041
1033.8	0.326
1042.25	0.31
1050.7	0.5429
1059.15	0.5941
1067.61	0.3011
1076.06	0.4039
1084.51	0.7299
1092.96	0.793
1101.41	0.6171
1109.86	0.622
1118.31	0.638
1126.76	0.638
1135.21	0.838
1143.66	0.7511
1152.11	0.841
1160.56	0.853
1169.01	0.809
1177.46	0.84
1185.91	0.777
1194.37	0.506
1202.82	0.07
1211.27	0.052
1219.72	0.011
1228.17	0.001
1236.62	0.0269
1245.07	0.1959
1253.52	0.45
1261.97	0.556
1270.42	0.642
1278.87	0.67
1287.32	0.53
1295.77	0.622
1304.22	0.563
1312.68	0.6799
1321.13	0.752
1329.58	0.815
1338.03	0.834
1346.48	0.853
1354.93	0.871
1363.38	0.882
1371.83	0.824
1380.28	0.612
1388.73	0.4181
1397.18	0.5179
1405.63	0.7869
1414.08	0.831
1422.53	0.759
1430.99	0.7151
1439.44	0.7209
1447.89	0.653
1456.34	0.45
1464.79	0.243
1473.24	0.1059
1481.69	0.3345
1490.14	0.565
1498.59	0.3071
1507.04	0
1515.49	0.1029
1523.94	0.399
1532.39	0.462
1540.84	0.471
1549.29	0.448
1557.75	0.4929
1566.2	0.566
1574.65	0.609
1583.1	0.595
1591.55	0.5949
1600	0.758
1608.45	0.793
1616.9	0.83
1625.35	0.875
1633.8	0.897
1642.25	0.909
1650.7	0.919
1659.15	0.923
1667.6	0.925
1676.06	0.923
1684.51	0.925
1692.96	0.928
1701.41	0.929
1709.86	0.928
1718.31	0.922
1726.76	0.92
1735.21	0.923
1743.66	0.925
1752.11	0.928
1760.56	0.926
1769.01	0.928
1777.46	0.929
1785.91	0.922
1794.37	0.907
1802.82	0.913
1811.27	0.918
1819.72	0.918
1828.17	0.904
1836.62	0.877
1845.07	0.874
1853.52	0.9
1861.97	0.91
1870.42	0.907
1878.87	0.893
1887.32	0.912
1895.77	0.922
1904.22	0.926
1912.67	0.926
1921.13	0.925
1929.58	0.923
1938.03	0.918
1946.48	0.915
1954.93	0.918
1963.38	0.915
1971.83	0.91
1980.28	0.906
1988.73	0.901
1997.18	0.897
2005.63	0.919
2014.08	0.9095
2022.53	0.904
2030.98	0.9019
2039.44	0.898
2047.89	0.898
2056.34	0.9001
2064.79	0.9052
2073.24	0.916
2081.69	0.9256
2090.14	0.9294
2098.59	0.937
2107.04	0.9393
2115.49	0.9463
2123.94	0.95
2132.39	0.951
2140.84	0.9532
2149.29	0.956
2157.75	0.957
2166.2	0.9563
2174.65	0.953
2183.1	0.951
2191.55	0.951
2200	0.951
2208.45	0.953
2216.9	0.954
2225.35	0.956
2233.8	0.956
2242.25	0.9523
2250.7	0.9483
2259.15	0.9463
2267.6	0.9411
2276.05	0.937
2284.51	0.934
2292.96	0.934
2301.41	0.932
2309.86	0.9286
2318.31	0.928
2326.76	0.9344
2335.21	0.9469
2343.66	0.95
2352.11	0.9481
2360.56	0.9445
2369.01	0.941
2377.46	0.9345
2385.91	0.935
2394.36	0.937
2402.82	0.941
2411.27	0.95
2419.72	0.95
2428.17	0.9458
2436.62	0.9417
2445.07	0.932
2453.52	0.9177
2461.97	0.9186
2470.42	0.923
2478.87	0.93
2487.32	0.9355
2495.77	0.9434
2504.22	0.9454
2512.67	0.945
2521.13	0.9386
2529.58	0.932
2538.03	0.9357
2546.48	0.9418
2554.93	0.95
2563.38	0.95
2571.83	0.9441
2580.28	0.935
2588.73	0.934
2597.18	0.9366
2605.63	0.939
2614.08	0.944
2622.53	0.945
2630.98	0.947
2639.43	0.9462
2647.89	0.9422
2656.34	0.938
2664.79	0.937
2673.24	0.9346
2681.69	0.9311
2690.14	0.929
2698.59	0.928
2707.04	0.9222
2715.49	0.909
2723.94	0.887
2732.39	0.853
2740.84	0.8581
2749.29	0.8691
2757.74	0.875
2766.2	0.8812
2774.65	0.897
2783.1	0.891
2791.55	0.8858
2800	0.8705
2808.45	0.8483
2816.9	0.8232
2825.35	0.7787
2833.8	0.7162
2842.25	0.537
2850.7	0.4251
2859.15	0.3011
2867.6	0.1189
2876.05	0.1121
2884.51	0.3197
2892.96	0.2929
2901.41	0.206
2909.86	0.1862
2918.31	0.1595
2926.76	0.0688
2935.21	0.0628
2943.66	0.0886
2952.11	0.0359
2960.56	0.0315
2969.01	0.0947
2977.46	0.38
2985.91	0.5987
2994.36	0.7254
3002.82	0.7796
3011.27	0.8107
3019.72	0.8359
3028.17	0.8461
3036.62	0.8047
3045.07	0.707
3053.52	0.8085
3061.97	0.812
3070.42	0.8541
3078.87	0.901
3087.32	0.9095
3095.77	0.9
3104.22	0.9111
3112.67	0.9291
3121.12	0.931
3129.58	0.9421
3138.03	0.9493
3146.48	0.953
3154.93	0.954
3163.38	0.956
3171.83	0.957
3180.28	0.957
3188.73	0.959
3197.18	0.9602
3205.63	0.961
3214.08	0.963
3222.53	0.966
3230.98	0.969
3239.43	0.9744
3247.89	0.976
3256.34	0.976
3264.79	0.976
3273.24	0.976
3281.69	0.976
3290.14	0.9788
3298.59	0.979
3307.04	0.98
3315.49	0.979
3323.94	0.979
3332.39	0.9783
3340.84	0.98
3349.29	0.982
3357.74	0.98
3366.2	0.98
3374.65	0.9818
3383.1	0.983
3391.55	0.983
3400	0.982
3408.45	0.9801
3416.9	0.9834
3425.35	0.983
3433.8	0.982
3442.25	0.982
3450.7	0.982
3459.15	0.982
3467.6	0.982
3476.05	0.9819
3484.5	0.979
3492.96	0.978
3501.41	0.978
3509.86	0.978
3518.31	0.98
3526.76	0.9799
3535.21	0.978
3543.66	0.978
3552.11	0.978
3560.56	0.978
3569.01	0.978
3577.46	0.978
3585.91	0.978
3594.36	0.976
3602.81	0.975
3611.27	0.973
3619.72	0.972
3628.17	0.97
3636.62	0.97
3645.07	0.97
3653.52	0.97
3661.97	0.969
3670.42	0.967
3678.87	0.964
3687.32	0.967
3695.77	0.9707
3704.22	0.973
3712.67	0.9784
3721.12	0.979
3729.58	0.975
3738.03	0.975
3746.48	0.9768
3754.93	0.978
3763.38	0.9769
3771.83	0.976
3780.28	0.979
3788.73	0.979
