Infrared Spectrum: PIPERAZINE, 1-[2-(DIMETHYLAMINO)ETHYL]-4-METHYL-
Formula: C9 H21 N3
CAS: 104-19-8
State: LIQUID (NEAT)
Class: COBLENTZ III
Instrument: DOW KBr FOREPRISM-GRATING
Instrument parameters: BLAZED AT 3.5, 12.0, 20.0 MICRON AND CHANGED AT 5.0, 7.5, 14.9 MICRON
Sampling: TRANSMISSION
Path length: CAPILLARY
Resolution: 2
Origin: DOW CHEMICAL COMPANY
1/CM	TRANSMITTANCE
3806	0.8673
3797	0.8668
3788	0.8664
3779	0.8658
3770	0.8649
3761	0.8644
3752	0.8642
3743	0.8645
3734	0.8654
3725	0.8662
3716	0.8665
3707	0.8667
3698	0.8663
3689	0.8609
3680	0.8584
3671	0.8633
3662	0.8668
3653	0.861
3644	0.8596
3635	0.8573
3626	0.8553
3617	0.8513
3608	0.8471
3599	0.8433
3590	0.8398
3581	0.8363
3572	0.8303
3563	0.8234
3554	0.8171
3545	0.8115
3536	0.8058
3527	0.8003
3518	0.7954
3509	0.7904
3500	0.7855
3491	0.7807
3482	0.7765
3473	0.7724
3464	0.7684
3455	0.7649
3446	0.7621
3437	0.7594
3428	0.7581
3419	0.7574
3410	0.7567
3401	0.7558
3392	0.7555
3383	0.7551
3374	0.7554
3365	0.7557
3356	0.7561
3347	0.7575
3338	0.7588
3329	0.7603
3320	0.7621
3311	0.7641
3302	0.7647
3293	0.7649
3284	0.7651
3275	0.7651
3266	0.7653
3257	0.7674
3248	0.7699
3239	0.7718
3230	0.7735
3221	0.7751
3212	0.7769
3203	0.7796
3194	0.7821
3185	0.7864
3176	0.7914
3167	0.7964
3158	0.8014
3149	0.8062
3140	0.8111
3131	0.8161
3122	0.8194
3113	0.8216
3104	0.8235
3095	0.8246
3086	0.8252
3077	0.8255
3068	0.8232
3059	0.821
3050	0.8192
3041	0.8122
3032	0.8034
3023	0.7917
3014	0.7748
3005	0.6849
2996	0.5957
2987	0.4923
2978	0.2334
2969	0.1441
2960	0.1259
2951	0.0645
2942	0.0391
2933	0.0446
2924	0.1064
2915	0.1501
2906	0.1908
2897	0.2282
2888	0.2454
2879	0.2041
2870	0.2431
2861	0.2415
2852	0.219
2843	0.1501
2834	0.1255
2825	0.0562
2816	0.0361
2807	0.0288
2798	0.026
2789	0.0263
2780	0.0506
2771	0.048
2762	0.0432
2753	0.0824
2744	0.1483
2735	0.2647
2726	0.3344
2717	0.4057
2708	0.4571
2699	0.4675
2690	0.4234
2681	0.4617
2672	0.5497
2663	0.5969
2654	0.6537
2645	0.7046
2636	0.7436
2627	0.7718
2618	0.7969
2609	0.8128
2600	0.8263
2591	0.8361
2582	0.8425
2573	0.8443
2564	0.8375
2555	0.8289
2546	0.8367
2537	0.8421
2528	0.8449
2519	0.8452
2510	0.8441
2501	0.8425
2492	0.8468
2483	0.8536
2474	0.8606
2465	0.8656
2456	0.8688
2447	0.8718
2438	0.8748
2429	0.8799
2420	0.8837
2411	0.8864
2402	0.8871
2393	0.8865
2384	0.8804
2375	0.8625
2366	0.8709
2357	0.8814
2348	0.885
2339	0.8834
2330	0.8828
2321	0.8825
2312	0.8818
2303	0.8808
2294	0.8793
2285	0.878
2276	0.8825
2267	0.8868
2258	0.8901
2249	0.8931
2240	0.8936
2231	0.8939
2222	0.8942
2213	0.8935
2204	0.8925
2195	0.8909
2186	0.8912
2177	0.8921
2168	0.8931
2159	0.8939
2150	0.8948
2141	0.8953
2132	0.8958
2123	0.8962
2114	0.8974
2105	0.8978
2096	0.8978
2087	0.896
2078	0.8947
2069	0.8957
2060	0.8984
2051	0.9012
2042	0.9036
2033	0.9045
2024	0.9054
2015	0.9068
2006	0.9085
1997	0.9103
1988	0.9115
1979	0.9127
1970	0.9137
1961	0.9161
1952	0.9092
1943	0.9063
1934	0.9078
1925	0.91
1916	0.9125
1907	0.9149
1898	0.9187
1889	0.9199
1880	0.9189
1871	0.9145
1862	0.9104
1853	0.9062
1844	0.9009
1835	0.8967
1826	0.8948
1817	0.8947
1808	0.8944
1799	0.894
1790	0.8937
1781	0.893
1772	0.8924
1763	0.8917
1754	0.8911
1745	0.8903
1736	0.8864
1727	0.8873
1718	0.8798
1709	0.8777
1700	0.8677
1691	0.8411
1682	0.8202
1673	0.846
1664	0.8533
1655	0.8445
1646	0.8612
1637	0.8668
1628	0.8735
1619	0.8815
1610	0.8848
1601	0.8858
1592	0.8868
1583	0.8874
1574	0.8799
1565	0.8794
1556	0.8762
1547	0.879
1538	0.8678
1529	0.8645
1520	0.8547
1511	0.833
1502	0.8224
1493	0.7799
1484	0.6315
1475	0.3266
1466	0.1235
1457	0.1118
1448	0.2939
1439	0.4707
1430	0.691
1421	0.7511
1412	0.7768
1403	0.7725
1394	0.7808
1385	0.689
1376	0.37
1367	0.5862
1358	0.5574
1349	0.6686
1340	0.5766
1331	0.4995
1322	0.5422
1313	0.4499
1304	0.348
1295	0.2052
1286	0.1225
1277	0.4118
1268	0.494
1259	0.539
1250	0.6583
1241	0.7671
1232	0.7786
1223	0.7686
1214	0.7856
1205	0.75
1196	0.6684
1187	0.5943
1178	0.4649
1169	0.1085
1160	0.1829
1151	0.2446
1142	0.2434
1133	0.2865
1124	0.4223
1115	0.6603
1106	0.705
1097	0.5381
1088	0.5008
1079	0.6586
1070	0.653
1061	0.5608
1052	0.5096
1043	0.3886
1034	0.428
1025	0.3409
1016	0.1345
1007	0.7169
998	0.8034
989	0.8378
980	0.8328
971	0.7975
962	0.8131
953	0.8125
944	0.7711
935	0.7271
926	0.6567
917	0.7575
908	0.8274
899	0.8525
890	0.8545
881	0.8306
872	0.7131
863	0.6607
854	0.7546
845	0.7615
836	0.6928
827	0.5499
818	0.4506
809	0.5631
800	0.5196
791	0.5769
782	0.6447
773	0.7251
764	0.8111
755	0.848
746	0.8728
737	0.8901
728	0.8997
719	0.9059
710	0.9068
701	0.9048
692	0.9033
683	0.9018
674	0.9065
665	0.9147
656	0.9074
647	0.9043
638	0.9021
629	0.9025
620	0.8989
611	0.8985
602	0.9013
593	0.8944
584	0.8965
575	0.8907
566	0.8817
557	0.8733
548	0.8771
539	0.8824
530	0.8859
521	0.8821
512	0.8824
503	0.895
494	0.9051
485	0.906
476	0.8828
467	0.9143
458	0.9325
449	0.9295
440	0.9228
431	0.9233
422	0.9316
413	0.9401
404	0.9462
395	0.9538
386	0.9611
