Infrared Spectrum: 4-(Methylmercapto)aniline
Formula: C 7 H 9 N S
CAS: 104-96-1
State: gas
Origin: EPA-IR VAPOR PHASE LIBRARY
1/CM	ABSORBANCE
549.9	0.01541
559.547	0.01528
569.193	0.01511
578.84	0.01544
588.486	0.01583
598.133	0.01745
607.779	0.022
617.426	0.03567
627.072	0.0554
636.719	0.05021
646.365	0.03181
656.012	0.03547
665.658	0.0452
675.305	0.05267
684.951	0.04727
694.598	0.03476
704.245	0.02705
713.891	0.02304
723.538	0.02012
733.184	0.01759
742.831	0.01587
752.477	0.01558
762.124	0.01682
771.77	0.01904
781.417	0.02309
791.063	0.03187
800.71	0.04721
810.356	0.06458
820.003	0.06757
829.649	0.04846
839.296	0.0284
848.943	0.01728
858.589	0.0129
868.236	0.01049
877.882	0.0092
887.529	0.00842
897.175	0.00785
906.822	0.00788
916.468	0.00775
926.115	0.00785
935.761	0.00869
945.408	0.01076
955.054	0.01587
964.701	0.02414
974.347	0.02101
983.994	0.01143
993.64	0.00911
1003.29	0.01083
1012.93	0.01145
1022.58	0.00976
1032.23	0.00894
1041.87	0.00959
1051.52	0.01065
1061.17	0.01129
1070.81	0.01174
1080.46	0.01342
1090.11	0.01768
1099.75	0.02033
1109.4	0.01853
1119.05	0.0173
1128.69	0.01427
1138.34	0.01048
1147.99	0.0073
1157.63	0.00638
1167.28	0.01559
1176.92	0.03036
1186.57	0.02313
1196.22	0.00577
1205.86	0.00514
1215.51	0.0056
1225.16	0.00717
1234.8	0.01184
1244.45	0.02425
1254.1	0.05211
1263.74	0.09722
1273.39	0.12967
1283.04	0.09437
1292.68	0.0294
1302.33	0.01252
1311.98	0.01189
1321.62	0.01082
1331.27	0.00736
1340.92	0.00543
1350.56	0.00427
1360.21	0.00366
1369.86	0.00372
1379.5	0.00402
1389.15	0.00485
1398.79	0.00658
1408.44	0.00963
1418.09	0.0143
1427.73	0.02023
1437.38	0.02672
1447.03	0.02491
1456.67	0.01755
1466.32	0.01649
1475.97	0.03404
1485.61	0.10856
1495.26	0.16333
1504.91	0.10078
1514.55	0.02819
1524.2	0.01938
1533.85	0.0153
1543.49	0.01271
1553.14	0.01287
1562.79	0.01532
1572.43	0.01898
1582.08	0.02824
1591.73	0.05213
1601.37	0.06468
1611.02	0.08315
1620.67	0.12521
1630.31	0.1097
1639.96	0.04863
1649.6	0.01997
1659.25	0.0122
1668.9	0.00973
1678.54	0.0084
1688.19	0.00761
1697.84	0.00736
1707.48	0.00668
1717.13	0.00579
1726.78	0.00478
1736.42	0.00451
1746.07	0.00419
1755.72	0.00332
1765.36	0.00236
1775.01	0.0020623
1784.66	0.0020091
1794.3	0.0020032
1803.95	0.0022109
1813.6	0.00243
1823.24	0.00264
1832.89	0.00318
1842.54	0.00392
1852.18	0.00477
1861.83	0.00585
1871.47	0.00646
1881.12	0.00591
1890.77	0.00462
1900.41	0.00356
1910.06	0.00304
1919.71	0.00259
1929.35	0.00235
1939	0.0023159
1948.65	0.00239
1958.29	0.002276
1967.94	0.0020755
1977.59	0.0018492
1987.23	0.0019108
1996.88	0.0020372
2006.53	0.0022993
2016.17	0.00248
2025.82	0.00251
2035.47	0.00237
2045.11	0.0022714
2054.76	0.0022632
2064.41	0.00237
2074.05	0.0022087
2083.7	0.002083
2093.35	0.0019992
2102.99	0.0019641
2112.64	0.0017193
2122.28	0.0012701
2131.93	0.001013
2141.58	0.000909
2151.22	0.000902
2160.87	0.000951
2170.52	0.001071
2180.16	0.001141
2189.81	0.001099
2199.46	0.00097
2209.1	0.000973
2218.75	0.001053
2228.4	0.001044
2238.04	0.001116
2247.69	0.00139446
2257.34	0.0016526
2266.98	0.001804
2276.63	0.0016966
2286.28	0.0016166
2295.92	0.0016786
2305.57	0.0016907
2315.22	0.0016964
2324.86	0.0015116
2334.51	0.001129
2344.16	0.000906
2353.8	0.000876
2363.45	0.000999
2373.09	0.000995
2382.74	0.001116
2392.39	0.00118
2402.03	0.0012672
2411.68	0.0012354
2421.33	0.001183
2430.97	0.001143
2440.62	0.00108
2450.27	0.00097
2459.91	0.000738
2469.56	0.000494
2479.21	0.000372
2488.85	0.000359
2498.5	0.00041
2508.15	0.000629
2517.79	0.000848
2527.44	0.0012326
2537.09	0.0015859
2546.73	0.0016525
2556.38	0.0013078
2566.03	0.001031
2575.67	0.001017
2585.32	0.001096
2594.96	0.001042
2604.61	0.000824
2614.26	0.00062
2623.9	0.000469
2633.55	0.000408
2643.2	0.000354
2652.84	0.000417
2662.49	0.000417
2672.14	0.000461
2681.78	0.00053
2691.43	0.000702
2701.08	0.000659
2710.72	0.000378
2720.37	0.00031
2730.02	0.00031
2739.66	0.000326
2749.31	0.000364
2758.96	0.000407
2768.6	0.00034
2778.25	0.00021
2787.9	0.00026
2797.54	0.000482
2807.19	0.001073
2816.84	0.0019656
2826.48	0.00368
2836.13	0.00594
2845.77	0.00776
2855.42	0.00715
2865.07	0.00575
2874.71	0.00542
2884.36	0.00542
2894.01	0.00624
2903.65	0.00895
2913.3	0.01578
2922.95	0.03307
2932.59	0.03707
2942.24	0.02096
2951.89	0.0109
2961.53	0.00904
2971.18	0.01094
2980.83	0.01716
2990.47	0.02493
3000.12	0.02309
3009.77	0.01843
3019.41	0.02698
3029.06	0.03953
3038.71	0.03389
3048.35	0.02133
3058	0.01942
3067.64	0.01766
3077.29	0.01694
3086.94	0.0153
3096.58	0.01135
3106.23	0.00712
3115.88	0.00361
3125.52	0.0024
3135.17	0.0016681
3144.82	0.0012523
3154.46	0.000569
3164.11	0.000331
3173.76	0.00026
3183.4	0.00044
3193.05	0.000681
3202.7	0.0013045
3212.34	0.0018692
3221.99	0.0019546
3231.64	0.0017911
3241.28	0.001167
3250.93	0.000808
3260.58	0.000431
3270.22	0.00024
3279.87	2e-05
3289.52	0.00016
3299.16	8e-05
3308.81	8e-05
3318.45	0.00014
3328.1	0.00023
3337.75	0.00014
3347.39	0.000359
3357.04	0.000761
3366.69	0.001191
3376.33	0.0022249
3385.98	0.00447
3395.63	0.01013
3405.27	0.01724
3414.92	0.01956
3424.57	0.01328
3434.21	0.00591
3443.86	0.00312
3453.51	0.0032
3463.15	0.00406
3472.8	0.00595
3482.45	0.00851
3492.09	0.01006
3501.74	0.01005
3511.39	0.00773
3521.03	0.00518
3530.68	0.0027
3540.33	0.0015856
3549.97	0.000988
3559.62	0.000871
3569.26	0.00065
3578.91	0.000694
3588.56	0.000616
3598.2	0.000618
3607.85	0.000598
3617.5	0.000736
3627.14	0.000823
3636.79	0.000644
3646.44	0.000922
3656.08	0.000817
3665.73	0.000996
3675.38	0.000953
3685.02	0.000922
3694.67	0.00086
3704.32	0.000949
3713.96	0.001016
3723.61	0.000933
3733.26	0.000863
3742.9	0.000878
3752.55	0.00088
3762.2	0.000863
3771.84	0.000925
3781.49	0.000879
3791.13	0.000751
3800.78	0.000892
3810.43	0.000895
3820.07	0.000892
3829.72	0.001071
3839.37	0.00139831
3849.01	0.0019665
3858.66	0.00248
3868.31	0.0024
3877.95	0.0017758
3887.6	0.0015486
3897.25	0.0013854
3906.89	0.001167
3916.54	0.0012356
3926.19	0.001166
3935.83	0.00140155
3945.48	0.0014897
3955.13	0.0014525
3964.77	0.0012904
3974.42	0.001082
3984.07	0.000926
3993.71	0.000889
