Infrared Spectrum: p-Methylphenylacetaldehyde
Formula: C 9 H 10 O
CAS: 104-09-6
State: gas
Origin: EPA-IR VAPOR PHASE LIBRARY
1/CM	ABSORBANCE
549.8	0.003122
559.445	0.001872
569.09	0.001792
578.734	0.001392
588.379	0.001472
598.024	0.0009458
607.669	0.0009488
617.313	0.0008084
626.958	0.0009348
636.603	0.0007849
646.248	0.0012707
655.893	0.001562
665.537	0.001912
675.182	0.002732
684.827	0.005982
694.472	0.010682
704.116	0.010042
713.761	0.006472
723.406	0.005542
733.051	0.007362
742.695	0.009842
752.34	0.009642
761.985	0.010532
771.63	0.013352
781.275	0.011962
790.919	0.008292
800.564	0.006182
810.209	0.005212
819.854	0.003552
829.498	0.002352
839.143	0.001692
848.788	0.001492
858.433	0.002132
868.078	0.002672
877.722	0.002782
887.367	0.002352
897.012	0.002322
906.657	0.002812
916.301	0.003512
925.946	0.003492
935.591	0.003532
945.236	0.003662
954.88	0.003212
964.525	0.003162
974.17	0.003412
983.815	0.003792
993.46	0.004892
1003.1	0.005982
1012.75	0.008572
1022.39	0.013282
1032.04	0.016522
1041.68	0.015292
1051.33	0.009992
1060.97	0.006442
1070.62	0.004312
1080.26	0.003962
1089.91	0.004482
1099.55	0.004442
1109.2	0.004262
1118.84	0.003452
1128.49	0.003242
1138.13	0.002882
1147.78	0.002862
1157.42	0.003162
1167.07	0.003872
1176.71	0.003672
1186.36	0.003692
1196	0.003092
1205.64	0.003062
1215.29	0.002702
1224.93	0.002392
1234.58	0.002082
1244.22	0.001762
1253.87	0.001802
1263.51	0.001602
1273.16	0.002452
1282.8	0.002662
1292.45	0.003152
1302.09	0.003382
1311.74	0.003742
1321.38	0.003592
1331.03	0.003092
1340.67	0.002742
1350.32	0.002572
1359.96	0.002812
1369.61	0.003702
1379.25	0.005542
1388.9	0.006732
1398.54	0.006442
1408.18	0.007082
1417.83	0.008462
1427.47	0.008702
1437.12	0.008002
1446.76	0.007262
1456.41	0.006632
1466.05	0.006522
1475.7	0.007962
1485.34	0.010992
1494.99	0.011772
1504.63	0.010772
1514.28	0.010652
1523.92	0.007792
1533.57	0.004312
1543.21	0.003392
1552.86	0.002962
1562.5	0.003062
1572.15	0.004082
1581.79	0.005912
1591.44	0.008462
1601.08	0.012432
1610.73	0.012942
1620.37	0.007582
1630.01	0.003192
1639.66	0.002482
1649.3	0.002512
1658.95	0.003022
1668.59	0.003972
1678.24	0.005252
1687.88	0.007542
1697.53	0.010992
1707.17	0.015812
1716.82	0.024352
1726.46	0.049512
1736.11	0.100222
1745.75	0.107062
1755.4	0.050802
1765.04	0.025462
1774.69	0.016542
1784.33	0.011332
1793.98	0.007882
1803.62	0.005242
1813.27	0.003792
1822.91	0.003062
1832.55	0.002782
1842.2	0.002712
1851.84	0.002672
1861.49	0.002692
1871.13	0.002332
1880.78	0.001992
1890.42	0.001852
1900.07	0.001792
1909.71	0.001582
1919.36	0.001562
1929	0.001622
1938.65	0.001632
1948.29	0.0012516
1957.94	0.0008241
1967.58	0.0006906
1977.23	0.0006585
1986.87	0.0005964
1996.52	0.0006028
2006.16	0.0006249
2015.81	0.0007234
2025.45	0.0005946
2035.1	0.0006944
2044.74	0.0006096
2054.38	0.0006219
2064.03	0.0006211
2073.67	0.0005817
2083.32	0.0005999
2092.96	0.00041037
2102.61	0.00042266
2112.25	0.00042023
2121.9	0.0003326
2131.54	0.00038839
2141.19	0.00042096
2150.83	0.0002914
2160.48	0.00039074
2170.12	0.00043265
2179.77	0.00041805
2189.41	0.0004877
2199.06	0.0003531
2208.7	0.00040257
2218.35	0.0002982
2227.99	0.0003464
2237.64	0.0003317
2247.28	0.00036234
2256.92	0.000381189
2266.57	0.0003156
2276.21	0.00038282
2285.86	0.0003224
2295.5	0.00044284
2305.15	0.0005028
2314.79	0.0005149
2324.44	0.0004973
2334.08	0.0005278
2343.73	0.0005234
2353.37	0.0005684
2363.02	0.00041865
2372.66	0.000356
2382.31	0.0002892
2391.95	0.0003581
2401.6	0.00038558
2411.24	0.00038539
2420.89	0.0005058
2430.53	0.0005144
2440.18	0.0005324
2449.82	0.00041938
2459.47	0.0005174
2469.11	0.0004493
2478.75	0.0003134
2488.4	0.0003482
2498.04	0.00036868
2507.69	0.00039326
2517.33	0.00042587
2526.98	0.000371076
2536.62	0.00043226
2546.27	0.0005566
2555.91	0.0004018
2565.56	0.0006767
2575.2	0.0008262
2584.85	0.0009685
2594.49	0.0010166
2604.14	0.0010181
2613.78	0.0013141
2623.43	0.001392
2633.07	0.001762
2642.72	0.002302
2652.36	0.003282
2662.01	0.004382
2671.65	0.005572
2681.29	0.007302
2690.94	0.009842
2700.58	0.013492
2710.23	0.018072
2719.87	0.018142
2729.52	0.014442
2739.16	0.011332
2748.81	0.010362
2758.45	0.009782
2768.1	0.009492
2777.74	0.009752
2787.39	0.011522
2797.03	0.015452
2806.68	0.019542
2816.32	0.017712
2825.97	0.013202
2835.61	0.009922
2845.26	0.008892
2854.9	0.008822
2864.55	0.010152
2874.19	0.011772
2883.84	0.012272
2893.48	0.012692
2903.12	0.014962
2912.77	0.018672
2922.41	0.021632
2932.06	0.021792
2941.7	0.018692
2951.35	0.013902
2960.99	0.010772
2970.64	0.008672
2980.28	0.008152
2989.93	0.008672
2999.57	0.010182
3009.22	0.013412
3018.86	0.018732
3028.51	0.023032
3038.15	0.021112
3047.8	0.017412
3057.44	0.016372
3067.09	0.015472
3076.73	0.011442
3086.38	0.007562
3096.02	0.005242
3105.67	0.004092
3115.31	0.002992
3124.95	0.001972
3134.6	0.001412
3144.24	0.0010277
3153.89	0.0008162
3163.53	0.0008064
3173.18	0.00044888
3182.82	0.00042489
3192.47	0.00042067
3202.11	0.000188
3211.76	0.0003198
3221.4	7.8e-05
3231.05	0.00038847
3240.69	0.000193
3250.34	9.8e-05
3259.98	0.0003004
3269.63	0.0003037
3279.27	0.000153
3288.92	0.0003254
3298.56	6.3e-05
3308.21	0.000253
3317.85	0.000207
3327.49	0.000276
3337.14	0.00023
3346.78	0.0003061
3356.43	0.000266
3366.07	0.0003866
3375.72	0.00043334
3385.36	0.00036944
3395.01	0.000258
3404.65	0.0004933
3414.3	0.0004778
3423.94	0.0008329
3433.59	0.0011362
3443.23	0.001552
3452.88	0.002132
3462.52	0.002412
3472.17	0.002202
3481.81	0.001412
3491.46	0.0011519
3501.1	0.0009308
3510.75	0.0006429
3520.39	0.00047148
3530.04	0.000338
3539.68	0.0005646
3549.32	8.8e-05
3558.97	0.00041016
3568.61	0.000512
3578.26	0.0003013
3587.9	0.0002957
3597.55	0.000255
3607.19	0.000138
3616.84	0.0004194
3626.48	0.00032
3636.13	0.000194
3645.77	0.000133
3655.42	0.0004812
3665.06	0.000256
3674.71	0.0003151
3684.35	0.0003391
3694	0.000216
3703.64	0.00036683
3713.29	0.0003422
3722.93	0.000256
3732.58	0.000209
3742.22	0.00039183
3751.86	0.0004853
3761.51	0.000215
3771.15	0.000245
3780.8	0.000232
3790.44	0.000205
3800.09	0.00019
3809.73	0.00042515
3819.38	0.000133
3829.02	0.000215
3838.67	0.0003335
3848.31	0.000206
3857.96	0.00021
3867.6	0.0002801
3877.25	0.0003346
3886.89	0.000163
3896.54	0.000152
3906.18	0.0002935
3915.83	0.0005771
3925.47	0.00044644
3935.12	0.0006261
3944.76	0.0003492
3954.41	0.0002866
3964.05	0.000266
3973.69	0.0002991
3983.34	0
3992.98	0.0005543
