Infrared Spectrum: PROPENALDEHYDE, 3-PHENYL-
Formula: C9 H8 O
CAS: 104-55-2
State: VAPOR (4 MICROLITER AT 150 C)
Boiling point: 248 C
Class: COBLENTZ
Instrument: PERKIN-ELMER 180
Sampling: TRANSMISSION
Path length: 5 CM KBr CELL, CELL VOLUME: 80 CM^3
Resolution: 2-3 CM^-^1
Origin: PERKIN-ELMER CORP. (M. ZELLER)
1/CM	TRANSMITTANCE
400	0.398
409.524	0.4909
419.048	0.544
428.572	0.608
438.095	0.654
447.619	0.696
457.143	0.734
466.667	0.761
476.191	0.783
485.715	0.796
495.239	0.803
504.762	0.799
514.286	0.81
523.81	0.813
533.334	0.818
542.858	0.819
552.382	0.818
561.906	0.815
571.429	0.799
580.953	0.813
590.477	0.821
600.001	0.825
609.525	0.834
619.049	0.833
628.572	0.84
638.096	0.84
647.62	0.834
657.144	0.821
666.668	0.789
676.192	0.756
685.716	0.735
695.239	0.761
704.763	0.78
714.287	0.766
723.811	0.738
733.335	0.689
742.859	0.699
752.383	0.76
761.906	0.802
771.43	0.819
780.954	0.819
790.478	0.822
800.002	0.822
809.526	0.825
819.05	0.83
828.573	0.829
838.097	0.831
847.621	0.834
857.145	0.827
866.669	0.827
876.193	0.836
885.717	0.831
895.24	0.836
904.764	0.83
914.288	0.833
923.812	0.827
933.336	0.818
942.86	0.791
952.384	0.7311
961.907	0.68
971.431	0.704
980.955	0.753
990.479	0.783
1000	0.785
1009.53	0.781
1019.05	0.772
1028.57	0.788
1038.1	0.792
1047.62	0.785
1057.15	0.769
1066.67	0.753
1076.19	0.727
1085.72	0.647
1095.24	0.56
1104.77	0.479
1114.29	0.472
1123.81	0.655
1133.34	0.756
1142.86	0.762
1152.38	0.761
1161.91	0.772
1171.43	0.772
1180.96	0.779
1190.48	0.785
1200	0.789
1209.53	0.788
1219.05	0.78
1228.58	0.779
1238.1	0.777
1247.62	0.781
1257.15	0.781
1266.67	0.771
1276.19	0.749
1285.72	0.749
1295.24	0.758
1304.77	0.766
1314.29	0.768
1323.81	0.773
1333.34	0.775
1342.86	0.772
1352.39	0.766
1361.91	0.761
1371.43	0.754
1380.96	0.757
1390.48	0.757
1400	0.771
1409.53	0.773
1419.05	0.768
1428.58	0.753
1438.1	0.735
1447.62	0.742
1457.15	0.768
1466.67	0.773
1476.2	0.771
1485.72	0.742
1495.24	0.762
1504.77	0.779
1514.29	0.783
1523.81	0.779
1533.34	0.772
1542.86	0.768
1552.39	0.758
1561.91	0.734
1571.43	0.718
1580.96	0.73
1590.48	0.723
1600.01	0.663
1609.53	0.597
1619.05	0.569
1628.58	0.597
1638.1	0.704
1647.62	0.72
1657.15	0.711
1666.67	0.688
1676.2	0.631
1685.72	0.482
1695.24	0.222
1704.77	0.1
1714.29	0.356
1723.82	0.613
1733.34	0.712
1742.86	0.731
1752.39	0.747
1761.91	0.768
1771.43	0.781
1780.96	0.788
1790.48	0.788
1800.01	0.794
1809.53	0.802
1819.05	0.808
1828.58	0.81
1838.1	0.811
1847.63	0.808
1857.15	0.81
1866.67	0.808
1876.2	0.803
1885.72	0.803
1895.24	0.804
1904.77	0.806
1914.29	0.803
1923.82	0.802
1933.34	0.796
1942.86	0.798
1952.39	0.791
1961.91	0.799
1971.44	0.802
1980.96	0.799
1990.48	0.799
2000.01	0.798
2009.53	0.7984
2019.06	0.7959
2028.58	0.794
2038.1	0.7952
2047.63	0.799
2057.15	0.8
2066.67	0.799
2076.2	0.7971
2085.72	0.795
2095.25	0.792
2104.77	0.794
2114.29	0.795
2123.82	0.795
2133.34	0.7942
2142.87	0.794
2152.39	0.791
2161.91	0.788
2171.44	0.785
2180.96	0.7824
2190.48	0.7788
2200.01	0.7767
2209.53	0.7792
2219.06	0.783
2228.58	0.783
2238.1	0.7839
2247.63	0.7844
2257.15	0.785
2266.68	0.787
2276.2	0.7839
2285.72	0.78
2295.25	0.78
2304.77	0.776
2314.29	0.7753
2323.82	0.7788
2333.34	0.7779
2342.87	0.773
2352.39	0.7733
2361.91	0.7712
2371.44	0.779
2380.96	0.7774
2390.49	0.772
2400.01	0.777
2409.53	0.771
2419.06	0.779
2428.58	0.772
2438.1	0.772
2447.63	0.772
2457.15	0.7697
2466.68	0.769
2476.2	0.7713
2485.72	0.772
2495.25	0.769
2504.77	0.7697
2514.3	0.766
2523.82	0.771
2533.34	0.771
2542.87	0.7623
2552.39	0.7602
2561.91	0.762
2571.44	0.7653
2580.96	0.768
2590.49	0.7656
2600.01	0.762
2609.53	0.7605
2619.06	0.761
2628.58	0.76
2638.11	0.7578
2647.63	0.754
2657.15	0.7487
2666.68	0.7332
2676.2	0.7226
2685.72	0.704
2695.25	0.6973
2704.77	0.6829
2714.3	0.6577
2723.82	0.643
2733.34	0.6663
2742.87	0.7093
2752.39	0.73
2761.92	0.7328
2771.44	0.7081
2780.96	0.6744
2790.49	0.6359
2800.01	0.6466
2809.53	0.6667
2819.06	0.6753
2828.58	0.7003
2838.11	0.7137
2847.63	0.719
2857.15	0.712
2866.68	0.72
2876.2	0.72
2885.73	0.7183
2895.25	0.7148
2904.77	0.7102
2914.3	0.707
2923.82	0.7098
2933.35	0.712
2942.87	0.708
2952.39	0.7004
2961.92	0.7052
2971.44	0.706
2980.96	0.6966
2990.49	0.7001
3000.01	0.703
3009.54	0.6845
3019.06	0.6622
3028.58	0.651
3038.11	0.674
3047.63	0.6639
3057.16	0.624
3066.68	0.629
3076.2	0.6666
3085.73	0.6777
3095.25	0.6946
3104.77	0.7083
3114.3	0.715
3123.82	0.7186
3133.35	0.7177
3142.87	0.714
3152.39	0.7192
3161.92	0.72
3171.44	0.72
3180.97	0.72
3190.49	0.72
3200.01	0.72
3209.54	0.718
3219.06	0.7181
3228.58	0.7197
3238.11	0.7148
3247.63	0.7188
3257.16	0.7217
3266.68	0.7178
3276.2	0.7186
3285.73	0.718
3295.25	0.718
3304.78	0.718
3314.3	0.718
3323.82	0.716
3333.35	0.712
3342.87	0.7143
3352.39	0.714
3361.92	0.7076
3371.44	0.703
3380.97	0.7027
3390.49	0.712
3400.01	0.714
3409.54	0.714
3419.06	0.7148
3428.59	0.7183
3438.11	0.722
3447.63	0.7175
3457.16	0.72
3466.68	0.72
3476.2	0.719
3485.73	0.716
3495.25	0.719
3504.78	0.716
3514.3	0.718
3523.82	0.7115
3533.35	0.714
3542.87	0.712
3552.4	0.71
3561.92	0.6999
3571.44	0.7076
3580.97	0.7165
3590.49	0.719
3600.01	0.716
3609.54	0.7113
3619.06	0.7057
3628.59	0.704
3638.11	0.7076
3647.63	0.708
3657.16	0.708
3666.68	0.7066
3676.21	0.703
3685.73	0.703
3695.25	0.701
3704.78	0.701
3714.3	0.701
3723.82	0.701
3733.35	0.701
3742.87	0.703
3752.4	0.703
3761.92	0.703
3771.44	0.7023
3780.97	0.7001
3790.49	0.699
3800.02	0.697
3809.54	0.696
3819.06	0.696
3828.59	0.695
3838.11	0.693
3847.63	0.693
3857.16	0.693
3866.68	0.693
3876.21	0.695
3885.73	0.693
3895.25	0.688
3904.78	0.6932
3914.3	0.6937
3923.83	0.689
3933.35	0.689
3942.87	0.688
3952.4	0.6906
3961.92	0.689
3971.45	0.689
3980.97	0.693
