Infrared Spectrum: Hydrocinnamaldehyde
Formula: C 9 H 10 O
CAS: 104-53-0
State: gas
Instrument: HP-GC/MS/IRD
Origin: NIST Mass Spectrometry Data Center
1/CM	ABSORBANCE
550	0.0006325
562	0.0007291
574	0.0004485
586	0.0002392
598	0.0001541
610	0
622	9.2e-05
634	0.0001656
646	0.0004347
658	0.0006854
670	0.0016215
682	0.0039192
694	0.0070518
706	0.0064745
718	0.0048484
730	0.0050968
742	0.0054625
754	0.00322
766	0.0014099
778	0.0006946
790	0.0004945
802	0.0005497
814	0.0006095
826	0.0007475
838	0.001104
850	0.0013018
862	0.0009844
874	0.0008418
886	0.0007452
898	0.0007682
910	0.0009315
922	0.0006785
934	0.00046
946	0.0003404
958	0.0003772
970	0.0004002
982	0.0007314
994	0.0009453
1006	0.0011983
1018	0.0016468
1030	0.0022103
1042	0.0021551
1054	0.0020976
1066	0.0018216
1078	0.001518
1090	0.0011385
1102	0.0007797
1114	0.0005267
1126	0.0004439
1138	0.0004186
1150	0.0004761
1162	0.0005842
1174	0.0008211
1186	0.0008487
1198	0.0007912
1210	0.0005888
1222	0.0006026
1234	0.0005612
1246	0.0005934
1258	0.0006141
1270	0.0007107
1282	0.0005888
1294	0.0006371
1306	0.0007659
1318	0.0009453
1330	0.0013248
1342	0.0016077
1354	0.0014398
1366	0.0011431
1378	0.00138
1390	0.0018492
1402	0.0017434
1414	0.0020677
1426	0.0021873
1438	0.0022172
1450	0.0026795
1462	0.0020516
1474	0.0011431
1486	0.0019044
1498	0.0032637
1510	0.0012466
1522	0.0004163
1534	0.0003197
1546	0.0003082
1558	0.0002967
1570	0.0004278
1582	0.0007406
1594	0.0015364
1606	0.0018883
1618	0.0008533
1630	0.0004945
1642	0.0005175
1654	0.0006417
1666	0.0008855
1678	0.0013248
1690	0.0022471
1702	0.0036064
1714	0.0056373
1726	0.0109848
1738	0.0216706
1750	0.0196949
1762	0.0092
1774	0.0050623
1786	0.0032982
1798	0.002231
1810	0.0013432
1822	0.0009085
1834	0.0006716
1846	0.0006049
1858	0.0005796
1870	0.000598
1882	0.0005405
1894	0.0003588
1906	0.0002438
1918	0.0003197
1930	0.00046
1942	0.0005566
1954	0.0005313
1966	0.0002346
1978	5.98e-05
1990	8.28e-05
2002	3.68e-05
2014	6.67e-05
2026	4.83e-05
2038	4.6e-05
2050	2.76e-05
2062	2.99e-05
2074	2.07e-05
2086	3.45e-05
2098	1.84e-05
2110	3.22e-05
2122	3.68e-05
2134	9.2e-06
2146	2.99e-05
2158	1.84e-05
2170	0
2182	1.61e-05
2194	4.83e-05
2206	4.83e-05
2218	4.14e-05
2230	0
2242	2.3e-06
2254	1.15e-05
2266	1.61e-05
2278	2.3e-05
2290	1.38e-05
2302	8.51e-05
2314	7.82e-05
2326	8.97e-05
2338	3.91e-05
2350	5.29e-05
2362	3.45e-05
2374	1.61e-05
2386	2.3e-06
2398	1.84e-05
2410	2.07e-05
2422	3.45e-05
2434	1.84e-05
2446	2.76e-05
2458	6.67e-05
2470	2.76e-05
2482	4.37e-05
2494	0
2506	4.6e-06
2518	2.53e-05
2530	4.14e-05
2542	6.21e-05
2554	7.82e-05
2566	0.0001265
2578	0.0001725
2590	0.0002921
2602	0.0003772
2614	0.0004715
2626	0.0005543
2638	0.0007176
2650	0.0009453
2662	0.0012788
2674	0.00184
2686	0.0028428
2698	0.00483
2710	0.00782
2722	0.0065067
2734	0.0039353
2746	0.0029118
2758	0.0024518
2770	0.0024748
2782	0.003036
2794	0.0042895
2806	0.0058834
2818	0.0055407
2830	0.003565
2842	0.0025806
2854	0.0022793
2866	0.0023989
2878	0.0025461
2890	0.0029923
2902	0.0038801
2914	0.0042366
2926	0.0045287
2938	0.0049013
2950	0.0044068
2962	0.0032913
2974	0.0021114
2986	0.0013179
2998	0.001288
3010	0.0021252
3022	0.0040894
3034	0.0061686
3046	0.0047426
3058	0.0039238
3070	0.0057868
3082	0.0048254
3094	0.0030314
3106	0.0019458
3118	0.0010212
3130	0.00046
3142	0.0002737
3154	0.0001863
3166	0.0001403
3178	0.0001311
3190	1.84e-05
3202	6.9e-05
3214	9.43e-05
3226	6.9e-05
3238	2.3e-06
3250	5.98e-05
3262	8.05e-05
3274	6.67e-05
3286	5.06e-05
3298	6.44e-05
3310	9.2e-05
3322	4.6e-05
3334	6.9e-05
3346	0.0001104
3358	3.22e-05
3370	0.0001104
3382	0.0001104
3394	0.0001288
3406	0.0001058
3418	0.0001564
3430	0.0002852
3442	0.0003703
3454	0.0004968
3466	0.0006417
3478	0.0004554
3490	0.0004117
3502	0.0003128
3514	0.0002369
3526	0.0001541
3538	0.000161
3550	0.0001817
3562	0.0001219
3574	0.0001127
3586	0.0001748
3598	0.0002254
3610	0.0001633
3622	0.0001771
3634	0.0002001
3646	0.0001679
3658	0.0001196
3670	0.0001357
3682	5.52e-05
3694	0.0001012
3706	0.0002024
3718	0.0001081
3730	0.0001265
3742	9.89e-05
3754	0.0001656
3766	0.0001403
3778	0.0001725
3790	0.0001771
3802	0.0001702
3814	0.000115
3826	0.0001288
3838	0.0002116
