Infrared Spectrum: P-CRESOL, 2,2'-DECAMETHYLENEDI-
Formula: C24 H34 O2
CAS: 10401-03-3
State: SOLID (KBr PELLET)
Class: COBLENTZ
Instrument: Not specified, most likely a prism, grating, or hybrid spectrometer.
Sampling: TRANSMISSION
Resolution: 4
Origin: TENNESSEE EASTMAN COMPANY, RESEARCH LABORATORIES
MICROMETERS	TRANSMITTANCE
2.034	0.269
2.07505	0.259
2.11611	0.259
2.15716	0.259
2.19821	0.259
2.23926	0.261
2.28032	0.262
2.32137	0.261
2.36242	0.262
2.40348	0.269
2.44453	0.274
2.48558	0.286
2.52664	0.293
2.56769	0.3
2.60874	0.312
2.64979	0.321
2.69085	0.333
2.7319	0.341
2.77295	0.338
2.81401	0.323
2.85506	0.283
2.89611	0.202
2.93717	0.128
2.97822	0.097
3.01927	0.096
3.06032	0.123
3.10138	0.159
3.14243	0.223
3.18348	0.283
3.22454	0.34
3.26559	0.362
3.30664	0.317
3.3477	0.326
3.38875	0.079
3.4298	0.115
3.47085	0.201
3.51191	0.271
3.55296	0.431
3.59401	0.463
3.63507	0.481
3.67612	0.482
3.71717	0.487
3.75823	0.5
3.79928	0.513
3.84033	0.525
3.88138	0.537
3.92244	0.541
3.96349	0.551
4.00454	0.57
4.0456	0.58
4.08665	0.589
4.1277	0.597
4.16876	0.613
4.20981	0.62
4.25086	0.621
4.29191	0.63
4.33297	0.639
4.37402	0.656
4.41507	0.668
4.45613	0.676
4.49718	0.682
4.53823	0.687
4.57929	0.695
4.62034	0.707
4.66139	0.714
4.70244	0.718
4.7435	0.719
4.78455	0.723
4.8256	0.728
4.86666	0.728
4.90771	0.728
4.94876	0.73
4.98982	0.742
5.03087	0.752
5.07192	0.752
5.11297	0.752
5.15403	0.761
5.19508	0.762
5.23613	0.764
5.27719	0.768
5.31824	0.768
5.35929	0.747
5.40034	0.766
5.4414	0.78
5.48245	0.785
5.5235	0.785
5.56456	0.788
5.60561	0.793
5.64666	0.795
5.68772	0.774
5.72877	0.756
5.76982	0.754
5.81087	0.766
5.85193	0.774
5.89298	0.788
5.93403	0.79
5.97509	0.797
6.01614	0.802
6.05719	0.798
6.09825	0.798
6.1393	0.773
6.18035	0.666
6.2214	0.706
6.26246	0.773
6.30351	0.802
6.34456	0.805
6.38562	0.805
6.42667	0.798
6.46772	0.792
6.50878	0.752
6.54983	0.379
6.59088	0.139
6.63193	0.273
6.67299	0.493
6.71404	0.567
6.75509	0.477
6.79615	0.19
6.8372	0.371
6.87825	0.39
6.91931	0.357
6.96036	0.359
7.00141	0.405
7.04246	0.534
7.08352	0.635
7.12457	0.664
7.16562	0.666
7.20668	0.618
7.24773	0.549
7.28878	0.512
7.32984	0.393
7.37089	0.312
7.41194	0.378
7.45299	0.434
7.49405	0.56
7.5351	0.637
7.57615	0.694
7.61721	0.726
7.65826	0.731
7.69931	0.731
7.74037	0.731
7.78142	0.726
7.82247	0.611
7.86352	0.512
7.90458	0.372
7.94563	0.283
7.98668	0.202
8.02774	0.242
8.06879	0.371
8.10984	0.35
8.1509	0.324
8.19195	0.273
8.233	0.18
8.27405	0.147
8.31511	0.185
8.35616	0.384
8.39721	0.501
8.43827	0.577
8.47932	0.632
8.52037	0.664
8.56142	0.716
8.60248	0.692
8.64353	0.613
8.68458	0.692
8.72564	0.695
8.76669	0.616
8.80774	0.333
8.8488	0.228
8.88985	0.434
8.9309	0.532
8.97195	0.606
9.01301	0.639
9.05406	0.64
9.09511	0.682
9.13617	0.725
9.17722	0.768
9.21827	0.771
9.25933	0.771
9.30038	0.805
9.34143	0.833
9.38248	0.841
9.42354	0.845
9.46459	0.845
9.50564	0.831
9.5467	0.823
9.58775	0.812
9.6288	0.814
9.66986	0.829
9.71091	0.843
9.75196	0.85
9.79301	0.848
9.83407	0.857
9.87512	0.865
9.91617	0.865
9.95723	0.865
9.99828	0.865
10.0393	0.867
10.0804	0.876
10.1214	0.896
10.1625	0.905
10.2035	0.915
10.2446	0.922
10.2857	0.924
10.3267	0.926
10.3678	0.932
10.4088	0.934
10.4499	0.936
10.4909	0.939
10.532	0.943
10.573	0.939
10.6141	0.926
10.6551	0.879
10.6962	0.776
10.7372	0.781
10.7783	0.855
10.8193	0.902
10.8604	0.926
10.9014	0.932
10.9425	0.943
10.9836	0.945
11.0246	0.945
11.0657	0.945
11.1067	0.945
11.1478	0.941
11.1888	0.938
11.2299	0.932
11.2709	0.902
11.312	0.843
11.353	0.752
11.3941	0.735
11.4351	0.835
11.4762	0.893
11.5172	0.927
11.5583	0.943
11.5993	0.953
11.6404	0.953
11.6815	0.955
11.7225	0.955
11.7636	0.955
11.8046	0.953
11.8457	0.943
11.8867	0.927
11.9278	0.931
11.9688	0.931
12.0099	0.912
12.0509	0.888
12.092	0.841
12.133	0.804
12.1741	0.731
12.2151	0.563
12.2562	0.324
12.2972	0.132
12.3383	0.087
12.3794	0.25
12.4204	0.548
12.4615	0.676
12.5025	0.697
12.5436	0.725
12.5846	0.74
12.6257	0.726
12.6667	0.723
12.7078	0.778
12.7488	0.817
12.7899	0.823
12.8309	0.778
12.872	0.75
12.913	0.769
12.9541	0.812
12.9951	0.84
13.0362	0.852
13.0773	0.864
13.1183	0.872
13.1594	0.876
13.2004	0.876
13.2415	0.878
13.2825	0.872
13.3236	0.828
13.3646	0.774
13.4057	0.764
13.4467	0.8
13.4878	0.841
13.5288	0.864
13.5699	0.871
13.6109	0.874
13.652	0.871
13.693	0.859
13.7341	0.823
13.7752	0.737
13.8162	0.664
13.8573	0.649
13.8983	0.689
13.9394	0.754
13.9804	0.829
14.0215	0.872
14.0625	0.884
14.1036	0.888
14.1446	0.886
14.1857	0.883
14.2267	0.886
14.2678	0.903
14.3088	0.919
14.3499	0.922
14.3909	0.924
14.432	0.926
14.4731	0.927
14.5141	0.927
14.5552	0.927
14.5962	0.929
14.6373	0.929
14.6783	0.929
14.7194	0.929
14.7604	0.929
14.8015	0.929
14.8425	0.929
14.8836	0.929
14.9246	0.927
14.9657	0.924
15.0067	0.917
15.0478	0.915
15.0888	0.915
15.1299	0.915
15.171	0.915
15.212	0.902
15.2531	0.898
15.2941	0.89
15.3352	0.884
15.3762	0.883
15.4173	0.872
15.4583	0.862
15.4994	0.855
15.5404	0.852
15.5815	0.847
15.6225	0.835
15.6636	0.833
15.7046	0.829
15.7457	0.828
15.7868	0.812
15.8278	0.804
15.8689	0.797
15.9099	0.792
15.951	0.786
15.992	0.781
