Infrared Spectrum: Acetanilide, N-Beta-cyanoethyl-
Formula: C11 H12 N2 O
CAS: 104086-54-6
State: SOLID (NUJOL MULL)
Class: COBLENTZ III
Instrument: BECKMAN IR-4 (HYBRID PRISM-GRATING)
Instrument parameters: NaCl PRISM
Sampling: TRANSMISSION
Resolution: 2
Origin: MONSANTO (J. FREEMAN)
1/CM	TRANSMITTANCE
625	0.9592
634	0.9521
643	0.9537
652	0.9717
661	0.9893
670	0.9956
679	0.9776
688	0.9157
697	0.7414
706	0.1593
715	0.7655
724	0.6387
733	0.8518
742	0.8821
751	0.6195
760	0.8285
769	0.9008
778	0.5912
787	0.8825
796	0.9791
805	0.9817
814	0.9796
823	0.9741
832	0.9662
841	0.9549
850	0.9048
859	0.9513
868	0.9484
877	0.9405
886	0.9308
895	0.9204
904	0.9098
913	0.8929
922	0.8589
931	0.8462
940	0.7602
949	0.8523
958	0.8346
967	0.7188
976	0.5225
985	0.7395
994	0.8101
1003	0.7585
1012	0.7923
1021	0.6186
1030	0.6886
1039	0.8502
1048	0.8206
1057	0.7218
1066	0.4262
1075	0.5852
1084	0.831
1093	0.6982
1102	0.7047
1111	0.8464
1120	0.8506
1129	0.8381
1138	0.8328
1147	0.8164
1156	0.7848
1165	0.7787
1174	0.7451
1183	0.6695
1192	0.4917
1201	0.3347
1210	0.7821
1219	0.7861
1228	0.7527
1237	0.6989
1246	0.6431
1255	0.5715
1264	0.4895
1273	0.3997
1282	0.2105
1291	0.266
1300	0.1384
1309	0.2154
1318	0.4953
1327	0.5941
1336	0.6031
1345	0.5343
1354	0.3432
1363	0.2313
1372	0.2177
1381	0.2021
1390	0.174
1399	0.0956
1408	0.0772
1417	0.1417
1426	0.1888
1435	0.272
1444	0.1607
1453	0.1377
1462	0.155
1471	0.2596
1480	0.3721
1489	0.223
1498	0.0779
1507	0.5706
1516	0.702
1525	0.7315
1534	0.7363
1543	0.7027
1552	0.67
1561	0.6069
1570	0.5334
1579	0.4237
1588	0.2608
1597	0.1744
1606	0.5683
1615	0.4385
1624	0.2927
1633	0.1931
1642	0.1044
1651	0.0356
1660	0.0332
1669	0.0913
1678	0.5392
1687	0.6615
1696	0.7767
1705	0.869
1714	0.9114
1723	0.9191
1732	0.9284
1741	0.9356
1750	0.9319
1759	0.9244
1768	0.9167
1777	0.909
1786	0.9016
1795	0.8961
1804	0.8961
1813	0.8957
1822	0.8853
1831	0.8715
1840	0.8691
1849	0.8692
1858	0.8734
1867	0.8735
1876	0.8687
1885	0.8596
1894	0.8463
1903	0.8262
1912	0.8068
1921	0.807
1930	0.8107
1939	0.8198
1948	0.8322
1957	0.8316
1966	0.823
1975	0.8034
1984	0.7977
1993	0.8002
2002	0.8029
2011	0.8059
2020	0.806
2029	0.8031
2038	0.7997
2047	0.7964
2056	0.7932
2065	0.7901
2074	0.7872
2083	0.7842
2092	0.781
2101	0.7775
2110	0.774
2119	0.7706
2128	0.7664
2137	0.7622
2146	0.7582
2155	0.7535
2164	0.7485
2173	0.7436
2182	0.739
2191	0.735
2200	0.7309
2209	0.7248
2218	0.6839
2227	0.6433
2236	0.603
2245	0.5629
2254	0.5429
2263	0.72
2272	0.7404
2281	0.7417
2290	0.7382
2299	0.7327
2308	0.7289
2317	0.7252
2326	0.7214
2335	0.719
2344	0.7167
2353	0.7151
2362	0.7138
2371	0.7118
2380	0.7018
2389	0.6943
2398	0.6939
2407	0.6942
2416	0.6947
2425	0.6959
2434	0.6961
2443	0.6953
2452	0.6937
2461	0.691
2470	0.6884
2479	0.6854
2488	0.682
2497	0.6787
2506	0.6753
2515	0.6716
2524	0.6679
2533	0.6643
2542	0.6607
2551	0.6572
2560	0.6537
2569	0.6502
2578	0.6473
2587	0.6445
2596	0.6417
2605	0.6388
2614	0.6361
2623	0.6341
2632	0.6324
2641	0.6308
2650	0.629
2659	0.6275
2668	0.627
2677	0.6265
2686	0.6262
2695	0.6258
2704	0.6258
2713	0.6266
2722	0.6273
2731	0.628
2740	0.6295
2749	0.632
2758	0.6345
2767	0.636
2776	0.6359
2785	0.6318
2794	0.6229
2803	0.6093
2812	0.5905
2821	0.5677
2830	0.5374
2839	0.4488
2848	0.3455
2857	0.2428
2866	0.1504
2875	0.1222
2884	0.113
2893	0.1111
2902	0.1043
2911	0.0804
2920	0.0583
2929	0.0393
2938	0.0204
2947	0.008
2956	0.0073
2965	0.0105
2974	0.0264
2983	0.0708
2992	0.1148
3001	0.1587
3010	0.2022
3019	0.2454
3028	0.2824
3037	0.2821
3046	0.281
3055	0.2839
3064	0.2954
3073	0.3234
3082	0.3519
3091	0.3734
3100	0.3833
3109	0.3881
3118	0.3928
3127	0.3968
3136	0.3991
3145	0.4001
3154	0.4003
3163	0.4005
3172	0.4005
3181	0.4008
3190	0.4014
3199	0.4023
3208	0.4049
3217	0.4074
3226	0.4083
3235	0.4078
3244	0.407
3253	0.4049
3262	0.4028
3271	0.4008
3280	0.3995
3289	0.3995
3298	0.4003
3307	0.4016
3316	0.4035
3325	0.405
3334	0.4049
3343	0.4045
3352	0.4038
3361	0.4028
3370	0.4017
3379	0.4004
3388	0.3991
3397	0.3978
3406	0.3965
3415	0.3953
3424	0.394
3433	0.3928
3442	0.3916
3451	0.3906
3460	0.3896
3469	0.3886
3478	0.3876
3487	0.3866
3496	0.3856
3505	0.3848
3514	0.3839
3523	0.3831
3532	0.3823
3541	0.3815
3550	0.3807
3559	0.3799
3568	0.3791
3577	0.3782
3586	0.3773
3595	0.3765
3604	0.3756
3613	0.3747
3622	0.3739
3631	0.373
3640	0.372
3649	0.3709
3658	0.3698
3667	0.3687
3676	0.3676
3685	0.3665
3694	0.3655
3703	0.3644
3712	0.3634
3721	0.3624
3730	0.3613
3739	0.3601
3748	0.3589
3757	0.3577
3766	0.3564
3775	0.3553
3784	0.354
3793	0.3528
3802	0.3517
3811	0.3504
3820	0.3493
3829	0.3481
3838	0.347
3847	0.3458
3856	0.3446
3865	0.3435
3874	0.3424
3883	0.3412
3892	0.3401
3901	0.339
3910	0.3379
3919	0.3367
3928	0.3356
3937	0.3346
3946	0.3334
3955	0.3323
3964	0.3312
3973	0.3301
3982	0.3291
3991	0.328
4000	0.327
