Infrared Spectrum: trans-4-Nonene
Formula: C 9 H 18
CAS: 10405-84-2
State: gas
Instrument: HP-GC/MS/IRD
Origin: NIST Mass Spectrometry Data Center
1/CM	ABSORBANCE
550	8.06e-05
562	0.0001798
574	0
586	7.75e-05
598	4.34e-05
610	0.0001364
622	9.92e-05
634	0.0001147
646	6.2e-05
658	0.0001116
670	2.79e-05
682	0.0002139
694	0.0002046
706	0.0002015
718	0.0003162
730	0.0005177
742	0.0006386
754	0.0005983
766	0.0006851
778	0.0005952
790	0.0004309
802	0.0003565
814	0.0003069
826	0.0002976
838	0.000279
850	0.0003131
862	0.0003534
874	0.0004092
886	0.0004867
898	0.0005301
910	0.0006169
922	0.0007564
934	0.0011842
946	0.002263
958	0.004433
970	0.0051243
982	0.002945
994	0.0013919
1006	0.0009052
1018	0.000775
1030	0.0006882
1042	0.0007006
1054	0.0008432
1066	0.0008618
1078	0.0008153
1090	0.0008835
1102	0.0007998
1114	0.0005177
1126	0.0003658
1138	0.0002728
1150	0.0002542
1162	0.000248
1174	0.0002573
1186	0.0002697
1198	0.0002852
1210	0.0003193
1222	0.0003224
1234	0.0004092
1246	0.0005053
1258	0.0006045
1270	0.0007192
1282	0.0007533
1294	0.0008897
1306	0.0009331
1318	0.0009517
1330	0.0011842
1342	0.0015097
1354	0.0011749
1366	0.0011067
1378	0.0015531
1390	0.0015438
1402	0.0010137
1414	0.0009083
1426	0.001302
1438	0.0022599
1450	0.0032085
1462	0.0035185
1474	0.0025947
1486	0.0013826
1498	0.0007843
1510	0.0005239
1522	0.0003968
1534	0.0003007
1546	0.0002573
1558	0.0002077
1570	0.0001767
1582	0.0001643
1594	0.000155
1606	0.0001457
1618	0.0001519
1630	0.0001457
1642	0.000155
1654	0.0001922
1666	0.0001953
1678	0.0001953
1690	0.0001891
1702	0.000217
1714	0.0002046
1726	0.0002294
1738	0.0002201
1750	0.0002015
1762	0.000155
1774	0.0001488
1786	0.0001488
1798	0.000124
1810	0.000124
1822	0.0001147
1834	0.0001023
1846	0.0001116
1858	0.0001116
1870	9.3e-05
1882	7.44e-05
1894	7.13e-05
1906	5.27e-05
1918	1.24e-05
1930	2.48e-05
1942	2.79e-05
1954	9.3e-06
1966	3.72e-05
1978	2.48e-05
1990	3.41e-05
2002	9.3e-06
2014	3.1e-05
2026	6.51e-05
2038	6.51e-05
2050	5.89e-05
2062	4.65e-05
2074	4.34e-05
2086	4.03e-05
2098	3.41e-05
2110	3.1e-05
2122	2.48e-05
2134	2.79e-05
2146	3.72e-05
2158	4.34e-05
2170	2.79e-05
2182	3.41e-05
2194	4.34e-05
2206	4.03e-05
2218	2.48e-05
2230	3.1e-05
2242	2.79e-05
2254	3.41e-05
2266	3.1e-05
2278	2.48e-05
2290	2.17e-05
2302	5.27e-05
2314	5.58e-05
2326	7.13e-05
2338	7.44e-05
2350	6.82e-05
2362	8.37e-05
2374	6.51e-05
2386	7.75e-05
2398	8.37e-05
2410	8.99e-05
2422	7.44e-05
2434	6.82e-05
2446	4.65e-05
2458	3.72e-05
2470	4.65e-05
2482	4.65e-05
2494	5.58e-05
2506	5.58e-05
2518	7.44e-05
2530	0.0001178
2542	0.000124
2554	0.0001457
2566	0.0001457
2578	0.0001581
2590	0.000186
2602	0.0001922
2614	0.0001891
2626	0.0002294
2638	0.0002604
2650	0.0003162
2662	0.0003627
2674	0.000372
2686	0.0003751
2698	0.0003503
2710	0.0003751
2722	0.0003968
2734	0.0005301
2746	0.0006231
2758	0.0006293
2770	0.0006851
2782	0.0008556
2794	0.0010819
2806	0.0013733
2818	0.0018755
2830	0.0030411
2842	0.0056234
2854	0.0093
2866	0.012059
2878	0.0140802
2890	0.0136183
2902	0.0143809
2914	0.0201996
2926	0.0281108
2938	0.0307024
2950	0.0252309
2962	0.0257641
2974	0.0239599
2986	0.0124465
2998	0.0071734
3010	0.0051553
3022	0.0042191
3034	0.0033232
3046	0.0022847
3058	0.0015686
3070	0.0011625
3082	0.0009765
3094	0.0008184
3106	0.0007099
3118	0.0005952
3130	0.0005146
3142	0.0004867
3154	0.000434
3166	0.0003658
3178	0.0003627
3190	0.0003348
3202	0.0002759
3214	0.0002666
3226	0.0002015
3238	0.0001519
3250	0.0001209
3262	7.44e-05
3274	0.0001023
3286	0.0001085
3298	5.89e-05
3310	8.06e-05
3322	0.0001023
3334	5.89e-05
3346	4.03e-05
3358	7.75e-05
3370	8.99e-05
3382	5.27e-05
3394	7.75e-05
3406	8.68e-05
3418	7.44e-05
3430	5.58e-05
3442	6.82e-05
3454	7.44e-05
3466	6.82e-05
3478	3.72e-05
3490	5.58e-05
3502	5.27e-05
3514	5.89e-05
3526	3.72e-05
3538	1.86e-05
3550	8.06e-05
3562	3.1e-05
3574	5.89e-05
3586	7.75e-05
3598	9.3e-05
3610	7.75e-05
3622	9.3e-05
3634	0.0001147
3646	0.0001054
3658	9.92e-05
3670	0.0001147
3682	0.0001023
3694	9.3e-05
3706	0.0001271
3718	0.0001178
3730	0.0001333
3742	8.99e-05
3754	7.75e-05
3766	0.0001116
3778	0.0001736
3790	0.0001085
3802	0.0001178
3814	0.0001674
3826	0.0001643
3838	0.0001457
