Infrared Spectrum: 3-Hydroxyphenylacetylene
Formula: C 8 H 6 O
CAS: 10401-11-3
State: gas
Origin: EPA-IR VAPOR PHASE LIBRARY
1/CM	ABSORBANCE
549.8	0.00755
559.445	0.00462
569.09	0.00451
578.734	0.00632
588.379	0.00977
598.024	0.01706
607.669	0.02957
617.313	0.06814
626.958	0.04745
636.603	0.04581
646.248	0.07376
655.893	0.04107
665.537	0.02462
675.182	0.02055
684.827	0.02342
694.472	0.01444
704.116	0.00734
713.761	0.00605
723.406	0.00701
733.051	0.00662
742.695	0.00499
752.34	0.00862
761.985	0.01885
771.63	0.03713
781.275	0.04247
790.919	0.02614
800.564	0.01314
810.209	0.00568
819.854	0.00437
829.498	0.00516
839.143	0.00839
848.788	0.01363
858.433	0.01569
868.078	0.0169
877.722	0.01719
887.367	0.0116
897.012	0.01055
906.657	0.01257
916.301	0.0209
925.946	0.04232
935.591	0.03849
945.236	0.01912
954.88	0.00526
964.525	0.00361
974.17	0.00306
983.815	0.00339
993.46	0.00605
1003.1	0.00611
1012.75	0.00306
1022.39	0.00255
1032.04	0.00316
1041.68	0.00443
1051.33	0.00496
1060.97	0.00596
1070.62	0.00933
1080.26	0.01176
1089.91	0.00935
1099.55	0.01021
1109.2	0.00913
1118.84	0.01555
1128.49	0.03895
1138.13	0.06531
1147.78	0.0757
1157.42	0.05579
1167.07	0.04641
1176.71	0.06809
1186.36	0.08783
1196	0.08015
1205.64	0.05893
1215.29	0.04675
1224.93	0.04927
1234.58	0.04188
1244.22	0.0293
1253.87	0.03275
1263.51	0.05589
1273.16	0.06968
1282.8	0.07802
1292.45	0.05031
1302.09	0.03553
1311.74	0.01768
1321.38	0.00823
1331.03	0.00527
1340.67	0.00417
1350.32	0.00333
1359.96	0.00303
1369.61	0.00261
1379.25	0.00283
1388.9	0.0033
1398.54	0.00483
1408.18	0.00823
1417.83	0.01314
1427.47	0.02448
1437.12	0.03231
1446.76	0.03186
1456.41	0.02179
1466.05	0.0261
1475.7	0.03355
1485.34	0.03551
1494.99	0.02459
1504.63	0.01288
1514.28	0.00572
1523.92	0.00736
1533.57	0.00943
1543.21	0.01012
1552.86	0.01499
1562.5	0.02798
1572.15	0.05466
1581.79	0.08061
1591.44	0.09476
1601.08	0.07473
1610.73	0.04461
1620.37	0.02497
1630.01	0.01151
1639.66	0.00596
1649.3	0.00534
1658.95	0.00577
1668.59	0.00643
1678.24	0.00637
1687.88	0.00508
1697.53	0.00434
1707.17	0.00368
1716.82	0.00358
1726.46	0.00338
1736.11	0.00361
1745.75	0.00392
1755.4	0.00355
1765.04	0.00354
1774.69	0.00321
1784.33	0.00287
1793.98	0.00264
1803.62	0.00225
1813.27	0.0028
1822.91	0.00309
1832.55	0.00335
1842.2	0.00369
1851.84	0.00326
1861.49	0.0029
1871.13	0.0020859
1880.78	0.0020212
1890.42	0.0018492
1900.07	0.00229
1909.71	0.00272
1919.36	0.00335
1929	0.00345
1938.65	0.00256
1948.29	0.0016741
1957.94	0.0015526
1967.58	0.0016664
1977.23	0.0016889
1986.87	0.0015796
1996.52	0.0016634
2006.16	0.0015165
2015.81	0.0015771
2025.45	0.0011325
2035.1	0.0014665
2044.74	0.00125334
2054.38	0.0014543
2064.03	0.0019964
2073.67	0.0020363
2083.32	0.00253
2092.96	0.00332
2102.61	0.00453
2112.25	0.00507
2121.9	0.00388
2131.54	0.0020305
2141.19	0.0013828
2150.83	0.001163
2160.48	0.0013943
2170.12	0.001062
2179.77	0.0015907
2189.41	0.0016964
2199.06	0.0016864
2208.7	0.0015332
2218.35	0.001805
2227.99	0.0016225
2237.64	0.00126536
2247.28	0.0011348
2256.92	0.0012103
2266.57	0.0013596
2276.21	0.0013348
2285.86	0.0014694
2295.5	0.0015288
2305.15	0.0018056
2314.79	0.0020783
2324.44	0.0019796
2334.08	0.00227
2343.73	0.0020074
2353.37	0.0020465
2363.02	0.00228
2372.66	0.0019333
2382.31	0.001629
2391.95	0.0019272
2401.6	0.0014456
2411.24	0.0019474
2420.89	0.00242
2430.53	0.002071
2440.18	0.0020635
2449.82	0.00233
2459.47	0.00258
2469.11	0.0021439
2478.75	0.0018458
2488.4	0.0016554
2498.04	0.0015565
2507.69	0.0017041
2517.33	0.0013959
2526.98	0.0013617
2536.62	0.0017565
2546.27	0.0017237
2555.91	0.001529
2565.56	0.0018799
2575.2	0.001424
2584.85	0.0015095
2594.49	0.0018614
2604.14	0.0013569
2613.78	0.00129921
2623.43	0.00124957
2633.07	0.0013535
2642.72	0.00123909
2652.36	0.000969
2662.01	0.001107
2671.65	0.0017275
2681.29	0.0017394
2690.94	0.00127789
2700.58	0.00176
2710.23	0.0014033
2719.87	0.00128665
2729.52	0.0016868
2739.16	0.0013782
2748.81	0.00131486
2758.45	0.0013498
2768.1	0.0013652
2777.74	0.00125304
2787.39	0.000961
2797.03	0.001042
2806.68	0.000728
2816.32	0.00095
2825.97	0.00018
2835.61	0.0005
2845.26	0.00042
2854.9	0.000635
2864.55	0.00104
2874.19	0.000919
2883.84	0.0017672
2893.48	0.000891
2903.12	0.000381
2912.77	0.000749
2922.41	0.000908
2932.06	0.000569
2941.7	0.001134
2951.35	0.00129432
2960.99	0.000863
2970.64	0.0011871
2980.28	0.00126918
2989.93	0.00132291
2999.57	0.0023
3009.22	0.00365
3018.86	0.00592
3028.51	0.00798
3038.15	0.01034
3047.8	0.01281
3057.44	0.01178
3067.09	0.01122
3076.73	0.01207
3086.38	0.01113
3096.02	0.0088
3105.67	0.00569
3115.31	0.0026
3124.95	0.0018501
3134.6	0.0016103
3144.24	0.001106
3153.89	0.0015488
3163.53	0.0018702
3173.18	0.00129254
3182.82	0.0018048
3192.47	0.0018379
3202.11	0.00142
3211.76	0.000625
3221.4	0.0011332
3231.05	0.001349
3240.69	0.0015168
3250.34	0.0022192
3259.98	0.0031
3269.63	0.0042
3279.27	0.00789
3288.92	0.01201
3298.56	0.02
3308.21	0.03009
3317.85	0.05165
3327.49	0.06114
3337.14	0.04413
3346.78	0.01063
3356.43	0.00361
3366.07	0.00303
3375.72	0.00289
3385.36	0.00254
3395.01	0.00297
3404.65	0.0016437
3414.3	0.001616
3423.94	0.0017917
3433.59	0.0018121
3443.23	0.0015623
3452.88	0.0018003
3462.52	0.0017507
3472.17	0.00081
3481.81	0.0011948
3491.46	0.001107
3501.1	0.001115
3510.75	0.0014932
3520.39	0.0014771
3530.04	0.001531
3539.68	0.000994
3549.32	0.0018185
3558.97	0.00125923
3568.61	0.0014378
3578.26	0.0016689
3587.9	0.0013443
3597.55	0.0020823
3607.19	0.0021045
3616.84	0.0042
3626.48	0.01008
3636.13	0.02946
3645.77	0.06385
3655.42	0.06237
3665.06	0.02994
3674.71	0.00562
3684.35	0.0020331
3694	0.0014682
3703.64	0.0012153
3713.29	0.00104
3722.93	0.0016151
3732.58	0.0014023
3742.22	0.000896
3751.86	0.000881
3761.51	0.00124897
3771.15	0.000676
3780.8	0.00111
3790.44	0.001073
3800.09	0.0013635
3809.73	0.0014432
3819.38	0.0019573
3829.02	0.0017734
3838.67	0.0013671
3848.31	0.001703
3857.96	0.001105
3867.6	0.0021236
3877.25	0.0018145
3886.89	0.0013856
3896.54	0.00239
3906.18	0.0017232
3915.83	0.0016969
3925.47	0.00224
3935.12	0.0018437
3944.76	0.0015899
3954.41	0.001963
3964.05	0.000787
3973.69	0.0015365
3983.34	0.0015614
3992.98	0.00122795
