Infrared Spectrum: .alpha.-Bromoisobutyrophenone
Formula: C 10 H 11 Br O
CAS: 10409-54-8
State: gas
Instrument: HP-GC/MS/IRD
Origin: NIST Mass Spectrometry Data Center
1/CM	ABSORBANCE
550	0.002178
562	0.001665
574	0.000747
586	0.000927
598	0.002016
610	0.004158
622	0.009459
634	0.016119
646	0.007443
658	0.005139
670	0.008226
682	0.018135
694	0.034587
706	0.039897
718	0.020529
730	0.008127
742	0.004365
754	0.003798
766	0.004383
778	0.006975
790	0.007425
802	0.002097
814	0.000387
826	8.1e-05
838	0.000261
850	0.000756
862	0.002943
874	0.010413
886	0.009954
898	0.003564
910	0.003744
922	0.005418
934	0.005958
946	0.008676
958	0.018405
970	0.051552
982	0.045369
994	0.013662
1006	0.012069
1018	0.005166
1030	0.002745
1042	0.00189
1054	0.001656
1066	0.002727
1078	0.004077
1090	0.008361
1102	0.022104
1114	0.030753
1126	0.017163
1138	0.010251
1150	0.015138
1162	0.030987
1174	0.035901
1186	0.024786
1198	0.010791
1210	0.008091
1222	0.010449
1234	0.018099
1246	0.03465
1258	0.053307
1270	0.039168
1282	0.011853
1294	0.005022
1306	0.003258
1318	0.002511
1330	0.001926
1342	0.001719
1354	0.002826
1366	0.008982
1378	0.015858
1390	0.019998
1402	0.006678
1414	0.003501
1426	0.005328
1438	0.01116
1450	0.016731
1462	0.022356
1474	0.011808
1486	0.00405
1498	0.002133
1510	0.001494
1522	0.001467
1534	0.001584
1546	0.001827
1558	0.002538
1570	0.004545
1582	0.005994
1594	0.006453
1606	0.004941
1618	0.002718
1630	0.002871
1642	0.00405
1654	0.007092
1666	0.013644
1678	0.029736
1690	0.073854
1702	0.080694
1714	0.032697
1726	0.012708
1738	0.005247
1750	0.003006
1762	0.002259
1774	0.001791
1786	0.001503
1798	0.002196
1810	0.002196
1822	0.00117
1834	0.000621
1846	0.000531
1858	0.000576
1870	0.000747
1882	0.001035
1894	0.001494
1906	0.001422
1918	0.000909
1930	0.000783
1942	0.001215
1954	0.001962
1966	0.001881
1978	0.00072
1990	0.000252
2002	9.9e-05
2014	5.4e-05
2026	1.8e-05
2038	0
2050	0
2062	2.7e-05
2074	3.6e-05
2086	3.6e-05
2098	8.1e-05
2110	6.3e-05
2122	0.000126
2134	0.000126
2146	0.000135
2158	9e-05
2170	6.3e-05
2182	8.1e-05
2194	8.1e-05
2206	0.000126
2218	0.00018
2230	0.000189
2242	0.000261
2254	0.000369
2266	0.00027
2278	0.000189
2290	0.000216
2302	0.000207
2314	0.000504
2326	0.000513
2338	0.000369
2350	0.000405
2362	0.000306
2374	0.000261
2386	0.00027
2398	0.00027
2410	0.000342
2422	0.000432
2434	0.000342
2446	0.000207
2458	0.000126
2470	6.3e-05
2482	5.4e-05
2494	9.9e-05
2506	0.000108
2518	0.000171
2530	0.000198
2542	0.000261
2554	0.000306
2566	0.000297
2578	0.000252
2590	0.000306
2602	0.000306
2614	0.000234
2626	0.000279
2638	0.00027
2650	0.000225
2662	0.000225
2674	0.00027
2686	0.000234
2698	0.000243
2710	0.000252
2722	0.000369
2734	0.000576
2746	0.000594
2758	0.000567
2770	0.000639
2782	0.000504
2794	0.000423
2806	0.000612
2818	0.000783
2830	0.001044
2842	0.001494
2854	0.002592
2866	0.004185
2878	0.00468
2890	0.00441
2902	0.005337
2914	0.007191
2926	0.012267
2938	0.018027
2950	0.010413
2962	0.007272
2974	0.01458
2986	0.021627
2998	0.012672
3010	0.016785
3022	0.011475
3034	0.007767
3046	0.00774
3058	0.012339
3070	0.021915
3082	0.015939
3094	0.00954
3106	0.006309
3118	0.003105
3130	0.001656
3142	0.001296
3154	0.001305
3166	0.001008
3178	0.000711
3190	0.000648
3202	0.00054
3214	0.000612
3226	0.000621
3238	0.000603
3250	0.000567
3262	0.000468
3274	0.000423
3286	0.000369
3298	0.000333
3310	0.000279
3322	0.000369
3334	0.000522
3346	0.000882
3358	0.00126
3370	0.001458
3382	0.001251
3394	0.000972
3406	0.000675
3418	0.000369
3430	0.000315
3442	0.000261
3454	0.000216
3466	0.000198
3478	0.000207
3490	0.000189
3502	0.000135
3514	0.000153
3526	8.1e-05
3538	0.000135
3550	9e-05
3562	0.000117
3574	0.000162
3586	7.2e-05
3598	0.000126
3610	0.000189
3622	9.9e-05
3634	0.000144
3646	0.000243
3658	0.000243
3670	0.000216
3682	0.00018
3694	0.000252
3706	0.000333
3718	0.000297
3730	0.00027
3742	0.000144
3754	0.000207
3766	0.000216
3778	0.00018
3790	0.000171
3802	0.000216
3814	0.000162
3826	0.000189
3838	0.000117
