Infrared Spectrum: 2-Bromo-5-nitroaniline
Formula: C 6 H 5 Br N 2 O 2
CAS: 10403-47-1
State: gas
Origin: EPA-IR VAPOR PHASE LIBRARY
1/CM	ABSORBANCE
549.8	0.003698
559.445	0.005588
569.09	0.005028
578.734	0.002888
588.379	0.002818
598.024	0.003598
607.669	0.003318
617.313	0.003638
626.958	0.004638
636.603	0.004778
646.248	0.005078
655.893	0.005948
665.537	0.007298
675.182	0.008848
684.827	0.011708
694.472	0.013198
704.116	0.012798
713.761	0.011388
723.406	0.016298
733.051	0.023988
742.695	0.020638
752.34	0.012658
761.985	0.009318
771.63	0.008008
781.275	0.007708
790.919	0.009398
800.564	0.017478
810.209	0.035458
819.854	0.031218
829.498	0.006728
839.143	0.003978
848.788	0.004938
858.433	0.008008
868.078	0.014058
877.722	0.012888
887.367	0.007298
897.012	0.003768
906.657	0.002888
916.301	0.002928
925.946	0.004858
935.591	0.006048
945.236	0.005748
954.88	0.003678
964.525	0.002758
974.17	0.002748
983.815	0.002578
993.46	0.002618
1003.1	0.002888
1012.75	0.009078
1022.39	0.025738
1032.04	0.022048
1041.68	0.008418
1051.33	0.005818
1060.97	0.004348
1070.62	0.005288
1080.26	0.008948
1089.91	0.010868
1099.55	0.008608
1109.2	0.004768
1118.84	0.002728
1128.49	0.002858
1138.13	0.003418
1147.78	0.003228
1157.42	0.001118
1167.07	0.001888
1176.71	0.001698
1186.36	0.002498
1196	0.001758
1205.64	0.002298
1215.29	0.001708
1224.93	0.001138
1234.58	0.003678
1244.22	0.004808
1253.87	0.007158
1263.51	0.010798
1273.16	0.012728
1282.8	0.013028
1292.45	0.010208
1302.09	0.011768
1311.74	0.018018
1321.38	0.021458
1331.03	0.029028
1340.67	0.052828
1350.32	0.081578
1359.96	0.064268
1369.61	0.029828
1379.25	0.017308
1388.9	0.007188
1398.54	0.005438
1408.18	0.006528
1417.83	0.010878
1427.47	0.015838
1437.12	0.012728
1446.76	0.007248
1456.41	0.008338
1466.05	0.016688
1475.7	0.032348
1485.34	0.028408
1494.99	0.019738
1504.63	0.020048
1514.28	0.025108
1523.92	0.038418
1533.57	0.071938
1543.21	0.114398
1552.86	0.100948
1562.5	0.049888
1572.15	0.031258
1581.79	0.026228
1591.44	0.026258
1601.08	0.028018
1610.73	0.030388
1620.37	0.040108
1630.01	0.041028
1639.66	0.024588
1649.3	0.012858
1658.95	0.007838
1668.59	0.005528
1678.24	0.003978
1687.88	0.002908
1697.53	0.002408
1707.17	0.002508
1716.82	0.002418
1726.46	0.002458
1736.11	0.002778
1745.75	0.002878
1755.4	0.001908
1765.04	0.001238
1774.69	0.0009535
1784.33	0.000958
1793.98	0.0009214
1803.62	0.0009468
1813.27	0.0008859
1822.91	0.0010102
1832.55	0.0008825
1842.2	0.0006979
1851.84	0.0010641
1861.49	0.001408
1871.13	0.001858
1880.78	0.001648
1890.42	0.001218
1900.07	0.0007889
1909.71	0.0007145
1919.36	0.0007483
1929	0.0008066
1938.65	0.0007249
1948.29	0.0008895
1957.94	0.0009286
1967.58	0.0009716
1977.23	0.0007607
1986.87	0.0007207
1996.52	0.0006822
2006.16	0.0009034
2015.81	0.000636
2025.45	0.0008468
2035.1	0.0008833
2044.74	0.0008126
2054.38	0.0009083
2064.03	0.0008398
2073.67	0.000809
2083.32	0.000683
2092.96	0.0007242
2102.61	0.0005789
2112.25	0.0005965
2121.9	0.0005798
2131.54	0.000506
2141.19	0.0006227
2150.83	0.0004313
2160.48	0.0006552
2170.12	0.0005786
2179.77	0.0006293
2189.41	0.0006108
2199.06	0.0005923
2208.7	0.0007002
2218.35	0.0006694
2227.99	0.0006787
2237.64	0.0005017
2247.28	0.0006807
2256.92	0.0007299
2266.57	0.0004848
2276.21	0.0006516
2285.86	0.0008628
2295.5	0.0008051
2305.15	0.0008291
2314.79	0.0007253
2324.44	0.0006548
2334.08	0.0005562
2343.73	0.0007924
2353.37	0.0009589
2363.02	0.0009294
2372.66	0.0009529
2382.31	0.0008341
2391.95	0.0007962
2401.6	0.0007596
2411.24	0.00081
2420.89	0.0006578
2430.53	0.000763
2440.18	0.0007578
2449.82	0.0008234
2459.47	0.0006613
2469.11	0.0006777
2478.75	0.0006637
2488.4	0.0006478
2498.04	0.000353
2507.69	0.0006384
2517.33	0.0005694
2526.98	0.0007823
2536.62	0.0007529
2546.27	0.0009333
2555.91	0.0009983
2565.56	0.001101
2575.2	0.001308
2584.85	0.001178
2594.49	0.0010228
2604.14	0.0009598
2613.78	0.001498
2623.43	0.001448
2633.07	0.001428
2642.72	0.0008982
2652.36	0.0009143
2662.01	0.0009641
2671.65	0.0011162
2681.29	0.001093
2690.94	0.001138
2700.58	0.001158
2710.23	0.000979
2719.87	0.0006894
2729.52	0.000617
2739.16	0.0009668
2748.81	0.0006119
2758.45	0.0007665
2768.1	0.0006463
2777.74	0.0006623
2787.39	0.0004678
2797.03	0.0005102
2806.68	0.000864
2816.32	0.0010054
2825.97	0.0009571
2835.61	0.001398
2845.26	0.001228
2854.9	0.001278
2864.55	0.001598
2874.19	0.001798
2883.84	0.001798
2893.48	0.001838
2903.12	0.001838
2912.77	0.001408
2922.41	0.001128
2932.06	0.001148
2941.7	0.0008707
2951.35	0.0006546
2960.99	0.000831
2970.64	0.0008176
2980.28	0.0005152
2989.93	0.0006022
2999.57	0.0004959
3009.22	0.0006913
3018.86	0.0006307
3028.51	0.0007643
3038.15	0.000979
3047.8	0.0010074
3057.44	0.0009185
3067.09	0.001698
3076.73	0.002738
3086.38	0.001968
3096.02	0.001508
3105.67	0.001628
3115.31	0.0007725
3124.95	0.000819
3134.6	0.0009149
3144.24	0.0006994
3153.89	0.0008706
3163.53	0.0008898
3173.18	0.0008896
3182.82	0.0010755
3192.47	0.001015
3202.11	0.001218
3211.76	0.0005772
3221.4	0.0008044
3231.05	0.0007807
3240.69	0.0004168
3250.34	0.0006648
3259.98	0.000456
3269.63	0.0005815
3279.27	0.0006358
3288.92	0.0004588
3298.56	0.0003348
3308.21	0.0003403
3317.85	0.0003794
3327.49	0.0008037
3337.14	0.0003548
3346.78	0.0007216
3356.43	0.0006416
3366.07	0.0008106
3375.72	0.001188
3385.36	0.001988
3395.01	0.004698
3404.65	0.009198
3414.3	0.013678
3423.94	0.010628
3433.59	0.005738
3443.23	0.002568
3452.88	0.001648
3462.52	0.001658
3472.17	0.002008
3481.81	0.003238
3491.46	0.005488
3501.1	0.007968
3510.75	0.009708
3520.39	0.008328
3530.04	0.005568
3539.68	0.003278
3549.32	0.001668
3558.97	0.0008259
3568.61	0.0009784
3578.26	0.0007272
3587.9	0.000679
3597.55	0.000367
3607.19	0.0002731
3616.84	0.0004005
3626.48	0.0005835
3636.13	0.0003937
3645.77	0.00020404
3655.42	0.0005195
3665.06	0.0003657
3674.71	0.0003815
3684.35	0.0004748
3694	0.00017298
3703.64	0.0005213
3713.29	0.0003703
3722.93	0.0004886
3732.58	0.0003761
3742.22	0.0004867
3751.86	0.0005223
3761.51	0.0005587
3771.15	0.0005577
3780.8	0.0004287
3790.44	0.0002821
3800.09	0.0006169
3809.73	0.0003789
3819.38	0.0004376
3829.02	0.000288
3838.67	0.0005785
3848.31	0.000415
3857.96	0.0008993
3867.6	0.0009722
3877.25	0.0004689
3886.89	0.0003124
3896.54	0.000558
3906.18	0.0006024
3915.83	0.0004915
3925.47	0.0004931
3935.12	0.0005609
3944.76	0.0005472
3954.41	0.0007096
3964.05	0.0005942
3973.69	0.0004975
3983.34	0.0004875
3992.98	0.0004561
