Infrared Spectrum: N-1-[1,1-BIS(ACETYLMERCAPTOMETHYL)PROPYL]-p-TOLUENESULFONAMIDE
Formula: C16 H23 N O4 S3
CAS: 10405-53-5
State: SOLID (KBr PELLET)
Melting point: 83-84 C
Class: COBLENTZ
Instrument: Not specified, most likely a prism, grating, or hybrid spectrometer.
Sampling: TRANSMISSION
Resolution: 4
Origin: ARTHUR D. LITTLE, INC.
1/CM	TRANSMITTANCE
700.626	0.467
708.142	0.538
715.657	0.536
723.173	0.516
730.689	0.477
738.204	0.446
745.72	0.364
753.236	0.315
760.751	0.298
768.267	0.251
775.783	0.228
783.298	0.271
790.814	0.279
798.33	0.244
805.845	0.235
813.361	0.32
820.877	0.323
828.392	0.38
835.908	0.418
843.424	0.365
850.939	0.383
858.455	0.493
865.971	0.512
873.486	0.457
881.002	0.367
888.518	0.26
896.033	0.145
903.549	0.053
911.065	0.037
918.58	0.058
926.096	0.073
933.611	0.067
941.127	0.056
948.643	0.067
956.158	0.082
963.674	0.088
971.19	0.105
978.705	0.144
986.221	0.15
993.737	0.146
1001.25	0.131
1008.77	0.102
1016.28	0.053
1023.8	0.053
1031.32	0.085
1038.83	0.117
1046.35	0.112
1053.86	0.063
1061.38	0.043
1068.89	0
1076.41	0
1083.92	0
1091.44	0.001
1098.96	0.007
1106.47	0.011
1113.99	0.02
1121.5	0.036
1129.02	0.071
1136.53	0.104
1144.05	0.167
1151.57	0.294
1159.08	0.388
1166.6	0.416
1174.11	0.474
1181.63	0.605
1189.14	0.637
1196.66	0.641
1204.18	0.637
1211.69	0.611
1219.21	0.526
1226.72	0.469
1234.24	0.443
1241.75	0.434
1249.27	0.384
1256.78	0.269
1264.3	0.117
1271.82	0.065
1279.33	0.063
1286.85	0.047
1294.36	0.048
1301.88	0.063
1309.39	0.081
1316.91	0.107
1324.43	0.129
1331.94	0.154
1339.46	0.203
1346.97	0.27
1354.49	0.263
1362	0.206
1369.52	0.157
1377.04	0.11
1384.55	0.081
1392.07	0.076
1399.58	0.085
1407.1	0.102
1414.61	0.12
1422.13	0.124
1429.65	0.125
1437.16	0.14
1444.68	0.151
1452.19	0.171
1459.71	0.197
1467.22	0.24
1474.74	0.281
1482.25	0.291
1489.77	0.3
1497.29	0.344
1504.8	0.374
1512.32	0.382
1519.83	0.383
1527.35	0.382
1534.86	0.378
1542.38	0.379
1549.9	0.374
1557.41	0.369
1564.93	0.358
1572.44	0.328
1579.96	0.298
1587.47	0.259
1594.99	0.295
1602.51	0.358
1610.02	0.353
1617.54	0.339
1625.05	0.312
1632.57	0.264
1640.08	0.23
1647.6	0.179
1655.11	0.155
1662.63	0.15
1670.15	0.13
1677.66	0.127
1685.18	0.132
1692.69	0.157
1700.21	0.197
1707.72	0.24
1715.24	0.305
1722.76	0.353
1730.27	0.422
1737.79	0.459
1745.3	0.482
1752.82	0.498
1760.33	0.52
1767.85	0.568
1775.37	0.609
1782.88	0.627
1790.4	0.632
1797.91	0.639
1805.43	0.645
1812.94	0.666
1820.46	0.677
1827.98	0.681
1835.49	0.681
1843.01	0.68
1850.52	0.679
1858.04	0.675
1865.55	0.676
1873.07	0.676
1880.58	0.676
1888.1	0.677
1895.62	0.677
1903.13	0.676
1910.65	0.674
1918.16	0.676
1925.68	0.699
1933.19	0.723
1940.71	0.73
1948.23	0.734
1955.74	0.738
1963.26	0.745
1970.77	0.749
1978.29	0.75
1985.8	0.75
1993.32	0.75
2000.84	0.751
2008.35	0.751
2015.87	0.751
2023.38	0.751
2030.9	0.751
2038.41	0.751
2045.93	0.751
2053.44	0.751
2060.96	0.751
2068.48	0.751
2075.99	0.751
2083.51	0.753
2091.02	0.753
2098.54	0.753
2106.05	0.753
2113.57	0.753
2121.09	0.753
2128.6	0.753
2136.12	0.754
2143.63	0.755
2151.15	0.754
2158.66	0.751
2166.18	0.75
2173.7	0.749
2181.21	0.749
2188.73	0.749
2196.24	0.746
2203.76	0.741
2211.27	0.74
2218.79	0.74
2226.31	0.739
2233.82	0.739
2241.34	0.739
2248.85	0.739
2256.37	0.738
2263.88	0.738
2271.4	0.736
2278.91	0.735
2286.43	0.735
2293.95	0.735
2301.46	0.735
2308.98	0.735
2316.49	0.736
2324.01	0.738
2331.52	0.739
2339.04	0.741
2346.56	0.741
2354.07	0.744
2361.59	0.746
2369.1	0.748
2376.62	0.75
2384.13	0.751
2391.65	0.751
2399.17	0.749
2406.68	0.749
2414.2	0.749
2421.71	0.749
2429.23	0.749
2436.74	0.749
2444.26	0.749
2451.77	0.75
2459.29	0.749
2466.81	0.748
2474.32	0.75
2481.84	0.751
2489.35	0.753
2496.87	0.754
2504.38	0.755
2511.9	0.753
2519.42	0.751
2526.93	0.751
2534.45	0.751
2541.96	0.749
2549.48	0.744
2556.99	0.739
2564.51	0.736
2572.03	0.731
2579.54	0.726
2587.06	0.724
2594.57	0.725
2602.09	0.726
2609.6	0.723
2617.12	0.716
2624.64	0.714
2632.15	0.711
2639.67	0.708
2647.18	0.705
2654.7	0.703
2662.21	0.701
2669.73	0.7
2677.24	0.696
2684.76	0.691
2692.28	0.686
2699.79	0.681
2707.31	0.68
2714.82	0.68
2722.34	0.68
2729.85	0.677
2737.37	0.667
2744.89	0.656
2752.4	0.651
2759.92	0.649
2767.43	0.64
2774.95	0.626
2782.46	0.61
2789.98	0.591
2797.5	0.566
2805.01	0.537
2812.53	0.503
2820.04	0.458
2827.56	0.422
2835.07	0.377
2842.59	0.348
2850.1	0.34
2857.62	0.33
2865.14	0.318
2872.65	0.312
2880.17	0.307
2887.68	0.298
2895.2	0.289
2902.71	0.278
2910.23	0.266
2917.75	0.244
2925.26	0.228
2932.78	0.225
2940.29	0.235
2947.81	0.269
2955.32	0.303
2962.84	0.324
2970.36	0.33
2977.87	0.334
2985.39	0.36
2992.9	0.411
3000.42	0.478
3007.93	0.537
3015.45	0.547
3022.97	0.557
3030.48	0.562
3038	0.566
3045.51	0.568
3053.03	0.57
3060.54	0.573
3068.06	0.58
3075.57	0.583
3083.09	0.585
3090.61	0.586
3098.12	0.583
3105.64	0.577
3113.15	0.571
3120.67	0.561
3128.18	0.548
3135.7	0.538
3143.22	0.525
3150.73	0.512
3158.25	0.497
3165.76	0.477
3173.28	0.453
3180.79	0.423
3188.31	0.387
3195.83	0.364
3203.34	0.338
3210.86	0.299
3218.37	0.255
3225.89	0.216
3233.4	0.161
3240.92	0.126
3248.43	0.104
3255.95	0.09
3263.47	0.081
3270.98	0.082
3278.5	0.087
3286.01	0.097
3293.53	0.115
3301.04	0.141
3308.56	0.187
3316.08	0.249
3323.59	0.319
3331.11	0.382
3338.62	0.426
3346.14	0.474
3353.65	0.527
3361.17	0.57
3368.69	0.598
3376.2	0.615
3383.72	0.644
3391.23	0.694
3398.75	0.706
3406.26	0.714
3413.78	0.716
3421.3	0.716
3428.81	0.714
3436.33	0.716
3443.84	0.716
