Infrared Spectrum: 2-METHYL-2-p-TOLUENESULFONYLAMINO-1,3-PROPANEDITHIOL DIACETATE
Formula: C15 H21 N O4 S3
CAS: 10405-54-6
State: SOLID (KBr PELLET)
Melting point: 80-81 C
Class: COBLENTZ
Instrument: Not specified, most likely a prism, grating, or hybrid spectrometer.
Sampling: TRANSMISSION
Resolution: 4
Origin: ARTHUR D. LITTLE, INC.
1/CM	TRANSMITTANCE
646.361	0.242
653.811	0.323
661.261	0.418
668.711	0.448
676.16	0.454
683.61	0.451
691.06	0.45
698.51	0.479
705.96	0.478
713.41	0.481
720.86	0.52
728.31	0.545
735.759	0.549
743.209	0.548
750.659	0.536
758.109	0.536
765.559	0.542
773.009	0.529
780.459	0.496
787.908	0.429
795.358	0.381
802.808	0.338
810.258	0.467
817.708	0.481
825.158	0.42
832.608	0.381
840.058	0.339
847.507	0.439
854.957	0.548
862.407	0.554
869.857	0.512
877.307	0.438
884.757	0.347
892.207	0.344
899.656	0.429
907.106	0.456
914.556	0.45
922.006	0.426
929.456	0.32
936.906	0.198
944.356	0.186
951.806	0.321
959.255	0.348
966.705	0.289
974.155	0.175
981.605	0.16
989.055	0.342
996.505	0.362
1003.95	0.369
1011.4	0.424
1018.85	0.418
1026.3	0.406
1033.75	0.38
1041.2	0.299
1048.65	0.308
1056.1	0.305
1063.55	0.202
1071	0.084
1078.45	0.049
1085.9	0.052
1093.35	0.056
1100.8	0.053
1108.25	0.041
1115.7	0.029
1123.15	0.038
1130.6	0.046
1138.05	0.076
1145.5	0.266
1152.95	0.433
1160.4	0.45
1167.85	0.424
1175.3	0.439
1182.75	0.517
1190.2	0.543
1197.65	0.557
1205.1	0.563
1212.55	0.56
1220	0.563
1227.45	0.546
1234.9	0.505
1242.35	0.429
1249.8	0.323
1257.25	0.253
1264.7	0.308
1272.15	0.335
1279.6	0.28
1287.05	0.192
1294.5	0.156
1301.95	0.095
1309.4	0.21
1316.85	0.332
1324.3	0.312
1331.75	0.289
1339.2	0.383
1346.65	0.411
1354.1	0.365
1361.55	0.353
1369	0.365
1376.45	0.327
1383.9	0.272
1391.35	0.229
1398.8	0.205
1406.25	0.223
1413.7	0.312
1421.15	0.353
1428.6	0.4
1436.05	0.453
1443.5	0.49
1450.95	0.539
1458.4	0.573
1465.85	0.593
1473.3	0.6
1480.75	0.597
1488.2	0.611
1495.65	0.664
1503.1	0.69
1510.55	0.675
1518	0.682
1525.45	0.687
1532.9	0.694
1540.34	0.7
1547.79	0.694
1555.24	0.685
1562.69	0.682
1570.14	0.651
1577.59	0.599
1585.04	0.536
1592.49	0.554
1599.94	0.655
1607.39	0.657
1614.84	0.649
1622.29	0.621
1629.74	0.591
1637.19	0.549
1644.64	0.499
1652.09	0.45
1659.54	0.375
1666.99	0.292
1674.44	0.239
1681.89	0.198
1689.34	0.233
1696.79	0.357
1704.24	0.499
1711.69	0.622
1719.14	0.661
1726.59	0.704
1734.04	0.725
1741.49	0.737
1748.94	0.751
1756.39	0.76
1763.84	0.763
1771.29	0.783
1778.74	0.803
1786.19	0.824
1793.64	0.83
1801.09	0.833
1808.54	0.836
1815.99	0.846
1823.44	0.85
1830.89	0.853
1838.34	0.853
1845.79	0.856
1853.24	0.858
1860.69	0.855
1868.14	0.853
1875.59	0.853
1883.04	0.856
1890.49	0.861
1897.94	0.861
1905.39	0.855
1912.84	0.855
1920.29	0.858
1927.74	0.867
1935.19	0.877
1942.64	0.876
1950.09	0.879
1957.54	0.876
1964.99	0.888
1972.44	0.891
1979.89	0.891
1987.34	0.895
1994.79	0.894
2002.24	0.891
2009.69	0.892
2017.14	0.888
2024.59	0.882
2032.04	0.886
2039.49	0.891
2046.94	0.894
2054.39	0.888
2061.84	0.882
2069.29	0.886
2076.74	0.889
2084.19	0.888
2091.64	0.889
2099.08	0.895
2106.53	0.895
2113.98	0.885
2121.43	0.882
2128.88	0.883
2136.33	0.879
2143.78	0.883
2151.23	0.883
2158.68	0.883
2166.13	0.882
2173.58	0.88
2181.03	0.88
2188.48	0.882
2195.93	0.882
2203.38	0.88
2210.83	0.885
2218.28	0.888
2225.73	0.88
2233.18	0.877
2240.63	0.877
2248.08	0.88
2255.53	0.886
2262.98	0.894
2270.43	0.895
2277.88	0.891
2285.33	0.885
2292.78	0.883
2300.23	0.879
2307.68	0.877
2315.13	0.876
2322.58	0.874
2330.03	0.874
2337.48	0.876
2344.93	0.877
2352.38	0.879
2359.83	0.885
2367.28	0.898
2374.73	0.904
2382.18	0.897
2389.63	0.891
2397.08	0.888
2404.53	0.889
2411.98	0.901
2419.43	0.9
2426.88	0.922
2434.33	0.931
2441.78	0.888
2449.23	0.882
2456.68	0.877
2464.13	0.879
2471.58	0.885
2479.03	0.891
2486.48	0.885
2493.93	0.885
2501.38	0.888
2508.83	0.885
2516.28	0.883
2523.73	0.886
2531.18	0.888
2538.63	0.889
2546.08	0.891
2553.53	0.891
2560.98	0.891
2568.43	0.889
2575.88	0.886
2583.33	0.886
2590.78	0.886
2598.23	0.883
2605.68	0.888
2613.13	0.895
2620.58	0.898
2628.03	0.9
2635.48	0.895
2642.93	0.891
2650.38	0.886
2657.82	0.879
2665.27	0.87
2672.72	0.867
2680.17	0.864
2687.62	0.862
2695.07	0.861
2702.52	0.862
2709.97	0.864
2717.42	0.864
2724.87	0.862
2732.32	0.861
2739.77	0.858
2747.22	0.858
2754.67	0.859
2762.12	0.862
2769.57	0.861
2777.02	0.859
2784.47	0.855
2791.92	0.847
2799.37	0.837
2806.82	0.818
2814.27	0.8
2821.72	0.773
2829.17	0.749
2836.62	0.733
2844.07	0.718
2851.52	0.707
2858.97	0.707
2866.42	0.716
2873.87	0.73
2881.32	0.716
2888.77	0.718
2896.22	0.698
2903.67	0.688
2911.12	0.655
2918.57	0.636
2926.02	0.631
2933.47	0.648
2940.92	0.669
2948.37	0.682
2955.82	0.69
2963.27	0.694
2970.72	0.69
2978.17	0.679
2985.62	0.679
2993.07	0.706
3000.52	0.755
3007.97	0.783
3015.42	0.791
3022.87	0.792
3030.32	0.795
3037.77	0.788
3045.22	0.783
3052.67	0.782
3060.12	0.782
3067.57	0.777
3075.02	0.773
3082.47	0.769
3089.92	0.764
3097.37	0.757
3104.82	0.752
3112.27	0.751
3119.72	0.748
3127.17	0.739
3134.62	0.724
3142.07	0.716
3149.52	0.698
3156.97	0.672
3164.42	0.66
3171.87	0.639
3179.32	0.622
3186.77	0.593
3194.22	0.587
3201.67	0.579
3209.12	0.546
3216.56	0.506
3224.01	0.432
3231.46	0.38
3238.91	0.299
3246.36	0.226
3253.81	0.14
3261.26	0.113
3268.71	0.134
3276.16	0.204
3283.61	0.304
3291.06	0.406
3298.51	0.475
3305.96	0.551
3313.41	0.596
3320.86	0.622
3328.31	0.651
3335.76	0.658
3343.21	0.667
3350.66	0.673
3358.11	0.675
3365.56	0.664
3373.01	0.657
3380.46	0.663
3387.91	0.687
3395.36	0.692
3402.81	0.691
3410.26	0.687
3417.71	0.688
3425.16	0.69
3432.61	0.691
3440.06	0.692
3447.51	0.694
3454.96	0.697
3462.41	0.701
3469.86	0.707
3477.31	0.718
3484.76	0.724
3492.21	0.728
