Infrared Spectrum: cis-4-Nonene
Formula: C 9 H 18
CAS: 10405-85-3
State: gas
Instrument: HP-GC/MS/IRD
Origin: NIST Mass Spectrometry Data Center
1/CM	ABSORBANCE
550	0.0001914
562	3.96e-05
574	0.0001496
586	0.0003168
598	0.0001804
610	0.0001122
622	9.24e-05
634	0.0002156
646	0.0002882
658	0.0004884
670	0.0007282
682	0.0011968
694	0.001606
706	0.0018194
718	0.0015268
730	0.0011352
742	0.0008162
754	0.0007326
766	0.00055
778	0.000374
790	0.0002596
802	0.0002002
814	0.0001804
826	0.0002156
838	0.0002574
850	0.000341
862	0.0004202
874	0.000462
886	0.000462
898	0.0003674
910	0.0002354
922	0.0001958
934	0.0001496
946	0.000143
958	0.0001562
970	0.0001804
982	0.0001496
994	0.0001584
1006	0.0002596
1018	0.0002574
1030	0.0002354
1042	0.0003036
1054	0.0003036
1066	0.0004224
1078	0.0004598
1090	0.000363
1102	0.0002706
1114	0.0001628
1126	0.0001056
1138	0.0001034
1150	5.94e-05
1162	4.4e-05
1174	2.64e-05
1186	2.42e-05
1198	0.0001056
1210	0.0001056
1222	0.000132
1234	0.000209
1246	0.0003168
1258	0.0003454
1270	0.0004312
1282	0.000418
1294	0.0004312
1306	0.0005852
1318	0.000627
1330	0.0006864
1342	0.0007304
1354	0.0005764
1366	0.0006006
1378	0.0010648
1390	0.0011924
1402	0.0011022
1414	0.0008668
1426	0.0008382
1438	0.001408
1450	0.0022132
1462	0.0027368
1474	0.0020878
1486	0.0011154
1498	0.0005742
1510	0.0003388
1522	0.0002376
1534	0.000165
1546	0.0001298
1558	0.0001012
1570	8.14e-05
1582	9.24e-05
1594	7.92e-05
1606	9.02e-05
1618	0.0001584
1630	0.0002046
1642	0.0003256
1654	0.000385
1666	0.00033
1678	0.0002508
1690	0.00022
1702	0.0001298
1714	8.14e-05
1726	6.6e-05
1738	5.06e-05
1750	3.96e-05
1762	4.84e-05
1774	4.62e-05
1786	3.52e-05
1798	3.3e-05
1810	3.52e-05
1822	5.06e-05
1834	5.28e-05
1846	3.96e-05
1858	3.52e-05
1870	1.98e-05
1882	5.06e-05
1894	5.06e-05
1906	4.18e-05
1918	1.54e-05
1930	2.42e-05
1942	1.98e-05
1954	2.64e-05
1966	8.8e-06
1978	3.08e-05
1990	1.76e-05
2002	1.1e-05
2014	2.42e-05
2026	3.08e-05
2038	6.16e-05
2050	4.62e-05
2062	5.06e-05
2074	4.18e-05
2086	1.32e-05
2098	2.42e-05
2110	6.6e-06
2122	1.54e-05
2134	2.64e-05
2146	2.2e-06
2158	1.32e-05
2170	3.52e-05
2182	2.64e-05
2194	3.08e-05
2206	2.42e-05
2218	3.08e-05
2230	5.72e-05
2242	2.2e-06
2254	2.86e-05
2266	2.42e-05
2278	2.42e-05
2290	4.18e-05
2302	5.72e-05
2314	4.84e-05
2326	5.72e-05
2338	5.06e-05
2350	5.94e-05
2362	4.84e-05
2374	5.5e-05
2386	4.84e-05
2398	5.72e-05
2410	5.06e-05
2422	5.5e-05
2434	5.72e-05
2446	5.06e-05
2458	2.42e-05
2470	5.28e-05
2482	2.86e-05
2494	6.16e-05
2506	7.04e-05
2518	8.14e-05
2530	7.26e-05
2542	7.48e-05
2554	8.36e-05
2566	9.02e-05
2578	9.02e-05
2590	0.0001166
2602	0.0001056
2614	0.00011
2626	0.0001452
2638	0.0001936
2650	0.0002024
2662	0.0002574
2674	0.0002596
2686	0.0002486
2698	0.0002684
2710	0.0002882
2722	0.000308
2734	0.0003916
2746	0.000462
2758	0.0004598
2770	0.0005192
2782	0.0006226
2794	0.0007832
2806	0.001012
2818	0.0013596
2830	0.0020834
2842	0.0034826
2854	0.0060698
2866	0.0092774
2878	0.0113388
2890	0.010516
2902	0.0101376
2914	0.0132748
2926	0.0188122
2938	0.022
2950	0.0198484
2962	0.0209682
2974	0.0186208
2986	0.0092202
2998	0.0063932
3010	0.0070752
3022	0.005654
3034	0.002761
3046	0.0014652
3058	0.0010824
3070	0.0009394
3082	0.0007458
3094	0.0006138
3106	0.0004884
3118	0.0004268
3130	0.0003454
3142	0.0003564
3154	0.0002948
3166	0.000264
3178	0.000264
3190	0.0002552
3202	0.0002046
3214	0.0001628
3226	0.00011
3238	0.0001342
3250	0.0001012
3262	9.68e-05
3274	0.0001144
3286	0.0001474
3298	7.04e-05
3310	3.96e-05
3322	6.82e-05
3334	7.7e-05
3346	6.38e-05
3358	8.14e-05
3370	6.16e-05
3382	6.16e-05
3394	4.4e-05
3406	3.96e-05
3418	5.5e-05
3430	2.42e-05
3442	4.4e-05
3454	3.3e-05
3466	8.8e-06
3478	5.94e-05
3490	2.42e-05
3502	4.62e-05
3514	4.18e-05
3526	3.3e-05
3538	3.52e-05
3550	3.3e-05
3562	5.94e-05
3574	3.74e-05
3586	2.86e-05
3598	3.74e-05
3610	5.06e-05
3622	5.28e-05
3634	8.36e-05
3646	7.92e-05
3658	5.5e-05
3670	7.92e-05
3682	8.36e-05
3694	5.72e-05
3706	5.94e-05
3718	3.96e-05
3730	5.06e-05
3742	7.04e-05
3754	3.52e-05
3766	7.04e-05
3778	6.82e-05
3790	9.9e-05
3802	5.72e-05
3814	7.26e-05
3826	0.0001012
3838	8.36e-05
