Infrared Spectrum: N-1-[1,1-BIS(p-TOLUENESULFONOXYMETHYL)PROPYL]-p-TOLUENESULFONAMIDE
Formula: C26 H31 N O8 S3
CAS: 10405-51-3
State: SOLID (KBr PELLET)
Melting point: 124.5-125 C
Class: COBLENTZ
Instrument: Not specified, most likely a prism, grating, or hybrid spectrometer.
Sampling: TRANSMISSION
Resolution: 4
Origin: ARTHUR D. LITTLE, INC.
1/CM	TRANSMITTANCE
700.984	0.403
708.853	0.397
716.722	0.349
724.591	0.272
732.459	0.165
740.328	0.074
748.197	0.038
756.066	0.049
763.935	0.055
771.804	0.018
779.673	0.015
787.541	0.017
795.41	0.02
803.279	0.03
811.148	0.058
819.017	0.083
826.886	0.116
834.755	0.133
842.623	0.214
850.492	0.359
858.361	0.499
866.23	0.638
874.099	0.667
881.968	0.647
889.837	0.596
897.705	0.595
905.574	0.613
913.443	0.55
921.312	0.449
929.181	0.325
937.05	0.162
944.919	0.064
952.787	0.041
960.656	0.049
968.525	0.045
976.394	0.051
984.263	0.073
992.132	0.091
1000	0.108
1007.87	0.124
1015.74	0.14
1023.61	0.175
1031.48	0.192
1039.34	0.208
1047.21	0.281
1055.08	0.297
1062.95	0.229
1070.82	0.155
1078.69	0.144
1086.56	0.247
1094.43	0.293
1102.3	0.254
1110.16	0.233
1118.03	0.163
1125.9	0.04
1133.77	0.011
1141.64	0.018
1149.51	0.031
1157.38	0.047
1165.25	0.068
1173.12	0.103
1180.98	0.205
1188.85	0.3
1196.72	0.321
1204.59	0.356
1212.46	0.403
1220.33	0.557
1228.2	0.598
1236.07	0.598
1243.94	0.532
1251.8	0.475
1259.67	0.373
1267.54	0.228
1275.41	0.159
1283.28	0.153
1291.15	0.157
1299.02	0.131
1306.89	0.081
1314.75	0.072
1322.62	0.083
1330.49	0.087
1338.36	0.083
1346.23	0.096
1354.1	0.128
1361.97	0.183
1369.84	0.249
1377.71	0.267
1385.57	0.272
1393.44	0.277
1401.31	0.256
1409.18	0.212
1417.05	0.162
1424.92	0.144
1432.79	0.15
1440.66	0.148
1448.53	0.152
1456.39	0.161
1464.26	0.199
1472.13	0.247
1480	0.298
1487.87	0.381
1495.74	0.453
1503.61	0.496
1511.48	0.501
1519.35	0.501
1527.21	0.499
1535.08	0.494
1542.95	0.491
1550.82	0.471
1558.69	0.46
1566.56	0.427
1574.43	0.386
1582.3	0.348
1590.16	0.314
1598.03	0.403
1605.9	0.567
1613.77	0.613
1621.64	0.634
1629.51	0.664
1637.38	0.681
1645.25	0.682
1653.12	0.699
1660.98	0.71
1668.85	0.715
1676.72	0.715
1684.59	0.715
1692.46	0.716
1700.33	0.718
1708.2	0.718
1716.07	0.718
1723.94	0.715
1731.8	0.718
1739.67	0.716
1747.54	0.718
1755.41	0.719
1763.28	0.72
1771.15	0.727
1779.02	0.728
1786.89	0.727
1794.76	0.73
1802.62	0.728
1810.49	0.745
1818.36	0.749
1826.23	0.756
1834.1	0.756
1841.97	0.757
1849.84	0.76
1857.71	0.757
1865.57	0.756
1873.44	0.756
1881.31	0.753
1889.18	0.754
1897.05	0.756
1904.92	0.756
1912.79	0.76
1920.66	0.766
1928.53	0.782
1936.39	0.811
1944.26	0.815
1952.13	0.816
1960	0.821
1967.87	0.829
1975.74	0.83
1983.61	0.832
1991.48	0.834
1999.35	0.837
2007.21	0.84
2015.08	0.842
2022.95	0.844
2030.82	0.845
2038.69	0.846
2046.56	0.846
2054.43	0.847
2062.3	0.849
2070.17	0.847
2078.03	0.845
2085.9	0.845
2093.77	0.845
2101.64	0.842
2109.51	0.837
2117.38	0.838
2125.25	0.84
2133.12	0.838
2140.98	0.837
2148.85	0.837
2156.72	0.836
2164.59	0.833
2172.46	0.832
2180.33	0.829
2188.2	0.829
2196.07	0.829
2203.94	0.828
2211.8	0.826
2219.67	0.826
2227.54	0.825
2235.41	0.824
2243.28	0.825
2251.15	0.825
2259.02	0.823
2266.89	0.82
2274.76	0.821
2282.62	0.823
2290.49	0.824
2298.36	0.824
2306.23	0.825
2314.1	0.826
2321.97	0.828
2329.84	0.829
2337.71	0.83
2345.58	0.833
2353.44	0.833
2361.31	0.837
2369.18	0.838
2377.05	0.841
2384.92	0.841
2392.79	0.838
2400.66	0.84
2408.53	0.841
2416.4	0.84
2424.26	0.838
2432.13	0.836
2440	0.832
2447.87	0.828
2455.74	0.824
2463.61	0.821
2471.48	0.819
2479.35	0.816
2487.21	0.815
2495.08	0.812
2502.95	0.809
2510.82	0.808
2518.69	0.807
2526.56	0.8
2534.43	0.799
2542.3	0.799
2550.17	0.799
2558.03	0.799
2565.9	0.798
2573.77	0.795
2581.64	0.794
2589.51	0.796
2597.38	0.802
2605.25	0.808
2613.12	0.809
2620.99	0.811
2628.85	0.808
2636.72	0.808
2644.59	0.806
2652.46	0.802
2660.33	0.799
2668.2	0.795
2676.07	0.788
2683.94	0.783
2691.81	0.779
2699.67	0.774
2707.54	0.768
2715.41	0.764
2723.28	0.756
2731.15	0.753
2739.02	0.752
2746.89	0.749
2754.76	0.743
2762.62	0.727
2770.49	0.716
2778.36	0.701
2786.23	0.692
2794.1	0.684
2801.97	0.667
2809.84	0.65
2817.71	0.63
2825.58	0.598
2833.44	0.57
2841.31	0.549
2849.18	0.508
2857.05	0.467
2864.92	0.435
2872.79	0.414
2880.66	0.398
2888.53	0.377
2896.4	0.373
2904.26	0.361
2912.13	0.334
2920	0.301
2927.87	0.288
2935.74	0.284
2943.61	0.287
2951.48	0.298
2959.35	0.323
2967.22	0.338
2975.08	0.369
2982.95	0.398
2990.82	0.457
2998.69	0.532
3006.56	0.568
3014.43	0.568
3022.3	0.566
3030.17	0.564
3038.03	0.564
3045.9	0.566
3053.77	0.571
3061.64	0.577
3069.51	0.596
3077.38	0.606
3085.25	0.608
3093.12	0.608
3100.99	0.608
3108.85	0.606
3116.72	0.604
3124.59	0.601
3132.46	0.596
3140.33	0.589
3148.2	0.583
3156.07	0.57
3163.94	0.559
3171.81	0.546
3179.67	0.517
3187.54	0.488
3195.41	0.452
3203.28	0.414
3211.15	0.363
3219.02	0.289
3226.89	0.229
3234.76	0.203
3242.63	0.209
3250.49	0.259
3258.36	0.335
3266.23	0.406
3274.1	0.436
3281.97	0.479
3289.84	0.511
3297.71	0.541
3305.58	0.574
3313.44	0.608
3321.31	0.629
3329.18	0.648
3337.05	0.669
3344.92	0.686
3352.79	0.701
3360.66	0.714
3368.53	0.723
3376.4	0.727
3384.26	0.731
3392.13	0.733
3400	0.739
3407.87	0.74
3415.74	0.743
3423.61	0.744
3431.48	0.744
3439.35	0.745
3447.22	0.745
3455.08	0.748
3462.95	0.752
3470.82	0.757
3478.69	0.758
3486.56	0.761
3494.43	0.761
