Infrared Spectrum: 2-METHYL-2-p-TOLUENESULFONYLAMINO-1,3-PROPANEDIOL DI-p-TOLUENESULFONATE
Formula: C25 H29 N O8 S3
CAS: 10405-52-4
State: SOLID (KBr PELLET)
Melting point: 110-111 C
Class: COBLENTZ
Instrument: Not specified, most likely a prism, grating, or hybrid spectrometer.
Sampling: TRANSMISSION
Resolution: 4
Origin: ARTHUR D. LITTLE, INC.
1/CM	TRANSMITTANCE
651.811	0.089
660.168	0.1
668.524	0.186
676.881	0.31
685.237	0.379
693.594	0.365
701.95	0.491
710.307	0.543
718.663	0.551
727.02	0.542
735.377	0.504
743.733	0.449
752.09	0.351
760.446	0.273
768.803	0.2
777.159	0.156
785.516	0.121
793.872	0.099
802.229	0.036
810.586	0.046
818.942	0.06
827.299	0.084
835.655	0.127
844.012	0.142
852.368	0.163
860.725	0.242
869.081	0.298
877.438	0.539
885.795	0.654
894.151	0.672
902.508	0.624
910.864	0.565
919.221	0.497
927.577	0.308
935.934	0.113
944.29	0.009
952.647	0.019
961.004	0.021
969.36	0.007
977.717	0.035
986.073	0.093
994.43	0.172
1002.79	0.211
1011.14	0.24
1019.5	0.399
1027.86	0.494
1036.21	0.586
1044.57	0.638
1052.93	0.63
1061.28	0.599
1069.64	0.462
1078	0.254
1086.35	0.137
1094.71	0.341
1103.06	0.436
1111.42	0.432
1119.78	0.464
1128.13	0.357
1136.49	0.147
1144.85	0.03
1153.2	0.025
1161.56	0.016
1169.92	0.019
1178.27	0.054
1186.63	0.197
1194.99	0.431
1203.34	0.481
1211.7	0.563
1220.06	0.647
1228.41	0.69
1236.77	0.708
1245.13	0.684
1253.48	0.64
1261.84	0.55
1270.2	0.397
1278.55	0.27
1286.91	0.327
1295.27	0.308
1303.62	0.301
1311.98	0.203
1320.34	0.075
1328.69	0.022
1337.05	0.021
1345.41	0.032
1353.76	0.082
1362.12	0.149
1370.47	0.219
1378.83	0.292
1387.19	0.284
1395.54	0.303
1403.9	0.32
1412.26	0.277
1420.61	0.215
1428.97	0.218
1437.33	0.235
1445.68	0.299
1454.04	0.355
1462.4	0.407
1470.75	0.48
1479.11	0.543
1487.47	0.554
1495.82	0.572
1504.18	0.677
1512.54	0.694
1520.89	0.7
1529.25	0.703
1537.61	0.691
1545.96	0.696
1554.32	0.677
1562.68	0.672
1571.03	0.605
1579.39	0.57
1587.75	0.49
1596.1	0.4
1604.46	0.563
1612.81	0.701
1621.17	0.726
1629.53	0.743
1637.88	0.752
1646.24	0.752
1654.6	0.757
1662.95	0.767
1671.31	0.795
1679.67	0.806
1688.02	0.809
1696.38	0.806
1704.74	0.809
1713.09	0.803
1721.45	0.806
1729.81	0.805
1738.16	0.808
1746.52	0.799
1754.88	0.798
1763.23	0.798
1771.59	0.802
1779.95	0.806
1788.3	0.812
1796.66	0.809
1805.02	0.803
1813.37	0.802
1821.73	0.82
1830.09	0.831
1838.44	0.836
1846.8	0.84
1855.15	0.84
1863.51	0.836
1871.87	0.837
1880.22	0.833
1888.58	0.834
1896.94	0.826
1905.29	0.809
1913.65	0.802
1922.01	0.794
1930.36	0.812
1938.72	0.852
1947.08	0.862
1955.43	0.862
1963.79	0.862
1972.15	0.876
1980.5	0.88
1988.86	0.885
1997.22	0.887
2005.57	0.89
2013.93	0.889
2022.29	0.886
2030.64	0.882
2039	0.887
2047.36	0.893
2055.71	0.896
2064.07	0.899
2072.43	0.9
2080.78	0.897
2089.14	0.897
2097.49	0.899
2105.85	0.897
2114.21	0.893
2122.56	0.887
2130.92	0.896
2139.28	0.903
2147.63	0.903
2155.99	0.901
2164.35	0.897
2172.7	0.893
2181.06	0.886
2189.42	0.89
2197.77	0.887
2206.13	0.887
2214.49	0.889
2222.84	0.89
2231.2	0.885
2239.56	0.878
2247.91	0.875
2256.27	0.872
2264.63	0.873
2272.98	0.875
2281.34	0.875
2289.7	0.873
2298.05	0.871
2306.41	0.869
2314.77	0.869
2323.12	0.871
2331.48	0.875
2339.84	0.882
2348.19	0.886
2356.55	0.889
2364.9	0.89
2373.26	0.894
2381.62	0.899
2389.97	0.894
2398.33	0.885
2406.69	0.88
2415.04	0.882
2423.4	0.886
2431.76	0.893
2440.11	0.901
2448.47	0.871
2456.83	0.869
2465.18	0.872
2473.54	0.873
2481.9	0.872
2490.25	0.871
2498.61	0.868
2506.97	0.871
2515.32	0.871
2523.68	0.869
2532.04	0.871
2540.39	0.872
2548.75	0.872
2557.11	0.871
2565.46	0.868
2573.82	0.866
2582.18	0.865
2590.53	0.866
2598.89	0.868
2607.24	0.871
2615.6	0.872
2623.96	0.871
2632.31	0.872
2640.67	0.871
2649.03	0.866
2657.38	0.861
2665.74	0.857
2674.1	0.851
2682.45	0.85
2690.81	0.848
2699.17	0.848
2707.52	0.848
2715.88	0.845
2724.24	0.843
2732.59	0.841
2740.95	0.84
2749.31	0.84
2757.66	0.841
2766.02	0.84
2774.38	0.838
2782.73	0.836
2791.09	0.833
2799.45	0.831
2807.8	0.829
2816.16	0.822
2824.52	0.801
2832.87	0.775
2841.23	0.754
2849.58	0.731
2857.94	0.704
2866.3	0.682
2874.65	0.676
2883.01	0.673
2891.37	0.67
2899.72	0.663
2908.08	0.644
2916.44	0.616
2924.79	0.579
2933.15	0.577
2941.51	0.602
2949.86	0.603
2958.22	0.595
2966.58	0.589
2974.93	0.588
2983.29	0.591
2991.65	0.599
3000	0.613
3008.36	0.627
3016.72	0.626
3025.07	0.612
3033.43	0.599
3041.79	0.614
3050.14	0.627
3058.5	0.635
3066.86	0.645
3075.21	0.662
3083.57	0.712
3091.93	0.749
3100.28	0.754
3108.64	0.761
3116.99	0.771
3125.35	0.777
3133.71	0.78
3142.06	0.781
3150.42	0.784
3158.78	0.787
3167.13	0.785
3175.49	0.778
3183.85	0.767
3192.2	0.757
3200.56	0.742
3208.92	0.735
3217.27	0.728
3225.63	0.721
3233.99	0.703
3242.34	0.676
3250.7	0.647
3259.06	0.619
3267.41	0.579
3275.77	0.549
3284.13	0.515
3292.48	0.478
3300.84	0.443
3309.2	0.411
3317.55	0.387
3325.91	0.347
3334.27	0.301
3342.62	0.274
3350.98	0.302
3359.33	0.396
3367.69	0.543
3376.05	0.624
3384.4	0.691
3392.76	0.729
3401.12	0.752
3409.47	0.759
3417.83	0.764
3426.19	0.771
3434.54	0.774
3442.9	0.771
3451.26	0.773
3459.61	0.782
3467.97	0.782
3476.33	0.785
3484.68	0.782
3493.04	0.784
3501.4	0.789
3509.75	0.791
3518.11	0.791
3526.47	0.792
3534.82	0.794
3543.18	0.794
