Infrared Spectrum: Hexanenitrile, 5-oxo-
Formula: C6 H9 N O
CAS: 10412-98-3
State: LIQUID (NEAT)
Boiling point: 108 C AT 14 mmHg
Class: COBLENTZ III
Instrument: BECKMAN IR-9 (GRATING)
Instrument parameters: ORDER CHANGES: 670, 1200, 2000 CM^-^1
Sampling: TRANSMISSION
Path length: CAPILLARY
Resolution: 2
Origin: DOW CHEMICAL COMPANY
1/CM	TRANSMITTANCE
3800	0.8555
3791	0.8544
3782	0.8531
3773	0.8518
3764	0.8515
3755	0.8512
3746	0.8511
3737	0.8509
3728	0.8506
3719	0.8499
3710	0.847
3701	0.84
3692	0.8317
3683	0.821
3674	0.8098
3665	0.8004
3656	0.7911
3647	0.7841
3638	0.7794
3629	0.7768
3620	0.7775
3611	0.7795
3602	0.7828
3593	0.7867
3584	0.788
3575	0.7876
3566	0.7872
3557	0.7868
3548	0.7865
3539	0.7867
3530	0.7884
3521	0.7918
3512	0.7965
3503	0.8012
3494	0.8058
3485	0.8099
3476	0.8125
3467	0.8143
3458	0.8154
3449	0.8139
3440	0.8001
3431	0.781
3422	0.7538
3413	0.7443
3404	0.7688
3395	0.7865
3386	0.8075
3377	0.8155
3368	0.8228
3359	0.8259
3350	0.8258
3341	0.8251
3332	0.8248
3323	0.8264
3314	0.8302
3305	0.8312
3296	0.8309
3287	0.8306
3278	0.8303
3269	0.83
3260	0.8297
3251	0.8291
3242	0.8286
3233	0.8264
3224	0.822
3215	0.8175
3206	0.8143
3197	0.8112
3188	0.8095
3179	0.8078
3170	0.8068
3161	0.8061
3152	0.8058
3143	0.8051
3134	0.799
3125	0.7921
3116	0.7847
3107	0.7768
3098	0.7691
3089	0.7626
3080	0.7598
3071	0.7568
3062	0.7468
3053	0.7357
3044	0.7211
3035	0.7
3026	0.669
3017	0.5703
3008	0.5648
2999	0.5702
2990	0.5487
2981	0.4315
2972	0.3742
2963	0.3279
2954	0.2952
2945	0.3257
2936	0.3958
2927	0.4615
2918	0.4757
2909	0.4789
2900	0.5074
2891	0.5417
2882	0.5812
2873	0.6368
2864	0.6772
2855	0.7048
2846	0.7298
2837	0.7545
2828	0.7681
2819	0.7775
2810	0.7864
2801	0.7947
2792	0.8026
2783	0.8103
2774	0.8171
2765	0.8223
2756	0.8256
2747	0.8268
2738	0.8281
2729	0.8293
2720	0.8304
2711	0.8312
2702	0.832
2693	0.8328
2684	0.8334
2675	0.8339
2666	0.8344
2657	0.8349
2648	0.8355
2639	0.8363
2630	0.8371
2621	0.8378
2612	0.8399
2603	0.8421
2594	0.8434
2585	0.8446
2576	0.8455
2567	0.846
2558	0.8452
2549	0.8436
2540	0.8414
2531	0.8388
2522	0.8363
2513	0.8394
2504	0.8423
2495	0.8438
2486	0.845
2477	0.8457
2468	0.8465
2459	0.8468
2450	0.8471
2441	0.8473
2432	0.847
2423	0.8467
2414	0.8453
2405	0.8434
2396	0.8405
2387	0.8305
2378	0.8218
2369	0.8223
2360	0.8227
2351	0.8225
2342	0.822
2333	0.821
2324	0.8199
2315	0.8178
2306	0.8134
2297	0.8084
2288	0.8007
2279	0.7831
2270	0.7538
2261	0.5822
2252	0.2543
2243	0.5329
2234	0.7857
2225	0.8234
2216	0.8338
2207	0.8316
2198	0.8355
2189	0.8398
2180	0.8425
2171	0.8425
2162	0.8421
2153	0.8413
2144	0.8402
2135	0.839
2126	0.8383
2117	0.8397
2108	0.8418
2099	0.8449
2090	0.8478
2081	0.8499
2072	0.8518
2063	0.853
2054	0.8527
2045	0.8523
2036	0.852
2027	0.8515
2018	0.8512
2009	0.8509
2000	0.8506
1991	0.8501
1982	0.8491
1973	0.8463
1964	0.8393
1955	0.8461
1946	0.8475
1937	0.8485
1928	0.8465
1919	0.8427
1910	0.8381
1901	0.8352
1892	0.8356
1883	0.8418
1874	0.844
1865	0.8421
1856	0.8371
1847	0.8325
1838	0.8263
1829	0.8171
1820	0.8056
1811	0.7922
1802	0.7795
1793	0.7621
1784	0.7357
1775	0.6957
1766	0.6498
1757	0.5998
1748	0.5252
1739	0.4008
1730	0.0082
1721	0.0038
1712	0.01
1703	0.0621
1694	0.2963
1685	0.496
1676	0.5473
1667	0.6434
1658	0.6892
1649	0.7095
1640	0.7271
1631	0.7425
1622	0.7585
1613	0.7741
1604	0.7838
1595	0.7878
1586	0.7842
1577	0.7783
1568	0.7712
1559	0.7658
1550	0.7628
1541	0.7611
1532	0.7558
1523	0.7485
1514	0.7384
1505	0.7261
1496	0.7103
1487	0.6865
1478	0.643
1469	0.5675
1460	0.3478
1451	0.2212
1442	0.2032
1433	0.1039
1424	0.1218
1415	0.1621
1406	0.308
1397	0.365
1388	0.1813
1379	0.032
1370	0.0541
1361	0.0634
1352	0.2398
1343	0.4575
1334	0.5277
1325	0.5445
1316	0.464
1307	0.5981
1298	0.6007
1289	0.6411
1280	0.6276
1271	0.6401
1262	0.5806
1253	0.5982
1244	0.6002
1235	0.3754
1226	0.4252
1217	0.5486
1208	0.4992
1199	0.402
1190	0.3497
1181	0.3749
1172	0.113
1163	0.0601
1154	0.3734
1145	0.65
1136	0.7165
1127	0.7553
1118	0.7717
1109	0.781
1100	0.7824
1091	0.7645
1082	0.7148
1073	0.7061
1064	0.7032
1055	0.7307
1046	0.776
1037	0.7732
1028	0.7424
1019	0.7018
1010	0.721
1001	0.7794
992	0.7741
983	0.7378
974	0.6521
965	0.5591
956	0.4915
947	0.5477
938	0.6915
929	0.7661
920	0.8017
911	0.8101
902	0.8112
893	0.8086
884	0.765
875	0.7581
866	0.7801
857	0.7868
848	0.7743
839	0.8025
830	0.8048
821	0.7861
812	0.7742
803	0.7825
794	0.7887
785	0.798
776	0.7925
767	0.7738
758	0.753
749	0.7328
740	0.6458
731	0.5734
722	0.7155
713	0.7908
704	0.8128
695	0.8267
686	0.8328
677	0.8345
668	0.8332
659	0.8307
650	0.8266
641	0.8214
632	0.8115
623	0.7878
614	0.7128
605	0.536
596	0.6437
587	0.7476
578	0.758
569	0.7362
560	0.6628
551	0.6175
542	0.573
533	0.5476
524	0.6256
515	0.6751
506	0.6943
497	0.7017
488	0.6976
479	0.6935
470	0.691
461	0.6801
452	0.6497
443	0.6134
434	0.553
425	0.4966
416	0.464
407	0.4532
