Infrared Spectrum: Cyclohexyl, 4-tert-butyl-, acetate (mostly cis-)
Formula: C12 H22 O2
CAS: 10411-92-4
State: LIQUID (NEAT)
Class: COBLENTZ III
Instrument: BECKMAN IR-12 (GRATING)
Instrument parameters: GRATING
Sampling: TRANSMISSION
Path length: CAPILLARY
Resolution: 2
Origin: COLGATE-PALMOLIVE COMPANY (KELLENBACH)
1/CM	TRANSMITTANCE
403	0.7883
412	0.8354
421	0.8691
430	0.9068
439	0.9143
448	0.8556
457	0.9025
466	0.9027
475	0.9074
484	0.9105
493	0.9452
502	0.9652
511	0.9618
520	0.9548
529	0.9559
538	0.9576
547	0.9553
556	0.9464
565	0.9357
574	0.9267
583	0.9262
592	0.919
601	0.8825
610	0.7318
619	0.832
628	0.7898
637	0.8896
646	0.895
655	0.8494
664	0.836
673	0.8699
682	0.8979
691	0.9026
700	0.9045
709	0.9059
718	0.9064
727	0.9074
736	0.9081
745	0.9075
754	0.8952
763	0.8794
772	0.9037
781	0.9054
790	0.9074
799	0.9054
808	0.8995
817	0.843
826	0.9038
835	0.9077
844	0.8904
853	0.881
862	0.8987
871	0.8798
880	0.7894
889	0.6138
898	0.7511
907	0.6741
916	0.8088
925	0.7255
934	0.7342
943	0.7247
952	0.503
961	0.6371
970	0.7132
979	0.7734
988	0.7533
997	0.6514
1006	0.4816
1015	0.3385
1024	0.3184
1033	0.3735
1042	0.3866
1051	0.4963
1060	0.6
1069	0.681
1078	0.7136
1087	0.7452
1096	0.7585
1105	0.624
1114	0.6734
1123	0.7893
1132	0.821
1141	0.8254
1150	0.7945
1159	0.6779
1168	0.6606
1177	0.3739
1186	0.6586
1195	0.6849
1204	0.6339
1213	0.5073
1222	0.3021
1231	0.1813
1240	0.1518
1249	0.1439
1258	0.1703
1267	0.3944
1276	0.5311
1285	0.6433
1294	0.6881
1303	0.6813
1312	0.7422
1321	0.7586
1330	0.7625
1339	0.7002
1348	0.6314
1357	0.3922
1366	0.2226
1375	0.3893
1384	0.5315
1393	0.5281
1402	0.7023
1411	0.7037
1420	0.6502
1429	0.5534
1438	0.4823
1447	0.4576
1456	0.5462
1465	0.5189
1474	0.5201
1483	0.681
1492	0.7749
1501	0.7981
1510	0.802
1519	0.8111
1528	0.8268
1537	0.834
1546	0.8309
1555	0.8391
1564	0.8474
1573	0.8456
1582	0.851
1591	0.8521
1600	0.8502
1609	0.8427
1618	0.8314
1627	0.8241
1636	0.8156
1645	0.7995
1654	0.7868
1663	0.7922
1672	0.778
1681	0.7561
1690	0.6986
1699	0.669
1708	0.6365
1717	0.5117
1726	0.2529
1735	0.1115
1744	0.2058
1753	0.5276
1762	0.6406
1771	0.6983
1780	0.7512
1789	0.7769
1798	0.784
1807	0.7989
1816	0.8215
1825	0.8366
1834	0.8404
1843	0.8456
1852	0.852
1861	0.8563
1870	0.8574
1879	0.8565
1888	0.8553
1897	0.853
1906	0.8524
1915	0.8553
1924	0.8588
1933	0.8631
1942	0.865
1951	0.8674
1960	0.8706
1969	0.8726
1978	0.8749
1987	0.8709
1996	0.8694
2005	0.869
2014	0.8691
2023	0.871
2032	0.8706
2041	0.8699
2050	0.8697
2059	0.8668
2068	0.8706
2077	0.8712
2086	0.869
2095	0.8666
2104	0.8626
2113	0.8583
2122	0.8554
2131	0.8542
2140	0.8549
2149	0.8565
2158	0.8582
2167	0.8598
2176	0.86
2185	0.8595
2194	0.8588
2203	0.858
2212	0.8572
2221	0.8565
2230	0.8558
2239	0.8542
2248	0.8524
2257	0.8526
2266	0.8538
2275	0.8553
2284	0.8563
2293	0.8571
2302	0.8575
2311	0.8568
2320	0.8563
2329	0.8556
2338	0.8548
2347	0.854
2356	0.8535
2365	0.853
2374	0.853
2383	0.8532
2392	0.8526
2401	0.8517
2410	0.852
2419	0.8531
2428	0.8542
2437	0.8553
2446	0.8543
2455	0.8513
2464	0.8474
2473	0.8419
2482	0.8385
2491	0.8394
2500	0.8434
2509	0.8468
2518	0.8494
2527	0.8509
2536	0.8512
2545	0.8506
2554	0.8501
2563	0.8486
2572	0.8467
2581	0.8426
2590	0.8397
2599	0.8372
2608	0.8352
2617	0.8237
2626	0.8115
2635	0.8159
2644	0.825
2653	0.8303
2662	0.8191
2671	0.8097
2680	0.8055
2689	0.8076
2698	0.8077
2707	0.8033
2716	0.8057
2725	0.8117
2734	0.8107
2743	0.8107
2752	0.8179
2761	0.8166
2770	0.8095
2779	0.7996
2788	0.7883
2797	0.7752
2806	0.7556
2815	0.7078
2824	0.619
2833	0.5249
2842	0.4448
2851	0.4038
2860	0.3153
2869	0.37
2878	0.4146
2887	0.4102
2896	0.3613
2905	0.3331
2914	0.3054
2923	0.2533
2932	0.2012
2941	0.1553
2950	0.1568
2959	0.1755
2968	0.3118
2977	0.4793
2986	0.6039
2995	0.671
3004	0.7154
3013	0.7332
3022	0.7518
3031	0.7647
3040	0.7747
3049	0.7851
3058	0.7942
3067	0.7992
3076	0.8021
3085	0.804
3094	0.806
3103	0.8076
3112	0.8115
3121	0.8111
3130	0.8091
3139	0.8067
3148	0.8054
3157	0.8042
3166	0.8036
3175	0.803
3184	0.8024
3193	0.8017
3202	0.8011
3211	0.8008
3220	0.8007
3229	0.8006
3238	0.8006
3247	0.8006
3256	0.8006
3265	0.8005
3274	0.8002
3283	0.7998
3292	0.7995
3301	0.7991
3310	0.7984
3319	0.7977
3328	0.797
3337	0.7963
3346	0.7957
3355	0.7949
3364	0.7941
3373	0.7933
3382	0.7925
3391	0.7915
3400	0.7904
3409	0.7884
3418	0.7843
3427	0.7791
3436	0.7735
3445	0.7623
3454	0.7619
3463	0.7741
3472	0.7896
3481	0.794
3490	0.7952
3499	0.7964
3508	0.7981
3517	0.7997
3526	0.8007
3535	0.8015
3544	0.8022
3553	0.8027
3562	0.8044
3571	0.8086
3580	0.8103
3589	0.8106
3598	0.8107
3607	0.8102
3616	0.8074
3625	0.8052
3634	0.8117
3643	0.8118
3652	0.8113
3661	0.8134
3670	0.8162
3679	0.8162
3688	0.8166
3697	0.819
3706	0.8199
3715	0.8191
3724	0.8163
3733	0.812
3742	0.8131
3751	0.8152
3760	0.8171
3769	0.8185
3778	0.8183
3787	0.8167
3796	0.8141
3805	0.8118
3814	0.8102
3823	0.8085
3832	0.8075
3841	0.8068
3850	0.8063
3859	0.8057
3868	0.8053
3877	0.8048
3886	0.8041
3895	0.8039
3904	0.8131
3913	0.8119
3922	0.8099
3931	0.8078
3940	0.8057
3949	0.8035
3958	0.8021
3967	0.8018
3976	0.8015
3985	0.802
3994	0.8022
