Infrared Spectrum: TRANS-1,4-CYCLOHEXANEDIMETHANOL, DIACETATE
Formula: C12 H20 O4
CAS: 10412-78-9
State: SOLID (KBr PELLET)
Class: COBLENTZ
Instrument: Not specified, most likely a prism, grating, or hybrid spectrometer.
Sampling: TRANSMISSION
Resolution: 4
Origin: TENNESSEE EASTMAN COMPANY, RESEARCH LABORATORIES
MICROMETERS	TRANSMITTANCE
1.993	0.975
2.03418	0.974
2.07537	0.974
2.11655	0.974
2.15774	0.972
2.19892	0.969
2.24011	0.957
2.28129	0.95
2.32247	0.95
2.36366	0.948
2.40484	0.948
2.44603	0.951
2.48721	0.951
2.5284	0.951
2.56958	0.953
2.61076	0.953
2.65195	0.955
2.69313	0.955
2.73432	0.958
2.7755	0.958
2.81669	0.991
2.85787	0.955
2.89905	0.929
2.94024	0.941
2.98142	0.946
3.02261	0.948
3.06379	0.948
3.10498	0.95
3.14616	0.953
3.18734	0.951
3.22853	0.943
3.26971	0.932
3.3109	0.886
3.35208	0.762
3.39327	0.371
3.43445	0.52
3.47564	0.601
3.51682	0.793
3.558	0.893
3.59919	0.929
3.64037	0.934
3.68156	0.938
3.72274	0.939
3.76393	0.941
3.80511	0.946
3.84629	0.951
3.88748	0.955
3.92866	0.962
3.96985	0.965
4.01103	0.965
4.05222	0.962
4.0934	0.962
4.13458	0.962
4.17577	0.963
4.21695	0.967
4.25814	0.97
4.29932	0.97
4.34051	0.969
4.38169	0.969
4.42287	0.963
4.46406	0.951
4.50524	0.941
4.54643	0.938
4.58761	0.932
4.6288	0.915
4.66998	0.903
4.71116	0.924
4.75235	0.931
4.79353	0.932
4.83472	0.931
4.8759	0.931
4.91709	0.929
4.95827	0.929
4.99945	0.929
5.04064	0.929
5.08182	0.927
5.12301	0.915
5.16419	0.902
5.20538	0.91
5.24656	0.914
5.28774	0.917
5.32893	0.919
5.37011	0.919
5.4113	0.915
5.45248	0.905
5.49367	0.883
5.53485	0.853
5.57603	0.81
5.61722	0.8
5.6584	0.683
5.69959	0.345
5.74077	0.128
5.78196	0.273
5.82314	0.439
5.86432	0.584
5.90551	0.683
5.94669	0.74
5.98788	0.768
6.02906	0.785
6.07025	0.792
6.11143	0.824
6.15261	0.841
6.1938	0.848
6.23498	0.874
6.27617	0.884
6.31735	0.883
6.35854	0.865
6.39972	0.859
6.44091	0.845
6.48209	0.84
6.52327	0.836
6.56446	0.823
6.60564	0.819
6.64683	0.814
6.68801	0.793
6.7292	0.733
6.77038	0.561
6.81156	0.527
6.85275	0.568
6.89393	0.687
6.93512	0.704
6.9763	0.701
7.01749	0.723
7.05867	0.749
7.09985	0.733
7.14104	0.656
7.18222	0.597
7.22341	0.451
7.26459	0.331
7.30578	0.525
7.34696	0.269
7.38814	0.584
7.42933	0.756
7.47051	0.802
7.5117	0.817
7.55288	0.802
7.59407	0.704
7.63525	0.743
7.67643	0.685
7.71762	0.549
7.7588	0.718
7.79999	0.723
7.84117	0.695
7.88236	0.623
7.92354	0.577
7.96472	0.386
8.00591	0.257
8.04709	0.175
8.08828	0.249
8.12946	0.372
8.17065	0.386
8.21183	0.441
8.25301	0.496
8.2942	0.565
8.33538	0.67
8.37657	0.709
8.41775	0.738
8.45894	0.752
8.50012	0.769
8.5413	0.785
8.58249	0.788
8.62367	0.797
8.66486	0.802
8.70604	0.809
8.74723	0.814
8.78841	0.8
8.82959	0.774
8.87078	0.793
8.91196	0.8
8.95315	0.804
8.99433	0.804
9.03552	0.8
9.0767	0.792
9.11788	0.786
9.15907	0.786
9.20025	0.785
9.24144	0.776
9.28262	0.762
9.32381	0.74
9.36499	0.719
9.40618	0.683
9.44736	0.637
9.48854	0.551
9.52973	0.424
9.57091	0.302
9.6121	0.192
9.65328	0.238
9.69447	0.402
9.73565	0.546
9.77683	0.639
9.81802	0.67
9.8592	0.599
9.90039	0.554
9.94157	0.627
9.98276	0.671
10.0239	0.69
10.0651	0.68
10.1063	0.63
10.1475	0.515
10.1887	0.398
10.2299	0.398
10.271	0.534
10.3122	0.642
10.3534	0.644
10.3946	0.616
10.4358	0.718
10.477	0.792
10.5182	0.817
10.5593	0.831
10.6005	0.845
10.6417	0.847
10.6829	0.831
10.7241	0.785
10.7653	0.821
10.8064	0.855
10.8476	0.86
10.8888	0.862
10.93	0.835
10.9712	0.816
11.0124	0.845
11.0535	0.852
11.0947	0.833
11.1359	0.778
11.1771	0.632
11.2183	0.426
11.2595	0.343
11.3007	0.496
11.3418	0.661
11.383	0.756
11.4242	0.807
11.4654	0.843
11.5066	0.857
11.5478	0.867
11.5889	0.874
11.6301	0.876
11.6713	0.879
11.7125	0.881
11.7537	0.883
11.7949	0.888
11.836	0.891
11.8772	0.895
11.9184	0.895
11.9596	0.895
12.0008	0.893
12.042	0.893
12.0832	0.893
12.1243	0.893
12.1655	0.895
12.2067	0.896
12.2479	0.898
12.2891	0.902
12.3303	0.903
12.3714	0.905
12.4126	0.905
12.4538	0.907
12.495	0.907
12.5362	0.907
12.5774	0.907
12.6186	0.907
12.6597	0.907
12.7009	0.907
12.7421	0.907
12.7833	0.908
12.8245	0.91
12.8657	0.91
12.9068	0.908
12.948	0.91
12.9892	0.91
13.0304	0.91
13.0716	0.91
13.1128	0.91
13.1539	0.91
13.1951	0.91
13.2363	0.91
13.2775	0.908
13.3187	0.908
13.3599	0.908
13.4011	0.908
13.4422	0.907
13.4834	0.905
13.5246	0.903
13.5658	0.902
13.607	0.902
13.6482	0.902
13.6893	0.9
13.7305	0.896
13.7717	0.896
13.8129	0.895
13.8541	0.893
13.8953	0.891
13.9364	0.891
13.9776	0.891
14.0188	0.89
14.06	0.89
14.1012	0.89
14.1424	0.89
14.1836	0.89
14.2247	0.888
14.2659	0.884
14.3071	0.881
14.3483	0.878
14.3895	0.876
14.4307	0.876
14.4718	0.872
14.513	0.872
14.5542	0.871
14.5954	0.867
14.6366	0.865
14.6778	0.865
14.719	0.862
14.7601	0.855
14.8013	0.853
14.8425	0.853
14.8837	0.852
14.9249	0.848
14.9661	0.843
15.0072	0.833
15.0484	0.814
15.0896	0.795
15.1308	0.769
15.172	0.719
15.2132	0.682
15.2543	0.676
15.2955	0.678
15.3367	0.704
15.3779	0.74
15.4191	0.759
15.4603	0.769
15.5015	0.776
15.5426	0.78
15.5838	0.78
15.625	0.781
15.6662	0.781
15.7074	0.783
15.7486	0.78
15.7897	0.776
15.8309	0.774
15.8721	0.771
15.9133	0.769
15.9545	0.764
