Infrared Spectrum: PURINE, 6-BUTYLAMINO-2-METHYLTHIO-
Formula: C10 H15 N5 S
CAS: 104294-77-1
State: SOLID (0.7 mg / 650 mg KBr DISC)
Class: COBLENTZ III
Instrument: PERKIN-ELMER 21 (GRATING)
Instrument parameters: FILTER CHANGE AT 1025 CM^-^1
Sampling: TRANSMISSION
Resolution: 2
Origin: SOUTHERN RESEARCH INSTITUTE
1/CM	TRANSMITTANCE
607.843	0.661
616.912	0.6639
625.981	0.6759
635.049	0.679
644.118	0.677
653.187	0.6626
662.256	0.6403
671.325	0.597
680.394	0.5905
689.462	0.5784
698.531	0.5374
707.6	0.5675
716.669	0.5892
725.738	0.5989
734.807	0.648
743.875	0.6714
752.944	0.698
762.013	0.6931
771.082	0.6505
780.151	0.5728
789.22	0.6285
798.288	0.7196
807.357	0.5842
816.426	0.6168
825.495	0.5725
834.564	0.5062
843.633	0.6301
852.701	0.6755
861.77	0.713
870.839	0.7294
879.908	0.7239
888.977	0.7099
898.046	0.689
907.114	0.6573
916.183	0.5639
925.252	0.3361
934.321	0.4138
943.39	0.6665
952.459	0.731
961.527	0.6086
970.596	0.717
979.665	0.7562
988.734	0.7406
997.803	0.825
1006.87	0.8247
1015.94	0.8188
1025.01	0.8085
1034.08	0.7847
1043.15	0.775
1052.22	0.7741
1061.28	0.7738
1070.35	0.7684
1079.42	0.762
1088.49	0.7493
1097.56	0.7331
1106.63	0.6979
1115.7	0.63
1124.77	0.575
1133.84	0.4649
1142.9	0.7166
1151.97	0.7112
1161.04	0.561
1170.11	0.6842
1179.18	0.715
1188.25	0.705
1197.32	0.6941
1206.39	0.6841
1215.45	0.6539
1224.52	0.6119
1233.59	0.5475
1242.66	0.451
1251.73	0.3211
1260.8	0.2419
1269.87	0.4108
1278.94	0.6209
1288.01	0.4593
1297.07	0.2262
1306.14	0.2784
1315.21	0.2765
1324.28	0.3815
1333.35	0.3309
1342.42	0.2229
1351.49	0.2498
1360.56	0.3783
1369.62	0.5477
1378.69	0.642
1387.76	0.7089
1396.83	0.6668
1405.9	0.614
1414.97	0.5478
1424.04	0.5448
1433.11	0.5214
1442.18	0.5172
1451.24	0.4188
1460.31	0.4351
1469.38	0.4719
1478.45	0.6721
1487.52	0.7199
1496.59	0.7124
1505.66	0.6678
1514.73	0.6225
1523.79	0.5617
1532.86	0.5238
1541.93	0.488
1551	0.4403
1560.07	0.3258
1569.14	0.2374
1578.21	0.1117
1587.28	0.0443
1596.35	0.0852
1605.41	0.1484
1614.48	0.1218
1623.55	0.1271
1632.62	0.2643
1641.69	0.4049
1650.76	0.5657
1659.83	0.6166
1668.9	0.7181
1677.97	0.7788
1687.03	0.824
1696.1	0.8431
1705.17	0.8559
1714.24	0.8723
1723.31	0.881
1732.38	0.9118
1741.45	0.925
1750.52	0.922
1759.58	0.92
1768.65	0.92
1777.72	0.919
1786.79	0.919
1795.86	0.919
1804.93	0.918
1814	0.914
1823.07	0.9017
1832.14	0.898
1841.2	0.907
1850.27	0.906
1859.34	0.906
1868.41	0.9057
1877.48	0.901
1886.55	0.8996
1895.62	0.894
1904.69	0.893
1913.75	0.89
1922.82	0.889
1931.89	0.885
1940.96	0.88
1950.03	0.879
1959.1	0.8763
1968.17	0.875
1977.24	0.875
1986.31	0.8755
1995.37	0.8731
2004.44	0.87
2013.51	0.8651
2022.58	0.862
2031.65	0.861
2040.72	0.858
2049.79	0.8522
2058.86	0.849
2067.92	0.8484
2076.99	0.849
2086.06	0.849
2095.13	0.848
2104.2	0.846
2113.27	0.844
2122.34	0.844
2131.41	0.844
2140.48	0.84
2149.54	0.8361
2158.61	0.8301
2167.68	0.8226
2176.75	0.822
2185.82	0.8196
2194.89	0.818
2203.96	0.816
2213.03	0.8156
2222.09	0.8116
2231.16	0.803
2240.23	0.802
2249.3	0.793
2258.37	0.79
2267.44	0.775
2276.51	0.772
2285.58	0.7636
2294.65	0.7597
2303.71	0.7553
2312.78	0.746
2321.85	0.737
2330.92	0.736
2339.99	0.733
2349.06	0.733
2358.13	0.733
2367.2	0.732
2376.26	0.7246
2385.33	0.7211
2394.4	0.7196
2403.47	0.715
2412.54	0.711
2421.61	0.7081
2430.68	0.6987
2439.75	0.689
2448.82	0.6806
2457.88	0.6636
2466.95	0.6517
2476.02	0.6446
2485.09	0.6356
2494.16	0.6237
2503.23	0.6107
2512.3	0.5891
2521.37	0.584
2530.44	0.5746
2539.5	0.5652
2548.57	0.561
2557.64	0.558
2566.71	0.5546
2575.78	0.5471
2584.85	0.5391
2593.92	0.533
2602.99	0.5316
2612.05	0.525
2621.12	0.5151
2630.19	0.5016
2639.26	0.4881
2648.33	0.4691
2657.4	0.4546
2666.47	0.442
2675.54	0.4267
2684.61	0.4186
2693.67	0.415
2702.74	0.4169
2711.81	0.419
2720.88	0.414
2729.95	0.412
2739.02	0.3991
2748.09	0.3876
2757.16	0.376
2766.22	0.3626
2775.29	0.3522
2784.36	0.351
2793.43	0.3599
2802.5	0.3754
2811.57	0.38
2820.64	0.3746
2829.71	0.3651
2838.78	0.358
2847.84	0.3634
2856.91	0.3823
2865.98	0.3746
2875.05	0.3567
2884.12	0.3267
2893.19	0.2931
2902.26	0.2711
2911.33	0.272
2920.39	0.274
2929.46	0.2754
2938.53	0.2853
2947.6	0.3187
2956.67	0.3603
2965.74	0.3867
2974.81	0.4133
2983.88	0.4463
2992.95	0.454
3002.01	0.4284
3011.08	0.4111
3020.15	0.4016
3029.22	0.4
3038.29	0.4083
3047.36	0.409
3056.43	0.4066
3065.5	0.406
3074.56	0.4094
3083.63	0.4224
3092.7	0.4354
3101.77	0.4469
3110.84	0.4657
3119.91	0.4813
3128.98	0.4934
3138.05	0.5
3147.12	0.4931
3156.18	0.4636
3165.25	0.4347
3174.32	0.4004
3183.39	0.388
3192.46	0.39
3201.53	0.3964
3210.6	0.4
3219.67	0.398
3228.74	0.393
3237.8	0.3934
3246.87	0.4067
3255.94	0.4578
3265.01	0.4989
3274.08	0.538
3283.15	0.5771
3292.22	0.6197
3301.29	0.6364
3310.35	0.6544
3319.42	0.6614
3328.49	0.6689
3337.56	0.6706
3346.63	0.6666
3355.7	0.661
3364.77	0.6546
3373.84	0.646
3382.91	0.641
3391.97	0.637
3401.04	0.636
3410.11	0.6354
3419.18	0.635
3428.25	0.636
3437.32	0.638
3446.39	0.641
3455.46	0.645
3464.52	0.6469
3473.59	0.65
3482.66	0.6551
3491.73	0.6624
3500.8	0.6693
3509.87	0.6754
3518.94	0.6844
3528.01	0.6924
3537.08	0.701
3546.14	0.711
3555.21	0.718
3564.28	0.7224
3573.35	0.7324
3582.42	0.735
3591.49	0.7414
3600.56	0.7519
3609.63	0.7574
3618.69	0.761
3627.76	0.763
3636.83	0.763
3645.9	0.763
3654.97	0.7634
3664.04	0.763
3673.11	0.764
3682.18	0.764
3691.25	0.764
3700.31	0.763
3709.38	0.761
3718.45	0.761
3727.52	0.761
3736.59	0.761
3745.66	0.7624
3754.73	0.767
3763.8	0.767
3772.86	0.764
3781.93	0.762
3791	0.7601
3800.07	0.7576
3809.14	0.754
3818.21	0.753
3827.28	0.753
3836.35	0.751
3845.42	0.751
3854.48	0.751
3863.55	0.751
3872.62	0.751
3881.69	0.75
3890.76	0.75
3899.83	0.749
3908.9	0.7486
3917.97	0.748
3927.03	0.748
3936.1	0.746
3945.17	0.744
3954.24	0.741
3963.31	0.741
3972.38	0.742
3981.45	0.741
3990.52	0.74
3999.59	0.738
4008.65	0.7374
