Infrared Spectrum: M,P'-SULFONYL DIBENZOIC ACID
Formula: C14 H10 O6 S
CAS: 104209-33-8
State: SOLID (NUJOL MULL)
Class: COBLENTZ
Instrument: Not specified, most likely a prism, grating, or hybrid spectrometer.
Sampling: TRANSMISSION
Resolution: 4
Origin: TENNESSEE EASTMAN COMPANY, RESEARCH LABORATORIES
MICROMETERS	TRANSMITTANCE
2.027	0.798
2.06582	0.798
2.10464	0.8
2.14346	0.8
2.18227	0.801
2.22109	0.808
2.25991	0.809
2.29873	0.809
2.33755	0.809
2.37637	0.811
2.41519	0.824
2.45401	0.834
2.49282	0.839
2.53164	0.847
2.57046	0.85
2.60928	0.858
2.6481	0.865
2.68692	0.878
2.72574	0.884
2.76456	0.891
2.80337	0.895
2.84219	0.899
2.88101	0.899
2.91983	0.9
2.95865	0.902
2.99747	0.9
3.03629	0.889
3.07511	0.863
3.11392	0.839
3.15274	0.79
3.19156	0.733
3.23038	0.656
3.2692	0.601
3.30802	0.552
3.34684	0.339
3.38566	0.144
3.42447	0.078
3.46329	0.094
3.50211	0.134
3.54093	0.484
3.57975	0.565
3.61857	0.637
3.65739	0.645
3.69621	0.647
3.73502	0.624
3.77384	0.593
3.81266	0.598
3.85148	0.629
3.8903	0.639
3.92912	0.611
3.96794	0.611
4.00675	0.653
4.04557	0.7
4.08439	0.741
4.12321	0.769
4.16203	0.791
4.20085	0.804
4.23967	0.84
4.27849	0.847
4.3173	0.848
4.35612	0.853
4.39494	0.873
4.43376	0.886
4.47258	0.9
4.5114	0.912
4.55022	0.917
4.58904	0.92
4.62785	0.926
4.66667	0.936
4.70549	0.939
4.74431	0.944
4.78313	0.952
4.82195	0.96
4.86077	0.962
4.89959	0.962
4.9384	0.962
4.97722	0.962
5.01604	0.962
5.05486	0.962
5.09368	0.962
5.1325	0.949
5.17132	0.946
5.21014	0.947
5.24895	0.949
5.28777	0.949
5.32659	0.949
5.36541	0.949
5.40423	0.949
5.44305	0.949
5.48187	0.943
5.52068	0.918
5.5595	0.917
5.59832	0.926
5.63714	0.938
5.67596	0.939
5.71478	0.925
5.7536	0.861
5.79242	0.757
5.83123	0.541
5.87005	0.237
5.90887	0.149
5.94769	0.125
5.98651	0.24
6.02533	0.551
6.06415	0.673
6.10297	0.76
6.14178	0.804
6.1806	0.845
6.21942	0.783
6.25824	0.783
6.29706	0.869
6.33588	0.751
6.3747	0.852
6.41352	0.891
6.45233	0.936
6.49115	0.951
6.52997	0.96
6.56879	0.96
6.60761	0.96
6.64643	0.947
6.68525	0.848
6.72407	0.785
6.76288	0.622
6.8017	0.396
6.84052	0.4
6.87934	0.4
6.91816	0.448
6.95698	0.482
6.9958	0.515
7.03462	0.552
7.07343	0.647
7.11225	0.653
7.15107	0.65
7.18989	0.715
7.22871	0.583
7.26753	0.544
7.30635	0.658
7.34516	0.733
7.38398	0.804
7.4228	0.804
7.46162	0.725
7.50044	0.422
7.53926	0.312
7.57808	0.295
7.6169	0.229
7.65571	0.299
7.69453	0.307
7.73335	0.263
7.77217	0.367
7.81099	0.544
7.84981	0.523
7.88863	0.546
7.92745	0.695
7.96626	0.757
8.00508	0.804
8.0439	0.829
8.08272	0.843
8.12154	0.848
8.16036	0.85
8.19918	0.853
8.238	0.868
8.27681	0.871
8.31563	0.871
8.35445	0.873
8.39327	0.858
8.43209	0.767
8.47091	0.541
8.50973	0.497
8.54855	0.437
8.58736	0.398
8.62618	0.398
8.665	0.448
8.70382	0.603
8.74264	0.543
8.78146	0.601
8.82028	0.726
8.85909	0.5
8.89791	0.634
8.93673	0.8
8.97555	0.764
9.01437	0.7
9.05319	0.77
9.09201	0.718
9.13083	0.647
9.16964	0.791
9.20846	0.853
9.24728	0.861
9.2861	0.83
9.32492	0.747
9.36374	0.827
9.40256	0.892
9.44138	0.926
9.48019	0.943
9.51901	0.944
9.55783	0.946
9.59665	0.946
9.63547	0.946
9.67429	0.946
9.71311	0.946
9.75193	0.946
9.79074	0.908
9.82956	0.782
9.86838	0.869
9.9072	0.902
9.94602	0.91
9.98484	0.908
10.0237	0.908
10.0625	0.908
10.1013	0.91
10.1401	0.904
10.1789	0.9
10.2178	0.891
10.2566	0.861
10.2954	0.837
10.3342	0.803
10.373	0.751
10.4118	0.663
10.4507	0.603
10.4895	0.572
10.5283	0.57
10.5671	0.572
10.6059	0.58
10.6448	0.6
10.6836	0.621
10.7224	0.648
10.7612	0.684
10.8	0.726
10.8388	0.762
10.8777	0.798
10.9165	0.819
10.9553	0.843
10.9941	0.843
11.0329	0.843
11.0718	0.847
11.1106	0.865
11.1494	0.892
11.1882	0.91
11.227	0.921
11.2659	0.931
11.3047	0.943
11.3435	0.949
11.3823	0.954
11.4211	0.957
11.4599	0.959
11.4988	0.959
11.5376	0.944
11.5764	0.858
11.6152	0.813
11.654	0.777
11.6929	0.762
11.7317	0.803
11.7705	0.853
11.8093	0.895
11.8481	0.921
11.887	0.933
11.9258	0.949
11.9646	0.954
12.0034	0.962
12.0422	0.962
12.081	0.954
12.1199	0.907
12.1587	0.852
12.1975	0.865
12.2363	0.887
12.2751	0.91
12.314	0.936
12.3528	0.959
12.3916	0.967
12.4304	0.973
12.4692	0.977
12.5081	0.978
12.5469	0.978
12.5857	0.978
12.6245	0.978
12.6633	0.978
12.7021	0.978
12.741	0.98
12.7798	0.98
12.8186	0.978
12.8574	0.954
12.8962	0.829
12.9351	0.64
12.9739	0.665
13.0127	0.861
13.0515	0.908
13.0903	0.926
13.1292	0.918
13.168	0.86
13.2068	0.827
13.2456	0.848
13.2844	0.874
13.3232	0.887
13.3621	0.868
13.4009	0.777
13.4397	0.622
13.4785	0.5
13.5173	0.512
13.5562	0.603
13.595	0.694
13.6338	0.754
13.6726	0.793
13.7114	0.803
13.7503	0.803
13.7891	0.801
13.8279	0.775
13.8667	0.739
13.9055	0.679
13.9443	0.6
13.9832	0.577
14.022	0.617
14.0608	0.712
14.0996	0.765
14.1384	0.801
14.1773	0.832
14.2161	0.843
14.2549	0.845
14.2937	0.845
14.3325	0.845
14.3714	0.847
14.4102	0.84
14.449	0.819
14.4878	0.77
14.5266	0.694
14.5654	0.601
14.6043	0.556
14.6431	0.552
14.6819	0.578
14.7207	0.616
14.7595	0.621
14.7984	0.616
14.8372	0.613
14.876	0.619
14.9148	0.65
14.9536	0.694
14.9925	0.73
15.0313	0.747
15.0701	0.746
15.1089	0.721
15.1477	0.689
15.1865	0.681
15.2254	0.681
15.2642	0.691
15.303	0.713
15.3418	0.731
15.3806	0.744
15.4195	0.747
15.4583	0.749
15.4971	0.749
15.5359	0.751
15.5747	0.751
15.6136	0.751
15.6524	0.751
15.6912	0.751
15.73	0.751
15.7688	0.751
15.8076	0.751
15.8465	0.751
15.8853	0.751
15.9241	0.751
15.9629	0.752
