Infrared Spectrum: 1-Bromo-2-methylbutane
Formula: C 5 H 11 Br
CAS: 10422-35-2
State: gas
Instrument: HP-GC/MS/IRD
Origin: NIST Mass Spectrometry Data Center
1/CM	ABSORBANCE
550	0.0003
562	0.0001275
574	0.000144
586	8.85e-05
598	0.000318
610	0.000732
622	0.001113
634	0.0011415
646	0.002133
658	0.003117
670	0.0016635
682	0.000684
694	0.0003555
706	0.0004305
718	0.0003495
730	0.000411
742	0.000423
754	0.000798
766	0.0009765
778	0.000897
790	0.000651
802	0.0004815
814	0.000534
826	0.000462
838	0.0004155
850	0.000498
862	0.000522
874	0.000471
886	0.000357
898	0.0005655
910	0.0008625
922	0.000909
934	0.0006855
946	0.000564
958	0.000651
970	0.0009255
982	0.0009945
994	0.000849
1006	0.0006795
1018	0.000666
1030	0.000573
1042	0.000462
1054	0.00045
1066	0.000444
1078	0.000378
1090	0.0003525
1102	0.000357
1114	0.0003765
1126	0.0003615
1138	0.000432
1150	0.000528
1162	0.000513
1174	0.000438
1186	0.0006195
1198	0.000849
1210	0.001254
1222	0.0028515
1234	0.0035205
1246	0.0020445
1258	0.0014505
1270	0.0016695
1282	0.0015285
1294	0.0013245
1306	0.0009945
1318	0.000819
1330	0.000918
1342	0.000882
1354	0.0007605
1366	0.001083
1378	0.001839
1390	0.0020865
1402	0.0012045
1414	0.000774
1426	0.001107
1438	0.001893
1450	0.0025545
1462	0.002991
1474	0.002334
1486	0.001239
1498	0.00066
1510	0.0005085
1522	0.000453
1534	0.000405
1546	0.0003615
1558	0.000393
1570	0.0003285
1582	0.000291
1594	0.000258
1606	0.000282
1618	0.000282
1630	0.0002715
1642	0.0002805
1654	0.000324
1666	0.00027
1678	0.0002595
1690	0.0002145
1702	0.000255
1714	0.0002205
1726	0.0001755
1738	0.000216
1750	0.0001845
1762	0.0001785
1774	0.0001965
1786	0.000174
1798	0.000138
1810	0.000153
1822	0.000174
1834	0.00015
1846	0.0001545
1858	0.00015
1870	0.000135
1882	0.000144
1894	0.000126
1906	0.0001245
1918	0.0001275
1930	0.0001035
1942	0.0001155
1954	0.000132
1966	0.0001245
1978	0.00012
1990	0.0001095
2002	9.15e-05
2014	0.0001215
2026	0.0001155
2038	0.0001095
2050	0.0001035
2062	0.0001275
2074	0.000102
2086	9.9e-05
2098	9.45e-05
2110	6.75e-05
2122	8.4e-05
2134	0.000111
2146	0.0001065
2158	0.0001125
2170	8.55e-05
2182	9.75e-05
2194	0.000102
2206	0.0001035
2218	0.0001215
2230	9.75e-05
2242	0.000105
2254	8.1e-05
2266	7.65e-05
2278	6.9e-05
2290	0.000108
2302	0.0001155
2314	0.0001065
2326	0.000114
2338	0.0001335
2350	9.45e-05
2362	0.000135
2374	7.5e-05
2386	0.0001035
2398	4.5e-05
2410	8.55e-05
2422	5.85e-05
2434	8.25e-05
2446	5.4e-05
2458	6e-05
2470	2.4e-05
2482	4.2e-05
2494	3e-05
2506	4.5e-06
2518	3.75e-05
2530	4.2e-05
2542	3e-05
2554	6.9e-05
2566	0.0001035
2578	8.4e-05
2590	7.5e-05
2602	8.4e-05
2614	0.000138
2626	0.000129
2638	0.0001185
2650	0.0001695
2662	0.0001725
2674	0.0001665
2686	0.0001725
2698	0.000162
2710	0.0001905
2722	0.0002205
2734	0.000261
2746	0.0003285
2758	0.000312
2770	0.0003075
2782	0.000318
2794	0.000408
2806	0.0004995
2818	0.0006255
2830	0.0008295
2842	0.001332
2854	0.002436
2866	0.0036765
2878	0.004785
2890	0.005082
2902	0.0047985
2914	0.005616
2926	0.0072195
2938	0.008481
2950	0.0091305
2962	0.0123885
2974	0.0149865
2986	0.0097005
2998	0.0040005
3010	0.0022725
3022	0.00153
3034	0.000897
3046	0.0006795
3058	0.0005775
3070	0.000513
3082	0.0005055
3094	0.000408
3106	0.0004395
3118	0.0004005
3130	0.0003045
3142	0.0002985
3154	0.0003195
3166	0.0003285
3178	0.000276
3190	0.0002145
3202	0.00021
3214	0.000147
3226	0.000174
3238	0.000132
3250	0.000159
3262	0.0001065
3274	8.7e-05
3286	0.00012
3298	6.15e-05
3310	0.00012
3322	0.000132
3334	0.000108
3346	0.000144
3358	9e-05
3370	9.9e-05
3382	9e-05
3394	0.000105
3406	5.25e-05
3418	5.1e-05
3430	0.0001215
3442	8.55e-05
3454	9e-05
3466	3.45e-05
3478	8.55e-05
3490	8.7e-05
3502	7.2e-05
3514	3.3e-05
3526	7.2e-05
3538	4.2e-05
3550	7.8e-05
3562	0.0001125
3574	0.0001125
3586	0.0001575
3598	0.000111
3610	7.8e-05
3622	0.0001185
3634	0.0001575
3646	9.75e-05
3658	0.000102
3670	0.0001635
3682	0.0001215
3694	0.0001335
3706	0.000102
3718	0.0001335
3730	0.0001305
3742	0.0001365
3754	0.000243
3766	0.000195
3778	0.0001545
3790	8.1e-05
3802	0.00018
3814	0.0001245
3826	0.000123
3838	0.000201
