Infrared Spectrum: L-.alpha.-(1-Naphthyl)ethylamine
Formula: C 12 H 13 N
CAS: 10420-89-0
State: gas
Origin: EPA-IR VAPOR PHASE LIBRARY
1/CM	ABSORBANCE
549.8	0.00307
559.445	0.00416
569.09	0.00535
578.734	0.00432
588.379	0.00412
598.024	0.00537
607.669	0.00738
617.313	0.00668
626.958	0.0046
636.603	0.00441
646.248	0.00483
655.893	0.00498
665.537	0.00504
675.182	0.00594
684.827	0.00755
694.472	0.00941
704.116	0.00899
713.761	0.00786
723.406	0.00947
733.051	0.01088
742.695	0.01177
752.34	0.01697
761.985	0.04118
771.63	0.08261
781.275	0.07033
790.919	0.0537
800.564	0.03842
810.209	0.02445
819.854	0.01703
829.498	0.01271
839.143	0.01101
848.788	0.01049
858.433	0.00951
868.078	0.00686
877.722	0.00519
887.367	0.00471
897.012	0.00472
906.657	0.00465
916.301	0.00389
925.946	0.00308
935.591	0.00286
945.236	0.00305
954.88	0.00319
964.525	0.00363
974.17	0.00338
983.815	0.00432
993.46	0.00668
1003.1	0.00763
1012.75	0.00727
1022.39	0.00647
1032.04	0.00553
1041.68	0.00479
1051.33	0.00434
1060.97	0.00456
1070.62	0.00491
1080.26	0.00488
1089.91	0.00469
1099.55	0.00606
1109.2	0.00966
1118.84	0.01119
1128.49	0.00721
1138.13	0.00404
1147.78	0.0031
1157.42	0.00458
1167.07	0.00622
1176.71	0.00448
1186.36	0.00322
1196	0.0032
1205.64	0.00332
1215.29	0.00324
1224.93	0.00408
1234.58	0.00598
1244.22	0.00648
1253.87	0.00562
1263.51	0.00402
1273.16	0.00279
1282.8	0.00313
1292.45	0.00392
1302.09	0.00505
1311.74	0.0063
1321.38	0.0078
1331.03	0.00808
1340.67	0.00627
1350.32	0.00526
1359.96	0.0066
1369.61	0.01078
1379.25	0.01433
1388.9	0.01239
1398.54	0.00843
1408.18	0.0044
1417.83	0.00322
1427.47	0.00313
1437.12	0.00378
1446.76	0.005
1456.41	0.00525
1466.05	0.00421
1475.7	0.00319
1485.34	0.00319
1494.99	0.00535
1504.63	0.00911
1514.28	0.00911
1523.92	0.00519
1533.57	0.00315
1543.21	0.00265
1552.86	0.00285
1562.5	0.00323
1572.15	0.00434
1581.79	0.00623
1591.44	0.0088
1601.08	0.0102
1610.73	0.01041
1620.37	0.01127
1630.01	0.00972
1639.66	0.00645
1649.3	0.00426
1658.95	0.00334
1668.59	0.00331
1678.24	0.00331
1687.88	0.00324
1697.53	0.00277
1707.17	0.00218
1716.82	0.00229
1726.46	0.00213
1736.11	0.00182
1745.75	0.00169
1755.4	0.00186
1765.04	0.00196
1774.69	0.00159
1784.33	0.00164
1793.98	0.00253
1803.62	0.00267
1813.27	0.00217
1822.91	0.00218
1832.55	0.00175
1842.2	0.00141
1851.84	0.00161
1861.49	0.00196
1871.13	0.00159
1880.78	0.00134
1890.42	0.00141
1900.07	0.00193
1909.71	0.00293
1919.36	0.0034
1929	0.00318
1938.65	0.00278
1948.29	0.00173
1957.94	0.0008449
1967.58	0.0006051
1977.23	0.0004751
1986.87	0.0004765
1996.52	0.0004662
2006.16	0.0003954
2015.81	0.0003853
2025.45	0.0004102
2035.1	0.0004199
2044.74	0.0004039
2054.38	0.000454
2064.03	0.0004209
2073.67	0.0004334
2083.32	0.0003445
2092.96	0.0003714
2102.61	0.0003735
2112.25	0.0003488
2121.9	0.0003249
2131.54	0.0003259
2141.19	0.0003175
2150.83	0.0003213
2160.48	0.0003959
2170.12	0.0002982
2179.77	0.0003292
2189.41	0.0003232
2199.06	0.0004072
2208.7	0.000375
2218.35	0.0003609
2227.99	0.0004421
2237.64	0.0003871
2247.28	0.0004141
2256.92	0.0004648
2266.57	0.0005445
2276.21	0.0006274
2285.86	0.0006516
2295.5	0.0005758
2305.15	0.0005218
2314.79	0.0005054
2324.44	0.0004896
2334.08	0.0005704
2343.73	0.000481
2353.37	0.0004336
2363.02	0.0004883
2372.66	0.0004403
2382.31	0.0004333
2391.95	0.0004658
2401.6	0.0005298
2411.24	0.0006495
2420.89	0.0006614
2430.53	0.0006188
2440.18	0.0004529
2449.82	0.0004847
2459.47	0.0005554
2469.11	0.0004927
2478.75	0.00047
2488.4	0.0005082
2498.04	0.0005752
2507.69	0.0004997
2517.33	0.0005249
2526.98	0.0005255
2536.62	0.0005087
2546.27	0.0005581
2555.91	0.000588
2565.56	0.0006132
2575.2	0.0005299
2584.85	0.0006885
2594.49	0.0006702
2604.14	0.0007913
2613.78	0.0007945
2623.43	0.0008484
2633.07	0.0009251
2642.72	0.0008544
2652.36	0.0007901
2662.01	0.000759
2671.65	0.0007477
2681.29	0.0006687
2690.94	0.0007489
2700.58	0.0008952
2710.23	0.0009097
2719.87	0.0010831
2729.52	0.001169
2739.16	0.00119
2748.81	0.0010819
2758.45	0.0011455
2768.1	0.00127
2777.74	0.00123
2787.39	0.00136
2797.03	0.00142
2806.68	0.00173
2816.32	0.00208
2825.97	0.00251
2835.61	0.00276
2845.26	0.00321
2854.9	0.00413
2864.55	0.00662
2874.19	0.01042
2883.84	0.01197
2893.48	0.0107
2903.12	0.01012
2912.77	0.01044
2922.41	0.01271
2932.06	0.01634
2941.7	0.01532
2951.35	0.01233
2960.99	0.01853
2970.64	0.02767
2980.28	0.02728
2989.93	0.01816
2999.57	0.01009
3009.22	0.00837
3018.86	0.00814
3028.51	0.0093
3038.15	0.01533
3047.8	0.02741
3057.44	0.03804
3067.09	0.03674
3076.73	0.02702
3086.38	0.01995
3096.02	0.0138
3105.67	0.00735
3115.31	0.00293
3124.95	0.00177
3134.6	0.00129
3144.24	0.00134
3153.89	0.0011323
3163.53	0.00124
3173.18	0.001123
3182.82	0.0011302
3192.47	0.0009299
3202.11	0.0008796
3211.76	0.0009
3221.4	0.0009149
3231.05	0.0008216
3240.69	0.0007421
3250.34	0.0006757
3259.98	0.0005864
3269.63	0.0005498
3279.27	0.000511
3288.92	0.0004965
3298.56	0.0004884
3308.21	0.0005253
3317.85	0.0005102
3327.49	0.0008154
3337.14	0.000921
3346.78	0.0007281
3356.43	0.0006164
3366.07	0.0004782
3375.72	0.0004215
3385.36	0.0003608
3395.01	0.0005007
3404.65	0.000519
3414.3	0.0004215
3423.94	0.00024878
3433.59	0.0004174
3443.23	0.0003628
3452.88	0.00024836
3462.52	0.00025682
3472.17	0.0003439
3481.81	0.00019847
3491.46	0.00023124
3501.1	0.0002782
3510.75	0.0001369
3520.39	0.00021549
3530.04	0.0003255
3539.68	0.00026706
3549.32	0.00023782
3558.97	0.0003411
3568.61	0.00026744
3578.26	0.0003405
3587.9	0.0003333
3597.55	0.0003793
3607.19	0.0003053
3616.84	0.00016588
3626.48	0.0001588
3636.13	0.000179864
3645.77	0.0002858
3655.42	0.00016707
3665.06	0.0001165
3674.71	0.00023106
3684.35	0.0002776
3694	0.0002742
3703.64	0.0001098
3713.29	0.0003257
3722.93	0.00018738
3732.58	0.0001277
3742.22	0.00020203
3751.86	0.0002085
3761.51	0.0002927
3771.15	0.0003021
3780.8	0.0003684
3790.44	0.0003783
3800.09	0.0004012
3809.73	0.000459
3819.38	0.00025363
3829.02	0.0003238
3838.67	0.0004951
3848.31	0.0006975
3857.96	0.0007018
3867.6	0.0005448
3877.25	0.0005461
3886.89	0.0003968
3896.54	0.0005224
3906.18	0.0004046
3915.83	0.00026774
3925.47	0.0002786
3935.12	0.00026276
3944.76	0.0003332
3954.41	0.0005098
3964.05	0.0004694
3973.69	0.0003653
3983.34	0.0002412
3992.98	0.0004109
