Infrared Spectrum: 1-Alpha-2-METHYL-8-METHOXY-6,7-METHYLENEDIOXY-1-(6,7-DIMETHOXY-3-PHTHALIDYL)-1,2,3,4-TETRAHYDROISOQUINOLINE
Formula: C22 H23 N O7
CAS: 10421-76-8
State: SOLID (NUJOL MULL)
Class: COBLENTZ III
Instrument: PERKIN-ELMER 521 (GRATING)
Instrument parameters: GRATING CHANGE AT 1996 CM^-^1
Sampling: TRANSMISSION
Resolution: 4
Origin: MERCK SHARPE & DOHME RESEARCH LABORATORIES, Nelson Trenner
1/CM	TRANSMITTANCE
600	0.526
609.101	0.574
618.202	0.606
627.302	0.596
636.403	0.6669
645.504	0.714
654.605	0.721
663.706	0.714
672.806	0.745
681.907	0.722
691.008	0.612
700.109	0.612
709.209	0.625
718.31	0.55
727.411	0.604
736.512	0.698
745.613	0.739
754.713	0.685
763.814	0.775
772.915	0.748
782.016	0.341
791.117	0.75
800.217	0.771
809.318	0.464
818.419	0.804
827.52	0.769
836.621	0.682
845.721	0.748
854.822	0.783
863.923	0.758
873.024	0.722
882.124	0.549
891.225	0.674
900.326	0.7059
909.427	0.721
918.528	0.666
927.628	0.456
936.729	0.489
945.83	0.683
954.931	0.615
964.032	0.474
973.132	0.466
982.233	0.459
991.334	0.34
1000.43	0.189
1009.54	0.24
1018.64	0.434
1027.74	0.171
1036.84	0.137
1045.94	0.384
1055.04	0.357
1064.14	0.51
1073.24	0.355
1082.34	0.2
1091.44	0.269
1100.54	0.608
1109.64	0.523
1118.74	0.45
1127.85	0.692
1136.95	0.698
1146.05	0.701
1155.15	0.674
1164.25	0.543
1173.35	0.549
1182.45	0.548
1191.55	0.521
1200.65	0.358
1209.75	0.408
1218.85	0.422
1227.95	0.457
1237.06	0.56
1246.16	0.48
1255.26	0.263
1264.36	0.241
1273.46	0.137
1282.56	0.1661
1291.66	0.465
1300.76	0.458
1309.86	0.337
1318.96	0.544
1328.06	0.523
1337.16	0.596
1346.26	0.538
1355.37	0.4141
1364.47	0.292
1373.57	0.2749
1382.67	0.28
1391.77	0.406
1400.87	0.472
1409.97	0.6
1419.07	0.4839
1428.17	0.339
1437.27	0.304
1446.37	0.18
1455.47	0.088
1464.57	0.093
1473.68	0.154
1482.78	0.202
1491.88	0.317
1500.98	0.147
1510.08	0.433
1519.18	0.673
1528.28	0.771
1537.38	0.789
1546.48	0.802
1555.58	0.794
1564.68	0.799
1573.78	0.771
1582.89	0.75
1591.99	0.666
1601.09	0.642
1610.19	0.586
1619.29	0.471
1628.39	0.529
1637.49	0.749
1646.59	0.761
1655.69	0.75
1664.79	0.735
1673.89	0.73
1682.99	0.7
1692.09	0.679
1701.2	0.611
1710.3	0.596
1719.4	0.56
1728.5	0.538
1737.6	0.378
1746.7	0.196
1755.8	0.081
1764.9	0.139
1774	0.3459
1783.1	0.666
1792.2	0.811
1801.3	0.881
1810.4	0.918
1819.51	0.927
1828.61	0.932
1837.71	0.922
1846.81	0.904
1855.91	0.889
1865.01	0.879
1874.11	0.881
1883.21	0.889
1892.31	0.89
1901.41	0.878
1910.51	0.872
1919.61	0.866
1928.72	0.853
1937.82	0.846
1946.92	0.847
1956.02	0.85
1965.12	0.848
1974.22	0.837
1983.32	0.832
1992.42	0.826
2001.52	0.798
2010.62	0.8269
2019.72	0.845
2028.82	0.8407
2037.92	0.8311
2047.03	0.827
2056.13	0.828
2065.23	0.828
2074.33	0.828
2083.43	0.828
2092.53	0.826
2101.63	0.822
2110.73	0.818
2119.83	0.817
2128.93	0.8164
2138.03	0.8087
2147.13	0.807
2156.23	0.8023
2165.34	0.798
2174.44	0.7946
2183.54	0.7938
2192.64	0.791
2201.74	0.7893
2210.84	0.7885
2219.94	0.787
2229.04	0.781
2238.14	0.778
2247.24	0.7729
2256.34	0.77
2265.44	0.7689
2274.55	0.7621
2283.65	0.7604
2292.75	0.759
2301.85	0.7548
2310.95	0.7511
2320.05	0.7446
2329.15	0.7345
2338.25	0.73
2347.35	0.728
2356.45	0.7262
2365.55	0.7245
2374.65	0.722
2383.75	0.721
2392.86	0.721
2401.96	0.721
2411.06	0.7176
2420.16	0.716
2429.26	0.7121
2438.36	0.711
2447.46	0.7095
2456.56	0.7058
2465.66	0.701
2474.76	0.6998
2483.86	0.699
2492.96	0.697
2502.06	0.6899
2511.17	0.6832
2520.27	0.6804
2529.37	0.6766
2538.47	0.6708
2547.57	0.6651
2556.67	0.656
2565.77	0.653
2574.87	0.6488
2583.97	0.646
2593.07	0.6377
2602.17	0.6289
2611.27	0.6247
2620.38	0.6199
2629.48	0.6093
2638.58	0.6034
2647.68	0.5972
2656.78	0.5909
2665.88	0.5823
2674.98	0.573
2684.08	0.5686
2693.18	0.563
2702.28	0.56
2711.38	0.5562
2720.48	0.553
2729.58	0.5441
2738.69	0.5329
2747.79	0.5373
2756.89	0.548
2765.99	0.5446
2775.09	0.5132
2784.19	0.4744
2793.29	0.4552
2802.39	0.3641
2811.49	0.3096
2820.59	0.362
2829.69	0.349
2838.79	0.3133
2847.89	0.1786
2857	0.0864
2866.1	0.028
2875.2	0.0354
2884.3	0.0494
2893.4	0.0506
2902.5	0.0431
2911.6	0.0303
2920.7	0.0246
2929.8	0.022
2938.9	0.021
2948	0.0237
2957.1	0.0255
2966.21	0.0283
2975.31	0.0342
2984.41	0.046
2993.51	0.1169
3002.61	0.2407
3011.71	0.2895
3020.81	0.3452
3029.91	0.3844
3039.01	0.4135
3048.11	0.4388
3057.21	0.447
3066.31	0.451
3075.41	0.4651
3084.52	0.4713
3093.62	0.4791
3102.72	0.4838
3111.82	0.4866
3120.92	0.4884
3130.02	0.49
3139.12	0.494
3148.22	0.496
3157.32	0.496
3166.42	0.4946
3175.52	0.4841
3184.62	0.482
3193.72	0.483
3202.83	0.4803
3211.93	0.483
3221.03	0.4888
3230.13	0.491
3239.23	0.4913
3248.33	0.491
3257.43	0.49
3266.53	0.4893
3275.63	0.487
3284.73	0.486
3293.83	0.486
3302.93	0.4853
3312.04	0.4865
3321.14	0.4837
3330.24	0.477
3339.34	0.476
3348.44	0.475
3357.54	0.475
3366.64	0.4751
3375.74	0.476
3384.84	0.476
3393.94	0.4746
3403.04	0.474
3412.14	0.475
3421.24	0.476
3430.35	0.476
3439.45	0.477
3448.55	0.477
3457.65	0.4798
3466.75	0.48
3475.85	0.4787
3484.95	0.476
3494.05	0.478
3503.15	0.48
3512.25	0.4824
3521.35	0.4832
3530.45	0.487
3539.55	0.4887
3548.66	0.488
3557.76	0.486
3566.86	0.487
3575.96	0.4898
3585.06	0.4894
3594.16	0.4877
3603.26	0.487
3612.36	0.485
3621.46	0.487
3630.56	0.485
3639.66	0.485
3648.76	0.4821
3657.87	0.4827
3666.97	0.487
3676.07	0.485
3685.17	0.484
3694.27	0.483
3703.37	0.4814
3712.47	0.48
3721.57	0.479
3730.67	0.476
3739.77	0.4744
3748.87	0.473
3757.97	0.472
3767.07	0.471
3776.18	0.471
3785.28	0.47
3794.38	0.469
3803.48	0.467
3812.58	0.4642
3821.68	0.4614
3830.78	0.4594
3839.88	0.457
3848.98	0.4551
3858.08	0.454
3867.18	0.454
3876.28	0.453
3885.38	0.453
3894.49	0.453
3903.59	0.454
3912.69	0.453
3921.79	0.452
3930.89	0.4502
3939.99	0.4475
3949.09	0.4447
3958.19	0.4419
3967.29	0.4401
3976.39	0.439
3985.49	0.438
3994.59	0.437
