Infrared Spectrum: 5-Chloro-4-fluoro-2-nitroaniline
Formula: C 6 H 4 Cl F N 2 O 2
CAS: 104222-34-6
State: gas
Origin: EPA-IR VAPOR PHASE LIBRARY
1/CM	ABSORBANCE
549.8	0.019125
559.445	0.015435
569.09	0.014665
578.734	0.014625
588.379	0.014645
598.024	0.017945
607.669	0.020385
617.313	0.016045
626.958	0.014865
636.603	0.013635
646.248	0.013205
655.893	0.013395
665.537	0.013735
675.182	0.013975
684.827	0.013545
694.472	0.012835
704.116	0.014215
713.761	0.015715
723.406	0.015375
733.051	0.013765
742.695	0.014975
752.34	0.018475
761.985	0.025815
771.63	0.023795
781.275	0.036945
790.919	0.077335
800.564	0.070875
810.209	0.030905
819.854	0.018735
829.498	0.019805
839.143	0.029165
848.788	0.027015
858.433	0.018165
868.078	0.016945
877.722	0.026525
887.367	0.033465
897.012	0.019405
906.657	0.009725
916.301	0.007295
925.946	0.007825
935.591	0.007605
945.236	0.006385
954.88	0.006755
964.525	0.007225
974.17	0.009195
983.815	0.017425
993.46	0.040265
1003.1	0.062225
1012.75	0.043075
1022.39	0.019105
1032.04	0.010695
1041.68	0.007235
1051.33	0.006425
1060.97	0.005405
1070.62	0.003955
1080.26	0.004325
1089.91	0.003915
1099.55	0.004455
1109.2	0.004355
1118.84	0.003275
1128.49	0.003655
1138.13	0.002815
1147.78	0.003555
1157.42	0.003535
1167.07	0.004955
1176.71	0.004755
1186.36	0.007465
1196	0.010395
1205.64	0.029535
1215.29	0.065685
1224.93	0.071695
1234.58	0.060775
1244.22	0.093345
1253.87	0.135235
1263.51	0.152945
1273.16	0.107865
1282.8	0.052595
1292.45	0.027055
1302.09	0.018815
1311.74	0.018255
1321.38	0.036825
1331.03	0.086425
1340.67	0.112505
1350.32	0.083005
1359.96	0.035765
1369.61	0.015785
1379.25	0.011705
1388.9	0.012605
1398.54	0.017255
1408.18	0.034725
1417.83	0.038625
1427.47	0.019255
1437.12	0.014365
1446.76	0.015895
1456.41	0.028175
1466.05	0.041755
1475.7	0.057065
1485.34	0.117425
1494.99	0.137265
1504.63	0.137465
1514.28	0.252355
1523.92	0.325635
1533.57	0.214075
1543.21	0.085575
1552.86	0.042305
1562.5	0.045055
1572.15	0.082295
1581.79	0.111935
1591.44	0.083015
1601.08	0.048575
1610.73	0.045185
1620.37	0.064525
1630.01	0.084445
1639.66	0.056085
1649.3	0.023465
1658.95	0.013425
1668.59	0.009755
1678.24	0.008675
1687.88	0.008455
1697.53	0.007315
1707.17	0.006235
1716.82	0.006005
1726.46	0.005365
1736.11	0.004405
1745.75	0.003695
1755.4	0.003805
1765.04	0.004275
1774.69	0.003945
1784.33	0.003065
1793.98	0.002685
1803.62	0.002215
1813.27	0.002045
1822.91	0.001745
1832.55	0.001575
1842.2	0.001525
1851.84	0.0012373
1861.49	0.001465
1871.13	0.001685
1880.78	0.001865
1890.42	0.001885
1900.07	0.001655
1909.71	0.0014046
1919.36	0.0014207
1929	0.001555
1938.65	0.001555
1948.29	0.001765
1957.94	0.001725
1967.58	0.001465
1977.23	0.001465
1986.87	0.0012971
1996.52	0.001251
2006.16	0.0013657
2015.81	0.0014272
2025.45	0.0014117
2035.1	0.0012779
2044.74	0.001455
2054.38	0.0014279
2064.03	0.0011273
2073.67	0.0013443
2083.32	0.001565
2092.96	0.001755
2102.61	0.001765
2112.25	0.001685
2121.9	0.001655
2131.54	0.001705
2141.19	0.001495
2150.83	0.0013939
2160.48	0.001475
2170.12	0.001585
2179.77	0.001795
2189.41	0.001815
2199.06	0.001815
2208.7	0.001515
2218.35	0.0011946
2227.99	0.0010544
2237.64	0.0007846
2247.28	0.0009561
2256.92	0.0008762
2266.57	0.0010476
2276.21	0.0010869
2285.86	0.0013374
2295.5	0.0013228
2305.15	0.001535
2314.79	0.001655
2324.44	0.001925
2334.08	0.002015
2343.73	0.002435
2353.37	0.002235
2363.02	0.001655
2372.66	0.001455
2382.31	0.001291
2391.95	0.0012699
2401.6	0.001435
2411.24	0.0013563
2420.89	0.001975
2430.53	0.002075
2440.18	0.001725
2449.82	0.001555
2459.47	0.001515
2469.11	0.001735
2478.75	0.001815
2488.4	0.001745
2498.04	0.001575
2507.69	0.0012366
2517.33	0.0008581
2526.98	0.0010132
2536.62	0.0009851
2546.27	0.0011833
2555.91	0.0011813
2565.56	0.000996
2575.2	0.0011566
2584.85	0.001615
2594.49	0.002115
2604.14	0.002385
2613.78	0.002235
2623.43	0.002105
2633.07	0.002055
2642.72	0.002295
2652.36	0.002065
2662.01	0.002315
2671.65	0.002075
2681.29	0.0014209
2690.94	0.001545
2700.58	0.001645
2710.23	0.001515
2719.87	0.001445
2729.52	0.001515
2739.16	0.002085
2748.81	0.002065
2758.45	0.002065
2768.1	0.001525
2777.74	0.001775
2787.39	0.0013221
2797.03	0.001575
2806.68	0.001515
2816.32	0.002195
2825.97	0.002565
2835.61	0.003425
2845.26	0.003965
2854.9	0.003825
2864.55	0.002735
2874.19	0.002335
2883.84	0.002015
2893.48	0.001785
2903.12	0.002375
2912.77	0.002375
2922.41	0.002535
2932.06	0.002495
2941.7	0.001735
2951.35	0.0014103
2960.99	0.001595
2970.64	0.001465
2980.28	0.0012204
2989.93	0.0006569
2999.57	0.001465
3009.22	0.0011639
3018.86	0.001023
3028.51	0.0007917
3038.15	0.001485
3047.8	0.001885
3057.44	0.002875
3067.09	0.003235
3076.73	0.003885
3086.38	0.005805
3096.02	0.008095
3105.67	0.005975
3115.31	0.003735
3124.95	0.002275
3134.6	0.001945
3144.24	0.0010958
3153.89	0.0011196
3163.53	0.0009622
3173.18	0.0013559
3182.82	0.0011034
3192.47	0.001545
3202.11	0.0013233
3211.76	0.0009873
3221.4	0.0007606
3231.05	0.0008905
3240.69	0.0009466
3250.34	0.0004284
3259.98	0.00042562
3269.63	0.0006822
3279.27	0.00050422
3288.92	0.0009101
3298.56	0.0005723
3308.21	0.0008735
3317.85	0.0007821
3327.49	0.0011317
3337.14	0.0007688
3346.78	0.0012666
3356.43	0.0012806
3366.07	0.002055
3375.72	0.003345
3385.36	0.008925
3395.01	0.023365
3404.65	0.047465
3414.3	0.045375
3423.94	0.018055
3433.59	0.005775
3443.23	0.002905
3452.88	0.002325
3462.52	0.003275
3472.17	0.003195
3481.81	0.005105
3491.46	0.008325
3501.1	0.013625
3510.75	0.021365
3520.39	0.031125
3530.04	0.032015
3539.68	0.020075
3549.32	0.009285
3558.97	0.003765
3568.61	0.002025
3578.26	0.001765
3587.9	0.001085
3597.55	0.001685
3607.19	0.0012342
3616.84	0.001625
3626.48	0.0008501
3636.13	0.0006527
3645.77	0.0005623
3655.42	0.000439645
3665.06	0.0005169
3674.71	0.0003963
3684.35	0.000122
3694	0.0008948
3703.64	0.000311
3713.29	0.000591
3722.93	0.00051251
3732.58	0.0009521
3742.22	0.00126
3751.86	0.0008489
3761.51	0.0007743
3771.15	0.0005546
3780.8	0.0008519
3790.44	0.0009068
3800.09	0.0009012
3809.73	0.0006305
3819.38	0.0008184
3829.02	0.000421
3838.67	0.0007439
3848.31	0.0010274
3857.96	0.0009493
3867.6	0.0005776
3877.25	0.0006742
3886.89	0.00017
3896.54	0.000827
3906.18	0.000302
3915.83	0.00047757
3925.47	0.000187
3935.12	0.0007388
3944.76	0.0008798
3954.41	0.0009643
3964.05	0.00050669
3973.69	0.000339
3983.34	0.00079
3992.98	0.0008083
