Infrared Spectrum: 3-Chloro-2-fluorobenzamide
Formula: C 7 H 5 Cl F N O
CAS: 104326-94-5
State: gas
Origin: EPA-IR VAPOR PHASE LIBRARY
1/CM	ABSORBANCE
549.8	0.007184
559.445	0.013424
569.09	0.016634
578.734	0.009304
588.379	0.003864
598.024	0.002354
607.669	0.0015312
617.313	0.002174
626.958	0.003014
636.603	0.006994
646.248	0.014484
655.893	0.015454
665.537	0.007594
675.182	0.005114
684.827	0.003534
694.472	0.002644
704.116	0.003854
713.761	0.004644
723.406	0.006244
733.051	0.010714
742.695	0.023124
752.34	0.039154
761.985	0.023234
771.63	0.012014
781.275	0.010874
790.919	0.012134
800.564	0.013474
810.209	0.015154
819.854	0.017014
829.498	0.016854
839.143	0.013974
848.788	0.008754
858.433	0.007594
868.078	0.007254
877.722	0.006614
887.367	0.006454
897.012	0.006384
906.657	0.005744
916.301	0.004694
925.946	0.004844
935.591	0.005044
945.236	0.005054
954.88	0.004694
964.525	0.004404
974.17	0.004764
983.815	0.004464
993.46	0.004334
1003.1	0.004054
1012.75	0.003384
1022.39	0.002744
1032.04	0.003154
1041.68	0.004264
1051.33	0.007784
1060.97	0.008974
1070.62	0.008274
1080.26	0.004804
1089.91	0.004454
1099.55	0.004694
1109.2	0.005464
1118.84	0.009224
1128.49	0.014574
1138.13	0.010064
1147.78	0.004654
1157.42	0.004164
1167.07	0.003564
1176.71	0.003314
1186.36	0.004164
1196	0.004294
1205.64	0.006734
1215.29	0.007574
1224.93	0.017514
1234.58	0.023534
1244.22	0.017924
1253.87	0.010824
1263.51	0.006234
1273.16	0.005374
1282.8	0.004954
1292.45	0.005694
1302.09	0.007754
1311.74	0.011604
1321.38	0.015294
1331.03	0.026894
1340.67	0.060074
1350.32	0.090924
1359.96	0.064464
1369.61	0.021764
1379.25	0.011064
1388.9	0.008094
1398.54	0.006234
1408.18	0.005564
1417.83	0.006344
1427.47	0.011464
1437.12	0.032074
1446.76	0.059984
1456.41	0.060504
1466.05	0.027944
1475.7	0.010104
1485.34	0.004904
1494.99	0.004134
1504.63	0.003774
1514.28	0.003454
1523.92	0.003274
1533.57	0.003224
1543.21	0.004504
1552.86	0.008174
1562.5	0.017464
1572.15	0.024724
1581.79	0.041284
1591.44	0.059694
1601.08	0.043384
1610.73	0.018434
1620.37	0.008814
1630.01	0.006334
1639.66	0.006154
1649.3	0.006434
1658.95	0.007664
1668.59	0.011194
1678.24	0.016424
1687.88	0.018774
1697.53	0.023234
1707.17	0.063704
1716.82	0.142394
1726.46	0.123084
1736.11	0.037954
1745.75	0.023034
1755.4	0.022684
1765.04	0.015234
1774.69	0.006614
1784.33	0.003364
1793.98	0.002234
1803.62	0.001984
1813.27	0.001784
1822.91	0.001774
1832.55	0.001844
1842.2	0.0016799
1851.84	0.0014491
1861.49	0.0014214
1871.13	0.0015085
1880.78	0.002114
1890.42	0.002164
1900.07	0.001784
1909.71	0.0015418
1919.36	0.0016862
1929	0.001694
1938.65	0.001724
1948.29	0.001764
1957.94	0.0013363
1967.58	0.0010078
1977.23	0.0009514
1986.87	0.0010643
1996.52	0.0011216
2006.16	0.0011459
2015.81	0.0010525
2025.45	0.0011027
2035.1	0.0010666
2044.74	0.0008819
2054.38	0.0009757
2064.03	0.0010755
2073.67	0.0009654
2083.32	0.0009563
2092.96	0.0008959
2102.61	0.0009435
2112.25	0.0009618
2121.9	0.0009896
2131.54	0.0005951
2141.19	0.0008804
2150.83	0.0008762
2160.48	0.0009204
2170.12	0.0009116
2179.77	0.0009257
2189.41	0.0008524
2199.06	0.00075614
2208.7	0.0006326
2218.35	0.00076498
2227.99	0.0007442
2237.64	0.0006801
2247.28	0.00071315
2256.92	0.00076768
2266.57	0.0008855
2276.21	0.0013105
2285.86	0.0012012
2295.5	0.0008337
2305.15	0.0008942
2314.79	0.0008823
2324.44	0.000953
2334.08	0.0006774
2343.73	0.0006818
2353.37	0.00078836
2363.02	0.000558
2372.66	0.0008728
2382.31	0.00077413
2391.95	0.0010273
2401.6	0.00072156
2411.24	0.0009392
2420.89	0.0009646
2430.53	0.00073595
2440.18	0.0010992
2449.82	0.0012269
2459.47	0.0010617
2469.11	0.0011577
2478.75	0.0010059
2488.4	0.0009236
2498.04	0.0006175
2507.69	0.00076433
2517.33	0.0007637
2526.98	0.0007175
2536.62	0.00077444
2546.27	0.0008874
2555.91	0.0006626
2565.56	0.0009175
2575.2	0.000449
2584.85	0.0010081
2594.49	0.0006387
2604.14	0.0008527
2613.78	0.0006809
2623.43	0.000542
2633.07	0.0008818
2642.72	0.000693331
2652.36	0.0009479
2662.01	0.0006092
2671.65	0.0007956
2681.29	0.000584
2690.94	0.0008626
2700.58	0.00077142
2710.23	0.0009183
2719.87	0.0008274
2729.52	0.0007416
2739.16	0.0010924
2748.81	0.0009684
2758.45	0.0006659
2768.1	0.00071014
2777.74	0.0009173
2787.39	0.0007988
2797.03	0.0006256
2806.68	0.0014208
2816.32	0.0013857
2825.97	0.0011559
2835.61	0.00076931
2845.26	0.0006484
2854.9	0.0006189
2864.55	0.0006562
2874.19	0.00077105
2883.84	0.00076704
2893.48	0.0006668
2903.12	0.00028
2912.77	0.00071504
2922.41	0.000612
2932.06	0.0008342
2941.7	0.00073566
2951.35	0.000307
2960.99	0.00075143
2970.64	0.0007377
2980.28	0.0009471
2989.93	0.0006381
2999.57	0.0012831
3009.22	0.0009681
3018.86	0.0008517
3028.51	0.0012483
3038.15	0.001093
3047.8	0.0011356
3057.44	0.0015958
3067.09	0.0015401
3076.73	0.003394
3086.38	0.004744
3096.02	0.003734
3105.67	0.0016162
3115.31	0.0010005
3124.95	0.000863
3134.6	0.0009436
3144.24	0.0013468
3153.89	0.0013026
3163.53	0.0015283
3173.18	0.0012854
3182.82	0.0012087
3192.47	0.0006821
3202.11	0.0007999
3211.76	0.0012767
3221.4	0.0008554
3231.05	0.00087
3240.69	0.0008503
3250.34	0.0010191
3259.98	0.0009827
3269.63	0.00073454
3279.27	0.0012926
3288.92	0.0008304
3298.56	0.000807
3308.21	0.0009877
3317.85	0.0013962
3327.49	0.000543
3337.14	0.0012257
3346.78	0.0009357
3356.43	0.0011987
3366.07	0.0009675
3375.72	0.001229
3385.36	0.0011336
3395.01	0.002264
3404.65	0.004484
3414.3	0.006154
3423.94	0.009734
3433.59	0.013174
3443.23	0.015234
3452.88	0.010324
3462.52	0.003874
3472.17	0.002224
3481.81	0.001734
3491.46	0.0015692
3501.1	0.002294
3510.75	0.003594
3520.39	0.004794
3530.04	0.006734
3539.68	0.009764
3549.32	0.011414
3558.97	0.017054
3568.61	0.020934
3578.26	0.010834
3587.9	0.002714
3597.55	0.0014736
3607.19	0.0011933
3616.84	0.0013656
3626.48	0.0015269
3636.13	0.0013183
3645.77	0.000939
3655.42	0.0009046
3665.06	0.0006327
3674.71	0.0015493
3684.35	0.0010752
3694	0.000513
3703.64	0.0010794
3713.29	0.0014001
3722.93	0.0011448
3732.58	0.0010338
3742.22	0.000508
3751.86	0.0012645
3761.51	0.0008568
3771.15	0.00076606
3780.8	0.0012759
3790.44	0.000915
3800.09	0.00073985
3809.73	0.0009855
3819.38	0.0011133
3829.02	0.0008241
3838.67	0.0009243
3848.31	0.0010958
3857.96	0.000562
3867.6	0.0010249
3877.25	0.0012627
3886.89	0.0006708
3896.54	0.0013393
3906.18	0.0010844
3915.83	0.0010321
3925.47	0.00073354
3935.12	0.0006812
3944.76	2e-06
3954.41	0.000424
3964.05	0.0006258
3973.69	0.000851
3983.34	0.00073184
3992.98	0.0009912
