Infrared Spectrum: Ethyl R-(E)-4,5,O--isopropylidene-4,5-dihydroxypent-2-enoate
Formula: C 10 H 16 O 4
CAS: 104321-62-2
State: gas
Origin: EPA-IR VAPOR PHASE LIBRARY
1/CM	ABSORBANCE
549.8	0.003969
559.445	0.004799
569.09	0.003709
578.734	0.003199
588.379	0.003519
598.024	0.002379
607.669	0.002739
617.313	0.003149
626.958	0.003149
636.603	0.003779
646.248	0.005969
655.893	0.004159
665.537	0.002889
675.182	0.002159
684.827	0.002979
694.472	0.003709
704.116	0.005169
713.761	0.006569
723.406	0.006459
733.051	0.005459
742.695	0.004649
752.34	0.004179
761.985	0.003769
771.63	0.005229
781.275	0.006839
790.919	0.009989
800.564	0.008359
810.209	0.008159
819.854	0.009949
829.498	0.016169
839.143	0.030569
848.788	0.044639
858.433	0.039189
868.078	0.029809
877.722	0.022149
887.367	0.016569
897.012	0.016099
906.657	0.016459
916.301	0.015159
925.946	0.014009
935.591	0.014279
945.236	0.016089
954.88	0.021069
964.525	0.032099
974.17	0.041129
983.815	0.031869
993.46	0.021779
1003.1	0.023219
1012.75	0.029379
1022.39	0.049409
1032.04	0.084659
1041.68	0.106059
1051.33	0.102219
1060.97	0.131509
1070.62	0.149489
1080.26	0.089369
1089.91	0.055379
1099.55	0.046299
1109.2	0.042409
1118.84	0.045759
1128.49	0.051589
1138.13	0.057789
1147.78	0.086059
1157.42	0.146319
1167.07	0.199329
1176.71	0.158999
1186.36	0.091809
1196	0.076459
1205.64	0.093369
1215.29	0.118519
1224.93	0.137219
1234.58	0.156499
1244.22	0.173859
1253.87	0.216659
1263.51	0.209659
1273.16	0.123939
1282.8	0.075519
1292.45	0.078269
1302.09	0.101079
1311.74	0.063359
1321.38	0.038889
1331.03	0.034319
1340.67	0.027939
1350.32	0.025069
1359.96	0.035019
1369.61	0.071969
1379.25	0.080539
1388.9	0.045499
1398.54	0.022489
1408.18	0.015279
1417.83	0.012119
1427.47	0.010939
1437.12	0.011359
1446.76	0.013669
1456.41	0.016629
1466.05	0.017589
1475.7	0.015249
1485.34	0.010599
1494.99	0.006889
1504.63	0.005299
1514.28	0.004579
1523.92	0.004039
1533.57	0.003959
1543.21	0.003639
1552.86	0.003759
1562.5	0.003719
1572.15	0.003839
1581.79	0.003919
1591.44	0.003779
1601.08	0.003579
1610.73	0.004329
1620.37	0.004409
1630.01	0.006289
1639.66	0.010069
1649.3	0.018459
1658.95	0.030189
1668.59	0.024419
1678.24	0.013899
1687.88	0.012439
1697.53	0.015009
1707.17	0.020459
1716.82	0.033149
1726.46	0.073659
1736.11	0.172909
1745.75	0.191709
1755.4	0.081439
1765.04	0.033199
1774.69	0.016839
1784.33	0.010079
1793.98	0.007259
1803.62	0.005639
1813.27	0.005259
1822.91	0.004719
1832.55	0.004369
1842.2	0.003849
1851.84	0.003639
1861.49	0.003489
1871.13	0.003439
1880.78	0.003409
1890.42	0.003549
1900.07	0.003779
1909.71	0.003289
1919.36	0.002669
1929	0.002419
1938.65	0.002319
1948.29	0.002359
1957.94	0.002219
1967.58	0.002259
1977.23	0.002219
1986.87	0.002419
1996.52	0.002629
2006.16	0.002939
2015.81	0.002809
2025.45	0.002939
2035.1	0.002609
2044.74	0.002619
2054.38	0.002359
2064.03	0.002049
2073.67	0.002019
2083.32	0.002379
2092.96	0.002419
2102.61	0.002729
2112.25	0.002839
2121.9	0.002769
2131.54	0.002829
2141.19	0.002299
2150.83	0.001929
2160.48	0.002039
2170.12	0.001879
2179.77	0.001969
2189.41	0.001989
2199.06	0.001879
2208.7	0.001769
2218.35	0.001889
2227.99	0.001929
2237.64	0.001609
2247.28	0.001809
2256.92	0.001599
2266.57	0.001699
2276.21	0.001679
2285.86	0.001809
2295.5	0.001579
2305.15	0.001769
2314.79	0.001639
2324.44	0.001699
2334.08	0.001809
2343.73	0.001429
2353.37	0.001819
2363.02	0.001559
2372.66	0.0011568
2382.31	0.001379
2391.95	0.001539
2401.6	0.0013953
2411.24	0.0013983
2420.89	0.0012819
2430.53	0.001419
2440.18	0.0011823
2449.82	0.001509
2459.47	0.0013856
2469.11	0.001479
2478.75	0.0012672
2488.4	0.001449
2498.04	0.001609
2507.69	0.0011453
2517.33	0.0012234
2526.98	0.0014103
2536.62	0.001068
2546.27	0.001449
2555.91	0.0014095
2565.56	0.001489
2575.2	0.001439
2584.85	0.001669
2594.49	0.001939
2604.14	0.001699
2613.78	0.001629
2623.43	0.001799
2633.07	0.001869
2642.72	0.001829
2652.36	0.001659
2662.01	0.002089
2671.65	0.002109
2681.29	0.001739
2690.94	0.002009
2700.58	0.001729
2710.23	0.001449
2719.87	0.002249
2729.52	0.001909
2739.16	0.002139
2748.81	0.002359
2758.45	0.002399
2768.1	0.002139
2777.74	0.002489
2787.39	0.002939
2797.03	0.003249
2806.68	0.004189
2816.32	0.004349
2825.97	0.005499
2835.61	0.006459
2845.26	0.008259
2854.9	0.012929
2864.55	0.022029
2874.19	0.036449
2883.84	0.043759
2893.48	0.038019
2903.12	0.031749
2912.77	0.029749
2922.41	0.029039
2932.06	0.034319
2941.7	0.050449
2951.35	0.047849
2960.99	0.038679
2970.64	0.042749
2980.28	0.065829
2989.93	0.096139
2999.57	0.089379
3009.22	0.037559
3018.86	0.018509
3028.51	0.011509
3038.15	0.008769
3047.8	0.006729
3057.44	0.005749
3067.09	0.004829
3076.73	0.003919
3086.38	0.003819
3096.02	0.003119
3105.67	0.002219
3115.31	0.002329
3124.95	0.002599
3134.6	0.002589
3144.24	0.002369
3153.89	0.001709
3163.53	0.002019
3173.18	0.001979
3182.82	0.001959
3192.47	0.001889
3202.11	0.001589
3211.76	0.001979
3221.4	0.001779
3231.05	0.0011464
3240.69	0.0012658
3250.34	0.0008112
3259.98	0.0012916
3269.63	0.0008301
3279.27	0.0011912
3288.92	0.0008629
3298.56	0.0013876
3308.21	0.0005406
3317.85	0.0011706
3327.49	0.0012547
3337.14	0.001509
3346.78	0.0013044
3356.43	0.0010981
3366.07	0.0012726
3375.72	0.0012539
3385.36	0.0013635
3395.01	0.0009858
3404.65	0.000874
3414.3	0.0010342
3423.94	0.001361
3433.59	0.000801
3443.23	0.001949
3452.88	0.002129
3462.52	0.002529
3472.17	0.002419
3481.81	0.001819
3491.46	0.001839
3501.1	0.001899
3510.75	0.001599
3520.39	0.0006218
3530.04	0.00118
3539.68	0.0005466
3549.32	0.000289
3558.97	0.0008845
3568.61	0.000277
3578.26	0.00041327
3587.9	0.0008658
3597.55	0.0003699
3607.19	0.0003908
3616.84	0.0005377
3626.48	0.0009231
3636.13	0.0009611
3645.77	0.000613
3655.42	0.0003878
3665.06	0.0008193
3674.71	0.000809
3684.35	0.000881
3694	0.0008914
3703.64	0.0006029
3713.29	0.0006426
3722.93	0.0009483
3732.58	0.0006881
3742.22	0.000298
3751.86	0.0006066
3761.51	0.000937
3771.15	0.00043674
3780.8	0.0010567
3790.44	0.0009904
3800.09	0.0012383
3809.73	0.0006961
3819.38	0.000285
3829.02	0.0012472
3838.67	0.0007313
3848.31	0.0006676
3857.96	0.0013078
3867.6	0.000388
3877.25	0.0012479
3886.89	0.0010989
3896.54	0.0012705
3906.18	0.0010495
3915.83	0.001429
3925.47	0.0011971
3935.12	0.0011846
3944.76	0.0007769
3954.41	0.001559
3964.05	0.0013869
3973.69	0.0012744
3983.34	0.0011586
3992.98	0.0009051
