Infrared Spectrum: Benzanilide,3',4',5'-trimethoxy-2-methylamino-,
Formula: C17 H20 N2 O4
CAS: 1043-91-0
State: SOLUTION 5% (CHCl3 FOR 2.5-15 microns)
Melting point: 180-181 C
Class: COBLENTZ
Instrument: PERKIN-ELMER 421 (GRATING)
Instrument parameters: GRATING CHANGE AT 1999 CM^-^
Path length: 0.01 CM
Resolution: 2
Origin: ABBOTT LABORATORIES
1/CM	TRANSMITTANCE
727	0.8472
736.026	0.8479
745.052	0.8489
754.078	0.8501
763.104	0.8499
772.13	0.8494
781.156	0.8476
790.182	0.8447
799.208	0.8398
808.234	0.8308
817.26	0.7824
826.286	0.7764
835.311	0.8445
844.337	0.9113
853.363	0.9092
862.389	0.8989
871.415	0.8823
880.441	0.8584
889.467	0.8916
898.493	0.9161
907.519	0.9156
916.545	0.9058
925.571	0.8971
934.597	0.9021
943.623	0.9014
952.649	0.891
961.675	0.8691
970.701	0.7816
979.727	0.6925
988.753	0.5304
997.779	0.517
1006.8	0.7994
1015.83	0.8098
1024.86	0.7842
1033.88	0.7607
1042.91	0.774
1051.93	0.7362
1060.96	0.7947
1069.99	0.7783
1079.01	0.6559
1088.04	0.6793
1097.06	0.6088
1106.09	0.5196
1115.12	0.204
1124.14	0.0795
1133.17	0.347
1142.19	0.676
1151.22	0.6401
1160.25	0.5608
1169.27	0.4817
1178.3	0.4024
1187.32	0.3232
1196.35	0.2441
1205.38	0.1915
1214.4	0.1851
1223.43	0.1857
1232.45	0.3036
1241.48	0.4787
1250.51	0.4647
1259.53	0.4317
1268.56	0.5928
1277.58	0.5127
1286.61	0.3778
1295.64	0.5065
1304.66	0.6171
1313.69	0.5694
1322.71	0.5635
1331.74	0.682
1340.77	0.6857
1349.79	0.7627
1358.82	0.8161
1367.84	0.8085
1376.87	0.7693
1385.89	0.6576
1394.92	0.2141
1403.95	0.1371
1412.97	0.5033
1422	0.4741
1431.02	0.6
1440.05	0.2944
1449.08	0.1649
1458.1	0.3888
1467.13	0.5305
1476.15	0.5379
1485.18	0.2529
1494.21	0.0699
1503.23	0.0846
1512.26	0.1426
1521.28	0.2863
1530.31	0.5552
1539.34	0.6768
1548.36	0.6806
1557.39	0.5954
1566.41	0.3364
1575.44	0.4017
1584.47	0.2713
1593.49	0.1437
1602.52	0.4496
1611.54	0.5615
1620.57	0.5519
1629.6	0.3195
1638.62	0.1577
1647.65	0.1777
1656.67	0.4971
1665.7	0.7326
1674.73	0.8237
1683.75	0.8485
1692.78	0.8696
1701.8	0.8813
1710.83	0.8918
1719.86	0.8989
1728.88	0.9011
1737.91	0.9026
1746.93	0.9073
1755.96	0.907
1764.99	0.9104
1774.01	0.9164
1783.04	0.921
1792.06	0.9209
1801.09	0.9212
1810.11	0.9221
1819.14	0.9222
1828.17	0.9222
1837.19	0.9222
1846.22	0.9218
1855.24	0.9214
1864.27	0.9209
1873.3	0.9204
1882.32	0.919
1891.35	0.9171
1900.37	0.9156
1909.4	0.9144
1918.43	0.9132
1927.45	0.9149
1936.48	0.918
1945.5	0.9167
1954.53	0.9146
1963.56	0.9125
1972.58	0.9113
1981.61	0.9108
1990.63	0.9141
1999.66	0.9149
2008.69	0.9145
2017.71	0.9144
2026.74	0.9147
2035.76	0.9152
2044.79	0.9158
2053.82	0.9163
2062.84	0.9166
2071.87	0.9168
2080.89	0.9156
2089.92	0.9144
2098.95	0.9138
2107.97	0.9136
2117	0.9143
2126.02	0.9167
2135.05	0.9174
2144.08	0.9178
2153.1	0.9176
2162.13	0.9174
2171.15	0.9173
2180.18	0.9166
2189.21	0.9167
2198.23	0.9167
2207.26	0.9165
2216.28	0.9163
2225.31	0.9161
2234.33	0.9159
2243.36	0.9154
2252.39	0.9144
2261.41	0.9125
2270.44	0.9114
2279.46	0.9109
2288.49	0.9109
2297.52	0.9124
2306.54	0.9138
2315.57	0.915
2324.59	0.9162
2333.62	0.9167
2342.65	0.917
2351.67	0.9192
2360.7	0.9214
2369.72	0.9238
2378.75	0.9268
2387.78	0.9231
2396.8	0.9138
2405.83	0.9065
2414.85	0.9021
2423.88	0.8999
2432.91	0.8993
2441.93	0.8995
2450.96	0.8998
2459.98	0.9003
2469.01	0.901
2478.04	0.9019
2487.06	0.903
2496.09	0.9036
2505.11	0.9035
2514.14	0.9032
2523.17	0.9027
2532.19	0.9021
2541.22	0.9015
2550.24	0.901
2559.27	0.9013
2568.3	0.9019
2577.32	0.9026
2586.35	0.9037
2595.37	0.9039
2604.4	0.9032
2613.43	0.9014
2622.45	0.8994
2631.48	0.897
2640.5	0.8986
2649.53	0.9042
2658.55	0.907
2667.58	0.9078
2676.61	0.9076
2685.63	0.9066
2694.66	0.9052
2703.68	0.9034
2712.71	0.9006
2721.74	0.898
2730.76	0.8956
2739.79	0.8938
2748.81	0.892
2757.84	0.8906
2766.87	0.8892
2775.89	0.8864
2784.92	0.8715
2793.94	0.8484
2802.97	0.7691
2812	0.7125
2821.02	0.7028
2830.05	0.7129
2839.07	0.8083
2848.1	0.8073
2857.13	0.7621
2866.15	0.7783
2875.18	0.7614
2884.2	0.7117
2893.23	0.6662
2902.26	0.6557
2911.28	0.6669
2920.31	0.5991
2929.33	0.5488
2938.36	0.6334
2947.39	0.6532
2956.41	0.6409
2965.44	0.6617
2974.46	0.6552
2983.49	0.5612
2992.52	0.4747
3001.54	0.5841
3010.57	0.7607
3019.59	0.7658
3028.62	0.7929
3037.65	0.8254
3046.67	0.8375
3055.7	0.8397
3064.72	0.8399
3073.75	0.8442
3082.77	0.8498
3091.8	0.8556
3100.83	0.8613
3109.85	0.8616
3118.88	0.861
3127.9	0.8624
3136.93	0.8696
3145.96	0.8795
3154.98	0.8908
3164.01	0.8944
3173.03	0.8958
3182.06	0.8967
3191.09	0.8978
3200.11	0.8991
3209.14	0.9004
3218.16	0.9031
3227.19	0.9051
3236.22	0.9027
3245.24	0.9007
3254.27	0.895
3263.29	0.8881
3272.32	0.8799
3281.35	0.8717
3290.37	0.8584
3299.4	0.8426
3308.42	0.8263
3317.45	0.8016
3326.48	0.769
3335.5	0.7319
3344.53	0.7018
3353.55	0.683
3362.58	0.6771
3371.61	0.6786
3380.63	0.6878
3389.66	0.7077
3398.68	0.7285
3407.71	0.7299
3416.74	0.7071
3425.76	0.6952
3434.79	0.7438
3443.81	0.7941
3452.84	0.8688
3461.87	0.8921
3470.89	0.8994
3479.92	0.9004
3488.94	0.9012
3497.97	0.9068
3507	0.9094
3516.02	0.9095
3525.05	0.9094
3534.07	0.9091
3543.1	0.9086
3552.12	0.9082
3561.15	0.9077
3570.18	0.9063
3579.2	0.9079
3588.23	0.908
3597.25	0.9065
3606.28	0.9058
3615.31	0.9072
3624.33	0.9114
3633.36	0.9131
3642.38	0.9092
3651.41	0.9074
3660.44	0.9075
3669.46	0.9149
3678.49	0.9182
3687.51	0.9142
3696.54	0.9098
3705.57	0.9086
3714.59	0.9083
3723.62	0.9078
3732.64	0.9098
3741.67	0.9089
3750.7	0.9076
3759.72	0.909
3768.75	0.9114
3777.77	0.9095
3786.8	0.9075
3795.83	0.9066
3804.85	0.9076
3813.88	0.9053
3822.9	0.9036
3831.93	0.9025
3840.96	0.9016
3849.98	0.9011
3859.01	0.9013
3868.03	0.8991
3877.06	0.8983
3886.09	0.8984
3895.11	0.8985
3904.14	0.8987
3913.16	0.8993
3922.19	0.9012
3931.22	0.8978
3940.24	0.8943
3949.27	0.8934
3958.29	0.8931
3967.32	0.893
3976.34	0.8928
3985.37	0.893
3994.4	0.8938
4003.42	0.895
