Infrared Spectrum: PROPANOIC ACID, 2-AMINO,3-[3,5-DIIODO-4-[4-HYDROXY-3-(1-METHYLETHYL)PHENOXY]PHENYL]-
Formula: C18 H19 I2 N O4
CAS: 10439-94-8
State: SOLID (OIL MULL)
Class: COBLENTZ
Instrument: PERKIN-ELMER 21 (GRATING)
Instrument parameters: NaCl PRISM
Sampling: TRANSMISSION
Resolution: 2
Origin: SMITH KLINE & FRENCH LABS.
1/CM	TRANSMITTANCE
670	0.7509
679	0.8045
688	0.8119
697	0.7817
706	0.6258
715	0.8353
724	0.88
733	0.8879
742	0.9099
751	0.9149
760	0.8733
769	0.8018
778	0.821
787	0.7843
796	0.7224
805	0.71
814	0.6978
823	0.7897
832	0.9266
841	0.9111
850	0.8752
859	0.8154
868	0.724
877	0.7619
886	0.859
895	0.892
904	0.9199
913	0.9081
922	0.9129
931	0.8495
940	0.7133
949	0.8727
958	0.9048
967	0.912
976	0.9183
985	0.9303
994	0.9267
1003	0.9153
1012	0.9106
1021	0.9085
1030	0.8822
1039	0.8482
1048	0.8121
1057	0.8236
1066	0.802
1075	0.86
1084	0.8891
1093	0.8629
1102	0.8299
1111	0.8171
1120	0.7993
1129	0.6904
1138	0.6213
1147	0.6377
1156	0.5423
1165	0.516
1174	0.4754
1183	0.3457
1192	0.4869
1201	0.5258
1210	0.601
1219	0.595
1228	0.445
1237	0.3245
1246	0.4751
1255	0.5009
1264	0.4131
1273	0.4919
1282	0.6517
1291	0.6602
1300	0.572
1309	0.5578
1318	0.542
1327	0.526
1336	0.4912
1345	0.4881
1354	0.471
1363	0.4554
1372	0.3809
1381	0.3772
1390	0.3814
1399	0.3779
1408	0.3397
1417	0.2828
1426	0.1105
1435	0.1432
1444	0.2347
1453	0.2692
1462	0.3151
1471	0.4757
1480	0.4521
1489	0.3455
1498	0.2976
1507	0.4457
1516	0.4854
1525	0.4819
1534	0.49
1543	0.5265
1552	0.5013
1561	0.4719
1570	0.3668
1579	0.309
1588	0.2772
1597	0.2652
1606	0.2829
1615	0.3045
1624	0.3182
1633	0.3922
1642	0.5445
1651	0.5759
1660	0.6581
1669	0.7203
1678	0.7275
1687	0.7202
1696	0.7214
1705	0.7688
1714	0.8484
1723	0.8999
1732	0.9174
1741	0.9461
1750	0.9527
1759	0.9567
1768	0.9644
1777	0.9702
1786	0.9738
1795	0.9805
1804	0.9813
1813	0.9746
1822	0.9696
1831	0.9683
1840	0.9684
1849	0.9683
1858	0.9686
1867	0.9683
1876	0.9672
1885	0.964
1894	0.9583
1903	0.9508
1912	0.9455
1921	0.9411
1930	0.9373
1939	0.9335
1948	0.9313
1957	0.9295
1966	0.9284
1975	0.9282
1984	0.9226
1993	0.9171
2002	0.9116
2011	0.9074
2020	0.9057
2029	0.9047
2038	0.9048
2047	0.9051
2056	0.9056
2065	0.905
2074	0.9043
2083	0.9043
2092	0.9044
2101	0.9037
2110	0.9019
2119	0.8991
2128	0.8974
2137	0.8953
2146	0.8923
2155	0.8894
2164	0.8872
2173	0.8856
2182	0.8857
2191	0.8834
2200	0.8762
2209	0.8648
2218	0.8525
2227	0.8437
2236	0.8357
2245	0.8265
2254	0.8192
2263	0.8115
2272	0.8036
2281	0.7952
2290	0.7818
2299	0.7736
2308	0.7694
2317	0.7667
2326	0.7661
2335	0.7664
2344	0.7668
2353	0.7666
2362	0.7628
2371	0.744
2380	0.7325
2389	0.7277
2398	0.7249
2407	0.7214
2416	0.7109
2425	0.6993
2434	0.6922
2443	0.686
2452	0.6803
2461	0.6748
2470	0.6698
2479	0.6649
2488	0.6599
2497	0.6549
2506	0.6497
2515	0.6437
2524	0.6373
2533	0.6302
2542	0.6229
2551	0.6163
2560	0.6096
2569	0.603
2578	0.5966
2587	0.5902
2596	0.5842
2605	0.5783
2614	0.5749
2623	0.5719
2632	0.5697
2641	0.5662
2650	0.561
2659	0.5546
2668	0.547
2677	0.54
2686	0.5331
2695	0.5263
2704	0.5191
2713	0.5116
2722	0.5025
2731	0.4922
2740	0.4805
2749	0.467
2758	0.4439
2767	0.4176
2776	0.3775
2785	0.3256
2794	0.2642
2803	0.2138
2812	0.1361
2821	0.0797
2830	0.0525
2839	0.042
2848	0.036
2857	0.0327
2866	0.0315
2875	0.0318
2884	0.0336
2893	0.043
2902	0.0625
2911	0.0856
2920	0.142
2929	0.2021
2938	0.2618
2947	0.3212
2956	0.3735
2965	0.4042
2974	0.4146
2983	0.4155
2992	0.4167
3001	0.4183
3010	0.4198
3019	0.4213
3028	0.4228
3037	0.4241
3046	0.4256
3055	0.4271
3064	0.4285
3073	0.4303
3082	0.4322
3091	0.4344
3100	0.4367
3109	0.439
3118	0.4416
3127	0.4453
3136	0.4489
3145	0.4544
3154	0.461
3163	0.4678
3172	0.4756
3181	0.4845
3190	0.4929
3199	0.5012
3208	0.5076
3217	0.5136
3226	0.5197
3235	0.5249
3244	0.53
3253	0.5349
3262	0.5396
3271	0.5443
3280	0.5491
3289	0.5541
3298	0.5583
3307	0.5621
3316	0.5676
3325	0.5735
3334	0.5804
3343	0.5894
3352	0.5983
3361	0.6062
3370	0.6127
3379	0.6179
3388	0.623
3397	0.6283
3406	0.6343
3415	0.6402
3424	0.6464
3433	0.6527
3442	0.6598
3451	0.6672
3460	0.6773
3469	0.691
3478	0.7099
3487	0.7176
3496	0.724
3505	0.7294
3514	0.7331
3523	0.7366
3532	0.74
3541	0.7433
3550	0.7469
3559	0.7509
3568	0.7548
3577	0.7588
3586	0.7635
3595	0.7681
3604	0.7726
3613	0.7768
3622	0.7795
3631	0.7813
3640	0.7821
3649	0.7829
3658	0.7837
3667	0.7843
3676	0.7846
3685	0.785
3694	0.7853
3703	0.7853
3712	0.7854
3721	0.7854
3730	0.7855
3739	0.7855
3748	0.7855
3757	0.7856
3766	0.7856
3775	0.7856
3784	0.7857
3793	0.7857
3802	0.7858
3811	0.7856
3820	0.7855
3829	0.7853
3838	0.7852
3847	0.7846
3856	0.7837
3865	0.7826
3874	0.7817
3883	0.781
3892	0.7802
3901	0.7795
3910	0.7787
3919	0.7777
3928	0.7767
3937	0.7757
3946	0.7745
3955	0.7735
3964	0.7724
3973	0.7712
3982	0.7701
3991	0.769
4000	0.7679
