Infrared Spectrum: 2-Amino-5-trifluoromethyl-1,3,4-thiadiazole
Formula: C 3 H 2 F 3 N 3 S
CAS: 10444-89-0
State: gas
Origin: EPA-IR VAPOR PHASE LIBRARY
1/CM	ABSORBANCE
549.8	0.001915
559.445	0.0009751
569.09	0.002115
578.734	0.0012511
588.379	0.0014219
598.024	0.002245
607.669	0.002855
617.313	0.002805
626.958	0.003445
636.603	0.002245
646.248	0.002575
655.893	0.002155
665.537	0.002935
675.182	0.002635
684.827	0.001675
694.472	0.001735
704.116	0.002055
713.761	0.002545
723.406	0.002175
733.051	0.004615
742.695	0.005515
752.34	0.003455
761.985	0.002505
771.63	0.002945
781.275	0.002275
790.919	0.001905
800.564	0.001955
810.209	0.0015807
819.854	0.002165
829.498	0.0012887
839.143	0.0016036
848.788	0.001725
858.433	0.001725
868.078	0.0014872
877.722	0.0010006
887.367	0.0013056
897.012	0.0007669
906.657	0.0009972
916.301	0.0008335
925.946	0.0009533
935.591	0.0010735
945.236	0.0009034
954.88	0.0007676
964.525	0.0014054
974.17	0.0010316
983.815	0.0009076
993.46	0.001685
1003.1	0.003185
1012.75	0.008155
1022.39	0.020005
1032.04	0.028535
1041.68	0.018605
1051.33	0.009815
1060.97	0.007575
1070.62	0.005355
1080.26	0.003505
1089.91	0.001845
1099.55	0.003275
1109.2	0.003665
1118.84	0.004235
1128.49	0.004875
1138.13	0.006995
1147.78	0.011775
1157.42	0.020785
1167.07	0.029905
1176.71	0.029385
1186.36	0.028475
1196	0.024095
1205.64	0.017445
1215.29	0.008275
1224.93	0.002865
1234.58	0.002005
1244.22	0.0005571
1253.87	0.0015308
1263.51	0.0010442
1273.16	0.003025
1282.8	0.004765
1292.45	0.006415
1302.09	0.009005
1311.74	0.018015
1321.38	0.025625
1331.03	0.019835
1340.67	0.013245
1350.32	0.010745
1359.96	0.005305
1369.61	0.002535
1379.25	0.0014326
1388.9	0.001102
1398.54	0.001016
1408.18	0.0009745
1417.83	0.0011031
1427.47	0.0012627
1437.12	0.001975
1446.76	0.002995
1456.41	0.005515
1466.05	0.011905
1475.7	0.027345
1485.34	0.032075
1494.99	0.014875
1504.63	0.003695
1514.28	0.002175
1523.92	0.0014976
1533.57	0.0016017
1543.21	0.0012846
1552.86	0.0012832
1562.5	0.0011684
1572.15	0.001955
1581.79	0.002555
1591.44	0.006145
1601.08	0.012265
1610.73	0.011915
1620.37	0.005315
1630.01	0.002585
1639.66	0.001965
1649.3	0.0014023
1658.95	0.0011309
1668.59	0.0008242
1678.24	0.000619883
1687.88	0.000733
1697.53	0.00066558
1707.17	0.0006087
1716.82	0.0008905
1726.46	0.00066484
1736.11	0.000478
1745.75	0.000468
1755.4	0.00063401
1765.04	0.000403
1774.69	0.00064797
1784.33	0.0008466
1793.98	0.0005642
1803.62	0.000581
1813.27	0.00065149
1822.91	0.00066368
1832.55	0.00060803
1842.2	0.00065725
1851.84	0.00065552
1861.49	0.0006024
1871.13	0.000505
1880.78	0.0007353
1890.42	0.0007111
1900.07	0.0007438
1909.71	0.0007939
1919.36	0.0007272
1929	0.00069242
1938.65	0.0005928
1948.29	0.0005845
1957.94	0.0007839
1967.58	0.0007262
1977.23	0.00063613
1986.87	0.0005257
1996.52	0.000622982
2006.16	0.00068839
2015.81	0.0008149
2025.45	0.00068007
2035.1	0.00068915
2044.74	0.0007486
2054.38	0.0007668
2064.03	0.0008071
2073.67	0.00065452
2083.32	0.000746
2092.96	0.0007513
2102.61	0.0007441
2112.25	0.00065128
2121.9	0.00063514
2131.54	0.0008645
2141.19	0.0008037
2150.83	0.0008195
2160.48	0.00070748
2170.12	0.0005407
2179.77	0.00068822
2189.41	0.0009859
2199.06	0.0007866
2208.7	0.000877
2218.35	0.0009707
2227.99	0.00066797
2237.64	0.0005959
2247.28	0.0005781
2256.92	0.0008115
2266.57	0.0007722
2276.21	0.0008735
2285.86	0.0007629
2295.5	0.00067107
2305.15	0.000801
2314.79	0.00066851
2324.44	0.001051
2334.08	0.0008456
2343.73	0.00069363
2353.37	0.000741
2363.02	0.0007539
2372.66	0.00065687
2382.31	0.0007203
2391.95	0.0007241
2401.6	0.000876
2411.24	0.00065041
2420.89	0.00068909
2430.53	0.0008849
2440.18	0.0008059
2449.82	0.000446
2459.47	0.00062744
2469.11	0.000424
2478.75	0.000503
2488.4	0.00066022
2498.04	0.00044
2507.69	0.0010526
2517.33	0.0008193
2526.98	0.00063329
2536.62	0.0008497
2546.27	0.0007681
2555.91	0.000620687
2565.56	0.0008234
2575.2	0.0008404
2584.85	0.0007219
2594.49	0.0009906
2604.14	0.0011004
2613.78	0.0011795
2623.43	0.0009804
2633.07	0.0006061
2642.72	0.0008462
2652.36	0.000624519
2662.01	0.00083
2671.65	0.0005967
2681.29	0.00066909
2690.94	0.001203
2700.58	0.000508
2710.23	0.000948
2719.87	0.00061363
2729.52	0.00067324
2739.16	0.0007955
2748.81	0.0009602
2758.45	0.0008971
2768.1	0.0009872
2777.74	0.0008948
2787.39	0.0007517
2797.03	0.0005721
2806.68	0.0008051
2816.32	0.0007579
2825.97	0.0010273
2835.61	0.0010951
2845.26	0.000614339
2854.9	0.00035
2864.55	0.00070741
2874.19	0.0008472
2883.84	0.0009562
2893.48	0.0008608
2903.12	0.000743
2912.77	0.0008317
2922.41	0.00065601
2932.06	0.0008158
2941.7	0.000338
2951.35	0.0010874
2960.99	0.0008063
2970.64	0.0009107
2980.28	0.000416
2989.93	0.00066093
2999.57	0.000324
3009.22	0.00069938
3018.86	0.0007368
3028.51	0.000504
3038.15	0.0005598
3047.8	0.000305
3057.44	0.0009841
3067.09	0.00065211
3076.73	0.0008349
3086.38	0.0008857
3096.02	0.00060896
3105.67	0.0008604
3115.31	0.0008985
3124.95	0.00071004
3134.6	0.0009562
3144.24	0.000386
3153.89	0.000616654
3163.53	0.00068694
3173.18	0.0010721
3182.82	0.0005353
3192.47	0.0008937
3202.11	0.0011749
3211.76	0.0005728
3221.4	0.00086
3231.05	0.0009472
3240.69	0.0008715
3250.34	0.0007196
3259.98	0.0011963
3269.63	0.0005402
3279.27	0.000374
3288.92	0.0009561
3298.56	0.0005577
3308.21	0.0006012
3317.85	0.0007664
3327.49	0.000171
3337.14	0.000429
3346.78	0.00065808
3356.43	0.0009939
3366.07	0.000824
3375.72	0.001176
3385.36	0.0009331
3395.01	0.003005
3404.65	0.004725
3414.3	0.007445
3423.94	0.004935
3433.59	0.003085
3443.23	0.0013608
3452.88	0.0009006
3462.52	0.0010284
3472.17	0.00067355
3481.81	0.0012872
3491.46	0.002295
3501.1	0.003025
3510.75	0.003435
3520.39	0.003205
3530.04	0.002525
3539.68	0.0016014
3549.32	0.0014426
3558.97	0.00069413
3568.61	0.000386
3578.26	0.000352
3587.9	0.000352
3597.55	0.0010866
3607.19	0.000306
3616.84	0.000247
3626.48	0.000391
3636.13	0.00043
3645.77	0.000136
3655.42	0.000594
3665.06	0.000969
3674.71	0.00063227
3684.35	0.0009628
3694	0.0005791
3703.64	0.000169
3713.29	0.00066449
3722.93	0.0011724
3732.58	0.0008665
3742.22	0.0011004
3751.86	0.000443
3761.51	0.000388
3771.15	0.0009196
3780.8	0.000293
3790.44	0.000376
3800.09	0.0009266
3809.73	0.0005692
3819.38	0.0010948
3829.02	0.000472
3838.67	0.0007592
3848.31	0.0005928
3857.96	0.0009516
3867.6	0.0012947
3877.25	0.0007995
3886.89	0.0007281
3896.54	0.0007757
3906.18	0.0011395
3915.83	0.000716
3925.47	0.000388
3935.12	0.0010505
3944.76	0.0007755
3954.41	0.000146
3964.05	0.0012055
3973.69	0.0008486
3983.34	0.0010713
3992.98	0.00064408
