Infrared Spectrum: 2,3,6-Trifluorobenzaldehyde
Formula: C 7 H 3 F 3 O
CAS: 104451-70-9
State: gas
Origin: EPA-IR VAPOR PHASE LIBRARY
1/CM	ABSORBANCE
549.8	0.00816
559.445	0.01018
569.09	0.01007
578.734	0.00694
588.379	0.00689
598.024	0.00987
607.669	0.01224
617.313	0.00958
626.958	0.00752
636.603	0.00473
646.248	0.00383
655.893	0.00423
665.537	0.00383
675.182	0.00638
684.827	0.01319
694.472	0.02327
704.116	0.02152
713.761	0.01226
723.406	0.0099
733.051	0.01766
742.695	0.02041
752.34	0.01364
761.985	0.01129
771.63	0.01277
781.275	0.01826
790.919	0.02526
800.564	0.03344
810.209	0.0475
819.854	0.03833
829.498	0.01735
839.143	0.00576
848.788	0.00407
858.433	0.00418
868.078	0.00375
877.722	0.00392
887.367	0.00516
897.012	0.00822
906.657	0.01295
916.301	0.01587
925.946	0.01344
935.591	0.01186
945.236	0.00955
954.88	0.00693
964.525	0.00597
974.17	0.0073
983.815	0.0103
993.46	0.01607
1003.1	0.02132
1012.75	0.02313
1022.39	0.02335
1032.04	0.02122
1041.68	0.03134
1051.33	0.02948
1060.97	0.01579
1070.62	0.00541
1080.26	0.00341
1089.91	0.00538
1099.55	0.00244
1109.2	0.00367
1118.84	0.00252
1128.49	0.00547
1138.13	0.00666
1147.78	0.0102
1157.42	0.00831
1167.07	0.00251
1176.71	0.00323
1186.36	0.00676
1196	0.00924
1205.64	0.02975
1215.29	0.0535
1224.93	0.04631
1234.58	0.02274
1244.22	0.04034
1253.87	0.11704
1263.51	0.14945
1273.16	0.0709
1282.8	0.03332
1292.45	0.01834
1302.09	0.01526
1311.74	0.01508
1321.38	0.01144
1331.03	0.00832
1340.67	0.00692
1350.32	0.00537
1359.96	0.00535
1369.61	0.00558
1379.25	0.008
1388.9	0.01817
1398.54	0.03454
1408.18	0.03654
1417.83	0.02347
1427.47	0.01476
1437.12	0.02055
1446.76	0.02357
1456.41	0.01718
1466.05	0.01741
1475.7	0.04294
1485.34	0.16371
1494.99	0.303
1504.63	0.22583
1514.28	0.04362
1523.92	0.01195
1533.57	0.00925
1543.21	0.00802
1552.86	0.00629
1562.5	0.00664
1572.15	0.00835
1581.79	0.0117
1591.44	0.01575
1601.08	0.02224
1610.73	0.03185
1620.37	0.04292
1630.01	0.04821
1639.66	0.03526
1649.3	0.01438
1658.95	0.01006
1668.59	0.01037
1678.24	0.01267
1687.88	0.01709
1697.53	0.02662
1707.17	0.04486
1716.82	0.10218
1726.46	0.1696
1736.11	0.13589
1745.75	0.03156
1755.4	0.01344
1765.04	0.01034
1774.69	0.00897
1784.33	0.00769
1793.98	0.0058
1803.62	0.004
1813.27	0.00327
1822.91	0.00279
1832.55	0.00296
1842.2	0.00418
1851.84	0.00551
1861.49	0.005
1871.13	0.00331
1880.78	0.00276
1890.42	0.00249
1900.07	0.00231
1909.71	0.00222
1919.36	0.0020356
1929	0.001993
1938.65	0.00231
1948.29	0.00259
1957.94	0.00244
1967.58	0.00253
1977.23	0.00251
1986.87	0.00238
1996.52	0.00239
2006.16	0.00219
2015.81	0.0021238
2025.45	0.0021382
2035.1	0.0019445
2044.74	0.0017818
2054.38	0.0018352
2064.03	0.0015667
2073.67	0.001932
2083.32	0.0017599
2092.96	0.0014912
2102.61	0.0016524
2112.25	0.0014385
2121.9	0.0018106
2131.54	0.00125905
2141.19	0.0013421
2150.83	0.001873
2160.48	0.0014875
2170.12	0.00120411
2179.77	0.0017951
2189.41	0.0017079
2199.06	0.00241
2208.7	0.0020227
2218.35	0.0019039
2227.99	0.0017618
2237.64	0.0017729
2247.28	0.0017538
2256.92	0.0013446
2266.57	0.0016594
2276.21	0.0015355
2285.86	0.0019387
2295.5	0.0019597
2305.15	0.00227
2314.79	0.0021306
2324.44	0.0018137
2334.08	0.0019176
2343.73	0.0015925
2353.37	0.00237
2363.02	0.0019065
2372.66	0.0017574
2382.31	0.00127471
2391.95	0.0016633
2401.6	0.0017865
2411.24	0.0016103
2420.89	0.00143
2430.53	0.0016415
2440.18	0.0015663
2449.82	0.0018814
2459.47	0.0018598
2469.11	0.0020558
2478.75	0.0023
2488.4	0.0020469
2498.04	0.0020244
2507.69	0.0018953
2517.33	0.0018713
2526.98	0.0019611
2536.62	0.0018988
2546.27	0.0021172
2555.91	0.0020315
2565.56	0.0020931
2575.2	0.0015741
2584.85	0.0014643
2594.49	0.0017727
2604.14	0.0013689
2613.78	0.0020008
2623.43	0.0016032
2633.07	0.0014138
2642.72	0.0018099
2652.36	0.0019421
2662.01	0.0022
2671.65	0.00222
2681.29	0.0016069
2690.94	0.0019991
2700.58	0.00297
2710.23	0.00361
2719.87	0.00311
2729.52	0.00328
2739.16	0.00407
2748.81	0.00611
2758.45	0.0105
2768.1	0.0137
2777.74	0.01068
2787.39	0.00621
2797.03	0.00531
2806.68	0.0058
2816.32	0.00514
2825.97	0.00513
2835.61	0.00548
2845.26	0.00813
2854.9	0.01756
2864.55	0.02707
2874.19	0.02481
2883.84	0.01257
2893.48	0.0066
2903.12	0.00532
2912.77	0.00456
2922.41	0.00402
2932.06	0.00337
2941.7	0.00259
2951.35	0.00236
2960.99	0.0015728
2970.64	0.0015642
2980.28	0.0016729
2989.93	0.0018394
2999.57	0.001924
3009.22	0.0015296
3018.86	0.0020206
3028.51	0.00228
3038.15	0.0013437
3047.8	0.0017165
3057.44	0.0010931
3067.09	0.0018063
3076.73	0.0017342
3086.38	0.0020254
3096.02	0.0013405
3105.67	0.0013619
3115.31	0.001653
3124.95	0.0017202
3134.6	0.0016523
3144.24	0.00181
3153.89	0.001968
3163.53	0.000376
3173.18	0.001305
3182.82	0.0015327
3192.47	0.000974
3202.11	0.0014059
3211.76	0.00051
3221.4	0.0013438
3231.05	0.0017505
3240.69	0.000945
3250.34	0.0013974
3259.98	0.0017082
3269.63	0.00125379
3279.27	0.000886
3288.92	0.0019673
3298.56	0.001296
3308.21	0.0014908
3317.85	0.000604
3327.49	0.0014349
3337.14	0.0012035
3346.78	0.001035
3356.43	0.0015584
3366.07	0.0013137
3375.72	0.000491
3385.36	0.000905
3395.01	0.00247
3404.65	0.00261
3414.3	0.00373
3423.94	0.00466
3433.59	0.00373
3443.23	0.00417
3452.88	0.00223
3462.52	0.00218
3472.17	0.00226
3481.81	0.00120012
3491.46	0.0015655
3501.1	0.0016726
3510.75	0.00126326
3520.39	0.0022
3530.04	0.0010831
3539.68	0.00107
3549.32	0.0014948
3558.97	0.0015543
3568.61	0.002113
3578.26	0.001304
3587.9	0.001339
3597.55	0.0020025
3607.19	0.0012553
3616.84	0.0017882
3626.48	0.0019985
3636.13	0.0015141
3645.77	0.0011212
3655.42	0.0016889
3665.06	0.0013718
3674.71	0.0019036
3684.35	0.0016359
3694	0.0017335
3703.64	0.0011531
3713.29	0.00101
3722.93	0.0014139
3732.58	0.0018265
3742.22	0.0017027
3751.86	0.0016299
3761.51	0.000513
3771.15	0.001004
3780.8	0.0017691
3790.44	0.0018683
3800.09	0.002149
3809.73	0.0017629
3819.38	0.0015621
3829.02	0.0016043
3838.67	0.0014472
3848.31	0.000912
3857.96	0.000592
3867.6	0.00127733
3877.25	0.0017402
3886.89	0.0017308
3896.54	0.000791
3906.18	0.001015
3915.83	0.0010863
3925.47	0.0016261
3935.12	0.0016962
3944.76	0.00104
3954.41	0.00236
3964.05	0.00119623
3973.69	0.001068
3983.34	0.0019024
3992.98	0.000991
