Infrared Spectrum: PREGNA-5,16-DIENE-20-ONE OXIME, 3Beta-HYDROXY
Formula: C21 H31 N O2
CAS: 1045-71-2
State: SOLID (KBr DISC)
Class: COBLENTZ III
Instrument: BECKMAN IR-7
Sampling: TRANSMISSION
Resolution: 4
Origin: N. L. McNIVEN- THE WORCESTER FOUNDATION FOR EXPERIMENTAL BIOLOGY
1/CM	TRANSMITTANCE
603.974	0.596
612.583	0.643
621.193	0.695
629.802	0.69
638.411	0.696
647.02	0.686
655.63	0.4661
664.239	0.637
672.848	0.714
681.458	0.717
690.067	0.637
698.676	0.708
707.285	0.679
715.895	0.5649
724.504	0.554
733.113	0.564
741.723	0.642
750.332	0.675
758.941	0.719
767.55	0.732
776.16	0.738
784.769	0.731
793.378	0.6501
801.988	0.4671
810.597	0.52
819.206	0.665
827.815	0.623
836.425	0.423
845.034	0.515
853.643	0.655
862.253	0.559
870.862	0.322
879.471	0.456
888.08	0.576
896.69	0.3839
905.299	0.3
913.908	0.496
922.518	0.516
931.127	0.332
939.736	0.436
948.345	0.4209
956.955	0.179
965.564	0.467
974.173	0.506
982.783	0.502
991.392	0.352
1000	0.35
1008.61	0.401
1017.22	0.356
1025.83	0.388
1034.44	0.13
1043.05	0.213
1051.66	0.198
1060.27	0.447
1068.88	0.557
1077.48	0.56
1086.09	0.635
1094.7	0.543
1103.31	0.599
1111.92	0.545
1120.53	0.576
1129.14	0.556
1137.75	0.572
1146.36	0.634
1154.97	0.668
1163.58	0.658
1172.19	0.67
1180.8	0.641
1189.41	0.567
1198.01	0.63
1206.62	0.605
1215.23	0.641
1223.84	0.526
1232.45	0.588
1241.06	0.477
1249.67	0.359
1258.28	0.483
1266.89	0.651
1275.5	0.502
1284.11	0.621
1292.72	0.629
1301.33	0.584
1309.94	0.517
1318.54	0.417
1327.15	0.475
1335.76	0.401
1344.37	0.473
1352.98	0.423
1361.59	0.275
1370.2	0.194
1378.81	0.312
1387.42	0.376
1396.03	0.485
1404.64	0.507
1413.25	0.455
1421.86	0.384
1430.47	0.259
1439.07	0.217
1447.68	0.304
1456.29	0.301
1464.9	0.312
1473.51	0.434
1482.12	0.557
1490.73	0.588
1499.34	0.615
1507.95	0.626
1516.56	0.649
1525.17	0.657
1533.78	0.665
1542.39	0.669
1551	0.672
1559.6	0.673
1568.21	0.671
1576.82	0.655
1585.43	0.562
1594.04	0.647
1602.65	0.608
1611.26	0.567
1619.87	0.605
1628.48	0.635
1637.09	0.642
1645.7	0.652
1654.31	0.657
1662.92	0.626
1671.53	0.652
1680.13	0.667
1688.74	0.671
1697.35	0.669
1705.96	0.664
1714.57	0.66
1723.18	0.657
1731.79	0.655
1740.4	0.657
1749.01	0.662
1757.62	0.666
1766.23	0.667
1774.84	0.665
1783.45	0.664
1792.06	0.661
1800.66	0.657
1809.27	0.656
1817.88	0.657
1826.49	0.656
1835.1	0.655
1843.71	0.654
1852.32	0.651
1860.93	0.653
1869.54	0.654
1878.15	0.654
1886.76	0.653
1895.37	0.651
1903.98	0.647
1912.59	0.645
1921.19	0.645
1929.8	0.644
1938.41	0.644
1947.02	0.643
1955.63	0.639
1964.24	0.644
1972.85	0.646
1981.46	0.645
1990.07	0.643
1998.68	0.648
2007.29	0.649
2015.9	0.651
2024.51	0.653
2033.12	0.653
2041.72	0.654
2050.33	0.655
2058.94	0.653
2067.55	0.653
2076.16	0.6511
2084.77	0.651
2093.38	0.65
2101.99	0.65
2110.6	0.649
2119.21	0.649
2127.82	0.648
2136.43	0.647
2145.04	0.6459
2153.65	0.6436
2162.25	0.6423
2170.86	0.641
2179.47	0.6378
2188.08	0.635
2196.69	0.633
2205.3	0.632
2213.91	0.631
2222.52	0.6294
2231.13	0.6282
2239.74	0.627
2248.35	0.626
2256.96	0.6244
2265.57	0.623
2274.18	0.6218
2282.78	0.621
2291.39	0.6183
2300	0.615
2308.61	0.6127
2317.22	0.6105
2325.83	0.609
2334.44	0.6069
2343.05	0.6036
2351.66	0.6014
2360.27	0.5991
2368.88	0.5968
2377.49	0.5936
2386.1	0.5913
2394.71	0.589
2403.31	0.586
2411.92	0.584
2420.53	0.5804
2429.14	0.5779
2437.75	0.5747
2446.36	0.572
2454.97	0.5682
2463.58	0.5657
2472.19	0.5602
2480.8	0.556
2489.41	0.554
2498.02	0.552
2506.63	0.5505
2515.24	0.5444
2523.84	0.5399
2532.45	0.5347
2541.06	0.5308
2549.67	0.5263
2558.28	0.5206
2566.89	0.5128
2575.5	0.503
2584.11	0.493
2592.72	0.4831
2601.33	0.47
2609.94	0.4595
2618.55	0.4488
2627.16	0.4387
2635.77	0.4266
2644.37	0.423
2652.98	0.4208
2661.59	0.4118
2670.2	0.4053
2678.81	0.4001
2687.42	0.3978
2696.03	0.395
2704.64	0.3872
2713.25	0.3797
2721.86	0.3542
2730.47	0.3429
2739.08	0.3328
2747.69	0.3163
2756.3	0.3009
2764.9	0.2937
2773.51	0.2872
2782.12	0.2776
2790.73	0.2695
2799.34	0.2635
2807.95	0.259
2816.56	0.2508
2825.17	0.2176
2833.78	0.1497
2842.39	0.1328
2851	0.13
2859.61	0.1333
2868.22	0.1455
2876.83	0.1664
2885.43	0.1596
2894.04	0.1249
2902.65	0.112
2911.26	0.1035
2919.87	0.0964
2928.48	0.0594
2937.09	0.0633
2945.7	0.0805
2954.31	0.1027
2962.92	0.0924
2971.53	0.1025
2980.14	0.133
2988.75	0.2085
2997.36	0.2509
3005.96	0.2635
3014.57	0.2721
3023.18	0.273
3031.79	0.2681
3040.4	0.276
3049.01	0.286
3057.62	0.2639
3066.23	0.291
3074.84	0.2916
3083.45	0.2903
3092.06	0.288
3100.67	0.2858
3109.28	0.2815
3117.89	0.2772
3126.49	0.273
3135.1	0.2743
3143.71	0.275
3152.32	0.275
3160.93	0.273
3169.54	0.273
3178.15	0.271
3186.76	0.269
3195.37	0.2586
3203.98	0.244
3212.59	0.2354
3221.2	0.2279
3229.81	0.2174
3238.42	0.2136
3247.02	0.2169
3255.63	0.2214
3264.24	0.2312
3272.85	0.24
3281.46	0.2478
3290.07	0.2577
3298.68	0.268
3307.29	0.2738
3315.9	0.2751
3324.51	0.2816
3333.12	0.2896
3341.73	0.2919
3350.34	0.2909
3358.95	0.2858
3367.55	0.2707
3376.16	0.2564
3384.77	0.2344
3393.38	0.2077
3401.99	0.1765
3410.6	0.1378
3419.21	0.1143
3427.82	0.0997
3436.43	0.0987
3445.04	0.1113
3453.65	0.1215
3462.26	0.1309
3470.87	0.1389
3479.48	0.153
3488.08	0.1679
3496.69	0.1847
3505.3	0.2071
3513.91	0.2371
3522.52	0.2705
3531.13	0.3006
3539.74	0.3298
3548.35	0.3596
3556.96	0.3924
3565.57	0.4241
3574.18	0.4524
3582.79	0.4757
3591.4	0.4919
3600.01	0.499
3608.61	0.5043
3617.22	0.5147
3625.83	0.5256
3634.44	0.5301
3643.05	0.532
3651.66	0.532
3660.27	0.532
3668.88	0.532
3677.49	0.533
3686.1	0.534
3694.71	0.534
3703.32	0.535
3711.93	0.5345
3720.54	0.534
3729.14	0.534
3737.75	0.533
3746.36	0.532
3754.97	0.5301
3763.58	0.5258
3772.19	0.5226
3780.8	0.52
3789.41	0.518
3798.02	0.517
3806.63	0.516
3815.24	0.516
3823.85	0.514
3832.46	0.5137
3841.07	0.512
3849.67	0.5101
3858.28	0.506
3866.89	0.5046
3875.5	0.5023
3884.11	0.501
3892.72	0.5
3901.33	0.499
3909.94	0.497
3918.55	0.496
3927.16	0.495
3935.77	0.494
3944.38	0.493
3952.99	0.491
3961.6	0.4886
3970.2	0.4853
3978.81	0.4821
3987.42	0.4798
