Infrared Spectrum: Bis(2,2,2-trifluoroethyl)itaconate
Formula: C 9 H 8 F 6 O 4
CAS: 104534-96-5
State: gas
Origin: EPA-IR VAPOR PHASE LIBRARY
1/CM	ABSORBANCE
549.8	0.008323
559.445	0.007933
569.09	0.007143
578.734	0.005423
588.379	0.006033
598.024	0.004913
607.669	0.004373
617.313	0.005423
626.958	0.008063
636.603	0.009103
646.248	0.012463
655.893	0.017883
665.537	0.020383
675.182	0.013653
684.827	0.008213
694.472	0.004773
704.116	0.003593
713.761	0.002433
723.406	0.002333
733.051	0.002753
742.695	0.003773
752.34	0.003463
761.985	0.004193
771.63	0.003233
781.275	0.001993
790.919	0.003313
800.564	0.006003
810.209	0.010003
819.854	0.004583
829.498	0.009443
839.143	0.011923
848.788	0.012893
858.433	0.011413
868.078	0.010553
877.722	0.010343
887.367	0.010973
897.012	0.011793
906.657	0.011203
916.301	0.009793
925.946	0.010803
935.591	0.014903
945.236	0.022773
954.88	0.038203
964.525	0.045663
974.17	0.051023
983.815	0.046953
993.46	0.026493
1003.1	0.013673
1012.75	0.009563
1022.39	0.009963
1032.04	0.013113
1041.68	0.023063
1051.33	0.036783
1060.97	0.040433
1070.62	0.026103
1080.26	0.020143
1089.91	0.023823
1099.55	0.036783
1109.2	0.066583
1118.84	0.142883
1128.49	0.241503
1138.13	0.233843
1147.78	0.193283
1157.42	0.207143
1167.07	0.295123
1176.71	0.437393
1186.36	0.305483
1196	0.137833
1205.64	0.087833
1215.29	0.069363
1224.93	0.062873
1234.58	0.063603
1244.22	0.058933
1253.87	0.058243
1263.51	0.076943
1273.16	0.125963
1282.8	0.180223
1292.45	0.184513
1302.09	0.138093
1311.74	0.095773
1321.38	0.069713
1331.03	0.046403
1340.67	0.038303
1350.32	0.028873
1359.96	0.021453
1369.61	0.018543
1379.25	0.020273
1388.9	0.028923
1398.54	0.049073
1408.18	0.066963
1417.83	0.050853
1427.47	0.034343
1437.12	0.024683
1446.76	0.021013
1456.41	0.017323
1466.05	0.011283
1475.7	0.006973
1485.34	0.005413
1494.99	0.004503
1504.63	0.004143
1514.28	0.003943
1523.92	0.003263
1533.57	0.002783
1543.21	0.002843
1552.86	0.002673
1562.5	0.002393
1572.15	0.002623
1581.79	0.002753
1591.44	0.003033
1601.08	0.003063
1610.73	0.004333
1620.37	0.005163
1630.01	0.007383
1639.66	0.010423
1649.3	0.006333
1658.95	0.004163
1668.59	0.003543
1678.24	0.003593
1687.88	0.004523
1697.53	0.005363
1707.17	0.008053
1716.82	0.011323
1726.46	0.016523
1736.11	0.029363
1745.75	0.068733
1755.4	0.106373
1765.04	0.112873
1774.69	0.112263
1784.33	0.095523
1793.98	0.047733
1803.62	0.024853
1813.27	0.015423
1822.91	0.009683
1832.55	0.006623
1842.2	0.004683
1851.84	0.003493
1861.49	0.003053
1871.13	0.002473
1880.78	0.002343
1890.42	0.002363
1900.07	0.002573
1909.71	0.002983
1919.36	0.002753
1929	0.002253
1938.65	0.002213
1948.29	0.001923
1957.94	0.001773
1967.58	0.001643
1977.23	0.001783
1986.87	0.001903
1996.52	0.002073
2006.16	0.002233
2015.81	0.002393
2025.45	0.002493
2035.1	0.002213
2044.74	0.002063
2054.38	0.002193
2064.03	0.002533
2073.67	0.002253
2083.32	0.002423
2092.96	0.002433
2102.61	0.002643
2112.25	0.002583
2121.9	0.002373
2131.54	0.002423
2141.19	0.002113
2150.83	0.001933
2160.48	0.002283
2170.12	0.002013
2179.77	0.001833
2189.41	0.001913
2199.06	0.001673
2208.7	0.001593
2218.35	0.001633
2227.99	0.001913
2237.64	0.001813
2247.28	0.001593
2256.92	0.001963
2266.57	0.001693
2276.21	0.001653
2285.86	0.001783
2295.5	0.001553
2305.15	0.001723
2314.79	0.001593
2324.44	0.001523
2334.08	0.002093
2343.73	0.001983
2353.37	0.001913
2363.02	0.001783
2372.66	0.001643
2382.31	0.001283
2391.95	0.001553
2401.6	0.0010543
2411.24	0.001373
2420.89	0.001403
2430.53	0.0011035
2440.18	0.001453
2449.82	0.001363
2459.47	0.001253
2469.11	0.001353
2478.75	0.001343
2488.4	0.0006348
2498.04	0.0010478
2507.69	0.0008354
2517.33	0.0008556
2526.98	0.0007664
2536.62	0.0010562
2546.27	0.0011234
2555.91	0.001393
2565.56	0.001223
2575.2	0.001233
2584.85	0.0011076
2594.49	0.0008016
2604.14	0.0010654
2613.78	0.000703
2623.43	0.0007954
2633.07	0.0006416
2642.72	0.0008135
2652.36	0.001173
2662.01	0.000911
2671.65	0.0010511
2681.29	0.0009293
2690.94	0.0006939
2700.58	0.0009109
2710.23	0.0011371
2719.87	0.0006578
2729.52	0.0010498
2739.16	0.0008318
2748.81	0.001243
2758.45	0.0010249
2768.1	0.001343
2777.74	0.000724
2787.39	0.0006383
2797.03	0.001173
2806.68	0.0009947
2816.32	0.001146
2825.97	0.001193
2835.61	0.001553
2845.26	0.001193
2854.9	0.001163
2864.55	0.001413
2874.19	0.001433
2883.84	0.002033
2893.48	0.002433
2903.12	0.002173
2912.77	0.002033
2922.41	0.001773
2932.06	0.002553
2941.7	0.004703
2951.35	0.004193
2960.99	0.005143
2970.64	0.011793
2980.28	0.024553
2989.93	0.010153
2999.57	0.005303
3009.22	0.005043
3018.86	0.003553
3028.51	0.002623
3038.15	0.002163
3047.8	0.001643
3057.44	0.001343
3067.09	0.001463
3076.73	0.001453
3086.38	0.001243
3096.02	0.001323
3105.67	0.0009076
3115.31	0.001683
3124.95	0.001373
3134.6	0.0008429
3144.24	0.0003814
3153.89	0.001052
3163.53	0.0007464
3173.18	0.0006669
3182.82	0.0004763
3192.47	0.001413
3202.11	0.0009825
3211.76	0.0009569
3221.4	0.0010359
3231.05	0.001213
3240.69	0.0008838
3250.34	0.0004786
3259.98	0.0008555
3269.63	0.0007332
3279.27	0.0010043
3288.92	0.0004063
3298.56	0.0005631
3308.21	0.0008003
3317.85	0.0006436
3327.49	0.000708
3337.14	0.0004086
3346.78	0.001223
3356.43	0.000619
3366.07	0.0008992
3375.72	0.0009328
3385.36	0.001493
3395.01	0.0008746
3404.65	0.0007071
3414.3	0.0005149
3423.94	0.0005318
3433.59	0.0008524
3443.23	0.00108
3452.88	0.0011515
3462.52	0.001223
3472.17	0.0010449
3481.81	0.001193
3491.46	0.001453
3501.1	0.001883
3510.75	0.002233
3520.39	0.002083
3530.04	0.001723
3539.68	0.002033
3549.32	0.001923
3558.97	0.002533
3568.61	0.001273
3578.26	0.0010931
3587.9	0.0006003
3597.55	0.0010233
3607.19	0.0008745
3616.84	0.0004557
3626.48	0.0008674
3636.13	0.0005461
3645.77	0.0007315
3655.42	0.0008436
3665.06	0.0003357
3674.71	0.000113
3684.35	0.0007512
3694	0.0004337
3703.64	0.0005613
3713.29	0.0007713
3722.93	0.001173
3732.58	0.0009656
3742.22	0.001163
3751.86	0.0007426
3761.51	0.0009855
3771.15	0.000938
3780.8	0.001293
3790.44	0.0011362
3800.09	0.0006655
3809.73	0.0010727
3819.38	0.0009444
3829.02	0.0006319
3838.67	0.000647
3848.31	0.000649
3857.96	0.0009006
3867.6	0.0009762
3877.25	0.0007342
3886.89	0.001193
3896.54	0.000716
3906.18	0.0004198
3915.83	0.001233
3925.47	0.001313
3935.12	0.0007027
3944.76	0.001213
3954.41	0.0007467
3964.05	0.001363
3973.69	0.001493
3983.34	0.0005286
3992.98	0.0005867
