Infrared Spectrum: BENZENE, 1-(1-METHYLETHENYL)-2,4-DICHLORO-
Formula: C9 H8 Cl2
CAS: 104517-04-6
State: SOLUTION (10% IN CCl4 FOR 3800-1333 AND 10% IN CS2 FOR 1333-400 CM^-^1)
Class: COBLENTZ III
Instrument: DOW KBr FOREPRISM-GRATING
Instrument parameters: BLAZED AT 3.5, 12.0, 20.0 MICRON, CHANGED AT 5.0, 7.5, 14.9 MICRON
Sampling: TRANSMISSION
Path length: 0.011, 0.010 CM
Resolution: 4
Origin: DOW CHEMICAL COMPANY
1/CM	TRANSMITTANCE
378.678	0.141
388.06	0.141
397.441	0.191
406.823	0.444
416.205	0.709
425.586	0.767
434.968	0.761
444.35	0.7219
453.731	0.812
463.113	0.82
472.495	0.7
481.876	0.817
491.258	0.85
500.639	0.858
510.021	0.863
519.403	0.87
528.784	0.875
538.166	0.878
547.548	0.855
556.929	0.7381
566.311	0.621
575.693	0.571
585.074	0.866
594.456	0.875
603.838	0.878
613.219	0.834
622.601	0.8009
631.983	0.88
641.364	0.876
650.746	0.867
660.128	0.888
669.509	0.911
678.891	0.884
688.273	0.8309
697.654	0.915
707.036	0.917
716.418	0.938
725.799	0.946
735.181	0.912
744.562	0.9139
753.944	0.962
763.326	0.963
772.707	0.965
782.089	0.957
791.471	0.927
800.852	0.851
810.234	0.3782
819.616	0.1189
828.997	0.4886
838.379	0.815
847.761	0.807
857.142	0.752
866.524	0.3171
875.906	0.795
885.287	0.867
894.669	0.7831
904.051	0.1332
913.432	0.7889
922.814	0.895
932.196	0.933
941.577	0.965
950.959	0.969
960.341	0.978
969.722	0.981
979.104	0.979
988.485	0.971
997.867	0.95
1007.25	0.843
1016.63	0.933
1026.01	0.926
1035.39	0.852
1044.78	0.412
1054.16	0.8
1063.54	0.883
1072.92	0.884
1082.3	0.863
1091.68	0.7611
1101.07	0.3881
1110.45	0.5759
1119.83	0.776
1129.21	0.538
1138.59	0.718
1147.97	0.842
1157.36	0.892
1166.74	0.903
1176.12	0.904
1185.5	0.904
1194.88	0.906
1204.26	0.907
1213.65	0.9
1223.03	0.899
1232.41	0.886
1241.79	0.836
1251.17	0.831
1260.55	0.813
1269.94	0.883
1279.32	0.9
1288.7	0.904
1298.08	0.8441
1307.46	0.815
1316.84	0.887
1326.22	0.894
1335.61	0.884
1344.99	0.817
1354.37	0.835
1363.75	0.799
1373.13	0.5662
1382.51	0.2819
1391.9	0.796
1401.28	0.834
1410.66	0.846
1420.04	0.82
1429.42	0.745
1438.8	0.536
1448.19	0.507
1457.57	0.631
1466.95	0.5381
1476.33	0.099
1485.71	0.5465
1495.09	0.741
1504.48	0.744
1513.86	0.718
1523.24	0.645
1532.62	0.631
1542	0.4991
1551.38	0.378
1560.77	0.4509
1570.15	0.528
1579.53	0.514
1588.91	0.3231
1598.29	0.619
1607.67	0.795
1617.06	0.835
1626.44	0.838
1635.82	0.7081
1645.2	0.589
1654.58	0.8399
1663.96	0.9
1673.35	0.914
1682.73	0.915
1692.11	0.91
1701.49	0.912
1710.87	0.917
1720.25	0.911
1729.64	0.88
1739.02	0.875
1748.4	0.922
1757.78	0.927
1767.16	0.908
1776.54	0.927
1785.93	0.935
1795.31	0.933
1804.69	0.908
1814.07	0.859
1823.45	0.871
1832.83	0.917
1842.22	0.933
1851.6	0.934
1860.98	0.933
1870.36	0.933
1879.74	0.934
1889.12	0.911
1898.51	0.871
1907.89	0.935
1917.27	0.939
1926.65	0.945
1936.03	0.949
1945.41	0.947
1954.8	0.951
1964.18	0.955
1973.56	0.949
1982.94	0.946
1992.32	0.941
2001.7	0.938
2011.09	0.9375
2020.47	0.939
2029.85	0.943
2039.23	0.941
2048.61	0.941
2057.99	0.942
2067.38	0.945
2076.76	0.9449
2086.14	0.943
2095.52	0.946
2104.9	0.949
2114.28	0.949
2123.67	0.95
2133.05	0.949
2142.43	0.95
2151.81	0.9473
2161.19	0.947
2170.57	0.949
2179.96	0.9477
2189.34	0.9461
2198.72	0.947
2208.1	0.946
2217.48	0.947
2226.86	0.949
2236.25	0.946
2245.63	0.945
2255.01	0.943
2264.39	0.9372
2273.77	0.9297
2283.15	0.9222
2292.54	0.9164
2301.92	0.915
2311.3	0.9196
2320.68	0.93
2330.06	0.933
2339.44	0.9302
2348.83	0.9293
2358.21	0.9385
2367.59	0.935
2376.97	0.9427
2386.35	0.946
2395.73	0.9463
2405.12	0.947
2414.5	0.9491
2423.88	0.951
2433.26	0.953
2442.64	0.951
2452.02	0.954
2461.41	0.9546
2470.79	0.953
2480.17	0.951
2489.55	0.955
2498.93	0.953
2508.31	0.95
2517.69	0.95
2527.08	0.95
2536.46	0.955
2545.84	0.955
2555.22	0.955
2564.6	0.9534
2573.98	0.955
2583.37	0.955
2592.75	0.953
2602.13	0.9546
2611.51	0.955
2620.89	0.951
2630.27	0.951
2639.66	0.951
2649.04	0.955
2658.42	0.9545
2667.8	0.953
2677.18	0.951
2686.56	0.951
2695.95	0.954
2705.33	0.951
2714.71	0.947
2724.09	0.935
2733.47	0.9404
2742.85	0.955
2752.24	0.957
2761.62	0.9551
2771	0.955
2780.38	0.954
2789.76	0.9501
2799.14	0.9431
2808.53	0.9441
2817.91	0.943
2827.29	0.9357
2836.67	0.9221
2846.05	0.8974
2855.43	0.8724
2864.82	0.8802
2874.2	0.89
2883.58	0.8812
2892.96	0.874
2902.34	0.8685
2911.72	0.8288
2921.11	0.7322
2930.49	0.776
2939.87	0.823
2949.25	0.7735
2958.63	0.76
2968.01	0.7552
2977.4	0.6431
2986.78	0.7131
2996.16	0.8009
3005.54	0.8823
3014.92	0.8934
3024.3	0.8951
3033.69	0.908
3043.07	0.908
3052.45	0.9117
3061.83	0.8844
3071.21	0.8545
3080.59	0.858
3089.98	0.7064
3099.36	0.813
3108.74	0.9069
3118.12	0.9442
3127.5	0.955
3136.88	0.961
3146.27	0.962
3155.65	0.97
3165.03	0.974
3174.41	0.977
3183.79	0.978
3193.17	0.9797
3202.56	0.9815
3211.94	0.9843
3221.32	0.9833
3230.7	0.985
3240.08	0.9861
3249.46	0.985
3258.85	0.986
3268.23	0.987
3277.61	0.989
3286.99	0.9896
3296.37	0.989
3305.75	0.9904
3315.14	0.9928
3324.52	0.9918
3333.9	0.993
3343.28	0.991
3352.66	0.991
3362.04	0.9905
3371.43	0.99
3380.81	0.991
3390.19	0.994
3399.57	0.994
3408.95	0.994
3418.33	0.995
3427.72	0.994
3437.1	0.9905
3446.48	0.991
3455.86	0.989
3465.24	0.989
3474.62	0.987
3484.01	0.986
3493.39	0.9855
3502.77	0.982
3512.15	0.985
3521.53	0.983
3530.91	0.982
3540.3	0.982
3549.68	0.9824
3559.06	0.983
3568.44	0.979
3577.82	0.983
3587.2	0.979
3596.59	0.982
3605.97	0.983
3615.35	0.9793
3624.73	0.982
3634.11	0.9773
3643.49	0.978
3652.88	0.979
3662.26	0.979
3671.64	0.978
3681.02	0.979
3690.4	0.9785
3699.78	0.9789
3709.16	0.9772
3718.55	0.9764
3727.93	0.977
3737.31	0.975
3746.69	0.979
3756.07	0.975
3765.45	0.975
3774.84	0.973
3784.22	0.971
3793.6	0.977
