Infrared Spectrum: l-Menthone
Formula: C 10 H 18 O
CAS: 10458-14-7
State: gas
Instrument: HP-GC/MS/IRD
Origin: NIST Mass Spectrometry Data Center
1/CM	ABSORBANCE
550	0.000136
562	7.2e-05
574	5.6e-05
586	5.7e-05
598	0.000199
610	0.000289
622	0.000212
634	0.000136
646	0.000121
658	0.000124
670	0.000124
682	8.2e-05
694	4.4e-05
706	3.2e-05
718	8.4e-05
730	0.000114
742	0.000138
754	0.000114
766	8.6e-05
778	6.9e-05
790	3.2e-05
802	5e-05
814	0.000101
826	0.00012
838	0.000105
850	9e-05
862	0.000174
874	0.000213
886	0.000149
898	0.00013
910	7e-05
922	0.000118
934	0.00017
946	0.000167
958	0.000188
970	0.000317
982	0.000462
994	0.000341
1006	0.00021
1018	0.000232
1030	0.000311
1042	0.000472
1054	0.000394
1066	0.000341
1078	0.000458
1090	0.000512
1102	0.000542
1114	0.000795
1126	0.000711
1138	0.000657
1150	0.000578
1162	0.000507
1174	0.000591
1186	0.000872
1198	0.001281
1210	0.000959
1222	0.000578
1234	0.000628
1246	0.000631
1258	0.000548
1270	0.000675
1282	0.000744
1294	0.000597
1306	0.00058
1318	0.000664
1330	0.000753
1342	0.000814
1354	0.000933
1366	0.001148
1378	0.001251
1390	0.001091
1402	0.000535
1414	0.000406
1426	0.000602
1438	0.000785
1450	0.001324
1462	0.001508
1474	0.001101
1486	0.000562
1498	0.000222
1510	0.000135
1522	0.000105
1534	9e-05
1546	7.7e-05
1558	9.3e-05
1570	7.7e-05
1582	9.7e-05
1594	8.8e-05
1606	9.3e-05
1618	0.000115
1630	0.000137
1642	0.000165
1654	0.000219
1666	0.000312
1678	0.000461
1690	0.000756
1702	0.001929
1714	0.005911
1726	0.007848
1738	0.003266
1750	0.000957
1762	0.000516
1774	0.000317
1786	0.000229
1798	0.000167
1810	0.00013
1822	0.000114
1834	9e-05
1846	7.6e-05
1858	6e-05
1870	4.3e-05
1882	4.4e-05
1894	4.7e-05
1906	5.3e-05
1918	3.5e-05
1930	3.4e-05
1942	4.3e-05
1954	3.3e-05
1966	3.6e-05
1978	3.6e-05
1990	3.8e-05
2002	3e-05
2014	3.3e-05
2026	3e-05
2038	2.9e-05
2050	2e-05
2062	2e-05
2074	4.2e-05
2086	2e-05
2098	2.5e-05
2110	2.8e-05
2122	1.8e-05
2134	3e-05
2146	3.4e-05
2158	2.5e-05
2170	1.9e-05
2182	2.5e-05
2194	4e-05
2206	4.3e-05
2218	1.9e-05
2230	2.2e-05
2242	3.8e-05
2254	3.5e-05
2266	4.6e-05
2278	3.8e-05
2290	2.2e-05
2302	2.5e-05
2314	2.4e-05
2326	2.7e-05
2338	4e-05
2350	2.9e-05
2362	1.2e-05
2374	2.1e-05
2386	1.4e-05
2398	2.7e-05
2410	3.6e-05
2422	6.3e-05
2434	4.2e-05
2446	3e-05
2458	4.4e-05
2470	4.7e-05
2482	4e-05
2494	3.9e-05
2506	4.8e-05
2518	3.1e-05
2530	4.2e-05
2542	5.1e-05
2554	5.8e-05
2566	6.1e-05
2578	5.2e-05
2590	6.3e-05
2602	6.3e-05
2614	7.3e-05
2626	8e-05
2638	9.8e-05
2650	0.0001
2662	0.000107
2674	0.0001
2686	9.6e-05
2698	0.000112
2710	0.000106
2722	0.000128
2734	0.000156
2746	0.000212
2758	0.000167
2770	0.000179
2782	0.000205
2794	0.000222
2806	0.000287
2818	0.000407
2830	0.000623
2842	0.00118
2854	0.00209
2866	0.002823
2878	0.004107
2890	0.00391
2902	0.003449
2914	0.004585
2926	0.006527
2938	0.007637
2950	0.007292
2962	0.01
2974	0.007048
2986	0.002643
2998	0.001149
3010	0.000581
3022	0.000351
3034	0.000276
3046	0.000221
3058	0.000214
3070	0.000205
3082	0.000187
3094	0.000205
3106	0.000161
3118	0.000156
3130	0.000116
3142	0.000146
3154	0.000125
3166	0.000119
3178	0.000124
3190	0.000126
3202	9.4e-05
3214	7.6e-05
3226	3.3e-05
3238	4.5e-05
3250	4.1e-05
3262	1.7e-05
3274	5.6e-05
3286	2.8e-05
3298	4.8e-05
3310	3e-05
3322	5.4e-05
3334	2.9e-05
3346	6.8e-05
3358	4.8e-05
3370	4e-05
3382	6.3e-05
3394	8e-05
3406	8.3e-05
3418	0.00016
3430	0.000154
3442	0.0001
3454	5.8e-05
3466	2.9e-05
3478	5.9e-05
3490	7.6e-05
3502	4.7e-05
3514	5.6e-05
3526	1e-05
3538	5.4e-05
3550	1.3e-05
3562	7e-06
3574	3e-05
3586	1.1e-05
3598	5.6e-05
3610	7e-05
3622	3.8e-05
3634	4e-05
3646	5.6e-05
3658	6.4e-05
3670	4.8e-05
3682	2.3e-05
3694	6e-05
3706	6.9e-05
3718	6.3e-05
3730	1.6e-05
3742	4.4e-05
3754	6e-05
3766	4.7e-05
3778	3.1e-05
3790	6.9e-05
3802	6.5e-05
3814	4.6e-05
3826	4.1e-05
3838	6.3e-05
