Infrared Spectrum: 5-ANDROSTENE-3Beta,17Beta-DIOL,16Beta-YLACETIC ACID, LACTONE
Formula: C21 H30 O3
CAS: 10458-98-7
State: SOLUTION (0.2M IN CHCl3)
Class: COBLENTZ
Instrument: PERKIN-ELMER
Sampling: TRANSMISSION
Path length: 0.010 CM CELL
Resolution: 4
Origin: ABBOTT LABORATORIES - WASHBURN
MICROMETERS	TRANSMITTANCE
2.493	0.922
2.52615	0.922
2.55931	0.922
2.59246	0.92
2.62562	0.922
2.65877	0.9269
2.69193	0.927
2.72508	0.9053
2.75824	0.8009
2.79139	0.8437
2.82455	0.8161
2.8577	0.8032
2.89086	0.8079
2.92401	0.8288
2.95717	0.8487
2.99032	0.8736
3.02348	0.8868
3.05663	0.894
3.08979	0.897
3.12294	0.902
3.1561	0.9039
3.18925	0.9
3.22241	0.899
3.25556	0.8796
3.28872	0.764
3.32187	0.553
3.35503	0.3679
3.38818	0.292
3.42134	0.3713
3.45449	0.449
3.48765	0.5098
3.5208	0.5495
3.55396	0.8358
3.58711	0.869
3.62027	0.8847
3.65342	0.8888
3.68658	0.892
3.71973	0.894
3.75289	0.895
3.78604	0.895
3.8192	0.8941
3.85235	0.895
3.88551	0.897
3.91866	0.8988
3.95182	0.897
3.98497	0.897
4.01813	0.897
4.05128	0.8903
4.08444	0.889
4.11759	0.8899
4.15075	0.8969
4.1839	0.92
4.21706	0.9144
4.25021	0.907
4.28337	0.902
4.31652	0.902
4.34968	0.9069
4.38283	0.9091
4.41599	0.912
4.44914	0.91
4.4823	0.912
4.51545	0.912
4.54861	0.9093
4.58176	0.912
4.61492	0.912
4.64807	0.912
4.68123	0.91
4.71438	0.9137
4.74754	0.912
4.78069	0.9102
4.81385	0.909
4.847	0.907
4.88016	0.907
4.91331	0.907
4.94647	0.907
4.97962	0.9072
5.01278	0.904
5.04593	0.9067
5.07909	0.909
5.11224	0.909
5.1454	0.909
5.17855	0.9096
5.21171	0.909
5.24486	0.907
5.27802	0.9015
5.31117	0.895
5.34433	0.895
5.37748	0.894
5.41064	0.8914
5.44379	0.8865
5.47695	0.8768
5.5101	0.8536
5.54326	0.7812
5.57641	0.456
5.60957	0.1225
5.64272	0.072
5.67588	0.169
5.70903	0.402
5.74219	0.6054
5.77534	0.695
5.8085	0.7244
5.84165	0.753
5.87481	0.7667
5.90796	0.8136
5.94112	0.8399
5.97427	0.841
6.00743	0.8477
6.04058	0.8599
6.07374	0.8668
6.10689	0.8712
6.14005	0.874
6.1732	0.8772
6.20636	0.8821
6.23951	0.887
6.27267	0.889
6.30582	0.889
6.33898	0.89
6.37213	0.892
6.40529	0.892
6.43844	0.894
6.4716	0.897
6.50475	0.897
6.53791	0.9
6.57106	0.904
6.60422	0.9011
6.63737	0.8889
6.67053	0.882
6.70368	0.871
6.73684	0.8563
6.76999	0.8109
6.80315	0.6786
6.8363	0.6358
6.86946	0.5949
6.90261	0.6652
6.93577	0.728
6.96892	0.6561
7.00208	0.7105
7.03523	0.7555
7.06839	0.7277
7.10154	0.785
7.1347	0.7904
7.16785	0.7643
7.20101	0.6565
7.23416	0.664
7.26732	0.657
7.30047	0.6665
7.33363	0.649
7.36678	0.642
7.39994	0.6874
7.43309	0.702
7.46625	0.712
7.4994	0.6267
7.53256	0.6921
7.56571	0.7216
7.59887	0.7559
7.63202	0.7686
7.66518	0.6577
7.69833	0.6436
7.73149	0.6856
7.76464	0.7323
7.7978	0.7574
7.83095	0.7569
7.86411	0.7457
7.89726	0.7244
7.93042	0.7222
7.96357	0.7446
7.99673	0.7448
8.02988	0.7076
8.06304	0.6338
8.09619	0.603
8.12935	0.6
8.1625	0.6057
8.19566	0.6188
8.22881	0.624
8.26197	0.6233
8.29512	0.6273
8.32828	0.644
8.36143	0.6357
8.39459	0.5615
8.42774	0.384
8.4609	0.2638
8.49405	0.2073
8.52721	0.2398
8.56036	0.3107
8.59352	0.4069
8.62667	0.5049
8.65983	0.5532
8.69298	0.5962
8.72614	0.5811
8.75929	0.571
8.79245	0.5794
8.8256	0.6052
8.85876	0.6514
8.89191	0.6985
8.92507	0.7134
8.95822	0.7301
8.99138	0.7437
9.02453	0.748
9.05769	0.75
9.09084	0.75
9.124	0.7513
9.15715	0.7506
9.19031	0.748
9.22346	0.7466
9.25662	0.7287
9.28977	0.7099
9.32293	0.6991
9.35608	0.6357
9.38924	0.4807
9.42239	0.3582
9.45555	0.3229
9.4887	0.4091
9.52186	0.3657
9.55501	0.2644
9.58817	0.1768
9.62132	0.2376
9.65448	0.3594
9.68763	0.442
9.72079	0.3981
9.75394	0.3076
9.7871	0.224
9.82025	0.3686
9.85341	0.4814
9.88656	0.5229
9.91972	0.5427
9.95287	0.5705
9.98603	0.6015
10.0192	0.6946
10.0523	0.7426
10.0855	0.768
10.1186	0.771
10.1518	0.7587
10.185	0.7255
10.2181	0.7027
10.2513	0.7517
10.2844	0.8001
10.3176	0.822
10.3507	0.826
10.3839	0.8209
10.417	0.7769
10.4502	0.7111
10.4834	0.7047
10.5165	0.6976
10.5497	0.7668
10.5828	0.8235
10.616	0.8421
10.6491	0.851
10.6823	0.859
10.7154	0.8588
10.7486	0.8735
10.7817	0.8886
10.8149	0.89
10.8481	0.8771
10.8812	0.8421
10.9144	0.839
10.9475	0.8501
10.9807	0.857
11.0138	0.8516
11.047	0.8402
11.0801	0.8483
11.1133	0.854
11.1465	0.861
11.1796	0.8618
11.2128	0.8569
11.2459	0.8542
11.2791	0.859
11.3122	0.859
11.3454	0.8542
11.3785	0.8537
11.4117	0.857
11.4448	0.861
11.478	0.8341
11.5112	0.778
11.5443	0.7518
11.5775	0.7795
11.6106	0.8035
11.6438	0.8135
11.6769	0.797
11.7101	0.7743
11.7432	0.763
11.7764	0.7703
11.8096	0.762
11.8427	0.7503
11.8759	0.7723
11.909	0.8041
11.9422	0.806
11.9753	0.8001
12.0085	0.7998
12.0416	0.7768
12.0748	0.7526
12.1079	0.7863
12.1411	0.8344
12.1743	0.851
12.2074	0.864
12.2406	0.8714
12.2737	0.88
12.3069	0.884
12.34	0.8783
12.3732	0.8551
12.4063	0.8331
12.4395	0.8441
12.4727	0.8541
12.5058	0.862
12.539	0.8688
12.5721	0.872
12.6053	0.8864
12.6384	0.9013
12.6716	0.905
12.7047	0.905
12.7379	0.904
12.771	0.9009
12.8042	0.895
12.8374	0.894
12.8705	0.89
12.9037	0.8863
12.9368	0.882
12.97	0.882
13.0031	0.88
13.0363	0.88
13.0694	0.8708
13.1026	0.866
13.1358	0.862
13.1689	0.859
13.2021	0.859
13.2352	0.857
13.2684	0.8462
13.3015	0.8324
13.3347	0.8216
13.3678	0.818
13.401	0.818
13.4341	0.818
13.4673	0.815
13.5005	0.809
13.5336	0.808
13.5668	0.809
13.5999	0.808
13.6331	0.8026
13.6662	0.7997
13.6994	0.7948
13.7325	0.793
13.7657	0.79
13.7989	0.7731
13.832	0.7682
13.8652	0.768
13.8983	0.766
13.9315	0.7675
13.9646	0.771
13.9978	0.7773
14.0309	0.8018
14.0641	0.8221
14.0972	0.836
14.1304	0.8464
14.1636	0.851
14.1967	0.864
14.2299	0.8696
14.263	0.874
14.2962	0.8792
14.3293	0.8841
14.3625	0.8849
14.3956	0.874
14.4288	0.874
14.462	0.876
14.4951	0.8769
14.5283	0.8817
14.5614	0.885
14.5946	0.8915
14.6277	0.8963
14.6609	0.899
14.694	0.9
14.7272	0.898
14.7603	0.8979
14.7935	0.9058
14.8267	0.909
14.8598	0.9143
14.893	0.9147
14.9261	0.9105
14.9593	0.885
