Infrared Spectrum: 2-Bromo-3-fluorobenzotrifluoride
Formula: C 7 H 3 Br F 4
CAS: 104540-42-3
State: gas
Origin: EPA-IR VAPOR PHASE LIBRARY
1/CM	ABSORBANCE
549.8	0.007128
559.445	0.002748
569.09	0.001478
578.734	0.0013161
588.379	0.0012636
598.024	0.002218
607.669	0.002078
617.313	0.000692
626.958	0.001698
636.603	0.001938
646.248	0.001878
655.893	0.0008707
665.537	0.001728
675.182	0.007028
684.827	0.025778
694.472	0.022148
704.116	0.011068
713.761	0.027648
723.406	0.019968
733.051	0.004858
742.695	0.004518
752.34	0.014558
761.985	0.025408
771.63	0.013298
781.275	0.030028
790.919	0.082328
800.564	0.048798
810.209	0.008458
819.854	0.003408
829.498	0.002778
839.143	0.002268
848.788	0.001738
858.433	0.002298
868.078	0.003098
877.722	0.006118
887.367	0.028058
897.012	0.098358
906.657	0.085658
916.301	0.018388
925.946	0.007318
935.591	0.004208
945.236	0.003798
954.88	0.003558
964.525	0.004258
974.17	0.004538
983.815	0.003948
993.46	0.005318
1003.1	0.006068
1012.75	0.007618
1022.39	0.012948
1032.04	0.021288
1041.68	0.035158
1051.33	0.023858
1060.97	0.007958
1070.62	0.006928
1080.26	0.019398
1089.91	0.031768
1099.55	0.019658
1109.2	0.016098
1118.84	0.040248
1128.49	0.113268
1138.13	0.124168
1147.78	0.150378
1157.42	0.291008
1167.07	0.426818
1176.71	0.389578
1186.36	0.212128
1196	0.077438
1205.64	0.037338
1215.29	0.020418
1224.93	0.016478
1234.58	0.013558
1244.22	0.016558
1253.87	0.044518
1263.51	0.081388
1273.16	0.044678
1282.8	0.031558
1292.45	0.060418
1302.09	0.120308
1311.74	0.269258
1321.38	0.445988
1331.03	0.267398
1340.67	0.038878
1350.32	0.011808
1359.96	0.006928
1369.61	0.004928
1379.25	0.004898
1388.9	0.005608
1398.54	0.005818
1408.18	0.008038
1417.83	0.018518
1427.47	0.048118
1437.12	0.117728
1446.76	0.154218
1456.41	0.080608
1466.05	0.049478
1475.7	0.034658
1485.34	0.013768
1494.99	0.008748
1504.63	0.006758
1514.28	0.005298
1523.92	0.004218
1533.57	0.004458
1543.21	0.003608
1552.86	0.003658
1562.5	0.008458
1572.15	0.017818
1581.79	0.018978
1591.44	0.012658
1601.08	0.008568
1610.73	0.006698
1620.37	0.003888
1630.01	0.002578
1639.66	0.002598
1649.3	0.003158
1658.95	0.003248
1668.59	0.002698
1678.24	0.002668
1687.88	0.004558
1697.53	0.004318
1707.17	0.002138
1716.82	0.001668
1726.46	0.002078
1736.11	0.001678
1745.75	0.001738
1755.4	0.002188
1765.04	0.002068
1774.69	0.002008
1784.33	0.002308
1793.98	0.002968
1803.62	0.003238
1813.27	0.001908
1822.91	0.0012426
1832.55	0.0011658
1842.2	0.0012998
1851.84	0.002058
1861.49	0.003878
1871.13	0.003648
1880.78	0.001538
1890.42	0.0010231
1900.07	0.0012545
1909.71	0.001305
1919.36	0.002348
1929	0.004338
1938.65	0.004308
1948.29	0.001598
1957.94	0.0008373
1967.58	0.00085
1977.23	0.0008737
1986.87	0.0009069
1996.52	0.0009221
2006.16	0.0010196
2015.81	0.0012414
2025.45	0.0012765
2035.1	0.0012271
2044.74	0.0011239
2054.38	0.0011826
2064.03	0.001758
2073.67	0.002368
2083.32	0.002278
2092.96	0.001373
2102.61	0.0010015
2112.25	0.0009094
2121.9	0.0010794
2131.54	0.001014
2141.19	0.0008958
2150.83	0.0012998
2160.48	0.001968
2170.12	0.001758
2179.77	0.0013708
2189.41	0.0011461
2199.06	0.0012084
2208.7	0.0011303
2218.35	0.0013952
2227.99	0.0012999
2237.64	0.0011593
2247.28	0.0013884
2256.92	0.001818
2266.57	0.001968
2276.21	0.001818
2285.86	0.001738
2295.5	0.001758
2305.15	0.001998
2314.79	0.001778
2324.44	0.001798
2334.08	0.001758
2343.73	0.002228
2353.37	0.002288
2363.02	0.002378
2372.66	0.001948
2382.31	0.001518
2391.95	0.0012674
2401.6	0.0013473
2411.24	0.0009688
2420.89	0.0010255
2430.53	0.0009204
2440.18	0.0011861
2449.82	0.0012623
2459.47	0.0007661
2469.11	0.0012942
2478.75	0.001568
2488.4	0.001738
2498.04	0.001718
2507.69	0.0014049
2517.33	0.001688
2526.98	0.001848
2536.62	0.001818
2546.27	0.0011774
2555.91	0.001998
2565.56	0.0013771
2575.2	0.0011965
2584.85	0.0013412
2594.49	0.001498
2604.14	0.0009859
2613.78	0.0011789
2623.43	0.001299
2633.07	0.0013724
2642.72	0.0010348
2652.36	0.0008742
2662.01	0.0011848
2671.65	0.0007163
2681.29	0.0007773
2690.94	0.0006783
2700.58	0.000849
2710.23	0.0010057
2719.87	0.0008298
2729.52	0.0005544
2739.16	0.0007564
2748.81	0.0003645
2758.45	0.0006929
2768.1	0.0009824
2777.74	0.0007452
2787.39	0.0006267
2797.03	0.0004022
2806.68	0.0006347
2816.32	0.0009547
2825.97	0.0010267
2835.61	0.0009007
2845.26	0.0008258
2854.9	0.0009408
2864.55	0.0007055
2874.19	0.0006564
2883.84	0.0008378
2893.48	0.0008005
2903.12	0.0010977
2912.77	0.0008114
2922.41	0.0012914
2932.06	0.0009445
2941.7	0.0011496
2951.35	0.0008314
2960.99	0.0009052
2970.64	0.0009934
2980.28	0.0012297
2989.93	0.0009826
2999.57	0.0007654
3009.22	0.0009158
3018.86	0.001448
3028.51	0.001808
3038.15	0.001768
3047.8	0.001668
3057.44	0.001498
3067.09	0.0013881
3076.73	0.003398
3086.38	0.005398
3096.02	0.005568
3105.67	0.002658
3115.31	0.0013318
3124.95	0.0013288
3134.6	0.0010608
3144.24	0.001092
3153.89	0.0011166
3163.53	0.0011854
3173.18	0.0007949
3182.82	0.0007553
3192.47	0.0005948
3202.11	0.0007415
3211.76	0.0007795
3221.4	0.0007292
3231.05	0.000715
3240.69	0.0007633
3250.34	0.0007076
3259.98	0.00050197
3269.63	0.0007123
3279.27	0.00050157
3288.92	0.0009123
3298.56	0.0005289
3308.21	0.0007315
3317.85	0.0007725
3327.49	0.0006818
3337.14	0.0005971
3346.78	0.0007464
3356.43	0.000327
3366.07	0.0007612
3375.72	0.0006836
3385.36	0.0009649
3395.01	0.00050992
3404.65	0.0007715
3414.3	0.00048111
3423.94	0.0009024
3433.59	0.0003823
3443.23	0.0005538
3452.88	0.0006578
3462.52	0.0006489
3472.17	0.0006307
3481.81	0.0005745
3491.46	0.000919
3501.1	0.001548
3510.75	0.000873
3520.39	0.000695
3530.04	0.0008329
3539.68	0.00051458
3549.32	0.0011025
3558.97	0.0011644
3568.61	0.000309
3578.26	0.0006204
3587.9	0.0010195
3597.55	0.000613
3607.19	0.0007523
3616.84	0.000251
3626.48	0.0005332
3636.13	0.000933
3645.77	0.0007139
3655.42	0.0006371
3665.06	0.0012844
3674.71	0.0007531
3684.35	0.000953
3694	0.0010871
3703.64	0.0006414
3713.29	0.0006427
3722.93	0.00045856
3732.58	0.0008135
3742.22	0.0011686
3751.86	0.0008407
3761.51	0.0010065
3771.15	0.0012782
3780.8	0.0006867
3790.44	0.0007056
3800.09	0.0007425
3809.73	0.0006729
3819.38	0.0006789
3829.02	0.000166
3838.67	0.0011711
3848.31	0.0011628
3857.96	0.0008585
3867.6	0.0010073
3877.25	0.0008348
3886.89	0.0013848
3896.54	0.001007
3906.18	0.0007284
3915.83	0.0012051
3925.47	0.0006436
3935.12	0.0006473
3944.76	0.0006769
3954.41	0.0003832
3964.05	0.0009111
3973.69	0.0012624
3983.34	0.0006474
3992.98	0.0012087
