Infrared Spectrum: 4-Hydroxy-3-nitrophenylacetic acid
Formula: C 8 H 7 N O 5
CAS: 10463-20-4
State: gas
Origin: EPA-IR VAPOR PHASE LIBRARY
1/CM	ABSORBANCE
549.8	0.006556
559.445	0.006266
569.09	0.007826
578.734	0.005536
588.379	0.004776
598.024	0.004736
607.669	0.006626
617.313	0.006446
626.958	0.005696
636.603	0.006136
646.248	0.005526
655.893	0.005746
665.537	0.005406
675.182	0.005946
684.827	0.005376
694.472	0.003676
704.116	0.002826
713.761	0.002436
723.406	0.001886
733.051	0.001786
742.695	0.0014335
752.34	0.002256
761.985	0.002316
771.63	0.002026
781.275	0.0011601
790.919	0.002136
800.564	0.003236
810.209	0.003946
819.854	0.005556
829.498	0.005966
839.143	0.003336
848.788	0.002036
858.433	0.001836
868.078	0.002026
877.722	0.0015929
887.367	0.0010032
897.012	0.0014415
906.657	0.0012639
916.301	0.002836
925.946	0.002596
935.591	0.002096
945.236	0.002536
954.88	0.002226
964.525	0.001896
974.17	0.0015628
983.815	0.0016942
993.46	0.0009051
1003.1	0.0017286
1012.75	0.0014115
1022.39	0.0014907
1032.04	0.001966
1041.68	0.002476
1051.33	0.003106
1060.97	0.002596
1070.62	0.004386
1080.26	0.005906
1089.91	0.007936
1099.55	0.010896
1109.2	0.018616
1118.84	0.022126
1128.49	0.014176
1138.13	0.010786
1147.78	0.009266
1157.42	0.007516
1167.07	0.007196
1176.71	0.009486
1186.36	0.012686
1196	0.012266
1205.64	0.008646
1215.29	0.008666
1224.93	0.007166
1234.58	0.008666
1244.22	0.010196
1253.87	0.012476
1263.51	0.012246
1273.16	0.009726
1282.8	0.009656
1292.45	0.008266
1302.09	0.009266
1311.74	0.012086
1321.38	0.018066
1331.03	0.019646
1340.67	0.015696
1350.32	0.011636
1359.96	0.009366
1369.61	0.007586
1379.25	0.005526
1388.9	0.004256
1398.54	0.003336
1408.18	0.003456
1417.83	0.004436
1427.47	0.006986
1437.12	0.007936
1446.76	0.005906
1456.41	0.004046
1466.05	0.003216
1475.7	0.003856
1485.34	0.008196
1494.99	0.009826
1504.63	0.005606
1514.28	0.004196
1523.92	0.004706
1533.57	0.007766
1543.21	0.016256
1552.86	0.019926
1562.5	0.011426
1572.15	0.007026
1581.79	0.006386
1591.44	0.005796
1601.08	0.004206
1610.73	0.003686
1620.37	0.005536
1630.01	0.008526
1639.66	0.006796
1649.3	0.003446
1658.95	0.002356
1668.59	0.0015166
1678.24	0.0015619
1687.88	0.001566
1697.53	0.001816
1707.17	0.0016715
1716.82	0.001976
1726.46	0.002606
1736.11	0.003536
1745.75	0.005486
1755.4	0.008766
1765.04	0.012446
1774.69	0.016896
1784.33	0.018806
1793.98	0.014476
1803.62	0.009296
1813.27	0.005366
1822.91	0.002906
1832.55	0.001846
1842.2	0.0013128
1851.84	0.0011551
1861.49	0.0012737
1871.13	0.001204
1880.78	0.0010276
1890.42	0.00078228
1900.07	0.0008689
1909.71	0.0007804
1919.36	0.0008503
1929	0.0011368
1938.65	0.000971
1948.29	0.0006945
1957.94	0.000508
1967.58	0.00078715
1977.23	0.000563
1986.87	0.00079015
1996.52	0.0008673
2006.16	0.0006826
2015.81	0.00077704
2025.45	0.000878
2035.1	0.00079114
2044.74	0.000704
2054.38	0.0006584
2064.03	0.0006631
2073.67	0.00081215
2083.32	0.0008788
2092.96	0.0008856
2102.61	0.0009153
2112.25	0.0007003
2121.9	0.00081769
2131.54	0.00084216
2141.19	0.000511
2150.83	0.0007209
2160.48	0.00083486
2170.12	0.00081353
2179.77	0.0007195
2189.41	0.000444
2199.06	0.0008658
2208.7	0.00074027
2218.35	0.0007067
2227.99	0.0007068
2237.64	0.000887
2247.28	0.00063
2256.92	0.0007274
2266.57	0.000335
2276.21	0.0006724
2285.86	0.0007264
2295.5	0.00076914
2305.15	0.00075661
2314.79	0.0009629
2324.44	0.00059
2334.08	0.000745235
2343.73	0.0010245
2353.37	0.0009305
2363.02	0.0010022
2372.66	0.0010725
2382.31	0.0009824
2391.95	0.0006681
2401.6	0.0008764
2411.24	0.000335
2420.89	0.000544
2430.53	0.000856
2440.18	0.000635
2449.82	0.0010234
2459.47	0.000512
2469.11	0.00077243
2478.75	0.000746026
2488.4	0.00076995
2498.04	0.0008718
2507.69	0.000745053
2517.33	0.0009204
2526.98	0.00081016
2536.62	0.0010012
2546.27	0.000621
2555.91	0.000626
2565.56	0.000622
2575.2	0.000547
2584.85	0.000516
2594.49	0.000443
2604.14	0.000401
2613.78	0.000375
2623.43	0.0009657
2633.07	0.0007214
2642.72	0.000667
2652.36	0.000723
2662.01	0.000596
2671.65	0.000473
2681.29	0.000622
2690.94	0.000491
2700.58	0.000632
2710.23	0.00082964
2719.87	0.000542
2729.52	0.000492
2739.16	0.0006941
2748.81	2.3e-05
2758.45	0.0008619
2768.1	0.0009529
2777.74	0.00076142
2787.39	0.0006533
2797.03	0.000436
2806.68	0.0006902
2816.32	0.0009294
2825.97	0.000413
2835.61	0.00080507
2845.26	0.0007214
2854.9	0.000634
2864.55	0.000459
2874.19	0.0011139
2883.84	0.000178
2893.48	0.000599
2903.12	0.0009406
2912.77	0.00083934
2922.41	0.0013538
2932.06	0.0011132
2941.7	0.001583
2951.35	0.0012522
2960.99	0.0012868
2970.64	0.0009459
2980.28	0.001746
2989.93	0.0009577
2999.57	0.0010043
3009.22	0.0011338
3018.86	0.0007199
3028.51	0.0010675
3038.15	0.000746329
3047.8	0.0016565
3057.44	0.0012038
3067.09	0.000536
3076.73	0.0014142
3086.38	0.0009259
3096.02	0.000611
3105.67	0
3115.31	0.000377
3124.95	0.00075669
3134.6	0.0009451
3144.24	0.00083963
3153.89	0.0010348
3163.53	0.0006976
3173.18	0.000637
3182.82	0.000514
3192.47	0.00091
3202.11	0.0003
3211.76	0.001796
3221.4	0.002006
3231.05	0.0016532
3240.69	0.002096
3250.34	0.003596
3259.98	0.004066
3269.63	0.003876
3279.27	0.003616
3288.92	0.003476
3298.56	0.003036
3308.21	0.003046
3317.85	0.003076
3327.49	0.003086
3337.14	0.002596
3346.78	0.003576
3356.43	0.002926
3366.07	0.002356
3375.72	0.0016988
3385.36	0.002326
3395.01	0.0013186
3404.65	0.002176
3414.3	0.002006
3423.94	0.0012714
3433.59	0.0015041
3443.23	0.002266
3452.88	0.0014507
3462.52	0.0007076
3472.17	0.000669
3481.81	0.0014424
3491.46	0.0015712
3501.1	0.0012125
3510.75	0.0016589
3520.39	0.0011529
3530.04	0.0014645
3539.68	0.0016991
3549.32	0.002266
3558.97	0.003106
3568.61	0.009056
3578.26	0.008256
3587.9	0.003446
3597.55	0.001996
3607.19	0.0016071
3616.84	0.0009982
3626.48	0.00083607
3636.13	0.0009991
3645.77	0.0014714
3655.42	0.000601
3665.06	0.0006918
3674.71	0.0009364
3684.35	0.0008534
3694	0.000569
3703.64	0.000575
3713.29	0.000283
3722.93	0.000501
3732.58	0.0010183
3742.22	0.0006728
3751.86	0.001061
3761.51	0.000219
3771.15	0.0010784
3780.8	0.00078591
3790.44	0.000613
3800.09	0.000589
3809.73	0.0012944
3819.38	0.0013169
3829.02	0.0011825
3838.67	0.00049
3848.31	0.00080527
3857.96	0.0006831
3867.6	0.0010361
3877.25	0.0009834
3886.89	0.0011212
3896.54	0.000483
3906.18	0.0009635
3915.83	0.000423
3925.47	0.000456
3935.12	0.0012847
3944.76	0.0009528
3954.41	0.0010504
3964.05	0.0009282
3973.69	0.000628
3983.34	0.0007373
3992.98	0.0009235
