Infrared Spectrum: 3-(2-Pyridyl)-5,6-diphenyl-1,2,4-triazine
Formula: C 20 H 14 N 4
CAS: 1046-56-6
State: gas
Origin: EPA-IR VAPOR PHASE LIBRARY
1/CM	ABSORBANCE
549.8	0.0010992
559.445	0.001627
569.09	0.0014715
578.734	0.0013081
588.379	0.003387
598.024	0.002147
607.669	0.0013491
617.313	0.001567
626.958	0.0010155
636.603	0.001947
646.248	0.001577
655.893	0.001767
665.537	0.001917
675.182	0.002697
684.827	0.004397
694.472	0.010127
704.116	0.005097
713.761	0.002757
723.406	0.003147
733.051	0.002197
742.695	0.003507
752.34	0.004037
761.985	0.006897
771.63	0.003347
781.275	0.001787
790.919	0.002207
800.564	0.001717
810.209	0.0009344
819.854	0.001491
829.498	0.0013583
839.143	0.001687
848.788	0.0012049
858.433	0.0013567
868.078	0.001767
877.722	0.0011301
887.367	0.0010332
897.012	0.0008726
906.657	0.0012162
916.301	0.0012146
925.946	0.0006932
935.591	0.0005531
945.236	0.0008022
954.88	0.0007327
964.525	0.0011499
974.17	0.0008078
983.815	0.002007
993.46	0.002897
1003.1	0.003197
1012.75	0.002437
1022.39	0.002717
1032.04	0.002967
1041.68	0.003607
1051.33	0.002717
1060.97	0.001867
1070.62	0.003657
1080.26	0.002047
1089.91	0.003277
1099.55	0.002667
1109.2	0.0010758
1118.84	0.002297
1128.49	0.002007
1138.13	0.004917
1147.78	0.003637
1157.42	0.001927
1167.07	0.001727
1176.71	0.0015195
1186.36	0.001607
1196	0.0010608
1205.64	0.002617
1215.29	0.002327
1224.93	0.0014967
1234.58	0.0014931
1244.22	0.002347
1253.87	0.001807
1263.51	0.0015347
1273.16	0.0015402
1282.8	0.0009217
1292.45	0.0015282
1302.09	0.0011294
1311.74	0.0011229
1321.38	0.0012566
1331.03	0.001677
1340.67	0.001967
1350.32	0.003897
1359.96	0.008307
1369.61	0.009747
1379.25	0.007467
1388.9	0.014317
1398.54	0.005637
1408.18	0.002407
1417.83	0.001917
1427.47	0.002417
1437.12	0.002897
1446.76	0.003527
1456.41	0.002517
1466.05	0.003317
1475.7	0.004657
1485.34	0.006377
1494.99	0.008347
1504.63	0.007307
1514.28	0.004117
1523.92	0.002767
1533.57	0.001887
1543.21	0.001617
1552.86	0.001677
1562.5	0.001747
1572.15	0.003047
1581.79	0.004027
1591.44	0.002547
1601.08	0.001587
1610.73	0.0013219
1620.37	0.0011229
1630.01	0.0009745
1639.66	0.0008363
1649.3	0.0008014
1658.95	0.0008298
1668.59	0.000955
1678.24	0.0008917
1687.88	0.0009216
1697.53	0.0009159
1707.17	0.0009341
1716.82	0.00065389
1726.46	0.0007737
1736.11	0.0007751
1745.75	0.0009379
1755.4	0.0009234
1765.04	0.0007365
1774.69	0.0008817
1784.33	0.0009463
1793.98	0.0009883
1803.62	0.001079
1813.27	0.0007534
1822.91	0.0008024
1832.55	0.0007745
1842.2	0.0007921
1851.84	0.0006995
1861.49	0.0008474
1871.13	0.0009311
1880.78	0.0011135
1890.42	0.0010221
1900.07	0.000958
1909.71	0.0007798
1919.36	0.0009421
1929	0.0008126
1938.65	0.000913
1948.29	0.0011789
1957.94	0.0009886
1967.58	0.00091
1977.23	0.0009334
1986.87	0.0007918
1996.52	0.0008127
2006.16	0.0007343
2015.81	0.0008264
2025.45	0.00064923
2035.1	0.00060349
2044.74	0.0007512
2054.38	0.00062745
2064.03	0.0008421
2073.67	0.0007126
2083.32	0.0007305
2092.96	0.0007387
2102.61	0.000745
2112.25	0.0006697
2121.9	0.00059457
2131.54	0.0006839
2141.19	0.00064927
2150.83	0.00063436
2160.48	0.0006959
2170.12	0.00064642
2179.77	0.0006726
2189.41	0.00065066
2199.06	0.00061479
2208.7	0.00060703
2218.35	0.0007136
2227.99	0.000746
2237.64	0.00064966
2247.28	0.0004924
2256.92	0.0005352
2266.57	0.00059226
2276.21	0.0007534
2285.86	0.00060579
2295.5	0.00063095
2305.15	0.0007618
2314.79	0.0007266
2324.44	0.0007333
2334.08	0.00063824
2343.73	0.000772
2353.37	0.00060616
2363.02	0.00064376
2372.66	0.0007312
2382.31	0.0006297
2391.95	0.00063383
2401.6	0.000413
2411.24	0.00061496
2420.89	0.000753
2430.53	0.00065379
2440.18	0.0006918
2449.82	0.0005369
2459.47	0.000464
2469.11	0.0008126
2478.75	0.0006708
2488.4	0.00066446
2498.04	0.0005291
2507.69	0.00062475
2517.33	0.00062793
2526.98	0.000466
2536.62	0.00061075
2546.27	0.0005533
2555.91	0.00060111
2565.56	0.00063509
2575.2	0.00051
2584.85	0.000324
2594.49	0.00066451
2604.14	0.0005331
2613.78	0.0007336
2623.43	0.00058394
2633.07	0.000576371
2642.72	0.000402
2652.36	0.00035
2662.01	0.0005426
2671.65	0.00066041
2681.29	0.00058305
2690.94	0.00063835
2700.58	0.000455
2710.23	0.00036
2719.87	0.0004769
2729.52	0.00066618
2739.16	0.00060131
2748.81	0.000424
2758.45	0.00065824
2768.1	0.00058816
2777.74	0.00063242
2787.39	0.000571006
2797.03	0.0005419
2806.68	0.00062614
2816.32	0.00060633
2825.97	0.000722
2835.61	0.00055958
2845.26	0.00064933
2854.9	0.0007019
2864.55	0.0007022
2874.19	0.0007099
2883.84	0.0005523
2893.48	0.0004846
2903.12	0.0006801
2912.77	0.0008317
2922.41	0.00062775
2932.06	0.0006915
2941.7	0.000451
2951.35	0.0007198
2960.99	0.0004744
2970.64	0.0007976
2980.28	0.0004991
2989.93	0.0009034
2999.57	0.0009198
3009.22	0.0009705
3018.86	0.001787
3028.51	0.002357
3038.15	0.002427
3047.8	0.002867
3057.44	0.004237
3067.09	0.006577
3076.73	0.005957
3086.38	0.003427
3096.02	0.002507
3105.67	0.0014546
3115.31	0.0010708
3124.95	0.0010346
3134.6	0.000566897
3144.24	0.0009146
3153.89	0.0007356
3163.53	0.0008525
3173.18	0.000535
3182.82	0.00059903
3192.47	0.000434
3202.11	0.00062473
3211.76	0.0006949
3221.4	0.00056299
3231.05	0.0004921
3240.69	0.000418
3250.34	0.000422
3259.98	0.00072
3269.63	0.000458
3279.27	0.0007791
3288.92	0.000473
3298.56	0.0004994
3308.21	0.00062627
3317.85	0.00066663
3327.49	0.00056516
3337.14	0.000462
3346.78	0.00064866
3356.43	0.00059717
3366.07	0.00062406
3375.72	0.000334
3385.36	0.000412
3395.01	0.000434
3404.65	0.000401
3414.3	0.00056402
3423.94	0.0005437
3433.59	0.0007664
3443.23	0.0006839
3452.88	2.3e-05
3462.52	0.001024
3472.17	0.000401
3481.81	0.00058217
3491.46	0.00044
3501.1	0.00063736
3510.75	0.0007149
3520.39	0.000339
3530.04	0
3539.68	0.0005056
3549.32	0.0006671
3558.97	0.0006468
3568.61	0.00062969
3578.26	0.0005221
3587.9	0.00060933
3597.55	0.0004831
3607.19	0.0008972
3616.84	0.0007309
3626.48	0.000408
3636.13	0.000277
3645.77	0.00056178
3655.42	0.0007572
3665.06	0.00041
3674.71	0.000391
3684.35	0.000368
3694	0.00067
3703.64	0.0005122
3713.29	0.000167
3722.93	0.0004857
3732.58	0.0006861
3742.22	0.0008012
3751.86	0.0006974
3761.51	0.0006775
3771.15	0.0004836
3780.8	0.0007158
3790.44	0.0005394
3800.09	0.0007658
3809.73	0.000306
3819.38	0.00063558
3829.02	0.0005532
3838.67	0.000429
3848.31	0.0008688
3857.96	0.000462
3867.6	0.0009331
3877.25	0.0007485
3886.89	0.000356
3896.54	0.00061707
3906.18	0.0004951
3915.83	0.0010159
3925.47	0.00063767
3935.12	0.0006966
3944.76	0.0007592
3954.41	0.0005363
3964.05	0.0005236
3973.69	0.0005549
3983.34	0.0006846
3992.98	0.00062018
