Infrared Spectrum: 1-PHENYLCARBAMOYL-7-STYRYL-2,3-PHTHALOYLPYRROCOLINE
Formula: C31 H20 N2 O3
CAS: 104601-60-7
State: SOLID (KBr PRESSING)
Melting point: 298 C
Class: COBLENTZ
Instrument: Not specified, most likely a prism, grating, or hybrid spectrometer.
Sampling: TRANSMISSION
Resolution: 4
Origin: EASTMAN KODAK COMPANY, RESEARCH LABORATORIES, ROCHESTER, N.Y.
MICROMETERS	TRANSMITTANCE
2	0.626
2.03992	0.627
2.07985	0.631
2.11977	0.637
2.15969	0.642
2.19961	0.645
2.23954	0.652
2.27946	0.654
2.31938	0.657
2.35931	0.654
2.39923	0.663
2.43915	0.672
2.47907	0.675
2.519	0.675
2.55892	0.685
2.59884	0.69
2.63876	0.698
2.67869	0.7
2.71861	0.703
2.75853	0.698
2.79846	0.67
2.83838	0.627
2.8783	0.596
2.91822	0.58
2.95815	0.611
2.99807	0.637
3.03799	0.639
3.07792	0.631
3.11784	0.65
3.15776	0.652
3.19768	0.611
3.23761	0.595
3.27753	0.549
3.31745	0.565
3.35737	0.657
3.3973	0.678
3.43722	0.7
3.47714	0.713
3.51707	0.721
3.55699	0.74
3.59691	0.749
3.63683	0.76
3.67676	0.76
3.71668	0.767
3.7566	0.765
3.79653	0.775
3.83645	0.777
3.87637	0.78
3.91629	0.783
3.95622	0.785
3.99614	0.788
4.03606	0.796
4.07599	0.798
4.11591	0.803
4.15583	0.8
4.19575	0.803
4.23568	0.798
4.2756	0.801
4.31552	0.813
4.35544	0.822
4.39537	0.824
4.43529	0.827
4.47521	0.832
4.51514	0.834
4.55506	0.834
4.59498	0.837
4.6349	0.84
4.67483	0.837
4.71475	0.837
4.75467	0.837
4.7946	0.842
4.83452	0.845
4.87444	0.849
4.91436	0.849
4.95429	0.857
4.99421	0.859
5.03413	0.86
5.07405	0.857
5.11398	0.847
5.1539	0.85
5.19382	0.859
5.23375	0.872
5.27367	0.87
5.31359	0.87
5.35351	0.873
5.39344	0.878
5.43336	0.883
5.47328	0.885
5.51321	0.888
5.55313	0.881
5.59305	0.886
5.63297	0.883
5.6729	0.883
5.71282	0.885
5.75274	0.878
5.79267	0.87
5.83259	0.867
5.87251	0.863
5.91243	0.859
5.95236	0.809
5.99228	0.508
6.0322	0.477
6.07212	0.35
6.11205	0.239
6.15197	0.298
6.19189	0.418
6.23182	0.508
6.27174	0.386
6.31166	0.342
6.35158	0.547
6.39151	0.447
6.43143	0.414
6.47135	0.549
6.51128	0.604
6.5512	0.613
6.59112	0.673
6.63104	0.688
6.67097	0.514
6.71089	0.259
6.75081	0.326
6.79074	0.391
6.83066	0.532
6.87058	0.459
6.9105	0.454
6.95043	0.665
6.99035	0.744
7.03027	0.749
7.07019	0.731
7.11012	0.757
7.15004	0.772
7.18996	0.644
7.22989	0.5
7.26981	0.719
7.30973	0.759
7.34965	0.639
7.38958	0.709
7.4295	0.831
7.46942	0.832
7.50935	0.813
7.54927	0.736
7.58919	0.621
7.62911	0.436
7.66904	0.478
7.70896	0.572
7.74888	0.74
7.7888	0.788
7.82873	0.778
7.86865	0.786
7.90857	0.611
7.9485	0.601
7.98842	0.54
8.02834	0.7
8.06826	0.58
8.10819	0.329
8.14811	0.28
8.18803	0.275
8.22796	0.672
8.26788	0.719
8.3078	0.719
8.34772	0.77
8.38765	0.816
8.42757	0.847
8.46749	0.844
8.50742	0.839
8.54734	0.829
8.58726	0.719
8.62718	0.626
8.66711	0.675
8.70703	0.795
8.74695	0.84
8.78687	0.857
8.8268	0.85
8.86672	0.827
8.90664	0.785
8.94657	0.768
8.98649	0.847
9.02641	0.872
9.06633	0.872
9.10626	0.878
9.14618	0.883
9.1861	0.877
9.22603	0.87
9.26595	0.85
9.30587	0.818
9.34579	0.842
9.38572	0.84
9.42564	0.711
9.46556	0.706
9.50548	0.813
9.54541	0.87
9.58533	0.895
9.62525	0.901
9.66518	0.901
9.7051	0.867
9.74502	0.75
9.78494	0.796
9.82487	0.839
9.86479	0.854
9.90471	0.885
9.94464	0.901
9.98456	0.906
10.0245	0.9
10.0644	0.9
10.1043	0.903
10.1442	0.903
10.1842	0.9
10.2241	0.86
10.264	0.757
10.3039	0.752
10.3439	0.837
10.3838	0.88
10.4237	0.896
10.4636	0.903
10.5036	0.911
10.5435	0.913
10.5834	0.913
10.6233	0.913
10.6632	0.914
10.7032	0.922
10.7431	0.926
10.783	0.931
10.8229	0.937
10.8629	0.944
10.9028	0.942
10.9427	0.94
10.9826	0.94
11.0226	0.926
11.0625	0.913
11.1024	0.883
11.1423	0.88
11.1822	0.881
11.2222	0.898
11.2621	0.921
11.302	0.922
11.3419	0.904
11.3819	0.885
11.4218	0.909
11.4617	0.924
11.5016	0.931
11.5415	0.934
11.5815	0.932
11.6214	0.924
11.6613	0.898
11.7012	0.865
11.7412	0.86
11.7811	0.883
11.821	0.896
11.8609	0.903
11.9009	0.914
11.9408	0.918
11.9807	0.921
12.0206	0.916
12.0605	0.914
12.1005	0.924
12.1404	0.937
12.1803	0.94
12.2202	0.944
12.2602	0.939
12.3001	0.931
12.34	0.911
12.3799	0.913
12.4198	0.919
12.4598	0.916
12.4997	0.9
12.5396	0.872
12.5795	0.852
12.6195	0.845
12.6594	0.836
12.6993	0.826
12.7392	0.836
12.7792	0.818
12.8191	0.732
12.859	0.672
12.8989	0.65
12.9388	0.644
12.9788	0.649
13.0187	0.639
13.0586	0.627
13.0985	0.603
13.1385	0.59
13.1784	0.562
13.2183	0.547
13.2582	0.511
13.2982	0.483
13.3381	0.48
13.378	0.527
13.4179	0.626
13.4578	0.745
13.4978	0.826
13.5377	0.863
13.5776	0.88
13.6175	0.89
13.6575	0.898
13.6974	0.895
13.7373	0.867
13.7772	0.84
13.8171	0.829
13.8571	0.834
13.897	0.826
13.9369	0.732
13.9768	0.603
14.0168	0.516
14.0567	0.504
14.0966	0.604
14.1365	0.754
14.1765	0.836
14.2164	0.859
14.2563	0.865
14.2962	0.872
14.3361	0.86
14.3761	0.839
14.416	0.806
14.4559	0.768
14.4958	0.747
14.5358	0.745
14.5757	0.772
14.6156	0.813
14.6555	0.862
14.6954	0.89
14.7354	0.906
14.7753	0.909
14.8152	0.913
14.8551	0.914
14.8951	0.921
14.935	0.924
14.9749	0.911
15.0148	0.875
15.0548	0.849
15.0947	0.852
15.1346	0.88
15.1745	0.89
15.2144	0.895
15.2544	0.898
15.2943	0.9
15.3342	0.896
15.3741	0.89
15.4141	0.875
15.454	0.849
15.4939	0.801
15.5338	0.77
15.5737	0.768
15.6137	0.781
15.6536	0.801
15.6935	0.814
15.7334	0.821
15.7734	0.827
15.8133	0.831
15.8532	0.826
15.8931	0.829
15.9331	0.832
15.973	0.827
16.0129	0.826
