Infrared Spectrum: N-Ethyldibenzylamine
Formula: C 16 H 19 N
CAS: 10479-25-1
State: gas
Origin: EPA-IR VAPOR PHASE LIBRARY
1/CM	ABSORBANCE
549.8	0.00103134
559.445	0.0011362
569.09	0.00231
578.734	0.00282
588.379	0.00396
598.024	0.00402
607.669	0.00426
617.313	0.00494
626.958	0.00348
636.603	0.00227
646.248	0.00305
655.893	0.00426
665.537	0.00824
675.182	0.01093
684.827	0.02076
694.472	0.05963
704.116	0.04654
713.761	0.02582
723.406	0.03956
733.051	0.05596
742.695	0.05591
752.34	0.02291
761.985	0.01173
771.63	0.00775
781.275	0.00596
790.919	0.00771
800.564	0.00987
810.209	0.00922
819.854	0.00854
829.498	0.00777
839.143	0.00582
848.788	0.00464
858.433	0.00357
868.078	0.0026
877.722	0.00298
887.367	0.00447
897.012	0.0077
906.657	0.00916
916.301	0.0062
925.946	0.00683
935.591	0.00754
945.236	0.00926
954.88	0.00922
964.525	0.0103
974.17	0.01046
983.815	0.00838
993.46	0.0086
1003.1	0.00947
1012.75	0.00894
1022.39	0.02137
1032.04	0.02297
1041.68	0.01661
1051.33	0.0217
1060.97	0.01849
1070.62	0.01898
1080.26	0.01381
1089.91	0.011
1099.55	0.01182
1109.2	0.00917
1118.84	0.01407
1128.49	0.02131
1138.13	0.02131
1147.78	0.01389
1157.42	0.01275
1167.07	0.01672
1176.71	0.01899
1186.36	0.01355
1196	0.0138
1205.64	0.01298
1215.29	0.00722
1224.93	0.00776
1234.58	0.00905
1244.22	0.01139
1253.87	0.01081
1263.51	0.01023
1273.16	0.00974
1282.8	0.01211
1292.45	0.01368
1302.09	0.01412
1311.74	0.01431
1321.38	0.01507
1331.03	0.01645
1340.67	0.01908
1350.32	0.02238
1359.96	0.02832
1369.61	0.02838
1379.25	0.02429
1388.9	0.01761
1398.54	0.00999
1408.18	0.00698
1417.83	0.00698
1427.47	0.00813
1437.12	0.01122
1446.76	0.02076
1456.41	0.02491
1466.05	0.01537
1475.7	0.01092
1485.34	0.01455
1494.99	0.02645
1504.63	0.00944
1514.28	0.00397
1523.92	0.00363
1533.57	0.00366
1543.21	0.00317
1552.86	0.0029
1562.5	0.00356
1572.15	0.00407
1581.79	0.00574
1591.44	0.00886
1601.08	0.01068
1610.73	0.00685
1620.37	0.00369
1630.01	0.00281
1639.66	0.0025
1649.3	0.00248
1658.95	0.0023
1668.59	0.00213
1678.24	0.001883
1687.88	0.00218
1697.53	0.0019913
1707.17	0.00208
1716.82	0.00224
1726.46	0.0023
1736.11	0.00279
1745.75	0.00256
1755.4	0.00247
1765.04	0.00254
1774.69	0.00296
1784.33	0.00319
1793.98	0.00516
1803.62	0.00541
1813.27	0.00364
1822.91	0.00266
1832.55	0.00224
1842.2	0.00238
1851.84	0.00261
1861.49	0.00378
1871.13	0.00422
1880.78	0.00373
1890.42	0.00291
1900.07	0.00237
1909.71	0.00207
1919.36	0.00243
1929	0.00371
1938.65	0.00554
1948.29	0.00523
1957.94	0.00381
1967.58	0.00225
1977.23	0.0018974
1986.87	0.0015731
1996.52	0.0015262
2006.16	0.0015351
2015.81	0.0013583
2025.45	0.0014152
2035.1	0.001345
2044.74	0.0012466
2054.38	0.001221
2064.03	0.0013103
2073.67	0.0011879
2083.32	0.0012351
2092.96	0.0012574
2102.61	0.0014147
2112.25	0.0012662
2121.9	0.0012976
2131.54	0.0015117
2141.19	0.0013674
2150.83	0.001409
2160.48	0.0013304
2170.12	0.0016586
2179.77	0.0015657
2189.41	0.0018075
2199.06	0.0015205
2208.7	0.0017383
2218.35	0.0014351
2227.99	0.0012094
2237.64	0.0016167
2247.28	0.0015249
2256.92	0.0015761
2266.57	0.0012708
2276.21	0.0018204
2285.86	0.0017534
2295.5	0.0015139
2305.15	0.0018263
2314.79	0.00212
2324.44	0.0017332
2334.08	0.00204
2343.73	0.0018379
2353.37	0.0015087
2363.02	0.001447
2372.66	0.0014385
2382.31	0.001202
2391.95	0.001292
2401.6	0.0013548
2411.24	0.0015178
2420.89	0.0017139
2430.53	0.0014975
2440.18	0.0013921
2449.82	0.0014726
2459.47	0.0017587
2469.11	0.0013532
2478.75	0.0016426
2488.4	0.001738
2498.04	0.0011995
2507.69	0.0017529
2517.33	0.0016
2526.98	0.0016072
2536.62	0.0017436
2546.27	0.001666
2555.91	0.00217
2565.56	0.0018311
2575.2	0.00233
2584.85	0.00239
2594.49	0.00259
2604.14	0.00291
2613.78	0.00332
2623.43	0.0027
2633.07	0.00331
2642.72	0.00324
2652.36	0.0035
2662.01	0.00357
2671.65	0.00396
2681.29	0.005
2690.94	0.00563
2700.58	0.00699
2710.23	0.00902
2719.87	0.00912
2729.52	0.00919
2739.16	0.00962
2748.81	0.01121
2758.45	0.01228
2768.1	0.0142
2777.74	0.01933
2787.39	0.03225
2797.03	0.05045
2806.68	0.05415
2816.32	0.0479
2825.97	0.04007
2835.61	0.03108
2845.26	0.02264
2854.9	0.01715
2864.55	0.01601
2874.19	0.01947
2883.84	0.02461
2893.48	0.02264
2903.12	0.02158
2912.77	0.02381
2922.41	0.02811
2932.06	0.03666
2941.7	0.04185
2951.35	0.03089
2960.99	0.02749
2970.64	0.04692
2980.28	0.04211
2989.93	0.01966
2999.57	0.01376
3009.22	0.01424
3018.86	0.02348
3028.51	0.04446
3038.15	0.04198
3047.8	0.02695
3057.44	0.03065
3067.09	0.05371
3076.73	0.04347
3086.38	0.02937
3096.02	0.01913
3105.67	0.01167
3115.31	0.00776
3124.95	0.00404
3134.6	0.00327
3144.24	0.00274
3153.89	0.0032
3163.53	0.0023
3173.18	0.00253
3182.82	0.001558
3192.47	0.0016513
3202.11	0.0017563
3211.76	0.0014839
3221.4	0.0011252
3231.05	0.0012815
3240.69	0.0011595
3250.34	0.000792
3259.98	0.0011919
3269.63	0.000864
3279.27	0.00111399
3288.92	0.000483
3298.56	0.000742
3308.21	0.0009428
3317.85	0.0012542
3327.49	0.0012916
3337.14	0.0010062
3346.78	0.0015206
3356.43	0.0012554
3366.07	0.0017316
3375.72	0.00106618
3385.36	0.000305
3395.01	0.000671
3404.65	0.0013714
3414.3	0.001155
3423.94	0.001253
3433.59	0.000523
3443.23	0.0011813
3452.88	0.0011933
3462.52	0.00108848
3472.17	0.0012146
3481.81	0.000194
3491.46	0.0005
3501.1	0.0010038
3510.75	0.0009292
3520.39	0.0012364
3530.04	0.000823
3539.68	0.000765
3549.32	0.0011798
3558.97	0.0011525
3568.61	0.00107723
3578.26	0.000909
3587.9	0.0011295
3597.55	0.000777
3607.19	0.0012429
3616.84	0.0015192
3626.48	0.0012962
3636.13	0.000672
3645.77	0.0012318
3655.42	0.0016018
3665.06	0.0019855
3674.71	0.0012443
3684.35	0.000817
3694	0.0011706
3703.64	0.00109721
3713.29	0.0013497
3722.93	0.00103243
3732.58	0.0013547
3742.22	0.0011268
3751.86	0.0011711
3761.51	0.000781
3771.15	0.000837
3780.8	0.000909
3790.44	0.0014782
3800.09	0.000775
3809.73	0.00108851
3819.38	0.0013826
3829.02	0.0017771
3838.67	0.0011727
3848.31	0.0010851
3857.96	0.0016741
3867.6	0.0015523
3877.25	0.00243
3886.89	0.0015293
3896.54	0.0017536
3906.18	0.0013437
3915.83	0.000884
3925.47	0.0013372
3935.12	0.000777
3944.76	0.0014305
3954.41	0.00222
3964.05	0.0012146
3973.69	0.0016367
3983.34	0.0016041
3992.98	0.0017814
