Infrared Spectrum: Acetic acid, (17Beta-hydroxy-3-oxo-5Beta-androstan-16-Beta-yl)-, lactone
Formula: C21 H30 O3
CAS: 104713-06-6
State: SOLUTION (7% CHCl3 FOR 2.5-12.5 MICRON) VS SOLVENT
Class: COBLENTZ
Instrument: PERKIN-ELMER 21 (GRATING)
Instrument parameters: FILTER AT ABOUT 10 MICRONS
Path length: 0.010 CM
Resolution: 2
Origin: ABBOTT LABORATORIES
1/CM	TRANSMITTANCE
802	1.0062
810	0.9597
818	0.8911
826	0.7602
834	0.8535
842	0.8298
850	0.7655
858	0.8185
866	0.8071
874	0.8335
882	0.844
890	0.8357
898	0.8385
906	0.7682
914	0.838
922	0.9196
930	0.8849
938	0.8476
946	0.8467
954	0.8437
962	0.8382
970	0.8346
978	0.7822
986	0.7146
994	0.5544
1002	0.5855
1010	0.5884
1018	0.6026
1026	0.4309
1034	0.514
1042	0.4806
1050	0.4791
1058	0.5976
1066	0.7954
1074	0.8299
1082	0.8306
1090	0.8029
1098	0.7707
1106	0.7448
1114	0.7835
1122	0.7472
1130	0.6714
1138	0.5928
1146	0.6372
1154	0.4298
1162	0.2583
1170	0.2237
1178	0.4779
1186	0.6797
1194	0.6969
1202	0.6452
1210	0.6336
1218	0.6175
1226	0.5986
1234	0.6653
1242	0.7068
1250	0.7126
1258	0.7083
1266	0.6609
1274	0.7927
1282	0.7863
1290	0.7189
1298	0.6763
1306	0.7221
1314	0.7111
1322	0.6796
1330	0.6957
1338	0.7305
1346	0.6871
1354	0.6836
1362	0.7703
1370	0.6943
1378	0.6619
1386	0.7389
1394	0.8036
1402	0.7792
1410	0.6975
1418	0.7294
1426	0.7262
1434	0.7004
1442	0.5684
1450	0.6284
1458	0.6706
1466	0.7986
1474	0.8469
1482	0.8666
1490	0.8906
1498	0.9198
1506	0.9273
1514	0.928
1522	0.9237
1530	0.9134
1538	0.8896
1546	0.8873
1554	0.8868
1562	0.8863
1570	0.8854
1578	0.8836
1586	0.8811
1594	0.8783
1602	0.8744
1610	0.8699
1618	0.8625
1626	0.8528
1634	0.8386
1642	0.8127
1650	0.8004
1658	0.7951
1666	0.7595
1674	0.7111
1682	0.6232
1690	0.405
1698	0.201
1706	0.1151
1714	0.3183
1722	0.5716
1730	0.5766
1738	0.4878
1746	0.2997
1754	0.1186
1762	0.0768
1770	0.1044
1778	0.3729
1786	0.7219
1794	0.7761
1802	0.8059
1810	0.8333
1818	0.8472
1826	0.8554
1834	0.8638
1842	0.8712
1850	0.8752
1858	0.8777
1866	0.8798
1874	0.8823
1882	0.885
1890	0.888
1898	0.891
1906	0.8944
1914	0.8977
1922	0.8993
1930	0.8988
1938	0.8981
1946	0.8976
1954	0.8968
1962	0.8958
1970	0.8949
1978	0.8941
1986	0.8936
1994	0.8931
2002	0.8935
2010	0.8945
2018	0.8957
2026	0.8979
2034	0.8996
2042	0.9012
2050	0.9026
2058	0.9038
2066	0.9045
2074	0.9053
2082	0.906
2090	0.9067
2098	0.9074
2106	0.9082
2114	0.9089
2122	0.9095
2130	0.9101
2138	0.9106
2146	0.9108
2154	0.911
2162	0.9112
2170	0.9114
2178	0.9115
2186	0.9116
2194	0.9117
2202	0.9116
2210	0.9115
2218	0.9114
2226	0.9114
2234	0.9114
2242	0.9115
2250	0.9115
2258	0.9116
2266	0.9119
2274	0.9121
2282	0.9127
2290	0.9133
2298	0.9141
2306	0.9162
2314	0.9183
2322	0.9207
2330	0.9235
2338	0.9262
2346	0.929
2354	0.9336
2362	0.94
2370	0.9451
2378	0.9457
2386	0.9435
2394	0.9389
2402	0.9318
2410	0.9215
2418	0.9079
2426	0.8998
2434	0.8952
2442	0.8941
2450	0.894
2458	0.894
2466	0.8944
2474	0.8949
2482	0.8958
2490	0.8966
2498	0.8975
2506	0.8985
2514	0.8993
2522	0.9003
2530	0.9009
2538	0.9015
2546	0.9019
2554	0.9015
2562	0.9011
2570	0.9001
2578	0.899
2586	0.8976
2594	0.8962
2602	0.8947
2610	0.8923
2618	0.8899
2626	0.8872
2634	0.8874
2642	0.8892
2650	0.891
2658	0.8924
2666	0.8927
2674	0.8928
2682	0.8925
2690	0.8921
2698	0.8913
2706	0.8906
2714	0.8898
2722	0.8891
2730	0.8876
2738	0.8856
2746	0.8833
2754	0.879
2762	0.8724
2770	0.8651
2778	0.8564
2786	0.8466
2794	0.8345
2802	0.8175
2810	0.7955
2818	0.7598
2826	0.6846
2834	0.609
2842	0.5337
2850	0.5048
2858	0.5037
2866	0.5025
2874	0.5002
2882	0.481
2890	0.4474
2898	0.4139
2906	0.3806
2914	0.3481
2922	0.3403
2930	0.3431
2938	0.3875
2946	0.4359
2954	0.484
2962	0.5318
2970	0.5795
2978	0.6268
2986	0.6739
2994	0.7208
3002	0.7725
3010	0.8453
3018	0.8601
3026	0.8712
3034	0.8872
3042	0.8971
3050	0.9039
3058	0.9087
3066	0.9121
3074	0.9144
3082	0.9151
3090	0.9154
3098	0.9155
3106	0.9156
3114	0.9161
3122	0.9182
3130	0.9213
3138	0.9249
3146	0.9281
3154	0.9307
3162	0.9322
3170	0.9334
3178	0.9334
3186	0.9333
3194	0.933
3202	0.9323
3210	0.9322
3218	0.9316
3226	0.9307
3234	0.93
3242	0.9291
3250	0.9278
3258	0.9265
3266	0.9252
3274	0.9239
3282	0.9225
3290	0.9218
3298	0.9226
3306	0.9245
3314	0.9268
3322	0.9287
3330	0.9298
3338	0.9298
3346	0.9293
3354	0.9271
3362	0.9246
3370	0.9219
3378	0.919
3386	0.9169
3394	0.916
3402	0.9154
3410	0.9148
3418	0.9145
3426	0.9145
3434	0.9145
3442	0.9146
3450	0.9146
3458	0.915
3466	0.9152
3474	0.9155
3482	0.9158
3490	0.9166
3498	0.9177
3506	0.9187
3514	0.9198
3522	0.921
3530	0.9229
3538	0.9247
3546	0.9264
3554	0.9281
3562	0.9296
3570	0.93
3578	0.9302
3586	0.9303
3594	0.9302
3602	0.9299
3610	0.9288
3618	0.9273
3626	0.9254
3634	0.9232
3642	0.9201
3650	0.9189
3658	0.9198
3666	0.9212
3674	0.9229
3682	0.9247
3690	0.9263
3698	0.9275
3706	0.9282
3714	0.9283
3722	0.9282
3730	0.928
3738	0.9277
3746	0.9273
3754	0.927
3762	0.9268
3770	0.9265
3778	0.9262
3786	0.9259
3794	0.9256
3802	0.9254
3810	0.925
3818	0.9247
3826	0.9244
3834	0.9241
3842	0.9237
3850	0.9234
3858	0.9231
3866	0.9226
3874	0.9221
3882	0.9215
3890	0.921
3898	0.9207
3906	0.9206
3914	0.9204
3922	0.9203
3930	0.9202
3938	0.92
3946	0.9196
3954	0.9193
3962	0.9189
3970	0.9187
3978	0.9183
3986	0.918
3994	0.9177
