Infrared Spectrum: Phthalimide, N-[(2(3H)-oxo-3-phenyl-3-benzofuranyl)methyl]-,
Formula: C23 H15 N O4
CAS: 104763-81-7
State: SOLUTION (7% CHCl3 FOR 2.5-12.5 MICRON) VS SOLVENT
Class: COBLENTZ
Instrument: PERKIN-ELMER 21 (GRATING)
Instrument parameters: FILTER AT ABOUT 10 MICRONS
Path length: 0.01 CM
Resolution: 2
Origin: ABBOTT LABORATORIES
1/CM	TRANSMITTANCE
798	0.9933
807	0.9539
816	0.9393
825	0.9443
834	0.9334
843	0.9357
852	0.924
861	0.8865
870	0.8691
879	0.7778
888	0.4761
897	0.706
906	0.8402
915	0.8844
924	0.8832
933	0.8818
942	0.8096
951	0.875
960	0.8508
969	0.7704
978	0.4659
987	0.6165
996	0.6475
1005	0.8069
1014	0.7459
1023	0.7416
1032	0.6524
1041	0.539
1050	0.3172
1059	0.2298
1068	0.4046
1077	0.668
1086	0.6835
1095	0.8263
1104	0.8174
1113	0.6403
1122	0.7771
1131	0.7684
1140	0.7151
1149	0.4595
1158	0.5996
1167	0.7393
1176	0.7212
1185	0.7569
1194	0.7728
1203	0.563
1212	0.4661
1221	0.4645
1230	0.465
1239	0.6694
1248	0.795
1257	0.8588
1266	0.8703
1275	0.8408
1284	0.7009
1293	0.7869
1302	0.8035
1311	0.6467
1320	0.7154
1329	0.5944
1338	0.4763
1347	0.381
1356	0.4356
1365	0.6007
1374	0.6822
1383	0.4071
1392	0.0806
1401	0.4035
1410	0.6887
1419	0.6373
1428	0.5688
1437	0.6374
1446	0.7024
1455	0.6983
1464	0.3436
1473	0.5212
1482	0.5364
1491	0.7339
1500	0.7332
1509	0.8731
1518	0.9021
1527	0.921
1536	0.9245
1545	0.9185
1554	0.9133
1563	0.9095
1572	0.9006
1581	0.8727
1590	0.8369
1599	0.7604
1608	0.7557
1617	0.7017
1626	0.6181
1635	0.8564
1644	0.8682
1653	0.8677
1662	0.8665
1671	0.8517
1680	0.8204
1689	0.7664
1698	0.6682
1707	0.4785
1716	0.0345
1725	0.0201
1734	0.284
1743	0.5829
1752	0.7576
1761	0.7536
1770	0.6886
1779	0.4514
1788	0.4317
1797	0.3878
1806	0.1452
1815	0.1232
1824	0.301
1833	0.6531
1842	0.81
1851	0.8525
1860	0.8726
1869	0.8839
1878	0.8856
1887	0.8905
1896	0.9065
1905	0.9042
1914	0.904
1923	0.899
1932	0.9065
1941	0.9083
1950	0.8947
1959	0.8841
1968	0.8986
1977	0.9103
1986	0.9111
1995	0.9159
2004	0.9312
2013	0.9316
2022	0.9281
2031	0.9256
2040	0.9256
2049	0.9277
2058	0.9316
2067	0.9312
2076	0.9308
2085	0.9306
2094	0.9301
2103	0.9294
2112	0.9282
2121	0.9268
2130	0.927
2139	0.9269
2148	0.9269
2157	0.927
2166	0.9275
2175	0.9282
2184	0.9281
2193	0.9284
2202	0.9297
2211	0.9309
2220	0.9321
2229	0.9318
2238	0.9313
2247	0.9297
2256	0.9278
2265	0.9275
2274	0.9279
2283	0.928
2292	0.9269
2301	0.926
2310	0.9254
2319	0.9246
2328	0.9236
2337	0.9228
2346	0.922
2355	0.9229
2364	0.9248
2373	0.9296
2382	0.9348
2391	0.9372
2400	0.9366
2409	0.9358
2418	0.934
2427	0.9312
2436	0.9266
2445	0.9227
2454	0.92
2463	0.9197
2472	0.9206
2481	0.9215
2490	0.9224
2499	0.9233
2508	0.9238
2517	0.9242
2526	0.9247
2535	0.9251
2544	0.9252
2553	0.9253
2562	0.9254
2571	0.9252
2580	0.925
2589	0.9249
2598	0.9247
2607	0.9243
2616	0.9238
2625	0.9231
2634	0.9224
2643	0.9218
2652	0.9213
2661	0.9207
2670	0.92
2679	0.9194
2688	0.9188
2697	0.9189
2706	0.9192
2715	0.9252
2724	0.9268
2733	0.9244
2742	0.9231
2751	0.9232
2760	0.9234
2769	0.9235
2778	0.9237
2787	0.9239
2796	0.9238
2805	0.9237
2814	0.9234
2823	0.9232
2832	0.9229
2841	0.9225
2850	0.9221
2859	0.9217
2868	0.9214
2877	0.9206
2886	0.9191
2895	0.9167
2904	0.9139
2913	0.9127
2922	0.9114
2931	0.91
2940	0.9068
2949	0.9024
2958	0.8975
2967	0.8931
2976	0.8888
2985	0.8805
2994	0.8667
3003	0.8547
3012	0.8431
3021	0.8306
3030	0.8138
3039	0.7826
3048	0.7716
3057	0.7726
3066	0.7766
3075	0.7831
3084	0.7994
3093	0.8218
3102	0.8363
3111	0.8531
3120	0.865
3129	0.875
3138	0.8847
3147	0.8908
3156	0.897
3165	0.9019
3174	0.9038
3183	0.9034
3192	0.9027
3201	0.9024
3210	0.9028
3219	0.9028
3228	0.9014
3237	0.899
3246	0.8969
3255	0.898
3264	0.9012
3273	0.9051
3282	0.9051
3291	0.9019
3300	0.8989
3309	0.8982
3318	0.8982
3327	0.8981
3336	0.8978
3345	0.8975
3354	0.8973
3363	0.897
3372	0.8967
3381	0.8963
3390	0.896
3399	0.8959
3408	0.8958
3417	0.8958
3426	0.8957
3435	0.8956
3444	0.8955
3453	0.8955
3462	0.8952
3471	0.895
3480	0.8947
3489	0.8947
3498	0.8954
3507	0.8976
3516	0.9003
3525	0.9037
3534	0.9053
3543	0.9056
3552	0.9056
3561	0.9056
3570	0.9058
3579	0.906
3588	0.9062
3597	0.9064
3606	0.907
3615	0.9077
3624	0.9085
3633	0.91
3642	0.9117
3651	0.9136
3660	0.9161
3669	0.9183
3678	0.9206
3687	0.9221
3696	0.9229
3705	0.9231
3714	0.9231
3723	0.9233
3732	0.9237
3741	0.9239
3750	0.9239
3759	0.924
3768	0.924
3777	0.924
3786	0.9241
3795	0.9241
3804	0.9241
3813	0.9242
3822	0.9243
3831	0.9244
3840	0.9245
3849	0.9246
3858	0.9247
3867	0.9249
3876	0.9251
3885	0.9251
3894	0.9252
3903	0.9253
3912	0.9254
3921	0.9255
3930	0.9255
3939	0.9256
3948	0.9257
3957	0.9258
3966	0.9258
3975	0.926
3984	0.926
3993	0.9261
