Infrared Spectrum: 8-Phenyl-N-octanol
Formula: C 14 H 22 O
CAS: 10472-97-6
State: gas
Origin: EPA-IR VAPOR PHASE LIBRARY
1/CM	ABSORBANCE
549.8	0.0023288
559.445	0.0027788
569.09	0.0038988
578.734	0.0027088
588.379	0.0026288
598.024	0.0016388
607.669	0.0017688
617.313	0.0018288
626.958	0.0012288
636.603	0.0009841
646.248	0.0015888
655.893	0.0030588
665.537	0.0042588
675.182	0.0078788
684.827	0.0156788
694.472	0.0353388
704.116	0.0283488
713.761	0.0216588
723.406	0.0212788
733.051	0.0257488
742.695	0.0260388
752.34	0.0146388
761.985	0.0083788
771.63	0.0050488
781.275	0.0034688
790.919	0.0029588
800.564	0.0027088
810.209	0.0028388
819.854	0.0031188
829.498	0.0026988
839.143	0.0031488
848.788	0.0030488
858.433	0.0032388
868.078	0.0034888
877.722	0.0046788
887.367	0.0044788
897.012	0.0051188
906.657	0.0058488
916.301	0.0052988
925.946	0.0055788
935.591	0.0058088
945.236	0.0064388
954.88	0.0071588
964.525	0.0074388
974.17	0.0085988
983.815	0.0103688
993.46	0.0129088
1003.1	0.0171488
1012.75	0.0224388
1022.39	0.0311288
1032.04	0.0397188
1041.68	0.0400488
1051.33	0.0380788
1060.97	0.0312088
1070.62	0.0250388
1080.26	0.0217788
1089.91	0.0165088
1099.55	0.0116288
1109.2	0.0094288
1118.84	0.0075988
1128.49	0.0057388
1138.13	0.0054988
1147.78	0.0051388
1157.42	0.0060388
1167.07	0.0064188
1176.71	0.0064588
1186.36	0.0069988
1196	0.0074688
1205.64	0.0073488
1215.29	0.0068288
1224.93	0.0055488
1234.58	0.0090088
1244.22	0.0081588
1253.87	0.0077788
1263.51	0.0074888
1273.16	0.0078688
1282.8	0.0078088
1292.45	0.0081188
1302.09	0.0084188
1311.74	0.0083688
1321.38	0.0085588
1331.03	0.0092988
1340.67	0.0108888
1350.32	0.0127388
1359.96	0.0120788
1369.61	0.0118688
1379.25	0.0121688
1388.9	0.0118888
1398.54	0.0094388
1408.18	0.0071588
1417.83	0.0064188
1427.47	0.0070288
1437.12	0.0109988
1446.76	0.0183088
1456.41	0.0220488
1466.05	0.0175588
1475.7	0.0122188
1485.34	0.0119488
1494.99	0.0194688
1504.63	0.0097188
1514.28	0.0036088
1523.92	0.0025388
1533.57	0.0025088
1543.21	0.0020588
1552.86	0.0019488
1562.5	0.0020788
1572.15	0.0026288
1581.79	0.0041888
1591.44	0.0063888
1601.08	0.0098388
1610.73	0.0065288
1620.37	0.0024388
1630.01	0.0015088
1639.66	0.0012088
1649.3	0.0013288
1658.95	0.0010496
1668.59	0.0008508
1678.24	0.0009377
1687.88	0.000792
1697.53	0.0007037
1707.17	0.0009689
1716.82	0.0009669
1726.46	0.0012488
1736.11	0.0012988
1745.75	0.0013688
1755.4	0.0013388
1765.04	0.0013288
1774.69	0.0014988
1784.33	0.0022288
1793.98	0.0031588
1803.62	0.0018388
1813.27	0.0014288
1822.91	0.0012188
1832.55	0.0011988
1842.2	0.0012988
1851.84	0.0016888
1861.49	0.0020588
1871.13	0.0021488
1880.78	0.0017788
1890.42	0.0012188
1900.07	0.0011488
1909.71	0.0011488
1919.36	0.0015688
1929	0.0023288
1938.65	0.0028488
1948.29	0.0029188
1957.94	0.0018388
1967.58	0.0010688
1977.23	0.0010788
1986.87	0.0010118
1996.52	0.000781
2006.16	0.0009449
2015.81	0.0009836
2025.45	0.0009746
2035.1	0.0011488
2044.74	0.0011188
2054.38	0.0010988
2064.03	0.0011688
2073.67	0.0010331
2083.32	0.0009237
2092.96	0.0008435
2102.61	0.0007551
2112.25	0.0008738
2121.9	0.0006474
2131.54	0.0005137
2141.19	0.000887
2150.83	0.0008852
2160.48	0.0009122
2170.12	0.0009473
2179.77	0.0007191
2189.41	0.0008335
2199.06	0.0009522
2208.7	0.0008708
2218.35	0.0006439
2227.99	0.0005695
2237.64	0.0008349
2247.28	0.0008659
2256.92	0.0011388
2266.57	0.0007864
2276.21	0.0008383
2285.86	0.0010016
2295.5	0.0010023
2305.15	0.0010788
2314.79	0.0011688
2324.44	0.0012288
2334.08	0.0010383
2343.73	0.0012188
2353.37	0.0010024
2363.02	0.0013588
2372.66	0.0009887
2382.31	0.0007247
2391.95	0.0011088
2401.6	0.0010494
2411.24	0.0009975
2420.89	0.0009653
2430.53	0.0008048
2440.18	0.000997
2449.82	0.0008942
2459.47	0.0011888
2469.11	0.0009306
2478.75	0.0008397
2488.4	0.0009492
2498.04	0.0011088
2507.69	0.0010282
2517.33	0.0009896
2526.98	0.0008978
2536.62	0.0013588
2546.27	0.0012588
2555.91	0.0011588
2565.56	0.0014588
2575.2	0.0016288
2584.85	0.0015888
2594.49	0.0015288
2604.14	0.0016888
2613.78	0.0017088
2623.43	0.0023588
2633.07	0.0020988
2642.72	0.0023488
2652.36	0.0023288
2662.01	0.0028788
2671.65	0.0027688
2681.29	0.0032488
2690.94	0.0030288
2700.58	0.0032288
2710.23	0.0032788
2719.87	0.0032688
2729.52	0.0032688
2739.16	0.0038388
2748.81	0.0040488
2758.45	0.0043688
2768.1	0.0048388
2777.74	0.0056588
2787.39	0.0061188
2797.03	0.0073888
2806.68	0.0085188
2816.32	0.0100688
2825.97	0.0127688
2835.61	0.0180188
2845.26	0.0301688
2854.9	0.0603788
2864.55	0.0883588
2874.19	0.0742088
2883.84	0.0580788
2893.48	0.0548588
2903.12	0.0680588
2912.77	0.0972688
2922.41	0.150379
2932.06	0.220739
2941.7	0.201349
2951.35	0.110029
2960.99	0.0558988
2970.64	0.0315088
2980.28	0.0186688
2989.93	0.0132488
2999.57	0.0119188
3009.22	0.0138688
3018.86	0.0195888
3028.51	0.0325888
3038.15	0.0288188
3047.8	0.0171588
3057.44	0.0184588
3067.09	0.0293988
3076.73	0.0239288
3086.38	0.0168188
3096.02	0.0119888
3105.67	0.0078888
3115.31	0.0052688
3124.95	0.0026688
3134.6	0.0018088
3144.24	0.0016288
3153.89	0.0013488
3163.53	0.0015888
3173.18	0.0014788
3182.82	0.0010308
3192.47	0.0009889
3202.11	0.0007564
3211.76	0.0006123
3221.4	0.0005487
3231.05	0.0009924
3240.69	0.0008118
3250.34	0.0007059
3259.98	0.0007844
3269.63	0.0012688
3279.27	0.0005385
3288.92	0.0003797
3298.56	6.8168e-05
3308.21	0.0007105
3317.85	0.0002949
3327.49	0.0005654
3337.14	0.0008389
3346.78	0.0004495
3356.43	0.0008237
3366.07	0.0014388
3375.72	0.0004445
3385.36	0.000868
3395.01	0.0003115
3404.65	0.0006575
3414.3	0.000717
3423.94	0.0009416
3433.59	0.0007125
3443.23	0.0008259
3452.88	0.0010888
3462.52	0.0010094
3472.17	0.0009374
3481.81	0.0008137
3491.46	0.0003283
3501.1	0.0009572
3510.75	0.0006608
3520.39	0.0008495
3530.04	0.0007335
3539.68	0.0007491
3549.32	0.0007527
3558.97	0.0012088
3568.61	0.0005974
3578.26	0.0009692
3587.9	0.0013088
3597.55	0.0015688
3607.19	0.0012088
3616.84	0.0014788
3626.48	0.0030988
3636.13	0.0036388
3645.77	0.0051388
3655.42	0.0087988
3665.06	0.0110688
3674.71	0.0092588
3684.35	0.0057788
3694	0.0036488
3703.64	0.0022088
3713.29	0.0018388
3722.93	0.0013388
3732.58	0.0011588
3742.22	0.0012388
3751.86	0.0010688
3761.51	0.0013188
3771.15	0.0010421
3780.8	0.0013488
3790.44	0.0011988
3800.09	0.0016688
3809.73	0.0015088
3819.38	0.0015688
3829.02	0.0008688
3838.67	0.0014688
3848.31	0.0015988
3857.96	0.0009487
3867.6	0.0011488
3877.25	0.0012388
3886.89	0.000434
3896.54	0.0019388
3906.18	0.0016288
3915.83	0.0008345
3925.47	0.0012988
3935.12	0.0010588
3944.76	0.0007899
3954.41	0.0009762
3964.05	0.0012088
3973.69	0.0011788
3983.34	0.0010888
3992.98	0.0006411
