Infrared Spectrum: ALPHA TERPINEOL
Formula: C10 H18 O
CAS: 10482-56-1
State: LIQUID
Class: COBLENTZ
Instrument: Not specified, most likely a prism, grating, or hybrid spectrometer.
Sampling: TRANSMISSION
Path length: 0.0025 CM
Resolution: 4
Origin: INFRACORD
MICROMETERS	TRANSMITTANCE
2.541	0.937
2.57638	0.938
2.61175	0.936
2.64713	0.939
2.68251	0.942
2.71789	0.943
2.75326	0.942
2.78864	0.882
2.82402	0.784
2.8594	0.644
2.89477	0.449
2.93015	0.263
2.96553	0.194
3.0009	0.158
3.03628	0.196
3.07166	0.318
3.10704	0.512
3.14241	0.65
3.17779	0.736
3.21317	0.8
3.24855	0.829
3.28392	0.834
3.3193	0.769
3.35468	0.582
3.39005	0.324
3.42543	0.063
3.46081	0.061
3.49619	0.057
3.53156	0.143
3.56694	0.261
3.60232	0.65
3.6377	0.792
3.67307	0.81
3.70845	0.807
3.74383	0.823
3.7792	0.843
3.81458	0.861
3.84996	0.867
3.88534	0.867
3.92071	0.868
3.95609	0.872
3.99147	0.878
4.02685	0.88
4.06222	0.882
4.0976	0.888
4.13298	0.894
4.16836	0.904
4.20373	0.906
4.23911	0.905
4.27449	0.905
4.30986	0.908
4.34524	0.915
4.38062	0.918
4.416	0.919
4.45137	0.918
4.48675	0.915
4.52213	0.919
4.55751	0.923
4.59288	0.925
4.62826	0.931
4.66364	0.932
4.69901	0.933
4.73439	0.933
4.76977	0.933
4.80515	0.933
4.84052	0.933
4.8759	0.933
4.91128	0.933
4.94666	0.933
4.98203	0.934
5.01741	0.936
5.05279	0.937
5.08816	0.939
5.12354	0.939
5.15892	0.939
5.1943	0.939
5.22967	0.939
5.26505	0.939
5.30043	0.939
5.33581	0.94
5.37118	0.939
5.40656	0.939
5.44194	0.939
5.47731	0.94
5.51269	0.937
5.54807	0.938
5.58345	0.938
5.61882	0.938
5.6542	0.938
5.68958	0.938
5.72496	0.938
5.76033	0.937
5.79571	0.937
5.83109	0.933
5.86646	0.926
5.90184	0.91
5.93722	0.91
5.9726	0.908
6.00797	0.871
6.04335	0.878
6.07873	0.889
6.11411	0.894
6.14948	0.906
6.18486	0.91
6.22024	0.913
6.25561	0.913
6.29099	0.913
6.32637	0.913
6.36175	0.913
6.39712	0.913
6.4325	0.913
6.46788	0.913
6.50326	0.913
6.53863	0.913
6.57401	0.913
6.60939	0.911
6.64476	0.893
6.68014	0.891
6.71552	0.862
6.7509	0.811
6.78627	0.708
6.82165	0.564
6.85703	0.434
6.89241	0.401
6.92778	0.351
6.96316	0.337
6.99854	0.294
7.03392	0.376
7.06929	0.6
7.10467	0.629
7.14005	0.627
7.17542	0.583
7.2108	0.537
7.24618	0.414
7.28156	0.234
7.31693	0.158
7.35231	0.198
7.38769	0.208
7.42307	0.4
7.45844	0.457
7.49382	0.517
7.5292	0.572
7.56457	0.616
7.59995	0.667
7.63533	0.68
7.67071	0.678
7.70608	0.655
7.74146	0.56
7.77684	0.527
7.81222	0.508
7.84759	0.539
7.88297	0.643
7.91835	0.708
7.95372	0.721
7.9891	0.685
8.02448	0.57
8.05986	0.559
8.09523	0.608
8.13061	0.569
8.16599	0.489
8.20137	0.392
8.23674	0.375
8.27212	0.446
8.3075	0.51
8.34287	0.533
8.37825	0.558
8.41363	0.571
8.44901	0.56
8.48438	0.476
8.51976	0.362
8.55514	0.297
8.59052	0.261
8.62589	0.211
8.66127	0.166
8.69665	0.158
8.73202	0.197
8.7674	0.269
8.80278	0.263
8.83816	0.223
8.87353	0.215
8.90891	0.252
8.94429	0.363
8.97967	0.414
9.01504	0.398
9.05042	0.381
9.0858	0.424
9.12117	0.581
9.15655	0.675
9.19193	0.723
9.22731	0.738
9.26268	0.714
9.29806	0.668
9.33344	0.671
9.36882	0.737
9.40419	0.776
9.43957	0.777
9.47495	0.768
9.51032	0.737
9.5457	0.646
9.58108	0.608
9.61646	0.674
9.65183	0.742
9.68721	0.758
9.72259	0.742
9.75797	0.634
9.79334	0.536
9.82872	0.538
9.8641	0.676
9.89947	0.768
9.93485	0.792
9.97023	0.792
10.0056	0.749
10.041	0.737
10.0764	0.75
10.1117	0.773
10.1471	0.746
10.1825	0.673
10.2179	0.659
10.2532	0.715
10.2886	0.758
10.324	0.763
10.3594	0.762
10.3948	0.734
10.4301	0.702
10.4655	0.642
10.5009	0.551
10.5363	0.499
10.5716	0.491
10.607	0.497
10.6424	0.525
10.6778	0.526
10.7132	0.467
10.7485	0.381
10.7839	0.317
10.8193	0.26
10.8547	0.255
10.89	0.265
10.9254	0.265
10.9608	0.274
10.9962	0.436
11.0315	0.62
11.0669	0.71
11.1023	0.778
11.1377	0.804
11.1731	0.817
11.2084	0.833
11.2438	0.841
11.2792	0.844
11.3146	0.849
11.3499	0.86
11.3853	0.865
11.4207	0.866
11.4561	0.867
11.4915	0.868
11.5268	0.867
11.5622	0.867
11.5976	0.867
11.633	0.867
11.6683	0.861
11.7037	0.844
11.7391	0.831
11.7745	0.795
11.8098	0.745
11.8452	0.628
11.8806	0.484
11.916	0.365
11.9514	0.372
11.9867	0.469
12.0221	0.588
12.0575	0.657
12.0929	0.739
12.1282	0.79
12.1636	0.808
12.199	0.815
12.2344	0.815
12.2698	0.809
12.3051	0.776
12.3405	0.731
12.3759	0.644
12.4113	0.54
12.4466	0.436
12.482	0.394
12.5174	0.456
12.5528	0.622
12.5881	0.717
12.6235	0.756
12.6589	0.768
12.6943	0.753
12.7297	0.692
12.765	0.654
12.8004	0.649
12.8358	0.649
12.8712	0.637
12.9065	0.649
12.9419	0.723
12.9773	0.782
13.0127	0.81
13.0481	0.818
13.0834	0.818
13.1188	0.817
13.1542	0.795
13.1896	0.771
13.2249	0.762
13.2603	0.779
13.2957	0.797
13.3311	0.814
13.3664	0.815
13.4018	0.821
13.4372	0.823
13.4726	0.826
13.508	0.826
13.5433	0.826
13.5787	0.826
13.6141	0.826
13.6495	0.826
13.6848	0.826
13.7202	0.826
13.7556	0.826
13.791	0.824
13.8264	0.816
13.8617	0.813
13.8971	0.81
13.9325	0.81
13.9679	0.809
14.0032	0.805
14.0386	0.804
14.074	0.801
14.1094	0.797
14.1447	0.796
14.1801	0.792
14.2155	0.788
14.2509	0.785
14.2863	0.782
14.3216	0.778
14.357	0.776
14.3924	0.775
14.4278	0.775
14.4631	0.772
14.4985	0.769
14.5339	0.766
14.5693	0.765
14.6047	0.762
14.64	0.758
14.6754	0.753
14.7108	0.746
14.7462	0.744
14.7815	0.74
14.8169	0.737
14.8523	0.736
14.8877	0.733
14.923	0.733
14.9584	0.732
14.9938	0.73
