Infrared Spectrum: 2-Mercaptobenzselenazole
Formula: C 7 H 5 N S Se
CAS: 10486-58-5
State: gas
Origin: EPA-IR VAPOR PHASE LIBRARY
1/CM	ABSORBANCE
549.8	0.007786
559.445	0.006636
569.09	0.005316
578.734	0.007566
588.379	0.006146
598.024	0.002736
607.669	0.003546
617.313	0.006846
626.958	0.003446
636.603	0.0013074
646.248	0.000329
655.893	0.0016058
665.537	0.001846
675.182	0.0015393
684.827	0.000916
694.472	0.0012894
704.116	0.003196
713.761	0.004646
723.406	0.005246
733.051	0.013456
742.695	0.025856
752.34	0.011936
761.985	0.003086
771.63	0.0010116
781.275	0.0007043
790.919	0.001036
800.564	0.0006692
810.209	0.000526
819.854	0.0010276
829.498	0.00074634
839.143	0.0012354
848.788	0.0011549
858.433	0.0008787
868.078	0.0011178
877.722	0.0010104
887.367	0.0011739
897.012	0.0009881
906.657	0.0016233
916.301	0.001736
925.946	0.001856
935.591	0.0012197
945.236	0.0008223
954.88	0.001726
964.525	0.002496
974.17	0.003566
983.815	0.004946
993.46	0.009496
1003.1	0.022776
1012.75	0.023566
1022.39	0.011416
1032.04	0.014706
1041.68	0.010856
1051.33	0.007806
1060.97	0.009836
1070.62	0.010056
1080.26	0.007676
1089.91	0.003746
1099.55	0.002486
1109.2	0.006586
1118.84	0.006646
1128.49	0.006626
1138.13	0.005376
1147.78	0.008126
1157.42	0.009656
1167.07	0.008166
1176.71	0.003646
1186.36	0.003336
1196	0.001746
1205.64	0.002416
1215.29	0.018766
1224.93	0.034996
1234.58	0.017036
1244.22	0.002456
1253.87	0.006496
1263.51	0.020946
1273.16	0.023546
1282.8	0.015136
1292.45	0.027926
1302.09	0.031246
1311.74	0.012216
1321.38	0.003806
1331.03	0.003056
1340.67	0.002846
1350.32	0.0016622
1359.96	0.001584
1369.61	0.003206
1379.25	0.005406
1388.9	0.006756
1398.54	0.026176
1408.18	0.076726
1417.83	0.073706
1427.47	0.020526
1437.12	0.007446
1446.76	0.009646
1456.41	0.023506
1466.05	0.041846
1475.7	0.053416
1485.34	0.034516
1494.99	0.007336
1504.63	0.003766
1514.28	0.002586
1523.92	0.001966
1533.57	0.0013993
1543.21	0.0014686
1552.86	0.0013896
1562.5	0.002476
1572.15	0.003886
1581.79	0.005476
1591.44	0.005436
1601.08	0.003696
1610.73	0.0015113
1620.37	0.0011346
1630.01	0.001966
1639.66	0.002036
1649.3	0.001736
1658.95	0.001856
1668.59	0.0014725
1678.24	0.0010196
1687.88	0.0008425
1697.53	0.0008235
1707.17	0.0008074
1716.82	0.0009408
1726.46	0.00075138
1736.11	0.00071129
1745.75	0.00073572
1755.4	0.0011287
1765.04	0.0011621
1774.69	0.0009504
1784.33	0.00076026
1793.98	0.0010245
1803.62	0.0010974
1813.27	0.0008965
1822.91	0.0009131
1832.55	0.0010336
1842.2	0.0013045
1851.84	0.0010458
1861.49	0.0008175
1871.13	0.0010566
1880.78	0.0014412
1890.42	0.0014881
1900.07	0.0011261
1909.71	0.0009249
1919.36	0.0015856
1929	0.001398
1938.65	0.0010368
1948.29	0.0008419
1957.94	0.000885
1967.58	0.0008942
1977.23	0.0008095
1986.87	0.0009206
1996.52	0.0010782
2006.16	0.0011249
2015.81	0.0011534
2025.45	0.0012799
2035.1	0.00138
2044.74	0.0013549
2054.38	0.0010446
2064.03	0.001392
2073.67	0.0013034
2083.32	0.00123
2092.96	0.0011904
2102.61	0.0009518
2112.25	0.0011326
2121.9	0.0012453
2131.54	0.0010549
2141.19	0.0009824
2150.83	0.0010646
2160.48	0.0009267
2170.12	0.0008887
2179.77	0.0009621
2189.41	0.0008119
2199.06	0.0008021
2208.7	0.0009146
2218.35	0.001169
2227.99	0.0010084
2237.64	0.001093
2247.28	0.0008682
2256.92	0.0010723
2266.57	0.0011619
2276.21	0.0013505
2285.86	0.001148
2295.5	0.0009821
2305.15	0.0013158
2314.79	0.0011918
2324.44	0.0012202
2334.08	0.0013911
2343.73	0.0009561
2353.37	0.001092
2363.02	0.0009321
2372.66	0.0009437
2382.31	0.0011575
2391.95	0.0009933
2401.6	0.0010673
2411.24	0.0008688
2420.89	0.0015817
2430.53	0.0013834
2440.18	0.0011166
2449.82	0.001776
2459.47	0.0010467
2469.11	0.001111
2478.75	0.0010721
2488.4	0.0012294
2498.04	0.0011219
2507.69	0.0011365
2517.33	0.0013653
2526.98	0.0010356
2536.62	0.0012292
2546.27	0.0008449
2555.91	0.0009255
2565.56	0.0012706
2575.2	0.0009429
2584.85	0.0009795
2594.49	0.0012244
2604.14	0.0013936
2613.78	0.0008198
2623.43	0.0009233
2633.07	0.0010772
2642.72	0.0012655
2652.36	0.0010462
2662.01	0.0012182
2671.65	0.0013862
2681.29	0.0011686
2690.94	0.00074513
2700.58	0.0010975
2710.23	0.0008882
2719.87	0.0012345
2729.52	0.0008011
2739.16	0.0010843
2748.81	0.0014452
2758.45	0.0007974
2768.1	0.0010364
2777.74	0.0010611
2787.39	0.001213
2797.03	0.0008735
2806.68	0.0009924
2816.32	0.0008698
2825.97	0.00069434
2835.61	0.0012976
2845.26	0.0013587
2854.9	0.0012338
2864.55	0.0009894
2874.19	0.001119
2883.84	0.0011851
2893.48	0.0013781
2903.12	0.0011743
2912.77	0.0008253
2922.41	0.0006189
2932.06	0.0011226
2941.7	0.0012073
2951.35	0.00072299
2960.99	0.00078528
2970.64	0.0010915
2980.28	0.00075179
2989.93	0.0009692
2999.57	0.0014705
3009.22	0.001706
3018.86	0.001916
3028.51	0.001663
3038.15	0.002496
3047.8	0.002206
3057.44	0.002736
3067.09	0.004656
3076.73	0.007366
3086.38	0.006636
3096.02	0.002926
3105.67	0.0009614
3115.31	0.0012062
3124.95	0.0009338
3134.6	0.0012058
3144.24	0.0011085
3153.89	0.0011883
3163.53	0.00072821
3173.18	0.0011366
3182.82	0.0011959
3192.47	0.0008416
3202.11	0.00072315
3211.76	0.0011756
3221.4	0.0010341
3231.05	0.0006371
3240.69	0.0011877
3250.34	0.00075755
3259.98	0.0006637
3269.63	0.0010258
3279.27	0.000993
3288.92	0.0006355
3298.56	0.000591
3308.21	0.000582
3317.85	0.0010151
3327.49	0.000354
3337.14	0.0010092
3346.78	0.00077263
3356.43	0.0013837
3366.07	0.0010519
3375.72	0.00077345
3385.36	0.0006649
3395.01	0.0012195
3404.65	0.003146
3414.3	0.006816
3423.94	0.010686
3433.59	0.009346
3443.23	0.002786
3452.88	0.0011966
3462.52	0.0008807
3472.17	0.00070883
3481.81	0.0009097
3491.46	0.000596
3501.1	0.0008965
3510.75	0.00073499
3520.39	0.0009416
3530.04	0.0008654
3539.68	0.0010158
3549.32	0.000572
3558.97	0.0013854
3568.61	0.00071733
3578.26	0.00075272
3587.9	0.0006577
3597.55	0.0011302
3607.19	0.000553
3616.84	0.00069321
3626.48	0.000953
3636.13	0.0009563
3645.77	0.0007964
3655.42	0.0009732
3665.06	0.0010727
3674.71	0.0006283
3684.35	0.0009495
3694	0.0013538
3703.64	0.000546
3713.29	0.001075
3722.93	0.0012574
3732.58	0.0016132
3742.22	0.00077041
3751.86	0.000323
3761.51	0.000465
3771.15	0.0008387
3780.8	0.000525
3790.44	0.0006226
3800.09	0.0009374
3809.73	0.0009372
3819.38	0.0010444
3829.02	0.000488
3838.67	0.0009893
3848.31	0.00078427
3857.96	0.00048
3867.6	0.0012663
3877.25	0.0013334
3886.89	0.0008672
3896.54	0.000986
3906.18	0.0012081
3915.83	0.0015271
3925.47	0.0010106
3935.12	0.0014598
3944.76	0.0013052
3954.41	0.0009757
3964.05	0.000281
3973.69	0.001134
3983.34	0.0010321
3992.98	0.0012336
