Infrared Spectrum: Germane, tetraphenyl-,
Formula: C24 H20 Ge
CAS: 1048-05-1
State: SOLID (SPLIT MULL)
Melting point: 230 C
Class: COBLENTZ III
Instrument: PERKIN-ELMER 521 (GRATING)
Instrument parameters: FILTERS AT 3150, 2500, 2000, 1150, 700, 410. GRATING CHANGES: 2000, 630
Resolution: 2
Origin: DOW CORNING CORP.
1/CM	TRANSMITTANCE
248	0.6277
257	0.6393
266	0.6853
275	0.7563
284	0.7928
293	0.8112
302	0.8176
311	0.8043
320	0.721
329	0.3404
338	0.455
347	0.7846
356	0.876
365	0.8849
374	0.8836
383	0.8785
392	0.8782
401	0.8846
410	0.8892
419	0.8897
428	0.8846
437	0.8786
446	0.864
455	0.8096
464	0.3352
473	0.7589
482	0.3194
491	0.8246
500	0.8424
509	0.8532
518	0.8571
527	0.8581
536	0.8592
545	0.86
554	0.8601
563	0.859
572	0.8577
581	0.8573
590	0.8571
599	0.8572
608	0.8548
617	0.8454
626	0.8684
635	0.8614
644	0.8553
653	0.8459
662	0.7968
671	0.718
680	0.799
689	0.7203
698	0.1083
707	0.5928
716	0.7288
725	0.6841
734	0.2193
743	0.1183
752	0.7631
761	0.7887
770	0.8034
779	0.814
788	0.8203
797	0.8231
806	0.8247
815	0.8246
824	0.8227
833	0.8149
842	0.7943
851	0.7784
860	0.8007
869	0.803
878	0.7979
887	0.7874
896	0.7838
905	0.7703
914	0.7563
923	0.7703
932	0.7719
941	0.7678
950	0.7598
959	0.7558
968	0.7476
977	0.6853
986	0.7519
995	0.5751
1004	0.7624
1013	0.7513
1022	0.7091
1031	0.7483
1040	0.7591
1049	0.7544
1058	0.6866
1067	0.7117
1076	0.7129
1085	0.3306
1094	0.5932
1103	0.7546
1112	0.7551
1121	0.7519
1130	0.7488
1139	0.7347
1148	0.6888
1157	0.7123
1166	0.7197
1175	0.6542
1184	0.6534
1193	0.7373
1202	0.7363
1211	0.7368
1220	0.739
1229	0.7383
1238	0.7311
1247	0.7136
1256	0.6863
1265	0.6377
1274	0.7197
1283	0.7104
1292	0.6953
1301	0.6188
1310	0.6997
1319	0.7656
1328	0.8198
1337	0.8577
1346	0.8647
1355	0.8572
1364	0.8542
1373	0.796
1382	0.7801
1391	0.8286
1400	0.8387
1409	0.8135
1418	0.7138
1427	0.0607
1436	0.753
1445	0.843
1454	0.8645
1463	0.8597
1472	0.8164
1481	0.2426
1490	0.8902
1499	0.9145
1508	0.919
1517	0.9192
1526	0.9182
1535	0.9126
1544	0.9008
1553	0.8918
1562	0.8857
1571	0.8938
1580	0.7364
1589	0.8633
1598	0.8681
1607	0.8862
1616	0.8821
1625	0.8926
1634	0.8845
1643	0.868
1652	0.8505
1661	0.8561
1670	0.8844
1679	0.8926
1688	0.894
1697	0.8932
1706	0.8914
1715	0.8901
1724	0.8901
1733	0.8901
1742	0.8892
1751	0.8799
1760	0.8543
1769	0.8417
1778	0.8691
1787	0.883
1796	0.8806
1805	0.8686
1814	0.8356
1823	0.8169
1832	0.827
1841	0.8533
1850	0.8705
1859	0.8719
1868	0.8646
1877	0.8154
1886	0.778
1895	0.8071
1904	0.8092
1913	0.8586
1922	0.8661
1931	0.8633
1940	0.85
1949	0.8257
1958	0.79
1967	0.812
1976	0.8249
1985	0.8536
1994	0.8738
2003	0.9002
2012	0.894
2021	0.8907
2030	0.8913
2039	0.8916
2048	0.8916
2057	0.8911
2066	0.8892
2075	0.8873
2084	0.884
2093	0.8803
2102	0.8757
2111	0.8727
2120	0.8727
2129	0.8737
2138	0.8707
2147	0.8644
2156	0.857
2165	0.8493
2174	0.8418
2183	0.842
2192	0.842
2201	0.8402
2210	0.8379
2219	0.8331
2228	0.8269
2237	0.8205
2246	0.814
2255	0.8067
2264	0.8013
2273	0.797
2282	0.7942
2291	0.7918
2300	0.7912
2309	0.7909
2318	0.7912
2327	0.7916
2336	0.7921
2345	0.793
2354	0.7939
2363	0.7934
2372	0.7931
2381	0.7925
2390	0.7917
2399	0.7908
2408	0.79
2417	0.7892
2426	0.7885
2435	0.7879
2444	0.7877
2453	0.7874
2462	0.7872
2471	0.7865
2480	0.7857
2489	0.7849
2498	0.7836
2507	0.782
2516	0.7805
2525	0.7782
2534	0.7759
2543	0.7732
2552	0.7703
2561	0.7676
2570	0.766
2579	0.7643
2588	0.7632
2597	0.763
2606	0.7629
2615	0.7623
2624	0.7616
2633	0.7604
2642	0.7575
2651	0.754
2660	0.7472
2669	0.7419
2678	0.7471
2687	0.75
2696	0.7485
2705	0.7468
2714	0.7448
2723	0.7428
2732	0.74
2741	0.7363
2750	0.7324
2759	0.7281
2768	0.7253
2777	0.7233
2786	0.7222
2795	0.721
2804	0.7195
2813	0.7162
2822	0.7123
2831	0.7076
2840	0.7016
2849	0.6937
2858	0.6907
2867	0.6927
2876	0.6896
2885	0.6831
2894	0.6755
2903	0.6622
2912	0.6567
2921	0.6533
2930	0.6521
2939	0.6521
2948	0.6527
2957	0.6496
2966	0.6441
2975	0.6339
2984	0.6175
2993	0.5494
3002	0.5219
3011	0.5312
3020	0.5663
3029	0.536
3038	0.5532
3047	0.4352
3056	0.3942
3065	0.3564
3074	0.5586
3083	0.5693
3092	0.6469
3101	0.6577
3110	0.6582
3119	0.6581
3128	0.6338
3137	0.6058
3146	0.616
3155	0.6252
3164	0.6239
3173	0.6223
3182	0.6205
3191	0.6181
3200	0.6162
3209	0.614
3218	0.6117
3227	0.6093
3236	0.6067
3245	0.6041
3254	0.6014
3263	0.5983
3272	0.5953
3281	0.5923
3290	0.5888
3299	0.5849
3308	0.5812
3317	0.5773
3326	0.574
3335	0.5712
3344	0.5684
3353	0.5655
3362	0.5631
3371	0.561
3380	0.5589
3389	0.5567
3398	0.5549
3407	0.5537
3416	0.5526
3425	0.5515
3434	0.5504
3443	0.5492
3452	0.5487
3461	0.5484
3470	0.5481
3479	0.5478
3488	0.5476
3497	0.5472
3506	0.5466
3515	0.5459
3524	0.5453
3533	0.5447
3542	0.5435
3551	0.5422
3560	0.541
3569	0.5397
3578	0.5384
3587	0.5371
3596	0.5358
3605	0.5343
3614	0.5329
3623	0.5314
3632	0.53
3641	0.5287
3650	0.5274
3659	0.5261
3668	0.5248
3677	0.523
3686	0.5205
3695	0.5181
3704	0.5157
3713	0.5136
3722	0.5115
3731	0.5102
3740	0.5096
3749	0.5089
3758	0.5077
3767	0.5063
3776	0.5053
3785	0.5047
3794	0.5045
3803	0.5043
3812	0.5042
