Infrared Spectrum: Silane, tetraphenyl-,
Formula: C24 H20 Si
CAS: 1048-08-4
State: SOLUTION (2% CCl4 FOR 3800-1300, 2% CS2 FOR 1300-650, AND 2% CCl4 FOR 650-250)
Melting point: 237 C
Class: COBLENTZ III
Instrument: PERKIN-ELMER 521 (GRATING)
Instrument parameters: FILTERS AT 3150, 2500, 2000, 1150, 700, 410. GRATING CHANGES: 2000, 630
Path length: 0.010 CM, 0.011 CM, AND 0.010 CM
Resolution: 2
Origin: DOW CORNING CORP.
1/CM	TRANSMITTANCE
236	0.9823
245	0.9728
254	0.9646
263	0.9549
272	0.9461
281	0.9382
290	0.9331
299	0.9311
308	0.9308
317	0.9298
326	0.927
335	0.9211
344	0.9138
353	0.9136
362	0.9167
371	0.9188
380	0.9054
389	0.904
398	0.9036
407	0.8989
416	0.8734
425	0.8676
434	0.885
443	0.8807
452	0.8865
461	0.8767
470	0.8618
479	0.8436
488	0.8108
497	0.6844
506	0.2462
515	0.6827
524	0.8801
533	0.9072
542	0.9174
551	0.9204
560	0.9201
569	0.9194
578	0.9187
587	0.9168
596	0.9145
605	0.9106
614	0.9029
623	0.8883
632	0.8843
641	0.8788
650	0.8607
659	0.8522
668	0.8461
677	0.824
686	0.7559
695	0.3252
704	0.142
713	0.8203
722	0.829
731	0.7349
740	0.7925
749	0.8756
758	0.8845
767	0.8906
776	0.8708
785	0.8609
794	0.9048
803	0.9093
812	0.9076
821	0.9033
830	0.9
839	0.8859
848	0.8794
857	0.8898
866	0.8988
875	0.9
884	0.9034
893	0.9103
902	0.9049
911	0.9043
920	0.913
929	0.9119
938	0.9084
947	0.9053
956	0.9025
965	0.9001
974	0.8978
983	0.8936
992	0.8002
1001	0.9059
1010	0.905
1019	0.8908
1028	0.9021
1037	0.8996
1046	0.895
1055	0.891
1064	0.8895
1073	0.8872
1082	0.8737
1091	0.8401
1100	0.5474
1109	0.678
1118	0.8652
1127	0.8883
1136	0.903
1145	0.9019
1154	0.9006
1163	0.8995
1172	0.8765
1181	0.7623
1190	0.8982
1199	0.9029
1208	0.9029
1217	0.9015
1226	0.8996
1235	0.8946
1244	0.8796
1253	0.8862
1262	0.8973
1271	0.8961
1280	0.9003
1289	0.8868
1298	0.8702
1307	0.8731
1316	0.8753
1325	0.8636
1334	0.8735
1343	0.876
1352	0.872
1361	0.8662
1370	0.8625
1379	0.867
1388	0.8646
1397	0.8457
1406	0.8292
1415	0.8077
1424	0.4633
1433	0.8619
1442	0.8608
1451	0.8584
1460	0.8578
1469	0.8559
1478	0.7773
1487	0.8493
1496	0.8493
1505	0.8459
1514	0.8371
1523	0.8283
1532	0.8206
1541	0.8167
1550	0.822
1559	0.827
1568	0.8356
1577	0.8249
1586	0.8226
1595	0.848
1604	0.8539
1613	0.8556
1622	0.8565
1631	0.8558
1640	0.8543
1649	0.8508
1658	0.8522
1667	0.8564
1676	0.8563
1685	0.8529
1694	0.8495
1703	0.8484
1712	0.8496
1721	0.8526
1730	0.8553
1739	0.8575
1748	0.859
1757	0.8596
1766	0.8594
1775	0.8588
1784	0.8583
1793	0.8568
1802	0.8528
1811	0.8426
1820	0.8448
1829	0.8555
1838	0.8568
1847	0.8566
1856	0.8568
1865	0.8569
1874	0.8474
1883	0.8413
1892	0.8416
1901	0.8478
1910	0.8557
1919	0.8578
1928	0.8572
1937	0.8552
1946	0.8456
1955	0.8346
1964	0.8438
1973	0.8523
1982	0.8566
1991	0.8583
2000	0.8585
2009	0.8581
2018	0.8577
2027	0.8562
2036	0.8549
2045	0.8537
2054	0.8531
2063	0.8524
2072	0.8517
2081	0.851
2090	0.8503
2099	0.8496
2108	0.8489
2117	0.8482
2126	0.8473
2135	0.8464
2144	0.8454
2153	0.8445
2162	0.8435
2171	0.8428
2180	0.8421
2189	0.8414
2198	0.8407
2207	0.84
2216	0.8397
2225	0.8396
2234	0.8396
2243	0.8395
2252	0.8395
2261	0.8394
2270	0.8393
2279	0.8395
2288	0.8397
2297	0.8398
2306	0.8397
2315	0.8395
2324	0.8394
2333	0.8392
2342	0.8386
2351	0.838
2360	0.8375
2369	0.8369
2378	0.8363
2387	0.8356
2396	0.8349
2405	0.8342
2414	0.8335
2423	0.8327
2432	0.8319
2441	0.8311
2450	0.8304
2459	0.8298
2468	0.8294
2477	0.8289
2486	0.8285
2495	0.828
2504	0.828
2513	0.828
2522	0.828
2531	0.828
2540	0.828
2549	0.828
2558	0.828
2567	0.828
2576	0.828
2585	0.828
2594	0.828
2603	0.828
2612	0.8279
2621	0.8277
2630	0.8275
2639	0.8273
2648	0.8271
2657	0.8269
2666	0.8268
2675	0.8267
2684	0.8266
2693	0.8264
2702	0.8263
2711	0.8261
2720	0.8259
2729	0.8257
2738	0.8255
2747	0.8253
2756	0.8246
2765	0.8238
2774	0.823
2783	0.8221
2792	0.8213
2801	0.8204
2810	0.8195
2819	0.8186
2828	0.8177
2837	0.8169
2846	0.8162
2855	0.8154
2864	0.8148
2873	0.8143
2882	0.8139
2891	0.8134
2900	0.8128
2909	0.8122
2918	0.8131
2927	0.8141
2936	0.8156
2945	0.8145
2954	0.8109
2963	0.8118
2972	0.8139
2981	0.8129
2990	0.806
2999	0.7863
3008	0.7592
3017	0.7462
3026	0.746
3035	0.7571
3044	0.7577
3053	0.6917
3062	0.6802
3071	0.6917
3080	0.6482
3089	0.7738
3098	0.8107
3107	0.8183
3116	0.8188
3125	0.8152
3134	0.8069
3143	0.8048
3152	0.8155
3161	0.818
3170	0.8201
3179	0.8225
3188	0.825
3197	0.8277
3206	0.8304
3215	0.833
3224	0.8358
3233	0.8385
3242	0.841
3251	0.8429
3260	0.8441
3269	0.8452
3278	0.8457
3287	0.8461
3296	0.8466
3305	0.8468
3314	0.8472
3323	0.8475
3332	0.8479
3341	0.8483
3350	0.8487
3359	0.8487
3368	0.8487
3377	0.8486
3386	0.8493
3395	0.8503
3404	0.8514
3413	0.8524
3422	0.8535
3431	0.8546
3440	0.8558
3449	0.8571
3458	0.8586
3467	0.8588
3476	0.8592
3485	0.8594
3494	0.8599
3503	0.8604
3512	0.8609
3521	0.8614
3530	0.862
3539	0.8626
3548	0.8633
3557	0.864
3566	0.8649
3575	0.8663
3584	0.8692
3593	0.8697
3602	0.8651
3611	0.8638
3620	0.8642
3629	0.8644
3638	0.865
3647	0.8659
3656	0.8667
3665	0.8678
3674	0.869
3683	0.8701
3692	0.8712
3701	0.8721
3710	0.8732
3719	0.8742
3728	0.8754
3737	0.8765
3746	0.8778
3755	0.8777
3764	0.8773
3773	0.8762
3782	0.8764
3791	0.8769
3800	0.878
3809	0.8801
3818	0.8823
