Infrared Spectrum: Methyl pentafluoropropionylacetate
Formula: C 6 H 5 F 5 O 3
CAS: 104857-88-7
State: gas
Origin: EPA-IR VAPOR PHASE LIBRARY
1/CM	ABSORBANCE
549.8	0.004746
559.445	0.004136
569.09	0.003926
578.735	0.003856
588.38	0.004386
598.025	0.005926
607.67	0.007026
617.315	0.007536
626.96	0.006326
636.605	0.006536
646.251	0.007066
655.896	0.008336
665.541	0.010636
675.186	0.007396
684.831	0.004976
694.476	0.004646
704.121	0.005626
713.766	0.007076
723.411	0.006366
733.056	0.006666
742.701	0.009536
752.346	0.013666
761.991	0.006366
771.636	0.003476
781.281	0.003706
790.926	0.004476
800.571	0.005276
810.216	0.007286
819.861	0.008566
829.507	0.007086
839.152	0.007536
848.797	0.007216
858.442	0.003926
868.087	0.003036
877.732	0.003126
887.377	0.003716
897.022	0.004556
906.667	0.006196
916.312	0.008326
925.957	0.009666
935.602	0.011666
945.247	0.013386
954.892	0.014246
964.537	0.019116
974.182	0.027976
983.827	0.037686
993.472	0.044046
1003.12	0.028076
1012.76	0.017476
1022.41	0.015616
1032.05	0.018226
1041.7	0.015606
1051.34	0.014616
1060.99	0.013756
1070.63	0.015586
1080.28	0.018556
1089.92	0.020866
1099.57	0.025326
1109.21	0.036596
1118.86	0.039606
1128.5	0.035066
1138.15	0.037026
1147.79	0.042756
1157.44	0.052306
1167.08	0.061536
1176.73	0.063416
1186.37	0.066106
1196.02	0.092296
1205.66	0.151486
1215.31	0.211076
1224.95	0.216016
1234.6	0.161016
1244.24	0.118626
1253.89	0.094116
1263.53	0.065296
1273.18	0.045366
1282.82	0.034496
1292.47	0.030526
1302.11	0.032086
1311.76	0.040186
1321.4	0.052506
1331.05	0.052356
1340.69	0.038346
1350.34	0.028206
1359.98	0.021516
1369.63	0.016866
1379.27	0.016056
1388.92	0.018506
1398.56	0.018336
1408.21	0.012996
1417.85	0.008796
1427.5	0.008406
1437.14	0.013186
1446.79	0.018096
1456.43	0.014516
1466.08	0.007926
1475.73	0.005356
1485.37	0.004216
1495.02	0.003646
1504.66	0.003276
1514.31	0.003156
1523.95	0.003066
1533.6	0.003066
1543.24	0.003086
1552.89	0.003096
1562.53	0.003146
1572.18	0.003086
1581.82	0.003016
1591.47	0.002986
1601.11	0.003126
1610.76	0.003766
1620.4	0.005416
1630.05	0.009056
1639.69	0.015106
1649.34	0.020506
1658.98	0.019046
1668.63	0.018456
1678.27	0.023986
1687.92	0.029196
1697.56	0.027936
1707.21	0.028846
1716.85	0.027616
1726.5	0.019886
1736.14	0.016066
1745.79	0.022926
1755.43	0.038206
1765.08	0.048066
1774.72	0.046916
1784.37	0.036376
1794.01	0.018576
1803.66	0.009776
1813.3	0.005776
1822.95	0.003816
1832.59	0.002816
1842.24	0.002176
1851.88	0.001886
1861.53	0.0016521
1871.17	0.0014746
1880.82	0.0013426
1890.46	0.0011856
1900.11	0.0011131
1909.75	0.0010697
1919.4	0.0010589
1929.04	0.0010772
1938.69	0.001092
1948.33	0.0011281
1957.98	0.0011857
1967.62	0.001347
1977.27	0.0013361
1986.91	0.0012232
1996.56	0.0011767
2006.2	0.0011473
2015.85	0.001207
2025.49	0.0013799
2035.14	0.0013341
2044.78	0.0013435
2054.43	0.0012648
2064.07	0.001292
2073.72	0.0014508
2083.36	0.001756
2093.01	0.002066
2102.65	0.002346
2112.3	0.002596
2121.94	0.004176
2131.59	0.009766
2141.23	0.027376
2150.88	0.063136
2160.52	0.069746
2170.17	0.025686
2179.81	0.006366
2189.46	0.003306
2199.1	0.002486
2208.75	0.002016
2218.39	0.0016903
2228.04	0.001494
2237.68	0.0013666
2247.33	0.0011955
2256.97	0.0013251
2266.62	0.0013664
2276.26	0.00145
2285.91	0.0017208
2295.55	0.002336
2305.2	0.003376
2314.84	0.004406
2324.49	0.005086
2334.13	0.004926
2343.78	0.004506
2353.42	0.005026
2363.07	0.006426
2372.72	0.005266
2382.36	0.002556
2392.01	0.0013415
2401.65	0.0011697
2411.3	0.0012151
2420.94	0.001209
2430.59	0.0012949
2440.23	0.0012956
2449.88	0.001358
2459.52	0.0013361
2469.17	0.0012891
2478.81	0.0011747
2488.46	0.0010901
2498.1	0.0010492
2507.75	0.0010536
2517.39	0.0009694
2527.04	0.0009646
2536.68	0.0010057
2546.33	0.000976
2555.97	0.000904
2565.62	0.0009254
2575.26	0.00083515
2584.91	0.0008585
2594.55	0.00079144
2604.2	0.0008851
2613.84	0.0009595
2623.49	0.0009117
2633.13	0.0008952
2642.78	0.0009396
2652.42	0.0008864
2662.07	0.00079904
2671.71	0.00079726
2681.36	0.00083172
2691	0.00074628
2700.65	0.00084352
2710.29	0.00083357
2719.94	0.0008438
2729.58	0.0008679
2739.23	0.0010386
2748.87	0.0010505
2758.52	0.0011423
2768.16	0.0010161
2777.81	0.0011414
2787.45	0.0012919
2797.1	0.0014582
2806.74	0.001786
2816.39	0.001976
2826.03	0.002186
2835.68	0.002536
2845.32	0.003326
2854.97	0.003486
2864.61	0.003626
2874.26	0.003526
2883.9	0.003536
2893.55	0.003626
2903.19	0.003906
2912.84	0.004296
2922.48	0.004596
2932.13	0.004546
2941.77	0.005136
2951.42	0.007036
2961.06	0.013226
2970.71	0.012906
2980.35	0.006646
2990	0.005326
2999.64	0.005266
3009.29	0.005666
3018.93	0.005156
3028.58	0.004716
3038.22	0.004446
3047.87	0.003916
3057.51	0.003556
3067.16	0.003406
3076.8	0.003216
3086.45	0.003076
3096.09	0.003046
3105.74	0.003496
3115.38	0.003436
3125.03	0.002946
3134.67	0.002396
3144.32	0.002336
3153.96	0.002046
3163.61	0.001876
3173.25	0.0017158
3182.9	0.001766
3192.54	0.001886
3202.19	0.001796
3211.83	0.0017238
3221.48	0.0017038
3231.12	0.0016217
3240.77	0.0015931
3250.41	0.0016317
3260.06	0.0014287
3269.7	0.0013537
3279.35	0.001466
3289	0.0014997
3298.64	0.0012668
3308.29	0.0012319
3317.93	0.0012725
3327.58	0.0010511
3337.22	0.0009259
3346.87	0.0009151
3356.51	0.0011223
3366.16	0.0011484
3375.8	0.0010862
3385.45	0.0013089
3395.09	0.0013422
3404.74	0.0012599
3414.38	0.0009932
3424.03	0.00084645
3433.67	0.000589
3443.32	0.0007007
3452.96	0.000621
3462.61	0.000592
3472.25	0.0006713
3481.9	0.000617
3491.54	0.0007778
3501.19	0.0009729
3510.83	0.0010046
3520.48	0.0010051
3530.12	0.00102
3539.77	0.0009529
3549.41	0.000756612
3559.06	0.0006719
3568.7	0.000344
3578.35	0.000438
3587.99	0.000202
3597.64	0.000408
3607.28	0.000232
3616.93	0.000479
3626.57	0.0006735
3636.22	0.00083985
3645.86	0.0009366
3655.51	0.0007193
3665.15	0.000617
3674.8	0.000456
3684.44	0.000514
3694.09	0.000622
3703.73	0.0007311
3713.38	0.0007251
3723.02	0.000489
3732.67	0.000643
3742.31	0.00042
3751.96	0.000269
3761.6	0.000331
3771.25	0.000171
3780.89	0.00014
3790.54	0.000174
3800.18	0.000107
3809.83	7.2e-05
3819.47	5.5e-05
3829.12	0.000158
3838.76	6.9e-05
3848.41	0.000196
3858.05	4.5e-05
3867.7	0.000284
3877.34	0.000184
3886.99	0.000157
3896.63	0.000256
3906.28	0.000161
3915.92	0.000213
3925.57	7.8e-05
3935.21	0.000119
3944.86	0.000216
3954.5	0.000179
3964.15	8.1e-05
3973.79	0.000195
3983.44	7e-05
3993.08	0.000208
