Infrared Spectrum: 4-M-CHLOROANILINO-6-METHYL-1,3,3a,7-TETRAZAINDENE
Formula: C12 H10 Cl N5
CAS: 104997-66-2
State: SOLID (KBr PRESSING)
Melting point: 228 C
Class: COBLENTZ
Instrument: Not specified, most likely a prism, grating, or hybrid spectrometer.
Sampling: TRANSMISSION
Resolution: 4
Origin: EASTMAN KODAK COMPANY, RESEARCH LABORATORIES, ROCHESTER, N.Y.
MICROMETERS	TRANSMITTANCE
2.031	0.798
2.06636	0.804
2.10172	0.811
2.13708	0.812
2.17244	0.812
2.2078	0.812
2.24316	0.812
2.27852	0.814
2.31388	0.818
2.34924	0.818
2.3846	0.818
2.41996	0.818
2.45532	0.818
2.49069	0.818
2.52605	0.818
2.56141	0.819
2.59677	0.826
2.63213	0.83
2.66749	0.83
2.70285	0.825
2.73821	0.779
2.77357	0.697
2.80893	0.622
2.84429	0.573
2.87965	0.538
2.91501	0.533
2.95037	0.548
2.98573	0.592
3.02109	0.634
3.05645	0.636
3.09181	0.622
3.12717	0.61
3.16253	0.606
3.19789	0.606
3.23325	0.601
3.26861	0.603
3.30397	0.627
3.33933	0.634
3.37469	0.631
3.41006	0.624
3.44542	0.669
3.48078	0.702
3.51614	0.73
3.5515	0.751
3.58686	0.767
3.62222	0.79
3.65758	0.8
3.69294	0.812
3.7283	0.823
3.76366	0.839
3.79902	0.847
3.83438	0.851
3.86974	0.86
3.9051	0.867
3.94046	0.868
3.97582	0.868
4.01118	0.875
4.04654	0.877
4.0819	0.881
4.11726	0.881
4.15262	0.881
4.18798	0.882
4.22334	0.889
4.2587	0.895
4.29407	0.896
4.32943	0.896
4.36479	0.893
4.40015	0.891
4.43551	0.893
4.47087	0.895
4.50623	0.9
4.54159	0.9
4.57695	0.898
4.61231	0.896
4.64767	0.893
4.68303	0.893
4.71839	0.893
4.75375	0.893
4.78911	0.896
4.82447	0.895
4.85983	0.898
4.89519	0.898
4.93055	0.898
4.96591	0.902
5.00127	0.902
5.03663	0.903
5.07199	0.903
5.10735	0.902
5.14271	0.896
5.17808	0.898
5.21344	0.9
5.2488	0.902
5.28416	0.9
5.31952	0.9
5.35488	0.896
5.39024	0.893
5.4256	0.886
5.46096	0.888
5.49632	0.882
5.53168	0.881
5.56704	0.881
5.6024	0.886
5.63776	0.884
5.67312	0.884
5.70848	0.875
5.74384	0.867
5.7792	0.854
5.81456	0.851
5.84992	0.854
5.88528	0.854
5.92064	0.847
5.956	0.837
5.99136	0.793
6.02672	0.722
6.06208	0.683
6.09745	0.555
6.13281	0.361
6.16817	0.153
6.20353	0.157
6.23889	0.106
6.27425	0.103
6.30961	0.131
6.34497	0.118
6.38033	0.075
6.41569	0.099
6.45105	0.396
6.48641	0.456
6.52177	0.571
6.55713	0.54
6.59249	0.365
6.62785	0.342
6.66321	0.58
6.69857	0.589
6.73393	0.477
6.76929	0.318
6.80465	0.402
6.84001	0.515
6.87537	0.538
6.91073	0.534
6.94609	0.479
6.98146	0.43
7.01682	0.349
7.05218	0.351
7.08754	0.479
7.1229	0.534
7.15826	0.608
7.19362	0.758
7.22898	0.776
7.26434	0.781
7.2997	0.734
7.33506	0.697
7.37042	0.772
7.40578	0.769
7.44114	0.65
7.4765	0.506
7.51186	0.416
7.54722	0.538
7.58258	0.617
7.61794	0.617
7.6533	0.618
7.68866	0.65
7.72402	0.722
7.75938	0.734
7.79474	0.624
7.8301	0.555
7.86547	0.639
7.90083	0.695
7.93619	0.594
7.97155	0.414
8.00691	0.34
8.04227	0.596
8.07763	0.694
8.11299	0.743
8.14835	0.793
8.18371	0.816
8.21907	0.807
8.25443	0.746
8.28979	0.732
8.32515	0.678
8.36051	0.431
8.39587	0.361
8.43123	0.639
8.46659	0.753
8.50195	0.772
8.53731	0.744
8.57267	0.72
8.60803	0.75
8.64339	0.786
8.67875	0.805
8.71411	0.814
8.74947	0.819
8.78484	0.819
8.8202	0.819
8.85556	0.814
8.89092	0.774
8.92628	0.676
8.96164	0.701
8.997	0.791
9.03236	0.807
9.06772	0.79
9.10308	0.756
9.13844	0.743
9.1738	0.774
9.20916	0.793
9.24452	0.758
9.27988	0.729
9.31524	0.76
9.3506	0.805
9.38596	0.823
9.42132	0.832
9.45668	0.844
9.49204	0.847
9.5274	0.849
9.56276	0.849
9.59812	0.84
9.63348	0.825
9.66885	0.809
9.70421	0.814
9.73957	0.819
9.77493	0.818
9.81029	0.805
9.84565	0.786
9.88101	0.777
9.91637	0.79
9.95173	0.8
9.98709	0.797
10.0224	0.776
10.0578	0.826
10.0932	0.853
10.1285	0.858
10.1639	0.861
10.1993	0.867
10.2346	0.87
10.27	0.87
10.3053	0.861
10.3407	0.865
10.3761	0.872
10.4114	0.874
10.4468	0.858
10.4821	0.851
10.5175	0.856
10.5529	0.863
10.5882	0.875
10.6236	0.875
10.6589	0.877
10.6943	0.877
10.7297	0.877
10.765	0.874
10.8004	0.867
10.8357	0.856
10.8711	0.853
10.9065	0.833
10.9418	0.8
10.9772	0.765
11.0125	0.739
11.0479	0.725
11.0833	0.725
11.1186	0.734
11.154	0.734
11.1893	0.727
11.2247	0.727
11.2601	0.741
11.2954	0.748
11.3308	0.748
11.3661	0.741
11.4015	0.744
11.4369	0.769
11.4722	0.788
11.5076	0.805
11.5429	0.814
11.5783	0.825
11.6137	0.832
11.649	0.833
11.6844	0.849
11.7197	0.854
11.7551	0.854
11.7905	0.854
11.8258	0.847
11.8612	0.854
11.8966	0.854
11.9319	0.851
11.9673	0.849
12.0026	0.846
12.038	0.835
12.0734	0.832
12.1087	0.816
12.1441	0.804
12.1794	0.777
12.2148	0.756
12.2502	0.751
12.2855	0.751
12.3209	0.746
12.3562	0.734
12.3916	0.725
12.427	0.727
12.4623	0.734
12.4977	0.734
12.533	0.727
12.5684	0.716
12.6038	0.694
12.6391	0.676
12.6745	0.653
12.7098	0.636
12.7452	0.631
12.7806	0.629
12.8159	0.62
12.8513	0.575
12.8866	0.449
12.922	0.34
12.9574	0.403
12.9927	0.643
13.0281	0.697
13.0634	0.697
13.0988	0.683
13.1342	0.662
13.1695	0.648
13.2049	0.65
13.2402	0.669
13.2756	0.683
13.311	0.704
13.3463	0.722
13.3817	0.743
13.417	0.753
13.4524	0.77
13.4878	0.781
13.5231	0.783
13.5585	0.781
13.5938	0.781
13.6292	0.774
13.6646	0.774
13.6999	0.776
13.7353	0.767
13.7707	0.767
13.806	0.765
13.8414	0.762
13.8767	0.753
13.9121	0.744
13.9475	0.743
13.9828	0.743
14.0182	0.737
14.0535	0.734
14.0889	0.73
14.1243	0.722
14.1596	0.709
14.195	0.685
14.2303	0.659
14.2657	0.611
14.3011	0.582
14.3364	0.564
14.3718	0.562
14.4071	0.562
14.4425	0.569
14.4779	0.592
14.5132	0.638
14.5486	0.657
14.5839	0.655
14.6193	0.617
14.6547	0.575
14.69	0.557
14.7254	0.548
14.7607	0.536
14.7961	0.527
14.8315	0.522
14.8668	0.562
14.9022	0.632
14.9375	0.68
14.9729	0.713
15.0083	0.741
15.0436	0.748
15.079	0.755
15.1143	0.763
15.1497	0.767
15.1851	0.77
15.2204	0.774
15.2558	0.776
15.2911	0.777
15.3265	0.777
15.3619	0.777
15.3972	0.777
15.4326	0.779
15.4679	0.777
15.5033	0.777
15.5387	0.772
15.574	0.76
15.6094	0.75
15.6448	0.73
15.6801	0.727
15.7155	0.729
15.7508	0.736
15.7862	0.753
15.8216	0.769
15.8569	0.77
15.8923	0.765
15.9276	0.756
15.963	0.753
15.9984	0.751
