Infrared Spectrum: 3-(o-Methoxy phenyl)-1-propanol
Formula: C10 H14 O2
CAS: 10493-37-5
State: SOLUTION (10% CCl4 FOR 3800-1330, 10% CS2 FOR 1330-400 CM^-^1)
Class: COBLENTZ III
Instrument: DOW KBr FOREPRISM-GRATING
Instrument parameters: BLAZED AT 3.5, 12.0, 20.0 MICRON AND CHANGED AT 5.0, 7.5, 14.9 MICRON
Sampling: TRANSMISSION
Path length: 0.011 CM, 0.011 CM
Resolution: 2
Origin: DOW CHEMICAL COMPANY
1/CM	TRANSMITTANCE
3798	0.8843
3789	0.8865
3780	0.8867
3771	0.8864
3762	0.8853
3753	0.8768
3744	0.8791
3735	0.8808
3726	0.8813
3717	0.8806
3708	0.8812
3699	0.879
3690	0.8713
3681	0.8606
3672	0.8542
3663	0.852
3654	0.8252
3645	0.7387
3636	0.6707
3627	0.6761
3618	0.7098
3609	0.7371
3600	0.7382
3591	0.7175
3582	0.6809
3573	0.6726
3564	0.6569
3555	0.6446
3546	0.6355
3537	0.625
3528	0.6109
3519	0.5935
3510	0.5738
3501	0.5552
3492	0.5391
3483	0.5283
3474	0.5198
3465	0.5133
3456	0.5075
3447	0.5021
3438	0.4971
3429	0.4931
3420	0.4892
3411	0.4863
3402	0.4835
3393	0.4812
3384	0.4793
3375	0.4778
3366	0.4767
3357	0.4757
3348	0.4766
3339	0.4805
3330	0.4864
3321	0.4939
3312	0.503
3303	0.5127
3294	0.5271
3285	0.5471
3276	0.5689
3267	0.5906
3258	0.6114
3249	0.6346
3240	0.6569
3231	0.6784
3222	0.6995
3213	0.7169
3204	0.7316
3195	0.7453
3186	0.758
3177	0.77
3168	0.7817
3159	0.7917
3150	0.7989
3141	0.8031
3132	0.8071
3123	0.8073
3114	0.78
3105	0.7748
3096	0.7845
3087	0.7122
3078	0.6658
3069	0.6473
3060	0.6753
3051	0.664
3042	0.6835
3033	0.5922
3024	0.5942
3015	0.5922
3006	0.5022
2997	0.5791
2988	0.6418
2979	0.4822
2970	0.239
2961	0.1633
2952	0.1435
2943	0.1271
2934	0.1725
2925	0.2195
2916	0.2694
2907	0.3202
2898	0.3654
2889	0.3568
2880	0.3289
2871	0.3491
2862	0.4002
2853	0.4778
2844	0.3679
2835	0.3842
2826	0.6025
2817	0.7083
2808	0.7457
2799	0.7666
2790	0.7821
2781	0.7935
2772	0.8036
2763	0.811
2754	0.8157
2745	0.8193
2736	0.8228
2727	0.8256
2718	0.8287
2709	0.8327
2700	0.8378
2691	0.8429
2682	0.8478
2673	0.8519
2664	0.8545
2655	0.8554
2646	0.8544
2637	0.8526
2628	0.8541
2619	0.8544
2610	0.8568
2601	0.8592
2592	0.8613
2583	0.863
2574	0.8642
2565	0.8651
2556	0.8676
2547	0.8666
2538	0.8613
2529	0.8623
2520	0.8686
2511	0.872
2502	0.8723
2493	0.8615
2484	0.8566
2475	0.8662
2466	0.8724
2457	0.8773
2448	0.8837
2439	0.8883
2430	0.8896
2421	0.8876
2412	0.8878
2403	0.8902
2394	0.8924
2385	0.8946
2376	0.8984
2367	0.8961
2358	0.8962
2349	0.8941
2340	0.8908
2331	0.8868
2322	0.8944
2313	0.8986
2304	0.8975
2295	0.8956
2286	0.8942
2277	0.8958
2268	0.8978
2259	0.9021
2250	0.9023
2241	0.9029
2232	0.9021
2223	0.902
2214	0.8998
2205	0.9009
2196	0.9018
2187	0.9027
2178	0.9055
2169	0.9054
2160	0.9036
2151	0.9051
2142	0.9068
2133	0.9082
2124	0.9086
2115	0.9084
2106	0.9057
2097	0.8937
2088	0.8841
2079	0.8722
2070	0.8658
2061	0.8725
2052	0.88
2043	0.8834
2034	0.8906
2025	0.8945
2016	0.894
2007	0.8916
1998	0.8938
1989	0.9101
1980	0.9111
1971	0.9114
1962	0.9312
1953	0.9243
1944	0.9192
1935	0.9038
1926	0.8897
1917	0.914
1908	0.9163
1899	0.8859
1890	0.8654
1881	0.8986
1872	0.9165
1863	0.9162
1854	0.9129
1845	0.9185
1836	0.9232
1827	0.9236
1818	0.9213
1809	0.9159
1800	0.9154
1791	0.9157
1782	0.9076
1773	0.8942
1764	0.9082
1755	0.9141
1746	0.9159
1737	0.9134
1728	0.9111
1719	0.9128
1710	0.9137
1701	0.9043
1692	0.9084
1683	0.8978
1674	0.8958
1665	0.9068
1656	0.9033
1647	0.906
1638	0.8966
1629	0.8919
1620	0.8576
1611	0.602
1602	0.443
1593	0.3383
1584	0.6239
1575	0.7596
1566	0.7612
1557	0.7686
1548	0.8394
1539	0.8576
1530	0.8303
1521	0.784
1512	0.5777
1503	0.1779
1494	0.1122
1485	0.5298
1476	0.3979
1467	0.143
1458	0.2921
1449	0.4215
1440	0.26
1431	0.6675
1422	0.6916
1413	0.6884
1404	0.6509
1395	0.6047
1386	0.6583
1377	0.689
1368	0.7072
1359	0.7154
1350	0.6914
1341	0.6878
1332	0.607
1323	0.5868
1314	0.6558
1305	0.6517
1296	0.4787
1287	0.4949
1278	0.6336
1269	0.6001
1260	0.5055
1251	0.1178
1242	0.0102
1233	0.1974
1224	0.6053
1215	0.702
1206	0.7243
1197	0.6684
1188	0.6195
1179	0.2236
1170	0.6051
1161	0.5331
1152	0.6884
1143	0.7495
1134	0.7824
1125	0.4957
1116	0.3615
1107	0.7022
1098	0.8353
1089	0.7686
1080	0.5019
1071	0.3299
1062	0.2212
1053	0.1088
1044	0.0435
1035	0.1126
1026	0.2672
1017	0.4596
1008	0.5612
999	0.712
990	0.8347
981	0.8686
972	0.8904
963	0.8987
954	0.9045
945	0.8567
936	0.6895
927	0.5465
918	0.7783
909	0.7774
900	0.8744
891	0.9065
882	0.8899
873	0.8835
864	0.82
855	0.8264
846	0.8748
837	0.8802
828	0.8349
819	0.848
810	0.8889
801	0.8781
792	0.8399
783	0.8089
774	0.7566
765	0.5486
756	0.0859
747	0.2737
738	0.5227
729	0.5368
720	0.7818
711	0.8358
702	0.855
693	0.8828
684	0.8959
675	0.9091
666	0.9181
657	0.8955
648	0.8943
639	0.9011
630	0.9089
621	0.9159
612	0.91
603	0.887
594	0.8772
585	0.8947
576	0.8484
567	0.8315
558	0.8928
549	0.8951
540	0.8508
531	0.8496
522	0.859
513	0.901
504	0.895
495	0.8599
486	0.8542
477	0.8597
468	0.8045
459	0.7942
450	0.874
441	0.8917
432	0.9043
423	0.8776
414	0.7592
405	0.5774
396	0.3746
387	0.297
