Infrared Spectrum: O-NITRO CARBANILIC ACID, CEDROL ESTER
Formula: C22 H30 N2 O4
CAS: 104913-49-7
State: SOLID (1.5 mg / 100 mg KBr)
Class: COBLENTZ
Instrument: Not specified, most likely a grating spectrometer.
Sampling: TRANSMISSION
Resolution: 4
Origin: CITRUS EXPERIMENT STATION, UNIVERSITY OF FLORIDA (G. EDWARDS)
MICROMETERS	TRANSMITTANCE
2.033	0.58
2.06622	0.581
2.09945	0.585
2.13267	0.588
2.16589	0.589
2.19911	0.593
2.23234	0.597
2.26556	0.6
2.29878	0.605
2.33201	0.608
2.36523	0.612
2.39845	0.618
2.43168	0.625
2.4649	0.627
2.49812	0.631
2.53134	0.635
2.56457	0.64
2.59779	0.643
2.63101	0.647
2.66424	0.651
2.69746	0.651
2.73068	0.652
2.76391	0.652
2.79713	0.652
2.83035	0.651
2.86357	0.648
2.8968	0.639
2.93002	0.568
2.96324	0.604
2.99647	0.657
3.02969	0.672
3.06291	0.675
3.09614	0.676
3.12936	0.68
3.16258	0.68
3.1958	0.68
3.22903	0.684
3.26225	0.685
3.29547	0.679
3.3287	0.596
3.36192	0.434
3.39514	0.479
3.42837	0.581
3.46159	0.564
3.49481	0.652
3.52803	0.711
3.56126	0.717
3.59448	0.721
3.6277	0.728
3.66093	0.731
3.69415	0.735
3.72737	0.736
3.7606	0.736
3.79382	0.743
3.82704	0.745
3.86026	0.75
3.89349	0.752
3.92671	0.752
3.95993	0.758
3.99316	0.762
4.02638	0.762
4.0596	0.764
4.09283	0.766
4.12605	0.767
4.15927	0.77
4.19249	0.772
4.22572	0.779
4.25894	0.779
4.29216	0.779
4.32539	0.779
4.35861	0.782
4.39183	0.784
4.42506	0.783
4.45828	0.784
4.4915	0.787
4.52472	0.79
4.55795	0.792
4.59117	0.794
4.62439	0.796
4.65762	0.798
4.69084	0.799
4.72406	0.8
4.75729	0.802
4.79051	0.802
4.82373	0.802
4.85695	0.802
4.89018	0.8
4.9234	0.8
4.95662	0.802
4.98985	0.802
5.02307	0.802
5.05629	0.8
5.08952	0.803
5.12274	0.804
5.15596	0.81
5.18918	0.81
5.22241	0.812
5.25563	0.812
5.28885	0.814
5.32208	0.814
5.3553	0.812
5.38852	0.811
5.42175	0.81
5.45497	0.804
5.48819	0.803
5.52141	0.8
5.55464	0.799
5.58786	0.798
5.62108	0.787
5.65431	0.768
5.68753	0.676
5.72075	0.382
5.75397	0.446
5.7872	0.627
5.82042	0.77
5.85364	0.79
5.88687	0.795
5.92009	0.8
5.95331	0.799
5.98654	0.796
6.01976	0.792
6.05298	0.782
6.0862	0.783
6.11943	0.766
6.15265	0.704
6.18587	0.493
6.2191	0.641
6.25232	0.729
6.28554	0.621
6.31877	0.498
6.35199	0.751
6.38521	0.762
6.41843	0.736
6.45166	0.716
6.48488	0.717
6.5181	0.677
6.55133	0.437
6.58455	0.332
6.61777	0.217
6.651	0.335
6.68422	0.529
6.71744	0.651
6.75066	0.684
6.78389	0.612
6.81711	0.586
6.85033	0.486
6.88356	0.506
6.91678	0.574
6.95	0.461
6.98323	0.481
7.01645	0.584
7.04967	0.685
7.08289	0.725
7.11612	0.751
7.14934	0.743
7.18256	0.729
7.21579	0.716
7.24901	0.641
7.28223	0.725
7.31546	0.7
7.34868	0.692
7.3819	0.604
7.41512	0.296
7.44835	0.335
7.48157	0.49
7.51479	0.629
7.54802	0.581
7.58124	0.627
7.61446	0.672
7.64769	0.673
7.68091	0.683
7.71413	0.648
7.74735	0.606
7.78058	0.584
7.8138	0.581
7.84702	0.582
7.88025	0.585
7.91347	0.552
7.94669	0.605
7.97992	0.586
8.01314	0.471
8.04636	0.292
8.07958	0.401
8.11281	0.546
8.14603	0.648
8.17925	0.685
8.21248	0.664
8.2457	0.621
8.27892	0.506
8.31215	0.387
8.34537	0.431
8.37859	0.565
8.41181	0.628
8.44504	0.675
8.47826	0.652
8.51148	0.673
8.54471	0.667
8.57793	0.667
8.61115	0.705
8.64438	0.74
8.6776	0.66
8.71082	0.58
8.74404	0.687
8.77727	0.76
8.81049	0.782
8.84371	0.771
8.87694	0.747
8.91016	0.715
8.94338	0.704
8.9766	0.629
9.00983	0.594
9.04305	0.462
9.07627	0.406
9.1095	0.431
9.14272	0.561
9.17594	0.61
9.20917	0.502
9.24239	0.546
9.27561	0.667
9.30883	0.739
9.34206	0.758
9.37528	0.755
9.4085	0.775
9.44173	0.78
9.47495	0.775
9.50817	0.767
9.5414	0.735
9.57462	0.657
9.60784	0.68
9.64106	0.668
9.67429	0.683
9.70751	0.754
9.74073	0.79
9.77396	0.782
9.80718	0.791
9.8404	0.802
9.87363	0.8
9.90685	0.811
9.94007	0.824
9.97329	0.824
10.0065	0.828
10.0397	0.851
10.073	0.86
10.1062	0.863
10.1394	0.86
10.1726	0.859
10.2059	0.855
10.2391	0.855
10.2723	0.843
10.3055	0.812
10.3387	0.818
10.372	0.835
10.4052	0.835
10.4384	0.832
10.4716	0.851
10.5049	0.866
10.5381	0.866
10.5713	0.856
10.6045	0.846
10.6378	0.84
10.671	0.851
10.7042	0.854
10.7374	0.842
10.7706	0.839
10.8039	0.862
10.8371	0.858
10.8703	0.831
10.9035	0.83
10.9368	0.863
10.97	0.871
11.0032	0.868
11.0364	0.871
11.0697	0.867
11.1029	0.856
11.1361	0.83
11.1693	0.831
11.2025	0.854
11.2358	0.874
11.269	0.882
11.3022	0.889
11.3354	0.901
11.3687	0.902
11.4019	0.899
11.4351	0.891
11.4683	0.868
11.5016	0.839
11.5348	0.756
11.568	0.74
11.6012	0.78
11.6344	0.816
11.6677	0.854
11.7009	0.872
11.7341	0.882
11.7673	0.887
11.8006	0.889
11.8338	0.889
11.867	0.883
11.9002	0.879
11.9335	0.872
11.9667	0.863
11.9999	0.846
12.0331	0.814
12.0663	0.779
12.0996	0.776
12.1328	0.806
12.166	0.844
12.1992	0.864
12.2325	0.882
12.2657	0.887
12.2989	0.895
12.3321	0.899
12.3653	0.902
12.3986	0.906
12.4318	0.909
12.465	0.909
12.4982	0.906
12.5315	0.902
12.5647	0.895
12.5979	0.887
12.6311	0.868
12.6644	0.852
12.6976	0.83
12.7308	0.767
12.764	0.744
12.7972	0.745
12.8305	0.799
12.8637	0.852
12.8969	0.863
12.9301	0.864
12.9634	0.862
12.9966	0.854
13.0298	0.836
13.063	0.814
13.0963	0.799
13.1295	0.814
13.1627	0.844
13.1959	0.863
13.2291	0.872
13.2624	0.868
13.2956	0.836
13.3288	0.766
13.362	0.776
13.3953	0.766
13.4285	0.668
13.4617	0.622
13.4949	0.68
13.5282	0.732
13.5614	0.774
13.5946	0.808
13.6278	0.852
13.661	0.868
13.6943	0.874
13.7275	0.879
13.7607	0.893
13.7939	0.902
13.8272	0.913
13.8604	0.914
13.8936	0.919
13.9268	0.923
13.9601	0.926
13.9933	0.926
14.0265	0.925
14.0597	0.925
14.0929	0.925
14.1262	0.925
14.1594	0.925
14.1926	0.925
14.2258	0.925
14.2591	0.925
14.2923	0.926
14.3255	0.925
14.3587	0.925
14.392	0.917
14.4252	0.91
14.4584	0.902
14.4916	0.897
14.5248	0.893
14.5581	0.901
14.5913	0.907
14.6245	0.919
14.6577	0.927
14.691	0.933
14.7242	0.934
14.7574	0.937
14.7906	0.939
14.8239	0.941
14.8571	0.939
14.8903	0.929
14.9235	0.925
14.9567	0.93
14.99	0.957
