Infrared Spectrum: 3,5-Dimethoxyphenyl isothiocyanate
Formula: C 9 H 9 N O 2 S
CAS: 104968-58-3
State: gas
Origin: EPA-IR VAPOR PHASE LIBRARY
1/CM	ABSORBANCE
549.8	0.010816
559.445	0.010586
569.09	0.008906
578.734	0.007706
588.379	0.007186
598.024	0.007406
607.669	0.007436
617.313	0.007336
626.958	0.007416
636.603	0.006946
646.248	0.005676
655.893	0.005686
665.537	0.010856
675.182	0.014866
684.827	0.008766
694.472	0.004516
704.116	0.002956
713.761	0.002006
723.406	0.001746
733.051	0.002566
742.695	0.003806
752.34	0.005286
761.985	0.006336
771.63	0.011416
781.275	0.029046
790.919	0.050006
800.564	0.033926
810.209	0.016456
819.854	0.016346
829.498	0.018796
839.143	0.027236
848.788	0.027616
858.433	0.014976
868.078	0.006726
877.722	0.004606
887.367	0.004196
897.012	0.003976
906.657	0.004876
916.301	0.007226
925.946	0.011626
935.591	0.012046
945.236	0.007166
954.88	0.004816
964.525	0.004556
974.17	0.005456
983.815	0.009986
993.46	0.018326
1003.1	0.028076
1012.75	0.020716
1022.39	0.010266
1032.04	0.010056
1041.68	0.016796
1051.33	0.036596
1060.97	0.057166
1070.62	0.041096
1080.26	0.016576
1089.91	0.009636
1099.55	0.007186
1109.2	0.008026
1118.84	0.010326
1128.49	0.017816
1138.13	0.038096
1147.78	0.098986
1157.42	0.166946
1167.07	0.127636
1176.71	0.056006
1186.36	0.059206
1196	0.093536
1205.64	0.094976
1215.29	0.056296
1224.93	0.022546
1234.58	0.016346
1244.22	0.012446
1253.87	0.007596
1263.51	0.005826
1273.16	0.005636
1282.8	0.007516
1292.45	0.012056
1302.09	0.013926
1311.74	0.015366
1321.38	0.022236
1331.03	0.037386
1340.67	0.041926
1350.32	0.027546
1359.96	0.015626
1369.61	0.008876
1379.25	0.007906
1388.9	0.009926
1398.54	0.014906
1408.18	0.022126
1417.83	0.037056
1427.47	0.056806
1437.12	0.054826
1446.76	0.045456
1456.41	0.055336
1466.05	0.077656
1475.7	0.057196
1485.34	0.026136
1494.99	0.015476
1504.63	0.012936
1514.28	0.012106
1523.92	0.012576
1533.57	0.014106
1543.21	0.017126
1552.86	0.023286
1562.5	0.037016
1572.15	0.072366
1581.79	0.157066
1591.44	0.270176
1601.08	0.275806
1610.73	0.160276
1620.37	0.074206
1630.01	0.037876
1639.66	0.022166
1649.3	0.015756
1658.95	0.012776
1668.59	0.010536
1678.24	0.008316
1687.88	0.006806
1697.53	0.006106
1707.17	0.005386
1716.82	0.004896
1726.46	0.004286
1736.11	0.003796
1745.75	0.003576
1755.4	0.003296
1765.04	0.003026
1774.69	0.003156
1784.33	0.003436
1793.98	0.003636
1803.62	0.003456
1813.27	0.003066
1822.91	0.002916
1832.55	0.002686
1842.2	0.002726
1851.84	0.002806
1861.49	0.002986
1871.13	0.003326
1880.78	0.004116
1890.42	0.005156
1900.07	0.006706
1909.71	0.008816
1919.36	0.011966
1929	0.016606
1938.65	0.023396
1948.29	0.032606
1957.94	0.044716
1967.58	0.060516
1977.23	0.080756
1986.87	0.105196
1996.52	0.133906
2006.16	0.167426
2015.81	0.198436
2025.45	0.226116
2035.1	0.261496
2044.74	0.290146
2054.38	0.241396
2064.03	0.172736
2073.67	0.164246
2083.32	0.204106
2092.96	0.231066
2102.61	0.191926
2112.25	0.127226
2121.9	0.089886
2131.54	0.078746
2141.19	0.072376
2150.83	0.057326
2160.48	0.041776
2170.12	0.032936
2179.77	0.026296
2189.41	0.019646
2199.06	0.015376
2208.7	0.012316
2218.35	0.010486
2227.99	0.008586
2237.64	0.006286
2247.28	0.005356
2256.92	0.004596
2266.57	0.003746
2276.21	0.003186
2285.86	0.002836
2295.5	0.002736
2305.15	0.002836
2314.79	0.003436
2324.44	0.004366
2334.08	0.004806
2343.73	0.004436
2353.37	0.004176
2363.02	0.004066
2372.66	0.003456
2382.31	0.003346
2391.95	0.003506
2401.6	0.003366
2411.24	0.003276
2420.89	0.003166
2430.53	0.003076
2440.18	0.003026
2449.82	0.003126
2459.47	0.003286
2469.11	0.003306
2478.75	0.003376
2488.4	0.003826
2498.04	0.003956
2507.69	0.003936
2517.33	0.004026
2526.98	0.004336
2536.62	0.004446
2546.27	0.004506
2555.91	0.004496
2565.56	0.004746
2575.2	0.004786
2584.85	0.004696
2594.49	0.004436
2604.14	0.004156
2613.78	0.003526
2623.43	0.002816
2633.07	0.002496
2642.72	0.002276
2652.36	0.002076
2662.01	0.001876
2671.65	0.001726
2681.29	0.0014261
2690.94	0.0012607
2700.58	0.0012254
2710.23	0.0013849
2719.87	0.0013716
2729.52	0.0013974
2739.16	0.0015782
2748.81	0.001896
2758.45	0.002456
2768.1	0.003046
2777.74	0.003266
2787.39	0.003726
2797.03	0.004106
2806.68	0.004906
2816.32	0.005906
2825.97	0.008006
2835.61	0.013336
2845.26	0.022886
2854.9	0.020956
2864.55	0.012956
2874.19	0.010876
2883.84	0.011396
2893.48	0.012756
2903.12	0.014026
2912.77	0.016116
2922.41	0.017376
2932.06	0.018896
2941.7	0.029616
2951.35	0.037966
2960.99	0.031556
2970.64	0.023696
2980.28	0.014476
2989.93	0.012316
2999.57	0.017496
3009.22	0.029916
3018.86	0.022336
3028.51	0.008346
3038.15	0.005126
3047.8	0.003906
3057.44	0.003106
3067.09	0.002806
3076.73	0.002696
3086.38	0.002926
3096.02	0.003116
3105.67	0.002666
3115.31	0.002086
3124.95	0.001676
3134.6	0.001646
3144.24	0.001385
3153.89	0.0013337
3163.53	0.0011736
3173.18	0.0010812
3182.82	0.0010374
3192.47	0.0010391
3202.11	0.0007953
3211.76	0.0009984
3221.4	0.0007232
3231.05	0.000595815
3240.69	0.000591498
3250.34	0.000479
3259.98	0.000294
3269.63	0.0005324
3279.27	0.000349
3288.92	0.000302
3298.56	0.000237
3308.21	0.000319
3317.85	0.000127
3327.49	0.000476
3337.14	0.000232
3346.78	0.000218
3356.43	0.000338
3366.07	0.000437
3375.72	0.0004921
3385.36	0.00021
3395.01	0.000287
3404.65	0.000414
3414.3	0.000336
3423.94	0.000407
3433.59	0.000358
3443.23	0.000429
3452.88	0.00062062
3462.52	0.000282
3472.17	0.000388
3481.81	0.0004862
3491.46	0.0005213
3501.1	0.000436
3510.75	0.000433
3520.39	0.000284
3530.04	0.0004969
3539.68	0.000321
3549.32	0.0004
3558.97	0.000482
3568.61	0.0005426
3578.26	0.000336
3587.9	0.000271
3597.55	0.0005756
3607.19	0.000590455
3616.84	0.0005044
3626.48	0.000447
3636.13	0.000444
3645.77	0.000787
3655.42	0.00056
3665.06	0.000391
3674.71	0.0005012
3684.35	0.000589998
3694	0.00057947
3703.64	0.000407
3713.29	0.00045
3722.93	0.000431
3732.58	0.0007842
3742.22	0.000375
3751.86	0.00058197
3761.51	0.0006643
3771.15	0.0005516
3780.8	0.0006995
3790.44	0.00064453
3800.09	0.00066123
3809.73	0.0007902
3819.38	0.0006435
3829.02	0.0007771
3838.67	0.0007359
3848.31	0.0008349
3857.96	0.00061439
3867.6	0.00067054
3877.25	0.000979
3886.89	0.0009454
3896.54	0.0010061
3906.18	0.0010315
3915.83	0.0011394
3925.47	0.0011282
3935.12	0.0012899
3944.76	0.0014283
3954.41	0.0015494
3964.05	0.001626
3973.69	0.001736
3983.34	0.001876
3992.98	0.002016
