Infrared Spectrum: cis-1,2-Dichlorocyclohexane
Formula: C 6 H 10 Cl 2
CAS: 10498-35-8
State: gas
Origin: EPA-IR VAPOR PHASE LIBRARY
1/CM	ABSORBANCE
549.8	0.004649
559.445	0.002389
569.09	0.0013671
578.734	0.0006333
588.379	0.000273
598.024	0.000157
607.669	0.000331
617.313	0.000547
626.958	0.0005922
636.603	0.000672339
646.248	0.000179
655.893	0.000387
665.537	0.000674603
675.182	0.0012282
684.827	0.004179
694.472	0.008789
704.116	0.008529
713.761	0.004079
723.406	0.002559
733.051	0.005069
742.695	0.009669
752.34	0.008989
761.985	0.003019
771.63	0.001018
781.275	0.00073763
790.919	0.0009089
800.564	0.001879
810.209	0.005859
819.854	0.008319
829.498	0.007089
839.143	0.004289
848.788	0.001979
858.433	0.002059
868.078	0.006219
877.722	0.010789
887.367	0.010449
897.012	0.006179
906.657	0.005959
916.301	0.003349
925.946	0.0012194
935.591	0.0007756
945.236	0.00073949
954.88	0.0008725
964.525	0.0016028
974.17	0.005699
983.815	0.009939
993.46	0.008039
1003.1	0.002899
1012.75	0.0010292
1022.39	0.0012473
1032.04	0.0012343
1041.68	0.0008688
1051.33	0.0011794
1060.97	0.0015868
1070.62	0.0016169
1080.26	0.001619
1089.91	0.0010465
1099.55	0.000867
1109.2	0.0005936
1118.84	0.0005926
1128.49	0.000936
1138.13	0.0012508
1147.78	0.000233
1157.42	0.0006082
1167.07	0.00070162
1176.71	0.0011734
1186.36	0.002619
1196	0.003339
1205.64	0.003179
1215.29	0.003359
1224.93	0.003809
1234.58	0.003649
1244.22	0.001809
1253.87	0.003119
1263.51	0.006959
1273.16	0.009529
1282.8	0.007519
1292.45	0.005199
1302.09	0.005569
1311.74	0.004769
1321.38	0.003359
1331.03	0.002339
1340.67	0.003339
1350.32	0.004369
1359.96	0.003859
1369.61	0.002119
1379.25	0.0009508
1388.9	0.0008388
1398.54	0.0009135
1408.18	0.0009594
1417.83	0.0013328
1427.47	0.002779
1437.12	0.006949
1446.76	0.011229
1456.41	0.011529
1466.05	0.007549
1475.7	0.003399
1485.34	0.0012527
1494.99	0.00076869
1504.63	0.00073528
1514.28	0.000554
1523.92	0.0005877
1533.57	0.000519
1543.21	0.0005795
1552.86	0.000549
1562.5	0.0005737
1572.15	0.000454
1581.79	0.000453
1591.44	0.0005748
1601.08	0.000411
1610.73	0.000374
1620.37	0.000501
1630.01	0.000484
1639.66	0.000429
1649.3	0.0006401
1658.95	0.000471
1668.59	0.000524
1678.24	0.000495
1687.88	0.000559
1697.53	0.0006301
1707.17	0.000482
1716.82	0.0006535
1726.46	0.000534
1736.11	0.0005845
1745.75	0.000494
1755.4	0.000504
1765.04	0.000455
1774.69	0.000526
1784.33	0.00039
1793.98	0.000558
1803.62	0.000487
1813.27	0.000476
1822.91	0.000514
1832.55	0.000513
1842.2	0.000518
1851.84	0.000504
1861.49	0.000444
1871.13	0.000517
1880.78	0.000405
1890.42	0.000377
1900.07	0.000578
1909.71	0.000471
1919.36	0.000495
1929	0.000507
1938.65	0.00054
1948.29	0.000473
1957.94	0.000503
1967.58	0.000492
1977.23	0.0005746
1986.87	0.000567
1996.52	0.000483
2006.16	0.000564
2015.81	0.0005799
2025.45	0.000568
2035.1	0.000501
2044.74	0.000547
2054.38	0.000563
2064.03	0.000491
2073.67	0.000474
2083.32	0.00049
2092.96	0.000544
2102.61	0.000551
2112.25	0.0005767
2121.9	0.0005859
2131.54	0.0005739
2141.19	0.000554
2150.83	0.0006405
2160.48	0.00067915
2170.12	0.0008089
2179.77	0.00065964
2189.41	0.00068695
2199.06	0.00065976
2208.7	0.0006335
2218.35	0.0005691
2227.99	0.000546
2237.64	0.0006044
2247.28	0.00056
2256.92	0.0006377
2266.57	0.0005803
2276.21	0.0005788
2285.86	0.000526
2295.5	0.000465
2305.15	0.000617
2314.79	0.000534
2324.44	0.0005743
2334.08	0.00066381
2343.73	0.0006462
2353.37	0.0006441
2363.02	0.00076283
2372.66	0.00053
2382.31	0.000562
2391.95	0.000561
2401.6	0.000531
2411.24	0.00069145
2420.89	0.00068847
2430.53	0.000555
2440.18	0.0006118
2449.82	0.00066397
2459.47	0.000519
2469.11	0.0006467
2478.75	0.0006042
2488.4	0.00072269
2498.04	0.0006054
2507.69	0.0006171
2517.33	0.000522
2526.98	0.0005958
2536.62	0.00071906
2546.27	0.0006493
2555.91	0.00070576
2565.56	0.00068111
2575.2	0.00070744
2584.85	0.00068517
2594.49	0.00071269
2604.14	0.00074807
2613.78	0.00073977
2623.43	0.0009946
2633.07	0.0009622
2642.72	0.0009221
2652.36	0.0010373
2662.01	0.0012801
2671.65	0.001304
2681.29	0.0011294
2690.94	0.0009453
2700.58	0.0008491
2710.23	0.0008217
2719.87	0.0006798
2729.52	0.000493
2739.16	0.000566
2748.81	0.0008643
2758.45	0.0008611
2768.1	0.0009222
2777.74	0.0010338
2787.39	0.0009817
2797.03	0.0011564
2806.68	0.0013237
2816.32	0.0012661
2825.97	0.0014897
2835.61	0.002209
2845.26	0.004969
2854.9	0.011869
2864.55	0.015589
2874.19	0.015869
2883.84	0.012019
2893.48	0.010099
2903.12	0.011129
2912.77	0.012149
2922.41	0.014559
2932.06	0.020359
2941.7	0.042299
2951.35	0.068219
2960.99	0.055539
2970.64	0.033539
2980.28	0.012339
2989.93	0.004179
2999.57	0.0015949
3009.22	0.0011953
3018.86	0.0009568
3028.51	0.00069258
3038.15	0.000668013
3047.8	0.00076522
3057.44	0.0008399
3067.09	0.00068437
3076.73	0.0010473
3086.38	0.000668784
3096.02	0.0006311
3105.67	0.0006164
3115.31	0.000558
3124.95	0.000473
3134.6	0.000557
3144.24	0.000602
3153.89	0.000429
3163.53	0.000498
3173.18	0.000308
3182.82	0.0006155
3192.47	0.000504
3202.11	0.000617
3211.76	0.000504
3221.4	0.0005708
3231.05	0.000595
3240.69	0.000541
3250.34	0.000519
3259.98	0.000326
3269.63	0.0006007
3279.27	0.000463
3288.92	0.00036
3298.56	0.000671009
3308.21	0.00055
3317.85	0.000481
3327.49	0.000549
3337.14	0.000519
3346.78	0.000496
3356.43	0.000332
3366.07	0.000277
3375.72	0.000437
3385.36	0.00043
3395.01	0.00018
3404.65	0.00071647
3414.3	0.000386
3423.94	0.000554
3433.59	0.00037
3443.23	0.000364
3452.88	0.0006036
3462.52	0.000603
3472.17	0.000464
3481.81	0.000344
3491.46	0.000334
3501.1	0.00067316
3510.75	0.000439
3520.39	0.000315
3530.04	0.000304
3539.68	0.00035
3549.32	0.000356
3558.97	0.000284
3568.61	0.000445
3578.26	0.000434
3587.9	0.000303
3597.55	0.000403
3607.19	0.000512
3616.84	0.000398
3626.48	0.000449
3636.13	0.000376
3645.77	0.000233
3655.42	0.000201
3665.06	0.000332
3674.71	0.000494
3684.35	0.000236
3694	0.000485
3703.64	0.000446
3713.29	0.000493
3722.93	0.00045
3732.58	0.000558
3742.22	0.000305
3751.86	0.00065
3761.51	0.000451
3771.15	0.000457
3780.8	0.0005979
3790.44	0.00032
3800.09	0.000478
3809.73	0.000386
3819.38	0.000196
3829.02	0.000236
3838.67	0.0006194
3848.31	0.000423
3857.96	0.000543
3867.6	0.000511
3877.25	0.000449
3886.89	0.000391
3896.54	0.000563
3906.18	0.000515
3915.83	0.00025
3925.47	0.000398
3935.12	0.000469
3944.76	0.0006256
3954.41	0.0006077
3964.05	0.000489
3973.69	0.000308
3983.34	0.000409
3992.98	0.000283
