Infrared Spectrum: Ethylidenecycloheptane
Formula: C 9 H 16
CAS: 10494-87-8
State: gas
Instrument: HP-GC/MS/IRD
Origin: NIST Mass Spectrometry Data Center
1/CM	ABSORBANCE
550	0.0003286
562	4.24e-05
574	0.000159
586	0.0002756
598	0.0003074
610	0.0002703
622	0.0002597
634	0.0001272
646	7.95e-05
658	0.000106
670	0.0001166
682	0.0001802
694	0.0001166
706	0.0001643
718	0.0001802
730	0.0002968
742	0.0003498
754	0.0004346
766	0.000583
778	0.000848
790	0.0014098
802	0.0019928
814	0.0015953
826	0.0009434
838	0.000901
850	0.0009699
862	0.0008639
874	0.0006307
886	0.0005088
898	0.0004929
910	0.0004929
922	0.0005883
934	0.0007844
946	0.0008745
958	0.0008003
970	0.000689
982	0.0006148
994	0.000742
1006	0.0008427
1018	0.000848
1030	0.0009063
1042	0.0007102
1054	0.0004134
1066	0.0003498
1078	0.0003445
1090	0.0003604
1102	0.0003816
1114	0.0003445
1126	0.0002862
1138	0.0003074
1150	0.0004717
1162	0.0004452
1174	0.0004505
1186	0.0005194
1198	0.0005035
1210	0.0003816
1222	0.0004187
1234	0.0004929
1246	0.0004876
1258	0.0005618
1270	0.0006254
1282	0.0005459
1294	0.0005035
1306	0.0005777
1318	0.0007049
1330	0.0009169
1342	0.0013992
1354	0.001431
1366	0.0009328
1378	0.0009434
1390	0.0010017
1402	0.0008798
1414	0.0009275
1426	0.0015847
1438	0.0034768
1450	0.0050562
1462	0.0043195
1474	0.002491
1486	0.0012879
1498	0.0007579
1510	0.0005618
1522	0.0005194
1534	0.0004823
1546	0.0003763
1558	0.0003021
1570	0.0003127
1582	0.0002915
1594	0.0002703
1606	0.0002809
1618	0.0002597
1630	0.0002385
1642	0.0002809
1654	0.0003286
1666	0.0003021
1678	0.0001802
1690	0.0001219
1702	9.54e-05
1714	9.01e-05
1726	9.01e-05
1738	9.01e-05
1750	6.89e-05
1762	7.42e-05
1774	5.83e-05
1786	9.01e-05
1798	0.000106
1810	0.0001431
1822	0.0001696
1834	0.0001802
1846	0.0001749
1858	0.0001272
1870	9.54e-05
1882	8.48e-05
1894	7.42e-05
1906	7.42e-05
1918	4.77e-05
1930	3.18e-05
1942	4.24e-05
1954	3.18e-05
1966	4.24e-05
1978	4.24e-05
1990	2.12e-05
2002	1.59e-05
2014	3.71e-05
2026	3.18e-05
2038	3.71e-05
2050	2.12e-05
2062	3.18e-05
2074	0
2086	2.12e-05
2098	1.06e-05
2110	3.18e-05
2122	1.59e-05
2134	2.65e-05
2146	2.65e-05
2158	4.77e-05
2170	4.24e-05
2182	3.71e-05
2194	3.18e-05
2206	3.71e-05
2218	5.83e-05
2230	6.36e-05
2242	7.95e-05
2254	5.83e-05
2266	4.77e-05
2278	5.3e-05
2290	5.83e-05
2302	6.36e-05
2314	5.3e-05
2326	6.36e-05
2338	5.83e-05
2350	7.95e-05
2362	8.48e-05
2374	9.01e-05
2386	9.01e-05
2398	0.0001007
2410	9.54e-05
2422	0.0001166
2434	9.54e-05
2446	0.0001113
2458	0.0001431
2470	0.0001166
2482	0.0001272
2494	0.0001325
2506	0.0001272
2518	0.0001537
2530	0.0001643
2542	0.0001749
2554	0.000159
2566	0.0001749
2578	0.0001908
2590	0.0002226
2602	0.0002385
2614	0.0003074
2626	0.0003445
2638	0.0003816
2650	0.0004664
2662	0.0006148
2674	0.0007791
2686	0.0008109
2698	0.0007579
2710	0.0006095
2722	0.0005618
2734	0.0005989
2746	0.0006042
2758	0.000636
2770	0.0007473
2782	0.0009169
2794	0.0011872
2806	0.001484
2818	0.0019345
2830	0.0030687
2842	0.0060897
2854	0.0127359
2866	0.0163346
2878	0.01378
2890	0.0122324
2902	0.0157569
2914	0.0283073
2926	0.0500797
2938	0.0471064
2950	0.0242528
2962	0.0112095
2974	0.0065932
2986	0.0050032
2998	0.0042983
3010	0.0036994
3022	0.0033231
3034	0.0029468
3046	0.0023532
3058	0.0015529
3070	0.0009805
3082	0.0007155
3094	0.0005777
3106	0.0004876
3118	0.0004028
3130	0.0003604
3142	0.0003339
3154	0.0002915
3166	0.0002491
3178	0.0002385
3190	0.0002544
3202	0.0002597
3214	0.0002332
3226	0.0002491
3238	0.0002226
3250	0.0002014
3262	0.0001961
3274	0.0001802
3286	0.0001696
3298	0.0001643
3310	0.0001378
3322	0.0001325
3334	0.000106
3346	0.000159
3358	0.0001431
3370	0.0001537
3382	0.0001378
3394	0.0001219
3406	0.0001484
3418	0.0001272
3430	0.0001272
3442	0.0001325
3454	0.000106
3466	9.54e-05
3478	9.01e-05
3490	8.48e-05
3502	6.89e-05
3514	6.89e-05
3526	5.3e-05
3538	5.83e-05
3550	7.95e-05
3562	7.95e-05
3574	5.3e-05
3586	9.54e-05
3598	9.54e-05
3610	4.24e-05
3622	4.77e-05
3634	8.48e-05
3646	8.48e-05
3658	7.42e-05
3670	7.42e-05
3682	9.54e-05
3694	0.0001325
3706	0.0001007
3718	0.0001219
3730	0.000106
3742	0.0001272
3754	9.01e-05
3766	8.48e-05
3778	0.0001166
3790	0.0001113
3802	0.0001007
3814	0.0001431
3826	0.0001219
3838	0.0001272
