Infrared Spectrum: 4-Bromo-1,1,2-trifluoro-1-butene
Formula: C 4 H 4 Br F 3
CAS: 10493-44-4
State: gas
Origin: EPA-IR VAPOR PHASE LIBRARY
1/CM	ABSORBANCE
549.9	0.001492
559.547	0.002202
569.193	0.003032
578.84	0.003122
588.486	0.001412
598.133	0.0009121
607.779	0.0005019
617.426	0.0005071
627.072	0.0004457
636.719	0.0003833
646.365	0.000397
656.012	0.000641
665.658	0.0009902
675.305	0.001442
684.951	0.0009463
694.598	0.000482
704.245	0.0003803
713.891	0.000414
723.538	0.0003796
733.184	0.0003869
742.831	0.00025449
752.477	0.00023148
762.124	0.0003155
771.77	0.00025888
781.417	0.0003577
791.063	0.00025786
800.71	0.000269
810.356	0.000171718
820.003	0.00021812
829.649	0.00019812
839.296	0.0003086
848.943	0.0003302
858.589	0.0006598
868.236	0.0009758
877.882	0.0007423
887.529	0.0004346
897.175	0.0004898
906.822	0.000566
916.468	0.000788
926.115	0.0008787
935.761	0.0007699
945.408	0.0009393
955.054	0.0009937
964.701	0.0007194
974.347	0.0006659
983.994	0.000933
993.64	0.0010298
1003.29	0.0007391
1012.93	0.0005301
1022.58	0.0004656
1032.23	0.0005161
1041.87	0.0006178
1051.52	0.0009748
1061.17	0.002042
1070.81	0.004602
1080.46	0.008722
1090.11	0.010352
1099.75	0.007502
1109.4	0.003192
1119.05	0.002142
1128.69	0.001892
1138.34	0.002032
1147.99	0.003662
1157.63	0.007262
1167.28	0.009242
1176.92	0.005472
1186.57	0.003372
1196.22	0.003622
1205.86	0.004012
1215.51	0.005842
1225.16	0.007412
1234.8	0.010182
1244.45	0.012072
1254.1	0.010862
1263.74	0.007722
1273.39	0.007552
1283.04	0.010642
1292.68	0.014612
1302.33	0.019332
1311.98	0.017092
1321.62	0.007362
1331.27	0.002772
1340.92	0.001482
1350.56	0.0011132
1360.21	0.0008423
1369.86	0.0006504
1379.5	0.0005087
1389.15	0.0003998
1398.79	0.0003698
1408.44	0.000431
1418.09	0.0007055
1427.73	0.0009886
1437.38	0.0009882
1447.03	0.0008629
1456.67	0.0005562
1466.32	0.000334
1475.97	0.00021377
1485.61	0.00021778
1495.26	0.0001221
1504.91	0.0001212
1514.55	9.61e-05
1524.2	0.0001005
1533.85	8.6e-05
1543.49	0.0001095
1553.14	5e-05
1562.79	0.0001027
1572.43	0.0001182
1582.08	0.000129
1591.73	8.63e-05
1601.37	0.00020091
1611.02	0.0001034
1620.67	4.2e-05
1630.31	8.97e-05
1639.96	7.2e-05
1649.6	0.0001296
1659.25	0.0001236
1668.9	7.48e-05
1678.54	2.6e-05
1688.19	0.0001162
1697.84	0.0001146
1707.48	0.0001154
1717.13	0.0001586
1726.78	0.00021166
1736.42	0.0003107
1746.07	0.0005712
1755.72	0.0010474
1765.36	0.002092
1775.01	0.005002
1784.66	0.010162
1794.3	0.011532
1803.95	0.005562
1813.6	0.001472
1823.24	0.0004672
1832.89	0.0003156
1842.54	0.00020918
1852.18	0.0001269
1861.83	0.0001247
1871.47	7.68e-05
1881.12	7.1e-05
1890.77	4.7e-05
1900.41	9e-05
1910.06	5e-05
1919.71	5.2e-05
1929.35	6.2e-05
1939	9.8e-05
1948.65	6.7e-05
1958.29	8.53e-05
1967.94	5.5e-05
1977.59	0.0001231
1987.23	4.5e-05
1996.88	5.7e-05
2006.53	0.0001246
2016.17	0.0001134
2025.82	0.0001443
2035.47	0.00016411
2045.11	8.16e-05
2054.76	4.3e-05
2064.41	7.26e-05
2074.05	3.5e-05
2083.7	4.3e-05
2093.35	3.4e-05
2102.99	5e-06
2112.64	0
2122.28	8.66e-05
2131.93	5.2e-05
2141.58	6.5e-05
2151.22	7.75e-05
2160.87	5e-05
2170.52	0.0001146
2180.16	8.69e-05
2189.81	6.8e-05
2199.46	7.45e-05
2209.1	8.4e-05
2218.75	8.18e-05
2228.4	5.6e-05
2238.04	3.6e-05
2247.69	3.2e-05
2257.34	9e-06
2266.98	3.4e-05
2276.63	7.9e-05
2286.28	2.6e-05
2295.92	0.0001012
2305.57	1.8e-05
2315.22	4.2e-05
2324.86	9.58e-05
2334.51	4.2e-05
2344.16	4.3e-05
2353.8	0.000121
2363.45	5.6e-05
2373.09	7.73e-05
2382.74	8.84e-05
2392.39	0.0001233
2402.03	0.0001697
2411.68	9.01e-05
2421.33	3.9e-05
2430.97	0.0001085
2440.62	8.58e-05
2450.27	0.0001188
2459.91	0.000174773
2469.56	9.18e-05
2479.21	0.0001005
2488.85	0.0001033
2498.5	0.0001092
2508.15	0.0001082
2517.79	0.0001497
2527.44	0.0001284
2537.09	0.0001075
2546.73	0.0001033
2556.38	0.000127
2566.03	0.0001396
2575.67	0.000177505
2585.32	0.00019578
2594.96	0.00026026
2604.61	0.00018518
2614.26	0.00023265
2623.9	0.0001404
2633.55	0.0001444
2643.2	9.55e-05
2652.84	0.0001497
2662.49	0.0001058
2672.14	9.89e-05
2681.78	0.0001333
2691.43	0.0001186
2701.08	0.00020061
2710.72	0.0001685
2720.37	0.0001054
2730.02	0.0001288
2739.66	9.7e-05
2749.31	0.0001242
2758.96	5.9e-05
2768.6	0.0001233
2778.25	9.2e-05
2787.9	0.000101
2797.54	0.00018248
2807.19	7.56e-05
2816.84	0.00016948
2826.48	0.00023637
2836.13	0.00020059
2845.77	0.00019537
2855.42	0.0003669
2865.07	0.0003134
2874.71	0.0003866
2884.36	0.000367
2894.01	0.0004477
2903.65	0.000781
2913.3	0.0008147
2922.95	0.0006578
2932.59	0.0004706
2942.24	0.0005606
2951.89	0.0005193
2961.53	0.0006329
2971.18	0.0009957
2980.83	0.001272
2990.47	0.001462
3000.12	0.0008667
3009.77	0.0005468
3019.41	0.0005271
3029.06	0.0003571
3038.71	0.0003593
3048.35	0.0004403
3058	0.000358
3067.64	0.0003437
3077.29	0.0003513
3086.94	0.00023357
3096.58	0.0003117
3106.23	0.0003589
3115.88	0.00024602
3125.52	0.00020965
3135.17	0.00016787
3144.82	9.94e-05
3154.46	0.0001573
3164.11	0.0001367
3173.76	0.0002847
3183.4	0.0003504
3193.05	0.0003654
3202.7	0.00020818
3212.34	0.00022704
3221.99	0.0002307
3231.64	0.0003264
3241.28	0.0003693
3250.93	0.000275
3260.58	0.0002861
3270.22	0.0002424
3279.87	0.0003104
3289.52	0.0004022
3299.16	0.00024061
3308.81	0.00024363
3318.45	0.0002885
3328.1	0.00020993
3337.75	0.0004751
3347.39	0.0001213
3357.04	0.00020872
3366.69	0.00021778
3376.33	0.0003144
3385.98	0.000171051
3395.63	0.0003797
3405.27	0.0003715
3414.92	0.0004279
3424.57	0.0003878
3434.21	0.0003836
3443.86	0.0003179
3453.51	0.0003453
3463.15	0.0004206
3472.8	0.0002807
3482.45	0.0003537
3492.09	0.0003931
3501.74	0.0003482
3511.39	0.0004457
3521.03	0.0002941
3530.68	0.0001353
3540.33	0.0003583
3549.97	0.00023443
3559.62	0.0003637
3569.26	0.0003894
3578.91	0.0003458
3588.56	0.0003907
3598.2	0.00019648
3607.85	0.0003417
3617.5	0.0003133
3627.14	0.00025884
3636.79	0.00021145
3646.44	0.0004445
3656.08	0.0002951
3665.73	0.00018392
3675.38	0.0004157
3685.02	0.0001197
3694.67	0.00019011
3704.32	0.0002442
3713.96	0.00020286
3723.61	0.00022182
3733.26	0.00025235
3742.9	0.00017116
3752.55	0.00027153
3762.2	0.00026103
3771.84	0.00016603
3781.49	0.0001345
3791.13	0.0001584
3800.78	0.00026054
3810.43	0.00026809
3820.07	0.00026409
3829.72	0.00016832
3839.37	0.0003088
3849.01	0.000181615
3858.66	8.63e-05
3868.31	0.0003435
3877.95	0.00019922
3887.6	0.0002976
3897.25	0.0001551
3906.89	0.00023721
3916.54	0.00020941
3926.19	0.00024306
3935.83	0.00020142
3945.48	0.00026721
3955.13	0.00025059
3964.77	0.0003565
3974.42	0.00024334
3984.07	0.0003268
3993.71	0.00023697
