Infrared Spectrum: Methyl cyanoacetate
Formula: C 4 H 5 N O 2
CAS: 105-34-0
State: gas
Origin: EPA-IR VAPOR PHASE LIBRARY
1/CM	ABSORBANCE
549.8	0.00232
559.445	0.00286
569.09	0.00379
578.734	0.005
588.379	0.00588
598.024	0.00709
607.669	0.00696
617.313	0.00611
626.958	0.00506
636.603	0.00367
646.248	0.00254
655.893	0.00295
665.537	0.00355
675.182	0.00504
684.827	0.00575
694.472	0.00615
704.116	0.0061
713.761	0.00586
723.406	0.00595
733.051	0.00619
742.695	0.00575
752.34	0.00525
761.985	0.00442
771.63	0.00464
781.275	0.00459
790.919	0.00482
800.564	0.00528
810.209	0.006
819.854	0.00845
829.498	0.01195
839.143	0.01333
848.788	0.01298
858.433	0.00873
868.078	0.00668
877.722	0.00569
887.367	0.0055
897.012	0.00484
906.657	0.00465
916.301	0.0045
925.946	0.00481
935.591	0.00528
945.236	0.00483
954.88	0.0043
964.525	0.00408
974.17	0.00451
983.815	0.00684
993.46	0.01361
1003.1	0.0305
1012.75	0.04813
1022.39	0.04998
1032.04	0.03362
1041.68	0.01159
1051.33	0.00736
1060.97	0.00545
1070.62	0.00508
1080.26	0.00474
1089.91	0.00461
1099.55	0.00571
1109.2	0.00743
1118.84	0.00997
1128.49	0.01682
1138.13	0.03043
1147.78	0.05606
1157.42	0.08721
1167.07	0.10635
1176.71	0.11114
1186.36	0.10376
1196	0.09764
1205.64	0.08697
1215.29	0.07358
1224.93	0.06309
1234.58	0.06783
1244.22	0.08711
1253.87	0.12012
1263.51	0.14321
1273.16	0.13525
1282.8	0.0996
1292.45	0.06879
1302.09	0.06203
1311.74	0.06265
1321.38	0.06073
1331.03	0.05707
1340.67	0.04846
1350.32	0.03556
1359.96	0.01876
1369.61	0.01235
1379.25	0.01115
1388.9	0.0119
1398.54	0.01413
1408.18	0.01695
1417.83	0.01962
1427.47	0.02652
1437.12	0.03589
1446.76	0.03685
1456.41	0.02098
1466.05	0.01248
1475.7	0.00989
1485.34	0.00794
1494.99	0.00649
1504.63	0.00553
1514.28	0.00499
1523.92	0.00481
1533.57	0.00479
1543.21	0.00484
1552.86	0.00471
1562.5	0.00472
1572.15	0.00459
1581.79	0.00456
1591.44	0.00448
1601.08	0.00428
1610.73	0.00417
1620.37	0.00393
1630.01	0.00395
1639.66	0.00394
1649.3	0.00414
1658.95	0.00437
1668.59	0.0045
1678.24	0.00445
1687.88	0.00474
1697.53	0.00536
1707.17	0.00701
1716.82	0.01041
1726.46	0.0172
1736.11	0.03124
1745.75	0.06003
1755.4	0.11575
1765.04	0.18754
1774.69	0.20836
1784.33	0.20473
1793.98	0.1348
1803.62	0.07117
1813.27	0.03374
1822.91	0.01492
1832.55	0.00796
1842.2	0.00591
1851.84	0.00524
1861.49	0.00484
1871.13	0.00439
1880.78	0.00396
1890.42	0.00368
1900.07	0.00343
1909.71	0.00323
1919.36	0.00307
1929	0.00303
1938.65	0.00291
1948.29	0.00282
1957.94	0.00268
1967.58	0.00256
1977.23	0.0025
1986.87	0.00262
1996.52	0.00293
2006.16	0.00317
2015.81	0.00354
2025.45	0.00389
2035.1	0.00396
2044.74	0.00367
2054.38	0.00324
2064.03	0.00293
2073.67	0.00288
2083.32	0.00298
2092.96	0.00303
2102.61	0.00301
2112.25	0.00273
2121.9	0.00222
2131.54	0.00193
2141.19	0.0018
2150.83	0.00156
2160.48	0.00158
2170.12	0.00154
2179.77	0.0014
2189.41	0.00129
2199.06	0.00119
2208.7	0.00135
2218.35	0.00136
2227.99	0.00133
2237.64	0.0014
2247.28	0.00158
2256.92	0.00178
2266.57	0.00204
2276.21	0.00186
2285.86	0.00153
2295.5	0.00127
2305.15	0.00136
2314.79	0.00137
2324.44	0.00136
2334.08	0.00164
2343.73	0.00158
2353.37	0.00174
2363.02	0.00171
2372.66	0.0016
2382.31	0.00146
2391.95	0.00135
2401.6	0.00125
2411.24	0.00122
2420.89	0.00127
2430.53	0.00128
2440.18	0.00126
2449.82	0.0013
2459.47	0.00138
2469.11	0.00133
2478.75	0.0013
2488.4	0.00142
2498.04	0.00128
2507.69	0.00132
2517.33	0.00146
2526.98	0.0013
2536.62	0.00144
2546.27	0.00139
2555.91	0.00133
2565.56	0.00133
2575.2	0.00128
2584.85	0.00141
2594.49	0.00157
2604.14	0.00159
2613.78	0.00154
2623.43	0.00144
2633.07	0.00134
2642.72	0.0011
2652.36	0.00124
2662.01	0.00128
2671.65	0.00115
2681.29	0.00123
2690.94	0.00125
2700.58	0.00125
2710.23	0.00113
2719.87	0.00128
2729.52	0.00109
2739.16	0.00102
2748.81	0.0009158
2758.45	0.00101
2768.1	0.0009828
2777.74	0.0009862
2787.39	0.00112
2797.03	0.00115
2806.68	0.00137
2816.32	0.00148
2825.97	0.00186
2835.61	0.00269
2845.26	0.00455
2854.9	0.00557
2864.55	0.00564
2874.19	0.00351
2883.84	0.00315
2893.48	0.00388
2903.12	0.00499
2912.77	0.00557
2922.41	0.0055
2932.06	0.00629
2941.7	0.0086
2951.35	0.01735
2960.99	0.02904
2970.64	0.02802
2980.28	0.0203
2989.93	0.01026
2999.57	0.0091
3009.22	0.00991
3018.86	0.01003
3028.51	0.00998
3038.15	0.00898
3047.8	0.00775
3057.44	0.00585
3067.09	0.00464
3076.73	0.00394
3086.38	0.00359
3096.02	0.00331
3105.67	0.00325
3115.31	0.00288
3124.95	0.00263
3134.6	0.00222
3144.24	0.00195
3153.89	0.00157
3163.53	0.00147
3173.18	0.00155
3182.82	0.00137
3192.47	0.00148
3202.11	0.00152
3211.76	0.00154
3221.4	0.0014
3231.05	0.00141
3240.69	0.0009684
3250.34	0.0008916
3259.98	0.0009794
3269.63	0.00107
3279.27	0.0008964
3288.92	0.00106
3298.56	0.000834
3308.21	0.0008911
3317.85	0.0009259
3327.49	0.0008342
3337.14	0.000908
3346.78	0.000943
3356.43	0.0008489
3366.07	0.0008144
3375.72	0.00102
3385.36	0.0009419
3395.01	0.0008425
3404.65	0.00108
3414.3	0.0008875
3423.94	0.0008858
3433.59	0.0007984
3443.23	0.0009277
3452.88	0.00119
3462.52	0.00116
3472.17	0.00113
3481.81	0.00141
3491.46	0.0015
3501.1	0.00182
3510.75	0.00227
3520.39	0.00317
3530.04	0.00347
3539.68	0.00348
3549.32	0.00289
3558.97	0.00244
3568.61	0.00194
3578.26	0.00144
3587.9	0.00102
3597.55	0.00109
3607.19	0.0011
3616.84	0.00118
3626.48	0.0009346
3636.13	0.0006777
3645.77	0.00101
3655.42	0.0008996
3665.06	0.0009316
3674.71	0.0009706
3684.35	0.00109
3694	0.0009616
3703.64	0.0009836
3713.29	0.0007492
3722.93	0.001
3732.58	0.0008117
3742.22	0.0009851
3751.86	0.0008174
3761.51	0.0008995
3771.15	0.0008253
3780.8	0.0008398
3790.44	0.0008191
3800.09	0.0009365
3809.73	0.0008761
3819.38	0.000813
3829.02	0.0009305
3838.67	0.0009497
3848.31	0.00106
3857.96	0.0007853
3867.6	0.0008891
3877.25	0.0007756
3886.89	0.0009037
3896.54	0.0011
3906.18	0.0008928
3915.83	0.0009247
3925.47	0.0009504
3935.12	0.0009664
3944.76	0.00106
3954.41	0.0007576
3964.05	0.00105
3973.69	0.00118
3983.34	0.00102
3992.98	0.00109
