Infrared Spectrum: 5-(Diethylamino)-2-pentanone
Formula: C 9 H 19 N O
CAS: 105-14-6
State: gas
Origin: EPA-IR VAPOR PHASE LIBRARY
1/CM	ABSORBANCE
501.5	0.001265
513.074	0.001905
524.648	0.001785
536.222	0.001835
547.796	0.001435
559.37	0.0011406
570.944	0.000737
582.518	0.0008015
594.092	0.0011173
605.666	0.000871
617.24	0.0003439
628.814	0.0001676
640.388	0
651.962	0.0001768
663.536	0.0001579
675.11	0.000235998
686.684	0.0003432
698.258	0.0008518
709.832	0.001445
721.406	0.001475
732.98	0.0010763
744.554	0.001315
756.128	0.001725
767.702	0.001825
779.276	0.001635
790.85	0.001715
802.423	0.001755
813.997	0.001395
825.571	0.0008812
837.145	0.0006657
848.719	0.0005852
860.293	0.0006603
871.867	0.0007509
883.441	0.0007941
895.015	0.0008659
906.589	0.001083
918.163	0.001345
929.737	0.001565
941.311	0.002295
952.885	0.003105
964.459	0.003145
976.033	0.002995
987.607	0.002835
999.181	0.002705
1010.76	0.002995
1022.33	0.003625
1033.9	0.004585
1045.48	0.006505
1057.05	0.009255
1068.63	0.011775
1080.2	0.011835
1091.77	0.009575
1103.35	0.007475
1114.92	0.006965
1126.49	0.007115
1138.07	0.008485
1149.64	0.011535
1161.22	0.013605
1172.79	0.013595
1184.36	0.012305
1195.94	0.013235
1207.51	0.012895
1219.09	0.009435
1230.66	0.007565
1242.23	0.006175
1253.81	0.005545
1265.38	0.005015
1276.96	0.005205
1288.53	0.006635
1300.1	0.007505
1311.68	0.007255
1323.25	0.007675
1334.83	0.010205
1346.4	0.015775
1357.97	0.022345
1369.55	0.021085
1381.12	0.017245
1392.7	0.011345
1404.27	0.007185
1415.84	0.006325
1427.42	0.005965
1438.99	0.006255
1450.57	0.007455
1462.14	0.007965
1473.71	0.006735
1485.29	0.004065
1496.86	0.002415
1508.44	0.001915
1520.01	0.001705
1531.58	0.001545
1543.16	0.001455
1554.73	0.001375
1566.31	0.001245
1577.88	0.0011189
1589.45	0.0010302
1601.03	0.0009487
1612.6	0.0009379
1624.18	0.0009617
1635.75	0.0010882
1647.32	0.0012135
1658.9	0.001505
1670.47	0.002175
1682.05	0.003565
1693.62	0.006015
1705.19	0.010575
1716.77	0.020545
1728.34	0.031775
1739.92	0.023065
1751.49	0.010645
1763.06	0.005425
1774.64	0.002945
1786.21	0.001745
1797.79	0.0011936
1809.36	0.0008678
1820.93	0.0006888
1832.51	0.0005841
1844.08	0.0005166
1855.66	0.0004678
1867.23	0.0004204
1878.8	0.0004274
1890.38	0.000401
1901.95	0.000419
1913.53	0.0003695
1925.1	0.0003467
1936.67	0.0003581
1948.25	0.0003744
1959.82	0.0003601
1971.4	0.00031081
1982.97	0.00030031
1994.54	0.00025046
2006.12	0.00027747
2017.69	0.00027658
2029.27	0.00026888
2040.84	0.00026679
2052.41	0.00027973
2063.99	0.00031159
2075.56	0.0003523
2087.14	0.0003791
2098.71	0.0003572
2110.28	0.0003845
2121.86	0.0003765
2133.43	0.0003652
2145.01	0.0003384
2156.58	0.0003421
2168.15	0.0002991
2179.73	0.0003636
2191.3	0.00031619
2202.88	0.00028048
2214.45	0.00025927
2226.02	0.0002833
2237.6	0.00029191
2249.17	0.00032649
2260.74	0.000361
2272.32	0.00032751
2283.89	0.0003428
2295.47	0.00033277
2307.04	0.00033152
2318.61	0.0003391
2330.19	0.00030865
2341.76	0.0003351
2353.34	0.0003595
2364.91	0.0003738
2376.48	0.0003528
2388.06	0.00032328
2399.63	0.0003508
2411.21	0.0003402
2422.78	0.0003729
2434.35	0.0003533
2445.93	0.0003667
2457.5	0.00033041
2469.08	0.00033425
2480.65	0.0003474
2492.22	0.0004031
2503.8	0.0004274
2515.37	0.0004708
2526.95	0.0005118
2538.52	0.0005596
2550.09	0.0006562
2561.67	0.0007291
2573.24	0.0008132
2584.82	0.0009066
2596.39	0.0009667
2607.96	0.0010497
2619.54	0.0011004
2631.11	0.001295
2642.69	0.001535
2654.26	0.001795
2665.83	0.002085
2677.41	0.002475
2688.98	0.002815
2700.56	0.003245
2712.13	0.003825
2723.7	0.004375
2735.28	0.004815
2746.85	0.005445
2758.43	0.006605
2770	0.008115
2781.57	0.010595
2793.15	0.015785
2804.72	0.022735
2816.3	0.024065
2827.87	0.019465
2839.44	0.014085
2851.02	0.011165
2862.59	0.011165
2874.17	0.014155
2885.74	0.017125
2897.31	0.018475
2908.89	0.019955
2920.46	0.022645
2932.04	0.029495
2943.61	0.033365
2955.18	0.031185
2966.76	0.037515
2978.33	0.040765
2989.91	0.022105
3001.48	0.010135
3013.05	0.006645
3024.63	0.004585
3036.2	0.003365
3047.78	0.002765
3059.35	0.002435
3070.92	0.002205
3082.5	0.001835
3094.07	0.001615
3105.65	0.001385
3117.22	0.0011351
3128.79	0.0010054
3140.37	0.0008359
3151.94	0.0007607
3163.52	0.0006282
3175.09	0.0005819
3186.66	0.0005706
3198.24	0.0004835
3209.81	0.0003855
3221.39	0.00029234
3232.96	0.00032729
3244.53	0.0002714
3256.11	0.0002109
3267.68	0.0001929
3279.26	0.0001519
3290.83	0.0001698
3302.4	0.0001892
3313.98	0.000176
3325.55	0.000122
3337.13	0.0001644
3348.7	0.00022658
3360.27	0.0002094
3371.85	0.00023348
3383.42	0.00026183
3395	0.00027742
3406.57	0.00032196
3418.14	0.0003897
3429.72	0.0006327
3441.29	0.0007212
3452.86	0.0005894
3464.44	0.0003586
3476.01	0.00030861
3487.59	0.000218
3499.16	0.000115
3510.73	0.0001625
3522.31	9.3e-05
3533.88	9.3e-05
3545.46	4.4e-05
3557.03	5.5e-05
3568.6	9e-05
3580.18	0.00012
3591.75	0.0001411
3603.33	9.7e-05
3614.9	8.4e-05
3626.47	0.0001633
3638.05	0.000113
3649.62	0.000121
3661.2	0.0001593
3672.77	0.0001529
3684.34	0.0001738
3695.92	0.0002042
3707.49	0.0002038
3719.07	0.0001472
3730.64	0.0001565
3742.21	8.7e-05
3753.79	0.0002395
3765.36	0.0001362
3776.94	0.0001925
3788.51	0.000184
3800.08	0.00022599
3811.66	0.0001679
3823.23	0.0001382
3834.81	0.0002194
3846.38	0.000143
3857.95	0.0002145
3869.53	0.0001582
3881.1	0.0002118
3892.68	0.00024689
3904.25	0.0002568
3915.82	0.0002157
3927.4	0.000235251
3938.97	0.00032616
3950.55	0.000242799
3962.12	0.00028519
3973.69	0.0003477
3985.27	0.0003644
3996.84	0.00032724
